# generated using pymatgen
data_Rb4WS3O14
_symmetry_space_group_name_H-M   'P 1'
_cell_length_a   14.34597700
_cell_length_b   9.87720100
_cell_length_c   14.79716630
_cell_angle_alpha   48.59427843
_cell_angle_beta   90.00000000
_cell_angle_gamma   90.00000000
_symmetry_Int_Tables_number   1
_chemical_formula_structural   Rb4WS3O14
_chemical_formula_sum   'Rb16 W4 S12 O56'
_cell_volume   1572.64215439
_cell_formula_units_Z   4
loop_
 _symmetry_equiv_pos_site_id
 _symmetry_equiv_pos_as_xyz
  1  'x, y, z'
loop_
 _atom_site_type_symbol
 _atom_site_label
 _atom_site_symmetry_multiplicity
 _atom_site_fract_x
 _atom_site_fract_y
 _atom_site_fract_z
 _atom_site_occupancy
  Rb  Rb0  1  0.80968800  0.34268700  0.84591700  1
  Rb  Rb1  1  0.69031200  0.34268700  0.34591700  1
  Rb  Rb2  1  0.19031200  0.65731300  0.15408300  1
  Rb  Rb3  1  0.30968800  0.65731300  0.65408300  1
  Rb  Rb4  1  0.51080400  0.28817500  0.70333000  1
  Rb  Rb5  1  0.98919600  0.28817500  0.20333000  1
  Rb  Rb6  1  0.48919600  0.71182500  0.29667000  1
  Rb  Rb7  1  0.01080400  0.71182500  0.79667000  1
  Rb  Rb8  1  0.51366500  0.32230900  0.98602200  1
  Rb  Rb9  1  0.98633500  0.32230900  0.48602200  1
  Rb  Rb10  1  0.48633500  0.67769100  0.01397800  1
  Rb  Rb11  1  0.01366500  0.67769100  0.51397800  1
  Rb  Rb12  1  0.72597800  0.97742600  0.75354700  1
  Rb  Rb13  1  0.77402200  0.97742600  0.25354700  1
  Rb  Rb14  1  0.27402200  0.02257400  0.24645300  1
  Rb  Rb15  1  0.22597800  0.02257400  0.74645300  1
  W  W0  1  0.61813100  0.75170600  0.58147800  1
  W  W1  1  0.88186900  0.75170600  0.08147800  1
  W  W2  1  0.38186900  0.24829400  0.41852200  1
  W  W3  1  0.11813100  0.24829400  0.91852200  1
  S  S0  1  0.48077800  0.88113400  0.69499600  1
  S  S1  1  0.01922200  0.88113400  0.19499600  1
  S  S2  1  0.51922200  0.11886600  0.30500400  1
  S  S3  1  0.98077800  0.11886600  0.80500400  1
  S  S4  1  0.72810500  0.51899600  0.52111900  1
  S  S5  1  0.77189500  0.51899600  0.02111900  1
  S  S6  1  0.27189500  0.48100400  0.47888100  1
  S  S7  1  0.22810500  0.48100400  0.97888100  1
  S  S8  1  0.84108300  0.91025700  0.55359600  1
  S  S9  1  0.65891700  0.91025700  0.05359600  1
  S  S10  1  0.15891700  0.08974300  0.44640400  1
  S  S11  1  0.34108300  0.08974300  0.94640400  1
  O  O0  1  0.63827300  0.55636700  0.73298400  1
  O  O1  1  0.86172700  0.55636700  0.23298400  1
  O  O2  1  0.36172700  0.44363300  0.26701600  1
  O  O3  1  0.13827300  0.44363300  0.76701600  1
  O  O4  1  0.51246200  0.69041800  0.55458400  1
  O  O5  1  0.98753800  0.69041800  0.05458400  1
  O  O6  1  0.48753800  0.30958200  0.44541600  1
  O  O7  1  0.01246200  0.30958200  0.94541600  1
  O  O8  1  0.70416500  0.69060300  0.50710800  1
  O  O9  1  0.79583500  0.69060300  0.00710800  1
  O  O10  1  0.29583500  0.30939700  0.49289200  1
  O  O11  1  0.20416500  0.30939700  0.99289200  1
  O  O12  1  0.55965800  0.90442600  0.61410500  1
  O  O13  1  0.94034200  0.90442600  0.11410500  1
  O  O14  1  0.44034200  0.09557400  0.38589500  1
  O  O15  1  0.05965800  0.09557400  0.88589500  1
  O  O16  1  0.73284300  0.90690500  0.55980900  1
  O  O17  1  0.76715700  0.90690500  0.05980900  1
  O  O18  1  0.26715700  0.09309500  0.44019100  1
  O  O19  1  0.23284300  0.09309500  0.94019100  1
  O  O20  1  0.60281900  0.02063100  0.38562800  1
  O  O21  1  0.89718100  0.02063100  0.88562800  1
  O  O22  1  0.39718100  0.97936900  0.61437200  1
  O  O23  1  0.10281900  0.97936900  0.11437200  1
  O  O24  1  0.87585100  0.72241400  0.63984600  1
  O  O25  1  0.62414900  0.72241400  0.13984600  1
  O  O26  1  0.12414900  0.27758600  0.36015400  1
  O  O27  1  0.37585100  0.27758600  0.86015400  1
  O  O28  1  0.72732300  0.36036000  0.65075000  1
  O  O29  1  0.77267700  0.36036000  0.15075000  1
  O  O30  1  0.27267700  0.63964000  0.34925000  1
  O  O31  1  0.22732300  0.63964000  0.84925000  1
  O  O32  1  0.65390200  0.51192800  0.45589100  1
  O  O33  1  0.84609800  0.51192800  0.95589100  1
  O  O34  1  0.34609800  0.48807200  0.54410900  1
  O  O35  1  0.15390200  0.48807200  0.04410900  1
  O  O36  1  0.86929400  0.01306500  0.58962900  1
  O  O37  1  0.63070600  0.01306500  0.08962900  1
  O  O38  1  0.13070600  0.98693500  0.41037100  1
  O  O39  1  0.36929400  0.98693500  0.91037100  1
  O  O40  1  0.45822600  0.68994400  0.78875200  1
  O  O41  1  0.04177400  0.68994400  0.28875200  1
  O  O42  1  0.54177400  0.31005600  0.21124800  1
  O  O43  1  0.95822600  0.31005600  0.71124800  1
  O  O44  1  0.81980000  0.56349400  0.46401400  1
  O  O45  1  0.68020000  0.56349400  0.96401400  1
  O  O46  1  0.18020000  0.43650600  0.53598600  1
  O  O47  1  0.31980000  0.43650600  0.03598600  1
  O  O48  1  0.86736200  0.00204600  0.42845800  1
  O  O49  1  0.63263800  0.00204600  0.92845800  1
  O  O50  1  0.13263800  0.99795400  0.57154200  1
  O  O51  1  0.36736200  0.99795400  0.07154200  1
  O  O52  1  0.51514700  0.96412700  0.74146600  1
  O  O53  1  0.98485300  0.96412700  0.24146600  1
  O  O54  1  0.48485300  0.03587300  0.25853400  1
  O  O55  1  0.01514700  0.03587300  0.75853400  1
loop_
_geom_bond_atom_site_label_1
_geom_bond_atom_site_label_2
_geom_bond_distance
_geom_bond_site_symmetry_2
O0 W0 1.763642 1_555
O0 Rb0 2.937502 1_555
O0 Rb8 3.333095 1_555
O0 Rb4 3.477245 1_555
O1 W1 1.763642 1_555
O1 Rb1 2.937502 1_555
O1 Rb9 3.333095 1_555
O1 Rb5 3.477245 1_555
O2 W2 1.763642 1_555
O2 Rb2 2.937502 1_555
O2 Rb10 3.333095 1_555
O2 Rb6 3.477245 1_555
O3 W3 1.763642 1_555
O3 Rb3 2.937502 1_555
O3 Rb11 3.333095 1_555
O3 Rb7 3.477245 1_555
O4 W0 1.772431 1_555
O4 Rb4 3.010443 1_555
O4 Rb3 3.178052 1_555
O5 W1 1.772431 1_555
O5 Rb5 3.010443 1_555
O5 Rb2 3.178052 1_655
O6 W2 1.772431 1_555
O6 Rb6 3.010443 1_555
O6 Rb1 3.178052 1_555
O7 W3 1.772431 1_555
O7 Rb7 3.010443 1_555
O7 Rb0 3.178052 1_455
O8 S4 1.602845 1_555
O8 W0 1.994280 1_555
O8 Rb13 3.007884 1_555
O9 S5 1.602845 1_555
O9 W1 1.994280 1_555
O9 Rb12 3.007884 1_554
O10 S6 1.602845 1_555
O10 W2 1.994280 1_555
O10 Rb15 3.007884 1_555
O11 S7 1.602845 1_555
O11 W3 1.994280 1_555
O11 Rb14 3.007884 1_556
O12 S0 1.549814 1_555
O12 W0 2.043401 1_555
O12 Rb12 3.526804 1_555
O13 S1 1.549814 1_655
O13 W1 2.043401 1_555
O13 Rb13 3.526804 1_555
O14 S2 1.549814 1_555
O14 W2 2.043401 1_555
O14 Rb14 3.526804 1_555
O15 S3 1.549814 1_455
O15 W3 2.043401 1_555
O15 Rb15 3.526804 1_555
O16 S8 1.554586 1_555
O16 W0 2.123842 1_555
O16 Rb1 3.300946 1_565
O16 Rb12 3.369667 1_555
O17 S9 1.554586 1_555
O17 W1 2.123842 1_555
O17 Rb0 3.300946 1_564
O17 Rb13 3.369667 1_555
O18 S10 1.554586 1_555
O18 W2 2.123842 1_555
O18 Rb3 3.300946 1_545
O18 Rb14 3.369667 1_555
O19 S11 1.554586 1_555
O19 W3 2.123842 1_555
O19 Rb2 3.300946 1_546
O19 Rb15 3.369667 1_555
O20 S2 1.507252 1_555
O20 W0 2.306487 1_545
O20 Rb1 3.093066 1_555
O20 Rb13 3.337279 1_545
O21 S3 1.507252 1_555
O21 W1 2.306487 1_546
O21 Rb0 3.093066 1_555
O21 Rb12 3.337279 1_545
O22 S0 1.507252 1_555
O22 W2 2.306487 1_565
O22 Rb3 3.093066 1_555
O22 Rb15 3.337279 1_565
O23 S1 1.507252 1_555
O23 W3 2.306487 1_564
O23 Rb2 3.093066 1_555
O23 Rb14 3.337279 1_565
O24 S8 1.479109 1_555
O24 Rb11 2.942978 1_655
O24 Rb7 2.970366 1_655
O24 Rb0 3.022927 1_555
O25 S9 1.479109 1_555
O25 Rb10 2.942978 1_555
O25 Rb6 2.970366 1_555
O25 Rb1 3.022927 1_555
O26 S10 1.479109 1_555
O26 Rb9 2.942978 1_455
O26 Rb5 2.970366 1_455
O26 Rb2 3.022927 1_555
O27 S11 1.479109 1_555
O27 Rb8 2.942978 1_555
O27 Rb4 2.970366 1_555
O27 Rb3 3.022927 1_555
O28 S4 1.469342 1_555
O28 Rb12 3.001622 1_545
O28 Rb0 3.016606 1_555
O28 Rb4 3.166740 1_555
O29 S5 1.469342 1_555
O29 Rb13 3.001622 1_545
O29 Rb1 3.016606 1_555
O29 Rb5 3.166740 1_555
O30 S6 1.469342 1_555
O30 Rb14 3.001622 1_565
O30 Rb2 3.016606 1_555
O30 Rb6 3.166740 1_555
O31 S7 1.469342 1_555
O31 Rb15 3.001622 1_565
O31 Rb3 3.016606 1_555
O31 Rb7 3.166740 1_555
O32 S4 1.469281 1_555
O32 Rb6 2.979777 1_555
O32 Rb1 3.051812 1_555
O32 Rb4 3.435222 1_555
O33 S5 1.469281 1_556
O33 Rb7 2.979777 1_655
O33 Rb0 3.051812 1_555
O33 Rb5 3.435222 1_556
O34 S6 1.469281 1_555
O34 Rb4 2.979777 1_555
O34 Rb3 3.051812 1_555
O34 Rb6 3.435222 1_555
O35 S7 1.469281 1_554
O35 Rb5 2.979777 1_455
O35 Rb2 3.051812 1_555
O35 Rb7 3.435222 1_554
O36 S8 1.481694 1_545
O36 Rb9 2.881865 1_555
O36 Rb12 3.017422 1_545
O36 Rb7 3.209728 1_645
O37 S9 1.481694 1_545
O37 Rb8 2.881865 1_554
O37 Rb13 3.017422 1_545
O37 Rb6 3.209728 1_545
O38 S10 1.481694 1_565
O38 Rb11 2.881865 1_555
O38 Rb14 3.017422 1_565
O38 Rb5 3.209728 1_465
O39 S11 1.481694 1_565
O39 Rb10 2.881865 1_556
O39 Rb15 3.017422 1_565
O39 Rb4 3.209728 1_565
O40 S0 1.459454 1_555
O40 Rb8 2.884107 1_555
O40 Rb3 3.076557 1_555
O40 Rb10 3.278820 1_556
O41 S1 1.459454 1_555
O41 Rb9 2.884107 1_455
O41 Rb2 3.076557 1_555
O41 Rb11 3.278820 1_555
O42 S2 1.459454 1_555
O42 Rb10 2.884107 1_555
O42 Rb1 3.076557 1_555
O42 Rb8 3.278820 1_554
O43 S3 1.459454 1_555
O43 Rb11 2.884107 1_655
O43 Rb0 3.076557 1_555
O43 Rb9 3.278820 1_555
O44 S4 1.465041 1_555
O44 Rb13 3.162804 1_555
O44 Rb9 3.234614 1_555
O44 Rb11 3.264496 1_655
O45 S5 1.465041 1_556
O45 Rb12 3.162804 1_555
O45 Rb8 3.234614 1_555
O45 Rb10 3.264496 1_556
O46 S6 1.465041 1_555
O46 Rb15 3.162804 1_555
O46 Rb11 3.234614 1_555
O46 Rb9 3.264496 1_455
O47 S7 1.465041 1_554
O47 Rb14 3.162804 1_555
O47 Rb10 3.234614 1_555
O47 Rb8 3.264496 1_554
O48 S8 1.473836 1_545
O48 Rb13 3.063241 1_545
O48 Rb5 3.112214 1_555
O48 Rb11 3.302676 1_645
O49 S9 1.473836 1_546
O49 Rb12 3.063241 1_545
O49 Rb4 3.112214 1_555
O49 Rb10 3.302676 1_546
O50 S10 1.473836 1_565
O50 Rb15 3.063241 1_565
O50 Rb7 3.112214 1_555
O50 Rb9 3.302676 1_465
O51 S11 1.473836 1_564
O51 Rb14 3.063241 1_565
O51 Rb6 3.112214 1_555
O51 Rb8 3.302676 1_564
O52 S0 1.460655 1_555
O52 Rb4 2.859646 1_565
O52 Rb12 3.037818 1_555
O52 Rb10 3.056905 1_556
O53 S1 1.460655 1_655
O53 Rb5 2.859646 1_565
O53 Rb13 3.037818 1_555
O53 Rb11 3.056905 1_655
O54 S2 1.460655 1_555
O54 Rb6 2.859646 1_545
O54 Rb14 3.037818 1_555
O54 Rb8 3.056905 1_554
O55 S3 1.460655 1_455
O55 Rb7 2.859646 1_545
O55 Rb15 3.037818 1_555
O55 Rb9 3.056905 1_455
