# generated using pymatgen
data_NaSr2Mg
_symmetry_space_group_name_H-M   'P 1'
_cell_length_a   14.22345539
_cell_length_b   14.46866189
_cell_length_c   14.46866162
_cell_angle_alpha   60.03307036
_cell_angle_beta   60.55905025
_cell_angle_gamma   60.55904797
_symmetry_Int_Tables_number   1
_chemical_formula_structural   NaSr2Mg
_chemical_formula_sum   'Na1 Sr2 Mg1'
_cell_volume   2123.61429554
_cell_formula_units_Z   1
loop_
 _symmetry_equiv_pos_site_id
 _symmetry_equiv_pos_as_xyz
  1  'x, y, z'
loop_
 _atom_site_type_symbol
 _atom_site_label
 _atom_site_symmetry_multiplicity
 _atom_site_fract_x
 _atom_site_fract_y
 _atom_site_fract_z
 _atom_site_occupancy
  Na  Na0  1  -0.00000000  0.00000000  -0.00000000  1
  Sr  Sr0  1  0.73862597  0.00000000  1.00000000  1
  Sr  Sr1  1  0.26137403  1.00000000  0.00000000  1
  Mg  Mg0  1  0.50000000  0.00000000  -0.00000000  1
loop_
_geom_bond_atom_site_label_1
_geom_bond_atom_site_label_2
_geom_bond_distance
_geom_bond_site_symmetry_2
Na0 Sr1 3.717642 1_545
Na0 Sr0 3.717642 1_454
Mg0 Sr0 3.394086 1_554
Mg0 Sr1 3.394086 1_545
