# generated using pymatgen
data_Ba2YW3O8
_symmetry_space_group_name_H-M   'P 1'
_cell_length_a   4.11977400
_cell_length_b   4.11977400
_cell_length_c   11.99809100
_cell_angle_alpha   90.00000000
_cell_angle_beta   90.00000000
_cell_angle_gamma   90.00000000
_symmetry_Int_Tables_number   1
_chemical_formula_structural   Ba2YW3O8
_chemical_formula_sum   'Ba2 Y1 W3 O8'
_cell_volume   203.63805316
_cell_formula_units_Z   1
loop_
 _symmetry_equiv_pos_site_id
 _symmetry_equiv_pos_as_xyz
  1  'x, y, z'
loop_
 _atom_site_type_symbol
 _atom_site_label
 _atom_site_symmetry_multiplicity
 _atom_site_fract_x
 _atom_site_fract_y
 _atom_site_fract_z
 _atom_site_occupancy
  Ba  Ba0  1  0.50000000  0.50000000  0.18439000  1
  Ba  Ba1  1  0.50000000  0.50000000  0.81561000  1
  Y  Y0  1  0.50000000  0.50000000  0.50000000  1
  W  W0  1  0.00000000  0.00000000  0.39674800  1
  W  W1  1  0.00000000  0.00000000  0.00000000  1
  W  W2  1  0.00000000  0.00000000  0.60325200  1
  O  O0  1  0.00000000  0.50000000  0.36087600  1
  O  O1  1  0.50000000  0.00000000  0.36087600  1
  O  O2  1  0.50000000  0.00000000  0.00000000  1
  O  O3  1  0.00000000  0.00000000  0.16114000  1
  O  O4  1  0.00000000  0.50000000  0.63912400  1
  O  O5  1  0.50000000  0.00000000  0.63912400  1
  O  O6  1  0.00000000  0.00000000  0.83886000  1
  O  O7  1  0.00000000  0.50000000  0.00000000  1
loop_
_geom_bond_atom_site_label_1
_geom_bond_atom_site_label_2
_geom_bond_distance
_geom_bond_site_symmetry_2
Ba0 O3 2.926446 1_555
Ba0 O3 2.926446 1_655
Ba0 O3 2.926446 1_565
Ba0 O3 2.926446 1_665
Ba0 O1 2.954136 1_555
Ba0 O0 2.954136 1_555
Ba0 O1 2.954136 1_565
Ba0 O0 2.954136 1_655
Ba0 O7 3.022835 1_555
Ba0 O7 3.022835 1_655
Ba0 O2 3.022835 1_555
Ba0 O2 3.022835 1_565
Ba1 O6 2.926446 1_555
Ba1 O6 2.926446 1_565
Ba1 O6 2.926446 1_655
Ba1 O6 2.926446 1_665
Ba1 O5 2.954136 1_565
Ba1 O4 2.954136 1_655
Ba1 O5 2.954136 1_555
Ba1 O4 2.954136 1_555
Ba1 O7 3.022835 1_556
Ba1 O2 3.022835 1_566
Ba1 O7 3.022835 1_656
Ba1 O2 3.022835 1_556
O0 W0 2.104370 1_555
O0 W0 2.104370 1_565
O0 Y0 2.651309 1_455
O0 Y0 2.651309 1_555
O1 W0 2.104370 1_555
O1 W0 2.104370 1_655
O1 Y0 2.651309 1_545
O1 Y0 2.651309 1_555
O2 W1 2.059887 1_655
O2 W1 2.059887 1_555
O3 W1 1.933372 1_555
O4 W2 2.104370 1_555
O4 W2 2.104370 1_565
O4 Y0 2.651309 1_455
O4 Y0 2.651309 1_555
O5 W2 2.104370 1_655
O5 W2 2.104370 1_555
O5 Y0 2.651309 1_545
O5 Y0 2.651309 1_555
O6 W1 1.933372 1_556
O7 W1 2.059887 1_565
O7 W1 2.059887 1_555
