# generated using pymatgen
data_Sr6YGa3(Cu2O7)3
_symmetry_space_group_name_H-M   'P 1'
_cell_length_a   12.60501943
_cell_length_b   12.60501943
_cell_length_c   15.69705979
_cell_angle_alpha   78.03104564
_cell_angle_beta   78.03104564
_cell_angle_gamma   24.60838197
_symmetry_Int_Tables_number   1
_chemical_formula_structural   Sr6YGa3(Cu2O7)3
_chemical_formula_sum   'Sr12 Y2 Ga6 Cu12 O42'
_cell_volume   1014.89257437
_cell_formula_units_Z   2
loop_
 _symmetry_equiv_pos_site_id
 _symmetry_equiv_pos_as_xyz
  1  'x, y, z'
loop_
 _atom_site_type_symbol
 _atom_site_label
 _atom_site_symmetry_multiplicity
 _atom_site_fract_x
 _atom_site_fract_y
 _atom_site_fract_z
 _atom_site_occupancy
  Sr  Sr0  1  0.86201400  0.33892900  0.05295200  1
  Sr  Sr1  1  0.86161000  0.33719700  0.38279800  1
  Sr  Sr2  1  0.85914800  0.33481900  0.71896100  1
  Sr  Sr3  1  0.13883100  0.66059800  0.28202200  1
  Sr  Sr4  1  0.14081300  0.66437100  0.61738400  1
  Sr  Sr5  1  0.13771200  0.66173200  0.95323100  1
  Sr  Sr6  1  0.33481900  0.85914800  0.21896100  1
  Sr  Sr7  1  0.33892900  0.86201400  0.55295200  1
  Sr  Sr8  1  0.33719700  0.86161000  0.88279800  1
  Sr  Sr9  1  0.66437100  0.14081300  0.11738400  1
  Sr  Sr10  1  0.66173200  0.13771200  0.45323100  1
  Sr  Sr11  1  0.66059800  0.13883100  0.78202200  1
  Y  Y0  1  0.49981600  0.99968300  0.16691500  1
  Y  Y1  1  0.99968300  0.49981600  0.66691500  1
  Ga  Ga0  1  0.31758300  0.68254200  0.06875500  1
  Ga  Ga1  1  0.31834800  0.68042400  0.40332600  1
  Ga  Ga2  1  0.31894100  0.68143200  0.73662200  1
  Ga  Ga3  1  0.68143200  0.31894100  0.23662200  1
  Ga  Ga4  1  0.68254200  0.31758300  0.56875500  1
  Ga  Ga5  1  0.68042400  0.31834800  0.90332600  1
  Cu  Cu0  1  0.06564100  0.56040600  0.14630900  1
  Cu  Cu1  1  0.06466500  0.55861300  0.47342600  1
  Cu  Cu2  1  0.06417400  0.55902000  0.81983800  1
  Cu  Cu3  1  0.44101700  0.93524100  0.01437400  1
  Cu  Cu4  1  0.44071300  0.93518100  0.36117500  1
  Cu  Cu5  1  0.43909700  0.93397100  0.68867000  1
  Cu  Cu6  1  0.55902000  0.06417400  0.31983800  1
  Cu  Cu7  1  0.56040600  0.06564100  0.64630900  1
  Cu  Cu8  1  0.55861300  0.06466500  0.97342600  1
  Cu  Cu9  1  0.93397100  0.43909700  0.18867000  1
  Cu  Cu10  1  0.93524100  0.44101700  0.51437400  1
  Cu  Cu11  1  0.93518100  0.44071300  0.86117500  1
  O  O0  1  0.20425100  0.16568500  0.26795600  1
  O  O1  1  0.16899400  0.20150800  0.60921100  1
  O  O2  1  0.17548000  0.17258500  0.94198600  1
  O  O3  1  0.35114400  0.64560600  0.28154000  1
  O  O4  1  0.35568300  0.64672800  0.61399600  1
  O  O5  1  0.35082500  0.64905500  0.94675600  1
  O  O6  1  0.20150800  0.16899400  0.10921100  1
  O  O7  1  0.17258500  0.17548000  0.44198600  1
  O  O8  1  0.16568500  0.20425100  0.76795600  1
  O  O9  1  0.71796800  0.13953400  0.27951100  1
  O  O10  1  0.70710200  0.14706200  0.61394300  1
  O  O11  1  0.71501700  0.14097300  0.95076400  1
  O  O12  1  0.33949500  0.29601000  0.22309700  1
  O  O13  1  0.29673100  0.33900000  0.56608600  1
  O  O14  1  0.33079500  0.33058800  0.89057500  1
  O  O15  1  0.33900000  0.29673100  0.06608600  1
  O  O16  1  0.33058800  0.33079500  0.39057500  1
  O  O17  1  0.29601000  0.33949500  0.72309700  1
  O  O18  1  0.64672800  0.35568300  0.11399600  1
  O  O19  1  0.64905500  0.35082500  0.44675600  1
  O  O20  1  0.64560600  0.35114400  0.78154000  1
  O  O21  1  0.79787400  0.83112200  0.06611300  1
  O  O22  1  0.82666300  0.82464500  0.39153400  1
  O  O23  1  0.83341400  0.79594700  0.72469800  1
  O  O24  1  0.79594700  0.83341400  0.22469800  1
  O  O25  1  0.83112200  0.79787400  0.56611300  1
  O  O26  1  0.82464500  0.82666300  0.89153400  1
  O  O27  1  0.14706200  0.70710200  0.11394300  1
  O  O28  1  0.14097300  0.71501700  0.45076400  1
  O  O29  1  0.13953400  0.71796800  0.77951100  1
  O  O30  1  0.28184400  0.86024400  0.06825200  1
  O  O31  1  0.28502800  0.85733600  0.39899100  1
  O  O32  1  0.29294200  0.85287300  0.73312300  1
  O  O33  1  0.85287300  0.29294200  0.23312300  1
  O  O34  1  0.86024400  0.28184400  0.56825200  1
  O  O35  1  0.85733600  0.28502800  0.89899100  1
  O  O36  1  0.66031300  0.70348800  0.26838700  1
  O  O37  1  0.70323900  0.66039800  0.61148200  1
  O  O38  1  0.66919400  0.66884100  0.94408500  1
  O  O39  1  0.66039800  0.70323900  0.11148200  1
  O  O40  1  0.66884100  0.66919400  0.44408500  1
  O  O41  1  0.70348800  0.66031300  0.76838700  1
loop_
_geom_bond_atom_site_label_1
_geom_bond_atom_site_label_2
_geom_bond_distance
_geom_bond_site_symmetry_2
Ga0 O30 1.838374 1_555
Ga0 O27 1.862187 1_555
Ga0 O18 1.902284 1_555
Ga0 O5 1.924036 1_554
Ga1 O31 1.843829 1_555
Ga1 O28 1.847943 1_555
Ga1 O19 1.901271 1_555
Ga1 O3 1.925706 1_555
Ga2 O29 1.839230 1_555
Ga2 O32 1.857656 1_555
Ga2 O20 1.897329 1_555
Ga2 O4 1.929266 1_555
Ga3 O9 1.839230 1_555
Ga3 O33 1.857656 1_555
Ga3 O3 1.897329 1_555
Ga3 O18 1.929266 1_555
Ga4 O34 1.838374 1_555
Ga4 O10 1.862187 1_555
Ga4 O4 1.902284 1_555
Ga4 O19 1.924036 1_555
Ga5 O35 1.843829 1_555
Ga5 O11 1.847943 1_555
Ga5 O5 1.901271 1_555
Ga5 O20 1.925706 1_555
Cu0 O12 1.901691 1_555
Cu0 O15 1.901890 1_555
Cu0 O21 1.912800 1_455
Cu0 O24 1.913683 1_455
Cu1 O16 1.847014 1_555
Cu1 O22 1.848319 1_455
Cu1 O13 1.925046 1_555
Cu1 O25 1.943756 1_455
Cu2 O26 1.846032 1_455
Cu2 O14 1.855837 1_555
Cu2 O17 1.923854 1_555
Cu2 O23 1.940658 1_455
Cu3 O2 1.844958 1_564
Cu3 O38 1.850500 1_554
Cu3 O39 1.928009 1_555
Cu3 O6 1.947416 1_565
Cu4 O7 1.845848 1_565
Cu4 O40 1.848024 1_555
Cu4 O36 1.924886 1_555
Cu4 O0 1.940484 1_565
Cu5 O41 1.899223 1_555
Cu5 O37 1.904603 1_555
Cu5 O1 1.912874 1_565
Cu5 O8 1.913875 1_565
Cu6 O22 1.846032 1_545
Cu6 O16 1.855837 1_555
Cu6 O12 1.923854 1_555
Cu6 O24 1.940658 1_545
Cu7 O17 1.901691 1_555
Cu7 O13 1.901890 1_555
Cu7 O25 1.912800 1_545
Cu7 O23 1.913683 1_545
Cu8 O14 1.847014 1_555
Cu8 O26 1.848319 1_545
Cu8 O15 1.925046 1_556
Cu8 O21 1.943756 1_546
Cu9 O36 1.899223 1_555
Cu9 O39 1.904603 1_555
Cu9 O6 1.912874 1_655
Cu9 O0 1.913875 1_655
Cu10 O7 1.844958 1_655
Cu10 O40 1.850500 1_555
Cu10 O37 1.928009 1_555
Cu10 O1 1.947416 1_655
Cu11 O2 1.845848 1_655
Cu11 O38 1.848024 1_555
Cu11 O41 1.924886 1_555
Cu11 O8 1.940484 1_655
O0 Y0 2.350414 1_545
O0 Sr6 2.715531 1_545
O0 Sr1 2.825945 1_455
O1 Y1 2.352218 1_455
O1 Sr2 2.742566 1_455
O1 Sr7 2.792100 1_545
O2 Sr8 2.565014 1_545
O2 Sr0 2.576482 1_456
O3 Sr6 2.496504 1_555
O3 Sr3 2.504088 1_555
O4 Sr4 2.497569 1_555
O4 Sr7 2.508028 1_555
O5 Sr8 2.516913 1_555
O5 Sr5 2.522895 1_555
O6 Y0 2.352218 1_545
O6 Sr6 2.742566 1_545
O6 Sr0 2.792100 1_455
O7 Sr1 2.565014 1_455
O7 Sr7 2.576482 1_545
O8 Y1 2.350414 1_455
O8 Sr2 2.715531 1_455
O8 Sr8 2.825945 1_545
O9 Sr3 2.518526 1_645
O9 Sr10 2.672237 1_555
O9 Sr9 2.758546 1_555
O9 Sr3 3.038904 1_555
O10 Sr4 2.532273 1_645
O10 Sr11 2.582798 1_555
O10 Sr10 2.747590 1_555
O10 Sr4 2.970721 1_555
O11 Sr5 2.518863 1_645
O11 Sr9 2.560416 1_556
O11 Sr11 2.881681 1_555
O11 Sr5 3.029020 1_555
O12 Y0 2.390601 1_545
O12 Sr9 2.703925 1_555
O12 Sr3 2.833582 1_555
O13 Y1 2.388568 1_455
O13 Sr4 2.718136 1_555
O13 Sr10 2.828585 1_555
O14 Sr11 2.554766 1_555
O14 Sr5 2.559507 1_555
O15 Y0 2.388568 1_545
O15 Sr9 2.718136 1_555
O15 Sr5 2.828585 1_554
O16 Sr3 2.554766 1_555
O16 Sr10 2.559507 1_555
O17 Y1 2.390601 1_455
O17 Sr4 2.703925 1_555
O17 Sr11 2.833582 1_555
O18 Sr9 2.497569 1_555
O18 Sr0 2.508028 1_555
O19 Sr1 2.516913 1_555
O19 Sr10 2.522895 1_555
O20 Sr2 2.496504 1_555
O20 Sr11 2.504088 1_555
O21 Y0 2.355183 1_555
O21 Sr9 2.741259 1_565
O21 Sr5 2.799674 1_654
O22 Sr3 2.566667 1_655
O22 Sr10 2.581641 1_565
O23 Y1 2.353520 1_555
O23 Sr4 2.714456 1_655
O23 Sr11 2.813441 1_565
O24 Y0 2.353520 1_555
O24 Sr9 2.714456 1_565
O24 Sr3 2.813441 1_655
O25 Y1 2.355183 1_555
O25 Sr4 2.741259 1_655
O25 Sr10 2.799674 1_565
O26 Sr11 2.566667 1_565
O26 Sr5 2.581641 1_655
O27 Sr9 2.532273 1_465
O27 Sr3 2.582798 1_555
O27 Sr5 2.747590 1_554
O27 Sr9 2.970721 1_555
O28 Sr10 2.518863 1_465
O28 Sr4 2.560416 1_555
O28 Sr3 2.881681 1_555
O28 Sr10 3.029020 1_555
O29 Sr11 2.518526 1_465
O29 Sr5 2.672237 1_555
O29 Sr4 2.758546 1_555
O29 Sr11 3.038904 1_555
O30 Sr0 2.516818 1_465
O30 Sr6 2.582137 1_555
O30 Sr8 2.849585 1_554
O30 Sr0 3.043583 1_555
O31 Sr1 2.521894 1_465
O31 Sr7 2.668088 1_555
O31 Sr6 2.764785 1_555
O31 Sr1 3.025141 1_555
O32 Sr2 2.528997 1_465
O32 Sr8 2.570191 1_555
O32 Sr7 2.766601 1_555
O32 Sr2 2.971146 1_555
O33 Sr6 2.528997 1_645
O33 Sr1 2.570191 1_555
O33 Sr0 2.766601 1_555
O33 Sr6 2.971146 1_555
O34 Sr7 2.516818 1_645
O34 Sr2 2.582137 1_555
O34 Sr1 2.849585 1_555
O34 Sr7 3.043583 1_555
O35 Sr8 2.521894 1_645
O35 Sr0 2.668088 1_556
O35 Sr2 2.764785 1_555
O35 Sr8 3.025141 1_555
O36 Y0 2.388474 1_555
O36 Sr6 2.708502 1_555
O36 Sr1 2.851243 1_555
O37 Y1 2.383677 1_555
O37 Sr2 2.718239 1_555
O37 Sr7 2.819770 1_555
O38 Sr0 2.552967 1_556
O38 Sr8 2.559841 1_555
O39 Y0 2.383677 1_555
O39 Sr6 2.718239 1_555
O39 Sr0 2.819770 1_555
O40 Sr7 2.552967 1_555
O40 Sr1 2.559841 1_555
O41 Y1 2.388474 1_555
O41 Sr2 2.708502 1_555
O41 Sr8 2.851243 1_555
