# generated using pymatgen
data_Cs2AgF6
_symmetry_space_group_name_H-M   'P 1'
_cell_length_a   6.35249852
_cell_length_b   6.35267211
_cell_length_c   6.35249619
_cell_angle_alpha   59.99910819
_cell_angle_beta   60.00181996
_cell_angle_gamma   59.99907185
_symmetry_Int_Tables_number   1
_chemical_formula_structural   Cs2AgF6
_chemical_formula_sum   'Cs2 Ag1 F6'
_cell_volume   181.27187522
_cell_formula_units_Z   1
loop_
 _symmetry_equiv_pos_site_id
 _symmetry_equiv_pos_as_xyz
  1  'x, y, z'
loop_
 _atom_site_type_symbol
 _atom_site_label
 _atom_site_symmetry_multiplicity
 _atom_site_fract_x
 _atom_site_fract_y
 _atom_site_fract_z
 _atom_site_occupancy
  Cs  Cs0  1  0.25000000  0.25000000  0.25000000  1
  Cs  Cs1  1  0.75000000  0.75000000  0.75000000  1
  Ag  Ag0  1  -0.00000000  0.00000000  -0.00000000  1
  F  F0  1  0.77910686  0.22089314  0.22089314  1
  F  F1  1  0.22089314  0.77910686  0.77910686  1
  F  F2  1  0.22088502  0.77911498  0.22088502  1
  F  F3  1  0.77911498  0.22088502  0.77911498  1
  F  F4  1  0.22088130  0.22088130  0.77911870  1
  F  F5  1  0.77911870  0.77911870  0.22088130  1
loop_
_geom_bond_atom_site_label_1
_geom_bond_atom_site_label_2
_geom_bond_distance
_geom_bond_site_symmetry_2
Cs0 F0 3.186995 1_555
Cs0 F1 3.186995 1_554
Cs0 F1 3.186995 1_545
Cs0 F0 3.186995 1_455
Cs0 F4 3.187003 1_554
Cs0 F5 3.187003 1_455
Cs0 F5 3.187003 1_545
Cs0 F4 3.187003 1_555
Cs0 F2 3.187087 1_555
Cs0 F3 3.187087 1_554
Cs0 F3 3.187087 1_455
Cs0 F2 3.187087 1_545
Cs1 F0 3.186995 1_556
Cs1 F1 3.186995 1_555
Cs1 F0 3.186995 1_565
Cs1 F1 3.186995 1_655
Cs1 F5 3.187003 1_555
Cs1 F4 3.187003 1_655
Cs1 F4 3.187003 1_565
Cs1 F5 3.187003 1_556
Cs1 F3 3.187087 1_565
Cs1 F2 3.187087 1_655
Cs1 F2 3.187087 1_556
Cs1 F3 3.187087 1_555
Ag0 F2 1.984330 1_545
Ag0 F3 1.984330 1_454
Ag0 F5 1.984406 1_445
Ag0 F4 1.984406 1_554
Ag0 F0 1.984511 1_455
Ag0 F1 1.984511 1_544
