# generated using pymatgen
data_Li9Mn7O16
_symmetry_space_group_name_H-M   'P 1'
_cell_length_a   5.09681800
_cell_length_b   6.48079870
_cell_length_c   9.38756400
_cell_angle_alpha   97.78929020
_cell_angle_beta   99.52807123
_cell_angle_gamma   96.65896014
_symmetry_Int_Tables_number   1
_chemical_formula_structural   Li9Mn7O16
_chemical_formula_sum   'Li9 Mn7 O16'
_cell_volume   299.93102447
_cell_formula_units_Z   1
loop_
 _symmetry_equiv_pos_site_id
 _symmetry_equiv_pos_as_xyz
  1  'x, y, z'
loop_
 _atom_site_type_symbol
 _atom_site_label
 _atom_site_symmetry_multiplicity
 _atom_site_fract_x
 _atom_site_fract_y
 _atom_site_fract_z
 _atom_site_occupancy
  Li  Li0  1  0.74490400  0.93518000  0.05973300  1
  Li  Li1  1  0.73501800  0.43779700  0.58184000  1
  Li  Li2  1  0.26629200  0.80513000  0.17459700  1
  Li  Li3  1  0.25280300  0.31022200  0.69043900  1
  Li  Li4  1  0.74719700  0.68977800  0.30956100  1
  Li  Li5  1  0.73370800  0.19487000  0.82540300  1
  Li  Li6  1  0.25509600  0.06482000  0.94026700  1
  Li  Li7  1  0.26498200  0.56220300  0.41816000  1
  Li  Li8  1  0.50000000  0.50000000  0.00000000  1
  Mn  Mn0  1  0.99754200  0.62555900  0.88597900  1
  Mn  Mn1  1  0.00245800  0.37444100  0.11402100  1
  Mn  Mn2  1  0.00752800  0.12576100  0.37053100  1
  Mn  Mn3  1  0.50000000  0.00000000  0.50000000  1
  Mn  Mn4  1  0.99247200  0.87423900  0.62946900  1
  Mn  Mn5  1  0.50918300  0.25262900  0.23535300  1
  Mn  Mn6  1  0.49081700  0.74737100  0.76464700  1
  O  O0  1  0.85589000  0.88378500  0.84724600  1
  O  O1  1  0.88762700  0.39340000  0.31353600  1
  O  O2  1  0.34432100  0.77177200  0.96719200  1
  O  O3  1  0.36355200  0.26573300  0.47066800  1
  O  O4  1  0.89600600  0.64123800  0.07649800  1
  O  O5  1  0.86212100  0.14031600  0.59155100  1
  O  O6  1  0.35417800  0.01091500  0.72091000  1
  O  O7  1  0.36803800  0.51206600  0.21565600  1
  O  O8  1  0.64582200  0.98908500  0.27909000  1
  O  O9  1  0.63196200  0.48793400  0.78434400  1
  O  O10  1  0.13787900  0.85968400  0.40844900  1
  O  O11  1  0.10399400  0.35876200  0.92350200  1
  O  O12  1  0.63644800  0.73426700  0.52933200  1
  O  O13  1  0.65567900  0.22822800  0.03280800  1
  O  O14  1  0.14411000  0.11621500  0.15275400  1
  O  O15  1  0.11237300  0.60660000  0.68646400  1
loop_
_geom_bond_atom_site_label_1
_geom_bond_atom_site_label_2
_geom_bond_distance
_geom_bond_site_symmetry_2
Li0 O13 2.042051 1_565
Li0 O4 2.151329 1_555
Li0 O0 2.155705 1_554
Li0 O2 2.169496 1_554
Li0 O8 2.192643 1_555
Li0 O14 2.204411 1_665
Li1 O9 2.048919 1_555
Li1 O15 2.110915 1_655
Li1 O3 2.111392 1_555
Li1 O5 2.112482 1_555
Li1 O12 2.141402 1_555
Li2 O2 2.039121 1_554
Li2 O4 2.057339 1_455
Li2 O7 2.094153 1_555
Li2 O8 2.155314 1_555
Li2 O14 2.203493 1_565
Li2 O10 2.385722 1_555
Li3 O6 2.108394 1_555
Li3 O9 2.117253 1_555
Li3 O15 2.128955 1_555
Li3 O5 2.154465 1_455
Li3 O3 2.218162 1_555
Li3 O11 2.424712 1_555
Li4 O8 2.108394 1_555
Li4 O7 2.117253 1_555
Li4 O1 2.128955 1_555
Li4 O10 2.154465 1_655
Li4 O12 2.218162 1_555
Li4 O4 2.424712 1_555
Li5 O13 2.039121 1_556
Li5 O11 2.057339 1_655
Li5 O9 2.094153 1_555
Li5 O6 2.155314 1_555
Li5 O0 2.203493 1_545
Li5 O5 2.385722 1_555
Li6 O2 2.042051 1_545
Li6 O11 2.151329 1_555
Li6 O14 2.155705 1_556
Li6 O13 2.169496 1_556
Li6 O6 2.192643 1_555
Li6 O0 2.204411 1_445
Li7 O7 2.048919 1_555
Li7 O1 2.110915 1_455
Li7 O12 2.111392 1_555
Li7 O10 2.112482 1_555
Li7 O3 2.141402 1_555
Li8 O13 2.053502 1_555
Li8 O2 2.053502 1_554
Li8 O4 2.083475 1_555
Li8 O11 2.083475 1_554
Li8 O7 2.230941 1_555
Li8 O9 2.230941 1_554
Mn0 O2 1.890170 1_655
Mn0 O11 1.930670 1_655
Mn0 O4 1.935527 1_556
Mn0 O0 1.952521 1_555
Mn0 O9 1.993252 1_555
Mn0 O15 2.045196 1_655
Mn1 O13 1.890170 1_455
Mn1 O4 1.930670 1_455
Mn1 O11 1.935527 1_554
Mn1 O14 1.952521 1_555
Mn1 O7 1.993252 1_555
Mn1 O1 2.045196 1_455
Mn2 O8 1.952281 1_445
Mn2 O3 1.954912 1_555
Mn2 O10 1.973679 1_545
Mn2 O1 2.014302 1_455
Mn2 O14 2.261602 1_555
Mn2 O5 2.309835 1_455
Mn3 O5 1.961076 1_555
Mn3 O10 1.961076 1_545
Mn3 O3 1.966779 1_555
Mn3 O12 1.966779 1_545
Mn3 O8 2.311009 1_545
Mn3 O6 2.311009 1_555
Mn4 O6 1.952281 1_665
Mn4 O12 1.954912 1_555
Mn4 O5 1.973679 1_565
Mn4 O15 2.014302 1_655
Mn4 O0 2.261602 1_555
Mn4 O10 2.309835 1_655
Mn5 O7 1.923391 1_555
Mn5 O14 1.949384 1_555
Mn5 O8 1.985460 1_545
Mn5 O1 2.008283 1_555
Mn5 O13 2.147963 1_555
Mn5 O3 2.438152 1_555
Mn6 O9 1.923391 1_555
Mn6 O0 1.949384 1_555
Mn6 O6 1.985460 1_565
Mn6 O15 2.008283 1_555
Mn6 O2 2.147963 1_555
Mn6 O12 2.438152 1_555
