# generated using pymatgen
data_Li7Mn5O12
_symmetry_space_group_name_H-M   'P 1'
_cell_length_a   3.07324876
_cell_length_b   3.07324876
_cell_length_c   29.73392222
_cell_angle_alpha   85.97660647
_cell_angle_beta   85.97660647
_cell_angle_gamma   55.80427307
_symmetry_Int_Tables_number   1
_chemical_formula_structural   Li7Mn5O12
_chemical_formula_sum   'Li7 Mn5 O12'
_cell_volume   231.54978554
_cell_formula_units_Z   1
loop_
 _symmetry_equiv_pos_site_id
 _symmetry_equiv_pos_as_xyz
  1  'x, y, z'
loop_
 _atom_site_type_symbol
 _atom_site_label
 _atom_site_symmetry_multiplicity
 _atom_site_fract_x
 _atom_site_fract_y
 _atom_site_fract_z
 _atom_site_occupancy
  Li  Li0  1  0.84832100  0.84832100  0.92183300  1
  Li  Li1  1  0.15167900  0.15167900  0.07816700  1
  Li  Li2  1  0.49923600  0.49923600  0.25002100  1
  Li  Li3  1  0.83288400  0.83288400  0.41682000  1
  Li  Li4  1  0.16711600  0.16711600  0.58318000  1
  Li  Li5  1  0.50076400  0.50076400  0.74997900  1
  Li  Li6  1  0.50000000  0.50000000  0.00000000  1
  Mn  Mn0  1  0.17020400  0.17020400  0.83296900  1
  Mn  Mn1  1  0.82979600  0.82979600  0.16703100  1
  Mn  Mn2  1  0.16677600  0.16677600  0.33349500  1
  Mn  Mn3  1  0.50000000  0.50000000  0.50000000  1
  Mn  Mn4  1  0.83322400  0.83322400  0.66650500  1
  O  O0  1  0.50975600  0.50975600  0.86828000  1
  O  O1  1  0.83587000  0.83587000  0.04239400  1
  O  O2  1  0.18030500  0.18030500  0.20557600  1
  O  O3  1  0.52107100  0.52107100  0.37203900  1
  O  O4  1  0.85462000  0.85462000  0.53848300  1
  O  O5  1  0.18749700  0.18749700  0.70497200  1
  O  O6  1  0.16413000  0.16413000  0.95760600  1
  O  O7  1  0.49024400  0.49024400  0.13172000  1
  O  O8  1  0.81250300  0.81250300  0.29502800  1
  O  O9  1  0.14538000  0.14538000  0.46151700  1
  O  O10  1  0.47892900  0.47892900  0.62796100  1
  O  O11  1  0.81969500  0.81969500  0.79442400  1
loop_
_geom_bond_atom_site_label_1
_geom_bond_atom_site_label_2
_geom_bond_distance
_geom_bond_site_symmetry_2
Li0 O6 2.007927 1_655
Li0 O6 2.007927 1_565
Li0 O6 2.089004 1_665
Li0 O0 2.269607 1_655
Li0 O0 2.269607 1_565
Li0 O0 2.526405 1_555
Li1 O1 2.007927 1_545
Li1 O1 2.007927 1_455
Li1 O1 2.089004 1_445
Li1 O7 2.269607 1_455
Li1 O7 2.269607 1_545
Li1 O7 2.526405 1_555
Li2 O2 2.139099 1_565
Li2 O2 2.139099 1_655
Li2 O8 2.161599 1_545
Li2 O8 2.161599 1_455
Li2 O8 2.246794 1_555
Li2 O2 2.260804 1_555
Li3 O9 2.158018 1_655
Li3 O9 2.158018 1_565
Li3 O3 2.161034 1_655
Li3 O3 2.161034 1_565
Li3 O3 2.236032 1_555
Li3 O9 2.237384 1_665
Li4 O4 2.158018 1_545
Li4 O4 2.158018 1_455
Li4 O10 2.161034 1_545
Li4 O10 2.161034 1_455
Li4 O10 2.236032 1_555
Li4 O4 2.237384 1_445
Li5 O11 2.139099 1_545
Li5 O11 2.139099 1_455
Li5 O5 2.161599 1_655
Li5 O5 2.161599 1_565
Li5 O5 2.246794 1_555
Li5 O11 2.260804 1_555
Li6 O1 2.067290 1_455
Li6 O1 2.067290 1_545
Li6 O6 2.067290 1_564
Li6 O6 2.067290 1_654
Li6 O6 2.298409 1_554
Li6 O1 2.298409 1_555
Mn0 O0 1.945502 1_455
Mn0 O0 1.945502 1_545
Mn0 O11 1.973187 1_545
Mn0 O11 1.973187 1_455
Mn0 O0 2.193578 1_555
Mn0 O11 2.298922 1_445
Mn1 O7 1.945502 1_655
Mn1 O7 1.945502 1_565
Mn1 O2 1.973187 1_565
Mn1 O2 1.973187 1_655
Mn1 O7 2.193578 1_555
Mn1 O2 2.298922 1_665
Mn2 O8 1.964531 1_545
Mn2 O8 1.964531 1_455
Mn2 O3 1.965749 1_455
Mn2 O3 1.965749 1_545
Mn2 O8 2.315388 1_445
Mn2 O3 2.316774 1_555
Mn3 O4 1.964121 1_545
Mn3 O4 1.964121 1_455
Mn3 O9 1.964121 1_565
Mn3 O9 1.964121 1_655
Mn3 O4 2.317295 1_555
Mn3 O9 2.317295 1_555
Mn4 O5 1.964531 1_655
Mn4 O5 1.964531 1_565
Mn4 O10 1.965749 1_655
Mn4 O10 1.965749 1_565
Mn4 O5 2.315388 1_665
Mn4 O10 2.316774 1_555
