# generated using pymatgen
data_MgMn2O4
_symmetry_space_group_name_H-M   'P 1'
_cell_length_a   6.18655644
_cell_length_b   6.18655644
_cell_length_c   14.84078394
_cell_angle_alpha   86.37987683
_cell_angle_beta   86.37987683
_cell_angle_gamma   57.04825879
_symmetry_Int_Tables_number   1
_chemical_formula_structural   MgMn2O4
_chemical_formula_sum   'Mg6 Mn12 O24'
_cell_volume   475.40000282
_cell_formula_units_Z   6
loop_
 _symmetry_equiv_pos_site_id
 _symmetry_equiv_pos_as_xyz
  1  'x, y, z'
loop_
 _atom_site_type_symbol
 _atom_site_label
 _atom_site_symmetry_multiplicity
 _atom_site_fract_x
 _atom_site_fract_y
 _atom_site_fract_z
 _atom_site_occupancy
  Mg  Mg0  1  0.16326500  0.16326500  0.95260300  1
  Mg  Mg1  1  0.50658600  0.50658600  0.61917000  1
  Mg  Mg2  1  0.84045200  0.84045200  0.66502500  1
  Mg  Mg3  1  0.83107400  0.83107400  0.29045500  1
  Mg  Mg4  1  0.49603900  0.49603900  0.99922900  1
  Mg  Mg5  1  0.50296000  0.50296000  0.37722700  1
  Mn  Mn0  1  0.66750400  0.66750400  0.83371800  1
  Mn  Mn1  1  0.66606400  0.17041400  0.83314800  1
  Mn  Mn2  1  0.00452100  0.00452100  0.50029300  1
  Mn  Mn3  1  0.17041400  0.66606400  0.83314800  1
  Mn  Mn4  1  0.00606400  0.50962500  0.50153500  1
  Mn  Mn5  1  0.16696500  0.16696500  0.33403600  1
  Mn  Mn6  1  0.17140800  0.17140800  0.71282800  1
  Mn  Mn7  1  0.33049700  0.33049700  0.16804500  1
  Mn  Mn8  1  0.50962500  0.00606400  0.50153500  1
  Mn  Mn9  1  0.32624500  0.83053400  0.16529600  1
  Mn  Mn10  1  0.83053400  0.32624500  0.16529600  1
  Mn  Mn11  1  0.83075300  0.83075300  0.04707700  1
  O  O0  1  0.34821200  0.34821200  0.90977200  1
  O  O1  1  0.49498500  0.49498500  0.75684800  1
  O  O2  1  0.34594500  0.80644700  0.90609000  1
  O  O3  1  0.80644700  0.34594500  0.90609000  1
  O  O4  1  0.68880300  0.68880300  0.58048400  1
  O  O5  1  0.53557300  0.00065600  0.76335600  1
  O  O6  1  0.82859200  0.82859200  0.42550900  1
  O  O7  1  0.00065600  0.53557300  0.76335600  1
  O  O8  1  0.84334700  0.84334700  0.90894200  1
  O  O9  1  0.69353400  0.15231000  0.57663500  1
  O  O10  1  0.15231000  0.69353400  0.57663500  1
  O  O11  1  0.98508200  0.98508200  0.75775100  1
  O  O12  1  0.00994400  0.00994400  0.24227000  1
  O  O13  1  0.86515500  0.31548500  0.41786700  1
  O  O14  1  0.31548500  0.86515500  0.41786700  1
  O  O15  1  0.15446900  0.15446900  0.08980400  1
  O  O16  1  0.18000300  0.18000300  0.57429900  1
  O  O17  1  0.01602500  0.46912000  0.24748200  1
  O  O18  1  0.46912000  0.01602500  0.24748200  1
  O  O19  1  0.32417300  0.32417300  0.42313400  1
  O  O20  1  0.18862400  0.64239800  0.09063800  1
  O  O21  1  0.64239800  0.18862400  0.09063800  1
  O  O22  1  0.50710100  0.50710100  0.24103900  1
  O  O23  1  0.64514100  0.64514100  0.08723600  1
loop_
_geom_bond_atom_site_label_1
_geom_bond_atom_site_label_2
_geom_bond_distance
_geom_bond_site_symmetry_2
Mg0 O2 2.001652 1_545
Mg0 O3 2.001652 1_455
Mg0 O15 2.031539 1_556
Mg0 O0 2.064670 1_555
Mg1 O9 1.965903 1_555
Mg1 O10 1.965903 1_555
Mg1 O4 2.022426 1_555
Mg1 O1 2.038072 1_555
Mg2 O9 2.047554 1_565
Mg2 O10 2.047554 1_655
Mg2 O5 2.114443 1_565
Mg2 O7 2.114443 1_655
Mg2 O4 2.142280 1_555
Mg2 O11 2.162602 1_555
Mg3 O6 2.002549 1_555
Mg3 O17 2.007754 1_655
Mg3 O18 2.007754 1_565
Mg3 O12 2.023049 1_665
Mg4 O20 2.057457 1_556
Mg4 O21 2.057457 1_556
Mg4 O2 2.085104 1_555
Mg4 O3 2.085104 1_555
Mg4 O23 2.153496 1_556
Mg4 O0 2.156814 1_555
Mg5 O14 1.996243 1_555
Mg5 O13 1.996243 1_555
Mg5 O19 2.012845 1_555
Mg5 O22 2.018401 1_555
Mn0 O3 1.958693 1_555
Mn0 O2 1.958693 1_555
Mn0 O7 2.002591 1_655
Mn0 O5 2.002591 1_565
Mn0 O1 2.264163 1_555
Mn0 O8 2.281964 1_555
Mn1 O11 1.970601 1_545
Mn1 O0 1.972908 1_555
Mn1 O1 1.996657 1_555
Mn1 O5 1.998193 1_555
Mn1 O8 2.004134 1_545
Mn1 O3 2.097265 1_555
Mn2 O9 1.939857 1_455
Mn2 O10 1.939857 1_545
Mn2 O14 1.993071 1_545
Mn2 O13 1.993071 1_455
Mn2 O16 2.268646 1_555
Mn2 O6 2.279201 1_445
Mn3 O11 1.970601 1_455
Mn3 O0 1.972908 1_555
Mn3 O1 1.996657 1_555
Mn3 O7 1.998193 1_555
Mn3 O8 2.004134 1_455
Mn3 O2 2.097265 1_555
Mn4 O6 1.972506 1_455
Mn4 O4 1.990149 1_455
Mn4 O16 1.990979 1_555
Mn4 O19 1.991549 1_555
Mn4 O10 2.182345 1_555
Mn4 O13 2.282175 1_455
Mn5 O14 1.965462 1_545
Mn5 O13 1.965462 1_455
Mn5 O18 1.991382 1_555
Mn5 O17 1.991382 1_555
Mn5 O19 2.234740 1_555
Mn5 O12 2.258922 1_555
Mn6 O16 2.051282 1_555
Mn6 O5 2.068377 1_555
Mn6 O7 2.068377 1_555
Mn6 O11 2.086480 1_445
Mn7 O21 1.954065 1_555
Mn7 O20 1.954065 1_555
Mn7 O17 1.983241 1_555
Mn7 O18 1.983241 1_555
Mn7 O22 2.271224 1_555
Mn7 O15 2.308608 1_555
Mn8 O6 1.972506 1_545
Mn8 O4 1.990149 1_545
Mn8 O16 1.990979 1_555
Mn8 O19 1.991549 1_555
Mn8 O9 2.182345 1_555
Mn8 O14 2.282175 1_545
Mn9 O12 1.970052 1_565
Mn9 O15 1.987642 1_565
Mn9 O22 1.989592 1_555
Mn9 O23 1.991816 1_555
Mn9 O20 2.160373 1_555
Mn9 O18 2.236557 1_565
Mn10 O12 1.970052 1_655
Mn10 O15 1.987642 1_655
Mn10 O22 1.989592 1_555
Mn10 O23 1.991816 1_555
Mn10 O21 2.160373 1_555
Mn10 O17 2.236557 1_655
Mn11 O20 1.989115 1_655
Mn11 O21 1.989115 1_565
Mn11 O8 2.044758 1_554
Mn11 O23 2.062520 1_555
