# generated using pymatgen
data_Er6Ta4Al43
_symmetry_space_group_name_H-M   'P 1'
_cell_length_a   10.99987483
_cell_length_b   10.99986579
_cell_length_c   17.69455373
_cell_angle_alpha   89.99994641
_cell_angle_beta   90.00015419
_cell_angle_gamma   120.00032525
_symmetry_Int_Tables_number   1
_chemical_formula_structural   Er6Ta4Al43
_chemical_formula_sum   'Er12 Ta8 Al86'
_cell_volume   1854.14609815
_cell_formula_units_Z   2
loop_
 _symmetry_equiv_pos_site_id
 _symmetry_equiv_pos_as_xyz
  1  'x, y, z'
loop_
 _atom_site_type_symbol
 _atom_site_label
 _atom_site_symmetry_multiplicity
 _atom_site_fract_x
 _atom_site_fract_y
 _atom_site_fract_z
 _atom_site_occupancy
  Er  Er0  1  0.53131666  -0.00000054  0.59647223  1
  Er  Er1  1  0.46867993  -0.00000147  0.40352468  1
  Er  Er2  1  -0.00000062  0.53131972  0.59647414  1
  Er  Er3  1  0.46867941  -0.00000257  0.09647708  1
  Er  Er4  1  0.00000032  0.53132075  0.90352476  1
  Er  Er5  1  0.00000221  0.46867932  0.40352485  1
  Er  Er6  1  0.53131863  -0.00000101  0.90352576  1
  Er  Er7  1  -0.00000147  0.46867924  0.09647674  1
  Er  Er8  1  0.46868340  0.46868391  0.59647241  1
  Er  Er9  1  0.53132321  0.53132173  0.40352381  1
  Er  Er10  1  0.53131996  0.53132147  0.09647726  1
  Er  Er11  1  0.46868186  0.46868321  0.90352542  1
  Ta  Ta0  1  0.00000379  0.00000137  0.50000128  1
  Ta  Ta1  1  -0.00000262  -0.00000325  0.00000031  1
  Ta  Ta2  1  0.72582906  0.00000189  0.74999193  1
  Ta  Ta3  1  0.27417488  0.00000165  0.25001037  1
  Ta  Ta4  1  -0.00000430  0.72582526  0.74999338  1
  Ta  Ta5  1  -0.00000147  0.27417362  0.25000856  1
  Ta  Ta6  1  0.27417493  0.27417124  0.74999171  1
  Ta  Ta7  1  0.72582820  0.72582834  0.25000644  1
  Al  Al0  1  0.15318876  0.59679171  0.74999931  1
  Al  Al1  1  0.84681325  0.40321238  0.24999756  1
  Al  Al2  1  0.40321055  0.55639870  0.75000223  1
  Al  Al3  1  0.59678645  0.15318277  0.74999942  1
  Al  Al4  1  0.59678971  0.44360299  0.24999788  1
  Al  Al5  1  0.40321140  0.84681618  0.24999933  1
  Al  Al6  1  0.44360091  0.84681299  0.74999721  1
  Al  Al7  1  0.55639893  0.40320934  0.75000237  1
  Al  Al8  1  0.55639420  0.15318115  0.25000002  1
  Al  Al9  1  0.44360469  0.59679170  0.24999794  1
  Al  Al10  1  0.84681016  0.44360281  0.74999954  1
  Al  Al11  1  0.15318960  0.55640128  0.24999818  1
  Al  Al12  1  0.15931512  0.00000046  0.11515135  1
  Al  Al13  1  0.84068584  -0.00000159  0.88485106  1
  Al  Al14  1  0.00000091  0.15931316  0.11515232  1
  Al  Al15  1  0.84068918  -0.00000287  0.61514458  1
  Al  Al16  1  0.00000177  0.15930725  0.38485389  1
  Al  Al17  1  0.00000107  0.84068774  0.88485020  1
  Al  Al18  1  0.15930804  -0.00000102  0.38485702  1
  Al  Al19  1  -0.00000231  0.84068674  0.61514408  1
  Al  Al20  1  0.84069025  0.84069006  0.11515294  1
  Al  Al21  1  0.15931667  0.15931396  0.88485134  1
  Al  Al22  1  0.15930828  0.15930741  0.61514445  1
  Al  Al23  1  0.84069497  0.84069146  0.38485445  1
  Al  Al24  1  0.24735815  0.49471420  0.50000652  1
  Al  Al25  1  0.75264197  0.50528428  0.50000703  1
  Al  Al26  1  0.50528173  0.75264410  0.50000240  1
  Al  Al27  1  0.75264186  0.50528983  -0.00000367  1
  Al  Al28  1  0.49471552  0.24736159  -0.00000196  1
  Al  Al29  1  0.49470739  0.24734871  0.50000039  1
  Al  Al30  1  0.24735592  0.49471411  -0.00000576  1
  Al  Al31  1  0.50529547  0.75264326  -0.00000150  1
  Al  Al32  1  0.24735675  0.75264385  0.50000305  1
  Al  Al33  1  0.75264193  0.24735355  0.50000333  1
  Al  Al34  1  0.75264735  0.24735709  -0.00000391  1
  Al  Al35  1  0.24735362  0.75264277  -0.00000412  1
  Al  Al36  1  0.14838123  0.00000419  0.74999769  1
  Al  Al37  1  0.85161573  -0.00000680  0.25000007  1
  Al  Al38  1  -0.00000518  0.14837561  0.74999820  1
  Al  Al39  1  -0.00000815  0.85161513  0.24999962  1
  Al  Al40  1  0.85162268  0.85162238  0.74999830  1
  Al  Al41  1  0.14836639  0.14836526  0.24999883  1
  Al  Al42  1  0.33333414  0.66666637  0.62450333  1
  Al  Al43  1  0.66666801  0.33333507  0.37549357  1
  Al  Al44  1  0.66666655  0.33333235  0.12450171  1
  Al  Al45  1  0.66666529  0.33333213  0.87550152  1
  Al  Al46  1  0.33333383  0.66666923  0.87550136  1
  Al  Al47  1  0.33333404  0.66666872  0.12450110  1
  Al  Al48  1  0.33333284  0.66666693  0.37549363  1
  Al  Al49  1  0.66666676  0.33333429  0.62450256  1
  Al  Al50  1  0.25564535  -0.00000146  0.52949642  1
  Al  Al51  1  0.74436773  -0.00000302  0.47050496  1
  Al  Al52  1  0.00000053  0.25564993  0.52950235  1
  Al  Al53  1  0.74437027  0.00000020  0.02949420  1
  Al  Al54  1  0.00000044  0.25565005  0.97050015  1
  Al  Al55  1  -0.00000278  0.74436464  0.47050438  1
  Al  Al56  1  0.25564346  -0.00000015  0.97050257  1
  Al  Al57  1  0.00000270  0.74437055  0.02949526  1
  Al  Al58  1  0.74435580  0.74435501  0.52949992  1
  Al  Al59  1  0.25563891  0.25563912  0.47050368  1
  Al  Al60  1  0.25563187  0.25563059  0.02949548  1
  Al  Al61  1  0.74435052  0.74434818  0.97050180  1
  Al  Al62  1  0.15822810  0.39513480  0.66222181  1
  Al  Al63  1  0.84178019  0.60486860  0.33777713  1
  Al  Al64  1  0.60486537  0.76309070  0.66222375  1
  Al  Al65  1  0.84177154  0.60487085  0.16222159  1
  Al  Al66  1  0.39513107  0.15822905  0.83777918  1
  Al  Al67  1  0.39513406  0.23690877  0.33777743  1
  Al  Al68  1  0.15823278  0.39513421  0.83777901  1
  Al  Al69  1  0.60487194  0.84176999  0.16222011  1
  Al  Al70  1  0.23690694  0.84177409  0.66222252  1
  Al  Al71  1  0.39513132  0.23690245  0.16222031  1
  Al  Al72  1  0.76309738  0.60486887  0.83777786  1
  Al  Al73  1  0.76309166  0.15822621  0.33777703  1
  Al  Al74  1  0.60486703  0.76310005  0.83777936  1
  Al  Al75  1  0.23690415  0.39513389  0.16222190  1
  Al  Al76  1  0.60486988  0.84177553  0.33777925  1
  Al  Al77  1  0.39513541  0.15822814  0.66222299  1
  Al  Al78  1  0.76309677  0.15822499  0.16222169  1
  Al  Al79  1  0.23690943  0.39513642  0.33777982  1
  Al  Al80  1  0.23690136  0.84177083  0.83777846  1
  Al  Al81  1  0.76309134  0.60486709  0.66222211  1
  Al  Al82  1  0.84176656  0.23690018  0.83778034  1
  Al  Al83  1  0.15822653  0.76309883  0.16222145  1
  Al  Al84  1  0.15822320  0.76309339  0.33777961  1
  Al  Al85  1  0.84177300  0.23690759  0.66222310  1
loop_
_geom_bond_atom_site_label_1
_geom_bond_atom_site_label_2
_geom_bond_distance
_geom_bond_site_symmetry_2
Er0 Ta2 3.457892 1_555
Er0 Er1 3.482947 1_555
Er1 Ta3 3.457786 1_555
Er2 Ta4 3.457865 1_555
Er2 Er5 3.482991 1_555
Er3 Ta3 3.458059 1_555
Er3 Er6 3.483020 1_554
Er4 Ta4 3.458027 1_555
Er4 Er7 3.483034 1_556
Er5 Ta5 3.457800 1_555
Er6 Ta2 3.458083 1_555
Er7 Ta5 3.458025 1_555
Er8 Ta6 3.457883 1_555
Er8 Er9 3.482973 1_555
Er9 Ta7 3.457824 1_555
Er10 Ta7 3.457994 1_555
Er10 Er11 3.483025 1_554
Er11 Ta6 3.458070 1_555
Al0 Ta4 2.691824 1_555
Al0 Al62 2.731085 1_555
Al0 Al68 2.731132 1_555
Al0 Al42 2.815208 1_555
Al0 Al46 2.815281 1_555
Al0 Al70 2.835590 1_555
Al0 Al80 2.835593 1_555
Al0 Al10 2.918605 1_455
Al0 Al6 2.997136 1_555
Al0 Al2 2.997172 1_555
Al0 Er2 3.086132 1_555
Al0 Er4 3.086139 1_555
Al1 Ta5 2.691796 1_655
Al1 Al63 2.731070 1_555
Al1 Al65 2.731093 1_555
Al1 Al44 2.815202 1_555
Al1 Al43 2.815205 1_555
Al1 Al78 2.835627 1_555
Al1 Al73 2.835643 1_555
Al1 Al11 2.918584 1_655
Al1 Al4 2.997176 1_555
Al1 Al8 2.997224 1_555
Al1 Er7 3.086054 1_655
Al1 Er5 3.086165 1_655
Al2 Ta6 2.691817 1_555
Al2 Al64 2.731058 1_555
Al2 Al74 2.731091 1_555
Al2 Al42 2.815237 1_555
Al2 Al46 2.815264 1_555
Al2 Al68 2.835558 1_555
Al2 Al62 2.835619 1_555
Al2 Al7 2.918610 1_555
Al2 Al6 2.997171 1_555
Al2 Er11 3.086093 1_555
Al2 Er8 3.086205 1_555
Al3 Ta2 2.691788 1_555
Al3 Al77 2.731046 1_555
Al3 Al66 2.731130 1_555
Al3 Al49 2.815249 1_555
Al3 Al45 2.815310 1_555
Al3 Al82 2.835610 1_555
Al3 Al85 2.835616 1_555
Al3 Al6 2.918519 1_545
Al3 Al7 2.997186 1_555
Al3 Er6 3.086129 1_555
Al3 Er0 3.086138 1_555
Al4 Ta7 2.691795 1_555
Al4 Al67 2.731083 1_555
Al4 Al71 2.731100 1_555
Al4 Al43 2.815204 1_555
Al4 Al44 2.815224 1_555
Al4 Al65 2.835588 1_555
Al4 Al63 2.835667 1_555
Al4 Al9 2.918572 1_555
Al4 Al8 2.997232 1_555
Al4 Er10 3.086060 1_555
Al4 Er9 3.086135 1_555
Al5 Ta3 2.691777 1_565
Al5 Al76 2.731127 1_555
Al5 Al69 2.731171 1_555
Al5 Al83 2.835621 1_555
Al5 Al84 2.835672 1_555
Al5 Al8 2.918473 1_565
Al5 Al9 2.997202 1_555
Al5 Er3 3.086053 1_565
Al5 Er1 3.086106 1_565
Al6 Ta2 2.691823 1_565
Al6 Al70 2.731035 1_555
Al6 Al80 2.731144 1_555
Al6 Al64 2.835600 1_555
Al6 Al74 2.835627 1_555
Al6 Er0 3.086119 1_565
Al6 Er6 3.086172 1_565
Al7 Ta6 2.691785 1_555
Al7 Al72 2.731075 1_555
Al7 Al81 2.731091 1_555
Al7 Al77 2.835600 1_555
Al7 Er11 3.086115 1_555
Al7 Er8 3.086212 1_555
Al8 Ta3 2.691736 1_555
Al8 Er3 3.086073 1_555
Al8 Er1 3.086097 1_555
Al9 Ta7 2.691781 1_555
Al9 Er10 3.086054 1_555
Al9 Er9 3.086143 1_555
Al10 Ta4 2.691766 1_655
Al10 Al85 2.731074 1_555
Al10 Al82 2.731155 1_555
Al10 Al49 2.815201 1_555
Al10 Al45 2.815287 1_555
Al10 Al72 2.835593 1_555
Al10 Al81 2.835606 1_555
Al10 Al7 2.997128 1_555
Al10 Al3 2.997198 1_555
Al10 Er4 3.086136 1_655
Al10 Er2 3.086141 1_655
Al11 Ta5 2.691817 1_555
Al11 Al83 2.731097 1_555
Al11 Al84 2.731112 1_555
Al11 Al48 2.815176 1_555
Al11 Al47 2.815213 1_555
Al11 Al75 2.835597 1_555
Al11 Al79 2.835659 1_555
Al11 Al5 2.997155 1_555
Al11 Al9 2.997183 1_555
Al11 Er7 3.086083 1_555
Al11 Er5 3.086155 1_555
Al12 Ta1 2.687503 1_555
Al12 Ta3 2.700100 1_555
Al12 Al83 2.730069 1_545
Al12 Al71 2.730069 1_555
Al12 Al56 2.770161 1_554
Al12 Al57 2.889158 1_545
Al12 Al60 2.889163 1_555
Al12 Al41 2.927076 1_555
Al12 Al39 2.927177 1_545
Al12 Al20 3.035265 1_445
Al12 Al14 3.035298 1_555
Al12 Er3 3.418991 1_555
Al13 Ta1 2.687454 1_656
Al13 Ta2 2.700099 1_555
Al13 Al74 2.730078 1_545
Al13 Al82 2.730114 1_555
Al13 Al53 2.770017 1_556
Al13 Al54 2.889256 1_655
Al13 Al61 2.889266 1_545
Al13 Al38 2.927169 1_655
Al13 Al40 2.927182 1_545
Al13 Al17 3.035289 1_645
Al13 Al21 3.035322 1_655
Al13 Er6 3.419010 1_555
Al14 Ta1 2.687511 1_555
Al14 Ta5 2.700073 1_555
Al14 Al78 2.730098 1_455
Al14 Al75 2.730102 1_555
Al14 Al54 2.770248 1_554
Al14 Al53 2.889182 1_455
Al14 Al60 2.889184 1_555
Al14 Al41 2.927059 1_555
Al14 Al37 2.927157 1_455
Al14 Al20 3.035246 1_445
Al14 Er7 3.419005 1_555
Al15 Ta0 2.687382 1_655
Al15 Ta2 2.699941 1_555
Al15 Al64 2.730190 1_545
Al15 Al85 2.730233 1_555
Al15 Al51 2.769975 1_555
Al15 Al58 2.889141 1_545
Al15 Al52 2.889199 1_655
Al15 Al38 2.927167 1_655
Al15 Al40 2.927173 1_545
Al15 Al22 3.035210 1_655
Al15 Al19 3.035222 1_645
Al15 Er0 3.419072 1_555
Al16 Ta0 2.687391 1_555
Al16 Ta5 2.699933 1_555
Al16 Al79 2.730197 1_555
Al16 Al73 2.730234 1_455
Al16 Al52 2.770215 1_555
Al16 Al51 2.889145 1_455
Al16 Al59 2.889146 1_555
Al16 Al41 2.927164 1_555
Al16 Al37 2.927221 1_455
Al16 Al23 3.035176 1_445
Al16 Al18 3.035180 1_555
Al16 Er5 3.419048 1_555
Al17 Ta1 2.687459 1_566
Al17 Ta4 2.700073 1_555
Al17 Al80 2.730097 1_555
Al17 Al72 2.730110 1_455
Al17 Al57 2.770051 1_556
Al17 Al56 2.889214 1_565
Al17 Al61 2.889276 1_455
Al17 Al40 2.927172 1_455
Al17 Al36 2.927199 1_565
Al17 Al21 3.035275 1_565
Al17 Er4 3.418996 1_555
Al18 Ta0 2.687344 1_555
Al18 Ta3 2.699945 1_555
Al18 Al84 2.730170 1_545
Al18 Al67 2.730221 1_555
Al18 Al50 2.770040 1_555
Al18 Al55 2.889110 1_545
Al18 Al59 2.889146 1_555
Al18 Al41 2.927212 1_555
Al18 Al39 2.927274 1_545
Al18 Al23 3.035153 1_445
Al18 Er1 3.419047 1_555
Al19 Ta0 2.687363 1_565
Al19 Ta4 2.699956 1_555
Al19 Al81 2.730162 1_455
Al19 Al70 2.730200 1_555
Al19 Al55 2.769982 1_555
Al19 Al58 2.889135 1_455
Al19 Al50 2.889215 1_565
Al19 Al40 2.927195 1_455
Al19 Al36 2.927223 1_565
Al19 Al22 3.035223 1_565
Al19 Er2 3.419003 1_555
Al20 Ta1 2.687460 1_665
Al20 Ta7 2.700030 1_555
Al20 Al69 2.730067 1_555
Al20 Al65 2.730087 1_555
Al20 Al61 2.770244 1_554
Al20 Al53 2.889192 1_565
Al20 Al57 2.889204 1_655
Al20 Al39 2.927051 1_655
Al20 Al37 2.927070 1_565
Al20 Er10 3.419014 1_555
Al21 Ta1 2.687492 1_556
Al21 Ta6 2.700104 1_555
Al21 Al66 2.730080 1_555
Al21 Al68 2.730131 1_555
Al21 Al60 2.770025 1_556
Al21 Al56 2.889207 1_555
Al21 Al54 2.889277 1_555
Al21 Al36 2.927178 1_555
Al21 Al38 2.927235 1_555
Al21 Er11 3.418987 1_555
Al22 Ta0 2.687317 1_555
Al22 Ta6 2.699945 1_555
Al22 Al77 2.730213 1_555
Al22 Al62 2.730215 1_555
Al22 Al59 2.770037 1_555
Al22 Al52 2.889183 1_555
Al22 Al50 2.889212 1_555
Al22 Al36 2.927152 1_555
Al22 Al38 2.927217 1_555
Al22 Er8 3.419078 1_555
Al23 Ta0 2.687395 1_665
Al23 Ta7 2.699956 1_555
Al23 Al63 2.730194 1_555
Al23 Al76 2.730199 1_555
Al23 Al58 2.770142 1_555
Al23 Al55 2.889092 1_655
Al23 Al51 2.889133 1_565
Al23 Al39 2.927150 1_655
Al23 Al37 2.927177 1_565
Al23 Er9 3.419018 1_555
Al24 Al52 2.726856 1_555
Al24 Al59 2.726937 1_555
Al24 Al42 2.745179 1_555
Al24 Al48 2.745411 1_555
Al24 Al26 2.837147 1_555
Al24 Al32 2.837199 1_555
Al24 Al62 3.053834 1_555
Al24 Al79 3.054019 1_555
Al24 Er8 3.101558 1_555
Al24 Er5 3.101696 1_555
Al24 Er2 3.402180 1_555
Al24 Er9 3.402310 1_555
Al25 Al58 2.726887 1_555
Al25 Al55 2.726948 1_655
Al25 Al49 2.745149 1_555
Al25 Al43 2.745398 1_555
Al25 Al33 2.837203 1_555
Al25 Al29 2.837238 1_555
Al25 Al81 3.053843 1_555
Al25 Al63 3.054100 1_555
Al25 Er2 3.101566 1_655
Al25 Er9 3.101706 1_555
Al25 Er8 3.402122 1_555
Al25 Er5 3.402320 1_655
Al26 Al51 2.726946 1_565
Al26 Al58 2.726955 1_555
Al26 Al42 2.745216 1_555
Al26 Al48 2.745328 1_555
Al26 Al32 2.837141 1_555
Al26 Al64 3.053952 1_555
Al26 Al76 3.053986 1_555
Al26 Er0 3.101578 1_565
Al26 Er9 3.101719 1_555
Al26 Er8 3.402179 1_555
Al26 Er1 3.402200 1_565
Al27 Al61 2.726787 1_554
Al27 Al57 2.726967 1_655
Al27 Al45 2.745182 1_554
Al27 Al44 2.745332 1_555
Al27 Al28 2.837153 1_555
Al27 Al34 2.837256 1_555
Al27 Al72 3.053875 1_554
Al27 Al65 3.053999 1_555
Al27 Er4 3.101644 1_654
Al27 Er10 3.101689 1_555
Al27 Er11 3.402153 1_554
Al27 Er7 3.402294 1_655
Al28 Al56 2.726916 1_554
Al28 Al60 2.726947 1_555
Al28 Al45 2.745166 1_554
Al28 Al44 2.745268 1_555
Al28 Al34 2.837243 1_555
Al28 Al66 3.053905 1_554
Al28 Al71 3.053955 1_555
Al28 Er11 3.101609 1_554
Al28 Er3 3.101742 1_555
Al28 Er10 3.402237 1_555
Al28 Er6 3.402240 1_554
Al29 Al50 2.726803 1_555
Al29 Al59 2.726900 1_555
Al29 Al49 2.745294 1_555
Al29 Al43 2.745374 1_555
Al29 Al33 2.837221 1_555
Al29 Al77 3.053925 1_555
Al29 Al67 3.053951 1_555
Al29 Er1 3.101617 1_555
Al29 Er8 3.101679 1_555
Al29 Er0 3.402141 1_555
Al29 Er9 3.402293 1_555
Al30 Al54 2.726835 1_554
Al30 Al60 2.726994 1_555
Al30 Al46 2.745141 1_554
Al30 Al47 2.745335 1_555
Al30 Al35 2.837193 1_555
Al30 Al31 2.837230 1_555
Al30 Al68 3.053820 1_554
Al30 Al75 3.054038 1_555
Al30 Er11 3.101604 1_554
Al30 Er7 3.101725 1_555
Al30 Er4 3.402165 1_554
Al30 Er10 3.402296 1_555
Al31 Al61 2.726784 1_554
Al31 Al53 2.726904 1_565
Al31 Al46 2.745235 1_554
Al31 Al47 2.745318 1_555
Al31 Al35 2.837325 1_555
Al31 Al74 3.053860 1_554
Al31 Al69 3.053924 1_555
Al31 Er10 3.101622 1_555
Al31 Er6 3.101653 1_564
Al31 Er11 3.402149 1_554
Al31 Er3 3.402290 1_565
Al32 Al50 2.726851 1_565
Al32 Al55 2.726970 1_555
Al32 Al42 2.745246 1_555
Al32 Al48 2.745371 1_555
Al32 Al70 3.053906 1_555
Al32 Al84 3.053981 1_555
Al32 Er2 3.101609 1_555
Al32 Er1 3.101661 1_565
Al32 Er0 3.402135 1_565
Al32 Er5 3.402238 1_555
Al33 Al52 2.726873 1_655
Al33 Al51 2.726962 1_555
Al33 Al49 2.745243 1_555
Al33 Al43 2.745384 1_555
Al33 Al85 3.053903 1_555
Al33 Al73 3.054009 1_555
Al33 Er0 3.101574 1_555
Al33 Er5 3.101703 1_655
Al33 Er2 3.402193 1_655
Al33 Er1 3.402229 1_555
Al34 Al54 2.726823 1_654
Al34 Al53 2.726949 1_555
Al34 Al45 2.745178 1_554
Al34 Al44 2.745334 1_555
Al34 Al82 3.053820 1_554
Al34 Al78 3.054012 1_555
Al34 Er6 3.101618 1_554
Al34 Er7 3.101656 1_655
Al34 Er4 3.402170 1_654
Al34 Er3 3.402307 1_555
Al35 Al56 2.726869 1_564
Al35 Al57 2.726918 1_555
Al35 Al46 2.745164 1_554
Al35 Al47 2.745314 1_555
Al35 Al80 3.053867 1_554
Al35 Al83 3.054011 1_555
Al35 Er4 3.101574 1_554
Al35 Er3 3.101694 1_565
Al35 Er6 3.402181 1_564
Al35 Er7 3.402262 1_555
Al36 Ta6 2.614703 1_555
Al36 Ta4 2.614818 1_545
Al36 Al40 2.826963 1_445
Al36 Al38 2.826969 1_555
Al36 Al77 2.843334 1_555
Al36 Al66 2.843364 1_555
Al36 Al70 2.843369 1_545
Al36 Al80 2.843407 1_545
Al37 Ta7 2.614685 1_545
Al37 Ta5 2.614830 1_655
Al37 Al41 2.826888 1_655
Al37 Al39 2.826935 1_645
Al37 Al69 2.843304 1_545
Al37 Al76 2.843309 1_545
Al37 Al78 2.843362 1_555
Al37 Al73 2.843400 1_555
Al38 Ta2 2.614692 1_455
Al38 Ta6 2.614832 1_555
Al38 Al40 2.826910 1_445
Al38 Al85 2.843337 1_455
Al38 Al62 2.843397 1_555
Al38 Al82 2.843414 1_455
Al38 Al68 2.843440 1_555
Al39 Ta7 2.614676 1_455
Al39 Ta3 2.614858 1_565
Al39 Al41 2.826881 1_565
Al39 Al65 2.843285 1_455
Al39 Al63 2.843285 1_455
Al39 Al83 2.843372 1_555
Al39 Al84 2.843393 1_555
Al40 Ta4 2.614745 1_655
Al40 Ta2 2.614776 1_565
Al40 Al64 2.843355 1_555
Al40 Al81 2.843355 1_555
Al40 Al72 2.843382 1_555
Al40 Al74 2.843424 1_555
Al41 Ta3 2.614758 1_555
Al41 Ta5 2.614798 1_555
Al41 Al71 2.843458 1_555
Al41 Al67 2.843466 1_555
Al41 Al75 2.843468 1_555
Al41 Al79 2.843521 1_555
Al42 Al62 2.706183 1_555
Al42 Al64 2.706195 1_555
Al42 Al70 2.706232 1_555
Al42 Al6 2.815175 1_555
Al42 Er0 3.232286 1_565
Al42 Er8 3.232292 1_555
Al42 Er2 3.232307 1_555
Al43 Al67 2.706200 1_555
Al43 Al63 2.706201 1_555
Al43 Al73 2.706203 1_555
Al43 Al8 2.815216 1_555
Al43 Er9 3.232293 1_555
Al43 Er5 3.232310 1_655
Al43 Er1 3.232323 1_555
Al44 Al71 2.706220 1_555
Al44 Al65 2.706243 1_555
Al44 Al78 2.706254 1_555
Al44 Al8 2.815268 1_555
Al44 Er7 3.232270 1_655
Al44 Er3 3.232289 1_555
Al44 Er10 3.232315 1_555
Al45 Al66 2.706216 1_555
Al45 Al82 2.706216 1_555
Al45 Al72 2.706250 1_555
Al45 Al7 2.815236 1_555
Al45 Er6 3.232276 1_555
Al45 Er4 3.232289 1_655
Al45 Er11 3.232299 1_555
Al46 Al74 2.706213 1_555
Al46 Al68 2.706218 1_555
Al46 Al80 2.706228 1_555
Al46 Al6 2.815305 1_555
Al46 Er6 3.232240 1_565
Al46 Er4 3.232279 1_555
Al46 Er11 3.232296 1_555
Al47 Al75 2.706222 1_555
Al47 Al69 2.706229 1_555
Al47 Al83 2.706260 1_555
Al47 Al9 2.815229 1_555
Al47 Al5 2.815245 1_555
Al47 Er3 3.232232 1_565
Al47 Er10 3.232290 1_555
Al47 Er7 3.232298 1_555
Al48 Al79 2.706160 1_555
Al48 Al76 2.706217 1_555
Al48 Al84 2.706221 1_555
Al48 Al5 2.815201 1_555
Al48 Al9 2.815218 1_555
Al48 Er5 3.232274 1_555
Al48 Er1 3.232278 1_565
Al48 Er9 3.232331 1_555
Al49 Al77 2.706193 1_555
Al49 Al81 2.706205 1_555
Al49 Al85 2.706217 1_555
Al49 Al7 2.815249 1_555
Al49 Er2 3.232281 1_655
Al49 Er8 3.232300 1_555
Al49 Er0 3.232305 1_555
Al50 Ta0 2.860061 1_555
Al50 Al70 2.868533 1_545
Al50 Al77 2.868565 1_555
Al50 Al55 2.999492 1_545
Al50 Al59 2.999538 1_555
Al50 Er1 3.234167 1_555
Al50 Er0 3.255699 1_555
Al51 Ta0 2.859966 1_655
Al51 Al76 2.868542 1_545
Al51 Al73 2.868627 1_555
Al51 Al58 2.999471 1_545
Al51 Al52 2.999545 1_655
Al51 Er0 3.234254 1_555
Al51 Er1 3.255909 1_555
Al52 Ta0 2.860158 1_555
Al52 Al62 2.868440 1_555
Al52 Al85 2.868470 1_455
Al52 Al59 2.999580 1_555
Al52 Er5 3.234182 1_555
Al52 Er2 3.255670 1_555
Al53 Ta1 2.859907 1_655
Al53 Al69 2.868583 1_545
Al53 Al78 2.868588 1_555
Al53 Al54 2.999498 1_654
Al53 Al61 2.999521 1_544
Al53 Er6 3.234249 1_554
Al53 Er3 3.255941 1_555
Al54 Ta1 2.860171 1_556
Al54 Al82 2.868470 1_455
Al54 Al68 2.868486 1_555
Al54 Al60 2.999527 1_556
Al54 Er7 3.234187 1_556
Al54 Er4 3.255695 1_555
Al55 Ta0 2.859963 1_565
Al55 Al63 2.868542 1_455
Al55 Al84 2.868554 1_555
Al55 Al58 2.999487 1_455
Al55 Er2 3.234227 1_555
Al55 Er5 3.255898 1_555
Al56 Ta1 2.860089 1_556
Al56 Al66 2.868515 1_555
Al56 Al80 2.868525 1_545
Al56 Al57 2.999438 1_546
Al56 Al60 2.999466 1_556
Al56 Er3 3.234213 1_556
Al56 Er6 3.255760 1_555
Al57 Ta1 2.859906 1_565
Al57 Al83 2.868554 1_555
Al57 Al65 2.868596 1_455
Al57 Al61 2.999514 1_454
Al57 Er4 3.234260 1_554
Al57 Er7 3.255923 1_555
Al58 Ta0 2.860105 1_665
Al58 Al81 2.868478 1_555
Al58 Al64 2.868524 1_555
Al58 Er9 3.234191 1_555
Al58 Er8 3.255676 1_555
Al59 Ta0 2.859986 1_555
Al59 Al79 2.868539 1_555
Al59 Al67 2.868569 1_555
Al59 Er8 3.234194 1_555
Al59 Er9 3.255844 1_555
Al60 Ta1 2.859951 1_555
Al60 Al71 2.868560 1_555
Al60 Al75 2.868610 1_555
Al60 Er11 3.234269 1_554
Al60 Er10 3.255914 1_555
Al61 Ta1 2.860109 1_666
Al61 Al72 2.868495 1_555
Al61 Al74 2.868514 1_555
Al61 Er10 3.234155 1_556
Al61 Er11 3.255647 1_555
Al62 Ta6 2.739724 1_555
Al62 Al85 3.014596 1_455
Al62 Er2 3.038770 1_555
Al62 Al68 3.106406 1_555
Al62 Er8 3.302611 1_555
Al63 Ta7 2.739742 1_555
Al63 Al84 3.014480 1_655
Al63 Er5 3.038747 1_655
Al63 Al65 3.106377 1_555
Al63 Er9 3.302618 1_555
Al64 Ta2 2.739705 1_565
Al64 Al81 3.014557 1_555
Al64 Er8 3.038723 1_555
Al64 Al74 3.106378 1_555
Al64 Er0 3.302648 1_565
Al65 Ta7 2.739804 1_555
Al65 Al83 3.014594 1_655
Al65 Er7 3.038797 1_655
Al65 Er10 3.302535 1_555
Al66 Ta6 2.739806 1_555
Al66 Al7 2.835579 1_555
Al66 Al80 3.014623 1_545
Al66 Er6 3.038797 1_555
Al66 Al77 3.106388 1_555
Al66 Er11 3.302569 1_555
Al67 Ta3 2.739662 1_555
Al67 Al8 2.835638 1_555
Al67 Al79 3.014582 1_555
Al67 Er9 3.038742 1_555
Al67 Al71 3.106405 1_555
Al67 Er1 3.302616 1_555
Al68 Ta6 2.739863 1_555
Al68 Al82 3.014701 1_455
Al68 Er4 3.038809 1_555
Al68 Er11 3.302524 1_555
Al69 Ta7 2.739791 1_555
Al69 Al9 2.835574 1_555
Al69 Al78 3.014592 1_565
Al69 Er3 3.038792 1_565
Al69 Al76 3.106441 1_555
Al69 Er10 3.302488 1_555
Al70 Ta4 2.739738 1_555
Al70 Al77 3.014583 1_565
Al70 Er0 3.038745 1_565
Al70 Al80 3.106384 1_555
Al70 Er2 3.302587 1_555
Al71 Ta3 2.739844 1_555
Al71 Al8 2.835634 1_555
Al71 Al75 3.014643 1_555
Al71 Er10 3.038775 1_555
Al71 Er3 3.302557 1_555
Al72 Ta4 2.739773 1_655
Al72 Al74 3.014670 1_555
Al72 Er11 3.038780 1_555
Al72 Al81 3.106381 1_555
Al72 Er4 3.302557 1_655
Al73 Al8 2.731063 1_555
Al73 Ta5 2.739680 1_655
Al73 Al76 3.014551 1_545
Al73 Er1 3.038746 1_555
Al73 Al78 3.106373 1_555
Al73 Er5 3.302583 1_655
Al74 Ta2 2.739826 1_565
Al74 Er11 3.038777 1_555
Al74 Er6 3.302518 1_565
Al75 Al9 2.731082 1_555
Al75 Ta5 2.739852 1_555
Al75 Er10 3.038762 1_555
Al75 Al79 3.106419 1_555
Al75 Er7 3.302553 1_555
Al76 Ta7 2.739720 1_555
Al76 Al9 2.835640 1_555
Al76 Er1 3.038751 1_565
Al76 Er9 3.302567 1_555
Al77 Ta6 2.739664 1_555
Al77 Er0 3.038763 1_555
Al77 Er8 3.302620 1_555
Al78 Al8 2.731134 1_555
Al78 Ta5 2.739817 1_655
Al78 Er3 3.038768 1_555
Al78 Er7 3.302550 1_655
Al79 Al9 2.731110 1_555
Al79 Ta5 2.739732 1_555
Al79 Er9 3.038735 1_555
Al79 Er5 3.302557 1_555
Al80 Ta4 2.739830 1_555
Al80 Er6 3.038786 1_565
Al80 Er4 3.302527 1_555
Al81 Ta4 2.739681 1_655
Al81 Er8 3.038722 1_555
Al81 Er2 3.302615 1_655
Al82 Ta2 2.739807 1_555
Al82 Er4 3.038797 1_655
Al82 Al85 3.106407 1_555
Al82 Er6 3.302509 1_555
Al83 Ta3 2.739847 1_565
Al83 Er7 3.038788 1_555
Al83 Al84 3.106423 1_555
Al83 Er3 3.302529 1_565
Al84 Ta3 2.739694 1_565
Al84 Er5 3.038742 1_555
Al84 Er1 3.302576 1_565
Al85 Ta2 2.739670 1_555
Al85 Er2 3.038753 1_655
Al85 Er0 3.302618 1_555
