# generated using pymatgen
data_AlSi3AgO8
_symmetry_space_group_name_H-M   'P 1'
_cell_length_a   7.27958900
_cell_length_b   7.86335384
_cell_length_c   7.56155977
_cell_angle_alpha   115.16573898
_cell_angle_beta   100.59955147
_cell_angle_gamma   106.78707825
_symmetry_Int_Tables_number   1
_chemical_formula_structural   AlSi3AgO8
_chemical_formula_sum   'Al2 Si6 Ag2 O16'
_cell_volume   350.77038278
_cell_formula_units_Z   2
loop_
 _symmetry_equiv_pos_site_id
 _symmetry_equiv_pos_as_xyz
  1  'x, y, z'
loop_
 _atom_site_type_symbol
 _atom_site_label
 _atom_site_symmetry_multiplicity
 _atom_site_fract_x
 _atom_site_fract_y
 _atom_site_fract_z
 _atom_site_occupancy
  Al  Al0  1  0.21098400  0.17857300  0.82883300  1
  Al  Al1  1  0.78901600  0.82142700  0.17116700  1
  Si  Si0  1  0.32119200  0.80394500  0.57302600  1
  Si  Si1  1  0.67880800  0.19605500  0.42697400  1
  Si  Si2  1  0.23777000  0.82539400  0.18120900  1
  Si  Si3  1  0.76223000  0.17460600  0.81879100  1
  Si  Si4  1  0.36418800  0.57599600  0.80219400  1
  Si  Si5  1  0.63581200  0.42400400  0.19780600  1
  Ag  Ag0  1  0.12869800  0.25899300  0.26346800  1
  Ag  Ag1  1  0.87130200  0.74100700  0.73653200  1
  O  O0  1  0.97073800  0.13915700  0.86034700  1
  O  O1  1  0.02926200  0.86084300  0.13965300  1
  O  O2  1  0.43331300  0.04946000  0.31163100  1
  O  O3  1  0.56668700  0.95054000  0.68836900  1
  O  O4  1  0.18880000  0.92484300  0.67603000  1
  O  O5  1  0.81120000  0.07515700  0.32397000  1
  O  O6  1  0.28900500  0.59651100  0.59280800  1
  O  O7  1  0.71099500  0.40348900  0.40719200  1
  O  O8  1  0.24830700  0.68211400  0.95584500  1
  O  O9  1  0.75169300  0.31788600  0.04415500  1
  O  O10  1  0.38794000  0.29833800  0.08499600  1
  O  O11  1  0.61206000  0.70166200  0.91500400  1
  O  O12  1  0.24620200  0.71274400  0.32046700  1
  O  O13  1  0.75379800  0.28725600  0.67953300  1
  O  O14  1  0.28180800  0.33247100  0.71992500  1
  O  O15  1  0.71819200  0.66752900  0.28007500  1
loop_
_geom_bond_atom_site_label_1
_geom_bond_atom_site_label_2
_geom_bond_distance
_geom_bond_site_symmetry_2
Al0 O14 1.746949 1_555
Al0 O0 1.764793 1_455
Al0 O4 1.768178 1_545
Al0 O10 1.768647 1_556
Al1 O15 1.746949 1_555
Al1 O1 1.764793 1_655
Al1 O5 1.768178 1_565
Al1 O11 1.768647 1_554
Ag0 O6 2.475501 1_555
Ag0 O10 2.536363 1_555
Ag0 O5 2.581161 1_455
Ag0 O0 2.672749 1_454
Ag0 O1 2.674159 1_545
Ag1 O7 2.475501 1_555
Ag1 O11 2.536363 1_555
Ag1 O4 2.581161 1_655
Ag1 O1 2.672749 1_656
Ag1 O0 2.674159 1_565
O0 Si3 1.619796 1_555
O1 Si2 1.619796 1_555
O2 Si2 1.631024 1_545
O2 Si1 1.632420 1_555
O3 Si3 1.631024 1_565
O3 Si0 1.632420 1_555
O4 Si0 1.617062 1_555
O5 Si1 1.617062 1_555
O6 Si0 1.654536 1_555
O6 Si4 1.667868 1_555
O7 Si1 1.654536 1_555
O7 Si5 1.667868 1_555
O8 Si2 1.626147 1_556
O8 Si4 1.643292 1_555
O9 Si3 1.626147 1_554
O9 Si5 1.643292 1_555
O10 Si5 1.626932 1_555
O11 Si4 1.626932 1_555
O12 Si0 1.638585 1_555
O12 Si2 1.642610 1_555
O13 Si1 1.638585 1_555
O13 Si3 1.642610 1_555
O14 Si4 1.612406 1_555
O15 Si5 1.612406 1_555
