# generated using pymatgen
data_KFe4(SiO4)3
_symmetry_space_group_name_H-M   'P 1'
_cell_length_a   5.39722800
_cell_length_b   5.39851724
_cell_length_c   10.55571463
_cell_angle_alpha   94.80900445
_cell_angle_beta   95.77785814
_cell_angle_gamma   119.84867114
_symmetry_Int_Tables_number   1
_chemical_formula_structural   KFe4(SiO4)3
_chemical_formula_sum   'K1 Fe4 Si3 O12'
_cell_volume   262.19014155
_cell_formula_units_Z   1
loop_
 _symmetry_equiv_pos_site_id
 _symmetry_equiv_pos_as_xyz
  1  'x, y, z'
loop_
 _atom_site_type_symbol
 _atom_site_label
 _atom_site_symmetry_multiplicity
 _atom_site_fract_x
 _atom_site_fract_y
 _atom_site_fract_z
 _atom_site_occupancy
  K  K0  1  0.49323700  0.49103300  0.97772300  1
  Fe  Fe0  1  0.99540100  0.99590800  0.50149400  1
  Fe  Fe1  1  0.65635600  0.34791400  0.49883600  1
  Fe  Fe2  1  0.34912400  0.65617500  0.50429300  1
  Fe  Fe3  1  0.09345000  0.75916500  0.77576400  1
  Si  Si0  1  0.75635900  0.09805200  0.78088200  1
  Si  Si1  1  0.90711500  0.24392600  0.22804800  1
  Si  Si2  1  0.24765300  0.90810300  0.22862300  1
  O  O0  1  0.02195200  0.05032900  0.83078800  1
  O  O1  1  0.05596200  0.05561900  0.17819600  1
  O  O2  1  0.84899600  0.42674300  0.84012700  1
  O  O3  1  0.47549700  0.87842400  0.84165600  1
  O  O4  1  0.05838900  0.55659900  0.17121800  1
  O  O5  1  0.55491100  0.05890000  0.16844700  1
  O  O6  1  0.36615300  0.36008600  0.59010100  1
  O  O7  1  0.62561400  0.63398400  0.40327300  1
  O  O8  1  0.04056000  0.67388100  0.59268500  1
  O  O9  1  0.68305300  0.04177900  0.61748300  1
  O  O10  1  0.95122500  0.30511500  0.38475400  1
  O  O11  1  0.31899200  0.95826700  0.38560700  1
loop_
_geom_bond_atom_site_label_1
_geom_bond_atom_site_label_2
_geom_bond_distance
_geom_bond_site_symmetry_2
K0 O2 2.656535 1_555
K0 O0 2.664396 1_555
K0 O3 2.668528 1_555
Fe0 O6 2.035428 1_665
Fe0 O7 2.058596 1_555
Fe0 O8 2.159485 1_655
Fe0 O10 2.245815 1_565
Fe0 O9 2.276535 1_565
Fe0 O11 2.308609 1_655
Fe1 O6 1.944559 1_555
Fe1 O7 1.978049 1_555
Fe1 O8 2.009918 1_655
Fe1 O11 2.120472 1_545
Fe1 O10 2.177514 1_555
Fe1 O9 2.206437 1_555
Fe2 O6 1.938067 1_555
Fe2 O7 1.963481 1_555
Fe2 O8 2.027214 1_555
Fe2 O9 2.103332 1_565
Fe2 O10 2.190429 1_455
Fe2 O11 2.195728 1_555
Fe3 O2 1.857656 1_455
Fe3 O0 1.858178 1_565
Fe3 O3 1.861390 1_555
Fe3 O8 1.907105 1_555
O0 Si0 1.623897 1_455
O1 Si1 1.662557 1_455
O1 Si2 1.663814 1_545
O2 Si0 1.630209 1_555
O3 Si0 1.627716 1_565
O4 Si2 1.662702 1_555
O4 Si1 1.665008 1_455
O5 Si1 1.664578 1_555
O5 Si2 1.664708 1_545
O9 Si0 1.696715 1_555
O10 Si1 1.628742 1_555
O11 Si2 1.630950 1_555
