# generated using pymatgen
data_SrZn11
_symmetry_space_group_name_H-M   'P 1'
_cell_length_a   6.81296107
_cell_length_b   8.22622320
_cell_length_c   8.22622455
_cell_angle_alpha   80.28862569
_cell_angle_beta   65.58726743
_cell_angle_gamma   65.58728252
_symmetry_Int_Tables_number   1
_chemical_formula_structural   SrZn11
_chemical_formula_sum   'Sr2 Zn22'
_cell_volume   382.28131418
_cell_formula_units_Z   2
loop_
 _symmetry_equiv_pos_site_id
 _symmetry_equiv_pos_as_xyz
  1  'x, y, z'
loop_
 _atom_site_type_symbol
 _atom_site_label
 _atom_site_symmetry_multiplicity
 _atom_site_fract_x
 _atom_site_fract_y
 _atom_site_fract_z
 _atom_site_occupancy
  Sr  Sr0  1  0.62370498  0.75055364  0.25055364  1
  Sr  Sr1  1  0.37629502  0.24944636  0.74944636  1
  Zn  Zn0  1  0.55880543  0.57887322  0.66657310  1
  Zn  Zn1  1  0.80380280  0.91987982  0.83424231  1
  Zn  Zn2  1  0.87638288  0.25054574  0.75054574  1
  Zn  Zn3  1  0.12361712  0.74945426  0.24945426  1
  Zn  Zn4  1  0.00000000  0.50000000  0.50000000  1
  Zn  Zn5  1  0.00000000  -0.00000000  0.50000000  1
  Zn  Zn6  1  0.50000000  0.50000000  -0.00000000  1
  Zn  Zn7  1  0.00000000  -0.00000000  -0.00000000  1
  Zn  Zn8  1  0.80380280  0.33424231  0.41987982  1
  Zn  Zn9  1  0.72452739  0.07907161  0.33349384  1
  Zn  Zn10  1  0.13765208  0.42116171  0.16593021  1
  Zn  Zn11  1  0.55880543  0.16657310  0.07887322  1
  Zn  Zn12  1  0.86234792  0.33406979  0.07883829  1
  Zn  Zn13  1  0.27547261  0.16650616  0.42092839  1
  Zn  Zn14  1  0.19619720  0.08012018  0.16575769  1
  Zn  Zn15  1  0.44119457  0.42112678  0.33342690  1
  Zn  Zn16  1  0.19619720  0.66575769  0.58012018  1
  Zn  Zn17  1  0.27547261  0.92092839  0.66650616  1
  Zn  Zn18  1  0.86234792  0.57883829  0.83406979  1
  Zn  Zn19  1  0.44119457  0.83342690  0.92112678  1
  Zn  Zn20  1  0.13765208  0.66593021  0.92116171  1
  Zn  Zn21  1  0.72452739  0.83349384  0.57907161  1
loop_
_geom_bond_atom_site_label_1
_geom_bond_atom_site_label_2
_geom_bond_distance
_geom_bond_site_symmetry_2
Sr0 Zn9 3.283986 1_565
Sr0 Zn21 3.283986 1_555
Sr0 Zn15 3.288778 1_555
Sr0 Zn19 3.288778 1_554
Sr0 Zn16 3.291504 1_555
Sr0 Zn14 3.291504 1_565
Sr0 Zn20 3.296367 1_654
Sr0 Zn10 3.296368 1_655
Sr0 Zn13 3.385271 1_565
Sr0 Zn17 3.385271 1_555
Sr0 Zn1 3.391761 1_554
Sr0 Zn8 3.391761 1_555
Sr0 Zn12 3.392143 1_555
Sr0 Zn18 3.392144 1_554
Sr0 Zn11 3.396579 1_565
Sr0 Zn0 3.396580 1_555
Sr0 Zn3 3.398426 1_655
Sr0 Zn3 3.414575 1_555
Sr1 Zn17 3.283986 1_545
Sr1 Zn13 3.283986 1_555
Sr1 Zn0 3.288778 1_555
Sr1 Zn11 3.288778 1_556
Sr1 Zn8 3.291504 1_555
Sr1 Zn1 3.291504 1_545
Sr1 Zn12 3.296367 1_456
Sr1 Zn18 3.296368 1_455
Sr1 Zn21 3.385271 1_545
Sr1 Zn9 3.385271 1_555
Sr1 Zn14 3.391761 1_556
Sr1 Zn16 3.391761 1_555
Sr1 Zn20 3.392143 1_555
Sr1 Zn10 3.392144 1_556
Sr1 Zn19 3.396579 1_545
Sr1 Zn15 3.396580 1_555
Sr1 Zn2 3.398426 1_455
Sr1 Zn2 3.414575 1_555
Zn0 Zn4 2.572325 1_655
Zn0 Zn8 2.599087 1_555
Zn0 Zn6 2.609752 1_556
Zn0 Zn16 2.634566 1_555
Zn0 Zn21 2.637140 1_555
Zn0 Zn20 2.640459 1_555
Zn0 Zn17 2.674752 1_555
Zn0 Zn19 2.849079 1_555
Zn0 Zn2 2.868595 1_555
Zn0 Zn18 2.920618 1_555
Zn1 Zn7 2.572640 1_666
Zn1 Zn11 2.599087 1_566
Zn1 Zn5 2.619156 1_665
Zn1 Zn19 2.634565 1_555
Zn1 Zn21 2.638285 1_555
Zn1 Zn20 2.638454 1_655
Zn1 Zn18 2.665656 1_555
Zn1 Zn16 2.849933 1_655
Zn1 Zn2 2.883793 1_565
Zn1 Zn17 2.929854 1_655
Zn2 Zn6 2.778263 1_556
Zn2 Zn4 2.781197 1_655
Zn2 Zn7 2.781198 1_656
Zn2 Zn5 2.787211 1_655
Zn2 Zn8 2.883793 1_555
Zn3 Zn6 2.778263 1_555
Zn3 Zn4 2.781197 1_555
Zn3 Zn7 2.781198 1_565
Zn3 Zn5 2.787211 1_565
Zn3 Zn9 2.864865 1_465
Zn4 Zn8 2.572639 1_455
Zn5 Zn9 2.576199 1_455
Zn5 Zn8 2.619156 1_455
Zn7 Zn9 2.609314 1_455
Zn8 Zn9 2.638285 1_555
Zn10 Zn6 2.572436 1_555
Zn10 Zn20 2.596294 1_554
Zn10 Zn4 2.611606 1_555
Zn10 Zn12 2.634257 1_455
Zn10 Zn8 2.638453 1_455
Zn10 Zn11 2.640459 1_555
Zn10 Zn14 2.665656 1_555
Zn10 Zn3 2.851799 1_555
Zn10 Zn13 2.861813 1_555
Zn10 Zn15 2.920618 1_555
Zn11 Zn7 2.572325 1_655
Zn11 Zn6 2.609752 1_555
Zn11 Zn14 2.634565 1_555
Zn11 Zn9 2.637140 1_555
Zn11 Zn13 2.674752 1_555
Zn11 Zn15 2.849079 1_555
Zn11 Zn2 2.868594 1_554
Zn11 Zn12 2.920617 1_555
Zn12 Zn6 2.572437 1_555
Zn12 Zn18 2.596294 1_554
Zn12 Zn7 2.611606 1_655
Zn12 Zn14 2.638454 1_655
Zn12 Zn15 2.640459 1_555
Zn12 Zn8 2.665656 1_555
Zn12 Zn2 2.851800 1_554
Zn12 Zn9 2.861813 1_555
Zn13 Zn5 2.576198 1_555
Zn13 Zn17 2.604878 1_545
Zn13 Zn4 2.609314 1_555
Zn13 Zn9 2.632712 1_555
Zn13 Zn15 2.637140 1_555
Zn13 Zn14 2.638285 1_555
Zn13 Zn2 2.864865 1_455
Zn13 Zn8 2.929854 1_455
Zn14 Zn7 2.572640 1_555
Zn14 Zn19 2.599087 1_544
Zn14 Zn5 2.619156 1_555
Zn14 Zn8 2.849933 1_455
Zn14 Zn3 2.883793 1_545
Zn14 Zn9 2.929854 1_455
Zn15 Zn4 2.572325 1_555
Zn15 Zn16 2.599087 1_555
Zn15 Zn6 2.609752 1_555
Zn15 Zn8 2.634566 1_555
Zn15 Zn9 2.674752 1_555
Zn15 Zn3 2.868595 1_555
Zn16 Zn4 2.572639 1_555
Zn16 Zn5 2.619156 1_565
Zn16 Zn17 2.638285 1_555
Zn16 Zn18 2.638453 1_455
Zn16 Zn20 2.665656 1_555
Zn16 Zn3 2.883793 1_555
Zn16 Zn21 2.929854 1_455
Zn17 Zn5 2.576199 1_565
Zn17 Zn7 2.609314 1_566
Zn17 Zn21 2.632712 1_555
Zn17 Zn19 2.637140 1_555
Zn17 Zn20 2.861813 1_555
Zn17 Zn2 2.864865 1_465
Zn18 Zn6 2.572436 1_556
Zn18 Zn4 2.611606 1_655
Zn18 Zn20 2.634257 1_655
Zn18 Zn19 2.640459 1_555
Zn18 Zn2 2.851799 1_555
Zn18 Zn21 2.861813 1_555
Zn19 Zn7 2.572325 1_566
Zn19 Zn6 2.609752 1_556
Zn19 Zn21 2.674752 1_555
Zn19 Zn3 2.868594 1_556
Zn19 Zn20 2.920617 1_555
Zn20 Zn6 2.572437 1_556
Zn20 Zn7 2.611606 1_566
Zn20 Zn3 2.851800 1_556
Zn21 Zn5 2.576198 1_665
Zn21 Zn9 2.604878 1_565
Zn21 Zn4 2.609314 1_655
Zn21 Zn3 2.864865 1_655
