# generated using pymatgen
data_MgMnInS4
_symmetry_space_group_name_H-M   'P 1'
_cell_length_a   7.59583712
_cell_length_b   7.48810785
_cell_length_c   7.47983987
_cell_angle_alpha   59.90889138
_cell_angle_beta   59.52975423
_cell_angle_gamma   59.47359182
_symmetry_Int_Tables_number   1
_chemical_formula_structural   MgMnInS4
_chemical_formula_sum   'Mg2 Mn2 In2 S8'
_cell_volume   298.34371423
_cell_formula_units_Z   2
loop_
 _symmetry_equiv_pos_site_id
 _symmetry_equiv_pos_as_xyz
  1  'x, y, z'
loop_
 _atom_site_type_symbol
 _atom_site_label
 _atom_site_symmetry_multiplicity
 _atom_site_fract_x
 _atom_site_fract_y
 _atom_site_fract_z
 _atom_site_occupancy
  Mg  Mg0  1  0.87735700  0.87308800  0.87204100  1
  Mg  Mg1  1  0.12265300  0.12696000  0.12792000  1
  Mn  Mn0  1  0.50003200  0.49997700  0.99993900  1
  Mn  Mn1  1  0.49990100  0.99997400  0.50017200  1
  In  In0  1  0.49993200  0.49998200  0.50004700  1
  In  In1  1  0.00004500  0.49996000  0.50004200  1
  S  S0  1  0.72340500  0.74869000  0.74860400  1
  S  S1  1  0.26920500  0.23943400  0.72248700  1
  S  S2  1  0.26896500  0.72251200  0.23925300  1
  S  S3  1  0.72095400  0.25161600  0.25104900  1
  S  S4  1  0.73108200  0.27751700  0.76062000  1
  S  S5  1  0.27903900  0.74839700  0.74893000  1
  S  S6  1  0.27665400  0.25131200  0.25135300  1
  S  S7  1  0.73077900  0.76057400  0.27754400  1
loop_
_geom_bond_atom_site_label_1
_geom_bond_atom_site_label_2
_geom_bond_distance
_geom_bond_site_symmetry_2
Mg0 S4 2.467870 1_565
Mg0 S7 2.472793 1_556
Mg0 S5 2.479457 1_655
Mg0 S0 2.480252 1_555
Mg1 S2 2.468020 1_545
Mg1 S1 2.472373 1_554
Mg1 S3 2.479575 1_455
Mg1 S6 2.480269 1_555
Mn0 S4 2.427628 1_555
Mn0 S2 2.427988 1_556
Mn0 S5 2.514995 1_555
Mn0 S3 2.515162 1_556
Mn0 S6 2.518878 1_556
Mn0 S0 2.519087 1_555
Mn1 S1 2.427706 1_565
Mn1 S7 2.428998 1_555
Mn1 S0 2.514743 1_555
Mn1 S6 2.515494 1_565
Mn1 S5 2.520969 1_555
Mn1 S3 2.522362 1_565
In0 S5 2.622014 1_555
In0 S3 2.622301 1_555
In0 S4 2.626818 1_555
In0 S2 2.627038 1_555
In0 S1 2.628192 1_555
In0 S7 2.629066 1_555
In1 S0 2.622106 1_455
In1 S6 2.622308 1_555
In1 S1 2.626309 1_555
In1 S7 2.627170 1_455
In1 S4 2.628747 1_455
In1 S2 2.629094 1_555
