# generated using pymatgen
data_Li3ZnFe2(PO4)3
_symmetry_space_group_name_H-M   'P 1'
_cell_length_a   7.70499000
_cell_length_b   11.27990610
_cell_length_c   11.40388795
_cell_angle_alpha   69.35669013
_cell_angle_beta   75.04289424
_cell_angle_gamma   84.42689110
_symmetry_Int_Tables_number   1
_chemical_formula_structural   Li3ZnFe2(PO4)3
_chemical_formula_sum   'Li12 Zn4 Fe8 P12 O48'
_cell_volume   896.04793694
_cell_formula_units_Z   4
loop_
 _symmetry_equiv_pos_site_id
 _symmetry_equiv_pos_as_xyz
  1  'x, y, z'
loop_
 _atom_site_type_symbol
 _atom_site_label
 _atom_site_symmetry_multiplicity
 _atom_site_fract_x
 _atom_site_fract_y
 _atom_site_fract_z
 _atom_site_occupancy
  Li  Li0  1  0.33349800  0.33335400  0.49953700  1
  Li  Li1  1  0.66680000  0.66691500  0.49925100  1
  Li  Li2  1  0.99934800  0.00019100  0.49965200  1
  Li  Li3  1  0.00034600  0.49983300  0.00043400  1
  Li  Li4  1  0.33388100  0.83335400  0.00004900  1
  Li  Li5  1  0.66700800  0.16647200  0.00044800  1
  Li  Li6  1  0.00027400  0.49984400  0.49944500  1
  Li  Li7  1  0.33378600  0.83319300  0.49951500  1
  Li  Li8  1  0.66668900  0.16682700  0.49948900  1
  Li  Li9  1  0.33295300  0.33350200  0.00044200  1
  Li  Li10  1  0.66632300  0.66680500  0.00049000  1
  Li  Li11  1  0.99986400  0.00042900  0.99995700  1
  Zn  Zn0  1  0.58646500  0.33647000  0.21887500  1
  Zn  Zn1  1  0.25268600  0.00278900  0.21900300  1
  Zn  Zn2  1  0.91950200  0.66960600  0.21890200  1
  Zn  Zn3  1  0.26783500  0.01788200  0.71880200  1
  Fe  Fe0  1  0.93476600  0.68519400  0.72042800  1
  Fe  Fe1  1  0.60217600  0.35171800  0.72040100  1
  Fe  Fe2  1  0.74855700  0.99865800  0.77978100  1
  Fe  Fe3  1  0.41522800  0.66563900  0.77987000  1
  Fe  Fe4  1  0.08213100  0.33159600  0.77994100  1
  Fe  Fe5  1  0.06498700  0.31481700  0.27930500  1
  Fe  Fe6  1  0.73135700  0.98163200  0.27925800  1
  Fe  Fe7  1  0.39825600  0.64817600  0.27908900  1
  P  P0  1  0.00362300  0.75346200  0.40640600  1
  P  P1  1  0.33682700  0.08681400  0.40714100  1
  P  P2  1  0.67017100  0.42017100  0.40641700  1
  P  P3  1  0.72475700  0.47453500  0.90846200  1
  P  P4  1  0.05814900  0.80827600  0.90797200  1
  P  P5  1  0.39110900  0.14122400  0.90783400  1
  P  P6  1  0.99822300  0.24596800  0.59285200  1
  P  P7  1  0.33022000  0.58029700  0.59240900  1
  P  P8  1  0.66201600  0.91409200  0.59284600  1
  P  P9  1  0.27470500  0.52464500  0.09338000  1
  P  P10  1  0.60783800  0.85796000  0.09337500  1
  P  P11  1  0.94107100  0.19126400  0.09343900  1
  O  O0  1  0.84756000  0.80059200  0.33476500  1
  O  O1  1  0.18038200  0.13354600  0.33584500  1
  O  O2  1  0.51403300  0.46729500  0.33485800  1
  O  O3  1  0.92880500  0.47480600  0.83709600  1
  O  O4  1  0.26211700  0.80912600  0.83589400  1
  O  O5  1  0.59542400  0.14221500  0.83671000  1
  O  O6  1  0.88248800  0.33426300  0.66459400  1
  O  O7  1  0.21426200  0.66840400  0.66408500  1
  O  O8  1  0.54645200  0.00252300  0.66465600  1
  O  O9  1  0.34330700  0.38829700  0.16457200  1
  O  O10  1  0.67594200  0.72162900  0.16494000  1
  O  O11  1  0.00909400  0.05492600  0.16501400  1
  O  O12  1  0.15482000  0.19826700  0.66445800  1
  O  O13  1  0.48614500  0.53263100  0.66442300  1
  O  O14  1  0.81846200  0.86620200  0.66432500  1
  O  O15  1  0.07011400  0.52449100  0.16497500  1
  O  O16  1  0.40328800  0.85836700  0.16455300  1
  O  O17  1  0.73650000  0.19171000  0.16462600  1
  O  O18  1  0.11878500  0.66507100  0.33498300  1
  O  O19  1  0.45131300  0.99809000  0.33590500  1
  O  O20  1  0.78515400  0.33175800  0.33489500  1
  O  O21  1  0.65774100  0.61077100  0.83674800  1
  O  O22  1  0.99115500  0.94443900  0.83598100  1
  O  O23  1  0.32381400  0.27762600  0.83692600  1
  O  O24  1  0.77897700  0.52887000  0.40352500  1
  O  O25  1  0.11224000  0.86229700  0.40359800  1
  O  O26  1  0.44575900  0.19572600  0.40359100  1
  O  O27  1  0.61775800  0.36791100  0.90610300  1
  O  O28  1  0.95132800  0.70128700  0.90594600  1
  O  O29  1  0.28502800  0.03494700  0.90388900  1
  O  O30  1  0.22209500  0.47196200  0.59434300  1
  O  O31  1  0.55459100  0.80560500  0.59447800  1
  O  O32  1  0.88917400  0.13836000  0.59446200  1
  O  O33  1  0.38166500  0.63188600  0.09414400  1
  O  O34  1  0.71516800  0.96519500  0.09427600  1
  O  O35  1  0.04869300  0.29835400  0.09433900  1
  O  O36  1  0.05381500  0.80385600  0.04682500  1
  O  O37  1  0.38631500  0.13642900  0.04698400  1
  O  O38  1  0.72035900  0.47042500  0.04721400  1
  O  O39  1  0.91526800  0.66514200  0.54511200  1
  O  O40  1  0.24876100  0.99874400  0.54650700  1
  O  O41  1  0.58185600  0.33194800  0.54516100  1
  O  O42  1  0.94475200  0.19466400  0.95515000  1
  O  O43  1  0.27798500  0.52827300  0.95496300  1
  O  O44  1  0.61179300  0.86135900  0.95503400  1
  O  O45  1  0.08611000  0.33491500  0.45464000  1
  O  O46  1  0.41884200  0.66879700  0.45437800  1
  O  O47  1  0.75108700  0.00239900  0.45461400  1
loop_
_geom_bond_atom_site_label_1
_geom_bond_atom_site_label_2
_geom_bond_distance
_geom_bond_site_symmetry_2
Li0 O45 2.094433 1_555
Li0 O41 2.105950 1_555
Li0 O30 2.191425 1_555
Li0 O2 2.191698 1_555
Li0 O26 2.191742 1_555
Li0 O12 2.191946 1_555
Li1 O46 2.097976 1_555
Li1 O39 2.107377 1_555
Li1 O0 2.190207 1_555
Li1 O24 2.193974 1_555
Li1 O13 2.196411 1_555
Li1 O31 2.196518 1_555
Li2 O47 2.100539 1_555
Li2 O40 2.120519 1_645
Li2 O32 2.185417 1_555
Li2 O1 2.186125 1_655
Li2 O14 2.193211 1_545
Li2 O25 2.196038 1_645
Li3 O43 2.095568 1_554
Li3 O38 2.113934 1_455
Li3 O35 2.185407 1_555
Li3 O3 2.187269 1_454
Li3 O28 2.187313 1_454
Li3 O15 2.192019 1_555
Li4 O44 2.097176 1_554
Li4 O36 2.114697 1_555
Li4 O33 2.184818 1_555
Li4 O29 2.191721 1_564
Li4 O16 2.192098 1_555
Li4 O4 2.192995 1_554
Li5 O42 2.096033 1_554
Li5 O37 2.120612 1_555
Li5 O34 2.183039 1_545
Li5 O27 2.187247 1_554
Li5 O5 2.187893 1_554
Li5 O17 2.189981 1_555
Li6 O45 2.101506 1_555
Li6 O39 2.109058 1_455
Li6 O30 2.191250 1_555
Li6 O18 2.192431 1_555
Li6 O24 2.193826 1_455
Li6 O6 2.196760 1_455
Li7 O46 2.096662 1_555
Li7 O40 2.119036 1_555
Li7 O19 2.183782 1_555
Li7 O31 2.185092 1_555
Li7 O7 2.192264 1_555
Li7 O25 2.195425 1_555
Li8 O47 2.094755 1_555
Li8 O41 2.106992 1_555
Li8 O20 2.191045 1_555
Li8 O26 2.191290 1_555
Li8 O8 2.193678 1_555
Li8 O32 2.195680 1_555
Li9 O43 2.098666 1_554
Li9 O37 2.120267 1_555
Li9 O35 2.181642 1_555
Li9 O27 2.185385 1_554
Li9 O23 2.187344 1_554
Li9 O9 2.189542 1_555
Li10 O44 2.095831 1_554
Li10 O38 2.113595 1_555
Li10 O33 2.183651 1_555
Li10 O28 2.187245 1_554
Li10 O21 2.189681 1_554
Li10 O10 2.191647 1_555
Li11 O42 2.093707 1_555
Li11 O36 2.115428 1_646
Li11 O34 2.185560 1_546
Li11 O29 2.191418 1_655
Li11 O22 2.192227 1_545
Li11 O11 2.195315 1_656
Fe0 O7 2.092526 1_655
Fe0 O14 2.097767 1_555
Fe0 O39 2.133391 1_555
Fe0 O28 2.222557 1_555
Fe0 O21 2.263104 1_555
Fe0 O3 2.273208 1_555
Fe1 O13 2.095917 1_555
Fe1 O6 2.098754 1_555
Fe1 O41 2.133175 1_555
Fe1 O27 2.222786 1_555
Fe1 O5 2.263787 1_555
Fe1 O23 2.271183 1_555
Fe2 O22 2.097313 1_555
Fe2 O5 2.100125 1_565
Fe2 O44 2.133228 1_555
Fe2 O32 2.219207 1_565
Fe2 O14 2.262889 1_555
Fe2 O8 2.269853 1_565
Fe3 O4 2.094925 1_555
Fe3 O21 2.100770 1_555
Fe3 O43 2.133749 1_555
Fe3 O31 2.217956 1_555
Fe3 O13 2.268255 1_555
Fe3 O7 2.271357 1_555
Fe4 O23 2.094301 1_555
Fe4 O3 2.098627 1_455
Fe4 O42 2.132651 1_455
Fe4 O30 2.222646 1_555
Fe4 O6 2.259420 1_455
Fe4 O12 2.272019 1_555
Fe5 O20 2.094527 1_455
Fe5 O1 2.097704 1_555
Fe5 O45 2.137908 1_555
Fe5 O35 2.217418 1_555
Fe5 O15 2.261079 1_555
Fe5 O9 2.264912 1_555
Fe6 O19 2.096388 1_555
Fe6 O0 2.097267 1_555
Fe6 O47 2.138008 1_565
Fe6 O34 2.217224 1_555
Fe6 O11 2.259498 1_665
Fe6 O17 2.265624 1_565
Fe7 O18 2.092092 1_555
Fe7 O2 2.094647 1_555
Fe7 O46 2.138656 1_555
Fe7 O33 2.217062 1_555
Fe7 O10 2.259408 1_555
Fe7 O16 2.266503 1_555
O0 P0 1.572484 1_655
O0 Zn2 2.252880 1_555
O1 P1 1.572328 1_555
O1 Zn1 2.259234 1_555
O2 P2 1.572420 1_555
O2 Zn0 2.252509 1_555
O3 P3 1.572525 1_555
O4 P4 1.573571 1_555
O4 Zn3 2.258884 1_565
O5 P5 1.572947 1_555
O6 P6 1.575410 1_555
O7 P7 1.573989 1_555
O8 P8 1.576552 1_545
O8 Zn3 2.082963 1_555
O9 P9 1.577067 1_555
O9 Zn0 2.089559 1_555
O10 P10 1.576592 1_555
O10 Zn2 2.091022 1_555
O11 P11 1.576449 1_455
O11 Zn1 2.091502 1_555
O12 P6 1.576340 1_455
O12 Zn3 2.080322 1_555
O13 P7 1.574603 1_555
O14 P8 1.574653 1_555
O15 P9 1.576937 1_555
O15 Zn2 2.092059 1_455
O16 P10 1.575976 1_555
O16 Zn1 2.088079 1_565
O17 P11 1.576181 1_555
O17 Zn0 2.088510 1_555
O18 P0 1.572434 1_555
O18 Zn2 2.258073 1_455
O19 P1 1.572115 1_565
O19 Zn1 2.260494 1_565
O20 P2 1.572788 1_555
O20 Zn0 2.253256 1_555
O21 P3 1.573119 1_555
O22 P4 1.573255 1_655
O22 Zn3 2.260220 1_665
O23 P5 1.572974 1_555
O24 P2 1.537577 1_555
O24 Zn2 2.219393 1_555
O25 P0 1.538356 1_555
O25 Zn1 2.217843 1_565
O26 P1 1.537212 1_555
O26 Zn0 2.220473 1_555
O27 P3 1.534197 1_555
O28 P4 1.535182 1_655
O29 P5 1.534445 1_555
O29 Zn3 2.223841 1_555
O30 P7 1.535285 1_555
O31 P8 1.534819 1_555
O32 P6 1.534292 1_555
O33 P9 1.532099 1_555
O34 P10 1.534461 1_555
O35 P11 1.534469 1_455
O36 P4 1.558308 1_554
O36 Zn2 2.091838 1_455
O37 P5 1.559487 1_554
O37 Zn1 2.086745 1_555
O38 P3 1.558176 1_554
O38 Zn0 2.086693 1_555
O39 P0 1.556520 1_655
O40 P1 1.560204 1_565
O40 Zn3 2.093576 1_565
O41 P2 1.556386 1_555
O42 P11 1.556850 1_556
O43 P9 1.558208 1_556
O44 P10 1.556940 1_556
O45 P6 1.554172 1_455
O46 P7 1.552472 1_555
O47 P8 1.554140 1_545
