# generated using pymatgen
data_BC5
_symmetry_space_group_name_H-M   'P 1'
_cell_length_a   5.97586153
_cell_length_b   5.97586153
_cell_length_c   5.97586153
_cell_angle_alpha   155.69460763
_cell_angle_beta   155.69460763
_cell_angle_gamma   34.64107370
_symmetry_Int_Tables_number   1
_chemical_formula_structural   BC5
_chemical_formula_sum   'B1 C5'
_cell_volume   36.11479254
_cell_formula_units_Z   1
loop_
 _symmetry_equiv_pos_site_id
 _symmetry_equiv_pos_as_xyz
  1  'x, y, z'
loop_
 _atom_site_type_symbol
 _atom_site_label
 _atom_site_symmetry_multiplicity
 _atom_site_fract_x
 _atom_site_fract_y
 _atom_site_fract_z
 _atom_site_occupancy
  B  B0  1  0.75000000  0.25000000  0.50000000  1
  C  C0  1  0.84371900  0.84371900  0.00000000  1
  C  C1  1  0.15628100  0.15628100  0.00000000  1
  C  C2  1  0.50000000  0.50000000  0.00000000  1
  C  C3  1  0.41988400  0.91988400  0.50000000  1
  C  C4  1  0.08011600  0.58011600  0.50000000  1
loop_
_geom_bond_atom_site_label_1
_geom_bond_atom_site_label_2
_geom_bond_distance
_geom_bond_site_symmetry_2
B0 C0 1.651077 1_556
B0 C0 1.651077 1_545
B0 C1 1.651077 1_555
B0 C1 1.651077 1_656
C0 C3 1.528997 1_655
C0 C3 1.528997 1_554
C1 C4 1.528997 1_555
C1 C4 1.528997 1_544
C2 C3 1.555061 1_555
C2 C4 1.555061 1_554
C2 C3 1.555061 1_544
C2 C4 1.555061 1_655
