# generated using pymatgen
data_Ti16Hg4N5
_symmetry_space_group_name_H-M   'P 1'
_cell_length_a   3.97272400
_cell_length_b   3.97272400
_cell_length_c   32.14014200
_cell_angle_alpha   90.00000000
_cell_angle_beta   90.00000000
_cell_angle_gamma   90.00000000
_symmetry_Int_Tables_number   1
_chemical_formula_structural   Ti16Hg4N5
_chemical_formula_sum   'Ti16 Hg4 N5'
_cell_volume   507.25294752
_cell_formula_units_Z   1
loop_
 _symmetry_equiv_pos_site_id
 _symmetry_equiv_pos_as_xyz
  1  'x, y, z'
loop_
 _atom_site_type_symbol
 _atom_site_label
 _atom_site_symmetry_multiplicity
 _atom_site_fract_x
 _atom_site_fract_y
 _atom_site_fract_z
 _atom_site_occupancy
  Ti  Ti0  1  0.50000000  0.50000000  0.02612600  1
  Ti  Ti1  1  0.50000000  0.50000000  0.17387400  1
  Ti  Ti2  1  0.50000000  0.50000000  0.34873600  1
  Ti  Ti3  1  0.50000000  0.50000000  0.60000000  1
  Ti  Ti4  1  0.50000000  0.50000000  0.85126400  1
  Ti  Ti5  1  0.50000000  0.00000000  0.10000000  1
  Ti  Ti6  1  0.50000000  0.00000000  0.40956300  1
  Ti  Ti7  1  0.50000000  0.00000000  0.54967100  1
  Ti  Ti8  1  0.50000000  0.00000000  0.65032900  1
  Ti  Ti9  1  0.50000000  0.00000000  0.79043700  1
  Ti  Ti10  1  0.00000000  0.50000000  0.10000000  1
  Ti  Ti11  1  0.00000000  0.50000000  0.40956300  1
  Ti  Ti12  1  0.00000000  0.50000000  0.54967100  1
  Ti  Ti13  1  0.00000000  0.50000000  0.65032900  1
  Ti  Ti14  1  0.00000000  0.50000000  0.79043700  1
  Ti  Ti15  1  0.50000000  0.50000000  0.10000000  1
  Hg  Hg0  1  0.50000000  0.50000000  0.26067000  1
  Hg  Hg1  1  0.50000000  0.50000000  0.47936800  1
  Hg  Hg2  1  0.50000000  0.50000000  0.72063200  1
  Hg  Hg3  1  0.50000000  0.50000000  0.93933000  1
  N  N0  1  0.00000000  0.00000000  0.05714300  1
  N  N1  1  0.00000000  0.00000000  0.14285700  1
  N  N2  1  0.00000000  0.00000000  0.40319700  1
  N  N3  1  0.00000000  0.00000000  0.60000000  1
  N  N4  1  0.00000000  0.00000000  0.79680300  1
loop_
_geom_bond_atom_site_label_1
_geom_bond_atom_site_label_2
_geom_bond_distance
_geom_bond_site_symmetry_2
Ti0 Ti15 2.374321 1_555
Ti1 Ti15 2.374321 1_555
Ti3 Ti8 2.561680 1_555
Ti3 Ti8 2.561680 1_565
Ti3 Ti7 2.561680 1_555
Ti3 Ti7 2.561680 1_565
Ti10 Ti15 1.986362 1_555
Ti10 Ti15 1.986362 1_455
Ti12 Ti3 2.561680 1_455
Ti12 Ti3 2.561680 1_555
Ti13 Ti3 2.561680 1_455
Ti13 Ti3 2.561680 1_555
Ti15 Ti5 1.986362 1_555
Ti15 Ti5 1.986362 1_565
Hg0 Ti1 2.789636 1_555
Hg0 Ti2 2.830454 1_555
Hg1 Ti11 2.996518 1_655
Hg1 Ti6 2.996518 1_555
Hg1 Ti6 2.996518 1_565
Hg1 Ti11 2.996518 1_555
Hg1 Ti12 3.008520 1_555
Hg1 Ti12 3.008520 1_655
Hg1 Ti7 3.008520 1_555
Hg1 Ti7 3.008520 1_565
Hg2 Ti14 2.996518 1_555
Hg2 Ti9 2.996518 1_555
Hg2 Ti14 2.996518 1_655
Hg2 Ti9 2.996518 1_565
Hg2 Ti8 3.008520 1_555
Hg2 Ti8 3.008520 1_565
Hg2 Ti13 3.008520 1_655
Hg2 Ti13 3.008520 1_555
Hg3 Ti0 2.789636 1_556
Hg3 Ti4 2.830454 1_555
N0 Ti5 2.417219 1_555
N0 Ti10 2.417219 1_545
N0 Ti5 2.417219 1_455
N0 Ti10 2.417219 1_555
N0 Ti0 2.980782 1_545
N0 Ti0 2.980782 1_445
N0 Ti0 2.980782 1_455
N0 Ti0 2.980782 1_555
N1 Ti5 2.417219 1_455
N1 Ti10 2.417219 1_555
N1 Ti5 2.417219 1_555
N1 Ti10 2.417219 1_545
N1 Ti1 2.980782 1_545
N1 Ti1 2.980782 1_455
N1 Ti1 2.980782 1_445
N1 Ti1 2.980782 1_555
N2 Ti6 1.996872 1_455
N2 Ti11 1.996872 1_555
N2 Ti11 1.996872 1_545
N2 Ti6 1.996872 1_555
N3 Ti8 2.561680 1_455
N3 Ti13 2.561680 1_545
N3 Ti8 2.561680 1_555
N3 Ti13 2.561680 1_555
N3 Ti7 2.561680 1_555
N3 Ti12 2.561680 1_555
N3 Ti12 2.561680 1_545
N3 Ti7 2.561680 1_455
N3 Ti3 2.809140 1_545
N3 Ti3 2.809140 1_555
N3 Ti3 2.809140 1_445
N3 Ti3 2.809140 1_455
N4 Ti14 1.996872 1_545
N4 Ti14 1.996872 1_555
N4 Ti9 1.996872 1_555
N4 Ti9 1.996872 1_455
