# generated using pymatgen
data_ErHg2
_symmetry_space_group_name_H-M   'P 1'
_cell_length_a   9.73213316
_cell_length_b   9.73213064
_cell_length_c   6.83529968
_cell_angle_alpha   90.00000000
_cell_angle_beta   90.00000000
_cell_angle_gamma   119.99998793
_symmetry_Int_Tables_number   1
_chemical_formula_structural   ErHg2
_chemical_formula_sum   'Er8 Hg16'
_cell_volume   560.66599583
_cell_formula_units_Z   8
loop_
 _symmetry_equiv_pos_site_id
 _symmetry_equiv_pos_as_xyz
  1  'x, y, z'
loop_
 _atom_site_type_symbol
 _atom_site_label
 _atom_site_symmetry_multiplicity
 _atom_site_fract_x
 _atom_site_fract_y
 _atom_site_fract_z
 _atom_site_occupancy
  Er  Er0_0  1  0.00000000  0.00000000  0.00000000  1
  Er  Er0_1  1  0.00000000  0.00000000  0.50000000  1
  Er  Er0_2  1  0.00000000  0.50000000  0.00000000  1
  Er  Er0_3  1  0.00000000  0.50000000  0.50000000  1
  Er  Er0_4  1  0.50000000  0.00000000  0.00000000  1
  Er  Er0_5  1  0.50000000  0.00000000  0.50000000  1
  Er  Er0_6  1  0.50000000  0.50000000  0.00000000  1
  Er  Er0_7  1  0.50000000  0.50000000  0.50000000  1
  Hg  Hg0_0  1  0.16666650  0.33333350  0.25000000  1
  Hg  Hg0_1  1  0.16666650  0.33333350  0.75000000  1
  Hg  Hg0_2  1  0.16666650  0.83333350  0.25000000  1
  Hg  Hg0_3  1  0.16666650  0.83333350  0.75000000  1
  Hg  Hg0_4  1  0.66666650  0.33333350  0.25000000  1
  Hg  Hg0_5  1  0.66666650  0.33333350  0.75000000  1
  Hg  Hg0_6  1  0.66666650  0.83333350  0.25000000  1
  Hg  Hg0_7  1  0.66666650  0.83333350  0.75000000  1
  Hg  Hg1_0  1  0.33333350  0.16666650  0.25000000  1
  Hg  Hg1_1  1  0.33333350  0.16666650  0.75000000  1
  Hg  Hg1_2  1  0.33333350  0.66666650  0.25000000  1
  Hg  Hg1_3  1  0.33333350  0.66666650  0.75000000  1
  Hg  Hg1_4  1  0.83333350  0.16666650  0.25000000  1
  Hg  Hg1_5  1  0.83333350  0.16666650  0.75000000  1
  Hg  Hg1_6  1  0.83333350  0.66666650  0.25000000  1
  Hg  Hg1_7  1  0.83333350  0.66666650  0.75000000  1
loop_
_geom_bond_atom_site_label_1
_geom_bond_atom_site_label_2
_geom_bond_distance
_geom_bond_site_symmetry_2
Er0_0 Hg1_5 3.288302 1_454
Er0_0 Hg1_4 3.288302 1_455
Er0_0 Hg0_2 3.288302 1_545
Er0_0 Hg0_3 3.288302 1_544
Er0_0 Hg1_7 3.288306 1_444
Er0_0 Hg0_1 3.288306 1_554
Er0_0 Hg1_6 3.288306 1_445
Er0_0 Hg0_0 3.288306 1_555
Er0_0 Hg0_7 3.288307 1_444
Er0_0 Hg0_6 3.288307 1_445
Er0_0 Hg1_1 3.288307 1_554
Er0_0 Hg1_0 3.288307 1_555
Er0_0 Er0_1 3.417650 1_555
Er0_0 Er0_1 3.417650 1_554
Er0_1 Hg1_4 3.288302 1_455
Er0_1 Hg0_2 3.288302 1_545
Er0_1 Hg1_5 3.288302 1_455
Er0_1 Hg0_3 3.288302 1_545
Er0_1 Hg1_6 3.288306 1_445
Er0_1 Hg0_0 3.288306 1_555
Er0_1 Hg1_7 3.288306 1_445
Er0_1 Hg0_1 3.288306 1_555
Er0_1 Hg0_6 3.288307 1_445
Er0_1 Hg0_7 3.288307 1_445
Er0_1 Hg1_0 3.288307 1_555
Er0_1 Hg1_1 3.288307 1_555
Er0_2 Hg1_6 3.288302 1_455
Er0_2 Hg1_7 3.288302 1_454
Er0_2 Hg0_1 3.288302 1_554
Er0_2 Hg0_0 3.288302 1_555
Er0_2 Hg0_3 3.288306 1_554
Er0_2 Hg0_2 3.288306 1_555
Er0_2 Hg1_5 3.288306 1_454
Er0_2 Hg1_4 3.288306 1_455
Er0_2 Hg0_5 3.288307 1_454
Er0_2 Hg0_4 3.288307 1_455
Er0_2 Hg1_2 3.288307 1_555
Er0_2 Hg1_3 3.288307 1_554
Er0_2 Er0_3 3.417650 1_555
Er0_2 Er0_3 3.417650 1_554
Er0_3 Hg1_6 3.288302 1_455
Er0_3 Hg1_7 3.288302 1_455
Er0_3 Hg0_0 3.288302 1_555
Er0_3 Hg0_1 3.288302 1_555
Er0_3 Hg0_2 3.288306 1_555
Er0_3 Hg0_3 3.288306 1_555
Er0_3 Hg1_4 3.288306 1_455
Er0_3 Hg1_5 3.288306 1_455
Er0_3 Hg0_4 3.288307 1_455
Er0_3 Hg0_5 3.288307 1_455
Er0_3 Hg1_2 3.288307 1_555
Er0_3 Hg1_3 3.288307 1_555
Er0_4 Hg1_1 3.288302 1_554
Er0_4 Hg1_0 3.288302 1_555
Er0_4 Hg0_7 3.288302 1_544
Er0_4 Hg0_6 3.288302 1_545
Er0_4 Hg1_3 3.288306 1_544
Er0_4 Hg0_5 3.288306 1_554
Er0_4 Hg1_2 3.288306 1_545
Er0_4 Hg0_4 3.288306 1_555
Er0_4 Hg0_3 3.288307 1_544
Er0_4 Hg0_2 3.288307 1_545
Er0_4 Hg1_5 3.288307 1_554
Er0_4 Hg1_4 3.288307 1_555
Er0_4 Er0_5 3.417650 1_554
Er0_4 Er0_5 3.417650 1_555
Er0_5 Hg1_0 3.288302 1_555
Er0_5 Hg1_1 3.288302 1_555
Er0_5 Hg0_6 3.288302 1_545
Er0_5 Hg0_7 3.288302 1_545
Er0_5 Hg0_5 3.288306 1_555
Er0_5 Hg1_2 3.288306 1_545
Er0_5 Hg1_3 3.288306 1_545
Er0_5 Hg0_4 3.288306 1_555
Er0_5 Hg0_3 3.288307 1_545
Er0_5 Hg0_2 3.288307 1_545
Er0_5 Hg1_4 3.288307 1_555
Er0_5 Hg1_5 3.288307 1_555
Er0_6 Hg1_3 3.288302 1_554
Er0_6 Hg0_5 3.288302 1_554
Er0_6 Hg1_2 3.288302 1_555
Er0_6 Hg0_4 3.288302 1_555
Er0_6 Hg0_7 3.288306 1_554
Er0_6 Hg1_0 3.288306 1_555
Er0_6 Hg0_6 3.288306 1_555
Er0_6 Hg1_1 3.288306 1_554
Er0_6 Hg0_1 3.288307 1_554
Er0_6 Hg0_0 3.288307 1_555
Er0_6 Hg1_7 3.288307 1_554
Er0_6 Hg1_6 3.288307 1_555
Er0_6 Er0_7 3.417650 1_555
Er0_6 Er0_7 3.417650 1_554
Er0_7 Hg1_3 3.288302 1_555
Er0_7 Hg1_2 3.288302 1_555
Er0_7 Hg0_4 3.288302 1_555
Er0_7 Hg0_5 3.288302 1_555
Er0_7 Hg0_7 3.288306 1_555
Er0_7 Hg1_0 3.288306 1_555
Er0_7 Hg0_6 3.288306 1_555
Er0_7 Hg1_1 3.288306 1_555
Er0_7 Hg0_1 3.288307 1_555
Er0_7 Hg0_0 3.288307 1_555
Er0_7 Hg1_6 3.288307 1_555
Er0_7 Hg1_7 3.288307 1_555
Hg0_0 Hg1_2 2.809422 1_555
Hg0_0 Hg1_4 2.809422 1_455
Hg0_0 Hg1_0 2.809430 1_555
Hg0_1 Hg1_3 2.809422 1_555
Hg0_1 Hg1_5 2.809422 1_455
Hg0_1 Hg1_1 2.809430 1_555
Hg0_2 Hg1_0 2.809422 1_565
Hg0_2 Hg1_6 2.809422 1_455
Hg0_2 Hg1_2 2.809430 1_555
Hg0_3 Hg1_1 2.809422 1_565
Hg0_3 Hg1_7 2.809422 1_455
Hg0_3 Hg1_3 2.809430 1_555
Hg0_4 Hg1_6 2.809422 1_555
Hg0_4 Hg1_0 2.809422 1_555
Hg0_4 Hg1_4 2.809430 1_555
Hg0_5 Hg1_7 2.809422 1_555
Hg0_5 Hg1_1 2.809422 1_555
Hg0_5 Hg1_5 2.809430 1_555
Hg0_6 Hg1_4 2.809422 1_565
Hg0_6 Hg1_2 2.809422 1_555
Hg0_6 Hg1_6 2.809430 1_555
Hg0_7 Hg1_5 2.809422 1_565
Hg0_7 Hg1_3 2.809422 1_555
Hg0_7 Hg1_7 2.809430 1_555
