# generated using pymatgen
data_CoSbS
_symmetry_space_group_name_H-M   'P 1'
_cell_length_a   5.81017310
_cell_length_b   5.81017310
_cell_length_c   5.81017310
_cell_angle_alpha   90.00000000
_cell_angle_beta   90.00000000
_cell_angle_gamma   90.00000000
_symmetry_Int_Tables_number   1
_chemical_formula_structural   CoSbS
_chemical_formula_sum   'Co4 Sb4 S4'
_cell_volume   196.14047107
_cell_formula_units_Z   4
loop_
 _symmetry_equiv_pos_site_id
 _symmetry_equiv_pos_as_xyz
  1  'x, y, z'
loop_
 _atom_site_type_symbol
 _atom_site_label
 _atom_site_symmetry_multiplicity
 _atom_site_fract_x
 _atom_site_fract_y
 _atom_site_fract_z
 _atom_site_occupancy
  Co  Co0  1  0.48318920  0.98318920  0.51681080  1
  Co  Co1  1  0.98318920  0.51681080  0.48318920  1
  Co  Co2  1  0.51681080  0.48318920  0.98318920  1
  Co  Co3  1  0.01681080  0.01681080  0.01681080  1
  Sb  Sb0  1  0.12737466  0.62737466  0.87262534  1
  Sb  Sb1  1  0.62737466  0.87262534  0.12737466  1
  Sb  Sb2  1  0.87262534  0.12737466  0.62737466  1
  Sb  Sb3  1  0.37262534  0.37262534  0.37262534  1
  S  S0  1  0.87806969  0.37806969  0.12193031  1
  S  S1  1  0.37806969  0.12193031  0.87806969  1
  S  S2  1  0.12193031  0.87806969  0.37806969  1
  S  S3  1  0.62193031  0.62193031  0.62193031  1
loop_
_geom_bond_atom_site_label_1
_geom_bond_atom_site_label_2
_geom_bond_distance
_geom_bond_site_symmetry_2
Co0 S1 2.329924 1_565
Co0 S2 2.329924 1_555
Co0 S3 2.329924 1_555
Co0 Sb3 2.496849 1_565
Co0 Sb1 2.496849 1_555
Co0 Sb2 2.496849 1_565
Co1 S2 2.329924 1_655
Co1 S3 2.329924 1_555
Co1 S0 2.329924 1_555
Co1 Sb3 2.496849 1_655
Co1 Sb2 2.496849 1_555
Co1 Sb0 2.496849 1_655
Co2 S1 2.329924 1_555
Co2 S3 2.329924 1_555
Co2 S0 2.329924 1_556
Co2 Sb0 2.496849 1_555
Co2 Sb3 2.496849 1_556
Co2 Sb1 2.496849 1_556
Co3 S1 2.329924 1_554
Co3 S0 2.329924 1_455
Co3 S2 2.329924 1_545
Co3 Sb2 2.496849 1_454
Co3 Sb1 2.496849 1_445
Co3 Sb0 2.496849 1_544
S0 Sb0 2.508884 1_654
S1 Sb1 2.508884 1_546
S2 Sb2 2.508884 1_465
S3 Sb3 2.508884 1_555
