# generated using pymatgen
data_Nd2Si3Ag
_symmetry_space_group_name_H-M   'P 1'
_cell_length_a   4.11113929
_cell_length_b   4.32566711
_cell_length_c   7.79476709
_cell_angle_alpha   73.88615809
_cell_angle_beta   74.74938300
_cell_angle_gamma   90.00440642
_symmetry_Int_Tables_number   1
_chemical_formula_structural   Nd2Si3Ag
_chemical_formula_sum   'Nd2 Si3 Ag1'
_cell_volume   128.08190392
_cell_formula_units_Z   1
loop_
 _symmetry_equiv_pos_site_id
 _symmetry_equiv_pos_as_xyz
  1  'x, y, z'
loop_
 _atom_site_type_symbol
 _atom_site_label
 _atom_site_symmetry_multiplicity
 _atom_site_fract_x
 _atom_site_fract_y
 _atom_site_fract_z
 _atom_site_occupancy
  Nd  Nd0  1  0.86833506  0.61780097  0.26406333  1
  Nd  Nd1  1  0.13189651  0.38220994  0.73568542  1
  Si  Si0  1  0.29441569  0.04465123  0.41096855  1
  Si  Si1  1  0.45664249  0.20686496  0.08644006  1
  Si  Si2  1  0.70980117  0.95923038  0.58126635  1
  Ag  Ag0  1  0.53890908  0.78924252  0.92157729  1
loop_
_geom_bond_atom_site_label_1
_geom_bond_atom_site_label_2
_geom_bond_distance
_geom_bond_site_symmetry_2
Nd0 Si2 3.145735 1_545
Nd0 Si2 3.146240 1_555
Nd0 Si0 3.163276 1_655
Nd0 Si0 3.165000 1_665
Nd0 Si0 3.166518 1_555
Nd0 Si0 3.168671 1_565
Nd0 Si1 3.245231 1_655
Nd0 Si1 3.246301 1_665
Nd0 Si1 3.246508 1_555
Nd0 Si1 3.247999 1_565
Nd1 Si2 3.181487 1_455
Nd1 Si2 3.182539 1_445
Nd1 Si0 3.185424 1_555
Nd1 Si0 3.185586 1_565
Nd1 Si2 3.185970 1_555
Nd1 Si2 3.187450 1_545
Nd1 Si1 3.256085 1_556
Nd1 Si1 3.257683 1_456
Si0 Si1 2.337359 1_555
Si0 Si2 2.392546 1_445
Si0 Si2 2.394841 1_545
Ag0 Si2 2.451034 1_555
Ag0 Si1 2.467027 1_556
Ag0 Si1 2.467648 1_566
Ag0 Nd0 3.210259 1_456
Ag0 Nd0 3.211563 1_556
Ag0 Nd1 3.269661 1_555
Ag0 Nd1 3.269812 1_565
Ag0 Nd1 3.270999 1_665
Ag0 Nd1 3.271266 1_655
