# generated using pymatgen
data_La4CePd15
_symmetry_space_group_name_H-M   'P 1'
_cell_length_a   4.18194450
_cell_length_b   4.18194450
_cell_length_c   21.01774018
_cell_angle_alpha   90.00000000
_cell_angle_beta   90.00000000
_cell_angle_gamma   90.00000000
_symmetry_Int_Tables_number   1
_chemical_formula_structural   La4CePd15
_chemical_formula_sum   'La4 Ce1 Pd15'
_cell_volume   367.57210780
_cell_formula_units_Z   1
loop_
 _symmetry_equiv_pos_site_id
 _symmetry_equiv_pos_as_xyz
  1  'x, y, z'
loop_
 _atom_site_type_symbol
 _atom_site_label
 _atom_site_symmetry_multiplicity
 _atom_site_fract_x
 _atom_site_fract_y
 _atom_site_fract_z
 _atom_site_occupancy
  La  La0  1  0.00000000  -0.00000000  0.19895814  1
  La  La1  1  -0.00000000  -0.00000000  0.39973701  1
  La  La2  1  0.00000000  0.00000000  0.60026299  1
  La  La3  1  -0.00000000  0.00000000  0.80104186  1
  Ce  Ce0  1  0.00000000  -0.00000000  0.00000000  1
  Pd  Pd0  1  0.50000000  0.50000000  0.00000000  1
  Pd  Pd1  1  0.50000000  0.50000000  0.19745253  1
  Pd  Pd2  1  0.50000000  0.50000000  0.39994009  1
  Pd  Pd3  1  0.50000000  0.50000000  0.60005991  1
  Pd  Pd4  1  0.50000000  0.50000000  0.80254747  1
  Pd  Pd5  1  0.50000000  0.00000000  0.09554527  1
  Pd  Pd6  1  0.50000000  -0.00000000  0.29888877  1
  Pd  Pd7  1  0.50000000  -0.00000000  0.50000000  1
  Pd  Pd8  1  0.50000000  0.00000000  0.70111123  1
  Pd  Pd9  1  0.50000000  -0.00000000  0.90445473  1
  Pd  Pd10  1  -0.00000000  0.50000000  0.09554527  1
  Pd  Pd11  1  0.00000000  0.50000000  0.29888877  1
  Pd  Pd12  1  0.00000000  0.50000000  0.50000000  1
  Pd  Pd13  1  -0.00000000  0.50000000  0.70111123  1
  Pd  Pd14  1  0.00000000  0.50000000  0.90445473  1
loop_
_geom_bond_atom_site_label_1
_geom_bond_atom_site_label_2
_geom_bond_distance
_geom_bond_site_symmetry_2
La0 Pd1 2.957251 1_455
La0 Pd1 2.957251 1_445
La0 Pd1 2.957251 1_545
La0 Pd1 2.957251 1_555
La0 Pd11 2.963696 1_555
La0 Pd6 2.963696 1_455
La0 Pd11 2.963696 1_545
La0 Pd6 2.963696 1_555
La0 Pd10 3.016005 1_545
La0 Pd5 3.016005 1_455
La0 Pd5 3.016005 1_555
La0 Pd10 3.016005 1_555
La1 Pd2 2.957084 1_555
La1 Pd2 2.957084 1_545
La1 Pd2 2.957084 1_445
La1 Pd2 2.957084 1_455
La1 Pd12 2.968650 1_545
La1 Pd7 2.968650 1_455
La1 Pd7 2.968650 1_555
La1 Pd12 2.968650 1_555
La1 Pd11 2.977395 1_545
La1 Pd6 2.977395 1_555
La1 Pd11 2.977395 1_555
La1 Pd6 2.977395 1_455
La2 Pd3 2.957084 1_455
La2 Pd3 2.957084 1_445
La2 Pd3 2.957084 1_545
La2 Pd3 2.957084 1_555
La2 Pd12 2.968650 1_545
La2 Pd7 2.968650 1_455
La2 Pd12 2.968650 1_555
La2 Pd7 2.968650 1_555
La2 Pd8 2.977395 1_555
La2 Pd13 2.977395 1_555
La2 Pd8 2.977395 1_455
La2 Pd13 2.977395 1_545
La3 Pd4 2.957251 1_445
La3 Pd4 2.957251 1_545
La3 Pd4 2.957251 1_455
La3 Pd4 2.957251 1_555
La3 Pd8 2.963696 1_455
La3 Pd13 2.963696 1_545
La3 Pd8 2.963696 1_555
La3 Pd13 2.963696 1_555
La3 Pd9 3.016005 1_455
La3 Pd9 3.016005 1_555
La3 Pd14 3.016005 1_545
La3 Pd14 3.016005 1_555
Ce0 Pd10 2.899106 1_555
Ce0 Pd10 2.899106 1_545
Ce0 Pd5 2.899106 1_555
Ce0 Pd5 2.899106 1_455
Ce0 Pd14 2.899106 1_554
Ce0 Pd9 2.899106 1_454
Ce0 Pd14 2.899106 1_544
Ce0 Pd9 2.899106 1_554
Ce0 Pd0 2.957081 1_455
Ce0 Pd0 2.957081 1_555
Ce0 Pd0 2.957081 1_545
Ce0 Pd0 2.957081 1_445
Pd0 Pd10 2.899106 1_555
Pd0 Pd10 2.899106 1_655
Pd0 Pd5 2.899106 1_565
Pd0 Pd5 2.899106 1_555
Pd0 Pd9 2.899106 1_564
Pd0 Pd14 2.899106 1_554
Pd0 Pd14 2.899106 1_654
Pd0 Pd9 2.899106 1_554
