# generated using pymatgen
data_Zn3InAgS5
_symmetry_space_group_name_H-M   'P 1'
_cell_length_a   6.50350100
_cell_length_b   6.86600088
_cell_length_c   10.50052790
_cell_angle_alpha   70.91720373
_cell_angle_beta   89.95483137
_cell_angle_gamma   89.95759144
_symmetry_Int_Tables_number   1
_chemical_formula_structural   Zn3InAgS5
_chemical_formula_sum   'Zn6 In2 Ag2 S10'
_cell_volume   443.11399950
_cell_formula_units_Z   2
loop_
 _symmetry_equiv_pos_site_id
 _symmetry_equiv_pos_as_xyz
  1  'x, y, z'
loop_
 _atom_site_type_symbol
 _atom_site_label
 _atom_site_symmetry_multiplicity
 _atom_site_fract_x
 _atom_site_fract_y
 _atom_site_fract_z
 _atom_site_occupancy
  Zn  Zn0  1  0.50736000  0.52857200  0.59265900  1
  Zn  Zn1  1  0.49857400  0.13938100  0.40185700  1
  Zn  Zn2  1  0.49513100  0.72563700  0.20724600  1
  Zn  Zn3  1  0.00097300  0.66901100  0.00263000  1
  Zn  Zn4  1  0.99904300  0.27201400  0.79283100  1
  Zn  Zn5  1  0.00316200  0.46507500  0.40532000  1
  In  In0  1  0.50044000  0.93700500  0.79936100  1
  In  In1  1  0.00152700  0.06842800  0.19874900  1
  Ag  Ag0  1  0.50223400  0.33269000  0.99912900  1
  Ag  Ag1  1  0.99989800  0.85981800  0.60011200  1
  S  S0  1  0.89528000  0.34773300  0.98938000  1
  S  S1  1  0.88378300  0.93570300  0.81445500  1
  S  S2  1  0.86661000  0.51178500  0.59785400  1
  S  S3  1  0.86343600  0.15266100  0.39479500  1
  S  S4  1  0.86668500  0.72032000  0.20365800  1
  S  S5  1  0.38502700  0.05003300  0.21423900  1
  S  S6  1  0.36401100  0.67858500  0.01014300  1
  S  S7  1  0.36241200  0.28196000  0.78435500  1
  S  S8  1  0.39532100  0.85977100  0.59238300  1
  S  S9  1  0.36909400  0.46381800  0.39884500  1
loop_
_geom_bond_atom_site_label_1
_geom_bond_atom_site_label_2
_geom_bond_distance
_geom_bond_site_symmetry_2
In0 S7 2.488633 1_565
In0 S8 2.495720 1_555
In0 S1 2.498053 1_555
In0 S6 2.503124 1_556
In1 S3 2.480643 1_455
In1 S0 2.496414 1_454
In1 S5 2.499929 1_555
In1 S4 2.531163 1_445
Ag0 S0 2.558954 1_555
Ag0 S7 2.559619 1_555
Ag0 S5 2.565663 1_556
Ag0 S6 2.576422 1_556
Ag1 S2 2.549957 1_555
Ag1 S8 2.572853 1_655
Ag1 S3 2.577672 1_565
Ag1 S1 2.582820 1_555
S0 Zn3 2.358154 1_656
S0 Zn4 2.384133 1_555
S1 Zn3 2.339372 1_656
S1 Zn4 2.367468 1_565
S2 Zn5 2.323688 1_655
S2 Zn4 2.332488 1_555
S2 Zn0 2.338939 1_555
S3 Zn5 2.365839 1_655
S3 Zn1 2.374868 1_555
S4 Zn3 2.413631 1_655
S4 Zn2 2.417101 1_555
S4 Zn5 2.432544 1_655
S5 Zn2 2.362946 1_545
S5 Zn1 2.365610 1_555
S6 Zn2 2.357014 1_555
S6 Zn3 2.364078 1_555
S7 Zn0 2.361833 1_555
S7 Zn4 2.364972 1_455
S8 Zn1 2.372229 1_565
S8 Zn0 2.386484 1_555
S9 Zn2 2.363446 1_555
S9 Zn1 2.371375 1_555
S9 Zn5 2.380846 1_555
S9 Zn0 2.396498 1_555
