# generated using pymatgen
data_ErCu2
_symmetry_space_group_name_H-M   'P 1'
_cell_length_a   4.25353875
_cell_length_b   5.34424287
_cell_length_c   5.34424287
_cell_angle_alpha   76.99913704
_cell_angle_beta   66.54959408
_cell_angle_gamma   66.54959408
_symmetry_Int_Tables_number   1
_chemical_formula_structural   ErCu2
_chemical_formula_sum   'Er2 Cu4'
_cell_volume   101.92505151
_cell_formula_units_Z   2
loop_
 _symmetry_equiv_pos_site_id
 _symmetry_equiv_pos_as_xyz
  1  'x, y, z'
loop_
 _atom_site_type_symbol
 _atom_site_label
 _atom_site_symmetry_multiplicity
 _atom_site_fract_x
 _atom_site_fract_y
 _atom_site_fract_z
 _atom_site_occupancy
  Er  Er0  1  0.45386390  0.29613610  0.79613610  1
  Er  Er1  1  0.54613610  0.70386390  0.20386390  1
  Cu  Cu0  1  0.83608418  0.11072655  0.21710409  1
  Cu  Cu1  1  0.16391582  0.88927345  0.78289591  1
  Cu  Cu2  1  0.83608418  0.71710409  0.61072655  1
  Cu  Cu3  1  0.16391582  0.28289591  0.38927345  1
loop_
_geom_bond_atom_site_label_1
_geom_bond_atom_site_label_2
_geom_bond_distance
_geom_bond_site_symmetry_2
Cu0 Cu3 2.461903 1_555
Cu0 Cu3 2.461910 1_655
Cu0 Cu1 2.465086 1_644
Cu0 Cu2 2.619036 1_545
Cu0 Er1 2.903639 1_555
Cu0 Er1 2.920102 1_545
Cu0 Er1 2.920105 1_645
Cu0 Er0 3.048621 1_555
Cu0 Er0 3.051621 1_554
Cu0 Er0 3.051624 1_654
Cu1 Cu2 2.461903 1_555
Cu1 Cu2 2.461910 1_455
Cu1 Cu3 2.619036 1_565
Cu1 Er0 2.903639 1_555
Cu1 Er0 2.920102 1_565
Cu1 Er0 2.920105 1_465
Cu1 Er1 3.048621 1_555
Cu1 Er1 3.051621 1_556
Cu1 Er1 3.051624 1_456
Cu2 Cu3 2.465086 1_655
Cu2 Er1 2.903639 1_556
Cu2 Er1 2.920102 1_555
Cu2 Er1 2.920105 1_655
Cu2 Er0 3.048621 1_565
Cu2 Er0 3.051621 1_555
Cu2 Er0 3.051624 1_655
Cu3 Er0 2.903639 1_554
Cu3 Er0 2.920102 1_555
Cu3 Er0 2.920105 1_455
Cu3 Er1 3.048621 1_545
Cu3 Er1 3.051621 1_555
Cu3 Er1 3.051624 1_455
