# generated using pymatgen
data_ErSiPt
_symmetry_space_group_name_H-M   'P 1'
_cell_length_a   4.25349354
_cell_length_b   6.91701003
_cell_length_c   7.39363476
_cell_angle_alpha   90.00000000
_cell_angle_beta   90.00000000
_cell_angle_gamma   90.00000000
_symmetry_Int_Tables_number   1
_chemical_formula_structural   ErSiPt
_chemical_formula_sum   'Er4 Si4 Pt4'
_cell_volume   217.53151070
_cell_formula_units_Z   4
loop_
 _symmetry_equiv_pos_site_id
 _symmetry_equiv_pos_as_xyz
  1  'x, y, z'
loop_
 _atom_site_type_symbol
 _atom_site_label
 _atom_site_symmetry_multiplicity
 _atom_site_fract_x
 _atom_site_fract_y
 _atom_site_fract_z
 _atom_site_occupancy
  Er  Er0  1  0.25000000  0.99688493  0.79876511  1
  Er  Er1  1  0.25000000  0.49688493  0.70123489  1
  Er  Er2  1  0.75000000  0.00309912  0.20125760  1
  Er  Er3  1  0.75000000  0.50309912  0.29874240  1
  Si  Si0  1  0.25000000  0.81250974  0.41215770  1
  Si  Si1  1  0.25000000  0.31250974  0.08784230  1
  Si  Si2  1  0.75000000  0.18749746  0.58777217  1
  Si  Si3  1  0.75000000  0.68749746  0.91222783  1
  Pt  Pt0  1  0.25000000  0.20008591  0.41525452  1
  Pt  Pt1  1  0.25000000  0.70008591  0.08474548  1
  Pt  Pt2  1  0.75000000  0.79992285  0.58462661  1
  Pt  Pt3  1  0.75000000  0.29992285  0.91537339  1
loop_
_geom_bond_atom_site_label_1
_geom_bond_atom_site_label_2
_geom_bond_distance
_geom_bond_site_symmetry_2
Er0 Pt1 2.947115 1_556
Er0 Si2 2.948733 1_465
Er0 Si2 2.948733 1_565
Er0 Pt2 2.980918 1_555
Er0 Pt2 2.980918 1_455
Er0 Si1 3.055235 1_566
Er0 Pt3 3.108066 1_565
Er0 Pt3 3.108066 1_465
Er0 Si0 3.130032 1_555
Er0 Si3 3.131543 1_555
Er0 Si3 3.131543 1_455
Er0 Pt0 3.164779 1_565
Er1 Pt0 2.947115 1_555
Er1 Si3 2.948733 1_455
Er1 Si3 2.948733 1_555
Er1 Pt3 2.980918 1_455
Er1 Pt3 2.980918 1_555
Er1 Si0 3.055235 1_555
Er1 Pt2 3.108066 1_555
Er1 Pt2 3.108066 1_455
Er1 Si1 3.130032 1_556
Er1 Si2 3.131543 1_555
Er1 Si2 3.131543 1_455
Er1 Pt1 3.164779 1_556
Er2 Pt3 2.946724 1_554
Er2 Si0 2.948298 1_545
Er2 Si0 2.948298 1_645
Er2 Pt0 2.980440 1_555
Er2 Pt0 2.980440 1_655
Er2 Si3 3.054875 1_544
Er2 Pt1 3.107753 1_545
Er2 Pt1 3.107753 1_645
Er2 Si2 3.129470 1_555
Er2 Si1 3.131559 1_655
Er2 Si1 3.131559 1_555
Er2 Pt2 3.163765 1_545
Er3 Pt2 2.946724 1_555
Er3 Si1 2.948298 1_555
Er3 Si1 2.948298 1_655
Er3 Pt1 2.980440 1_555
Er3 Pt1 2.980440 1_655
Er3 Si2 3.054875 1_555
Er3 Pt0 3.107753 1_555
Er3 Pt0 3.107753 1_655
Er3 Si3 3.129470 1_554
Er3 Si0 3.131559 1_655
Er3 Si0 3.131559 1_555
Er3 Pt3 3.163765 1_554
Pt0 Si2 2.481455 1_555
Pt0 Si2 2.481455 1_455
Pt0 Si1 2.542603 1_555
Pt0 Si0 2.680966 1_545
Pt1 Si3 2.481455 1_454
Pt1 Si3 2.481455 1_554
Pt1 Si0 2.542603 1_555
Pt1 Si1 2.680966 1_555
Pt2 Si0 2.481269 1_655
Pt2 Si0 2.481269 1_555
Pt2 Si3 2.543937 1_555
Pt2 Si2 2.680958 1_565
Pt3 Si1 2.481269 1_656
Pt3 Si1 2.481269 1_556
Pt3 Si2 2.543937 1_555
Pt3 Si3 2.680958 1_555
