# generated using pymatgen
data_La(ReB)4
_symmetry_space_group_name_H-M   'P 1'
_cell_length_a   5.44218600
_cell_length_b   5.44218600
_cell_length_c   7.72012300
_cell_angle_alpha   90.00000000
_cell_angle_beta   90.00000000
_cell_angle_gamma   90.00000000
_symmetry_Int_Tables_number   1
_chemical_formula_structural   La(ReB)4
_chemical_formula_sum   'La2 Re8 B8'
_cell_volume   228.64988184
_cell_formula_units_Z   2
loop_
 _symmetry_equiv_pos_site_id
 _symmetry_equiv_pos_as_xyz
  1  'x, y, z'
loop_
 _atom_site_type_symbol
 _atom_site_label
 _atom_site_symmetry_multiplicity
 _atom_site_fract_x
 _atom_site_fract_y
 _atom_site_fract_z
 _atom_site_occupancy
  La  La0  1  0.00000000  0.00000000  0.00000000  1
  La  La1  1  0.50000000  0.50000000  0.50000000  1
  Re  Re0  1  0.25182600  0.50000000  0.86291000  1
  Re  Re1  1  0.74817400  0.50000000  0.86291000  1
  Re  Re2  1  0.00000000  0.75182600  0.36291000  1
  Re  Re3  1  0.00000000  0.24817400  0.36291000  1
  Re  Re4  1  0.24817400  0.00000000  0.63709000  1
  Re  Re5  1  0.75182600  0.00000000  0.63709000  1
  Re  Re6  1  0.50000000  0.74817400  0.13709000  1
  Re  Re7  1  0.50000000  0.25182600  0.13709000  1
  B  B0  1  0.82994200  0.50000000  0.14600700  1
  B  B1  1  0.17005800  0.50000000  0.14600700  1
  B  B2  1  0.00000000  0.32994200  0.64600700  1
  B  B3  1  0.00000000  0.67005800  0.64600700  1
  B  B4  1  0.67005800  0.00000000  0.35399300  1
  B  B5  1  0.32994200  0.00000000  0.35399300  1
  B  B6  1  0.50000000  0.17005800  0.85399300  1
  B  B7  1  0.50000000  0.82994200  0.85399300  1
loop_
_geom_bond_atom_site_label_1
_geom_bond_atom_site_label_2
_geom_bond_distance
_geom_bond_site_symmetry_2
La0 Re4 3.110261 1_554
La0 Re3 3.110261 1_555
La0 Re5 3.110261 1_454
La0 Re2 3.110261 1_545
La0 Re1 3.225319 1_444
La0 Re1 3.225319 1_454
La0 Re0 3.225319 1_544
La0 Re0 3.225319 1_554
La0 Re7 3.225319 1_555
La0 Re6 3.225319 1_545
La0 Re7 3.225319 1_455
La0 Re6 3.225319 1_445
La1 Re7 3.110261 1_555
La1 Re6 3.110261 1_555
La1 Re1 3.110261 1_555
La1 Re0 3.110261 1_555
La1 Re2 3.225319 1_555
La1 Re2 3.225319 1_655
La1 Re5 3.225319 1_555
La1 Re5 3.225319 1_565
La1 Re3 3.225319 1_655
La1 Re3 3.225319 1_555
La1 Re4 3.225319 1_555
La1 Re4 3.225319 1_565
B0 B1 1.850975 1_655
B0 Re1 2.230386 1_554
B0 Re6 2.247907 1_555
B0 Re7 2.247907 1_555
B0 Re2 2.353458 1_655
B0 Re3 2.353458 1_655
B0 La0 3.087302 1_655
B0 La0 3.087302 1_665
B0 La1 3.269981 1_555
B1 Re0 2.230386 1_554
B1 Re7 2.247907 1_555
B1 Re6 2.247907 1_555
B1 Re2 2.353458 1_555
B1 Re3 2.353458 1_555
B1 La0 3.087302 1_555
B1 La0 3.087302 1_565
B1 La1 3.269981 1_555
B2 B3 1.850975 1_555
B2 Re3 2.230386 1_555
B2 Re4 2.247907 1_555
B2 Re5 2.247907 1_455
B2 Re0 2.353458 1_555
B2 Re1 2.353458 1_455
B2 La1 3.087302 1_455
B2 La1 3.087302 1_555
B2 La0 3.269981 1_556
B3 Re2 2.230386 1_555
B3 Re4 2.247907 1_565
B3 Re5 2.247907 1_465
B3 Re1 2.353458 1_455
B3 Re0 2.353458 1_555
B3 La1 3.087302 1_555
B3 La1 3.087302 1_455
B3 La0 3.269981 1_566
B4 B5 1.850975 1_555
B4 Re5 2.230386 1_555
B4 Re3 2.247907 1_655
B4 Re2 2.247907 1_645
B4 Re7 2.353458 1_555
B4 Re6 2.353458 1_545
B4 La1 3.087302 1_545
B4 La1 3.087302 1_555
B4 La0 3.269981 1_655
B5 Re4 2.230386 1_555
B5 Re3 2.247907 1_555
B5 Re2 2.247907 1_545
B5 Re6 2.353458 1_545
B5 Re7 2.353458 1_555
B5 La1 3.087302 1_555
B5 La1 3.087302 1_545
B5 La0 3.269981 1_555
B6 B7 1.850975 1_545
B6 Re7 2.230386 1_556
B6 Re1 2.247907 1_555
B6 Re0 2.247907 1_555
B6 Re5 2.353458 1_555
B6 Re4 2.353458 1_555
B6 La0 3.087302 1_556
B6 La0 3.087302 1_656
B6 La1 3.269981 1_555
B7 Re6 2.230386 1_556
B7 Re1 2.247907 1_555
B7 Re0 2.247907 1_555
B7 Re5 2.353458 1_565
B7 Re4 2.353458 1_565
B7 La0 3.087302 1_566
B7 La0 3.087302 1_666
B7 La1 3.269981 1_555
