# generated using pymatgen
data_MgBi12AsO20
_symmetry_space_group_name_H-M   'P 1'
_cell_length_a   9.20185199
_cell_length_b   9.20185199
_cell_length_c   9.20185199
_cell_angle_alpha   109.98011262
_cell_angle_beta   109.98011262
_cell_angle_gamma   109.98011262
_symmetry_Int_Tables_number   1
_chemical_formula_structural   MgBi12AsO20
_chemical_formula_sum   'Mg1 Bi12 As1 O20'
_cell_volume   588.22427166
_cell_formula_units_Z   1
loop_
 _symmetry_equiv_pos_site_id
 _symmetry_equiv_pos_as_xyz
  1  'x, y, z'
loop_
 _atom_site_type_symbol
 _atom_site_label
 _atom_site_symmetry_multiplicity
 _atom_site_fract_x
 _atom_site_fract_y
 _atom_site_fract_z
 _atom_site_occupancy
  Mg  Mg0  1  0.59463645  0.59463645  0.59463645  1
  Bi  Bi0  1  0.80432867  0.15615388  0.30287643  1
  Bi  Bi1  1  0.86680957  0.66142842  0.15312191  1
  Bi  Bi2  1  0.50263949  0.34411236  0.19639015  1
  Bi  Bi3  1  0.66142842  0.15312191  0.86680957  1
  Bi  Bi4  1  0.34411236  0.19639015  0.50263949  1
  Bi  Bi5  1  0.87584887  0.48595639  0.69783251  1
  Bi  Bi6  1  0.19639015  0.50263949  0.34411236  1
  Bi  Bi7  1  0.30287643  0.80432867  0.15615388  1
  Bi  Bi8  1  0.69783251  0.87584887  0.48595639  1
  Bi  Bi9  1  0.15615388  0.30287643  0.80432867  1
  Bi  Bi10  1  0.48595639  0.69783251  0.87584887  1
  Bi  Bi11  1  0.15312191  0.86680957  0.66142842  1
  As  As0  1  0.00745722  0.00745722  0.00745722  1
  O  O0  1  0.60217946  0.00502755  0.99828252  1
  O  O1  1  0.75380721  0.38803259  0.11807489  1
  O  O2  1  0.19302029  0.01249853  0.99449287  1
  O  O3  1  0.62714381  0.24562549  0.35666656  1
  O  O4  1  0.87515997  0.23045889  0.62043731  1
  O  O5  1  0.99449287  0.19302029  0.01249853  1
  O  O6  1  0.01249853  0.99449287  0.19302029  1
  O  O7  1  0.70049120  0.61836085  0.43481191  1
  O  O8  1  0.36440770  0.36440770  0.36440770  1
  O  O9  1  0.61836085  0.43481191  0.70049120  1
  O  O10  1  0.38803259  0.11807489  0.75380721  1
  O  O11  1  0.35666656  0.62714381  0.24562549  1
  O  O12  1  0.62043731  0.87515997  0.23045889  1
  O  O13  1  0.00502755  0.99828252  0.60217946  1
  O  O14  1  0.99828252  0.60217946  0.00502755  1
  O  O15  1  0.24562549  0.35666656  0.62714381  1
  O  O16  1  0.81619010  0.81619010  0.81619010  1
  O  O17  1  0.43481191  0.70049120  0.61836085  1
  O  O18  1  0.11807489  0.75380721  0.38803259  1
  O  O19  1  0.23045889  0.62043731  0.87515997  1
loop_
_geom_bond_atom_site_label_1
_geom_bond_atom_site_label_2
_geom_bond_distance
_geom_bond_site_symmetry_2
Mg0 O16 1.986912 1_555
Mg0 O7 2.052418 1_555
Mg0 O17 2.052418 1_555
Mg0 O9 2.052418 1_555
Mg0 O8 2.064711 1_555
Bi0 O3 2.184371 1_555
Bi0 O12 2.248320 1_545
Bi0 O0 2.292481 1_554
Bi0 O4 2.541601 1_555
Bi1 O14 2.165084 1_555
Bi1 O18 2.174086 1_655
Bi1 O1 2.223266 1_555
Bi1 O6 2.722485 1_655
Bi2 O3 2.185697 1_555
Bi2 O7 2.200764 1_555
Bi2 O8 2.313468 1_555
Bi2 O1 2.592928 1_555
Bi2 O2 2.729005 1_554
Bi3 O0 2.165084 1_555
Bi3 O1 2.174086 1_556
Bi3 O10 2.223266 1_555
Bi3 O5 2.722485 1_556
Bi4 O15 2.185697 1_555
Bi4 O9 2.200764 1_555
Bi4 O8 2.313468 1_555
Bi4 O10 2.592928 1_555
Bi4 O6 2.729005 1_545
Bi5 O4 2.208430 1_555
Bi5 O9 2.263058 1_555
Bi5 O14 2.310384 1_556
Bi5 O3 2.621190 1_555
Bi5 O19 2.657712 1_655
Bi6 O11 2.185697 1_555
Bi6 O17 2.200764 1_555
Bi6 O8 2.313468 1_555
Bi6 O18 2.592928 1_555
Bi6 O5 2.729005 1_455
Bi7 O11 2.184371 1_555
Bi7 O19 2.248320 1_554
Bi7 O14 2.292481 1_455
Bi7 O12 2.541601 1_555
Bi8 O12 2.208430 1_555
Bi8 O7 2.263058 1_555
Bi8 O13 2.310384 1_655
Bi8 O11 2.621190 1_555
Bi8 O4 2.657712 1_565
Bi9 O15 2.184371 1_555
Bi9 O4 2.248320 1_455
Bi9 O13 2.292481 1_545
Bi9 O19 2.541601 1_555
Bi10 O19 2.208430 1_555
Bi10 O17 2.263058 1_555
Bi10 O0 2.310384 1_565
Bi10 O15 2.621190 1_555
Bi10 O12 2.657712 1_556
Bi11 O13 2.165084 1_555
Bi11 O10 2.174086 1_565
Bi11 O18 2.223266 1_555
Bi11 O2 2.722485 1_565
As0 O16 1.715299 1_444
As0 O6 1.738067 1_545
As0 O5 1.738067 1_455
As0 O2 1.738067 1_554
