# generated using pymatgen
data_Cs3Sm7Te12
_symmetry_space_group_name_H-M   'P 1'
_cell_length_a   4.53152192
_cell_length_b   13.88235096
_cell_length_c   28.65366925
_cell_angle_alpha   90.00000000
_cell_angle_beta   90.00000000
_cell_angle_gamma   90.00000000
_symmetry_Int_Tables_number   1
_chemical_formula_structural   Cs3Sm7Te12
_chemical_formula_sum   'Cs6 Sm14 Te24'
_cell_volume   1802.55011626
_cell_formula_units_Z   2
loop_
 _symmetry_equiv_pos_site_id
 _symmetry_equiv_pos_as_xyz
  1  'x, y, z'
loop_
 _atom_site_type_symbol
 _atom_site_label
 _atom_site_symmetry_multiplicity
 _atom_site_fract_x
 _atom_site_fract_y
 _atom_site_fract_z
 _atom_site_occupancy
  Cs  Cs0  1  0.50000000  0.02978293  0.37198358  1
  Cs  Cs1  1  0.50000000  0.46144325  0.63404868  1
  Cs  Cs2  1  0.00000000  0.53855675  0.13404868  1
  Cs  Cs3  1  0.00000000  0.97021707  0.87198358  1
  Cs  Cs4  1  0.50000000  0.30804548  0.02730490  1
  Cs  Cs5  1  0.00000000  0.69195452  0.52730490  1
  Sm  Sm0  1  0.50000000  0.66979239  0.31825635  1
  Sm  Sm1  1  0.50000000  0.83225745  0.68215684  1
  Sm  Sm2  1  -0.00000000  0.16774255  0.18215684  1
  Sm  Sm3  1  0.00000000  0.33020761  0.81825635  1
  Sm  Sm4  1  0.50000000  0.33795545  0.28743560  1
  Sm  Sm5  1  0.50000000  0.16014646  0.71275698  1
  Sm  Sm6  1  -0.00000000  0.83985354  0.21275698  1
  Sm  Sm7  1  0.00000000  0.66204455  0.78743560  1
  Sm  Sm8  1  0.50000000  0.25237962  0.50037307  1
  Sm  Sm9  1  0.00000000  0.74762038  0.00037307  1
  Sm  Sm10  1  0.50000000  0.53355320  0.91484676  1
  Sm  Sm11  1  0.50000000  0.96480421  0.08331977  1
  Sm  Sm12  1  0.00000000  0.03519579  0.58331977  1
  Sm  Sm13  1  0.00000000  0.46644680  0.41484676  1
  Te  Te0  1  0.50000000  0.62184206  0.42401052  1
  Te  Te1  1  0.50000000  0.88089323  0.57617787  1
  Te  Te2  1  -0.00000000  0.11910677  0.07617787  1
  Te  Te3  1  -0.00000000  0.37815794  0.92401052  1
  Te  Te4  1  0.50000000  0.32237694  0.17647875  1
  Te  Te5  1  0.50000000  0.17778034  0.82167968  1
  Te  Te6  1  -0.00000000  0.82221966  0.32167968  1
  Te  Te7  1  -0.00000000  0.67762306  0.67647875  1
  Te  Te8  1  0.50000000  0.59132553  0.01979232  1
  Te  Te9  1  0.50000000  0.89985194  0.98064534  1
  Te  Te10  1  -0.00000000  0.10014806  0.48064534  1
  Te  Te11  1  -0.00000000  0.40867447  0.51979232  1
  Te  Te12  1  0.50000000  0.31346715  0.39593740  1
  Te  Te13  1  0.50000000  0.18680227  0.60406644  1
  Te  Te14  1  0.00000000  0.81319773  0.10406644  1
  Te  Te15  1  0.00000000  0.68653285  0.89593740  1
  Te  Te16  1  0.50000000  0.49793951  0.80248277  1
  Te  Te17  1  0.50000000  0.00281359  0.19672655  1
  Te  Te18  1  0.00000000  0.99718641  0.69672655  1
  Te  Te19  1  0.00000000  0.50206049  0.30248277  1
  Te  Te20  1  0.50000000  0.68930581  0.21091038  1
  Te  Te21  1  0.50000000  0.81275706  0.78960746  1
  Te  Te22  1  -0.00000000  0.18724294  0.28960746  1
  Te  Te23  1  -0.00000000  0.31069419  0.71091038  1
loop_
_geom_bond_atom_site_label_1
_geom_bond_atom_site_label_2
_geom_bond_distance
_geom_bond_site_symmetry_2
Cs0 Te22 3.934880 1_655
Cs0 Te22 3.934880 1_555
Cs0 Te6 3.938798 1_645
Cs0 Te6 3.938798 1_545
Cs0 Te10 3.972672 1_655
Cs0 Te10 3.972672 1_555
Cs0 Te12 3.997568 1_555
Cs1 Te23 3.789949 1_555
Cs1 Te23 3.789949 1_655
Cs1 Te13 3.908254 1_555
Cs1 Te7 3.951998 1_555
Cs1 Te7 3.951998 1_655
Cs1 Te11 4.048271 1_655
Cs1 Te11 4.048271 1_555
Cs2 Te20 3.789949 1_455
Cs2 Te20 3.789949 1_555
Cs2 Te14 3.908254 1_555
Cs2 Te4 3.951998 1_555
Cs2 Te4 3.951998 1_455
Cs2 Te8 4.048271 1_455
Cs2 Te8 4.048271 1_555
Cs3 Te21 3.934880 1_555
Cs3 Te21 3.934880 1_455
Cs3 Te5 3.938798 1_565
Cs3 Te5 3.938798 1_465
Cs3 Te9 3.972672 1_455
Cs3 Te9 3.972672 1_555
Cs3 Te15 3.997568 1_555
Cs4 Te2 3.738240 1_555
Cs4 Te2 3.738240 1_655
Cs4 Te3 3.852432 1_654
Cs4 Te3 3.852432 1_554
Cs4 Te8 3.938480 1_555
Cs4 Te4 4.279006 1_555
Cs5 Te1 3.738240 1_555
Cs5 Te1 3.738240 1_455
Cs5 Te0 3.852432 1_555
Cs5 Te0 3.852432 1_455
Cs5 Te11 3.938480 1_555
Cs5 Te7 4.279006 1_555
Sm0 Te20 3.087762 1_555
Sm0 Te6 3.101767 1_555
Sm0 Te6 3.101767 1_655
Sm0 Te0 3.102498 1_555
Sm0 Te19 3.280232 1_655
Sm0 Te19 3.280232 1_555
Sm1 Te21 3.090733 1_555
Sm1 Te1 3.110841 1_555
Sm1 Te7 3.125447 1_555
Sm1 Te7 3.125447 1_655
Sm1 Te18 3.248112 1_555
Sm1 Te18 3.248112 1_655
Sm2 Te22 3.090733 1_555
Sm2 Te2 3.110841 1_555
Sm2 Te4 3.125447 1_455
Sm2 Te4 3.125447 1_555
Sm2 Te17 3.248112 1_555
Sm2 Te17 3.248112 1_455
Sm3 Te23 3.087762 1_555
Sm3 Te5 3.101767 1_455
Sm3 Te5 3.101767 1_555
Sm3 Te3 3.102498 1_555
Sm3 Te16 3.280232 1_555
Sm3 Te16 3.280232 1_455
Sm4 Te22 3.084644 1_655
Sm4 Te22 3.084644 1_555
Sm4 Te12 3.127506 1_555
Sm4 Te4 3.186668 1_555
Sm4 Te19 3.241851 1_555
Sm4 Te19 3.241851 1_655
Sm5 Te23 3.082919 1_555
Sm5 Te23 3.082919 1_655
Sm5 Te5 3.130621 1_555
Sm5 Te13 3.136290 1_555
Sm5 Te18 3.234581 1_645
Sm5 Te18 3.234581 1_545
Sm6 Te20 3.082919 1_455
Sm6 Te20 3.082919 1_555
Sm6 Te6 3.130621 1_555
Sm6 Te14 3.136290 1_555
Sm6 Te17 3.234581 1_465
Sm6 Te17 3.234581 1_565
Sm7 Te21 3.084644 1_455
Sm7 Te21 3.084644 1_555
Sm7 Te15 3.127506 1_555
Sm7 Te7 3.186668 1_555
Sm7 Te16 3.241851 1_555
Sm7 Te16 3.241851 1_455
Sm8 Te13 3.107535 1_555
Sm8 Te12 3.110308 1_555
Sm8 Te10 3.149504 1_555
Sm8 Te10 3.149504 1_655
Sm8 Te11 3.186073 1_655
Sm8 Te11 3.186073 1_555
Sm9 Te14 3.107535 1_555
Sm9 Te15 3.110308 1_554
Sm9 Te9 3.149504 1_554
Sm9 Te9 3.149504 1_454
Sm9 Te8 3.186073 1_455
Sm9 Te8 3.186073 1_555
Sm10 Te8 3.112191 1_556
Sm10 Te3 3.139483 1_555
Sm10 Te3 3.139483 1_655
Sm10 Te15 3.152367 1_655
Sm10 Te15 3.152367 1_555
Sm10 Te16 3.257379 1_555
Sm11 Te9 3.077077 1_554
Sm11 Te2 3.124751 1_665
Sm11 Te2 3.124751 1_565
Sm11 Te14 3.149069 1_555
Sm11 Te14 3.149069 1_655
Sm11 Te17 3.292083 1_565
Sm12 Te10 3.077077 1_555
Sm12 Te1 3.124751 1_445
Sm12 Te1 3.124751 1_545
Sm12 Te13 3.149069 1_555
Sm12 Te13 3.149069 1_455
Sm12 Te18 3.292083 1_545
Sm13 Te11 3.112191 1_555
Sm13 Te0 3.139483 1_555
Sm13 Te0 3.139483 1_455
Sm13 Te12 3.152367 1_555
Sm13 Te12 3.152367 1_455
Sm13 Te19 3.257379 1_555
