# generated using pymatgen
data_NdSm(MnGe)4
_symmetry_space_group_name_H-M   'P 1'
_cell_length_a   3.99808700
_cell_length_b   3.99808700
_cell_length_c   10.92930700
_cell_angle_alpha   90.00000000
_cell_angle_beta   90.00000000
_cell_angle_gamma   90.00000000
_symmetry_Int_Tables_number   1
_chemical_formula_structural   NdSm(MnGe)4
_chemical_formula_sum   'Nd1 Sm1 Mn4 Ge4'
_cell_volume   174.70168988
_cell_formula_units_Z   1
loop_
 _symmetry_equiv_pos_site_id
 _symmetry_equiv_pos_as_xyz
  1  'x, y, z'
loop_
 _atom_site_type_symbol
 _atom_site_label
 _atom_site_symmetry_multiplicity
 _atom_site_fract_x
 _atom_site_fract_y
 _atom_site_fract_z
 _atom_site_occupancy
  Nd  Nd0  1  0.00000000  0.00000000  0.00000000  1
  Sm  Sm0  1  0.50000000  0.50000000  0.50000000  1
  Mn  Mn0  1  0.00000000  0.50000000  0.25093900  1
  Mn  Mn1  1  0.50000000  0.00000000  0.74906100  1
  Mn  Mn2  1  0.50000000  0.00000000  0.25093900  1
  Mn  Mn3  1  0.00000000  0.50000000  0.74906100  1
  Ge  Ge0  1  0.50000000  0.50000000  0.12379100  1
  Ge  Ge1  1  0.00000000  0.00000000  0.62212200  1
  Ge  Ge2  1  0.00000000  0.00000000  0.37787800  1
  Ge  Ge3  1  0.50000000  0.50000000  0.87620900  1
loop_
_geom_bond_atom_site_label_1
_geom_bond_atom_site_label_2
_geom_bond_distance
_geom_bond_site_symmetry_2
Ge0 Mn2 2.434599 1_565
Ge0 Mn0 2.434599 1_655
Ge0 Mn2 2.434599 1_555
Ge0 Mn0 2.434599 1_555
Ge0 Ge3 2.705900 1_554
Ge0 Nd0 3.134138 1_565
Ge0 Nd0 3.134138 1_655
Ge0 Nd0 3.134138 1_665
Ge0 Nd0 3.134138 1_555
Ge1 Mn3 2.433296 1_555
Ge1 Mn1 2.433296 1_555
Ge1 Mn3 2.433296 1_545
Ge1 Mn1 2.433296 1_455
Ge1 Ge2 2.669418 1_555
Ge1 Sm0 3.126307 1_445
Ge1 Sm0 3.126307 1_555
Ge1 Sm0 3.126307 1_545
Ge1 Sm0 3.126307 1_455
Ge2 Mn0 2.433296 1_555
Ge2 Mn0 2.433296 1_545
Ge2 Mn2 2.433296 1_455
Ge2 Mn2 2.433296 1_555
Ge2 Sm0 3.126307 1_445
Ge2 Sm0 3.126307 1_555
Ge2 Sm0 3.126307 1_545
Ge2 Sm0 3.126307 1_455
Ge3 Mn1 2.434599 1_565
Ge3 Mn3 2.434599 1_555
Ge3 Mn3 2.434599 1_655
Ge3 Mn1 2.434599 1_555
Ge3 Nd0 3.134138 1_556
Ge3 Nd0 3.134138 1_566
Ge3 Nd0 3.134138 1_666
Ge3 Nd0 3.134138 1_656
