# generated using pymatgen
data_UPt4Au
_symmetry_space_group_name_H-M   'P 1'
_cell_length_a   5.32155907
_cell_length_b   5.34042678
_cell_length_c   5.33960183
_cell_angle_alpha   59.77276266
_cell_angle_beta   60.11689989
_cell_angle_gamma   60.11122065
_symmetry_Int_Tables_number   1
_chemical_formula_structural   UPt4Au
_chemical_formula_sum   'U1 Pt4 Au1'
_cell_volume   107.30040833
_cell_formula_units_Z   1
loop_
 _symmetry_equiv_pos_site_id
 _symmetry_equiv_pos_as_xyz
  1  'x, y, z'
loop_
 _atom_site_type_symbol
 _atom_site_label
 _atom_site_symmetry_multiplicity
 _atom_site_fract_x
 _atom_site_fract_y
 _atom_site_fract_z
 _atom_site_occupancy
  U  U0  1  -0.00001314  0.00002408  -0.00002266  1
  Pt  Pt0  1  0.62384387  0.62556708  0.12671113  1
  Pt  Pt1  1  0.62390298  0.12674070  0.62553288  1
  Pt  Pt2  1  0.12672684  0.62384404  0.62386959  1
  Pt  Pt3  1  0.62554403  0.62380501  0.62392418  1
  Au  Au0  1  0.24999342  0.25001909  0.24998387  1
loop_
_geom_bond_atom_site_label_1
_geom_bond_atom_site_label_2
_geom_bond_distance
_geom_bond_site_symmetry_2
Pt0 Pt1 2.654573 1_555
Pt0 Pt2 2.654679 1_555
Pt0 Pt3 2.654706 1_555
Pt0 Pt1 2.667089 1_564
Pt0 Pt3 2.684928 1_554
Pt0 Pt2 2.685371 1_654
Pt0 U0 3.120596 1_565
Pt0 U0 3.121016 1_665
Pt0 U0 3.144307 1_655
Pt1 Pt3 2.654577 1_555
Pt1 Pt2 2.654667 1_555
Pt1 Pt2 2.685341 1_645
Pt1 Pt3 2.685878 1_545
Pt1 U0 3.120275 1_656
Pt1 U0 3.121114 1_556
Pt1 U0 3.144075 1_655
Pt2 Pt3 2.654527 1_555
Pt2 Pt3 2.667033 1_455
Pt2 U0 3.120683 1_565
Pt2 U0 3.120893 1_556
Pt2 U0 3.144212 1_566
Pt3 U0 3.120284 1_656
Pt3 U0 3.121243 1_665
Pt3 U0 3.144187 1_566
Au0 Pt2 3.122956 1_554
Au0 Pt3 3.123097 1_554
Au0 Pt0 3.123218 1_455
Au0 Pt1 3.123248 1_455
Au0 Pt1 3.123292 1_555
Au0 Pt0 3.123486 1_555
Au0 Pt3 3.123597 1_545
Au0 Pt2 3.123770 1_545
Au0 Pt1 3.131119 1_554
Au0 Pt2 3.131179 1_555
Au0 Pt3 3.131217 1_455
Au0 Pt0 3.131361 1_545
Au0 U0 3.266155 1_556
Au0 U0 3.266266 1_655
Au0 U0 3.266343 1_555
Au0 U0 3.266525 1_565
