# generated using pymatgen
data_Sm3HfSb5
_symmetry_space_group_name_H-M   'P 1'
_cell_length_a   9.51013565
_cell_length_b   9.51018056
_cell_length_c   6.18902456
_cell_angle_alpha   89.99999426
_cell_angle_beta   89.99999976
_cell_angle_gamma   119.99956218
_symmetry_Int_Tables_number   1
_chemical_formula_structural   Sm3HfSb5
_chemical_formula_sum   'Sm6 Hf2 Sb10'
_cell_volume   484.76385220
_cell_formula_units_Z   2
loop_
 _symmetry_equiv_pos_site_id
 _symmetry_equiv_pos_as_xyz
  1  'x, y, z'
loop_
 _atom_site_type_symbol
 _atom_site_label
 _atom_site_symmetry_multiplicity
 _atom_site_fract_x
 _atom_site_fract_y
 _atom_site_fract_z
 _atom_site_occupancy
  Sm  Sm0  1  0.61947864  -0.00000025  0.25000001  1
  Sm  Sm1  1  0.38052140  0.00000039  0.75000000  1
  Sm  Sm2  1  -0.00000037  0.61947827  0.25000010  1
  Sm  Sm3  1  0.00000039  0.38052161  0.74999987  1
  Sm  Sm4  1  0.38052179  0.38052193  0.25000012  1
  Sm  Sm5  1  0.61947814  0.61947802  0.74999996  1
  Hf  Hf0  1  0.00000001  0.00000001  -0.00000005  1
  Hf  Hf1  1  -0.00000003  -0.00000003  0.50000002  1
  Sb  Sb0  1  0.26270874  0.00000029  0.25000003  1
  Sb  Sb1  1  0.73729127  -0.00000027  0.74999999  1
  Sb  Sb2  1  0.00000037  0.26270898  0.25000003  1
  Sb  Sb3  1  -0.00000036  0.73729105  0.75000000  1
  Sb  Sb4  1  0.73728980  0.73728968  0.25000004  1
  Sb  Sb5  1  0.26271023  0.26271032  0.74999991  1
  Sb  Sb6  1  0.33333272  0.66658814  -0.00000007  1
  Sb  Sb7  1  0.66666727  0.33341187  0.00000004  1
  Sb  Sb8  1  0.66666728  0.33341188  0.49999996  1
  Sb  Sb9  1  0.33333273  0.66658812  0.50000002  1
loop_
_geom_bond_atom_site_label_1
_geom_bond_atom_site_label_2
_geom_bond_distance
_geom_bond_site_symmetry_2
Hf0 Sb1 2.938703 1_454
Hf0 Sb0 2.938703 1_555
Hf0 Sb3 2.938715 1_544
Hf0 Sb2 2.938715 1_555
Hf0 Sb5 2.938736 1_554
Hf0 Sb4 2.938736 1_445
Hf1 Sb1 2.938703 1_455
Hf1 Sb0 2.938703 1_555
Hf1 Sb3 2.938714 1_545
Hf1 Sb2 2.938715 1_555
Hf1 Sb4 2.938735 1_445
Hf1 Sb5 2.938736 1_555
Sb0 Sm4 3.208850 1_555
Sb0 Sm2 3.208860 1_545
Sb0 Sm1 3.291099 1_555
Sb0 Sm1 3.291099 1_554
Sb0 Sm0 3.392933 1_555
Sb1 Sm5 3.208850 1_545
Sb1 Sm3 3.208859 1_655
Sb1 Sm0 3.291099 1_555
Sb1 Sm0 3.291099 1_556
Sb1 Sm1 3.392933 1_555
Sb2 Sm4 3.208830 1_555
Sb2 Sm0 3.208848 1_455
Sb2 Sm3 3.291100 1_555
Sb2 Sm3 3.291102 1_554
Sb2 Sm2 3.392944 1_555
Sb3 Sm5 3.208831 1_455
Sb3 Sm1 3.208848 1_565
Sb3 Sm2 3.291101 1_555
Sb3 Sm2 3.291102 1_556
Sb3 Sm3 3.392945 1_555
Sb4 Sm2 3.208823 1_655
Sb4 Sm0 3.208830 1_565
Sb4 Sm5 3.291099 1_555
Sb4 Sm5 3.291100 1_554
Sb4 Sm4 3.392941 1_555
Sb5 Sm3 3.208822 1_555
Sb5 Sm1 3.208829 1_555
Sb5 Sm4 3.291098 1_555
Sb5 Sm4 3.291101 1_556
Sb5 Sm5 3.392941 1_555
Sb6 Sb9 3.094512 1_554
Sb6 Sb9 3.094513 1_555
Sb6 Sm4 3.349275 1_555
Sb6 Sm5 3.349521 1_554
Sb6 Sm3 3.349684 1_554
Sb6 Sm2 3.350174 1_555
Sb6 Sm0 3.350351 1_565
Sb6 Sm1 3.350595 1_564
Sb7 Sb8 3.094512 1_555
Sb7 Sb8 3.094513 1_554
Sb7 Sm5 3.349274 1_554
Sb7 Sm4 3.349521 1_555
Sb7 Sm2 3.349684 1_655
Sb7 Sm3 3.350175 1_654
Sb7 Sm1 3.350350 1_554
Sb7 Sm0 3.350594 1_555
Sb8 Sm5 3.349274 1_555
Sb8 Sm4 3.349521 1_555
Sb8 Sm2 3.349683 1_655
Sb8 Sm3 3.350174 1_655
Sb8 Sm1 3.350350 1_555
Sb8 Sm0 3.350594 1_555
Sb9 Sm4 3.349274 1_555
Sb9 Sm5 3.349521 1_555
Sb9 Sm3 3.349683 1_555
Sb9 Sm2 3.350174 1_555
Sb9 Sm0 3.350351 1_565
Sb9 Sm1 3.350596 1_565
