# generated using pymatgen
data_VTe(NO4)2
_symmetry_space_group_name_H-M   'P 1'
_cell_length_a   16.96945400
_cell_length_b   7.36682600
_cell_length_c   8.40993498
_cell_angle_alpha   58.31313475
_cell_angle_beta   90.00000000
_cell_angle_gamma   90.00000000
_symmetry_Int_Tables_number   1
_chemical_formula_structural   VTe(NO4)2
_chemical_formula_sum   'V4 Te4 N8 O32'
_cell_volume   894.61370093
_cell_formula_units_Z   4
loop_
 _symmetry_equiv_pos_site_id
 _symmetry_equiv_pos_as_xyz
  1  'x, y, z'
loop_
 _atom_site_type_symbol
 _atom_site_label
 _atom_site_symmetry_multiplicity
 _atom_site_fract_x
 _atom_site_fract_y
 _atom_site_fract_z
 _atom_site_occupancy
  V  V0  1  0.41577600  0.95750600  0.68698300  1
  V  V1  1  0.58422400  0.04249400  0.31301700  1
  V  V2  1  0.91577600  0.04249400  0.81301700  1
  V  V3  1  0.08422400  0.95750600  0.18698300  1
  Te  Te0  1  0.48286100  0.43730800  0.35139100  1
  Te  Te1  1  0.51713900  0.56269200  0.64860900  1
  Te  Te2  1  0.98286100  0.56269200  0.14860900  1
  Te  Te3  1  0.01713900  0.43730800  0.85139100  1
  N  N0  1  0.57259500  0.02116000  0.85486200  1
  N  N1  1  0.42740500  0.97884000  0.14513800  1
  N  N2  1  0.07259500  0.97884000  0.64513800  1
  N  N3  1  0.92740500  0.02116000  0.35486200  1
  N  N4  1  0.27099300  0.68220900  0.18772400  1
  N  N5  1  0.72900700  0.31779100  0.81227600  1
  N  N6  1  0.77099300  0.31779100  0.31227600  1
  N  N7  1  0.22900700  0.68220900  0.68772400  1
  O  O0  1  0.06665300  0.69352000  0.20728300  1
  O  O1  1  0.93334700  0.30648000  0.79271700  1
  O  O2  1  0.56665300  0.30648000  0.29271700  1
  O  O3  1  0.43334700  0.69352000  0.70728300  1
  O  O4  1  0.58296800  0.80815500  0.56699300  1
  O  O5  1  0.41703200  0.19184500  0.43300700  1
  O  O6  1  0.08296800  0.19184500  0.93300700  1
  O  O7  1  0.91703200  0.80815500  0.06699300  1
  O  O8  1  0.21714400  0.26552800  0.64904600  1
  O  O9  1  0.78285600  0.73447200  0.35095400  1
  O  O10  1  0.71714400  0.73447200  0.85095400  1
  O  O11  1  0.28285600  0.26552800  0.14904600  1
  O  O12  1  0.03107100  0.96750600  0.76372000  1
  O  O13  1  0.96892900  0.03249400  0.23628000  1
  O  O14  1  0.53107100  0.03249400  0.73628000  1
  O  O15  1  0.46892900  0.96750600  0.26372000  1
  O  O16  1  0.06744000  0.44257900  0.06714900  1
  O  O17  1  0.93256000  0.55742100  0.93285100  1
  O  O18  1  0.56744000  0.55742100  0.43285100  1
  O  O19  1  0.43256000  0.44257900  0.56714900  1
  O  O20  1  0.34726300  0.97405700  0.81222800  1
  O  O21  1  0.65273700  0.02594300  0.18777200  1
  O  O22  1  0.84726300  0.02594300  0.68777200  1
  O  O23  1  0.15273700  0.97405700  0.31222800  1
  O  O24  1  0.44455000  0.66251700  0.13468200  1
  O  O25  1  0.55545000  0.33748300  0.86531800  1
  O  O26  1  0.94455000  0.33748300  0.36531800  1
  O  O27  1  0.05545000  0.66251700  0.63468200  1
  O  O28  1  0.22571600  0.77486800  0.07265700  1
  O  O29  1  0.77428400  0.22513200  0.92734300  1
  O  O30  1  0.72571600  0.22513200  0.42734300  1
  O  O31  1  0.27428400  0.77486800  0.57265700  1
loop_
_geom_bond_atom_site_label_1
_geom_bond_atom_site_label_2
_geom_bond_distance
_geom_bond_site_symmetry_2
N0 O14 1.187667 1_555
N1 O15 1.187667 1_555
N2 O12 1.187667 1_555
N3 O13 1.187667 1_555
N4 O28 1.139638 1_555
N5 O29 1.139638 1_555
N6 O30 1.139638 1_555
N7 O31 1.139638 1_555
O0 V3 1.884481 1_555
O0 Te2 1.921927 1_455
O1 V2 1.884481 1_555
O1 Te3 1.921927 1_655
O2 V1 1.884481 1_555
O2 Te0 1.921927 1_555
O3 V0 1.884481 1_555
O3 Te1 1.921927 1_555
O4 V1 1.915496 1_565
O4 Te1 1.919625 1_555
O5 V0 1.915496 1_545
O5 Te0 1.919625 1_555
O6 V3 1.915496 1_546
O6 Te3 1.919625 1_555
O7 V2 1.915496 1_564
O7 Te2 1.919625 1_555
O12 V2 2.132023 1_465
O13 V3 2.132023 1_645
O14 V0 2.132023 1_545
O15 V1 2.132023 1_565
O16 Te2 1.987232 1_455
O16 Te3 2.024000 1_554
O17 Te3 1.987232 1_655
O17 Te2 2.024000 1_556
O18 Te0 1.987232 1_555
O18 Te1 2.024000 1_555
O19 Te1 1.987232 1_555
O19 Te0 2.024000 1_555
O20 V0 1.615839 1_555
O21 V1 1.615839 1_555
O22 V2 1.615839 1_555
O23 V3 1.615839 1_555
O24 Te0 1.822137 1_555
O25 Te1 1.822137 1_555
O26 Te2 1.822137 1_555
O27 Te3 1.822137 1_555
