# generated using pymatgen
data_CeMg14V
_symmetry_space_group_name_H-M   'P 1'
_cell_length_a   6.42469051
_cell_length_b   6.41279847
_cell_length_c   10.18035732
_cell_angle_alpha   90.12816619
_cell_angle_beta   90.00421968
_cell_angle_gamma   120.00601464
_symmetry_Int_Tables_number   1
_chemical_formula_structural   CeMg14V
_chemical_formula_sum   'Ce1 Mg14 V1'
_cell_volume   363.21655428
_cell_formula_units_Z   1
loop_
 _symmetry_equiv_pos_site_id
 _symmetry_equiv_pos_as_xyz
  1  'x, y, z'
loop_
 _atom_site_type_symbol
 _atom_site_label
 _atom_site_symmetry_multiplicity
 _atom_site_fract_x
 _atom_site_fract_y
 _atom_site_fract_z
 _atom_site_occupancy
  Ce  Ce0  1  0.16490273  0.33347496  0.62500081  1
  Mg  Mg0  1  0.16358705  0.83182331  0.12505631  1
  Mg  Mg1  1  0.18117213  0.84150757  0.62517272  1
  Mg  Mg2  1  0.66807765  0.33646217  0.12496286  1
  Mg  Mg3  1  0.65785997  0.31877506  0.62466465  1
  Mg  Mg4  1  0.66823147  0.83151533  0.12503796  1
  Mg  Mg5  1  0.65856515  0.84023582  0.62507511  1
  Mg  Mg6  1  0.33304029  0.16829829  0.36287459  1
  Mg  Mg7  1  0.33256866  0.16757449  0.88706301  1
  Mg  Mg8  1  0.33341645  0.66502266  0.36283154  1
  Mg  Mg9  1  0.33301290  0.66441799  0.88744450  1
  Mg  Mg10  1  0.83563211  0.16757072  0.36248446  1
  Mg  Mg11  1  0.83518479  0.16688495  0.88736019  1
  Mg  Mg12  1  0.83443332  0.66707730  0.38709540  1
  Mg  Mg13  1  0.83373317  0.66603796  0.86287087  1
  V  V0  1  0.16658217  0.33332144  0.12500502  1
loop_
_geom_bond_atom_site_label_1
_geom_bond_atom_site_label_2
_geom_bond_distance
_geom_bond_site_symmetry_2
Ce0 Mg1 3.206912 1_555
Ce0 Mg1 3.208442 1_545
Ce0 Mg5 3.208710 1_445
Ce0 Mg5 3.211111 1_555
Ce0 Mg3 3.211490 1_455
Ce0 Mg3 3.215278 1_555
Ce0 Mg10 3.238020 1_455
Ce0 Mg9 3.238909 1_555
Ce0 Mg11 3.242307 1_455
Ce0 Mg8 3.246474 1_555
Ce0 Mg6 3.246878 1_555
Ce0 Mg7 3.250899 1_555
Mg0 Mg6 3.054409 1_565
Mg0 Mg9 3.057172 1_554
Mg0 Mg7 3.061129 1_564
Mg0 Mg8 3.061481 1_555
Mg0 Mg2 3.179787 1_455
Mg0 Mg4 3.181519 1_455
Mg0 V0 3.206428 1_565
Mg0 V0 3.206457 1_555
Mg0 Mg13 3.237078 1_454
Mg0 Mg12 3.237808 1_455
Mg0 Mg2 3.238382 1_565
Mg0 Mg4 3.243172 1_555
Mg1 Mg3 3.061334 1_565
Mg1 Mg5 3.071189 1_555
Mg1 Mg12 3.095638 1_455
Mg1 Mg13 3.099240 1_455
Mg1 Mg7 3.219800 1_565
Mg1 Mg6 3.233339 1_565
Mg1 Mg8 3.234881 1_555
Mg1 Mg9 3.239071 1_555
Mg1 Mg5 3.353517 1_455
Mg1 Mg3 3.356846 1_455
Mg2 Mg7 3.055731 1_554
Mg2 Mg6 3.058305 1_555
Mg2 Mg4 3.174180 1_555
Mg2 V0 3.211928 1_555
Mg2 V0 3.212857 1_655
Mg2 Mg4 3.238618 1_545
Mg3 Mg5 3.071056 1_545
Mg3 Mg6 3.219094 1_555
Mg3 Mg7 3.229452 1_555
Mg3 Mg5 3.341753 1_555
Mg4 Mg9 3.052296 1_554
Mg4 Mg8 3.056588 1_555
Mg4 V0 3.208679 1_555
Mg4 V0 3.209605 1_665
Mg5 Mg8 3.223654 1_555
Mg5 Mg9 3.230459 1_555
Mg6 V0 3.044797 1_555
Mg6 Mg8 3.184186 1_555
Mg6 Mg8 3.228613 1_545
Mg7 V0 3.042574 1_556
Mg7 Mg9 3.184725 1_555
Mg7 Mg9 3.228081 1_545
Mg8 V0 3.038382 1_555
Mg9 V0 3.041885 1_556
Mg10 V0 3.040965 1_655
Mg10 Mg4 3.049981 1_545
Mg10 Mg2 3.058806 1_555
Mg10 Mg6 3.193365 1_655
Mg10 Mg8 3.193796 1_655
Mg10 Mg12 3.216054 1_545
Mg10 Mg12 3.216307 1_555
Mg10 Mg8 3.224378 1_545
Mg10 Mg6 3.231335 1_555
Mg10 Mg3 3.235001 1_555
Mg10 Mg5 3.237899 1_545
Mg11 V0 3.039773 1_656
Mg11 Mg2 3.056557 1_556
Mg11 Mg4 3.057275 1_546
Mg11 Mg7 3.193330 1_655
Mg11 Mg9 3.194200 1_655
Mg11 Mg13 3.215877 1_555
Mg11 Mg13 3.216296 1_545
Mg11 Mg9 3.223970 1_545
Mg11 Mg5 3.225275 1_545
Mg11 Mg7 3.231368 1_555
Mg11 Mg3 3.243427 1_555
Mg12 Mg3 3.100880 1_555
Mg12 Mg5 3.102025 1_555
Mg12 Mg6 3.218564 1_665
Mg12 Mg6 3.218592 1_555
Mg12 Mg8 3.221772 1_555
Mg12 Mg8 3.221920 1_655
Mg12 Mg2 3.235229 1_555
Mg12 Mg4 3.241590 1_555
Mg13 Mg3 3.094414 1_555
Mg13 Mg5 3.105484 1_555
Mg13 Mg7 3.217964 1_555
Mg13 Mg7 3.219146 1_665
Mg13 Mg9 3.221539 1_555
Mg13 Mg9 3.222634 1_655
Mg13 Mg2 3.239553 1_556
Mg13 Mg4 3.239800 1_556
