# generated using pymatgen
data_La6Ti3Se9O5
_symmetry_space_group_name_H-M   'P 1'
_cell_length_a   3.97296868
_cell_length_b   11.19100175
_cell_length_c   22.27475849
_cell_angle_alpha   96.68562816
_cell_angle_beta   95.11648757
_cell_angle_gamma   90.00000207
_symmetry_Int_Tables_number   1
_chemical_formula_structural   La6Ti3Se9O5
_chemical_formula_sum   'La12 Ti6 Se18 O10'
_cell_volume   979.66122835
_cell_formula_units_Z   2
loop_
 _symmetry_equiv_pos_site_id
 _symmetry_equiv_pos_as_xyz
  1  'x, y, z'
loop_
 _atom_site_type_symbol
 _atom_site_label
 _atom_site_symmetry_multiplicity
 _atom_site_fract_x
 _atom_site_fract_y
 _atom_site_fract_z
 _atom_site_occupancy
  La  La0  1  0.36261086  0.34937498  0.72522171  1
  La  La1  1  0.46279619  0.25416123  0.92559238  1
  La  La2  1  0.53720381  0.74583877  0.07440762  1
  La  La3  1  0.88774989  0.98597721  0.77549979  1
  La  La4  1  0.95921970  0.74685679  0.91843939  1
  La  La5  1  0.78954325  0.54156748  0.57908649  1
  La  La6  1  0.63738914  0.65062502  0.27477829  1
  La  La7  1  0.04078030  0.25314321  0.08156061  1
  La  La8  1  0.21045675  0.45843252  0.42091351  1
  La  La9  1  0.78853765  0.99253848  0.57707529  1
  La  La10  1  0.21146235  0.00746152  0.42292471  1
  La  La11  1  0.11225011  0.01402279  0.22450021  1
  Ti  Ti0  1  0.26956264  0.26011174  0.53912527  1
  Ti  Ti1  1  0.64167251  0.34392514  0.28334501  1
  Ti  Ti2  1  0.35832749  0.65607486  0.71665499  1
  Ti  Ti3  1  -0.00000000  0.50000000  0.00000000  1
  Ti  Ti4  1  0.73043736  0.73988826  0.46087473  1
  Ti  Ti5  1  0.50000000  -0.00000000  0.00000000  1
  Se  Se0  1  0.59062604  0.18545218  0.18125209  1
  Se  Se1  1  0.40937396  0.81454782  0.81874791  1
  Se  Se2  1  0.27224061  0.76407776  0.54448122  1
  Se  Se3  1  0.16327315  0.22437635  0.32654631  1
  Se  Se4  1  0.96014972  0.02936935  0.92029944  1
  Se  Se5  1  0.90721736  0.25279790  0.81443472  1
  Se  Se6  1  0.18995451  0.71791046  0.37990901  1
  Se  Se7  1  0.11261426  0.44917184  0.22522852  1
  Se  Se8  1  0.72775939  0.23592224  0.45551878  1
  Se  Se9  1  0.65608914  0.93864255  0.31217827  1
  Se  Se10  1  0.03985028  0.97063065  0.07970056  1
  Se  Se11  1  0.83672685  0.77562365  0.67345369  1
  Se  Se12  1  0.45942213  0.52601153  0.91884425  1
  Se  Se13  1  0.09278264  0.74720210  0.18556528  1
  Se  Se14  1  0.34391086  0.06135745  0.68782173  1
  Se  Se15  1  0.88738574  0.55082816  0.77477148  1
  Se  Se16  1  0.54057787  0.47398847  0.08115575  1
  Se  Se17  1  0.81004549  0.28208954  0.62009099  1
  O  O0  1  0.26548141  0.42964117  0.53096281  1
  O  O1  1  0.98878826  0.32914803  0.97757652  1
  O  O2  1  0.48711024  0.82795569  0.97422047  1
  O  O3  1  0.26755288  0.08271475  0.53510576  1
  O  O4  1  0.73244712  0.91728525  0.46489424  1
  O  O5  1  0.67201920  0.46795407  0.34403839  1
  O  O6  1  0.01121174  0.67085197  0.02242348  1
  O  O7  1  0.73451859  0.57035883  0.46903719  1
  O  O8  1  0.51288976  0.17204431  0.02577953  1
  O  O9  1  0.32798080  0.53204593  0.65596161  1
loop_
_geom_bond_atom_site_label_1
_geom_bond_atom_site_label_2
_geom_bond_distance
_geom_bond_site_symmetry_2
La0 O9 2.697135 1_555
La0 Se5 3.087374 1_455
La0 Se5 3.087374 1_555
La0 Se17 3.089137 1_555
La0 Se17 3.089137 1_455
La0 Se15 3.107705 1_555
La0 Se15 3.107705 1_455
La0 Se14 3.233005 1_555
La1 O1 2.398798 1_455
La1 O1 2.398798 1_555
La1 O8 2.502530 1_556
La1 Se12 3.063387 1_555
La1 Se5 3.165347 1_555
La1 Se5 3.165347 1_455
La1 Se4 3.196768 1_455
La1 Se4 3.196768 1_555
La2 O6 2.398798 1_655
La2 O6 2.398798 1_555
La2 O2 2.502530 1_554
La2 Se16 3.063387 1_555
La2 Se13 3.165347 1_555
La2 Se13 3.165347 1_655
La2 Se10 3.196768 1_655
La2 Se10 3.196768 1_555
La3 Se14 2.970735 1_665
La3 Se14 2.970735 1_565
La3 Se1 2.996265 1_555
La3 Se1 2.996266 1_655
La3 Se5 3.009872 1_565
La3 Se11 3.069427 1_555
La3 Se4 3.192403 1_565
La4 O2 2.457397 1_555
La4 O2 2.457397 1_655
La4 O6 2.550373 1_656
La4 Se1 3.131057 1_655
La4 Se1 3.131057 1_555
La4 Se4 3.157041 1_565
La4 Se12 3.171688 1_555
La4 Se12 3.171688 1_655
La4 Se15 3.652060 1_555
La5 O7 2.499782 1_555
La5 O0 2.518399 1_655
La5 O0 2.518399 1_555
La5 O9 2.628472 1_555
La5 O9 2.628472 1_655
La5 Se17 3.142820 1_555
La5 Se11 3.156287 1_555
La5 Se2 3.344122 1_655
La5 Se2 3.344123 1_555
La6 O5 2.697135 1_555
La6 Se13 3.087374 1_655
La6 Se13 3.087374 1_555
La6 Se6 3.089137 1_555
La6 Se6 3.089137 1_655
La6 Se7 3.107705 1_555
La6 Se7 3.107705 1_655
La6 Se9 3.233005 1_555
La7 O8 2.457397 1_555
La7 O8 2.457397 1_455
La7 O1 2.550373 1_454
La7 Se0 3.131057 1_455
La7 Se0 3.131057 1_555
La7 Se10 3.157041 1_545
La7 Se16 3.171688 1_555
La7 Se16 3.171688 1_455
La7 Se7 3.652060 1_555
La8 O0 2.499782 1_555
La8 O7 2.518399 1_455
La8 O7 2.518399 1_555
La8 O5 2.628472 1_555
La8 O5 2.628472 1_455
La8 Se6 3.142820 1_555
La8 Se3 3.156287 1_555
La8 Se8 3.344122 1_455
La8 Se8 3.344123 1_555
La9 O3 2.459922 1_665
La9 O3 2.459922 1_565
La9 O4 2.532510 1_555
La9 Se14 3.183369 1_565
La9 Se14 3.183369 1_665
La9 Se2 3.251702 1_555
La9 Se2 3.251702 1_655
La9 Se17 3.269223 1_565
La9 Se11 3.417349 1_555
La10 O4 2.459922 1_445
La10 O4 2.459922 1_545
La10 O3 2.532510 1_555
La10 Se9 3.183369 1_545
La10 Se9 3.183369 1_445
La10 Se8 3.251702 1_555
La10 Se8 3.251702 1_455
La10 Se6 3.269223 1_545
La10 Se3 3.417349 1_555
La11 Se9 2.970735 1_445
La11 Se9 2.970735 1_545
La11 Se0 2.996265 1_555
La11 Se0 2.996266 1_455
La11 Se13 3.009872 1_545
La11 Se3 3.069427 1_555
La11 Se10 3.192403 1_545
Se0 Ti1 2.708600 1_555
Se1 Ti2 2.708600 1_555
Se2 Ti4 2.709732 1_555
Se2 Ti4 2.709732 1_455
Se3 Ti1 2.637127 1_555
Se3 Ti1 2.637128 1_455
Se4 Ti5 2.704934 1_556
Se4 Ti5 2.704935 1_656
Se6 Ti4 2.670214 1_455
Se6 Ti4 2.670214 1_555
Se7 Ti1 2.711249 1_455
Se7 Ti1 2.711249 1_555
Se8 Ti0 2.709732 1_555
Se8 Ti0 2.709732 1_655
Se10 Ti5 2.704934 1_565
Se10 Ti5 2.704935 1_465
Se11 Ti2 2.637127 1_555
Se11 Ti2 2.637128 1_655
Se12 Ti3 2.719423 1_556
Se12 Ti3 2.719423 1_656
Se15 Ti2 2.711249 1_655
Se15 Ti2 2.711249 1_555
Se16 Ti3 2.719423 1_655
Se16 Ti3 2.719423 1_555
Se17 Ti0 2.670214 1_655
Se17 Ti0 2.670214 1_555
O0 Ti0 1.926784 1_555
O1 Ti3 1.918564 1_656
O2 Ti5 1.943362 1_566
O3 Ti0 1.976811 1_555
O4 Ti4 1.976811 1_555
O5 Ti1 1.817366 1_555
O6 Ti3 1.918564 1_555
O7 Ti4 1.926784 1_555
O8 Ti5 1.943362 1_555
O9 Ti2 1.817366 1_555
