# generated using pymatgen
data_NpAg3
_symmetry_space_group_name_H-M   'P 1'
_cell_length_a   5.32903000
_cell_length_b   5.32903000
_cell_length_c   5.32903000
_cell_angle_alpha   129.80361995
_cell_angle_beta   129.80361995
_cell_angle_gamma   73.72090607
_symmetry_Int_Tables_number   1
_chemical_formula_structural   NpAg3
_chemical_formula_sum   'Np1 Ag3'
_cell_volume   87.14244156
_cell_formula_units_Z   1
loop_
 _symmetry_equiv_pos_site_id
 _symmetry_equiv_pos_as_xyz
  1  'x, y, z'
loop_
 _atom_site_type_symbol
 _atom_site_label
 _atom_site_symmetry_multiplicity
 _atom_site_fract_x
 _atom_site_fract_y
 _atom_site_fract_z
 _atom_site_occupancy
  Np  Np0  1  0.00000000  0.00000000  0.00000000  1
  Ag  Ag0  1  0.75000000  0.25000000  0.50000000  1
  Ag  Ag1  1  0.25000000  0.75000000  0.50000000  1
  Ag  Ag2  1  0.50000000  0.50000000  0.00000000  1
loop_
_geom_bond_atom_site_label_1
_geom_bond_atom_site_label_2
_geom_bond_distance
_geom_bond_site_symmetry_2
Ag0 Ag2 3.107151 1_656
Ag0 Np0 3.107151 1_555
Ag0 Ag2 3.107151 1_545
Ag0 Ag2 3.107151 1_555
Ag0 Ag2 3.107151 1_556
Ag0 Np0 3.107151 1_655
Ag0 Np0 3.107151 1_666
Ag0 Np0 3.107151 1_656
Ag0 Ag1 3.196715 1_645
Ag0 Ag1 3.196715 1_544
Ag0 Ag1 3.196715 1_656
Ag0 Ag1 3.196715 1_555
Ag1 Np0 3.107151 1_666
Ag1 Ag2 3.107151 1_455
Ag1 Np0 3.107151 1_555
Ag1 Ag2 3.107151 1_555
Ag1 Np0 3.107151 1_566
Ag1 Ag2 3.107151 1_566
Ag1 Ag2 3.107151 1_556
Ag1 Np0 3.107151 1_565
Ag2 Np0 3.196715 1_565
Ag2 Np0 3.196715 1_655
Ag2 Np0 3.196715 1_554
Ag2 Np0 3.196715 1_666
