# generated using pymatgen
data_TbTiFe11
_symmetry_space_group_name_H-M   'P 1'
_cell_length_a   4.68547900
_cell_length_b   6.45081093
_cell_length_c   6.45081093
_cell_angle_alpha   97.93470883
_cell_angle_beta   111.29498558
_cell_angle_gamma   68.70501442
_symmetry_Int_Tables_number   1
_chemical_formula_structural   TbTiFe11
_chemical_formula_sum   'Tb1 Ti1 Fe11'
_cell_volume   169.25650227
_cell_formula_units_Z   1
loop_
 _symmetry_equiv_pos_site_id
 _symmetry_equiv_pos_as_xyz
  1  'x, y, z'
loop_
 _atom_site_type_symbol
 _atom_site_label
 _atom_site_symmetry_multiplicity
 _atom_site_fract_x
 _atom_site_fract_y
 _atom_site_fract_z
 _atom_site_occupancy
  Tb  Tb0  1  0.00553500  0.99446500  0.00553500  1
  Ti  Ti0  1  0.63267100  0.36732900  0.63267100  1
  Fe  Fe0  1  0.73224700  0.76775300  0.23224700  1
  Fe  Fe1  1  0.27295000  0.22705000  0.77295000  1
  Fe  Fe2  1  0.49868500  0.78271800  0.78008800  1
  Fe  Fe3  1  0.49868500  0.21991200  0.21728200  1
  Fe  Fe4  1  0.50185900  0.99850900  0.50045500  1
  Fe  Fe5  1  0.00008700  0.99850900  0.50045500  1
  Fe  Fe6  1  0.50185900  0.49954500  0.00149100  1
  Fe  Fe7  1  0.00008700  0.49954500  0.00149100  1
  Fe  Fe8  1  0.35428400  0.64571600  0.35428400  1
  Fe  Fe9  1  0.00052600  0.35604600  0.35709800  1
  Fe  Fe10  1  0.00052600  0.64290200  0.64395400  1
loop_
_geom_bond_atom_site_label_1
_geom_bond_atom_site_label_2
_geom_bond_distance
_geom_bond_site_symmetry_2
Tb0 Ti0 3.180534 1_464
Fe0 Fe6 2.419280 1_555
Fe0 Fe4 2.419280 1_555
Fe0 Fe7 2.419280 1_655
Fe0 Fe5 2.419280 1_655
Fe0 Fe8 2.563603 1_555
Fe0 Fe8 2.563603 1_655
Fe0 Fe9 2.590873 1_655
Fe0 Fe10 2.590873 1_655
Fe0 Fe2 2.719768 1_554
Fe0 Fe3 2.719768 1_565
Fe0 Tb0 3.037800 1_655
Fe0 Tb0 3.037800 1_555
Fe1 Fe6 2.432932 1_556
Fe1 Fe4 2.432932 1_545
Fe1 Fe7 2.432932 1_556
Fe1 Fe5 2.432932 1_545
Fe1 Fe10 2.622155 1_555
Fe1 Fe9 2.622155 1_555
Fe1 Ti0 2.630634 1_555
Fe1 Ti0 2.630634 1_455
Fe1 Fe3 2.671248 1_556
Fe1 Fe2 2.671248 1_545
Fe1 Tb0 3.069934 1_546
Fe1 Tb0 3.069935 1_646
Fe2 Fe4 2.433035 1_555
Fe2 Fe5 2.433035 1_555
Fe2 Fe6 2.462116 1_556
Fe2 Fe7 2.462116 1_656
Fe2 Ti0 2.643277 1_555
Fe2 Fe8 2.682886 1_555
Fe2 Tb0 2.986599 1_556
Fe2 Tb0 2.986599 1_656
Fe3 Fe6 2.433035 1_555
Fe3 Fe7 2.433035 1_555
Fe3 Fe4 2.462116 1_545
Fe3 Fe5 2.462116 1_645
Fe3 Fe9 2.618079 1_555
Fe3 Fe9 2.618079 1_655
Fe3 Ti0 2.643277 1_555
Fe3 Fe8 2.682886 1_555
Fe3 Tb0 2.986599 1_545
Fe3 Tb0 2.986599 1_645
Fe4 Fe5 2.334437 1_655
Fe4 Fe5 2.351042 1_555
Fe4 Fe8 2.573605 1_555
Fe4 Fe9 2.601614 1_565
Fe4 Ti0 2.623524 1_565
Fe4 Tb0 3.198432 1_555
Fe4 Tb0 3.252632 1_656
Fe5 Fe8 2.573606 1_555
Fe5 Fe9 2.601614 1_565
Fe5 Ti0 2.623525 1_465
Fe5 Tb0 3.198432 1_555
Fe5 Tb0 3.252632 1_556
Fe6 Fe7 2.334437 1_655
Fe6 Fe7 2.351042 1_555
Fe6 Fe8 2.573605 1_555
Fe6 Fe9 2.588548 1_655
Fe6 Ti0 2.623524 1_554
Fe6 Tb0 3.198432 1_555
Fe6 Tb0 3.252632 1_645
Fe7 Fe8 2.573606 1_555
Fe7 Fe9 2.588548 1_555
Fe7 Ti0 2.623525 1_454
Fe7 Tb0 3.198432 1_555
Fe7 Tb0 3.252632 1_545
Fe8 Ti0 2.374644 1_555
Fe8 Fe9 2.918954 1_555
Fe8 Fe9 2.918955 1_655
Fe8 Tb0 2.974833 1_555
Fe9 Ti0 2.869625 1_455
Fe9 Ti0 2.869625 1_555
Fe9 Tb0 3.020386 1_545
Fe10 Fe9 2.429605 1_555
Fe10 Fe5 2.588548 1_555
Fe10 Fe4 2.588548 1_455
Fe10 Fe7 2.601614 1_556
Fe10 Fe6 2.601614 1_556
Fe10 Fe2 2.618079 1_555
Fe10 Fe2 2.618079 1_455
Fe10 Ti0 2.869625 1_455
Fe10 Ti0 2.869625 1_555
Fe10 Fe8 2.918954 1_555
Fe10 Fe8 2.918955 1_455
Fe10 Tb0 3.020386 1_556
