# generated using pymatgen
data_Ca7HfN6
_symmetry_space_group_name_H-M   'P 1'
_cell_length_a   6.38837900
_cell_length_b   9.34522913
_cell_length_c   9.34522913
_cell_angle_alpha   77.99879693
_cell_angle_beta   70.01348950
_cell_angle_gamma   70.01348950
_symmetry_Int_Tables_number   1
_chemical_formula_structural   Ca7HfN6
_chemical_formula_sum   'Ca14 Hf2 N12'
_cell_volume   490.10990628
_cell_formula_units_Z   2
loop_
 _symmetry_equiv_pos_site_id
 _symmetry_equiv_pos_as_xyz
  1  'x, y, z'
loop_
 _atom_site_type_symbol
 _atom_site_label
 _atom_site_symmetry_multiplicity
 _atom_site_fract_x
 _atom_site_fract_y
 _atom_site_fract_z
 _atom_site_occupancy
  Ca  Ca0  1  0.28002900  0.95791700  0.04208300  1
  Ca  Ca1  1  0.71997100  0.04208300  0.95791700  1
  Ca  Ca2  1  0.21997100  0.45791700  0.54208300  1
  Ca  Ca3  1  0.78002900  0.54208300  0.45791700  1
  Ca  Ca4  1  0.73731800  0.15071500  0.60582200  1
  Ca  Ca5  1  0.50614500  0.60582200  0.15071500  1
  Ca  Ca6  1  0.76268200  0.89417800  0.34928500  1
  Ca  Ca7  1  0.99385500  0.34928500  0.89417800  1
  Ca  Ca8  1  0.26268200  0.84928500  0.39417800  1
  Ca  Ca9  1  0.49385500  0.39417800  0.84928500  1
  Ca  Ca10  1  0.23731800  0.10582200  0.65071500  1
  Ca  Ca11  1  0.00614500  0.65071500  0.10582200  1
  Ca  Ca12  1  0.25000000  0.25000000  0.25000000  1
  Ca  Ca13  1  0.75000000  0.75000000  0.75000000  1
  Hf  Hf0  1  0.75000000  0.25000000  0.25000000  1
  Hf  Hf1  1  0.25000000  0.75000000  0.75000000  1
  N  N0  1  0.02629800  0.06391900  0.27905100  1
  N  N1  1  0.63073200  0.27905100  0.06391900  1
  N  N2  1  0.47370200  0.22094900  0.43608100  1
  N  N3  1  0.86926800  0.43608100  0.22094900  1
  N  N4  1  0.97370200  0.93608100  0.72094900  1
  N  N5  1  0.36926800  0.72094900  0.93608100  1
  N  N6  1  0.52629800  0.77905100  0.56391900  1
  N  N7  1  0.13073200  0.56391900  0.77905100  1
  N  N8  1  0.88121400  0.34281700  0.65718300  1
  N  N9  1  0.11878600  0.65718300  0.34281700  1
  N  N10  1  0.61878600  0.84281700  0.15718300  1
  N  N11  1  0.38121400  0.15718300  0.84281700  1
loop_
_geom_bond_atom_site_label_1
_geom_bond_atom_site_label_2
_geom_bond_distance
_geom_bond_site_symmetry_2
Ca0 N5 2.423557 1_554
Ca0 N0 2.423557 1_565
Ca0 N11 2.431298 1_564
Ca0 N10 2.552684 1_555
Ca1 N1 2.423557 1_556
Ca1 N4 2.423557 1_545
Ca1 N10 2.431298 1_546
Ca1 N11 2.552684 1_555
Ca2 N7 2.423557 1_555
Ca2 N2 2.423557 1_555
Ca2 N9 2.431298 1_555
Ca2 N8 2.552684 1_455
Ca3 N3 2.423557 1_555
Ca3 N6 2.423557 1_555
Ca3 N8 2.431298 1_555
Ca3 N9 2.552684 1_655
Ca4 N4 2.367238 1_545
Ca4 N8 2.467063 1_555
Ca4 N2 2.533918 1_555
Ca4 N11 2.569351 1_555
Ca5 N5 2.367238 1_554
Ca5 N9 2.467064 1_555
Ca5 N3 2.533918 1_555
Ca5 N10 2.569351 1_555
Ca6 N6 2.367238 1_555
Ca6 N10 2.467063 1_555
Ca6 N0 2.533918 1_665
Ca6 N9 2.569351 1_655
Ca7 N7 2.367238 1_655
Ca7 N11 2.467064 1_655
Ca7 N1 2.533918 1_556
Ca7 N8 2.569351 1_555
Ca8 N0 2.367238 1_565
Ca8 N9 2.467063 1_555
Ca8 N6 2.533918 1_555
Ca8 N10 2.569351 1_555
Ca9 N1 2.367238 1_556
Ca9 N8 2.467064 1_555
Ca9 N7 2.533918 1_555
Ca9 N11 2.569351 1_555
Ca10 N2 2.367238 1_555
Ca10 N11 2.467063 1_555
Ca10 N4 2.533918 1_445
Ca10 N8 2.569351 1_455
Ca11 N3 2.367238 1_455
Ca11 N10 2.467064 1_455
Ca11 N5 2.533918 1_554
Ca11 N9 2.569351 1_555
Ca12 N2 2.525334 1_555
Ca12 N0 2.525334 1_555
Ca12 N1 2.525335 1_555
Ca12 N3 2.525335 1_455
Ca13 N6 2.525334 1_555
Ca13 N4 2.525334 1_555
Ca13 N5 2.525335 1_555
Ca13 N7 2.525335 1_655
Hf0 N1 2.060647 1_555
Hf0 N3 2.060647 1_555
Hf0 N2 2.060647 1_555
Hf0 N0 2.060647 1_655
Hf1 N7 2.060647 1_555
Hf1 N5 2.060647 1_555
Hf1 N6 2.060647 1_555
Hf1 N4 2.060647 1_455
