# generated using pymatgen
data_RbLaF4
_symmetry_space_group_name_H-M   'P 1'
_cell_length_a   3.85154975
_cell_length_b   6.45507525
_cell_length_c   16.11646092
_cell_angle_alpha   90.00000000
_cell_angle_beta   90.00000000
_cell_angle_gamma   90.00000000
_symmetry_Int_Tables_number   1
_chemical_formula_structural   RbLaF4
_chemical_formula_sum   'Rb4 La4 F16'
_cell_volume   400.68815190
_cell_formula_units_Z   4
loop_
 _symmetry_equiv_pos_site_id
 _symmetry_equiv_pos_as_xyz
  1  'x, y, z'
loop_
 _atom_site_type_symbol
 _atom_site_label
 _atom_site_symmetry_multiplicity
 _atom_site_fract_x
 _atom_site_fract_y
 _atom_site_fract_z
 _atom_site_occupancy
  Rb  Rb0  1  0.75000000  0.27578650  0.79902996  1
  Rb  Rb1  1  0.75000000  0.77578650  0.70097004  1
  Rb  Rb2  1  0.25000000  0.72421350  0.20097004  1
  Rb  Rb3  1  0.25000000  0.22421350  0.29902996  1
  La  La0  1  0.25000000  0.25177410  0.55865492  1
  La  La1  1  0.25000000  0.75177410  0.94134508  1
  La  La2  1  0.75000000  0.74822590  0.44134508  1
  La  La3  1  0.75000000  0.24822590  0.05865492  1
  F  F0  1  0.25000000  0.13461648  0.96276664  1
  F  F1  1  0.25000000  0.63461648  0.53723336  1
  F  F2  1  0.75000000  0.86538352  0.03723336  1
  F  F3  1  0.75000000  0.36538352  0.46276664  1
  F  F4  1  0.75000000  0.00015258  0.55623656  1
  F  F5  1  0.75000000  0.50015258  0.94376344  1
  F  F6  1  0.25000000  -0.00015258  0.44376344  1
  F  F7  1  0.25000000  0.49984742  0.05623656  1
  F  F8  1  0.75000000  0.39137400  0.63072926  1
  F  F9  1  0.75000000  0.89137400  0.86927074  1
  F  F10  1  0.25000000  0.60862600  0.36927074  1
  F  F11  1  0.25000000  0.10862600  0.13072926  1
  F  F12  1  0.25000000  0.09457037  0.68895866  1
  F  F13  1  0.25000000  0.59457037  0.81104134  1
  F  F14  1  0.75000000  0.90542963  0.31104134  1
  F  F15  1  0.75000000  0.40542963  0.18895866  1
loop_
_geom_bond_atom_site_label_1
_geom_bond_atom_site_label_2
_geom_bond_distance
_geom_bond_site_symmetry_2
F0 La1 2.495275 1_545
F0 La3 2.575776 1_456
F0 La3 2.575776 1_556
F1 La0 2.495275 1_555
F1 La2 2.575776 1_555
F1 La2 2.575776 1_455
F2 La3 2.495275 1_565
F2 La1 2.575776 1_554
F2 La1 2.575776 1_654
F3 La2 2.495275 1_555
F3 La0 2.575776 1_555
F3 La0 2.575776 1_655
F4 La2 2.464372 1_545
F4 La0 2.519577 1_555
F4 La0 2.519577 1_655
F4 Rb1 2.745643 1_545
F5 La3 2.464372 1_556
F5 La1 2.519577 1_655
F5 La1 2.519577 1_555
F5 Rb0 2.745643 1_555
F6 La0 2.464372 1_555
F6 La2 2.519577 1_445
F6 La2 2.519577 1_545
F6 Rb3 2.745643 1_555
F7 La1 2.464372 1_554
F7 La3 2.519577 1_455
F7 La3 2.519577 1_555
F7 Rb2 2.745643 1_555
F8 La0 2.422791 1_655
F8 La0 2.422791 1_555
F8 Rb1 2.727435 1_555
F8 Rb0 2.813162 1_555
F9 La1 2.422791 1_655
F9 La1 2.422791 1_555
F9 Rb0 2.727435 1_565
F9 Rb1 2.813162 1_555
F10 La2 2.422791 1_555
F10 La2 2.422791 1_455
F10 Rb3 2.727435 1_555
F10 Rb2 2.813162 1_555
F11 La3 2.422791 1_555
F11 La3 2.422791 1_455
F11 Rb2 2.727435 1_545
F11 Rb3 2.813162 1_555
F12 La0 2.332357 1_555
F12 Rb1 2.824981 1_545
F12 Rb1 2.824981 1_445
F12 Rb0 2.867732 1_455
F12 Rb0 2.867732 1_555
F13 La1 2.332357 1_555
F13 Rb0 2.824981 1_555
F13 Rb0 2.824981 1_455
F13 Rb1 2.867732 1_455
F13 Rb1 2.867732 1_555
F14 La2 2.332357 1_555
F14 Rb3 2.824981 1_565
F14 Rb3 2.824981 1_665
F14 Rb2 2.867732 1_655
F14 Rb2 2.867732 1_555
F15 La3 2.332357 1_555
F15 Rb2 2.824981 1_655
F15 Rb2 2.824981 1_555
F15 Rb3 2.867732 1_555
F15 Rb3 2.867732 1_655
