# generated using pymatgen
data_MnAg2Sn3S8
_symmetry_space_group_name_H-M   'P 1'
_cell_length_a   7.64391605
_cell_length_b   7.64391605
_cell_length_c   7.64391590
_cell_angle_alpha   60.16102753
_cell_angle_beta   60.16102753
_cell_angle_gamma   60.16103400
_symmetry_Int_Tables_number   1
_chemical_formula_structural   MnAg2Sn3S8
_chemical_formula_sum   'Mn1 Ag2 Sn3 S8'
_cell_volume   316.96682257
_cell_formula_units_Z   1
loop_
 _symmetry_equiv_pos_site_id
 _symmetry_equiv_pos_as_xyz
  1  'x, y, z'
loop_
 _atom_site_type_symbol
 _atom_site_label
 _atom_site_symmetry_multiplicity
 _atom_site_fract_x
 _atom_site_fract_y
 _atom_site_fract_z
 _atom_site_occupancy
  Mn  Mn0  1  0.00000000  0.00000000  0.00000000  1
  Ag  Ag0  1  0.38184100  0.38184100  0.38184100  1
  Ag  Ag1  1  0.61815900  0.61815900  0.61815900  1
  Sn  Sn0  1  0.00000000  0.50000000  0.00000000  1
  Sn  Sn1  1  0.00000000  0.00000000  0.50000000  1
  Sn  Sn2  1  0.50000000  0.00000000  0.00000000  1
  S  S0  1  0.76335500  0.21632500  0.76335500  1
  S  S1  1  0.75552200  0.75552200  0.75552200  1
  S  S2  1  0.78367500  0.23664500  0.23664500  1
  S  S3  1  0.23664500  0.23664500  0.78367500  1
  S  S4  1  0.23664500  0.78367500  0.23664500  1
  S  S5  1  0.24447800  0.24447800  0.24447800  1
  S  S6  1  0.21632500  0.76335500  0.76335500  1
  S  S7  1  0.76335500  0.76335500  0.21632500  1
loop_
_geom_bond_atom_site_label_1
_geom_bond_atom_site_label_2
_geom_bond_distance
_geom_bond_site_symmetry_2
Mn0 S3 2.565449 1_554
Mn0 S7 2.565449 1_445
Mn0 S0 2.565449 1_454
Mn0 S6 2.565449 1_544
Mn0 S2 2.565449 1_455
Mn0 S4 2.565449 1_545
Ag0 S3 2.517769 1_555
Ag0 S4 2.517770 1_555
Ag0 S2 2.517770 1_555
Ag0 S5 2.568808 1_555
Ag1 S7 2.517769 1_555
Ag1 S0 2.517770 1_555
Ag1 S6 2.517770 1_555
Ag1 S1 2.568808 1_555
S0 Sn2 2.602134 1_556
S0 Sn1 2.602134 1_655
S1 Sn1 2.647692 1_665
S1 Sn2 2.647693 1_566
S1 Sn0 2.647693 1_656
S2 Sn0 2.602134 1_655
S2 Sn1 2.602134 1_655
S3 Sn2 2.602134 1_556
S3 Sn0 2.602134 1_556
S4 Sn2 2.602134 1_565
S4 Sn1 2.602134 1_565
S5 Sn1 2.647692 1_555
S5 Sn0 2.647693 1_555
S5 Sn2 2.647693 1_555
S6 Sn0 2.602134 1_556
S6 Sn1 2.602134 1_565
S7 Sn2 2.602134 1_565
S7 Sn0 2.602134 1_655
