# generated using pymatgen
data_MgFeO3
_symmetry_space_group_name_H-M   'P 1'
_cell_length_a   5.08213865
_cell_length_b   5.47477982
_cell_length_c   7.49991851
_cell_angle_alpha   84.19248742
_cell_angle_beta   89.87475856
_cell_angle_gamma   89.80349116
_symmetry_Int_Tables_number   1
_chemical_formula_structural   MgFeO3
_chemical_formula_sum   'Mg4 Fe4 O12'
_cell_volume   207.60205017
_cell_formula_units_Z   4
loop_
 _symmetry_equiv_pos_site_id
 _symmetry_equiv_pos_as_xyz
  1  'x, y, z'
loop_
 _atom_site_type_symbol
 _atom_site_label
 _atom_site_symmetry_multiplicity
 _atom_site_fract_x
 _atom_site_fract_y
 _atom_site_fract_z
 _atom_site_occupancy
  Mg  Mg0  1  0.99895200  0.28298800  0.14105600  1
  Mg  Mg1  1  0.49908300  0.78288000  0.64097400  1
  Mg  Mg2  1  0.00105900  0.71575200  0.85893000  1
  Mg  Mg3  1  0.50098200  0.21585300  0.35903000  1
  Fe  Fe0  1  0.50018200  0.18957800  0.84570200  1
  Fe  Fe1  1  0.99944900  0.30155700  0.65057300  1
  Fe  Fe2  1  0.00025600  0.68942200  0.34584700  1
  Fe  Fe3  1  0.49920000  0.80160800  0.15058500  1
  O  O0  1  0.87236800  0.65798700  0.58423300  1
  O  O1  1  0.37217300  0.15802800  0.08421900  1
  O  O2  1  0.65427900  0.15507400  0.61058700  1
  O  O3  1  0.15411100  0.65521600  0.11051000  1
  O  O4  1  0.20525500  0.01327400  0.74973800  1
  O  O5  1  0.70507100  0.51337400  0.24972900  1
  O  O6  1  0.80824300  0.97729200  0.26320700  1
  O  O7  1  0.30848900  0.47699600  0.76322600  1
  O  O8  1  0.32167800  0.84876900  0.39292300  1
  O  O9  1  0.82177800  0.34866200  0.89304800  1
  O  O10  1  0.13860900  0.35793100  0.40289800  1
  O  O11  1  0.63878100  0.85776000  0.90298700  1
loop_
_geom_bond_atom_site_label_1
_geom_bond_atom_site_label_2
_geom_bond_distance
_geom_bond_site_symmetry_2
Mg0 O9 2.066288 1_554
Mg0 O6 2.067995 1_545
Mg0 O1 2.072203 1_655
Mg0 O5 2.162330 1_555
Mg0 O10 2.167887 1_655
Mg0 O3 2.177827 1_655
Mg1 O8 2.067182 1_555
Mg1 O7 2.068782 1_555
Mg1 O0 2.072202 1_555
Mg1 O4 2.162468 1_565
Mg1 O11 2.169046 1_555
Mg1 O2 2.177712 1_565
Mg2 O4 2.034383 1_565
Mg2 O11 2.035426 1_455
Mg2 O3 2.037912 1_556
Mg2 O7 2.199060 1_555
Mg2 O9 2.200488 1_455
Mg2 O0 2.216162 1_455
Mg3 O5 2.034363 1_555
Mg3 O10 2.035732 1_555
Mg3 O2 2.038322 1_555
Mg3 O6 2.198128 1_545
Mg3 O8 2.200469 1_545
Mg3 O1 2.217226 1_555
Fe0 O1 1.893734 1_556
Fe0 O7 1.898133 1_555
Fe0 O9 1.905461 1_555
Fe0 O11 1.953325 1_545
Fe0 O2 1.954158 1_555
Fe0 O4 1.962516 1_555
Fe1 O2 1.967466 1_555
Fe1 O4 1.972974 1_655
Fe1 O10 1.981319 1_655
Fe1 O0 2.066109 1_555
Fe1 O9 2.067621 1_555
Fe1 O7 2.069659 1_655
Fe2 O0 1.892608 1_455
Fe2 O6 1.901228 1_455
Fe2 O8 1.904917 1_555
Fe2 O10 1.951033 1_555
Fe2 O3 1.954882 1_555
Fe2 O5 1.963260 1_455
Fe3 O3 1.967017 1_555
Fe3 O5 1.972898 1_555
Fe3 O11 1.981474 1_554
Fe3 O1 2.066002 1_565
Fe3 O8 2.066441 1_555
Fe3 O6 2.070246 1_555
