# generated using pymatgen
data_YGeBiO5
_symmetry_space_group_name_H-M   'P 1'
_cell_length_a   5.41100600
_cell_length_b   11.20022100
_cell_length_c   15.43082200
_cell_angle_alpha   90.00000000
_cell_angle_beta   90.00000000
_cell_angle_gamma   90.00000000
_symmetry_Int_Tables_number   1
_chemical_formula_structural   YGeBiO5
_chemical_formula_sum   'Y8 Ge8 Bi8 O40'
_cell_volume   935.17668146
_cell_formula_units_Z   8
loop_
 _symmetry_equiv_pos_site_id
 _symmetry_equiv_pos_as_xyz
  1  'x, y, z'
loop_
 _atom_site_type_symbol
 _atom_site_label
 _atom_site_symmetry_multiplicity
 _atom_site_fract_x
 _atom_site_fract_y
 _atom_site_fract_z
 _atom_site_occupancy
  Y  Y0  1  0.00838800  0.64109100  0.94668700  1
  Y  Y1  1  0.99161200  0.35890900  0.05331300  1
  Y  Y2  1  0.49161200  0.14109100  0.05331300  1
  Y  Y3  1  0.99161200  0.85890900  0.44668700  1
  Y  Y4  1  0.50838800  0.85890900  0.94668700  1
  Y  Y5  1  0.00838800  0.14109100  0.55331300  1
  Y  Y6  1  0.50838800  0.35890900  0.55331300  1
  Y  Y7  1  0.49161200  0.64109100  0.44668700  1
  Ge  Ge0  1  0.00935200  0.59599100  0.59666700  1
  Ge  Ge1  1  0.99064800  0.40400900  0.40333300  1
  Ge  Ge2  1  0.49064800  0.09599100  0.40333300  1
  Ge  Ge3  1  0.99064800  0.90400900  0.09666700  1
  Ge  Ge4  1  0.50935200  0.90400900  0.59666700  1
  Ge  Ge5  1  0.00935200  0.09599100  0.90333300  1
  Ge  Ge6  1  0.50935200  0.40400900  0.90333300  1
  Ge  Ge7  1  0.49064800  0.59599100  0.09666700  1
  Bi  Bi0  1  0.45575400  0.64829400  0.76202500  1
  Bi  Bi1  1  0.54424600  0.35170600  0.23797500  1
  Bi  Bi2  1  0.04424600  0.14829400  0.23797500  1
  Bi  Bi3  1  0.54424600  0.85170600  0.26202500  1
  Bi  Bi4  1  0.95575400  0.85170600  0.76202500  1
  Bi  Bi5  1  0.45575400  0.14829400  0.73797500  1
  Bi  Bi6  1  0.95575400  0.35170600  0.73797500  1
  Bi  Bi7  1  0.04424600  0.64829400  0.26202500  1
  O  O0  1  0.24790100  0.76450200  0.84871500  1
  O  O1  1  0.75209900  0.23549800  0.15128500  1
  O  O2  1  0.25209900  0.26450200  0.15128500  1
  O  O3  1  0.75209900  0.73549800  0.34871500  1
  O  O4  1  0.74790100  0.73549800  0.84871500  1
  O  O5  1  0.24790100  0.26450200  0.65128500  1
  O  O6  1  0.74790100  0.23549800  0.65128500  1
  O  O7  1  0.25209900  0.76450200  0.34871500  1
  O  O8  1  0.36190600  0.81096100  0.52065500  1
  O  O9  1  0.63809400  0.18903900  0.47934500  1
  O  O10  1  0.13809400  0.31096100  0.47934500  1
  O  O11  1  0.63809400  0.68903900  0.02065500  1
  O  O12  1  0.86190600  0.68903900  0.52065500  1
  O  O13  1  0.36190600  0.31096100  0.97934500  1
  O  O14  1  0.86190600  0.18903900  0.97934500  1
  O  O15  1  0.13809400  0.81096100  0.02065500  1
  O  O16  1  0.30565000  0.54278300  0.56353200  1
  O  O17  1  0.69435000  0.45721700  0.43646800  1
  O  O18  1  0.19435000  0.04278300  0.43646800  1
  O  O19  1  0.69435000  0.95721700  0.06353200  1
  O  O20  1  0.80565000  0.95721700  0.56353200  1
  O  O21  1  0.30565000  0.04278300  0.93646800  1
  O  O22  1  0.80565000  0.45721700  0.93646800  1
  O  O23  1  0.19435000  0.54278300  0.06353200  1
  O  O24  1  0.31422700  0.52616500  0.87387700  1
  O  O25  1  0.68577300  0.47383500  0.12612300  1
  O  O26  1  0.18577300  0.02616500  0.12612300  1
  O  O27  1  0.68577300  0.97383500  0.37387700  1
  O  O28  1  0.81422700  0.97383500  0.87387700  1
  O  O29  1  0.31422700  0.02616500  0.62612300  1
  O  O30  1  0.81422700  0.47383500  0.62612300  1
  O  O31  1  0.18577300  0.52616500  0.37387700  1
  O  O32  1  0.06386600  0.66977600  0.69820200  1
  O  O33  1  0.93613400  0.33022400  0.30179800  1
  O  O34  1  0.43613400  0.16977600  0.30179800  1
  O  O35  1  0.93613400  0.83022400  0.19820200  1
  O  O36  1  0.56386600  0.83022400  0.69820200  1
  O  O37  1  0.06386600  0.16977600  0.80179800  1
  O  O38  1  0.56386600  0.33022400  0.80179800  1
  O  O39  1  0.43613400  0.66977600  0.19820200  1
loop_
_geom_bond_atom_site_label_1
_geom_bond_atom_site_label_2
_geom_bond_distance
_geom_bond_site_symmetry_2
Ge0 O12 1.760224 1_455
Ge0 O16 1.785231 1_555
Ge0 O30 1.786969 1_455
Ge0 O32 1.795752 1_555
Ge1 O10 1.760224 1_655
Ge1 O17 1.785231 1_555
Ge1 O31 1.786969 1_655
Ge1 O33 1.795752 1_555
Ge2 O9 1.760224 1_555
Ge2 O18 1.785231 1_555
Ge2 O27 1.786969 1_545
Ge2 O34 1.795752 1_555
Ge3 O15 1.760224 1_655
Ge3 O19 1.785231 1_555
Ge3 O26 1.786969 1_665
Ge3 O35 1.795752 1_555
Ge4 O8 1.760224 1_555
Ge4 O20 1.785231 1_555
Ge4 O29 1.786969 1_565
Ge4 O36 1.795752 1_555
Ge5 O14 1.760224 1_455
Ge5 O21 1.785231 1_555
Ge5 O28 1.786969 1_445
Ge5 O37 1.795752 1_555
Ge6 O13 1.760224 1_555
Ge6 O22 1.785231 1_555
Ge6 O24 1.786969 1_555
Ge6 O38 1.795752 1_555
Ge7 O11 1.760224 1_555
Ge7 O23 1.785231 1_555
Ge7 O25 1.786969 1_555
Ge7 O39 1.795752 1_555
Bi0 O0 2.179087 1_555
Bi0 O4 2.289617 1_555
Bi0 O24 2.331629 1_555
Bi0 O36 2.337557 1_555
Bi0 O32 2.350395 1_555
Bi1 O1 2.179087 1_555
Bi1 O2 2.289617 1_555
Bi1 O25 2.331629 1_555
Bi1 O34 2.337557 1_555
Bi1 O33 2.350395 1_555
Bi2 O2 2.179087 1_555
Bi2 O1 2.289617 1_455
Bi2 O26 2.331629 1_555
Bi2 O33 2.337557 1_455
Bi2 O34 2.350395 1_555
Bi3 O3 2.179087 1_555
Bi3 O7 2.289617 1_555
Bi3 O27 2.331629 1_555
Bi3 O39 2.337557 1_555
Bi3 O35 2.350395 1_555
Bi4 O4 2.179087 1_555
Bi4 O0 2.289617 1_655
Bi4 O28 2.331629 1_555
Bi4 O32 2.337557 1_655
Bi4 O36 2.350395 1_555
Bi5 O5 2.179087 1_555
Bi5 O6 2.289617 1_555
Bi5 O29 2.331629 1_555
Bi5 O38 2.337557 1_555
Bi5 O37 2.350395 1_555
Bi6 O6 2.179087 1_555
Bi6 O5 2.289617 1_655
Bi6 O30 2.331629 1_555
Bi6 O37 2.337557 1_655
Bi6 O38 2.350395 1_555
Bi7 O7 2.179087 1_555
Bi7 O3 2.289617 1_455
Bi7 O31 2.331629 1_555
Bi7 O35 2.337557 1_455
Bi7 O39 2.350395 1_555
O0 Y4 2.321688 1_555
O0 Y0 2.423984 1_555
O1 Y2 2.321688 1_555
O1 Y1 2.423984 1_555
O2 Y1 2.321688 1_455
O2 Y2 2.423984 1_555
O3 Y7 2.321688 1_555
O3 Y3 2.423984 1_555
O4 Y0 2.321688 1_655
O4 Y4 2.423984 1_555
O5 Y6 2.321688 1_555
O5 Y5 2.423984 1_555
O6 Y5 2.321688 1_655
O6 Y6 2.423984 1_555
O7 Y3 2.321688 1_455
O7 Y7 2.423984 1_555
O8 Y7 2.327050 1_555
O8 Y3 2.367663 1_455
O9 Y6 2.327050 1_555
O9 Y5 2.367663 1_655
O10 Y5 2.327050 1_555
O10 Y6 2.367663 1_555
O11 Y4 2.327050 1_554
O11 Y0 2.367663 1_654
O12 Y3 2.327050 1_555
O12 Y7 2.367663 1_555
O13 Y2 2.327050 1_556
O13 Y1 2.367663 1_456
O14 Y1 2.327050 1_556
O14 Y2 2.367663 1_556
O15 Y0 2.327050 1_554
O15 Y4 2.367663 1_554
O16 Y6 2.338709 1_555
O16 Y7 2.340030 1_555
O17 Y7 2.338709 1_555
O17 Y6 2.340030 1_555
O18 Y3 2.338709 1_445
O18 Y5 2.340030 1_555
O19 Y2 2.338709 1_565
O19 Y4 2.340030 1_554
O20 Y5 2.338709 1_665
O20 Y3 2.340030 1_555
O21 Y4 2.338709 1_545
O21 Y2 2.340030 1_556
O22 Y0 2.338709 1_655
O22 Y1 2.340030 1_556
O23 Y1 2.338709 1_455
O23 Y0 2.340030 1_554
O24 Y0 2.378624 1_555
O25 Y1 2.378624 1_555
O26 Y2 2.378624 1_555
O27 Y3 2.378624 1_555
O28 Y4 2.378624 1_555
O29 Y5 2.378624 1_555
O30 Y6 2.378624 1_555
O31 Y7 2.378624 1_555
