# generated using pymatgen
data_Na2NdGeO5
_symmetry_space_group_name_H-M   'P 1'
_cell_length_a   6.83990100
_cell_length_b   7.60468700
_cell_length_c   9.57512000
_cell_angle_alpha   90.00000000
_cell_angle_beta   90.00000000
_cell_angle_gamma   90.00000000
_symmetry_Int_Tables_number   1
_chemical_formula_structural   Na2NdGeO5
_chemical_formula_sum   'Na8 Nd4 Ge4 O20'
_cell_volume   498.05279885
_cell_formula_units_Z   4
loop_
 _symmetry_equiv_pos_site_id
 _symmetry_equiv_pos_as_xyz
  1  'x, y, z'
loop_
 _atom_site_type_symbol
 _atom_site_label
 _atom_site_symmetry_multiplicity
 _atom_site_fract_x
 _atom_site_fract_y
 _atom_site_fract_z
 _atom_site_occupancy
  Na  Na0  1  0.36780100  0.03364000  0.17468600  1
  Na  Na1  1  0.13219900  0.46636000  0.67468600  1
  Na  Na2  1  0.63219900  0.53364000  0.82531400  1
  Na  Na3  1  0.86780100  0.96636000  0.32531400  1
  Na  Na4  1  0.63219900  0.96636000  0.82531400  1
  Na  Na5  1  0.86780100  0.53364000  0.32531400  1
  Na  Na6  1  0.36780100  0.46636000  0.17468600  1
  Na  Na7  1  0.13219900  0.03364000  0.67468600  1
  Nd  Nd0  1  0.87848900  0.25000000  0.04203000  1
  Nd  Nd1  1  0.62151100  0.25000000  0.54203000  1
  Nd  Nd2  1  0.12151100  0.75000000  0.95797000  1
  Nd  Nd3  1  0.37848900  0.75000000  0.45797000  1
  Ge  Ge0  1  0.32183900  0.25000000  0.90622100  1
  Ge  Ge1  1  0.17816100  0.25000000  0.40622100  1
  Ge  Ge2  1  0.67816100  0.75000000  0.09377900  1
  Ge  Ge3  1  0.82183900  0.75000000  0.59377900  1
  O  O0  1  0.16622200  0.06661100  0.93903500  1
  O  O1  1  0.33377800  0.43338900  0.43903500  1
  O  O2  1  0.83377800  0.56661100  0.06096500  1
  O  O3  1  0.66622200  0.93338900  0.56096500  1
  O  O4  1  0.83377800  0.93338900  0.06096500  1
  O  O5  1  0.66622200  0.56661100  0.56096500  1
  O  O6  1  0.16622200  0.43338900  0.93903500  1
  O  O7  1  0.33377800  0.06661100  0.43903500  1
  O  O8  1  0.52570400  0.25000000  0.01932700  1
  O  O9  1  0.97429600  0.25000000  0.51932700  1
  O  O10  1  0.47429600  0.75000000  0.98067300  1
  O  O11  1  0.02570400  0.75000000  0.48067300  1
  O  O12  1  0.38864200  0.25000000  0.72878400  1
  O  O13  1  0.11135800  0.25000000  0.22878400  1
  O  O14  1  0.61135800  0.75000000  0.27121600  1
  O  O15  1  0.88864200  0.75000000  0.77121600  1
  O  O16  1  0.78060300  0.25000000  0.78696500  1
  O  O17  1  0.71939700  0.25000000  0.28696500  1
  O  O18  1  0.21939700  0.75000000  0.21303500  1
  O  O19  1  0.28060300  0.75000000  0.71303500  1
loop_
_geom_bond_atom_site_label_1
_geom_bond_atom_site_label_2
_geom_bond_distance
_geom_bond_site_symmetry_2
Na0 O18 2.412015 1_545
Na0 O13 2.460116 1_555
Na0 O8 2.467096 1_555
Na0 O7 2.554185 1_555
Na0 O0 2.656160 1_554
Na0 O14 2.877876 1_545
Na0 O10 2.938409 1_544
Na1 O19 2.412015 1_555
Na1 O12 2.460116 1_555
Na1 O9 2.467096 1_455
Na1 O6 2.554185 1_555
Na1 O1 2.656160 1_555
Na1 O15 2.877876 1_455
Na1 O11 2.938409 1_555
Na2 O16 2.412015 1_555
Na2 O15 2.460116 1_555
Na2 O10 2.467096 1_555
Na2 O5 2.554185 1_555
Na2 O2 2.656160 1_556
Na2 O12 2.877876 1_555
Na2 O8 2.938409 1_556
Na3 O17 2.412015 1_565
Na3 O14 2.460116 1_555
Na3 O11 2.467096 1_655
Na3 O4 2.554185 1_555
Na3 O3 2.656160 1_555
Na3 O13 2.877876 1_665
Na3 O9 2.938409 1_565
Na4 O16 2.412015 1_565
Na4 O15 2.460116 1_555
Na4 O10 2.467096 1_555
Na4 O3 2.554185 1_555
Na4 O4 2.656160 1_556
Na4 O12 2.877876 1_565
Na4 O8 2.938409 1_566
Na5 O17 2.412015 1_555
Na5 O14 2.460116 1_555
Na5 O11 2.467096 1_655
Na5 O2 2.554185 1_555
Na5 O5 2.656160 1_555
Na5 O13 2.877876 1_655
Na5 O9 2.938409 1_555
Na6 O18 2.412015 1_555
Na6 O13 2.460116 1_555
Na6 O8 2.467096 1_555
Na6 O1 2.554185 1_555
Na6 O6 2.656160 1_554
Na6 O14 2.877876 1_555
Na6 O10 2.938409 1_554
Na7 O19 2.412015 1_545
Na7 O12 2.460116 1_555
Na7 O9 2.467096 1_455
Na7 O0 2.554185 1_555
Na7 O7 2.656160 1_555
Na7 O15 2.877876 1_445
Na7 O11 2.938409 1_545
Nd0 O13 2.394712 1_655
Nd0 O8 2.422787 1_555
Nd0 O4 2.433834 1_545
Nd0 O2 2.433834 1_555
Nd0 O16 2.532389 1_554
Nd0 O17 2.585434 1_555
Nd0 O0 2.605917 1_654
Nd0 O6 2.605917 1_654
Nd1 O12 2.394712 1_555
Nd1 O9 2.422787 1_555
Nd1 O3 2.433834 1_545
Nd1 O5 2.433834 1_555
Nd1 O17 2.532389 1_555
Nd1 O16 2.585434 1_555
Nd1 O7 2.605917 1_555
Nd1 O1 2.605917 1_555
Nd2 O15 2.394712 1_455
Nd2 O10 2.422787 1_555
Nd2 O6 2.433834 1_555
Nd2 O0 2.433834 1_565
Nd2 O18 2.532389 1_556
Nd2 O19 2.585434 1_555
Nd2 O4 2.605917 1_456
Nd2 O2 2.605917 1_456
Nd3 O14 2.394712 1_555
Nd3 O11 2.422787 1_555
Nd3 O7 2.433834 1_565
Nd3 O1 2.433834 1_555
Nd3 O19 2.532389 1_555
Nd3 O18 2.585434 1_555
Nd3 O3 2.605917 1_555
Nd3 O5 2.605917 1_555
Ge0 O12 1.759351 1_555
Ge0 O8 1.765586 1_556
Ge0 O0 1.782311 1_555
Ge0 O6 1.782311 1_555
Ge1 O13 1.759351 1_555
Ge1 O9 1.765586 1_455
Ge1 O1 1.782311 1_555
Ge1 O7 1.782311 1_555
Ge2 O14 1.759351 1_555
Ge2 O10 1.765586 1_554
Ge2 O2 1.782311 1_555
Ge2 O4 1.782311 1_555
Ge3 O15 1.759351 1_555
Ge3 O11 1.765586 1_655
Ge3 O3 1.782311 1_555
Ge3 O5 1.782311 1_555
