# generated using pymatgen
data_MoH12C2(S2N)2
_symmetry_space_group_name_H-M   'P 1'
_cell_length_a   7.16798600
_cell_length_b   9.58110700
_cell_length_c   16.26657900
_cell_angle_alpha   90.00000000
_cell_angle_beta   90.00000000
_cell_angle_gamma   90.00000000
_symmetry_Int_Tables_number   1
_chemical_formula_structural   MoH12C2(S2N)2
_chemical_formula_sum   'Mo4 H48 C8 S16 N8'
_cell_volume   1117.14376363
_cell_formula_units_Z   4
loop_
 _symmetry_equiv_pos_site_id
 _symmetry_equiv_pos_as_xyz
  1  'x, y, z'
loop_
 _atom_site_type_symbol
 _atom_site_label
 _atom_site_symmetry_multiplicity
 _atom_site_fract_x
 _atom_site_fract_y
 _atom_site_fract_z
 _atom_site_occupancy
  Mo  Mo0  1  0.25000000  0.24254700  0.45004500  1
  Mo  Mo1  1  0.25000000  0.74254700  0.04995500  1
  Mo  Mo2  1  0.75000000  0.75745300  0.54995500  1
  Mo  Mo3  1  0.75000000  0.25745300  0.95004500  1
  H  H0  1  0.25000000  0.03868900  0.59366400  1
  H  H1  1  0.25000000  0.53868900  0.90633600  1
  H  H2  1  0.75000000  0.96131100  0.40633600  1
  H  H3  1  0.75000000  0.46131100  0.09366400  1
  H  H4  1  0.36622600  0.88477300  0.60593600  1
  H  H5  1  0.13377400  0.38477300  0.89406400  1
  H  H6  1  0.86622600  0.11522700  0.39406400  1
  H  H7  1  0.63377400  0.61522700  0.10593600  1
  H  H8  1  0.63377400  0.11522700  0.39406400  1
  H  H9  1  0.86622600  0.61522700  0.10593600  1
  H  H10  1  0.13377400  0.88477300  0.60593600  1
  H  H11  1  0.36622600  0.38477300  0.89406400  1
  H  H12  1  0.25000000  0.76092900  0.43602300  1
  H  H13  1  0.25000000  0.26092900  0.06397700  1
  H  H14  1  0.75000000  0.23907100  0.56397700  1
  H  H15  1  0.75000000  0.73907100  0.93602300  1
  H  H16  1  0.13346600  0.60944500  0.43144400  1
  H  H17  1  0.36653400  0.10944500  0.06855600  1
  H  H18  1  0.63346600  0.39055500  0.56855600  1
  H  H19  1  0.86653400  0.89055500  0.93144400  1
  H  H20  1  0.86653400  0.39055500  0.56855600  1
  H  H21  1  0.63346600  0.89055500  0.93144400  1
  H  H22  1  0.36653400  0.60944500  0.43144400  1
  H  H23  1  0.13346600  0.10944500  0.06855600  1
  H  H24  1  0.25000000  0.86537700  0.74619400  1
  H  H25  1  0.25000000  0.36537700  0.75380600  1
  H  H26  1  0.75000000  0.13462300  0.25380600  1
  H  H27  1  0.75000000  0.63462300  0.24619400  1
  H  H28  1  0.12571000  0.02568900  0.73132000  1
  H  H29  1  0.37429000  0.52568900  0.76868000  1
  H  H30  1  0.62571000  0.97431100  0.26868000  1
  H  H31  1  0.87429000  0.47431100  0.23132000  1
  H  H32  1  0.87429000  0.97431100  0.26868000  1
  H  H33  1  0.62571000  0.47431100  0.23132000  1
  H  H34  1  0.37429000  0.02568900  0.73132000  1
  H  H35  1  0.12571000  0.52568900  0.76868000  1
  H  H36  1  0.25000000  0.56578900  0.29335700  1
  H  H37  1  0.25000000  0.06578900  0.20664300  1
  H  H38  1  0.75000000  0.43421100  0.70664300  1
  H  H39  1  0.75000000  0.93421100  0.79335700  1
  H  H40  1  0.37485800  0.72800100  0.29885200  1
  H  H41  1  0.12514200  0.22800100  0.20114800  1
  H  H42  1  0.87485800  0.27199900  0.70114800  1
  H  H43  1  0.62514200  0.77199900  0.79885200  1
  H  H44  1  0.62514200  0.27199900  0.70114800  1
  H  H45  1  0.87485800  0.77199900  0.79885200  1
  H  H46  1  0.12514200  0.72800100  0.29885200  1
  H  H47  1  0.37485800  0.22800100  0.20114800  1
  C  C0  1  0.25000000  0.96580000  0.71425800  1
  C  C1  1  0.25000000  0.46580000  0.78574200  1
  C  C2  1  0.75000000  0.03420000  0.28574200  1
  C  C3  1  0.75000000  0.53420000  0.21425800  1
  C  C4  1  0.25000000  0.67145000  0.31864700  1
  C  C5  1  0.25000000  0.17145000  0.18135300  1
  C  C6  1  0.75000000  0.32855000  0.68135300  1
  C  C7  1  0.75000000  0.82855000  0.81864700  1
  S  S0  1  0.25000000  0.02066700  0.41424600  1
  S  S1  1  0.25000000  0.52066700  0.08575400  1
  S  S2  1  0.75000000  0.97933300  0.58575400  1
  S  S3  1  0.75000000  0.47933300  0.91424600  1
  S  S4  1  0.25000000  0.26402300  0.58545000  1
  S  S5  1  0.25000000  0.76402300  0.91455000  1
  S  S6  1  0.75000000  0.73597700  0.41455000  1
  S  S7  1  0.75000000  0.23597700  0.08545000  1
  S  S8  1  0.00154300  0.34699700  0.40003500  1
  S  S9  1  0.49845700  0.84699700  0.09996500  1
  S  S10  1  0.50154300  0.65300300  0.59996500  1
  S  S11  1  0.99845700  0.15300300  0.90003500  1
  S  S12  1  0.99845700  0.65300300  0.59996500  1
  S  S13  1  0.50154300  0.15300300  0.90003500  1
  S  S14  1  0.49845700  0.34699700  0.40003500  1
  S  S15  1  0.00154300  0.84699700  0.09996500  1
  N  N0  1  0.25000000  0.94198800  0.62409000  1
  N  N1  1  0.25000000  0.44198800  0.87591000  1
  N  N2  1  0.75000000  0.05801200  0.37591000  1
  N  N3  1  0.75000000  0.55801200  0.12409000  1
  N  N4  1  0.25000000  0.66249900  0.41014900  1
  N  N5  1  0.25000000  0.16249900  0.08985100  1
  N  N6  1  0.75000000  0.33750100  0.58985100  1
  N  N7  1  0.75000000  0.83750100  0.91014900  1
loop_
_geom_bond_atom_site_label_1
_geom_bond_atom_site_label_2
_geom_bond_distance
_geom_bond_site_symmetry_2
Mo0 S14 2.198863 1_555
Mo0 S8 2.198863 1_555
Mo0 S0 2.204171 1_555
Mo0 S4 2.212166 1_555
Mo1 S9 2.198863 1_555
Mo1 S15 2.198863 1_555
Mo1 S1 2.204171 1_555
Mo1 S5 2.212166 1_554
Mo2 S12 2.198863 1_555
Mo2 S10 2.198863 1_555
Mo2 S2 2.204171 1_555
Mo2 S6 2.212166 1_555
Mo3 S11 2.198863 1_555
Mo3 S13 2.198863 1_555
Mo3 S3 2.204171 1_555
Mo3 S7 2.212166 1_556
H0 N0 1.050409 1_545
H1 N1 1.050409 1_555
H2 N2 1.050409 1_565
H3 N3 1.050409 1_555
H4 N0 1.040084 1_555
H5 N1 1.040084 1_555
H6 N2 1.040084 1_555
H7 N3 1.040084 1_555
H8 N2 1.040084 1_555
H9 N3 1.040084 1_555
H10 N0 1.040084 1_555
H11 N1 1.040084 1_555
H12 N4 1.032724 1_555
H13 N5 1.032724 1_555
H14 N6 1.032724 1_555
H15 N7 1.032724 1_555
H16 N4 1.037365 1_555
H17 N5 1.037365 1_555
H18 N6 1.037365 1_555
H19 N7 1.037365 1_555
H20 N6 1.037365 1_555
H21 N7 1.037365 1_555
H22 N4 1.037365 1_555
H23 N5 1.037365 1_555
C0 H24 1.093448 1_555
C0 H28 1.095444 1_565
C0 H34 1.095444 1_565
C0 N0 1.484363 1_555
C1 H25 1.093448 1_555
C1 H35 1.095444 1_555
C1 H29 1.095444 1_555
C1 N1 1.484363 1_555
C2 H26 1.093448 1_555
C2 H30 1.095444 1_545
C2 H32 1.095444 1_545
C2 N2 1.484363 1_555
C3 H27 1.093448 1_555
C3 H33 1.095444 1_555
C3 H31 1.095444 1_555
C3 N3 1.484363 1_555
C4 H36 1.092742 1_555
C4 H40 1.094642 1_555
C4 H46 1.094642 1_555
C4 N4 1.490893 1_555
C5 H37 1.092742 1_555
C5 H47 1.094642 1_555
C5 H41 1.094642 1_555
C5 N5 1.490893 1_555
C6 H38 1.092742 1_555
C6 H42 1.094642 1_555
C6 H44 1.094642 1_555
C6 N6 1.490893 1_555
C7 H39 1.092742 1_555
C7 H45 1.094642 1_555
C7 H43 1.094642 1_555
C7 N7 1.490893 1_555
