# generated using pymatgen
data_Ba10MgMn3V8(Cl3O7)4
_symmetry_space_group_name_H-M   'P 1'
_cell_length_a   5.82982600
_cell_length_b   13.57823000
_cell_length_c   16.06111466
_cell_angle_alpha   66.38328148
_cell_angle_beta   90.00000000
_cell_angle_gamma   90.00000000
_symmetry_Int_Tables_number   1
_chemical_formula_structural   Ba10MgMn3V8(Cl3O7)4
_chemical_formula_sum   'Ba10 Mg1 Mn3 V8 Cl12 O28'
_cell_volume   1164.89415722
_cell_formula_units_Z   1
loop_
 _symmetry_equiv_pos_site_id
 _symmetry_equiv_pos_as_xyz
  1  'x, y, z'
loop_
 _atom_site_type_symbol
 _atom_site_label
 _atom_site_symmetry_multiplicity
 _atom_site_fract_x
 _atom_site_fract_y
 _atom_site_fract_z
 _atom_site_occupancy
  Ba  Ba0  1  0.74762400  0.26409300  0.04432000  1
  Ba  Ba1  1  0.74762400  0.73590700  0.95568000  1
  Ba  Ba2  1  0.25236700  0.73617800  0.45570000  1
  Ba  Ba3  1  0.25236700  0.26382200  0.54430000  1
  Ba  Ba4  1  0.25146300  0.27117100  0.27196000  1
  Ba  Ba5  1  0.25146300  0.72882900  0.72804000  1
  Ba  Ba6  1  0.74853300  0.72904100  0.22779800  1
  Ba  Ba7  1  0.74853300  0.27095900  0.77220200  1
  Ba  Ba8  1  0.25397100  0.00000000  0.00000000  1
  Ba  Ba9  1  0.74602600  0.00000000  0.50000000  1
  Mg  Mg0  1  0.24998600  0.50000000  0.00000000  1
  Mn  Mn0  1  0.00004700  0.99999500  0.74999200  1
  Mn  Mn1  1  0.00004700  0.00000500  0.25000800  1
  Mn  Mn2  1  0.74958500  0.50000000  0.50000000  1
  V  V0  1  0.24798000  0.54933600  0.34405200  1
  V  V1  1  0.24798000  0.45066400  0.65594800  1
  V  V2  1  0.75216700  0.45075900  0.15498300  1
  V  V3  1  0.75216700  0.54924100  0.84501700  1
  V  V4  1  0.25069900  0.70521100  0.09846000  1
  V  V5  1  0.25069900  0.29478900  0.90154000  1
  V  V6  1  0.74931000  0.29385700  0.40075600  1
  V  V7  1  0.74931000  0.70614300  0.59924400  1
  Cl  Cl0  1  0.24339400  0.14837300  0.76332600  1
  Cl  Cl1  1  0.24339400  0.85162700  0.23667400  1
  Cl  Cl2  1  0.75656100  0.85158600  0.73668000  1
  Cl  Cl3  1  0.75656100  0.14841400  0.26332000  1
  Cl  Cl4  1  0.23159000  0.99812100  0.61356500  1
  Cl  Cl5  1  0.23159000  0.00187900  0.38643500  1
  Cl  Cl6  1  0.76839500  0.00189300  0.88644500  1
  Cl  Cl7  1  0.76839500  0.99810700  0.11355500  1
  Cl  Cl8  1  0.24436600  0.85495500  0.86175400  1
  Cl  Cl9  1  0.24436600  0.14504500  0.13824600  1
  Cl  Cl10  1  0.75564300  0.14504900  0.63827100  1
  Cl  Cl11  1  0.75564300  0.85495100  0.36172900  1
  O  O0  1  0.48364100  0.79047300  0.07195600  1
  O  O1  1  0.48364100  0.20952700  0.92804400  1
  O  O2  1  0.51573700  0.20904100  0.42798600  1
  O  O3  1  0.51573700  0.79095900  0.57201400  1
  O  O4  1  0.48627700  0.58695400  0.38981000  1
  O  O5  1  0.48627700  0.41304600  0.61019000  1
  O  O6  1  0.51233800  0.41458000  0.10880400  1
  O  O7  1  0.51233800  0.58542000  0.89119600  1
  O  O8  1  0.25179000  0.62418700  0.22141400  1
  O  O9  1  0.25179000  0.37581300  0.77858600  1
  O  O10  1  0.74826700  0.37602400  0.27791600  1
  O  O11  1  0.74826700  0.62397600  0.72208400  1
  O  O12  1  0.00727200  0.58576600  0.38904600  1
  O  O13  1  0.00727200  0.41423400  0.61095400  1
  O  O14  1  0.99426900  0.41587500  0.10939400  1
  O  O15  1  0.99426900  0.58412500  0.89060600  1
  O  O16  1  0.24987100  0.41576100  0.36849800  1
  O  O17  1  0.24987100  0.58423900  0.63150200  1
  O  O18  1  0.75013100  0.58395100  0.13165700  1
  O  O19  1  0.75013100  0.41604900  0.86834300  1
  O  O20  1  0.25326000  0.63076700  0.03397800  1
  O  O21  1  0.25326000  0.36923300  0.96602200  1
  O  O22  1  0.74663300  0.36713500  0.46619100  1
  O  O23  1  0.74663300  0.63286500  0.53380900  1
  O  O24  1  0.01566200  0.78830800  0.07258300  1
  O  O25  1  0.01566200  0.21169200  0.92741700  1
  O  O26  1  0.98492500  0.21122500  0.42736400  1
  O  O27  1  0.98492500  0.78877500  0.57263600  1
loop_
_geom_bond_atom_site_label_1
_geom_bond_atom_site_label_2
_geom_bond_distance
_geom_bond_site_symmetry_2
Ba0 O1 2.741107 1_554
Ba0 O25 2.746591 1_654
Ba0 O19 2.751969 1_554
Ba0 O6 2.970695 1_555
Ba0 O14 3.022119 1_555
Ba0 Cl3 3.227258 1_555
Ba0 O21 3.238413 1_554
Ba0 O21 3.297032 1_654
Ba0 Cl7 3.328236 1_545
Ba0 Cl9 3.364701 1_655
Ba0 Cl9 3.397451 1_555
Ba1 O0 2.741107 1_556
Ba1 O24 2.746591 1_656
Ba1 O18 2.751969 1_556
Ba1 O7 2.970695 1_555
Ba1 O15 3.022119 1_555
Ba1 Cl2 3.227258 1_555
Ba1 O20 3.238413 1_556
Ba1 O20 3.297032 1_656
Ba1 Cl6 3.328236 1_565
Ba1 Cl8 3.364701 1_655
Ba1 Cl8 3.397451 1_555
Ba2 O3 2.741173 1_555
Ba2 O27 2.746453 1_455
Ba2 O17 2.749849 1_555
Ba2 O4 2.966987 1_555
Ba2 O12 3.018378 1_555
Ba2 Cl1 3.227480 1_555
Ba2 O23 3.230262 1_555
Ba2 O23 3.290038 1_455
Ba2 Cl5 3.324508 1_565
Ba2 Cl11 3.363675 1_455
Ba2 Cl11 3.396615 1_555
Ba3 O2 2.741173 1_555
Ba3 O26 2.746453 1_455
Ba3 O16 2.749849 1_555
Ba3 O5 2.966987 1_555
Ba3 O13 3.018378 1_555
Ba3 Cl0 3.227480 1_555
Ba3 O22 3.230262 1_555
Ba3 O22 3.290038 1_455
Ba3 Cl4 3.324508 1_545
Ba3 Cl10 3.363675 1_455
Ba3 Cl10 3.396615 1_555
Ba4 O2 2.769710 1_555
Ba4 O26 2.771114 1_455
Ba4 O16 2.949174 1_555
Ba4 O14 2.969101 1_455
Ba4 O6 2.980463 1_555
Ba4 Cl9 3.239387 1_555
Ba4 O10 3.245565 1_555
Ba4 O10 3.278862 1_455
Ba4 Cl3 3.362621 1_455
Ba4 Cl5 3.373033 1_555
Ba4 Cl3 3.413759 1_555
Ba5 O3 2.769710 1_555
Ba5 O27 2.771114 1_455
Ba5 O17 2.949174 1_555
Ba5 O15 2.969101 1_455
Ba5 O7 2.980463 1_555
Ba5 Cl8 3.239387 1_555
Ba5 O11 3.245565 1_555
Ba5 O11 3.278862 1_455
Ba5 Cl2 3.362621 1_455
Ba5 Cl4 3.373033 1_555
Ba5 Cl2 3.413759 1_555
Ba6 O0 2.769966 1_555
Ba6 O24 2.771303 1_655
Ba6 O18 2.950080 1_555
Ba6 O12 2.954704 1_655
Ba6 O4 2.967872 1_555
Ba6 Cl11 3.240109 1_555
Ba6 O8 3.246671 1_555
Ba6 O8 3.280589 1_655
Ba6 Cl1 3.362137 1_655
Ba6 Cl7 3.369962 1_555
Ba6 Cl1 3.413691 1_555
Ba7 O1 2.769966 1_555
Ba7 O25 2.771303 1_655
Ba7 O19 2.950080 1_555
Ba7 O13 2.954704 1_655
Ba7 O5 2.967872 1_555
Ba7 Cl10 3.240109 1_555
Ba7 O9 3.246671 1_555
Ba7 O9 3.280589 1_655
Ba7 Cl0 3.362137 1_655
Ba7 Cl6 3.369962 1_555
Ba7 Cl0 3.413691 1_555
Ba8 O1 2.930532 1_554
Ba8 O0 2.930532 1_545
Ba8 O25 2.977670 1_554
Ba8 O24 2.977670 1_545
Ba8 Cl6 3.361991 1_454
Ba8 Cl7 3.361991 1_445
Ba8 Cl6 3.504773 1_554
Ba8 Cl7 3.504773 1_545
Ba8 Cl8 3.509379 1_544
Ba8 Cl9 3.509379 1_555
Ba8 Cl1 3.517969 1_545
Ba8 Cl0 3.517969 1_554
Ba9 O3 2.926830 1_545
Ba9 O2 2.926830 1_555
Ba9 O26 2.974160 1_555
Ba9 O27 2.974160 1_545
Ba9 Cl5 3.362058 1_655
Ba9 Cl4 3.362058 1_645
Ba9 Cl5 3.504954 1_555
Ba9 Cl4 3.504954 1_545
Ba9 Cl11 3.509769 1_545
Ba9 Cl10 3.509769 1_555
Ba9 Cl2 3.518125 1_545
Ba9 Cl3 3.518125 1_555
Mg0 O20 2.056030 1_555
Mg0 O21 2.056030 1_554
Mg0 O15 2.237453 1_454
Mg0 O14 2.237453 1_455
Mg0 O6 2.261492 1_555
Mg0 O7 2.261492 1_554
Mn2 O23 2.082004 1_555
Mn2 O22 2.082004 1_555
Mn2 O12 2.264044 1_655
Mn2 O13 2.264044 1_655
Mn2 O4 2.282159 1_555
Mn2 O5 2.282159 1_555
Cl0 Mn0 2.542293 1_545
Cl1 Mn1 2.542293 1_565
Cl2 Mn0 2.542952 1_655
Cl3 Mn1 2.542952 1_655
Cl4 Mn0 2.582374 1_555
Cl5 Mn1 2.582374 1_555
Cl6 Mn0 2.583176 1_645
Cl7 Mn1 2.583176 1_665
Cl8 Mn0 2.509361 1_555
Cl9 Mn1 2.509361 1_555
Cl10 Mn0 2.509473 1_645
Cl11 Mn1 2.509473 1_665
O0 V4 1.723608 1_555
O1 V5 1.723608 1_555
O2 V6 1.722851 1_555
O3 V7 1.722851 1_555
O4 V0 1.741192 1_555
O5 V1 1.741192 1_555
O6 V2 1.743045 1_555
O7 V3 1.743045 1_555
O8 V0 1.819119 1_555
O8 V4 1.835595 1_555
O9 V1 1.819119 1_555
O9 V5 1.835595 1_555
O10 V2 1.823003 1_555
O10 V6 1.836749 1_555
O11 V3 1.823003 1_555
O11 V7 1.836749 1_555
O12 V0 1.738544 1_555
O13 V1 1.738544 1_555
O14 V2 1.740821 1_555
O15 V3 1.740821 1_555
O16 V0 1.695069 1_555
O17 V1 1.695069 1_555
O18 V2 1.693618 1_555
O19 V3 1.693618 1_555
O20 V4 1.712696 1_555
O21 V5 1.712696 1_555
O22 V6 1.712482 1_555
O23 V7 1.712482 1_555
O24 V4 1.716859 1_555
O25 V5 1.716859 1_555
O26 V6 1.715834 1_555
O27 V7 1.715834 1_555
