# generated using pymatgen
data_GdHoIr2
_symmetry_space_group_name_H-M   'P 1'
_cell_length_a   4.86166035
_cell_length_b   4.86166035
_cell_length_c   4.86166035
_cell_angle_alpha   60.00000000
_cell_angle_beta   60.00000000
_cell_angle_gamma   60.00000000
_symmetry_Int_Tables_number   1
_chemical_formula_structural   GdHoIr2
_chemical_formula_sum   'Gd1 Ho1 Ir2'
_cell_volume   81.25289527
_cell_formula_units_Z   1
loop_
 _symmetry_equiv_pos_site_id
 _symmetry_equiv_pos_as_xyz
  1  'x, y, z'
loop_
 _atom_site_type_symbol
 _atom_site_label
 _atom_site_symmetry_multiplicity
 _atom_site_fract_x
 _atom_site_fract_y
 _atom_site_fract_z
 _atom_site_occupancy
  Gd  Gd0  1  0.50000000  0.50000000  0.50000000  1
  Ho  Ho0  1  0.00000000  0.00000000  0.00000000  1
  Ir  Ir0  1  0.25000000  0.25000000  0.25000000  1
  Ir  Ir1  1  0.75000000  0.75000000  0.75000000  1
loop_
_geom_bond_atom_site_label_1
_geom_bond_atom_site_label_2
_geom_bond_distance
_geom_bond_site_symmetry_2
Gd0 Ir0 2.977147 1_556
Gd0 Ir0 2.977147 1_565
Gd0 Ir0 2.977147 1_655
Gd0 Ir1 2.977147 1_455
Gd0 Ir1 2.977147 1_554
Gd0 Ir0 2.977147 1_555
Gd0 Ir1 2.977147 1_545
Gd0 Ir1 2.977147 1_555
Ho0 Ir0 2.977147 1_455
Ho0 Ir1 2.977147 1_454
Ho0 Ir0 2.977147 1_545
Ho0 Ir0 2.977147 1_554
Ho0 Ir0 2.977147 1_555
Ho0 Ir1 2.977147 1_544
Ho0 Ir1 2.977147 1_444
Ho0 Ir1 2.977147 1_445
