# generated using pymatgen
data_SmNbO4
_symmetry_space_group_name_H-M   'P 1'
_cell_length_a   5.16685510
_cell_length_b   5.42235539
_cell_length_c   6.67082594
_cell_angle_alpha   112.21114289
_cell_angle_beta   110.93861354
_cell_angle_gamma   94.21148159
_symmetry_Int_Tables_number   1
_chemical_formula_structural   SmNbO4
_chemical_formula_sum   'Sm2 Nb2 O8'
_cell_volume   156.82944603
_cell_formula_units_Z   2
loop_
 _symmetry_equiv_pos_site_id
 _symmetry_equiv_pos_as_xyz
  1  'x, y, z'
loop_
 _atom_site_type_symbol
 _atom_site_label
 _atom_site_symmetry_multiplicity
 _atom_site_fract_x
 _atom_site_fract_y
 _atom_site_fract_z
 _atom_site_occupancy
  Sm  Sm0  1  0.37879078  0.62879797  0.75768500  1
  Sm  Sm1  1  0.62120922  0.37120203  0.24231500  1
  Nb  Nb0  1  0.85585577  0.10589851  0.71190001  1
  Nb  Nb1  1  0.14414423  0.89410149  0.28809999  1
  O  O0  1  0.98688556  0.78778619  0.56420115  1
  O  O1  1  0.57721825  0.27631171  0.56411562  1
  O  O2  1  0.01311444  0.21221381  0.43579885  1
  O  O3  1  0.42278075  0.72368829  0.43588438  1
  O  O4  1  0.20472347  0.36532858  0.91834133  1
  O  O5  1  0.71349193  0.05295006  0.91838990  1
  O  O6  1  0.79527653  0.63467142  0.08165867  1
  O  O7  1  0.28650807  0.94704994  0.08161010  1
loop_
_geom_bond_atom_site_label_1
_geom_bond_atom_site_label_2
_geom_bond_distance
_geom_bond_site_symmetry_2
Nb0 O5 1.874313 1_555
Nb0 O4 1.874368 1_655
Nb0 O0 1.941089 1_545
Nb0 O1 1.941162 1_555
Nb0 O3 2.486261 1_545
Nb0 O2 2.487655 1_655
Nb1 O7 1.874313 1_555
Nb1 O6 1.874368 1_455
Nb1 O2 1.941089 1_565
Nb1 O3 1.941159 1_555
Nb1 O1 2.486258 1_565
Nb1 O0 2.487655 1_455
O0 Sm0 2.395628 1_655
O0 Sm1 2.467666 1_555
O1 Sm0 2.395767 1_555
O1 Sm1 2.468046 1_555
O2 Sm1 2.395628 1_455
O2 Sm0 2.467666 1_555
O3 Sm1 2.395771 1_555
O3 Sm0 2.468044 1_555
O4 Sm0 2.378270 1_555
O4 Sm1 2.432353 1_556
O5 Sm0 2.378267 1_545
O5 Sm1 2.431585 1_556
O6 Sm1 2.378270 1_555
O6 Sm0 2.432353 1_554
O7 Sm1 2.378267 1_565
O7 Sm0 2.431585 1_554
