# generated using pymatgen
data_HfTa5B4
_symmetry_space_group_name_H-M   'P 1'
_cell_length_a   3.31477000
_cell_length_b   6.26121100
_cell_length_c   6.26121100
_cell_angle_alpha   90.00000000
_cell_angle_beta   90.00000000
_cell_angle_gamma   90.00000000
_symmetry_Int_Tables_number   1
_chemical_formula_structural   HfTa5B4
_chemical_formula_sum   'Hf1 Ta5 B4'
_cell_volume   129.94814333
_cell_formula_units_Z   1
loop_
 _symmetry_equiv_pos_site_id
 _symmetry_equiv_pos_as_xyz
  1  'x, y, z'
loop_
 _atom_site_type_symbol
 _atom_site_label
 _atom_site_symmetry_multiplicity
 _atom_site_fract_x
 _atom_site_fract_y
 _atom_site_fract_z
 _atom_site_occupancy
  Hf  Hf0  1  0.00000000  0.50000000  0.50000000  1
  Ta  Ta0  1  0.50000000  0.17287800  0.67881300  1
  Ta  Ta1  1  0.50000000  0.82712200  0.32118700  1
  Ta  Ta2  1  0.50000000  0.32118700  0.17287800  1
  Ta  Ta3  1  0.50000000  0.67881300  0.82712200  1
  Ta  Ta4  1  0.00000000  0.00000000  0.00000000  1
  B  B0  1  0.00000000  0.60688900  0.10511200  1
  B  B1  1  0.00000000  0.39311100  0.89488800  1
  B  B2  1  0.00000000  0.89488800  0.60688900  1
  B  B3  1  0.00000000  0.10511200  0.39311100  1
loop_
_geom_bond_atom_site_label_1
_geom_bond_atom_site_label_2
_geom_bond_distance
_geom_bond_site_symmetry_2
B0 B1 1.877269 1_554
B0 Ta3 2.445251 1_454
B0 Ta3 2.445251 1_554
B0 Ta2 2.475258 1_455
B0 Ta2 2.475258 1_555
B0 Ta1 2.545324 1_455
B0 Ta1 2.545324 1_555
B0 Ta4 2.547819 1_565
B0 Hf0 2.561454 1_555
B1 Ta2 2.445251 1_556
B1 Ta2 2.445251 1_456
B1 Ta3 2.475258 1_455
B1 Ta3 2.475258 1_555
B1 Ta0 2.545324 1_555
B1 Ta0 2.545324 1_455
B1 Ta4 2.547819 1_556
B1 Hf0 2.561454 1_555
B2 B3 1.877269 1_565
B2 Ta0 2.445251 1_565
B2 Ta0 2.445251 1_465
B2 Ta1 2.475258 1_455
B2 Ta1 2.475258 1_555
B2 Ta3 2.545324 1_455
B2 Ta3 2.545324 1_555
B2 Ta4 2.547819 1_566
B2 Hf0 2.561454 1_555
B3 Ta1 2.445251 1_545
B3 Ta1 2.445251 1_445
B3 Ta0 2.475258 1_455
B3 Ta0 2.475258 1_555
B3 Ta2 2.545324 1_555
B3 Ta2 2.545324 1_455
B3 Ta4 2.547819 1_555
B3 Hf0 2.561454 1_555
