# generated using pymatgen
data_CsCoH24(C7N4)2
_symmetry_space_group_name_H-M   'P 1'
_cell_length_a   9.52696312
_cell_length_b   9.52696312
_cell_length_c   9.53845341
_cell_angle_alpha   60.57652998
_cell_angle_beta   60.57652998
_cell_angle_gamma   60.15551150
_symmetry_Int_Tables_number   1
_chemical_formula_structural   CsCoH24(C7N4)2
_chemical_formula_sum   'Cs1 Co1 H24 C14 N8'
_cell_volume   618.18513669
_cell_formula_units_Z   1
loop_
 _symmetry_equiv_pos_site_id
 _symmetry_equiv_pos_as_xyz
  1  'x, y, z'
loop_
 _atom_site_type_symbol
 _atom_site_label
 _atom_site_symmetry_multiplicity
 _atom_site_fract_x
 _atom_site_fract_y
 _atom_site_fract_z
 _atom_site_occupancy
  Cs  Cs0  1  0.50000000  0.50000000  0.50000000  1
  Co  Co0  1  0.00000000  0.00000000  0.00000000  1
  H  H0  1  0.24418000  0.24418000  0.48026800  1
  H  H1  1  0.75582000  0.75582000  0.51973200  1
  H  H2  1  0.25147300  0.44039200  0.30419500  1
  H  H3  1  0.55960800  0.74852700  0.69580500  1
  H  H4  1  0.74852700  0.55960800  0.69580500  1
  H  H5  1  0.44039200  0.25147300  0.30419500  1
  H  H6  1  0.28480100  0.28480100  0.00418000  1
  H  H7  1  0.71519900  0.71519900  0.99582000  1
  H  H8  1  0.27499600  0.46362100  0.03200800  1
  H  H9  1  0.53637900  0.72500400  0.96799200  1
  H  H10  1  0.72500400  0.53637900  0.96799200  1
  H  H11  1  0.46362100  0.27499600  0.03200800  1
  H  H12  1  0.00489500  0.25959400  0.43989700  1
  H  H13  1  0.74040600  0.99510500  0.56010300  1
  H  H14  1  0.99510500  0.74040600  0.56010300  1
  H  H15  1  0.25959400  0.00489500  0.43989700  1
  H  H16  1  0.02402000  0.27825400  0.23424100  1
  H  H17  1  0.72174600  0.97598000  0.76575900  1
  H  H18  1  0.97598000  0.72174600  0.76575900  1
  H  H19  1  0.27825400  0.02402000  0.23424100  1
  H  H20  1  0.01556200  0.45531700  0.26446200  1
  H  H21  1  0.54468300  0.98443800  0.73553800  1
  H  H22  1  0.98443800  0.54468300  0.73553800  1
  H  H23  1  0.45531700  0.01556200  0.26446200  1
  C  C0  1  0.13861200  0.13861200  0.87185400  1
  C  C1  1  0.86138800  0.86138800  0.12814600  1
  C  C2  1  0.86368300  0.14361700  0.85722500  1
  C  C3  1  0.85638300  0.13631700  0.14277500  1
  C  C4  1  0.13631700  0.85638300  0.14277500  1
  C  C5  1  0.14361700  0.86368300  0.85722500  1
  C  C6  1  0.30022600  0.30022600  0.34272800  1
  C  C7  1  0.69977400  0.69977400  0.65727200  1
  C  C8  1  0.32418600  0.32418600  0.06575300  1
  C  C9  1  0.67581400  0.67581400  0.93424700  1
  C  C10  1  0.05855400  0.31555300  0.30184200  1
  C  C11  1  0.68444700  0.94144600  0.69815800  1
  C  C12  1  0.94144600  0.68444700  0.69815800  1
  C  C13  1  0.31555300  0.05855400  0.30184200  1
  N  N0  1  0.22531600  0.22531600  0.79117400  1
  N  N1  1  0.77468400  0.77468400  0.20882600  1
  N  N2  1  0.77813200  0.23368500  0.76839100  1
  N  N3  1  0.76631500  0.22186800  0.23160900  1
  N  N4  1  0.22186800  0.76631500  0.23160900  1
  N  N5  1  0.23368500  0.77813200  0.76839100  1
  N  N6  1  0.24928200  0.24928200  0.25377900  1
  N  N7  1  0.75071800  0.75071800  0.74622100  1
loop_
_geom_bond_atom_site_label_1
_geom_bond_atom_site_label_2
_geom_bond_distance
_geom_bond_site_symmetry_2
Cs0 N5 3.688379 1_555
Cs0 N2 3.688379 1_555
Cs0 N3 3.688379 1_555
Cs0 N4 3.688379 1_555
Cs0 N1 3.734163 1_555
Cs0 N0 3.734163 1_555
C0 N0 1.177640 1_555
C0 Co0 1.882972 1_556
C1 N1 1.177640 1_555
C1 Co0 1.882972 1_665
C2 N2 1.177568 1_555
C2 Co0 1.884593 1_656
C3 N3 1.177568 1_555
C3 Co0 1.884593 1_655
C4 N4 1.177568 1_555
C4 Co0 1.884593 1_565
C5 N5 1.177568 1_555
C5 Co0 1.884593 1_566
C6 H0 1.094800 1_555
C6 H2 1.096443 1_555
C6 H5 1.096443 1_555
C6 N6 1.494849 1_555
C7 H1 1.094800 1_555
C7 H3 1.096443 1_555
C7 H4 1.096443 1_555
C7 N7 1.494849 1_555
C8 H11 1.093777 1_555
C8 H8 1.093777 1_555
C8 H6 1.095298 1_555
C8 N6 1.492292 1_555
C9 H9 1.093777 1_555
C9 H10 1.093777 1_555
C9 H7 1.095298 1_555
C9 N7 1.492292 1_555
C10 H12 1.095299 1_555
C10 H16 1.095544 1_555
C10 H20 1.096390 1_555
C10 N6 1.494855 1_555
C11 H13 1.095299 1_555
C11 H17 1.095544 1_555
C11 H21 1.096390 1_555
C11 N7 1.494855 1_555
C12 H14 1.095299 1_555
C12 H18 1.095544 1_555
C12 H22 1.096390 1_555
C12 N7 1.494855 1_555
C13 H15 1.095299 1_555
C13 H19 1.095544 1_555
C13 H23 1.096390 1_555
C13 N6 1.494855 1_555
