# generated using pymatgen
data_Cs2U(PtS2)3
_symmetry_space_group_name_H-M   'P 1'
_cell_length_a   11.48446389
_cell_length_b   9.88283821
_cell_length_c   9.10081182
_cell_angle_alpha   74.32456612
_cell_angle_beta   55.94847077
_cell_angle_gamma   49.72696312
_symmetry_Int_Tables_number   1
_chemical_formula_structural   Cs2U(PtS2)3
_chemical_formula_sum   'Cs4 U2 Pt6 S12'
_cell_volume   646.05039099
_cell_formula_units_Z   2
loop_
 _symmetry_equiv_pos_site_id
 _symmetry_equiv_pos_as_xyz
  1  'x, y, z'
loop_
 _atom_site_type_symbol
 _atom_site_label
 _atom_site_symmetry_multiplicity
 _atom_site_fract_x
 _atom_site_fract_y
 _atom_site_fract_z
 _atom_site_occupancy
  Cs  Cs0  1  0.75000000  0.75000000  0.75000000  1
  Cs  Cs1  1  0.25000000  0.25000000  0.25000000  1
  Cs  Cs2  1  0.30848735  0.69151265  0.30848735  1
  Cs  Cs3  1  0.69151265  0.30848735  0.69151265  1
  U  U0  1  0.83301574  0.83301574  0.16698426  1
  U  U1  1  0.16698426  0.16698426  0.83301574  1
  Pt  Pt0  1  0.50304131  0.17550596  0.49695869  1
  Pt  Pt1  1  0.82449404  0.49695869  0.17550596  1
  Pt  Pt2  1  0.49695869  0.82449404  0.50304131  1
  Pt  Pt3  1  0.17550596  0.50304131  0.82449404  1
  Pt  Pt4  1  0.82769224  0.17230776  0.17230776  1
  Pt  Pt5  1  0.17230776  0.82769224  0.82769224  1
  S  S0  1  0.81087053  0.98896593  0.39757807  1
  S  S1  1  0.80258447  0.39757807  0.98896593  1
  S  S2  1  0.39757807  0.80258447  0.81087053  1
  S  S3  1  0.98896593  0.81087053  0.80258447  1
  S  S4  1  0.18912947  0.01103407  0.60242193  1
  S  S5  1  0.19741553  0.60242193  0.01103407  1
  S  S6  1  0.60242193  0.19741553  0.18912947  1
  S  S7  1  0.01103407  0.18912947  0.19741553  1
  S  S8  1  0.80360705  0.59749596  0.40250404  1
  S  S9  1  0.19639295  0.40250404  0.59749596  1
  S  S10  1  0.40250404  0.19639295  0.80360705  1
  S  S11  1  0.59749596  0.80360705  0.19639295  1
loop_
_geom_bond_atom_site_label_1
_geom_bond_atom_site_label_2
_geom_bond_distance
_geom_bond_site_symmetry_2
Cs0 S10 3.442036 1_565
Cs0 S11 3.442036 1_556
Cs0 S8 3.442036 1_555
Cs0 S9 3.442036 1_655
Cs0 S3 3.447238 1_555
Cs0 S0 3.447243 1_555
Cs0 S1 3.447245 1_555
Cs0 S2 3.447249 1_555
Cs1 S8 3.442036 1_455
Cs1 S11 3.442036 1_545
Cs1 S10 3.442036 1_554
Cs1 S9 3.442036 1_555
Cs1 S7 3.447238 1_555
Cs1 S4 3.447243 1_555
Cs1 S5 3.447245 1_555
Cs1 S6 3.447249 1_555
Cs2 S9 3.692645 1_555
Cs2 S11 3.692645 1_555
Cs2 S6 3.724025 1_555
Cs2 S3 3.724026 1_455
Cs2 S1 3.724026 1_554
Cs2 S4 3.724033 1_565
Cs2 S5 4.041992 1_555
Cs2 S7 4.041998 1_565
Cs2 S2 4.042000 1_554
Cs2 S0 4.042002 1_455
Cs3 S10 3.692645 1_555
Cs3 S8 3.692645 1_555
Cs3 S2 3.724025 1_555
Cs3 S7 3.724026 1_655
Cs3 S5 3.724026 1_556
Cs3 S0 3.724033 1_545
Cs3 S1 4.041992 1_555
Cs3 S3 4.041998 1_545
Cs3 S6 4.042000 1_556
Cs3 S4 4.042002 1_655
Pt0 S9 2.357683 1_555
Pt0 S10 2.357683 1_555
Pt0 S0 2.368306 1_545
Pt0 S6 2.368307 1_555
Pt1 S8 2.357683 1_555
Pt1 S11 2.357683 1_555
Pt1 S7 2.368309 1_655
Pt1 S1 2.368315 1_554
Pt2 S11 2.357683 1_555
Pt2 S8 2.357683 1_555
Pt2 S4 2.368306 1_565
Pt2 S2 2.368307 1_555
Pt3 S9 2.357683 1_555
Pt3 S10 2.357683 1_555
Pt3 S3 2.368309 1_455
Pt3 S5 2.368315 1_556
Pt4 S6 2.350567 1_555
Pt4 S1 2.350572 1_554
Pt4 S0 2.350573 1_545
Pt4 S7 2.350579 1_655
Pt5 S2 2.350567 1_555
Pt5 S5 2.350572 1_556
Pt5 S4 2.350573 1_565
Pt5 S3 2.350579 1_455
S0 U0 2.736325 1_555
S1 U1 2.736333 1_655
S2 U1 2.736332 1_565
S3 U0 2.736333 1_556
S4 U1 2.736325 1_555
S5 U0 2.736333 1_455
S6 U0 2.736332 1_545
S7 U1 2.736333 1_554
S8 U0 2.763289 1_555
S9 U1 2.763289 1_555
S10 U1 2.763289 1_555
S11 U0 2.763289 1_555
