# generated using pymatgen
data_BPd4
_symmetry_space_group_name_H-M   'P 1'
_cell_length_a   8.73001559
_cell_length_b   5.78405994
_cell_length_c   11.71263000
_cell_angle_alpha   90.00000000
_cell_angle_beta   90.00000000
_cell_angle_gamma   90.01727593
_symmetry_Int_Tables_number   1
_chemical_formula_structural   BPd4
_chemical_formula_sum   'B8 Pd32'
_cell_volume   591.42844562
_cell_formula_units_Z   8
loop_
 _symmetry_equiv_pos_site_id
 _symmetry_equiv_pos_as_xyz
  1  'x, y, z'
loop_
 _atom_site_type_symbol
 _atom_site_label
 _atom_site_symmetry_multiplicity
 _atom_site_fract_x
 _atom_site_fract_y
 _atom_site_fract_z
 _atom_site_occupancy
  B  B0_0  1  0.12500000  0.25000000  0.06838650  1
  B  B0_1  1  0.12500000  0.25000000  0.56838650  1
  B  B0_2  1  0.12500000  0.75000000  0.06838650  1
  B  B0_3  1  0.12500000  0.75000000  0.56838650  1
  B  B0_4  1  0.62500000  0.25000000  0.06838650  1
  B  B0_5  1  0.62500000  0.25000000  0.56838650  1
  B  B0_6  1  0.62500000  0.75000000  0.06838650  1
  B  B0_7  1  0.62500000  0.75000000  0.56838650  1
  Pd  Pd0_0  1  0.37500000  0.25000000  0.06621950  1
  Pd  Pd0_1  1  0.37500000  0.25000000  0.56621950  1
  Pd  Pd0_2  1  0.37500000  0.75000000  0.06621950  1
  Pd  Pd0_3  1  0.37500000  0.75000000  0.56621950  1
  Pd  Pd0_4  1  0.87500000  0.25000000  0.06621950  1
  Pd  Pd0_5  1  0.87500000  0.25000000  0.56621950  1
  Pd  Pd0_6  1  0.87500000  0.75000000  0.06621950  1
  Pd  Pd0_7  1  0.87500000  0.75000000  0.56621950  1
  Pd  Pd1_0  1  0.37500000  0.00000000  0.33541800  1
  Pd  Pd1_1  1  0.37500000  0.00000000  0.83541800  1
  Pd  Pd1_2  1  0.37500000  0.50000000  0.33541800  1
  Pd  Pd1_3  1  0.37500000  0.50000000  0.83541800  1
  Pd  Pd1_4  1  0.87500000  0.00000000  0.33541800  1
  Pd  Pd1_5  1  0.87500000  0.00000000  0.83541800  1
  Pd  Pd1_6  1  0.87500000  0.50000000  0.33541800  1
  Pd  Pd1_7  1  0.87500000  0.50000000  0.83541800  1
  Pd  Pd2_0  1  0.12500000  0.00000000  0.19026500  1
  Pd  Pd2_1  1  0.12500000  0.00000000  0.69026500  1
  Pd  Pd2_2  1  0.12500000  0.50000000  0.19026500  1
  Pd  Pd2_3  1  0.12500000  0.50000000  0.69026500  1
  Pd  Pd2_4  1  0.62500000  0.00000000  0.19026500  1
  Pd  Pd2_5  1  0.62500000  0.00000000  0.69026500  1
  Pd  Pd2_6  1  0.62500000  0.50000000  0.19026500  1
  Pd  Pd2_7  1  0.62500000  0.50000000  0.69026500  1
  Pd  Pd3_0  1  0.12500000  0.25000000  0.40121100  1
  Pd  Pd3_1  1  0.12500000  0.25000000  0.90121100  1
  Pd  Pd3_2  1  0.12500000  0.75000000  0.40121100  1
  Pd  Pd3_3  1  0.12500000  0.75000000  0.90121100  1
  Pd  Pd3_4  1  0.62500000  0.25000000  0.40121100  1
  Pd  Pd3_5  1  0.62500000  0.25000000  0.90121100  1
  Pd  Pd3_6  1  0.62500000  0.75000000  0.40121100  1
  Pd  Pd3_7  1  0.62500000  0.75000000  0.90121100  1
loop_
_geom_bond_atom_site_label_1
_geom_bond_atom_site_label_2
_geom_bond_distance
_geom_bond_site_symmetry_2
B0_0 Pd3_1 1.958065 1_554
B0_0 Pd2_2 2.031937 1_555
B0_0 Pd2_0 2.031937 1_555
B0_0 Pd0_0 2.182651 1_555
B0_0 Pd0_4 2.182651 1_455
B0_1 Pd3_0 1.958065 1_555
B0_1 Pd2_1 2.031937 1_555
B0_1 Pd2_3 2.031937 1_555
B0_1 Pd0_1 2.182651 1_555
B0_1 Pd0_5 2.182651 1_455
B0_2 Pd3_3 1.958065 1_554
B0_2 Pd2_0 2.031937 1_565
B0_2 Pd2_2 2.031937 1_555
B0_2 Pd0_2 2.182651 1_555
B0_2 Pd0_6 2.182651 1_455
B0_3 Pd3_2 1.958065 1_555
B0_3 Pd2_1 2.031937 1_565
B0_3 Pd2_3 2.031937 1_555
B0_3 Pd0_3 2.182651 1_555
B0_3 Pd0_7 2.182651 1_455
B0_4 Pd3_5 1.958065 1_554
B0_4 Pd2_6 2.031937 1_555
B0_4 Pd2_4 2.031937 1_555
B0_4 Pd0_4 2.182651 1_555
B0_4 Pd0_0 2.182651 1_555
B0_5 Pd3_4 1.958065 1_555
B0_5 Pd2_5 2.031937 1_555
B0_5 Pd2_7 2.031937 1_555
B0_5 Pd0_5 2.182651 1_555
B0_5 Pd0_1 2.182651 1_555
B0_6 Pd3_7 1.958065 1_554
B0_6 Pd2_4 2.031937 1_565
B0_6 Pd2_6 2.031937 1_555
B0_6 Pd0_6 2.182651 1_555
B0_6 Pd0_2 2.182651 1_555
B0_7 Pd3_6 1.958065 1_555
B0_7 Pd2_5 2.031937 1_565
B0_7 Pd2_7 2.031937 1_555
B0_7 Pd0_3 2.182651 1_555
B0_7 Pd0_7 2.182651 1_555
Pd0_0 Pd1_3 3.065738 1_554
Pd0_0 Pd1_1 3.065738 1_554
Pd0_1 Pd1_2 3.065738 1_555
Pd0_1 Pd1_0 3.065738 1_555
Pd0_2 Pd1_3 3.065738 1_554
Pd0_2 Pd1_1 3.065738 1_564
Pd0_3 Pd1_0 3.065738 1_565
Pd0_3 Pd1_2 3.065738 1_555
Pd0_4 Pd1_7 3.065738 1_554
Pd0_4 Pd1_5 3.065738 1_554
Pd0_5 Pd1_6 3.065738 1_555
Pd0_5 Pd1_4 3.065738 1_555
Pd0_6 Pd1_5 3.065738 1_564
Pd0_6 Pd1_7 3.065738 1_554
Pd0_7 Pd1_4 3.065738 1_565
Pd0_7 Pd1_6 3.065738 1_555
Pd1_0 Pd3_2 2.728776 1_545
Pd1_0 Pd3_4 2.728776 1_555
Pd1_0 Pd3_6 2.729473 1_545
Pd1_0 Pd3_0 2.729473 1_555
Pd1_0 Pd2_4 2.766540 1_555
Pd1_0 Pd2_0 2.766540 1_555
Pd1_0 Pd1_2 2.892030 1_555
Pd1_0 Pd1_2 2.892030 1_545
Pd1_1 Pd3_3 2.728776 1_545
Pd1_1 Pd3_5 2.728776 1_555
Pd1_1 Pd3_7 2.729473 1_545
Pd1_1 Pd3_1 2.729473 1_555
Pd1_1 Pd2_5 2.766540 1_555
Pd1_1 Pd2_1 2.766540 1_555
Pd1_1 Pd1_3 2.892030 1_545
Pd1_1 Pd1_3 2.892030 1_555
Pd1_2 Pd3_6 2.728776 1_555
Pd1_2 Pd3_0 2.728776 1_555
Pd1_2 Pd3_2 2.729473 1_555
Pd1_2 Pd3_4 2.729473 1_555
Pd1_2 Pd2_6 2.766540 1_555
Pd1_2 Pd2_2 2.766540 1_555
Pd1_3 Pd3_7 2.728776 1_555
Pd1_3 Pd3_1 2.728776 1_555
Pd1_3 Pd3_5 2.729473 1_555
Pd1_3 Pd3_3 2.729473 1_555
Pd1_3 Pd2_7 2.766540 1_555
Pd1_3 Pd2_3 2.766540 1_555
Pd1_4 Pd3_6 2.728776 1_545
Pd1_4 Pd3_0 2.728776 1_655
Pd1_4 Pd3_4 2.729473 1_555
Pd1_4 Pd3_2 2.729473 1_645
Pd1_4 Pd2_4 2.766540 1_555
Pd1_4 Pd2_0 2.766540 1_655
Pd1_4 Pd1_6 2.892030 1_555
Pd1_4 Pd1_6 2.892030 1_545
Pd1_5 Pd3_7 2.728776 1_545
Pd1_5 Pd3_1 2.728776 1_655
Pd1_5 Pd3_5 2.729473 1_555
Pd1_5 Pd3_3 2.729473 1_645
Pd1_5 Pd2_5 2.766540 1_555
Pd1_5 Pd2_1 2.766540 1_655
Pd1_5 Pd1_7 2.892030 1_555
Pd1_5 Pd1_7 2.892030 1_545
Pd1_6 Pd3_4 2.728776 1_555
Pd1_6 Pd3_2 2.728776 1_655
Pd1_6 Pd3_6 2.729473 1_555
Pd1_6 Pd3_0 2.729473 1_655
Pd1_6 Pd2_6 2.766540 1_555
Pd1_6 Pd2_2 2.766540 1_655
Pd1_7 Pd3_5 2.728776 1_555
Pd1_7 Pd3_3 2.728776 1_655
Pd1_7 Pd3_7 2.729473 1_555
Pd1_7 Pd3_1 2.729473 1_655
Pd1_7 Pd2_7 2.766540 1_555
Pd1_7 Pd2_3 2.766540 1_655
