# generated using pymatgen
data_Sr3B6H2O13
_symmetry_space_group_name_H-M   'P 1'
_cell_length_a   6.68669900
_cell_length_b   6.76276892
_cell_length_c   11.50400822
_cell_angle_alpha   90.75666980
_cell_angle_beta   94.32885970
_cell_angle_gamma   93.01272605
_symmetry_Int_Tables_number   1
_chemical_formula_structural   Sr3B6H2O13
_chemical_formula_sum   'Sr6 B12 H4 O26'
_cell_volume   517.94010696
_cell_formula_units_Z   2
loop_
 _symmetry_equiv_pos_site_id
 _symmetry_equiv_pos_as_xyz
  1  'x, y, z'
loop_
 _atom_site_type_symbol
 _atom_site_label
 _atom_site_symmetry_multiplicity
 _atom_site_fract_x
 _atom_site_fract_y
 _atom_site_fract_z
 _atom_site_occupancy
  Sr  Sr0  1  0.56687500  0.37499100  0.26455700  1
  Sr  Sr1  1  0.43312500  0.62500900  0.73544300  1
  Sr  Sr2  1  0.87325400  0.72630400  0.47822600  1
  Sr  Sr3  1  0.12674600  0.27369600  0.52177400  1
  Sr  Sr4  1  0.81904400  0.23712300  0.97104400  1
  Sr  Sr5  1  0.18095600  0.76287700  0.02895600  1
  B  B0  1  0.32287100  0.76323500  0.43965200  1
  B  B1  1  0.67712900  0.23676500  0.56034800  1
  B  B2  1  0.55241700  0.85461700  0.27653500  1
  B  B3  1  0.44758300  0.14538300  0.72346500  1
  B  B4  1  0.03854900  0.33525100  0.22825900  1
  B  B5  1  0.96145100  0.66474900  0.77174100  1
  B  B6  1  0.88027900  0.97866200  0.20185500  1
  B  B7  1  0.11972100  0.02133800  0.79814500  1
  B  B8  1  0.38257000  0.21865700  0.93393600  1
  B  B9  1  0.61743000  0.78134300  0.06606400  1
  B  B10  1  0.76643400  0.96820400  0.70234600  1
  B  B11  1  0.23356600  0.03179600  0.29765400  1
  H  H0  1  0.01914400  0.63546400  0.25726800  1
  H  H1  1  0.98085600  0.36453600  0.74273200  1
  H  H2  1  0.24233000  0.33775100  0.09440200  1
  H  H3  1  0.75767100  0.66224900  0.90559800  1
  O  O0  1  0.74197400  0.36306000  0.47947800  1
  O  O1  1  0.25802600  0.63694000  0.52052200  1
  O  O2  1  0.48735800  0.27035000  0.83537300  1
  O  O3  1  0.51264200  0.72965000  0.16462700  1
  O  O4  1  0.48798100  0.72534900  0.37452700  1
  O  O5  1  0.51201900  0.27465100  0.62547300  1
  O  O6  1  0.78465500  0.06459300  0.58393900  1
  O  O7  1  0.21534500  0.93540700  0.41606100  1
  O  O8  1  0.81217500  0.75561200  0.69146700  1
  O  O9  1  0.18782500  0.24438800  0.30853300  1
  O  O10  1  0.86582900  0.19762300  0.19479000  1
  O  O11  1  0.13417100  0.80237700  0.80521000  1
  O  O12  1  0.09098900  0.92489900  0.21286200  1
  O  O13  1  0.90901100  0.07510100  0.78713800  1
  O  O14  1  0.46175400  0.27372000  0.04089900  1
  O  O15  1  0.53824600  0.72628000  0.95910100  1
  O  O16  1  0.43940300  0.02907800  0.26774400  1
  O  O17  1  0.56059700  0.97092200  0.73225600  1
  O  O18  1  0.80020000  0.89394900  0.08340900  1
  O  O19  1  0.19980000  0.10605100  0.91659100  1
  O  O20  1  0.95851400  0.51137200  0.28596300  1
  O  O21  1  0.04148600  0.48862800  0.71403700  1
  O  O22  1  0.76770200  0.89837400  0.29570800  1
  O  O23  1  0.23229800  0.10162600  0.70429200  1
  O  O24  1  0.12571200  0.41233800  0.11886400  1
  O  O25  1  0.87428800  0.58766200  0.88113600  1
loop_
_geom_bond_atom_site_label_1
_geom_bond_atom_site_label_2
_geom_bond_distance
_geom_bond_site_symmetry_2
B0 O1 1.351284 1_555
B0 O4 1.412580 1_555
B0 O7 1.418882 1_555
B1 O0 1.351284 1_555
B1 O5 1.412580 1_555
B1 O6 1.418882 1_555
B2 O16 1.434800 1_565
B2 O22 1.453986 1_555
B2 O4 1.510117 1_555
B2 O3 1.529147 1_555
B3 O17 1.434800 1_545
B3 O23 1.453986 1_555
B3 O5 1.510117 1_555
B3 O2 1.529147 1_555
B4 O10 1.469286 1_455
B4 O9 1.472085 1_555
B4 O20 1.498486 1_455
B4 O24 1.513725 1_555
B5 O11 1.469286 1_655
B5 O8 1.472085 1_555
B5 O21 1.498486 1_655
B5 O25 1.513725 1_555
B6 O22 1.456850 1_555
B6 O12 1.470208 1_655
B6 O10 1.491875 1_565
B6 O18 1.519411 1_555
B7 O23 1.456850 1_555
B7 O13 1.470208 1_455
B7 O11 1.491875 1_545
B7 O19 1.519411 1_555
B8 O14 1.342374 1_556
B8 O19 1.405233 1_555
B8 O2 1.415447 1_555
B9 O15 1.342374 1_554
B9 O18 1.405233 1_555
B9 O3 1.415447 1_555
B10 O17 1.444684 1_555
B10 O13 1.466821 1_565
B10 O8 1.491131 1_555
B10 O6 1.528197 1_565
B11 O16 1.444684 1_555
B11 O12 1.466821 1_545
B11 O9 1.491131 1_555
B11 O7 1.528197 1_545
H0 O20 0.984558 1_455
H1 O21 0.984558 1_655
H2 O24 1.006192 1_555
H2 Sr0 2.809418 1_555
H3 O25 1.006186 1_555
H3 Sr1 2.809422 1_555
O0 Sr2 2.565449 1_555
O0 Sr0 2.658679 1_555
O0 Sr3 2.683989 1_655
O1 Sr3 2.565449 1_555
O1 Sr1 2.658679 1_555
O1 Sr2 2.683989 1_455
O2 Sr4 2.635253 1_555
O2 Sr1 2.703162 1_555
O3 Sr5 2.635253 1_555
O3 Sr0 2.703162 1_555
O4 Sr2 2.755741 1_555
O4 Sr0 2.765094 1_555
O5 Sr3 2.755741 1_555
O5 Sr1 2.765094 1_555
O6 Sr2 2.691018 1_545
O6 Sr3 2.770789 1_655
O7 Sr3 2.691018 1_565
O7 Sr2 2.770789 1_455
O8 Sr2 2.524051 1_555
O8 Sr1 2.725851 1_555
O9 Sr3 2.524051 1_555
O9 Sr0 2.725851 1_555
O10 Sr0 2.558877 1_555
O10 Sr4 2.588428 1_554
O11 Sr1 2.558877 1_555
O11 Sr5 2.588428 1_556
O12 Sr5 2.497738 1_555
O13 Sr4 2.497738 1_555
O14 Sr4 2.600295 1_554
O14 Sr0 2.685723 1_555
O15 Sr5 2.600295 1_556
O15 Sr1 2.685723 1_555
O16 Sr0 2.449025 1_555
O17 Sr1 2.449025 1_555
O18 Sr4 2.673208 1_564
O18 Sr5 2.850189 1_655
O19 Sr5 2.673208 1_546
O19 Sr4 2.850189 1_455
O20 Sr0 2.722504 1_555
O20 Sr2 2.742695 1_555
O21 Sr1 2.722504 1_555
O21 Sr3 2.742695 1_555
O22 Sr2 2.487592 1_555
O23 Sr3 2.487592 1_555
O24 Sr5 2.618480 1_555
O24 Sr4 2.768709 1_454
O25 Sr4 2.618480 1_555
O25 Sr5 2.768709 1_656
