# generated using pymatgen
data_Mg14TiNiO16
_symmetry_space_group_name_H-M   'P 1'
_cell_length_a   8.50585911
_cell_length_b   8.63951970
_cell_length_c   4.23455682
_cell_angle_alpha   90.00000000
_cell_angle_beta   90.00000000
_cell_angle_gamma   90.00000000
_symmetry_Int_Tables_number   1
_chemical_formula_structural   Mg14TiNiO16
_chemical_formula_sum   'Mg14 Ti1 Ni1 O16'
_cell_volume   311.18291790
_cell_formula_units_Z   1
loop_
 _symmetry_equiv_pos_site_id
 _symmetry_equiv_pos_as_xyz
  1  'x, y, z'
loop_
 _atom_site_type_symbol
 _atom_site_label
 _atom_site_symmetry_multiplicity
 _atom_site_fract_x
 _atom_site_fract_y
 _atom_site_fract_z
 _atom_site_occupancy
  Mg  Mg0  1  0.50000000  0.00000000  0.00000000  1
  Mg  Mg1  1  0.50000000  0.50000000  0.00000000  1
  Mg  Mg2  1  0.00000000  0.24061176  0.50000000  1
  Mg  Mg3  1  0.00000000  0.75938824  0.50000000  1
  Mg  Mg4  1  0.50000000  0.24796921  0.50000000  1
  Mg  Mg5  1  0.50000000  0.75203079  0.50000000  1
  Mg  Mg6  1  0.24674522  0.00000000  0.50000000  1
  Mg  Mg7  1  0.25250189  0.50000000  0.50000000  1
  Mg  Mg8  1  0.75325478  0.00000000  0.50000000  1
  Mg  Mg9  1  0.74749811  0.50000000  0.50000000  1
  Mg  Mg10  1  0.24962775  0.24329050  0.00000000  1
  Mg  Mg11  1  0.24962775  0.75670950  0.00000000  1
  Mg  Mg12  1  0.75037225  0.24329050  0.00000000  1
  Mg  Mg13  1  0.75037225  0.75670950  0.00000000  1
  Ti  Ti0  1  0.00000000  0.50000000  0.00000000  1
  Ni  Ni0  1  0.00000000  0.00000000  0.00000000  1
  O  O0  1  0.25995854  0.00000000  0.00000000  1
  O  O1  1  0.24909028  0.50000000  0.00000000  1
  O  O2  1  0.74004146  0.00000000  0.00000000  1
  O  O3  1  0.75090972  0.50000000  0.00000000  1
  O  O4  1  0.24852074  0.25081276  0.50000000  1
  O  O5  1  0.24852074  0.74918724  0.50000000  1
  O  O6  1  0.75147926  0.25081276  0.50000000  1
  O  O7  1  0.75147926  0.74918724  0.50000000  1
  O  O8  1  0.00000000  0.00000000  0.50000000  1
  O  O9  1  0.00000000  0.50000000  0.50000000  1
  O  O10  1  0.50000000  0.00000000  0.50000000  1
  O  O11  1  0.50000000  0.50000000  0.50000000  1
  O  O12  1  0.00000000  0.27131441  0.00000000  1
  O  O13  1  0.00000000  0.72868559  0.00000000  1
  O  O14  1  0.50000000  0.25322570  0.00000000  1
  O  O15  1  0.50000000  0.74677430  0.00000000  1
loop_
_geom_bond_atom_site_label_1
_geom_bond_atom_site_label_2
_geom_bond_distance
_geom_bond_site_symmetry_2
Mg0 O0 2.041759 1_555
Mg0 O2 2.041759 1_555
Mg0 O10 2.117278 1_555
Mg0 O10 2.117278 1_554
Mg0 O15 2.187748 1_545
Mg0 O14 2.187748 1_555
Mg1 O11 2.117278 1_554
Mg1 O11 2.117278 1_555
Mg1 O14 2.132011 1_555
Mg1 O15 2.132011 1_555
Mg1 O3 2.134203 1_555
Mg1 O1 2.134203 1_555
Mg2 O8 2.078770 1_555
Mg2 O4 2.115719 1_555
Mg2 O6 2.115719 1_455
Mg2 O12 2.133830 1_555
Mg2 O12 2.133830 1_556
Mg2 O9 2.240990 1_555
Mg3 O8 2.078770 1_565
Mg3 O5 2.115719 1_555
Mg3 O7 2.115719 1_455
Mg3 O13 2.133830 1_555
Mg3 O13 2.133830 1_556
Mg3 O9 2.240990 1_555
Mg4 O14 2.117765 1_555
Mg4 O14 2.117765 1_556
Mg4 O4 2.139188 1_555
Mg4 O6 2.139188 1_555
Mg4 O10 2.142335 1_555
Mg4 O11 2.177425 1_555
Mg5 O15 2.117765 1_556
Mg5 O15 2.117765 1_555
Mg5 O5 2.139188 1_555
Mg5 O7 2.139188 1_555
Mg5 O10 2.142335 1_565
Mg5 O11 2.177425 1_555
Mg6 O8 2.098780 1_555
Mg6 O0 2.120259 1_555
Mg6 O0 2.120259 1_556
Mg6 O10 2.154149 1_555
Mg6 O5 2.166954 1_545
Mg6 O4 2.166954 1_555
Mg7 O11 2.105184 1_555
Mg7 O1 2.117477 1_556
Mg7 O1 2.117477 1_555
Mg7 O9 2.147746 1_555
Mg7 O4 2.153124 1_555
Mg7 O5 2.153124 1_555
Mg8 O8 2.098780 1_655
Mg8 O2 2.120259 1_556
Mg8 O2 2.120259 1_555
Mg8 O10 2.154149 1_555
Mg8 O7 2.166954 1_545
Mg8 O6 2.166954 1_555
Mg9 O11 2.105184 1_555
Mg9 O3 2.117477 1_556
Mg9 O3 2.117477 1_555
Mg9 O9 2.147746 1_655
Mg9 O6 2.153124 1_555
Mg9 O7 2.153124 1_555
Mg10 O0 2.103749 1_555
Mg10 O4 2.118296 1_554
Mg10 O4 2.118296 1_555
Mg10 O14 2.131360 1_555
Mg10 O12 2.137058 1_555
Mg10 O1 2.217851 1_555
Mg11 O0 2.103749 1_565
Mg11 O5 2.118296 1_554
Mg11 O5 2.118296 1_555
Mg11 O15 2.131360 1_555
Mg11 O13 2.137058 1_555
Mg11 O1 2.217851 1_555
Mg12 O2 2.103749 1_555
Mg12 O6 2.118296 1_554
Mg12 O6 2.118296 1_555
Mg12 O14 2.131360 1_555
Mg12 O12 2.137058 1_655
Mg12 O3 2.217851 1_555
Mg13 O2 2.103749 1_565
Mg13 O7 2.118296 1_554
Mg13 O7 2.118296 1_555
Mg13 O15 2.131360 1_555
Mg13 O13 2.137058 1_655
Mg13 O3 2.217851 1_555
Ni0 O8 2.117278 1_555
Ni0 O8 2.117278 1_554
Ni0 O2 2.211171 1_455
Ni0 O0 2.211171 1_555
Ni0 O13 2.344026 1_545
Ni0 O12 2.344026 1_555
O1 Ti0 2.118727 1_555
O3 Ti0 2.118727 1_655
O9 Ti0 2.117278 1_555
O9 Ti0 2.117278 1_556
O12 Ti0 1.975734 1_555
O13 Ti0 1.975734 1_555
