# generated using pymatgen
data_Li7Mn4CoO12
_symmetry_space_group_name_H-M   'P 1'
_cell_length_a   5.91736416
_cell_length_b   10.18354803
_cell_length_c   7.65433055
_cell_angle_alpha   77.08046343
_cell_angle_beta   98.13429845
_cell_angle_gamma   103.57090802
_symmetry_Int_Tables_number   1
_chemical_formula_structural   Li7Mn4CoO12
_chemical_formula_sum   'Li14 Mn8 Co2 O24'
_cell_volume   435.08607755
_cell_formula_units_Z   2
loop_
 _symmetry_equiv_pos_site_id
 _symmetry_equiv_pos_as_xyz
  1  'x, y, z'
loop_
 _atom_site_type_symbol
 _atom_site_label
 _atom_site_symmetry_multiplicity
 _atom_site_fract_x
 _atom_site_fract_y
 _atom_site_fract_z
 _atom_site_occupancy
  Li  Li0  1  0.33333000  0.00000100  0.33333300  1
  Li  Li1  1  0.83333000  0.99999900  0.33333400  1
  Li  Li2  1  0.17433100  0.24096800  0.18557300  1
  Li  Li3  1  0.67644600  0.24116000  0.18593100  1
  Li  Li4  1  0.49233600  0.75903000  0.48109300  1
  Li  Li5  1  0.99021900  0.75884000  0.48073700  1
  Li  Li6  1  0.67776000  0.75327600  0.17674000  1
  Li  Li7  1  0.17705000  0.75397100  0.17590600  1
  Li  Li8  1  0.48961700  0.24602800  0.49075900  1
  Li  Li9  1  0.98891000  0.24672200  0.48992500  1
  Li  Li10  1  0.33225100  0.25324400  0.83466500  1
  Li  Li11  1  0.83139000  0.25302600  0.83407600  1
  Li  Li12  1  0.83527800  0.74697500  0.83259200  1
  Li  Li13  1  0.33441700  0.74675600  0.83200000  1
  Mn  Mn0  1  0.49479800  0.99555800  0.01093800  1
  Mn  Mn1  1  0.17187000  0.00444300  0.65572800  1
  Mn  Mn2  1  0.50305500  0.49870000  0.00296000  1
  Mn  Mn3  1  0.16361400  0.50129400  0.66371100  1
  Mn  Mn4  1  0.99483600  0.99585800  0.01076400  1
  Mn  Mn5  1  0.67182700  0.00414900  0.65589500  1
  Mn  Mn6  1  0.00298300  0.49773300  0.00295100  1
  Mn  Mn7  1  0.66368300  0.50226400  0.66371900  1
  Co  Co0  1  0.33333400  0.49999900  0.33333500  1
  Co  Co1  1  0.83333500  0.50000000  0.33333500  1
  O  O0  1  0.30174200  0.10838600  0.06745500  1
  O  O1  1  0.80160800  0.10847200  0.06737800  1
  O  O2  1  0.86505600  0.89153200  0.59929000  1
  O  O3  1  0.36492100  0.89161500  0.59920900  1
  O  O4  1  0.34927000  0.61390700  0.09630400  1
  O  O5  1  0.84995600  0.61318600  0.09762500  1
  O  O6  1  0.31739900  0.38609100  0.57036600  1
  O  O7  1  0.81671300  0.38681400  0.56904400  1
  O  O8  1  0.17285300  0.11806400  0.43661300  1
  O  O9  1  0.67284400  0.11779400  0.43661900  1
  O  O10  1  0.49381500  0.88193800  0.23005200  1
  O  O11  1  0.99381900  0.88220900  0.23004300  1
  O  O12  1  0.67937600  0.61769500  0.42231600  1
  O  O13  1  0.17937900  0.61714200  0.42150600  1
  O  O14  1  0.48729000  0.38285600  0.24516400  1
  O  O15  1  0.98729300  0.38230400  0.24435200  1
  O  O16  1  0.48324200  0.10589400  0.74996600  1
  O  O17  1  0.98299200  0.10594100  0.74992900  1
  O  O18  1  0.68367100  0.89406200  0.91673600  1
  O  O19  1  0.18342100  0.89410900  0.91669700  1
  O  O20  1  0.51897200  0.62020900  0.76232400  1
  O  O21  1  0.01914500  0.61961500  0.76210600  1
  O  O22  1  0.64752500  0.38038300  0.90456200  1
  O  O23  1  0.14769700  0.37978800  0.90434600  1
loop_
_geom_bond_atom_site_label_1
_geom_bond_atom_site_label_2
_geom_bond_distance
_geom_bond_site_symmetry_2
Li0 O8 2.036043 1_555
Li0 O10 2.036079 1_545
Li0 O3 2.092747 1_545
Li0 O0 2.092755 1_555
Li0 O11 2.223451 1_445
Li0 O9 2.223457 1_555
Li1 O11 2.033953 1_555
Li1 O9 2.033954 1_565
Li1 O2 2.093596 1_555
Li1 O1 2.093614 1_565
Li1 O10 2.224563 1_555
Li1 O8 2.224606 1_665
Li2 O8 2.045261 1_555
Li2 O0 2.103622 1_555
Li2 O14 2.127268 1_555
Li2 O15 2.162642 1_455
Li2 O23 2.303221 1_554
Li2 O1 2.467399 1_455
Li3 O9 2.044940 1_555
Li3 O1 2.099039 1_555
Li3 O15 2.112629 1_555
Li3 O14 2.175935 1_555
Li3 O22 2.306934 1_554
Li3 O0 2.477735 1_555
Li4 O10 2.045283 1_555
Li4 O3 2.103651 1_555
Li4 O13 2.127253 1_555
Li4 O12 2.162635 1_555
Li4 O20 2.303250 1_555
Li4 O2 2.467417 1_555
Li5 O11 2.044989 1_555
Li5 O2 2.099076 1_555
Li5 O12 2.112618 1_555
Li5 O13 2.175961 1_655
Li5 O21 2.306946 1_655
Li5 O3 2.477720 1_655
Li6 O10 2.025357 1_555
Li6 O11 2.063832 1_555
Li6 O12 2.068896 1_555
Li6 O5 2.164097 1_555
Li6 O18 2.176630 1_554
Li6 O4 2.220163 1_555
Li7 O11 2.021470 1_455
Li7 O10 2.063676 1_555
Li7 O13 2.075127 1_555
Li7 O4 2.165814 1_555
Li7 O19 2.168955 1_554
Li7 O5 2.216856 1_455
Li8 O9 2.021430 1_555
Li8 O8 2.063657 1_555
Li8 O14 2.075093 1_555
Li8 O6 2.165817 1_555
Li8 O16 2.168924 1_555
Li8 O7 2.216879 1_555
Li9 O8 2.025315 1_655
Li9 O9 2.063843 1_555
Li9 O15 2.068884 1_555
Li9 O7 2.164133 1_555
Li9 O17 2.176607 1_555
Li9 O6 2.220171 1_655
Li10 O0 2.043128 1_556
Li10 O23 2.066492 1_555
Li10 O22 2.082481 1_555
Li10 O16 2.167568 1_555
Li10 O6 2.170771 1_555
Li10 O17 2.354342 1_455
Li11 O1 2.044222 1_556
Li11 O22 2.073189 1_555
Li11 O23 2.085823 1_655
Li11 O17 2.165332 1_555
Li11 O7 2.179202 1_555
Li11 O16 2.347547 1_555
Li12 O2 2.044236 1_555
Li12 O21 2.073222 1_655
Li12 O20 2.085834 1_555
Li12 O18 2.165356 1_555
Li12 O5 2.179213 1_556
Li12 O19 2.347526 1_655
Li13 O3 2.043138 1_555
Li13 O20 2.066503 1_555
Li13 O21 2.082476 1_555
Li13 O19 2.167605 1_555
Li13 O4 2.170810 1_556
Li13 O18 2.354337 1_555
Mn0 O10 1.812058 1_555
Mn0 O0 1.946912 1_565
Mn0 O1 1.955854 1_565
Mn0 O18 1.985133 1_554
Mn0 O19 2.011562 1_554
Mn0 O16 2.061843 1_564
Mn1 O8 1.812069 1_555
Mn1 O3 1.946896 1_545
Mn1 O2 1.955856 1_445
Mn1 O17 1.985165 1_455
Mn1 O16 2.011540 1_555
Mn1 O19 2.061816 1_545
Mn2 O4 1.942908 1_555
Mn2 O22 1.954799 1_554
Mn2 O14 1.963848 1_555
Mn2 O20 1.976834 1_554
Mn2 O5 2.220753 1_555
Mn2 O23 2.285260 1_554
Mn3 O6 1.942880 1_555
Mn3 O21 1.954814 1_555
Mn3 O13 1.963870 1_555
Mn3 O23 1.976815 1_555
Mn3 O7 2.220735 1_455
Mn3 O20 2.285269 1_555
Mn4 O11 1.813172 1_555
Mn4 O1 1.946313 1_565
Mn4 O0 1.955065 1_665
Mn4 O19 1.985193 1_654
Mn4 O18 2.011410 1_554
Mn4 O17 2.060136 1_564
Mn5 O9 1.813136 1_555
Mn5 O2 1.946311 1_545
Mn5 O3 1.955082 1_545
Mn5 O16 1.985180 1_555
Mn5 O17 2.011410 1_555
Mn5 O18 2.060188 1_545
Mn6 O5 1.947751 1_455
Mn6 O23 1.953598 1_554
Mn6 O15 1.957213 1_455
Mn6 O21 1.979704 1_554
Mn6 O4 2.221497 1_555
Mn6 O22 2.279036 1_454
Mn7 O7 1.947743 1_555
Mn7 O20 1.953586 1_555
Mn7 O12 1.957233 1_555
Mn7 O22 1.979687 1_555
Mn7 O6 2.221480 1_555
Mn7 O21 2.279053 1_655
Co0 O6 1.924106 1_555
Co0 O4 1.924106 1_555
Co0 O13 1.937141 1_555
Co0 O14 1.937145 1_555
Co0 O15 2.216284 1_455
Co0 O12 2.216288 1_555
Co1 O7 1.913233 1_555
Co1 O5 1.913239 1_555
Co1 O12 1.945109 1_555
Co1 O15 1.945121 1_555
Co1 O13 2.212252 1_655
Co1 O14 2.212265 1_555
