# generated using pymatgen
data_Lu2TlZn
_symmetry_space_group_name_H-M   'P 1'
_cell_length_a   5.11512277
_cell_length_b   5.11512277
_cell_length_c   5.11512277
_cell_angle_alpha   60.00000000
_cell_angle_beta   60.00000000
_cell_angle_gamma   60.00000000
_symmetry_Int_Tables_number   1
_chemical_formula_structural   Lu2TlZn
_chemical_formula_sum   'Lu2 Tl1 Zn1'
_cell_volume   94.63530555
_cell_formula_units_Z   1
loop_
 _symmetry_equiv_pos_site_id
 _symmetry_equiv_pos_as_xyz
  1  'x, y, z'
loop_
 _atom_site_type_symbol
 _atom_site_label
 _atom_site_symmetry_multiplicity
 _atom_site_fract_x
 _atom_site_fract_y
 _atom_site_fract_z
 _atom_site_occupancy
  Lu  Lu0  1  0.25000000  0.25000000  0.25000000  1
  Lu  Lu1  1  0.75000000  0.75000000  0.75000000  1
  Tl  Tl0  1  0.50000000  0.50000000  0.50000000  1
  Zn  Zn0  1  0.00000000  0.00000000  0.00000000  1
loop_
_geom_bond_atom_site_label_1
_geom_bond_atom_site_label_2
_geom_bond_distance
_geom_bond_site_symmetry_2
Lu0 Zn0 3.132360 1_565
Lu0 Tl0 3.132360 1_545
Lu0 Zn0 3.132360 1_655
Lu0 Tl0 3.132360 1_455
Lu0 Tl0 3.132360 1_554
Lu0 Tl0 3.132360 1_555
Lu0 Zn0 3.132360 1_555
Lu0 Zn0 3.132360 1_556
Lu1 Tl0 3.132360 1_565
Lu1 Zn0 3.132360 1_656
Lu1 Tl0 3.132360 1_655
Lu1 Zn0 3.132360 1_566
Lu1 Tl0 3.132360 1_556
Lu1 Zn0 3.132360 1_665
Lu1 Tl0 3.132360 1_555
Lu1 Zn0 3.132360 1_666
