# generated using pymatgen
data_CaPrAl3O7
_symmetry_space_group_name_H-M   'P 1'
_cell_length_a   7.83600576
_cell_length_b   7.83600576
_cell_length_c   5.18390000
_cell_angle_alpha   90.00000000
_cell_angle_beta   90.00000000
_cell_angle_gamma   91.08048786
_symmetry_Int_Tables_number   1
_chemical_formula_structural   CaPrAl3O7
_chemical_formula_sum   'Ca2 Pr2 Al6 O14'
_cell_volume   318.25034286
_cell_formula_units_Z   2
loop_
 _symmetry_equiv_pos_site_id
 _symmetry_equiv_pos_as_xyz
  1  'x, y, z'
loop_
 _atom_site_type_symbol
 _atom_site_label
 _atom_site_symmetry_multiplicity
 _atom_site_fract_x
 _atom_site_fract_y
 _atom_site_fract_z
 _atom_site_occupancy
  Ca  Ca0  1  0.65950500  0.65950500  0.48318600  1
  Ca  Ca1  1  0.34049500  0.34049500  0.48318600  1
  Pr  Pr0  1  0.83629200  0.16370800  0.50855000  1
  Pr  Pr1  1  0.16370800  0.83629200  0.50855000  1
  Al  Al0  1  0.85412200  0.85412200  0.03960600  1
  Al  Al1  1  0.64093500  0.35906500  0.95818900  1
  Al  Al2  1  0.14587800  0.14587800  0.03960600  1
  Al  Al3  1  0.35906500  0.64093500  0.95818900  1
  Al  Al4  1  0.50000000  0.00000000  0.00552500  1
  Al  Al5  1  0.00000000  0.50000000  0.00552500  1
  O  O0  1  0.86161900  0.86161900  0.70241800  1
  O  O1  1  0.64366400  0.35633600  0.29439500  1
  O  O2  1  0.13838100  0.13838100  0.70241800  1
  O  O3  1  0.35633600  0.64366400  0.29439500  1
  O  O4  1  0.50000000  0.50000000  0.81035300  1
  O  O5  1  0.00000000  0.00000000  0.18554100  1
  O  O6  1  0.66351700  0.91375000  0.19881700  1
  O  O7  1  0.83991500  0.40783300  0.80627500  1
  O  O8  1  0.33648300  0.08625000  0.19881700  1
  O  O9  1  0.16008500  0.59216700  0.80627500  1
  O  O10  1  0.40783300  0.83991500  0.80627500  1
  O  O11  1  0.08625000  0.33648300  0.19881700  1
  O  O12  1  0.59216700  0.16008500  0.80627500  1
  O  O13  1  0.91375000  0.66351700  0.19881700  1
loop_
_geom_bond_atom_site_label_1
_geom_bond_atom_site_label_2
_geom_bond_distance
_geom_bond_site_symmetry_2
Ca0 O4 2.437604 1_555
Ca0 O13 2.478071 1_555
Ca0 O6 2.478071 1_555
Ca0 O0 2.492712 1_555
Ca0 O3 2.570161 1_555
Ca0 O1 2.570161 1_555
Ca0 O7 2.966147 1_555
Ca0 O10 2.966147 1_555
Ca1 O4 2.437604 1_555
Ca1 O11 2.478071 1_555
Ca1 O8 2.478071 1_555
Ca1 O2 2.492712 1_555
Ca1 O3 2.570161 1_555
Ca1 O1 2.570161 1_555
Ca1 O12 2.966147 1_555
Ca1 O9 2.966147 1_555
Al0 O0 1.749885 1_554
Al0 O5 1.770986 1_665
Al0 O13 1.776682 1_555
Al0 O6 1.776682 1_555
Al1 O1 1.743126 1_556
Al1 O4 1.752875 1_555
Al1 O12 1.781814 1_555
Al1 O7 1.781814 1_555
Al2 O2 1.749885 1_554
Al2 O5 1.770986 1_555
Al2 O11 1.776682 1_555
Al2 O8 1.776682 1_555
Al3 O3 1.743126 1_556
Al3 O4 1.752875 1_555
Al3 O9 1.781814 1_555
Al3 O10 1.781814 1_555
Al4 O12 1.768584 1_554
Al4 O10 1.768584 1_544
Al4 O6 1.770660 1_545
Al4 O8 1.770660 1_555
Al5 O9 1.768584 1_554
Al5 O7 1.768584 1_454
Al5 O13 1.770660 1_455
Al5 O11 1.770660 1_555
O0 Pr1 2.582753 1_655
O0 Pr0 2.582753 1_565
O1 Pr0 2.423873 1_555
O2 Pr1 2.582753 1_545
O2 Pr0 2.582753 1_455
O3 Pr1 2.423873 1_555
O5 Pr1 2.481345 1_545
O5 Pr0 2.481345 1_455
O6 Pr0 2.854360 1_565
O7 Pr0 2.457683 1_555
O8 Pr1 2.854360 1_545
O9 Pr1 2.457683 1_555
O10 Pr1 2.457683 1_555
O11 Pr0 2.854360 1_455
O12 Pr0 2.457683 1_555
O13 Pr1 2.854360 1_655
