# generated using pymatgen
data_V3Bi
_symmetry_space_group_name_H-M   'P 1'
_cell_length_a   5.02660700
_cell_length_b   5.02660700
_cell_length_c   5.02660700
_cell_angle_alpha   90.00000000
_cell_angle_beta   90.00000000
_cell_angle_gamma   90.00000000
_symmetry_Int_Tables_number   1
_chemical_formula_structural   V3Bi
_chemical_formula_sum   'V6 Bi2'
_cell_volume   127.00616282
_cell_formula_units_Z   2
loop_
 _symmetry_equiv_pos_site_id
 _symmetry_equiv_pos_as_xyz
  1  'x, y, z'
loop_
 _atom_site_type_symbol
 _atom_site_label
 _atom_site_symmetry_multiplicity
 _atom_site_fract_x
 _atom_site_fract_y
 _atom_site_fract_z
 _atom_site_occupancy
  V  V0  1  0.50000000  0.25000000  0.00000000  1
  V  V1  1  0.50000000  0.75000000  0.00000000  1
  V  V2  1  0.25000000  0.00000000  0.50000000  1
  V  V3  1  0.75000000  0.00000000  0.50000000  1
  V  V4  1  0.00000000  0.50000000  0.25000000  1
  V  V5  1  0.00000000  0.50000000  0.75000000  1
  Bi  Bi0  1  0.50000000  0.50000000  0.50000000  1
  Bi  Bi1  1  0.00000000  0.00000000  0.00000000  1
loop_
_geom_bond_atom_site_label_1
_geom_bond_atom_site_label_2
_geom_bond_distance
_geom_bond_site_symmetry_2
V0 V1 2.513304 1_555
V0 V1 2.513304 1_545
V0 V2 3.078156 1_554
V0 V3 3.078156 1_555
V0 V4 3.078156 1_555
V0 V4 3.078156 1_655
V0 V5 3.078156 1_654
V0 V3 3.078156 1_554
V0 V2 3.078156 1_555
V0 V5 3.078156 1_554
V1 V3 3.078156 1_564
V1 V4 3.078156 1_555
V1 V5 3.078156 1_654
V1 V4 3.078156 1_655
V1 V2 3.078156 1_565
V1 V3 3.078156 1_565
V1 V2 3.078156 1_564
V1 V5 3.078156 1_554
V2 V3 2.513304 1_455
V2 V3 2.513304 1_555
V2 V4 3.078156 1_545
V2 V4 3.078156 1_555
V2 V5 3.078156 1_555
V2 V5 3.078156 1_545
V3 V5 3.078156 1_655
V3 V4 3.078156 1_645
V3 V4 3.078156 1_655
V3 V5 3.078156 1_645
V4 V5 2.513304 1_554
V4 V5 2.513304 1_555
Bi0 V3 2.809959 1_555
Bi0 V4 2.809959 1_555
Bi0 V0 2.809959 1_556
Bi0 V1 2.809959 1_555
Bi0 V4 2.809959 1_655
Bi0 V5 2.809959 1_555
Bi0 V5 2.809959 1_655
Bi0 V2 2.809959 1_565
Bi0 V1 2.809959 1_556
Bi0 V2 2.809959 1_555
Bi0 V3 2.809959 1_565
Bi0 V0 2.809959 1_555
Bi1 V5 2.809959 1_554
Bi1 V0 2.809959 1_455
Bi1 V1 2.809959 1_445
Bi1 V2 2.809959 1_554
Bi1 V3 2.809959 1_454
Bi1 V4 2.809959 1_545
Bi1 V3 2.809959 1_455
Bi1 V1 2.809959 1_545
Bi1 V4 2.809959 1_555
Bi1 V5 2.809959 1_544
Bi1 V2 2.809959 1_555
Bi1 V0 2.809959 1_555
