# generated using pymatgen
data_BaLaNbCrO6
_symmetry_space_group_name_H-M   'P 1'
_cell_length_a   5.95658564
_cell_length_b   5.95658564
_cell_length_c   5.95658564
_cell_angle_alpha   60.00000000
_cell_angle_beta   60.00000000
_cell_angle_gamma   60.00000000
_symmetry_Int_Tables_number   1
_chemical_formula_structural   BaLaNbCrO6
_chemical_formula_sum   'Ba1 La1 Nb1 Cr1 O6'
_cell_volume   149.44354914
_cell_formula_units_Z   1
loop_
 _symmetry_equiv_pos_site_id
 _symmetry_equiv_pos_as_xyz
  1  'x, y, z'
loop_
 _atom_site_type_symbol
 _atom_site_label
 _atom_site_symmetry_multiplicity
 _atom_site_fract_x
 _atom_site_fract_y
 _atom_site_fract_z
 _atom_site_occupancy
  Ba  Ba0  1  0.25000000  0.25000000  0.25000000  1
  La  La0  1  0.50000000  0.50000000  0.50000000  1
  Nb  Nb0  1  0.75000000  0.75000000  0.75000000  1
  Cr  Cr0  1  0.00000000  0.00000000  0.00000000  1
  O  O0  1  0.77228731  0.22771269  0.22771269  1
  O  O1  1  0.22771269  0.77228731  0.77228731  1
  O  O2  1  0.77228731  0.22771269  0.77228731  1
  O  O3  1  0.22771269  0.77228731  0.22771269  1
  O  O4  1  0.77228731  0.77228731  0.22771269  1
  O  O5  1  0.22771269  0.22771269  0.77228731  1
loop_
_geom_bond_atom_site_label_1
_geom_bond_atom_site_label_2
_geom_bond_distance
_geom_bond_site_symmetry_2
Ba0 O3 2.984205 1_545
Ba0 O5 2.984205 1_554
Ba0 O2 2.984205 1_554
Ba0 O0 2.984205 1_555
Ba0 O0 2.984205 1_455
Ba0 O4 2.984205 1_455
Ba0 O1 2.984205 1_554
Ba0 O1 2.984205 1_545
Ba0 O4 2.984205 1_545
Ba0 O3 2.984205 1_555
Ba0 O5 2.984205 1_555
Ba0 O2 2.984205 1_455
La0 O5 2.293717 1_555
La0 O3 2.293717 1_555
La0 O0 2.293717 1_555
La0 O2 2.293717 1_555
La0 O4 2.293717 1_555
La0 O1 2.293717 1_555
Nb0 O0 2.984205 1_556
Nb0 O4 2.984205 1_555
Nb0 O1 2.984205 1_555
Nb0 O4 2.984205 1_556
Nb0 O3 2.984205 1_655
Nb0 O0 2.984205 1_565
Nb0 O1 2.984205 1_655
Nb0 O5 2.984205 1_655
Nb0 O5 2.984205 1_565
Nb0 O3 2.984205 1_556
Nb0 O2 2.984205 1_555
Nb0 O2 2.984205 1_565
Cr0 O4 1.918225 1_445
Cr0 O2 1.918225 1_454
Cr0 O1 1.918225 1_544
Cr0 O0 1.918225 1_455
Cr0 O3 1.918225 1_545
Cr0 O5 1.918225 1_554
