# generated using pymatgen
data_Si3B
_symmetry_space_group_name_H-M   'P 1'
_cell_length_a   3.64777900
_cell_length_b   3.64777900
_cell_length_c   3.64777900
_cell_angle_alpha   90.00000000
_cell_angle_beta   90.00000000
_cell_angle_gamma   90.00000000
_symmetry_Int_Tables_number   1
_chemical_formula_structural   Si3B
_chemical_formula_sum   'Si3 B1'
_cell_volume   48.53841119
_cell_formula_units_Z   1
loop_
 _symmetry_equiv_pos_site_id
 _symmetry_equiv_pos_as_xyz
  1  'x, y, z'
loop_
 _atom_site_type_symbol
 _atom_site_label
 _atom_site_symmetry_multiplicity
 _atom_site_fract_x
 _atom_site_fract_y
 _atom_site_fract_z
 _atom_site_occupancy
  Si  Si0  1  0.50000000  0.50000000  0.00000000  1
  Si  Si1  1  0.50000000  0.00000000  0.50000000  1
  Si  Si2  1  0.00000000  0.50000000  0.50000000  1
  B  B0  1  0.00000000  0.00000000  0.00000000  1
loop_
_geom_bond_atom_site_label_1
_geom_bond_atom_site_label_2
_geom_bond_distance
_geom_bond_site_symmetry_2
Si0 Si1 2.579369 1_555
Si0 Si2 2.579369 1_555
Si0 Si1 2.579369 1_564
Si0 Si1 2.579369 1_554
Si0 Si2 2.579369 1_554
Si0 Si1 2.579369 1_565
Si0 Si2 2.579369 1_655
Si0 Si2 2.579369 1_654
Si1 Si2 2.579369 1_555
Si1 Si2 2.579369 1_645
Si1 Si2 2.579369 1_545
Si1 Si2 2.579369 1_655
B0 Si0 2.579369 1_445
B0 Si1 2.579369 1_555
B0 Si2 2.579369 1_544
B0 Si2 2.579369 1_555
B0 Si1 2.579369 1_554
B0 Si2 2.579369 1_545
B0 Si2 2.579369 1_554
B0 Si0 2.579369 1_455
B0 Si0 2.579369 1_545
B0 Si0 2.579369 1_555
B0 Si1 2.579369 1_455
B0 Si1 2.579369 1_454
