# generated using pymatgen
data_Li5V3P8O29
_symmetry_space_group_name_H-M   'P 1'
_cell_length_a   9.73430100
_cell_length_b   9.76673456
_cell_length_c   14.14122538
_cell_angle_alpha   90.35110790
_cell_angle_beta   89.90904370
_cell_angle_gamma   119.76801661
_symmetry_Int_Tables_number   1
_chemical_formula_structural   Li5V3P8O29
_chemical_formula_sum   'Li10 V6 P16 O58'
_cell_volume   1167.00722042
_cell_formula_units_Z   2
loop_
 _symmetry_equiv_pos_site_id
 _symmetry_equiv_pos_as_xyz
  1  'x, y, z'
loop_
 _atom_site_type_symbol
 _atom_site_label
 _atom_site_symmetry_multiplicity
 _atom_site_fract_x
 _atom_site_fract_y
 _atom_site_fract_z
 _atom_site_occupancy
  Li  Li0  1  0.89823700  0.65880900  0.44351100  1
  Li  Li1  1  0.76462900  0.66924600  0.94050300  1
  Li  Li2  1  0.32977400  0.09675100  0.93760100  1
  Li  Li3  1  0.66921800  0.76534900  0.55967800  1
  Li  Li4  1  0.32949300  0.23331800  0.43550300  1
  Li  Li5  1  0.67144200  0.90794300  0.06558300  1
  Li  Li6  1  0.10199300  0.34035900  0.55972800  1
  Li  Li7  1  0.10470900  0.76634200  0.05375700  1
  Li  Li8  1  0.00402300  0.07789100  0.98771700  1
  Li  Li9  1  0.00166600  0.99654400  0.50011900  1
  V  V0  1  0.56326800  0.56550500  0.74969000  1
  V  V1  1  0.43060700  0.42964600  0.24584000  1
  V  V2  1  0.56620500  0.00154200  0.25568700  1
  V  V3  1  0.43509600  0.99790500  0.74714500  1
  V  V4  1  0.99686700  0.43017700  0.75223400  1
  V  V5  1  0.00130000  0.56325700  0.24989300  1
  P  P0  1  0.91578000  0.22035500  0.16303600  1
  P  P1  1  0.78383600  0.08105000  0.66232600  1
  P  P2  1  0.91200800  0.68585200  0.65585100  1
  P  P3  1  0.66691000  0.33645700  0.86904600  1
  P  P4  1  0.67044300  0.33956700  0.36702600  1
  P  P5  1  0.77456800  0.68301000  0.15742100  1
  P  P6  1  0.68534300  0.76987400  0.33945400  1
  P  P7  1  0.31340300  0.08234000  0.15627900  1
  P  P8  1  0.68887400  0.91546800  0.84678200  1
  P  P9  1  0.31640100  0.22691600  0.65631900  1
  P  P10  1  0.22022000  0.30617400  0.83788100  1
  P  P11  1  0.32813300  0.66159500  0.63267700  1
  P  P12  1  0.33251400  0.66860700  0.13324800  1
  P  P13  1  0.08604300  0.31203600  0.34668500  1
  P  P14  1  0.21490300  0.91521700  0.33964600  1
  P  P15  1  0.08634800  0.77324900  0.83843100  1
  O  O0  1  0.01475100  0.23630100  0.43892700  1
  O  O1  1  0.92291600  0.25540200  0.66195300  1
  O  O2  1  0.77036500  0.98508100  0.93896100  1
  O  O3  1  0.74317400  0.08246000  0.16327700  1
  O  O4  1  0.92031400  0.38234000  0.17510300  1
  O  O5  1  0.81206300  0.33198000  0.81783600  1
  O  O6  1  0.91612900  0.53120400  0.67132500  1
  O  O7  1  0.99802300  0.76761300  0.92739200  1
  O  O8  1  0.92453300  0.66377300  0.15783400  1
  O  O9  1  0.67847200  0.19605400  0.32713500  1
  O  O10  1  0.62452900  0.07637000  0.66804500  1
  O  O11  1  0.81297800  0.49167200  0.31660100  1
  O  O12  1  0.68188000  0.34203700  0.97381600  1
  O  O13  1  0.69644000  0.37278900  0.47069200  1
  O  O14  1  0.67740800  0.49056800  0.82954200  1
  O  O15  1  0.47031400  0.08451100  0.17446000  1
  O  O16  1  0.51337900  0.18883500  0.83135200  1
  O  O17  1  0.74093800  0.65822800  0.66073800  1
  O  O18  1  0.79717500  0.79237500  0.24951300  1
  O  O19  1  0.77346200  0.77535400  0.42868500  1
  O  O20  1  0.77469100  0.77119300  0.07003700  1
  O  O21  1  0.62401600  0.52511100  0.17088000  1
  O  O22  1  0.51068800  0.32490400  0.33245400  1
  O  O23  1  0.65800600  0.74344000  0.83787900  1
  O  O24  1  0.47303100  0.38197500  0.67243100  1
  O  O25  1  0.34638700  0.08635300  0.66504100  1
  O  O26  1  0.80633000  0.01168100  0.76199600  1
  O  O27  1  0.80602400  0.99002000  0.58377900  1
  O  O28  1  0.19049100  0.00629300  0.41742800  1
  O  O29  1  0.65373100  0.90953600  0.33571000  1
  O  O30  1  0.53058500  0.61314900  0.32590700  1
  O  O31  1  0.34119300  0.25198400  0.16434700  1
  O  O32  1  0.48687500  0.67383900  0.67023000  1
  O  O33  1  0.37827900  0.45910100  0.83242500  1
  O  O34  1  0.20103700  0.19733000  0.91754200  1
  O  O35  1  0.23468400  0.22460500  0.56528900  1
  O  O36  1  0.19841700  0.20798000  0.74050800  1
  O  O37  1  0.25583900  0.33870600  0.33796800  1
  O  O38  1  0.48862300  0.81423500  0.17011100  1
  O  O39  1  0.53310100  0.91758300  0.83010500  1
  O  O40  1  0.32589700  0.51803200  0.17267200  1
  O  O41  1  0.30995700  0.67642300  0.02938200  1
  O  O42  1  0.31769200  0.64275800  0.52772600  1
  O  O43  1  0.18463500  0.50720600  0.67725600  1
  O  O44  1  0.37529900  0.92273400  0.33564000  1
  O  O45  1  0.32125200  0.80380400  0.67695100  1
  O  O46  1  0.07936000  0.33876100  0.83521200  1
  O  O47  1  0.98861200  0.19809000  0.26067500  1
  O  O48  1  0.00674600  0.21421900  0.08104600  1
  O  O49  1  0.08490600  0.46936600  0.32885100  1
  O  O50  1  0.18783300  0.67725800  0.18312500  1
  O  O51  1  0.08981200  0.61755900  0.82353900  1
  O  O52  1  0.25468300  0.91768700  0.83949800  1
  O  O53  1  0.23626200  0.00384000  0.06399500  1
  O  O54  1  0.19306300  0.98440600  0.23958600  1
  O  O55  1  0.07481300  0.74096100  0.33950000  1
  O  O56  1  0.98765100  0.77084200  0.56618800  1
  O  O57  1  0.00025300  0.79525800  0.74760700  1
loop_
_geom_bond_atom_site_label_1
_geom_bond_atom_site_label_2
_geom_bond_distance
_geom_bond_site_symmetry_2
Li0 O56 2.000055 1_555
Li0 O19 2.047293 1_555
Li0 O55 2.097278 1_655
Li0 O11 2.279878 1_555
Li0 O13 2.524256 1_555
Li1 O7 1.988088 1_555
Li1 O20 2.058579 1_556
Li1 O23 2.114919 1_555
Li1 O14 2.174353 1_555
Li2 O34 1.960299 1_555
Li2 O53 2.010277 1_556
Li2 O52 2.054641 1_545
Li2 O16 2.161614 1_555
Li3 O27 1.948124 1_555
Li3 O19 2.090079 1_555
Li3 O17 2.090724 1_555
Li3 O32 2.196917 1_555
Li4 O28 1.956423 1_555
Li4 O35 2.036169 1_555
Li4 O37 2.056502 1_555
Li4 O22 2.115622 1_555
Li5 O2 1.997937 1_554
Li5 O3 2.023298 1_565
Li5 O20 2.032756 1_555
Li5 O38 2.140215 1_555
Li6 O0 1.948997 1_555
Li6 O1 2.094602 1_455
Li6 O35 2.098594 1_555
Li6 O43 2.175810 1_555
Li7 O53 2.021934 1_565
Li7 O7 2.071435 1_454
Li7 O8 2.123913 1_455
Li7 O50 2.341324 1_555
Li7 O41 2.572600 1_555
Li8 O48 1.859813 1_556
Li8 O34 1.951971 1_555
Li8 O2 2.102483 1_445
Li9 O28 2.139098 1_565
Li9 O27 2.214461 1_455
Li9 O56 2.340297 1_455
Li9 O19 2.416020 1_455
Li9 O35 2.433167 1_565
Li9 O0 2.444714 1_565
O0 P13 1.493140 1_555
O1 P1 1.563170 1_555
O1 V4 1.953958 1_555
O2 P8 1.499188 1_555
O3 P0 1.545952 1_555
O3 V2 1.988343 1_555
O4 P0 1.568877 1_555
O4 V5 1.859778 1_655
O5 P3 1.606398 1_555
O5 V4 1.819070 1_555
O6 P2 1.547599 1_555
O6 V4 1.920176 1_555
O7 P15 1.508404 1_655
O8 P5 1.561650 1_555
O8 V5 1.991015 1_655
O9 P4 1.545285 1_555
O9 V2 1.934582 1_555
O10 P1 1.530586 1_555
O10 V3 1.959478 1_545
O11 P4 1.613568 1_555
O11 V5 1.862570 1_655
O12 P3 1.486971 1_555
O13 P4 1.494050 1_555
O14 P3 1.563783 1_555
O14 V0 1.966427 1_555
O15 P7 1.539019 1_555
O15 V2 1.900850 1_555
O16 P3 1.565223 1_555
O16 V3 2.010136 1_545
O17 P2 1.550598 1_555
O17 V0 1.960961 1_555
O18 P6 1.616324 1_555
O18 P5 1.623506 1_555
O19 P6 1.512579 1_555
O20 P5 1.510226 1_555
O21 P5 1.523397 1_555
O21 V1 1.949426 1_555
O22 P4 1.567891 1_555
O22 V1 1.991135 1_555
O23 P8 1.557328 1_555
O23 V0 1.952311 1_555
O24 P9 1.540816 1_555
O24 V0 1.895737 1_555
O25 P9 1.544411 1_555
O25 V3 1.896346 1_545
O26 P8 1.603253 1_545
O26 P1 1.628963 1_555
O27 P1 1.499555 1_565
O28 P14 1.501543 1_545
O29 P6 1.541376 1_555
O29 V2 1.894656 1_565
O30 P6 1.535163 1_555
O30 V1 1.920378 1_555
O31 P7 1.544061 1_555
O31 V1 1.890891 1_555
O32 P11 1.581905 1_555
O32 V0 1.932260 1_555
O33 P10 1.524201 1_555
O33 V0 1.959966 1_555
O34 P10 1.500284 1_555
O35 P9 1.508446 1_555
O36 P9 1.599392 1_555
O36 P10 1.625878 1_555
O37 P13 1.545050 1_555
O37 V1 1.971582 1_555
O38 P12 1.565622 1_555
O38 V2 1.996330 1_565
O39 P8 1.545197 1_555
O39 V3 1.913068 1_555
O40 P12 1.547118 1_555
O40 V1 1.934604 1_555
O41 P12 1.493464 1_555
O42 P11 1.491778 1_555
O43 P11 1.593630 1_555
O43 V4 1.915513 1_455
O44 P14 1.527199 1_555
O44 V2 1.976831 1_565
O45 P11 1.551500 1_555
O45 V3 1.923941 1_555
O46 P10 1.554505 1_555
O46 V4 1.883250 1_455
O47 P13 1.598864 1_655
O47 P0 1.617476 1_555
O48 P0 1.476674 1_455
O49 P13 1.564133 1_555
O49 V5 1.872554 1_555
O50 P12 1.613194 1_555
O50 V5 1.851518 1_555
O51 P15 1.550685 1_555
O51 V4 1.876363 1_455
O52 P15 1.542665 1_555
O52 V3 2.010630 1_555
O53 P7 1.507947 1_555
O54 P7 1.603679 1_565
O54 P14 1.630738 1_555
O55 P14 1.565735 1_555
O55 V5 1.967914 1_555
O56 P2 1.497300 1_555
O57 P15 1.607435 1_555
O57 P2 1.624312 1_455
