# generated using pymatgen
data_Li7Mn4(P2O7)4
_symmetry_space_group_name_H-M   'P 1'
_cell_length_a   9.91641600
_cell_length_b   9.92817668
_cell_length_c   11.35069327
_cell_angle_alpha   102.78305101
_cell_angle_beta   90.10627093
_cell_angle_gamma   90.67388109
_symmetry_Int_Tables_number   1
_chemical_formula_structural   Li7Mn4(P2O7)4
_chemical_formula_sum   'Li14 Mn8 P16 O56'
_cell_volume   1089.71355360
_cell_formula_units_Z   2
loop_
 _symmetry_equiv_pos_site_id
 _symmetry_equiv_pos_as_xyz
  1  'x, y, z'
loop_
 _atom_site_type_symbol
 _atom_site_label
 _atom_site_symmetry_multiplicity
 _atom_site_fract_x
 _atom_site_fract_y
 _atom_site_fract_z
 _atom_site_occupancy
  Li  Li0  1  0.28927700  0.11394600  0.44869500  1
  Li  Li1  1  0.89006900  0.08708600  0.02790800  1
  Li  Li2  1  0.09488400  0.34215800  0.95854400  1
  Li  Li3  1  0.39202000  0.41388300  0.97276300  1
  Li  Li4  1  0.07997400  0.32737800  0.45208600  1
  Li  Li5  1  0.77496400  0.37764100  0.55110500  1
  Li  Li6  1  0.22163200  0.61189100  0.44844300  1
  Li  Li7  1  0.92042800  0.67056000  0.54820200  1
  Li  Li8  1  0.60754600  0.58513100  0.03046200  1
  Li  Li9  1  0.41301500  0.85273000  0.95657200  1
  Li  Li10  1  0.90765800  0.65334600  0.04356500  1
  Li  Li11  1  0.10631800  0.91481400  0.97168800  1
  Li  Li12  1  0.42854700  0.83787800  0.46270900  1
  Li  Li13  1  0.71984700  0.89620400  0.55237800  1
  Mn  Mn0  1  0.08037200  0.20174800  0.67296200  1
  Mn  Mn1  1  0.78370100  0.25552000  0.82409100  1
  Mn  Mn2  1  0.28810500  0.24147400  0.17481600  1
  Mn  Mn3  1  0.57582900  0.29300400  0.32725700  1
  Mn  Mn4  1  0.42234800  0.70367400  0.67745400  1
  Mn  Mn5  1  0.71461100  0.75950000  0.82681100  1
  Mn  Mn6  1  0.21642800  0.74669100  0.17781200  1
  Mn  Mn7  1  0.91962500  0.79772900  0.32433600  1
  P  P0  1  0.54588200  0.02519400  0.75538900  1
  P  P1  1  0.29432100  0.11974200  0.89094100  1
  P  P2  1  0.06918700  0.05937600  0.24364300  1
  P  P3  1  0.84821300  0.12466300  0.42439400  1
  P  P4  1  0.35271800  0.37769300  0.56994200  1
  P  P5  1  0.56912700  0.44218800  0.75793800  1
  P  P6  1  0.95010000  0.52471700  0.76162800  1
  P  P7  1  0.79149600  0.37971000  0.11142600  1
  P  P8  1  0.20355800  0.61831400  0.89163100  1
  P  P9  1  0.04903400  0.47346500  0.23868200  1
  P  P10  1  0.43200500  0.55882200  0.24401600  1
  P  P11  1  0.64809100  0.61962400  0.42444100  1
  P  P12  1  0.15074500  0.87697300  0.57305100  1
  P  P13  1  0.93240600  0.94119300  0.75517100  1
  P  P14  1  0.70542800  0.88167400  0.10925400  1
  P  P15  1  0.45538700  0.97558500  0.24158100  1
  O  O0  1  0.57563600  0.01218500  0.62406900  1
  O  O1  1  0.16257900  0.02304800  0.55190000  1
  O  O2  1  0.91308700  0.08732100  0.73155800  1
  O  O3  1  0.64900300  0.11223700  0.84446300  1
  O  O4  1  0.40205500  0.10031000  0.78036100  1
  O  O5  1  0.16951500  0.17898800  0.84124700  1
  O  O6  1  0.35353500  0.22856100  0.99808900  1
  O  O7  1  0.73110900  0.01708200  0.07656400  1
  O  O8  1  0.92325400  0.11255500  0.29501900  1
  O  O9  1  0.06602100  0.06412900  0.11096800  1
  O  O10  1  0.46632100  0.13010400  0.22650200  1
  O  O11  1  0.71465400  0.19461000  0.41136500  1
  O  O12  1  0.17476200  0.16455000  0.31281900  1
  O  O13  1  0.93616100  0.22410900  0.51823200  1
  O  O14  1  0.42985600  0.28156600  0.47027000  1
  O  O15  1  0.68351900  0.34422800  0.70004600  1
  O  O16  1  0.21232500  0.31380400  0.58170300  1
  O  O17  1  0.95891100  0.37555400  0.78863700  1
  O  O18  1  0.42710200  0.38147000  0.69807200  1
  O  O19  1  0.55798400  0.44121200  0.89034300  1
  O  O20  1  0.22313700  0.48021400  0.92393200  1
  O  O21  1  0.85872600  0.27592300  0.00208000  1
  O  O22  1  0.67021100  0.32282500  0.16551100  1
  O  O23  1  0.90201800  0.40205100  0.22149500  1
  O  O24  1  0.41503000  0.41349300  0.27061000  1
  O  O25  1  0.14070700  0.38420600  0.14385400  1
  O  O26  1  0.91215700  0.52135900  0.63139900  1
  O  O27  1  0.65375300  0.46845400  0.43902800  1
  O  O28  1  0.34068100  0.52819100  0.55808900  1
  O  O29  1  0.08662600  0.47599300  0.36915100  1
  O  O30  1  0.86283800  0.61586100  0.85815600  1
  O  O31  1  0.58786700  0.58685400  0.72951700  1
  O  O32  1  0.10042500  0.59110200  0.77588700  1
  O  O33  1  0.32830900  0.68346100  0.84657600  1
  O  O34  1  0.13374200  0.72239900  0.99643000  1
  O  O35  1  0.77557200  0.51733300  0.07616600  1
  O  O36  1  0.43383500  0.56393700  0.11186400  1
  O  O37  1  0.58035300  0.61543500  0.29442800  1
  O  O38  1  0.03712900  0.62091900  0.21270500  1
  O  O39  1  0.78974100  0.68120200  0.41955900  1
  O  O40  1  0.32804300  0.66180900  0.31334500  1
  O  O41  1  0.56335900  0.71790600  0.51814400  1
  O  O42  1  0.06351800  0.77452800  0.48200600  1
  O  O43  1  0.82785400  0.83602800  0.68479300  1
  O  O44  1  0.28954800  0.81230900  0.58292100  1
  O  O45  1  0.53117100  0.88048600  0.79094600  1
  O  O46  1  0.93504400  0.93535700  0.88741800  1
  O  O47  1  0.07993700  0.88829700  0.70401100  1
  O  O48  1  0.27469500  0.98055400  0.92218600  1
  O  O49  1  0.63202800  0.77609900  0.00502200  1
  O  O50  1  0.82570100  0.81198500  0.15597600  1
  O  O51  1  0.60192500  0.90820200  0.22538900  1
  O  O52  1  0.36445100  0.89353100  0.14004800  1
  O  O53  1  0.08858400  0.91393800  0.26814800  1
  O  O54  1  0.83582400  0.97785200  0.44431600  1
  O  O55  1  0.40970600  0.96879100  0.36696000  1
loop_
_geom_bond_atom_site_label_1
_geom_bond_atom_site_label_2
_geom_bond_distance
_geom_bond_site_symmetry_2
Li0 O55 1.953630 1_545
Li0 O1 2.052276 1_555
Li0 O12 2.066497 1_555
Li0 O14 2.129923 1_555
Li0 O16 2.347978 1_555
Li1 O7 1.849361 1_555
Li1 O21 1.988477 1_555
Li1 O46 1.991605 1_544
Li1 O9 2.020770 1_655
Li2 O20 1.962053 1_555
Li2 O5 2.005513 1_555
Li2 O25 2.099632 1_556
Li2 O17 2.435407 1_455
Li2 O21 2.504539 1_456
Li3 O20 1.931213 1_555
Li3 O19 1.940338 1_555
Li3 O36 1.956116 1_556
Li3 O6 1.957420 1_555
Li4 O29 1.918370 1_555
Li4 O13 1.989698 1_455
Li4 O16 1.997492 1_555
Li4 O12 2.214980 1_555
Li5 O15 2.009279 1_555
Li5 O26 2.022793 1_555
Li5 O27 2.098428 1_555
Li5 O13 2.196753 1_555
Li5 O11 2.207049 1_555
Li6 O29 1.959190 1_555
Li6 O40 2.010121 1_555
Li6 O28 2.026925 1_555
Li6 O42 2.236134 1_555
Li6 O44 2.315902 1_555
Li7 O26 1.925926 1_555
Li7 O39 1.971613 1_555
Li7 O42 1.989000 1_655
Li7 O43 2.204294 1_555
Li8 O35 1.917336 1_555
Li8 O19 1.946187 1_554
Li8 O36 1.987140 1_555
Li8 O49 1.992161 1_555
Li9 O48 1.975447 1_555
Li9 O33 2.030516 1_555
Li9 O52 2.090010 1_556
Li9 O45 2.283176 1_555
Li9 O49 2.411984 1_556
Li10 O35 1.964014 1_555
Li10 O50 1.978338 1_555
Li10 O30 2.100262 1_554
Li10 O38 2.389970 1_655
Li10 O34 2.431700 1_654
Li11 O48 1.915651 1_555
Li11 O9 1.958514 1_566
Li11 O46 1.982329 1_455
Li11 O34 2.012842 1_555
Li12 O55 1.880271 1_555
Li12 O41 1.991938 1_555
Li12 O44 1.994545 1_555
Li12 O40 2.358935 1_555
Li13 O0 1.913518 1_565
Li13 O54 1.976756 1_555
Li13 O43 2.041940 1_555
Li13 O41 2.306806 1_555
Li13 O39 2.433978 1_555
Mn0 O16 2.122167 1_555
Mn0 O1 2.158657 1_555
Mn0 O5 2.161156 1_555
Mn0 O2 2.186081 1_455
Mn0 O17 2.281322 1_455
Mn0 O13 2.312921 1_455
Mn1 O3 1.990792 1_555
Mn1 O15 2.075854 1_555
Mn1 O21 2.118000 1_556
Mn1 O17 2.183347 1_555
Mn1 O2 2.194814 1_555
Mn2 O6 2.086703 1_554
Mn2 O25 2.129610 1_555
Mn2 O24 2.192207 1_555
Mn2 O12 2.194532 1_555
Mn2 O10 2.240347 1_555
Mn3 O11 2.049466 1_555
Mn3 O27 2.056121 1_555
Mn3 O10 2.058737 1_555
Mn3 O22 2.138844 1_555
Mn3 O24 2.183673 1_555
Mn3 O14 2.197670 1_555
Mn4 O28 2.108331 1_555
Mn4 O44 2.142229 1_555
Mn4 O31 2.175525 1_555
Mn4 O33 2.183497 1_555
Mn4 O45 2.203432 1_555
Mn4 O41 2.315803 1_555
Mn5 O30 2.143061 1_555
Mn5 O49 2.156710 1_556
Mn5 O31 2.200859 1_555
Mn5 O43 2.228341 1_555
Mn5 O45 2.276527 1_555
Mn6 O52 2.166152 1_555
Mn6 O53 2.171779 1_555
Mn6 O34 2.176820 1_554
Mn6 O40 2.211609 1_555
Mn6 O38 2.246468 1_555
Mn7 O50 2.157693 1_555
Mn7 O39 2.165412 1_555
Mn7 O54 2.169022 1_555
Mn7 O53 2.197540 1_655
Mn7 O38 2.261415 1_655
Mn7 O42 2.339378 1_655
O0 P0 1.497625 1_555
O1 P12 1.524741 1_545
O2 P13 1.546523 1_545
O3 P0 1.550309 1_555
O4 P0 1.613589 1_555
O4 P1 1.629924 1_555
O5 P1 1.535327 1_555
O6 P1 1.546651 1_555
O7 P14 1.490927 1_545
O8 P2 1.611791 1_655
O8 P3 1.628715 1_555
O9 P2 1.517371 1_555
O10 P15 1.583300 1_545
O11 P3 1.524660 1_555
O12 P2 1.552845 1_555
O13 P3 1.542996 1_555
O14 P4 1.522651 1_555
O15 P5 1.552533 1_555
O16 P4 1.541349 1_555
O17 P6 1.580691 1_555
O18 P5 1.613655 1_555
O18 P4 1.622315 1_555
O19 P5 1.509309 1_555
O20 P8 1.510110 1_555
O21 P7 1.581129 1_555
O22 P7 1.510808 1_555
O23 P9 1.606103 1_655
O23 P7 1.636413 1_555
O24 P10 1.545473 1_555
O25 P9 1.539726 1_555
O26 P6 1.517748 1_555
O27 P11 1.547581 1_555
O28 P4 1.535574 1_555
O29 P9 1.521178 1_555
O30 P6 1.533391 1_555
O31 P5 1.549340 1_555
O32 P6 1.616019 1_455
O32 P8 1.635964 1_555
O33 P8 1.529754 1_555
O34 P8 1.561443 1_555
O35 P7 1.516195 1_555
O36 P10 1.512199 1_555
O37 P11 1.612217 1_555
O37 P10 1.625584 1_555
O38 P9 1.561723 1_555
O39 P11 1.531333 1_555
O40 P10 1.548960 1_555
O41 P11 1.533848 1_555
O42 P12 1.536715 1_555
O43 P13 1.550990 1_555
O44 P12 1.539904 1_555
O45 P0 1.581177 1_565
O46 P13 1.515159 1_555
O47 P13 1.624681 1_455
O47 P12 1.626987 1_555
O48 P1 1.511311 1_565
O49 P14 1.567889 1_555
O50 P14 1.536836 1_555
O51 P15 1.600739 1_555
O51 P14 1.648711 1_555
O52 P15 1.538963 1_555
O53 P2 1.543818 1_565
O54 P3 1.527242 1_565
O55 P15 1.509711 1_555
