# generated using pymatgen
data_Na4Fe2O5
_symmetry_space_group_name_H-M   'P 1'
_cell_length_a   5.77272600
_cell_length_b   9.25428300
_cell_length_c   13.12653545
_cell_angle_alpha   62.06640144
_cell_angle_beta   90.00000000
_cell_angle_gamma   90.00000000
_symmetry_Int_Tables_number   1
_chemical_formula_structural   Na4Fe2O5
_chemical_formula_sum   'Na16 Fe8 O20'
_cell_volume   619.54949344
_cell_formula_units_Z   4
loop_
 _symmetry_equiv_pos_site_id
 _symmetry_equiv_pos_as_xyz
  1  'x, y, z'
loop_
 _atom_site_type_symbol
 _atom_site_label
 _atom_site_symmetry_multiplicity
 _atom_site_fract_x
 _atom_site_fract_y
 _atom_site_fract_z
 _atom_site_occupancy
  Na  Na0  1  0.92674600  0.19447000  0.96709900  1
  Na  Na1  1  0.42674600  0.80553000  0.53290100  1
  Na  Na2  1  0.11421600  0.60629200  0.87800100  1
  Na  Na3  1  0.57325400  0.19447000  0.46709900  1
  Na  Na4  1  0.41068200  0.29762300  0.03781700  1
  Na  Na5  1  0.91068200  0.70237700  0.46218300  1
  Na  Na6  1  0.58931800  0.70237700  0.96218300  1
  Na  Na7  1  0.08931800  0.29762300  0.53781700  1
  Na  Na8  1  0.61943900  0.87032400  0.13316600  1
  Na  Na9  1  0.11943900  0.12967600  0.36683400  1
  Na  Na10  1  0.38056100  0.12967600  0.86683400  1
  Na  Na11  1  0.88056100  0.87032400  0.63316600  1
  Na  Na12  1  0.38578400  0.60629200  0.37800100  1
  Na  Na13  1  0.88578400  0.39370800  0.12199900  1
  Na  Na14  1  0.61421600  0.39370800  0.62199900  1
  Na  Na15  1  0.07325400  0.80553000  0.03290100  1
  Fe  Fe0  1  0.65805300  0.04410900  0.29664800  1
  Fe  Fe1  1  0.34194700  0.95589100  0.70335200  1
  Fe  Fe2  1  0.84194700  0.04410900  0.79664800  1
  Fe  Fe3  1  0.61459200  0.54259800  0.80051800  1
  Fe  Fe4  1  0.11459200  0.45740200  0.69948200  1
  Fe  Fe5  1  0.38540800  0.45740200  0.19948200  1
  Fe  Fe6  1  0.88540800  0.54259800  0.30051800  1
  Fe  Fe7  1  0.15805300  0.95589100  0.20335200  1
  O  O0  1  0.93333600  0.11209200  0.20032700  1
  O  O1  1  0.32946300  0.41949400  0.82327700  1
  O  O2  1  0.17053700  0.41949400  0.32327700  1
  O  O3  1  0.67053700  0.58050600  0.17672300  1
  O  O4  1  0.25972800  0.03137600  0.05304000  1
  O  O5  1  0.75972800  0.96862400  0.44696000  1
  O  O6  1  0.74027200  0.96862400  0.94696000  1
  O  O7  1  0.24027200  0.03137600  0.55304000  1
  O  O8  1  0.76136800  0.44661900  0.94265100  1
  O  O9  1  0.26136800  0.55338100  0.55734900  1
  O  O10  1  0.23863200  0.55338100  0.05734900  1
  O  O11  1  0.73863200  0.44661900  0.44265100  1
  O  O12  1  0.98127800  0.75897900  0.26120100  1
  O  O13  1  0.82946300  0.58050600  0.67672300  1
  O  O14  1  0.48127800  0.24102100  0.23879900  1
  O  O15  1  0.01872200  0.24102100  0.73879900  1
  O  O16  1  0.43333600  0.88790800  0.29967300  1
  O  O17  1  0.06666400  0.88790800  0.79967300  1
  O  O18  1  0.56666400  0.11209200  0.70032700  1
  O  O19  1  0.51872200  0.75897900  0.76120100  1
loop_
_geom_bond_atom_site_label_1
_geom_bond_atom_site_label_2
_geom_bond_distance
_geom_bond_site_symmetry_2
Na0 O4 2.377046 1_656
Na0 O8 2.399550 1_555
Na0 O6 2.472768 1_545
Na0 O0 2.787225 1_556
Na0 O15 2.870313 1_655
Na1 O5 2.377046 1_555
Na1 O9 2.399550 1_555
Na1 O7 2.472768 1_565
Na1 O16 2.787225 1_555
Na1 O19 2.870313 1_555
Na2 O10 2.284280 1_556
Na2 O17 2.326810 1_555
Na2 O8 2.424404 1_455
Na2 O1 2.492333 1_555
Na2 O19 2.787516 1_555
Na3 O7 2.377046 1_555
Na3 O11 2.399550 1_555
Na3 O5 2.472768 1_545
Na3 O18 2.787225 1_555
Na3 O14 2.870313 1_555
Na4 O8 2.438487 1_554
Na4 O14 2.470998 1_555
Na4 O4 2.531588 1_555
Na4 O1 2.539073 1_554
Na4 O10 2.687513 1_555
Na5 O9 2.438487 1_655
Na5 O12 2.470998 1_555
Na5 O5 2.531588 1_555
Na5 O13 2.539073 1_555
Na5 O11 2.687513 1_555
Na6 O10 2.438487 1_556
Na6 O19 2.470998 1_555
Na6 O6 2.531588 1_555
Na6 O3 2.539073 1_556
Na6 O8 2.687513 1_555
Na7 O11 2.438487 1_455
Na7 O15 2.470998 1_555
Na7 O7 2.531588 1_555
Na7 O2 2.539073 1_555
Na7 O9 2.687513 1_555
Na8 O6 2.281493 1_554
Na8 O3 2.484077 1_555
Na8 O4 2.484115 1_565
Na8 O16 2.508183 1_555
Na8 O12 2.574285 1_555
Na9 O7 2.281493 1_555
Na9 O2 2.484077 1_555
Na9 O5 2.484115 1_445
Na9 O0 2.508183 1_455
Na9 O14 2.574285 1_555
Na10 O4 2.281493 1_556
Na10 O1 2.484077 1_555
Na10 O6 2.484115 1_545
Na10 O18 2.508183 1_555
Na10 O15 2.574285 1_555
Na11 O5 2.281493 1_555
Na11 O13 2.484077 1_555
Na11 O7 2.484115 1_665
Na11 O17 2.508183 1_655
Na11 O19 2.574285 1_555
Na12 O9 2.284280 1_555
Na12 O16 2.326810 1_555
Na12 O11 2.424404 1_555
Na12 O2 2.492333 1_555
Na12 O12 2.787516 1_455
Na13 O8 2.284280 1_554
Na13 O0 2.326810 1_555
Na13 O10 2.424404 1_655
Na13 O3 2.492333 1_555
Na13 O14 2.787516 1_555
Na14 O11 2.284280 1_555
Na14 O18 2.326810 1_555
Na14 O9 2.424404 1_555
Na14 O13 2.492333 1_555
Na14 O15 2.787516 1_655
Na15 O6 2.377046 1_454
Na15 O10 2.399550 1_555
Na15 O4 2.472768 1_565
Na15 O17 2.787225 1_554
Na15 O12 2.870313 1_455
Fe0 O5 1.853154 1_545
Fe0 O14 1.908468 1_555
Fe0 O16 1.928771 1_545
Fe0 O0 1.942809 1_555
Fe1 O7 1.853154 1_565
Fe1 O19 1.908468 1_555
Fe1 O18 1.928771 1_565
Fe1 O17 1.942809 1_555
Fe2 O6 1.853154 1_545
Fe2 O15 1.908468 1_655
Fe2 O17 1.928771 1_645
Fe2 O18 1.942809 1_555
Fe3 O8 1.853415 1_555
Fe3 O19 1.901107 1_555
Fe3 O13 1.941177 1_555
Fe3 O1 1.943572 1_555
Fe4 O9 1.853415 1_555
Fe4 O15 1.901107 1_555
Fe4 O1 1.941177 1_555
Fe4 O13 1.943572 1_455
Fe5 O10 1.853415 1_555
Fe5 O14 1.901107 1_555
Fe5 O2 1.941177 1_555
Fe5 O3 1.943572 1_555
Fe6 O11 1.853415 1_555
Fe6 O12 1.901107 1_555
Fe6 O3 1.941177 1_555
Fe6 O2 1.943572 1_655
Fe7 O4 1.853154 1_565
Fe7 O12 1.908468 1_455
Fe7 O0 1.928771 1_465
Fe7 O16 1.942809 1_555
