# generated using pymatgen
data_Li2MnCoO4
_symmetry_space_group_name_H-M   'P 1'
_cell_length_a   3.05948500
_cell_length_b   6.04792800
_cell_length_c   8.11097255
_cell_angle_alpha   89.35149124
_cell_angle_beta   90.00000000
_cell_angle_gamma   90.00000000
_symmetry_Int_Tables_number   1
_chemical_formula_structural   Li2MnCoO4
_chemical_formula_sum   'Li4 Mn2 Co2 O8'
_cell_volume   150.07213203
_cell_formula_units_Z   2
loop_
 _symmetry_equiv_pos_site_id
 _symmetry_equiv_pos_as_xyz
  1  'x, y, z'
loop_
 _atom_site_type_symbol
 _atom_site_label
 _atom_site_symmetry_multiplicity
 _atom_site_fract_x
 _atom_site_fract_y
 _atom_site_fract_z
 _atom_site_occupancy
  Li  Li0  1  0.25000000  0.37654900  0.12605600  1
  Li  Li1  1  0.75000000  0.62345100  0.87394400  1
  Li  Li2  1  0.25000000  0.87341100  0.62364000  1
  Li  Li3  1  0.75000000  0.12658900  0.37636000  1
  Mn  Mn0  1  0.25000000  0.87301000  0.12463400  1
  Mn  Mn1  1  0.75000000  0.12699000  0.87536600  1
  Co  Co0  1  0.25000000  0.37750100  0.62414500  1
  Co  Co1  1  0.75000000  0.62249900  0.37585500  1
  O  O0  1  0.25000000  0.88207600  0.88717600  1
  O  O1  1  0.75000000  0.13718000  0.63626400  1
  O  O2  1  0.25000000  0.38460100  0.38631500  1
  O  O3  1  0.75000000  0.63020200  0.13677300  1
  O  O4  1  0.25000000  0.86282000  0.36373600  1
  O  O5  1  0.75000000  0.11792400  0.11282400  1
  O  O6  1  0.25000000  0.36979800  0.86322700  1
  O  O7  1  0.75000000  0.61539900  0.61368500  1
loop_
_geom_bond_atom_site_label_1
_geom_bond_atom_site_label_2
_geom_bond_distance
_geom_bond_site_symmetry_2
Li0 O2 2.112066 1_555
Li0 O6 2.132652 1_554
Li0 O3 2.168888 1_455
Li0 O3 2.168888 1_555
Li0 O5 2.191342 1_455
Li0 O5 2.191342 1_555
Li1 O7 2.112066 1_555
Li1 O3 2.132652 1_556
Li1 O6 2.168888 1_555
Li1 O6 2.168888 1_655
Li1 O0 2.191342 1_655
Li1 O0 2.191342 1_555
Li2 O4 2.109772 1_555
Li2 O0 2.138768 1_555
Li2 O7 2.187339 1_555
Li2 O7 2.187339 1_455
Li2 O1 2.213399 1_565
Li2 O1 2.213399 1_465
Li3 O1 2.109772 1_555
Li3 O5 2.138768 1_555
Li3 O2 2.187339 1_655
Li3 O2 2.187339 1_555
Li3 O4 2.213399 1_545
Li3 O4 2.213399 1_645
Mn0 O0 1.926175 1_554
Mn0 O4 1.939631 1_555
Mn0 O3 2.122023 1_455
Mn0 O3 2.122023 1_555
Mn0 O5 2.130750 1_465
Mn0 O5 2.130750 1_565
Mn1 O5 1.926175 1_556
Mn1 O1 1.939631 1_555
Mn1 O6 2.122023 1_655
Mn1 O6 2.122023 1_555
Mn1 O0 2.130750 1_645
Mn1 O0 2.130750 1_545
Co0 O2 1.929025 1_555
Co0 O6 1.939220 1_555
Co0 O7 2.101110 1_455
Co0 O7 2.101110 1_555
Co0 O1 2.111644 1_455
Co0 O1 2.111644 1_555
Co1 O7 1.929025 1_555
Co1 O3 1.939220 1_555
Co1 O2 2.101110 1_655
Co1 O2 2.101110 1_555
Co1 O4 2.111644 1_655
Co1 O4 2.111644 1_555
