# generated using pymatgen
data_AlBiN2
_symmetry_space_group_name_H-M   'P 1'
_cell_length_a   6.13407800
_cell_length_b   7.51035200
_cell_length_c   5.24492300
_cell_angle_alpha   90.00000000
_cell_angle_beta   90.00000000
_cell_angle_gamma   90.00000000
_symmetry_Int_Tables_number   1
_chemical_formula_structural   AlBiN2
_chemical_formula_sum   'Al4 Bi4 N8'
_cell_volume   241.62880338
_cell_formula_units_Z   4
loop_
 _symmetry_equiv_pos_site_id
 _symmetry_equiv_pos_as_xyz
  1  'x, y, z'
loop_
 _atom_site_type_symbol
 _atom_site_label
 _atom_site_symmetry_multiplicity
 _atom_site_fract_x
 _atom_site_fract_y
 _atom_site_fract_z
 _atom_site_occupancy
  Al  Al0  1  0.52528300  0.37015700  0.00036300  1
  Al  Al1  1  0.47471700  0.62984300  0.50036300  1
  Al  Al2  1  0.97471700  0.87015700  0.50036300  1
  Al  Al3  1  0.02528300  0.12984300  0.00036300  1
  Bi  Bi0  1  0.61905800  0.86737800  0.01827300  1
  Bi  Bi1  1  0.38094200  0.13262200  0.51827300  1
  Bi  Bi2  1  0.88094200  0.36737800  0.51827300  1
  Bi  Bi3  1  0.11905800  0.63262200  0.01827300  1
  N  N0  1  0.52312300  0.39242100  0.36397300  1
  N  N1  1  0.47687700  0.60757900  0.86397300  1
  N  N2  1  0.97687700  0.89242100  0.86397300  1
  N  N3  1  0.02312300  0.10757900  0.36397300  1
  N  N4  1  0.72026700  0.76014900  0.38739100  1
  N  N5  1  0.27973300  0.23985100  0.88739100  1
  N  N6  1  0.77973300  0.26014900  0.88739100  1
  N  N7  1  0.22026700  0.73985100  0.38739100  1
loop_
_geom_bond_atom_site_label_1
_geom_bond_atom_site_label_2
_geom_bond_distance
_geom_bond_site_symmetry_2
Al0 N6 1.862751 1_554
Al0 N5 1.891439 1_554
Al0 N0 1.914469 1_555
Al0 N1 1.944074 1_554
Al1 N7 1.862751 1_555
Al1 N4 1.891439 1_555
Al1 N1 1.914469 1_555
Al1 N0 1.944074 1_555
Al2 N4 1.862751 1_555
Al2 N7 1.891439 1_655
Al2 N2 1.914469 1_555
Al2 N3 1.944074 1_665
Al3 N5 1.862751 1_554
Al3 N6 1.891439 1_454
Al3 N3 1.914469 1_555
Al3 N2 1.944074 1_444
Bi0 N4 2.186791 1_555
Bi0 N1 2.285325 1_554
Bi0 N2 2.346885 1_554
Bi1 N5 2.186791 1_555
Bi1 N0 2.285325 1_555
Bi1 N3 2.346885 1_555
Bi2 N6 2.186791 1_555
Bi2 N3 2.285325 1_655
Bi2 N0 2.346885 1_555
Bi3 N7 2.186791 1_555
Bi3 N2 2.285325 1_454
Bi3 N1 2.346885 1_554
