# generated using pymatgen
data_CeMn7Ni5
_symmetry_space_group_name_H-M   'P 1'
_cell_length_a   4.76508100
_cell_length_b   6.38956242
_cell_length_c   6.38956242
_cell_angle_alpha   97.68143053
_cell_angle_beta   111.89334403
_cell_angle_gamma   68.10665597
_symmetry_Int_Tables_number   1
_chemical_formula_structural   CeMn7Ni5
_chemical_formula_sum   'Ce1 Mn7 Ni5'
_cell_volume   167.48938623
_cell_formula_units_Z   1
loop_
 _symmetry_equiv_pos_site_id
 _symmetry_equiv_pos_as_xyz
  1  'x, y, z'
loop_
 _atom_site_type_symbol
 _atom_site_label
 _atom_site_symmetry_multiplicity
 _atom_site_fract_x
 _atom_site_fract_y
 _atom_site_fract_z
 _atom_site_occupancy
  Ce  Ce0  1  0.00843500  0.99156500  0.00843500  1
  Mn  Mn0  1  0.50433800  0.99978800  0.50446100  1
  Mn  Mn1  1  0.00033500  0.99978800  0.50446100  1
  Mn  Mn2  1  0.50433800  0.49553900  0.00021200  1
  Mn  Mn3  1  0.00033500  0.49553900  0.00021200  1
  Mn  Mn4  1  0.26843400  0.23156600  0.76843400  1
  Mn  Mn5  1  0.50169400  0.76284500  0.76623200  1
  Mn  Mn6  1  0.50169400  0.23376800  0.23715500  1
  Ni  Ni0  1  0.65122300  0.34877700  0.65122300  1
  Ni  Ni1  1  0.35052400  0.64947600  0.35052400  1
  Ni  Ni2  1  0.99632700  0.35797000  0.35062500  1
  Ni  Ni3  1  0.99632700  0.64937500  0.64203000  1
  Ni  Ni4  1  0.71599700  0.78400300  0.21599700  1
loop_
_geom_bond_atom_site_label_1
_geom_bond_atom_site_label_2
_geom_bond_distance
_geom_bond_site_symmetry_2
Ce0 Ni1 2.859282 1_555
Ce0 Ni4 2.947246 1_455
Ce0 Ni4 2.947246 1_555
Ce0 Ni3 2.981587 1_454
Ce0 Ni2 2.981587 1_465
Ce0 Ni0 2.985685 1_464
Ce0 Mn6 3.098641 1_465
Ce0 Mn5 3.098641 1_454
Ce0 Mn6 3.098645 1_565
Ce0 Mn5 3.098645 1_554
Ce0 Mn4 3.114568 1_564
Ce0 Mn4 3.114569 1_464
Ce0 Mn1 3.177181 1_555
Ce0 Mn3 3.177181 1_555
Ce0 Mn0 3.177181 1_555
Ce0 Mn2 3.177181 1_555
Ce0 Mn3 3.213222 1_565
Ce0 Mn1 3.213222 1_554
Ce0 Mn2 3.213222 1_465
Ce0 Mn0 3.213222 1_454
Mn0 Mn1 2.363466 1_655
Mn0 Mn1 2.401615 1_555
Mn0 Mn5 2.407639 1_555
Mn0 Mn6 2.409347 1_565
Mn0 Mn4 2.409647 1_565
Mn0 Ni4 2.446506 1_555
Mn0 Ni3 2.521230 1_555
Mn0 Ni0 2.541083 1_565
Mn0 Ni1 2.571400 1_555
Mn0 Ni2 2.599838 1_465
Mn1 Mn5 2.407642 1_555
Mn1 Mn6 2.409345 1_465
Mn1 Mn4 2.409647 1_565
Mn1 Ni4 2.446506 1_455
Mn1 Ni3 2.521232 1_455
Mn1 Ni0 2.541084 1_465
Mn1 Ni1 2.571400 1_555
Mn1 Ni2 2.599835 1_465
Mn2 Mn3 2.363466 1_655
Mn2 Mn3 2.401615 1_555
Mn2 Mn6 2.407639 1_555
Mn2 Mn5 2.409347 1_554
Mn2 Mn4 2.409647 1_554
Mn2 Ni4 2.446506 1_555
Mn2 Ni2 2.521230 1_555
Mn2 Ni0 2.541083 1_554
Mn2 Ni1 2.571400 1_555
Mn2 Ni3 2.599838 1_454
Mn3 Mn6 2.407642 1_555
Mn3 Mn5 2.409345 1_454
Mn3 Mn4 2.409647 1_554
Mn3 Ni4 2.446506 1_455
Mn3 Ni2 2.521232 1_455
Mn3 Ni0 2.541084 1_454
Mn3 Ni1 2.571400 1_555
Mn3 Ni3 2.599835 1_454
Mn4 Ni0 2.576098 1_555
Mn4 Ni0 2.576098 1_455
Mn4 Ni3 2.583484 1_455
Mn4 Ni2 2.583484 1_455
Mn4 Mn6 2.779039 1_556
Mn4 Mn5 2.779039 1_545
Mn5 Ni0 2.551937 1_555
Mn5 Ni1 2.558678 1_555
Mn5 Ni3 2.584079 1_555
Mn5 Ni3 2.584087 1_455
Mn5 Ni4 2.670273 1_556
Mn6 Ni0 2.551937 1_555
Mn6 Ni1 2.558678 1_555
Mn6 Ni2 2.584079 1_555
Mn6 Ni2 2.584087 1_455
Mn6 Ni4 2.670273 1_545
Ni0 Ni1 2.513332 1_555
Ni0 Ni3 2.975629 1_555
Ni0 Ni2 2.975629 1_555
Ni0 Ni3 2.975633 1_455
Ni0 Ni2 2.975633 1_455
Ni1 Ni4 2.634542 1_555
Ni1 Ni4 2.634542 1_455
Ni1 Ni2 2.943361 1_555
Ni1 Ni3 2.943361 1_555
Ni1 Ni2 2.943365 1_455
Ni1 Ni3 2.943365 1_455
Ni2 Ni3 2.450903 1_555
Ni2 Ni4 2.644198 1_555
Ni3 Ni4 2.644198 1_555
