# generated using pymatgen
data_I5N2
_symmetry_space_group_name_H-M   'P 1'
_cell_length_a   8.85393334
_cell_length_b   8.85393334
_cell_length_c   8.99682300
_cell_angle_alpha   90.00000000
_cell_angle_beta   90.00000000
_cell_angle_gamma   119.99999503
_symmetry_Int_Tables_number   1
_chemical_formula_structural   I5N2
_chemical_formula_sum   'I10 N4'
_cell_volume   610.79057262
_cell_formula_units_Z   2
loop_
 _symmetry_equiv_pos_site_id
 _symmetry_equiv_pos_as_xyz
  1  'x, y, z'
loop_
 _atom_site_type_symbol
 _atom_site_label
 _atom_site_symmetry_multiplicity
 _atom_site_fract_x
 _atom_site_fract_y
 _atom_site_fract_z
 _atom_site_occupancy
  I  I0  1  0.00000000  0.00000000  0.10777800  1
  I  I1  1  0.00000000  0.00000000  0.60777800  1
  I  I2  1  0.19615000  0.39230000  0.51410400  1
  I  I3  1  0.19615000  0.80385000  0.51410400  1
  I  I4  1  0.60770000  0.80385000  0.51410400  1
  I  I5  1  0.80385000  0.60770000  0.01410400  1
  I  I6  1  0.80385000  0.19615000  0.01410400  1
  I  I7  1  0.39230000  0.19615000  0.01410400  1
  I  I8  1  0.33333300  0.66666700  0.09715800  1
  I  I9  1  0.66666700  0.33333300  0.59715800  1
  N  N0  1  0.33333300  0.66666700  0.48003900  1
  N  N1  1  0.66666700  0.33333300  0.98003900  1
  N  N2  1  0.66666700  0.33333300  0.38040800  1
  N  N3  1  0.33333300  0.66666700  0.88040800  1
loop_
_geom_bond_atom_site_label_1
_geom_bond_atom_site_label_2
_geom_bond_distance
_geom_bond_site_symmetry_2
I0 I6 3.123880 1_455
I0 I7 3.123881 1_555
I0 I5 3.123881 1_445
I1 I3 3.123880 1_545
I1 I2 3.123881 1_555
I1 I4 3.123881 1_445
I2 N0 2.125979 1_555
I3 N0 2.125971 1_555
I4 N0 2.125979 1_555
I5 N1 2.125979 1_554
I6 N1 2.125971 1_554
I7 N1 2.125979 1_554
I8 N3 1.950061 1_554
I9 N2 1.950061 1_555
