# generated using pymatgen
data_V2FeAg3O8
_symmetry_space_group_name_H-M   'P 1'
_cell_length_a   5.21290700
_cell_length_b   5.61308129
_cell_length_c   14.51882876
_cell_angle_alpha   93.70649521
_cell_angle_beta   90.00000000
_cell_angle_gamma   117.66839034
_symmetry_Int_Tables_number   1
_chemical_formula_structural   V2FeAg3O8
_chemical_formula_sum   'V4 Fe2 Ag6 O16'
_cell_volume   375.24504887
_cell_formula_units_Z   2
loop_
 _symmetry_equiv_pos_site_id
 _symmetry_equiv_pos_as_xyz
  1  'x, y, z'
loop_
 _atom_site_type_symbol
 _atom_site_label
 _atom_site_symmetry_multiplicity
 _atom_site_fract_x
 _atom_site_fract_y
 _atom_site_fract_z
 _atom_site_occupancy
  V  V0  1  0.36818700  0.66429400  0.60612800  1
  V  V1  1  0.70389300  0.33570600  0.89387200  1
  V  V2  1  0.63181300  0.33570600  0.39387200  1
  V  V3  1  0.29610700  0.66429400  0.10612800  1
  Fe  Fe0  1  0.00000000  0.00000000  0.00000000  1
  Fe  Fe1  1  0.00000000  0.00000000  0.50000000  1
  Ag  Ag0  1  0.04397600  0.00000000  0.75000000  1
  Ag  Ag1  1  0.95602400  0.00000000  0.25000000  1
  Ag  Ag2  1  0.71736100  0.32085800  0.64055200  1
  Ag  Ag3  1  0.39650400  0.67914200  0.85944800  1
  Ag  Ag4  1  0.28263900  0.67914200  0.35944800  1
  Ag  Ag5  1  0.60349600  0.32085800  0.14055200  1
  O  O0  1  0.21409500  0.66802100  0.71119800  1
  O  O1  1  0.54607400  0.33197900  0.78880200  1
  O  O2  1  0.78590500  0.33197900  0.28880200  1
  O  O3  1  0.45392600  0.66802100  0.21119800  1
  O  O4  1  0.21164900  0.78579500  0.52859500  1
  O  O5  1  0.42585400  0.21420500  0.97140500  1
  O  O6  1  0.78835100  0.21420500  0.47140500  1
  O  O7  1  0.57414600  0.78579500  0.02859500  1
  O  O8  1  0.75105800  0.88129800  0.61473000  1
  O  O9  1  0.86976000  0.11870200  0.88527000  1
  O  O10  1  0.24894200  0.11870200  0.38527000  1
  O  O11  1  0.13024000  0.88129800  0.11473000  1
  O  O12  1  0.29214400  0.32727200  0.57473700  1
  O  O13  1  0.96487200  0.67272800  0.92526300  1
  O  O14  1  0.70785600  0.67272800  0.42526300  1
  O  O15  1  0.03512800  0.32727200  0.07473700  1
loop_
_geom_bond_atom_site_label_1
_geom_bond_atom_site_label_2
_geom_bond_distance
_geom_bond_site_symmetry_2
Fe0 O15 2.003851 1_555
Fe0 O13 2.003851 1_444
Fe0 O7 2.032687 1_445
Fe0 O5 2.032687 1_554
Fe0 O11 2.059901 1_545
Fe0 O9 2.059901 1_454
Fe1 O14 2.003851 1_445
Fe1 O12 2.003851 1_555
Fe1 O6 2.032688 1_455
Fe1 O4 2.032688 1_545
Fe1 O10 2.059900 1_555
Fe1 O8 2.059900 1_445
Ag0 O8 2.349177 1_445
Ag0 O9 2.349177 1_455
Ag0 O1 2.444410 1_555
Ag0 O0 2.444410 1_545
Ag1 O10 2.349177 1_655
Ag1 O11 2.349177 1_645
Ag1 O3 2.444410 1_545
Ag1 O2 2.444410 1_555
Ag2 O1 2.338474 1_555
Ag2 O12 2.430295 1_555
Ag2 O8 2.557698 1_545
Ag2 O6 2.557739 1_555
Ag2 O0 2.570966 1_655
Ag3 O0 2.338476 1_555
Ag3 O13 2.430300 1_455
Ag3 O9 2.557695 1_565
Ag3 O7 2.557738 1_556
Ag3 O1 2.570963 1_555
Ag4 O3 2.338474 1_555
Ag4 O14 2.430295 1_555
Ag4 O10 2.557698 1_565
Ag4 O4 2.557739 1_555
Ag4 O2 2.570966 1_455
Ag5 O2 2.338476 1_555
Ag5 O15 2.430300 1_655
Ag5 O11 2.557695 1_545
Ag5 O5 2.557738 1_554
Ag5 O3 2.570963 1_555
O0 V0 1.727509 1_555
O1 V1 1.727509 1_555
O2 V2 1.727509 1_555
O3 V3 1.727509 1_555
O4 V0 1.736168 1_555
O5 V1 1.736168 1_555
O6 V2 1.736168 1_555
O7 V3 1.736168 1_555
O8 V0 1.790344 1_555
O9 V1 1.790344 1_555
O10 V2 1.790344 1_555
O11 V3 1.790344 1_555
O12 V0 1.770763 1_555
O13 V1 1.770763 1_555
O14 V2 1.770763 1_555
O15 V3 1.770763 1_555
