# generated using pymatgen
data_Ba2MnNbO6
_symmetry_space_group_name_H-M   'P 1'
_cell_length_a   5.90922518
_cell_length_b   11.77140805
_cell_length_c   8.08142000
_cell_angle_alpha   90.00002964
_cell_angle_beta   90.00000501
_cell_angle_gamma   90.03672155
_symmetry_Int_Tables_number   1
_chemical_formula_structural   Ba2MnNbO6
_chemical_formula_sum   'Ba8 Mn4 Nb4 O24'
_cell_volume   562.14265907
_cell_formula_units_Z   4
loop_
 _symmetry_equiv_pos_site_id
 _symmetry_equiv_pos_as_xyz
  1  'x, y, z'
loop_
 _atom_site_type_symbol
 _atom_site_label
 _atom_site_symmetry_multiplicity
 _atom_site_fract_x
 _atom_site_fract_y
 _atom_site_fract_z
 _atom_site_occupancy
  Ba  Ba0  1  0.01031400  0.49962600  0.00036800  1
  Ba  Ba1  1  0.48949000  0.75038700  0.50037200  1
  Ba  Ba2  1  0.98959100  0.99966200  0.00040700  1
  Ba  Ba3  1  0.51061800  0.25036300  0.50041800  1
  Ba  Ba4  1  0.01031400  0.49962500  0.49963400  1
  Ba  Ba5  1  0.48949000  0.75038800  0.99963000  1
  Ba  Ba6  1  0.98959400  0.99966300  0.49959300  1
  Ba  Ba7  1  0.51061700  0.25036300  0.99958400  1
  Mn  Mn0  1  0.51018700  0.49921700  0.75001200  1
  Mn  Mn1  1  0.98928300  0.75095800  0.24999300  1
  Mn  Mn2  1  0.48972500  0.99904900  0.75000600  1
  Mn  Mn3  1  0.01085400  0.25102900  0.24997500  1
  Nb  Nb0  1  0.51333900  0.50028100  0.25000300  1
  Nb  Nb1  1  0.98656500  0.74972500  0.74999400  1
  Nb  Nb2  1  0.48653000  0.00027400  0.25000000  1
  Nb  Nb3  1  0.01358500  0.24974700  0.74999200  1
  O  O0  1  0.29071600  0.37829400  0.25000100  1
  O  O1  1  0.73094800  0.62628400  0.75000600  1
  O  O2  1  0.22240900  0.87449300  0.24999800  1
  O  O3  1  0.78259600  0.13170800  0.75000100  1
  O  O4  1  0.76876900  0.62376100  0.24999800  1
  O  O5  1  0.20935700  0.87164800  0.75000200  1
  O  O6  1  0.71755800  0.11820900  0.25000100  1
  O  O7  1  0.27744400  0.37547400  0.75000600  1
  O  O8  1  0.51824000  0.49946700  0.50254100  1
  O  O9  1  0.98162500  0.75051400  0.00253400  1
  O  O10  1  0.48165600  0.99940900  0.50253400  1
  O  O11  1  0.01848300  0.25055600  0.00250800  1
  O  O12  1  0.51823800  0.49946800  0.99747200  1
  O  O13  1  0.98162500  0.75051400  0.49746500  1
  O  O14  1  0.48165900  0.99941000  0.99747100  1
  O  O15  1  0.01848500  0.25055700  0.49748000  1
  O  O16  1  0.77762100  0.37464800  0.24999500  1
  O  O17  1  0.21747500  0.63199000  0.75000100  1
  O  O18  1  0.70915700  0.87853600  0.25000100  1
  O  O19  1  0.26918800  0.12639300  0.75000100  1
  O  O20  1  0.28233000  0.61792600  0.25000200  1
  O  O21  1  0.72250400  0.87533200  0.75000200  1
  O  O22  1  0.23104700  0.12364000  0.24999500  1
  O  O23  1  0.79077400  0.37141200  0.75000200  1
loop_
_geom_bond_atom_site_label_1
_geom_bond_atom_site_label_2
_geom_bond_distance
_geom_bond_site_symmetry_2
Ba0 O17 2.831548 1_554
Ba0 O23 2.837633 1_454
Ba0 O16 2.849935 1_455
Ba0 O4 2.871407 1_455
Ba0 O12 2.907881 1_454
Ba0 O20 2.930867 1_555
Ba0 O11 2.932384 1_555
Ba0 O7 2.953675 1_554
Ba0 O9 2.958327 1_455
Ba0 O0 2.976290 1_555
Ba0 O12 3.001530 1_554
Ba0 O1 3.007490 1_454
Ba1 O20 2.832190 1_555
Ba1 O18 2.837599 1_555
Ba1 O21 2.850665 1_555
Ba1 O1 2.870983 1_555
Ba1 O13 2.908231 1_555
Ba1 O17 2.931380 1_555
Ba1 O10 2.931787 1_555
Ba1 O2 2.953320 1_555
Ba1 O8 2.958724 1_555
Ba1 O5 2.974986 1_555
Ba1 O13 3.001182 1_455
Ba1 O4 3.007085 1_555
Ba2 O3 2.830154 1_564
Ba2 O5 2.838102 1_654
Ba2 O2 2.852157 1_655
Ba2 O22 2.869035 1_665
Ba2 O14 2.907841 1_654
Ba2 O6 2.933062 1_565
Ba2 O9 2.933221 1_555
Ba2 O21 2.953813 1_554
Ba2 O11 2.958246 1_665
Ba2 O18 2.974000 1_555
Ba2 O14 3.001578 1_554
Ba2 O19 3.007855 1_664
Ba3 O6 2.830775 1_555
Ba3 O0 2.838021 1_555
Ba3 O7 2.852802 1_555
Ba3 O19 2.868884 1_555
Ba3 O15 2.908224 1_555
Ba3 O8 2.932672 1_555
Ba3 O3 2.933429 1_555
Ba3 O16 2.953387 1_555
Ba3 O10 2.958975 1_545
Ba3 O23 2.972595 1_555
Ba3 O15 3.001194 1_655
Ba3 O22 3.007815 1_555
Ba4 O17 2.831553 1_555
Ba4 O23 2.837640 1_455
Ba4 O16 2.849996 1_455
Ba4 O4 2.871447 1_455
Ba4 O8 2.907870 1_455
Ba4 O20 2.930863 1_555
Ba4 O15 2.932361 1_555
Ba4 O7 2.953726 1_555
Ba4 O13 2.958339 1_455
Ba4 O0 2.976283 1_555
Ba4 O8 3.001543 1_555
Ba4 O1 3.007549 1_455
Ba5 O20 2.832209 1_556
Ba5 O18 2.837592 1_556
Ba5 O21 2.850649 1_555
Ba5 O1 2.870931 1_555
Ba5 O9 2.908231 1_556
Ba5 O17 2.931384 1_555
Ba5 O14 2.931786 1_555
Ba5 O2 2.953280 1_556
Ba5 O12 2.958723 1_555
Ba5 O5 2.974970 1_555
Ba5 O9 3.001182 1_456
Ba5 O4 3.007059 1_556
Ba6 O3 2.830165 1_565
Ba6 O5 2.838124 1_655
Ba6 O2 2.852176 1_655
Ba6 O22 2.869079 1_665
Ba6 O10 2.907806 1_655
Ba6 O6 2.933056 1_565
Ba6 O13 2.933233 1_555
Ba6 O21 2.953852 1_555
Ba6 O15 2.958246 1_665
Ba6 O18 2.974003 1_555
Ba6 O10 3.001614 1_555
Ba6 O19 3.007849 1_665
Ba7 O6 2.830778 1_556
Ba7 O0 2.838018 1_556
Ba7 O7 2.852743 1_555
Ba7 O19 2.868880 1_555
Ba7 O11 2.908229 1_556
Ba7 O12 2.932683 1_555
Ba7 O3 2.933432 1_555
Ba7 O16 2.953322 1_556
Ba7 O14 2.958962 1_545
Ba7 O23 2.972588 1_555
Ba7 O11 3.001187 1_656
Ba7 O22 3.007748 1_556
Mn0 O1 1.984081 1_555
Mn0 O12 2.000396 1_555
Mn0 O8 2.000485 1_555
Mn0 O7 2.002682 1_555
Mn0 O23 2.239573 1_555
Mn0 O17 2.331966 1_555
Mn1 O4 1.984276 1_555
Mn1 O9 2.000339 1_555
Mn1 O13 2.000444 1_555
Mn1 O2 2.002458 1_655
Mn1 O18 2.235759 1_555
Mn1 O20 2.335480 1_655
Mn2 O19 1.986932 1_565
Mn2 O14 2.000441 1_555
Mn2 O10 2.000498 1_555
Mn2 O21 2.003888 1_555
Mn2 O5 2.233994 1_555
Mn2 O3 2.330278 1_565
Mn3 O22 1.985998 1_555
Mn3 O11 2.000401 1_555
Mn3 O15 2.000708 1_555
Mn3 O16 2.004893 1_455
Mn3 O0 2.230704 1_555
Mn3 O6 2.333411 1_455
Nb0 O20 1.945168 1_555
Nb0 O0 1.946837 1_555
Nb0 O12 2.041037 1_554
Nb0 O8 2.041094 1_555
Nb0 O4 2.094807 1_555
Nb0 O16 2.151500 1_555
Nb1 O17 1.945513 1_655
Nb1 O5 1.946956 1_655
Nb1 O13 2.041023 1_555
Nb1 O9 2.041112 1_556
Nb1 O1 2.095285 1_555
Nb1 O21 2.150341 1_555
Nb2 O18 1.945935 1_545
Nb2 O6 1.946433 1_555
Nb2 O14 2.041021 1_544
Nb2 O10 2.041062 1_545
Nb2 O22 2.095444 1_555
Nb2 O2 2.150631 1_545
Nb3 O23 1.946038 1_455
Nb3 O3 1.947144 1_455
Nb3 O15 2.040883 1_555
Nb3 O11 2.040915 1_556
Nb3 O19 2.095857 1_555
Nb3 O7 2.149071 1_555
