# generated using pymatgen
data_LuCoSn
_symmetry_space_group_name_H-M   'P 1'
_cell_length_a   4.45035800
_cell_length_b   6.92237100
_cell_length_c   7.56071700
_cell_angle_alpha   90.00000000
_cell_angle_beta   90.00000000
_cell_angle_gamma   90.00000000
_symmetry_Int_Tables_number   1
_chemical_formula_structural   LuCoSn
_chemical_formula_sum   'Lu4 Co4 Sn4'
_cell_volume   232.92322908
_cell_formula_units_Z   4
loop_
 _symmetry_equiv_pos_site_id
 _symmetry_equiv_pos_as_xyz
  1  'x, y, z'
loop_
 _atom_site_type_symbol
 _atom_site_label
 _atom_site_symmetry_multiplicity
 _atom_site_fract_x
 _atom_site_fract_y
 _atom_site_fract_z
 _atom_site_occupancy
  Lu  Lu0  1  0.25000000  0.98684800  0.29780500  1
  Lu  Lu1  1  0.25000000  0.48684800  0.20219500  1
  Lu  Lu2  1  0.75000000  0.01315200  0.70219500  1
  Lu  Lu3  1  0.75000000  0.51315200  0.79780500  1
  Co  Co0  1  0.25000000  0.19624800  0.91647000  1
  Co  Co1  1  0.25000000  0.69624800  0.58353000  1
  Co  Co2  1  0.75000000  0.80375200  0.08353000  1
  Co  Co3  1  0.75000000  0.30375200  0.41647000  1
  Sn  Sn0  1  0.25000000  0.30632500  0.58782600  1
  Sn  Sn1  1  0.25000000  0.80632500  0.91217400  1
  Sn  Sn2  1  0.75000000  0.69367500  0.41217400  1
  Sn  Sn3  1  0.75000000  0.19367500  0.08782600  1
loop_
_geom_bond_atom_site_label_1
_geom_bond_atom_site_label_2
_geom_bond_distance
_geom_bond_site_symmetry_2
Lu0 Sn3 3.085730 1_565
Lu0 Sn3 3.085730 1_465
Lu0 Sn0 3.114342 1_565
Lu0 Sn2 3.133341 1_455
Lu0 Sn2 3.133341 1_555
Lu0 Sn1 3.172162 1_554
Lu1 Sn2 3.085730 1_555
Lu1 Sn2 3.085730 1_455
Lu1 Sn1 3.114342 1_554
Lu1 Sn3 3.133341 1_555
Lu1 Sn3 3.133341 1_455
Lu1 Sn0 3.172162 1_555
Lu2 Sn1 3.085730 1_645
Lu2 Sn1 3.085730 1_545
Lu2 Sn2 3.114342 1_545
Lu2 Sn0 3.133341 1_555
Lu2 Sn0 3.133341 1_655
Lu2 Sn3 3.172162 1_556
Lu3 Sn0 3.085730 1_655
Lu3 Sn0 3.085730 1_555
Lu3 Sn3 3.114342 1_556
Lu3 Sn1 3.133341 1_555
Lu3 Sn1 3.133341 1_655
Lu3 Sn2 3.172162 1_555
Co0 Sn3 2.574927 1_556
Co0 Sn3 2.574927 1_456
Co0 Sn0 2.598997 1_555
Co0 Sn1 2.699387 1_545
Co0 Lu1 2.951870 1_556
Co0 Lu2 3.030265 1_555
Co0 Lu2 3.030265 1_455
Co0 Lu0 3.227046 1_546
Co0 Lu3 3.250971 1_455
Co0 Lu3 3.250971 1_555
Co1 Sn2 2.574927 1_555
Co1 Sn2 2.574927 1_455
Co1 Sn1 2.598997 1_555
Co1 Sn0 2.699387 1_555
Co1 Lu0 2.951870 1_555
Co1 Lu3 3.030265 1_455
Co1 Lu3 3.030265 1_555
Co1 Lu1 3.227046 1_555
Co1 Lu2 3.250971 1_565
Co1 Lu2 3.250971 1_465
Co2 Sn1 2.574927 1_554
Co2 Sn1 2.574927 1_654
Co2 Sn2 2.598997 1_555
Co2 Sn3 2.699387 1_565
Co2 Lu3 2.951870 1_554
Co2 Lu0 3.030265 1_655
Co2 Lu0 3.030265 1_555
Co2 Lu2 3.227046 1_564
Co2 Lu1 3.250971 1_655
Co2 Lu1 3.250971 1_555
Co3 Sn0 2.574927 1_655
Co3 Sn0 2.574927 1_555
Co3 Sn3 2.598997 1_555
Co3 Sn2 2.699387 1_555
Co3 Lu2 2.951870 1_555
Co3 Lu1 3.030265 1_655
Co3 Lu1 3.030265 1_555
Co3 Lu3 3.227046 1_555
Co3 Lu0 3.250971 1_545
Co3 Lu0 3.250971 1_645
