# generated using pymatgen
data_Ba3Ce2O6
_symmetry_space_group_name_H-M   'P 1'
_cell_length_a   11.45565677
_cell_length_b   11.45565677
_cell_length_c   11.45565677
_cell_angle_alpha   157.20459857
_cell_angle_beta   157.20459857
_cell_angle_gamma   32.45763477
_symmetry_Int_Tables_number   1
_chemical_formula_structural   Ba3Ce2O6
_chemical_formula_sum   'Ba3 Ce2 O6'
_cell_volume   225.48285791
_cell_formula_units_Z   1
loop_
 _symmetry_equiv_pos_site_id
 _symmetry_equiv_pos_as_xyz
  1  'x, y, z'
loop_
 _atom_site_type_symbol
 _atom_site_label
 _atom_site_symmetry_multiplicity
 _atom_site_fract_x
 _atom_site_fract_y
 _atom_site_fract_z
 _atom_site_occupancy
  Ba  Ba0  1  0.68422400  0.68422400  0.00000000  1
  Ba  Ba1  1  0.50000000  0.50000000  0.00000000  1
  Ba  Ba2  1  0.31577600  0.31577600  0.00000000  1
  Ce  Ce0  1  0.90047300  0.90047300  0.00000000  1
  Ce  Ce1  1  0.09952700  0.09952700  0.00000000  1
  O  O0  1  0.08683200  0.58683200  0.50000000  1
  O  O1  1  0.41316800  0.91316800  0.50000000  1
  O  O2  1  0.79946200  0.79946200  0.00000000  1
  O  O3  1  0.20053800  0.20053800  0.00000000  1
  O  O4  1  0.58683200  0.08683200  0.50000000  1
  O  O5  1  0.91316800  0.41316800  0.50000000  1
loop_
_geom_bond_atom_site_label_1
_geom_bond_atom_site_label_2
_geom_bond_distance
_geom_bond_site_symmetry_2
Ba0 O2 2.535048 1_555
Ba0 O4 3.116913 1_565
Ba0 O0 3.116913 1_655
Ba0 O0 3.116913 1_554
Ba0 O4 3.116913 1_554
Ba0 O3 3.221611 1_655
Ba0 O3 3.221611 1_666
Ba0 O3 3.221611 1_565
Ba0 O3 3.221611 1_554
Ba1 O4 2.962045 1_565
Ba1 O0 2.962045 1_655
Ba1 O0 2.962045 1_554
Ba1 O4 2.962045 1_554
Ba1 O1 2.962045 1_544
Ba1 O1 2.962045 1_555
Ba1 O5 2.962045 1_555
Ba1 O5 2.962045 1_454
Ba2 O3 2.535048 1_555
Ba2 O1 3.116913 1_555
Ba2 O5 3.116913 1_555
Ba2 O1 3.116913 1_544
Ba2 O5 3.116913 1_454
Ba2 O2 3.221611 1_444
Ba2 O2 3.221611 1_455
Ba2 O2 3.221611 1_545
Ba2 O2 3.221611 1_556
Ce0 O2 2.222078 1_555
Ce0 O5 2.281004 1_565
Ce0 O5 2.281004 1_554
Ce0 O1 2.281004 1_554
Ce0 O1 2.281004 1_655
Ce1 O3 2.222078 1_555
Ce1 O0 2.281004 1_544
Ce1 O4 2.281004 1_454
Ce1 O4 2.281004 1_555
Ce1 O0 2.281004 1_555
