# generated using pymatgen
data_ZrNi2Sb
_symmetry_space_group_name_H-M   'P 1'
_cell_length_a   4.47004340
_cell_length_b   4.47004340
_cell_length_c   4.47004340
_cell_angle_alpha   60.00000000
_cell_angle_beta   60.00000000
_cell_angle_gamma   60.00000000
_symmetry_Int_Tables_number   1
_chemical_formula_structural   ZrNi2Sb
_chemical_formula_sum   'Zr1 Ni2 Sb1'
_cell_volume   63.15681513
_cell_formula_units_Z   1
loop_
 _symmetry_equiv_pos_site_id
 _symmetry_equiv_pos_as_xyz
  1  'x, y, z'
loop_
 _atom_site_type_symbol
 _atom_site_label
 _atom_site_symmetry_multiplicity
 _atom_site_fract_x
 _atom_site_fract_y
 _atom_site_fract_z
 _atom_site_occupancy
  Zr  Zr0  1  0.50000000  0.50000000  0.50000000  1
  Ni  Ni0  1  0.25000000  0.25000000  0.25000000  1
  Ni  Ni1  1  0.75000000  0.75000000  0.75000000  1
  Sb  Sb0  1  0.00000000  0.00000000  0.00000000  1
loop_
_geom_bond_atom_site_label_1
_geom_bond_atom_site_label_2
_geom_bond_distance
_geom_bond_site_symmetry_2
Ni0 Zr0 2.737331 1_545
Ni0 Sb0 2.737331 1_556
Ni0 Zr0 2.737331 1_455
Ni0 Zr0 2.737331 1_554
Ni0 Sb0 2.737331 1_555
Ni0 Zr0 2.737331 1_555
Ni0 Sb0 2.737331 1_565
Ni0 Sb0 2.737331 1_655
Ni1 Sb0 2.737331 1_656
Ni1 Zr0 2.737331 1_555
Ni1 Zr0 2.737331 1_556
Ni1 Sb0 2.737331 1_566
Ni1 Zr0 2.737331 1_655
Ni1 Sb0 2.737331 1_665
Ni1 Sb0 2.737331 1_666
Ni1 Zr0 2.737331 1_565
Sb0 Zr0 3.160798 1_445
Sb0 Zr0 3.160798 1_545
Sb0 Zr0 3.160798 1_455
Sb0 Zr0 3.160798 1_554
Sb0 Zr0 3.160798 1_454
Sb0 Zr0 3.160798 1_544
