# generated using pymatgen
data_Te2Mo3WS6
_symmetry_space_group_name_H-M   'P 1'
_cell_length_a   3.27508765
_cell_length_b   3.27508765
_cell_length_c   37.78481700
_cell_angle_alpha   90.00000000
_cell_angle_beta   90.00000000
_cell_angle_gamma   119.99999287
_symmetry_Int_Tables_number   1
_chemical_formula_structural   Te2Mo3WS6
_chemical_formula_sum   'Te2 Mo3 W1 S6'
_cell_volume   350.98927001
_cell_formula_units_Z   1
loop_
 _symmetry_equiv_pos_site_id
 _symmetry_equiv_pos_as_xyz
  1  'x, y, z'
loop_
 _atom_site_type_symbol
 _atom_site_label
 _atom_site_symmetry_multiplicity
 _atom_site_fract_x
 _atom_site_fract_y
 _atom_site_fract_z
 _atom_site_occupancy
  Te  Te0  1  0.33333300  0.66666700  0.33278800  1
  Te  Te1  1  0.33333300  0.66666700  0.23086100  1
  Mo  Mo0  1  0.33333300  0.66666700  0.09358400  1
  Mo  Mo1  1  0.33333300  0.66666700  0.46990800  1
  Mo  Mo2  1  0.66666700  0.33333300  0.28184000  1
  W  W0  1  0.66666700  0.33333300  0.65758900  1
  S  S0  1  0.33333300  0.66666700  0.69838300  1
  S  S1  1  0.66666700  0.33333300  0.05283700  1
  S  S2  1  0.66666700  0.33333300  0.42926100  1
  S  S3  1  0.66666700  0.33333300  0.13432200  1
  S  S4  1  0.66666700  0.33333300  0.51060200  1
  S  S5  1  0.33333300  0.66666700  0.61677300  1
loop_
_geom_bond_atom_site_label_1
_geom_bond_atom_site_label_2
_geom_bond_distance
_geom_bond_site_symmetry_2
Mo0 S3 2.438190 1_455
Mo0 S3 2.438190 1_565
Mo0 S3 2.438194 1_555
Mo0 S1 2.438404 1_455
Mo0 S1 2.438404 1_565
Mo0 S1 2.438409 1_555
Mo1 S2 2.436021 1_565
Mo1 S2 2.436021 1_455
Mo1 S2 2.436025 1_555
Mo1 S4 2.437141 1_455
Mo1 S4 2.437141 1_565
Mo1 S4 2.437145 1_555
Mo2 Te0 2.698380 1_545
Mo2 Te0 2.698380 1_655
Mo2 Te0 2.698383 1_555
Mo2 Te1 2.699215 1_655
Mo2 Te1 2.699215 1_545
Mo2 Te1 2.699219 1_555
S0 W0 2.439526 1_565
S0 W0 2.439526 1_455
S0 W0 2.439530 1_555
S5 W0 2.440051 1_455
S5 W0 2.440051 1_565
S5 W0 2.440056 1_555
