# generated using pymatgen
data_Zn2BiWO6
_symmetry_space_group_name_H-M   'P 1'
_cell_length_a   5.49181500
_cell_length_b   5.53318873
_cell_length_c   5.67021597
_cell_angle_alpha   88.75122417
_cell_angle_beta   105.11273940
_cell_angle_gamma   113.13378460
_symmetry_Int_Tables_number   1
_chemical_formula_structural   Zn2BiWO6
_chemical_formula_sum   'Zn2 Bi1 W1 O6'
_cell_volume   152.33517750
_cell_formula_units_Z   1
loop_
 _symmetry_equiv_pos_site_id
 _symmetry_equiv_pos_as_xyz
  1  'x, y, z'
loop_
 _atom_site_type_symbol
 _atom_site_label
 _atom_site_symmetry_multiplicity
 _atom_site_fract_x
 _atom_site_fract_y
 _atom_site_fract_z
 _atom_site_occupancy
  Zn  Zn0  1  0.62186900  0.37423600  0.87866200  1
  Zn  Zn1  1  0.68650500  0.85193600  0.46195500  1
  Bi  Bi0  1  0.02439400  0.48845900  0.49003800  1
  W  W0  1  0.02168500  0.01503200  0.99346600  1
  O  O0  1  0.95687100  0.66333300  0.11891800  1
  O  O1  1  0.78873400  0.16522200  0.74832700  1
  O  O2  1  0.36955200  0.26930400  0.09753300  1
  O  O3  1  0.81641100  0.07138600  0.21832700  1
  O  O4  1  0.04803400  0.85776100  0.68936400  1
  O  O5  1  0.45686000  0.56053900  0.60734100  1
loop_
_geom_bond_atom_site_label_1
_geom_bond_atom_site_label_2
_geom_bond_distance
_geom_bond_site_symmetry_2
Bi0 O5 2.164659 1_555
Bi0 O4 2.299024 1_555
Bi0 O0 2.299626 1_455
Bi0 O1 2.464566 1_455
Bi0 O3 2.483973 1_455
O0 W0 1.986730 1_664
O0 Zn0 2.067626 1_554
O1 Zn0 1.986609 1_555
O1 W0 2.029075 1_655
O1 Zn1 2.199871 1_545
O2 W0 1.820370 1_554
O2 Zn0 2.007620 1_554
O3 Zn1 1.910974 1_545
O3 W0 2.009173 1_654
O4 W0 2.011456 1_565
O4 Zn1 2.054828 1_455
O5 Zn1 1.938093 1_555
O5 Zn0 2.046609 1_555
