# generated using pymatgen
data_TmBO3
_symmetry_space_group_name_H-M   'P 1'
_cell_length_a   6.56371394
_cell_length_b   6.56371394
_cell_length_c   8.68624300
_cell_angle_alpha   90.00000000
_cell_angle_beta   90.00000000
_cell_angle_gamma   119.99999941
_symmetry_Int_Tables_number   1
_chemical_formula_structural   TmBO3
_chemical_formula_sum   'Tm6 B6 O18'
_cell_volume   324.08721585
_cell_formula_units_Z   6
loop_
 _symmetry_equiv_pos_site_id
 _symmetry_equiv_pos_as_xyz
  1  'x, y, z'
loop_
 _atom_site_type_symbol
 _atom_site_label
 _atom_site_symmetry_multiplicity
 _atom_site_fract_x
 _atom_site_fract_y
 _atom_site_fract_z
 _atom_site_occupancy
  Tm  Tm0  1  0.33333300  0.66666700  0.50000000  1
  Tm  Tm1  1  0.33333300  0.66666700  0.00000000  1
  Tm  Tm2  1  0.00000000  0.00000000  0.50000000  1
  Tm  Tm3  1  0.00000000  0.00000000  0.00000000  1
  Tm  Tm4  1  0.66666700  0.33333300  0.50000000  1
  Tm  Tm5  1  0.66666700  0.33333300  0.00000000  1
  B  B0  1  0.00000000  0.59991700  0.75000000  1
  B  B1  1  0.40008300  0.40008300  0.75000000  1
  B  B2  1  0.59991700  0.00000000  0.75000000  1
  B  B3  1  0.59991700  0.59991700  0.25000000  1
  B  B4  1  0.40008300  0.00000000  0.25000000  1
  B  B5  1  0.00000000  0.40008300  0.25000000  1
  O  O0  1  0.31271700  0.31271700  0.89721200  1
  O  O1  1  0.00000000  0.68728300  0.89721200  1
  O  O2  1  0.31271700  0.31271700  0.60278800  1
  O  O3  1  0.00000000  0.68728300  0.60278800  1
  O  O4  1  0.00000000  0.31271700  0.39721200  1
  O  O5  1  0.68728300  0.00000000  0.60278800  1
  O  O6  1  0.00000000  0.60529900  0.25000000  1
  O  O7  1  0.60529900  0.00000000  0.25000000  1
  O  O8  1  0.39470100  0.39470100  0.25000000  1
  O  O9  1  0.39470100  0.00000000  0.75000000  1
  O  O10  1  0.60529900  0.60529900  0.75000000  1
  O  O11  1  0.00000000  0.39470100  0.75000000  1
  O  O12  1  0.00000000  0.31271700  0.10278800  1
  O  O13  1  0.31271700  0.00000000  0.39721200  1
  O  O14  1  0.68728300  0.68728300  0.39721200  1
  O  O15  1  0.68728300  0.68728300  0.10278800  1
  O  O16  1  0.31271700  0.00000000  0.10278800  1
  O  O17  1  0.68728300  0.00000000  0.89721200  1
loop_
_geom_bond_atom_site_label_1
_geom_bond_atom_site_label_2
_geom_bond_distance
_geom_bond_site_symmetry_2
B0 O11 1.346979 1_555
B0 O3 1.401414 1_555
B0 O1 1.401414 1_555
B1 O10 1.346979 1_555
B1 O0 1.401414 1_555
B1 O2 1.401414 1_555
B2 O9 1.346979 1_555
B2 O5 1.401414 1_555
B2 O17 1.401414 1_555
B3 O8 1.346979 1_555
B3 O14 1.401414 1_555
B3 O15 1.401414 1_555
B4 O7 1.346979 1_555
B4 O13 1.401414 1_555
B4 O16 1.401414 1_555
B5 O6 1.346979 1_555
B5 O4 1.401414 1_555
B5 O12 1.401414 1_555
O0 Tm3 2.238363 1_556
O0 Tm5 2.428680 1_556
O0 Tm1 2.428680 1_556
O1 Tm3 2.238363 1_566
O1 Tm1 2.428674 1_556
O1 Tm5 2.428677 1_456
O2 Tm2 2.238363 1_555
O2 Tm4 2.428680 1_555
O2 Tm0 2.428680 1_555
O3 Tm2 2.238363 1_565
O3 Tm0 2.428674 1_555
O3 Tm4 2.428677 1_455
O4 Tm2 2.238363 1_555
O4 Tm4 2.428674 1_455
O4 Tm0 2.428677 1_555
O5 Tm2 2.238363 1_655
O5 Tm4 2.428674 1_555
O5 Tm0 2.428677 1_545
O12 Tm3 2.238363 1_555
O12 Tm5 2.428674 1_455
O12 Tm1 2.428677 1_555
O13 Tm2 2.238363 1_555
O13 Tm0 2.428674 1_545
O13 Tm4 2.428677 1_555
O14 Tm2 2.238363 1_665
O14 Tm0 2.428680 1_555
O14 Tm4 2.428680 1_555
O15 Tm3 2.238363 1_665
O15 Tm1 2.428680 1_555
O15 Tm5 2.428680 1_555
O16 Tm3 2.238363 1_555
O16 Tm1 2.428674 1_545
O16 Tm5 2.428677 1_555
O17 Tm3 2.238363 1_656
O17 Tm5 2.428674 1_556
O17 Tm1 2.428677 1_546
