# generated using pymatgen
data_Re(Te2Mo)2
_symmetry_space_group_name_H-M   'P 1'
_cell_length_a   7.10699200
_cell_length_b   7.15081197
_cell_length_c   7.16903276
_cell_angle_alpha   92.94104832
_cell_angle_beta   92.79293774
_cell_angle_gamma   92.81209317
_symmetry_Int_Tables_number   1
_chemical_formula_structural   Re(Te2Mo)2
_chemical_formula_sum   'Re2 Te8 Mo4'
_cell_volume   362.93779569
_cell_formula_units_Z   2
loop_
 _symmetry_equiv_pos_site_id
 _symmetry_equiv_pos_as_xyz
  1  'x, y, z'
loop_
 _atom_site_type_symbol
 _atom_site_label
 _atom_site_symmetry_multiplicity
 _atom_site_fract_x
 _atom_site_fract_y
 _atom_site_fract_z
 _atom_site_occupancy
  Re  Re0  1  0.45135900  0.75062600  0.58223600  1
  Re  Re1  1  0.75058900  0.58200300  0.45532100  1
  Te  Te0  1  0.25806000  0.62409000  0.87956200  1
  Te  Te1  1  0.62155800  0.87992400  0.26360900  1
  Te  Te2  1  0.88193200  0.26179000  0.62068100  1
  Te  Te3  1  0.74520900  0.37700800  0.12327400  1
  Te  Te4  1  0.37951600  0.11603200  0.74201400  1
  Te  Te5  1  0.11806900  0.74363900  0.37643300  1
  Te  Te6  1  0.78841300  0.79089200  0.78550400  1
  Te  Te7  1  0.20962200  0.21151500  0.20586700  1
  Mo  Mo0  1  0.58407700  0.45515600  0.75622000  1
  Mo  Mo1  1  0.54746400  0.24527200  0.41681400  1
  Mo  Mo2  1  0.24851300  0.41534600  0.54622900  1
  Mo  Mo3  1  0.41561800  0.54670700  0.24623700  1
loop_
_geom_bond_atom_site_label_1
_geom_bond_atom_site_label_2
_geom_bond_distance
_geom_bond_site_symmetry_2
Re0 Re1 2.670562 1_555
Re0 Te5 2.725850 1_555
Re0 Te6 2.737454 1_555
Re0 Te0 2.758761 1_555
Re0 Te1 2.812835 1_555
Re0 Te4 2.877679 1_565
Re1 Te6 2.728070 1_555
Re1 Te3 2.728441 1_555
Re1 Te1 2.763640 1_555
Re1 Te2 2.810733 1_555
Re1 Te5 2.896804 1_655
Mo0 Re1 2.687145 1_555
Mo0 Re0 2.694603 1_555
Mo0 Te6 2.737379 1_555
Mo0 Mo2 2.752164 1_555
Mo0 Te4 2.760241 1_555
Mo0 Te2 2.772534 1_555
Mo0 Mo1 2.786753 1_555
Mo0 Te0 2.823891 1_555
Mo0 Te3 2.909998 1_556
Mo1 Mo2 2.680260 1_555
Mo1 Mo3 2.715998 1_555
Mo1 Te2 2.723345 1_555
Mo1 Re1 2.740451 1_555
Mo1 Te3 2.766352 1_555
Mo1 Te7 2.768047 1_555
Mo1 Te4 2.845719 1_555
Mo1 Te1 2.864588 1_545
Mo2 Mo3 2.695337 1_555
Mo2 Re0 2.730224 1_555
Mo2 Te0 2.747998 1_555
Mo2 Te7 2.772107 1_555
Mo2 Te4 2.791844 1_555
Mo2 Te2 2.862357 1_455
Mo2 Te5 2.872117 1_555
Mo3 Te1 2.728529 1_555
Mo3 Te7 2.741424 1_555
Mo3 Re1 2.744520 1_555
Mo3 Re0 2.745301 1_555
Mo3 Te5 2.770528 1_555
Mo3 Te3 2.847251 1_555
Mo3 Te0 2.897131 1_554
