# generated using pymatgen
data_Li9Mn2Co5O16
_symmetry_space_group_name_H-M   'P 1'
_cell_length_a   2.96272700
_cell_length_b   6.49135757
_cell_length_c   15.45474599
_cell_angle_alpha   88.05449540
_cell_angle_beta   87.04506002
_cell_angle_gamma   77.06448674
_symmetry_Int_Tables_number   1
_chemical_formula_structural   Li9Mn2Co5O16
_chemical_formula_sum   'Li9 Mn2 Co5 O16'
_cell_volume   289.22282871
_cell_formula_units_Z   1
loop_
 _symmetry_equiv_pos_site_id
 _symmetry_equiv_pos_as_xyz
  1  'x, y, z'
loop_
 _atom_site_type_symbol
 _atom_site_label
 _atom_site_symmetry_multiplicity
 _atom_site_fract_x
 _atom_site_fract_y
 _atom_site_fract_z
 _atom_site_occupancy
  Li  Li0  1  0.94290300  0.12190600  0.81485400  1
  Li  Li1  1  0.17942600  0.64057600  0.56056700  1
  Li  Li2  1  0.44658900  0.11632900  0.31272500  1
  Li  Li3  1  0.54705400  0.87826700  0.68072100  1
  Li  Li4  1  0.80386200  0.37358400  0.43608500  1
  Li  Li5  1  0.06731700  0.87842500  0.18834800  1
  Li  Li6  1  0.69299200  0.61929700  0.06393600  1
  Li  Li7  1  0.31284400  0.37724000  0.93720700  1
  Li  Li8  1  0.52001700  0.99045400  0.50395700  1
  Mn  Mn0  1  0.99256900  0.00377000  0.00137800  1
  Mn  Mn1  1  0.87997600  0.23760900  0.62093700  1
  Co  Co0  1  0.23932500  0.50146500  0.74841300  1
  Co  Co1  1  0.75516200  0.50246800  0.25069200  1
  Co  Co2  1  0.12336700  0.75738400  0.38022300  1
  Co  Co3  1  0.38351000  0.25333800  0.12658600  1
  Co  Co4  1  0.61965500  0.75390200  0.87380100  1
  O  O0  1  0.42510300  0.05806100  0.90894500  1
  O  O1  1  0.71084500  0.54488800  0.66166400  1
  O  O2  1  0.98433200  0.02788300  0.39944000  1
  O  O3  1  0.09399900  0.80325100  0.78829400  1
  O  O4  1  0.36312600  0.30606200  0.54240600  1
  O  O5  1  0.56826300  0.79238900  0.28372200  1
  O  O6  1  0.24468500  0.54440500  0.15903700  1
  O  O7  1  0.82129800  0.30230500  0.03574500  1
  O  O8  1  0.38203100  0.19671500  0.70714000  1
  O  O9  1  0.68623300  0.68829100  0.46130800  1
  O  O10  1  0.93912200  0.20712800  0.21696500  1
  O  O11  1  0.02510600  0.95553600  0.59589000  1
  O  O12  1  0.26158200  0.46148000  0.34304800  1
  O  O13  1  0.55570000  0.95574900  0.09517600  1
  O  O14  1  0.14963100  0.70290700  0.96459500  1
  O  O15  1  0.78237800  0.44693600  0.83619300  1
loop_
_geom_bond_atom_site_label_1
_geom_bond_atom_site_label_2
_geom_bond_distance
_geom_bond_site_symmetry_2
Li0 O0 2.058029 1_655
Li0 O3 2.066817 1_645
Li0 O15 2.090069 1_555
Li0 O0 2.157201 1_555
Li0 O8 2.168948 1_655
Li0 O8 2.374308 1_555
Li1 O11 2.078137 1_555
Li1 O9 2.140204 1_455
Li1 O4 2.141660 1_555
Li1 O9 2.154584 1_555
Li1 O1 2.202466 1_455
Li1 O1 2.248507 1_555
Li2 O2 2.027771 1_455
Li2 O2 2.102918 1_555
Li2 O5 2.112022 1_545
Li2 O10 2.138119 1_455
Li2 O10 2.184082 1_555
Li2 O12 2.243854 1_555
Li3 O11 2.014543 1_655
Li3 O11 2.044223 1_555
Li3 O8 2.064737 1_565
Li3 O1 2.136318 1_555
Li3 O3 2.193258 1_555
Li3 O3 2.344448 1_655
Li4 O9 2.041585 1_555
Li4 O12 2.078863 1_655
Li4 O4 2.140862 1_555
Li4 O12 2.178603 1_555
Li4 O2 2.271641 1_555
Li4 O4 2.354619 1_655
Li5 O13 2.111473 1_455
Li5 O13 2.116676 1_555
Li5 O5 2.117978 1_555
Li5 O10 2.139295 1_465
Li5 O6 2.171325 1_555
Li5 O5 2.181693 1_455
Li6 O6 2.049389 1_555
Li6 O7 2.064481 1_555
Li6 O14 2.130734 1_654
Li6 O13 2.195941 1_555
Li6 O6 2.216212 1_655
Li6 O14 2.247289 1_554
Li7 O0 2.081379 1_555
Li7 O14 2.112831 1_555
Li7 O15 2.141713 1_555
Li7 O7 2.164073 1_556
Li7 O7 2.171367 1_456
Li7 O15 2.235741 1_455
Li8 O11 2.032779 1_555
Li8 O9 2.036199 1_555
Li8 O11 2.086833 1_655
Li8 O4 2.096249 1_565
Li8 O2 2.110557 1_565
Li8 O2 2.291734 1_465
Mn0 O0 1.945857 1_654
Mn0 O13 1.957131 1_545
Mn0 O7 1.974052 1_555
Mn0 O14 1.998793 1_644
Mn0 O0 2.222533 1_554
Mn0 O13 2.228897 1_645
Mn1 O11 1.834639 1_645
Mn1 O4 1.946412 1_655
Mn1 O4 1.966127 1_555
Mn1 O8 1.992603 1_555
Mn1 O8 2.015286 1_655
Mn1 O1 2.056980 1_555
Co0 O1 1.945762 1_555
Co0 O15 1.947071 1_455
Co0 O3 2.019888 1_555
Co0 O8 2.045110 1_555
Co0 O1 2.078848 1_455
Co0 O15 2.119382 1_555
Co1 O5 1.917961 1_555
Co1 O10 1.953200 1_555
Co1 O6 2.030468 1_655
Co1 O12 2.044442 1_555
Co1 O12 2.091775 1_655
Co1 O6 2.092444 1_555
Co2 O2 1.743577 1_465
Co2 O9 1.871741 1_455
Co2 O12 1.971253 1_555
Co2 O5 1.980331 1_555
Co2 O9 2.096408 1_555
Co2 O5 2.245717 1_455
Co3 O6 1.919830 1_555
Co3 O7 1.928966 1_555
Co3 O10 1.932146 1_455
Co3 O13 1.955636 1_545
Co3 O10 2.176754 1_555
Co3 O7 2.195516 1_455
Co4 O3 1.950719 1_655
Co4 O14 1.997781 1_555
Co4 O0 2.014085 1_565
Co4 O15 2.039720 1_555
Co4 O3 2.057779 1_555
Co4 O14 2.122948 1_655
