# generated using pymatgen
data_KHfMg6O7
_symmetry_space_group_name_H-M   'P 1'
_cell_length_a   4.13970400
_cell_length_b   4.13970400
_cell_length_c   11.93587000
_cell_angle_alpha   90.00000000
_cell_angle_beta   90.00000000
_cell_angle_gamma   90.00000000
_symmetry_Int_Tables_number   1
_chemical_formula_structural   KHfMg6O7
_chemical_formula_sum   'K1 Hf1 Mg6 O7'
_cell_volume   204.54678511
_cell_formula_units_Z   1
loop_
 _symmetry_equiv_pos_site_id
 _symmetry_equiv_pos_as_xyz
  1  'x, y, z'
loop_
 _atom_site_type_symbol
 _atom_site_label
 _atom_site_symmetry_multiplicity
 _atom_site_fract_x
 _atom_site_fract_y
 _atom_site_fract_z
 _atom_site_occupancy
  K  K0  1  0.00000000  0.00000000  0.08741200  1
  Hf  Hf0  1  0.50000000  0.50000000  0.95561800  1
  Mg  Mg0  1  0.00000000  0.00000000  0.54517300  1
  Mg  Mg1  1  0.50000000  0.50000000  0.55129900  1
  Mg  Mg2  1  0.00000000  0.50000000  0.34056100  1
  Mg  Mg3  1  0.00000000  0.50000000  0.75187400  1
  Mg  Mg4  1  0.50000000  0.00000000  0.34056100  1
  Mg  Mg5  1  0.50000000  0.00000000  0.75187400  1
  O  O0  1  0.00000000  0.00000000  0.71112800  1
  O  O1  1  0.50000000  0.50000000  0.11590200  1
  O  O2  1  0.50000000  0.50000000  0.72586600  1
  O  O3  1  0.00000000  0.50000000  0.92121700  1
  O  O4  1  0.00000000  0.50000000  0.51514900  1
  O  O5  1  0.50000000  0.00000000  0.92121700  1
  O  O6  1  0.50000000  0.00000000  0.51514900  1
loop_
_geom_bond_atom_site_label_1
_geom_bond_atom_site_label_2
_geom_bond_distance
_geom_bond_site_symmetry_2
K0 O5 2.866929 1_554
K0 O3 2.866929 1_554
K0 O3 2.866929 1_544
K0 O5 2.866929 1_454
K0 O1 2.946898 1_445
K0 O1 2.946898 1_545
K0 O1 2.946898 1_455
K0 O1 2.946898 1_555
Hf0 O1 1.913129 1_556
Hf0 O3 2.110186 1_655
Hf0 O5 2.110186 1_555
Hf0 O5 2.110186 1_565
Hf0 O3 2.110186 1_555
Mg0 O0 1.980817 1_555
Mg0 O6 2.100645 1_555
Mg0 O4 2.100645 1_555
Mg0 O6 2.100645 1_455
Mg0 O4 2.100645 1_545
Mg1 O2 2.083609 1_555
Mg1 O6 2.114347 1_565
Mg1 O4 2.114347 1_555
Mg1 O4 2.114347 1_655
Mg1 O6 2.114347 1_555
Mg2 O4 2.083860 1_555
Mg3 O3 2.021256 1_555
Mg3 O2 2.093001 1_455
Mg3 O2 2.093001 1_555
Mg3 O0 2.126220 1_565
Mg3 O0 2.126220 1_555
Mg4 O6 2.083860 1_555
Mg5 O5 2.021256 1_555
Mg5 O2 2.093001 1_555
Mg5 O2 2.093001 1_545
Mg5 O0 2.126220 1_655
Mg5 O0 2.126220 1_555
