# generated using pymatgen
data_Ba4InBiO6
_symmetry_space_group_name_H-M   'P 1'
_cell_length_a   4.53730800
_cell_length_b   4.53730800
_cell_length_c   13.30342700
_cell_angle_alpha   90.00000000
_cell_angle_beta   90.00000000
_cell_angle_gamma   90.00000000
_symmetry_Int_Tables_number   1
_chemical_formula_structural   Ba4InBiO6
_chemical_formula_sum   'Ba4 In1 Bi1 O6'
_cell_volume   273.87983191
_cell_formula_units_Z   1
loop_
 _symmetry_equiv_pos_site_id
 _symmetry_equiv_pos_as_xyz
  1  'x, y, z'
loop_
 _atom_site_type_symbol
 _atom_site_label
 _atom_site_symmetry_multiplicity
 _atom_site_fract_x
 _atom_site_fract_y
 _atom_site_fract_z
 _atom_site_occupancy
  Ba  Ba0  1  0.00000000  0.00000000  0.36136400  1
  Ba  Ba1  1  0.50000000  0.50000000  0.86977600  1
  Ba  Ba2  1  0.50000000  0.50000000  0.13022400  1
  Ba  Ba3  1  0.00000000  0.00000000  0.63863600  1
  In  In0  1  0.00000000  0.00000000  0.00000000  1
  Bi  Bi0  1  0.50000000  0.50000000  0.50000000  1
  O  O0  1  0.50000000  0.00000000  0.00000000  1
  O  O1  1  0.00000000  0.50000000  0.50000000  1
  O  O2  1  0.00000000  0.50000000  0.00000000  1
  O  O3  1  0.50000000  0.00000000  0.50000000  1
  O  O4  1  0.50000000  0.50000000  0.68268800  1
  O  O5  1  0.50000000  0.50000000  0.31731200  1
loop_
_geom_bond_atom_site_label_1
_geom_bond_atom_site_label_2
_geom_bond_distance
_geom_bond_site_symmetry_2
Ba0 O1 2.923758 1_545
Ba0 O3 2.923758 1_555
Ba0 O3 2.923758 1_455
Ba0 O1 2.923758 1_555
Ba0 O5 3.261446 1_555
Ba0 O5 3.261446 1_445
Ba0 O5 3.261446 1_545
Ba0 O5 3.261446 1_455
Ba1 O4 2.488912 1_555
Ba1 O2 2.854486 1_556
Ba1 O2 2.854486 1_656
Ba1 O0 2.854486 1_556
Ba1 O0 2.854486 1_566
Ba2 O5 2.488912 1_555
Ba2 O2 2.854486 1_555
Ba2 O2 2.854486 1_655
Ba2 O0 2.854486 1_555
Ba2 O0 2.854486 1_565
Ba3 O1 2.923758 1_545
Ba3 O3 2.923758 1_555
Ba3 O3 2.923758 1_455
Ba3 O1 2.923758 1_555
Ba3 O4 3.261446 1_545
Ba3 O4 3.261446 1_445
Ba3 O4 3.261446 1_455
Ba3 O4 3.261446 1_555
In0 O2 2.268654 1_555
In0 O0 2.268654 1_555
In0 O0 2.268654 1_455
In0 O2 2.268654 1_545
Bi0 O3 2.268654 1_565
Bi0 O1 2.268654 1_555
Bi0 O1 2.268654 1_655
Bi0 O3 2.268654 1_555
Bi0 O4 2.430376 1_555
Bi0 O5 2.430376 1_555
