# generated using pymatgen
data_YbSc(BO3)2
_symmetry_space_group_name_H-M   'P 1'
_cell_length_a   5.92878493
_cell_length_b   5.92878493
_cell_length_c   5.92878544
_cell_angle_alpha   48.16066225
_cell_angle_beta   48.16066225
_cell_angle_gamma   48.16065656
_symmetry_Int_Tables_number   1
_chemical_formula_structural   YbSc(BO3)2
_chemical_formula_sum   'Yb1 Sc1 B2 O6'
_cell_volume   106.00891860
_cell_formula_units_Z   1
loop_
 _symmetry_equiv_pos_site_id
 _symmetry_equiv_pos_as_xyz
  1  'x, y, z'
loop_
 _atom_site_type_symbol
 _atom_site_label
 _atom_site_symmetry_multiplicity
 _atom_site_fract_x
 _atom_site_fract_y
 _atom_site_fract_z
 _atom_site_occupancy
  Yb  Yb0  1  0.00000000  0.00000000  0.00000000  1
  Sc  Sc0  1  0.50000000  0.50000000  0.50000000  1
  B  B0  1  0.75319535  0.75319535  0.75319535  1
  B  B1  1  0.24680465  0.24680465  0.24680465  1
  O  O0  1  0.47317221  0.74049275  0.04295327  1
  O  O1  1  0.74049275  0.04295327  0.47317221  1
  O  O2  1  0.04295327  0.47317221  0.74049275  1
  O  O3  1  0.25950725  0.95704673  0.52682779  1
  O  O4  1  0.95704673  0.52682779  0.25950725  1
  O  O5  1  0.52682779  0.25950725  0.95704673  1
loop_
_geom_bond_atom_site_label_1
_geom_bond_atom_site_label_2
_geom_bond_distance
_geom_bond_site_symmetry_2
B0 O2 1.379287 1_655
B0 O1 1.379287 1_565
B0 O0 1.379287 1_556
B1 O4 1.379287 1_455
B1 O3 1.379287 1_545
B1 O5 1.379287 1_554
O0 Sc0 2.125787 1_555
O0 Yb0 2.230278 1_565
O1 Sc0 2.125786 1_555
O1 Yb0 2.230278 1_655
O2 Sc0 2.125786 1_555
O2 Yb0 2.230278 1_556
O3 Sc0 2.125786 1_555
O3 Yb0 2.230278 1_566
O4 Sc0 2.125786 1_555
O4 Yb0 2.230278 1_665
O5 Sc0 2.125787 1_555
O5 Yb0 2.230278 1_656
