# generated using pymatgen
data_H14C5SN3ClO2
_symmetry_space_group_name_H-M   'P 1'
_cell_length_a   10.06227479
_cell_length_b   14.63719475
_cell_length_c   16.44934643
_cell_angle_alpha   90.00000000
_cell_angle_beta   90.00000000
_cell_angle_gamma   90.00000000
_symmetry_Int_Tables_number   1
_chemical_formula_structural   H14C5SN3ClO2
_chemical_formula_sum   'H112 C40 S8 N24 Cl8 O16'
_cell_volume   2422.71691568
_cell_formula_units_Z   8
loop_
 _symmetry_equiv_pos_site_id
 _symmetry_equiv_pos_as_xyz
  1  'x, y, z'
loop_
 _atom_site_type_symbol
 _atom_site_label
 _atom_site_symmetry_multiplicity
 _atom_site_fract_x
 _atom_site_fract_y
 _atom_site_fract_z
 _atom_site_occupancy
  H  H0  1  0.64247566  0.35376107  0.43300821  1
  H  H1  1  0.85752434  0.85376107  0.06699179  1
  H  H2  1  0.85752434  0.64623893  0.93300821  1
  H  H3  1  0.64247566  0.14623893  0.56699179  1
  H  H4  1  0.35752434  0.64623893  0.56699179  1
  H  H5  1  0.14247566  0.14623893  0.93300821  1
  H  H6  1  0.14247566  0.35376107  0.06699179  1
  H  H7  1  0.35752434  0.85376107  0.43300821  1
  H  H8  1  0.65413509  0.37146424  0.53732527  1
  H  H9  1  0.84586491  0.87146424  0.96267473  1
  H  H10  1  0.84586491  0.62853576  0.03732527  1
  H  H11  1  0.65413509  0.12853576  0.46267473  1
  H  H12  1  0.34586491  0.62853576  0.46267473  1
  H  H13  1  0.15413509  0.12853576  0.03732527  1
  H  H14  1  0.15413509  0.37146424  0.96267473  1
  H  H15  1  0.34586491  0.87146424  0.53732527  1
  H  H16  1  0.86817663  0.41444101  0.56856997  1
  H  H17  1  0.63182337  0.91444101  0.93143003  1
  H  H18  1  0.63182337  0.58555899  0.06856997  1
  H  H19  1  0.86817663  0.08555899  0.43143003  1
  H  H20  1  0.13182337  0.58555899  0.43143003  1
  H  H21  1  0.36817663  0.08555899  0.06856997  1
  H  H22  1  0.36817663  0.41444101  0.93143003  1
  H  H23  1  0.13182337  0.91444101  0.56856997  1
  H  H24  1  0.91894165  0.52159239  0.61081915  1
  H  H25  1  0.58105835  0.02159239  0.88918085  1
  H  H26  1  0.58105835  0.47840761  0.11081915  1
  H  H27  1  0.91894165  0.97840761  0.38918085  1
  H  H28  1  0.08105835  0.47840761  0.38918085  1
  H  H29  1  0.41894165  0.97840761  0.11081915  1
  H  H30  1  0.41894165  0.52159239  0.88918085  1
  H  H31  1  0.08105835  0.02159239  0.61081915  1
  H  H32  1  0.76874066  0.46890079  0.64422624  1
  H  H33  1  0.73125934  0.96890079  0.85577376  1
  H  H34  1  0.73125934  0.53109921  0.14422624  1
  H  H35  1  0.76874066  0.03109921  0.35577376  1
  H  H36  1  0.23125934  0.53109921  0.35577376  1
  H  H37  1  0.26874066  0.03109921  0.14422624  1
  H  H38  1  0.26874066  0.46890079  0.85577376  1
  H  H39  1  0.23125934  0.96890079  0.64422624  1
  H  H40  1  0.49424940  0.45648031  0.37430221  1
  H  H41  1  0.00575060  0.95648031  0.12569779  1
  H  H42  1  0.00575060  0.54351969  0.87430221  1
  H  H43  1  0.49424940  0.04351969  0.62569779  1
  H  H44  1  0.50575060  0.54351969  0.62569779  1
  H  H45  1  0.99424940  0.04351969  0.87430221  1
  H  H46  1  0.99424940  0.45648031  0.12569779  1
  H  H47  1  0.50575060  0.95648031  0.37430221  1
  H  H48  1  0.52855457  0.54942268  0.30741526  1
  H  H49  1  0.97144543  0.04942268  0.19258474  1
  H  H50  1  0.97144543  0.45057732  0.80741526  1
  H  H51  1  0.52855457  0.95057732  0.69258474  1
  H  H52  1  0.47144543  0.45057732  0.69258474  1
  H  H53  1  0.02855457  0.95057732  0.80741526  1
  H  H54  1  0.02855457  0.54942268  0.19258474  1
  H  H55  1  0.47144543  0.04942268  0.30741526  1
  H  H56  1  0.61592280  0.44303728  0.29649825  1
  H  H57  1  0.88407720  0.94303728  0.20350175  1
  H  H58  1  0.88407720  0.55696272  0.79649825  1
  H  H59  1  0.61592280  0.05696272  0.70350175  1
  H  H60  1  0.38407720  0.55696272  0.70350175  1
  H  H61  1  0.11592280  0.05696272  0.79649825  1
  H  H62  1  0.11592280  0.44303728  0.20350175  1
  H  H63  1  0.38407720  0.94303728  0.29649825  1
  H  H64  1  0.84927065  0.60591281  0.39736824  1
  H  H65  1  0.65072935  0.10591281  0.10263176  1
  H  H66  1  0.65072935  0.39408719  0.89736824  1
  H  H67  1  0.84927065  0.89408719  0.60263176  1
  H  H68  1  0.15072935  0.39408719  0.60263176  1
  H  H69  1  0.34927065  0.89408719  0.89736824  1
  H  H70  1  0.34927065  0.60591281  0.10263176  1
  H  H71  1  0.15072935  0.10591281  0.39736824  1
  H  H72  1  0.79054626  0.57363183  0.29973983  1
  H  H73  1  0.70945374  0.07363183  0.20026017  1
  H  H74  1  0.70945374  0.42636817  0.79973983  1
  H  H75  1  0.79054626  0.92636817  0.70026017  1
  H  H76  1  0.20945374  0.42636817  0.70026017  1
  H  H77  1  0.29054626  0.92636817  0.79973983  1
  H  H78  1  0.29054626  0.57363183  0.20026017  1
  H  H79  1  0.20945374  0.07363183  0.29973983  1
  H  H80  1  0.70749205  0.66177479  0.35457420  1
  H  H81  1  0.79250795  0.16177479  0.14542580  1
  H  H82  1  0.79250795  0.33822521  0.85457420  1
  H  H83  1  0.70749205  0.83822521  0.64542580  1
  H  H84  1  0.29250795  0.33822521  0.64542580  1
  H  H85  1  0.20749205  0.83822521  0.85457420  1
  H  H86  1  0.20749205  0.66177479  0.14542580  1
  H  H87  1  0.29250795  0.16177479  0.35457420  1
  H  H88  1  0.67028898  0.65517230  0.50028578  1
  H  H89  1  0.82971102  0.15517230  0.99971422  1
  H  H90  1  0.82971102  0.34482770  0.00028578  1
  H  H91  1  0.67028898  0.84482770  0.49971422  1
  H  H92  1  0.32971102  0.34482770  0.49971422  1
  H  H93  1  0.17028898  0.84482770  0.00028578  1
  H  H94  1  0.17028898  0.65517230  0.99971422  1
  H  H95  1  0.32971102  0.15517230  0.50028578  1
  H  H96  1  0.71643531  0.63921409  0.60384490  1
  H  H97  1  0.78356469  0.13921409  0.89615510  1
  H  H98  1  0.78356469  0.36078591  0.10384490  1
  H  H99  1  0.71643531  0.86078591  0.39615510  1
  H  H100  1  0.28356469  0.36078591  0.39615510  1
  H  H101  1  0.21643531  0.86078591  0.10384490  1
  H  H102  1  0.21643531  0.63921409  0.89615510  1
  H  H103  1  0.28356469  0.13921409  0.60384490  1
  H  H104  1  0.84115807  0.66553567  0.53048015  1
  H  H105  1  0.65884193  0.16553567  0.96951985  1
  H  H106  1  0.65884193  0.33446433  0.03048015  1
  H  H107  1  0.84115807  0.83446433  0.46951985  1
  H  H108  1  0.15884193  0.33446433  0.46951985  1
  H  H109  1  0.34115807  0.83446433  0.03048015  1
  H  H110  1  0.34115807  0.66553567  0.96951985  1
  H  H111  1  0.15884193  0.16553567  0.53048015  1
  C  C0  1  0.69844488  0.48501431  0.46726395  1
  C  C1  1  0.80155512  0.98501431  0.03273605  1
  C  C2  1  0.80155512  0.51498569  0.96726395  1
  C  C3  1  0.69844488  0.01498569  0.53273605  1
  C  C4  1  0.30155512  0.51498569  0.53273605  1
  C  C5  1  0.19844488  0.01498569  0.96726395  1
  C  C6  1  0.19844488  0.48501431  0.03273605  1
  C  C7  1  0.30155512  0.98501431  0.46726395  1
  C  C8  1  0.83335095  0.48063859  0.59114009  1
  C  C9  1  0.66664905  0.98063859  0.90885991  1
  C  C10  1  0.66664905  0.51936141  0.09114009  1
  C  C11  1  0.83335095  0.01936141  0.40885991  1
  C  C12  1  0.16664905  0.51936141  0.40885991  1
  C  C13  1  0.33335095  0.01936141  0.09114009  1
  C  C14  1  0.33335095  0.48063859  0.90885991  1
  C  C15  1  0.16664905  0.98063859  0.59114009  1
  C  C16  1  0.57243346  0.49143729  0.34014876  1
  C  C17  1  0.92756654  0.99143729  0.15985124  1
  C  C18  1  0.92756654  0.50856271  0.84014876  1
  C  C19  1  0.57243346  0.00856271  0.65985124  1
  C  C20  1  0.42756654  0.50856271  0.65985124  1
  C  C21  1  0.07243346  0.00856271  0.84014876  1
  C  C22  1  0.07243346  0.49143729  0.15985124  1
  C  C23  1  0.42756654  0.99143729  0.34014876  1
  C  C24  1  0.75992152  0.59623606  0.36064785  1
  C  C25  1  0.74007848  0.09623606  0.13935215  1
  C  C26  1  0.74007848  0.40376394  0.86064785  1
  C  C27  1  0.75992152  0.90376394  0.63935215  1
  C  C28  1  0.24007848  0.40376394  0.63935215  1
  C  C29  1  0.25992152  0.90376394  0.86064785  1
  C  C30  1  0.25992152  0.59623606  0.13935215  1
  C  C31  1  0.24007848  0.09623606  0.36064785  1
  C  C32  1  0.74769788  0.62827924  0.54044876  1
  C  C33  1  0.75230212  0.12827924  0.95955124  1
  C  C34  1  0.75230212  0.37172076  0.04044876  1
  C  C35  1  0.74769788  0.87172076  0.45955124  1
  C  C36  1  0.25230212  0.37172076  0.45955124  1
  C  C37  1  0.24769788  0.87172076  0.04044876  1
  C  C38  1  0.24769788  0.62827924  0.95955124  1
  C  C39  1  0.25230212  0.12827924  0.54044876  1
  S  S0  1  0.62524919  0.77559956  0.19773717  1
  S  S1  1  0.87475081  0.27559956  0.30226283  1
  S  S2  1  0.87475081  0.22440044  0.69773717  1
  S  S3  1  0.62524919  0.72440044  0.80226283  1
  S  S4  1  0.37475081  0.22440044  0.80226283  1
  S  S5  1  0.12524919  0.72440044  0.69773717  1
  S  S6  1  0.12524919  0.77559956  0.30226283  1
  S  S7  1  0.37475081  0.27559956  0.19773717  1
  N  N0  1  0.65703159  0.39942807  0.48016424  1
  N  N1  1  0.84296841  0.89942807  0.01983576  1
  N  N2  1  0.84296841  0.60057193  0.98016424  1
  N  N3  1  0.65703159  0.10057193  0.51983576  1
  N  N4  1  0.34296841  0.60057193  0.51983576  1
  N  N5  1  0.15703159  0.10057193  0.98016424  1
  N  N6  1  0.15703159  0.39942807  0.01983576  1
  N  N7  1  0.34296841  0.89942807  0.48016424  1
  N  N8  1  0.67277469  0.52692688  0.39582821  1
  N  N9  1  0.82722531  0.02692688  0.10417179  1
  N  N10  1  0.82722531  0.47307312  0.89582821  1
  N  N11  1  0.67277469  0.97307312  0.60417179  1
  N  N12  1  0.32722531  0.47307312  0.60417179  1
  N  N13  1  0.17277469  0.97307312  0.89582821  1
  N  N14  1  0.17277469  0.52692688  0.10417179  1
  N  N15  1  0.32722531  0.02692688  0.39582821  1
  N  N16  1  0.76453740  0.53033678  0.52678437  1
  N  N17  1  0.73546260  0.03033678  0.97321563  1
  N  N18  1  0.73546260  0.46966322  0.02678437  1
  N  N19  1  0.76453740  0.96966322  0.47321563  1
  N  N20  1  0.23546260  0.46966322  0.47321563  1
  N  N21  1  0.26453740  0.96966322  0.02678437  1
  N  N22  1  0.26453740  0.53033678  0.97321563  1
  N  N23  1  0.23546260  0.03033678  0.52678437  1
  Cl  Cl0  1  0.87555958  0.73424804  0.14449886  1
  Cl  Cl1  1  0.62444042  0.23424804  0.35550114  1
  Cl  Cl2  1  0.62444042  0.26575196  0.64449886  1
  Cl  Cl3  1  0.87555958  0.76575196  0.85550114  1
  Cl  Cl4  1  0.12444042  0.26575196  0.85550114  1
  Cl  Cl5  1  0.37555958  0.76575196  0.64449886  1
  Cl  Cl6  1  0.37555958  0.73424804  0.35550114  1
  Cl  Cl7  1  0.12444042  0.23424804  0.14449886  1
  O  O0  1  0.63369804  0.87482301  0.20861701  1
  O  O1  1  0.86630196  0.37482301  0.29138299  1
  O  O2  1  0.86630196  0.12517699  0.70861701  1
  O  O3  1  0.63369804  0.62517699  0.79138299  1
  O  O4  1  0.36630196  0.12517699  0.79138299  1
  O  O5  1  0.13369804  0.62517699  0.70861701  1
  O  O6  1  0.13369804  0.87482301  0.29138299  1
  O  O7  1  0.36630196  0.37482301  0.20861701  1
  O  O8  1  0.54616211  0.74547073  0.12830002  1
  O  O9  1  0.95383789  0.24547073  0.37169998  1
  O  O10  1  0.95383789  0.25452927  0.62830002  1
  O  O11  1  0.54616211  0.75452927  0.87169998  1
  O  O12  1  0.45383789  0.25452927  0.87169998  1
  O  O13  1  0.04616211  0.75452927  0.62830002  1
  O  O14  1  0.04616211  0.74547073  0.37169998  1
  O  O15  1  0.45383789  0.24547073  0.12830002  1
loop_
_geom_bond_atom_site_label_1
_geom_bond_atom_site_label_2
_geom_bond_distance
_geom_bond_site_symmetry_2
H0 N0 1.034383 1_555
H1 N1 1.034383 1_555
H2 N2 1.034383 1_555
H3 N3 1.034383 1_555
H4 N4 1.034383 1_555
H5 N5 1.034383 1_555
H6 N6 1.034383 1_555
H7 N7 1.034383 1_555
H8 N0 1.025903 1_555
H9 N1 1.025903 1_556
H10 N2 1.025903 1_554
H11 N3 1.025903 1_555
H12 N4 1.025903 1_555
H13 N5 1.025903 1_554
H14 N6 1.025903 1_556
H15 N7 1.025903 1_555
C0 N0 1.337177 1_555
C0 N8 1.350508 1_555
C0 N16 1.356817 1_555
C1 N1 1.337177 1_555
C1 N9 1.350508 1_565
C1 N17 1.356817 1_564
C2 N2 1.337177 1_555
C2 N10 1.350508 1_555
C2 N18 1.356817 1_556
C3 N3 1.337177 1_555
C3 N11 1.350508 1_545
C3 N19 1.356817 1_545
C4 N4 1.337177 1_555
C4 N12 1.350508 1_555
C4 N20 1.356817 1_555
C5 N5 1.337177 1_555
C5 N13 1.350508 1_545
C5 N21 1.356817 1_546
C6 N6 1.337177 1_555
C6 N14 1.350508 1_555
C6 N22 1.356817 1_554
C7 N7 1.337177 1_555
C7 N15 1.350508 1_565
C7 N23 1.356817 1_565
C8 H16 1.095214 1_555
C8 H24 1.098114 1_555
C8 H32 1.102142 1_555
C8 N16 1.459203 1_555
C9 H17 1.095214 1_555
C9 H25 1.098114 1_565
C9 H33 1.102142 1_555
C9 N17 1.459203 1_565
C10 H18 1.095214 1_555
C10 H26 1.098114 1_555
C10 H34 1.102142 1_555
C10 N18 1.459203 1_555
C11 H19 1.095214 1_555
C11 H27 1.098114 1_545
C11 H35 1.102142 1_555
C11 N19 1.459203 1_545
C12 H20 1.095214 1_555
C12 H28 1.098114 1_555
C12 H36 1.102142 1_555
C12 N20 1.459203 1_555
C13 H21 1.095214 1_555
C13 H29 1.098114 1_545
C13 H37 1.102142 1_555
C13 N21 1.459203 1_545
C14 H22 1.095214 1_555
C14 H30 1.098114 1_555
C14 H38 1.102142 1_555
C14 N22 1.459203 1_555
C15 H23 1.095214 1_555
C15 H31 1.098114 1_565
C15 H39 1.102142 1_555
C15 N23 1.459203 1_565
C16 H40 1.093774 1_555
C16 H48 1.097829 1_555
C16 H56 1.099518 1_555
C16 N8 1.458807 1_555
C17 H41 1.093774 1_655
C17 H49 1.097829 1_565
C17 H57 1.099518 1_555
C17 N9 1.458807 1_565
C18 H42 1.093774 1_655
C18 H50 1.097829 1_555
C18 H58 1.099518 1_555
C18 N10 1.458807 1_555
C19 H43 1.093774 1_555
C19 H51 1.097829 1_545
C19 H59 1.099518 1_555
C19 N11 1.458807 1_545
C20 H44 1.093774 1_555
C20 H52 1.097829 1_555
C20 H60 1.099518 1_555
C20 N12 1.458807 1_555
C21 H45 1.093774 1_455
C21 H53 1.097829 1_545
C21 H61 1.099518 1_555
C21 N13 1.458807 1_545
C22 H46 1.093774 1_455
C22 H54 1.097829 1_555
C22 H62 1.099518 1_555
C22 N14 1.458807 1_555
C23 H47 1.093774 1_555
C23 H55 1.097829 1_565
C23 H63 1.099518 1_555
C23 N15 1.458807 1_565
C24 H64 1.092342 1_555
C24 H72 1.099194 1_555
C24 H80 1.099347 1_555
C24 N8 1.460488 1_555
C25 H65 1.092342 1_555
C25 H73 1.099194 1_555
C25 H81 1.099347 1_555
C25 N9 1.460488 1_555
C26 H66 1.092342 1_555
C26 H74 1.099194 1_555
C26 H82 1.099347 1_555
C26 N10 1.460488 1_555
C27 H67 1.092342 1_555
C27 H75 1.099194 1_555
C27 H83 1.099347 1_555
C27 N11 1.460488 1_555
C28 H68 1.092342 1_555
C28 H76 1.099194 1_555
C28 H84 1.099347 1_555
C28 N12 1.460488 1_555
C29 H69 1.092342 1_555
C29 H77 1.099194 1_555
C29 H85 1.099347 1_555
C29 N13 1.460488 1_555
C30 H70 1.092342 1_555
C30 H78 1.099194 1_555
C30 H86 1.099347 1_555
C30 N14 1.460488 1_555
C31 H71 1.092342 1_555
C31 H79 1.099194 1_555
C31 H87 1.099347 1_555
C31 N15 1.460488 1_555
C32 H88 1.094585 1_555
C32 H104 1.099394 1_555
C32 H96 1.100935 1_555
C32 N16 1.460976 1_555
C33 H89 1.094585 1_555
C33 H105 1.099394 1_555
C33 H97 1.100935 1_555
C33 N17 1.460976 1_555
C34 H90 1.094585 1_555
C34 H106 1.099394 1_555
C34 H98 1.100935 1_555
C34 N18 1.460976 1_555
C35 H91 1.094585 1_555
C35 H107 1.099394 1_555
C35 H99 1.100935 1_555
C35 N19 1.460976 1_555
C36 H92 1.094585 1_555
C36 H108 1.099394 1_555
C36 H100 1.100935 1_555
C36 N20 1.460976 1_555
C37 H93 1.094585 1_555
C37 H109 1.099394 1_555
C37 H101 1.100935 1_555
C37 N21 1.460976 1_555
C38 H94 1.094585 1_555
C38 H110 1.099394 1_555
C38 H102 1.100935 1_555
C38 N22 1.460976 1_555
C39 H95 1.094585 1_555
C39 H111 1.099394 1_555
C39 H103 1.100935 1_555
C39 N23 1.460976 1_555
O0 S0 1.465805 1_555
O1 S1 1.465805 1_555
O2 S2 1.465805 1_555
O3 S3 1.465805 1_555
O4 S4 1.465805 1_555
O5 S5 1.465805 1_555
O6 S6 1.465805 1_555
O7 S7 1.465805 1_555
O8 S0 1.460269 1_555
O9 S1 1.460269 1_555
O10 S2 1.460269 1_555
O11 S3 1.460269 1_555
O12 S4 1.460269 1_555
O13 S5 1.460269 1_555
O14 S6 1.460269 1_555
O15 S7 1.460269 1_555
