# generated using pymatgen
data_Mn5In4SbPd10
_symmetry_space_group_name_H-M   'P 1'
_cell_length_a   18.71274393
_cell_length_b   18.71274393
_cell_length_c   18.71274458
_cell_angle_alpha   13.94779279
_cell_angle_beta   13.94779279
_cell_angle_gamma   13.94779454
_symmetry_Int_Tables_number   1
_chemical_formula_structural   Mn5In4SbPd10
_chemical_formula_sum   'Mn5 In4 Sb1 Pd10'
_cell_volume   331.32351234
_cell_formula_units_Z   1
loop_
 _symmetry_equiv_pos_site_id
 _symmetry_equiv_pos_as_xyz
  1  'x, y, z'
loop_
 _atom_site_type_symbol
 _atom_site_label
 _atom_site_symmetry_multiplicity
 _atom_site_fract_x
 _atom_site_fract_y
 _atom_site_fract_z
 _atom_site_occupancy
  Mn  Mn0  1  0.70037300  0.70037300  0.70037300  1
  Mn  Mn1  1  0.50000000  0.50000000  0.50000000  1
  Mn  Mn2  1  0.10000000  0.10000000  0.10000000  1
  Mn  Mn3  1  0.29962700  0.29962700  0.29962700  1
  Mn  Mn4  1  0.90000000  0.90000000  0.90000000  1
  In  In0  1  0.59988700  0.59988700  0.59988700  1
  In  In1  1  0.20002000  0.20002000  0.20002000  1
  In  In2  1  0.79998000  0.79998000  0.79998000  1
  In  In3  1  0.40011300  0.40011300  0.40011300  1
  Sb  Sb0  1  0.00000000  0.00000000  0.00000000  1
  Pd  Pd0  1  0.04990800  0.04990800  0.04990800  1
  Pd  Pd1  1  0.84998900  0.84998900  0.84998900  1
  Pd  Pd2  1  0.44999300  0.44999300  0.44999300  1
  Pd  Pd3  1  0.65002400  0.65002400  0.65002400  1
  Pd  Pd4  1  0.25000800  0.25000800  0.25000800  1
  Pd  Pd5  1  0.34997600  0.34997600  0.34997600  1
  Pd  Pd6  1  0.15001100  0.15001100  0.15001100  1
  Pd  Pd7  1  0.74999200  0.74999200  0.74999200  1
  Pd  Pd8  1  0.95009200  0.95009200  0.95009200  1
  Pd  Pd9  1  0.55000700  0.55000700  0.55000700  1
loop_
_geom_bond_atom_site_label_1
_geom_bond_atom_site_label_2
_geom_bond_distance
_geom_bond_site_symmetry_2
Mn0 Pd7 2.758011 1_555
Mn0 Pd0 2.773792 1_665
Mn0 Pd0 2.773793 1_566
Mn0 Pd0 2.773793 1_656
Mn0 Pd5 2.789716 1_556
Mn0 Pd5 2.789716 1_565
Mn0 Pd5 2.789716 1_655
Mn0 Pd3 2.798587 1_555
Mn0 Sb0 3.223822 1_566
Mn0 Sb0 3.223822 1_656
Mn0 Sb0 3.223822 1_665
Mn1 Pd2 2.779577 1_555
Mn1 Pd9 2.779577 1_555
Mn1 Pd6 2.782087 1_556
Mn1 Pd1 2.782087 1_554
Mn1 Pd1 2.782088 1_455
Mn1 Pd1 2.782088 1_545
Mn1 Pd6 2.782088 1_655
Mn1 Pd6 2.782088 1_565
Mn2 Pd6 2.779800 1_555
Mn2 Pd2 2.782161 1_554
Mn2 Pd2 2.782162 1_545
Mn2 Pd2 2.782162 1_455
Mn2 Pd7 2.782439 1_445
Mn2 Pd7 2.782440 1_454
Mn2 Pd7 2.782440 1_544
Mn2 Pd0 2.784302 1_555
Mn3 Pd4 2.758011 1_555
Mn3 Pd8 2.773792 1_445
Mn3 Pd8 2.773793 1_454
Mn3 Pd8 2.773793 1_544
Mn3 Pd3 2.789716 1_554
Mn3 Pd3 2.789716 1_455
Mn3 Pd3 2.789716 1_545
Mn3 Pd5 2.798587 1_555
Mn3 Sb0 3.223822 1_565
Mn3 Sb0 3.223822 1_655
Mn3 Sb0 3.223822 1_556
Mn4 Pd1 2.779800 1_555
Mn4 Pd9 2.782161 1_556
Mn4 Pd9 2.782162 1_565
Mn4 Pd9 2.782162 1_655
Mn4 Pd4 2.782439 1_665
Mn4 Pd4 2.782440 1_656
Mn4 Pd4 2.782440 1_566
Mn4 Pd8 2.784302 1_555
In0 Pd9 2.772518 1_555
In0 Pd4 2.780059 1_556
In0 Pd4 2.780059 1_565
In0 Pd4 2.780059 1_655
In0 Pd8 2.786106 1_554
In0 Pd8 2.786106 1_455
In0 Pd8 2.786106 1_545
In0 Pd3 2.786803 1_555
In1 Pd4 2.778521 1_555
In1 Pd6 2.779688 1_555
In1 Pd9 2.782050 1_554
In1 Pd9 2.782051 1_545
In1 Pd9 2.782051 1_455
In1 Pd1 2.782865 1_445
In1 Pd1 2.782866 1_454
In1 Pd1 2.782866 1_544
In2 Pd7 2.778521 1_555
In2 Pd1 2.779688 1_555
In2 Pd2 2.782050 1_556
In2 Pd2 2.782051 1_565
In2 Pd2 2.782051 1_655
In2 Pd6 2.782865 1_665
In2 Pd6 2.782866 1_656
In2 Pd6 2.782866 1_566
In3 Pd2 2.772518 1_555
In3 Pd7 2.780059 1_554
In3 Pd7 2.780059 1_455
In3 Pd7 2.780059 1_545
In3 Pd0 2.786106 1_556
In3 Pd0 2.786106 1_565
In3 Pd0 2.786106 1_655
In3 Pd5 2.786803 1_555
Pd0 Sb0 2.774074 1_555
Pd3 Sb0 2.781847 1_665
Pd3 Sb0 2.781848 1_566
Pd3 Sb0 2.781848 1_656
Pd5 Sb0 2.781847 1_556
Pd5 Sb0 2.781848 1_655
Pd5 Sb0 2.781848 1_565
Pd8 Sb0 2.774074 1_666
