# generated using pymatgen
data_KAsO3
_symmetry_space_group_name_H-M   'P 1'
_cell_length_a   4.90279138
_cell_length_b   11.38334748
_cell_length_c   11.51034733
_cell_angle_alpha   90.00000000
_cell_angle_beta   90.00000000
_cell_angle_gamma   90.00000000
_symmetry_Int_Tables_number   1
_chemical_formula_structural   KAsO3
_chemical_formula_sum   'K8 As8 O24'
_cell_volume   642.39453218
_cell_formula_units_Z   8
loop_
 _symmetry_equiv_pos_site_id
 _symmetry_equiv_pos_as_xyz
  1  'x, y, z'
loop_
 _atom_site_type_symbol
 _atom_site_label
 _atom_site_symmetry_multiplicity
 _atom_site_fract_x
 _atom_site_fract_y
 _atom_site_fract_z
 _atom_site_occupancy
  K  K0  1  0.25000000  0.50000000  0.80991044  1
  K  K1  1  0.75000000  -0.00000000  0.69008956  1
  K  K2  1  0.75000000  0.50000000  0.19008956  1
  K  K3  1  0.25000000  -0.00000000  0.30991044  1
  K  K4  1  0.75000000  0.50000000  0.60983821  1
  K  K5  1  0.25000000  -0.00000000  0.89016179  1
  K  K6  1  0.25000000  0.50000000  0.39016179  1
  K  K7  1  0.75000000  -0.00000000  0.10983821  1
  As  As0  1  0.72044364  0.73034963  0.91119104  1
  As  As1  1  0.22044364  0.76965037  0.58880896  1
  As  As2  1  0.27955636  0.23034963  0.58880896  1
  As  As3  1  0.77955636  0.26965037  0.91119104  1
  As  As4  1  0.27955636  0.26965037  0.08880896  1
  As  As5  1  0.77955636  0.23034963  0.41119104  1
  As  As6  1  0.72044364  0.76965037  0.41119104  1
  As  As7  1  0.22044364  0.73034963  0.08880896  1
  O  O0  1  0.74886628  0.87439990  0.90009402  1
  O  O1  1  0.24886628  0.62560010  0.59990598  1
  O  O2  1  0.25113372  0.37439990  0.59990598  1
  O  O3  1  0.75113372  0.12560010  0.90009402  1
  O  O4  1  0.25113372  0.12560010  0.09990598  1
  O  O5  1  0.75113372  0.37439990  0.40009402  1
  O  O6  1  0.74886628  0.62560010  0.40009402  1
  O  O7  1  0.24886628  0.87439990  0.09990598  1
  O  O8  1  0.79065832  0.63884134  0.80489827  1
  O  O9  1  0.29065832  0.86115866  0.69510173  1
  O  O10  1  0.20934168  0.13884134  0.69510173  1
  O  O11  1  0.70934168  0.36115866  0.80489827  1
  O  O12  1  0.20934168  0.36115866  0.19510173  1
  O  O13  1  0.70934168  0.13884134  0.30489827  1
  O  O14  1  0.79065832  0.86115866  0.30489827  1
  O  O15  1  0.29065832  0.63884134  0.19510173  1
  O  O16  1  0.38984087  0.68621875  0.95800038  1
  O  O17  1  0.88984087  0.81378125  0.54199962  1
  O  O18  1  0.61015913  0.18621875  0.54199962  1
  O  O19  1  0.11015913  0.31378125  0.95800038  1
  O  O20  1  0.61015913  0.31378125  0.04199962  1
  O  O21  1  0.11015913  0.18621875  0.45800038  1
  O  O22  1  0.38984087  0.81378125  0.45800038  1
  O  O23  1  0.88984087  0.68621875  0.04199962  1
loop_
_geom_bond_atom_site_label_1
_geom_bond_atom_site_label_2
_geom_bond_distance
_geom_bond_site_symmetry_2
K0 O11 2.751909 1_555
K0 O8 2.751909 1_455
K0 O19 2.805197 1_555
K0 O16 2.805197 1_555
K0 O1 2.808414 1_555
K0 O2 2.808414 1_555
K0 O11 3.086687 1_455
K0 O8 3.086687 1_555
K1 O9 2.751909 1_545
K1 O10 2.751909 1_655
K1 O18 2.805197 1_555
K1 O17 2.805197 1_545
K1 O3 2.808414 1_555
K1 O0 2.808414 1_545
K1 O9 3.086687 1_645
K1 O10 3.086687 1_555
K2 O15 2.751909 1_555
K2 O12 2.751909 1_655
K2 O20 2.805197 1_555
K2 O23 2.805197 1_555
K2 O5 2.808414 1_555
K2 O6 2.808414 1_555
K2 O12 3.086687 1_555
K2 O15 3.086687 1_655
K3 O14 2.751909 1_445
K3 O13 2.751909 1_555
K3 O21 2.805197 1_555
K3 O22 2.805197 1_545
K3 O7 2.808414 1_545
K3 O4 2.808414 1_555
K3 O13 3.086687 1_455
K3 O14 3.086687 1_545
K4 O11 2.752928 1_555
K4 O8 2.752928 1_555
K4 O6 2.805836 1_555
K4 O5 2.805836 1_555
K4 O2 2.835379 1_555
K4 O1 2.835379 1_655
K4 O2 2.844974 1_655
K4 O1 2.844974 1_555
K5 O10 2.752928 1_555
K5 O9 2.752928 1_545
K5 O7 2.805836 1_546
K5 O4 2.805836 1_556
K5 O3 2.835379 1_455
K5 O0 2.835379 1_545
K5 O3 2.844974 1_555
K5 O0 2.844974 1_445
K6 O12 2.752928 1_555
K6 O15 2.752928 1_555
K6 O2 2.805836 1_555
K6 O1 2.805836 1_555
K6 O5 2.835379 1_455
K6 O6 2.835379 1_555
K6 O5 2.844974 1_555
K6 O6 2.844974 1_455
K7 O14 2.752928 1_545
K7 O13 2.752928 1_555
K7 O0 2.805836 1_544
K7 O3 2.805836 1_554
K7 O4 2.835379 1_555
K7 O7 2.835379 1_645
K7 O4 2.844974 1_655
K7 O7 2.844974 1_545
As0 O8 1.643306 1_555
As0 O0 1.650634 1_555
As0 O16 1.780421 1_555
As0 O23 1.791400 1_556
As1 O9 1.643306 1_555
As1 O1 1.650634 1_555
As1 O17 1.780421 1_455
As1 O22 1.791400 1_555
As2 O10 1.643306 1_555
As2 O2 1.650634 1_555
As2 O18 1.780421 1_555
As2 O21 1.791400 1_555
As3 O11 1.643306 1_555
As3 O3 1.650634 1_555
As3 O19 1.780421 1_655
As3 O20 1.791400 1_556
As4 O12 1.643306 1_555
As4 O4 1.650634 1_555
As4 O20 1.780421 1_555
As4 O19 1.791400 1_554
As5 O13 1.643306 1_555
As5 O5 1.650634 1_555
As5 O21 1.780421 1_655
As5 O18 1.791400 1_555
As6 O14 1.643306 1_555
As6 O6 1.650634 1_555
As6 O22 1.780421 1_555
As6 O17 1.791400 1_555
As7 O15 1.643306 1_555
As7 O7 1.650634 1_555
As7 O23 1.780421 1_455
As7 O16 1.791400 1_554
