# generated using pymatgen
data_Ca6Al6Si3(HO12)2
_symmetry_space_group_name_H-M   'P 1'
_cell_length_a   7.83427843
_cell_length_b   7.69740098
_cell_length_c   23.14424758
_cell_angle_alpha   108.96135666
_cell_angle_beta   110.35384111
_cell_angle_gamma   109.43561701
_symmetry_Int_Tables_number   1
_chemical_formula_structural   Ca6Al6Si3(HO12)2
_chemical_formula_sum   'Ca12 Al12 Si6 H4 O48'
_cell_volume   1069.77939941
_cell_formula_units_Z   2
loop_
 _symmetry_equiv_pos_site_id
 _symmetry_equiv_pos_as_xyz
  1  'x, y, z'
loop_
 _atom_site_type_symbol
 _atom_site_label
 _atom_site_symmetry_multiplicity
 _atom_site_fract_x
 _atom_site_fract_y
 _atom_site_fract_z
 _atom_site_occupancy
  Ca  Ca0  1  0.00263500  0.01434800  0.90318300  1
  Ca  Ca1  1  0.01397400  0.73307400  0.67211500  1
  Ca  Ca2  1  0.28415400  0.28188000  0.76742400  1
  Ca  Ca3  1  0.02127500  0.70825600  0.33412100  1
  Ca  Ca4  1  0.01350000  0.99254500  0.23508200  1
  Ca  Ca5  1  0.01833700  0.99786300  0.55876000  1
  Ca  Ca6  1  0.29600400  0.28995100  0.42903000  1
  Ca  Ca7  1  0.70410600  0.98249700  0.68652900  1
  Ca  Ca8  1  0.29751700  0.30427700  0.09818900  1
  Ca  Ca9  1  0.68244300  0.98743600  0.33161300  1
  Ca  Ca10  1  0.71574900  0.00572900  0.99824500  1
  Ca  Ca11  1  0.99032000  0.70585700  0.99780300  1
  Al  Al0  1  0.24185700  0.50249000  0.91896000  1
  Al  Al1  1  0.49015200  0.24777800  0.91370700  1
  Al  Al2  1  0.48911700  0.73837000  0.75424200  1
  Al  Al3  1  0.25043300  0.75704000  0.50084100  1
  Al  Al4  1  0.74335600  0.25063800  0.83380300  1
  Al  Al5  1  0.74216300  0.49656600  0.74982600  1
  Al  Al6  1  0.49659000  0.73708700  0.41748000  1
  Al  Al7  1  0.25047900  0.75768800  0.16595800  1
  Al  Al8  1  0.74401900  0.49165100  0.41525800  1
  Al  Al9  1  0.75305500  0.23708300  0.49851000  1
  Al  Al10  1  0.75207800  0.24160500  0.16457800  1
  Al  Al11  1  0.74792700  0.49788300  0.08072400  1
  Si  Si0  1  0.23858800  0.74572200  0.83314000  1
  Si  Si1  1  0.25318700  0.50121500  0.58336800  1
  Si  Si2  1  0.51201700  0.26273200  0.58404200  1
  Si  Si3  1  0.25787600  0.50088800  0.24918700  1
  Si  Si4  1  0.50288500  0.74989300  0.08406800  1
  Si  Si5  1  0.51292900  0.26304800  0.25017500  1
  H  H0  1  0.65817800  0.64788000  0.87857200  1
  H  H1  1  0.37467600  0.05162900  0.67744600  1
  H  H2  1  0.39406200  0.04804200  0.34975100  1
  H  H3  1  0.37016700  0.04099200  0.01543100  1
  O  O0  1  0.42228000  0.98395600  0.90043700  1
  O  O1  1  0.27115000  0.56915600  0.85383100  1
  O  O2  1  0.89574900  0.07428300  0.63640000  1
  O  O3  1  0.98229200  0.99371600  0.39399300  1
  O  O4  1  0.01664400  0.42115200  0.57178700  1
  O  O5  1  0.27589100  0.28306600  0.90756400  1
  O  O6  1  0.26101900  0.70383800  0.76135800  1
  O  O7  1  0.99623900  0.71351700  0.47842200  1
  O  O8  1  0.42992500  0.02411300  0.57334100  1
  O  O9  1  0.41598600  0.69349900  0.66533800  1
  O  O10  1  0.22841900  0.00726000  0.66408700  1
  O  O11  1  0.70878800  0.99233800  0.80917900  1
  O  O12  1  0.29069300  0.57470600  0.52814900  1
  O  O13  1  0.77200500  0.77792600  0.92239200  1
  O  O14  1  0.97406600  0.17555400  0.33070300  1
  O  O15  1  0.01286500  0.01606000  0.07605600  1
  O  O16  1  0.54404900  0.27457200  0.84832400  1
  O  O17  1  0.01932500  0.42041500  0.23676300  1
  O  O18  1  0.30143800  0.29816200  0.56993500  1
  O  O19  1  0.27751200  0.71391600  0.42646500  1
  O  O20  1  0.54667000  0.54283800  0.76041700  1
  O  O21  1  0.71172000  0.26981500  0.75625200  1
  O  O22  1  0.42570800  0.70020900  0.32982100  1
  O  O23  1  0.43768300  0.02294000  0.23903200  1
  O  O24  1  0.24698300  0.00182500  0.33500300  1
  O  O25  1  0.70989700  0.44835800  0.66364000  1
  O  O26  1  0.72258100  0.98683600  0.47798400  1
  O  O27  1  0.29446100  0.57736900  0.19411000  1
  O  O28  1  0.78554500  0.85262700  0.59407300  1
  O  O29  1  0.00844000  0.23018900  0.00328000  1
  O  O30  1  0.00485300  0.00002500  0.74153700  1
  O  O31  1  0.99402900  0.44693700  0.90831200  1
  O  O32  1  0.00332000  0.71576400  0.81221800  1
  O  O33  1  0.57711100  0.29009200  0.52585000  1
  O  O34  1  0.30067700  0.72432000  0.09544400  1
  O  O35  1  0.54597700  0.53651900  0.42318200  1
  O  O36  1  0.30496500  0.29859700  0.23884600  1
  O  O37  1  0.44504900  0.72849900  0.00579100  1
  O  O38  1  0.70906800  0.26413600  0.42316400  1
  O  O39  1  0.22400800  0.00307200  0.00053200  1
  O  O40  1  0.71422300  0.43925900  0.32987500  1
  O  O41  1  0.71223300  0.98539500  0.14671700  1
  O  O42  1  0.80323500  0.81216800  0.27125000  1
  O  O43  1  0.57959500  0.29360700  0.19300500  1
  O  O44  1  0.56200300  0.57094100  0.09346900  1
  O  O45  1  0.70078700  0.26899100  0.08971700  1
  O  O46  1  0.71952700  0.43450700  0.99721000  1
  O  O47  1  0.00137200  0.71939300  0.14727300  1
loop_
_geom_bond_atom_site_label_1
_geom_bond_atom_site_label_2
_geom_bond_distance
_geom_bond_site_symmetry_2
Ca0 O29 2.346161 1_556
Ca0 O39 2.366584 1_556
Ca0 O5 2.374329 1_555
Ca0 O13 2.381256 1_445
Ca0 O11 2.465470 1_445
Ca0 O32 2.566370 1_545
Ca1 O30 2.200232 1_565
Ca1 O10 2.328864 1_565
Ca1 O6 2.423577 1_555
Ca1 O25 2.537248 1_455
Ca1 O28 2.690629 1_455
Ca1 O4 2.757008 1_555
Ca2 O30 2.222125 1_555
Ca2 O16 2.268764 1_555
Ca2 O10 2.398526 1_555
Ca2 O20 2.446493 1_555
Ca2 O1 2.513421 1_555
Ca2 O2 2.864350 1_455
Ca3 O19 2.344402 1_555
Ca3 O24 2.349305 1_565
Ca3 O3 2.367242 1_455
Ca3 O42 2.368870 1_455
Ca3 O40 2.544038 1_455
Ca3 O17 2.587595 1_555
Ca4 O47 2.348576 1_555
Ca4 O42 2.352529 1_455
Ca4 O24 2.358419 1_565
Ca4 O14 2.390988 1_465
Ca4 O41 2.497765 1_455
Ca4 O36 2.630546 1_565
Ca5 O7 2.270888 1_455
Ca5 O2 2.320952 1_465
Ca5 O28 2.348966 1_455
Ca5 O26 2.371415 1_455
Ca5 O10 2.381537 1_565
Ca5 O18 2.475828 1_565
Ca6 O35 2.309420 1_555
Ca6 O24 2.348896 1_555
Ca6 O14 2.354252 1_455
Ca6 O3 2.362168 1_445
Ca6 O33 2.536778 1_555
Ca6 O12 2.632124 1_555
Ca7 O30 2.186454 1_665
Ca7 O21 2.241590 1_565
Ca7 O2 2.266687 1_565
Ca7 O9 2.337386 1_555
Ca7 O28 2.443211 1_555
Ca7 O11 2.801955 1_555
Ca7 O8 2.944153 1_565
Ca8 O29 2.268272 1_555
Ca8 O15 2.309044 1_555
Ca8 O39 2.369832 1_555
Ca8 O44 2.447720 1_555
Ca8 O27 2.526982 1_555
Ca8 O43 2.563272 1_555
Ca9 O3 2.263810 1_555
Ca9 O14 2.273442 1_565
Ca9 O42 2.282943 1_555
Ca9 O38 2.352364 1_565
Ca9 O22 2.420390 1_555
Ca9 O23 2.492777 1_565
Ca10 O29 2.302914 1_656
Ca10 O13 2.324432 1_545
Ca10 O15 2.352734 1_656
Ca10 O45 2.478877 1_556
Ca10 O0 2.512954 1_545
Ca10 O37 2.563180 1_546
Ca11 O13 2.337363 1_555
Ca11 O39 2.372334 1_666
Ca11 O31 2.379210 1_555
Ca11 O15 2.387298 1_666
Ca11 O46 2.423982 1_555
Ca11 O34 2.603448 1_656
Al0 O5 1.747135 1_555
Al0 O31 1.749106 1_455
Al0 O1 1.803627 1_555
Al0 O37 1.805217 1_556
Al1 O5 1.753322 1_555
Al1 O46 1.757884 1_555
Al1 O16 1.760701 1_555
Al1 O0 1.806506 1_545
Al2 O11 1.738849 1_555
Al2 O20 1.742296 1_555
Al2 O6 1.791134 1_555
Al2 O9 1.807687 1_555
Al3 O19 1.745822 1_555
Al3 O7 1.752568 1_455
Al3 O12 1.789168 1_555
Al3 O8 1.792268 1_565
Al4 O31 1.757742 1_555
Al4 O16 1.761018 1_555
Al4 O11 1.774590 1_545
Al4 O21 1.786564 1_555
Al5 O21 1.744058 1_555
Al5 O20 1.760687 1_555
Al5 O32 1.783860 1_655
Al5 O25 1.812806 1_555
Al6 O35 1.744994 1_555
Al6 O26 1.747007 1_555
Al6 O19 1.757687 1_555
Al6 O22 1.800587 1_555
Al7 O47 1.740626 1_555
Al7 O34 1.767855 1_555
Al7 O23 1.793801 1_565
Al7 O27 1.794316 1_555
Al8 O35 1.753137 1_555
Al8 O7 1.755131 1_555
Al8 O38 1.760509 1_555
Al8 O40 1.794649 1_555
Al9 O26 1.735945 1_545
Al9 O38 1.751787 1_555
Al9 O4 1.789728 1_655
Al9 O33 1.811101 1_555
Al10 O45 1.737017 1_555
Al10 O41 1.768743 1_545
Al10 O17 1.795481 1_655
Al10 O43 1.796191 1_555
Al11 O46 1.743362 1_554
Al11 O47 1.770561 1_655
Al11 O45 1.772757 1_555
Al11 O44 1.805846 1_555
H0 O13 0.971022 1_555
H1 O10 0.974497 1_555
H2 O24 0.972348 1_555
H3 O39 0.976086 1_555
O0 Si0 1.639542 1_555
O1 Si0 1.646286 1_555
O2 O28 1.400448 1_545
O4 Si1 1.634895 1_555
O6 Si0 1.669609 1_555
O8 Si2 1.629736 1_555
O9 Si1 1.628573 1_555
O12 Si1 1.630968 1_555
O17 Si3 1.642892 1_555
O18 Si1 1.685710 1_555
O18 Si2 1.698584 1_555
O22 Si3 1.629525 1_555
O23 Si5 1.639912 1_555
O25 Si2 1.633186 1_555
O27 Si3 1.638036 1_555
O32 Si0 1.645782 1_555
O33 Si2 1.645887 1_555
O34 Si4 1.653454 1_555
O36 Si3 1.679136 1_555
O36 Si5 1.686482 1_555
O37 Si4 1.643162 1_555
O40 Si5 1.629796 1_555
O41 Si4 1.654515 1_555
O43 Si5 1.637094 1_555
O44 Si4 1.645749 1_555
