# generated using pymatgen
data_MnRe(PbO3)2
_symmetry_space_group_name_H-M   'P 1'
_cell_length_a   9.94881576
_cell_length_b   9.94881576
_cell_length_c   5.72350745
_cell_angle_alpha   73.39777442
_cell_angle_beta   73.39777442
_cell_angle_gamma   49.17305803
_symmetry_Int_Tables_number   1
_chemical_formula_structural   MnRe(PbO3)2
_chemical_formula_sum   'Mn3 Re3 Pb6 O18'
_cell_volume   406.95748713
_cell_formula_units_Z   3
loop_
 _symmetry_equiv_pos_site_id
 _symmetry_equiv_pos_as_xyz
  1  'x, y, z'
loop_
 _atom_site_type_symbol
 _atom_site_label
 _atom_site_symmetry_multiplicity
 _atom_site_fract_x
 _atom_site_fract_y
 _atom_site_fract_z
 _atom_site_occupancy
  Mn  Mn0  1  0.00000000  0.00000000  0.00000000  1
  Mn  Mn1  1  0.33281700  0.33281700  0.67917100  1
  Mn  Mn2  1  0.66718300  0.66718300  0.32082900  1
  Re  Re0  1  0.50000000  0.50000000  0.00000000  1
  Re  Re1  1  0.83335800  0.83335800  0.66419800  1
  Re  Re2  1  0.16664200  0.16664200  0.33580200  1
  Pb  Pb0  1  0.25514000  0.74486000  0.50000000  1
  Pb  Pb1  1  0.74486000  0.25514000  0.50000000  1
  Pb  Pb2  1  0.58358900  0.08249400  0.19365500  1
  Pb  Pb3  1  0.08249400  0.58358900  0.19365500  1
  Pb  Pb4  1  0.41641100  0.91750600  0.80634500  1
  Pb  Pb5  1  0.91750600  0.41641100  0.80634500  1
  O  O0  1  0.26633000  0.73367000  0.00000000  1
  O  O1  1  0.73367000  0.26633000  0.00000000  1
  O  O2  1  0.74066800  0.74066800  0.94209100  1
  O  O3  1  0.25933200  0.25933200  0.05790900  1
  O  O4  1  0.23249400  0.23249400  0.55198000  1
  O  O5  1  0.76750600  0.76750600  0.44802000  1
  O  O6  1  0.59654000  0.06915700  0.64591500  1
  O  O7  1  0.06915700  0.59654000  0.64591500  1
  O  O8  1  0.40346000  0.93084300  0.35408500  1
  O  O9  1  0.93084300  0.40346000  0.35408500  1
  O  O10  1  0.07799200  0.07799200  0.63296700  1
  O  O11  1  0.92200800  0.92200800  0.36703300  1
  O  O12  1  0.59573900  0.59573900  0.72150500  1
  O  O13  1  0.40426100  0.40426100  0.27849500  1
  O  O14  1  0.55966400  0.55966400  0.23238000  1
  O  O15  1  0.44033600  0.44033600  0.76762000  1
  O  O16  1  0.10075500  0.10075500  0.13788800  1
  O  O17  1  0.89924500  0.89924500  0.86211200  1
loop_
_geom_bond_atom_site_label_1
_geom_bond_atom_site_label_2
_geom_bond_distance
_geom_bond_site_symmetry_2
Mn0 O11 2.131064 1_445
Mn0 O10 2.131064 1_554
Mn0 O16 2.202359 1_555
Mn0 O17 2.202359 1_444
Mn0 O0 2.204879 1_545
Mn0 O1 2.204879 1_455
Mn1 O4 2.157624 1_555
Mn1 O3 2.157676 1_556
Mn1 O15 2.158652 1_555
Mn1 O6 2.191302 1_555
Mn1 O7 2.191302 1_555
Mn1 O13 2.251036 1_555
Mn2 O5 2.157624 1_555
Mn2 O2 2.157676 1_554
Mn2 O14 2.158652 1_555
Mn2 O9 2.191302 1_555
Mn2 O8 2.191302 1_555
Mn2 O12 2.251036 1_555
O0 Re0 1.934495 1_555
O0 Pb0 2.863253 1_555
O0 Pb0 2.863253 1_554
O0 Pb4 2.875689 1_554
O0 Pb3 2.875689 1_555
O1 Re0 1.934495 1_555
O1 Pb1 2.863253 1_555
O1 Pb1 2.863253 1_554
O1 Pb5 2.875689 1_554
O1 Pb2 2.875689 1_555
O2 Re1 1.914707 1_555
O2 Pb4 2.708481 1_555
O2 Pb5 2.708481 1_555
O3 Re2 1.914707 1_555
O3 Pb2 2.708481 1_555
O3 Pb3 2.708481 1_555
O4 Re2 1.969016 1_555
O4 Pb4 2.589513 1_545
O4 Pb5 2.589513 1_455
O5 Re1 1.969016 1_555
O5 Pb2 2.589513 1_565
O5 Pb3 2.589513 1_655
O6 Re1 1.959312 1_545
O6 Pb2 2.589706 1_555
O6 Pb4 2.852070 1_545
O6 Pb1 2.877728 1_555
O7 Re1 1.959312 1_455
O7 Pb3 2.589706 1_555
O7 Pb5 2.852070 1_455
O7 Pb0 2.877728 1_555
O8 Re2 1.959312 1_565
O8 Pb4 2.589706 1_555
O8 Pb2 2.852070 1_565
O8 Pb0 2.877728 1_555
O9 Re2 1.959312 1_655
O9 Pb5 2.589706 1_555
O9 Pb3 2.852070 1_655
O9 Pb1 2.877728 1_555
O10 Re2 1.936798 1_555
O10 Pb0 2.776147 1_545
O10 Pb1 2.776147 1_455
O11 Re1 1.936798 1_555
O11 Pb1 2.776147 1_565
O11 Pb0 2.776147 1_655
O12 Re0 1.950966 1_556
O12 Pb5 2.567477 1_555
O12 Pb4 2.567477 1_555
O13 Re0 1.950966 1_555
O13 Pb2 2.567477 1_555
O13 Pb3 2.567477 1_555
O14 Re0 1.958745 1_555
O14 Pb0 2.565485 1_555
O14 Pb1 2.565485 1_555
O15 Re0 1.958745 1_556
O15 Pb0 2.565485 1_555
O15 Pb1 2.565485 1_555
O16 Re2 1.884930 1_555
O16 Pb5 2.805731 1_454
O16 Pb4 2.805731 1_544
O17 Re1 1.884930 1_555
O17 Pb2 2.805731 1_566
O17 Pb3 2.805731 1_656
