# generated using pymatgen
data_Mg14ZrSi
_symmetry_space_group_name_H-M   'P 1'
_cell_length_a   6.28997877
_cell_length_b   6.28997828
_cell_length_c   10.25954181
_cell_angle_alpha   90.00000000
_cell_angle_beta   90.00000000
_cell_angle_gamma   120.00000265
_symmetry_Int_Tables_number   1
_chemical_formula_structural   Mg14ZrSi
_chemical_formula_sum   'Mg14 Zr1 Si1'
_cell_volume   351.52556166
_cell_formula_units_Z   1
loop_
 _symmetry_equiv_pos_site_id
 _symmetry_equiv_pos_as_xyz
  1  'x, y, z'
loop_
 _atom_site_type_symbol
 _atom_site_label
 _atom_site_symmetry_multiplicity
 _atom_site_fract_x
 _atom_site_fract_y
 _atom_site_fract_z
 _atom_site_occupancy
  Mg  Mg0  1  0.17374859  0.83687379  0.12500000  1
  Mg  Mg1  1  0.16387597  0.83193749  0.62500000  1
  Mg  Mg2  1  0.66312621  0.32625141  0.12500000  1
  Mg  Mg3  1  0.66806251  0.33612403  0.62500000  1
  Mg  Mg4  1  0.66312621  0.83687379  0.12500000  1
  Mg  Mg5  1  0.66806251  0.83193749  0.62500000  1
  Mg  Mg6  1  0.32678238  0.17321762  0.37785943  1
  Mg  Mg7  1  0.32678238  0.17321762  0.87214057  1
  Mg  Mg8  1  0.32678238  0.65356577  0.37785943  1
  Mg  Mg9  1  0.32678238  0.65356577  0.87214057  1
  Mg  Mg10  1  0.84643423  0.17321762  0.37785943  1
  Mg  Mg11  1  0.84643423  0.17321762  0.87214057  1
  Mg  Mg12  1  0.83333300  0.66666700  0.36656756  1
  Mg  Mg13  1  0.83333300  0.66666700  0.88343244  1
  Zr  Zr0  1  0.16666700  0.33333300  0.12500000  1
  Si  Si0  1  0.16666700  0.33333300  0.62500000  1
loop_
_geom_bond_atom_site_label_1
_geom_bond_atom_site_label_2
_geom_bond_distance
_geom_bond_site_symmetry_2
Mg0 Mg2 3.078175 1_565
Mg0 Mg4 3.078175 1_555
Mg0 Mg13 3.095304 1_454
Mg0 Mg12 3.095304 1_455
Mg0 Zr0 3.145226 1_555
Mg0 Zr0 3.145226 1_565
Mg0 Mg8 3.177392 1_555
Mg0 Mg9 3.177392 1_554
Mg0 Mg6 3.177399 1_565
Mg0 Mg7 3.177399 1_564
Mg0 Mg2 3.211804 1_455
Mg0 Mg4 3.211804 1_455
Mg1 Mg3 3.118656 1_455
Mg1 Mg5 3.118656 1_455
Mg1 Mg8 3.144423 1_555
Mg1 Mg9 3.144423 1_555
Mg1 Mg6 3.144430 1_565
Mg1 Mg7 3.144430 1_565
Mg1 Si0 3.145026 1_565
Mg1 Si0 3.145026 1_555
Mg1 Mg3 3.171322 1_565
Mg1 Mg5 3.171323 1_555
Mg1 Mg12 3.204985 1_455
Mg1 Mg13 3.204985 1_455
Mg2 Mg4 3.078175 1_545
Mg2 Zr0 3.145226 1_655
Mg2 Zr0 3.145226 1_555
Mg2 Mg7 3.177399 1_554
Mg2 Mg6 3.177399 1_555
Mg2 Mg4 3.211804 1_555
Mg3 Mg5 3.118656 1_555
Mg3 Mg7 3.144430 1_555
Mg3 Mg6 3.144430 1_555
Mg3 Si0 3.145026 1_555
Mg3 Si0 3.145026 1_655
Mg3 Mg5 3.171322 1_545
Mg4 Zr0 3.145226 1_555
Mg4 Zr0 3.145226 1_665
Mg4 Mg8 3.177398 1_555
Mg4 Mg9 3.177398 1_554
Mg5 Mg8 3.144429 1_555
Mg5 Mg9 3.144429 1_555
Mg5 Si0 3.145026 1_665
Mg5 Si0 3.145026 1_555
Mg6 Mg8 3.021379 1_555
Mg6 Si0 3.077644 1_555
Mg6 Zr0 3.126160 1_555
Mg6 Mg8 3.268599 1_545
Mg7 Mg9 3.021379 1_555
Mg7 Si0 3.077644 1_555
Mg7 Zr0 3.126160 1_556
Mg7 Mg9 3.268599 1_545
Mg8 Si0 3.077650 1_555
Mg8 Zr0 3.126166 1_555
Mg9 Si0 3.077650 1_555
Mg9 Zr0 3.126166 1_556
Mg10 Mg8 3.021379 1_655
Mg10 Mg6 3.021380 1_655
Mg10 Si0 3.077651 1_655
Mg10 Zr0 3.126166 1_655
Mg10 Mg3 3.144423 1_555
Mg10 Mg5 3.144429 1_545
Mg10 Mg12 3.147931 1_555
Mg10 Mg12 3.147931 1_545
Mg10 Mg2 3.177392 1_555
Mg10 Mg4 3.177398 1_545
Mg10 Mg8 3.268599 1_545
Mg10 Mg6 3.268599 1_555
Mg11 Mg9 3.021379 1_655
Mg11 Mg7 3.021380 1_655
Mg11 Si0 3.077651 1_655
Mg11 Zr0 3.126166 1_656
Mg11 Mg3 3.144423 1_555
Mg11 Mg5 3.144429 1_545
Mg11 Mg13 3.147931 1_555
Mg11 Mg13 3.147931 1_545
Mg11 Mg2 3.177392 1_556
Mg11 Mg4 3.177398 1_546
Mg11 Mg9 3.268599 1_545
Mg11 Mg7 3.268599 1_555
Mg12 Mg4 3.095297 1_555
Mg12 Mg2 3.095304 1_555
Mg12 Mg6 3.147931 1_665
Mg12 Mg6 3.147931 1_555
Mg12 Mg8 3.147931 1_655
Mg12 Mg8 3.147931 1_555
Mg12 Mg5 3.204979 1_555
Mg12 Mg3 3.204985 1_555
Mg13 Mg4 3.095297 1_556
Mg13 Mg2 3.095304 1_556
Mg13 Mg7 3.147931 1_665
Mg13 Mg7 3.147931 1_555
Mg13 Mg9 3.147931 1_655
Mg13 Mg9 3.147931 1_555
Mg13 Mg5 3.204979 1_555
Mg13 Mg3 3.204985 1_555
