# generated using pymatgen
data_NaBH4
_symmetry_space_group_name_H-M   'P 1'
_cell_length_a   5.10672700
_cell_length_b   6.16333700
_cell_length_c   8.67184000
_cell_angle_alpha   90.00000000
_cell_angle_beta   90.00000000
_cell_angle_gamma   90.00000000
_symmetry_Int_Tables_number   1
_chemical_formula_structural   NaBH4
_chemical_formula_sum   'Na4 B4 H16'
_cell_volume   272.94165003
_cell_formula_units_Z   4
loop_
 _symmetry_equiv_pos_site_id
 _symmetry_equiv_pos_as_xyz
  1  'x, y, z'
loop_
 _atom_site_type_symbol
 _atom_site_label
 _atom_site_symmetry_multiplicity
 _atom_site_fract_x
 _atom_site_fract_y
 _atom_site_fract_z
 _atom_site_occupancy
  Na  Na0  1  0.25000000  0.24339600  0.65143000  1
  Na  Na1  1  0.25000000  0.25660400  0.15143000  1
  Na  Na2  1  0.75000000  0.75660400  0.34857000  1
  Na  Na3  1  0.75000000  0.74339600  0.84857000  1
  B  B0  1  0.25000000  0.88130100  0.79780300  1
  B  B1  1  0.25000000  0.61869900  0.29780300  1
  B  B2  1  0.75000000  0.11869900  0.20219700  1
  B  B3  1  0.75000000  0.38130100  0.70219700  1
  H  H0  1  0.25000000  0.70333400  0.86037400  1
  H  H1  1  0.25000000  0.79666600  0.36037400  1
  H  H2  1  0.75000000  0.29666600  0.13962600  1
  H  H3  1  0.75000000  0.20333400  0.63962600  1
  H  H4  1  0.75000000  0.35641800  0.84359300  1
  H  H5  1  0.75000000  0.14358200  0.34359300  1
  H  H6  1  0.25000000  0.64358200  0.15640700  1
  H  H7  1  0.25000000  0.85641800  0.65640700  1
  H  H8  1  0.05952600  0.51046000  0.33760900  1
  H  H9  1  0.44047400  0.98954000  0.83760900  1
  H  H10  1  0.55952600  0.48954000  0.66239100  1
  H  H11  1  0.94047400  0.01046000  0.16239100  1
  H  H12  1  0.94047400  0.48954000  0.66239100  1
  H  H13  1  0.55952600  0.01046000  0.16239100  1
  H  H14  1  0.44047400  0.51046000  0.33760900  1
  H  H15  1  0.05952600  0.98954000  0.83760900  1
loop_
_geom_bond_atom_site_label_1
_geom_bond_atom_site_label_2
_geom_bond_distance
_geom_bond_site_symmetry_2
B0 H0 1.223743 1_555
B0 H9 1.228959 1_555
B0 H15 1.228959 1_555
B0 H7 1.235717 1_555
B1 H1 1.223743 1_555
B1 H14 1.228959 1_555
B1 H8 1.228959 1_555
B1 H6 1.235717 1_555
B2 H2 1.223743 1_555
B2 H11 1.228959 1_555
B2 H13 1.228959 1_555
B2 H5 1.235717 1_555
B3 H3 1.223743 1_555
B3 H12 1.228959 1_555
B3 H10 1.228959 1_555
B3 H4 1.235717 1_555
H0 Na3 2.567316 1_455
H0 Na3 2.567316 1_555
H1 Na2 2.567316 1_455
H1 Na2 2.567316 1_555
H2 Na1 2.567316 1_555
H2 Na1 2.567316 1_655
H3 Na0 2.567316 1_555
H3 Na0 2.567316 1_655
H4 Na3 2.385466 1_555
H5 Na2 2.385466 1_545
H6 Na1 2.385466 1_555
H7 Na0 2.385466 1_565
H8 Na2 2.192951 1_455
H8 Na1 2.449648 1_555
H9 Na3 2.192951 1_555
H9 Na0 2.449648 1_565
H10 Na0 2.192951 1_555
H10 Na3 2.449648 1_555
H11 Na1 2.192951 1_655
H11 Na2 2.449648 1_545
H12 Na0 2.192951 1_655
H12 Na3 2.449648 1_555
H13 Na1 2.192951 1_555
H13 Na2 2.449648 1_545
H14 Na2 2.192951 1_555
H14 Na1 2.449648 1_555
H15 Na3 2.192951 1_455
H15 Na0 2.449648 1_565
