# generated using pymatgen
data_Li9Mn2Co5O16
_symmetry_space_group_name_H-M   'P 1'
_cell_length_a   5.09990600
_cell_length_b   5.12897846
_cell_length_c   11.64324019
_cell_angle_alpha   91.01867296
_cell_angle_beta   91.61613060
_cell_angle_gamma   109.41195887
_symmetry_Int_Tables_number   1
_chemical_formula_structural   Li9Mn2Co5O16
_chemical_formula_sum   'Li9 Mn2 Co5 O16'
_cell_volume   287.00946751
_cell_formula_units_Z   1
loop_
 _symmetry_equiv_pos_site_id
 _symmetry_equiv_pos_as_xyz
  1  'x, y, z'
loop_
 _atom_site_type_symbol
 _atom_site_label
 _atom_site_symmetry_multiplicity
 _atom_site_fract_x
 _atom_site_fract_y
 _atom_site_fract_z
 _atom_site_occupancy
  Li  Li0  1  0.00398200  0.50180300  0.12533300  1
  Li  Li1  1  0.49985400  0.49689800  0.24624900  1
  Li  Li2  1  0.00650800  0.50397200  0.37094800  1
  Li  Li3  1  0.49882800  0.49894200  0.50278500  1
  Li  Li4  1  0.00075700  0.50055200  0.62676000  1
  Li  Li5  1  0.50365400  0.50252200  0.74836700  1
  Li  Li6  1  0.99251800  0.49482700  0.87755200  1
  Li  Li7  1  0.49521400  0.50182300  0.00235300  1
  Li  Li8  1  0.49817400  0.00085900  0.12451300  1
  Mn  Mn0  1  0.99853200  0.99515100  0.00415800  1
  Mn  Mn1  1  0.00420800  0.00388900  0.49730600  1
  Co  Co0  1  0.00277800  0.00937800  0.24604400  1
  Co  Co1  1  0.50448600  0.00413400  0.36512100  1
  Co  Co2  1  0.50091700  0.00028500  0.62771700  1
  Co  Co3  1  0.99364500  0.99042600  0.75022900  1
  Co  Co4  1  0.49361700  0.99320000  0.88363400  1
  O  O0  1  0.23481400  0.77104200  0.99837800  1
  O  O1  1  0.78399100  0.77603100  0.12696900  1
  O  O2  1  0.24493000  0.78484000  0.25537600  1
  O  O3  1  0.77668700  0.78323100  0.36627500  1
  O  O4  1  0.25699200  0.77846700  0.50298900  1
  O  O5  1  0.75012700  0.75584300  0.63173700  1
  O  O6  1  0.26130200  0.77299200  0.75312500  1
  O  O7  1  0.75857300  0.76434400  0.88218000  1
  O  O8  1  0.77397300  0.22286500  0.25135900  1
  O  O9  1  0.25208100  0.24373600  0.36068900  1
  O  O10  1  0.74627700  0.22423700  0.49575400  1
  O  O11  1  0.23292200  0.22908500  0.62414600  1
  O  O12  1  0.73620500  0.22736200  0.74680200  1
  O  O13  1  0.22262600  0.21925500  0.88434500  1
  O  O14  1  0.75074700  0.21993400  0.99454700  1
  O  O15  1  0.22007800  0.22807500  0.12625700  1
loop_
_geom_bond_atom_site_label_1
_geom_bond_atom_site_label_2
_geom_bond_distance
_geom_bond_site_symmetry_2
Li0 O15 2.052823 1_555
Li0 O1 2.070398 1_455
Li0 O2 2.130984 1_555
Li0 O0 2.137267 1_554
Li0 O8 2.152235 1_455
Li0 O14 2.155575 1_454
Li1 O9 2.030767 1_555
Li1 O15 2.097654 1_555
Li1 O3 2.130848 1_555
Li1 O1 2.209856 1_555
Li1 O2 2.271804 1_555
Li1 O8 2.288605 1_555
Li2 O8 2.030480 1_455
Li2 O2 2.088378 1_555
Li2 O9 2.116187 1_555
Li2 O3 2.131501 1_455
Li2 O4 2.143437 1_555
Li2 O10 2.201975 1_455
Li3 O5 2.081239 1_555
Li3 O11 2.163643 1_555
Li3 O9 2.178251 1_555
Li3 O4 2.179902 1_555
Li3 O10 2.183586 1_555
Li3 O3 2.344436 1_555
Li4 O11 2.106613 1_555
Li4 O6 2.113125 1_555
Li4 O5 2.113192 1_455
Li4 O10 2.146707 1_455
Li4 O12 2.157896 1_455
Li4 O4 2.181131 1_555
Li5 O5 2.045872 1_555
Li5 O11 2.119718 1_555
Li5 O12 2.124036 1_555
Li5 O7 2.138173 1_555
Li5 O6 2.143819 1_555
Li5 O13 2.344610 1_555
Li6 O0 2.044626 1_655
Li6 O14 2.090750 1_555
Li6 O7 2.105836 1_555
Li6 O13 2.117172 1_655
Li6 O12 2.128304 1_555
Li6 O6 2.213337 1_655
Li7 O13 2.098353 1_554
Li7 O7 2.132032 1_554
Li7 O1 2.163850 1_555
Li7 O0 2.211369 1_554
Li7 O15 2.213162 1_555
Li7 O14 2.247524 1_554
Li8 O0 2.031015 1_544
Li8 O8 2.052948 1_555
Li8 O14 2.102361 1_554
Li8 O2 2.106421 1_545
Li8 O15 2.114107 1_555
Li8 O1 2.138077 1_545
Mn0 O15 1.917448 1_665
Mn0 O0 1.923630 1_654
Mn0 O7 1.948136 1_554
Mn0 O1 1.957775 1_555
Mn0 O13 1.961405 1_664
Mn0 O14 1.975764 1_564
Mn1 O11 1.955068 1_555
Mn1 O3 1.980054 1_445
Mn1 O4 1.997948 1_545
Mn1 O10 1.998876 1_455
Mn1 O9 2.188803 1_555
Mn1 O5 2.199298 1_445
Co0 O8 1.848075 1_455
Co0 O1 1.888287 1_445
Co0 O9 1.916901 1_555
Co0 O15 1.935989 1_555
Co0 O2 1.950763 1_545
Co0 O3 1.973403 1_445
Co1 O2 1.874528 1_545
Co1 O10 2.004053 1_555
Co1 O8 2.008116 1_555
Co1 O9 2.054242 1_555
Co1 O3 2.062999 1_545
Co1 O4 2.172286 1_545
Co2 O12 1.907506 1_555
Co2 O4 1.962005 1_545
Co2 O6 2.049057 1_545
Co2 O5 2.060890 1_545
Co2 O11 2.076421 1_555
Co2 O10 2.112279 1_555
Co3 O5 1.935059 1_555
Co3 O13 2.024980 1_665
Co3 O6 2.029475 1_655
Co3 O12 2.064338 1_565
Co3 O11 2.077155 1_665
Co3 O7 2.094122 1_555
Co4 O14 1.891313 1_565
Co4 O6 1.984016 1_555
Co4 O0 1.994787 1_555
Co4 O7 2.063699 1_555
Co4 O13 2.078407 1_565
Co4 O12 2.168583 1_565
