# generated using pymatgen
data_SrLaMnFeO6
_symmetry_space_group_name_H-M   'P 1'
_cell_length_a   5.53351100
_cell_length_b   5.55030937
_cell_length_c   7.79260175
_cell_angle_alpha   89.95403565
_cell_angle_beta   90.00085836
_cell_angle_gamma   90.00012422
_symmetry_Int_Tables_number   1
_chemical_formula_structural   SrLaMnFeO6
_chemical_formula_sum   'Sr2 La2 Mn2 Fe2 O12'
_cell_volume   239.33174664
_cell_formula_units_Z   2
loop_
 _symmetry_equiv_pos_site_id
 _symmetry_equiv_pos_as_xyz
  1  'x, y, z'
loop_
 _atom_site_type_symbol
 _atom_site_label
 _atom_site_symmetry_multiplicity
 _atom_site_fract_x
 _atom_site_fract_y
 _atom_site_fract_z
 _atom_site_occupancy
  Sr  Sr0  1  0.51636000  0.49830500  0.75023700  1
  Sr  Sr1  1  0.98362400  0.99825100  0.25023600  1
  La  La0  1  0.02439700  0.00507200  0.75020300  1
  La  La1  1  0.47558300  0.50511400  0.25021300  1
  Mn  Mn0  1  0.99920000  0.49997300  0.00011400  1
  Mn  Mn1  1  0.50075900  0.99993900  0.50003400  1
  Fe  Fe0  1  0.50269200  0.00028000  0.99989200  1
  Fe  Fe1  1  0.99726800  0.50014400  0.50002000  1
  O  O0  1  0.99510700  0.56538800  0.75622500  1
  O  O1  1  0.50491900  0.06539700  0.25623700  1
  O  O2  1  0.48848200  0.95033500  0.74366200  1
  O  O3  1  0.01155500  0.45032800  0.24364800  1
  O  O4  1  0.26498800  0.27348400  0.97209400  1
  O  O5  1  0.23505400  0.77342800  0.47214800  1
  O  O6  1  0.77432000  0.21645200  0.53177200  1
  O  O7  1  0.72567400  0.71648500  0.03171700  1
  O  O8  1  0.71724100  0.72684400  0.46830300  1
  O  O9  1  0.78278600  0.22682500  0.96824700  1
  O  O10  1  0.22692400  0.76399900  0.02746500  1
  O  O11  1  0.27306600  0.26395600  0.52752900  1
loop_
_geom_bond_atom_site_label_1
_geom_bond_atom_site_label_2
_geom_bond_distance
_geom_bond_site_symmetry_2
La0 O0 2.446171 1_445
La0 O6 2.487047 1_455
La0 O9 2.488532 1_455
La0 O2 2.586436 1_545
La0 O11 2.639142 1_555
La0 O4 2.643043 1_555
La0 O10 2.776637 1_546
La0 O5 2.776915 1_545
La0 O2 2.981452 1_445
La0 O0 3.114539 1_455
La0 O8 3.178756 1_445
La0 O7 3.178813 1_446
La1 O1 2.446371 1_555
La1 O7 2.487438 1_555
La1 O8 2.488823 1_555
La1 O3 2.586156 1_555
La1 O10 2.639471 1_555
La1 O5 2.642818 1_555
La1 O4 2.777095 1_554
La1 O11 2.777193 1_555
La1 O3 2.981799 1_655
La1 O1 3.114369 1_565
La1 O6 3.179275 1_555
La1 O9 3.179454 1_554
Mn0 O3 1.918662 1_655
Mn0 O0 1.934746 1_554
Mn0 O10 1.944549 1_655
Mn0 O4 1.947171 1_654
Mn0 O9 1.948013 1_554
Mn0 O7 1.948360 1_555
Mn1 O2 1.919340 1_555
Mn1 O1 1.934091 1_565
Mn1 O11 1.944532 1_565
Mn1 O5 1.946776 1_555
Mn1 O8 1.947889 1_555
Mn1 O6 1.948638 1_565
Fe0 O9 2.010860 1_555
Fe0 O7 2.016040 1_546
Fe0 O2 2.017602 1_545
Fe0 O4 2.018880 1_555
Fe0 O10 2.023399 1_546
Fe0 O1 2.030349 1_556
Fe1 O8 2.011179 1_555
Fe1 O6 2.015409 1_555
Fe1 O3 2.018617 1_655
Fe1 O5 2.019571 1_655
Fe1 O11 2.023136 1_655
Fe1 O0 2.029400 1_555
O0 Sr0 2.675600 1_555
O0 Sr0 2.908672 1_655
O1 Sr1 2.675423 1_545
O1 Sr1 2.908946 1_445
O2 Sr0 2.514126 1_555
O2 Sr0 3.045784 1_565
O3 Sr1 2.514406 1_445
O3 Sr1 3.045541 1_455
O4 Sr0 2.545068 1_555
O4 Sr1 3.074134 1_446
O5 Sr1 2.545514 1_455
O5 Sr0 3.073348 1_555
O6 Sr0 2.717969 1_555
O6 Sr1 2.761458 1_545
O7 Sr1 2.717895 1_555
O7 Sr0 2.761053 1_554
O8 Sr1 2.706585 1_555
O8 Sr0 2.768935 1_555
O9 Sr0 2.706637 1_555
O9 Sr1 2.769244 1_546
O10 Sr1 2.553479 1_455
O10 Sr0 3.067906 1_554
O11 Sr0 2.553371 1_555
O11 Sr1 3.068272 1_445
