# generated using pymatgen
data_H4I3NO9
_symmetry_space_group_name_H-M   'P 1'
_cell_length_a   8.12280400
_cell_length_b   8.21336602
_cell_length_c   8.41330912
_cell_angle_alpha   69.99179128
_cell_angle_beta   64.64422906
_cell_angle_gamma   62.42524092
_symmetry_Int_Tables_number   1
_chemical_formula_structural   H4I3NO9
_chemical_formula_sum   'H8 I6 N2 O18'
_cell_volume   442.29271311
_cell_formula_units_Z   2
loop_
 _symmetry_equiv_pos_site_id
 _symmetry_equiv_pos_as_xyz
  1  'x, y, z'
loop_
 _atom_site_type_symbol
 _atom_site_label
 _atom_site_symmetry_multiplicity
 _atom_site_fract_x
 _atom_site_fract_y
 _atom_site_fract_z
 _atom_site_occupancy
  H  H0  1  0.19064400  0.19686500  0.22859500  1
  H  H1  1  0.80935600  0.80313500  0.77140500  1
  H  H2  1  0.38491300  0.19335800  0.25869700  1
  H  H3  1  0.61508700  0.80664200  0.74130300  1
  H  H4  1  0.22589400  0.39597000  0.18157500  1
  H  H5  1  0.77410600  0.60403000  0.81842500  1
  H  H6  1  0.15360200  0.28676800  0.39841300  1
  H  H7  1  0.84639800  0.71323200  0.60158700  1
  I  I0  1  0.26227300  0.19878100  0.79298800  1
  I  I1  1  0.73772700  0.80121900  0.20701200  1
  I  I2  1  0.23753400  0.75607900  0.26721800  1
  I  I3  1  0.76246600  0.24392100  0.73278200  1
  I  I4  1  0.21894500  0.70499900  0.79107600  1
  I  I5  1  0.78105500  0.29500100  0.20892400  1
  N  N0  1  0.23894200  0.26848200  0.26753900  1
  N  N1  1  0.76105800  0.73151800  0.73246100  1
  O  O0  1  0.40889600  0.22156700  0.55101100  1
  O  O1  1  0.59110400  0.77843300  0.44898900  1
  O  O2  1  0.43832400  0.16973700  0.89109400  1
  O  O3  1  0.56167600  0.83026300  0.10890600  1
  O  O4  1  0.19618200  0.85131700  0.45503600  1
  O  O5  1  0.80381800  0.14868300  0.54496400  1
  O  O6  1  0.39845800  0.51047100  0.32102100  1
  O  O7  1  0.60154200  0.48952900  0.67897900  1
  O  O8  1  0.15255100  0.52381800  0.77720200  1
  O  O9  1  0.84744900  0.47618200  0.22279800  1
  O  O10  1  0.33639100  0.94312300  0.80611700  1
  O  O11  1  0.66360900  0.05687700  0.19388300  1
  O  O12  1  0.24764500  0.61382400  0.01257700  1
  O  O13  1  0.75235500  0.38617600  0.98742300  1
  O  O14  1  0.99663200  0.73187800  0.35497400  1
  O  O15  1  0.00336800  0.26812200  0.64502600  1
  O  O16  1  0.95931700  0.87257800  0.86434300  1
  O  O17  1  0.04068300  0.12742200  0.13565700  1
loop_
_geom_bond_atom_site_label_1
_geom_bond_atom_site_label_2
_geom_bond_distance
_geom_bond_site_symmetry_2
H0 N0 1.030964 1_555
H1 N1 1.030964 1_555
H2 N0 1.034728 1_555
H3 N1 1.034728 1_555
H4 N0 1.037022 1_555
H5 N1 1.037022 1_555
H6 N0 1.038519 1_555
H7 N1 1.038519 1_555
I0 O2 1.828533 1_555
I0 O0 1.862003 1_555
I0 O10 1.873957 1_545
I0 O8 2.365361 1_555
I0 O15 2.635329 1_555
I0 O17 2.696448 1_556
I1 O3 1.828533 1_555
I1 O1 1.862003 1_555
I1 O11 1.873957 1_565
I1 O9 2.365361 1_555
I1 O14 2.635329 1_555
I1 O16 2.696448 1_554
I2 O4 1.835657 1_555
I2 O6 1.850291 1_555
I2 O14 1.853639 1_455
I3 O5 1.835657 1_555
I3 O7 1.850291 1_555
I3 O15 1.853639 1_655
I4 O12 1.828513 1_556
I4 O8 1.853300 1_555
I4 O16 1.871303 1_455
I5 O13 1.828513 1_554
I5 O9 1.853300 1_555
I5 O17 1.871303 1_655
