# generated using pymatgen
data_CaNiAs2O7
_symmetry_space_group_name_H-M   'P 1'
_cell_length_a   9.06763000
_cell_length_b   7.42544600
_cell_length_c   9.43070898
_cell_angle_alpha   69.64657599
_cell_angle_beta   90.00000000
_cell_angle_gamma   90.00000000
_symmetry_Int_Tables_number   1
_chemical_formula_structural   CaNiAs2O7
_chemical_formula_sum   'Ca4 Ni4 As8 O28'
_cell_volume   595.33591198
_cell_formula_units_Z   4
loop_
 _symmetry_equiv_pos_site_id
 _symmetry_equiv_pos_as_xyz
  1  'x, y, z'
loop_
 _atom_site_type_symbol
 _atom_site_label
 _atom_site_symmetry_multiplicity
 _atom_site_fract_x
 _atom_site_fract_y
 _atom_site_fract_z
 _atom_site_occupancy
  Ca  Ca0  1  0.06545700  0.74522000  0.93744000  1
  Ca  Ca1  1  0.56545700  0.25478000  0.56256000  1
  Ca  Ca2  1  0.93454300  0.25478000  0.06256000  1
  Ca  Ca3  1  0.43454300  0.74522000  0.43744000  1
  Ni  Ni0  1  0.94216700  0.19763000  0.69525200  1
  Ni  Ni1  1  0.44216700  0.80237000  0.80474800  1
  Ni  Ni2  1  0.05783300  0.80237000  0.30474800  1
  Ni  Ni3  1  0.55783300  0.19763000  0.19525200  1
  As  As0  1  0.76095000  0.57999900  0.73385200  1
  As  As1  1  0.26095000  0.42000100  0.76614800  1
  As  As2  1  0.23905000  0.42000100  0.26614800  1
  As  As3  1  0.73905000  0.57999900  0.23385200  1
  As  As4  1  0.70140800  0.98210300  0.95286400  1
  As  As5  1  0.20140800  0.01789700  0.54713600  1
  As  As6  1  0.29859200  0.01789700  0.04713600  1
  As  As7  1  0.79859200  0.98210300  0.45286400  1
  O  O0  1  0.68723000  0.14772500  0.03992100  1
  O  O1  1  0.18723000  0.85227500  0.46007900  1
  O  O2  1  0.31277000  0.85227500  0.96007900  1
  O  O3  1  0.81277000  0.14772500  0.53992100  1
  O  O4  1  0.58234000  0.65580400  0.71749700  1
  O  O5  1  0.08234000  0.34419600  0.78250300  1
  O  O6  1  0.41766000  0.34419600  0.28250300  1
  O  O7  1  0.91766000  0.65580400  0.21749700  1
  O  O8  1  0.86072200  0.57008900  0.88952200  1
  O  O9  1  0.36072200  0.42991100  0.61047800  1
  O  O10  1  0.13927800  0.42991100  0.11047800  1
  O  O11  1  0.63927800  0.57008900  0.38952200  1
  O  O12  1  0.85748000  0.75190700  0.57599300  1
  O  O13  1  0.35748000  0.24809300  0.92400700  1
  O  O14  1  0.14252000  0.24809300  0.42400700  1
  O  O15  1  0.64252000  0.75190700  0.07599300  1
  O  O16  1  0.91255900  0.00816200  0.30385600  1
  O  O17  1  0.41255900  0.99183800  0.19614400  1
  O  O18  1  0.08744100  0.99183800  0.69614400  1
  O  O19  1  0.58744100  0.00816200  0.80385600  1
  O  O20  1  0.73240800  0.36933300  0.19963400  1
  O  O21  1  0.23240800  0.63066700  0.30036600  1
  O  O22  1  0.26759200  0.63066700  0.80036600  1
  O  O23  1  0.76759200  0.36933300  0.69963400  1
  O  O24  1  0.61640900  0.99538500  0.40213200  1
  O  O25  1  0.11640900  0.00461500  0.09786800  1
  O  O26  1  0.38359100  0.00461500  0.59786800  1
  O  O27  1  0.88359100  0.99538500  0.90213200  1
loop_
_geom_bond_atom_site_label_1
_geom_bond_atom_site_label_2
_geom_bond_distance
_geom_bond_site_symmetry_2
Ca0 O18 2.381755 1_555
Ca0 O8 2.398033 1_455
Ca0 O2 2.413412 1_555
Ca0 O27 2.418831 1_455
Ca0 O10 2.436194 1_556
Ca0 O22 2.553229 1_555
Ca0 O7 2.827128 1_456
Ca0 O25 2.870462 1_566
Ca1 O19 2.381755 1_555
Ca1 O9 2.398033 1_555
Ca1 O3 2.413412 1_555
Ca1 O26 2.418831 1_555
Ca1 O11 2.436194 1_555
Ca1 O23 2.553229 1_555
Ca1 O6 2.827128 1_555
Ca1 O24 2.870462 1_545
Ca2 O16 2.381755 1_555
Ca2 O10 2.398033 1_655
Ca2 O0 2.413412 1_555
Ca2 O25 2.418831 1_655
Ca2 O8 2.436194 1_554
Ca2 O20 2.553229 1_555
Ca2 O5 2.827128 1_654
Ca2 O27 2.870462 1_544
Ca3 O17 2.381755 1_555
Ca3 O11 2.398033 1_555
Ca3 O1 2.413412 1_555
Ca3 O24 2.418831 1_555
Ca3 O9 2.436194 1_555
Ca3 O21 2.553229 1_555
Ca3 O4 2.827128 1_555
Ca3 O26 2.870462 1_565
Ni0 O3 2.009352 1_555
Ni0 O18 2.015308 1_645
Ni0 O5 2.024838 1_655
Ni0 O23 2.041994 1_555
Ni0 O27 2.075030 1_545
Ni1 O2 2.009352 1_555
Ni1 O19 2.015308 1_565
Ni1 O4 2.024838 1_555
Ni1 O22 2.041994 1_555
Ni1 O26 2.075030 1_565
Ni2 O1 2.009352 1_555
Ni2 O16 2.015308 1_465
Ni2 O7 2.024838 1_455
Ni2 O21 2.041994 1_555
Ni2 O25 2.075030 1_565
Ni3 O0 2.009352 1_555
Ni3 O17 2.015308 1_545
Ni3 O6 2.024838 1_555
Ni3 O20 2.041994 1_555
Ni3 O24 2.075030 1_545
As0 O4 1.703890 1_555
As0 O8 1.704111 1_555
As0 O23 1.704673 1_555
As0 O12 1.813825 1_555
As1 O5 1.703890 1_555
As1 O9 1.704111 1_555
As1 O22 1.704673 1_555
As1 O13 1.813825 1_555
As2 O6 1.703890 1_555
As2 O10 1.704111 1_555
As2 O21 1.704673 1_555
As2 O14 1.813825 1_555
As3 O7 1.703890 1_555
As3 O11 1.704111 1_555
As3 O20 1.704673 1_555
As3 O15 1.813825 1_555
As4 O19 1.700282 1_565
As4 O0 1.704522 1_566
As4 O27 1.713127 1_555
As4 O15 1.781724 1_556
As5 O18 1.700282 1_545
As5 O1 1.704522 1_545
As5 O26 1.713127 1_555
As5 O14 1.781724 1_555
As6 O17 1.700282 1_545
As6 O2 1.704522 1_544
As6 O25 1.713127 1_555
As6 O13 1.781724 1_554
As7 O16 1.700282 1_565
As7 O3 1.704522 1_565
As7 O24 1.713127 1_555
As7 O12 1.781724 1_555
