# generated using pymatgen
data_MnReB2
_symmetry_space_group_name_H-M   'P 1'
_cell_length_a   3.02678700
_cell_length_b   4.32040900
_cell_length_c   5.71109000
_cell_angle_alpha   90.00000000
_cell_angle_beta   90.00000000
_cell_angle_gamma   90.00000000
_symmetry_Int_Tables_number   1
_chemical_formula_structural   MnReB2
_chemical_formula_sum   'Mn2 Re2 B4'
_cell_volume   74.68368290
_cell_formula_units_Z   2
loop_
 _symmetry_equiv_pos_site_id
 _symmetry_equiv_pos_as_xyz
  1  'x, y, z'
loop_
 _atom_site_type_symbol
 _atom_site_label
 _atom_site_symmetry_multiplicity
 _atom_site_fract_x
 _atom_site_fract_y
 _atom_site_fract_z
 _atom_site_occupancy
  Mn  Mn0  1  0.00000000  0.13164300  0.68357900  1
  Mn  Mn1  1  0.00000000  0.86835700  0.18357900  1
  Re  Re0  1  0.50000000  0.36655900  0.32250900  1
  Re  Re1  1  0.50000000  0.63344100  0.82250900  1
  B  B0  1  0.00000000  0.66019100  0.53043200  1
  B  B1  1  0.00000000  0.33980900  0.03043200  1
  B  B2  1  0.50000000  0.87656100  0.46348000  1
  B  B3  1  0.50000000  0.12343900  0.96348000  1
loop_
_geom_bond_atom_site_label_1
_geom_bond_atom_site_label_2
_geom_bond_distance
_geom_bond_site_symmetry_2
Mn0 Re1 2.748253 1_545
Mn0 Re1 2.748253 1_445
Mn0 Re0 2.751857 1_455
Mn0 Re0 2.751857 1_555
Mn0 Re1 2.760437 1_555
Mn0 Re1 2.760437 1_455
Mn1 Re0 2.748253 1_565
Mn1 Re0 2.748253 1_465
Mn1 Re1 2.751857 1_454
Mn1 Re1 2.751857 1_554
Mn1 Re0 2.760437 1_455
Mn1 Re0 2.760437 1_555
B0 B2 1.819459 1_455
B0 B2 1.819459 1_555
B0 Mn1 2.175512 1_555
B0 Mn0 2.216711 1_565
B0 Re1 2.255261 1_455
B0 Re1 2.255261 1_555
B0 Re0 2.304302 1_455
B0 Re0 2.304302 1_555
B0 Mn0 2.445314 1_555
B1 B3 1.819459 1_454
B1 B3 1.819459 1_554
B1 Mn0 2.175512 1_554
B1 Mn1 2.216711 1_545
B1 Re0 2.255261 1_555
B1 Re0 2.255261 1_455
B1 Re1 2.304302 1_454
B1 Re1 2.304302 1_554
B1 Mn1 2.445314 1_555
B2 Mn1 2.201578 1_655
B2 Mn1 2.201578 1_555
B2 Mn0 2.254984 1_565
B2 Mn0 2.254984 1_665
B2 Re0 2.264914 1_565
B2 Re1 2.303829 1_555
B2 Re0 2.345897 1_555
B3 Mn0 2.201578 1_555
B3 Mn0 2.201578 1_655
B3 Mn1 2.254984 1_546
B3 Mn1 2.254984 1_646
B3 Re1 2.264914 1_545
B3 Re0 2.303829 1_556
B3 Re1 2.345897 1_555
