# generated using pymatgen
data_TaCr3(AgS4)2
_symmetry_space_group_name_H-M   'P 1'
_cell_length_a   3.46744100
_cell_length_b   11.15507700
_cell_length_c   13.05059600
_cell_angle_alpha   90.00000000
_cell_angle_beta   90.00000000
_cell_angle_gamma   90.00000000
_symmetry_Int_Tables_number   1
_chemical_formula_structural   TaCr3(AgS4)2
_chemical_formula_sum   'Ta2 Cr6 Ag4 S16'
_cell_volume   504.79145912
_cell_formula_units_Z   2
loop_
 _symmetry_equiv_pos_site_id
 _symmetry_equiv_pos_as_xyz
  1  'x, y, z'
loop_
 _atom_site_type_symbol
 _atom_site_label
 _atom_site_symmetry_multiplicity
 _atom_site_fract_x
 _atom_site_fract_y
 _atom_site_fract_z
 _atom_site_occupancy
  Ta  Ta0  1  0.00000000  0.83598000  0.59720000  1
  Ta  Ta1  1  0.50000000  0.16402000  0.09720000  1
  Cr  Cr0  1  0.50000000  0.68662300  0.89273700  1
  Cr  Cr1  1  0.00000000  0.80045500  0.11181800  1
  Cr  Cr2  1  0.00000000  0.31337700  0.39273700  1
  Cr  Cr3  1  0.50000000  0.19954500  0.61181800  1
  Cr  Cr4  1  0.50000000  0.66435800  0.40096900  1
  Cr  Cr5  1  0.00000000  0.33564200  0.90096900  1
  Ag  Ag0  1  0.50000000  0.49669300  0.67434000  1
  Ag  Ag1  1  0.00000000  0.99885100  0.33045600  1
  Ag  Ag2  1  0.00000000  0.50330700  0.17434000  1
  Ag  Ag3  1  0.50000000  0.00114900  0.83045600  1
  S  S0  1  0.00000000  0.72186100  0.28713600  1
  S  S1  1  0.50000000  0.77243700  0.71706200  1
  S  S2  1  0.50000000  0.27813900  0.78713600  1
  S  S3  1  0.00000000  0.22756300  0.21706200  1
  S  S4  1  0.50000000  0.66345600  0.07100000  1
  S  S5  1  0.00000000  0.83136700  0.93143800  1
  S  S6  1  0.00000000  0.33654400  0.57100000  1
  S  S7  1  0.50000000  0.16863300  0.43143800  1
  S  S8  1  0.00000000  0.62903000  0.52570900  1
  S  S9  1  0.50000000  0.87041500  0.46427500  1
  S  S10  1  0.50000000  0.37097000  0.02570900  1
  S  S11  1  0.00000000  0.12958500  0.96427500  1
  S  S12  1  0.00000000  0.54600000  0.84746500  1
  S  S13  1  0.50000000  0.95259100  0.14839400  1
  S  S14  1  0.50000000  0.45400000  0.34746500  1
  S  S15  1  0.00000000  0.04740900  0.64839400  1
loop_
_geom_bond_atom_site_label_1
_geom_bond_atom_site_label_2
_geom_bond_distance
_geom_bond_site_symmetry_2
Cr0 S4 2.340748 1_556
Cr0 S12 2.411547 1_655
Cr0 S12 2.411547 1_555
Cr0 S5 2.422378 1_555
Cr0 S5 2.422378 1_655
Cr0 S1 2.484483 1_555
Cr1 S4 2.371720 1_555
Cr1 S4 2.371720 1_455
Cr1 S5 2.379188 1_554
Cr1 S0 2.450226 1_555
Cr1 S13 2.472600 1_455
Cr1 S13 2.472600 1_555
Cr2 S6 2.340748 1_555
Cr2 S14 2.411547 1_555
Cr2 S14 2.411547 1_455
Cr2 S7 2.422378 1_555
Cr2 S7 2.422378 1_455
Cr2 S3 2.484483 1_555
Cr3 S6 2.371720 1_555
Cr3 S6 2.371720 1_655
Cr3 S7 2.379188 1_555
Cr3 S2 2.450226 1_555
Cr3 S15 2.472600 1_555
Cr3 S15 2.472600 1_655
Cr4 S0 2.371543 1_655
Cr4 S0 2.371543 1_555
Cr4 S8 2.410654 1_555
Cr4 S8 2.410654 1_655
Cr4 S9 2.442550 1_555
Cr4 S14 2.448246 1_555
Cr5 S2 2.371543 1_455
Cr5 S2 2.371543 1_555
Cr5 S10 2.410654 1_556
Cr5 S10 2.410654 1_456
Cr5 S11 2.442550 1_555
Cr5 S12 2.448246 1_555
Ag0 S6 2.831277 1_655
Ag0 S6 2.831277 1_555
Ag0 S2 2.847933 1_555
Ag0 S12 2.900540 1_655
Ag0 S12 2.900540 1_555
Ag0 S8 2.991248 1_555
Ag0 S8 2.991248 1_655
Ag0 S1 3.126068 1_555
Ag1 S9 2.847530 1_455
Ag1 S9 2.847530 1_555
Ag1 S7 2.886097 1_565
Ag1 S7 2.886097 1_465
Ag1 S3 2.949426 1_565
Ag1 S13 2.986225 1_455
Ag1 S13 2.986225 1_555
Ag1 S0 3.141140 1_555
Ag2 S4 2.831277 1_455
Ag2 S4 2.831277 1_555
Ag2 S0 2.847933 1_555
Ag2 S14 2.900540 1_455
Ag2 S14 2.900540 1_555
Ag2 S10 2.991248 1_455
Ag2 S10 2.991248 1_555
Ag2 S3 3.126068 1_555
Ag3 S11 2.847530 1_555
Ag3 S11 2.847530 1_655
Ag3 S5 2.886097 1_645
Ag3 S5 2.886097 1_545
Ag3 S1 2.949426 1_545
Ag3 S15 2.986225 1_555
Ag3 S15 2.986225 1_655
Ag3 S2 3.141140 1_555
S1 Ta0 2.440321 1_555
S1 Ta0 2.440321 1_655
S3 Ta1 2.440321 1_555
S3 Ta1 2.440321 1_455
S8 Ta0 2.489952 1_555
S9 Ta0 2.482478 1_555
S9 Ta0 2.482478 1_655
S10 Ta1 2.489952 1_555
S11 Ta1 2.482478 1_456
S11 Ta1 2.482478 1_556
S13 Ta1 2.451312 1_565
S15 Ta0 2.451312 1_545
