# generated using pymatgen
data_La6Cd(SiS7)2
_symmetry_space_group_name_H-M   'P 1'
_cell_length_a   10.44225739
_cell_length_b   10.44225739
_cell_length_c   5.77536500
_cell_angle_alpha   90.00000000
_cell_angle_beta   90.00000000
_cell_angle_gamma   119.99999615
_symmetry_Int_Tables_number   1
_chemical_formula_structural   La6Cd(SiS7)2
_chemical_formula_sum   'La6 Cd1 Si2 S14'
_cell_volume   545.37958002
_cell_formula_units_Z   1
loop_
 _symmetry_equiv_pos_site_id
 _symmetry_equiv_pos_as_xyz
  1  'x, y, z'
loop_
 _atom_site_type_symbol
 _atom_site_label
 _atom_site_symmetry_multiplicity
 _atom_site_fract_x
 _atom_site_fract_y
 _atom_site_fract_z
 _atom_site_occupancy
  La  La0  1  0.30922400  0.09817300  0.75043700  1
  La  La1  1  0.78894900  0.69077600  0.75043700  1
  La  La2  1  0.90182700  0.21105100  0.75043700  1
  La  La3  1  0.02397100  0.56821000  0.24861300  1
  La  La4  1  0.54423900  0.97602900  0.24861300  1
  La  La5  1  0.43179000  0.45576100  0.24861300  1
  Cd  Cd0  1  0.66666700  0.33333300  0.50909400  1
  Si  Si0  1  0.00000000  0.00000000  0.16435400  1
  Si  Si1  1  0.33333300  0.66666700  0.66226700  1
  S  S0  1  0.00000000  0.00000000  0.52936000  1
  S  S1  1  0.33333300  0.66666700  0.02788500  1
  S  S2  1  0.41449800  0.16696600  0.26528300  1
  S  S3  1  0.75246800  0.58550200  0.26528300  1
  S  S4  1  0.83303400  0.24753200  0.26528300  1
  S  S5  1  0.91871400  0.50137200  0.75588700  1
  S  S6  1  0.58265800  0.08128600  0.75588700  1
  S  S7  1  0.49862800  0.41734200  0.75588700  1
  S  S8  1  0.14193500  0.21630100  0.02237600  1
  S  S9  1  0.07436700  0.85806500  0.02237600  1
  S  S10  1  0.78369900  0.92563300  0.02237600  1
  S  S11  1  0.19165200  0.45023100  0.52111700  1
  S  S12  1  0.25857900  0.80834800  0.52111700  1
  S  S13  1  0.54976900  0.74142100  0.52111700  1
loop_
_geom_bond_atom_site_label_1
_geom_bond_atom_site_label_2
_geom_bond_distance
_geom_bond_site_symmetry_2
La0 S7 2.903247 1_555
La0 S9 2.935736 1_546
La0 S6 2.947564 1_555
La0 S2 2.964065 1_555
La0 S8 3.032256 1_556
La0 S12 3.097172 1_545
La0 S2 3.126668 1_556
La0 S0 3.130075 1_555
La1 S5 2.903247 1_555
La1 S10 2.935731 1_556
La1 S7 2.947565 1_555
La1 S3 2.964065 1_555
La1 S9 3.032264 1_656
La1 S13 3.097172 1_555
La1 S3 3.126668 1_556
La1 S0 3.130075 1_665
La2 S6 2.903247 1_555
La2 S8 2.935740 1_656
La2 S5 2.947564 1_555
La2 S4 2.964065 1_555
La2 S10 3.032265 1_546
La2 S11 3.097172 1_655
La2 S4 3.126668 1_556
La2 S0 3.130075 1_655
La3 S4 2.919111 1_455
La3 S3 2.931146 1_455
La3 S12 2.936560 1_555
La3 S5 3.004317 1_454
La3 S11 3.036058 1_555
La3 S5 3.084018 1_455
La3 S9 3.090710 1_555
La3 S1 3.129946 1_555
La4 S2 2.919111 1_565
La4 S4 2.931146 1_565
La4 S13 2.936560 1_555
La4 S6 3.004317 1_564
La4 S12 3.036058 1_555
La4 S6 3.084018 1_565
La4 S10 3.090719 1_555
La4 S1 3.129948 1_555
La5 S3 2.919111 1_555
La5 S2 2.931146 1_555
La5 S11 2.936560 1_555
La5 S7 3.004317 1_554
La5 S13 3.036058 1_555
La5 S7 3.084018 1_555
La5 S8 3.090713 1_555
La5 S1 3.129955 1_555
Cd0 S4 2.712932 1_555
Cd0 S2 2.712939 1_555
Cd0 S3 2.712941 1_555
Cd0 S6 2.723848 1_555
Cd0 S5 2.723850 1_555
Cd0 S7 2.723856 1_555
S0 Si0 2.108043 1_555
S1 Si1 2.111577 1_554
S8 Si0 2.150119 1_555
S9 Si0 2.150126 1_565
S10 Si0 2.150117 1_665
S11 Si1 2.148863 1_555
S12 Si1 2.148856 1_555
S13 Si1 2.148865 1_555
