# generated using pymatgen
data_LaAs2
_symmetry_space_group_name_H-M   'P 1'
_cell_length_a   4.26009580
_cell_length_b   6.98209088
_cell_length_c   10.34579044
_cell_angle_alpha   90.00000000
_cell_angle_beta   96.58363959
_cell_angle_gamma   90.00000000
_symmetry_Int_Tables_number   1
_chemical_formula_structural   LaAs2
_chemical_formula_sum   'La4 As8'
_cell_volume   305.69977572
_cell_formula_units_Z   4
loop_
 _symmetry_equiv_pos_site_id
 _symmetry_equiv_pos_as_xyz
  1  'x, y, z'
loop_
 _atom_site_type_symbol
 _atom_site_label
 _atom_site_symmetry_multiplicity
 _atom_site_fract_x
 _atom_site_fract_y
 _atom_site_fract_z
 _atom_site_occupancy
  La  La0  1  0.72799804  0.81401452  0.63955994  1
  La  La1  1  0.77200196  0.31401452  0.86044006  1
  La  La2  1  0.27200196  0.18598548  0.36044006  1
  La  La3  1  0.22799804  0.68598548  0.13955994  1
  As  As0  1  0.20306595  0.14957819  0.66958383  1
  As  As1  1  0.29693405  0.64957819  0.83041617  1
  As  As2  1  0.79693405  0.85042181  0.33041617  1
  As  As3  1  0.70306595  0.35042181  0.16958383  1
  As  As4  1  0.66657264  0.87686193  0.95118217  1
  As  As5  1  0.83342736  0.37686193  0.54881783  1
  As  As6  1  0.33342736  0.12313807  0.04881783  1
  As  As7  1  0.16657264  0.62313807  0.45118217  1
loop_
_geom_bond_atom_site_label_1
_geom_bond_atom_site_label_2
_geom_bond_distance
_geom_bond_site_symmetry_2
As0 As5 2.471410 1_455
As0 La1 3.069329 1_455
As0 La0 3.088299 1_445
As0 La1 3.161337 1_555
As0 La2 3.255088 1_555
As0 La0 3.278106 1_545
As1 As4 2.471410 1_555
As1 La0 3.069329 1_555
As1 La1 3.088299 1_555
As1 La0 3.161337 1_455
As1 La3 3.255088 1_556
As1 La1 3.278106 1_455
As2 As7 2.471410 1_655
As2 La3 3.069329 1_655
As2 La2 3.088299 1_665
As2 La3 3.161337 1_555
As2 La0 3.255088 1_555
As2 La2 3.278106 1_565
As3 As6 2.471410 1_555
As3 La2 3.069329 1_555
As3 La3 3.088299 1_555
As3 La2 3.161337 1_655
As3 La1 3.255088 1_554
As3 La3 3.278106 1_655
As4 As6 2.513970 1_566
As4 La3 3.146457 1_556
As4 La3 3.197796 1_656
As4 La1 3.239741 1_565
As4 La0 3.293709 1_555
As5 As7 2.513970 1_655
As5 La2 3.146457 1_655
As5 La2 3.197796 1_555
As5 La0 3.239741 1_555
As5 La1 3.293709 1_555
As6 La1 3.146457 1_554
As6 La1 3.197796 1_454
As6 La3 3.239741 1_545
As6 La2 3.293709 1_555
As7 La0 3.146457 1_455
As7 La0 3.197796 1_555
As7 La2 3.239741 1_555
As7 La3 3.293709 1_555
