# generated using pymatgen
data_Nd2P2H8S4O15
_symmetry_space_group_name_H-M   'P 1'
_cell_length_a   16.74634200
_cell_length_b   7.17571200
_cell_length_c   8.38989441
_cell_angle_alpha   86.22626778
_cell_angle_beta   90.00000000
_cell_angle_gamma   90.00000000
_symmetry_Int_Tables_number   1
_chemical_formula_structural   Nd2P2H8S4O15
_chemical_formula_sum   'Nd4 P4 H16 S8 O30'
_cell_volume   1006.00182532
_cell_formula_units_Z   2
loop_
 _symmetry_equiv_pos_site_id
 _symmetry_equiv_pos_as_xyz
  1  'x, y, z'
loop_
 _atom_site_type_symbol
 _atom_site_label
 _atom_site_symmetry_multiplicity
 _atom_site_fract_x
 _atom_site_fract_y
 _atom_site_fract_z
 _atom_site_occupancy
  Nd  Nd0  1  0.92198900  0.50565000  0.71709400  1
  Nd  Nd1  1  0.56322700  0.99374400  0.22772200  1
  Nd  Nd2  1  0.06322700  0.00625600  0.77227800  1
  Nd  Nd3  1  0.42198900  0.49435000  0.28290600  1
  P  P0  1  0.90011000  0.99390300  0.59523300  1
  P  P1  1  0.60541300  0.51841500  0.10262800  1
  P  P2  1  0.10541300  0.48158500  0.89737200  1
  P  P3  1  0.40011000  0.00609700  0.40476700  1
  H  H0  1  0.54904100  0.91620300  0.59592900  1
  H  H1  1  0.84524000  0.39906800  0.05432000  1
  H  H2  1  0.34524000  0.60093200  0.94568000  1
  H  H3  1  0.04904100  0.08379700  0.40407100  1
  H  H4  1  0.00936300  0.58931700  0.38655900  1
  H  H5  1  0.47334300  0.01856700  0.88481900  1
  H  H6  1  0.97334300  0.98143300  0.11518100  1
  H  H7  1  0.50936300  0.41068300  0.61344100  1
  H  H8  1  0.57389900  0.38846400  0.48672100  1
  H  H9  1  0.91784200  0.89368500  0.97639200  1
  H  H10  1  0.41784200  0.10631500  0.02360800  1
  H  H11  1  0.07389900  0.61153600  0.51327900  1
  H  H12  1  0.64245700  0.87558700  0.54986600  1
  H  H13  1  0.90909000  0.24402900  0.01868800  1
  H  H14  1  0.40909000  0.75597100  0.98131200  1
  H  H15  1  0.14245700  0.12441300  0.45013400  1
  S  S0  1  0.79951100  0.89667000  0.73271800  1
  S  S1  1  0.72551800  0.56527500  0.13878100  1
  S  S2  1  0.22551800  0.43472500  0.86121900  1
  S  S3  1  0.29951100  0.10333000  0.26728200  1
  S  S4  1  0.88784300  0.02689600  0.34687000  1
  S  S5  1  0.67013000  0.57826000  0.90022900  1
  S  S6  1  0.17013000  0.42174000  0.09977100  1
  S  S7  1  0.38784300  0.97310400  0.65313000  1
  O  O0  1  0.82126800  0.53381800  0.51900600  1
  O  O1  1  0.68404600  0.01445400  0.05612200  1
  O  O2  1  0.18404600  0.98554600  0.94387800  1
  O  O3  1  0.32126800  0.46618200  0.48099400  1
  O  O4  1  0.69452700  0.09631600  0.31314200  1
  O  O5  1  0.84504900  0.73975900  0.84791600  1
  O  O6  1  0.34504900  0.26024100  0.15208400  1
  O  O7  1  0.19452700  0.90368400  0.68685800  1
  O  O8  1  0.96234200  0.83424500  0.63276600  1
  O  O9  1  0.56497000  0.33129200  0.13668900  1
  O  O10  1  0.06497000  0.66870800  0.86331100  1
  O  O11  1  0.46234200  0.16575500  0.36723400  1
  O  O12  1  0.58862800  0.88988200  0.50658400  1
  O  O13  1  0.89517800  0.37683000  0.99756300  1
  O  O14  1  0.39517800  0.62317000  0.00243700  1
  O  O15  1  0.08862800  0.11011800  0.49341600  1
  O  O16  1  0.79235000  0.42374500  0.64368400  1
  O  O17  1  0.72997200  0.10106200  0.16344000  1
  O  O18  1  0.22997200  0.89893800  0.83656000  1
  O  O19  1  0.29235000  0.57625500  0.35631600  1
  O  O20  1  0.93815900  0.17080800  0.66106200  1
  O  O21  1  0.55134700  0.67176800  0.16093000  1
  O  O22  1  0.05134700  0.32823200  0.83907000  1
  O  O23  1  0.43815900  0.82919200  0.33893800  1
  O  O24  1  0.53022300  0.47038000  0.51404000  1
  O  O25  1  0.96049500  0.98580200  0.99413200  1
  O  O26  1  0.46049500  0.01419800  0.00586800  1
  O  O27  1  0.03022300  0.52962000  0.48596000  1
  O  O28  1  0.48143000  0.99301300  0.70589300  1
  O  O29  1  0.98143000  0.00698700  0.29410700  1
loop_
_geom_bond_atom_site_label_1
_geom_bond_atom_site_label_2
_geom_bond_distance
_geom_bond_site_symmetry_2
Nd0 O16 2.342127 1_555
Nd0 O0 2.367205 1_555
Nd0 O5 2.435076 1_555
Nd0 O20 2.493214 1_555
Nd0 O8 2.509449 1_555
Nd0 O13 2.511342 1_555
Nd0 O27 2.651675 1_655
Nd0 O22 2.681288 1_655
Nd0 O10 2.965817 1_655
Nd1 O21 2.421159 1_555
Nd1 O11 2.436797 1_565
Nd1 O4 2.441204 1_565
Nd1 O12 2.445547 1_555
Nd1 O1 2.481999 1_565
Nd1 O9 2.491478 1_565
Nd1 O26 2.531770 1_565
Nd1 O23 2.550786 1_555
Nd2 O22 2.421159 1_555
Nd2 O8 2.436797 1_445
Nd2 O7 2.441204 1_545
Nd2 O15 2.445547 1_555
Nd2 O2 2.481999 1_545
Nd2 O10 2.491478 1_545
Nd2 O25 2.531770 1_445
Nd2 O20 2.550786 1_455
Nd3 O19 2.342127 1_555
Nd3 O3 2.367205 1_555
Nd3 O6 2.435076 1_555
Nd3 O23 2.493214 1_555
Nd3 O11 2.509449 1_555
Nd3 O14 2.511342 1_555
Nd3 O24 2.651675 1_555
Nd3 O21 2.681288 1_555
Nd3 O9 2.965817 1_555
P0 S4 2.091718 1_565
P0 S0 2.132954 1_555
P1 S5 2.036308 1_554
P1 S1 2.064922 1_555
P2 S6 2.036308 1_556
P2 S2 2.064922 1_555
P3 S7 2.091718 1_545
P3 S3 2.132954 1_555
H0 O12 1.027467 1_555
H0 O28 1.582354 1_555
H1 O13 0.980602 1_554
H2 O14 0.980602 1_556
H3 O15 1.027467 1_555
H3 O29 1.582354 1_455
H4 O27 0.976730 1_555
H5 O26 1.036583 1_556
H5 O28 1.530265 1_545
H6 O25 1.036583 1_554
H6 O29 1.530265 1_565
H7 O24 0.976730 1_555
H8 O24 0.975064 1_555
H9 O25 0.991075 1_555
H10 O26 0.991075 1_555
H11 O27 0.975064 1_555
H12 O12 0.974718 1_555
H13 O13 0.985675 1_554
H14 O14 0.985675 1_556
H15 O15 0.974718 1_555
S1 S5 2.202313 1_554
S2 S6 2.202313 1_556
O0 O16 1.357872 1_555
O1 O17 1.364583 1_555
O5 S0 1.624864 1_555
O6 S3 1.624864 1_555
O8 P0 1.565344 1_555
O9 P1 1.514201 1_555
O10 P2 1.514201 1_555
O11 P3 1.565344 1_555
O17 O4 1.387572 1_555
O18 O2 1.364583 1_555
O18 O7 1.387572 1_555
O19 O3 1.357872 1_555
O20 P0 1.553946 1_545
O21 P1 1.529967 1_555
O22 P2 1.529967 1_555
O23 P3 1.553946 1_565
O28 S7 1.637357 1_555
O29 S4 1.637357 1_555
