# generated using pymatgen
data_LiV3O4
_symmetry_space_group_name_H-M   'P 1'
_cell_length_a   4.18470949
_cell_length_b   7.84225736
_cell_length_c   5.14640190
_cell_angle_alpha   89.66758233
_cell_angle_beta   113.96656798
_cell_angle_gamma   74.55276536
_symmetry_Int_Tables_number   1
_chemical_formula_structural   LiV3O4
_chemical_formula_sum   'Li2 V6 O8'
_cell_volume   147.50475177
_cell_formula_units_Z   2
loop_
 _symmetry_equiv_pos_site_id
 _symmetry_equiv_pos_as_xyz
  1  'x, y, z'
loop_
 _atom_site_type_symbol
 _atom_site_label
 _atom_site_symmetry_multiplicity
 _atom_site_fract_x
 _atom_site_fract_y
 _atom_site_fract_z
 _atom_site_occupancy
  Li  Li0  1  0.00006994  -0.00009906  -0.00004649  1
  Li  Li1  1  0.49995121  0.50008295  0.50003150  1
  V  V0  1  0.74998180  0.75000177  0.24995566  1
  V  V1  1  0.62503178  0.12493975  0.37515724  1
  V  V2  1  0.87497443  0.37505754  0.12487189  1
  V  V3  1  0.25001746  0.25000307  0.75004558  1
  V  V4  1  0.12503873  0.62494669  0.87516088  1
  V  V5  1  0.37494062  0.87506584  0.62480719  1
  O  O0  1  0.49998481  -0.00001470  -0.00002616  1
  O  O1  1  0.00001808  0.50001664  0.50003402  1
  O  O2  1  0.75002472  0.24997858  0.75003599  1
  O  O3  1  0.24997466  0.75002088  0.24996170  1
  O  O4  1  0.62410485  0.62446832  0.87281683  1
  O  O5  1  0.12412042  0.12447573  0.37288430  1
  O  O6  1  0.37590438  0.37554720  0.12721880  1
  O  O7  1  0.87586211  0.87550879  0.62709106  1
loop_
_geom_bond_atom_site_label_1
_geom_bond_atom_site_label_2
_geom_bond_distance
_geom_bond_site_symmetry_2
Li0 O3 2.091688 1_545
Li0 O0 2.092132 1_555
Li0 O0 2.092577 1_455
Li0 O2 2.092739 1_454
Li0 O7 2.094160 1_444
Li0 O5 2.095218 1_555
Li1 O3 2.092180 1_555
Li1 O1 2.092219 1_555
Li1 O1 2.092491 1_655
Li1 O2 2.093089 1_555
Li1 O4 2.093807 1_555
Li1 O6 2.094556 1_555
O0 V0 2.092283 1_545
O0 V3 2.092385 1_554
O0 V5 2.106085 1_544
O0 V1 2.106303 1_555
O1 V0 2.092495 1_455
O1 V3 2.092533 1_555
O1 V4 2.105962 1_555
O1 V2 2.106233 1_455
O2 V3 2.092354 1_555
O2 V3 2.092355 1_655
O2 V2 2.105364 1_556
O2 V1 2.105375 1_555
O3 V0 2.092352 1_455
O3 V0 2.092357 1_555
O3 V4 2.105196 1_554
O3 V5 2.105261 1_555
O4 V5 2.092038 1_555
O4 V4 2.092382 1_555
O4 V4 2.092396 1_655
O4 V2 2.093056 1_556
O4 V0 2.116977 1_556
O5 V2 2.091944 1_455
O5 V1 2.092356 1_455
O5 V1 2.092419 1_555
O5 V5 2.092771 1_545
O5 V3 2.117046 1_555
O6 V1 2.091953 1_555
O6 V2 2.092381 1_555
O6 V2 2.092398 1_455
O6 V4 2.092991 1_554
O6 V3 2.117167 1_554
O7 V4 2.091939 1_655
O7 V5 2.092380 1_655
O7 V5 2.092394 1_555
O7 V1 2.092926 1_565
O7 V0 2.116851 1_555
