# generated using pymatgen
data_MgMnSiO5
_symmetry_space_group_name_H-M   'P 1'
_cell_length_a   5.25349730
_cell_length_b   6.93213075
_cell_length_c   10.09050299
_cell_angle_alpha   73.19151252
_cell_angle_beta   94.44824546
_cell_angle_gamma   75.02720435
_symmetry_Int_Tables_number   1
_chemical_formula_structural   MgMnSiO5
_chemical_formula_sum   'Mg4 Mn4 Si4 O20'
_cell_volume   335.19386906
_cell_formula_units_Z   4
loop_
 _symmetry_equiv_pos_site_id
 _symmetry_equiv_pos_as_xyz
  1  'x, y, z'
loop_
 _atom_site_type_symbol
 _atom_site_label
 _atom_site_symmetry_multiplicity
 _atom_site_fract_x
 _atom_site_fract_y
 _atom_site_fract_z
 _atom_site_occupancy
  Mg  Mg0  1  0.50629900  0.90529800  0.33471800  1
  Mg  Mg1  1  0.00633300  0.40533600  0.83474900  1
  Mg  Mg2  1  0.49652200  0.07916900  0.66507700  1
  Mg  Mg3  1  0.99654700  0.57928500  0.16511100  1
  Mn  Mn0  1  0.00098900  0.99330700  0.50025200  1
  Mn  Mn1  1  0.50034500  0.99362500  0.00022300  1
  Mn  Mn2  1  0.50089200  0.49337100  0.00026200  1
  Mn  Mn3  1  0.00043900  0.49353500  0.50027700  1
  Si  Si0  1  0.48138900  0.58305400  0.66048100  1
  Si  Si1  1  0.98130800  0.08307600  0.16048100  1
  Si  Si2  1  0.51978500  0.40364800  0.34019400  1
  Si  Si3  1  0.01970800  0.90367700  0.84020400  1
  O  O0  1  0.13342600  0.19871500  0.54461900  1
  O  O1  1  0.63340600  0.69875800  0.04460500  1
  O  O2  1  0.86854100  0.78801000  0.45603500  1
  O  O3  1  0.36852900  0.28806000  0.95601900  1
  O  O4  1  0.25731600  0.45459100  0.66300300  1
  O  O5  1  0.75717300  0.95467800  0.16300400  1
  O  O6  1  0.37329100  0.82141300  0.54507000  1
  O  O7  1  0.87326600  0.32143500  0.04507300  1
  O  O8  1  0.74268500  0.53326100  0.33769000  1
  O  O9  1  0.24251200  0.03336700  0.83768500  1
  O  O10  1  0.62897400  0.16544300  0.45561200  1
  O  O11  1  0.12895700  0.66551000  0.95562300  1
  O  O12  1  0.42119800  0.38933700  0.18586600  1
  O  O13  1  0.92127800  0.88927900  0.68587100  1
  O  O14  1  0.73529300  0.04428700  0.86544600  1
  O  O15  1  0.23543700  0.54425200  0.36551300  1
  O  O16  1  0.58076000  0.59766600  0.81459600  1
  O  O17  1  0.08084900  0.09759500  0.31461700  1
  O  O18  1  0.26484600  0.94190100  0.13477400  1
  O  O19  1  0.76497300  0.44186800  0.63483500  1
loop_
_geom_bond_atom_site_label_1
_geom_bond_atom_site_label_2
_geom_bond_distance
_geom_bond_site_symmetry_2
Mg0 O2 2.011132 1_555
Mg0 O18 2.210091 1_555
Mg0 O17 2.246673 1_565
Mg0 O6 2.248964 1_555
Mg0 O5 2.258476 1_555
Mg0 O8 2.547342 1_555
Mg0 O10 2.628012 1_565
Mg1 O3 2.010743 1_555
Mg1 O19 2.209753 1_455
Mg1 O16 2.247200 1_455
Mg1 O7 2.248859 1_456
Mg1 O4 2.259045 1_555
Mg1 O9 2.546797 1_555
Mg1 O11 2.627956 1_555
Mg2 O0 2.010913 1_555
Mg2 O14 2.210620 1_555
Mg2 O13 2.237412 1_545
Mg2 O10 2.240826 1_555
Mg2 O9 2.274795 1_555
Mg2 O4 2.574304 1_555
Mg2 O6 2.608755 1_545
Mg3 O1 2.011305 1_555
Mg3 O15 2.210877 1_655
Mg3 O12 2.237132 1_655
Mg3 O11 2.240908 1_654
Mg3 O8 2.274147 1_555
Mg3 O5 2.574219 1_555
Mg3 O7 2.609634 1_555
Mn0 O2 1.881310 1_455
Mn0 O0 1.882634 1_565
Mn0 O13 1.923546 1_455
Mn0 O17 1.924264 1_565
Mn0 O10 1.947801 1_465
Mn0 O6 1.948528 1_555
Mn1 O3 1.881396 1_564
Mn1 O1 1.884428 1_555
Mn1 O14 1.924704 1_564
Mn1 O18 1.926332 1_555
Mn1 O9 1.949818 1_564
Mn1 O5 1.950083 1_555
Mn2 O3 1.881267 1_554
Mn2 O1 1.882617 1_555
Mn2 O12 1.923384 1_555
Mn2 O16 1.924564 1_554
Mn2 O11 1.947460 1_554
Mn2 O7 1.948925 1_555
Mn3 O2 1.881641 1_455
Mn3 O0 1.884142 1_555
Mn3 O15 1.924862 1_555
Mn3 O19 1.926194 1_455
Mn3 O4 1.949826 1_555
Mn3 O8 1.949972 1_455
O4 Si0 1.647002 1_555
O5 Si1 1.646955 1_565
O6 Si0 1.645776 1_555
O7 Si1 1.645755 1_555
O8 Si2 1.647515 1_555
O9 Si3 1.647458 1_545
O10 Si2 1.645233 1_555
O11 Si3 1.645061 1_555
O12 Si2 1.641310 1_555
O13 Si3 1.641396 1_655
O14 Si3 1.642432 1_645
O15 Si2 1.642453 1_555
O16 Si0 1.641224 1_555
O17 Si1 1.641387 1_455
O18 Si1 1.642357 1_465
O19 Si0 1.642327 1_555
