# generated using pymatgen
data_Li6PClO5
_symmetry_space_group_name_H-M   'P 1'
_cell_length_a   5.89570219
_cell_length_b   5.89570219
_cell_length_c   5.89570290
_cell_angle_alpha   59.99999603
_cell_angle_beta   60.00000397
_cell_angle_gamma   60.00000000
_symmetry_Int_Tables_number   1
_chemical_formula_structural   Li6PClO5
_chemical_formula_sum   'Li6 P1 Cl1 O5'
_cell_volume   144.90776841
_cell_formula_units_Z   1
loop_
 _symmetry_equiv_pos_site_id
 _symmetry_equiv_pos_as_xyz
  1  'x, y, z'
loop_
 _atom_site_type_symbol
 _atom_site_label
 _atom_site_symmetry_multiplicity
 _atom_site_fract_x
 _atom_site_fract_y
 _atom_site_fract_z
 _atom_site_occupancy
  Li  Li0  1  0.98278900  0.51721100  0.98278900  1
  Li  Li1  1  0.51721100  0.98278900  0.98278900  1
  Li  Li2  1  0.51721100  0.51721100  0.98278900  1
  Li  Li3  1  0.51721100  0.98278900  0.51721100  1
  Li  Li4  1  0.98278900  0.98278900  0.51721100  1
  Li  Li5  1  0.98278900  0.51721100  0.51721100  1
  P  P0  1  0.50000000  0.50000000  0.50000000  1
  Cl  Cl0  1  0.00000000  0.00000000  0.00000000  1
  O  O0  1  0.82401200  0.39199600  0.39199600  1
  O  O1  1  0.39199600  0.82401200  0.39199600  1
  O  O2  1  0.39199600  0.39199600  0.39199600  1
  O  O3  1  0.39199600  0.39199600  0.82401200  1
  O  O4  1  0.75000000  0.75000000  0.75000000  1
loop_
_geom_bond_atom_site_label_1
_geom_bond_atom_site_label_2
_geom_bond_distance
_geom_bond_site_symmetry_2
Li0 O4 1.940944 1_555
Li0 O3 1.973159 1_655
Li0 O0 1.973159 1_556
Li1 O4 1.940944 1_555
Li1 O3 1.973159 1_565
Li1 O1 1.973159 1_556
Li2 O4 1.940944 1_555
Li2 O3 1.973159 1_555
Li2 O2 1.973159 1_556
Li3 O4 1.940944 1_555
Li3 O2 1.973159 1_565
Li3 O1 1.973159 1_555
Li4 O4 1.940944 1_555
Li4 O0 1.973159 1_565
Li4 O1 1.973159 1_655
Li5 O4 1.940944 1_555
Li5 O0 1.973159 1_555
Li5 O2 1.973159 1_655
Cl0 Li5 2.951342 1_454
Cl0 Li2 2.951342 1_454
Cl0 Li0 2.951342 1_454
Cl0 Li1 2.951342 1_544
Cl0 Li1 2.951342 1_444
Cl0 Li0 2.951342 1_444
Cl0 Li2 2.951342 1_544
Cl0 Li5 2.951342 1_445
Cl0 Li4 2.951342 1_444
Cl0 Li3 2.951342 1_544
Cl0 Li4 2.951342 1_445
Cl0 Li3 2.951342 1_445
O0 P0 1.559736 1_555
O1 P0 1.559736 1_555
O2 P0 1.559736 1_555
O3 P0 1.559736 1_555
