# generated using pymatgen
data_Li9Mn2Co5O16
_symmetry_space_group_name_H-M   'P 1'
_cell_length_a   2.98226100
_cell_length_b   7.82500479
_cell_length_c   12.58352213
_cell_angle_alpha   89.16570142
_cell_angle_beta   89.71269399
_cell_angle_gamma   81.32106332
_symmetry_Int_Tables_number   1
_chemical_formula_structural   Li9Mn2Co5O16
_chemical_formula_sum   'Li9 Mn2 Co5 O16'
_cell_volume   290.25723879
_cell_formula_units_Z   1
loop_
 _symmetry_equiv_pos_site_id
 _symmetry_equiv_pos_as_xyz
  1  'x, y, z'
loop_
 _atom_site_type_symbol
 _atom_site_label
 _atom_site_symmetry_multiplicity
 _atom_site_fract_x
 _atom_site_fract_y
 _atom_site_fract_z
 _atom_site_occupancy
  Li  Li0  1  0.19782600  0.62189200  0.05804700  1
  Li  Li1  1  0.93943200  0.12532500  0.31307400  1
  Li  Li2  1  0.68700400  0.62451200  0.56550900  1
  Li  Li3  1  0.79550200  0.38128600  0.93250400  1
  Li  Li4  1  0.55492500  0.87729700  0.18795200  1
  Li  Li5  1  0.31460200  0.37522700  0.43878800  1
  Li  Li6  1  0.44825700  0.11343700  0.81146400  1
  Li  Li7  1  0.06590100  0.87149300  0.69491500  1
  Li  Li8  1  0.60940600  0.75850600  0.87021800  1
  Mn  Mn0  1  0.00850900  0.99295000  0.99626300  1
  Mn  Mn1  1  0.12380000  0.74997000  0.37569600  1
  Co  Co0  1  0.75067000  0.49767300  0.24780200  1
  Co  Co1  1  0.49270500  0.00255700  0.50279400  1
  Co  Co2  1  0.24451700  0.51013700  0.75503200  1
  Co  Co3  1  0.38432900  0.24649100  0.12458900  1
  Co  Co4  1  0.87486100  0.25286000  0.62788100  1
  O  O0  1  0.57260100  0.83546500  0.02727700  1
  O  O1  1  0.33538100  0.31962100  0.26938600  1
  O  O2  1  0.07236500  0.82027900  0.52404900  1
  O  O3  1  0.22535000  0.54945900  0.89184100  1
  O  O4  1  0.00141300  0.07248000  0.14749100  1
  O  O5  1  0.76074600  0.56314800  0.39950600  1
  O  O6  1  0.87941300  0.32077800  0.77346400  1
  O  O7  1  0.46272600  0.06718200  0.64958500  1
  O  O8  1  0.74912200  0.42732000  0.09689500  1
  O  O9  1  0.48938900  0.93775000  0.35154400  1
  O  O10  1  0.29381200  0.43436900  0.60823600  1
  O  O11  1  0.43929300  0.16548900  0.97943300  1
  O  O12  1  0.15996400  0.68027200  0.22487600  1
  O  O13  1  0.91118300  0.18743300  0.47826000  1
  O  O14  1  0.02218400  0.94657300  0.85422800  1
  O  O15  1  0.63281100  0.67076700  0.72140100  1
loop_
_geom_bond_atom_site_label_1
_geom_bond_atom_site_label_2
_geom_bond_distance
_geom_bond_site_symmetry_2
Li0 O8 2.119218 1_555
Li0 O12 2.153710 1_555
Li0 O3 2.172772 1_554
Li0 O0 2.175453 1_555
Li0 O8 2.221338 1_455
Li0 O0 2.338270 1_455
Li1 O9 2.083132 1_645
Li1 O1 2.125804 1_655
Li1 O4 2.131849 1_655
Li1 O13 2.139921 1_555
Li1 O9 2.181142 1_545
Li1 O1 2.240076 1_555
Li2 O15 2.001279 1_555
Li2 O10 2.091588 1_555
Li2 O2 2.107517 1_655
Li2 O5 2.152946 1_555
Li2 O10 2.225212 1_655
Li2 O2 2.262226 1_555
Li3 O3 2.029728 1_655
Li3 O3 2.049036 1_555
Li3 O6 2.068514 1_555
Li3 O8 2.105198 1_556
Li3 O11 2.198790 1_555
Li3 O11 2.426985 1_655
Li4 O0 2.052031 1_555
Li4 O9 2.120395 1_555
Li4 O12 2.121764 1_555
Li4 O4 2.131121 1_565
Li4 O4 2.224683 1_665
Li4 O12 2.235305 1_655
Li5 O13 2.088029 1_455
Li5 O5 2.094974 1_455
Li5 O5 2.177070 1_555
Li5 O1 2.180539 1_555
Li5 O13 2.184055 1_555
Li5 O10 2.187068 1_555
Li6 O14 2.020503 1_545
Li6 O14 2.058723 1_645
Li6 O7 2.073197 1_555
Li6 O11 2.157617 1_555
Li6 O6 2.212188 1_455
Li6 O6 2.261669 1_555
Li7 O14 2.095140 1_555
Li7 O7 2.141346 1_565
Li7 O15 2.150694 1_555
Li7 O2 2.192312 1_555
Li7 O15 2.199773 1_455
Li7 O7 2.249330 1_465
Li8 O15 2.001172 1_555
Li8 O14 2.063293 1_655
Li8 O0 2.072007 1_556
Li8 O14 2.119002 1_555
Li8 O3 2.147333 1_555
Li8 O3 2.282388 1_655
Mn0 O14 1.827975 1_555
Mn0 O0 1.955833 1_456
Mn0 O0 1.966693 1_556
Mn0 O11 2.007626 1_565
Mn0 O4 2.009771 1_566
Mn0 O11 2.013193 1_465
Mn1 O2 1.952623 1_555
Mn1 O5 1.964900 1_455
Mn1 O9 1.976693 1_555
Mn1 O12 1.980212 1_555
Mn1 O9 2.232664 1_455
Mn1 O5 2.233835 1_555
Co0 O8 1.985035 1_555
Co0 O5 1.985263 1_555
Co0 O1 2.013749 1_555
Co0 O12 2.031142 1_655
Co0 O1 2.077536 1_655
Co0 O12 2.112256 1_555
Co1 O7 1.920305 1_555
Co1 O9 1.977236 1_545
Co1 O2 2.050000 1_545
Co1 O13 2.067282 1_555
Co1 O2 2.084163 1_645
Co1 O13 2.104982 1_455
Co2 O3 1.752362 1_555
Co2 O15 1.875842 1_555
Co2 O10 1.946324 1_555
Co2 O6 1.977185 1_455
Co2 O15 2.094556 1_455
Co2 O6 2.232059 1_555
Co3 O1 1.916023 1_555
Co3 O4 1.922423 1_555
Co3 O8 1.937419 1_555
Co3 O11 1.940194 1_554
Co3 O4 2.135762 1_655
Co3 O8 2.212580 1_455
Co4 O6 1.915579 1_555
Co4 O13 1.956506 1_555
Co4 O10 2.040018 1_655
Co4 O7 2.054335 1_555
Co4 O10 2.081448 1_555
Co4 O7 2.117475 1_655
