# generated using pymatgen
data_U2PSe2
_symmetry_space_group_name_H-M   'P 1'
_cell_length_a   5.39892400
_cell_length_b   5.39892400
_cell_length_c   30.52402000
_cell_angle_alpha   90.00000000
_cell_angle_beta   90.00000000
_cell_angle_gamma   90.00000000
_symmetry_Int_Tables_number   1
_chemical_formula_structural   U2PSe2
_chemical_formula_sum   'U16 P8 Se16'
_cell_volume   889.72574501
_cell_formula_units_Z   8
loop_
 _symmetry_equiv_pos_site_id
 _symmetry_equiv_pos_as_xyz
  1  'x, y, z'
loop_
 _atom_site_type_symbol
 _atom_site_label
 _atom_site_symmetry_multiplicity
 _atom_site_fract_x
 _atom_site_fract_y
 _atom_site_fract_z
 _atom_site_occupancy
  U  U0_0  1  0.25000000  0.25000000  0.08964150  1
  U  U0_1  1  0.25000000  0.25000000  0.58964150  1
  U  U0_2  1  0.25000000  0.75000000  0.08964150  1
  U  U0_3  1  0.25000000  0.75000000  0.58964150  1
  U  U0_4  1  0.75000000  0.25000000  0.08964150  1
  U  U0_5  1  0.75000000  0.25000000  0.58964150  1
  U  U0_6  1  0.75000000  0.75000000  0.08964150  1
  U  U0_7  1  0.75000000  0.75000000  0.58964150  1
  U  U1_0  1  0.25000000  0.25000000  0.41035850  1
  U  U1_1  1  0.25000000  0.25000000  0.91035850  1
  U  U1_2  1  0.25000000  0.75000000  0.41035850  1
  U  U1_3  1  0.25000000  0.75000000  0.91035850  1
  U  U1_4  1  0.75000000  0.25000000  0.41035850  1
  U  U1_5  1  0.75000000  0.25000000  0.91035850  1
  U  U1_6  1  0.75000000  0.75000000  0.41035850  1
  U  U1_7  1  0.75000000  0.75000000  0.91035850  1
  P  P0_0  1  0.25000000  0.25000000  0.00000000  1
  P  P0_1  1  0.25000000  0.25000000  0.50000000  1
  P  P0_2  1  0.25000000  0.75000000  0.00000000  1
  P  P0_3  1  0.25000000  0.75000000  0.50000000  1
  P  P0_4  1  0.75000000  0.25000000  0.00000000  1
  P  P0_5  1  0.75000000  0.25000000  0.50000000  1
  P  P0_6  1  0.75000000  0.75000000  0.00000000  1
  P  P0_7  1  0.75000000  0.75000000  0.50000000  1
  Se  Se0_0  1  0.25000000  0.25000000  0.31462350  1
  Se  Se0_1  1  0.25000000  0.25000000  0.81462350  1
  Se  Se0_2  1  0.25000000  0.75000000  0.31462350  1
  Se  Se0_3  1  0.25000000  0.75000000  0.81462350  1
  Se  Se0_4  1  0.75000000  0.25000000  0.31462350  1
  Se  Se0_5  1  0.75000000  0.25000000  0.81462350  1
  Se  Se0_6  1  0.75000000  0.75000000  0.31462350  1
  Se  Se0_7  1  0.75000000  0.75000000  0.81462350  1
  Se  Se1_0  1  0.25000000  0.25000000  0.18537650  1
  Se  Se1_1  1  0.25000000  0.25000000  0.68537650  1
  Se  Se1_2  1  0.25000000  0.75000000  0.18537650  1
  Se  Se1_3  1  0.25000000  0.75000000  0.68537650  1
  Se  Se1_4  1  0.75000000  0.25000000  0.18537650  1
  Se  Se1_5  1  0.75000000  0.25000000  0.68537650  1
  Se  Se1_6  1  0.75000000  0.75000000  0.18537650  1
  Se  Se1_7  1  0.75000000  0.75000000  0.68537650  1
loop_
_geom_bond_atom_site_label_1
_geom_bond_atom_site_label_2
_geom_bond_distance
_geom_bond_site_symmetry_2
U0_0 U0_2 2.699462 1_545
U0_0 U0_4 2.699462 1_555
U0_0 U0_2 2.699462 1_555
U0_0 U0_4 2.699462 1_455
U0_1 U0_5 2.699462 1_455
U0_1 U0_3 2.699462 1_545
U0_1 U0_5 2.699462 1_555
U0_1 U0_3 2.699462 1_555
U0_2 U0_6 2.699462 1_555
U0_2 U0_6 2.699462 1_455
U0_3 U0_7 2.699462 1_455
U0_3 U0_7 2.699462 1_555
U0_4 U0_6 2.699462 1_555
U0_4 U0_6 2.699462 1_545
U0_5 U0_7 2.699462 1_545
U0_5 U0_7 2.699462 1_555
U1_0 U1_4 2.699462 1_455
U1_0 U1_4 2.699462 1_555
U1_0 U1_2 2.699462 1_555
U1_0 U1_2 2.699462 1_545
U1_1 U1_5 2.699462 1_555
U1_1 U1_3 2.699462 1_545
U1_1 U1_3 2.699462 1_555
U1_1 U1_5 2.699462 1_455
U1_2 U1_6 2.699462 1_455
U1_2 U1_6 2.699462 1_555
U1_3 U1_7 2.699462 1_455
U1_3 U1_7 2.699462 1_555
U1_4 U1_6 2.699462 1_545
U1_4 U1_6 2.699462 1_555
U1_5 U1_7 2.699462 1_555
U1_5 U1_7 2.699462 1_545
P0_0 U0_0 2.736219 1_555
P0_0 U1_1 2.736219 1_554
P0_1 U0_1 2.736219 1_555
P0_1 U1_0 2.736219 1_555
P0_2 U0_2 2.736219 1_555
P0_2 U1_3 2.736219 1_554
P0_3 U0_3 2.736219 1_555
P0_3 U1_2 2.736219 1_555
P0_4 U0_4 2.736219 1_555
P0_4 U1_5 2.736219 1_554
P0_5 U0_5 2.736219 1_555
P0_5 U1_4 2.736219 1_555
P0_6 U0_6 2.736219 1_555
P0_6 U1_7 2.736219 1_554
P0_7 U0_7 2.736219 1_555
P0_7 U1_6 2.736219 1_555
Se0_0 Se0_4 2.699462 1_555
Se0_0 Se0_4 2.699462 1_455
Se0_0 Se0_2 2.699462 1_545
Se0_0 Se0_2 2.699462 1_555
Se0_0 U1_0 2.922217 1_555
Se0_1 Se0_3 2.699462 1_545
Se0_1 Se0_5 2.699462 1_455
Se0_1 Se0_5 2.699462 1_555
Se0_1 Se0_3 2.699462 1_555
Se0_1 U1_1 2.922217 1_555
Se0_2 Se0_6 2.699462 1_555
Se0_2 Se0_6 2.699462 1_455
Se0_2 U1_2 2.922217 1_555
Se0_3 Se0_7 2.699462 1_455
Se0_3 Se0_7 2.699462 1_555
Se0_3 U1_3 2.922217 1_555
Se0_4 Se0_6 2.699462 1_545
Se0_4 Se0_6 2.699462 1_555
Se0_4 U1_4 2.922217 1_555
Se0_5 Se0_7 2.699462 1_545
Se0_5 Se0_7 2.699462 1_555
Se0_5 U1_5 2.922217 1_555
Se0_6 U1_6 2.922217 1_555
Se0_7 U1_7 2.922217 1_555
Se1_0 Se1_4 2.699462 1_455
Se1_0 Se1_2 2.699462 1_555
Se1_0 Se1_2 2.699462 1_545
Se1_0 Se1_4 2.699462 1_555
Se1_0 U0_0 2.922217 1_555
Se1_1 Se1_5 2.699462 1_555
Se1_1 Se1_3 2.699462 1_555
Se1_1 Se1_3 2.699462 1_545
Se1_1 Se1_5 2.699462 1_455
Se1_1 U0_1 2.922217 1_555
Se1_2 Se1_6 2.699462 1_455
Se1_2 Se1_6 2.699462 1_555
Se1_2 U0_2 2.922217 1_555
Se1_3 Se1_7 2.699462 1_455
Se1_3 Se1_7 2.699462 1_555
Se1_3 U0_3 2.922217 1_555
Se1_4 Se1_6 2.699462 1_555
Se1_4 Se1_6 2.699462 1_545
Se1_4 U0_4 2.922217 1_555
Se1_5 Se1_7 2.699462 1_545
Se1_5 Se1_7 2.699462 1_555
Se1_5 U0_5 2.922217 1_555
Se1_6 U0_6 2.922217 1_555
Se1_7 U0_7 2.922217 1_555
