# generated using pymatgen
data_Sr(MgIn)2
_symmetry_space_group_name_H-M   'P 1'
_cell_length_a   7.19093124
_cell_length_b   7.19093124
_cell_length_c   7.19093124
_cell_angle_alpha   141.92183580
_cell_angle_beta   141.92183580
_cell_angle_gamma   54.94655794
_symmetry_Int_Tables_number   1
_chemical_formula_structural   Sr(MgIn)2
_chemical_formula_sum   'Sr1 Mg2 In2'
_cell_volume   140.42754433
_cell_formula_units_Z   1
loop_
 _symmetry_equiv_pos_site_id
 _symmetry_equiv_pos_as_xyz
  1  'x, y, z'
loop_
 _atom_site_type_symbol
 _atom_site_label
 _atom_site_symmetry_multiplicity
 _atom_site_fract_x
 _atom_site_fract_y
 _atom_site_fract_z
 _atom_site_occupancy
  Sr  Sr0  1  0.00000000  0.00000000  -0.00000000  1
  Mg  Mg0  1  0.75000000  0.25000000  0.50000000  1
  Mg  Mg1  1  0.25000000  0.75000000  0.50000000  1
  In  In0  1  0.38929086  0.38929086  -0.00000000  1
  In  In1  1  0.61070914  0.61070914  0.00000000  1
loop_
_geom_bond_atom_site_label_1
_geom_bond_atom_site_label_2
_geom_bond_distance
_geom_bond_site_symmetry_2
Mg0 Mg1 3.317427 1_645
Mg0 Mg1 3.317427 1_544
Mg0 Mg1 3.317427 1_656
Mg0 Mg1 3.317427 1_555
Mg0 Sr0 3.959634 1_656
Mg0 Sr0 3.959634 1_666
Mg0 Sr0 3.959634 1_655
Mg0 Sr0 3.959634 1_555
Mg1 Sr0 3.959634 1_566
Mg1 Sr0 3.959634 1_565
Mg1 Sr0 3.959634 1_555
Mg1 Sr0 3.959634 1_666
In0 In1 2.825289 1_555
In0 Mg0 2.943063 1_454
In0 Mg0 2.943063 1_555
In0 Mg1 2.943063 1_544
In0 Mg1 2.943063 1_555
In0 Sr0 3.605675 1_554
In0 Sr0 3.605675 1_565
In0 Sr0 3.605675 1_666
In0 Sr0 3.605675 1_655
In1 Mg1 2.943063 1_655
In1 Mg1 2.943063 1_554
In1 Mg0 2.943063 1_565
In1 Mg0 2.943063 1_554
In1 Sr0 3.605675 1_554
In1 Sr0 3.605675 1_565
In1 Sr0 3.605675 1_666
In1 Sr0 3.605675 1_655
