# generated using pymatgen
data_K7TaAs4
_symmetry_space_group_name_H-M   'P 1'
_cell_length_a   8.33944252
_cell_length_b   9.13630318
_cell_length_c   10.25743429
_cell_angle_alpha   90.00000000
_cell_angle_beta   90.00000000
_cell_angle_gamma   90.00000000
_symmetry_Int_Tables_number   1
_chemical_formula_structural   K7TaAs4
_chemical_formula_sum   'K14 Ta2 As8'
_cell_volume   781.53110196
_cell_formula_units_Z   2
loop_
 _symmetry_equiv_pos_site_id
 _symmetry_equiv_pos_as_xyz
  1  'x, y, z'
loop_
 _atom_site_type_symbol
 _atom_site_label
 _atom_site_symmetry_multiplicity
 _atom_site_fract_x
 _atom_site_fract_y
 _atom_site_fract_z
 _atom_site_occupancy
  K  K0  1  0.70850227  0.83537872  0.71658144  1
  K  K1  1  0.20850227  0.16462128  0.78341856  1
  K  K2  1  0.20850227  0.16462128  0.21658144  1
  K  K3  1  0.70850227  0.83537872  0.28341856  1
  K  K4  1  0.87288427  0.46720915  0.71076648  1
  K  K5  1  0.37288427  0.53279085  0.78923352  1
  K  K6  1  0.37288427  0.53279085  0.21076648  1
  K  K7  1  0.87288427  0.46720915  0.28923352  1
  K  K8  1  0.16309853  0.66109075  0.50000000  1
  K  K9  1  0.66309853  0.33890925  0.00000000  1
  K  K10  1  0.87508507  0.03931885  0.00000000  1
  K  K11  1  0.37508507  0.96068115  0.50000000  1
  K  K12  1  0.39208468  0.89763558  0.00000000  1
  K  K13  1  0.89208468  0.10236442  0.50000000  1
  Ta  Ta0  1  0.99865351  0.67439804  0.00000000  1
  Ta  Ta1  1  0.49865351  0.32560196  0.50000000  1
  As  As0  1  0.70116201  0.68375345  0.00000000  1
  As  As1  1  0.20116201  0.31624655  0.50000000  1
  As  As2  1  0.09381718  0.80671502  0.79776344  1
  As  As3  1  0.59381718  0.19328498  0.70223656  1
  As  As4  1  0.59381718  0.19328498  0.29776344  1
  As  As5  1  0.09381718  0.80671502  0.20223656  1
  As  As6  1  0.57785975  0.58975404  0.50000000  1
  As  As7  1  0.07785975  0.41024596  0.00000000  1
loop_
_geom_bond_atom_site_label_1
_geom_bond_atom_site_label_2
_geom_bond_distance
_geom_bond_site_symmetry_2
K10 K9 3.258416 1_555
K10 Ta0 3.489649 1_545
K11 K8 3.258416 1_555
K11 Ta1 3.489649 1_565
As0 Ta0 2.482385 1_555
As0 K9 3.166551 1_555
As0 K3 3.220915 1_555
As0 K0 3.220915 1_554
As0 K12 3.234525 1_555
As0 K10 3.557643 1_565
As0 K5 3.751128 1_554
As0 K6 3.751128 1_555
As1 Ta1 2.482385 1_555
As1 K8 3.166551 1_555
As1 K2 3.220915 1_555
As1 K1 3.220915 1_555
As1 K13 3.234525 1_455
As1 K11 3.557643 1_545
As1 K7 3.751128 1_455
As1 K4 3.751128 1_455
As2 Ta0 2.528731 1_456
As2 K0 3.329771 1_455
As2 K12 3.343705 1_556
As2 K8 3.381219 1_555
As2 K1 3.410114 1_565
As2 K5 3.418639 1_555
As2 K10 3.485229 1_466
As2 K4 3.716491 1_455
As3 Ta1 2.528731 1_555
As3 K1 3.329771 1_555
As3 K13 3.343705 1_555
As3 K9 3.381219 1_556
As3 K0 3.410114 1_545
As3 K4 3.418639 1_555
As3 K11 3.485229 1_545
As3 K5 3.716491 1_555
As4 Ta1 2.528731 1_555
As4 K2 3.329771 1_555
As4 K13 3.343705 1_555
As4 K9 3.381219 1_555
As4 K3 3.410114 1_545
As4 K7 3.418639 1_555
As4 K11 3.485229 1_545
As4 K6 3.716491 1_555
As5 Ta0 2.528731 1_455
As5 K3 3.329771 1_455
As5 K12 3.343705 1_555
As5 K8 3.381219 1_555
As5 K2 3.410114 1_565
As5 K6 3.418639 1_555
As5 K10 3.485229 1_465
As5 K7 3.716491 1_455
As6 Ta1 2.502135 1_555
As6 K3 3.340411 1_555
As6 K0 3.340411 1_555
As6 K4 3.461316 1_555
As6 K7 3.461316 1_555
As6 K6 3.463337 1_555
As6 K5 3.463337 1_555
As6 K8 3.519747 1_555
As6 K11 3.787378 1_555
As7 Ta0 2.502135 1_455
As7 K1 3.340411 1_554
As7 K2 3.340411 1_555
As7 K5 3.461316 1_554
As7 K6 3.461316 1_555
As7 K7 3.463337 1_455
As7 K4 3.463337 1_454
As7 K9 3.519747 1_455
As7 K10 3.787378 1_455
