# generated using pymatgen
data_PrTmS3
_symmetry_space_group_name_H-M   'P 1'
_cell_length_a   3.95716548
_cell_length_b   11.01907461
_cell_length_c   21.48260067
_cell_angle_alpha   78.57751572
_cell_angle_beta   90.00000000
_cell_angle_gamma   90.00000000
_symmetry_Int_Tables_number   1
_chemical_formula_structural   PrTmS3
_chemical_formula_sum   'Pr8 Tm8 S24'
_cell_volume   918.18041371
_cell_formula_units_Z   8
loop_
 _symmetry_equiv_pos_site_id
 _symmetry_equiv_pos_as_xyz
  1  'x, y, z'
loop_
 _atom_site_type_symbol
 _atom_site_label
 _atom_site_symmetry_multiplicity
 _atom_site_fract_x
 _atom_site_fract_y
 _atom_site_fract_z
 _atom_site_occupancy
  Pr  Pr0  1  0.25000000  0.30278378  0.76563527  1
  Pr  Pr1  1  0.75000000  0.69721622  0.23436473  1
  Pr  Pr2  1  0.25000000  0.90903475  0.86401851  1
  Pr  Pr3  1  0.75000000  0.09096525  0.13598149  1
  Pr  Pr4  1  0.25000000  0.69133699  0.73327815  1
  Pr  Pr5  1  0.75000000  0.30866301  0.26672185  1
  Pr  Pr6  1  0.25000000  0.79856693  0.53655006  1
  Pr  Pr7  1  0.75000000  0.20143307  0.46344994  1
  Tm  Tm0  1  0.25000000  0.55311133  0.41664530  1
  Tm  Tm1  1  0.75000000  0.44688867  0.58335470  1
  Tm  Tm2  1  0.25000000  0.97059694  0.35091397  1
  Tm  Tm3  1  0.75000000  0.02940306  0.64908603  1
  Tm  Tm4  1  0.25000000  0.81937151  0.04624955  1
  Tm  Tm5  1  0.75000000  0.18062849  0.95375045  1
  Tm  Tm6  1  0.25000000  0.47813485  0.08717144  1
  Tm  Tm7  1  0.75000000  0.52186515  0.91282856  1
  S  S0  1  0.25000000  0.08594893  0.03585537  1
  S  S1  1  0.75000000  0.91405107  0.96414463  1
  S  S2  1  0.25000000  0.20411799  0.36511686  1
  S  S3  1  0.75000000  0.79588201  0.63488314  1
  S  S4  1  0.25000000  0.74614794  0.32485980  1
  S  S5  1  0.75000000  0.25385206  0.67514020  1
  S  S6  1  0.25000000  0.63501184  0.96428093  1
  S  S7  1  0.75000000  0.36498816  0.03571907  1
  S  S8  1  0.25000000  0.50642764  0.21964405  1
  S  S9  1  0.75000000  0.49357236  0.78035595  1
  S  S10  1  0.25000000  0.25332281  0.17278765  1
  S  S11  1  0.75000000  0.74667719  0.82721235  1
  S  S12  1  0.25000000  0.87455148  0.16269542  1
  S  S13  1  0.75000000  0.12544852  0.83730458  1
  S  S14  1  0.25000000  0.35744775  0.51393421  1
  S  S15  1  0.75000000  0.64255225  0.48606579  1
  S  S16  1  0.25000000  0.05796578  0.55611164  1
  S  S17  1  0.75000000  0.94203422  0.44388836  1
  S  S18  1  0.25000000  0.96363043  0.72898368  1
  S  S19  1  0.75000000  0.03636957  0.27101632  1
  S  S20  1  0.25000000  0.54530808  0.63420023  1
  S  S21  1  0.75000000  0.45469192  0.36579977  1
  S  S22  1  0.25000000  0.34199152  0.90161023  1
  S  S23  1  0.75000000  0.65800848  0.09838977  1
loop_
_geom_bond_atom_site_label_1
_geom_bond_atom_site_label_2
_geom_bond_distance
_geom_bond_site_symmetry_2
Pr0 S5 2.898291 1_455
Pr0 S5 2.898291 1_555
Pr0 S9 2.949211 1_555
Pr0 S9 2.949211 1_455
Pr0 S13 2.985303 1_455
Pr0 S13 2.985303 1_555
Pr0 S22 3.036332 1_555
Pr0 S20 3.482168 1_555
Pr1 S4 2.898291 1_555
Pr1 S4 2.898291 1_655
Pr1 S8 2.949211 1_655
Pr1 S8 2.949211 1_555
Pr1 S12 2.985303 1_555
Pr1 S12 2.985303 1_655
Pr1 S23 3.036332 1_555
Pr1 S21 3.482168 1_555
Pr2 S18 2.843572 1_555
Pr2 S11 2.881128 1_555
Pr2 S11 2.881128 1_455
Pr2 S1 2.931144 1_455
Pr2 S1 2.931144 1_555
Pr2 S13 3.064111 1_465
Pr2 S13 3.064111 1_565
Pr2 S6 3.343731 1_555
Pr3 S19 2.843572 1_555
Pr3 S10 2.881128 1_655
Pr3 S10 2.881128 1_555
Pr3 S0 2.931144 1_655
Pr3 S0 2.931144 1_555
Pr3 S12 3.064111 1_545
Pr3 S12 3.064111 1_645
Pr3 S7 3.343731 1_555
Pr4 S20 2.911369 1_555
Pr4 S3 2.957271 1_455
Pr4 S3 2.957271 1_555
Pr4 S9 2.968758 1_555
Pr4 S9 2.968758 1_455
Pr4 S11 2.974251 1_455
Pr4 S11 2.974251 1_555
Pr4 S18 2.983522 1_555
Pr5 S21 2.911369 1_555
Pr5 S2 2.957271 1_555
Pr5 S2 2.957271 1_655
Pr5 S8 2.968758 1_655
Pr5 S8 2.968758 1_555
Pr5 S10 2.974251 1_555
Pr5 S10 2.974251 1_655
Pr5 S19 2.983522 1_555
Pr6 S3 2.890217 1_455
Pr6 S3 2.890217 1_555
Pr6 S15 2.963936 1_455
Pr6 S15 2.963936 1_555
Pr6 S16 2.970259 1_565
Pr6 S17 3.021599 1_455
Pr6 S17 3.021599 1_555
Pr6 S20 3.141623 1_555
Pr7 S2 2.890217 1_555
Pr7 S2 2.890217 1_655
Pr7 S14 2.963936 1_555
Pr7 S14 2.963936 1_655
Pr7 S17 2.970259 1_545
Pr7 S16 3.021599 1_555
Pr7 S16 3.021599 1_655
Pr7 S21 3.141623 1_555
S0 Tm5 2.717619 1_554
S0 Tm5 2.717619 1_454
S0 Tm4 2.901482 1_545
S1 Tm4 2.717619 1_656
S1 Tm4 2.717619 1_556
S1 Tm5 2.901482 1_565
S2 Tm2 2.650538 1_545
S3 Tm3 2.650538 1_565
S4 Tm0 2.598309 1_555
S4 Tm2 2.641664 1_555
S5 Tm1 2.598309 1_555
S5 Tm3 2.641664 1_555
S6 Tm7 2.690135 1_555
S6 Tm7 2.690135 1_455
S6 Tm6 2.854866 1_556
S6 Tm4 2.940158 1_556
S7 Tm6 2.690135 1_555
S7 Tm6 2.690135 1_655
S7 Tm7 2.854866 1_554
S7 Tm5 2.940158 1_554
S8 Tm6 2.923612 1_555
S9 Tm7 2.923612 1_555
S10 Tm6 2.777560 1_555
S11 Tm7 2.777560 1_555
S12 Tm4 2.688859 1_555
S13 Tm5 2.688859 1_555
S14 Tm0 2.689208 1_555
S14 Tm1 2.773508 1_455
S14 Tm1 2.773508 1_555
S15 Tm1 2.689208 1_555
S15 Tm0 2.773508 1_655
S15 Tm0 2.773508 1_555
S16 Tm3 2.784635 1_555
S16 Tm3 2.784635 1_455
S17 Tm2 2.784635 1_655
S17 Tm2 2.784635 1_555
S18 Tm3 2.625529 1_565
S18 Tm3 2.625529 1_465
S19 Tm2 2.625529 1_545
S19 Tm2 2.625529 1_645
S20 Tm1 2.598694 1_555
S20 Tm1 2.598694 1_455
S21 Tm0 2.598694 1_655
S21 Tm0 2.598694 1_555
S22 Tm5 2.746291 1_555
S22 Tm5 2.746291 1_455
S22 Tm7 2.844390 1_555
S22 Tm7 2.844390 1_455
S23 Tm4 2.746291 1_555
S23 Tm4 2.746291 1_655
S23 Tm6 2.844390 1_555
S23 Tm6 2.844390 1_655
