# generated using pymatgen
data_TbCo3
_symmetry_space_group_name_H-M   'P 1'
_cell_length_a   8.62604117
_cell_length_b   8.62604117
_cell_length_c   8.62604188
_cell_angle_alpha   33.51893290
_cell_angle_beta   33.51893290
_cell_angle_gamma   33.51893885
_symmetry_Int_Tables_number   1
_chemical_formula_structural   TbCo3
_chemical_formula_sum   'Tb3 Co9'
_cell_volume   174.32620454
_cell_formula_units_Z   3
loop_
 _symmetry_equiv_pos_site_id
 _symmetry_equiv_pos_as_xyz
  1  'x, y, z'
loop_
 _atom_site_type_symbol
 _atom_site_label
 _atom_site_symmetry_multiplicity
 _atom_site_fract_x
 _atom_site_fract_y
 _atom_site_fract_z
 _atom_site_occupancy
  Tb  Tb0  1  0.86033300  0.86033300  0.86033300  1
  Tb  Tb1  1  0.13966700  0.13966700  0.13966700  1
  Tb  Tb2  1  0.00000000  0.00000000  0.00000000  1
  Co  Co0  1  0.41967100  0.91852400  0.41967100  1
  Co  Co1  1  0.41967100  0.41967100  0.91852400  1
  Co  Co2  1  0.91852400  0.41967100  0.41967100  1
  Co  Co3  1  0.58032900  0.08147600  0.58032900  1
  Co  Co4  1  0.58032900  0.58032900  0.08147600  1
  Co  Co5  1  0.08147600  0.58032900  0.58032900  1
  Co  Co6  1  0.66670100  0.66670100  0.66670100  1
  Co  Co7  1  0.33329900  0.33329900  0.33329900  1
  Co  Co8  1  0.50000000  0.50000000  0.50000000  1
loop_
_geom_bond_atom_site_label_1
_geom_bond_atom_site_label_2
_geom_bond_distance
_geom_bond_site_symmetry_2
Co0 Co6 2.436188 1_555
Co0 Co7 2.438716 1_565
Co0 Co1 2.481652 1_555
Co0 Co2 2.481652 1_555
Co0 Co1 2.493064 1_564
Co0 Co2 2.493064 1_465
Co0 Co8 2.540103 1_555
Co0 Tb0 2.873421 1_455
Co0 Tb0 2.873422 1_554
Co0 Tb1 3.109474 1_565
Co0 Tb2 3.172665 1_665
Co0 Tb2 3.172666 1_566
Co1 Co6 2.436188 1_555
Co1 Co7 2.438716 1_556
Co1 Co2 2.481652 1_555
Co1 Co2 2.493064 1_456
Co1 Co8 2.540103 1_555
Co1 Tb0 2.873422 1_545
Co1 Tb0 2.873422 1_455
Co1 Tb1 3.109474 1_556
Co1 Tb2 3.172666 1_566
Co1 Tb2 3.172666 1_656
Co2 Co6 2.436188 1_555
Co2 Co7 2.438716 1_655
Co2 Co8 2.540103 1_555
Co2 Tb0 2.873421 1_545
Co2 Tb0 2.873422 1_554
Co2 Tb1 3.109474 1_655
Co2 Tb2 3.172665 1_665
Co2 Tb2 3.172666 1_656
Co3 Co7 2.436188 1_555
Co3 Co6 2.438716 1_545
Co3 Co4 2.481652 1_555
Co3 Co5 2.481652 1_555
Co3 Co4 2.493064 1_546
Co3 Co5 2.493064 1_645
Co3 Co8 2.540103 1_555
Co3 Tb1 2.873421 1_655
Co3 Tb1 2.873422 1_556
Co3 Tb0 3.109474 1_545
Co3 Tb2 3.172665 1_556
Co3 Tb2 3.172666 1_655
Co4 Co7 2.436188 1_555
Co4 Co6 2.438716 1_554
Co4 Co5 2.481652 1_555
Co4 Co5 2.493064 1_654
Co4 Co8 2.540103 1_555
Co4 Tb1 2.873422 1_655
Co4 Tb1 2.873422 1_565
Co4 Tb0 3.109474 1_554
Co4 Tb2 3.172666 1_565
Co4 Tb2 3.172666 1_655
Co5 Co7 2.436188 1_555
Co5 Co6 2.438716 1_455
Co5 Co8 2.540103 1_555
Co5 Tb1 2.873421 1_565
Co5 Tb1 2.873422 1_556
Co5 Tb0 3.109474 1_455
Co5 Tb2 3.172665 1_556
Co5 Tb2 3.172666 1_565
Co6 Tb2 2.872153 1_665
Co6 Tb2 2.872154 1_566
Co6 Tb2 2.872154 1_656
Co7 Tb2 2.872153 1_556
Co7 Tb2 2.872154 1_565
Co7 Tb2 2.872154 1_655
Co8 Tb0 2.946748 1_554
Co8 Tb1 2.946748 1_556
Co8 Tb0 2.946748 1_545
Co8 Tb0 2.946748 1_455
Co8 Tb1 2.946748 1_565
Co8 Tb1 2.946748 1_655
