# generated using pymatgen
data_Yb3Dy
_symmetry_space_group_name_H-M   'P 1'
_cell_length_a   7.51509732
_cell_length_b   7.51509732
_cell_length_c   6.05365500
_cell_angle_alpha   90.00000000
_cell_angle_beta   90.00000000
_cell_angle_gamma   119.99999405
_symmetry_Int_Tables_number   1
_chemical_formula_structural   Yb3Dy
_chemical_formula_sum   'Yb6 Dy2'
_cell_volume   296.08577514
_cell_formula_units_Z   2
loop_
 _symmetry_equiv_pos_site_id
 _symmetry_equiv_pos_as_xyz
  1  'x, y, z'
loop_
 _atom_site_type_symbol
 _atom_site_label
 _atom_site_symmetry_multiplicity
 _atom_site_fract_x
 _atom_site_fract_y
 _atom_site_fract_z
 _atom_site_occupancy
  Yb  Yb0  1  0.17069400  0.34138700  0.25000000  1
  Yb  Yb1  1  0.65861300  0.82930600  0.25000000  1
  Yb  Yb2  1  0.17069400  0.82930600  0.25000000  1
  Yb  Yb3  1  0.82930600  0.65861300  0.75000000  1
  Yb  Yb4  1  0.34138700  0.17069400  0.75000000  1
  Yb  Yb5  1  0.82930600  0.17069400  0.75000000  1
  Dy  Dy0  1  0.33333300  0.66666700  0.75000000  1
  Dy  Dy1  1  0.66666700  0.33333300  0.25000000  1
loop_
_geom_bond_atom_site_label_1
_geom_bond_atom_site_label_2
_geom_bond_distance
_geom_bond_site_symmetry_2
Yb0 Yb2 3.666759 1_555
Yb0 Yb1 3.666759 1_555
Yb0 Yb4 3.754759 1_555
Yb0 Yb4 3.754759 1_554
Yb0 Yb5 3.754767 1_455
Yb0 Yb5 3.754767 1_454
Yb0 Yb2 3.848339 1_545
Yb0 Yb1 3.848339 1_445
Yb1 Yb2 3.666759 1_555
Yb1 Yb3 3.754759 1_554
Yb1 Yb3 3.754759 1_555
Yb1 Yb5 3.754767 1_564
Yb1 Yb5 3.754767 1_565
Yb1 Yb2 3.848339 1_655
Yb2 Yb3 3.754767 1_455
Yb2 Yb3 3.754767 1_454
Yb2 Yb4 3.754767 1_564
Yb2 Yb4 3.754767 1_565
Yb3 Yb5 3.666759 1_555
Yb3 Yb4 3.666759 1_555
Yb3 Yb5 3.848339 1_565
Yb3 Yb4 3.848339 1_665
Yb4 Yb5 3.666759 1_555
Yb4 Yb5 3.848339 1_455
Dy0 Yb2 3.693691 1_556
Dy0 Yb2 3.693691 1_555
Dy0 Yb0 3.693699 1_555
Dy0 Yb0 3.693699 1_556
Dy0 Yb1 3.693699 1_556
Dy0 Yb1 3.693699 1_555
Dy0 Yb3 3.757914 1_555
Dy0 Yb4 3.757914 1_555
Dy0 Yb3 3.757914 1_455
Dy0 Yb4 3.757914 1_565
Dy0 Yb5 3.757915 1_455
Dy0 Yb5 3.757915 1_565
Dy1 Yb5 3.693691 1_554
Dy1 Yb5 3.693691 1_555
Dy1 Yb3 3.693699 1_554
Dy1 Yb3 3.693699 1_555
Dy1 Yb4 3.693699 1_554
Dy1 Yb4 3.693699 1_555
Dy1 Yb0 3.757914 1_555
Dy1 Yb1 3.757914 1_555
Dy1 Yb1 3.757914 1_545
Dy1 Yb0 3.757914 1_655
Dy1 Yb2 3.757915 1_545
Dy1 Yb2 3.757915 1_655
