# generated using pymatgen
data_ErAlB14
_symmetry_space_group_name_H-M   'P 1'
_cell_length_a   7.28021923
_cell_length_b   7.28021923
_cell_length_c   7.28021923
_cell_angle_alpha   132.09353912
_cell_angle_beta   111.16603385
_cell_angle_gamma   88.19977110
_symmetry_Int_Tables_number   1
_chemical_formula_structural   ErAlB14
_chemical_formula_sum   'Er2 Al2 B28'
_cell_volume   254.34444187
_cell_formula_units_Z   2
loop_
 _symmetry_equiv_pos_site_id
 _symmetry_equiv_pos_as_xyz
  1  'x, y, z'
loop_
 _atom_site_type_symbol
 _atom_site_label
 _atom_site_symmetry_multiplicity
 _atom_site_fract_x
 _atom_site_fract_y
 _atom_site_fract_z
 _atom_site_occupancy
  Er  Er0  1  0.09713200  0.75000000  0.34713200  1
  Er  Er1  1  0.90286800  0.25000000  0.65286800  1
  Al  Al0  1  0.50000000  0.50000000  0.50000000  1
  Al  Al1  1  0.50000000  0.00000000  0.00000000  1
  B  B0  1  0.13368900  0.16744700  0.96624200  1
  B  B1  1  0.86631100  0.83255300  0.03375800  1
  B  B2  1  0.70120600  0.66744700  0.03375800  1
  B  B3  1  0.29879400  0.33255300  0.96624200  1
  B  B4  1  0.26940600  0.64426800  0.62513800  1
  B  B5  1  0.73059400  0.35573200  0.37486200  1
  B  B6  1  0.51913000  0.14426800  0.37486200  1
  B  B7  1  0.48087000  0.85573200  0.62513800  1
  B  B8  1  0.42316400  0.59034300  0.83282000  1
  B  B9  1  0.57683600  0.40965700  0.16718000  1
  B  B10  1  0.25752300  0.09034300  0.16718000  1
  B  B11  1  0.74247700  0.90965700  0.83282000  1
  B  B12  1  0.89865200  0.89877800  0.67539600  1
  B  B13  1  0.10134800  0.77674400  0.00012600  1
  B  B14  1  0.72338200  0.39877800  0.00012600  1
  B  B15  1  0.27661800  0.27674400  0.67539600  1
  B  B16  1  0.10134800  0.10122200  0.32460400  1
  B  B17  1  0.89865200  0.22325600  0.99987400  1
  B  B18  1  0.27661800  0.60122200  0.99987400  1
  B  B19  1  0.72338200  0.72325600  0.32460400  1
  B  B20  1  0.53180200  0.33226700  0.70413200  1
  B  B21  1  0.46819800  0.17233100  0.80046600  1
  B  B22  1  0.12813500  0.83226700  0.80046600  1
  B  B23  1  0.87186500  0.67233100  0.70413200  1
  B  B24  1  0.46819800  0.66773300  0.29586800  1
  B  B25  1  0.53180200  0.82766900  0.19953400  1
  B  B26  1  0.87186500  0.16773300  0.19953400  1
  B  B27  1  0.12813500  0.32766900  0.29586800  1
loop_
_geom_bond_atom_site_label_1
_geom_bond_atom_site_label_2
_geom_bond_distance
_geom_bond_site_symmetry_2
Al0 B7 2.112399 1_555
Al0 B5 2.112399 1_555
Al0 B6 2.112399 1_555
Al0 B4 2.112399 1_555
Al0 B9 2.331421 1_555
Al0 B8 2.331421 1_555
Al0 B11 2.331426 1_555
Al0 B10 2.331426 1_555
Al0 B20 2.433130 1_555
Al0 B24 2.433130 1_555
Al0 B27 2.433131 1_555
Al0 B23 2.433131 1_555
Al1 B7 2.112399 1_544
Al1 B6 2.112399 1_555
Al1 B5 2.112399 1_555
Al1 B4 2.112399 1_544
Al1 B9 2.331425 1_555
Al1 B8 2.331425 1_544
Al1 B11 2.331426 1_544
Al1 B10 2.331426 1_555
Al1 B21 2.433130 1_554
Al1 B25 2.433130 1_545
Al1 B22 2.433131 1_544
Al1 B26 2.433131 1_555
B0 B3 1.726385 1_555
B0 B12 1.810653 1_445
B0 B17 1.810653 1_455
B0 B10 1.839728 1_556
B0 B22 1.853460 1_545
B0 B27 1.853460 1_556
B0 Er1 2.719606 1_455
B1 B2 1.726385 1_555
B1 B16 1.810653 1_665
B1 B13 1.810653 1_655
B1 B11 1.839728 1_554
B1 B26 1.853460 1_565
B1 B23 1.853460 1_554
B1 Er0 2.719606 1_655
B2 B8 1.839728 1_554
B2 B20 1.853460 1_554
B2 B25 1.853460 1_555
B2 Er0 2.719601 1_655
B3 B9 1.839728 1_556
B3 Er1 2.719601 1_455
B4 B8 1.799775 1_555
B4 B7 2.211121 1_555
B4 Er0 2.541026 1_555
B5 B9 1.799775 1_555
B5 B6 2.211121 1_555
B5 Er1 2.541026 1_555
B6 Er1 2.541026 1_555
B7 Er0 2.541026 1_555
B10 B22 1.764976 1_544
B10 B27 1.764976 1_555
B10 B6 1.799772 1_555
B10 B13 1.850993 1_545
B10 B16 1.850993 1_555
B11 B26 1.764976 1_566
B11 B23 1.764976 1_555
B11 B7 1.799772 1_555
B11 B17 1.850993 1_565
B11 B12 1.850993 1_555
B12 B19 1.776841 1_555
B12 B22 1.815618 1_655
B12 B23 1.819802 1_555
B12 B17 1.918121 1_565
B12 Er1 2.671471 1_565
B12 Er0 2.810245 1_655
B13 B18 1.776841 1_554
B13 B23 1.815618 1_454
B13 B22 1.819802 1_554
B13 B16 1.918121 1_565
B13 Er0 2.671471 1_555
B13 Er1 2.810245 1_454
B14 B17 1.776841 1_554
B14 B2 1.810652 1_555
B14 B20 1.815616 1_554
B14 B21 1.819807 1_554
B14 B9 1.850999 1_555
B14 B19 1.918121 1_555
B14 Er0 2.671471 1_655
B14 Er1 2.810245 1_554
B15 B16 1.776841 1_555
B15 B3 1.810655 1_555
B15 B21 1.815614 1_555
B15 B20 1.819809 1_555
B15 B8 1.850996 1_555
B15 B18 1.918121 1_555
B15 Er1 2.671471 1_455
B15 Er0 2.810245 1_545
B16 B26 1.815618 1_455
B16 B27 1.819802 1_555
B16 Er0 2.671471 1_545
B16 Er1 2.810245 1_455
B17 B27 1.815618 1_656
B17 B26 1.819802 1_556
B17 Er1 2.671471 1_555
B17 Er0 2.810245 1_656
B18 B3 1.810652 1_555
B18 B24 1.815616 1_556
B18 B25 1.819807 1_556
B18 B8 1.850999 1_555
B18 Er1 2.671471 1_455
B18 Er0 2.810245 1_556
B19 B2 1.810655 1_555
B19 B25 1.815614 1_555
B19 B24 1.819809 1_555
B19 B9 1.850996 1_555
B19 Er0 2.671471 1_655
B19 Er1 2.810245 1_565
B20 B6 1.754333 1_555
B20 B8 1.764976 1_555
B20 B21 1.850743 1_555
B20 Er1 2.850005 1_555
B21 B7 1.754338 1_545
B21 B9 1.764976 1_556
B21 B3 1.853460 1_555
B21 Er0 2.850008 1_545
B22 B4 1.754336 1_555
B22 B23 1.850737 1_455
B22 Er0 2.850012 1_555
B23 B5 1.754336 1_555
B23 Er1 2.850012 1_555
B24 B7 1.754333 1_555
B24 B9 1.764976 1_555
B24 B25 1.850743 1_555
B24 B3 1.853460 1_554
B24 Er0 2.850005 1_555
B25 B6 1.754338 1_565
B25 B8 1.764976 1_554
B25 Er1 2.850008 1_565
B26 B5 1.754336 1_555
B26 B27 1.850737 1_655
B26 Er1 2.850012 1_555
B27 B4 1.754336 1_555
B27 Er0 2.850012 1_555
