# generated using pymatgen
data_ZrN2
_symmetry_space_group_name_H-M   'P 1'
_cell_length_a   3.79265900
_cell_length_b   4.17106200
_cell_length_c   4.37008300
_cell_angle_alpha   90.00000000
_cell_angle_beta   90.00000000
_cell_angle_gamma   90.00000000
_symmetry_Int_Tables_number   1
_chemical_formula_structural   ZrN2
_chemical_formula_sum   'Zr2 N4'
_cell_volume   69.13216021
_cell_formula_units_Z   2
loop_
 _symmetry_equiv_pos_site_id
 _symmetry_equiv_pos_as_xyz
  1  'x, y, z'
loop_
 _atom_site_type_symbol
 _atom_site_label
 _atom_site_symmetry_multiplicity
 _atom_site_fract_x
 _atom_site_fract_y
 _atom_site_fract_z
 _atom_site_occupancy
  Zr  Zr0  1  0.50000000  0.24963600  0.00000000  1
  Zr  Zr1  1  0.00000000  0.75036400  0.50000000  1
  N  N0  1  0.50000000  0.49971600  0.50000000  1
  N  N1  1  0.00000000  0.50028400  0.00000000  1
  N  N2  1  0.50000000  0.14675900  0.50000000  1
  N  N3  1  0.00000000  0.85324100  0.00000000  1
loop_
_geom_bond_atom_site_label_1
_geom_bond_atom_site_label_2
_geom_bond_distance
_geom_bond_site_symmetry_2
N0 N2 1.472206 1_555
N0 Zr1 2.165426 1_655
N0 Zr1 2.165426 1_555
N0 Zr0 2.421252 1_555
N0 Zr0 2.421252 1_556
N1 N3 1.472206 1_555
N1 Zr0 2.165426 1_455
N1 Zr0 2.165426 1_555
N1 Zr1 2.421252 1_555
N1 Zr1 2.421252 1_554
N2 Zr0 2.226778 1_555
N2 Zr0 2.226778 1_556
N2 Zr1 2.515901 1_645
N2 Zr1 2.515901 1_545
N3 Zr1 2.226778 1_555
N3 Zr1 2.226778 1_554
N3 Zr0 2.515901 1_565
N3 Zr0 2.515901 1_465
