# generated using pymatgen
data_BaTb2DyO6
_symmetry_space_group_name_H-M   'P 1'
_cell_length_a   4.37219207
_cell_length_b   6.06206036
_cell_length_c   6.06206036
_cell_angle_alpha   89.55687383
_cell_angle_beta   90.00000000
_cell_angle_gamma   90.00000000
_symmetry_Int_Tables_number   1
_chemical_formula_structural   BaTb2DyO6
_chemical_formula_sum   'Ba1 Tb2 Dy1 O6'
_cell_volume   160.66702656
_cell_formula_units_Z   1
loop_
 _symmetry_equiv_pos_site_id
 _symmetry_equiv_pos_as_xyz
  1  'x, y, z'
loop_
 _atom_site_type_symbol
 _atom_site_label
 _atom_site_symmetry_multiplicity
 _atom_site_fract_x
 _atom_site_fract_y
 _atom_site_fract_z
 _atom_site_occupancy
  Ba  Ba0  1  0.50000000  0.00000000  -0.00000000  1
  Tb  Tb0  1  -0.00000000  0.00000000  0.50000000  1
  Tb  Tb1  1  0.00000000  0.50000000  -0.00000000  1
  Dy  Dy0  1  0.50000000  0.50000000  0.50000000  1
  O  O0  1  0.50000000  0.00000000  0.50000000  1
  O  O1  1  0.50000000  0.50000000  -0.00000000  1
  O  O2  1  0.00000000  0.35124140  0.64875860  1
  O  O3  1  0.00000000  0.64875860  0.35124140  1
  O  O4  1  0.00000000  0.82183423  0.82183423  1
  O  O5  1  -0.00000000  0.17816577  0.17816577  1
loop_
_geom_bond_atom_site_label_1
_geom_bond_atom_site_label_2
_geom_bond_distance
_geom_bond_site_symmetry_2
Ba0 O4 2.670221 1_644
Ba0 O4 2.670221 1_544
Ba0 O5 2.670221 1_555
Ba0 O5 2.670221 1_655
Ba0 O1 3.031030 1_545
Ba0 O0 3.031030 1_555
Ba0 O0 3.031030 1_554
Ba0 O1 3.031030 1_555
Dy0 O3 2.528411 1_655
Dy0 O3 2.528411 1_555
Dy0 O2 2.528411 1_655
Dy0 O2 2.528411 1_555
Dy0 O0 3.031030 1_565
Dy0 O0 3.031030 1_555
Dy0 O1 3.031030 1_555
Dy0 O1 3.031030 1_556
O0 Tb0 2.186096 1_555
O0 Tb0 2.186096 1_655
O1 Tb1 2.186096 1_655
O1 Tb1 2.186096 1_555
O2 Tb0 2.318751 1_555
O2 Tb1 2.318751 1_556
O3 Tb1 2.318751 1_555
O3 Tb0 2.318751 1_565
O4 Tb1 2.222664 1_556
O4 Tb0 2.222664 1_565
O5 Tb1 2.222664 1_555
O5 Tb0 2.222664 1_555
