# generated using pymatgen
data_Er5Ge4
_symmetry_space_group_name_H-M   'P 1'
_cell_length_a   7.45318177
_cell_length_b   7.57914003
_cell_length_c   14.35551071
_cell_angle_alpha   90.00000000
_cell_angle_beta   90.00000000
_cell_angle_gamma   90.00000000
_symmetry_Int_Tables_number   1
_chemical_formula_structural   Er5Ge4
_chemical_formula_sum   'Er20 Ge16'
_cell_volume   810.92425705
_cell_formula_units_Z   4
loop_
 _symmetry_equiv_pos_site_id
 _symmetry_equiv_pos_as_xyz
  1  'x, y, z'
loop_
 _atom_site_type_symbol
 _atom_site_label
 _atom_site_symmetry_multiplicity
 _atom_site_fract_x
 _atom_site_fract_y
 _atom_site_fract_z
 _atom_site_occupancy
  Er  Er0  1  0.37072804  0.83869268  0.88173211  1
  Er  Er1  1  0.87072804  0.66130732  0.61826789  1
  Er  Er2  1  0.62927196  0.16130732  0.38173211  1
  Er  Er3  1  0.12927196  0.33869268  0.11826789  1
  Er  Er4  1  0.62927196  0.16130732  0.11826789  1
  Er  Er5  1  0.12927196  0.33869268  0.38173211  1
  Er  Er6  1  0.37072804  0.83869268  0.61826789  1
  Er  Er7  1  0.87072804  0.66130732  0.88173211  1
  Er  Er8  1  0.52022844  0.32227940  0.90039691  1
  Er  Er9  1  0.02022844  0.17772060  0.59960309  1
  Er  Er10  1  0.47977156  0.67772060  0.40039691  1
  Er  Er11  1  0.97977156  0.82227940  0.09960309  1
  Er  Er12  1  0.47977156  0.67772060  0.09960309  1
  Er  Er13  1  0.97977156  0.82227940  0.40039691  1
  Er  Er14  1  0.52022844  0.32227940  0.59960309  1
  Er  Er15  1  0.02022844  0.17772060  0.90039691  1
  Er  Er16  1  0.20583563  0.50143109  0.75000000  1
  Er  Er17  1  0.70583563  0.99856891  0.75000000  1
  Er  Er18  1  0.79416437  0.49856891  0.25000000  1
  Er  Er19  1  0.29416437  0.00143109  0.25000000  1
  Ge  Ge0  1  0.28721400  0.03569224  0.04294285  1
  Ge  Ge1  1  0.78721400  0.46430776  0.45705715  1
  Ge  Ge2  1  0.71278600  0.96430776  0.54294285  1
  Ge  Ge3  1  0.21278600  0.53569224  0.95705715  1
  Ge  Ge4  1  0.71278600  0.96430776  0.95705715  1
  Ge  Ge5  1  0.21278600  0.53569224  0.54294285  1
  Ge  Ge6  1  0.28721400  0.03569224  0.45705715  1
  Ge  Ge7  1  0.78721400  0.46430776  0.04294285  1
  Ge  Ge8  1  0.57322377  0.61733089  0.75000000  1
  Ge  Ge9  1  0.07322377  0.88266911  0.75000000  1
  Ge  Ge10  1  0.42677623  0.38266911  0.25000000  1
  Ge  Ge11  1  0.92677623  0.11733089  0.25000000  1
  Ge  Ge12  1  0.32637931  0.13967382  0.75000000  1
  Ge  Ge13  1  0.82637931  0.36032618  0.75000000  1
  Ge  Ge14  1  0.67362069  0.86032618  0.25000000  1
  Ge  Ge15  1  0.17362069  0.63967382  0.25000000  1
loop_
_geom_bond_atom_site_label_1
_geom_bond_atom_site_label_2
_geom_bond_distance
_geom_bond_site_symmetry_2
Er0 Ge3 2.798006 1_555
Er0 Ge0 2.823572 1_566
Er0 Ge4 2.928348 1_555
Er0 Ge9 2.933247 1_555
Er0 Ge8 2.944278 1_555
Er0 Ge12 2.981480 1_565
Er1 Ge2 2.798006 1_555
Er1 Ge1 2.823572 1_555
Er1 Ge5 2.928348 1_655
Er1 Ge8 2.933247 1_555
Er1 Ge9 2.944278 1_655
Er1 Ge13 2.981480 1_555
Er2 Ge1 2.798006 1_555
Er2 Ge2 2.823572 1_545
Er2 Ge6 2.928348 1_555
Er2 Ge11 2.933247 1_555
Er2 Ge10 2.944278 1_555
Er2 Ge14 2.981480 1_545
Er3 Ge0 2.798006 1_555
Er3 Ge3 2.823572 1_554
Er3 Ge7 2.928348 1_455
Er3 Ge10 2.933247 1_555
Er3 Ge11 2.944278 1_455
Er3 Ge15 2.981480 1_555
Er4 Ge7 2.798006 1_555
Er4 Ge4 2.823572 1_544
Er4 Ge0 2.928348 1_555
Er4 Ge11 2.933247 1_555
Er4 Ge10 2.944278 1_555
Er4 Ge14 2.981480 1_545
Er5 Ge6 2.798006 1_555
Er5 Ge5 2.823572 1_555
Er5 Ge1 2.928348 1_455
Er5 Ge10 2.933247 1_555
Er5 Ge11 2.944278 1_455
Er5 Ge15 2.981480 1_555
Er6 Ge5 2.798006 1_555
Er6 Ge6 2.823572 1_565
Er6 Ge2 2.928348 1_555
Er6 Ge9 2.933247 1_555
Er6 Ge8 2.944278 1_555
Er6 Ge12 2.981480 1_565
Er7 Ge4 2.798006 1_555
Er7 Ge7 2.823572 1_556
Er7 Ge3 2.928348 1_655
Er7 Ge8 2.933247 1_555
Er7 Ge9 2.944278 1_655
Er7 Ge13 2.981480 1_555
Er8 Ge3 2.920357 1_555
Er8 Ge12 2.943510 1_555
Er8 Ge7 3.050548 1_556
Er8 Ge8 3.133393 1_555
Er8 Ge13 3.154543 1_555
Er8 Ge4 3.175265 1_545
Er8 Ge0 3.452752 1_556
Er9 Ge2 2.920357 1_445
Er9 Ge13 2.943510 1_455
Er9 Ge6 3.050548 1_555
Er9 Ge9 3.133393 1_545
Er9 Ge12 3.154543 1_555
Er9 Ge5 3.175265 1_555
Er9 Ge1 3.452752 1_455
Er10 Ge1 2.920357 1_555
Er10 Ge14 2.943510 1_555
Er10 Ge5 3.050548 1_555
Er10 Ge10 3.133393 1_555
Er10 Ge15 3.154543 1_555
Er10 Ge6 3.175265 1_565
Er10 Ge2 3.452752 1_555
Er11 Ge0 2.920357 1_665
Er11 Ge15 2.943510 1_655
Er11 Ge4 3.050548 1_554
Er11 Ge11 3.133393 1_565
Er11 Ge14 3.154543 1_555
Er11 Ge7 3.175265 1_555
Er11 Ge3 3.452752 1_654
Er12 Ge7 2.920357 1_555
Er12 Ge14 2.943510 1_555
Er12 Ge3 3.050548 1_554
Er12 Ge10 3.133393 1_555
Er12 Ge15 3.154543 1_555
Er12 Ge0 3.175265 1_565
Er12 Ge4 3.452752 1_554
Er13 Ge6 2.920357 1_665
Er13 Ge15 2.943510 1_655
Er13 Ge2 3.050548 1_555
Er13 Ge11 3.133393 1_565
Er13 Ge14 3.154543 1_555
Er13 Ge1 3.175265 1_555
Er13 Ge5 3.452752 1_655
Er14 Ge5 2.920357 1_555
Er14 Ge12 2.943510 1_555
Er14 Ge1 3.050548 1_555
Er14 Ge8 3.133393 1_555
Er14 Ge13 3.154543 1_555
Er14 Ge2 3.175265 1_545
Er14 Ge6 3.452752 1_555
Er15 Ge4 2.920357 1_445
Er15 Ge13 2.943510 1_455
Er15 Ge0 3.050548 1_556
Er15 Ge9 3.133393 1_545
Er15 Ge12 3.154543 1_555
Er15 Ge3 3.175265 1_555
Er15 Ge7 3.452752 1_456
Er16 Ge8 2.875660 1_555
Er16 Ge12 2.885256 1_555
Er16 Ge5 2.984182 1_555
Er16 Ge3 2.984182 1_555
Er16 Ge13 3.023608 1_455
Er16 Ge9 3.053826 1_555
Er17 Ge9 2.875660 1_655
Er17 Ge13 2.885256 1_565
Er17 Ge4 2.984182 1_555
Er17 Ge2 2.984182 1_555
Er17 Ge12 3.023608 1_565
Er17 Ge8 3.053826 1_555
Er18 Ge10 2.875660 1_555
Er18 Ge14 2.885256 1_555
Er18 Ge7 2.984182 1_555
Er18 Ge1 2.984182 1_555
Er18 Ge15 3.023608 1_655
Er18 Ge11 3.053826 1_555
Er19 Ge11 2.875660 1_455
Er19 Ge15 2.885256 1_545
Er19 Ge0 2.984182 1_555
Er19 Ge6 2.984182 1_555
Er19 Ge14 3.023608 1_545
Er19 Ge10 3.053826 1_555
Ge10 Ge15 2.711878 1_555
Ge11 Ge14 2.711878 1_545
Ge12 Ge9 2.711878 1_545
Ge13 Ge8 2.711878 1_555
