# generated using pymatgen
data_CaMn28
_symmetry_space_group_name_H-M   'P 1'
_cell_length_a   7.58823410
_cell_length_b   7.58823410
_cell_length_c   7.58823410
_cell_angle_alpha   109.47122063
_cell_angle_beta   109.47122063
_cell_angle_gamma   109.47122063
_symmetry_Int_Tables_number   1
_chemical_formula_structural   CaMn28
_chemical_formula_sum   'Ca1 Mn28'
_cell_volume   336.35684555
_cell_formula_units_Z   1
loop_
 _symmetry_equiv_pos_site_id
 _symmetry_equiv_pos_as_xyz
  1  'x, y, z'
loop_
 _atom_site_type_symbol
 _atom_site_label
 _atom_site_symmetry_multiplicity
 _atom_site_fract_x
 _atom_site_fract_y
 _atom_site_fract_z
 _atom_site_occupancy
  Ca  Ca0  1  0.00000000  0.00000000  0.00000000  1
  Mn  Mn0  1  0.62686800  0.00000000  0.00000000  1
  Mn  Mn1  1  0.00000000  0.62686800  0.00000000  1
  Mn  Mn2  1  0.00000000  0.00000000  0.62686800  1
  Mn  Mn3  1  0.37313200  0.37313200  0.37313200  1
  Mn  Mn4  1  0.39024600  0.67822600  0.00000000  1
  Mn  Mn5  1  0.71202000  0.32177400  0.32177400  1
  Mn  Mn6  1  0.39024600  0.00000000  0.67822600  1
  Mn  Mn7  1  0.67822600  0.39024600  0.00000000  1
  Mn  Mn8  1  0.00000000  0.39024600  0.67822600  1
  Mn  Mn9  1  0.32177400  0.71202000  0.32177400  1
  Mn  Mn10  1  0.32177400  0.32177400  0.71202000  1
  Mn  Mn11  1  0.00000000  0.67822600  0.39024600  1
  Mn  Mn12  1  0.67822600  0.00000000  0.39024600  1
  Mn  Mn13  1  0.60975400  0.60975400  0.28798000  1
  Mn  Mn14  1  0.28798000  0.60975400  0.60975400  1
  Mn  Mn15  1  0.60975400  0.28798000  0.60975400  1
  Mn  Mn16  1  0.38140600  0.20126600  0.00000000  1
  Mn  Mn17  1  0.18014000  0.79873400  0.79873400  1
  Mn  Mn18  1  0.38140600  0.00000000  0.20126600  1
  Mn  Mn19  1  0.20126600  0.38140600  0.00000000  1
  Mn  Mn20  1  0.00000000  0.38140600  0.20126600  1
  Mn  Mn21  1  0.79873400  0.18014000  0.79873400  1
  Mn  Mn22  1  0.79873400  0.79873400  0.18014000  1
  Mn  Mn23  1  0.00000000  0.20126600  0.38140600  1
  Mn  Mn24  1  0.20126600  0.00000000  0.38140600  1
  Mn  Mn25  1  0.61859400  0.61859400  0.81986000  1
  Mn  Mn26  1  0.81986000  0.61859400  0.61859400  1
  Mn  Mn27  1  0.61859400  0.81986000  0.61859400  1
loop_
_geom_bond_atom_site_label_1
_geom_bond_atom_site_label_2
_geom_bond_distance
_geom_bond_site_symmetry_2
Ca0 Mn24 2.786055 1_555
Ca0 Mn18 2.786055 1_555
Ca0 Mn16 2.786055 1_555
Ca0 Mn19 2.786055 1_555
Ca0 Mn23 2.786055 1_555
Ca0 Mn20 2.786055 1_555
Ca0 Mn27 2.786055 1_444
Ca0 Mn26 2.786055 1_444
Ca0 Mn25 2.786055 1_444
Ca0 Mn22 2.786055 1_445
Ca0 Mn17 2.786055 1_544
Ca0 Mn21 2.786055 1_454
Ca0 Mn3 2.831413 1_555
Ca0 Mn0 2.831413 1_455
Ca0 Mn2 2.831413 1_554
Ca0 Mn1 2.831413 1_545
Mn0 Mn5 2.502614 1_555
Mn0 Mn4 2.502614 1_545
Mn0 Mn6 2.502614 1_554
Mn0 Mn23 2.726359 1_655
Mn0 Mn20 2.726359 1_655
Mn0 Mn25 2.726359 1_544
Mn0 Mn27 2.726359 1_544
Mn0 Mn22 2.726359 1_545
Mn0 Mn21 2.726359 1_554
Mn0 Mn17 2.774587 1_544
Mn0 Mn18 2.774587 1_555
Mn0 Mn16 2.774587 1_555
Mn0 Mn14 2.855114 1_544
Mn0 Mn7 2.855114 1_555
Mn0 Mn12 2.855114 1_555
Mn1 Mn9 2.502614 1_555
Mn1 Mn7 2.502614 1_455
Mn1 Mn8 2.502614 1_554
Mn1 Mn24 2.726359 1_565
Mn1 Mn18 2.726359 1_565
Mn1 Mn25 2.726359 1_454
Mn1 Mn26 2.726359 1_454
Mn1 Mn22 2.726359 1_455
Mn1 Mn17 2.726359 1_554
Mn1 Mn21 2.774587 1_454
Mn1 Mn20 2.774587 1_555
Mn1 Mn19 2.774587 1_555
Mn1 Mn15 2.855114 1_454
Mn1 Mn4 2.855114 1_555
Mn1 Mn11 2.855114 1_555
Mn2 Mn27 2.726359 1_445
Mn2 Mn26 2.726359 1_445
Mn2 Mn21 2.726359 1_455
Mn2 Mn22 2.774587 1_445
Mn2 Mn24 2.774587 1_555
Mn2 Mn23 2.774587 1_555
Mn2 Mn8 2.855114 1_555
Mn2 Mn6 2.855114 1_555
Mn3 Mn5 2.855114 1_555
Mn3 Mn9 2.855114 1_555
Mn4 Mn8 2.610513 1_554
Mn4 Mn9 2.610513 1_555
Mn5 Mn8 2.593665 1_655
Mn5 Mn7 2.610513 1_555
Mn6 Mn9 2.593665 1_545
Mn6 Mn7 2.610513 1_556
Mn10 Mn25 2.230737 1_555
Mn10 Mn23 2.447512 1_555
Mn10 Mn24 2.447512 1_555
Mn10 Mn2 2.502614 1_555
Mn10 Mn7 2.593665 1_556
Mn10 Mn4 2.593665 1_556
Mn10 Mn19 2.600991 1_556
Mn10 Mn16 2.600991 1_556
Mn10 Mn8 2.610513 1_555
Mn10 Mn15 2.610513 1_555
Mn10 Mn6 2.610513 1_555
Mn10 Mn14 2.610513 1_555
Mn10 Mn3 2.855114 1_555
Mn11 Mn20 2.230737 1_555
Mn11 Mn22 2.447512 1_455
Mn11 Mn24 2.447512 1_565
Mn11 Mn2 2.502614 1_565
Mn11 Mn5 2.593665 1_455
Mn11 Mn14 2.593665 1_555
Mn11 Mn17 2.600991 1_555
Mn11 Mn26 2.600991 1_455
Mn11 Mn9 2.610513 1_555
Mn11 Mn13 2.610513 1_455
Mn11 Mn7 2.610513 1_455
Mn11 Mn6 2.610513 1_565
Mn12 Mn18 2.230737 1_555
Mn12 Mn22 2.447512 1_545
Mn12 Mn23 2.447512 1_655
Mn12 Mn2 2.502614 1_655
Mn12 Mn9 2.593665 1_545
Mn12 Mn15 2.593665 1_555
Mn12 Mn21 2.600991 1_555
Mn12 Mn27 2.600991 1_545
Mn12 Mn8 2.610513 1_655
Mn12 Mn13 2.610513 1_545
Mn12 Mn5 2.610513 1_555
Mn12 Mn4 2.610513 1_545
Mn13 Mn22 2.230737 1_555
Mn13 Mn26 2.447512 1_555
Mn13 Mn27 2.447512 1_555
Mn13 Mn3 2.502614 1_555
Mn13 Mn7 2.593665 1_555
Mn13 Mn4 2.593665 1_555
Mn13 Mn16 2.600991 1_555
Mn13 Mn19 2.600991 1_555
Mn13 Mn5 2.610513 1_555
Mn13 Mn9 2.610513 1_555
Mn13 Mn2 2.855114 1_665
Mn14 Mn17 2.230737 1_555
Mn14 Mn27 2.447512 1_555
Mn14 Mn25 2.447512 1_555
Mn14 Mn3 2.502614 1_555
Mn14 Mn8 2.593665 1_555
Mn14 Mn23 2.600991 1_555
Mn14 Mn20 2.600991 1_555
Mn14 Mn6 2.610513 1_565
Mn14 Mn4 2.610513 1_556
Mn14 Mn9 2.610513 1_555
Mn15 Mn21 2.230737 1_555
Mn15 Mn26 2.447512 1_555
Mn15 Mn25 2.447512 1_555
Mn15 Mn3 2.502614 1_555
Mn15 Mn6 2.593665 1_555
Mn15 Mn24 2.600991 1_555
Mn15 Mn18 2.600991 1_555
Mn15 Mn8 2.610513 1_655
Mn15 Mn7 2.610513 1_556
Mn15 Mn5 2.610513 1_555
Mn16 Mn7 2.230737 1_555
Mn16 Mn19 2.232211 1_555
Mn16 Mn6 2.447512 1_554
Mn16 Mn5 2.447512 1_555
Mn16 Mn18 2.493995 1_555
Mn16 Mn17 2.493995 1_544
Mn16 Mn3 2.726359 1_555
Mn16 Mn2 2.726359 1_554
Mn17 Mn26 2.232211 1_455
Mn17 Mn4 2.447512 1_556
Mn17 Mn6 2.447512 1_565
Mn17 Mn18 2.493995 1_566
Mn17 Mn8 2.600991 1_555
Mn17 Mn2 2.726359 1_565
Mn18 Mn24 2.232211 1_555
Mn18 Mn4 2.447512 1_545
Mn18 Mn5 2.447512 1_555
Mn18 Mn9 2.600991 1_545
Mn18 Mn3 2.726359 1_555
Mn19 Mn4 2.230737 1_555
Mn19 Mn8 2.447512 1_554
Mn19 Mn9 2.447512 1_555
Mn19 Mn20 2.493995 1_555
Mn19 Mn21 2.493995 1_454
Mn19 Mn3 2.726359 1_555
Mn19 Mn2 2.726359 1_554
Mn20 Mn23 2.232211 1_555
Mn20 Mn7 2.447512 1_455
Mn20 Mn9 2.447512 1_555
Mn20 Mn21 2.493995 1_454
Mn20 Mn5 2.600991 1_455
Mn20 Mn3 2.726359 1_555
Mn21 Mn27 2.232211 1_545
Mn21 Mn8 2.447512 1_655
Mn21 Mn7 2.447512 1_556
Mn21 Mn6 2.600991 1_555
Mn22 Mn25 2.232211 1_554
Mn22 Mn23 2.493995 1_665
Mn22 Mn24 2.493995 1_665
Mn22 Mn7 2.600991 1_555
Mn22 Mn4 2.600991 1_555
Mn23 Mn8 2.230737 1_555
Mn23 Mn24 2.493995 1_555
Mn23 Mn5 2.600991 1_455
Mn23 Mn3 2.726359 1_555
Mn24 Mn6 2.230737 1_555
Mn24 Mn9 2.600991 1_545
Mn24 Mn3 2.726359 1_555
Mn25 Mn27 2.493995 1_555
Mn25 Mn26 2.493995 1_555
Mn25 Mn4 2.600991 1_556
Mn25 Mn7 2.600991 1_556
Mn25 Mn3 2.774587 1_555
Mn26 Mn5 2.230737 1_555
Mn26 Mn27 2.493995 1_555
Mn26 Mn8 2.600991 1_655
Mn26 Mn3 2.774587 1_555
Mn27 Mn9 2.230737 1_555
Mn27 Mn6 2.600991 1_565
Mn27 Mn3 2.774587 1_555
