# generated using pymatgen
data_La4SmMn5O15
_symmetry_space_group_name_H-M   'P 1'
_cell_length_a   14.19089982
_cell_length_b   14.19089982
_cell_length_c   3.93228700
_cell_angle_alpha   90.00000000
_cell_angle_beta   90.00000000
_cell_angle_gamma   157.38527713
_symmetry_Int_Tables_number   1
_chemical_formula_structural   La4SmMn5O15
_chemical_formula_sum   'La4 Sm1 Mn5 O15'
_cell_volume   304.50762555
_cell_formula_units_Z   1
loop_
 _symmetry_equiv_pos_site_id
 _symmetry_equiv_pos_as_xyz
  1  'x, y, z'
loop_
 _atom_site_type_symbol
 _atom_site_label
 _atom_site_symmetry_multiplicity
 _atom_site_fract_x
 _atom_site_fract_y
 _atom_site_fract_z
 _atom_site_occupancy
  La  La0  1  0.09985100  0.90014900  0.50000000  1
  La  La1  1  0.69977400  0.30022600  0.50000000  1
  La  La2  1  0.30022600  0.69977400  0.50000000  1
  La  La3  1  0.90014900  0.09985100  0.50000000  1
  Sm  Sm0  1  0.50000000  0.50000000  0.50000000  1
  Mn  Mn0  1  0.79982400  0.20017600  0.00000000  1
  Mn  Mn1  1  0.40080600  0.59919400  0.00000000  1
  Mn  Mn2  1  0.00000000  0.00000000  0.00000000  1
  Mn  Mn3  1  0.59919400  0.40080600  0.00000000  1
  Mn  Mn4  1  0.20017600  0.79982400  0.00000000  1
  O  O0  1  0.00000000  0.50000000  0.00000000  1
  O  O1  1  0.60090700  0.90070800  0.00000000  1
  O  O2  1  0.20307700  0.30051000  0.00000000  1
  O  O3  1  0.79692300  0.69949000  0.00000000  1
  O  O4  1  0.39909300  0.09929200  0.00000000  1
  O  O5  1  0.50000000  0.00000000  0.00000000  1
  O  O6  1  0.09929200  0.39909300  0.00000000  1
  O  O7  1  0.69949000  0.79692300  0.00000000  1
  O  O8  1  0.30051000  0.20307700  0.00000000  1
  O  O9  1  0.90070800  0.60090700  0.00000000  1
  O  O10  1  0.20062200  0.79937800  0.50000000  1
  O  O11  1  0.79937800  0.20062200  0.50000000  1
  O  O12  1  0.40178500  0.59821500  0.50000000  1
  O  O13  1  0.00000000  0.00000000  0.50000000  1
  O  O14  1  0.59821500  0.40178500  0.50000000  1
loop_
_geom_bond_atom_site_label_1
_geom_bond_atom_site_label_2
_geom_bond_distance
_geom_bond_site_symmetry_2
La0 O13 2.778943 1_565
La0 O9 2.780101 1_456
La0 O9 2.780101 1_455
La0 O4 2.780101 1_566
La0 O4 2.780101 1_565
La0 O14 2.782813 1_565
La0 O14 2.782813 1_455
La0 O8 2.802561 1_565
La0 O8 2.802561 1_566
La0 O3 2.802561 1_456
La0 O3 2.802561 1_455
La0 O10 2.804547 1_555
La1 O11 2.772068 1_555
La1 O4 2.782148 1_556
La1 O4 2.782148 1_555
La1 O9 2.782148 1_555
La1 O9 2.782148 1_556
La1 O10 2.782540 1_655
La1 O10 2.782540 1_545
La1 O0 2.784808 1_655
La1 O5 2.784808 1_555
La1 O5 2.784808 1_556
La1 O0 2.784808 1_656
La1 O14 2.826478 1_555
La2 O10 2.772068 1_555
La2 O6 2.782148 1_555
La2 O6 2.782148 1_556
La2 O1 2.782148 1_555
La2 O1 2.782148 1_556
La2 O11 2.782540 1_565
La2 O11 2.782540 1_455
La2 O5 2.784808 1_565
La2 O5 2.784808 1_566
La2 O0 2.784808 1_556
La2 O0 2.784808 1_555
La2 O12 2.826478 1_555
La3 O13 2.778943 1_655
La3 O1 2.780101 1_545
La3 O1 2.780101 1_546
La3 O6 2.780101 1_655
La3 O6 2.780101 1_656
La3 O12 2.782813 1_655
La3 O12 2.782813 1_545
La3 O2 2.802561 1_656
La3 O2 2.802561 1_655
La3 O7 2.802561 1_546
La3 O7 2.802561 1_545
La3 O11 2.804547 1_555
Mn0 O0 1.964251 1_655
Mn0 O5 1.964251 1_555
Mn0 O11 1.966183 1_555
Mn0 O11 1.966183 1_554
Mn0 O6 1.969976 1_655
Mn0 O1 1.969976 1_545
Mn1 O12 1.966332 1_555
Mn1 O12 1.966332 1_554
Mn1 O2 1.970122 1_555
Mn1 O7 1.970122 1_555
Mn1 O1 1.984823 1_555
Mn1 O6 1.984823 1_555
Mn2 O7 1.949775 1_445
Mn2 O3 1.949775 1_445
Mn2 O8 1.949775 1_555
Mn2 O2 1.949775 1_555
Mn2 O13 1.966144 1_555
Mn2 O13 1.966144 1_554
Mn3 O14 1.966332 1_554
Mn3 O14 1.966332 1_555
Mn3 O8 1.970122 1_555
Mn3 O3 1.970122 1_555
Mn3 O9 1.984823 1_555
Mn3 O4 1.984823 1_555
Mn4 O5 1.964251 1_565
Mn4 O0 1.964251 1_555
Mn4 O10 1.966183 1_555
Mn4 O10 1.966183 1_554
Mn4 O4 1.969976 1_565
Mn4 O9 1.969976 1_455
O2 Sm0 2.758949 1_555
O2 Sm0 2.758949 1_554
O3 Sm0 2.758949 1_555
O3 Sm0 2.758949 1_554
O7 Sm0 2.758949 1_555
O7 Sm0 2.758949 1_554
O8 Sm0 2.758949 1_555
O8 Sm0 2.758949 1_554
O12 Sm0 2.733411 1_555
O13 Sm0 2.782440 1_555
O13 Sm0 2.782440 1_445
O14 Sm0 2.733411 1_555
