# generated using pymatgen
data_Na6Si2O7
_symmetry_space_group_name_H-M   'P 1'
_cell_length_a   5.88493800
_cell_length_b   11.73072771
_cell_length_c   23.45858918
_cell_angle_alpha   89.61972238
_cell_angle_beta   88.77023880
_cell_angle_gamma   88.79256857
_symmetry_Int_Tables_number   1
_chemical_formula_structural   Na6Si2O7
_chemical_formula_sum   'Na48 Si16 O56'
_cell_volume   1618.69094464
_cell_formula_units_Z   8
loop_
 _symmetry_equiv_pos_site_id
 _symmetry_equiv_pos_as_xyz
  1  'x, y, z'
loop_
 _atom_site_type_symbol
 _atom_site_label
 _atom_site_symmetry_multiplicity
 _atom_site_fract_x
 _atom_site_fract_y
 _atom_site_fract_z
 _atom_site_occupancy
  Na  Na0  1  0.24683900  0.00808300  0.76284800  1
  Na  Na1  1  0.75316100  0.99191700  0.23715200  1
  Na  Na2  1  0.37997600  0.98157800  0.62341700  1
  Na  Na3  1  0.62002400  0.01842200  0.37658300  1
  Na  Na4  1  0.74798000  0.99429700  0.72758100  1
  Na  Na5  1  0.25202000  0.00570300  0.27241900  1
  Na  Na6  1  0.63717100  0.02468400  0.85933400  1
  Na  Na7  1  0.36282900  0.97531600  0.14066600  1
  Na  Na8  1  0.75253300  0.47462300  0.99265600  1
  Na  Na9  1  0.24746700  0.52537700  0.00734400  1
  Na  Na10  1  0.25190800  0.96200000  0.49457500  1
  Na  Na11  1  0.74809200  0.03800000  0.50542500  1
  Na  Na12  1  0.25741100  0.47430500  0.74915600  1
  Na  Na13  1  0.74258900  0.52569500  0.25084400  1
  Na  Na14  1  0.38866200  0.49687800  0.87779700  1
  Na  Na15  1  0.61133800  0.50312200  0.12220300  1
  Na  Na16  1  0.88155700  0.25944200  0.74674200  1
  Na  Na17  1  0.11844300  0.74055800  0.25325800  1
  Na  Na18  1  0.75535300  0.49061500  0.49434200  1
  Na  Na19  1  0.24464700  0.50938500  0.50565800  1
  Na  Na20  1  0.24799700  0.98277200  0.99990000  1
  Na  Na21  1  0.75200300  0.01722800  0.00010000  1
  Na  Na22  1  0.87845700  0.72536600  0.98763100  1
  Na  Na23  1  0.12154300  0.27463400  0.01236900  1
  Na  Na24  1  0.39274700  0.21101300  0.68680300  1
  Na  Na25  1  0.60725300  0.78898700  0.31319700  1
  Na  Na26  1  0.10831200  0.74851300  0.75210300  1
  Na  Na27  1  0.89168800  0.25148700  0.24789700  1
  Na  Na28  1  0.74908800  0.52772400  0.76470100  1
  Na  Na29  1  0.25091200  0.47227600  0.23529900  1
  Na  Na30  1  0.85990300  0.76969300  0.48309600  1
  Na  Na31  1  0.14009700  0.23030700  0.51690400  1
  Na  Na32  1  0.43082600  0.76410100  0.92337900  1
  Na  Na33  1  0.56917400  0.23589900  0.07662100  1
  Na  Na34  1  0.10504000  0.15260600  0.89722200  1
  Na  Na35  1  0.89496000  0.84739400  0.10277800  1
  Na  Na36  1  0.58368900  0.78248600  0.80487300  1
  Na  Na37  1  0.41631100  0.21751400  0.19512700  1
  Na  Na38  1  0.61878500  0.52042800  0.64005500  1
  Na  Na39  1  0.38121500  0.47957200  0.35994500  1
  Na  Na40  1  0.91090000  0.37947500  0.86923000  1
  Na  Na41  1  0.08910000  0.62052500  0.13077000  1
  Na  Na42  1  0.89629900  0.87473400  0.59956200  1
  Na  Na43  1  0.10370100  0.12526600  0.40043800  1
  Na  Na44  1  0.60321200  0.29271300  0.57856600  1
  Na  Na45  1  0.39678800  0.70728700  0.42143400  1
  Na  Na46  1  0.07737900  0.64682300  0.62356200  1
  Na  Na47  1  0.92262100  0.35317700  0.37643800  1
  Si  Si0  1  0.44226200  0.25396000  0.81558100  1
  Si  Si1  1  0.55773800  0.74604000  0.18441900  1
  Si  Si2  1  0.56090700  0.24971200  0.94827300  1
  Si  Si3  1  0.43909300  0.75028800  0.05172700  1
  Si  Si4  1  0.06281400  0.89218400  0.86781500  1
  Si  Si5  1  0.93718600  0.10781600  0.13218500  1
  Si  Si6  1  0.93750400  0.62865600  0.87583800  1
  Si  Si7  1  0.06249600  0.37134400  0.12416200  1
  Si  Si8  1  0.55965600  0.74783100  0.68449300  1
  Si  Si9  1  0.44034400  0.25216900  0.31550700  1
  Si  Si10  1  0.43386200  0.75338600  0.55089100  1
  Si  Si11  1  0.56613800  0.24661400  0.44910900  1
  Si  Si12  1  0.93959800  0.12522600  0.62590100  1
  Si  Si13  1  0.06040200  0.87477400  0.37409900  1
  Si  Si14  1  0.06582500  0.39442200  0.62996900  1
  Si  Si15  1  0.93417500  0.60557800  0.37003100  1
  O  O0  1  0.54344500  0.15173300  0.77351600  1
  O  O1  1  0.45655500  0.84826700  0.22648400  1
  O  O2  1  0.16580200  0.27096900  0.81234500  1
  O  O3  1  0.83419800  0.72903100  0.18765500  1
  O  O4  1  0.57647000  0.37394400  0.80607000  1
  O  O5  1  0.42353000  0.62605600  0.19393000  1
  O  O6  1  0.49269700  0.20355300  0.88243500  1
  O  O7  1  0.50730300  0.79644700  0.11756500  1
  O  O8  1  0.45279000  0.15238000  0.99155800  1
  O  O9  1  0.54721000  0.84762000  0.00844200  1
  O  O10  1  0.83809000  0.25642600  0.95006000  1
  O  O11  1  0.16191000  0.74357400  0.04994000  1
  O  O12  1  0.43927000  0.37404300  0.96085300  1
  O  O13  1  0.56073000  0.62595700  0.03914700  1
  O  O14  1  0.91398700  0.90524400  0.80920200  1
  O  O15  1  0.08601300  0.09475600  0.19079800  1
  O  O16  1  0.33452700  0.90773000  0.85334800  1
  O  O17  1  0.66547300  0.09227000  0.14665200  1
  O  O18  1  0.96944100  0.97731900  0.91880200  1
  O  O19  1  0.03055900  0.02268100  0.08119800  1
  O  O20  1  0.04174300  0.75773600  0.89415400  1
  O  O21  1  0.95825700  0.24226400  0.10584600  1
  O  O22  1  0.05422500  0.58489400  0.81569500  1
  O  O23  1  0.94577500  0.41510600  0.18430500  1
  O  O24  1  0.01748200  0.54621700  0.92870300  1
  O  O25  1  0.98251800  0.45378300  0.07129700  1
  O  O26  1  0.66054100  0.64217600  0.87254800  1
  O  O27  1  0.33945900  0.35782400  0.12745200  1
  O  O28  1  0.83695800  0.75671900  0.67863300  1
  O  O29  1  0.16304200  0.24328100  0.32136700  1
  O  O30  1  0.44198700  0.86856800  0.70602700  1
  O  O31  1  0.55801300  0.13143200  0.29397300  1
  O  O32  1  0.47480600  0.64219000  0.72522500  1
  O  O33  1  0.52519400  0.35781000  0.27477500  1
  O  O34  1  0.46274700  0.70870900  0.61930400  1
  O  O35  1  0.53725300  0.29129100  0.38069600  1
  O  O36  1  0.16000000  0.77340300  0.54282700  1
  O  O37  1  0.84000000  0.22659700  0.45717300  1
  O  O38  1  0.57347400  0.87254900  0.54210200  1
  O  O39  1  0.42652600  0.12745100  0.45789800  1
  O  O40  1  0.53541300  0.65224600  0.50899100  1
  O  O41  1  0.46458700  0.34775400  0.49100900  1
  O  O42  1  0.06236000  0.09707800  0.68657100  1
  O  O43  1  0.93764000  0.90292200  0.31342900  1
  O  O44  1  0.66286500  0.11288300  0.62916100  1
  O  O45  1  0.33713500  0.88711700  0.37083900  1
  O  O46  1  0.05423300  0.05116900  0.57288900  1
  O  O47  1  0.94576700  0.94883100  0.42711100  1
  O  O48  1  0.98510400  0.26346900  0.60823700  1
  O  O49  1  0.01489600  0.73653100  0.39176300  1
  O  O50  1  0.34210300  0.38771700  0.63752100  1
  O  O51  1  0.65789700  0.61228300  0.36247900  1
  O  O52  1  0.93557500  0.42808000  0.69015000  1
  O  O53  1  0.06442500  0.57192000  0.30985000  1
  O  O54  1  0.97350300  0.47879900  0.57855800  1
  O  O55  1  0.02649700  0.52120100  0.42144200  1
loop_
_geom_bond_atom_site_label_1
_geom_bond_atom_site_label_2
_geom_bond_distance
_geom_bond_site_symmetry_2
Na0 O42 2.341178 1_555
Na0 O30 2.378691 1_545
Na0 O0 2.469284 1_555
Na0 O16 2.479418 1_545
Na0 O14 2.542731 1_445
Na1 O43 2.341178 1_555
Na1 O31 2.378691 1_565
Na1 O1 2.469284 1_555
Na1 O17 2.479418 1_565
Na1 O15 2.542731 1_665
Na2 O44 2.298402 1_565
Na2 O30 2.371076 1_555
Na2 O46 2.401029 1_565
Na2 O38 2.539481 1_555
Na2 O42 2.706544 1_565
Na3 O45 2.298402 1_545
Na3 O31 2.371076 1_555
Na3 O47 2.401029 1_545
Na3 O39 2.539481 1_555
Na3 O43 2.706544 1_545
Na4 O14 2.392191 1_555
Na4 O42 2.409217 1_665
Na4 O30 2.415487 1_555
Na4 O0 2.428552 1_565
Na4 O44 2.737559 1_565
Na5 O15 2.392191 1_555
Na5 O43 2.409217 1_445
Na5 O31 2.415487 1_555
Na5 O1 2.428552 1_545
Na5 O45 2.737559 1_545
Na6 O16 2.278236 1_545
Na6 O6 2.310712 1_555
Na6 O14 2.417313 1_545
Na6 O18 2.477781 1_545
Na6 O0 2.559589 1_555
Na7 O17 2.278236 1_565
Na7 O7 2.310712 1_555
Na7 O15 2.417313 1_565
Na7 O19 2.477781 1_565
Na7 O1 2.559589 1_555
Na8 O24 2.307656 1_655
Na8 O25 2.319944 1_556
Na8 O13 2.345946 1_556
Na8 O12 2.347277 1_555
Na8 O10 2.785972 1_555
Na9 O25 2.307656 1_455
Na9 O24 2.319944 1_554
Na9 O12 2.345946 1_554
Na9 O13 2.347277 1_555
Na9 O11 2.785972 1_555
Na10 O39 2.363714 1_565
Na10 O46 2.388512 1_565
Na10 O47 2.431403 1_455
Na10 O38 2.432412 1_555
Na10 O36 2.541521 1_555
Na11 O38 2.363714 1_545
Na11 O47 2.388512 1_545
Na11 O46 2.431403 1_655
Na11 O39 2.432412 1_555
Na11 O37 2.541521 1_555
Na12 O22 2.330361 1_555
Na12 O32 2.427175 1_555
Na12 O52 2.441925 1_455
Na12 O4 2.586063 1_555
Na12 O50 2.845382 1_555
Na12 O2 2.854899 1_555
Na13 O23 2.330361 1_555
Na13 O33 2.427175 1_555
Na13 O53 2.441925 1_655
Na13 O5 2.586063 1_555
Na13 O51 2.845382 1_555
Na13 O3 2.854899 1_555
Na14 O26 2.363044 1_555
Na14 O12 2.435312 1_555
Na14 O4 2.453084 1_555
Na14 O24 2.525166 1_555
Na14 O22 2.660718 1_555
Na15 O27 2.363044 1_555
Na15 O13 2.435312 1_555
Na15 O5 2.453084 1_555
Na15 O25 2.525166 1_555
Na15 O23 2.660718 1_555
Na16 O2 2.303822 1_655
Na16 O52 2.398016 1_555
Na16 O0 2.447832 1_555
Na16 O42 2.576438 1_655
Na16 O4 2.603956 1_555
Na17 O3 2.303822 1_455
Na17 O53 2.398016 1_555
Na17 O1 2.447832 1_555
Na17 O43 2.576438 1_455
Na17 O5 2.603956 1_555
Na18 O40 2.296633 1_555
Na18 O55 2.344842 1_655
Na18 O54 2.380763 1_555
Na18 O41 2.423008 1_555
Na19 O41 2.296633 1_555
Na19 O54 2.344842 1_455
Na19 O55 2.380763 1_555
Na19 O40 2.423008 1_555
Na20 O19 2.318534 1_566
Na20 O8 2.352692 1_565
Na20 O9 2.355337 1_556
Na20 O18 2.539791 1_455
Na21 O18 2.318534 1_544
Na21 O9 2.352692 1_545
Na21 O8 2.355337 1_554
Na21 O19 2.539791 1_655
Na22 O11 2.255775 1_656
Na22 O20 2.406240 1_655
Na22 O9 2.438385 1_556
Na22 O13 2.508525 1_556
Na22 O24 2.629520 1_655
Na23 O10 2.255775 1_454
Na23 O21 2.406240 1_455
Na23 O8 2.438385 1_554
Na23 O12 2.508525 1_554
Na23 O25 2.629520 1_455
Na24 O0 2.332503 1_555
Na24 O44 2.351968 1_555
Na24 O42 2.382597 1_555
Na24 O50 2.383082 1_555
Na25 O1 2.332503 1_555
Na25 O45 2.351968 1_555
Na25 O43 2.382597 1_555
Na25 O51 2.383082 1_555
Na26 O28 2.374716 1_455
Na26 O22 2.445007 1_555
Na26 O14 2.522027 1_455
Na26 O32 2.538432 1_555
Na26 O30 2.648185 1_555
Na27 O29 2.374716 1_655
Na27 O23 2.445007 1_555
Na27 O15 2.522027 1_655
Na27 O33 2.538432 1_555
Na27 O31 2.648185 1_555
Na28 O32 2.285243 1_555
Na28 O4 2.289028 1_555
Na28 O22 2.293243 1_655
Na28 O52 2.349458 1_555
Na29 O33 2.285243 1_555
Na29 O5 2.289028 1_555
Na29 O23 2.293243 1_455
Na29 O53 2.349458 1_555
Na30 O36 2.279140 1_655
Na30 O49 2.342226 1_655
Na30 O40 2.442076 1_555
Na30 O38 2.459560 1_555
Na30 O47 2.525027 1_555
Na31 O37 2.279140 1_455
Na31 O48 2.342226 1_455
Na31 O41 2.442076 1_555
Na31 O39 2.459560 1_555
Na31 O46 2.525027 1_555
Na32 O26 2.273109 1_555
Na32 O9 2.350264 1_556
Na32 O20 2.407014 1_555
Na32 O16 2.412846 1_555
Na33 O27 2.273109 1_555
Na33 O8 2.350264 1_554
Na33 O21 2.407014 1_555
Na33 O17 2.412846 1_555
Na34 O18 2.271387 1_445
Na34 O10 2.311586 1_455
Na34 O6 2.388043 1_555
Na34 O2 2.444151 1_555
Na35 O19 2.271387 1_665
Na35 O11 2.311586 1_655
Na35 O7 2.388043 1_555
Na35 O3 2.444151 1_555
Na36 O26 2.323525 1_555
Na36 O16 2.336994 1_555
Na36 O14 2.447592 1_555
Na36 O32 2.597468 1_555
Na36 O30 2.666142 1_555
Na37 O27 2.323525 1_555
Na37 O17 2.336994 1_555
Na37 O15 2.447592 1_555
Na37 O33 2.597468 1_555
Na37 O31 2.666142 1_555
Na38 O50 2.278285 1_555
Na38 O34 2.424431 1_555
Na38 O52 2.454008 1_555
Na38 O54 2.552336 1_555
Na38 O32 2.581515 1_555
Na39 O51 2.278285 1_555
Na39 O35 2.424431 1_555
Na39 O53 2.454008 1_555
Na39 O55 2.552336 1_555
Na39 O33 2.581515 1_555
Na40 O2 2.346763 1_655
Na40 O10 2.411935 1_555
Na40 O4 2.490928 1_555
Na40 O24 2.508249 1_655
Na40 O22 2.845231 1_655
Na41 O3 2.346763 1_455
Na41 O11 2.411935 1_555
Na41 O5 2.490928 1_555
Na41 O25 2.508249 1_455
Na41 O23 2.845231 1_455
Na42 O28 2.331874 1_555
Na42 O36 2.333927 1_655
Na42 O38 2.353564 1_555
Na42 O46 2.361775 1_665
Na43 O29 2.331874 1_555
Na43 O37 2.333927 1_455
Na43 O39 2.353564 1_555
Na43 O47 2.361775 1_445
Na44 O41 2.309395 1_555
Na44 O50 2.317966 1_555
Na44 O48 2.384218 1_555
Na44 O44 2.436293 1_555
Na45 O40 2.309395 1_555
Na45 O51 2.317966 1_555
Na45 O49 2.384218 1_555
Na45 O45 2.436293 1_555
Na46 O28 2.280247 1_455
Na46 O54 2.340807 1_455
Na46 O34 2.395606 1_555
Na46 O36 2.445772 1_555
Na47 O29 2.280247 1_655
Na47 O55 2.340807 1_655
Na47 O35 2.395606 1_555
Na47 O37 2.445772 1_555
O0 Si0 1.651296 1_555
O1 Si1 1.651296 1_555
O2 Si0 1.638279 1_555
O3 Si1 1.638279 1_555
O4 Si0 1.640044 1_555
O5 Si1 1.640044 1_555
O6 Si2 1.698994 1_555
O6 Si0 1.702229 1_555
O7 Si3 1.698994 1_555
O7 Si1 1.702229 1_555
O8 Si2 1.651370 1_555
O9 Si3 1.651370 1_555
O10 Si2 1.636210 1_555
O11 Si3 1.636210 1_555
O12 Si2 1.636870 1_555
O13 Si3 1.636870 1_555
O14 Si4 1.650566 1_655
O15 Si5 1.650566 1_455
O16 Si4 1.641175 1_555
O17 Si5 1.641175 1_555
O18 Si4 1.641484 1_655
O19 Si5 1.641484 1_455
O20 Si4 1.696066 1_555
O20 Si6 1.706701 1_455
O21 Si5 1.696066 1_555
O21 Si7 1.706701 1_655
O22 Si6 1.636788 1_455
O23 Si7 1.636788 1_655
O24 Si6 1.638488 1_455
O25 Si7 1.638488 1_655
O26 Si6 1.637700 1_555
O27 Si7 1.637700 1_555
O28 Si8 1.640193 1_555
O29 Si9 1.640193 1_555
O30 Si8 1.641296 1_555
O31 Si9 1.641296 1_555
O32 Si8 1.639499 1_555
O33 Si9 1.639499 1_555
O34 Si10 1.695870 1_555
O34 Si8 1.712374 1_555
O35 Si11 1.695870 1_555
O35 Si9 1.712374 1_555
O36 Si10 1.638573 1_555
O37 Si11 1.638573 1_555
O38 Si10 1.645871 1_555
O39 Si11 1.645871 1_555
O40 Si10 1.640521 1_555
O41 Si11 1.640521 1_555
O42 Si12 1.638412 1_455
O43 Si13 1.638412 1_655
O44 Si12 1.638125 1_555
O45 Si13 1.638125 1_555
O46 Si12 1.646197 1_455
O47 Si13 1.646197 1_655
O48 Si12 1.696444 1_555
O48 Si14 1.702038 1_655
O49 Si13 1.696444 1_555
O49 Si15 1.702038 1_455
O50 Si14 1.639464 1_555
O51 Si15 1.639464 1_555
O52 Si14 1.638506 1_655
O53 Si15 1.638506 1_455
O54 Si14 1.648945 1_655
O55 Si15 1.648945 1_455
