# generated using pymatgen
data_BRh
_symmetry_space_group_name_H-M   'P 1'
_cell_length_a   2.98185236
_cell_length_b   2.98185236
_cell_length_c   5.55558200
_cell_angle_alpha   90.00000000
_cell_angle_beta   90.00000000
_cell_angle_gamma   120.00000803
_symmetry_Int_Tables_number   1
_chemical_formula_structural   BRh
_chemical_formula_sum   'B2 Rh2'
_cell_volume   42.77917769
_cell_formula_units_Z   2
loop_
 _symmetry_equiv_pos_site_id
 _symmetry_equiv_pos_as_xyz
  1  'x, y, z'
loop_
 _atom_site_type_symbol
 _atom_site_label
 _atom_site_symmetry_multiplicity
 _atom_site_fract_x
 _atom_site_fract_y
 _atom_site_fract_z
 _atom_site_occupancy
  B  B0  1  0.33333300  0.66666700  0.25000000  1
  B  B1  1  0.66666700  0.33333300  0.75000000  1
  Rh  Rh0  1  0.00000000  0.00000000  0.50000000  1
  Rh  Rh1  1  0.00000000  0.00000000  0.00000000  1
loop_
_geom_bond_atom_site_label_1
_geom_bond_atom_site_label_2
_geom_bond_distance
_geom_bond_site_symmetry_2
B0 Rh1 2.211976 1_565
B0 Rh0 2.211976 1_565
B0 Rh1 2.211978 1_555
B0 Rh0 2.211978 1_665
B0 Rh0 2.211978 1_555
B0 Rh1 2.211978 1_665
B1 Rh0 2.211976 1_655
B1 Rh1 2.211976 1_656
B1 Rh1 2.211978 1_556
B1 Rh0 2.211978 1_665
B1 Rh0 2.211978 1_555
B1 Rh1 2.211978 1_666
