# generated using pymatgen
data_LiVPO5
_symmetry_space_group_name_H-M   'P 1'
_cell_length_a   5.11385894
_cell_length_b   5.96902103
_cell_length_c   8.01284319
_cell_angle_alpha   111.75529656
_cell_angle_beta   79.86210944
_cell_angle_gamma   90.19019576
_symmetry_Int_Tables_number   1
_chemical_formula_structural   LiVPO5
_chemical_formula_sum   'Li2 V2 P2 O10'
_cell_volume   223.10880439
_cell_formula_units_Z   2
loop_
 _symmetry_equiv_pos_site_id
 _symmetry_equiv_pos_as_xyz
  1  'x, y, z'
loop_
 _atom_site_type_symbol
 _atom_site_label
 _atom_site_symmetry_multiplicity
 _atom_site_fract_x
 _atom_site_fract_y
 _atom_site_fract_z
 _atom_site_occupancy
  Li  Li0  1  0.05214400  0.86185200  0.72484400  1
  Li  Li1  1  0.94304900  0.13624500  0.27567400  1
  V  V0  1  0.50069300  0.78089000  0.99813500  1
  V  V1  1  0.50022700  0.24155800  0.00452400  1
  P  P0  1  0.72188700  0.35824600  0.71875300  1
  P  P1  1  0.27936100  0.64309600  0.28158600  1
  O  O0  1  0.33423300  0.91651000  0.88847000  1
  O  O1  1  0.67042200  0.03140200  0.10713300  1
  O  O2  1  0.42210800  0.42086900  0.83766500  1
  O  O3  1  0.58015200  0.59017300  0.16723900  1
  O  O4  1  0.75570000  0.27543900  0.51722100  1
  O  O5  1  0.23775500  0.75611600  0.48338000  1
  O  O6  1  0.82247700  0.17402000  0.79460200  1
  O  O7  1  0.82079400  0.62223900  0.81346500  1
  O  O8  1  0.17783200  0.38059600  0.20139300  1
  O  O9  1  0.18116400  0.81075100  0.18591700  1
loop_
_geom_bond_atom_site_label_1
_geom_bond_atom_site_label_2
_geom_bond_distance
_geom_bond_site_symmetry_2
Li0 O5 1.869505 1_555
Li0 O6 2.043337 1_465
Li0 O0 2.062050 1_555
Li0 O7 2.096539 1_455
Li1 O4 1.874762 1_555
Li1 O1 2.046882 1_555
Li1 O8 2.074482 1_655
Li1 O9 2.108645 1_645
O0 V0 1.716780 1_555
O0 V1 2.068640 1_566
O1 V0 1.744211 1_544
O1 V1 2.007686 1_555
O2 P0 1.619672 1_555
O2 V1 2.084330 1_556
O2 V0 2.135598 1_555
O3 P1 1.611795 1_555
O3 V1 2.089943 1_555
O3 V0 2.153473 1_554
O4 P0 1.480716 1_555
O5 P1 1.478553 1_555
O6 P0 1.566032 1_555
O6 V1 2.057549 1_556
O7 P0 1.599441 1_555
O7 V0 1.970995 1_555
O8 P1 1.582166 1_555
O8 V1 2.004597 1_555
O9 P1 1.596501 1_555
O9 V0 1.975708 1_554
