# generated using pymatgen
data_Sr2(PPd)3
_symmetry_space_group_name_H-M   'P 1'
_cell_length_a   4.19829243
_cell_length_b   4.24892203
_cell_length_c   34.34164867
_cell_angle_alpha   90.00000000
_cell_angle_beta   90.00000000
_cell_angle_gamma   90.00000000
_symmetry_Int_Tables_number   1
_chemical_formula_structural   Sr2(PPd)3
_chemical_formula_sum   'Sr8 P12 Pd12'
_cell_volume   612.59378778
_cell_formula_units_Z   4
loop_
 _symmetry_equiv_pos_site_id
 _symmetry_equiv_pos_as_xyz
  1  'x, y, z'
loop_
 _atom_site_type_symbol
 _atom_site_label
 _atom_site_symmetry_multiplicity
 _atom_site_fract_x
 _atom_site_fract_y
 _atom_site_fract_z
 _atom_site_occupancy
  Sr  Sr0  1  -0.00000000  0.00000000  0.42723496  1
  Sr  Sr1  1  0.50000000  -0.00000000  0.67762849  1
  Sr  Sr2  1  0.50000000  0.00000000  0.32237151  1
  Sr  Sr3  1  -0.00000000  0.50000000  0.17720972  1
  Sr  Sr4  1  0.50000000  0.50000000  0.92739783  1
  Sr  Sr5  1  0.50000000  0.50000000  0.07260217  1
  Sr  Sr6  1  -0.00000000  0.50000000  0.82279028  1
  Sr  Sr7  1  -0.00000000  0.00000000  0.57276504  1
  P  P0  1  -0.00000000  0.00000000  0.95995801  1
  P  P1  1  0.50000000  0.50000000  0.54013234  1
  P  P2  1  0.50000000  0.50000000  0.45986766  1
  P  P3  1  0.50000000  0.00000000  0.21124802  1
  P  P4  1  0.00000000  0.50000000  0.28838984  1
  P  P5  1  -0.00000000  0.50000000  0.71161016  1
  P  P6  1  0.50000000  -0.00000000  0.85438237  1
  P  P7  1  0.50000000  0.00000000  0.78875198  1
  P  P8  1  -0.00000000  0.50000000  0.64595249  1
  P  P9  1  -0.00000000  0.50000000  0.35404751  1
  P  P10  1  0.50000000  0.00000000  0.14561763  1
  P  P11  1  -0.00000000  -0.00000000  0.04004199  1
  Pd  Pd0  1  -0.00000000  -0.00000000  0.89009780  1
  Pd  Pd1  1  -0.00000000  -0.00000000  0.10990220  1
  Pd  Pd2  1  -0.00000000  0.00000000  0.75084380  1
  Pd  Pd3  1  0.50000000  0.50000000  0.38988015  1
  Pd  Pd4  1  0.50000000  0.50000000  0.61011985  1
  Pd  Pd5  1  -0.00000000  0.00000000  0.24915620  1
  Pd  Pd6  1  0.00000000  0.50000000  0.50000000  1
  Pd  Pd7  1  0.50000000  0.50000000  0.25047166  1
  Pd  Pd8  1  0.50000000  0.00000000  0.00000000  1
  Pd  Pd9  1  0.50000000  0.50000000  0.74952834  1
  Pd  Pd10  1  0.50000000  0.00000000  0.50000000  1
  Pd  Pd11  1  0.00000000  0.50000000  0.00000000  1
loop_
_geom_bond_atom_site_label_1
_geom_bond_atom_site_label_2
_geom_bond_distance
_geom_bond_site_symmetry_2
P0 Pd0 2.399115 1_555
P0 Pd8 2.509449 1_556
P0 Pd8 2.509449 1_456
P0 Pd11 2.530663 1_556
P0 Pd11 2.530663 1_546
P0 Sr4 3.189052 1_445
P0 Sr4 3.189052 1_545
P0 Sr4 3.189052 1_455
P0 Sr4 3.189052 1_555
P1 Pd4 2.403486 1_555
P1 Pd6 2.511151 1_655
P1 Pd6 2.511151 1_555
P1 Pd10 2.532351 1_555
P1 Pd10 2.532351 1_565
P1 Sr7 3.189926 1_555
P1 Sr7 3.189926 1_565
P1 Sr7 3.189926 1_655
P1 Sr7 3.189926 1_665
P2 Pd3 2.403486 1_555
P2 Pd6 2.511151 1_655
P2 Pd6 2.511151 1_555
P2 Pd10 2.532351 1_555
P2 Pd10 2.532351 1_565
P2 Sr0 3.189926 1_555
P2 Sr0 3.189926 1_665
P2 Sr0 3.189926 1_655
P2 Sr0 3.189926 1_565
P3 Pd5 2.470056 1_555
P3 Pd5 2.470056 1_655
P3 Pd7 2.515503 1_545
P3 Pd7 2.515503 1_555
P3 Sr3 3.207203 1_545
P3 Sr3 3.207203 1_645
P3 Sr3 3.207203 1_555
P3 Sr3 3.207203 1_655
P4 P9 2.254793 1_555
P4 Pd7 2.470237 1_555
P4 Pd7 2.470237 1_455
P4 Pd5 2.515687 1_565
P4 Pd5 2.515687 1_555
P4 Sr2 3.206495 1_465
P4 Sr2 3.206495 1_455
P4 Sr2 3.206495 1_565
P4 Sr2 3.206495 1_555
P5 P8 2.254793 1_555
P5 Pd9 2.470237 1_455
P5 Pd9 2.470237 1_555
P5 Pd2 2.515687 1_555
P5 Pd2 2.515687 1_565
P5 Sr1 3.206495 1_465
P5 Sr1 3.206495 1_555
P5 Sr1 3.206495 1_455
P5 Sr1 3.206495 1_565
P6 P7 2.253856 1_555
P6 Pd0 2.431210 1_555
P6 Pd0 2.431210 1_655
P6 Sr6 3.177548 1_555
P6 Sr6 3.177548 1_655
P6 Sr6 3.177548 1_545
P6 Sr6 3.177548 1_645
P6 Sr4 3.286449 1_545
P6 Sr4 3.286449 1_555
P7 Pd2 2.470056 1_655
P7 Pd2 2.470056 1_555
P7 Pd9 2.515503 1_555
P7 Pd9 2.515503 1_545
P7 Sr6 3.207203 1_655
P7 Sr6 3.207203 1_545
P7 Sr6 3.207203 1_645
P7 Sr6 3.207203 1_555
P8 Pd4 2.433243 1_555
P8 Pd4 2.433243 1_455
P8 Sr1 3.178533 1_565
P8 Sr1 3.178533 1_465
P8 Sr1 3.178533 1_555
P8 Sr1 3.178533 1_455
P8 Sr7 3.290958 1_555
P8 Sr7 3.290958 1_565
P9 Pd3 2.433243 1_455
P9 Pd3 2.433243 1_555
P9 Sr2 3.178533 1_565
P9 Sr2 3.178533 1_465
P9 Sr2 3.178533 1_455
P9 Sr2 3.178533 1_555
P9 Sr0 3.290958 1_555
P9 Sr0 3.290958 1_565
P10 P3 2.253856 1_555
P10 Pd1 2.431210 1_655
P10 Pd1 2.431210 1_555
P10 Sr3 3.177548 1_545
P10 Sr3 3.177548 1_645
P10 Sr3 3.177548 1_555
P10 Sr3 3.177548 1_655
P10 Sr5 3.286449 1_545
P10 Sr5 3.286449 1_555
P11 Pd1 2.399115 1_555
P11 Pd8 2.509449 1_555
P11 Pd8 2.509449 1_455
P11 Pd11 2.530663 1_555
P11 Pd11 2.530663 1_545
P11 Sr5 3.189052 1_455
P11 Sr5 3.189052 1_555
P11 Sr5 3.189052 1_545
P11 Sr5 3.189052 1_445
Pd0 Sr6 3.139449 1_555
Pd0 Sr6 3.139449 1_545
Pd0 Sr4 3.249703 1_555
Pd0 Sr4 3.249703 1_445
Pd0 Sr4 3.249703 1_455
Pd0 Sr4 3.249703 1_545
Pd1 Sr3 3.139449 1_555
Pd1 Sr3 3.139449 1_545
Pd1 Sr5 3.249703 1_445
Pd1 Sr5 3.249703 1_545
Pd1 Sr5 3.249703 1_455
Pd1 Sr5 3.249703 1_555
Pd2 Sr6 3.258526 1_545
Pd2 Sr6 3.258526 1_555
Pd2 Sr1 3.275407 1_555
Pd2 Sr1 3.275407 1_455
Pd3 Sr2 3.144538 1_565
Pd3 Sr2 3.144538 1_555
Pd3 Sr0 3.250445 1_665
Pd3 Sr0 3.250445 1_655
Pd3 Sr0 3.250445 1_565
Pd3 Sr0 3.250445 1_555
Pd4 Sr1 3.144538 1_565
Pd4 Sr1 3.144538 1_555
Pd4 Sr7 3.250445 1_565
Pd4 Sr7 3.250445 1_655
Pd4 Sr7 3.250445 1_665
Pd4 Sr7 3.250445 1_555
Pd5 Sr3 3.258526 1_545
Pd5 Sr3 3.258526 1_555
Pd5 Sr2 3.275407 1_455
Pd5 Sr2 3.275407 1_555
Pd6 Sr0 3.279892 1_555
Pd6 Sr0 3.279892 1_565
Pd6 Sr7 3.279892 1_565
Pd6 Sr7 3.279892 1_555
Pd7 Sr2 3.257312 1_565
Pd7 Sr2 3.257312 1_555
Pd7 Sr3 3.276637 1_655
Pd7 Sr3 3.276637 1_555
Pd8 Sr5 3.275633 1_545
Pd8 Sr5 3.275633 1_555
Pd8 Sr4 3.275633 1_544
Pd8 Sr4 3.275633 1_554
Pd9 Sr1 3.257312 1_565
Pd9 Sr1 3.257312 1_555
Pd9 Sr6 3.276637 1_555
Pd9 Sr6 3.276637 1_655
Pd10 Pd6 2.986595 1_555
Pd10 Pd6 2.986595 1_655
Pd10 Pd6 2.986595 1_645
Pd10 Pd6 2.986595 1_545
Pd10 Sr0 3.263552 1_655
Pd10 Sr0 3.263552 1_555
Pd10 Sr7 3.263552 1_655
Pd10 Sr7 3.263552 1_555
Pd11 Sr5 3.259272 1_455
Pd11 Sr5 3.259272 1_555
Pd11 Sr4 3.259272 1_454
Pd11 Sr4 3.259272 1_554
