# generated using pymatgen
data_CaC2
_symmetry_space_group_name_H-M   'P 1'
_cell_length_a   3.53789617
_cell_length_b   3.53789617
_cell_length_c   3.53789642
_cell_angle_alpha   86.90081627
_cell_angle_beta   86.90081627
_cell_angle_gamma   86.90082215
_symmetry_Int_Tables_number   1
_chemical_formula_structural   CaC2
_chemical_formula_sum   'Ca1 C2'
_cell_volume   44.09526553
_cell_formula_units_Z   1
loop_
 _symmetry_equiv_pos_site_id
 _symmetry_equiv_pos_as_xyz
  1  'x, y, z'
loop_
 _atom_site_type_symbol
 _atom_site_label
 _atom_site_symmetry_multiplicity
 _atom_site_fract_x
 _atom_site_fract_y
 _atom_site_fract_z
 _atom_site_occupancy
  Ca  Ca0  1  0.00000000  0.00000000  0.00000000  1
  C  C0  1  0.59820200  0.59820200  0.59820200  1
  C  C1  1  0.40179800  0.40179800  0.40179800  1
loop_
_geom_bond_atom_site_label_1
_geom_bond_atom_site_label_2
_geom_bond_distance
_geom_bond_site_symmetry_2
C0 C1 1.266926 1_555
C0 Ca0 2.591843 1_666
C0 Ca0 2.844007 1_665
C0 Ca0 2.844007 1_656
C0 Ca0 2.844007 1_566
C1 Ca0 2.591843 1_555
C1 Ca0 2.844007 1_556
C1 Ca0 2.844007 1_565
C1 Ca0 2.844007 1_655
