# generated using pymatgen
data_Ho9Er3(MnBi2)2
_symmetry_space_group_name_H-M   'P 1'
_cell_length_a   4.28130500
_cell_length_b   8.24111289
_cell_length_c   14.26926310
_cell_angle_alpha   90.00325010
_cell_angle_beta   90.00000000
_cell_angle_gamma   90.00000000
_symmetry_Int_Tables_number   1
_chemical_formula_structural   Ho9Er3(MnBi2)2
_chemical_formula_sum   'Ho9 Er3 Mn2 Bi4'
_cell_volume   503.45838291
_cell_formula_units_Z   1
loop_
 _symmetry_equiv_pos_site_id
 _symmetry_equiv_pos_as_xyz
  1  'x, y, z'
loop_
 _atom_site_type_symbol
 _atom_site_label
 _atom_site_symmetry_multiplicity
 _atom_site_fract_x
 _atom_site_fract_y
 _atom_site_fract_z
 _atom_site_occupancy
  Ho  Ho0  1  0.50000000  0.69614200  0.69622800  1
  Ho  Ho1  1  0.50000000  0.69609300  0.30375200  1
  Ho  Ho2  1  0.50000000  0.19612500  0.80377400  1
  Ho  Ho3  1  0.00000000  0.23373700  0.00008200  1
  Ho  Ho4  1  0.00000000  0.73374800  0.49999600  1
  Ho  Ho5  1  0.00000000  0.38298400  0.38350600  1
  Ho  Ho6  1  0.00000000  0.88303500  0.88357500  1
  Ho  Ho7  1  0.00000000  0.88313900  0.11650500  1
  Ho  Ho8  1  0.00000000  0.38299500  0.61646500  1
  Er  Er0  1  0.50000000  0.10804200  0.49998100  1
  Er  Er1  1  0.50000000  0.60807400  0.99999400  1
  Er  Er2  1  0.50000000  0.19593700  0.19608600  1
  Mn  Mn0  1  0.50000000  0.99981400  0.00011000  1
  Mn  Mn1  1  0.50000000  0.49968400  0.50001500  1
  Bi  Bi0  1  0.00000000  0.00018200  0.33320200  1
  Bi  Bi1  1  0.00000000  0.50009200  0.83330000  1
  Bi  Bi2  1  0.00000000  0.49992200  0.16671200  1
  Bi  Bi3  1  0.00000000  0.00005500  0.66671700  1
loop_
_geom_bond_atom_site_label_1
_geom_bond_atom_site_label_2
_geom_bond_distance
_geom_bond_site_symmetry_2
Ho0 Mn1 3.234148 1_555
Ho0 Ho4 3.538223 1_655
Ho0 Ho4 3.538223 1_555
Ho0 Ho8 3.540816 1_555
Ho0 Ho8 3.540816 1_655
Ho0 Ho6 3.755092 1_655
Ho0 Ho6 3.755092 1_555
Ho1 Mn1 3.234723 1_555
Ho1 Ho4 3.538366 1_655
Ho1 Ho4 3.538366 1_555
Ho1 Ho5 3.540640 1_655
Ho1 Ho5 3.540640 1_555
Ho1 Ho7 3.754718 1_655
Ho1 Ho7 3.754718 1_555
Ho2 Mn0 3.235221 1_546
Ho2 Ho3 3.539058 1_656
Ho2 Ho3 3.539058 1_556
Ho2 Ho6 3.540742 1_645
Ho2 Ho6 3.540742 1_545
Ho2 Ho8 3.754752 1_555
Ho2 Ho8 3.754752 1_655
Ho3 Mn0 2.880755 1_445
Ho3 Mn0 2.880755 1_545
Ho3 Ho7 3.332945 1_545
Ho3 Ho6 3.334122 1_544
Ho4 Mn1 2.881533 1_555
Ho4 Mn1 2.881533 1_455
Ho4 Ho8 3.334379 1_555
Ho4 Ho5 3.334444 1_555
Ho5 Mn1 2.875943 1_455
Ho5 Mn1 2.875943 1_555
Ho5 Ho8 3.324153 1_555
Ho6 Mn0 2.876375 1_556
Ho6 Mn0 2.876375 1_456
Ho6 Ho7 3.323740 1_556
Ho7 Mn0 2.874997 1_455
Ho7 Mn0 2.874997 1_555
Ho8 Mn1 2.875489 1_555
Ho8 Mn1 2.875489 1_455
Er0 Mn1 3.227566 1_555
Er0 Ho8 3.532572 1_555
Er0 Ho8 3.532572 1_655
Er0 Ho5 3.532574 1_655
Er0 Ho5 3.532574 1_555
Er0 Ho4 3.754616 1_545
Er0 Ho4 3.754616 1_645
Er1 Mn0 3.228374 1_556
Er1 Ho6 3.532299 1_655
Er1 Ho6 3.532299 1_555
Er1 Ho7 3.533345 1_556
Er1 Ho7 3.533345 1_656
Er1 Ho3 3.754908 1_656
Er1 Ho3 3.754908 1_556
Er2 Mn0 3.229839 1_545
Er2 Ho3 3.535789 1_655
Er2 Ho3 3.535789 1_555
Er2 Ho7 3.537886 1_545
Er2 Ho7 3.537886 1_645
Er2 Ho5 3.756354 1_555
Er2 Ho5 3.756354 1_655
Bi0 Ho5 3.235306 1_555
Bi0 Ho4 3.238252 1_545
Bi0 Ho7 3.239007 1_545
Bi0 Er2 3.318638 1_555
Bi0 Er2 3.318638 1_455
Bi0 Er0 3.322015 1_555
Bi0 Er0 3.322015 1_455
Bi0 Ho1 3.322508 1_445
Bi0 Ho1 3.322508 1_545
Bi1 Ho6 3.236347 1_555
Bi1 Ho3 3.237685 1_556
Bi1 Ho8 3.241020 1_555
Bi1 Ho0 3.319450 1_455
Bi1 Ho0 3.319450 1_555
Bi1 Er1 3.321416 1_455
Bi1 Er1 3.321416 1_555
Bi1 Ho2 3.321887 1_455
Bi1 Ho2 3.321887 1_555
Bi2 Ho3 3.234958 1_555
Bi2 Ho7 3.238414 1_555
Bi2 Ho5 3.240176 1_555
Bi2 Ho1 3.319559 1_555
Bi2 Ho1 3.319559 1_455
Bi2 Er2 3.321761 1_455
Bi2 Er2 3.321761 1_555
Bi2 Er1 3.322109 1_554
Bi2 Er1 3.322109 1_454
Bi3 Ho8 3.236330 1_555
Bi3 Ho4 3.236594 1_545
Bi3 Ho6 3.241249 1_545
Bi3 Ho2 3.319296 1_455
Bi3 Ho2 3.319296 1_555
Bi3 Ho0 3.321561 1_545
Bi3 Ho0 3.321561 1_445
Bi3 Er0 3.321928 1_455
Bi3 Er0 3.321928 1_555
