# generated using pymatgen
data_AlSi3AgO8
_symmetry_space_group_name_H-M   'P 1'
_cell_length_a   7.27958900
_cell_length_b   7.56155950
_cell_length_c   7.86335366
_cell_angle_alpha   115.16573446
_cell_angle_beta   106.78707466
_cell_angle_gamma   100.59955225
_symmetry_Int_Tables_number   1
_chemical_formula_structural   AlSi3AgO8
_chemical_formula_sum   'Al2 Si6 Ag2 O16'
_cell_volume   350.77039045
_cell_formula_units_Z   2
loop_
 _symmetry_equiv_pos_site_id
 _symmetry_equiv_pos_as_xyz
  1  'x, y, z'
loop_
 _atom_site_type_symbol
 _atom_site_label
 _atom_site_symmetry_multiplicity
 _atom_site_fract_x
 _atom_site_fract_y
 _atom_site_fract_z
 _atom_site_occupancy
  Al  Al0  1  0.96758900  0.34974000  0.82142700  1
  Al  Al1  1  0.03241100  0.65026000  0.17857300  1
  Si  Si0  1  0.48275300  0.23091900  0.19605500  1
  Si  Si1  1  0.51724700  0.76908100  0.80394500  1
  Si  Si2  1  0.58762400  0.64418500  0.17460600  1
  Si  Si3  1  0.41237600  0.35581500  0.82539400  1
  Si  Si4  1  0.21180700  0.77380200  0.42400400  1
  Si  Si5  1  0.78819300  0.22619800  0.57599600  1
  Ag  Ag0  1  0.13029400  0.99552500  0.74100700  1
  Ag  Ag1  1  0.86970600  0.00447500  0.25899300  1
  O  O0  1  0.16841900  0.27880900  0.86084300  1
  O  O1  1  0.83158100  0.72119100  0.13915700  1
  O  O2  1  0.61614800  0.73783000  0.95054000  1
  O  O3  1  0.38385200  0.26217000  0.04946000  1
  O  O4  1  0.73604300  0.24881300  0.07515700  1
  O  O5  1  0.26395700  0.75118700  0.92484300  1
  O  O6  1  0.30750500  0.00370300  0.40348900  1
  O  O7  1  0.69249500  0.99629700  0.59651100  1
  O  O8  1  0.43380600  0.72626900  0.31788600  1
  O  O9  1  0.56619400  0.27373100  0.68211400  1
  O  O10  1  0.91039700  0.21334200  0.70166200  1
  O  O11  1  0.08960300  0.78665800  0.29833800  1
  O  O12  1  0.46654200  0.39227800  0.28725600  1
  O  O13  1  0.53345800  0.60772200  0.71274400  1
  O  O14  1  0.05066300  0.61254600  0.66752900  1
  O  O15  1  0.94933700  0.38745400  0.33247100  1
loop_
_geom_bond_atom_site_label_1
_geom_bond_atom_site_label_2
_geom_bond_distance
_geom_bond_site_symmetry_2
Al0 O10 0.955750 1_555
Al0 O0 1.639869 1_655
Al1 O11 0.955750 1_555
Al1 O1 1.639869 1_455
Ag0 O0 1.861983 1_565
Ag0 O14 2.611922 1_555
Ag1 O1 1.861983 1_545
Ag1 O15 2.611922 1_555
O0 Si3 1.901095 1_555
O1 Si2 1.901095 1_555
O2 Si1 1.310662 1_555
O2 Si2 2.206162 1_556
O3 Si0 1.310662 1_555
O3 Si3 2.206162 1_554
O4 Si0 2.313434 1_555
O5 Si1 2.313434 1_555
O6 Si4 1.841546 1_545
O7 Si5 1.841546 1_565
O8 Si2 1.816060 1_555
O8 Si4 2.043206 1_555
O9 Si3 1.816060 1_555
O9 Si5 2.043206 1_555
O10 Si5 1.176019 1_555
O11 Si4 1.176019 1_555
O12 Si0 1.172439 1_555
O13 Si1 1.172439 1_555
O14 O5 1.840186 1_555
O15 O4 1.840186 1_555
