# generated using pymatgen
data_GdCl
_symmetry_space_group_name_H-M   'P 1'
_cell_length_a   3.66833499
_cell_length_b   3.66833499
_cell_length_c   9.53620700
_cell_angle_alpha   90.00000000
_cell_angle_beta   90.00000000
_cell_angle_gamma   119.99998179
_symmetry_Int_Tables_number   1
_chemical_formula_structural   GdCl
_chemical_formula_sum   'Gd2 Cl2'
_cell_volume   111.13333767
_cell_formula_units_Z   2
loop_
 _symmetry_equiv_pos_site_id
 _symmetry_equiv_pos_as_xyz
  1  'x, y, z'
loop_
 _atom_site_type_symbol
 _atom_site_label
 _atom_site_symmetry_multiplicity
 _atom_site_fract_x
 _atom_site_fract_y
 _atom_site_fract_z
 _atom_site_occupancy
  Gd  Gd0  1  0.66666700  0.33333300  0.83176700  1
  Gd  Gd1  1  0.33333300  0.66666700  0.33176700  1
  Cl  Cl0  1  0.66666700  0.33333300  0.54323200  1
  Cl  Cl1  1  0.33333300  0.66666700  0.04323200  1
loop_
_geom_bond_atom_site_label_1
_geom_bond_atom_site_label_2
_geom_bond_distance
_geom_bond_site_symmetry_2
Cl0 Gd0 2.751529 1_555
Cl0 Gd1 2.924401 1_655
Cl0 Gd1 2.924401 1_545
Cl0 Gd1 2.924406 1_555
Cl1 Gd1 2.751529 1_555
Cl1 Gd0 2.924401 1_564
Cl1 Gd0 2.924401 1_454
Cl1 Gd0 2.924406 1_554
