# generated using pymatgen
data_ZrGaCo
_symmetry_space_group_name_H-M   'P 1'
_cell_length_a   6.95635683
_cell_length_b   6.95635683
_cell_length_c   3.30755052
_cell_angle_alpha   90.00000000
_cell_angle_beta   90.00000000
_cell_angle_gamma   119.99999821
_symmetry_Int_Tables_number   1
_chemical_formula_structural   ZrGaCo
_chemical_formula_sum   'Zr3 Ga3 Co3'
_cell_volume   138.61199961
_cell_formula_units_Z   3
loop_
 _symmetry_equiv_pos_site_id
 _symmetry_equiv_pos_as_xyz
  1  'x, y, z'
loop_
 _atom_site_type_symbol
 _atom_site_label
 _atom_site_symmetry_multiplicity
 _atom_site_fract_x
 _atom_site_fract_y
 _atom_site_fract_z
 _atom_site_occupancy
  Zr  Zr0  1  0.40258107  0.40258107  0.50000000  1
  Zr  Zr1  1  0.59741893  0.00000000  0.50000000  1
  Zr  Zr2  1  0.00000000  0.59741893  0.50000000  1
  Ga  Ga0  1  0.73661939  0.73661939  0.00000000  1
  Ga  Ga1  1  0.26338061  -0.00000000  0.00000000  1
  Ga  Ga2  1  -0.00000000  0.26338061  -0.00000000  1
  Co  Co0  1  0.66666700  0.33333300  -0.00000000  1
  Co  Co1  1  0.33333300  0.66666700  0.00000000  1
  Co  Co2  1  0.00000000  -0.00000000  0.50000000  1
loop_
_geom_bond_atom_site_label_1
_geom_bond_atom_site_label_2
_geom_bond_distance
_geom_bond_site_symmetry_2
Ga0 Zr0 2.852106 1_555
Ga0 Zr0 2.852106 1_554
Ga0 Zr1 2.967089 1_565
Ga0 Zr1 2.967089 1_564
Ga0 Zr2 2.967089 1_655
Ga0 Zr2 2.967089 1_654
Ga1 Zr1 2.852106 1_555
Ga1 Zr1 2.852106 1_554
Ga1 Zr0 2.967089 1_555
Ga1 Zr0 2.967089 1_554
Ga1 Zr2 2.967089 1_544
Ga1 Zr2 2.967089 1_545
Ga2 Zr2 2.852106 1_554
Ga2 Zr2 2.852106 1_555
Ga2 Zr0 2.967089 1_555
Ga2 Zr0 2.967089 1_554
Ga2 Zr1 2.967089 1_455
Ga2 Zr1 2.967089 1_454
Co0 Ga2 2.596517 1_655
Co0 Ga1 2.596522 1_555
Co0 Ga0 2.596524 1_555
Co0 Zr1 2.688268 1_555
Co0 Zr1 2.688268 1_554
Co0 Zr2 2.688270 1_654
Co0 Zr2 2.688270 1_655
Co0 Zr0 2.688274 1_555
Co0 Zr0 2.688274 1_554
Co1 Ga1 2.596517 1_565
Co1 Ga2 2.596522 1_555
Co1 Ga0 2.596524 1_555
Co1 Zr2 2.688268 1_554
Co1 Zr2 2.688268 1_555
Co1 Zr1 2.688270 1_565
Co1 Zr1 2.688270 1_564
Co1 Zr0 2.688274 1_554
Co1 Zr0 2.688274 1_555
Co2 Ga2 2.468161 1_556
Co2 Ga1 2.468161 1_556
Co2 Ga2 2.468161 1_555
Co2 Ga1 2.468161 1_555
Co2 Ga0 2.468161 1_446
Co2 Ga0 2.468161 1_445
Co2 Zr2 2.800498 1_545
Co2 Zr1 2.800498 1_455
Co2 Zr0 2.800498 1_555
