# generated using pymatgen
data_GaGe3
_symmetry_space_group_name_H-M   'P 1'
_cell_length_a   5.98503581
_cell_length_b   5.98503581
_cell_length_c   5.03495200
_cell_angle_alpha   90.00000000
_cell_angle_beta   90.00000000
_cell_angle_gamma   119.99999791
_symmetry_Int_Tables_number   1
_chemical_formula_structural   GaGe3
_chemical_formula_sum   'Ga2 Ge6'
_cell_volume   156.19225035
_cell_formula_units_Z   2
loop_
 _symmetry_equiv_pos_site_id
 _symmetry_equiv_pos_as_xyz
  1  'x, y, z'
loop_
 _atom_site_type_symbol
 _atom_site_label
 _atom_site_symmetry_multiplicity
 _atom_site_fract_x
 _atom_site_fract_y
 _atom_site_fract_z
 _atom_site_occupancy
  Ga  Ga0  1  0.33333300  0.66666700  0.75000000  1
  Ga  Ga1  1  0.66666700  0.33333300  0.25000000  1
  Ge  Ge0  1  0.16356200  0.32712400  0.25000000  1
  Ge  Ge1  1  0.67287600  0.83643800  0.25000000  1
  Ge  Ge2  1  0.16356200  0.83643800  0.25000000  1
  Ge  Ge3  1  0.83643800  0.67287600  0.75000000  1
  Ge  Ge4  1  0.32712400  0.16356200  0.75000000  1
  Ge  Ge5  1  0.83643800  0.16356200  0.75000000  1
loop_
_geom_bond_atom_site_label_1
_geom_bond_atom_site_label_2
_geom_bond_distance
_geom_bond_site_symmetry_2
Ga0 Ge3 2.992688 1_455
Ga0 Ge4 2.992688 1_565
Ga0 Ge5 2.992691 1_565
Ga0 Ge5 2.992691 1_455
Ga0 Ge3 2.992694 1_555
Ga0 Ge4 2.992694 1_555
Ga0 Ge2 3.071640 1_556
Ga0 Ge2 3.071640 1_555
Ga0 Ge1 3.071643 1_555
Ga0 Ge1 3.071643 1_556
Ga0 Ge0 3.071643 1_555
Ga0 Ge0 3.071643 1_556
Ga1 Ge1 2.992688 1_545
Ga1 Ge0 2.992688 1_655
Ga1 Ge2 2.992691 1_655
Ga1 Ge2 2.992691 1_545
Ga1 Ge1 2.992694 1_555
Ga1 Ge0 2.992694 1_555
Ga1 Ge5 3.071640 1_555
Ga1 Ge5 3.071640 1_554
Ga1 Ge3 3.071643 1_554
Ga1 Ge3 3.071643 1_555
Ga1 Ge4 3.071643 1_554
Ga1 Ge4 3.071643 1_555
Ge0 Ge2 2.936773 1_545
Ge0 Ge1 2.936773 1_445
Ge0 Ge4 3.035221 1_555
Ge0 Ge4 3.035221 1_554
Ge0 Ge5 3.035221 1_455
Ge0 Ge5 3.035221 1_454
Ge0 Ge2 3.048263 1_555
Ge0 Ge1 3.048263 1_555
Ge1 Ge2 2.936773 1_655
Ge1 Ge3 3.035221 1_555
Ge1 Ge3 3.035221 1_554
Ge1 Ge5 3.035221 1_565
Ge1 Ge5 3.035221 1_564
Ge1 Ge2 3.048263 1_555
Ge2 Ge3 3.035221 1_455
Ge2 Ge3 3.035221 1_454
Ge2 Ge4 3.035221 1_565
Ge2 Ge4 3.035221 1_564
Ge3 Ge5 2.936773 1_565
Ge3 Ge4 2.936773 1_665
Ge3 Ge5 3.048263 1_555
Ge3 Ge4 3.048263 1_555
Ge4 Ge5 2.936773 1_455
Ge4 Ge5 3.048263 1_555
