# generated using pymatgen
data_Li9Mn2Co5O16
_symmetry_space_group_name_H-M   'P 1'
_cell_length_a   5.12521090
_cell_length_b   5.12521090
_cell_length_c   20.76990266
_cell_angle_alpha   81.93890872
_cell_angle_beta   81.93890872
_cell_angle_gamma   32.73583013
_symmetry_Int_Tables_number   1
_chemical_formula_structural   Li9Mn2Co5O16
_chemical_formula_sum   'Li9 Mn2 Co5 O16'
_cell_volume   291.86301779
_cell_formula_units_Z   1
loop_
 _symmetry_equiv_pos_site_id
 _symmetry_equiv_pos_as_xyz
  1  'x, y, z'
loop_
 _atom_site_type_symbol
 _atom_site_label
 _atom_site_symmetry_multiplicity
 _atom_site_fract_x
 _atom_site_fract_y
 _atom_site_fract_z
 _atom_site_occupancy
  Li  Li0  1  0.25088800  0.25088800  0.06316500  1
  Li  Li1  1  0.74771500  0.74771500  0.18623200  1
  Li  Li2  1  0.24837700  0.24837700  0.31868700  1
  Li  Li3  1  0.73591200  0.73591200  0.44548600  1
  Li  Li4  1  0.25957000  0.25957000  0.55638300  1
  Li  Li5  1  0.75743100  0.75743100  0.68706400  1
  Li  Li6  1  0.24987600  0.24987600  0.81075800  1
  Li  Li7  1  0.75269800  0.75269800  0.93241000  1
  Li  Li8  1  0.99969500  0.99969500  0.49993300  1
  Mn  Mn0  1  0.99937000  0.99937000  0.99990900  1
  Mn  Mn1  1  0.00363800  0.00363800  0.25141400  1
  Co  Co0  1  0.49398200  0.49398200  0.12605300  1
  Co  Co1  1  0.48816000  0.48816000  0.38745100  1
  Co  Co2  1  0.51274900  0.51274900  0.61533000  1
  Co  Co3  1  0.99399900  0.99399900  0.74841300  1
  Co  Co4  1  0.50626000  0.50626000  0.87114900  1
  O  O0  1  0.38812200  0.38812200  0.96903900  1
  O  O1  1  0.87373000  0.87373000  0.09799400  1
  O  O2  1  0.39116000  0.39116000  0.22271100  1
  O  O3  1  0.89677200  0.89677200  0.33666200  1
  O  O4  1  0.37565400  0.37565400  0.46359000  1
  O  O5  1  0.89324100  0.89324100  0.59841700  1
  O  O6  1  0.38114700  0.38114700  0.72137400  1
  O  O7  1  0.88752700  0.88752700  0.84362000  1
  O  O8  1  0.10907900  0.10907900  0.16213500  1
  O  O9  1  0.61618400  0.61618400  0.27567200  1
  O  O10  1  0.11358500  0.11358500  0.40264400  1
  O  O11  1  0.62338100  0.62338100  0.53754600  1
  O  O12  1  0.10683200  0.10683200  0.65540400  1
  O  O13  1  0.61313800  0.61313800  0.77909500  1
  O  O14  1  0.12030600  0.12030600  0.90181900  1
  O  O15  1  0.60981900  0.60981900  0.03244000  1
loop_
_geom_bond_atom_site_label_1
_geom_bond_atom_site_label_2
_geom_bond_distance
_geom_bond_site_symmetry_2
Li0 O1 2.079522 1_455
Li0 O1 2.079522 1_545
Li0 O15 2.162632 1_545
Li0 O15 2.162632 1_455
Li0 O0 2.207344 1_554
Li0 O8 2.309248 1_555
Li1 O1 2.056902 1_555
Li1 O8 2.096443 1_565
Li1 O8 2.096443 1_655
Li1 O9 2.102828 1_555
Li1 O2 2.227739 1_655
Li1 O2 2.227739 1_565
Li2 O10 2.030387 1_555
Li2 O3 2.124784 1_455
Li2 O3 2.124784 1_545
Li2 O9 2.216764 1_545
Li2 O9 2.216764 1_455
Li2 O2 2.264381 1_555
Li3 O11 2.064546 1_555
Li3 O4 2.065753 1_655
Li3 O4 2.065753 1_565
Li3 O10 2.153635 1_655
Li3 O10 2.153635 1_565
Li3 O3 2.562510 1_555
Li4 O11 2.046047 1_545
Li4 O11 2.046047 1_455
Li4 O4 2.091592 1_555
Li4 O5 2.216309 1_455
Li4 O5 2.216309 1_545
Li4 O12 2.362903 1_555
Li5 O6 2.080327 1_655
Li5 O6 2.080327 1_565
Li5 O5 2.110733 1_555
Li5 O13 2.207879 1_555
Li5 O12 2.235373 1_655
Li5 O12 2.235373 1_565
Li6 O6 2.100663 1_555
Li6 O14 2.120499 1_555
Li6 O13 2.141391 1_545
Li6 O13 2.141391 1_455
Li6 O7 2.157485 1_545
Li6 O7 2.157485 1_455
Li7 O14 2.104029 1_655
Li7 O14 2.104029 1_565
Li7 O7 2.108199 1_555
Li7 O0 2.175990 1_655
Li7 O0 2.175990 1_565
Li7 O15 2.331893 1_556
Li8 O4 2.100770 1_655
Li8 O4 2.100770 1_565
Li8 O11 2.110416 1_655
Li8 O11 2.110416 1_565
Li8 O5 2.157369 1_555
Li8 O10 2.162453 1_665
Mn0 O0 1.974659 1_565
Mn0 O0 1.974659 1_655
Mn0 O15 1.984201 1_566
Mn0 O15 1.984201 1_656
Mn0 O14 2.203870 1_665
Mn0 O1 2.222904 1_556
Mn1 O3 1.922419 1_445
Mn1 O9 1.930826 1_545
Mn1 O9 1.930826 1_455
Mn1 O2 1.964158 1_545
Mn1 O2 1.964158 1_455
Mn1 O8 1.987912 1_555
Co0 O1 2.006452 1_545
Co0 O1 2.006452 1_455
Co0 O8 2.043769 1_655
Co0 O8 2.043769 1_565
Co0 O15 2.104959 1_555
Co0 O2 2.111770 1_555
Co1 O4 1.792674 1_555
Co1 O10 1.954746 1_655
Co1 O10 1.954746 1_565
Co1 O3 2.069730 1_545
Co1 O3 2.069730 1_455
Co1 O9 2.474047 1_555
Co2 O11 1.811109 1_555
Co2 O5 1.926545 1_545
Co2 O5 1.926545 1_455
Co2 O12 1.964716 1_655
Co2 O12 1.964716 1_565
Co2 O6 2.386012 1_555
Co3 O6 1.953326 1_655
Co3 O6 1.953326 1_565
Co3 O13 2.020728 1_655
Co3 O13 2.020728 1_565
Co3 O12 2.082461 1_665
Co3 O7 2.097982 1_555
Co4 O14 1.989657 1_655
Co4 O14 1.989657 1_565
Co4 O7 1.992919 1_545
Co4 O7 1.992919 1_455
Co4 O13 2.042795 1_555
Co4 O0 2.189345 1_555
