# generated using pymatgen
data_Eu2(MoO4)3
_symmetry_space_group_name_H-M   'P 1'
_cell_length_a   10.61415407
_cell_length_b   10.62031278
_cell_length_c   10.84319710
_cell_angle_alpha   90.00000000
_cell_angle_beta   90.00000000
_cell_angle_gamma   90.00000000
_symmetry_Int_Tables_number   1
_chemical_formula_structural   Eu2(MoO4)3
_chemical_formula_sum   'Eu8 Mo12 O48'
_cell_volume   1222.30629066
_cell_formula_units_Z   4
loop_
 _symmetry_equiv_pos_site_id
 _symmetry_equiv_pos_as_xyz
  1  'x, y, z'
loop_
 _atom_site_type_symbol
 _atom_site_label
 _atom_site_symmetry_multiplicity
 _atom_site_fract_x
 _atom_site_fract_y
 _atom_site_fract_z
 _atom_site_occupancy
  Eu  Eu0  1  0.68955987  0.00257041  0.73586724  1
  Eu  Eu1  1  0.31044013  0.99742959  0.73586724  1
  Eu  Eu2  1  0.81044013  0.50257041  0.73586724  1
  Eu  Eu3  1  0.18955987  0.49742959  0.73586724  1
  Eu  Eu4  1  0.99376309  0.19058036  0.26416224  1
  Eu  Eu5  1  0.00623691  0.80941964  0.26416224  1
  Eu  Eu6  1  0.50623691  0.69058036  0.26416224  1
  Eu  Eu7  1  0.49376309  0.30941964  0.26416224  1
  Mo  Mo0  1  0.70680895  0.01253355  0.35626188  1
  Mo  Mo1  1  0.29319105  0.98746645  0.35626188  1
  Mo  Mo2  1  0.79319105  0.51253355  0.35626188  1
  Mo  Mo3  1  0.20680895  0.48746645  0.35626188  1
  Mo  Mo4  1  0.50267522  0.29262940  0.64360220  1
  Mo  Mo5  1  0.49732478  0.70737060  0.64360220  1
  Mo  Mo6  1  0.99732478  0.79262940  0.64360220  1
  Mo  Mo7  1  0.00267522  0.20737060  0.64360220  1
  Mo  Mo8  1  0.74208174  0.25708509  0.00034270  1
  Mo  Mo9  1  0.25791826  0.74291491  0.00034270  1
  Mo  Mo10  1  0.75791826  0.75708509  0.00034270  1
  Mo  Mo11  1  0.24208174  0.24291491  0.00034270  1
  O  O0  1  0.69489042  0.01553272  0.52046775  1
  O  O1  1  0.30510958  0.98446728  0.52046775  1
  O  O2  1  0.80510958  0.51553272  0.52046775  1
  O  O3  1  0.19489042  0.48446728  0.52046775  1
  O  O4  1  0.65469915  0.16281075  0.30245690  1
  O  O5  1  0.34530085  0.83718925  0.30245690  1
  O  O6  1  0.84530085  0.66281075  0.30245690  1
  O  O7  1  0.15469915  0.33718925  0.30245690  1
  O  O8  1  0.62867184  0.49458520  0.31021054  1
  O  O9  1  0.37132816  0.50541480  0.31021054  1
  O  O10  1  0.87132816  0.99458520  0.31021054  1
  O  O11  1  0.12867184  0.00541480  0.31021054  1
  O  O12  1  0.88390227  0.38614822  0.29459982  1
  O  O13  1  0.11609773  0.61385178  0.29459982  1
  O  O14  1  0.61609773  0.88614822  0.29459982  1
  O  O15  1  0.38390227  0.11385178  0.29459982  1
  O  O16  1  0.65623012  0.34950925  0.68121382  1
  O  O17  1  0.34376988  0.65049075  0.68121382  1
  O  O18  1  0.84376988  0.84950925  0.68121382  1
  O  O19  1  0.15623012  0.15049075  0.68121382  1
  O  O20  1  0.97886141  0.19747043  0.48074951  1
  O  O21  1  0.02113859  0.80252957  0.48074951  1
  O  O22  1  0.52113859  0.69747043  0.48074951  1
  O  O23  1  0.47886141  0.30252957  0.48074951  1
  O  O24  1  0.88281825  0.11890768  0.71905111  1
  O  O25  1  0.11718175  0.88109232  0.71905111  1
  O  O26  1  0.61718175  0.61890768  0.71905111  1
  O  O27  1  0.38281825  0.38109232  0.71905111  1
  O  O28  1  0.99392847  0.37192864  0.69299970  1
  O  O29  1  0.00607153  0.62807136  0.69299970  1
  O  O30  1  0.50607153  0.87192864  0.69299970  1
  O  O31  1  0.49392847  0.12807136  0.69299970  1
  O  O32  1  0.61916954  0.32374072  0.09300656  1
  O  O33  1  0.38083046  0.67625928  0.09300656  1
  O  O34  1  0.88083046  0.82374072  0.09300656  1
  O  O35  1  0.11916954  0.17625928  0.09300656  1
  O  O36  1  0.81502702  0.37995128  0.91216323  1
  O  O37  1  0.18497298  0.62004872  0.91216323  1
  O  O38  1  0.68497298  0.87995128  0.91216323  1
  O  O39  1  0.31502702  0.12004872  0.91216323  1
  O  O40  1  0.85388643  0.18143040  0.09965815  1
  O  O41  1  0.14611357  0.81856960  0.09965815  1
  O  O42  1  0.64611357  0.68143040  0.09965815  1
  O  O43  1  0.35388643  0.31856960  0.09965815  1
  O  O44  1  0.67429658  0.14599655  0.89548764  1
  O  O45  1  0.32570342  0.85400345  0.89548764  1
  O  O46  1  0.82570342  0.64599655  0.89548764  1
  O  O47  1  0.17429658  0.35400345  0.89548764  1
loop_
_geom_bond_atom_site_label_1
_geom_bond_atom_site_label_2
_geom_bond_distance
_geom_bond_site_symmetry_2
Eu0 O44 2.311305 1_555
Eu0 O38 2.313546 1_545
Eu0 O0 2.340357 1_555
Eu0 O18 2.381759 1_545
Eu0 O24 2.401568 1_555
Eu0 O30 2.436008 1_545
Eu0 O31 2.510830 1_555
Eu1 O45 2.311305 1_555
Eu1 O39 2.313546 1_565
Eu1 O1 2.340357 1_555
Eu1 O19 2.381759 1_565
Eu1 O25 2.401568 1_555
Eu1 O31 2.436008 1_565
Eu1 O30 2.510830 1_555
Eu2 O46 2.311305 1_555
Eu2 O36 2.313546 1_555
Eu2 O2 2.340357 1_555
Eu2 O16 2.381759 1_555
Eu2 O26 2.401568 1_555
Eu2 O28 2.436008 1_555
Eu2 O29 2.510830 1_655
Eu3 O47 2.311305 1_555
Eu3 O37 2.313546 1_555
Eu3 O3 2.340357 1_555
Eu3 O17 2.381759 1_555
Eu3 O27 2.401568 1_555
Eu3 O29 2.436008 1_555
Eu3 O28 2.510830 1_455
Eu4 O35 2.288927 1_655
Eu4 O40 2.322813 1_555
Eu4 O7 2.348344 1_655
Eu4 O20 2.354956 1_555
Eu4 O12 2.404696 1_555
Eu4 O11 2.483336 1_655
Eu4 O10 2.504175 1_545
Eu5 O34 2.288927 1_455
Eu5 O41 2.322813 1_555
Eu5 O6 2.348344 1_455
Eu5 O21 2.354956 1_555
Eu5 O13 2.404696 1_555
Eu5 O10 2.483336 1_455
Eu5 O11 2.504175 1_565
Eu6 O33 2.288927 1_555
Eu6 O42 2.322813 1_555
Eu6 O5 2.348344 1_555
Eu6 O22 2.354956 1_555
Eu6 O14 2.404696 1_555
Eu6 O9 2.483336 1_555
Eu6 O8 2.504175 1_555
Eu7 O32 2.288927 1_555
Eu7 O43 2.322813 1_555
Eu7 O4 2.348344 1_555
Eu7 O23 2.354956 1_555
Eu7 O15 2.404696 1_555
Eu7 O8 2.483336 1_555
Eu7 O9 2.504175 1_555
Mo0 O14 1.782053 1_545
Mo0 O0 1.785289 1_555
Mo0 O4 1.787032 1_555
Mo0 O10 1.826200 1_545
Mo1 O15 1.782053 1_565
Mo1 O1 1.785289 1_555
Mo1 O5 1.787032 1_555
Mo1 O11 1.826200 1_565
Mo2 O12 1.782053 1_555
Mo2 O2 1.785289 1_555
Mo2 O6 1.787032 1_555
Mo2 O8 1.826200 1_555
Mo3 O13 1.782053 1_555
Mo3 O3 1.785289 1_555
Mo3 O7 1.787032 1_555
Mo3 O9 1.826200 1_555
Mo4 O27 1.780565 1_555
Mo4 O16 1.785404 1_555
Mo4 O23 1.786938 1_555
Mo4 O31 1.830252 1_555
Mo5 O26 1.780565 1_555
Mo5 O17 1.785404 1_555
Mo5 O22 1.786938 1_555
Mo5 O30 1.830252 1_555
Mo6 O25 1.780565 1_655
Mo6 O18 1.785404 1_555
Mo6 O21 1.786938 1_655
Mo6 O29 1.830252 1_655
Mo7 O24 1.780565 1_455
Mo7 O19 1.785404 1_555
Mo7 O20 1.786938 1_455
Mo7 O28 1.830252 1_455
Mo8 O44 1.789485 1_554
Mo8 O32 1.792401 1_555
Mo8 O40 1.792643 1_555
Mo8 O36 1.793430 1_554
Mo9 O45 1.789485 1_554
Mo9 O33 1.792401 1_555
Mo9 O41 1.792643 1_555
Mo9 O37 1.793430 1_554
Mo10 O46 1.789485 1_554
Mo10 O34 1.792401 1_555
Mo10 O42 1.792643 1_555
Mo10 O38 1.793430 1_554
Mo11 O47 1.789485 1_554
Mo11 O35 1.792401 1_555
Mo11 O43 1.792643 1_555
Mo11 O39 1.793430 1_554
