# generated using pymatgen
data_Tb12Si5S28
_symmetry_space_group_name_H-M   'P 1'
_cell_length_a   9.84867200
_cell_length_b   11.38204180
_cell_length_c   11.38884436
_cell_angle_alpha   60.43367410
_cell_angle_beta   64.39211365
_cell_angle_gamma   64.37041853
_symmetry_Int_Tables_number   1
_chemical_formula_structural   Tb12Si5S28
_chemical_formula_sum   'Tb12 Si5 S28'
_cell_volume   961.42131051
_cell_formula_units_Z   1
loop_
 _symmetry_equiv_pos_site_id
 _symmetry_equiv_pos_as_xyz
  1  'x, y, z'
loop_
 _atom_site_type_symbol
 _atom_site_label
 _atom_site_symmetry_multiplicity
 _atom_site_fract_x
 _atom_site_fract_y
 _atom_site_fract_z
 _atom_site_occupancy
  Tb  Tb0  1  0.23184600  0.93208800  0.70054500  1
  Tb  Tb1  1  0.21831900  0.46515800  0.18649000  1
  Tb  Tb2  1  0.65024300  0.70334100  0.42594700  1
  Tb  Tb3  1  0.63487300  0.18563200  0.95098000  1
  Tb  Tb4  1  0.13180600  0.74695500  0.46954000  1
  Tb  Tb5  1  0.13110100  0.23405700  0.00107600  1
  Tb  Tb6  1  0.78042600  0.04199700  0.30389500  1
  Tb  Tb7  1  0.77332400  0.56966300  0.79809200  1
  Tb  Tb8  1  0.36713200  0.31560600  0.54591400  1
  Tb  Tb9  1  0.34535100  0.80665100  0.06597100  1
  Tb  Tb10  1  0.86151100  0.27094900  0.50221300  1
  Tb  Tb11  1  0.87153400  0.76144100  0.01989300  1
  Si  Si0  1  0.33407300  0.08679400  0.25112200  1
  Si  Si1  1  0.33330100  0.58242000  0.74532700  1
  Si  Si2  1  0.66657000  0.00438300  0.66260300  1
  Si  Si3  1  0.66675100  0.50508400  0.16079000  1
  Si  Si4  1  0.00091900  0.22877500  0.77113200  1
  S  S0  1  0.33274600  0.90107900  0.43367800  1
  S  S1  1  0.33344400  0.39945800  0.93211700  1
  S  S2  1  0.67339800  0.31328400  0.33949200  1
  S  S3  1  0.66019700  0.82657000  0.85351000  1
  S  S4  1  0.10782900  0.23673300  0.25245300  1
  S  S5  1  0.10366700  0.72572400  0.73989800  1
  S  S6  1  0.47027700  0.20823800  0.22162400  1
  S  S7  1  0.48594700  0.69301700  0.70953300  1
  S  S8  1  0.41376100  0.04515800  0.06299000  1
  S  S9  1  0.42113600  0.54426200  0.55672400  1
  S  S10  1  0.89495600  0.00714200  0.51876000  1
  S  S11  1  0.89534400  0.50706800  0.01496500  1
  S  S12  1  0.52100200  0.03604500  0.54795800  1
  S  S13  1  0.52609800  0.53567400  0.04290200  1
  S  S14  1  0.58212600  0.19352900  0.70222600  1
  S  S15  1  0.58008900  0.69249500  0.20211900  1
  S  S16  1  0.13885500  0.22550800  0.54813400  1
  S  S17  1  0.16478600  0.73667300  0.99961900  1
  S  S18  1  0.73771600  0.91615000  0.18143300  1
  S  S19  1  0.77404800  0.38388800  0.70500100  1
  S  S20  1  0.09514700  0.94922000  0.21575300  1
  S  S21  1  0.08885900  0.40949400  0.72985000  1
  S  S22  1  0.83921600  0.74233100  0.51641300  1
  S  S23  1  0.85094300  0.23674100  0.99918700  1
  S  S24  1  0.23582100  0.07591200  0.83822000  1
  S  S25  1  0.25850500  0.56331800  0.33799600  1
  S  S26  1  0.91366200  0.04369300  0.80666000  1
  S  S27  1  0.90134600  0.53310300  0.30675700  1
loop_
_geom_bond_atom_site_label_1
_geom_bond_atom_site_label_2
_geom_bond_distance
_geom_bond_site_symmetry_2
S0 Si0 2.110537 1_565
S0 Tb0 2.914427 1_555
S0 Tb2 2.952993 1_555
S0 Tb4 2.959420 1_555
S1 Si1 2.119051 1_555
S1 Tb5 2.926750 1_556
S1 Tb3 2.926998 1_555
S1 Tb1 2.966903 1_556
S2 Si3 2.125812 1_555
S2 Tb10 2.900558 1_555
S2 Tb8 2.913469 1_555
S2 Tb6 2.976609 1_555
S3 Si2 2.115801 1_565
S3 Tb7 2.930053 1_555
S3 Tb9 3.017017 1_556
S3 Tb11 3.026658 1_556
S4 Si0 2.141091 1_555
S4 Tb5 2.786113 1_555
S4 Tb1 2.884715 1_555
S4 Tb10 2.904957 1_455
S5 Si1 2.146900 1_555
S5 Tb4 2.863891 1_555
S5 Tb0 2.889426 1_555
S5 Tb11 3.119932 1_456
S6 Si0 2.139922 1_555
S6 Tb1 2.880119 1_555
S6 Tb3 2.880520 1_554
S6 Tb6 3.084290 1_555
S7 Si1 2.147532 1_555
S7 Tb0 2.780858 1_555
S7 Tb2 2.887148 1_555
S7 Tb7 2.937920 1_555
S8 Si0 2.158241 1_555
S8 Tb3 2.742974 1_554
S8 Tb5 2.809330 1_555
S8 Tb9 3.048972 1_545
S9 Si1 2.130763 1_555
S9 Tb2 2.925083 1_555
S9 Tb8 2.939681 1_555
S9 Tb4 2.987656 1_555
S10 Si2 2.137559 1_555
S10 Tb10 2.792777 1_555
S10 Tb6 2.908373 1_555
S10 Tb4 3.009572 1_645
S11 Si3 2.145261 1_555
S11 Tb11 2.828859 1_555
S11 Tb7 2.853211 1_554
S11 Tb5 2.999679 1_655
S12 Si2 2.144013 1_555
S12 Tb6 2.843173 1_555
S12 Tb8 2.864934 1_555
S12 Tb0 3.022899 1_545
S13 Si3 2.138186 1_555
S13 Tb7 2.780990 1_554
S13 Tb9 2.897628 1_555
S13 Tb1 3.005198 1_555
S14 Si2 2.148379 1_555
S14 Tb8 2.802731 1_555
S14 Tb10 2.869700 1_555
S14 Tb3 3.047039 1_555
S15 Si3 2.137467 1_555
S15 Tb9 2.819398 1_555
S15 Tb11 2.890307 1_555
S15 Tb2 2.982877 1_555
S16 Si4 2.316036 1_555
S16 Tb10 2.783466 1_455
S16 Tb0 2.830669 1_545
S16 Tb8 2.833129 1_555
S17 Tb11 2.693989 1_456
S17 Tb9 2.710876 1_556
S17 Tb1 2.725367 1_556
S17 Tb0 2.972336 1_555
S18 Tb6 2.678388 1_565
S18 Tb11 2.704786 1_555
S18 Tb2 2.727426 1_555
S18 Tb3 2.998037 1_564
S19 Si4 2.325184 1_655
S19 Tb7 2.790687 1_555
S19 Tb3 2.817234 1_555
S19 Tb10 2.824987 1_555
S20 Tb9 2.693362 1_555
S20 Tb6 2.693534 1_465
S20 Tb4 2.720441 1_555
S20 Tb5 3.006024 1_565
S21 Si4 2.331744 1_555
S21 Tb8 2.784612 1_555
S21 Tb7 2.827392 1_455
S21 Tb5 2.829689 1_556
S22 Tb4 2.713897 1_655
S22 Tb2 2.746924 1_555
S22 Tb7 2.767079 1_555
S22 Tb6 3.030342 1_565
S23 Si4 2.395024 1_655
S23 Tb3 2.750318 1_555
S23 Tb5 2.755401 1_656
S23 Tb6 3.015906 1_556
S23 Tb7 3.260610 1_555
S24 Si4 2.386842 1_555
S24 Tb5 2.789074 1_556
S24 Tb0 2.789512 1_545
S24 Tb9 2.999644 1_546
S24 Tb8 3.250509 1_555
S25 Tb1 2.693980 1_555
S25 Tb4 2.718122 1_555
S25 Tb8 2.773600 1_555
S25 Tb9 3.048180 1_555
S26 Si4 2.400920 1_655
S26 Tb0 2.773410 1_645
S26 Tb3 2.780723 1_555
S26 Tb11 2.995560 1_546
S26 Tb10 3.242829 1_555
S27 Tb2 2.694699 1_555
S27 Tb1 2.734995 1_655
S27 Tb10 2.777659 1_555
S27 Tb11 3.050257 1_555
