# generated using pymatgen
data_Hg2W2O7
_symmetry_space_group_name_H-M   'P 1'
_cell_length_a   7.28367200
_cell_length_b   7.40976045
_cell_length_c   8.40193579
_cell_angle_alpha   115.70557436
_cell_angle_beta   91.13604253
_cell_angle_gamma   117.29972737
_symmetry_Int_Tables_number   1
_chemical_formula_structural   Hg2W2O7
_chemical_formula_sum   'Hg4 W4 O14'
_cell_volume   349.25632470
_cell_formula_units_Z   2
loop_
 _symmetry_equiv_pos_site_id
 _symmetry_equiv_pos_as_xyz
  1  'x, y, z'
loop_
 _atom_site_type_symbol
 _atom_site_label
 _atom_site_symmetry_multiplicity
 _atom_site_fract_x
 _atom_site_fract_y
 _atom_site_fract_z
 _atom_site_occupancy
  Hg  Hg0  1  0.17495700  0.67852200  0.62629200  1
  Hg  Hg1  1  0.37258800  0.82369700  0.37883700  1
  Hg  Hg2  1  0.62741200  0.17630300  0.62116300  1
  Hg  Hg3  1  0.82504300  0.32147800  0.37370800  1
  W  W0  1  0.32591600  0.14146100  0.88221700  1
  W  W1  1  0.16471000  0.35320500  0.12533400  1
  W  W2  1  0.83529000  0.64679500  0.87466600  1
  W  W3  1  0.67408400  0.85853900  0.11778300  1
  O  O0  1  0.10260900  0.88443300  0.94872900  1
  O  O1  1  0.02585900  0.54717900  0.84557600  1
  O  O2  1  0.46521800  0.99783500  0.83822500  1
  O  O3  1  0.18000200  0.24482700  0.65498100  1
  O  O4  1  0.71082800  0.71841300  0.99233000  1
  O  O5  1  0.23802900  0.18918200  0.35401800  1
  O  O6  1  0.59715600  0.39460900  0.85689000  1
  O  O7  1  0.40284400  0.60539100  0.14311000  1
  O  O8  1  0.76197100  0.81081800  0.64598200  1
  O  O9  1  0.28917200  0.28158700  0.00767000  1
  O  O10  1  0.81999800  0.75517300  0.34501900  1
  O  O11  1  0.53478200  0.00216500  0.16177500  1
  O  O12  1  0.97414100  0.45282100  0.15442400  1
  O  O13  1  0.89739100  0.11556700  0.05127100  1
loop_
_geom_bond_atom_site_label_1
_geom_bond_atom_site_label_2
_geom_bond_distance
_geom_bond_site_symmetry_2
Hg0 O2 2.201356 1_555
Hg0 O1 2.487231 1_555
Hg1 O7 2.037861 1_555
Hg2 O6 2.037861 1_555
Hg3 O11 2.201356 1_555
Hg3 O12 2.487231 1_555
O0 W2 1.770695 1_455
O0 W0 2.168593 1_565
O1 W2 1.824281 1_455
O2 W0 1.721283 1_565
O3 W0 2.701119 1_555
O4 W3 1.255944 1_556
O4 W2 1.449994 1_555
O5 W1 2.834519 1_555
O6 W2 1.815800 1_555
O6 W0 2.104875 1_555
O7 W1 1.815800 1_555
O7 W3 2.104875 1_555
O8 W2 2.834519 1_555
O9 W0 1.255944 1_554
O9 W1 1.449994 1_555
O10 W3 2.701119 1_555
O11 W3 1.721283 1_545
O12 W1 1.824281 1_655
O13 W1 1.770695 1_655
O13 W3 2.168593 1_545
