# generated using pymatgen
data_La5AsPb3
_symmetry_space_group_name_H-M   'P 1'
_cell_length_a   9.67677006
_cell_length_b   9.67677006
_cell_length_c   7.41391837
_cell_angle_alpha   90.00000000
_cell_angle_beta   90.00000000
_cell_angle_gamma   120.00000356
_symmetry_Int_Tables_number   1
_chemical_formula_structural   La5AsPb3
_chemical_formula_sum   'La10 As2 Pb6'
_cell_volume   601.22808444
_cell_formula_units_Z   2
loop_
 _symmetry_equiv_pos_site_id
 _symmetry_equiv_pos_as_xyz
  1  'x, y, z'
loop_
 _atom_site_type_symbol
 _atom_site_label
 _atom_site_symmetry_multiplicity
 _atom_site_fract_x
 _atom_site_fract_y
 _atom_site_fract_z
 _atom_site_occupancy
  La  La0  1  0.75869300  0.75869300  0.75000000  1
  La  La1  1  0.24130700  0.00000000  0.75000000  1
  La  La2  1  0.00000000  0.24130700  0.75000000  1
  La  La3  1  0.24130700  0.24130700  0.25000000  1
  La  La4  1  0.75869300  -0.00000000  0.25000000  1
  La  La5  1  -0.00000000  0.75869300  0.25000000  1
  La  La6  1  0.66666700  0.33333300  -0.00000000  1
  La  La7  1  0.33333300  0.66666700  -0.00000000  1
  La  La8  1  0.33333300  0.66666700  0.50000000  1
  La  La9  1  0.66666700  0.33333300  0.50000000  1
  As  As0  1  -0.00000000  -0.00000000  -0.00000000  1
  As  As1  1  -0.00000000  -0.00000000  0.50000000  1
  Pb  Pb0  1  0.40129949  0.40129949  0.75000000  1
  Pb  Pb1  1  0.59870051  -0.00000000  0.75000000  1
  Pb  Pb2  1  -0.00000000  0.59870051  0.75000000  1
  Pb  Pb3  1  0.59870051  0.59870051  0.25000000  1
  Pb  Pb4  1  0.40129949  0.00000000  0.25000000  1
  Pb  Pb5  1  0.00000000  0.40129949  0.25000000  1
loop_
_geom_bond_atom_site_label_1
_geom_bond_atom_site_label_2
_geom_bond_distance
_geom_bond_site_symmetry_2
La0 Pb1 3.385957 1_565
La0 Pb2 3.385957 1_655
La0 Pb0 3.458415 1_555
La0 Pb3 4.017275 1_555
La0 Pb3 4.017275 1_556
La1 Pb2 3.385956 1_545
La1 Pb0 3.385957 1_555
La1 Pb1 3.458415 1_555
La1 Pb4 4.017275 1_555
La1 Pb4 4.017275 1_556
La2 Pb1 3.385956 1_455
La2 Pb0 3.385957 1_555
La2 Pb2 3.458415 1_555
La2 Pb5 4.017275 1_556
La2 Pb5 4.017275 1_555
La3 Pb4 3.385957 1_555
La3 Pb5 3.385957 1_555
La3 Pb3 3.458415 1_555
La3 Pb0 4.017275 1_554
La3 Pb0 4.017275 1_555
La4 Pb5 3.385956 1_655
La4 Pb3 3.385957 1_545
La4 Pb4 3.458415 1_555
La4 Pb1 4.017275 1_555
La4 Pb1 4.017275 1_554
La5 Pb4 3.385956 1_565
La5 Pb3 3.385957 1_455
La5 Pb5 3.458415 1_555
La5 Pb2 4.017275 1_554
La5 Pb2 4.017275 1_555
La6 Pb5 3.485815 1_655
La6 Pb1 3.485815 1_554
La6 Pb2 3.485817 1_654
La6 Pb4 3.485817 1_555
La6 Pb3 3.485823 1_555
La6 Pb0 3.485823 1_554
La7 Pb4 3.485815 1_565
La7 Pb2 3.485815 1_554
La7 Pb5 3.485817 1_555
La7 Pb1 3.485817 1_564
La7 Pb0 3.485823 1_554
La7 Pb3 3.485823 1_555
La8 Pb4 3.485815 1_565
La8 Pb2 3.485815 1_555
La8 Pb5 3.485817 1_555
La8 Pb1 3.485817 1_565
La8 Pb0 3.485823 1_555
La8 Pb3 3.485823 1_555
La9 Pb1 3.485815 1_555
La9 Pb5 3.485815 1_655
La9 Pb2 3.485817 1_655
La9 Pb4 3.485817 1_555
La9 Pb3 3.485823 1_555
La9 Pb0 3.485823 1_555
As0 La0 2.981266 1_444
As0 La3 2.981266 1_555
As0 La1 2.981266 1_554
As0 La2 2.981266 1_554
As0 La4 2.981266 1_455
As0 La5 2.981266 1_545
As1 La0 2.981266 1_445
As1 La3 2.981266 1_555
As1 La1 2.981266 1_555
As1 La2 2.981266 1_555
As1 La4 2.981266 1_455
As1 La5 2.981266 1_545
