# generated using pymatgen
data_YIr3
_symmetry_space_group_name_H-M   'P 1'
_cell_length_a   5.28423733
_cell_length_b   5.28423733
_cell_length_c   9.26304081
_cell_angle_alpha   73.42726841
_cell_angle_beta   73.42726841
_cell_angle_gamma   60.00000512
_symmetry_Int_Tables_number   1
_chemical_formula_structural   YIr3
_chemical_formula_sum   'Y3 Ir9'
_cell_volume   211.50236995
_cell_formula_units_Z   3
loop_
 _symmetry_equiv_pos_site_id
 _symmetry_equiv_pos_as_xyz
  1  'x, y, z'
loop_
 _atom_site_type_symbol
 _atom_site_label
 _atom_site_symmetry_multiplicity
 _atom_site_fract_x
 _atom_site_fract_y
 _atom_site_fract_z
 _atom_site_occupancy
  Y  Y0  1  0.13918080  0.13918080  0.58246059  1
  Y  Y1  1  0.86081920  0.86081920  0.41753941  1
  Y  Y2  1  0.00000000  0.00000000  0.00000000  1
  Ir  Ir0  1  0.08361229  0.58084197  0.75470378  1
  Ir  Ir1  1  0.58084197  0.58084197  0.75470378  1
  Ir  Ir2  1  0.58084197  0.08361229  0.75470378  1
  Ir  Ir3  1  0.91638771  0.41915803  0.24529622  1
  Ir  Ir4  1  0.41915803  0.41915803  0.24529622  1
  Ir  Ir5  1  0.41915803  0.91638771  0.24529622  1
  Ir  Ir6  1  0.33240393  0.33240393  0.00278522  1
  Ir  Ir7  1  0.66759607  0.66759607  0.99721478  1
  Ir  Ir8  1  0.50000000  0.50000000  0.50000000  1
loop_
_geom_bond_atom_site_label_1
_geom_bond_atom_site_label_2
_geom_bond_distance
_geom_bond_site_symmetry_2
Y0 Y1 3.374654 1_455
Y0 Y1 3.374654 1_545
Y0 Y1 3.374678 1_445
Y0 Y2 3.651888 1_556
Y1 Y2 3.651888 1_665
Ir0 Ir7 2.617563 1_455
Ir0 Ir1 2.627480 1_555
Ir0 Ir2 2.627480 1_555
Ir0 Ir6 2.647473 1_556
Ir0 Ir1 2.656758 1_455
Ir0 Ir2 2.656758 1_465
Ir0 Ir8 2.695150 1_555
Ir0 Y0 3.041429 1_555
Ir0 Y0 3.041442 1_565
Ir0 Y1 3.323985 1_455
Ir0 Y2 3.403477 1_566
Ir0 Y2 3.403477 1_556
Ir1 Ir7 2.617571 1_555
Ir1 Ir2 2.627480 1_555
Ir1 Ir6 2.647481 1_556
Ir1 Ir2 2.656758 1_565
Ir1 Ir8 2.695150 1_555
Ir1 Y0 3.041436 1_565
Ir1 Y0 3.041436 1_655
Ir1 Y1 3.323979 1_555
Ir1 Y2 3.403477 1_656
Ir1 Y2 3.403477 1_566
Ir2 Ir7 2.617563 1_545
Ir2 Ir6 2.647473 1_556
Ir2 Ir8 2.695150 1_555
Ir2 Y0 3.041429 1_555
Ir2 Y0 3.041442 1_655
Ir2 Y1 3.323985 1_545
Ir2 Y2 3.403477 1_656
Ir2 Y2 3.403477 1_556
Ir3 Ir6 2.617563 1_655
Ir3 Ir4 2.627480 1_555
Ir3 Ir5 2.627480 1_555
Ir3 Ir7 2.647473 1_554
Ir3 Ir4 2.656758 1_655
Ir3 Ir5 2.656758 1_645
Ir3 Ir8 2.695150 1_555
Ir3 Y1 3.041429 1_555
Ir3 Y1 3.041442 1_545
Ir3 Y0 3.323985 1_655
Ir3 Y2 3.403477 1_655
Ir3 Y2 3.403477 1_665
Ir4 Ir6 2.617571 1_555
Ir4 Ir5 2.627480 1_555
Ir4 Ir7 2.647481 1_554
Ir4 Ir5 2.656758 1_545
Ir4 Ir8 2.695150 1_555
Ir4 Y1 3.041436 1_545
Ir4 Y1 3.041436 1_455
Ir4 Y0 3.323979 1_555
Ir4 Y2 3.403477 1_565
Ir4 Y2 3.403477 1_655
Ir5 Ir6 2.617563 1_565
Ir5 Ir7 2.647473 1_554
Ir5 Ir8 2.695150 1_555
Ir5 Y1 3.041429 1_555
Ir5 Y1 3.041442 1_455
Ir5 Y0 3.323985 1_565
Ir5 Y2 3.403477 1_565
Ir5 Y2 3.403477 1_665
Ir6 Y2 3.050944 1_555
Ir6 Y2 3.050958 1_655
Ir6 Y2 3.050958 1_565
Ir6 Ir7 3.051236 1_454
Ir6 Ir7 3.051236 1_544
Ir6 Ir7 3.051263 1_554
Ir7 Y2 3.050944 1_666
Ir7 Y2 3.050958 1_656
Ir7 Y2 3.050958 1_566
Ir8 Y0 3.134936 1_555
Ir8 Y1 3.134936 1_555
Ir8 Y1 3.134949 1_455
Ir8 Y1 3.134949 1_545
Ir8 Y0 3.134949 1_655
Ir8 Y0 3.134949 1_565
