# generated using pymatgen
data_Cs2YCuF6
_symmetry_space_group_name_H-M   'P 1'
_cell_length_a   6.43851042
_cell_length_b   6.43851060
_cell_length_c   6.43851060
_cell_angle_alpha   59.99999927
_cell_angle_beta   59.99999881
_cell_angle_gamma   59.99999885
_symmetry_Int_Tables_number   1
_chemical_formula_structural   Cs2YCuF6
_chemical_formula_sum   'Cs2 Y1 Cu1 F6'
_cell_volume   188.73012387
_cell_formula_units_Z   1
loop_
 _symmetry_equiv_pos_site_id
 _symmetry_equiv_pos_as_xyz
  1  'x, y, z'
loop_
 _atom_site_type_symbol
 _atom_site_label
 _atom_site_symmetry_multiplicity
 _atom_site_fract_x
 _atom_site_fract_y
 _atom_site_fract_z
 _atom_site_occupancy
  Cs  Cs0  1  0.25000000  0.25000000  0.25000000  1
  Cs  Cs1  1  0.75000000  0.75000000  0.75000000  1
  Y  Y0  1  0.50000000  0.50000000  0.50000000  1
  Cu  Cu0  1  0.00000000  0.00000000  0.00000000  1
  F  F0  1  0.25804621  0.74195379  0.25804621  1
  F  F1  1  0.74195379  0.74195379  0.25804621  1
  F  F2  1  0.74195379  0.25804621  0.74195379  1
  F  F3  1  0.74195379  0.25804621  0.25804621  1
  F  F4  1  0.25804621  0.74195379  0.74195379  1
  F  F5  1  0.25804621  0.25804621  0.74195379  1
loop_
_geom_bond_atom_site_label_1
_geom_bond_atom_site_label_2
_geom_bond_distance
_geom_bond_site_symmetry_2
Cs0 F2 3.220089 1_455
Cs0 F1 3.220089 1_455
Cs0 F2 3.220089 1_554
Cs0 F1 3.220089 1_545
Cs0 F3 3.220089 1_455
Cs0 F3 3.220089 1_555
Cs0 F4 3.220089 1_554
Cs0 F4 3.220089 1_545
Cs0 F5 3.220089 1_554
Cs0 F5 3.220089 1_555
Cs0 F0 3.220089 1_545
Cs0 F0 3.220089 1_555
Cs1 F0 3.220089 1_655
Cs1 F5 3.220089 1_655
Cs1 F0 3.220089 1_556
Cs1 F5 3.220089 1_565
Cs1 F4 3.220089 1_655
Cs1 F4 3.220089 1_555
Cs1 F3 3.220089 1_556
Cs1 F3 3.220089 1_565
Cs1 F1 3.220089 1_556
Cs1 F1 3.220089 1_555
Cs1 F2 3.220089 1_565
Cs1 F2 3.220089 1_555
Cu0 F5 2.349621 1_554
Cu0 F1 2.349621 1_445
Cu0 F0 2.349621 1_545
Cu0 F2 2.349621 1_454
Cu0 F3 2.349621 1_455
Cu0 F4 2.349621 1_544
F0 Y0 2.203093 1_555
F1 Y0 2.203093 1_555
F2 Y0 2.203093 1_555
F3 Y0 2.203093 1_555
F4 Y0 2.203093 1_555
F5 Y0 2.203093 1_555
