# generated using pymatgen
data_Sr3Mn2Cu2S2O5
_symmetry_space_group_name_H-M   'P 1'
_cell_length_a   3.92059002
_cell_length_b   3.92047702
_cell_length_c   14.03745551
_cell_angle_alpha   81.96208080
_cell_angle_beta   81.96173236
_cell_angle_gamma   89.99655055
_symmetry_Int_Tables_number   1
_chemical_formula_structural   Sr3Mn2Cu2S2O5
_chemical_formula_sum   'Sr3 Mn2 Cu2 S2 O5'
_cell_volume   211.50326749
_cell_formula_units_Z   1
loop_
 _symmetry_equiv_pos_site_id
 _symmetry_equiv_pos_as_xyz
  1  'x, y, z'
loop_
 _atom_site_type_symbol
 _atom_site_label
 _atom_site_symmetry_multiplicity
 _atom_site_fract_x
 _atom_site_fract_y
 _atom_site_fract_z
 _atom_site_occupancy
  Sr  Sr0  1  0.49985800  0.49985400  0.00027300  1
  Sr  Sr1  1  0.35958600  0.35959100  0.28073900  1
  Sr  Sr2  1  0.64045000  0.64045700  0.71913800  1
  Mn  Mn0  1  0.07336000  0.07336400  0.85348100  1
  Mn  Mn1  1  0.92661800  0.92662600  0.14656300  1
  Cu  Cu0  1  0.74994500  0.25001900  0.49996800  1
  Cu  Cu1  1  0.24997500  0.74985000  0.50003400  1
  S  S0  1  0.80090100  0.80089400  0.39855700  1
  S  S1  1  0.19921300  0.19920600  0.60138700  1
  O  O0  1  0.99990600  0.99994000  0.00011100  1
  O  O1  1  0.91619900  0.41611700  0.16755000  1
  O  O2  1  0.41610800  0.91621900  0.16755900  1
  O  O3  1  0.08392300  0.58395100  0.83232600  1
  O  O4  1  0.58396000  0.08391100  0.83231400  1
loop_
_geom_bond_atom_site_label_1
_geom_bond_atom_site_label_2
_geom_bond_distance
_geom_bond_site_symmetry_2
Mn0 O3 1.981720 1_555
Mn0 O3 1.981750 1_545
Mn0 O4 1.981804 1_455
Mn0 O4 1.981827 1_555
Mn0 O0 2.017667 1_446
Mn1 O1 1.981388 1_565
Mn1 O1 1.981405 1_555
Mn1 O2 1.981465 1_555
Mn1 O2 1.981476 1_655
Mn1 O0 2.015218 1_555
Cu0 S0 2.405862 1_545
Cu0 S1 2.406174 1_555
Cu0 S1 2.406444 1_655
Cu0 S0 2.406536 1_555
Cu1 S1 2.405428 1_555
Cu1 S1 2.406045 1_565
Cu1 S0 2.406380 1_455
Cu1 S0 2.407164 1_555
S0 Sr1 3.210150 1_665
S0 Sr1 3.211377 1_655
S0 Sr1 3.211439 1_565
S0 Sr1 3.212954 1_555
S1 Sr2 3.210156 1_445
S1 Sr2 3.210911 1_545
S1 Sr2 3.210974 1_455
S1 Sr2 3.212017 1_555
O0 Sr0 2.772048 1_565
O0 Sr0 2.772242 1_555
O0 Sr0 2.772259 1_655
O0 Sr0 2.772398 1_665
O1 Sr1 2.503551 1_555
O1 Sr1 2.503882 1_655
O1 Sr0 3.023177 1_655
O1 Sr0 3.023616 1_555
O2 Sr1 2.503492 1_555
O2 Sr1 2.503698 1_565
O2 Sr0 3.023165 1_565
O2 Sr0 3.023743 1_555
O3 Sr2 2.503280 1_555
O3 Sr2 2.504136 1_455
O3 Sr0 3.030381 1_456
O3 Sr0 3.030462 1_556
O4 Sr2 2.503212 1_555
O4 Sr2 2.503910 1_545
O4 Sr0 3.030438 1_546
O4 Sr0 3.030584 1_556
