# generated using pymatgen
data_Gd2NiB10
_symmetry_space_group_name_H-M   'P 1'
_cell_length_a   4.15316137
_cell_length_b   5.56300574
_cell_length_c   11.09793493
_cell_angle_alpha   90.00000000
_cell_angle_beta   90.00000000
_cell_angle_gamma   90.00000000
_symmetry_Int_Tables_number   1
_chemical_formula_structural   Gd2NiB10
_chemical_formula_sum   'Gd4 Ni2 B20'
_cell_volume   256.40736050
_cell_formula_units_Z   2
loop_
 _symmetry_equiv_pos_site_id
 _symmetry_equiv_pos_as_xyz
  1  'x, y, z'
loop_
 _atom_site_type_symbol
 _atom_site_label
 _atom_site_symmetry_multiplicity
 _atom_site_fract_x
 _atom_site_fract_y
 _atom_site_fract_z
 _atom_site_occupancy
  Gd  Gd0  1  0.50000000  0.18500206  0.36232909  1
  Gd  Gd1  1  0.50000000  0.81499794  0.63767091  1
  Gd  Gd2  1  0.50000000  0.31499794  0.86232909  1
  Gd  Gd3  1  0.50000000  0.68500206  0.13767091  1
  Ni  Ni0  1  0.00000000  0.00000000  0.00000000  1
  Ni  Ni1  1  0.00000000  0.50000000  0.50000000  1
  B  B0  1  0.00000000  0.37325277  0.04097348  1
  B  B1  1  0.00000000  0.62674723  0.95902652  1
  B  B2  1  0.00000000  0.12674723  0.54097348  1
  B  B3  1  0.00000000  0.87325277  0.45902652  1
  B  B4  1  0.00000000  0.33936690  0.19841347  1
  B  B5  1  0.00000000  0.66063310  0.80158653  1
  B  B6  1  0.00000000  0.16063310  0.69841347  1
  B  B7  1  0.00000000  0.83936690  0.30158653  1
  B  B8  1  0.00000000  0.02828432  0.18611048  1
  B  B9  1  0.00000000  0.97171568  0.81388952  1
  B  B10  1  0.00000000  0.47171568  0.68611048  1
  B  B11  1  0.00000000  0.52828432  0.31388952  1
  B  B12  1  0.30099170  0.19954975  0.11410859  1
  B  B13  1  0.69900830  0.80045025  0.88589141  1
  B  B14  1  0.30099170  0.80045025  0.88589141  1
  B  B15  1  0.69900830  0.30045025  0.61410859  1
  B  B16  1  0.69900830  0.19954975  0.11410859  1
  B  B17  1  0.30099170  0.69954975  0.38589141  1
  B  B18  1  0.69900830  0.69954975  0.38589141  1
  B  B19  1  0.30099170  0.30045025  0.61410859  1
loop_
_geom_bond_atom_site_label_1
_geom_bond_atom_site_label_2
_geom_bond_distance
_geom_bond_site_symmetry_2
Gd0 Ni1 3.117247 1_655
Gd0 Ni1 3.117247 1_555
Gd1 Ni1 3.117247 1_655
Gd1 Ni1 3.117247 1_555
Gd2 Ni0 3.117247 1_656
Gd2 Ni0 3.117247 1_556
Gd3 Ni0 3.117247 1_565
Gd3 Ni0 3.117247 1_665
B0 B1 1.678012 1_554
B0 B4 1.757398 1_555
B0 B16 1.776288 1_455
B0 B12 1.776288 1_555
B0 Ni0 2.125615 1_555
B0 Gd2 2.889264 1_554
B0 Gd2 2.889264 1_454
B0 Gd3 2.910582 1_455
B0 Gd3 2.910582 1_555
B1 B5 1.757398 1_555
B1 B14 1.776288 1_555
B1 B13 1.776288 1_455
B1 Ni0 2.125615 1_566
B1 Gd3 2.889264 1_556
B1 Gd3 2.889264 1_456
B1 Gd2 2.910582 1_455
B1 Gd2 2.910582 1_555
B2 B3 1.678012 1_545
B2 B6 1.757398 1_555
B2 Ni1 2.125615 1_555
B2 Gd0 2.889264 1_455
B2 Gd0 2.889264 1_555
B2 Gd1 2.910582 1_545
B2 Gd1 2.910582 1_445
B3 B7 1.757398 1_555
B3 Ni1 2.125615 1_555
B3 Gd1 2.889264 1_555
B3 Gd1 2.889264 1_455
B3 Gd0 2.910582 1_565
B3 Gd0 2.910582 1_465
B4 B8 1.735932 1_555
B4 Gd0 2.891163 1_455
B4 Gd0 2.891163 1_555
B4 Gd3 2.909238 1_455
B4 Gd3 2.909238 1_555
B5 B9 1.735932 1_555
B5 Gd1 2.891163 1_455
B5 Gd1 2.891163 1_555
B5 Gd2 2.909238 1_455
B5 Gd2 2.909238 1_555
B6 B9 1.657363 1_545
B6 Gd2 2.891163 1_555
B6 Gd2 2.891163 1_455
B6 Gd1 2.909238 1_545
B6 Gd1 2.909238 1_445
B7 B8 1.657363 1_565
B7 Gd3 2.891163 1_455
B7 Gd3 2.891163 1_555
B7 Gd0 2.909238 1_565
B7 Gd0 2.909238 1_465
B8 Ni0 2.071427 1_555
B8 Gd3 2.871944 1_545
B8 Gd3 2.871944 1_445
B8 Gd0 2.982763 1_455
B8 Gd0 2.982763 1_555
B9 Ni0 2.071427 1_566
B9 Gd2 2.871944 1_565
B9 Gd2 2.871944 1_465
B9 Gd1 2.982763 1_455
B9 Gd1 2.982763 1_555
B10 B5 1.657363 1_555
B10 B6 1.735932 1_555
B10 B15 1.763212 1_455
B10 B19 1.763212 1_555
B10 Ni1 2.071427 1_555
B10 Gd1 2.871944 1_455
B10 Gd1 2.871944 1_555
B10 Gd2 2.982763 1_455
B10 Gd2 2.982763 1_555
B11 B4 1.657363 1_555
B11 B7 1.735932 1_555
B11 B17 1.763212 1_555
B11 B18 1.763212 1_455
B11 Ni1 2.071427 1_555
B11 Gd0 2.871944 1_455
B11 Gd0 2.871944 1_555
B11 Gd3 2.982763 1_555
B11 Gd3 2.982763 1_455
B12 B16 1.653027 1_555
B12 B4 1.744423 1_555
B12 B8 1.763212 1_555
B12 Ni0 2.097302 1_555
B12 Gd3 2.836301 1_555
B12 Gd0 2.877193 1_555
B12 Gd2 2.983845 1_554
B12 Gd3 2.990822 1_545
B13 B14 1.653027 1_555
B13 B5 1.744423 1_655
B13 B9 1.763212 1_655
B13 Ni0 2.097302 1_666
B13 Gd2 2.836301 1_555
B13 Gd1 2.877193 1_555
B13 Gd3 2.983845 1_556
B13 Gd2 2.990822 1_565
B14 B5 1.744423 1_555
B14 B9 1.763212 1_555
B14 Ni0 2.097302 1_566
B14 Gd2 2.836301 1_555
B14 Gd1 2.877193 1_555
B14 Gd3 2.983845 1_556
B14 Gd2 2.990822 1_565
B15 B19 1.653027 1_555
B15 B6 1.744423 1_655
B15 B2 1.776288 1_655
B15 Ni1 2.097302 1_655
B15 Gd1 2.836301 1_545
B15 Gd2 2.877193 1_555
B15 Gd0 2.983845 1_555
B15 Gd1 2.990822 1_555
B16 B4 1.744423 1_655
B16 B8 1.763212 1_655
B16 Ni0 2.097302 1_655
B16 Gd3 2.836301 1_555
B16 Gd0 2.877193 1_555
B16 Gd2 2.983845 1_554
B16 Gd3 2.990822 1_545
B17 B18 1.653027 1_555
B17 B7 1.744423 1_555
B17 B3 1.776288 1_555
B17 Ni1 2.097302 1_555
B17 Gd0 2.836301 1_565
B17 Gd3 2.877193 1_555
B17 Gd1 2.983845 1_555
B17 Gd0 2.990822 1_555
B18 B7 1.744423 1_655
B18 B3 1.776288 1_655
B18 Ni1 2.097302 1_655
B18 Gd0 2.836301 1_565
B18 Gd3 2.877193 1_555
B18 Gd1 2.983845 1_555
B18 Gd0 2.990822 1_555
B19 B6 1.744423 1_555
B19 B2 1.776288 1_555
B19 Ni1 2.097302 1_555
B19 Gd1 2.836301 1_545
B19 Gd2 2.877193 1_555
B19 Gd0 2.983845 1_555
B19 Gd1 2.990822 1_555
