# generated using pymatgen
data_LuFe2Co2B
_symmetry_space_group_name_H-M   'P 1'
_cell_length_a   5.01463109
_cell_length_b   5.01463109
_cell_length_c   6.84280100
_cell_angle_alpha   90.00000000
_cell_angle_beta   90.00000000
_cell_angle_gamma   120.20617121
_symmetry_Int_Tables_number   1
_chemical_formula_structural   LuFe2Co2B
_chemical_formula_sum   'Lu2 Fe4 Co4 B2'
_cell_volume   148.70874565
_cell_formula_units_Z   2
loop_
 _symmetry_equiv_pos_site_id
 _symmetry_equiv_pos_as_xyz
  1  'x, y, z'
loop_
 _atom_site_type_symbol
 _atom_site_label
 _atom_site_symmetry_multiplicity
 _atom_site_fract_x
 _atom_site_fract_y
 _atom_site_fract_z
 _atom_site_occupancy
  Lu  Lu0  1  0.00000000  0.00000000  0.99715300  1
  Lu  Lu1  1  0.00000000  0.00000000  0.50594800  1
  Fe  Fe0  1  0.50000000  0.00000000  0.28605500  1
  Fe  Fe1  1  0.00000000  0.50000000  0.28605500  1
  Fe  Fe2  1  0.66773900  0.33226100  0.99686000  1
  Fe  Fe3  1  0.33226100  0.66773900  0.99686000  1
  Co  Co0  1  0.50000000  0.50000000  0.71362600  1
  Co  Co1  1  0.50000000  0.00000000  0.71231900  1
  Co  Co2  1  0.00000000  0.50000000  0.71231900  1
  Co  Co3  1  0.50000000  0.50000000  0.28740500  1
  B  B0  1  0.66525500  0.33474500  0.50283400  1
  B  B1  1  0.33474500  0.66525500  0.50283400  1
loop_
_geom_bond_atom_site_label_1
_geom_bond_atom_site_label_2
_geom_bond_distance
_geom_bond_site_symmetry_2
Fe0 Fe2 2.447342 1_554
Fe0 Fe3 2.447342 1_544
Fe0 Lu1 2.924159 1_655
Fe0 Lu1 2.924159 1_555
Fe1 Fe3 2.447342 1_554
Fe1 Fe2 2.447342 1_454
Fe1 Lu1 2.924159 1_565
Fe1 Lu1 2.924159 1_555
Fe2 Lu0 2.888879 1_655
Fe2 Lu0 2.893872 1_555
Fe2 Lu0 2.893872 1_665
Fe3 Lu0 2.888879 1_565
Fe3 Lu0 2.893872 1_665
Fe3 Lu0 2.893872 1_555
Co0 Fe2 2.425549 1_555
Co0 Fe3 2.425549 1_555
Co0 Lu1 2.875241 1_665
Co0 Lu1 2.875241 1_555
Co1 Fe3 2.421664 1_545
Co1 Fe2 2.421664 1_555
Co1 Lu1 2.877641 1_655
Co1 Lu1 2.877641 1_555
Co2 Fe2 2.421664 1_455
Co2 Fe3 2.421664 1_555
Co2 Lu1 2.877641 1_565
Co2 Lu1 2.877641 1_555
Co3 Fe3 2.465706 1_554
Co3 Fe2 2.465706 1_554
Co3 Lu1 2.912705 1_555
Co3 Lu1 2.912705 1_665
B0 Co0 2.035930 1_555
B0 Co2 2.039510 1_655
B0 Co1 2.039510 1_555
B0 Co3 2.058532 1_555
B0 Fe1 2.074894 1_655
B0 Fe0 2.074894 1_555
B0 Lu1 2.883126 1_665
B0 Lu1 2.883126 1_555
B0 Lu1 2.910553 1_655
B1 Co0 2.035930 1_555
B1 Co1 2.039510 1_565
B1 Co2 2.039510 1_555
B1 Co3 2.058532 1_555
B1 Fe0 2.074894 1_565
B1 Fe1 2.074894 1_555
B1 Lu1 2.883126 1_665
B1 Lu1 2.883126 1_555
B1 Lu1 2.910553 1_565
