# generated using pymatgen
data_Mn(InTe2)2
_symmetry_space_group_name_H-M   'P 1'
_cell_length_a   7.69067640
_cell_length_b   7.69080642
_cell_length_c   7.69070522
_cell_angle_alpha   131.76814665
_cell_angle_beta   131.76558627
_cell_angle_gamma   70.60002620
_symmetry_Int_Tables_number   1
_chemical_formula_structural   Mn(InTe2)2
_chemical_formula_sum   'Mn1 In2 Te4'
_cell_volume   247.91949115
_cell_formula_units_Z   1
loop_
 _symmetry_equiv_pos_site_id
 _symmetry_equiv_pos_as_xyz
  1  'x, y, z'
loop_
 _atom_site_type_symbol
 _atom_site_label
 _atom_site_symmetry_multiplicity
 _atom_site_fract_x
 _atom_site_fract_y
 _atom_site_fract_z
 _atom_site_occupancy
  Mn  Mn0  1  0.75000979  0.25001630  0.50001578  1
  In  In0  1  0.00000064  0.00000151  -0.00000380  1
  In  In1  1  0.25000119  0.75001767  0.50000082  1
  Te  Te0  1  0.84172829  0.38362070  0.99113740  1
  Te  Te1  1  0.39248526  0.85057194  0.00885309  1
  Te  Te2  1  0.14940709  0.15827354  0.54189586  1
  Te  Te3  1  0.61636874  0.60749833  0.45810085  1
loop_
_geom_bond_atom_site_label_1
_geom_bond_atom_site_label_2
_geom_bond_distance
_geom_bond_site_symmetry_2
Mn0 Te3 2.753398 1_555
Mn0 Te0 2.753439 1_555
Mn0 Te2 2.753462 1_655
Mn0 Te1 2.753527 1_545
In0 Te3 2.821683 1_444
In0 Te2 2.821732 1_555
In0 Te0 2.821767 1_454
In0 Te1 2.821782 1_545
In1 Te2 2.816273 1_565
In1 Te0 2.816281 1_454
In1 Te3 2.816297 1_555
In1 Te1 2.816390 1_556
