# generated using pymatgen
data_SrCa7Mn8O20
_symmetry_space_group_name_H-M   'P 1'
_cell_length_a   7.82168484
_cell_length_b   7.82168484
_cell_length_c   7.68322273
_cell_angle_alpha   88.19119642
_cell_angle_beta   88.19119642
_cell_angle_gamma   90.17205511
_symmetry_Int_Tables_number   1
_chemical_formula_structural   SrCa7Mn8O20
_chemical_formula_sum   'Sr1 Ca7 Mn8 O20'
_cell_volume   469.57791460
_cell_formula_units_Z   1
loop_
 _symmetry_equiv_pos_site_id
 _symmetry_equiv_pos_as_xyz
  1  'x, y, z'
loop_
 _atom_site_type_symbol
 _atom_site_label
 _atom_site_symmetry_multiplicity
 _atom_site_fract_x
 _atom_site_fract_y
 _atom_site_fract_z
 _atom_site_occupancy
  Sr  Sr0  1  0.24558600  0.24558600  0.24372000  1
  Ca  Ca0  1  0.26769800  0.26769800  0.70029900  1
  Ca  Ca1  1  0.25732300  0.73602600  0.26015900  1
  Ca  Ca2  1  0.24676400  0.73009900  0.71628000  1
  Ca  Ca3  1  0.73602600  0.25732300  0.26015900  1
  Ca  Ca4  1  0.73009900  0.24676400  0.71628000  1
  Ca  Ca5  1  0.74286700  0.74286700  0.27141600  1
  Ca  Ca6  1  0.73314900  0.73314900  0.72521100  1
  Mn  Mn0  1  0.00020300  0.00020300  0.99559200  1
  Mn  Mn1  1  0.00087000  0.00087000  0.52155000  1
  Mn  Mn2  1  0.99747400  0.48657700  0.00199000  1
  Mn  Mn3  1  0.00038600  0.50859200  0.49248200  1
  Mn  Mn4  1  0.48657700  0.99747400  0.00199000  1
  Mn  Mn5  1  0.50859200  0.00038600  0.49248200  1
  Mn  Mn6  1  0.50553900  0.50553900  0.99131300  1
  Mn  Mn7  1  0.50398100  0.50398100  0.49703200  1
  O  O0  1  0.93302000  0.93302000  0.77994600  1
  O  O1  1  0.01558400  0.53822500  0.24027800  1
  O  O2  1  0.99592200  0.52954500  0.75072000  1
  O  O3  1  0.53822500  0.01558400  0.24027800  1
  O  O4  1  0.52954500  0.99592200  0.75072000  1
  O  O5  1  0.51075200  0.51075200  0.74367500  1
  O  O6  1  0.22595400  0.96770100  0.06467100  1
  O  O7  1  0.25165500  0.00431600  0.52574500  1
  O  O8  1  0.25456900  0.51000100  0.00223400  1
  O  O9  1  0.26028000  0.50281000  0.48922500  1
  O  O10  1  0.76344800  0.00956700  0.46566100  1
  O  O11  1  0.74874900  0.51792500  0.03519300  1
  O  O12  1  0.74560600  0.50123800  0.47048500  1
  O  O13  1  0.96770100  0.22595400  0.06467100  1
  O  O14  1  0.00431600  0.25165500  0.52574500  1
  O  O15  1  0.00956700  0.76344800  0.46566100  1
  O  O16  1  0.51000100  0.25456900  0.00223400  1
  O  O17  1  0.50281000  0.26028000  0.48922500  1
  O  O18  1  0.51792500  0.74874900  0.03519300  1
  O  O19  1  0.50123800  0.74560600  0.47048500  1
loop_
_geom_bond_atom_site_label_1
_geom_bond_atom_site_label_2
_geom_bond_distance
_geom_bond_site_symmetry_2
Ca0 O9 2.415264 1_555
Ca0 O17 2.415264 1_555
Ca0 O7 2.498371 1_555
Ca0 O14 2.498371 1_555
Ca0 O5 2.719863 1_555
Ca0 O2 2.981237 1_455
Ca0 O4 2.981237 1_545
Ca0 O16 3.041004 1_556
Ca0 O8 3.041004 1_556
Ca1 O6 2.335363 1_555
Ca1 O1 2.451060 1_555
Ca1 O15 2.474882 1_555
Ca1 O9 2.495127 1_555
Ca1 O19 2.541304 1_555
Ca1 O18 2.630182 1_555
Ca1 O8 2.697530 1_555
Ca1 O7 2.972309 1_565
Ca2 O2 2.510529 1_455
Ca2 O9 2.529879 1_555
Ca2 O7 2.557855 1_565
Ca2 O5 2.697637 1_555
Ca2 O19 2.699942 1_555
Ca2 O15 2.722979 1_555
Ca2 O8 2.750412 1_556
Ca2 O0 2.962635 1_455
Ca2 O4 3.054382 1_555
Ca3 O13 2.335363 1_555
Ca3 O3 2.451060 1_555
Ca3 O10 2.474882 1_555
Ca3 O17 2.495127 1_555
Ca3 O12 2.541304 1_555
Ca3 O11 2.630182 1_555
Ca3 O16 2.697530 1_555
Ca3 O14 2.972309 1_655
Ca4 O4 2.510529 1_545
Ca4 O17 2.529879 1_555
Ca4 O14 2.557855 1_655
Ca4 O5 2.697637 1_555
Ca4 O12 2.699942 1_555
Ca4 O10 2.722979 1_555
Ca4 O16 2.750412 1_556
Ca4 O0 2.962635 1_545
Ca4 O2 3.054382 1_555
Ca5 O19 2.394061 1_555
Ca5 O12 2.394061 1_555
Ca5 O18 2.566818 1_555
Ca5 O11 2.566818 1_555
Ca5 O10 2.610463 1_565
Ca5 O15 2.610463 1_655
Ca5 O3 2.679908 1_565
Ca5 O1 2.679908 1_655
Ca6 O0 2.265651 1_555
Ca6 O5 2.454109 1_555
Ca6 O4 2.612338 1_555
Ca6 O2 2.612338 1_555
Ca6 O12 2.709851 1_555
Ca6 O19 2.709851 1_555
Ca6 O11 2.878812 1_556
Ca6 O18 2.878812 1_556
Ca6 O15 2.898673 1_655
Ca6 O10 2.898673 1_565
Mn0 O0 1.845456 1_445
Mn0 O6 1.875513 1_546
Mn0 O13 1.875513 1_456
Mn1 O15 1.920123 1_545
Mn1 O10 1.920123 1_455
Mn1 O14 1.962961 1_555
Mn1 O7 1.962961 1_555
Mn1 O0 2.090465 1_445
Mn2 O1 1.896808 1_655
Mn2 O2 1.949543 1_554
Mn2 O11 1.971155 1_555
Mn2 O8 2.018762 1_655
Mn2 O13 2.090402 1_555
Mn3 O1 1.944126 1_555
Mn3 O2 1.995224 1_455
Mn3 O15 1.998388 1_555
Mn3 O12 2.006077 1_455
Mn3 O14 2.018296 1_555
Mn3 O9 2.032830 1_555
Mn4 O3 1.896808 1_565
Mn4 O4 1.949543 1_554
Mn4 O18 1.971155 1_555
Mn4 O16 2.018762 1_565
Mn4 O6 2.090402 1_555
Mn5 O3 1.944126 1_555
Mn5 O4 1.995224 1_545
Mn5 O10 1.998388 1_555
Mn5 O19 2.006077 1_545
Mn5 O7 2.018296 1_555
Mn5 O17 2.032830 1_555
Mn6 O5 1.900954 1_555
Mn6 O18 1.945066 1_556
Mn6 O11 1.945066 1_556
Mn6 O8 1.962615 1_556
Mn6 O16 1.962615 1_556
Mn7 O19 1.894736 1_555
Mn7 O12 1.894736 1_555
Mn7 O5 1.899826 1_555
Mn7 O9 1.908991 1_555
Mn7 O17 1.908991 1_555
O1 Sr0 2.915515 1_555
O3 Sr0 2.915515 1_555
O6 Sr0 2.615411 1_565
O7 Sr0 2.829791 1_555
O8 Sr0 2.733752 1_555
O9 Sr0 2.805519 1_555
O13 Sr0 2.615411 1_655
O14 Sr0 2.829791 1_555
O16 Sr0 2.733752 1_555
O17 Sr0 2.805519 1_555
