# generated using pymatgen
data_Tm3Ge13Ir4
_symmetry_space_group_name_H-M   'P 1'
_cell_length_a   9.02759000
_cell_length_b   9.02759000
_cell_length_c   9.02759000
_cell_angle_alpha   90.00000000
_cell_angle_beta   90.00000000
_cell_angle_gamma   90.00000000
_symmetry_Int_Tables_number   1
_chemical_formula_structural   Tm3Ge13Ir4
_chemical_formula_sum   'Tm6 Ge26 Ir8'
_cell_volume   735.72494362
_cell_formula_units_Z   2
loop_
 _symmetry_equiv_pos_site_id
 _symmetry_equiv_pos_as_xyz
  1  'x, y, z'
loop_
 _atom_site_type_symbol
 _atom_site_label
 _atom_site_symmetry_multiplicity
 _atom_site_fract_x
 _atom_site_fract_y
 _atom_site_fract_z
 _atom_site_occupancy
  Tm  Tm0  1  0.00000000  0.50000000  0.75000000  1
  Tm  Tm1  1  0.50000000  0.25000000  0.00000000  1
  Tm  Tm2  1  0.75000000  0.00000000  0.50000000  1
  Tm  Tm3  1  0.00000000  0.50000000  0.25000000  1
  Tm  Tm4  1  0.50000000  0.75000000  0.00000000  1
  Tm  Tm5  1  0.25000000  0.00000000  0.50000000  1
  Ge  Ge0  1  0.50000000  0.50000000  0.50000000  1
  Ge  Ge1  1  0.00000000  0.00000000  0.00000000  1
  Ge  Ge2  1  0.80974400  0.35467600  0.50000000  1
  Ge  Ge3  1  0.64532400  0.50000000  0.80974400  1
  Ge  Ge4  1  0.50000000  0.19025600  0.64532400  1
  Ge  Ge5  1  0.19025600  0.64532400  0.50000000  1
  Ge  Ge6  1  0.35467600  0.50000000  0.19025600  1
  Ge  Ge7  1  0.50000000  0.80974400  0.35467600  1
  Ge  Ge8  1  0.80974400  0.64532400  0.50000000  1
  Ge  Ge9  1  0.64532400  0.50000000  0.19025600  1
  Ge  Ge10  1  0.19025600  0.35467600  0.50000000  1
  Ge  Ge11  1  0.35467600  0.50000000  0.80974400  1
  Ge  Ge12  1  0.50000000  0.80974400  0.64532400  1
  Ge  Ge13  1  0.50000000  0.19025600  0.35467600  1
  Ge  Ge14  1  0.30974400  0.00000000  0.85467600  1
  Ge  Ge15  1  0.14532400  0.30974400  0.00000000  1
  Ge  Ge16  1  0.00000000  0.14532400  0.69025600  1
  Ge  Ge17  1  0.69025600  0.00000000  0.14532400  1
  Ge  Ge18  1  0.85467600  0.69025600  0.00000000  1
  Ge  Ge19  1  0.00000000  0.85467600  0.30974400  1
  Ge  Ge20  1  0.30974400  0.00000000  0.14532400  1
  Ge  Ge21  1  0.14532400  0.69025600  0.00000000  1
  Ge  Ge22  1  0.69025600  0.00000000  0.85467600  1
  Ge  Ge23  1  0.85467600  0.30974400  0.00000000  1
  Ge  Ge24  1  0.00000000  0.14532400  0.30974400  1
  Ge  Ge25  1  0.00000000  0.85467600  0.69025600  1
  Ir  Ir0  1  0.75000000  0.25000000  0.75000000  1
  Ir  Ir1  1  0.25000000  0.75000000  0.25000000  1
  Ir  Ir2  1  0.75000000  0.75000000  0.25000000  1
  Ir  Ir3  1  0.25000000  0.25000000  0.75000000  1
  Ir  Ir4  1  0.25000000  0.75000000  0.75000000  1
  Ir  Ir5  1  0.75000000  0.25000000  0.25000000  1
  Ir  Ir6  1  0.25000000  0.25000000  0.25000000  1
  Ir  Ir7  1  0.75000000  0.75000000  0.75000000  1
loop_
_geom_bond_atom_site_label_1
_geom_bond_atom_site_label_2
_geom_bond_distance
_geom_bond_site_symmetry_2
Ge0 Ge2 3.088708 1_555
Ge0 Ge11 3.088708 1_555
Ge0 Ge3 3.088708 1_555
Ge0 Ge8 3.088708 1_555
Ge0 Ge7 3.088708 1_555
Ge0 Ge12 3.088708 1_555
Ge0 Ge13 3.088708 1_555
Ge0 Ge6 3.088708 1_555
Ge0 Ge9 3.088708 1_555
Ge0 Ge4 3.088708 1_555
Ge0 Ge10 3.088708 1_555
Ge0 Ge5 3.088708 1_555
Ge1 Ge20 3.088708 1_555
Ge1 Ge24 3.088708 1_555
Ge1 Ge15 3.088708 1_555
Ge1 Ge14 3.088708 1_554
Ge1 Ge19 3.088708 1_545
Ge1 Ge23 3.088708 1_455
Ge1 Ge21 3.088708 1_545
Ge1 Ge16 3.088708 1_554
Ge1 Ge17 3.088708 1_455
Ge1 Ge25 3.088708 1_544
Ge1 Ge22 3.088708 1_454
Ge1 Ge18 3.088708 1_445
Ge2 Ir0 2.505484 1_555
Ge2 Ir5 2.505484 1_555
Ge2 Ge8 2.623851 1_555
Ge2 Tm0 3.124856 1_655
Ge2 Tm3 3.124856 1_655
Ge2 Tm2 3.246977 1_555
Ge3 Ir0 2.505484 1_555
Ge3 Ir7 2.505484 1_555
Ge3 Tm4 3.124856 1_556
Ge3 Tm1 3.124856 1_556
Ge3 Tm0 3.246977 1_655
Ge4 Ir3 2.505484 1_555
Ge4 Ir0 2.505484 1_555
Ge4 Tm5 3.124856 1_555
Ge4 Tm2 3.124856 1_555
Ge4 Tm1 3.246977 1_556
Ge5 Ir1 2.505484 1_555
Ge5 Ir4 2.505484 1_555
Ge5 Tm0 3.124856 1_555
Ge5 Tm3 3.124856 1_555
Ge5 Tm5 3.246977 1_565
Ge6 Ir1 2.505484 1_555
Ge6 Ir6 2.505484 1_555
Ge6 Ge9 2.623851 1_555
Ge6 Tm1 3.124856 1_555
Ge6 Tm4 3.124856 1_555
Ge6 Tm3 3.246977 1_555
Ge7 Ir1 2.505484 1_555
Ge7 Ir2 2.505484 1_555
Ge7 Tm5 3.124856 1_565
Ge7 Tm2 3.124856 1_565
Ge7 Tm4 3.246977 1_555
Ge8 Ir2 2.505484 1_555
Ge8 Ir7 2.505484 1_555
Ge8 Tm0 3.124856 1_655
Ge8 Tm3 3.124856 1_655
Ge8 Tm2 3.246977 1_565
Ge9 Ir5 2.505484 1_555
Ge9 Ir2 2.505484 1_555
Ge9 Tm1 3.124856 1_555
Ge9 Tm4 3.124856 1_555
Ge9 Tm3 3.246977 1_655
Ge10 Ir6 2.505484 1_555
Ge10 Ir3 2.505484 1_555
Ge10 Ge5 2.623851 1_555
Ge10 Tm0 3.124856 1_555
Ge10 Tm3 3.124856 1_555
Ge10 Tm5 3.246977 1_555
Ge11 Ir4 2.505484 1_555
Ge11 Ir3 2.505484 1_555
Ge11 Ge3 2.623851 1_555
Ge11 Tm4 3.124856 1_556
Ge11 Tm1 3.124856 1_556
Ge11 Tm0 3.246977 1_555
Ge12 Ir4 2.505484 1_555
Ge12 Ir7 2.505484 1_555
Ge12 Ge7 2.623851 1_555
Ge12 Tm5 3.124856 1_565
Ge12 Tm2 3.124856 1_565
Ge12 Tm4 3.246977 1_556
Ge13 Ir5 2.505484 1_555
Ge13 Ir6 2.505484 1_555
Ge13 Ge4 2.623851 1_555
Ge13 Tm5 3.124856 1_555
Ge13 Tm2 3.124856 1_555
Ge13 Tm1 3.246977 1_555
Ge14 Ir4 2.505484 1_545
Ge14 Ir3 2.505484 1_555
Ge14 Ge20 2.623851 1_556
Ge14 Tm1 3.124856 1_556
Ge14 Tm4 3.124856 1_546
Ge14 Tm5 3.246977 1_555
Ge15 Ir6 2.505484 1_555
Ge15 Ir3 2.505484 1_554
Ge15 Ge23 2.623851 1_455
Ge15 Tm0 3.124856 1_554
Ge15 Tm3 3.124856 1_555
Ge15 Tm1 3.246977 1_555
Ge16 Ir3 2.505484 1_555
Ge16 Ir0 2.505484 1_455
Ge16 Ge25 2.623851 1_545
Ge16 Tm5 3.124856 1_555
Ge16 Tm2 3.124856 1_455
Ge16 Tm0 3.246977 1_555
Ge17 Ir5 2.505484 1_555
Ge17 Ir2 2.505484 1_545
Ge17 Ge22 2.623851 1_554
Ge17 Tm4 3.124856 1_545
Ge17 Tm1 3.124856 1_555
Ge17 Tm2 3.246977 1_555
Ge18 Ir7 2.505484 1_554
Ge18 Ir2 2.505484 1_555
Ge18 Ge21 2.623851 1_655
Ge18 Tm3 3.124856 1_655
Ge18 Tm0 3.124856 1_654
Ge18 Tm4 3.246977 1_555
Ge19 Ir1 2.505484 1_555
Ge19 Ir2 2.505484 1_455
Ge19 Ge24 2.623851 1_565
Ge19 Tm2 3.124856 1_465
Ge19 Tm5 3.124856 1_565
Ge19 Tm3 3.246977 1_555
Ge20 Ir6 2.505484 1_555
Ge20 Ir1 2.505484 1_545
Ge20 Tm1 3.124856 1_555
Ge20 Tm4 3.124856 1_545
Ge20 Tm5 3.246977 1_555
Ge21 Ir4 2.505484 1_554
Ge21 Ir1 2.505484 1_555
Ge21 Tm0 3.124856 1_554
Ge21 Tm3 3.124856 1_555
Ge21 Tm4 3.246977 1_555
Ge22 Ir0 2.505484 1_555
Ge22 Ir7 2.505484 1_545
Ge22 Tm1 3.124856 1_556
Ge22 Tm4 3.124856 1_546
Ge22 Tm2 3.246977 1_555
Ge23 Ir5 2.505484 1_555
Ge23 Ir0 2.505484 1_554
Ge23 Tm0 3.124856 1_654
Ge23 Tm3 3.124856 1_655
Ge23 Tm1 3.246977 1_555
Ge24 Ir6 2.505484 1_555
Ge24 Ir5 2.505484 1_455
Ge24 Tm5 3.124856 1_555
Ge24 Tm2 3.124856 1_455
Ge24 Tm3 3.246977 1_555
Ge25 Ir7 2.505484 1_455
Ge25 Ir4 2.505484 1_555
Ge25 Tm5 3.124856 1_565
Ge25 Tm2 3.124856 1_465
Ge25 Tm0 3.246977 1_555
Ir0 Tm2 3.191735 1_555
Ir0 Tm0 3.191735 1_655
Ir0 Tm1 3.191735 1_556
Ir1 Tm5 3.191735 1_565
Ir1 Tm4 3.191735 1_555
Ir1 Tm3 3.191735 1_555
Ir2 Tm2 3.191735 1_565
Ir2 Tm4 3.191735 1_555
Ir2 Tm3 3.191735 1_655
Ir3 Tm5 3.191735 1_555
Ir3 Tm0 3.191735 1_555
Ir3 Tm1 3.191735 1_556
Ir4 Tm5 3.191735 1_565
Ir4 Tm0 3.191735 1_555
Ir4 Tm4 3.191735 1_556
Ir5 Tm1 3.191735 1_555
Ir5 Tm2 3.191735 1_555
Ir5 Tm3 3.191735 1_655
Ir6 Tm1 3.191735 1_555
Ir6 Tm5 3.191735 1_555
Ir6 Tm3 3.191735 1_555
Ir7 Tm2 3.191735 1_565
Ir7 Tm0 3.191735 1_655
Ir7 Tm4 3.191735 1_556
