# generated using pymatgen
data_C3S4O
_symmetry_space_group_name_H-M   'P 1'
_cell_length_a   16.00418800
_cell_length_b   9.90090600
_cell_length_c   8.26536271
_cell_angle_alpha   90.00000000
_cell_angle_beta   100.02676206
_cell_angle_gamma   90.00000000
_symmetry_Int_Tables_number   1
_chemical_formula_structural   C3S4O
_chemical_formula_sum   'C24 S32 O8'
_cell_volume   1289.69239816
_cell_formula_units_Z   8
loop_
 _symmetry_equiv_pos_site_id
 _symmetry_equiv_pos_as_xyz
  1  'x, y, z'
loop_
 _atom_site_type_symbol
 _atom_site_label
 _atom_site_symmetry_multiplicity
 _atom_site_fract_x
 _atom_site_fract_y
 _atom_site_fract_z
 _atom_site_occupancy
  C  C0  1  0.34551800  0.58867600  0.06505300  1
  C  C1  1  0.65448200  0.08867600  0.43494700  1
  C  C2  1  0.65448200  0.41132400  0.93494700  1
  C  C3  1  0.34551800  0.91132400  0.56505300  1
  C  C4  1  0.35352000  0.47531800  0.97380500  1
  C  C5  1  0.64648000  0.97531800  0.52619500  1
  C  C6  1  0.64648000  0.52468200  0.02619500  1
  C  C7  1  0.35352000  0.02468200  0.47380500  1
  C  C8  1  0.21233100  0.33750100  0.82561700  1
  C  C9  1  0.78766900  0.83750100  0.67438300  1
  C  C10  1  0.78766900  0.66249900  0.17438300  1
  C  C11  1  0.21233100  0.16249900  0.32561700  1
  C  C12  1  0.13590700  0.38338800  0.85719200  1
  C  C13  1  0.86409300  0.88338800  0.64280800  1
  C  C14  1  0.86409300  0.61661200  0.14280800  1
  C  C15  1  0.13590700  0.11661200  0.35719200  1
  C  C16  1  0.46823800  0.44765400  0.24522900  1
  C  C17  1  0.53176200  0.94765400  0.25477100  1
  C  C18  1  0.53176200  0.55234600  0.75477100  1
  C  C19  1  0.46823800  0.05234600  0.74522900  1
  C  C20  1  0.12803200  0.11649100  0.88577300  1
  C  C21  1  0.87196800  0.61649100  0.61422700  1
  C  C22  1  0.87196800  0.88350900  0.11422700  1
  C  C23  1  0.12803200  0.38350900  0.38577300  1
  S  S0  1  0.16071700  0.64566600  0.05611400  1
  S  S1  1  0.83928300  0.14566600  0.44388600  1
  S  S2  1  0.83928300  0.35433400  0.94388600  1
  S  S3  1  0.16071700  0.85433400  0.55611400  1
  S  S4  1  0.27402300  0.72255400  0.00899800  1
  S  S5  1  0.72597700  0.22255400  0.49100200  1
  S  S6  1  0.72597700  0.27744600  0.99100200  1
  S  S7  1  0.27402300  0.77744600  0.50899800  1
  S  S8  1  0.41076400  0.60025000  0.25646100  1
  S  S9  1  0.58923600  0.10025000  0.24353900  1
  S  S10  1  0.58923600  0.39975000  0.74353900  1
  S  S11  1  0.41076400  0.89975000  0.75646100  1
  S  S12  1  0.42977800  0.35796300  0.05887400  1
  S  S13  1  0.57022200  0.85796300  0.44112600  1
  S  S14  1  0.57022200  0.64203700  0.94112600  1
  S  S15  1  0.42977800  0.14203700  0.55887400  1
  S  S16  1  0.29447200  0.44114800  0.77634000  1
  S  S17  1  0.70552800  0.94114800  0.72366000  1
  S  S18  1  0.70552800  0.55885200  0.22366000  1
  S  S19  1  0.29447200  0.05885200  0.27634000  1
  S  S20  1  0.22793300  0.16312800  0.83154300  1
  S  S21  1  0.77206700  0.66312800  0.66845700  1
  S  S22  1  0.77206700  0.83687200  0.16845700  1
  S  S23  1  0.22793300  0.33687200  0.33154300  1
  S  S24  1  0.06469700  0.26254800  0.90417300  1
  S  S25  1  0.93530300  0.76254800  0.59582700  1
  S  S26  1  0.93530300  0.73745200  0.09582700  1
  S  S27  1  0.06469700  0.23745200  0.40417300  1
  S  S28  1  0.09995800  0.55161400  0.84446700  1
  S  S29  1  0.90004200  0.05161400  0.65553300  1
  S  S30  1  0.90004200  0.44838600  0.15553300  1
  S  S31  1  0.09995800  0.94838600  0.34446700  1
  O  O0  1  0.52670600  0.40918600  0.35005100  1
  O  O1  1  0.47329400  0.90918600  0.14994900  1
  O  O2  1  0.47329400  0.59081400  0.64994900  1
  O  O3  1  0.52670600  0.09081400  0.85005100  1
  O  O4  1  0.10645800  0.00113100  0.90795700  1
  O  O5  1  0.89354200  0.50113100  0.59204300  1
  O  O6  1  0.89354200  0.99886900  0.09204300  1
  O  O7  1  0.10645800  0.49886900  0.40795700  1
loop_
_geom_bond_atom_site_label_1
_geom_bond_atom_site_label_2
_geom_bond_distance
_geom_bond_site_symmetry_2
C0 C4 1.370588 1_554
C0 S8 1.741021 1_555
C0 S4 1.759626 1_555
C1 C5 1.370588 1_545
C1 S9 1.741021 1_555
C1 S5 1.759626 1_555
C2 C6 1.370588 1_556
C2 S10 1.741021 1_555
C2 S6 1.759626 1_555
C3 C7 1.370588 1_565
C3 S11 1.741021 1_555
C3 S7 1.759626 1_555
C4 S12 1.742161 1_556
C4 S16 1.770380 1_555
C5 S13 1.742161 1_555
C5 S17 1.770380 1_555
C6 S14 1.742161 1_554
C6 S18 1.770380 1_555
C7 S15 1.742161 1_555
C7 S19 1.770380 1_555
C8 S20 1.743881 1_555
C8 S16 1.770195 1_555
C9 S21 1.743881 1_555
C9 S17 1.770195 1_555
C10 C14 1.371734 1_555
C10 S22 1.743881 1_555
C10 S18 1.770195 1_555
C11 C15 1.371734 1_555
C11 S23 1.743881 1_555
C11 S19 1.770195 1_555
C12 C8 1.371734 1_555
C12 S24 1.742167 1_555
C12 S28 1.759315 1_555
C13 C9 1.371734 1_555
C13 S25 1.742167 1_555
C13 S29 1.759315 1_565
C14 S26 1.742167 1_555
C14 S30 1.759315 1_555
C15 S27 1.742167 1_555
C15 S31 1.759315 1_545
C16 O0 1.220241 1_555
C16 S8 1.779625 1_555
C16 S12 1.791594 1_555
C17 O1 1.220241 1_555
C17 S9 1.779625 1_565
C17 S13 1.791594 1_555
C18 O2 1.220241 1_555
C18 S10 1.779625 1_555
C18 S14 1.791594 1_555
C19 O3 1.220241 1_555
C19 S11 1.779625 1_545
C19 S15 1.791594 1_555
C20 O4 1.216318 1_555
C20 S24 1.787579 1_555
C20 S20 1.794420 1_555
C21 O5 1.216318 1_555
C21 S25 1.787579 1_555
C21 S21 1.794420 1_555
C22 O6 1.216318 1_555
C22 S26 1.787579 1_555
C22 S22 1.794420 1_555
C23 O7 1.216318 1_555
C23 S27 1.787579 1_555
C23 S23 1.794420 1_555
S0 S4 2.065282 1_555
S0 S28 2.068948 1_554
S1 S5 2.065282 1_555
S1 S29 2.068948 1_555
S2 S6 2.065282 1_555
S2 S30 2.068948 1_556
S3 S7 2.065282 1_555
S3 S31 2.068948 1_555
