# generated using pymatgen
data_NaFe2(PO4)2
_symmetry_space_group_name_H-M   'P 1'
_cell_length_a   5.14564400
_cell_length_b   8.95458266
_cell_length_c   9.04864552
_cell_angle_alpha   97.10925844
_cell_angle_beta   104.69509241
_cell_angle_gamma   101.55618180
_symmetry_Int_Tables_number   1
_chemical_formula_structural   NaFe2(PO4)2
_chemical_formula_sum   'Na2 Fe4 P4 O16'
_cell_volume   388.35941732
_cell_formula_units_Z   2
loop_
 _symmetry_equiv_pos_site_id
 _symmetry_equiv_pos_as_xyz
  1  'x, y, z'
loop_
 _atom_site_type_symbol
 _atom_site_label
 _atom_site_symmetry_multiplicity
 _atom_site_fract_x
 _atom_site_fract_y
 _atom_site_fract_z
 _atom_site_occupancy
  Na  Na0  1  0.57908300  0.81015500  0.30056300  1
  Na  Na1  1  0.42091700  0.18984500  0.69943700  1
  Fe  Fe0  1  0.68342400  0.62273400  0.89961600  1
  Fe  Fe1  1  0.31657600  0.37726600  0.10038400  1
  Fe  Fe2  1  0.21488700  0.76091200  0.59934700  1
  Fe  Fe3  1  0.78511300  0.23908800  0.40065300  1
  P  P0  1  0.91153500  0.55156800  0.25238600  1
  P  P1  1  0.08846500  0.44843200  0.74761400  1
  P  P2  1  0.82159200  0.92586700  0.73018500  1
  P  P3  1  0.17840800  0.07413300  0.26981500  1
  O  O0  1  0.83313500  0.82255500  0.85367200  1
  O  O1  1  0.16686500  0.17744500  0.14632800  1
  O  O2  1  0.79126500  0.08657700  0.77643300  1
  O  O3  1  0.20873500  0.91342300  0.22356700  1
  O  O4  1  0.25784400  0.61416700  0.73846100  1
  O  O5  1  0.74215600  0.38583300  0.26153900  1
  O  O6  1  0.81160000  0.45458400  0.77633600  1
  O  O7  1  0.18840000  0.54541600  0.22366400  1
  O  O8  1  0.29564900  0.39846700  0.87731900  1
  O  O9  1  0.70435100  0.60153300  0.12268100  1
  O  O10  1  0.09109900  0.93245500  0.67270200  1
  O  O11  1  0.90890100  0.06754500  0.32729800  1
  O  O12  1  0.94905600  0.66132600  0.40776400  1
  O  O13  1  0.05094400  0.33867400  0.59223600  1
  O  O14  1  0.57108500  0.83367600  0.57964900  1
  O  O15  1  0.42891500  0.16632400  0.42035100  1
loop_
_geom_bond_atom_site_label_1
_geom_bond_atom_site_label_2
_geom_bond_distance
_geom_bond_site_symmetry_2
Na0 O3 2.272451 1_555
Na0 O11 2.517428 1_565
Na0 O14 2.519523 1_555
Na0 O12 2.596323 1_555
Na0 O9 2.600138 1_555
Na0 O7 2.667958 1_555
Na1 O2 2.272451 1_555
Na1 O10 2.517428 1_545
Na1 O15 2.519523 1_555
Na1 O13 2.596323 1_555
Na1 O8 2.600138 1_555
Na1 O6 2.667958 1_555
Fe0 O0 1.939657 1_555
Fe0 O9 2.028420 1_556
Fe0 O6 2.074118 1_555
Fe0 O4 2.283149 1_555
Fe0 O8 2.478923 1_555
Fe1 O1 1.939657 1_555
Fe1 O8 2.028420 1_554
Fe1 O7 2.074118 1_555
Fe1 O5 2.283149 1_555
Fe1 O9 2.478923 1_555
Fe2 O14 1.879290 1_555
Fe2 O10 1.886810 1_555
Fe2 O12 1.896601 1_455
Fe2 O4 1.935138 1_555
Fe3 O15 1.879290 1_555
Fe3 O11 1.886810 1_555
Fe3 O13 1.896601 1_655
Fe3 O5 1.935138 1_555
O0 P2 1.533669 1_555
O1 P3 1.533669 1_555
O2 P2 1.498167 1_545
O3 P3 1.498167 1_565
O4 P1 1.586760 1_555
O5 P0 1.586760 1_555
O6 P1 1.521827 1_655
O7 P0 1.521827 1_455
O8 P1 1.549348 1_555
O9 P0 1.549348 1_555
O10 P2 1.593107 1_455
O11 P3 1.593107 1_655
O12 P0 1.556980 1_555
O13 P1 1.556980 1_555
O14 P2 1.613384 1_555
O15 P3 1.613384 1_555
