# generated using pymatgen
data_MgZn4(Co3O8)2
_symmetry_space_group_name_H-M   'P 1'
_cell_length_a   5.77630383
_cell_length_b   5.89151648
_cell_length_c   9.98240859
_cell_angle_alpha   87.77596076
_cell_angle_beta   91.08734965
_cell_angle_gamma   119.54466654
_symmetry_Int_Tables_number   1
_chemical_formula_structural   MgZn4(Co3O8)2
_chemical_formula_sum   'Mg1 Zn4 Co6 O16'
_cell_volume   295.31822071
_cell_formula_units_Z   1
loop_
 _symmetry_equiv_pos_site_id
 _symmetry_equiv_pos_as_xyz
  1  'x, y, z'
loop_
 _atom_site_type_symbol
 _atom_site_label
 _atom_site_symmetry_multiplicity
 _atom_site_fract_x
 _atom_site_fract_y
 _atom_site_fract_z
 _atom_site_occupancy
  Mg  Mg0  1  0.65032400  0.28212400  0.97172100  1
  Zn  Zn0  1  0.70901900  0.39736700  0.21871600  1
  Zn  Zn1  1  0.30554500  0.64892000  0.50897300  1
  Zn  Zn2  1  0.65622400  0.30800700  0.45178800  1
  Zn  Zn3  1  0.32951600  0.64409500  0.91736400  1
  Co  Co0  1  0.68848000  0.86636600  0.23144800  1
  Co  Co1  1  0.81881300  0.14183400  0.73061600  1
  Co  Co2  1  0.18419400  0.35344900  0.23042600  1
  Co  Co3  1  0.82467800  0.65978900  0.73013100  1
  Co  Co4  1  0.30374500  0.14526500  0.72920600  1
  Co  Co5  1  0.19159300  0.87693100  0.22088400  1
  O  O0  1  0.84960200  0.19513800  0.12405400  1
  O  O1  1  0.66720600  0.83860600  0.63514400  1
  O  O2  1  0.13514600  0.30041700  0.63055800  1
  O  O3  1  0.88271000  0.73309000  0.12185700  1
  O  O4  1  0.36844700  0.20980900  0.11703900  1
  O  O5  1  0.11845300  0.80116200  0.63114700  1
  O  O6  1  0.52109700  0.47726200  0.84330500  1
  O  O7  1  0.01875400  0.50284900  0.35751500  1
  O  O8  1  0.47925800  0.97189000  0.35324000  1
  O  O9  1  0.50270200  0.00279200  0.83846800  1
  O  O10  1  0.03315800  0.01240600  0.32556900  1
  O  O11  1  0.95954800  0.95951700  0.83057500  1
  O  O12  1  0.34318300  0.70303800  0.12169500  1
  O  O13  1  0.96028700  0.45042500  0.84063600  1
  O  O14  1  0.50401100  0.52438100  0.35107300  1
  O  O15  1  0.66097300  0.32641000  0.63813800  1
loop_
_geom_bond_atom_site_label_1
_geom_bond_atom_site_label_2
_geom_bond_distance
_geom_bond_site_symmetry_2
Mg0 O9 1.986887 1_555
Mg0 O13 2.034339 1_555
Mg0 O6 2.053730 1_555
Mg0 O4 2.072302 1_556
Mg0 O0 2.086834 1_556
Co0 O0 1.966258 1_565
Co0 O10 1.972142 1_665
Co0 O3 2.013480 1_555
Co0 O8 2.044644 1_555
Co0 O12 2.051968 1_555
Co0 O14 2.089290 1_555
Co1 O1 1.850475 1_545
Co1 O2 1.876846 1_655
Co1 O11 1.886114 1_545
Co1 O9 1.922314 1_555
Co1 O15 1.932327 1_555
Co1 O13 1.958330 1_555
Co2 O10 1.963385 1_555
Co2 O0 1.988470 1_455
Co2 O14 2.013037 1_555
Co2 O4 2.034291 1_555
Co2 O7 2.063897 1_555
Co2 O12 2.064563 1_555
Co3 O5 1.776381 1_655
Co3 O11 1.865898 1_555
Co3 O6 1.904980 1_555
Co3 O1 1.916017 1_555
Co3 O15 1.967376 1_555
Co3 O13 2.041165 1_555
Co4 O2 1.877596 1_555
Co4 O11 2.004768 1_445
Co4 O15 2.011803 1_555
Co4 O9 2.011874 1_555
Co4 O5 2.046461 1_545
Co4 O6 2.096702 1_555
Co5 O3 1.840015 1_455
Co5 O10 1.840659 1_565
Co5 O12 1.947573 1_555
Co5 O4 1.967463 1_565
Co5 O8 1.968998 1_555
Co5 O7 2.315733 1_555
O0 Zn0 2.010608 1_555
O1 Zn1 2.215035 1_555
O2 Zn1 2.125194 1_555
O3 Zn0 1.945497 1_555
O4 Zn0 1.997179 1_555
O5 Zn1 2.133232 1_555
O6 Zn3 1.974187 1_555
O7 Zn2 2.051534 1_455
O7 Zn1 2.090634 1_555
O7 Zn0 2.093596 1_455
O8 Zn2 2.012648 1_565
O8 Zn1 2.234022 1_555
O9 Zn3 1.975539 1_545
O12 Zn3 2.075835 1_554
O13 Zn3 2.010766 1_655
O14 Zn2 2.093132 1_555
O14 Zn0 2.172089 1_555
O14 Zn1 2.307583 1_555
O15 Zn2 1.866472 1_555
