# generated using pymatgen
data_Ac2ZnAu
_symmetry_space_group_name_H-M   'P 1'
_cell_length_a   5.51657694
_cell_length_b   5.51657694
_cell_length_c   5.51657694
_cell_angle_alpha   60.00000000
_cell_angle_beta   60.00000000
_cell_angle_gamma   60.00000000
_symmetry_Int_Tables_number   1
_chemical_formula_structural   Ac2ZnAu
_chemical_formula_sum   'Ac2 Zn1 Au1'
_cell_volume   118.71184100
_cell_formula_units_Z   1
loop_
 _symmetry_equiv_pos_site_id
 _symmetry_equiv_pos_as_xyz
  1  'x, y, z'
loop_
 _atom_site_type_symbol
 _atom_site_label
 _atom_site_symmetry_multiplicity
 _atom_site_fract_x
 _atom_site_fract_y
 _atom_site_fract_z
 _atom_site_occupancy
  Ac  Ac0  1  0.25000000  0.25000000  0.25000000  1
  Ac  Ac1  1  0.75000000  0.75000000  0.75000000  1
  Zn  Zn0  1  0.00000000  0.00000000  -0.00000000  1
  Au  Au0  1  0.50000000  0.50000000  0.50000000  1
loop_
_geom_bond_atom_site_label_1
_geom_bond_atom_site_label_2
_geom_bond_distance
_geom_bond_site_symmetry_2
Ac0 Au0 3.378200 1_555
Ac0 Au0 3.378200 1_554
Ac0 Zn0 3.378200 1_555
Ac0 Zn0 3.378200 1_556
Ac0 Au0 3.378200 1_545
Ac0 Au0 3.378200 1_455
Ac0 Zn0 3.378200 1_565
Ac0 Zn0 3.378200 1_655
Ac1 Zn0 3.378200 1_666
Ac1 Au0 3.378200 1_555
Ac1 Au0 3.378200 1_556
Ac1 Zn0 3.378200 1_665
Ac1 Zn0 3.378200 1_566
Ac1 Au0 3.378200 1_655
Ac1 Au0 3.378200 1_565
Ac1 Zn0 3.378200 1_656
