# generated using pymatgen
data_MnSb3XeF23
_symmetry_space_group_name_H-M   'P 1'
_cell_length_a   10.94813700
_cell_length_b   11.39992700
_cell_length_c   16.21305500
_cell_angle_alpha   90.00000000
_cell_angle_beta   90.00000000
_cell_angle_gamma   90.00000000
_symmetry_Int_Tables_number   1
_chemical_formula_structural   MnSb3XeF23
_chemical_formula_sum   'Mn4 Sb12 Xe4 F92'
_cell_volume   2023.51836184
_cell_formula_units_Z   4
loop_
 _symmetry_equiv_pos_site_id
 _symmetry_equiv_pos_as_xyz
  1  'x, y, z'
loop_
 _atom_site_type_symbol
 _atom_site_label
 _atom_site_symmetry_multiplicity
 _atom_site_fract_x
 _atom_site_fract_y
 _atom_site_fract_z
 _atom_site_occupancy
  Mn  Mn0  1  0.00000000  0.00000000  0.00000000  1
  Mn  Mn1  1  0.50000000  0.50000000  0.50000000  1
  Mn  Mn2  1  0.00000000  0.00000000  0.50000000  1
  Mn  Mn3  1  0.50000000  0.50000000  0.00000000  1
  Sb  Sb0  1  0.29687200  0.79452700  0.98782300  1
  Sb  Sb1  1  0.79687200  0.70547300  0.51217700  1
  Sb  Sb2  1  0.70312800  0.20547300  0.48782300  1
  Sb  Sb3  1  0.20312800  0.29452700  0.01217700  1
  Sb  Sb4  1  0.70312800  0.20547300  0.01217700  1
  Sb  Sb5  1  0.20312800  0.29452700  0.48782300  1
  Sb  Sb6  1  0.29687200  0.79452700  0.51217700  1
  Sb  Sb7  1  0.79687200  0.70547300  0.98782300  1
  Sb  Sb8  1  0.99680800  0.95866000  0.25000000  1
  Sb  Sb9  1  0.49680800  0.54134000  0.25000000  1
  Sb  Sb10  1  0.00319200  0.04134000  0.75000000  1
  Sb  Sb11  1  0.50319200  0.45866000  0.75000000  1
  Xe  Xe0  1  0.44809100  0.95422400  0.25000000  1
  Xe  Xe1  1  0.94809100  0.54577600  0.25000000  1
  Xe  Xe2  1  0.55190900  0.04577600  0.75000000  1
  Xe  Xe3  1  0.05190900  0.45422400  0.75000000  1
  F  F0  1  0.55392000  0.09157600  0.25000000  1
  F  F1  1  0.05392000  0.40842400  0.25000000  1
  F  F2  1  0.44608000  0.90842400  0.75000000  1
  F  F3  1  0.94608000  0.59157600  0.75000000  1
  F  F4  1  0.56428400  0.90223300  0.16572200  1
  F  F5  1  0.06428400  0.59776700  0.33427800  1
  F  F6  1  0.43571600  0.09776700  0.66572200  1
  F  F7  1  0.93571600  0.40223300  0.83427800  1
  F  F8  1  0.43571600  0.09776700  0.83427800  1
  F  F9  1  0.93571600  0.40223300  0.66572200  1
  F  F10  1  0.56428400  0.90223300  0.33427800  1
  F  F11  1  0.06428400  0.59776700  0.16572200  1
  F  F12  1  0.36245500  0.04709400  0.16612600  1
  F  F13  1  0.86245500  0.45290600  0.33387400  1
  F  F14  1  0.63754500  0.95290600  0.66612600  1
  F  F15  1  0.13754500  0.54709400  0.83387400  1
  F  F16  1  0.63754500  0.95290600  0.83387400  1
  F  F17  1  0.13754500  0.54709400  0.66612600  1
  F  F18  1  0.36245500  0.04709400  0.33387400  1
  F  F19  1  0.86245500  0.45290600  0.16612600  1
  F  F20  1  0.41908900  0.90317200  0.95794400  1
  F  F21  1  0.91908900  0.59682800  0.54205600  1
  F  F22  1  0.58091100  0.09682800  0.45794400  1
  F  F23  1  0.08091100  0.40317200  0.04205600  1
  F  F24  1  0.58091100  0.09682800  0.04205600  1
  F  F25  1  0.08091100  0.40317200  0.45794400  1
  F  F26  1  0.41908900  0.90317200  0.54205600  1
  F  F27  1  0.91908900  0.59682800  0.95794400  1
  F  F28  1  0.17564200  0.68590900  0.02167300  1
  F  F29  1  0.67564200  0.81409100  0.47832700  1
  F  F30  1  0.82435800  0.31409100  0.52167300  1
  F  F31  1  0.32435800  0.18590900  0.97832700  1
  F  F32  1  0.82435800  0.31409100  0.97832700  1
  F  F33  1  0.32435800  0.18590900  0.52167300  1
  F  F34  1  0.17564200  0.68590900  0.47832700  1
  F  F35  1  0.67564200  0.81409100  0.02167300  1
  F  F36  1  0.25310400  0.77321100  0.87574400  1
  F  F37  1  0.75310400  0.72678900  0.62425600  1
  F  F38  1  0.74689600  0.22678900  0.37574400  1
  F  F39  1  0.24689600  0.27321100  0.12425600  1
  F  F40  1  0.74689600  0.22678900  0.12425600  1
  F  F41  1  0.24689600  0.27321100  0.37574400  1
  F  F42  1  0.25310400  0.77321100  0.62425600  1
  F  F43  1  0.75310400  0.72678900  0.87574400  1
  F  F44  1  0.33870600  0.81582000  0.10191200  1
  F  F45  1  0.83870600  0.68418000  0.39808800  1
  F  F46  1  0.66129400  0.18418000  0.60191200  1
  F  F47  1  0.16129400  0.31582000  0.89808800  1
  F  F48  1  0.66129400  0.18418000  0.89808800  1
  F  F49  1  0.16129400  0.31582000  0.60191200  1
  F  F50  1  0.33870600  0.81582000  0.39808800  1
  F  F51  1  0.83870600  0.68418000  0.10191200  1
  F  F52  1  0.17598800  0.92222300  0.99689300  1
  F  F53  1  0.67598800  0.57777700  0.50310700  1
  F  F54  1  0.82401200  0.07777700  0.49689300  1
  F  F55  1  0.32401200  0.42222300  0.00310700  1
  F  F56  1  0.82401200  0.07777700  0.00310700  1
  F  F57  1  0.32401200  0.42222300  0.49689300  1
  F  F58  1  0.17598800  0.92222300  0.50310700  1
  F  F59  1  0.67598800  0.57777700  0.99689300  1
  F  F60  1  0.41591000  0.66519500  0.97969700  1
  F  F61  1  0.91591000  0.83480500  0.52030300  1
  F  F62  1  0.58409000  0.33480500  0.47969700  1
  F  F63  1  0.08409000  0.16519500  0.02030300  1
  F  F64  1  0.58409000  0.33480500  0.02030300  1
  F  F65  1  0.08409000  0.16519500  0.47969700  1
  F  F66  1  0.41591000  0.66519500  0.52030300  1
  F  F67  1  0.91591000  0.83480500  0.97969700  1
  F  F68  1  0.82683100  0.98749100  0.25000000  1
  F  F69  1  0.32683100  0.51250900  0.25000000  1
  F  F70  1  0.17316900  0.01250900  0.75000000  1
  F  F71  1  0.67316900  0.48749100  0.75000000  1
  F  F72  1  0.03634300  0.11955100  0.25000000  1
  F  F73  1  0.53634300  0.38044900  0.25000000  1
  F  F74  1  0.96365700  0.88044900  0.75000000  1
  F  F75  1  0.46365700  0.61955100  0.75000000  1
  F  F76  1  0.96205700  0.79218000  0.25000000  1
  F  F77  1  0.46205700  0.70782000  0.25000000  1
  F  F78  1  0.03794300  0.20782000  0.75000000  1
  F  F79  1  0.53794300  0.29218000  0.75000000  1
  F  F80  1  0.16671100  0.91810400  0.25000000  1
  F  F81  1  0.66671100  0.58189600  0.25000000  1
  F  F82  1  0.83328900  0.08189600  0.75000000  1
  F  F83  1  0.33328900  0.41810400  0.75000000  1
  F  F84  1  0.99789700  0.95704000  0.12931900  1
  F  F85  1  0.49789700  0.54296000  0.37068100  1
  F  F86  1  0.00210300  0.04296000  0.62931900  1
  F  F87  1  0.50210300  0.45704000  0.87068100  1
  F  F88  1  0.00210300  0.04296000  0.87068100  1
  F  F89  1  0.50210300  0.45704000  0.62931900  1
  F  F90  1  0.99789700  0.95704000  0.37068100  1
  F  F91  1  0.49789700  0.54296000  0.12931900  1
loop_
_geom_bond_atom_site_label_1
_geom_bond_atom_site_label_2
_geom_bond_distance
_geom_bond_site_symmetry_2
F0 Xe0 1.947861 1_545
F1 Xe1 1.947861 1_455
F2 Xe2 1.947861 1_565
F3 Xe3 1.947861 1_655
F4 Xe0 1.958718 1_555
F5 Xe1 1.958718 1_455
F6 Xe2 1.958718 1_555
F7 Xe3 1.958718 1_655
F8 Xe2 1.958718 1_555
F9 Xe3 1.958718 1_655
F10 Xe0 1.958718 1_555
F11 Xe1 1.958718 1_455
F12 Xe0 1.961907 1_545
F13 Xe1 1.961907 1_555
F14 Xe2 1.961907 1_565
F15 Xe3 1.961907 1_555
F16 Xe2 1.961907 1_565
F17 Xe3 1.961907 1_555
F18 Xe0 1.961907 1_545
F19 Xe1 1.961907 1_555
F20 Sb0 1.886542 1_555
F21 Sb1 1.886542 1_555
F22 Sb2 1.886542 1_555
F23 Sb3 1.886542 1_555
F24 Sb4 1.886542 1_555
F25 Sb5 1.886542 1_555
F26 Sb6 1.886542 1_555
F27 Sb7 1.886542 1_555
F28 Sb0 1.896312 1_554
F29 Sb1 1.896312 1_555
F30 Sb2 1.896312 1_555
F31 Sb3 1.896312 1_556
F32 Sb4 1.896312 1_556
F33 Sb5 1.896312 1_555
F34 Sb6 1.896312 1_555
F35 Sb7 1.896312 1_554
F36 Sb0 1.894906 1_555
F37 Sb1 1.894906 1_555
F38 Sb2 1.894906 1_555
F39 Sb3 1.894906 1_555
F40 Sb4 1.894906 1_555
F41 Sb5 1.894906 1_555
F42 Sb6 1.894906 1_555
F43 Sb7 1.894906 1_555
F44 Sb0 1.920988 1_554
F45 Sb1 1.920988 1_555
F46 Sb2 1.920988 1_555
F47 Sb3 1.920988 1_556
F48 Sb4 1.920988 1_556
F49 Sb5 1.920988 1_555
F50 Sb6 1.920988 1_555
F51 Sb7 1.920988 1_554
F52 Sb0 1.972889 1_555
F52 Mn0 2.121561 1_566
F53 Sb1 1.972889 1_555
F53 Mn1 2.121561 1_555
F54 Sb2 1.972889 1_555
F54 Mn2 2.121561 1_655
F55 Sb3 1.972889 1_555
F55 Mn3 2.121561 1_555
F56 Sb4 1.972889 1_555
F56 Mn0 2.121561 1_655
F57 Sb5 1.972889 1_555
F57 Mn1 2.121561 1_555
F58 Sb6 1.972889 1_555
F58 Mn2 2.121561 1_565
F59 Sb7 1.972889 1_555
F59 Mn3 2.121561 1_556
F60 Sb0 1.972203 1_555
F60 Mn3 2.121885 1_556
F61 Sb1 1.972203 1_555
F61 Mn2 2.121885 1_665
F62 Sb2 1.972203 1_555
F62 Mn1 2.121885 1_555
F63 Sb3 1.972203 1_555
F63 Mn0 2.121885 1_555
F64 Sb4 1.972203 1_555
F64 Mn3 2.121885 1_555
F65 Sb5 1.972203 1_555
F65 Mn2 2.121885 1_555
F66 Sb6 1.972203 1_555
F66 Mn1 2.121885 1_555
F67 Sb7 1.972203 1_555
F67 Mn0 2.121885 1_666
F68 Sb8 1.889733 1_555
F69 Sb9 1.889733 1_555
F70 Sb10 1.889733 1_555
F71 Sb11 1.889733 1_555
F72 Sb8 1.884525 1_445
F73 Sb9 1.884525 1_555
F74 Sb10 1.884525 1_665
F75 Sb11 1.884525 1_555
F76 Sb8 1.935619 1_555
F77 Sb9 1.935619 1_555
F78 Sb10 1.935619 1_555
F79 Sb11 1.935619 1_555
F80 Sb8 1.916717 1_455
F81 Sb9 1.916717 1_555
F82 Sb10 1.916717 1_655
F83 Sb11 1.916717 1_555
F84 Sb8 1.956731 1_555
F84 Mn0 2.153217 1_665
F85 Sb9 1.956731 1_555
F85 Mn1 2.153217 1_555
F86 Sb10 1.956731 1_555
F86 Mn2 2.153217 1_555
F87 Sb11 1.956731 1_555
F87 Mn3 2.153217 1_556
F88 Sb10 1.956731 1_555
F88 Mn0 2.153217 1_556
F89 Sb11 1.956731 1_555
F89 Mn1 2.153217 1_555
F90 Sb8 1.956731 1_555
F90 Mn2 2.153217 1_665
F91 Sb9 1.956731 1_555
F91 Mn3 2.153217 1_555
