# generated using pymatgen
data_Cs2Ni3S4
_symmetry_space_group_name_H-M   'P 1'
_cell_length_a   5.88206699
_cell_length_b   5.88206699
_cell_length_c   7.93044496
_cell_angle_alpha   101.03074815
_cell_angle_beta   101.03074815
_cell_angle_gamma   118.95132915
_symmetry_Int_Tables_number   1
_chemical_formula_structural   Cs2Ni3S4
_chemical_formula_sum   'Cs2 Ni3 S4'
_cell_volume   222.40583175
_cell_formula_units_Z   1
loop_
 _symmetry_equiv_pos_site_id
 _symmetry_equiv_pos_as_xyz
  1  'x, y, z'
loop_
 _atom_site_type_symbol
 _atom_site_label
 _atom_site_symmetry_multiplicity
 _atom_site_fract_x
 _atom_site_fract_y
 _atom_site_fract_z
 _atom_site_occupancy
  Cs  Cs0  1  0.66114900  0.66114900  0.32229700  1
  Cs  Cs1  1  0.33885100  0.33885100  0.67770300  1
  Ni  Ni0  1  0.00000000  0.00000000  0.00000000  1
  Ni  Ni1  1  0.00000000  0.50000000  0.00000000  1
  Ni  Ni2  1  0.50000000  0.00000000  0.00000000  1
  S  S0  1  0.73589500  0.07134500  0.80724000  1
  S  S1  1  0.92865500  0.26410500  0.19276000  1
  S  S2  1  0.07134500  0.73589500  0.80724000  1
  S  S3  1  0.26410500  0.92865500  0.19276000  1
loop_
_geom_bond_atom_site_label_1
_geom_bond_atom_site_label_2
_geom_bond_distance
_geom_bond_site_symmetry_2
Cs0 S1 3.499087 1_555
Cs0 S3 3.499087 1_555
Cs0 S3 3.566482 1_655
Cs0 S1 3.566482 1_565
Cs0 S1 3.566487 1_455
Cs0 S3 3.566487 1_545
Cs0 S0 3.947184 1_565
Cs0 S2 3.947184 1_655
Cs1 S0 3.499087 1_555
Cs1 S2 3.499087 1_555
Cs1 S0 3.566482 1_455
Cs1 S2 3.566482 1_545
Cs1 S0 3.566487 1_565
Cs1 S2 3.566487 1_655
Cs1 S1 3.947184 1_455
Cs1 S3 3.947184 1_545
Ni0 S3 2.212272 1_545
Ni0 S1 2.212272 1_455
Ni0 S0 2.212272 1_454
Ni0 S2 2.212272 1_544
Ni1 S3 2.220740 1_555
Ni1 S1 2.220740 1_455
Ni1 S0 2.220740 1_454
Ni1 S2 2.220740 1_554
Ni2 S1 2.220740 1_555
Ni2 S3 2.220740 1_545
Ni2 S0 2.220740 1_554
Ni2 S2 2.220740 1_544
