# generated using pymatgen
data_CaNiF5
_symmetry_space_group_name_H-M   'P 1'
_cell_length_a   5.48182179
_cell_length_b   5.48182179
_cell_length_c   7.58804312
_cell_angle_alpha   70.09831919
_cell_angle_beta   70.09831919
_cell_angle_gamma   71.15574928
_symmetry_Int_Tables_number   1
_chemical_formula_structural   CaNiF5
_chemical_formula_sum   'Ca2 Ni2 F10'
_cell_volume   195.99079530
_cell_formula_units_Z   2
loop_
 _symmetry_equiv_pos_site_id
 _symmetry_equiv_pos_as_xyz
  1  'x, y, z'
loop_
 _atom_site_type_symbol
 _atom_site_label
 _atom_site_symmetry_multiplicity
 _atom_site_fract_x
 _atom_site_fract_y
 _atom_site_fract_z
 _atom_site_occupancy
  Ca  Ca0  1  0.54986480  0.45013520  0.25000000  1
  Ca  Ca1  1  0.45013520  0.54986480  0.75000000  1
  Ni  Ni0  1  0.00000000  -0.00000000  0.50000000  1
  Ni  Ni1  1  0.00000000  -0.00000000  -0.00000000  1
  F  F0  1  0.08246016  0.91753984  0.75000000  1
  F  F1  1  0.91753984  0.08246016  0.25000000  1
  F  F2  1  0.21179665  0.24098049  0.88626918  1
  F  F3  1  0.75901951  0.78820335  0.61373082  1
  F  F4  1  0.71482904  0.30333975  0.53152819  1
  F  F5  1  0.69666025  0.28517096  0.96847181  1
  F  F6  1  0.28517096  0.69666025  0.46847181  1
  F  F7  1  0.30333975  0.71482904  0.03152819  1
  F  F8  1  0.24098049  0.21179665  0.38626918  1
  F  F9  1  0.78820335  0.75901951  0.11373082  1
loop_
_geom_bond_atom_site_label_1
_geom_bond_atom_site_label_2
_geom_bond_distance
_geom_bond_site_symmetry_2
Ca0 F8 2.227253 1_555
Ca0 F9 2.227253 1_555
Ca0 F7 2.302344 1_555
Ca0 F6 2.302344 1_555
Ca0 F1 2.345306 1_555
Ca0 F5 2.388229 1_554
Ca0 F4 2.388229 1_555
Ca1 F2 2.227253 1_555
Ca1 F3 2.227253 1_555
Ca1 F4 2.302344 1_555
Ca1 F5 2.302344 1_555
Ca1 F0 2.345306 1_555
Ca1 F6 2.388229 1_555
Ca1 F7 2.388229 1_556
F0 Ni0 1.968583 1_565
F0 Ni1 1.968583 1_566
F1 Ni1 1.968583 1_655
F1 Ni0 1.968583 1_655
F2 Ni1 1.835841 1_556
F3 Ni0 1.835841 1_665
F4 Ni0 1.898176 1_655
F5 Ni1 1.898176 1_656
F6 Ni0 1.898176 1_565
F7 Ni1 1.898176 1_565
F8 Ni0 1.835841 1_555
F9 Ni1 1.835841 1_665
