# generated using pymatgen
data_GdMn2O4
_symmetry_space_group_name_H-M   'P 1'
_cell_length_a   6.52659373
_cell_length_b   6.52659373
_cell_length_c   6.26744026
_cell_angle_alpha   61.76762580
_cell_angle_beta   61.76762580
_cell_angle_gamma   56.97781735
_symmetry_Int_Tables_number   1
_chemical_formula_structural   GdMn2O4
_chemical_formula_sum   'Gd2 Mn4 O8'
_cell_volume   188.65640781
_cell_formula_units_Z   2
loop_
 _symmetry_equiv_pos_site_id
 _symmetry_equiv_pos_as_xyz
  1  'x, y, z'
loop_
 _atom_site_type_symbol
 _atom_site_label
 _atom_site_symmetry_multiplicity
 _atom_site_fract_x
 _atom_site_fract_y
 _atom_site_fract_z
 _atom_site_occupancy
  Gd  Gd0  1  0.12502100  0.12502100  0.11161100  1
  Gd  Gd1  1  0.87497900  0.87497900  0.88838900  1
  Mn  Mn0  1  0.50000000  0.50000000  0.00000000  1
  Mn  Mn1  1  0.50000000  0.50000000  0.50000000  1
  Mn  Mn2  1  0.50000000  0.00000000  0.50000000  1
  Mn  Mn3  1  0.00000000  0.50000000  0.50000000  1
  O  O0  1  0.73078100  0.73078100  0.29926200  1
  O  O1  1  0.74984200  0.74984200  0.72034300  1
  O  O2  1  0.73188700  0.29058600  0.76329900  1
  O  O3  1  0.29058600  0.73188700  0.76329900  1
  O  O4  1  0.26921900  0.26921900  0.70073800  1
  O  O5  1  0.25015800  0.25015800  0.27965700  1
  O  O6  1  0.26811300  0.70941400  0.23670100  1
  O  O7  1  0.70941400  0.26811300  0.23670100  1
loop_
_geom_bond_atom_site_label_1
_geom_bond_atom_site_label_2
_geom_bond_distance
_geom_bond_site_symmetry_2
Gd0 O6 2.182706 1_545
Gd0 O7 2.182706 1_455
Gd0 O4 2.186846 1_554
Gd0 O5 2.190427 1_555
Gd1 O3 2.182706 1_655
Gd1 O2 2.182706 1_565
Gd1 O0 2.186846 1_556
Gd1 O1 2.190427 1_555
Mn0 O6 1.974572 1_555
Mn0 O7 1.974572 1_555
Mn0 O2 1.974572 1_554
Mn0 O3 1.974572 1_554
Mn0 O5 2.424863 1_555
Mn0 O1 2.424863 1_554
Mn1 O3 2.203675 1_555
Mn1 O2 2.203675 1_555
Mn1 O6 2.203675 1_555
Mn1 O7 2.203675 1_555
Mn1 O4 2.237682 1_555
Mn1 O0 2.237682 1_555
Mn2 O1 2.080216 1_545
Mn2 O5 2.080216 1_555
Mn2 O4 2.086370 1_555
Mn2 O0 2.086370 1_545
Mn2 O7 2.322523 1_555
Mn2 O3 2.322523 1_545
Mn3 O1 2.080216 1_455
Mn3 O5 2.080216 1_555
Mn3 O4 2.086370 1_555
Mn3 O0 2.086370 1_455
Mn3 O6 2.322523 1_555
Mn3 O2 2.322523 1_455
