# generated using pymatgen
data_Tc3Mo
_symmetry_space_group_name_H-M   'P 1'
_cell_length_a   5.54389260
_cell_length_b   5.54389260
_cell_length_c   17.97604000
_cell_angle_alpha   90.00000000
_cell_angle_beta   90.00000000
_cell_angle_gamma   120.00000715
_symmetry_Int_Tables_number   1
_chemical_formula_structural   Tc3Mo
_chemical_formula_sum   'Tc24 Mo8'
_cell_volume   478.46948199
_cell_formula_units_Z   8
loop_
 _symmetry_equiv_pos_site_id
 _symmetry_equiv_pos_as_xyz
  1  'x, y, z'
loop_
 _atom_site_type_symbol
 _atom_site_label
 _atom_site_symmetry_multiplicity
 _atom_site_fract_x
 _atom_site_fract_y
 _atom_site_fract_z
 _atom_site_occupancy
  Tc  Tc0_0  1  0.16666650  0.33333350  0.00000000  1
  Tc  Tc0_1  1  0.16666650  0.33333350  0.50000000  1
  Tc  Tc0_2  1  0.16666650  0.83333350  0.00000000  1
  Tc  Tc0_3  1  0.16666650  0.83333350  0.50000000  1
  Tc  Tc0_4  1  0.66666650  0.33333350  0.00000000  1
  Tc  Tc0_5  1  0.66666650  0.33333350  0.50000000  1
  Tc  Tc0_6  1  0.66666650  0.83333350  0.00000000  1
  Tc  Tc0_7  1  0.66666650  0.83333350  0.50000000  1
  Tc  Tc1_0  1  0.33333350  0.16666650  0.37863850  1
  Tc  Tc1_1  1  0.33333350  0.16666650  0.87863850  1
  Tc  Tc1_2  1  0.33333350  0.66666650  0.37863850  1
  Tc  Tc1_3  1  0.33333350  0.66666650  0.87863850  1
  Tc  Tc1_4  1  0.83333350  0.16666650  0.37863850  1
  Tc  Tc1_5  1  0.83333350  0.16666650  0.87863850  1
  Tc  Tc1_6  1  0.83333350  0.66666650  0.37863850  1
  Tc  Tc1_7  1  0.83333350  0.66666650  0.87863850  1
  Tc  Tc2_0  1  0.33333350  0.16666650  0.12136150  1
  Tc  Tc2_1  1  0.33333350  0.16666650  0.62136150  1
  Tc  Tc2_2  1  0.33333350  0.66666650  0.12136150  1
  Tc  Tc2_3  1  0.33333350  0.66666650  0.62136150  1
  Tc  Tc2_4  1  0.83333350  0.16666650  0.12136150  1
  Tc  Tc2_5  1  0.83333350  0.16666650  0.62136150  1
  Tc  Tc2_6  1  0.83333350  0.66666650  0.12136150  1
  Tc  Tc2_7  1  0.83333350  0.66666650  0.62136150  1
  Mo  Mo0_0  1  0.16666650  0.33333350  0.25000000  1
  Mo  Mo0_1  1  0.16666650  0.33333350  0.75000000  1
  Mo  Mo0_2  1  0.16666650  0.83333350  0.25000000  1
  Mo  Mo0_3  1  0.16666650  0.83333350  0.75000000  1
  Mo  Mo0_4  1  0.66666650  0.33333350  0.25000000  1
  Mo  Mo0_5  1  0.66666650  0.33333350  0.75000000  1
  Mo  Mo0_6  1  0.66666650  0.83333350  0.25000000  1
  Mo  Mo0_7  1  0.66666650  0.83333350  0.75000000  1
loop_
_geom_bond_atom_site_label_1
_geom_bond_atom_site_label_2
_geom_bond_distance
_geom_bond_site_symmetry_2
Tc0_0 Tc2_4 2.705660 1_455
Tc0_0 Tc2_2 2.705660 1_555
Tc0_0 Tc1_5 2.705660 1_454
Tc0_0 Tc1_3 2.705660 1_554
Tc0_0 Tc2_0 2.705663 1_555
Tc0_0 Tc1_1 2.705663 1_554
Tc0_0 Tc0_6 2.771946 1_445
Tc0_0 Tc0_6 2.771946 1_555
Tc0_0 Tc0_2 2.771946 1_545
Tc0_0 Tc0_2 2.771946 1_555
Tc0_0 Tc0_4 2.771946 1_455
Tc0_0 Tc0_4 2.771946 1_555
Tc0_1 Tc2_3 2.705660 1_555
Tc0_1 Tc2_5 2.705660 1_455
Tc0_1 Tc1_2 2.705660 1_555
Tc0_1 Tc1_4 2.705660 1_455
Tc0_1 Tc2_1 2.705663 1_555
Tc0_1 Tc1_0 2.705663 1_555
Tc0_1 Tc0_7 2.771946 1_445
Tc0_1 Tc0_7 2.771946 1_555
Tc0_1 Tc0_3 2.771946 1_545
Tc0_1 Tc0_3 2.771946 1_555
Tc0_1 Tc0_5 2.771946 1_455
Tc0_1 Tc0_5 2.771946 1_555
Tc0_2 Tc2_6 2.705660 1_455
Tc0_2 Tc2_0 2.705660 1_565
Tc0_2 Tc1_7 2.705660 1_454
Tc0_2 Tc1_1 2.705660 1_564
Tc0_2 Tc2_2 2.705663 1_555
Tc0_2 Tc1_3 2.705663 1_554
Tc0_2 Tc0_4 2.771946 1_565
Tc0_2 Tc0_4 2.771946 1_455
Tc0_2 Tc0_6 2.771946 1_455
Tc0_2 Tc0_6 2.771946 1_555
Tc0_3 Tc2_1 2.705660 1_565
Tc0_3 Tc2_7 2.705660 1_455
Tc0_3 Tc1_0 2.705660 1_565
Tc0_3 Tc1_6 2.705660 1_455
Tc0_3 Tc2_3 2.705663 1_555
Tc0_3 Tc1_2 2.705663 1_555
Tc0_3 Tc0_5 2.771946 1_565
Tc0_3 Tc0_5 2.771946 1_455
Tc0_3 Tc0_7 2.771946 1_455
Tc0_3 Tc0_7 2.771946 1_555
Tc0_4 Tc2_6 2.705660 1_555
Tc0_4 Tc2_0 2.705660 1_555
Tc0_4 Tc1_7 2.705660 1_554
Tc0_4 Tc1_1 2.705660 1_554
Tc0_4 Tc2_4 2.705663 1_555
Tc0_4 Tc1_5 2.705663 1_554
Tc0_4 Tc0_6 2.771946 1_555
Tc0_4 Tc0_6 2.771946 1_545
Tc0_5 Tc2_7 2.705660 1_555
Tc0_5 Tc2_1 2.705660 1_555
Tc0_5 Tc1_6 2.705660 1_555
Tc0_5 Tc1_0 2.705660 1_555
Tc0_5 Tc2_5 2.705663 1_555
Tc0_5 Tc1_4 2.705663 1_555
Tc0_5 Tc0_7 2.771946 1_555
Tc0_5 Tc0_7 2.771946 1_545
Tc0_6 Tc2_4 2.705660 1_565
Tc0_6 Tc2_2 2.705660 1_555
Tc0_6 Tc1_5 2.705660 1_564
Tc0_6 Tc1_3 2.705660 1_554
Tc0_6 Tc2_6 2.705663 1_555
Tc0_6 Tc1_7 2.705663 1_554
Tc0_7 Tc2_5 2.705660 1_565
Tc0_7 Tc2_3 2.705660 1_555
Tc0_7 Tc1_2 2.705660 1_555
Tc0_7 Tc1_4 2.705660 1_565
Tc0_7 Tc2_7 2.705663 1_555
Tc0_7 Tc1_6 2.705663 1_555
Tc1_0 Tc1_6 2.771946 1_555
Tc1_0 Tc1_6 2.771946 1_445
Tc1_0 Tc1_2 2.771946 1_545
Tc1_0 Tc1_4 2.771946 1_555
Tc1_0 Tc1_2 2.771946 1_555
Tc1_0 Tc1_4 2.771946 1_455
Tc1_1 Tc1_7 2.771946 1_555
Tc1_1 Tc1_7 2.771946 1_445
Tc1_1 Tc1_3 2.771946 1_545
Tc1_1 Tc1_5 2.771946 1_455
Tc1_1 Tc1_5 2.771946 1_555
Tc1_1 Tc1_3 2.771946 1_555
Tc1_2 Tc1_4 2.771946 1_565
Tc1_2 Tc1_4 2.771946 1_455
Tc1_2 Tc1_6 2.771946 1_555
Tc1_2 Tc1_6 2.771946 1_455
Tc1_3 Tc1_5 2.771946 1_565
Tc1_3 Tc1_5 2.771946 1_455
Tc1_3 Tc1_7 2.771946 1_555
Tc1_3 Tc1_7 2.771946 1_455
Tc1_4 Tc1_6 2.771946 1_545
Tc1_4 Tc1_6 2.771946 1_555
Tc1_5 Tc1_7 2.771946 1_545
Tc1_5 Tc1_7 2.771946 1_555
Tc2_0 Tc2_6 2.771946 1_445
Tc2_0 Tc2_6 2.771946 1_555
Tc2_0 Tc2_2 2.771946 1_545
Tc2_0 Tc2_2 2.771946 1_555
Tc2_0 Tc2_4 2.771946 1_455
Tc2_0 Tc2_4 2.771946 1_555
Tc2_1 Tc2_7 2.771946 1_555
Tc2_1 Tc2_7 2.771946 1_445
Tc2_1 Tc2_3 2.771946 1_545
Tc2_1 Tc2_5 2.771946 1_555
Tc2_1 Tc2_3 2.771946 1_555
Tc2_1 Tc2_5 2.771946 1_455
Tc2_2 Tc2_4 2.771946 1_565
Tc2_2 Tc2_4 2.771946 1_455
Tc2_2 Tc2_6 2.771946 1_555
Tc2_2 Tc2_6 2.771946 1_455
Tc2_3 Tc2_5 2.771946 1_565
Tc2_3 Tc2_5 2.771946 1_455
Tc2_3 Tc2_7 2.771946 1_555
Tc2_3 Tc2_7 2.771946 1_455
Tc2_4 Tc2_6 2.771946 1_545
Tc2_4 Tc2_6 2.771946 1_555
Tc2_5 Tc2_7 2.771946 1_545
Tc2_5 Tc2_7 2.771946 1_555
Mo0_0 Mo0_6 2.771946 1_445
Mo0_0 Mo0_6 2.771946 1_555
Mo0_0 Mo0_2 2.771946 1_545
Mo0_0 Mo0_4 2.771946 1_555
Mo0_0 Mo0_2 2.771946 1_555
Mo0_0 Mo0_4 2.771946 1_455
Mo0_0 Tc1_2 2.812200 1_555
Mo0_0 Tc1_4 2.812200 1_455
Mo0_0 Tc2_2 2.812200 1_555
Mo0_0 Tc2_4 2.812200 1_455
Mo0_0 Tc1_0 2.812203 1_555
Mo0_0 Tc2_0 2.812203 1_555
Mo0_1 Mo0_7 2.771946 1_445
Mo0_1 Mo0_7 2.771946 1_555
Mo0_1 Mo0_3 2.771946 1_545
Mo0_1 Mo0_3 2.771946 1_555
Mo0_1 Mo0_5 2.771946 1_455
Mo0_1 Mo0_5 2.771946 1_555
Mo0_1 Tc1_5 2.812200 1_455
Mo0_1 Tc1_3 2.812200 1_555
Mo0_1 Tc2_3 2.812200 1_555
Mo0_1 Tc2_5 2.812200 1_455
Mo0_1 Tc1_1 2.812203 1_555
Mo0_1 Tc2_1 2.812203 1_555
Mo0_2 Mo0_4 2.771946 1_565
Mo0_2 Mo0_4 2.771946 1_455
Mo0_2 Mo0_6 2.771946 1_455
Mo0_2 Mo0_6 2.771946 1_555
Mo0_2 Tc1_0 2.812200 1_565
Mo0_2 Tc2_0 2.812200 1_565
Mo0_2 Tc1_6 2.812200 1_455
Mo0_2 Tc2_6 2.812200 1_455
Mo0_2 Tc1_2 2.812203 1_555
Mo0_2 Tc2_2 2.812203 1_555
Mo0_3 Mo0_5 2.771946 1_565
Mo0_3 Mo0_5 2.771946 1_455
Mo0_3 Mo0_7 2.771946 1_455
Mo0_3 Mo0_7 2.771946 1_555
Mo0_3 Tc1_1 2.812200 1_565
Mo0_3 Tc1_7 2.812200 1_455
Mo0_3 Tc2_7 2.812200 1_455
Mo0_3 Tc2_1 2.812200 1_565
Mo0_3 Tc1_3 2.812203 1_555
Mo0_3 Tc2_3 2.812203 1_555
Mo0_4 Mo0_6 2.771946 1_555
Mo0_4 Mo0_6 2.771946 1_545
Mo0_4 Tc1_0 2.812200 1_555
Mo0_4 Tc1_6 2.812200 1_555
Mo0_4 Tc2_0 2.812200 1_555
Mo0_4 Tc2_6 2.812200 1_555
Mo0_4 Tc1_4 2.812203 1_555
Mo0_4 Tc2_4 2.812203 1_555
Mo0_5 Mo0_7 2.771946 1_555
Mo0_5 Mo0_7 2.771946 1_545
Mo0_5 Tc1_7 2.812200 1_555
Mo0_5 Tc1_1 2.812200 1_555
Mo0_5 Tc2_1 2.812200 1_555
Mo0_5 Tc2_7 2.812200 1_555
Mo0_5 Tc1_5 2.812203 1_555
Mo0_5 Tc2_5 2.812203 1_555
Mo0_6 Tc1_2 2.812200 1_555
Mo0_6 Tc1_4 2.812200 1_565
Mo0_6 Tc2_2 2.812200 1_555
Mo0_6 Tc2_4 2.812200 1_565
Mo0_6 Tc1_6 2.812203 1_555
Mo0_6 Tc2_6 2.812203 1_555
Mo0_7 Tc1_5 2.812200 1_565
Mo0_7 Tc1_3 2.812200 1_555
Mo0_7 Tc2_5 2.812200 1_565
Mo0_7 Tc2_3 2.812200 1_555
Mo0_7 Tc1_7 2.812203 1_555
Mo0_7 Tc2_7 2.812203 1_555
