# generated using pymatgen
data_FeAsSe
_symmetry_space_group_name_H-M   'P 1'
_cell_length_a   5.83567310
_cell_length_b   5.89326376
_cell_length_c   5.93463679
_cell_angle_alpha   112.86702199
_cell_angle_beta   90.00000000
_cell_angle_gamma   90.00000000
_symmetry_Int_Tables_number   1
_chemical_formula_structural   FeAsSe
_chemical_formula_sum   'Fe4 As4 Se4'
_cell_volume   188.05874552
_cell_formula_units_Z   4
loop_
 _symmetry_equiv_pos_site_id
 _symmetry_equiv_pos_as_xyz
  1  'x, y, z'
loop_
 _atom_site_type_symbol
 _atom_site_label
 _atom_site_symmetry_multiplicity
 _atom_site_fract_x
 _atom_site_fract_y
 _atom_site_fract_z
 _atom_site_occupancy
  Fe  Fe0  1  0.50037673  0.72438326  0.20887573  1
  Fe  Fe1  1  0.00037673  0.27561674  0.29112427  1
  Fe  Fe2  1  0.49962327  0.27561674  0.79112427  1
  Fe  Fe3  1  -0.00037673  0.72438326  0.70887573  1
  As  As0  1  0.13667252  0.85731711  0.12242000  1
  As  As1  1  0.63667252  0.14268289  0.37758000  1
  As  As2  1  0.86332748  0.14268289  0.87758000  1
  As  As3  1  0.36332748  0.85731711  0.62242000  1
  Se  Se0  1  0.86895023  0.65559978  0.32149797  1
  Se  Se1  1  0.36895023  0.34440022  0.17850203  1
  Se  Se2  1  0.13104977  0.34440022  0.67850203  1
  Se  Se3  1  0.63104977  0.65559978  0.82149797  1
loop_
_geom_bond_atom_site_label_1
_geom_bond_atom_site_label_2
_geom_bond_distance
_geom_bond_site_symmetry_2
Fe0 Se3 2.303631 1_554
Fe0 Se1 2.306871 1_555
Fe0 Se0 2.334066 1_555
Fe1 Se2 2.303631 1_555
Fe1 Se0 2.306871 1_455
Fe1 Se1 2.334066 1_555
Fe2 Se1 2.303631 1_556
Fe2 Se3 2.306871 1_555
Fe2 Se2 2.334066 1_555
Fe3 Se0 2.303631 1_455
Fe3 Se2 2.306871 1_555
Fe3 Se3 2.334066 1_455
As0 Fe0 2.386256 1_555
As0 Fe3 2.404654 1_554
As0 Fe1 2.407033 1_565
As0 Se0 2.518228 1_455
As1 Fe1 2.386256 1_655
As1 Fe2 2.404654 1_555
As1 Fe0 2.407033 1_545
As1 Se1 2.518228 1_555
As2 Fe2 2.386256 1_555
As2 Fe1 2.404654 1_656
As2 Fe3 2.407033 1_645
As2 Se2 2.518228 1_655
As3 Fe3 2.386256 1_555
As3 Fe0 2.404654 1_555
As3 Fe2 2.407033 1_565
As3 Se3 2.518228 1_555
