# generated using pymatgen
data_CeSe2
_symmetry_space_group_name_H-M   'P 1'
_cell_length_a   15.14308825
_cell_length_b   23.01551565
_cell_length_c   23.01551565
_cell_angle_alpha   120.00000044
_cell_angle_beta   90.00000000
_cell_angle_gamma   90.00000000
_symmetry_Int_Tables_number   1
_chemical_formula_structural   CeSe2
_chemical_formula_sum   'Ce24 Se48'
_cell_volume   6946.82729655
_cell_formula_units_Z   24
loop_
 _symmetry_equiv_pos_site_id
 _symmetry_equiv_pos_as_xyz
  1  'x, y, z'
loop_
 _atom_site_type_symbol
 _atom_site_label
 _atom_site_symmetry_multiplicity
 _atom_site_fract_x
 _atom_site_fract_y
 _atom_site_fract_z
 _atom_site_occupancy
  Ce  Ce0  1  0.07362552  0.13044270  0.66909619  1
  Ce  Ce1  1  0.07362552  0.53865349  0.86955730  1
  Ce  Ce2  1  0.07362552  0.33090381  0.46134651  1
  Ce  Ce3  1  0.07362552  0.46134651  0.33090381  1
  Ce  Ce4  1  0.07362552  0.66909619  0.13044270  1
  Ce  Ce5  1  0.07362552  0.86955730  0.53865349  1
  Ce  Ce6  1  0.92637448  0.86955730  0.33090381  1
  Ce  Ce7  1  0.92637448  0.46134651  0.13044270  1
  Ce  Ce8  1  0.92637448  0.66909619  0.53865349  1
  Ce  Ce9  1  0.92637448  0.53865349  0.66909619  1
  Ce  Ce10  1  0.92637448  0.33090381  0.86955730  1
  Ce  Ce11  1  0.92637448  0.13044270  0.46134651  1
  Ce  Ce12  1  0.57362552  0.86955730  0.33090381  1
  Ce  Ce13  1  0.57362552  0.46134651  0.13044270  1
  Ce  Ce14  1  0.57362552  0.66909619  0.53865349  1
  Ce  Ce15  1  0.57362552  0.53865349  0.66909619  1
  Ce  Ce16  1  0.57362552  0.33090381  0.86955730  1
  Ce  Ce17  1  0.57362552  0.13044270  0.46134651  1
  Ce  Ce18  1  0.42637448  0.13044270  0.66909619  1
  Ce  Ce19  1  0.42637448  0.53865349  0.86955730  1
  Ce  Ce20  1  0.42637448  0.33090381  0.46134651  1
  Ce  Ce21  1  0.42637448  0.46134651  0.33090381  1
  Ce  Ce22  1  0.42637448  0.66909619  0.13044270  1
  Ce  Ce23  1  0.42637448  0.86955730  0.53865349  1
  Se  Se0  1  0.75000000  0.84480031  0.32576285  1
  Se  Se1  1  0.75000000  0.48096254  0.15519969  1
  Se  Se2  1  0.75000000  0.67423715  0.51903746  1
  Se  Se3  1  0.75000000  0.51903746  0.67423715  1
  Se  Se4  1  0.75000000  0.32576285  0.84480031  1
  Se  Se5  1  0.75000000  0.15519969  0.48096254  1
  Se  Se6  1  0.25000000  0.15519969  0.67423715  1
  Se  Se7  1  0.25000000  0.51903746  0.84480031  1
  Se  Se8  1  0.25000000  0.32576285  0.48096254  1
  Se  Se9  1  0.25000000  0.48096254  0.32576285  1
  Se  Se10  1  0.25000000  0.67423715  0.15519969  1
  Se  Se11  1  0.25000000  0.84480031  0.51903746  1
  Se  Se12  1  0.50000000  0.79252551  0.20747449  1
  Se  Se13  1  0.50000000  0.41494899  0.20747449  1
  Se  Se14  1  0.50000000  0.79252551  0.58505101  1
  Se  Se15  1  0.50000000  0.58505101  0.79252551  1
  Se  Se16  1  0.50000000  0.20747449  0.79252551  1
  Se  Se17  1  0.50000000  0.20747449  0.41494899  1
  Se  Se18  1  -0.00000000  0.20747449  0.79252551  1
  Se  Se19  1  -0.00000000  0.58505101  0.79252551  1
  Se  Se20  1  -0.00000000  0.20747449  0.41494899  1
  Se  Se21  1  -0.00000000  0.41494899  0.20747449  1
  Se  Se22  1  -0.00000000  0.79252551  0.20747449  1
  Se  Se23  1  -0.00000000  0.79252551  0.58505101  1
  Se  Se24  1  0.50000000  0.58182211  0.16364422  1
  Se  Se25  1  0.50000000  0.58182211  0.41817789  1
  Se  Se26  1  0.50000000  0.83635578  0.41817789  1
  Se  Se27  1  0.50000000  0.41817789  0.83635578  1
  Se  Se28  1  0.50000000  0.16364422  0.58182211  1
  Se  Se29  1  0.50000000  0.41817789  0.58182211  1
  Se  Se30  1  -0.00000000  0.41817789  0.83635578  1
  Se  Se31  1  -0.00000000  0.41817789  0.58182211  1
  Se  Se32  1  -0.00000000  0.16364422  0.58182211  1
  Se  Se33  1  -0.00000000  0.58182211  0.16364422  1
  Se  Se34  1  -0.00000000  0.83635578  0.41817789  1
  Se  Se35  1  -0.00000000  0.58182211  0.41817789  1
  Se  Se36  1  0.95964401  0.00000000  0.36907923  1
  Se  Se37  1  0.95964401  0.36907923  0.00000000  1
  Se  Se38  1  0.95964401  0.63092077  0.63092077  1
  Se  Se39  1  0.04035599  1.00000000  0.63092077  1
  Se  Se40  1  0.04035599  0.63092077  1.00000000  1
  Se  Se41  1  0.04035599  0.36907923  0.36907923  1
  Se  Se42  1  0.45964401  1.00000000  0.63092077  1
  Se  Se43  1  0.45964401  0.63092077  1.00000000  1
  Se  Se44  1  0.45964401  0.36907923  0.36907923  1
  Se  Se45  1  0.54035599  0.00000000  0.36907923  1
  Se  Se46  1  0.54035599  0.36907923  0.00000000  1
  Se  Se47  1  0.54035599  0.63092077  0.63092077  1
loop_
_geom_bond_atom_site_label_1
_geom_bond_atom_site_label_2
_geom_bond_distance
_geom_bond_site_symmetry_2
Ce0 Se32 2.719667 1_555
Ce0 Se39 2.720519 1_545
Ce0 Se6 2.721160 1_555
Ce0 Se18 2.723946 1_555
Ce1 Se30 2.719667 1_555
Ce1 Se40 2.720519 1_555
Ce1 Se7 2.721160 1_555
Ce1 Se19 2.723946 1_555
Ce2 Se31 2.719667 1_555
Ce2 Se41 2.720519 1_555
Ce2 Se8 2.721160 1_555
Ce2 Se20 2.723946 1_555
Ce3 Se35 2.719667 1_555
Ce3 Se41 2.720519 1_555
Ce3 Se9 2.721160 1_555
Ce3 Se21 2.723946 1_555
Ce4 Se33 2.719667 1_555
Ce4 Se40 2.720519 1_554
Ce4 Se10 2.721160 1_555
Ce4 Se22 2.723946 1_555
Ce5 Se34 2.719667 1_555
Ce5 Se39 2.720519 1_555
Ce5 Se11 2.721160 1_555
Ce5 Se23 2.723946 1_555
Ce6 Se34 2.719667 1_655
Ce6 Se36 2.720519 1_565
Ce6 Se0 2.721160 1_555
Ce6 Se22 2.723946 1_655
Ce7 Se33 2.719667 1_655
Ce7 Se37 2.720519 1_555
Ce7 Se1 2.721160 1_555
Ce7 Se21 2.723946 1_655
Ce8 Se35 2.719667 1_655
Ce8 Se38 2.720519 1_555
Ce8 Se2 2.721160 1_555
Ce8 Se23 2.723946 1_655
Ce9 Se31 2.719667 1_655
Ce9 Se38 2.720519 1_555
Ce9 Se3 2.721160 1_555
Ce9 Se19 2.723946 1_655
Ce10 Se30 2.719667 1_655
Ce10 Se37 2.720519 1_556
Ce10 Se4 2.721160 1_555
Ce10 Se18 2.723946 1_655
Ce11 Se32 2.719667 1_655
Ce11 Se36 2.720519 1_555
Ce11 Se5 2.721160 1_555
Ce11 Se20 2.723946 1_655
Ce12 Se26 2.719667 1_555
Ce12 Se45 2.720519 1_565
Ce12 Se0 2.721160 1_555
Ce12 Se12 2.723946 1_555
Ce13 Se24 2.719667 1_555
Ce13 Se46 2.720519 1_555
Ce13 Se1 2.721160 1_555
Ce13 Se13 2.723946 1_555
Ce14 Se25 2.719667 1_555
Ce14 Se47 2.720519 1_555
Ce14 Se2 2.721160 1_555
Ce14 Se14 2.723946 1_555
Ce15 Se29 2.719667 1_555
Ce15 Se47 2.720519 1_555
Ce15 Se3 2.721160 1_555
Ce15 Se15 2.723946 1_555
Ce16 Se27 2.719667 1_555
Ce16 Se46 2.720519 1_556
Ce16 Se4 2.721160 1_555
Ce16 Se16 2.723946 1_555
Ce17 Se28 2.719667 1_555
Ce17 Se45 2.720519 1_555
Ce17 Se5 2.721160 1_555
Ce17 Se17 2.723946 1_555
Ce18 Se28 2.719667 1_555
Ce18 Se42 2.720519 1_545
Ce18 Se6 2.721160 1_555
Ce18 Se16 2.723946 1_555
Ce19 Se27 2.719667 1_555
Ce19 Se43 2.720519 1_555
Ce19 Se7 2.721160 1_555
Ce19 Se15 2.723946 1_555
Ce20 Se29 2.719667 1_555
Ce20 Se44 2.720519 1_555
Ce20 Se8 2.721160 1_555
Ce20 Se17 2.723946 1_555
Ce21 Se25 2.719667 1_555
Ce21 Se44 2.720519 1_555
Ce21 Se9 2.721160 1_555
Ce21 Se13 2.723946 1_555
Ce22 Se24 2.719667 1_555
Ce22 Se43 2.720519 1_554
Ce22 Se10 2.721160 1_555
Ce22 Se12 2.723946 1_555
Ce23 Se26 2.719667 1_555
Ce23 Se42 2.720519 1_555
Ce23 Se11 2.721160 1_555
Ce23 Se14 2.723946 1_555
