# generated using pymatgen
data_Ba6Na2Nb2V2O17
_symmetry_space_group_name_H-M   'P 1'
_cell_length_a   5.97213546
_cell_length_b   5.97213546
_cell_length_c   15.05547035
_cell_angle_alpha   89.81248717
_cell_angle_beta   89.81248717
_cell_angle_gamma   59.86151250
_symmetry_Int_Tables_number   1
_chemical_formula_structural   Ba6Na2Nb2V2O17
_chemical_formula_sum   'Ba6 Na2 Nb2 V2 O17'
_cell_volume   464.37990122
_cell_formula_units_Z   1
loop_
 _symmetry_equiv_pos_site_id
 _symmetry_equiv_pos_as_xyz
  1  'x, y, z'
loop_
 _atom_site_type_symbol
 _atom_site_label
 _atom_site_symmetry_multiplicity
 _atom_site_fract_x
 _atom_site_fract_y
 _atom_site_fract_z
 _atom_site_occupancy
  Ba  Ba0  1  0.66630000  0.66668200  0.65072900  1
  Ba  Ba1  1  0.33331800  0.33370000  0.34927100  1
  Ba  Ba2  1  0.33240600  0.33402300  0.81364500  1
  Ba  Ba3  1  0.66597700  0.66759400  0.18635500  1
  Ba  Ba4  1  0.00000800  0.99999200  0.50000000  1
  Ba  Ba5  1  0.00845300  0.99154700  0.00000000  1
  Na  Na0  1  0.99933000  0.00031600  0.74818900  1
  Na  Na1  1  0.99968400  0.00067000  0.25181100  1
  Nb  Nb0  1  0.33332000  0.33326300  0.58665700  1
  Nb  Nb1  1  0.66673700  0.66668000  0.41334300  1
  V  V0  1  0.66028800  0.66986800  0.89599300  1
  V  V1  1  0.33013200  0.33971200  0.10400700  1
  O  O0  1  0.82156200  0.82563800  0.85537200  1
  O  O1  1  0.34902500  0.82685500  0.85011100  1
  O  O2  1  0.82354400  0.35202700  0.85570300  1
  O  O3  1  0.17436200  0.17843800  0.14462800  1
  O  O4  1  0.64797300  0.17645600  0.14429700  1
  O  O5  1  0.17314500  0.65097500  0.14988900  1
  O  O6  1  0.49993700  0.50006300  0.50000000  1
  O  O7  1  0.00004300  0.50001100  0.49996000  1
  O  O8  1  0.49998900  0.99995800  0.50004000  1
  O  O9  1  0.17731100  0.17772200  0.65732500  1
  O  O10  1  0.64500300  0.17718500  0.65723600  1
  O  O11  1  0.17711600  0.64474000  0.65729300  1
  O  O12  1  0.82227800  0.82268900  0.34267500  1
  O  O13  1  0.35526000  0.82288400  0.34270700  1
  O  O14  1  0.82281500  0.35499700  0.34276400  1
  O  O15  1  0.63637500  0.68471700  0.01033900  1
  O  O16  1  0.31528300  0.36362500  0.98966100  1
loop_
_geom_bond_atom_site_label_1
_geom_bond_atom_site_label_2
_geom_bond_distance
_geom_bond_site_symmetry_2
Ba0 O8 2.845185 1_555
Ba0 O7 2.847600 1_655
Ba0 O6 2.854701 1_555
Ba0 O9 2.983581 1_655
Ba0 O9 2.983753 1_565
Ba0 O10 2.988878 1_565
Ba0 O11 2.988969 1_655
Ba0 O10 2.990505 1_555
Ba0 O11 2.990719 1_555
Ba1 O7 2.845182 1_555
Ba1 O8 2.847597 1_545
Ba1 O6 2.854701 1_555
Ba1 O12 2.983581 1_545
Ba1 O12 2.983753 1_455
Ba1 O14 2.988878 1_455
Ba1 O13 2.988969 1_545
Ba1 O14 2.990505 1_555
Ba1 O13 2.990719 1_555
Ba2 O16 2.654688 1_555
Ba2 O11 2.846428 1_555
Ba2 O10 2.852613 1_555
Ba2 O9 2.857440 1_555
Ba2 O1 3.028688 1_545
Ba2 O0 3.039700 1_545
Ba2 O1 3.046033 1_555
Ba2 O2 3.050854 1_455
Ba2 O0 3.054032 1_455
Ba2 O2 3.056981 1_555
Ba3 O15 2.654688 1_555
Ba3 O13 2.846428 1_555
Ba3 O14 2.852613 1_555
Ba3 O12 2.857440 1_555
Ba3 O5 3.028688 1_655
Ba3 O3 3.039700 1_655
Ba3 O5 3.046033 1_555
Ba3 O4 3.050854 1_565
Ba3 O3 3.054032 1_565
Ba3 O4 3.056981 1_555
Ba4 O6 2.979392 1_555
Ba4 O6 2.980238 1_465
Ba4 O7 2.985851 1_555
Ba4 O8 2.985854 1_555
Ba4 O8 2.986281 1_455
Ba4 O7 2.986284 1_565
Ba4 O14 2.991543 1_465
Ba4 O10 2.991543 1_465
Ba4 O11 2.993001 1_555
Ba4 O13 2.993001 1_555
Ba4 O12 3.003268 1_455
Ba4 O9 3.003268 1_565
Ba5 O0 2.847688 1_454
Ba5 O3 2.847688 1_565
Ba5 O4 2.858588 1_465
Ba5 O2 2.858588 1_464
Ba5 O5 2.858739 1_555
Ba5 O1 2.858739 1_554
Ba5 O16 3.247510 1_554
Ba5 O15 3.247510 1_555
Na0 O10 2.287710 1_555
Na0 O9 2.288150 1_655
Na0 O11 2.292360 1_645
Na0 O1 2.372208 1_645
Na0 O0 2.430904 1_545
Na0 O2 2.435360 1_555
Na1 O14 2.287710 1_555
Na1 O12 2.288150 1_545
Na1 O13 2.292360 1_645
Na1 O5 2.372208 1_645
Na1 O3 2.430904 1_655
Na1 O4 2.435360 1_555
Nb0 O9 1.928487 1_555
Nb0 O11 1.930118 1_555
Nb0 O10 1.930536 1_555
Nb0 O6 2.159393 1_555
Nb0 O8 2.161590 1_545
Nb0 O7 2.162201 1_555
Nb1 O12 1.928487 1_555
Nb1 O13 1.930118 1_555
Nb1 O14 1.930536 1_555
Nb1 O6 2.159393 1_555
Nb1 O7 2.161594 1_655
Nb1 O8 2.162206 1_555
O0 V0 1.749075 1_555
O1 V0 1.750930 1_555
O2 V0 1.751251 1_555
O3 V1 1.749075 1_555
O4 V1 1.751251 1_555
O5 V1 1.750930 1_555
O15 V0 1.725864 1_554
O16 V1 1.725864 1_556
