# generated using pymatgen
data_ZrP
_symmetry_space_group_name_H-M   'P 1'
_cell_length_a   3.70870872
_cell_length_b   3.70870899
_cell_length_c   12.56778033
_cell_angle_alpha   90.00000000
_cell_angle_beta   90.00000000
_cell_angle_gamma   120.00000688
_symmetry_Int_Tables_number   1
_chemical_formula_structural   ZrP
_chemical_formula_sum   'Zr4 P4'
_cell_volume   149.70443440
_cell_formula_units_Z   4
loop_
 _symmetry_equiv_pos_site_id
 _symmetry_equiv_pos_as_xyz
  1  'x, y, z'
loop_
 _atom_site_type_symbol
 _atom_site_label
 _atom_site_symmetry_multiplicity
 _atom_site_fract_x
 _atom_site_fract_y
 _atom_site_fract_z
 _atom_site_occupancy
  Zr  Zr0  1  0.33333300  0.66666700  0.38415002  1
  Zr  Zr1  1  0.66666700  0.33333300  0.88415002  1
  Zr  Zr2  1  0.66666700  0.33333300  0.61584998  1
  Zr  Zr3  1  0.33333300  0.66666700  0.11584998  1
  P  P0  1  0.66666700  0.33333300  0.25000000  1
  P  P1  1  0.33333300  0.66666700  0.75000000  1
  P  P2  1  -0.00000000  -0.00000000  0.50000000  1
  P  P3  1  -0.00000000  -0.00000000  -0.00000000  1
loop_
_geom_bond_atom_site_label_1
_geom_bond_atom_site_label_2
_geom_bond_distance
_geom_bond_site_symmetry_2
P0 Zr0 2.725311 1_655
P0 Zr3 2.725311 1_655
P0 Zr3 2.725311 1_545
P0 Zr0 2.725311 1_545
P0 Zr3 2.725316 1_555
P0 Zr0 2.725316 1_555
P1 Zr2 2.725311 1_455
P1 Zr1 2.725311 1_455
P1 Zr2 2.725311 1_565
P1 Zr1 2.725311 1_565
P1 Zr1 2.725316 1_555
P1 Zr2 2.725316 1_555
P2 Zr2 2.589344 1_455
P2 Zr0 2.589344 1_545
P2 Zr0 2.589346 1_445
P2 Zr2 2.589346 1_555
P2 Zr2 2.589346 1_445
P2 Zr0 2.589346 1_555
P3 Zr1 2.589344 1_454
P3 Zr3 2.589344 1_545
P3 Zr1 2.589346 1_554
P3 Zr3 2.589346 1_445
P3 Zr1 2.589346 1_444
P3 Zr3 2.589346 1_555
