# generated using pymatgen
data_Mo(WS3)2
_symmetry_space_group_name_H-M   'P 1'
_cell_length_a   3.18470157
_cell_length_b   3.18470635
_cell_length_c   28.07782095
_cell_angle_alpha   90.00000568
_cell_angle_beta   90.00000000
_cell_angle_gamma   119.99993947
_symmetry_Int_Tables_number   1
_chemical_formula_structural   Mo(WS3)2
_chemical_formula_sum   'Mo1 W2 S6'
_cell_volume   246.62235054
_cell_formula_units_Z   1
loop_
 _symmetry_equiv_pos_site_id
 _symmetry_equiv_pos_as_xyz
  1  'x, y, z'
loop_
 _atom_site_type_symbol
 _atom_site_label
 _atom_site_symmetry_multiplicity
 _atom_site_fract_x
 _atom_site_fract_y
 _atom_site_fract_z
 _atom_site_occupancy
  Mo  Mo0  1  0.66664333  0.33328565  0.34698200  1
  W  W0  1  0.33333305  0.66666811  0.11593284  1
  W  W1  1  0.33333305  0.66666711  0.57803416  1
  S  S0  1  0.33330845  0.66661791  0.40222097  1
  S  S1  1  0.66666743  0.33333485  0.06039868  1
  S  S2  1  0.66666890  0.33333781  0.52248033  1
  S  S3  1  0.66666890  0.33333881  0.17148567  1
  S  S4  1  0.66666743  0.33333485  0.63356232  1
  S  S5  1  0.33330845  0.66661791  0.29174503  1
loop_
_geom_bond_atom_site_label_1
_geom_bond_atom_site_label_2
_geom_bond_distance
_geom_bond_site_symmetry_2
Mo0 S5 2.405444 1_655
Mo0 S5 2.405448 1_555
Mo0 S5 2.405451 1_545
Mo0 S0 2.405480 1_655
Mo0 S0 2.405484 1_555
Mo0 S0 2.405488 1_545
S1 W0 2.410833 1_655
S1 W0 2.410837 1_555
S1 W0 2.410838 1_545
S2 W1 2.411187 1_655
S2 W1 2.411189 1_555
S2 W1 2.411203 1_545
S3 W0 2.411169 1_655
S3 W0 2.411171 1_555
S3 W0 2.411185 1_545
S4 W1 2.410724 1_655
S4 W1 2.410726 1_555
S4 W1 2.410731 1_545
