# generated using pymatgen
data_Ca3(GaP2)2
_symmetry_space_group_name_H-M   'P 1'
_cell_length_a   8.01426617
_cell_length_b   8.01426617
_cell_length_c   6.44722686
_cell_angle_alpha   89.20151597
_cell_angle_beta   89.20151597
_cell_angle_gamma   75.92059240
_symmetry_Int_Tables_number   1
_chemical_formula_structural   Ca3(GaP2)2
_chemical_formula_sum   'Ca6 Ga4 P8'
_cell_volume   401.59309099
_cell_formula_units_Z   2
loop_
 _symmetry_equiv_pos_site_id
 _symmetry_equiv_pos_as_xyz
  1  'x, y, z'
loop_
 _atom_site_type_symbol
 _atom_site_label
 _atom_site_symmetry_multiplicity
 _atom_site_fract_x
 _atom_site_fract_y
 _atom_site_fract_z
 _atom_site_occupancy
  Ca  Ca0  1  0.99457584  0.24848319  0.02611551  1
  Ca  Ca1  1  0.75151681  0.00542416  0.47388449  1
  Ca  Ca2  1  0.00542416  0.75151681  0.97388449  1
  Ca  Ca3  1  0.24848319  0.99457584  0.52611551  1
  Ca  Ca4  1  0.60059115  0.39940885  0.75000000  1
  Ca  Ca5  1  0.39940885  0.60059115  0.25000000  1
  Ga  Ga0  1  0.17585785  0.41875944  0.59153518  1
  Ga  Ga1  1  0.58124056  0.82414215  0.90846482  1
  Ga  Ga2  1  0.82414215  0.58124056  0.40846482  1
  Ga  Ga3  1  0.41875944  0.17585785  0.09153518  1
  P  P0  1  0.94208798  0.28630613  0.52184292  1
  P  P1  1  0.71369387  0.05791202  0.97815708  1
  P  P2  1  0.05791202  0.71369387  0.47815708  1
  P  P3  1  0.28630613  0.94208798  0.02184292  1
  P  P4  1  0.25798235  0.43359429  0.93807049  1
  P  P5  1  0.56640571  0.74201765  0.56192951  1
  P  P6  1  0.74201765  0.56640571  0.06192951  1
  P  P7  1  0.43359429  0.25798235  0.43807049  1
loop_
_geom_bond_atom_site_label_1
_geom_bond_atom_site_label_2
_geom_bond_distance
_geom_bond_site_symmetry_2
Ca0 P6 2.852418 1_555
Ca0 P4 2.906247 1_654
Ca0 P3 2.950177 1_645
Ca0 P1 3.033277 1_554
Ca0 P0 3.226634 1_555
Ca0 P0 3.284431 1_554
Ca1 P7 2.852418 1_555
Ca1 P5 2.906247 1_545
Ca1 P2 2.950177 1_645
Ca1 P0 3.033277 1_555
Ca1 P1 3.226634 1_554
Ca1 P1 3.284431 1_555
Ca2 P4 2.852418 1_555
Ca2 P6 2.906247 1_456
Ca2 P1 2.950177 1_465
Ca2 P3 3.033277 1_556
Ca2 P2 3.226634 1_555
Ca2 P2 3.284431 1_556
Ca3 P5 2.852418 1_555
Ca3 P7 2.906247 1_565
Ca3 P0 2.950177 1_465
Ca3 P2 3.033277 1_555
Ca3 P3 3.226634 1_556
Ca3 P3 3.284431 1_555
Ca4 P7 2.827878 1_555
Ca4 P6 2.827878 1_556
Ca4 P4 2.938529 1_555
Ca4 P5 2.938529 1_555
Ca4 P1 3.032114 1_555
Ca4 P0 3.032114 1_555
Ca5 P4 2.827878 1_554
Ca5 P5 2.827878 1_555
Ca5 P6 2.938529 1_555
Ca5 P7 2.938529 1_555
Ca5 P2 3.032114 1_555
Ca5 P3 3.032114 1_555
Ga0 P4 2.350615 1_555
Ga0 P7 2.364201 1_555
Ga0 P0 2.417236 1_455
Ga0 P2 2.428760 1_555
Ga1 P5 2.350615 1_555
Ga1 P6 2.364201 1_556
Ga1 P1 2.417236 1_565
Ga1 P3 2.428760 1_556
Ga2 P6 2.350615 1_555
Ga2 P5 2.364201 1_555
Ga2 P2 2.417236 1_655
Ga2 P0 2.428760 1_555
Ga3 P7 2.350615 1_555
Ga3 P4 2.364201 1_554
Ga3 P3 2.417236 1_545
Ga3 P1 2.428760 1_554
