# generated using pymatgen
data_AlVO3
_symmetry_space_group_name_H-M   'P 1'
_cell_length_a   3.17769337
_cell_length_b   3.17769337
_cell_length_c   12.05797200
_cell_angle_alpha   90.00000000
_cell_angle_beta   90.00000000
_cell_angle_gamma   119.99998685
_symmetry_Int_Tables_number   1
_chemical_formula_structural   AlVO3
_chemical_formula_sum   'Al2 V2 O6'
_cell_volume   105.44571489
_cell_formula_units_Z   2
loop_
 _symmetry_equiv_pos_site_id
 _symmetry_equiv_pos_as_xyz
  1  'x, y, z'
loop_
 _atom_site_type_symbol
 _atom_site_label
 _atom_site_symmetry_multiplicity
 _atom_site_fract_x
 _atom_site_fract_y
 _atom_site_fract_z
 _atom_site_occupancy
  Al  Al0  1  0.00000000  0.00000000  0.50000000  1
  Al  Al1  1  0.00000000  0.00000000  0.00000000  1
  V  V0  1  0.66666700  0.33333300  0.75000000  1
  V  V1  1  0.33333300  0.66666700  0.25000000  1
  O  O0  1  0.33333300  0.66666700  0.42398600  1
  O  O1  1  0.66666700  0.33333300  0.92398600  1
  O  O2  1  0.66666700  0.33333300  0.57601400  1
  O  O3  1  0.33333300  0.66666700  0.07601400  1
  O  O4  1  0.00000000  0.00000000  0.25000000  1
  O  O5  1  0.00000000  0.00000000  0.75000000  1
loop_
_geom_bond_atom_site_label_1
_geom_bond_atom_site_label_2
_geom_bond_distance
_geom_bond_site_symmetry_2
Al0 O2 2.050857 1_455
Al0 O0 2.050857 1_545
Al0 O2 2.050860 1_555
Al0 O2 2.050860 1_445
Al0 O0 2.050860 1_445
Al0 O0 2.050860 1_555
Al1 O3 2.050857 1_545
Al1 O1 2.050857 1_454
Al1 O3 2.050860 1_445
Al1 O1 2.050860 1_554
Al1 O1 2.050860 1_444
Al1 O3 2.050860 1_555
O0 V1 2.097918 1_555
O1 V0 2.097918 1_555
O2 V0 2.097918 1_555
O3 V1 2.097918 1_555
O4 V1 1.834640 1_545
O4 V1 1.834643 1_555
O4 V1 1.834643 1_445
O5 V0 1.834640 1_455
O5 V0 1.834643 1_445
O5 V0 1.834643 1_555
