# generated using pymatgen
data_Be2Zn
_symmetry_space_group_name_H-M   'P 1'
_cell_length_a   12.49466811
_cell_length_b   12.02126964
_cell_length_c   4.96005021
_cell_angle_alpha   83.74338986
_cell_angle_beta   73.01502685
_cell_angle_gamma   23.24158329
_symmetry_Int_Tables_number   1
_chemical_formula_structural   Be2Zn
_chemical_formula_sum   'Be16 Zn8'
_cell_volume   254.84203186
_cell_formula_units_Z   8
loop_
 _symmetry_equiv_pos_site_id
 _symmetry_equiv_pos_as_xyz
  1  'x, y, z'
loop_
 _atom_site_type_symbol
 _atom_site_label
 _atom_site_symmetry_multiplicity
 _atom_site_fract_x
 _atom_site_fract_y
 _atom_site_fract_z
 _atom_site_occupancy
  Be  Be0_0  1  0.41188900  0.41188900  0.08811100  1
  Be  Be0_1  1  0.41188900  0.41188900  0.58811100  1
  Be  Be0_2  1  0.41188900  0.91188900  0.08811100  1
  Be  Be0_3  1  0.41188900  0.91188900  0.58811100  1
  Be  Be0_4  1  0.91188900  0.41188900  0.08811100  1
  Be  Be0_5  1  0.91188900  0.41188900  0.58811100  1
  Be  Be0_6  1  0.91188900  0.91188900  0.08811100  1
  Be  Be0_7  1  0.91188900  0.91188900  0.58811100  1
  Be  Be1_0  1  0.08811100  0.08811100  0.41188900  1
  Be  Be1_1  1  0.08811100  0.08811100  0.91188900  1
  Be  Be1_2  1  0.08811100  0.58811100  0.41188900  1
  Be  Be1_3  1  0.08811100  0.58811100  0.91188900  1
  Be  Be1_4  1  0.58811100  0.08811100  0.41188900  1
  Be  Be1_5  1  0.58811100  0.08811100  0.91188900  1
  Be  Be1_6  1  0.58811100  0.58811100  0.41188900  1
  Be  Be1_7  1  0.58811100  0.58811100  0.91188900  1
  Zn  Zn0_0  1  0.25000000  0.25000000  0.25000000  1
  Zn  Zn0_1  1  0.25000000  0.25000000  0.75000000  1
  Zn  Zn0_2  1  0.25000000  0.75000000  0.25000000  1
  Zn  Zn0_3  1  0.25000000  0.75000000  0.75000000  1
  Zn  Zn0_4  1  0.75000000  0.25000000  0.25000000  1
  Zn  Zn0_5  1  0.75000000  0.25000000  0.75000000  1
  Zn  Zn0_6  1  0.75000000  0.75000000  0.25000000  1
  Zn  Zn0_7  1  0.75000000  0.75000000  0.75000000  1
loop_
_geom_bond_atom_site_label_1
_geom_bond_atom_site_label_2
_geom_bond_distance
_geom_bond_site_symmetry_2
Be0_0 Be1_2 2.151617 1_555
Be0_0 Be1_5 2.151617 1_554
Be0_0 Zn0_5 2.431134 1_554
Be0_0 Zn0_2 2.431134 1_555
Be0_0 Be0_6 2.480025 1_455
Be0_0 Be0_1 2.480025 1_555
Be0_0 Be0_6 2.480025 1_545
Be0_0 Be0_1 2.480025 1_554
Be0_0 Be0_7 2.549146 1_455
Be0_0 Be0_7 2.549146 1_544
Be0_1 Be1_3 2.151617 1_555
Be0_1 Be1_4 2.151617 1_555
Be0_1 Zn0_3 2.431134 1_555
Be0_1 Zn0_4 2.431134 1_555
Be0_1 Be0_7 2.480025 1_545
Be0_1 Be0_7 2.480025 1_455
Be0_1 Be0_6 2.549146 1_545
Be0_1 Be0_6 2.549146 1_456
Be0_2 Be1_0 2.151617 1_565
Be0_2 Be1_7 2.151617 1_554
Be0_2 Zn0_7 2.431134 1_554
Be0_2 Zn0_0 2.431134 1_565
Be0_2 Be0_3 2.480025 1_555
Be0_2 Be0_4 2.480025 1_465
Be0_2 Be0_4 2.480025 1_555
Be0_2 Be0_3 2.480025 1_554
Be0_2 Be0_5 2.549146 1_554
Be0_2 Be0_5 2.549146 1_465
Be0_3 Be1_6 2.151617 1_555
Be0_3 Be1_1 2.151617 1_565
Be0_3 Zn0_6 2.431134 1_555
Be0_3 Zn0_1 2.431134 1_565
Be0_3 Be0_5 2.480025 1_555
Be0_3 Be0_5 2.480025 1_465
Be0_3 Be0_4 2.549146 1_555
Be0_3 Be0_4 2.549146 1_466
Be0_4 Be1_6 2.151617 1_555
Be0_4 Be1_1 2.151617 1_654
Be0_4 Zn0_1 2.431134 1_654
Be0_4 Zn0_6 2.431134 1_555
Be0_4 Be0_5 2.480025 1_554
Be0_4 Be0_5 2.480025 1_555
Be0_5 Be1_7 2.151617 1_555
Be0_5 Be1_0 2.151617 1_655
Be0_5 Zn0_7 2.431134 1_555
Be0_5 Zn0_0 2.431134 1_655
Be0_6 Be1_4 2.151617 1_565
Be0_6 Be1_3 2.151617 1_654
Be0_6 Zn0_3 2.431134 1_654
Be0_6 Zn0_4 2.431134 1_565
Be0_6 Be0_7 2.480025 1_555
Be0_6 Be0_7 2.480025 1_554
Be0_7 Be1_2 2.151617 1_655
Be0_7 Be1_5 2.151617 1_565
Be0_7 Zn0_5 2.431134 1_565
Be0_7 Zn0_2 2.431134 1_655
Be1_0 Zn0_2 2.431134 1_545
Be1_0 Zn0_5 2.431134 1_455
Be1_0 Be1_1 2.480025 1_555
Be1_0 Be1_6 2.480025 1_455
Be1_0 Be1_6 2.480025 1_545
Be1_0 Be1_1 2.480025 1_554
Be1_0 Be1_7 2.549146 1_455
Be1_0 Be1_7 2.549146 1_544
Be1_1 Zn0_4 2.431134 1_456
Be1_1 Zn0_3 2.431134 1_545
Be1_1 Be1_7 2.480025 1_455
Be1_1 Be1_7 2.480025 1_545
Be1_1 Be1_6 2.549146 1_545
Be1_1 Be1_6 2.549146 1_456
Be1_2 Zn0_0 2.431134 1_555
Be1_2 Zn0_7 2.431134 1_455
Be1_2 Be1_3 2.480025 1_555
Be1_2 Be1_4 2.480025 1_465
Be1_2 Be1_4 2.480025 1_555
Be1_2 Be1_3 2.480025 1_554
Be1_2 Be1_5 2.549146 1_554
Be1_2 Be1_5 2.549146 1_465
Be1_3 Zn0_1 2.431134 1_555
Be1_3 Zn0_6 2.431134 1_456
Be1_3 Be1_5 2.480025 1_555
Be1_3 Be1_5 2.480025 1_465
Be1_3 Be1_4 2.549146 1_555
Be1_3 Be1_4 2.549146 1_466
Be1_4 Zn0_1 2.431134 1_555
Be1_4 Zn0_6 2.431134 1_545
Be1_4 Be1_5 2.480025 1_555
Be1_4 Be1_5 2.480025 1_554
Be1_5 Zn0_0 2.431134 1_556
Be1_5 Zn0_7 2.431134 1_545
Be1_6 Zn0_3 2.431134 1_555
Be1_6 Zn0_4 2.431134 1_555
Be1_6 Be1_7 2.480025 1_555
Be1_6 Be1_7 2.480025 1_554
Be1_7 Zn0_5 2.431134 1_555
Be1_7 Zn0_2 2.431134 1_556
Zn0_0 Zn0_6 2.480025 1_545
Zn0_0 Zn0_6 2.480025 1_455
Zn0_0 Zn0_1 2.480025 1_555
Zn0_0 Zn0_1 2.480025 1_554
Zn0_0 Zn0_7 2.549146 1_455
Zn0_0 Zn0_7 2.549146 1_544
Zn0_1 Zn0_7 2.480025 1_545
Zn0_1 Zn0_7 2.480025 1_455
Zn0_1 Zn0_6 2.549146 1_545
Zn0_1 Zn0_6 2.549146 1_456
Zn0_2 Zn0_3 2.480025 1_555
Zn0_2 Zn0_4 2.480025 1_555
Zn0_2 Zn0_4 2.480025 1_465
Zn0_2 Zn0_3 2.480025 1_554
Zn0_2 Zn0_5 2.549146 1_554
Zn0_2 Zn0_5 2.549146 1_465
Zn0_3 Zn0_5 2.480025 1_555
Zn0_3 Zn0_5 2.480025 1_465
Zn0_3 Zn0_4 2.549146 1_555
Zn0_3 Zn0_4 2.549146 1_466
Zn0_4 Zn0_5 2.480025 1_555
Zn0_4 Zn0_5 2.480025 1_554
Zn0_6 Zn0_7 2.480025 1_555
Zn0_6 Zn0_7 2.480025 1_554
