# generated using pymatgen
data_Zr3Tl2(CuS4)2
_symmetry_space_group_name_H-M   'P 1'
_cell_length_a   7.50520617
_cell_length_b   7.50520617
_cell_length_c   14.01233042
_cell_angle_alpha   66.13442496
_cell_angle_beta   66.13442496
_cell_angle_gamma   28.68202762
_symmetry_Int_Tables_number   1
_chemical_formula_structural   Zr3Tl2(CuS4)2
_chemical_formula_sum   'Zr3 Tl2 Cu2 S8'
_cell_volume   344.20444443
_cell_formula_units_Z   1
loop_
 _symmetry_equiv_pos_site_id
 _symmetry_equiv_pos_as_xyz
  1  'x, y, z'
loop_
 _atom_site_type_symbol
 _atom_site_label
 _atom_site_symmetry_multiplicity
 _atom_site_fract_x
 _atom_site_fract_y
 _atom_site_fract_z
 _atom_site_occupancy
  Zr  Zr0  1  0.00000000  0.00000000  0.00000000  1
  Zr  Zr1  1  0.84525500  0.84525500  0.38143000  1
  Zr  Zr2  1  0.15474500  0.15474500  0.61857000  1
  Tl  Tl0  1  0.82671300  0.82671300  0.80160600  1
  Tl  Tl1  1  0.17328700  0.17328700  0.19839400  1
  Cu  Cu0  1  0.45912400  0.45912400  0.19610000  1
  Cu  Cu1  1  0.54087600  0.54087600  0.80390000  1
  S  S0  1  0.86114400  0.86114400  0.19104800  1
  S  S1  1  0.13885600  0.13885600  0.80895200  1
  S  S2  1  0.79155600  0.79155600  0.58149600  1
  S  S3  1  0.20844400  0.20844400  0.41850400  1
  S  S4  1  0.47728100  0.47728100  0.35100200  1
  S  S5  1  0.52271900  0.52271900  0.64899800  1
  S  S6  1  0.60261700  0.60261700  0.04205200  1
  S  S7  1  0.39738300  0.39738300  0.95794800  1
loop_
_geom_bond_atom_site_label_1
_geom_bond_atom_site_label_2
_geom_bond_distance
_geom_bond_site_symmetry_2
Cu0 S6 2.291699 1_555
Cu0 S4 2.293392 1_555
Cu0 S0 2.361227 1_545
Cu0 S0 2.361227 1_455
Cu1 S7 2.291699 1_555
Cu1 S5 2.293392 1_555
Cu1 S1 2.361227 1_655
Cu1 S1 2.361227 1_565
S0 Zr1 2.579758 1_555
S0 Zr0 2.594070 1_665
S1 Zr2 2.579758 1_555
S1 Zr0 2.594070 1_556
S2 Zr1 2.576891 1_555
S2 Zr2 2.611691 1_565
S2 Zr2 2.611691 1_655
S3 Zr2 2.576891 1_555
S3 Zr1 2.611691 1_545
S3 Zr1 2.611691 1_455
S4 Zr1 2.576882 1_455
S4 Zr1 2.576882 1_545
S5 Zr2 2.576882 1_565
S5 Zr2 2.576882 1_655
S6 Zr0 2.600867 1_565
S6 Zr0 2.600867 1_655
S7 Zr0 2.600867 1_656
S7 Zr0 2.600867 1_566
