# generated using pymatgen
data_CaNi3O7
_symmetry_space_group_name_H-M   'P 1'
_cell_length_a   5.26551300
_cell_length_b   10.24899000
_cell_length_c   11.42320000
_cell_angle_alpha   90.00000000
_cell_angle_beta   90.00000000
_cell_angle_gamma   90.00000000
_symmetry_Int_Tables_number   1
_chemical_formula_structural   CaNi3O7
_chemical_formula_sum   'Ca4 Ni12 O28'
_cell_volume   616.46658254
_cell_formula_units_Z   4
loop_
 _symmetry_equiv_pos_site_id
 _symmetry_equiv_pos_as_xyz
  1  'x, y, z'
loop_
 _atom_site_type_symbol
 _atom_site_label
 _atom_site_symmetry_multiplicity
 _atom_site_fract_x
 _atom_site_fract_y
 _atom_site_fract_z
 _atom_site_occupancy
  Ca  Ca0  1  0.67413300  0.75000000  0.08583600  1
  Ca  Ca1  1  0.17413300  0.25000000  0.41416400  1
  Ca  Ca2  1  0.32586700  0.25000000  0.91416400  1
  Ca  Ca3  1  0.82586700  0.75000000  0.58583600  1
  Ni  Ni0  1  0.29966000  0.02432900  0.70021100  1
  Ni  Ni1  1  0.79966000  0.97567100  0.79978900  1
  Ni  Ni2  1  0.70034000  0.52432900  0.29978900  1
  Ni  Ni3  1  0.20034000  0.47567100  0.20021100  1
  Ni  Ni4  1  0.32400200  0.75000000  0.76159500  1
  Ni  Ni5  1  0.82400200  0.25000000  0.73840500  1
  Ni  Ni6  1  0.67599800  0.25000000  0.23840500  1
  Ni  Ni7  1  0.17599800  0.75000000  0.26159500  1
  Ni  Ni8  1  0.79966000  0.52432900  0.79978900  1
  Ni  Ni9  1  0.29966000  0.47567100  0.70021100  1
  Ni  Ni10  1  0.20034000  0.02432900  0.20021100  1
  Ni  Ni11  1  0.70034000  0.97567100  0.29978900  1
  O  O0  1  0.92809100  0.12058200  0.27268400  1
  O  O1  1  0.42809100  0.87941800  0.22731600  1
  O  O2  1  0.07190900  0.62058200  0.72731600  1
  O  O3  1  0.57190900  0.37941800  0.77268400  1
  O  O4  1  0.07190900  0.87941800  0.72731600  1
  O  O5  1  0.57190900  0.12058200  0.77268400  1
  O  O6  1  0.92809100  0.37941800  0.27268400  1
  O  O7  1  0.42809100  0.62058200  0.22731600  1
  O  O8  1  0.45175300  0.11987100  0.29398200  1
  O  O9  1  0.95175300  0.88012900  0.20601800  1
  O  O10  1  0.54824700  0.61987100  0.70601800  1
  O  O11  1  0.04824700  0.38012900  0.79398200  1
  O  O12  1  0.54824700  0.88012900  0.70601800  1
  O  O13  1  0.04824700  0.11987100  0.79398200  1
  O  O14  1  0.45175300  0.38012900  0.29398200  1
  O  O15  1  0.95175300  0.61987100  0.20601800  1
  O  O16  1  0.08897000  0.75000000  0.42383700  1
  O  O17  1  0.58897000  0.25000000  0.07616300  1
  O  O18  1  0.91103000  0.25000000  0.57616300  1
  O  O19  1  0.41103000  0.75000000  0.92383700  1
  O  O20  1  0.25938500  0.40620200  0.05919900  1
  O  O21  1  0.75938500  0.59379800  0.44080100  1
  O  O22  1  0.74061500  0.90620200  0.94080100  1
  O  O23  1  0.24061500  0.09379800  0.55919900  1
  O  O24  1  0.74061500  0.59379800  0.94080100  1
  O  O25  1  0.24061500  0.40620200  0.55919900  1
  O  O26  1  0.25938500  0.09379800  0.05919900  1
  O  O27  1  0.75938500  0.90620200  0.44080100  1
loop_
_geom_bond_atom_site_label_1
_geom_bond_atom_site_label_2
_geom_bond_distance
_geom_bond_site_symmetry_2
Ca0 O19 2.311662 1_554
Ca0 O22 2.330307 1_554
Ca0 O24 2.330307 1_554
Ca0 O9 2.408397 1_555
Ca0 O15 2.408397 1_555
Ca0 O1 2.459618 1_555
Ca0 O7 2.459618 1_555
Ca1 O18 2.311662 1_455
Ca1 O25 2.330307 1_555
Ca1 O23 2.330307 1_555
Ca1 O14 2.408397 1_555
Ca1 O8 2.408397 1_555
Ca1 O6 2.459618 1_455
Ca1 O0 2.459618 1_455
Ca2 O17 2.311662 1_556
Ca2 O20 2.330307 1_556
Ca2 O26 2.330307 1_556
Ca2 O11 2.408397 1_555
Ca2 O13 2.408397 1_555
Ca2 O5 2.459618 1_555
Ca2 O3 2.459618 1_555
Ca3 O16 2.311662 1_655
Ca3 O27 2.330307 1_555
Ca3 O21 2.330307 1_555
Ca3 O12 2.408397 1_555
Ca3 O10 2.408397 1_555
Ca3 O4 2.459618 1_655
Ca3 O2 2.459618 1_655
Ni0 O23 1.788376 1_555
Ni0 O5 1.927060 1_555
Ni0 O4 1.933857 1_545
Ni0 O13 1.964368 1_555
Ni0 O12 1.975328 1_545
Ni1 O22 1.788376 1_555
Ni1 O4 1.927060 1_655
Ni1 O5 1.933857 1_565
Ni1 O12 1.964368 1_555
Ni1 O13 1.975328 1_665
Ni2 O21 1.788376 1_555
Ni2 O7 1.927060 1_555
Ni2 O6 1.933857 1_555
Ni2 O15 1.964368 1_555
Ni2 O14 1.975328 1_555
Ni3 O20 1.788376 1_555
Ni3 O6 1.927060 1_455
Ni3 O7 1.933857 1_555
Ni3 O14 1.964368 1_555
Ni3 O15 1.975328 1_455
Ni4 O12 1.891030 1_555
Ni4 O10 1.891030 1_555
Ni4 O19 1.909135 1_555
Ni4 O4 1.916942 1_555
Ni4 O2 1.916942 1_555
Ni5 O11 1.891030 1_655
Ni5 O13 1.891030 1_655
Ni5 O18 1.909135 1_555
Ni5 O3 1.916942 1_555
Ni5 O5 1.916942 1_555
Ni6 O14 1.891030 1_555
Ni6 O8 1.891030 1_555
Ni6 O17 1.909135 1_555
Ni6 O6 1.916942 1_555
Ni6 O0 1.916942 1_555
Ni7 O9 1.891030 1_455
Ni7 O15 1.891030 1_455
Ni7 O16 1.909135 1_555
Ni7 O1 1.916942 1_555
Ni7 O7 1.916942 1_555
Ni8 O24 1.788376 1_555
Ni8 O2 1.927060 1_655
Ni8 O3 1.933857 1_555
Ni8 O10 1.964368 1_555
Ni8 O11 1.975328 1_655
Ni9 O25 1.788376 1_555
Ni9 O3 1.927060 1_555
Ni9 O2 1.933857 1_555
Ni9 O11 1.964368 1_555
Ni9 O10 1.975328 1_555
Ni10 O26 1.788376 1_555
Ni10 O0 1.927060 1_455
Ni10 O1 1.933857 1_545
Ni10 O8 1.964368 1_555
Ni10 O9 1.975328 1_445
Ni11 O27 1.788376 1_555
Ni11 O1 1.927060 1_555
Ni11 O0 1.933857 1_565
Ni11 O9 1.964368 1_555
Ni11 O8 1.975328 1_565
