# generated using pymatgen
data_V5Bi3
_symmetry_space_group_name_H-M   'P 1'
_cell_length_a   7.26557300
_cell_length_b   8.32252200
_cell_length_c   10.45895800
_cell_angle_alpha   90.00000000
_cell_angle_beta   90.00000000
_cell_angle_gamma   90.00000000
_symmetry_Int_Tables_number   1
_chemical_formula_structural   V5Bi3
_chemical_formula_sum   'V20 Bi12'
_cell_volume   632.43113373
_cell_formula_units_Z   4
loop_
 _symmetry_equiv_pos_site_id
 _symmetry_equiv_pos_as_xyz
  1  'x, y, z'
loop_
 _atom_site_type_symbol
 _atom_site_label
 _atom_site_symmetry_multiplicity
 _atom_site_fract_x
 _atom_site_fract_y
 _atom_site_fract_z
 _atom_site_occupancy
  V  V0  1  0.62330200  0.75000000  0.76519000  1
  V  V1  1  0.12330200  0.25000000  0.73481000  1
  V  V2  1  0.37669800  0.25000000  0.23481000  1
  V  V3  1  0.87669800  0.75000000  0.26519000  1
  V  V4  1  0.21899900  0.75000000  0.74828000  1
  V  V5  1  0.71899900  0.25000000  0.75172000  1
  V  V6  1  0.78100100  0.25000000  0.25172000  1
  V  V7  1  0.28100100  0.75000000  0.24828000  1
  V  V8  1  0.47904100  0.75000000  0.97184600  1
  V  V9  1  0.97904100  0.25000000  0.52815400  1
  V  V10  1  0.52095900  0.25000000  0.02815400  1
  V  V11  1  0.02095900  0.75000000  0.47184700  1
  V  V12  1  0.76314200  0.91655300  0.92563000  1
  V  V13  1  0.26314200  0.08344700  0.57437000  1
  V  V14  1  0.23685800  0.41655300  0.07437000  1
  V  V15  1  0.73685800  0.58344700  0.42563000  1
  V  V16  1  0.23685800  0.08344700  0.07437000  1
  V  V17  1  0.73685800  0.91655300  0.42563000  1
  V  V18  1  0.76314200  0.58344700  0.92563000  1
  V  V19  1  0.26314200  0.41655300  0.57437000  1
  Bi  Bi0  1  0.42160900  0.75000000  0.51389400  1
  Bi  Bi1  1  0.92160900  0.25000000  0.98610600  1
  Bi  Bi2  1  0.57839100  0.25000000  0.48610600  1
  Bi  Bi3  1  0.07839100  0.75000000  0.01389400  1
  Bi  Bi4  1  0.91335600  0.53690300  0.67394200  1
  Bi  Bi5  1  0.41335600  0.46309700  0.82605800  1
  Bi  Bi6  1  0.08664400  0.03690300  0.32605800  1
  Bi  Bi7  1  0.58664400  0.96309700  0.17394200  1
  Bi  Bi8  1  0.08664400  0.46309700  0.32605800  1
  Bi  Bi9  1  0.58664400  0.53690300  0.17394200  1
  Bi  Bi10  1  0.91335600  0.96309700  0.67394200  1
  Bi  Bi11  1  0.41335600  0.03690300  0.82605800  1
loop_
_geom_bond_atom_site_label_1
_geom_bond_atom_site_label_2
_geom_bond_distance
_geom_bond_site_symmetry_2
V0 V12 2.401974 1_555
V0 V18 2.401974 1_555
V0 V8 2.402139 1_555
V0 V4 2.942812 1_555
V1 V13 2.401974 1_555
V1 V19 2.401974 1_555
V1 V9 2.402139 1_455
V1 V5 2.942812 1_455
V2 V6 2.942812 1_555
V3 V7 2.942812 1_655
V10 V2 2.402139 1_555
V10 V16 2.532938 1_555
V10 V14 2.532938 1_555
V11 V3 2.402149 1_455
V11 V17 2.532940 1_455
V11 V15 2.532940 1_455
V12 V8 2.532938 1_555
V13 V9 2.532938 1_455
V14 V2 2.401974 1_555
V15 V3 2.401974 1_555
V16 V2 2.401974 1_555
V17 V3 2.401974 1_555
V18 V8 2.532938 1_555
V19 V9 2.532938 1_455
Bi0 V17 2.831929 1_555
Bi0 V15 2.831929 1_555
Bi0 V4 2.859465 1_555
Bi0 V11 2.943983 1_555
Bi0 V7 2.959932 1_555
Bi0 V0 3.009215 1_555
Bi0 V19 3.070339 1_555
Bi0 V13 3.070339 1_565
Bi1 V14 2.831929 1_656
Bi1 V16 2.831929 1_656
Bi1 V5 2.859465 1_555
Bi1 V10 2.943985 1_556
Bi1 V6 2.959932 1_556
Bi1 V1 3.009215 1_655
Bi1 V18 3.070339 1_555
Bi1 V12 3.070339 1_545
Bi2 V19 2.831929 1_555
Bi2 V13 2.831929 1_555
Bi2 V6 2.859465 1_555
Bi2 V9 2.943985 1_555
Bi2 V5 2.959932 1_555
Bi2 V2 3.009215 1_555
Bi2 V17 3.070339 1_545
Bi2 V15 3.070339 1_555
Bi3 V12 2.831929 1_454
Bi3 V18 2.831929 1_454
Bi3 V7 2.859465 1_555
Bi3 V8 2.943985 1_554
Bi3 V4 2.959932 1_554
Bi3 V3 3.009215 1_455
Bi3 V14 3.070339 1_555
Bi3 V16 3.070339 1_565
Bi4 V11 2.867798 1_655
Bi4 V9 2.872999 1_555
Bi4 V18 2.875880 1_555
Bi4 V5 2.890881 1_555
Bi4 V1 2.904038 1_655
Bi4 V0 2.915011 1_555
Bi4 V15 2.922216 1_555
Bi4 V19 2.923436 1_655
Bi4 V4 2.946388 1_655
Bi5 V10 2.867806 1_556
Bi5 V8 2.872999 1_555
Bi5 V19 2.875880 1_555
Bi5 V4 2.890881 1_555
Bi5 V0 2.904038 1_555
Bi5 V1 2.915011 1_555
Bi5 V14 2.922216 1_556
Bi5 V18 2.923436 1_555
Bi5 V5 2.946388 1_555
Bi6 V9 2.867806 1_455
Bi6 V11 2.873005 1_545
Bi6 V16 2.875880 1_555
Bi6 V7 2.890881 1_545
Bi6 V3 2.904038 1_445
Bi6 V2 2.915011 1_555
Bi6 V13 2.922216 1_555
Bi6 V17 2.923436 1_445
Bi6 V6 2.946388 1_455
Bi7 V8 2.867806 1_554
Bi7 V10 2.872999 1_565
Bi7 V17 2.875880 1_555
Bi7 V6 2.890881 1_565
Bi7 V2 2.904038 1_565
Bi7 V3 2.915011 1_555
Bi7 V12 2.922216 1_554
Bi7 V16 2.923436 1_565
Bi7 V7 2.946388 1_555
Bi8 V9 2.867806 1_455
Bi8 V11 2.873005 1_555
Bi8 V14 2.875880 1_555
Bi8 V7 2.890881 1_555
Bi8 V3 2.904038 1_455
Bi8 V2 2.915011 1_555
Bi8 V19 2.922216 1_555
Bi8 V15 2.923436 1_455
Bi8 V6 2.946388 1_455
Bi9 V8 2.867806 1_554
Bi9 V10 2.872999 1_555
Bi9 V15 2.875880 1_555
Bi9 V6 2.890881 1_555
Bi9 V2 2.904038 1_555
Bi9 V3 2.915011 1_555
Bi9 V18 2.922216 1_554
Bi9 V14 2.923436 1_555
Bi9 V7 2.946388 1_555
Bi10 V11 2.867798 1_655
Bi10 V9 2.872999 1_565
Bi10 V12 2.875880 1_555
Bi10 V5 2.890881 1_565
Bi10 V1 2.904038 1_665
Bi10 V0 2.915011 1_555
Bi10 V17 2.922216 1_555
Bi10 V13 2.923436 1_665
Bi10 V4 2.946388 1_655
Bi11 V10 2.867806 1_556
Bi11 V8 2.872999 1_545
Bi11 V13 2.875880 1_555
Bi11 V4 2.890881 1_545
Bi11 V0 2.904038 1_545
Bi11 V1 2.915011 1_555
Bi11 V16 2.922216 1_556
Bi11 V12 2.923436 1_545
Bi11 V5 2.946388 1_555
