# generated using pymatgen
data_Yb(AlCu)6
_symmetry_space_group_name_H-M   'P 1'
_cell_length_a   6.62483730
_cell_length_b   6.62483730
_cell_length_c   6.62483730
_cell_angle_alpha   135.07020909
_cell_angle_beta   99.13802067
_cell_angle_gamma   97.65535736
_symmetry_Int_Tables_number   1
_chemical_formula_structural   Yb(AlCu)6
_chemical_formula_sum   'Yb1 Al6 Cu6'
_cell_volume   189.73808171
_cell_formula_units_Z   1
loop_
 _symmetry_equiv_pos_site_id
 _symmetry_equiv_pos_as_xyz
  1  'x, y, z'
loop_
 _atom_site_type_symbol
 _atom_site_label
 _atom_site_symmetry_multiplicity
 _atom_site_fract_x
 _atom_site_fract_y
 _atom_site_fract_z
 _atom_site_occupancy
  Yb  Yb0  1  0.00000000  0.00000000  0.00000000  1
  Al  Al0  1  0.35024200  0.35024200  0.00000000  1
  Al  Al1  1  0.64975800  0.64975800  0.00000000  1
  Al  Al2  1  0.65383000  0.00000000  0.65383000  1
  Al  Al3  1  0.34617000  0.00000000  0.34617000  1
  Al  Al4  1  0.79387900  0.29387900  0.50000000  1
  Al  Al5  1  0.20612100  0.70612100  0.50000000  1
  Cu  Cu0  1  0.50000000  0.00000000  0.00000000  1
  Cu  Cu1  1  0.50000000  0.50000000  0.50000000  1
  Cu  Cu2  1  0.00000000  0.00000000  0.50000000  1
  Cu  Cu3  1  0.00000000  0.50000000  0.00000000  1
  Cu  Cu4  1  0.22610300  0.50000000  0.72610300  1
  Cu  Cu5  1  0.77389700  0.50000000  0.27389700  1
loop_
_geom_bond_atom_site_label_1
_geom_bond_atom_site_label_2
_geom_bond_distance
_geom_bond_site_symmetry_2
Al0 Al1 2.612559 1_555
Al0 Cu1 2.642235 1_555
Al0 Cu0 2.642235 1_555
Al0 Cu3 2.642235 1_555
Al0 Cu2 2.642235 1_554
Al0 Cu5 2.691760 1_555
Al0 Cu4 2.691760 1_554
Al0 Al5 2.826419 1_544
Al0 Al5 2.826419 1_555
Al0 Yb0 3.055022 1_555
Al1 Cu2 2.642235 1_665
Al1 Cu1 2.642235 1_554
Al1 Cu0 2.642235 1_565
Al1 Cu3 2.642235 1_655
Al1 Cu5 2.691760 1_555
Al1 Cu4 2.691760 1_554
Al1 Al4 2.826419 1_565
Al1 Al4 2.826419 1_554
Al1 Yb0 3.055022 1_665
Al2 Al3 2.643671 1_555
Al2 Cu0 2.653339 1_556
Al2 Cu3 2.653339 1_656
Al2 Cu2 2.653339 1_655
Al2 Cu1 2.653339 1_545
Al2 Cu5 2.733634 1_545
Al2 Cu5 2.733634 1_556
Al2 Al4 2.884132 1_555
Al2 Al5 2.884132 1_545
Al2 Yb0 2.974581 1_656
Al3 Cu0 2.653339 1_555
Al3 Cu3 2.653339 1_545
Al3 Cu1 2.653339 1_555
Al3 Cu2 2.653339 1_555
Al3 Cu4 2.733634 1_555
Al3 Cu4 2.733634 1_544
Al3 Al4 2.884132 1_555
Al3 Al5 2.884132 1_545
Al3 Yb0 2.974581 1_555
Al4 Cu2 2.522572 1_655
Al4 Cu0 2.522572 1_555
Al4 Cu3 2.522572 1_656
Al4 Cu1 2.522572 1_555
Al4 Cu5 2.647114 1_555
Al4 Cu4 2.647114 1_655
Al4 Yb0 3.104964 1_666
Al4 Yb0 3.104964 1_655
Al5 Cu2 2.522572 1_565
Al5 Cu3 2.522572 1_555
Al5 Cu0 2.522572 1_566
Al5 Cu1 2.522572 1_555
Al5 Cu5 2.647114 1_455
Al5 Cu4 2.647114 1_555
Al5 Yb0 3.104964 1_555
Al5 Yb0 3.104964 1_566
Cu0 Cu5 2.529720 1_555
Cu0 Cu4 2.529720 1_544
Cu0 Cu1 2.531465 1_544
Cu0 Cu1 2.531465 1_555
Cu0 Yb0 3.312419 1_555
Cu0 Yb0 3.312419 1_655
Cu1 Cu5 2.529720 1_555
Cu1 Cu4 2.529720 1_555
Cu1 Yb0 3.312419 1_555
Cu1 Yb0 3.312419 1_666
Cu2 Cu4 2.529720 1_555
Cu2 Cu5 2.529720 1_445
Cu2 Cu3 2.531465 1_556
Cu2 Cu3 2.531465 1_545
Cu2 Yb0 3.312419 1_555
Cu2 Yb0 3.312419 1_556
Cu3 Cu4 2.529720 1_554
Cu3 Cu5 2.529720 1_455
Cu3 Yb0 3.312419 1_555
Cu3 Yb0 3.312419 1_565
Cu4 Yb0 3.191088 1_555
Cu4 Yb0 3.191088 1_566
Cu5 Yb0 3.191088 1_655
Cu5 Yb0 3.191088 1_666
