# generated using pymatgen
data_Dy15(Fe4C13)2
_symmetry_space_group_name_H-M   'P 1'
_cell_length_a   5.14277106
_cell_length_b   11.91975513
_cell_length_c   11.91615273
_cell_angle_alpha   119.98123106
_cell_angle_beta   89.99115397
_cell_angle_gamma   90.01721616
_symmetry_Int_Tables_number   1
_chemical_formula_structural   Dy15(Fe4C13)2
_chemical_formula_sum   'Dy15 Fe8 C26'
_cell_volume   632.72253758
_cell_formula_units_Z   1
loop_
 _symmetry_equiv_pos_site_id
 _symmetry_equiv_pos_as_xyz
  1  'x, y, z'
loop_
 _atom_site_type_symbol
 _atom_site_label
 _atom_site_symmetry_multiplicity
 _atom_site_fract_x
 _atom_site_fract_y
 _atom_site_fract_z
 _atom_site_occupancy
  Dy  Dy0  1  0.25363100  0.11587500  0.71222400  1
  Dy  Dy1  1  0.25363600  0.28769500  0.40355200  1
  Dy  Dy2  1  0.25366800  0.59628700  0.88413300  1
  Dy  Dy3  1  0.74635500  0.88412100  0.59632300  1
  Dy  Dy4  1  0.74631000  0.40370500  0.28783200  1
  Dy  Dy5  1  0.74640200  0.71231300  0.11586800  1
  Dy  Dy6  1  0.24271900  0.63107700  0.48630000  1
  Dy  Dy7  1  0.24270200  0.51370500  0.14468800  1
  Dy  Dy8  1  0.24269500  0.85543500  0.36891800  1
  Dy  Dy9  1  0.75728700  0.36893400  0.85528500  1
  Dy  Dy10  1  0.75731500  0.14457200  0.51347000  1
  Dy  Dy11  1  0.75729200  0.48623700  0.63096900  1
  Dy  Dy12  1  0.49998900  0.83307300  0.83316500  1
  Dy  Dy13  1  0.50004400  0.16697000  0.00007800  1
  Dy  Dy14  1  0.49996300  0.99999500  0.16724200  1
  Fe  Fe0  1  0.00000000  0.74177800  0.74186400  1
  Fe  Fe1  1  0.00002400  0.25818400  0.00019100  1
  Fe  Fe2  1  0.99996300  0.00010100  0.25808900  1
  Fe  Fe3  1  0.99996000  0.12934800  0.12942600  1
  Fe  Fe4  1  0.00017100  0.87061000  0.00014900  1
  Fe  Fe5  1  0.99987600  0.00007000  0.87057800  1
  Fe  Fe6  1  0.26744700  0.33332100  0.66660000  1
  Fe  Fe7  1  0.73255400  0.66666100  0.33327200  1
  C  C0  1  0.22887600  0.31924800  0.92019300  1
  C  C1  1  0.22911800  0.07979600  0.39913500  1
  C  C2  1  0.22882800  0.60084000  0.68070500  1
  C  C3  1  0.77122200  0.68073700  0.60089300  1
  C  C4  1  0.77109000  0.39917200  0.07983700  1
  C  C5  1  0.77086800  0.92020400  0.31928500  1
  C  C6  1  0.25879800  0.35894400  0.83192700  1
  C  C7  1  0.25870900  0.16821000  0.52703700  1
  C  C8  1  0.25880600  0.47297700  0.64103200  1
  C  C9  1  0.74113700  0.64101100  0.47295800  1
  C  C10  1  0.74124300  0.52702000  0.16809600  1
  C  C11  1  0.74129700  0.83180800  0.35883000  1
  C  C12  1  0.17557100  0.88128100  0.70130900  1
  C  C13  1  0.17558100  0.29871200  0.18007300  1
  C  C14  1  0.17562500  0.81991400  0.11852300  1
  C  C15  1  0.82437200  0.11859200  0.81992200  1
  C  C16  1  0.82432200  0.18008400  0.29868100  1
  C  C17  1  0.82455900  0.70133500  0.88130300  1
  C  C18  1  0.23462900  0.87525900  0.58448100  1
  C  C19  1  0.23457600  0.41552800  0.29075700  1
  C  C20  1  0.23468100  0.70931000  0.12482500  1
  C  C21  1  0.76529200  0.12478200  0.70922900  1
  C  C22  1  0.76542600  0.29073300  0.41553900  1
  C  C23  1  0.76537600  0.58454200  0.87524200  1
  C  C24  1  0.22254800  0.99998200  0.99996600  1
  C  C25  1  0.77744400  0.99991100  0.00000900  1
loop_
_geom_bond_atom_site_label_1
_geom_bond_atom_site_label_2
_geom_bond_distance
_geom_bond_site_symmetry_2
C0 C6 1.360561 1_555
C0 Fe1 1.875176 1_556
C0 Dy0 2.455635 1_555
C0 Dy7 2.517290 1_556
C0 Dy13 2.806134 1_556
C1 C7 1.360649 1_555
C1 Fe2 1.876253 1_455
C1 Dy1 2.455429 1_555
C1 Dy8 2.514808 1_545
C1 Dy14 2.802370 1_545
C2 C8 1.360199 1_555
C2 Fe0 1.874974 1_555
C2 Dy2 2.454996 1_555
C2 Dy6 2.517110 1_555
C2 Dy12 2.807174 1_555
C3 C9 1.360440 1_555
C3 Fe0 1.874582 1_655
C3 Dy3 2.455325 1_555
C3 Dy11 2.517703 1_555
C3 Dy12 2.807301 1_555
C4 Fe1 1.875612 1_655
C4 Dy4 2.455237 1_555
C4 Dy9 2.516145 1_554
C4 Dy13 2.806424 1_555
C5 Fe2 1.876165 1_565
C5 Dy5 2.455328 1_555
C5 Dy10 2.515312 1_565
C5 Dy14 2.802113 1_555
C6 Fe6 1.837125 1_555
C6 Dy0 2.509855 1_555
C6 Dy9 2.575011 1_555
C6 Dy2 2.575350 1_555
C6 Dy9 2.590470 1_455
C7 Fe6 1.835733 1_555
C7 Dy1 2.507765 1_555
C7 Dy0 2.575892 1_555
C7 Dy10 2.575949 1_555
C7 Dy10 2.590103 1_455
C8 Fe6 1.836532 1_555
C8 Dy2 2.509439 1_555
C8 Dy11 2.574880 1_555
C8 Dy1 2.576831 1_555
C8 Dy11 2.590515 1_455
C9 Fe7 1.837038 1_555
C9 Dy3 2.510286 1_555
C9 Dy6 2.574501 1_555
C9 Dy4 2.575244 1_555
C9 Dy6 2.590821 1_655
C10 C4 1.360242 1_555
C10 Fe7 1.836382 1_555
C10 Dy4 2.508593 1_555
C10 Dy7 2.575309 1_555
C10 Dy5 2.576800 1_555
C10 Dy7 2.590259 1_655
C11 C5 1.360693 1_555
C11 Fe7 1.835916 1_555
C11 Dy5 2.508004 1_555
C11 Dy3 2.575803 1_555
C11 Dy8 2.575921 1_555
C11 Dy8 2.590104 1_655
C12 C18 1.391210 1_555
C12 Fe5 2.008870 1_465
C12 Fe0 2.148474 1_555
C12 Dy3 2.545954 1_455
C12 Dy12 2.546809 1_555
C13 C19 1.390993 1_555
C13 Fe3 2.009185 1_455
C13 Fe1 2.146750 1_555
C13 Dy4 2.546262 1_455
C13 Dy13 2.546552 1_555
C13 Dy1 2.760412 1_555
C14 C20 1.391108 1_555
C14 Fe4 2.005404 1_555
C14 Fe2 2.150751 1_465
C14 Dy5 2.544871 1_455
C14 Dy14 2.545487 1_555
C14 Dy2 2.761682 1_554
C15 C21 1.391049 1_555
C15 Fe5 2.007013 1_555
C15 Fe1 2.150919 1_656
C15 Dy0 2.545401 1_655
C15 Dy13 2.546647 1_556
C16 C22 1.391002 1_555
C16 Fe3 2.007515 1_555
C16 Fe2 2.148566 1_555
C16 Dy1 2.545338 1_655
C16 Dy14 2.545996 1_545
C16 Dy4 2.761822 1_555
C17 C23 1.391108 1_555
C17 Fe4 2.008948 1_656
C17 Fe0 2.146417 1_655
C17 Dy2 2.546154 1_655
C17 Dy12 2.546200 1_555
C18 Dy8 2.459477 1_555
C18 Dy0 2.487791 1_565
C18 Dy3 2.514310 1_455
C18 Dy6 2.537479 1_555
C18 Dy3 2.634751 1_555
C19 Dy6 2.459487 1_555
C19 Dy1 2.486954 1_555
C19 Dy4 2.514220 1_455
C19 Dy7 2.537034 1_555
C19 Dy4 2.634837 1_555
C20 Dy7 2.458764 1_555
C20 Dy2 2.487742 1_554
C20 Dy5 2.514416 1_455
C20 Dy8 2.536213 1_555
C20 Dy5 2.634768 1_555
C21 Dy10 2.459426 1_555
C21 Dy3 2.488210 1_545
C21 Dy0 2.514703 1_655
C21 Dy9 2.537343 1_555
C21 Dy0 2.634420 1_555
C22 Dy11 2.458348 1_555
C22 Dy4 2.487364 1_555
C22 Dy1 2.514034 1_655
C22 Dy10 2.535879 1_555
C22 Dy1 2.635171 1_555
C23 Dy9 2.460136 1_555
C23 Dy5 2.487206 1_556
C23 Dy2 2.514332 1_655
C23 Dy11 2.537451 1_555
C23 Dy2 2.634661 1_555
C24 Fe4 1.920475 1_556
C24 Fe5 1.921120 1_465
C24 Fe3 1.921212 1_466
C24 Dy12 2.448120 1_555
C24 Dy13 2.448298 1_566
C24 Dy14 2.451363 1_556
C25 Fe5 1.920852 1_564
C25 Fe3 1.920857 1_565
C25 Fe4 1.921214 1_655
C25 Dy12 2.447687 1_554
C25 Dy13 2.449603 1_565
C25 Dy14 2.450442 1_555
