# generated using pymatgen
data_Sr2B11HO21
_symmetry_space_group_name_H-M   'P 1'
_cell_length_a   21.43080900
_cell_length_b   6.69790900
_cell_length_c   6.77943759
_cell_angle_alpha   60.67522421
_cell_angle_beta   90.00000000
_cell_angle_gamma   90.00000000
_symmetry_Int_Tables_number   1
_chemical_formula_structural   Sr2B11HO21
_chemical_formula_sum   'Sr4 B22 H2 O42'
_cell_volume   848.43195940
_cell_formula_units_Z   2
loop_
 _symmetry_equiv_pos_site_id
 _symmetry_equiv_pos_as_xyz
  1  'x, y, z'
loop_
 _atom_site_type_symbol
 _atom_site_label
 _atom_site_symmetry_multiplicity
 _atom_site_fract_x
 _atom_site_fract_y
 _atom_site_fract_z
 _atom_site_occupancy
  Sr  Sr0  1  0.47133700  0.97995400  0.07145000  1
  Sr  Sr1  1  0.97133700  0.02004600  0.92855000  1
  Sr  Sr2  1  0.36316000  0.30685400  0.38154800  1
  Sr  Sr3  1  0.86316000  0.69314600  0.61845200  1
  B  B0  1  0.33096800  0.80296100  0.47898500  1
  B  B1  1  0.83096800  0.19703900  0.52101500  1
  B  B2  1  0.85537300  0.58899900  0.20926100  1
  B  B3  1  0.35537300  0.41100100  0.79073900  1
  B  B4  1  0.33443500  0.98509800  0.05493000  1
  B  B5  1  0.83443500  0.01490200  0.94507000  1
  B  B6  1  0.11231300  0.61108900  0.80392700  1
  B  B7  1  0.61231300  0.38891100  0.19607300  1
  B  B8  1  0.20381100  0.32425000  0.40672300  1
  B  B9  1  0.70381100  0.67575000  0.59327700  1
  B  B10  1  0.49363300  0.87686500  0.66019000  1
  B  B11  1  0.99363300  0.12313500  0.33981000  1
  B  B12  1  0.49858200  0.56226700  0.57631400  1
  B  B13  1  0.99858200  0.43773300  0.42368600  1
  B  B14  1  0.01305500  0.69697200  0.60549600  1
  B  B15  1  0.51305500  0.30302800  0.39450400  1
  B  B16  1  0.23526500  0.90543000  0.24762900  1
  B  B17  1  0.73526500  0.09457000  0.75237100  1
  B  B18  1  0.35009700  0.72423100  0.87382700  1
  B  B19  1  0.85009700  0.27576900  0.12617300  1
  B  B20  1  0.01481600  0.51750300  0.02862400  1
  B  B21  1  0.51481600  0.48249700  0.97137600  1
  H  H0  1  0.59620500  0.94514400  0.14760900  1
  H  H1  1  0.09620500  0.05485600  0.85239100  1
  O  O0  1  0.26293300  0.80594400  0.45513100  1
  O  O1  1  0.76293300  0.19405600  0.54486900  1
  O  O2  1  0.17710900  0.60000400  0.81205000  1
  O  O3  1  0.67710900  0.39999600  0.18795000  1
  O  O4  1  0.36150900  0.96503300  0.26539900  1
  O  O5  1  0.86150900  0.03496700  0.73460100  1
  O  O6  1  0.85222100  0.51194400  0.05314600  1
  O  O7  1  0.35222100  0.48805600  0.94685400  1
  O  O8  1  0.49258500  0.51394600  0.40358800  1
  O  O9  1  0.99258500  0.48605400  0.59641200  1
  O  O10  1  0.34713800  0.87729300  0.64848300  1
  O  O11  1  0.84713800  0.12270700  0.35151700  1
  O  O12  1  0.98576700  0.89710000  0.40334200  1
  O  O13  1  0.48576700  0.10290000  0.59665800  1
  O  O14  1  0.08103400  0.71106100  0.60238700  1
  O  O15  1  0.58103400  0.28893900  0.39761300  1
  O  O16  1  0.26732600  0.00491800  0.04735500  1
  O  O17  1  0.76732600  0.99508200  0.95264500  1
  O  O18  1  0.35405300  0.56364600  0.56381000  1
  O  O19  1  0.85405400  0.43635400  0.43619000  1
  O  O20  1  0.35612700  0.77549000  0.04519600  1
  O  O21  1  0.85612700  0.22451000  0.95480400  1
  O  O22  1  0.24356100  0.41100900  0.22550600  1
  O  O23  1  0.74356100  0.58899100  0.77449400  1
  O  O24  1  0.74772200  0.75581400  0.41899000  1
  O  O25  1  0.24772200  0.24418600  0.58101000  1
  O  O26  1  0.99204800  0.27773200  0.11226500  1
  O  O27  1  0.49204800  0.72226800  0.88773500  1
  O  O28  1  0.08338700  0.51510700  0.00988500  1
  O  O29  1  0.58338700  0.48489300  0.99011500  1
  O  O30  1  0.14178100  0.30829400  0.43539600  1
  O  O31  1  0.64178100  0.69170600  0.56460400  1
  O  O32  1  0.17068000  0.90941100  0.23074200  1
  O  O33  1  0.67068000  0.09058900  0.76925800  1
  O  O34  1  0.49834700  0.79955000  0.50343100  1
  O  O35  1  0.99834700  0.20045000  0.49656900  1
  O  O36  1  0.99915100  0.59231700  0.19770600  1
  O  O37  1  0.49915100  0.40768300  0.80229400  1
  O  O38  1  0.86455200  0.81635600  0.14267900  1
  O  O39  1  0.36455200  0.18364400  0.85732100  1
  O  O40  1  0.48592000  0.31905400  0.18624200  1
  O  O41  1  0.98592000  0.68094600  0.81375800  1
loop_
_geom_bond_atom_site_label_1
_geom_bond_atom_site_label_2
_geom_bond_distance
_geom_bond_site_symmetry_2
B0 O0 1.466043 1_555
B0 O4 1.470992 1_555
B0 O18 1.497291 1_555
B0 O10 1.499593 1_555
B1 O1 1.466043 1_555
B1 O5 1.470992 1_555
B1 O19 1.497298 1_555
B1 O11 1.499593 1_555
B2 O19 1.368297 1_555
B2 O38 1.374087 1_555
B2 O6 1.387850 1_555
B3 O18 1.368297 1_555
B3 O39 1.374087 1_555
B3 O7 1.387850 1_555
B4 O16 1.442915 1_565
B4 O4 1.484188 1_555
B4 O39 1.494901 1_564
B4 O20 1.510712 1_555
B5 O17 1.442915 1_545
B5 O5 1.484188 1_555
B5 O38 1.494901 1_546
B5 O21 1.510712 1_555
B6 O28 1.366719 1_556
B6 O14 1.366898 1_555
B6 O2 1.390265 1_555
B7 O29 1.366719 1_554
B7 O15 1.366898 1_555
B7 O3 1.390265 1_555
B8 O30 1.340164 1_555
B8 O22 1.368727 1_555
B8 O25 1.395922 1_555
B9 O31 1.340164 1_555
B9 O23 1.368727 1_555
B9 O24 1.395922 1_555
B10 O13 1.366486 1_565
B10 O27 1.374200 1_555
B10 O34 1.395296 1_555
B11 O12 1.366486 1_545
B11 O26 1.374200 1_555
B11 O35 1.395296 1_555
B12 O8 1.365174 1_555
B12 O37 1.365837 1_555
B12 O34 1.414511 1_555
B13 O9 1.365174 1_555
B13 O36 1.365837 1_555
B13 O35 1.414511 1_555
B14 O14 1.459383 1_555
B14 O41 1.481453 1_455
B14 O12 1.489155 1_455
B14 O9 1.509042 1_455
B15 O15 1.459383 1_555
B15 O40 1.481453 1_555
B15 O13 1.489155 1_555
B15 O8 1.509042 1_555
B16 O0 1.362483 1_555
B16 O16 1.368717 1_565
B16 O32 1.388015 1_555
B17 O1 1.362483 1_555
B17 O17 1.368717 1_545
B17 O33 1.388015 1_555
B18 O10 1.361915 1_555
B18 O20 1.369315 1_556
B18 O7 1.407977 1_555
B19 O11 1.361915 1_555
B19 O21 1.369315 1_554
B19 O6 1.407977 1_555
B20 O41 1.463492 1_454
B20 O28 1.475777 1_555
B20 O36 1.496795 1_455
B20 O26 1.498914 1_455
B21 O40 1.463492 1_556
B21 O29 1.475777 1_555
B21 O37 1.496795 1_555
B21 O27 1.498914 1_555
H0 Sr0 2.713692 1_555
H1 Sr1 2.713692 1_455
O4 Sr0 2.673960 1_555
O4 Sr2 2.762048 1_565
O5 Sr1 2.673960 1_555
O5 Sr3 2.762048 1_545
O6 Sr3 2.590220 1_554
O7 Sr2 2.590220 1_556
O8 Sr0 2.852308 1_555
O8 Sr2 3.137300 1_555
O9 Sr1 2.852308 1_555
O9 Sr3 3.137300 1_555
O10 Sr2 2.563354 1_565
O11 Sr3 2.563354 1_545
O12 Sr1 2.922024 1_564
O12 Sr3 2.990918 1_555
O13 Sr0 2.922024 1_546
O13 Sr2 2.990918 1_555
O18 Sr2 2.570001 1_555
O19 Sr3 2.569999 1_555
O20 Sr2 2.839724 1_555
O20 Sr0 2.870904 1_555
O21 Sr3 2.839724 1_555
O21 Sr1 2.870904 1_555
O22 Sr2 2.729908 1_555
O23 Sr3 2.729908 1_555
O24 Sr3 2.751199 1_555
O25 Sr2 2.751199 1_555
O26 Sr1 2.613961 1_554
O27 Sr0 2.613961 1_556
O34 Sr0 2.627837 1_555
O35 Sr1 2.627837 1_555
O36 Sr1 2.602298 1_564
O37 Sr0 2.602298 1_546
O38 Sr1 2.695532 1_564
O38 Sr3 2.911752 1_555
O39 Sr0 2.695532 1_546
O39 Sr2 2.911752 1_555
O40 Sr0 2.755591 1_545
O40 Sr2 2.928344 1_555
O41 Sr1 2.755591 1_565
O41 Sr3 2.928344 1_555
