# generated using pymatgen
data_Li7Mn4CoO12
_symmetry_space_group_name_H-M   'P 1'
_cell_length_a   5.94448300
_cell_length_b   6.51627653
_cell_length_c   6.53160922
_cell_angle_alpha   96.44419548
_cell_angle_beta   115.64991686
_cell_angle_gamma   102.63805363
_symmetry_Int_Tables_number   1
_chemical_formula_structural   Li7Mn4CoO12
_chemical_formula_sum   'Li7 Mn4 Co1 O12'
_cell_volume   216.30262562
_cell_formula_units_Z   1
loop_
 _symmetry_equiv_pos_site_id
 _symmetry_equiv_pos_as_xyz
  1  'x, y, z'
loop_
 _atom_site_type_symbol
 _atom_site_label
 _atom_site_symmetry_multiplicity
 _atom_site_fract_x
 _atom_site_fract_y
 _atom_site_fract_z
 _atom_site_occupancy
  Li  Li0  1  0.75111800  0.99268700  0.50198900  1
  Li  Li1  1  0.25422500  0.33241800  0.82846500  1
  Li  Li2  1  0.26117500  0.68225600  0.16599100  1
  Li  Li3  1  0.74090700  0.32294200  0.83862700  1
  Li  Li4  1  0.24990500  0.00076600  0.49934300  1
  Li  Li5  1  0.74418400  0.66939900  0.16647400  1
  Li  Li6  1  0.49952100  0.99805400  0.99828600  1
  Mn  Mn0  1  0.99400700  0.99948900  0.99547600  1
  Mn  Mn1  1  0.49834500  0.33007700  0.32982500  1
  Mn  Mn2  1  0.01279100  0.66765400  0.67459400  1
  Mn  Mn3  1  0.99246100  0.33125400  0.32833200  1
  Co  Co0  1  0.50278300  0.67530700  0.67582000  1
  O  O0  1  0.10919300  0.97972500  0.75584800  1
  O  O1  1  0.64507400  0.33546500  0.11166600  1
  O  O2  1  0.64606200  0.64996700  0.43547100  1
  O  O3  1  0.09692700  0.31681800  0.08359500  1
  O  O4  1  0.65525900  0.99775500  0.76573800  1
  O  O5  1  0.10709400  0.64992700  0.42295200  1
  O  O6  1  0.35139000  0.01720200  0.23566900  1
  O  O7  1  0.89840000  0.34787500  0.57900900  1
  O  O8  1  0.90073900  0.68531700  0.91589800  1
  O  O9  1  0.35164300  0.33683600  0.55246000  1
  O  O10  1  0.88758000  0.01842500  0.24075100  1
  O  O11  1  0.34921700  0.66238600  0.89771900  1
loop_
_geom_bond_atom_site_label_1
_geom_bond_atom_site_label_2
_geom_bond_distance
_geom_bond_site_symmetry_2
Li0 O4 2.034413 1_555
Li0 O0 2.083705 1_655
Li0 O2 2.122080 1_555
Li0 O10 2.191041 1_565
Li0 O7 2.201624 1_565
Li0 O6 2.312497 1_565
Li1 O11 2.043508 1_555
Li1 O7 2.070109 1_455
Li1 O9 2.119973 1_555
Li1 O0 2.187337 1_545
Li1 O3 2.237633 1_556
Li1 O1 2.251892 1_556
Li2 O11 2.033154 1_554
Li2 O8 2.062875 1_454
Li2 O6 2.076538 1_565
Li2 O5 2.241885 1_555
Li2 O3 2.270137 1_555
Li2 O2 2.276933 1_555
Li3 O4 2.016849 1_545
Li3 O3 2.039691 1_656
Li3 O1 2.092577 1_556
Li3 O8 2.251433 1_555
Li3 O7 2.268937 1_555
Li3 O9 2.289441 1_555
Li4 O6 2.062535 1_555
Li4 O9 2.085702 1_555
Li4 O10 2.123125 1_455
Li4 O5 2.173515 1_545
Li4 O0 2.177160 1_545
Li4 O4 2.287522 1_545
Li5 O1 2.071672 1_555
Li5 O2 2.085209 1_555
Li5 O5 2.124894 1_655
Li5 O10 2.163470 1_565
Li5 O8 2.206815 1_554
Li5 O11 2.227769 1_554
Li6 O11 2.080456 1_555
Li6 O1 2.092490 1_566
Li6 O6 2.093237 1_566
Li6 O4 2.093248 1_555
Li6 O10 2.122048 1_566
Li6 O0 2.135628 1_555
Mn0 O4 1.917547 1_555
Mn0 O8 1.945171 1_555
Mn0 O10 1.961953 1_566
Mn0 O3 1.963618 1_666
Mn0 O0 1.963746 1_655
Mn0 O6 1.988592 1_666
Mn1 O6 1.942180 1_555
Mn1 O1 1.966283 1_555
Mn1 O2 1.985931 1_555
Mn1 O9 1.994327 1_555
Mn1 O7 2.191786 1_555
Mn1 O3 2.200956 1_555
Mn2 O11 1.908566 1_555
Mn2 O0 1.931284 1_555
Mn2 O5 1.952565 1_555
Mn2 O8 1.960290 1_455
Mn2 O7 1.978551 1_455
Mn2 O2 2.026586 1_455
Mn3 O10 1.935120 1_555
Mn3 O1 1.941991 1_555
Mn3 O7 1.945375 1_555
Mn3 O3 1.949611 1_655
Mn3 O5 1.971430 1_655
Mn3 O9 1.987781 1_655
Co0 O4 2.002529 1_555
Co0 O11 2.019966 1_555
Co0 O2 2.092390 1_555
Co0 O9 2.104334 1_555
Co0 O5 2.166347 1_555
Co0 O8 2.181157 1_555
