# generated using pymatgen
data_Te2MoW3(SeS2)2
_symmetry_space_group_name_H-M   'P 1'
_cell_length_a   3.30857252
_cell_length_b   3.30857252
_cell_length_c   37.69478800
_cell_angle_alpha   90.00000000
_cell_angle_beta   90.00000000
_cell_angle_gamma   120.00001035
_symmetry_Int_Tables_number   1
_chemical_formula_structural   Te2MoW3(SeS2)2
_chemical_formula_sum   'Te2 Mo1 W3 Se2 S4'
_cell_volume   357.34952366
_cell_formula_units_Z   1
loop_
 _symmetry_equiv_pos_site_id
 _symmetry_equiv_pos_as_xyz
  1  'x, y, z'
loop_
 _atom_site_type_symbol
 _atom_site_label
 _atom_site_symmetry_multiplicity
 _atom_site_fract_x
 _atom_site_fract_y
 _atom_site_fract_z
 _atom_site_occupancy
  Te  Te0  1  0.00000000  0.00000000  0.33285300  1
  Te  Te1  1  0.00000000  0.00000000  0.23076900  1
  Mo  Mo0  1  0.00000000  0.00000000  0.46967800  1
  W  W0  1  0.00000000  0.00000000  0.09389300  1
  W  W1  1  0.33333300  0.66666700  0.28179100  1
  W  W2  1  0.33333300  0.66666700  0.65754200  1
  Se  Se0  1  0.00000000  0.00000000  0.70237800  1
  Se  Se1  1  0.00000000  0.00000000  0.61269800  1
  S  S0  1  0.33333300  0.66666700  0.05321800  1
  S  S1  1  0.33333300  0.66666700  0.42914400  1
  S  S2  1  0.33333300  0.66666700  0.13458600  1
  S  S3  1  0.33333300  0.66666700  0.51019600  1
loop_
_geom_bond_atom_site_label_1
_geom_bond_atom_site_label_2
_geom_bond_distance
_geom_bond_site_symmetry_2
Te0 W1 2.711756 1_545
Te0 W1 2.711758 1_445
Te0 W1 2.711758 1_555
Te1 W1 2.710686 1_545
Te1 W1 2.710688 1_445
Te1 W1 2.710688 1_555
Mo0 S3 2.445726 1_545
Mo0 S3 2.445728 1_555
Mo0 S3 2.445728 1_445
Mo0 S1 2.446103 1_545
Mo0 S1 2.446105 1_445
Mo0 S1 2.446105 1_555
Se0 W2 2.550541 1_545
Se0 W2 2.550543 1_555
Se0 W2 2.550543 1_445
Se1 W2 2.550741 1_545
Se1 W2 2.550743 1_555
Se1 W2 2.550743 1_445
S0 W0 2.449426 1_565
S0 W0 2.449428 1_555
S0 W0 2.449428 1_665
S2 W0 2.449851 1_565
S2 W0 2.449853 1_555
S2 W0 2.449853 1_665
