# generated using pymatgen
data_Zn(AgO2)2
_symmetry_space_group_name_H-M   'P 1'
_cell_length_a   6.29749926
_cell_length_b   6.29749926
_cell_length_c   6.29749926
_cell_angle_alpha   118.61135636
_cell_angle_beta   118.61135636
_cell_angle_gamma   92.42251462
_symmetry_Int_Tables_number   1
_chemical_formula_structural   Zn(AgO2)2
_chemical_formula_sum   'Zn2 Ag4 O8'
_cell_volume   180.13198356
_cell_formula_units_Z   2
loop_
 _symmetry_equiv_pos_site_id
 _symmetry_equiv_pos_as_xyz
  1  'x, y, z'
loop_
 _atom_site_type_symbol
 _atom_site_label
 _atom_site_symmetry_multiplicity
 _atom_site_fract_x
 _atom_site_fract_y
 _atom_site_fract_z
 _atom_site_occupancy
  Zn  Zn0  1  0.00000000  0.00000000  0.00000000  1
  Zn  Zn1  1  0.75000000  0.25000000  0.50000000  1
  Ag  Ag0  1  0.37500000  0.62500000  0.25000000  1
  Ag  Ag1  1  0.37500000  0.12500000  0.75000000  1
  Ag  Ag2  1  0.87500000  0.62500000  0.25000000  1
  Ag  Ag3  1  0.37500000  0.62500000  0.75000000  1
  O  O0  1  0.67127700  0.86847200  0.32317400  1
  O  O1  1  0.13152800  0.45470200  0.80280400  1
  O  O2  1  0.65189700  0.32872300  0.19719600  1
  O  O3  1  0.20470200  0.90189700  0.82317400  1
  O  O4  1  0.09810300  0.92127700  0.30280400  1
  O  O5  1  0.61847200  0.79529800  0.69719600  1
  O  O6  1  0.54529800  0.34810300  0.67682600  1
  O  O7  1  0.07872300  0.38152800  0.17682600  1
loop_
_geom_bond_atom_site_label_1
_geom_bond_atom_site_label_2
_geom_bond_distance
_geom_bond_site_symmetry_2
Ag0 O5 2.065196 1_555
Ag0 O1 2.065196 1_554
Ag0 O7 2.074248 1_555
Ag0 O0 2.074248 1_555
Ag0 O4 2.620815 1_555
Ag0 O2 2.620815 1_555
Ag1 O2 2.065195 1_556
Ag1 O4 2.065195 1_545
Ag1 O3 2.074248 1_545
Ag1 O6 2.074248 1_555
Ag1 O1 2.620815 1_555
Ag1 O5 2.620815 1_545
Ag2 O0 2.065191 1_555
Ag2 O7 2.065191 1_655
Ag2 O2 2.074252 1_555
Ag2 O4 2.074252 1_655
Ag2 O3 2.620815 1_655
Ag2 O6 2.620815 1_554
Ag3 O3 2.065191 1_555
Ag3 O6 2.065191 1_555
Ag3 O1 2.074243 1_555
Ag3 O5 2.074243 1_555
Ag3 O0 2.620815 1_556
Ag3 O7 2.620815 1_555
O0 Zn1 2.016625 1_565
O1 Zn1 2.016625 1_455
O2 Zn1 2.016620 1_555
O3 Zn0 2.016625 1_566
O4 Zn0 2.016620 1_565
O5 Zn0 2.016625 1_666
O6 Zn1 2.016625 1_555
O7 Zn0 2.016625 1_555
