# generated using pymatgen
data_K2CuTeO7
_symmetry_space_group_name_H-M   'P 1'
_cell_length_a   5.68055158
_cell_length_b   5.68055158
_cell_length_c   11.93088501
_cell_angle_alpha   85.16392873
_cell_angle_beta   85.16392873
_cell_angle_gamma   71.55739430
_symmetry_Int_Tables_number   1
_chemical_formula_structural   K2CuTeO7
_chemical_formula_sum   'K4 Cu2 Te2 O14'
_cell_volume   363.24358228
_cell_formula_units_Z   2
loop_
 _symmetry_equiv_pos_site_id
 _symmetry_equiv_pos_as_xyz
  1  'x, y, z'
loop_
 _atom_site_type_symbol
 _atom_site_label
 _atom_site_symmetry_multiplicity
 _atom_site_fract_x
 _atom_site_fract_y
 _atom_site_fract_z
 _atom_site_occupancy
  K  K0  1  0.05325200  0.51411400  0.82430300  1
  K  K1  1  0.48588600  0.94674800  0.67569700  1
  K  K2  1  0.94674800  0.48588600  0.17569700  1
  K  K3  1  0.51411400  0.05325200  0.32430300  1
  Cu  Cu0  1  0.00000000  0.00000000  0.50000000  1
  Cu  Cu1  1  0.00000000  0.00000000  0.00000000  1
  Te  Te0  1  0.00000000  0.50000000  0.50000000  1
  Te  Te1  1  0.50000000  0.00000000  0.00000000  1
  O  O0  1  0.97502100  0.22269100  0.60904100  1
  O  O1  1  0.77730900  0.02497900  0.89095900  1
  O  O2  1  0.02497900  0.77730900  0.39095900  1
  O  O3  1  0.22269100  0.97502100  0.10904100  1
  O  O4  1  0.00533000  0.25195000  0.39240300  1
  O  O5  1  0.74805000  0.99467000  0.10759700  1
  O  O6  1  0.99467000  0.74805000  0.60759700  1
  O  O7  1  0.25195000  0.00533000  0.89240300  1
  O  O8  1  0.35541000  0.34963800  0.50560200  1
  O  O9  1  0.65036200  0.64459000  0.99439800  1
  O  O10  1  0.64459000  0.65036200  0.49439800  1
  O  O11  1  0.34963800  0.35541000  0.00560200  1
  O  O12  1  0.62840300  0.37159700  0.75000000  1
  O  O13  1  0.37159700  0.62840300  0.25000000  1
loop_
_geom_bond_atom_site_label_1
_geom_bond_atom_site_label_2
_geom_bond_distance
_geom_bond_site_symmetry_2
K0 O11 2.766061 1_556
K0 O6 2.801324 1_455
K0 O7 2.825230 1_555
K0 O9 2.881466 1_455
K0 O1 2.968487 1_465
K0 O12 2.997269 1_455
K0 O12 3.174091 1_555
K1 O10 2.766061 1_555
K1 O7 2.801324 1_565
K1 O6 2.825230 1_555
K1 O8 2.881466 1_565
K1 O0 2.968487 1_465
K1 O12 2.997269 1_565
K1 O12 3.174091 1_555
K2 O9 2.766061 1_554
K2 O4 2.801324 1_655
K2 O5 2.825230 1_555
K2 O11 2.881466 1_655
K2 O3 2.968487 1_645
K2 O13 2.997269 1_655
K2 O13 3.174091 1_555
K3 O8 2.766061 1_555
K3 O5 2.801324 1_545
K3 O4 2.825230 1_555
K3 O10 2.881466 1_545
K3 O2 2.968487 1_645
K3 O13 2.997269 1_545
K3 O13 3.174091 1_555
Cu0 O6 1.846165 1_445
Cu0 O4 1.846165 1_555
Cu0 O0 1.856247 1_455
Cu0 O2 1.856247 1_545
Cu1 O5 1.846165 1_445
Cu1 O7 1.846165 1_554
Cu1 O3 1.856247 1_545
Cu1 O1 1.856247 1_454
O0 Te0 1.989685 1_655
O1 Te1 1.989685 1_556
O2 Te0 1.989685 1_555
O3 Te1 1.989685 1_565
O4 Te0 1.976302 1_555
O5 Te1 1.976302 1_565
O6 Te0 1.976302 1_655
O7 Te1 1.976302 1_556
O8 Te0 1.931873 1_555
O9 Te1 1.931873 1_566
O10 Te0 1.931873 1_655
O11 Te1 1.931873 1_555
