# generated using pymatgen
data_Mg2CrB2Ir5
_symmetry_space_group_name_H-M   'P 1'
_cell_length_a   19.03121600
_cell_length_b   19.03121600
_cell_length_c   5.81693800
_cell_angle_alpha   90.00000000
_cell_angle_beta   90.00000000
_cell_angle_gamma   90.00000000
_symmetry_Int_Tables_number   1
_chemical_formula_structural   Mg2CrB2Ir5
_chemical_formula_sum   'Mg32 Cr16 B32 Ir80'
_cell_volume   2106.82038464
_cell_formula_units_Z   16
loop_
 _symmetry_equiv_pos_site_id
 _symmetry_equiv_pos_as_xyz
  1  'x, y, z'
loop_
 _atom_site_type_symbol
 _atom_site_label
 _atom_site_symmetry_multiplicity
 _atom_site_fract_x
 _atom_site_fract_y
 _atom_site_fract_z
 _atom_site_occupancy
  Mg  Mg0_0  1  0.41232500  0.16232500  0.00000000  1
  Mg  Mg0_1  1  0.41232500  0.16232500  0.50000000  1
  Mg  Mg0_2  1  0.41232500  0.66232500  0.00000000  1
  Mg  Mg0_3  1  0.41232500  0.66232500  0.50000000  1
  Mg  Mg0_4  1  0.91232500  0.16232500  0.00000000  1
  Mg  Mg0_5  1  0.91232500  0.16232500  0.50000000  1
  Mg  Mg0_6  1  0.91232500  0.66232500  0.00000000  1
  Mg  Mg0_7  1  0.91232500  0.66232500  0.50000000  1
  Mg  Mg1_0  1  0.08767500  0.33767500  0.00000000  1
  Mg  Mg1_1  1  0.08767500  0.33767500  0.50000000  1
  Mg  Mg1_2  1  0.08767500  0.83767500  0.00000000  1
  Mg  Mg1_3  1  0.08767500  0.83767500  0.50000000  1
  Mg  Mg1_4  1  0.58767500  0.33767500  0.00000000  1
  Mg  Mg1_5  1  0.58767500  0.33767500  0.50000000  1
  Mg  Mg1_6  1  0.58767500  0.83767500  0.00000000  1
  Mg  Mg1_7  1  0.58767500  0.83767500  0.50000000  1
  Mg  Mg2_0  1  0.16232500  0.08767500  0.00000000  1
  Mg  Mg2_1  1  0.16232500  0.08767500  0.50000000  1
  Mg  Mg2_2  1  0.16232500  0.58767500  0.00000000  1
  Mg  Mg2_3  1  0.16232500  0.58767500  0.50000000  1
  Mg  Mg2_4  1  0.66232500  0.08767500  0.00000000  1
  Mg  Mg2_5  1  0.66232500  0.08767500  0.50000000  1
  Mg  Mg2_6  1  0.66232500  0.58767500  0.00000000  1
  Mg  Mg2_7  1  0.66232500  0.58767500  0.50000000  1
  Mg  Mg3_0  1  0.33767500  0.41232500  0.00000000  1
  Mg  Mg3_1  1  0.33767500  0.41232500  0.50000000  1
  Mg  Mg3_2  1  0.33767500  0.91232500  0.00000000  1
  Mg  Mg3_3  1  0.33767500  0.91232500  0.50000000  1
  Mg  Mg3_4  1  0.83767500  0.41232500  0.00000000  1
  Mg  Mg3_5  1  0.83767500  0.41232500  0.50000000  1
  Mg  Mg3_6  1  0.83767500  0.91232500  0.00000000  1
  Mg  Mg3_7  1  0.83767500  0.91232500  0.50000000  1
  Cr  Cr0_0  1  0.25000000  0.25000000  0.00000000  1
  Cr  Cr0_1  1  0.25000000  0.25000000  0.50000000  1
  Cr  Cr0_2  1  0.25000000  0.75000000  0.00000000  1
  Cr  Cr0_3  1  0.25000000  0.75000000  0.50000000  1
  Cr  Cr0_4  1  0.75000000  0.25000000  0.00000000  1
  Cr  Cr0_5  1  0.75000000  0.25000000  0.50000000  1
  Cr  Cr0_6  1  0.75000000  0.75000000  0.00000000  1
  Cr  Cr0_7  1  0.75000000  0.75000000  0.50000000  1
  Cr  Cr1_0  1  0.00000000  0.00000000  0.00000000  1
  Cr  Cr1_1  1  0.00000000  0.00000000  0.50000000  1
  Cr  Cr1_2  1  0.00000000  0.50000000  0.00000000  1
  Cr  Cr1_3  1  0.00000000  0.50000000  0.50000000  1
  Cr  Cr1_4  1  0.50000000  0.00000000  0.00000000  1
  Cr  Cr1_5  1  0.50000000  0.00000000  0.50000000  1
  Cr  Cr1_6  1  0.50000000  0.50000000  0.00000000  1
  Cr  Cr1_7  1  0.50000000  0.50000000  0.50000000  1
  B  B0_0  1  0.31260250  0.06260250  0.00000000  1
  B  B0_1  1  0.31260250  0.06260250  0.50000000  1
  B  B0_2  1  0.31260250  0.56260250  0.00000000  1
  B  B0_3  1  0.31260250  0.56260250  0.50000000  1
  B  B0_4  1  0.81260250  0.06260250  0.00000000  1
  B  B0_5  1  0.81260250  0.06260250  0.50000000  1
  B  B0_6  1  0.81260250  0.56260250  0.00000000  1
  B  B0_7  1  0.81260250  0.56260250  0.50000000  1
  B  B1_0  1  0.18739750  0.43739750  0.00000000  1
  B  B1_1  1  0.18739750  0.43739750  0.50000000  1
  B  B1_2  1  0.18739750  0.93739750  0.00000000  1
  B  B1_3  1  0.18739750  0.93739750  0.50000000  1
  B  B1_4  1  0.68739750  0.43739750  0.00000000  1
  B  B1_5  1  0.68739750  0.43739750  0.50000000  1
  B  B1_6  1  0.68739750  0.93739750  0.00000000  1
  B  B1_7  1  0.68739750  0.93739750  0.50000000  1
  B  B2_0  1  0.06260250  0.18739750  0.00000000  1
  B  B2_1  1  0.06260250  0.18739750  0.50000000  1
  B  B2_2  1  0.06260250  0.68739750  0.00000000  1
  B  B2_3  1  0.06260250  0.68739750  0.50000000  1
  B  B2_4  1  0.56260250  0.18739750  0.00000000  1
  B  B2_5  1  0.56260250  0.18739750  0.50000000  1
  B  B2_6  1  0.56260250  0.68739750  0.00000000  1
  B  B2_7  1  0.56260250  0.68739750  0.50000000  1
  B  B3_0  1  0.43739750  0.31260250  0.00000000  1
  B  B3_1  1  0.43739750  0.31260250  0.50000000  1
  B  B3_2  1  0.43739750  0.81260250  0.00000000  1
  B  B3_3  1  0.43739750  0.81260250  0.50000000  1
  B  B3_4  1  0.93739750  0.31260250  0.00000000  1
  B  B3_5  1  0.93739750  0.31260250  0.50000000  1
  B  B3_6  1  0.93739750  0.81260250  0.00000000  1
  B  B3_7  1  0.93739750  0.81260250  0.50000000  1
  Ir  Ir0_0  1  0.25000000  0.00000000  0.25000000  1
  Ir  Ir0_1  1  0.25000000  0.00000000  0.75000000  1
  Ir  Ir0_2  1  0.25000000  0.50000000  0.25000000  1
  Ir  Ir0_3  1  0.25000000  0.50000000  0.75000000  1
  Ir  Ir0_4  1  0.75000000  0.00000000  0.25000000  1
  Ir  Ir0_5  1  0.75000000  0.00000000  0.75000000  1
  Ir  Ir0_6  1  0.75000000  0.50000000  0.25000000  1
  Ir  Ir0_7  1  0.75000000  0.50000000  0.75000000  1
  Ir  Ir1_0  1  0.00000000  0.25000000  0.25000000  1
  Ir  Ir1_1  1  0.00000000  0.25000000  0.75000000  1
  Ir  Ir1_2  1  0.00000000  0.75000000  0.25000000  1
  Ir  Ir1_3  1  0.00000000  0.75000000  0.75000000  1
  Ir  Ir1_4  1  0.50000000  0.25000000  0.25000000  1
  Ir  Ir1_5  1  0.50000000  0.25000000  0.75000000  1
  Ir  Ir1_6  1  0.50000000  0.75000000  0.25000000  1
  Ir  Ir1_7  1  0.50000000  0.75000000  0.75000000  1
  Ir  Ir2_0  1  0.35664000  0.28646200  0.25000000  1
  Ir  Ir2_1  1  0.35664000  0.28646200  0.75000000  1
  Ir  Ir2_2  1  0.35664000  0.78646200  0.25000000  1
  Ir  Ir2_3  1  0.35664000  0.78646200  0.75000000  1
  Ir  Ir2_4  1  0.85664000  0.28646200  0.25000000  1
  Ir  Ir2_5  1  0.85664000  0.28646200  0.75000000  1
  Ir  Ir2_6  1  0.85664000  0.78646200  0.25000000  1
  Ir  Ir2_7  1  0.85664000  0.78646200  0.75000000  1
  Ir  Ir3_0  1  0.14336000  0.21353800  0.25000000  1
  Ir  Ir3_1  1  0.14336000  0.21353800  0.75000000  1
  Ir  Ir3_2  1  0.14336000  0.71353800  0.25000000  1
  Ir  Ir3_3  1  0.14336000  0.71353800  0.75000000  1
  Ir  Ir3_4  1  0.64336000  0.21353800  0.25000000  1
  Ir  Ir3_5  1  0.64336000  0.21353800  0.75000000  1
  Ir  Ir3_6  1  0.64336000  0.71353800  0.25000000  1
  Ir  Ir3_7  1  0.64336000  0.71353800  0.75000000  1
  Ir  Ir4_0  1  0.10664000  0.46353800  0.25000000  1
  Ir  Ir4_1  1  0.10664000  0.46353800  0.75000000  1
  Ir  Ir4_2  1  0.10664000  0.96353800  0.25000000  1
  Ir  Ir4_3  1  0.10664000  0.96353800  0.75000000  1
  Ir  Ir4_4  1  0.60664000  0.46353800  0.25000000  1
  Ir  Ir4_5  1  0.60664000  0.46353800  0.75000000  1
  Ir  Ir4_6  1  0.60664000  0.96353800  0.25000000  1
  Ir  Ir4_7  1  0.60664000  0.96353800  0.75000000  1
  Ir  Ir5_0  1  0.39336000  0.03646200  0.25000000  1
  Ir  Ir5_1  1  0.39336000  0.03646200  0.75000000  1
  Ir  Ir5_2  1  0.39336000  0.53646200  0.25000000  1
  Ir  Ir5_3  1  0.39336000  0.53646200  0.75000000  1
  Ir  Ir5_4  1  0.89336000  0.03646200  0.25000000  1
  Ir  Ir5_5  1  0.89336000  0.03646200  0.75000000  1
  Ir  Ir5_6  1  0.89336000  0.53646200  0.25000000  1
  Ir  Ir5_7  1  0.89336000  0.53646200  0.75000000  1
  Ir  Ir6_0  1  0.21353800  0.35664000  0.25000000  1
  Ir  Ir6_1  1  0.21353800  0.35664000  0.75000000  1
  Ir  Ir6_2  1  0.21353800  0.85664000  0.25000000  1
  Ir  Ir6_3  1  0.21353800  0.85664000  0.75000000  1
  Ir  Ir6_4  1  0.71353800  0.35664000  0.25000000  1
  Ir  Ir6_5  1  0.71353800  0.35664000  0.75000000  1
  Ir  Ir6_6  1  0.71353800  0.85664000  0.25000000  1
  Ir  Ir6_7  1  0.71353800  0.85664000  0.75000000  1
  Ir  Ir7_0  1  0.28646200  0.14336000  0.25000000  1
  Ir  Ir7_1  1  0.28646200  0.14336000  0.75000000  1
  Ir  Ir7_2  1  0.28646200  0.64336000  0.25000000  1
  Ir  Ir7_3  1  0.28646200  0.64336000  0.75000000  1
  Ir  Ir7_4  1  0.78646200  0.14336000  0.25000000  1
  Ir  Ir7_5  1  0.78646200  0.14336000  0.75000000  1
  Ir  Ir7_6  1  0.78646200  0.64336000  0.25000000  1
  Ir  Ir7_7  1  0.78646200  0.64336000  0.75000000  1
  Ir  Ir8_0  1  0.03646200  0.10664000  0.25000000  1
  Ir  Ir8_1  1  0.03646200  0.10664000  0.75000000  1
  Ir  Ir8_2  1  0.03646200  0.60664000  0.25000000  1
  Ir  Ir8_3  1  0.03646200  0.60664000  0.75000000  1
  Ir  Ir8_4  1  0.53646200  0.10664000  0.25000000  1
  Ir  Ir8_5  1  0.53646200  0.10664000  0.75000000  1
  Ir  Ir8_6  1  0.53646200  0.60664000  0.25000000  1
  Ir  Ir8_7  1  0.53646200  0.60664000  0.75000000  1
  Ir  Ir9_0  1  0.46353800  0.39336000  0.25000000  1
  Ir  Ir9_1  1  0.46353800  0.39336000  0.75000000  1
  Ir  Ir9_2  1  0.46353800  0.89336000  0.25000000  1
  Ir  Ir9_3  1  0.46353800  0.89336000  0.75000000  1
  Ir  Ir9_4  1  0.96353800  0.39336000  0.25000000  1
  Ir  Ir9_5  1  0.96353800  0.39336000  0.75000000  1
  Ir  Ir9_6  1  0.96353800  0.89336000  0.25000000  1
  Ir  Ir9_7  1  0.96353800  0.89336000  0.75000000  1
loop_
_geom_bond_atom_site_label_1
_geom_bond_atom_site_label_2
_geom_bond_distance
_geom_bond_site_symmetry_2
Mg0_0 Mg0_1 2.908469 1_555
Mg0_0 Mg0_1 2.908469 1_554
Mg0_2 Mg0_3 2.908469 1_554
Mg0_2 Mg0_3 2.908469 1_555
Mg0_4 Mg0_5 2.908469 1_555
Mg0_4 Mg0_5 2.908469 1_554
Mg0_6 Mg0_7 2.908469 1_554
Mg0_6 Mg0_7 2.908469 1_555
Mg1_0 Mg1_1 2.908469 1_554
Mg1_0 Mg1_1 2.908469 1_555
Mg1_2 Mg1_3 2.908469 1_555
Mg1_2 Mg1_3 2.908469 1_554
Mg1_4 Mg1_5 2.908469 1_554
Mg1_4 Mg1_5 2.908469 1_555
Mg1_6 Mg1_7 2.908469 1_554
Mg1_6 Mg1_7 2.908469 1_555
Mg2_0 Mg2_1 2.908469 1_555
Mg2_0 Mg2_1 2.908469 1_554
Mg2_2 Mg2_3 2.908469 1_554
Mg2_2 Mg2_3 2.908469 1_555
Mg2_4 Mg2_5 2.908469 1_554
Mg2_4 Mg2_5 2.908469 1_555
Mg2_6 Mg2_7 2.908469 1_555
Mg2_6 Mg2_7 2.908469 1_554
Mg3_0 Mg3_1 2.908469 1_554
Mg3_0 Mg3_1 2.908469 1_555
Mg3_2 Mg3_3 2.908469 1_555
Mg3_2 Mg3_3 2.908469 1_554
Mg3_4 Mg3_5 2.908469 1_555
Mg3_4 Mg3_5 2.908469 1_554
Mg3_6 Mg3_7 2.908469 1_554
Mg3_6 Mg3_7 2.908469 1_555
Cr0_0 Ir7_1 2.591359 1_554
Cr0_0 Ir7_0 2.591359 1_555
Cr0_0 Ir2_1 2.591359 1_554
Cr0_0 Ir2_0 2.591359 1_555
Cr0_0 Ir3_1 2.591359 1_554
Cr0_0 Ir3_0 2.591359 1_555
Cr0_0 Ir6_1 2.591359 1_554
Cr0_0 Ir6_0 2.591359 1_555
Cr0_1 Ir7_1 2.591359 1_555
Cr0_1 Ir7_0 2.591359 1_555
Cr0_1 Ir2_0 2.591359 1_555
Cr0_1 Ir2_1 2.591359 1_555
Cr0_1 Ir3_1 2.591359 1_555
Cr0_1 Ir3_0 2.591359 1_555
Cr0_1 Ir6_1 2.591359 1_555
Cr0_1 Ir6_0 2.591359 1_555
Cr0_2 Ir2_3 2.591359 1_554
Cr0_2 Ir2_2 2.591359 1_555
Cr0_2 Ir7_3 2.591359 1_554
Cr0_2 Ir7_2 2.591359 1_555
Cr0_2 Ir3_3 2.591359 1_554
Cr0_2 Ir3_2 2.591359 1_555
Cr0_2 Ir6_3 2.591359 1_554
Cr0_2 Ir6_2 2.591359 1_555
Cr0_3 Ir2_2 2.591359 1_555
Cr0_3 Ir2_3 2.591359 1_555
Cr0_3 Ir7_3 2.591359 1_555
Cr0_3 Ir7_2 2.591359 1_555
Cr0_3 Ir3_2 2.591359 1_555
Cr0_3 Ir3_3 2.591359 1_555
Cr0_3 Ir6_3 2.591359 1_555
Cr0_3 Ir6_2 2.591359 1_555
Cr0_4 Ir7_5 2.591359 1_554
Cr0_4 Ir7_4 2.591359 1_555
Cr0_4 Ir2_5 2.591359 1_554
Cr0_4 Ir2_4 2.591359 1_555
Cr0_4 Ir6_5 2.591359 1_554
Cr0_4 Ir6_4 2.591359 1_555
Cr0_4 Ir3_4 2.591359 1_555
Cr0_4 Ir3_5 2.591359 1_554
Cr0_5 Ir7_5 2.591359 1_555
Cr0_5 Ir7_4 2.591359 1_555
Cr0_5 Ir2_5 2.591359 1_555
Cr0_5 Ir2_4 2.591359 1_555
Cr0_5 Ir6_4 2.591359 1_555
Cr0_5 Ir6_5 2.591359 1_555
Cr0_5 Ir3_5 2.591359 1_555
Cr0_5 Ir3_4 2.591359 1_555
Cr0_6 Ir7_6 2.591359 1_555
Cr0_6 Ir7_7 2.591359 1_554
Cr0_6 Ir2_7 2.591359 1_554
Cr0_6 Ir2_6 2.591359 1_555
Cr0_6 Ir6_7 2.591359 1_554
Cr0_6 Ir3_6 2.591359 1_555
Cr0_6 Ir3_7 2.591359 1_554
Cr0_6 Ir6_6 2.591359 1_555
Cr0_7 Ir7_6 2.591359 1_555
Cr0_7 Ir2_7 2.591359 1_555
Cr0_7 Ir7_7 2.591359 1_555
Cr0_7 Ir2_6 2.591359 1_555
Cr0_7 Ir6_7 2.591359 1_555
Cr0_7 Ir3_6 2.591359 1_555
Cr0_7 Ir3_7 2.591359 1_555
Cr0_7 Ir6_6 2.591359 1_555
Cr1_0 Ir9_7 2.591359 1_444
Cr1_0 Ir5_4 2.591359 1_455
Cr1_0 Ir5_5 2.591359 1_454
Cr1_0 Ir9_6 2.591359 1_445
Cr1_0 Ir8_1 2.591359 1_554
Cr1_0 Ir4_3 2.591359 1_544
Cr1_0 Ir4_2 2.591359 1_545
Cr1_0 Ir8_0 2.591359 1_555
Cr1_1 Ir5_5 2.591359 1_455
Cr1_1 Ir5_4 2.591359 1_455
Cr1_1 Ir9_6 2.591359 1_445
Cr1_1 Ir9_7 2.591359 1_445
Cr1_1 Ir8_1 2.591359 1_555
Cr1_1 Ir4_3 2.591359 1_545
Cr1_1 Ir4_2 2.591359 1_545
Cr1_1 Ir8_0 2.591359 1_555
Cr1_2 Ir9_4 2.591359 1_455
Cr1_2 Ir9_5 2.591359 1_454
Cr1_2 Ir5_7 2.591359 1_454
Cr1_2 Ir5_6 2.591359 1_455
Cr1_2 Ir4_0 2.591359 1_555
Cr1_2 Ir4_1 2.591359 1_554
Cr1_2 Ir8_3 2.591359 1_554
Cr1_2 Ir8_2 2.591359 1_555
Cr1_3 Ir9_4 2.591359 1_455
Cr1_3 Ir9_5 2.591359 1_455
Cr1_3 Ir5_6 2.591359 1_455
Cr1_3 Ir5_7 2.591359 1_455
Cr1_3 Ir4_0 2.591359 1_555
Cr1_3 Ir4_1 2.591359 1_555
Cr1_3 Ir8_2 2.591359 1_555
Cr1_3 Ir8_3 2.591359 1_555
Cr1_4 Ir5_0 2.591359 1_555
Cr1_4 Ir5_1 2.591359 1_554
Cr1_4 Ir9_3 2.591359 1_544
Cr1_4 Ir9_2 2.591359 1_545
Cr1_4 Ir8_5 2.591359 1_554
Cr1_4 Ir8_4 2.591359 1_555
Cr1_4 Ir4_6 2.591359 1_545
Cr1_4 Ir4_7 2.591359 1_544
Cr1_5 Ir5_0 2.591359 1_555
Cr1_5 Ir5_1 2.591359 1_555
Cr1_5 Ir9_3 2.591359 1_545
Cr1_5 Ir9_2 2.591359 1_545
Cr1_5 Ir8_5 2.591359 1_555
Cr1_5 Ir8_4 2.591359 1_555
Cr1_5 Ir4_6 2.591359 1_545
Cr1_5 Ir4_7 2.591359 1_545
Cr1_6 Ir5_3 2.591359 1_554
Cr1_6 Ir5_2 2.591359 1_555
Cr1_6 Ir9_1 2.591359 1_554
Cr1_6 Ir9_0 2.591359 1_555
Cr1_6 Ir8_7 2.591359 1_554
Cr1_6 Ir8_6 2.591359 1_555
Cr1_6 Ir4_4 2.591359 1_555
Cr1_6 Ir4_5 2.591359 1_554
Cr1_7 Ir9_1 2.591359 1_555
Cr1_7 Ir5_3 2.591359 1_555
Cr1_7 Ir5_2 2.591359 1_555
Cr1_7 Ir9_0 2.591359 1_555
Cr1_7 Ir8_6 2.591359 1_555
Cr1_7 Ir4_4 2.591359 1_555
Cr1_7 Ir8_7 2.591359 1_555
Cr1_7 Ir4_5 2.591359 1_555
B0_0 Ir5_0 2.173567 1_555
B0_0 Ir5_1 2.173567 1_554
B0_0 Ir7_0 2.173567 1_555
B0_0 Ir7_1 2.173567 1_554
B0_0 Ir0_1 2.225685 1_554
B0_0 Ir0_0 2.225685 1_555
B0_0 Mg0_0 2.683952 1_555
B0_0 Mg3_2 2.899495 1_545
B0_0 Mg2_0 2.899495 1_555
B0_1 Ir5_1 2.173567 1_555
B0_1 Ir5_0 2.173567 1_555
B0_1 Ir7_0 2.173567 1_555
B0_1 Ir7_1 2.173567 1_555
B0_1 Ir0_0 2.225685 1_555
B0_1 Ir0_1 2.225685 1_555
B0_1 Mg0_1 2.683952 1_555
B0_1 Mg3_3 2.899495 1_545
B0_1 Mg2_1 2.899495 1_555
B0_2 Ir5_3 2.173567 1_554
B0_2 Ir5_2 2.173567 1_555
B0_2 Ir7_2 2.173567 1_555
B0_2 Ir7_3 2.173567 1_554
B0_2 Ir0_2 2.225685 1_555
B0_2 Ir0_3 2.225685 1_554
B0_2 Mg0_2 2.683952 1_555
B0_2 Mg3_0 2.899495 1_555
B0_2 Mg2_2 2.899495 1_555
B0_3 Ir5_3 2.173567 1_555
B0_3 Ir5_2 2.173567 1_555
B0_3 Ir7_2 2.173567 1_555
B0_3 Ir7_3 2.173567 1_555
B0_3 Ir0_2 2.225685 1_555
B0_3 Ir0_3 2.225685 1_555
B0_3 Mg0_3 2.683952 1_555
B0_3 Mg3_1 2.899495 1_555
B0_3 Mg2_3 2.899495 1_555
B0_4 Ir5_4 2.173567 1_555
B0_4 Ir5_5 2.173567 1_554
B0_4 Ir7_4 2.173567 1_555
B0_4 Ir7_5 2.173567 1_554
B0_4 Ir0_5 2.225685 1_554
B0_4 Ir0_4 2.225685 1_555
B0_4 Mg0_4 2.683952 1_555
B0_4 Mg3_6 2.899495 1_545
B0_4 Mg2_4 2.899495 1_555
B0_5 Ir5_5 2.173567 1_555
B0_5 Ir5_4 2.173567 1_555
B0_5 Ir7_4 2.173567 1_555
B0_5 Ir7_5 2.173567 1_555
B0_5 Ir0_5 2.225685 1_555
B0_5 Ir0_4 2.225685 1_555
B0_5 Mg0_5 2.683952 1_555
B0_5 Mg3_7 2.899495 1_545
B0_5 Mg2_5 2.899495 1_555
B0_6 Ir5_6 2.173567 1_555
B0_6 Ir5_7 2.173567 1_554
B0_6 Ir7_7 2.173567 1_554
B0_6 Ir7_6 2.173567 1_555
B0_6 Ir0_6 2.225685 1_555
B0_6 Ir0_7 2.225685 1_554
B0_6 Mg0_6 2.683952 1_555
B0_6 Mg3_4 2.899495 1_555
B0_6 Mg2_6 2.899495 1_555
B0_7 Ir5_6 2.173567 1_555
B0_7 Ir5_7 2.173567 1_555
B0_7 Ir7_7 2.173567 1_555
B0_7 Ir7_6 2.173567 1_555
B0_7 Ir0_6 2.225685 1_555
B0_7 Ir0_7 2.225685 1_555
B0_7 Mg0_7 2.683952 1_555
B0_7 Mg3_5 2.899495 1_555
B0_7 Mg2_7 2.899495 1_555
B1_0 Ir6_1 2.173567 1_554
B1_0 Ir6_0 2.173567 1_555
B1_0 Ir4_1 2.173567 1_554
B1_0 Ir4_0 2.173567 1_555
B1_0 Ir0_3 2.225685 1_554
B1_0 Ir0_2 2.225685 1_555
B1_0 Mg1_0 2.683952 1_555
B1_0 Mg3_0 2.899495 1_555
B1_0 Mg2_2 2.899495 1_555
B1_1 Ir6_1 2.173567 1_555
B1_1 Ir6_0 2.173567 1_555
B1_1 Ir4_1 2.173567 1_555
B1_1 Ir4_0 2.173567 1_555
B1_1 Ir0_3 2.225685 1_555
B1_1 Ir0_2 2.225685 1_555
B1_1 Mg1_1 2.683952 1_555
B1_1 Mg3_1 2.899495 1_555
B1_1 Mg2_3 2.899495 1_555
B1_2 Ir6_3 2.173567 1_554
B1_2 Ir6_2 2.173567 1_555
B1_2 Ir4_2 2.173567 1_555
B1_2 Ir4_3 2.173567 1_554
B1_2 Ir0_0 2.225685 1_565
B1_2 Ir0_1 2.225685 1_564
B1_2 Mg1_2 2.683952 1_555
B1_2 Mg3_2 2.899495 1_555
B1_2 Mg2_0 2.899495 1_565
B1_3 Ir6_2 2.173567 1_555
B1_3 Ir6_3 2.173567 1_555
B1_3 Ir4_2 2.173567 1_555
B1_3 Ir4_3 2.173567 1_555
B1_3 Ir0_1 2.225685 1_565
B1_3 Ir0_0 2.225685 1_565
B1_3 Mg1_3 2.683952 1_555
B1_3 Mg3_3 2.899495 1_555
B1_3 Mg2_1 2.899495 1_565
B1_4 Ir6_5 2.173567 1_554
B1_4 Ir6_4 2.173567 1_555
B1_4 Ir4_4 2.173567 1_555
B1_4 Ir4_5 2.173567 1_554
B1_4 Ir0_7 2.225685 1_554
B1_4 Ir0_6 2.225685 1_555
B1_4 Mg1_4 2.683952 1_555
B1_4 Mg3_4 2.899495 1_555
B1_4 Mg2_6 2.899495 1_555
B1_5 Ir6_4 2.173567 1_555
B1_5 Ir6_5 2.173567 1_555
B1_5 Ir4_4 2.173567 1_555
B1_5 Ir4_5 2.173567 1_555
B1_5 Ir0_7 2.225685 1_555
B1_5 Ir0_6 2.225685 1_555
B1_5 Mg1_5 2.683952 1_555
B1_5 Mg3_5 2.899495 1_555
B1_5 Mg2_7 2.899495 1_555
B1_6 Ir6_7 2.173567 1_554
B1_6 Ir6_6 2.173567 1_555
B1_6 Ir4_6 2.173567 1_555
B1_6 Ir4_7 2.173567 1_554
B1_6 Ir0_4 2.225685 1_565
B1_6 Ir0_5 2.225685 1_564
B1_6 Mg1_6 2.683952 1_555
B1_6 Mg2_4 2.899495 1_565
B1_6 Mg3_6 2.899495 1_555
B1_7 Ir6_6 2.173567 1_555
B1_7 Ir6_7 2.173567 1_555
B1_7 Ir4_7 2.173567 1_555
B1_7 Ir4_6 2.173567 1_555
B1_7 Ir0_5 2.225685 1_565
B1_7 Ir0_4 2.225685 1_565
B1_7 Mg1_7 2.683952 1_555
B1_7 Mg3_7 2.899495 1_555
B1_7 Mg2_5 2.899495 1_565
B2_0 Ir8_0 2.173567 1_555
B2_0 Ir8_1 2.173567 1_554
B2_0 Ir3_1 2.173567 1_554
B2_0 Ir3_0 2.173567 1_555
B2_0 Ir1_1 2.225685 1_554
B2_0 Ir1_0 2.225685 1_555
B2_0 Mg2_0 2.683952 1_555
B2_0 Mg0_4 2.899495 1_455
B2_0 Mg1_0 2.899495 1_555
B2_1 Ir8_1 2.173567 1_555
B2_1 Ir8_0 2.173567 1_555
B2_1 Ir3_1 2.173567 1_555
B2_1 Ir3_0 2.173567 1_555
B2_1 Ir1_1 2.225685 1_555
B2_1 Ir1_0 2.225685 1_555
B2_1 Mg2_1 2.683952 1_555
B2_1 Mg0_5 2.899495 1_455
B2_1 Mg1_1 2.899495 1_555
B2_2 Ir8_2 2.173567 1_555
B2_2 Ir8_3 2.173567 1_554
B2_2 Ir3_3 2.173567 1_554
B2_2 Ir3_2 2.173567 1_555
B2_2 Ir1_2 2.225685 1_555
B2_2 Ir1_3 2.225685 1_554
B2_2 Mg2_2 2.683952 1_555
B2_2 Mg0_6 2.899495 1_455
B2_2 Mg1_2 2.899495 1_555
B2_3 Ir8_2 2.173567 1_555
B2_3 Ir8_3 2.173567 1_555
B2_3 Ir3_3 2.173567 1_555
B2_3 Ir3_2 2.173567 1_555
B2_3 Ir1_3 2.225685 1_555
B2_3 Ir1_2 2.225685 1_555
B2_3 Mg2_3 2.683952 1_555
B2_3 Mg0_7 2.899495 1_455
B2_3 Mg1_3 2.899495 1_555
B2_4 Ir8_5 2.173567 1_554
B2_4 Ir8_4 2.173567 1_555
B2_4 Ir3_5 2.173567 1_554
B2_4 Ir3_4 2.173567 1_555
B2_4 Ir1_4 2.225685 1_555
B2_4 Ir1_5 2.225685 1_554
B2_4 Mg2_4 2.683952 1_555
B2_4 Mg0_0 2.899495 1_555
B2_4 Mg1_4 2.899495 1_555
B2_5 Ir8_4 2.173567 1_555
B2_5 Ir8_5 2.173567 1_555
B2_5 Ir3_5 2.173567 1_555
B2_5 Ir3_4 2.173567 1_555
B2_5 Ir1_4 2.225685 1_555
B2_5 Ir1_5 2.225685 1_555
B2_5 Mg2_5 2.683952 1_555
B2_5 Mg0_1 2.899495 1_555
B2_5 Mg1_5 2.899495 1_555
B2_6 Ir8_7 2.173567 1_554
B2_6 Ir8_6 2.173567 1_555
B2_6 Ir3_6 2.173567 1_555
B2_6 Ir3_7 2.173567 1_554
B2_6 Ir1_7 2.225685 1_554
B2_6 Ir1_6 2.225685 1_555
B2_6 Mg2_6 2.683952 1_555
B2_6 Mg0_2 2.899495 1_555
B2_6 Mg1_6 2.899495 1_555
B2_7 Ir8_6 2.173567 1_555
B2_7 Ir8_7 2.173567 1_555
B2_7 Ir3_6 2.173567 1_555
B2_7 Ir3_7 2.173567 1_555
B2_7 Ir1_6 2.225685 1_555
B2_7 Ir1_7 2.225685 1_555
B2_7 Mg2_7 2.683952 1_555
B2_7 Mg0_3 2.899495 1_555
B2_7 Mg1_7 2.899495 1_555
B3_0 Ir9_1 2.173567 1_554
B3_0 Ir9_0 2.173567 1_555
B3_0 Ir2_0 2.173567 1_555
B3_0 Ir2_1 2.173567 1_554
B3_0 Ir1_4 2.225685 1_555
B3_0 Ir1_5 2.225685 1_554
B3_0 Mg3_0 2.683952 1_555
B3_0 Mg1_4 2.899495 1_555
B3_0 Mg0_0 2.899495 1_555
B3_1 Ir2_1 2.173567 1_555
B3_1 Ir9_0 2.173567 1_555
B3_1 Ir2_0 2.173567 1_555
B3_1 Ir9_1 2.173567 1_555
B3_1 Ir1_4 2.225685 1_555
B3_1 Ir1_5 2.225685 1_555
B3_1 Mg3_1 2.683952 1_555
B3_1 Mg1_5 2.899495 1_555
B3_1 Mg0_1 2.899495 1_555
B3_2 Ir9_2 2.173567 1_555
B3_2 Ir9_3 2.173567 1_554
B3_2 Ir2_2 2.173567 1_555
B3_2 Ir2_3 2.173567 1_554
B3_2 Ir1_7 2.225685 1_554
B3_2 Ir1_6 2.225685 1_555
B3_2 Mg3_2 2.683952 1_555
B3_2 Mg0_2 2.899495 1_555
B3_2 Mg1_6 2.899495 1_555
B3_3 Ir9_2 2.173567 1_555
B3_3 Ir9_3 2.173567 1_555
B3_3 Ir2_2 2.173567 1_555
B3_3 Ir2_3 2.173567 1_555
B3_3 Ir1_7 2.225685 1_555
B3_3 Ir1_6 2.225685 1_555
B3_3 Mg3_3 2.683952 1_555
B3_3 Mg1_7 2.899495 1_555
B3_3 Mg0_3 2.899495 1_555
B3_4 Ir2_5 2.173567 1_554
B3_4 Ir2_4 2.173567 1_555
B3_4 Ir9_5 2.173567 1_554
B3_4 Ir9_4 2.173567 1_555
B3_4 Ir1_0 2.225685 1_655
B3_4 Ir1_1 2.225685 1_654
B3_4 Mg3_4 2.683952 1_555
B3_4 Mg1_0 2.899495 1_655
B3_4 Mg0_4 2.899495 1_555
B3_5 Ir2_4 2.173567 1_555
B3_5 Ir2_5 2.173567 1_555
B3_5 Ir9_4 2.173567 1_555
B3_5 Ir9_5 2.173567 1_555
B3_5 Ir1_0 2.225685 1_655
B3_5 Ir1_1 2.225685 1_655
B3_5 Mg3_5 2.683952 1_555
B3_5 Mg1_1 2.899495 1_655
B3_5 Mg0_5 2.899495 1_555
B3_6 Ir2_7 2.173567 1_554
B3_6 Ir2_6 2.173567 1_555
B3_6 Ir9_6 2.173567 1_555
B3_6 Ir9_7 2.173567 1_554
B3_6 Ir1_3 2.225685 1_654
B3_6 Ir1_2 2.225685 1_655
B3_6 Mg3_6 2.683952 1_555
B3_6 Mg0_6 2.899495 1_555
B3_6 Mg1_2 2.899495 1_655
B3_7 Ir2_6 2.173567 1_555
B3_7 Ir2_7 2.173567 1_555
B3_7 Ir9_6 2.173567 1_555
B3_7 Ir9_7 2.173567 1_555
B3_7 Ir1_3 2.225685 1_655
B3_7 Ir1_2 2.225685 1_655
B3_7 Mg3_7 2.683952 1_555
B3_7 Mg1_3 2.899495 1_655
B3_7 Mg0_7 2.899495 1_555
Ir0_0 Mg2_0 2.771822 1_555
Ir0_0 Mg3_3 2.771822 1_545
Ir0_0 Mg2_1 2.771822 1_555
Ir0_0 Mg3_2 2.771822 1_545
Ir0_1 Mg2_0 2.771822 1_556
Ir0_1 Mg3_3 2.771822 1_545
Ir0_1 Mg2_1 2.771822 1_555
Ir0_1 Mg3_2 2.771822 1_546
Ir0_2 Mg3_0 2.771822 1_555
Ir0_2 Mg3_1 2.771822 1_555
Ir0_2 Mg2_3 2.771822 1_555
Ir0_2 Mg2_2 2.771822 1_555
Ir0_3 Mg3_0 2.771822 1_556
Ir0_3 Mg3_1 2.771822 1_555
Ir0_3 Mg2_2 2.771822 1_556
Ir0_3 Mg2_3 2.771822 1_555
Ir0_4 Mg3_6 2.771822 1_545
Ir0_4 Mg3_7 2.771822 1_545
Ir0_4 Mg2_4 2.771822 1_555
Ir0_4 Mg2_5 2.771822 1_555
Ir0_5 Mg3_6 2.771822 1_546
Ir0_5 Mg3_7 2.771822 1_545
Ir0_5 Mg2_4 2.771822 1_556
Ir0_5 Mg2_5 2.771822 1_555
Ir0_6 Mg3_4 2.771822 1_555
Ir0_6 Mg3_5 2.771822 1_555
Ir0_6 Mg2_6 2.771822 1_555
Ir0_6 Mg2_7 2.771822 1_555
Ir0_7 Mg3_4 2.771822 1_556
Ir0_7 Mg3_5 2.771822 1_555
Ir0_7 Mg2_6 2.771822 1_556
Ir0_7 Mg2_7 2.771822 1_555
Ir1_0 Mg0_5 2.771822 1_455
Ir1_0 Mg0_4 2.771822 1_455
Ir1_0 Mg1_0 2.771822 1_555
Ir1_0 Mg1_1 2.771822 1_555
Ir1_1 Mg0_5 2.771822 1_455
Ir1_1 Mg0_4 2.771822 1_456
Ir1_1 Mg1_0 2.771822 1_556
Ir1_1 Mg1_1 2.771822 1_555
Ir1_2 Mg0_6 2.771822 1_455
Ir1_2 Mg0_7 2.771822 1_455
Ir1_2 Mg1_2 2.771822 1_555
Ir1_2 Mg1_3 2.771822 1_555
Ir1_3 Mg0_7 2.771822 1_455
Ir1_3 Mg0_6 2.771822 1_456
Ir1_3 Mg1_2 2.771822 1_556
Ir1_3 Mg1_3 2.771822 1_555
Ir1_4 Mg0_0 2.771822 1_555
Ir1_4 Mg0_1 2.771822 1_555
Ir1_4 Mg1_4 2.771822 1_555
Ir1_4 Mg1_5 2.771822 1_555
Ir1_5 Mg0_0 2.771822 1_556
Ir1_5 Mg0_1 2.771822 1_555
Ir1_5 Mg1_4 2.771822 1_556
Ir1_5 Mg1_5 2.771822 1_555
Ir1_6 Mg0_3 2.771822 1_555
Ir1_6 Mg0_2 2.771822 1_555
Ir1_6 Mg1_7 2.771822 1_555
Ir1_6 Mg1_6 2.771822 1_555
Ir1_7 Mg0_3 2.771822 1_555
Ir1_7 Mg0_2 2.771822 1_556
Ir1_7 Mg1_7 2.771822 1_555
Ir1_7 Mg1_6 2.771822 1_556
Ir2_0 Mg3_1 2.825359 1_555
Ir2_0 Mg3_0 2.825359 1_555
Ir2_0 Mg0_0 2.969710 1_555
Ir2_0 Mg0_1 2.969710 1_555
Ir2_1 Mg3_1 2.825359 1_555
Ir2_1 Mg3_0 2.825359 1_556
Ir2_1 Mg0_0 2.969710 1_556
Ir2_1 Mg0_1 2.969710 1_555
Ir2_2 Mg3_2 2.825359 1_555
Ir2_2 Mg3_3 2.825359 1_555
Ir2_2 Mg0_3 2.969710 1_555
Ir2_2 Mg0_2 2.969710 1_555
Ir2_3 Mg3_2 2.825359 1_556
Ir2_3 Mg3_3 2.825359 1_555
Ir2_3 Mg0_3 2.969710 1_555
Ir2_3 Mg0_2 2.969710 1_556
Ir2_4 Mg3_5 2.825359 1_555
Ir2_4 Mg3_4 2.825359 1_555
Ir2_4 Mg0_5 2.969710 1_555
Ir2_4 Mg0_4 2.969710 1_555
Ir2_5 Mg3_4 2.825359 1_556
Ir2_5 Mg3_5 2.825359 1_555
Ir2_5 Mg0_5 2.969710 1_555
Ir2_5 Mg0_4 2.969710 1_556
Ir2_6 Mg3_6 2.825359 1_555
Ir2_6 Mg3_7 2.825359 1_555
Ir2_6 Mg0_7 2.969710 1_555
Ir2_6 Mg0_6 2.969710 1_555
Ir2_7 Mg3_6 2.825359 1_556
Ir2_7 Mg3_7 2.825359 1_555
Ir2_7 Mg0_6 2.969710 1_556
Ir2_7 Mg0_7 2.969710 1_555
Ir3_0 Mg2_0 2.825359 1_555
Ir3_0 Mg2_1 2.825359 1_555
Ir3_0 Mg1_0 2.969710 1_555
Ir3_0 Mg1_1 2.969710 1_555
Ir3_1 Mg2_0 2.825359 1_556
Ir3_1 Mg2_1 2.825359 1_555
Ir3_1 Mg1_0 2.969710 1_556
Ir3_1 Mg1_1 2.969710 1_555
Ir3_2 Mg2_3 2.825359 1_555
Ir3_2 Mg2_2 2.825359 1_555
Ir3_2 Mg1_3 2.969710 1_555
Ir3_2 Mg1_2 2.969710 1_555
Ir3_3 Mg2_3 2.825359 1_555
Ir3_3 Mg2_2 2.825359 1_556
Ir3_3 Mg1_3 2.969710 1_555
Ir3_3 Mg1_2 2.969710 1_556
Ir3_4 Mg2_5 2.825359 1_555
Ir3_4 Mg2_4 2.825359 1_555
Ir3_4 Mg1_4 2.969710 1_555
Ir3_4 Mg1_5 2.969710 1_555
Ir3_5 Mg2_5 2.825359 1_555
Ir3_5 Mg2_4 2.825359 1_556
Ir3_5 Mg1_4 2.969710 1_556
Ir3_5 Mg1_5 2.969710 1_555
Ir3_6 Mg2_6 2.825359 1_555
Ir3_6 Mg2_7 2.825359 1_555
Ir3_6 Mg1_7 2.969710 1_555
Ir3_6 Mg1_6 2.969710 1_555
Ir3_7 Mg2_6 2.825359 1_556
Ir3_7 Mg2_7 2.825359 1_555
Ir3_7 Mg1_7 2.969710 1_555
Ir3_7 Mg1_6 2.969710 1_556
Ir4_0 Mg1_0 2.825359 1_555
Ir4_0 Mg1_1 2.825359 1_555
Ir4_0 Mg2_2 2.969710 1_555
Ir4_0 Mg2_3 2.969710 1_555
Ir4_1 Mg1_0 2.825359 1_556
Ir4_1 Mg1_1 2.825359 1_555
Ir4_1 Mg2_3 2.969710 1_555
Ir4_1 Mg2_2 2.969710 1_556
Ir4_2 Mg1_2 2.825359 1_555
Ir4_2 Mg1_3 2.825359 1_555
Ir4_2 Mg2_0 2.969710 1_565
Ir4_2 Mg2_1 2.969710 1_565
Ir4_3 Mg1_2 2.825359 1_556
Ir4_3 Mg1_3 2.825359 1_555
Ir4_3 Mg2_1 2.969710 1_565
Ir4_3 Mg2_0 2.969710 1_566
Ir4_4 Mg1_5 2.825359 1_555
Ir4_4 Mg1_4 2.825359 1_555
Ir4_4 Mg2_6 2.969710 1_555
Ir4_4 Mg2_7 2.969710 1_555
Ir4_5 Mg1_5 2.825359 1_555
Ir4_5 Mg1_4 2.825359 1_556
Ir4_5 Mg2_6 2.969710 1_556
Ir4_5 Mg2_7 2.969710 1_555
Ir4_6 Mg1_6 2.825359 1_555
Ir4_6 Mg1_7 2.825359 1_555
Ir4_6 Mg2_4 2.969710 1_565
Ir4_6 Mg2_5 2.969710 1_565
Ir4_7 Mg1_6 2.825359 1_556
Ir4_7 Mg1_7 2.825359 1_555
Ir4_7 Mg2_5 2.969710 1_565
Ir4_7 Mg2_4 2.969710 1_566
Ir5_0 Mg0_0 2.825359 1_555
Ir5_0 Mg0_1 2.825359 1_555
Ir5_0 Mg3_3 2.969710 1_545
Ir5_0 Mg3_2 2.969710 1_545
Ir5_1 Mg0_0 2.825359 1_556
Ir5_1 Mg0_1 2.825359 1_555
Ir5_1 Mg3_3 2.969710 1_545
Ir5_1 Mg3_2 2.969710 1_546
Ir5_2 Mg0_3 2.825359 1_555
Ir5_2 Mg0_2 2.825359 1_555
Ir5_2 Mg3_0 2.969710 1_555
Ir5_2 Mg3_1 2.969710 1_555
Ir5_3 Mg0_2 2.825359 1_556
Ir5_3 Mg0_3 2.825359 1_555
Ir5_3 Mg3_1 2.969710 1_555
Ir5_3 Mg3_0 2.969710 1_556
Ir5_4 Mg0_5 2.825359 1_555
Ir5_4 Mg0_4 2.825359 1_555
Ir5_4 Mg3_7 2.969710 1_545
Ir5_4 Mg3_6 2.969710 1_545
Ir5_5 Mg0_5 2.825359 1_555
Ir5_5 Mg0_4 2.825359 1_556
Ir5_5 Mg3_7 2.969710 1_545
Ir5_5 Mg3_6 2.969710 1_546
Ir5_6 Mg0_7 2.825359 1_555
Ir5_6 Mg0_6 2.825359 1_555
Ir5_6 Mg3_4 2.969710 1_555
Ir5_6 Mg3_5 2.969710 1_555
Ir5_7 Mg0_6 2.825359 1_556
Ir5_7 Mg0_7 2.825359 1_555
Ir5_7 Mg3_4 2.969710 1_556
Ir5_7 Mg3_5 2.969710 1_555
Ir6_0 Mg1_1 2.825359 1_555
Ir6_0 Mg1_0 2.825359 1_555
Ir6_0 Mg3_0 2.969710 1_555
Ir6_0 Mg3_1 2.969710 1_555
Ir6_1 Mg1_1 2.825359 1_555
Ir6_1 Mg1_0 2.825359 1_556
Ir6_1 Mg3_0 2.969710 1_556
Ir6_1 Mg3_1 2.969710 1_555
Ir6_2 Mg1_2 2.825359 1_555
Ir6_2 Mg1_3 2.825359 1_555
Ir6_2 Mg3_2 2.969710 1_555
Ir6_2 Mg3_3 2.969710 1_555
Ir6_3 Mg1_2 2.825359 1_556
Ir6_3 Mg1_3 2.825359 1_555
Ir6_3 Mg3_3 2.969710 1_555
Ir6_3 Mg3_2 2.969710 1_556
Ir6_4 Mg1_4 2.825359 1_555
Ir6_4 Mg1_5 2.825359 1_555
Ir6_4 Mg3_5 2.969710 1_555
Ir6_4 Mg3_4 2.969710 1_555
Ir6_5 Mg1_5 2.825359 1_555
Ir6_5 Mg1_4 2.825359 1_556
Ir6_5 Mg3_5 2.969710 1_555
Ir6_5 Mg3_4 2.969710 1_556
Ir6_6 Mg1_7 2.825359 1_555
Ir6_6 Mg1_6 2.825359 1_555
Ir6_6 Mg3_7 2.969710 1_555
Ir6_6 Mg3_6 2.969710 1_555
Ir6_7 Mg1_7 2.825359 1_555
Ir6_7 Mg1_6 2.825359 1_556
Ir6_7 Mg3_7 2.969710 1_555
Ir6_7 Mg3_6 2.969710 1_556
Ir7_0 Mg0_1 2.825359 1_555
Ir7_0 Mg0_0 2.825359 1_555
Ir7_0 Mg2_0 2.969710 1_555
Ir7_0 Mg2_1 2.969710 1_555
Ir7_1 Mg0_1 2.825359 1_555
Ir7_1 Mg0_0 2.825359 1_556
Ir7_1 Mg2_0 2.969710 1_556
Ir7_1 Mg2_1 2.969710 1_555
Ir7_2 Mg0_3 2.825359 1_555
Ir7_2 Mg0_2 2.825359 1_555
Ir7_2 Mg2_3 2.969710 1_555
Ir7_2 Mg2_2 2.969710 1_555
Ir7_3 Mg0_2 2.825359 1_556
Ir7_3 Mg0_3 2.825359 1_555
Ir7_3 Mg2_3 2.969710 1_555
Ir7_3 Mg2_2 2.969710 1_556
Ir7_4 Mg0_4 2.825359 1_555
Ir7_4 Mg0_5 2.825359 1_555
Ir7_4 Mg2_5 2.969710 1_555
Ir7_4 Mg2_4 2.969710 1_555
Ir7_5 Mg0_4 2.825359 1_556
Ir7_5 Mg0_5 2.825359 1_555
Ir7_5 Mg2_5 2.969710 1_555
Ir7_5 Mg2_4 2.969710 1_556
Ir7_6 Mg0_6 2.825359 1_555
Ir7_6 Mg0_7 2.825359 1_555
Ir7_6 Mg2_6 2.969710 1_555
Ir7_6 Mg2_7 2.969710 1_555
Ir7_7 Mg0_7 2.825359 1_555
Ir7_7 Mg0_6 2.825359 1_556
Ir7_7 Mg2_6 2.969710 1_556
Ir7_7 Mg2_7 2.969710 1_555
Ir8_0 Mg2_0 2.825359 1_555
Ir8_0 Mg2_1 2.825359 1_555
Ir8_0 Mg0_5 2.969710 1_455
Ir8_0 Mg0_4 2.969710 1_455
Ir8_1 Mg2_0 2.825359 1_556
Ir8_1 Mg2_1 2.825359 1_555
Ir8_1 Mg0_5 2.969710 1_455
Ir8_1 Mg0_4 2.969710 1_456
Ir8_2 Mg2_2 2.825359 1_555
Ir8_2 Mg2_3 2.825359 1_555
Ir8_2 Mg0_7 2.969710 1_455
Ir8_2 Mg0_6 2.969710 1_455
Ir8_3 Mg2_2 2.825359 1_556
Ir8_3 Mg2_3 2.825359 1_555
Ir8_3 Mg0_7 2.969710 1_455
Ir8_3 Mg0_6 2.969710 1_456
Ir8_4 Mg2_4 2.825359 1_555
Ir8_4 Mg2_5 2.825359 1_555
Ir8_4 Mg0_1 2.969710 1_555
Ir8_4 Mg0_0 2.969710 1_555
Ir8_5 Mg2_4 2.825359 1_556
Ir8_5 Mg2_5 2.825359 1_555
Ir8_5 Mg0_1 2.969710 1_555
Ir8_5 Mg0_0 2.969710 1_556
Ir8_6 Mg2_6 2.825359 1_555
Ir8_6 Mg2_7 2.825359 1_555
Ir8_6 Mg0_3 2.969710 1_555
Ir8_6 Mg0_2 2.969710 1_555
Ir8_7 Mg2_6 2.825359 1_556
Ir8_7 Mg2_7 2.825359 1_555
Ir8_7 Mg0_3 2.969710 1_555
Ir8_7 Mg0_2 2.969710 1_556
Ir9_0 Mg3_1 2.825359 1_555
Ir9_0 Mg3_0 2.825359 1_555
Ir9_0 Mg1_5 2.969710 1_555
Ir9_0 Mg1_4 2.969710 1_555
Ir9_1 Mg3_1 2.825359 1_555
Ir9_1 Mg3_0 2.825359 1_556
Ir9_1 Mg1_5 2.969710 1_555
Ir9_1 Mg1_4 2.969710 1_556
Ir9_2 Mg3_3 2.825359 1_555
Ir9_2 Mg3_2 2.825359 1_555
Ir9_2 Mg1_6 2.969710 1_555
Ir9_2 Mg1_7 2.969710 1_555
Ir9_3 Mg3_3 2.825359 1_555
Ir9_3 Mg3_2 2.825359 1_556
Ir9_3 Mg1_6 2.969710 1_556
Ir9_3 Mg1_7 2.969710 1_555
Ir9_4 Mg3_5 2.825359 1_555
Ir9_4 Mg3_4 2.825359 1_555
Ir9_4 Mg1_0 2.969710 1_655
Ir9_4 Mg1_1 2.969710 1_655
Ir9_5 Mg3_4 2.825359 1_556
Ir9_5 Mg3_5 2.825359 1_555
Ir9_5 Mg1_0 2.969710 1_656
Ir9_5 Mg1_1 2.969710 1_655
Ir9_6 Mg3_6 2.825359 1_555
Ir9_6 Mg3_7 2.825359 1_555
Ir9_6 Mg1_3 2.969710 1_655
Ir9_6 Mg1_2 2.969710 1_655
Ir9_7 Mg3_6 2.825359 1_556
Ir9_7 Mg3_7 2.825359 1_555
Ir9_7 Mg1_2 2.969710 1_656
Ir9_7 Mg1_3 2.969710 1_655
