# generated using pymatgen
data_Ba2MgNb6(NO7)2
_symmetry_space_group_name_H-M   'P 1'
_cell_length_a   9.27368937
_cell_length_b   10.90484996
_cell_length_c   3.96856148
_cell_angle_alpha   79.41574678
_cell_angle_beta   90.01147866
_cell_angle_gamma   89.15679120
_symmetry_Int_Tables_number   1
_chemical_formula_structural   Ba2MgNb6(NO7)2
_chemical_formula_sum   'Ba2 Mg1 Nb6 N2 O14'
_cell_volume   394.46066121
_cell_formula_units_Z   1
loop_
 _symmetry_equiv_pos_site_id
 _symmetry_equiv_pos_as_xyz
  1  'x, y, z'
loop_
 _atom_site_type_symbol
 _atom_site_label
 _atom_site_symmetry_multiplicity
 _atom_site_fract_x
 _atom_site_fract_y
 _atom_site_fract_z
 _atom_site_occupancy
  Ba  Ba0  1  0.25101300  0.77057000  0.11080400  1
  Ba  Ba1  1  0.78160700  0.04257600  0.97731400  1
  Mg  Mg0  1  0.25140100  0.16445400  0.91761900  1
  Nb  Nb0  1  0.03526100  0.29761700  0.35001300  1
  Nb  Nb1  1  0.26085700  0.47721900  0.75941000  1
  Nb  Nb2  1  0.46482200  0.27478900  0.36169200  1
  Nb  Nb3  1  0.58097500  0.75414900  0.62001900  1
  Nb  Nb4  1  0.73526300  0.53823300  0.22856700  1
  Nb  Nb5  1  0.93276600  0.71493100  0.63956700  1
  N  N0  1  0.73161300  0.59770100  0.69854000  1
  N  N1  1  0.88672100  0.41432500  0.29110000  1
  O  O0  1  0.05343000  0.85262500  0.56917800  1
  O  O1  1  0.10070500  0.30149900  0.84806200  1
  O  O2  1  0.09743300  0.59473500  0.70018100  1
  O  O3  1  0.23638900  0.43105800  0.28270300  1
  O  O4  1  0.27168800  0.16510200  0.41726300  1
  O  O5  1  0.39509600  0.60040000  0.69729900  1
  O  O6  1  0.40707300  0.29802800  0.84995600  1
  O  O7  1  0.41548000  0.85823100  0.56646800  1
  O  O8  1  0.60451300  0.15433600  0.42207600  1
  O  O9  1  0.57107900  0.72206600  0.13592300  1
  O  O10  1  0.57256800  0.42865200  0.28396800  1
  O  O11  1  0.74278500  0.86223100  0.56604500  1
  O  O12  1  0.90276400  0.69654100  0.14877400  1
  O  O13  1  0.94139300  0.14595400  0.42582500  1
loop_
_geom_bond_atom_site_label_1
_geom_bond_atom_site_label_2
_geom_bond_distance
_geom_bond_site_symmetry_2
Ba0 O7 2.680856 1_555
Ba0 O7 2.681847 1_554
Ba0 O0 2.831640 1_555
Ba0 O0 2.832299 1_554
Ba0 O5 2.994739 1_554
Ba0 O5 2.997573 1_555
Ba0 O9 3.005690 1_555
Ba0 O2 3.096449 1_554
Ba0 O2 3.100014 1_555
Ba0 O12 3.337163 1_455
Ba1 O13 2.720429 1_555
Ba1 O13 2.723977 1_556
Ba1 O11 2.790931 1_546
Ba1 O11 2.803738 1_545
Ba1 O8 2.826834 1_555
Ba1 O8 2.833804 1_556
Mg0 O4 1.993050 1_556
Mg0 O4 1.993353 1_555
Mg0 O1 2.012325 1_555
Mg0 O6 2.048487 1_555
Nb0 O13 1.855596 1_455
Nb0 O1 2.075535 1_555
Nb0 O1 2.075704 1_554
Nb0 O3 2.367505 1_555
Nb0 O4 2.594519 1_555
Nb1 O5 1.828276 1_555
Nb1 O2 1.956115 1_555
Nb1 O3 2.058391 1_555
Nb1 O3 2.058437 1_556
Nb1 O6 2.334511 1_555
Nb1 O1 2.416140 1_555
Nb2 O8 1.815246 1_555
Nb2 O10 1.941155 1_555
Nb2 O6 2.069278 1_554
Nb2 O6 2.069432 1_555
Nb2 O4 2.157211 1_555
Nb2 O3 2.680881 1_555
Nb3 O7 1.883834 1_555
Nb3 O11 1.909499 1_555
Nb3 O9 2.015077 1_556
Nb3 O9 2.017298 1_555
Nb3 O5 2.402684 1_555
Nb4 O10 1.925977 1_555
Nb4 O12 2.317688 1_555
Nb4 O9 2.472113 1_555
Nb5 O0 1.865552 1_655
Nb5 O2 1.983156 1_655
Nb5 O12 2.013537 1_556
Nb5 O12 2.014012 1_555
Nb5 O11 2.348113 1_555
N0 Nb4 2.084239 1_555
N0 Nb4 2.084319 1_556
N0 Nb3 2.166469 1_555
N0 Nb5 2.264796 1_555
N1 Nb0 1.846860 1_655
N1 Nb4 1.918585 1_555
