# generated using pymatgen
data_Mg2Al2SiO9
_symmetry_space_group_name_H-M   'P 1'
_cell_length_a   5.44277400
_cell_length_b   5.48437695
_cell_length_c   13.70615401
_cell_angle_alpha   90.57658887
_cell_angle_beta   90.15237615
_cell_angle_gamma   119.63895590
_symmetry_Int_Tables_number   1
_chemical_formula_structural   Mg2Al2SiO9
_chemical_formula_sum   'Mg4 Al4 Si2 O18'
_cell_volume   355.56878685
_cell_formula_units_Z   2
loop_
 _symmetry_equiv_pos_site_id
 _symmetry_equiv_pos_as_xyz
  1  'x, y, z'
loop_
 _atom_site_type_symbol
 _atom_site_label
 _atom_site_symmetry_multiplicity
 _atom_site_fract_x
 _atom_site_fract_y
 _atom_site_fract_z
 _atom_site_occupancy
  Mg  Mg0  1  0.98972500  0.33013400  0.24466400  1
  Mg  Mg1  1  0.67163500  0.66624000  0.24492600  1
  Mg  Mg2  1  0.66216900  0.98686700  0.74440200  1
  Mg  Mg3  1  0.31541900  0.32497600  0.74483500  1
  Al  Al0  1  0.98838700  0.98921000  0.53537300  1
  Al  Al1  1  0.65462000  0.32560900  0.03461000  1
  Al  Al2  1  0.01148000  0.68344300  0.73917600  1
  Al  Al3  1  0.33486800  0.02311900  0.24028700  1
  Si  Si0  1  0.31495300  0.65855700  0.53660600  1
  Si  Si1  1  0.00092200  0.99636200  0.03723600  1
  O  O0  1  0.77118600  0.67583000  0.00726500  1
  O  O1  1  0.70038200  0.36890500  0.67890100  1
  O  O2  1  0.31313200  0.98004300  0.80392100  1
  O  O3  1  0.04415400  0.70484100  0.30023700  1
  O  O4  1  0.63614900  0.88022000  0.50635900  1
  O  O5  1  0.33205600  0.71051600  0.17874600  1
  O  O6  1  0.09503000  0.75326200  0.49504800  1
  O  O7  1  0.63403300  0.31496300  0.16670500  1
  O  O8  1  0.62825200  0.98962000  0.30046800  1
  O  O9  1  0.31149000  0.09417300  0.99227800  1
  O  O10  1  0.02415200  0.00784900  0.16020000  1
  O  O11  1  0.00070300  0.97640700  0.66663800  1
  O  O12  1  0.30678700  0.66785800  0.66031800  1
  O  O13  1  0.68537400  0.64467800  0.80084100  1
  O  O14  1  0.89722700  0.21691200  0.00688600  1
  O  O15  1  0.32997900  0.32012000  0.30376600  1
  O  O16  1  0.22138700  0.33700600  0.50449800  1
  O  O17  1  0.97844800  0.36117900  0.79941200  1
loop_
_geom_bond_atom_site_label_1
_geom_bond_atom_site_label_2
_geom_bond_distance
_geom_bond_site_symmetry_2
Mg0 O15 2.045081 1_655
Mg0 O3 2.063071 1_655
Mg0 O8 2.084725 1_545
Mg0 O7 2.173580 1_555
Mg0 O10 2.187931 1_655
Mg0 O5 2.200536 1_655
Mg1 O8 2.041739 1_555
Mg1 O15 2.063779 1_555
Mg1 O3 2.072316 1_655
Mg1 O7 2.114269 1_555
Mg1 O5 2.176510 1_555
Mg1 O10 2.245034 1_665
Mg2 O17 2.052508 1_565
Mg2 O2 2.052901 1_555
Mg2 O13 2.097489 1_555
Mg2 O11 2.155950 1_655
Mg2 O12 2.175082 1_555
Mg2 O1 2.201616 1_565
Mg3 O13 2.047145 1_555
Mg3 O2 2.059681 1_545
Mg3 O17 2.080200 1_455
Mg3 O11 2.108932 1_545
Mg3 O1 2.186330 1_555
Mg3 O12 2.238593 1_555
Al0 O6 1.745590 1_655
Al0 O4 1.746035 1_555
Al0 O16 1.747072 1_665
Al0 O11 1.803574 1_655
Al1 O14 1.737827 1_555
Al1 O0 1.744340 1_555
Al1 O9 1.752261 1_554
Al1 O7 1.814018 1_555
Al2 O2 1.857637 1_555
Al2 O13 1.883683 1_455
Al2 O17 1.885095 1_455
Al2 O1 1.897430 1_455
Al2 O11 1.923156 1_555
Al2 O12 1.975388 1_555
Al3 O15 1.850776 1_555
Al3 O3 1.878771 1_545
Al3 O8 1.884192 1_545
Al3 O5 1.896276 1_545
Al3 O7 1.921932 1_555
Al3 O10 1.979933 1_555
O0 Si1 1.622095 1_655
O4 Si0 1.618002 1_555
O6 Si0 1.626115 1_555
O9 Si1 1.624838 1_546
O10 Si1 1.687974 1_545
O12 Si0 1.697231 1_555
O14 Si1 1.624421 1_645
O16 Si0 1.630305 1_555
