# generated using pymatgen
data_Sr(H8O5)2
_symmetry_space_group_name_H-M   'P 1'
_cell_length_a   6.77644274
_cell_length_b   6.77644274
_cell_length_c   11.44433141
_cell_angle_alpha   80.07174025
_cell_angle_beta   80.07174025
_cell_angle_gamma   79.84767088
_symmetry_Int_Tables_number   1
_chemical_formula_structural   Sr(H8O5)2
_chemical_formula_sum   'Sr2 H32 O20'
_cell_volume   504.05456069
_cell_formula_units_Z   2
loop_
 _symmetry_equiv_pos_site_id
 _symmetry_equiv_pos_as_xyz
  1  'x, y, z'
loop_
 _atom_site_type_symbol
 _atom_site_label
 _atom_site_symmetry_multiplicity
 _atom_site_fract_x
 _atom_site_fract_y
 _atom_site_fract_z
 _atom_site_occupancy
  Sr  Sr0  1  0.96172900  0.97505500  0.73370200  1
  Sr  Sr1  1  0.97505500  0.96172900  0.23370200  1
  H  H0  1  0.74273800  0.62740100  0.66311900  1
  H  H1  1  0.87384400  0.70750100  0.54465100  1
  H  H2  1  0.06679900  0.40905600  0.64755000  1
  H  H3  1  0.12742700  0.31860100  0.52716500  1
  H  H4  1  0.39287600  0.94528700  0.59008300  1
  H  H5  1  0.39092700  0.70522100  0.63624300  1
  H  H6  1  0.53962900  0.09091800  0.68825000  1
  H  H7  1  0.59709300  0.30837000  0.64297700  1
  H  H8  1  0.09091800  0.53962900  0.18825000  1
  H  H9  1  0.30837000  0.59709300  0.14297700  1
  H  H10  1  0.70522100  0.39092700  0.13624300  1
  H  H11  1  0.94528700  0.39287600  0.09008300  1
  H  H12  1  0.62740100  0.74273800  0.16311900  1
  H  H13  1  0.70750100  0.87384400  0.04465100  1
  H  H14  1  0.40905600  0.06679900  0.14755000  1
  H  H15  1  0.31860100  0.12742700  0.02716500  1
  H  H16  1  0.33099800  0.41509500  0.32448000  1
  H  H17  1  0.00953200  0.28938600  0.37764600  1
  H  H18  1  0.98316800  0.53771200  0.39089300  1
  H  H19  1  0.72878900  0.66347900  0.39778900  1
  H  H20  1  0.65061100  0.28609100  0.35724800  1
  H  H21  1  0.71450700  0.14880800  0.47475900  1
  H  H22  1  0.35365600  0.71773800  0.34713400  1
  H  H23  1  0.27707300  0.85112600  0.44901700  1
  H  H24  1  0.71773800  0.35365600  0.84713400  1
  H  H25  1  0.85112600  0.27707300  0.94901700  1
  H  H26  1  0.28609100  0.65061100  0.85724800  1
  H  H27  1  0.14880800  0.71450700  0.97475900  1
  H  H28  1  0.28938600  0.00953200  0.87764600  1
  H  H29  1  0.41509500  0.33099800  0.82448000  1
  H  H30  1  0.66347900  0.72878900  0.89778900  1
  H  H31  1  0.53771200  0.98316800  0.89089300  1
  O  O0  1  0.52731100  0.51650500  0.68011300  1
  O  O1  1  0.51650500  0.52731100  0.18011300  1
  O  O2  1  0.46618400  0.47009300  0.31160000  1
  O  O3  1  0.47009300  0.46618400  0.81160000  1
  O  O4  1  0.86704100  0.69459700  0.63447500  1
  O  O5  1  0.12435100  0.28145000  0.61641200  1
  O  O6  1  0.30376500  0.84251600  0.60502200  1
  O  O7  1  0.64361800  0.15595700  0.63213500  1
  O  O8  1  0.15595700  0.64361800  0.13213500  1
  O  O9  1  0.84251600  0.30376500  0.10502200  1
  O  O10  1  0.69459700  0.86704100  0.13447500  1
  O  O11  1  0.28145000  0.12435100  0.11641200  1
  O  O12  1  0.10184400  0.38527600  0.38004100  1
  O  O13  1  0.86254200  0.69512300  0.39991300  1
  O  O14  1  0.75999200  0.17872500  0.38734300  1
  O  O15  1  0.27923800  0.85296900  0.36203500  1
  O  O16  1  0.85296900  0.27923800  0.86203500  1
  O  O17  1  0.17872500  0.75999200  0.88734300  1
  O  O18  1  0.38527600  0.10184400  0.88004100  1
  O  O19  1  0.69512300  0.86254200  0.89991300  1
loop_
_geom_bond_atom_site_label_1
_geom_bond_atom_site_label_2
_geom_bond_distance
_geom_bond_site_symmetry_2
H0 O4 1.006406 1_555
H0 O0 1.723974 1_555
H1 O4 1.010242 1_555
H2 O5 0.982988 1_555
H3 O5 1.006408 1_555
H4 O6 0.974921 1_555
H5 O6 1.051923 1_555
H5 O0 1.504510 1_555
H6 O7 0.979321 1_555
H7 O7 1.047576 1_555
H7 O0 1.515183 1_555
H8 O8 0.979321 1_555
H9 O8 1.047576 1_555
H9 O1 1.515183 1_555
H10 O9 1.051923 1_555
H10 O1 1.504510 1_555
H11 O9 0.974921 1_555
H12 O10 1.006406 1_555
H12 O1 1.723974 1_555
H13 O10 1.010242 1_555
H14 O11 0.982988 1_555
H15 O11 1.006408 1_555
H16 O2 1.026977 1_555
H16 O12 1.606959 1_555
H17 O12 0.984703 1_555
H18 O12 1.202556 1_655
H18 O13 1.232126 1_555
H19 O13 0.972620 1_555
H20 O14 1.004427 1_555
H21 O14 0.991313 1_555
H22 O15 0.992205 1_555
H23 O15 0.990977 1_555
H24 O16 0.992205 1_555
H25 O16 0.990977 1_555
H26 O17 1.004427 1_555
H27 O17 0.991313 1_555
H28 O18 0.984703 1_555
H29 O3 1.026977 1_555
H29 O18 1.606959 1_555
H30 O19 0.972620 1_555
H31 O18 1.202556 1_565
H31 O19 1.232126 1_555
O0 O3 1.483057 1_555
O1 O2 1.483057 1_555
O4 Sr0 2.595874 1_555
O5 Sr0 2.581195 1_445
O6 Sr0 2.625401 1_455
O7 Sr0 2.634734 1_545
O8 Sr1 2.634734 1_455
O9 Sr1 2.625401 1_545
O10 Sr1 2.595874 1_555
O11 Sr1 2.581195 1_445
O13 Sr1 2.502797 1_555
O14 Sr1 2.574939 1_545
O15 Sr1 2.661616 1_455
O16 Sr0 2.661616 1_545
O17 Sr0 2.574939 1_455
O19 Sr0 2.502797 1_555
