# generated using pymatgen
data_CsVTeO6
_symmetry_space_group_name_H-M   'P 1'
_cell_length_a   7.19837693
_cell_length_b   7.19837693
_cell_length_c   7.19837693
_cell_angle_alpha   120.73414734
_cell_angle_beta   119.30518867
_cell_angle_gamma   89.97039477
_symmetry_Int_Tables_number   1
_chemical_formula_structural   CsVTeO6
_chemical_formula_sum   'Cs2 V2 Te2 O12'
_cell_volume   263.61801294
_cell_formula_units_Z   2
loop_
 _symmetry_equiv_pos_site_id
 _symmetry_equiv_pos_as_xyz
  1  'x, y, z'
loop_
 _atom_site_type_symbol
 _atom_site_label
 _atom_site_symmetry_multiplicity
 _atom_site_fract_x
 _atom_site_fract_y
 _atom_site_fract_z
 _atom_site_occupancy
  Cs  Cs0  1  0.87041700  0.62041700  0.25000000  1
  Cs  Cs1  1  0.12958300  0.37958300  0.75000000  1
  V  V0  1  0.50000000  0.00000000  0.00000000  1
  V  V1  1  0.50000000  0.50000000  0.50000000  1
  Te  Te0  1  0.50000000  0.00000000  0.50000000  1
  Te  Te1  1  0.00000000  0.00000000  0.00000000  1
  O  O0  1  0.82783400  0.07783400  0.75000000  1
  O  O1  1  0.44942200  0.69942200  0.75000000  1
  O  O2  1  0.81498300  0.67990000  0.74190500  1
  O  O3  1  0.43799400  0.07307800  0.75809500  1
  O  O4  1  0.81498300  0.07307800  0.13508400  1
  O  O5  1  0.43799400  0.67990000  0.36491600  1
  O  O6  1  0.17216600  0.92216600  0.25000000  1
  O  O7  1  0.55057800  0.30057800  0.25000000  1
  O  O8  1  0.18501700  0.32010000  0.25809500  1
  O  O9  1  0.56200600  0.92692200  0.24190500  1
  O  O10  1  0.18501700  0.92692200  0.86491600  1
  O  O11  1  0.56200600  0.32010000  0.63508400  1
loop_
_geom_bond_atom_site_label_1
_geom_bond_atom_site_label_2
_geom_bond_distance
_geom_bond_site_symmetry_2
Cs0 O6 3.072611 1_655
Cs0 O11 3.130446 1_554
Cs0 O9 3.130446 1_555
Cs0 O10 3.130446 1_655
Cs0 O8 3.130451 1_655
Cs0 O7 3.256816 1_555
Cs1 O0 3.072611 1_455
Cs1 O5 3.130446 1_556
Cs1 O3 3.130446 1_555
Cs1 O4 3.130446 1_455
Cs1 O2 3.130451 1_455
Cs1 O1 3.256816 1_555
O0 Te0 1.983670 1_555
O0 Te1 1.983670 1_656
O1 V0 1.852614 1_566
O1 V1 1.852614 1_555
O2 V1 1.919201 1_555
O2 Te1 1.933955 1_666
O3 V0 1.919200 1_556
O3 Te0 1.933960 1_555
O4 V0 1.919200 1_555
O4 Te1 1.933960 1_655
O5 V1 1.919206 1_555
O5 Te0 1.933954 1_565
O6 Te0 1.983670 1_565
O6 Te1 1.983670 1_565
O7 V0 1.852614 1_555
O7 V1 1.852614 1_555
O8 V1 1.919201 1_555
O8 Te1 1.933955 1_555
O9 V0 1.919200 1_565
O9 Te0 1.933960 1_565
O10 V0 1.919200 1_566
O10 Te1 1.933960 1_566
O11 V1 1.919206 1_555
O11 Te0 1.933954 1_555
