# generated using pymatgen
data_Sr(IO)2
_symmetry_space_group_name_H-M   'P 1'
_cell_length_a   4.77237900
_cell_length_b   11.01116286
_cell_length_c   11.84598443
_cell_angle_alpha   90.14342732
_cell_angle_beta   100.84395366
_cell_angle_gamma   90.42214222
_symmetry_Int_Tables_number   1
_chemical_formula_structural   Sr(IO)2
_chemical_formula_sum   'Sr4 I8 O8'
_cell_volume   611.36264199
_cell_formula_units_Z   4
loop_
 _symmetry_equiv_pos_site_id
 _symmetry_equiv_pos_as_xyz
  1  'x, y, z'
loop_
 _atom_site_type_symbol
 _atom_site_label
 _atom_site_symmetry_multiplicity
 _atom_site_fract_x
 _atom_site_fract_y
 _atom_site_fract_z
 _atom_site_occupancy
  Sr  Sr0  1  0.38766600  0.26712300  0.15678200  1
  Sr  Sr1  1  0.58025300  0.78884500  0.35868700  1
  Sr  Sr2  1  0.56755800  0.71521200  0.85819900  1
  Sr  Sr3  1  0.38288200  0.24054600  0.66445600  1
  I  I0  1  0.19533300  0.43841300  0.91765400  1
  I  I1  1  0.01500900  0.88939000  0.62284100  1
  I  I2  1  0.98221300  0.60362500  0.12259600  1
  I  I3  1  0.16844400  0.05602400  0.42444800  1
  I  I4  1  0.38690300  0.96565000  0.11999100  1
  I  I5  1  0.61164700  0.48096500  0.37578100  1
  I  I6  1  0.61599900  0.02701100  0.88098000  1
  I  I7  1  0.38813300  0.53636900  0.61744000  1
  O  O0  1  0.86020700  0.23824400  0.10015300  1
  O  O1  1  0.08686000  0.72934800  0.37872800  1
  O  O2  1  0.07858100  0.77201000  0.87950900  1
  O  O3  1  0.85151000  0.26204800  0.59845900  1
  O  O4  1  0.91181200  0.29810600  0.20413600  1
  O  O5  1  0.01945500  0.75936300  0.26179000  1
  O  O6  1  0.01113200  0.73924000  0.76173100  1
  O  O7  1  0.89840300  0.19246900  0.69563800  1
loop_
_geom_bond_atom_site_label_1
_geom_bond_atom_site_label_2
_geom_bond_distance
_geom_bond_site_symmetry_2
I0 I2 3.342460 1_456
I0 Sr0 3.390876 1_556
I0 Sr2 3.652797 1_555
I0 Sr3 3.943411 1_555
I1 O6 2.337825 1_555
I1 I3 3.174173 1_565
I1 Sr1 3.581641 1_455
I2 O5 2.358441 1_655
I2 Sr2 3.599778 1_554
I3 Sr3 3.479161 1_555
I3 Sr1 3.711354 1_545
I3 Sr1 4.023134 1_445
I4 I6 3.291159 1_564
I4 Sr0 3.346860 1_565
I4 Sr1 3.421863 1_555
I5 I7 3.294666 1_555
I5 Sr1 3.399390 1_555
I5 Sr0 3.507999 1_555
I6 Sr2 3.445838 1_545
I6 Sr3 3.512851 1_555
I7 Sr3 3.306708 1_555
I7 Sr2 3.431244 1_555
O0 O4 1.375432 1_555
O0 Sr0 2.493096 1_555
O0 Sr0 2.497870 1_655
O1 O5 1.402785 1_555
O1 Sr1 2.477716 1_455
O1 Sr1 2.493664 1_555
O2 O6 1.416748 1_555
O2 Sr2 2.478477 1_555
O2 Sr2 2.479450 1_455
O3 O7 1.368315 1_555
O3 Sr3 2.513978 1_555
O3 Sr3 2.522279 1_655
O4 Sr0 2.465378 1_655
O4 Sr0 2.479248 1_555
O5 Sr1 2.594173 1_455
O5 Sr1 2.723077 1_555
O6 Sr2 2.600130 1_455
O6 Sr2 2.701389 1_555
O7 Sr3 2.463102 1_655
O7 Sr3 2.479476 1_555
