# generated using pymatgen
data_Cu6Hg3(SbS3)4
_symmetry_space_group_name_H-M   'P 1'
_cell_length_a   8.78539968
_cell_length_b   8.78539968
_cell_length_c   8.78540034
_cell_angle_alpha   107.50675401
_cell_angle_beta   107.50675401
_cell_angle_gamma   107.50674640
_symmetry_Int_Tables_number   1
_chemical_formula_structural   Cu6Hg3(SbS3)4
_chemical_formula_sum   'Cu6 Hg3 Sb4 S12'
_cell_volume   556.72541714
_cell_formula_units_Z   1
loop_
 _symmetry_equiv_pos_site_id
 _symmetry_equiv_pos_as_xyz
  1  'x, y, z'
loop_
 _atom_site_type_symbol
 _atom_site_label
 _atom_site_symmetry_multiplicity
 _atom_site_fract_x
 _atom_site_fract_y
 _atom_site_fract_z
 _atom_site_occupancy
  Cu  Cu0  1  0.22972400  0.70491300  0.08246200  1
  Cu  Cu1  1  0.70491300  0.08246200  0.22972400  1
  Cu  Cu2  1  0.08246200  0.22972400  0.70491300  1
  Cu  Cu3  1  0.18770000  0.45606500  0.40047300  1
  Cu  Cu4  1  0.45606500  0.40047300  0.18770000  1
  Cu  Cu5  1  0.40047300  0.18770000  0.45606500  1
  Hg  Hg0  1  0.92762000  0.78702800  0.31714000  1
  Hg  Hg1  1  0.78702800  0.31714000  0.92762000  1
  Hg  Hg2  1  0.31714000  0.92762000  0.78702800  1
  Sb  Sb0  1  0.61872700  0.83094100  0.54853800  1
  Sb  Sb1  1  0.83094100  0.54853800  0.61872700  1
  Sb  Sb2  1  0.54853800  0.61872700  0.83094100  1
  Sb  Sb3  1  0.98251400  0.98251400  0.98251400  1
  S  S0  1  0.82655300  0.01293100  0.45900400  1
  S  S1  1  0.01293100  0.45900400  0.82655300  1
  S  S2  1  0.45900400  0.82655300  0.01293100  1
  S  S3  1  0.05940900  0.64114100  0.50778000  1
  S  S4  1  0.64114100  0.50778000  0.05940900  1
  S  S5  1  0.50778000  0.05940900  0.64114100  1
  S  S6  1  0.16550800  0.92993800  0.22177300  1
  S  S7  1  0.92993800  0.22177300  0.16550800  1
  S  S8  1  0.22177300  0.16550800  0.92993800  1
  S  S9  1  0.34870300  0.60040600  0.28200800  1
  S  S10  1  0.60040600  0.28200800  0.34870300  1
  S  S11  1  0.28200800  0.34870300  0.60040600  1
loop_
_geom_bond_atom_site_label_1
_geom_bond_atom_site_label_2
_geom_bond_distance
_geom_bond_site_symmetry_2
Cu0 S6 2.314134 1_555
Cu0 S1 2.318518 1_554
Cu0 S2 2.326068 1_555
Cu0 S9 2.334995 1_555
Cu1 S7 2.314134 1_555
Cu1 S2 2.318518 1_545
Cu1 S0 2.326068 1_555
Cu1 S10 2.334995 1_555
Cu2 S8 2.314134 1_555
Cu2 S0 2.318518 1_455
Cu2 S1 2.326067 1_555
Cu2 S11 2.334996 1_555
Cu3 S11 2.291889 1_555
Cu3 S9 2.300557 1_555
Cu3 S7 2.335170 1_455
Cu3 S3 2.371171 1_555
Cu4 S9 2.291889 1_555
Cu4 S10 2.300556 1_555
Cu4 S8 2.335170 1_554
Cu4 S4 2.371171 1_555
Cu5 S10 2.291889 1_555
Cu5 S11 2.300556 1_555
Cu5 S6 2.335170 1_545
Cu5 S5 2.371171 1_555
Hg0 S0 2.553114 1_565
Hg0 S6 2.598816 1_655
Hg0 S3 2.608823 1_655
Hg0 S4 2.644726 1_555
Hg1 S1 2.553114 1_655
Hg1 S7 2.598816 1_556
Hg1 S4 2.608823 1_556
Hg1 S5 2.644726 1_555
Hg2 S2 2.553114 1_556
Hg2 S8 2.598816 1_565
Hg2 S5 2.608823 1_565
Hg2 S3 2.644726 1_555
S0 Sb0 2.524504 1_545
S1 Sb1 2.524504 1_455
S2 Sb2 2.524504 1_554
S3 Sb1 2.512454 1_455
S4 Sb2 2.512454 1_554
S5 Sb0 2.512453 1_545
S6 Sb3 2.492810 1_454
S7 Sb3 2.492810 1_544
S8 Sb3 2.492811 1_445
S9 Sb0 2.475224 1_555
S10 Sb1 2.475224 1_555
S11 Sb2 2.475224 1_555
