# generated using pymatgen
data_Li19V8(BO3)16
_symmetry_space_group_name_H-M   'P 1'
_cell_length_a   5.19809500
_cell_length_b   8.87598151
_cell_length_c   19.82396815
_cell_angle_alpha   89.60638395
_cell_angle_beta   88.07644367
_cell_angle_gamma   89.02181673
_symmetry_Int_Tables_number   1
_chemical_formula_structural   Li19V8(BO3)16
_chemical_formula_sum   'Li19 V8 B16 O48'
_cell_volume   913.97534689
_cell_formula_units_Z   1
loop_
 _symmetry_equiv_pos_site_id
 _symmetry_equiv_pos_as_xyz
  1  'x, y, z'
loop_
 _atom_site_type_symbol
 _atom_site_label
 _atom_site_symmetry_multiplicity
 _atom_site_fract_x
 _atom_site_fract_y
 _atom_site_fract_z
 _atom_site_occupancy
  Li  Li0  1  0.12906700  0.04392600  0.16237300  1
  Li  Li1  1  0.16833400  0.33445200  0.68956500  1
  Li  Li2  1  0.17593800  0.01431100  0.96455300  1
  Li  Li3  1  0.32342300  0.51631400  0.28707300  1
  Li  Li4  1  0.36876300  0.53950200  0.08892500  1
  Li  Li5  1  0.31351300  0.86415700  0.55964900  1
  Li  Li6  1  0.35887300  0.52364600  0.58421400  1
  Li  Li7  1  0.63528400  0.45949800  0.41326200  1
  Li  Li8  1  0.71537800  0.47912300  0.18991000  1
  Li  Li9  1  0.66942000  0.14486300  0.44069300  1
  Li  Li10  1  0.64668100  0.47384500  0.91254400  1
  Li  Li11  1  0.64573900  0.47409400  0.70927200  1
  Li  Li12  1  0.67358200  0.15686400  0.94243300  1
  Li  Li13  1  0.79137500  0.98047700  0.06307100  1
  Li  Li14  1  0.82843600  0.65243900  0.30769100  1
  Li  Li15  1  0.83430100  0.97546800  0.54049200  1
  Li  Li16  1  0.85536000  0.96771600  0.33513600  1
  Li  Li17  1  0.83944700  0.64802600  0.80917100  1
  Li  Li18  1  0.85750900  0.96805400  0.83666100  1
  V  V0  1  0.13615100  0.69057300  0.43883200  1
  V  V1  1  0.15173700  0.67864500  0.93796900  1
  V  V2  1  0.35198700  0.17834500  0.31161200  1
  V  V3  1  0.35712700  0.17938000  0.81456100  1
  V  V4  1  0.62603800  0.79992600  0.18403600  1
  V  V5  1  0.64841200  0.83089000  0.68747900  1
  V  V6  1  0.87298200  0.30017600  0.06565700  1
  V  V7  1  0.87220100  0.30102200  0.55965600  1
  B  B0  1  0.17673500  0.70120200  0.19468500  1
  B  B1  1  0.15645800  0.34459000  0.43157900  1
  B  B2  1  0.16832900  0.66781500  0.68952400  1
  B  B3  1  0.14906800  0.34279800  0.93393400  1
  B  B4  1  0.32639800  0.20047300  0.05557200  1
  B  B5  1  0.34861700  0.84304000  0.31659500  1
  B  B6  1  0.32918700  0.17849100  0.55926500  1
  B  B7  1  0.33878200  0.84286500  0.81442500  1
  B  B8  1  0.65077700  0.14786700  0.18499800  1
  B  B9  1  0.66425800  0.80471100  0.43743000  1
  B  B10  1  0.67507100  0.16696900  0.68817300  1
  B  B11  1  0.67175400  0.81953100  0.93827100  1
  B  B12  1  0.84670600  0.64863500  0.06440800  1
  B  B13  1  0.82862000  0.31870400  0.31037900  1
  B  B14  1  0.83239300  0.65678100  0.56568700  1
  B  B15  1  0.83353900  0.31608400  0.81436000  1
  O  O0  1  0.09100800  0.66267200  0.03145000  1
  O  O1  1  0.09372600  0.33408100  0.30289800  1
  O  O2  1  0.08178700  0.68350400  0.53830300  1
  O  O3  1  0.09283500  0.31637300  0.79682000  1
  O  O4  1  0.12284800  0.09879100  0.05797300  1
  O  O5  1  0.14484400  0.07271100  0.55555600  1
  O  O6  1  0.19255600  0.72390300  0.33780200  1
  O  O7  1  0.23322200  0.98855200  0.32403900  1
  O  O8  1  0.24600500  0.34824100  0.06412500  1
  O  O9  1  0.17843500  0.73342400  0.83800300  1
  O  O10  1  0.23069900  0.99118000  0.81723500  1
  O  O11  1  0.24204300  0.32463600  0.57562000  1
  O  O12  1  0.25083000  0.84905400  0.18689900  1
  O  O13  1  0.29456400  0.80631700  0.67999500  1
  O  O14  1  0.24784700  0.49651100  0.43141500  1
  O  O15  1  0.34032200  0.24202000  0.40915900  1
  O  O16  1  0.38403100  0.59875900  0.19205600  1
  O  O17  1  0.26757400  0.48537300  0.92683800  1
  O  O18  1  0.30258300  0.21939000  0.91357400  1
  O  O19  1  0.30073300  0.53768500  0.68288500  1
  O  O20  1  0.40651600  0.16344600  0.21765600  1
  O  O21  1  0.40401300  0.82156300  0.45477700  1
  O  O22  1  0.43866200  0.19112500  0.72009500  1
  O  O23  1  0.40571100  0.83329700  0.94603500  1
  O  O24  1  0.57869000  0.15949900  0.04214100  1
  O  O25  1  0.59864000  0.82768500  0.29480600  1
  O  O26  1  0.59161900  0.15221100  0.54659600  1
  O  O27  1  0.58946900  0.82567200  0.78939700  1
  O  O28  1  0.66829100  0.44226300  0.30906400  1
  O  O29  1  0.71773000  0.77652800  0.08525600  1
  O  O30  1  0.74477400  0.51036700  0.07814800  1
  O  O31  1  0.68777900  0.44307400  0.81154100  1
  O  O32  1  0.68815700  0.78397300  0.58844900  1
  O  O33  1  0.73486200  0.51534500  0.56878900  1
  O  O34  1  0.72466400  0.17561800  0.32347600  1
  O  O35  1  0.72028400  0.17691800  0.83230400  1
  O  O36  1  0.77051200  0.66247300  0.42238100  1
  O  O37  1  0.75402600  0.00849000  0.17081700  1
  O  O38  1  0.78071300  0.27426600  0.16447700  1
  O  O39  1  0.78162500  0.67723200  0.92329600  1
  O  O40  1  0.76796100  0.01714900  0.68157300  1
  O  O41  1  0.81371400  0.28506700  0.66470900  1
  O  O42  1  0.82768000  0.92245500  0.43891000  1
  O  O43  1  0.82974600  0.94119200  0.93955900  1
  O  O44  1  0.92673500  0.65894500  0.20781100  1
  O  O45  1  0.91033100  0.31828600  0.45429300  1
  O  O46  1  0.90068600  0.67471400  0.70395200  1
  O  O47  1  0.89959100  0.33113800  0.95586000  1
loop_
_geom_bond_atom_site_label_1
_geom_bond_atom_site_label_2
_geom_bond_distance
_geom_bond_site_symmetry_2
Li0 O12 1.897503 1_545
Li0 O37 1.981363 1_455
Li0 O4 2.124062 1_555
Li0 O20 2.140270 1_555
Li1 O19 1.943760 1_555
Li1 O41 1.981011 1_455
Li1 O22 1.986139 1_555
Li1 O3 2.154535 1_555
Li1 O11 2.280400 1_555
Li2 O43 2.002298 1_445
Li2 O4 2.011433 1_556
Li2 O23 2.013919 1_545
Li2 O18 2.176944 1_555
Li3 O28 1.960606 1_555
Li3 O16 2.032696 1_555
Li3 O1 2.043071 1_555
Li3 O6 2.192222 1_555
Li4 O8 1.897457 1_555
Li4 O30 1.971856 1_555
Li4 O16 2.118931 1_555
Li4 O0 2.148808 1_555
Li5 O5 2.036967 1_565
Li5 O2 2.076193 1_555
Li5 O21 2.150688 1_555
Li5 O32 2.155628 1_555
Li5 O13 2.436006 1_555
Li6 O11 1.888316 1_555
Li6 O33 1.968245 1_555
Li6 O19 1.973671 1_555
Li6 O2 2.217345 1_555
Li7 O36 1.956733 1_555
Li7 O14 2.055175 1_555
Li7 O45 2.068718 1_555
Li7 O28 2.073468 1_555
Li7 O15 2.489016 1_555
Li8 O38 1.912014 1_555
Li8 O44 1.993571 1_555
Li8 O16 2.007296 1_555
Li8 O30 2.231427 1_555
Li8 O28 2.387424 1_555
Li9 O15 2.018640 1_555
Li9 O45 2.025960 1_555
Li9 O42 2.125698 1_545
Li9 O26 2.125875 1_555
Li9 O34 2.346435 1_555
Li10 O39 1.963412 1_555
Li10 O17 1.982471 1_555
Li10 O47 2.018436 1_555
Li10 O31 2.026368 1_555
Li11 O19 1.957744 1_555
Li11 O31 2.062484 1_555
Li11 O41 2.067944 1_555
Li11 O46 2.237606 1_555
Li12 O47 1.983052 1_555
Li12 O24 2.021291 1_556
Li12 O43 2.066900 1_545
Li12 O18 2.094643 1_555
Li12 O35 2.194882 1_555
Li13 O29 1.902204 1_555
Li13 O24 1.970044 1_565
Li13 O4 2.032361 1_665
Li13 O37 2.153978 1_565
Li13 O43 2.476506 1_554
Li14 O25 1.965498 1_555
Li14 O44 2.028894 1_555
Li14 O28 2.055401 1_555
Li14 O6 2.112613 1_655
Li14 O36 2.285565 1_555
Li15 O5 1.877069 1_665
Li15 O26 1.997951 1_565
Li15 O42 2.072690 1_555
Li15 O32 2.084065 1_555
Li16 O34 1.970307 1_565
Li16 O7 1.980749 1_655
Li16 O25 2.026502 1_555
Li16 O42 2.094031 1_555
Li17 O31 1.994586 1_555
Li17 O9 2.031101 1_655
Li17 O27 2.069811 1_555
Li17 O46 2.111743 1_555
Li17 O39 2.288185 1_555
Li18 O35 1.977347 1_565
Li18 O10 1.978868 1_655
Li18 O43 2.052652 1_555
Li18 O27 2.140173 1_555
B0 O44 1.374682 1_455
B0 O12 1.380168 1_555
B0 O16 1.397870 1_555
B1 O45 1.365352 1_455
B1 O15 1.373740 1_555
B1 O14 1.437255 1_555
B2 O19 1.339392 1_555
B2 O46 1.411279 1_455
B2 O13 1.411938 1_555
B3 O47 1.359216 1_455
B3 O18 1.397900 1_555
B3 O17 1.420942 1_555
B4 O24 1.372819 1_555
B4 O8 1.379574 1_555
B4 O4 1.401775 1_555
B5 O25 1.360624 1_555
B5 O6 1.397613 1_555
B5 O7 1.421244 1_555
B6 O5 1.357036 1_555
B6 O26 1.394748 1_555
B6 O11 1.403156 1_555
B7 O9 1.360902 1_555
B7 O27 1.385049 1_555
B7 O10 1.423173 1_555
B8 O37 1.367293 1_555
B8 O38 1.371690 1_555
B8 O20 1.410827 1_555
B9 O42 1.359084 1_555
B9 O21 1.390399 1_555
B9 O36 1.399383 1_555
B10 O41 1.353193 1_555
B10 O22 1.377401 1_555
B10 O40 1.412394 1_555
B11 O43 1.368679 1_555
B11 O23 1.389704 1_555
B11 O39 1.406672 1_555
B12 O30 1.367126 1_555
B12 O29 1.367760 1_555
B12 O0 1.415501 1_655
B13 O28 1.366700 1_555
B13 O1 1.389985 1_655
B13 O34 1.407789 1_555
B14 O33 1.362120 1_555
B14 O2 1.411746 1_655
B14 O32 1.412680 1_555
B15 O31 1.349260 1_555
B15 O3 1.380667 1_655
B15 O35 1.415505 1_555
O0 V1 1.874197 1_554
O1 V2 1.921396 1_555
O2 V0 1.983361 1_555
O3 V3 1.859868 1_555
O4 V6 2.194645 1_455
O5 V7 2.453210 1_455
O6 V0 2.034737 1_555
O7 V2 1.816393 1_565
O8 V6 1.991683 1_455
O9 V1 2.038012 1_555
O10 V3 1.805288 1_565
O11 V7 1.973703 1_455
O12 V4 1.990269 1_555
O13 V5 1.866869 1_555
O14 V0 1.813643 1_555
O15 V2 2.017062 1_555
O16 V4 2.203486 1_555
O17 V1 1.820751 1_555
O18 V3 2.006984 1_555
O20 V2 1.879814 1_555
O21 V0 1.865549 1_555
O22 V3 1.908668 1_555
O23 V1 1.931782 1_555
O24 V6 2.058565 1_555
O25 V4 2.210930 1_555
O26 V7 2.008651 1_555
O27 V5 2.033656 1_555
O29 V4 2.011081 1_555
O30 V6 1.984673 1_555
O32 V5 2.012758 1_555
O33 V7 2.027552 1_555
O34 V2 1.958977 1_555
O35 V3 1.931518 1_555
O36 V0 1.959556 1_655
O37 V4 1.990464 1_545
O38 V6 2.013734 1_555
O39 V1 1.955636 1_655
O40 V5 1.777804 1_545
O41 V7 2.098686 1_555
O44 V4 2.050781 1_555
O45 V7 2.096267 1_555
O46 V5 1.925700 1_555
O47 V6 2.192069 1_556
