# generated using pymatgen
data_SmFe2SiC
_symmetry_space_group_name_H-M   'P 1'
_cell_length_a   5.58523617
_cell_length_b   5.58523617
_cell_length_c   6.71566364
_cell_angle_alpha   90.00000000
_cell_angle_beta   90.00000000
_cell_angle_gamma   139.48358782
_symmetry_Int_Tables_number   1
_chemical_formula_structural   SmFe2SiC
_chemical_formula_sum   'Sm2 Fe4 Si2 C2'
_cell_volume   136.10122996
_cell_formula_units_Z   2
loop_
 _symmetry_equiv_pos_site_id
 _symmetry_equiv_pos_as_xyz
  1  'x, y, z'
loop_
 _atom_site_type_symbol
 _atom_site_label
 _atom_site_symmetry_multiplicity
 _atom_site_fract_x
 _atom_site_fract_y
 _atom_site_fract_z
 _atom_site_occupancy
  Sm  Sm0  1  0.55147063  0.44852937  0.25000000  1
  Sm  Sm1  1  0.44852937  0.55147063  0.75000000  1
  Fe  Fe0  1  0.83399213  0.16600787  0.06638001  1
  Fe  Fe1  1  0.16600787  0.83399213  0.93361999  1
  Fe  Fe2  1  0.16600787  0.83399213  0.56638001  1
  Fe  Fe3  1  0.83399213  0.16600787  0.43361999  1
  Si  Si0  1  0.27100859  0.72899141  0.25000000  1
  Si  Si1  1  0.72899141  0.27100859  0.75000000  1
  C  C0  1  0.00000000  -0.00000000  -0.00000000  1
  C  C1  1  0.00000000  -0.00000000  0.50000000  1
loop_
_geom_bond_atom_site_label_1
_geom_bond_atom_site_label_2
_geom_bond_distance
_geom_bond_site_symmetry_2
Fe0 Si0 2.386673 1_545
Fe0 Si0 2.386673 1_655
Fe0 Si1 2.392726 1_554
Fe1 Si1 2.386673 1_565
Fe1 Si1 2.386673 1_455
Fe1 Si0 2.392726 1_556
Fe2 Si1 2.386673 1_455
Fe2 Si1 2.386673 1_565
Fe2 Si0 2.392726 1_555
Fe3 Si0 2.386673 1_545
Fe3 Si0 2.386673 1_655
Fe3 Si1 2.392726 1_555
Si0 Sm0 2.939098 1_555
Si0 Sm0 3.005482 1_565
Si0 Sm0 3.005482 1_455
Si1 Sm1 2.939098 1_555
Si1 Sm1 3.005482 1_655
Si1 Sm1 3.005482 1_545
C0 Fe1 1.795885 1_544
C0 Fe0 1.795885 1_455
C0 Sm0 2.617183 1_555
C0 Sm1 2.617183 1_554
C0 Sm0 2.617183 1_445
C0 Sm1 2.617183 1_444
C1 Fe2 1.795885 1_545
C1 Fe3 1.795885 1_455
C1 Sm1 2.617183 1_555
C1 Sm0 2.617183 1_555
C1 Sm0 2.617183 1_445
C1 Sm1 2.617183 1_445
