# generated using pymatgen
data_Mg4Si7
_symmetry_space_group_name_H-M   'P 1'
_cell_length_a   3.94086300
_cell_length_b   6.93462400
_cell_length_c   14.26606846
_cell_angle_alpha   88.55265465
_cell_angle_beta   90.00000000
_cell_angle_gamma   90.00000000
_symmetry_Int_Tables_number   1
_chemical_formula_structural   Mg4Si7
_chemical_formula_sum   'Mg8 Si14'
_cell_volume   389.74448597
_cell_formula_units_Z   2
loop_
 _symmetry_equiv_pos_site_id
 _symmetry_equiv_pos_as_xyz
  1  'x, y, z'
loop_
 _atom_site_type_symbol
 _atom_site_label
 _atom_site_symmetry_multiplicity
 _atom_site_fract_x
 _atom_site_fract_y
 _atom_site_fract_z
 _atom_site_occupancy
  Mg  Mg0  1  0.50000000  0.91098600  0.92779600  1
  Mg  Mg1  1  0.50000000  0.61905000  0.50139500  1
  Mg  Mg2  1  0.00000000  0.79248300  0.34977400  1
  Mg  Mg3  1  0.00000000  0.43134200  0.66109500  1
  Mg  Mg4  1  0.50000000  0.43579100  0.84642900  1
  Mg  Mg5  1  0.50000000  0.50799800  0.08687600  1
  Mg  Mg6  1  0.00000000  0.30820500  0.41436100  1
  Mg  Mg7  1  0.00000000  0.93904900  0.58020200  1
  Si  Si0  1  0.00000000  0.61844800  0.96102100  1
  Si  Si1  1  0.00000000  0.25557500  0.97764600  1
  Si  Si2  1  0.50000000  0.12403000  0.07994000  1
  Si  Si3  1  0.00000000  0.86010700  0.09462900  1
  Si  Si4  1  0.50000000  0.24483800  0.55782400  1
  Si  Si5  1  0.50000000  0.00227600  0.44206800  1
  Si  Si6  1  0.50000000  0.80469700  0.20356100  1
  Si  Si7  1  0.00000000  0.11879800  0.81748400  1
  Si  Si8  1  0.50000000  0.74186500  0.69636500  1
  Si  Si9  1  0.00000000  0.30229800  0.21336500  1
  Si  Si10  1  0.50000000  0.50787300  0.30051900  1
  Si  Si11  1  0.00000000  0.75234600  0.80119300  1
  Si  Si12  1  0.50000000  0.10556700  0.71411800  1
  Si  Si13  1  0.50000000  0.11275400  0.27587800  1
loop_
_geom_bond_atom_site_label_1
_geom_bond_atom_site_label_2
_geom_bond_distance
_geom_bond_site_symmetry_2
Mg0 Si2 2.656256 1_566
Mg0 Si0 2.859034 1_655
Mg0 Si0 2.859034 1_555
Mg0 Si7 2.884682 1_565
Mg0 Si7 2.884682 1_665
Mg0 Si11 2.907801 1_655
Mg0 Si11 2.907801 1_555
Mg0 Si3 3.103113 1_556
Mg0 Si3 3.103113 1_656
Mg0 Si1 3.191295 1_665
Mg0 Si1 3.191295 1_565
Mg1 Si4 2.697527 1_555
Mg1 Si5 2.768603 1_565
Mg1 Si8 2.929422 1_555
Mg1 Si10 2.986353 1_555
Mg2 Si5 2.798131 1_565
Mg2 Si5 2.798131 1_465
Mg2 Si6 2.869105 1_455
Mg2 Si6 2.869105 1_555
Mg2 Si10 2.888210 1_555
Mg2 Si10 2.888210 1_455
Mg2 Si13 3.131826 1_465
Mg2 Si13 3.131826 1_565
Mg3 Si4 2.796802 1_555
Mg3 Si4 2.796802 1_455
Mg3 Si8 2.971106 1_555
Mg3 Si8 2.971106 1_455
Mg3 Si11 3.028961 1_555
Mg3 Si7 3.070969 1_555
Mg3 Si12 3.077680 1_455
Mg3 Si12 3.077680 1_555
Mg4 Si0 2.874739 1_655
Mg4 Si0 2.874739 1_555
Mg4 Si1 2.971607 1_555
Mg4 Si1 2.971607 1_655
Mg4 Si8 2.976344 1_555
Mg4 Si7 2.988506 1_555
Mg4 Si7 2.988506 1_655
Mg4 Si12 3.004203 1_555
Mg4 Si11 3.007717 1_655
Mg4 Si11 3.007717 1_555
Mg5 Si2 2.667008 1_555
Mg5 Si6 2.679052 1_555
Mg5 Si0 2.761058 1_654
Mg5 Si0 2.761058 1_554
Mg5 Si9 3.007251 1_655
Mg5 Si9 3.007251 1_555
Mg5 Si10 3.047824 1_555
Mg5 Si1 3.084274 1_554
Mg5 Si1 3.084274 1_654
Mg5 Si3 3.141749 1_555
Mg5 Si3 3.141749 1_655
Mg6 Si4 2.866889 1_455
Mg6 Si4 2.866889 1_555
Mg6 Si9 2.868750 1_555
Mg6 Si10 2.885101 1_555
Mg6 Si10 2.885101 1_455
Mg6 Si5 2.915004 1_455
Mg6 Si5 2.915004 1_555
Mg6 Si13 3.123771 1_555
Mg6 Si13 3.123771 1_455
Mg7 Si5 2.813285 1_565
Mg7 Si5 2.813285 1_465
Mg7 Si8 2.895545 1_555
Mg7 Si8 2.895545 1_455
Mg7 Si4 2.906368 1_465
Mg7 Si4 2.906368 1_565
Mg7 Si12 2.996215 1_465
Mg7 Si12 2.996215 1_565
Si0 Si11 2.440114 1_555
Si0 Si1 2.521569 1_555
Si0 Si3 2.569588 1_556
Si1 Si7 2.495959 1_555
Si1 Si2 2.603294 1_556
Si1 Si2 2.603294 1_456
Si2 Si3 2.693844 1_645
Si2 Si3 2.693844 1_545
Si2 Si6 2.795846 1_545
Si3 Si6 2.532804 1_555
Si3 Si6 2.532804 1_455
Si4 Si5 2.386790 1_555
Si10 Si6 2.450775 1_555
Si10 Si9 2.747788 1_655
Si10 Si9 2.747788 1_555
Si10 Si13 2.771252 1_555
Si11 Si8 2.475852 1_455
Si11 Si8 2.475852 1_555
Si11 Si7 2.557651 1_565
Si12 Si4 2.407392 1_555
Si12 Si7 2.464219 1_655
Si12 Si7 2.464219 1_555
Si12 Si8 2.541178 1_545
Si13 Si6 2.395684 1_545
Si13 Si5 2.473105 1_555
Si13 Si9 2.519208 1_655
Si13 Si9 2.519208 1_555
Si13 Si2 2.794383 1_555
