# generated using pymatgen
data_Ce2Fe17
_symmetry_space_group_name_H-M   'P 1'
_cell_length_a   8.39975158
_cell_length_b   8.53023686
_cell_length_c   8.53023686
_cell_angle_alpha   120.00015064
_cell_angle_beta   90.00000000
_cell_angle_gamma   90.00000000
_symmetry_Int_Tables_number   1
_chemical_formula_structural   Ce2Fe17
_chemical_formula_sum   'Ce4 Fe34'
_cell_volume   529.32035576
_cell_formula_units_Z   2
loop_
 _symmetry_equiv_pos_site_id
 _symmetry_equiv_pos_as_xyz
  1  'x, y, z'
loop_
 _atom_site_type_symbol
 _atom_site_label
 _atom_site_symmetry_multiplicity
 _atom_site_fract_x
 _atom_site_fract_y
 _atom_site_fract_z
 _atom_site_occupancy
  Ce  Ce0  1  0.75000000  0.99998350  0.00001650  1
  Ce  Ce1  1  0.25000000  0.00001650  0.99998350  1
  Ce  Ce2  1  0.25000000  0.66664834  0.33335166  1
  Ce  Ce3  1  0.75000000  0.33335166  0.66664834  1
  Fe  Fe0  1  0.60790713  0.66666297  0.33333703  1
  Fe  Fe1  1  0.39209287  0.33333703  0.66666297  1
  Fe  Fe2  1  0.10790713  0.33333703  0.66666297  1
  Fe  Fe3  1  0.89209287  0.66666297  0.33333703  1
  Fe  Fe4  1  0.50000000  0.50000000  0.00000000  1
  Fe  Fe5  1  0.50000000  0.50000000  0.50000000  1
  Fe  Fe6  1  0.50000000  -0.00000000  0.50000000  1
  Fe  Fe7  1  -0.00000000  0.50000000  0.00000000  1
  Fe  Fe8  1  -0.00000000  0.50000000  0.50000000  1
  Fe  Fe9  1  -0.00000000  -0.00000000  0.50000000  1
  Fe  Fe10  1  0.75000000  0.66979291  0.04241911  1
  Fe  Fe11  1  0.75000000  0.37259572  0.33018771  1
  Fe  Fe12  1  0.75000000  0.95764857  0.62745953  1
  Fe  Fe13  1  0.75000000  0.37254047  0.04235143  1
  Fe  Fe14  1  0.75000000  0.95758089  0.33020709  1
  Fe  Fe15  1  0.75000000  0.66981229  0.62740428  1
  Fe  Fe16  1  0.25000000  0.33020709  0.95758089  1
  Fe  Fe17  1  0.25000000  0.62740428  0.66981229  1
  Fe  Fe18  1  0.25000000  0.04235143  0.37254047  1
  Fe  Fe19  1  0.25000000  0.62745953  0.95764857  1
  Fe  Fe20  1  0.25000000  0.04241911  0.66979291  1
  Fe  Fe21  1  0.25000000  0.33018771  0.37259572  1
  Fe  Fe22  1  0.48713835  0.83287252  0.66573615  1
  Fe  Fe23  1  0.48712688  0.83286112  0.16713888  1
  Fe  Fe24  1  0.48713835  0.33426385  0.16712748  1
  Fe  Fe25  1  0.51286165  0.16712748  0.33426385  1
  Fe  Fe26  1  0.51287312  0.16713888  0.83286112  1
  Fe  Fe27  1  0.51286165  0.66573615  0.83287252  1
  Fe  Fe28  1  0.98713835  0.16712748  0.33426385  1
  Fe  Fe29  1  0.98712688  0.16713888  0.83286112  1
  Fe  Fe30  1  0.98713835  0.66573615  0.83287252  1
  Fe  Fe31  1  0.01286165  0.83287252  0.66573615  1
  Fe  Fe32  1  0.01287312  0.83286112  0.16713888  1
  Fe  Fe33  1  0.01286165  0.33426385  0.16712748  1
loop_
_geom_bond_atom_site_label_1
_geom_bond_atom_site_label_2
_geom_bond_distance
_geom_bond_site_symmetry_2
Ce0 Fe12 3.013706 1_554
Ce0 Fe13 3.013706 1_565
Ce0 Fe14 3.013780 1_555
Ce0 Fe10 3.013780 1_555
Ce0 Fe15 3.013800 1_554
Ce0 Fe11 3.013800 1_565
Ce0 Fe25 3.172492 1_565
Ce0 Fe28 3.172492 1_565
Ce0 Fe27 3.172492 1_554
Ce0 Fe30 3.172492 1_554
Ce0 Fe26 3.172800 1_564
Ce0 Fe29 3.172800 1_564
Ce0 Fe23 3.312481 1_555
Ce0 Fe32 3.312481 1_655
Ce0 Fe24 3.312608 1_565
Ce0 Fe33 3.312608 1_665
Ce0 Fe22 3.312608 1_554
Ce0 Fe31 3.312608 1_654
Ce1 Fe19 3.013706 1_545
Ce1 Fe18 3.013706 1_556
Ce1 Fe20 3.013780 1_555
Ce1 Fe16 3.013780 1_555
Ce1 Fe17 3.013800 1_545
Ce1 Fe21 3.013800 1_556
Ce1 Fe31 3.172492 1_545
Ce1 Fe22 3.172492 1_545
Ce1 Fe33 3.172492 1_556
Ce1 Fe24 3.172492 1_556
Ce1 Fe23 3.172800 1_546
Ce1 Fe32 3.172800 1_546
Ce1 Fe29 3.312481 1_455
Ce1 Fe26 3.312481 1_555
Ce1 Fe25 3.312608 1_556
Ce1 Fe28 3.312608 1_456
Ce1 Fe30 3.312608 1_445
Ce1 Fe27 3.312608 1_545
Ce2 Fe0 3.006331 1_555
Ce2 Fe3 3.006331 1_455
Ce2 Fe17 3.051274 1_555
Ce2 Fe21 3.051274 1_555
Ce2 Fe19 3.051455 1_554
Ce2 Fe18 3.051455 1_565
Ce2 Fe16 3.051525 1_554
Ce2 Fe20 3.051525 1_565
Ce2 Fe22 3.161793 1_555
Ce2 Fe31 3.161793 1_555
Ce2 Fe24 3.161793 1_555
Ce2 Fe33 3.161793 1_555
Ce2 Fe23 3.161972 1_555
Ce2 Fe32 3.161972 1_555
Ce2 Fe5 3.236072 1_555
Ce2 Fe8 3.236072 1_555
Ce2 Fe4 3.236376 1_555
Ce2 Fe7 3.236376 1_555
Ce2 Fe9 3.236376 1_565
Ce2 Fe6 3.236376 1_565
Ce3 Fe1 3.006331 1_555
Ce3 Fe2 3.006331 1_655
Ce3 Fe15 3.051274 1_555
Ce3 Fe11 3.051274 1_555
Ce3 Fe12 3.051455 1_545
Ce3 Fe13 3.051455 1_556
Ce3 Fe14 3.051525 1_545
Ce3 Fe10 3.051525 1_556
Ce3 Fe30 3.161793 1_555
Ce3 Fe28 3.161793 1_555
Ce3 Fe25 3.161793 1_555
Ce3 Fe27 3.161793 1_555
Ce3 Fe29 3.161972 1_555
Ce3 Fe26 3.161972 1_555
Ce3 Fe8 3.236072 1_655
Ce3 Fe5 3.236072 1_555
Ce3 Fe6 3.236376 1_555
Ce3 Fe9 3.236376 1_655
Ce3 Fe4 3.236376 1_556
Ce3 Fe7 3.236376 1_656
Fe0 Fe3 2.387090 1_555
Fe0 Fe5 2.623935 1_555
Fe0 Fe4 2.624006 1_555
Fe0 Fe6 2.624006 1_565
Fe0 Fe24 2.656849 1_555
Fe0 Fe22 2.656849 1_555
Fe0 Fe23 2.656872 1_555
Fe0 Fe14 2.765836 1_555
Fe0 Fe10 2.765836 1_555
Fe0 Fe11 2.765912 1_555
Fe0 Fe15 2.765912 1_555
Fe0 Fe13 2.766379 1_555
Fe0 Fe12 2.766379 1_555
Fe1 Fe2 2.387090 1_555
Fe1 Fe5 2.623935 1_555
Fe1 Fe6 2.624006 1_555
Fe1 Fe4 2.624006 1_556
Fe1 Fe27 2.656849 1_555
Fe1 Fe25 2.656849 1_555
Fe1 Fe26 2.656872 1_555
Fe1 Fe20 2.765836 1_555
Fe1 Fe16 2.765836 1_555
Fe1 Fe21 2.765912 1_555
Fe1 Fe17 2.765912 1_555
Fe1 Fe18 2.766379 1_555
Fe1 Fe19 2.766379 1_555
Fe2 Fe8 2.623935 1_555
Fe2 Fe9 2.624006 1_555
Fe2 Fe7 2.624006 1_556
Fe2 Fe28 2.656849 1_455
Fe2 Fe30 2.656849 1_455
Fe2 Fe29 2.656872 1_455
Fe2 Fe20 2.765836 1_555
Fe2 Fe21 2.765912 1_555
Fe3 Fe8 2.623935 1_655
Fe3 Fe9 2.624006 1_665
Fe3 Fe7 2.624006 1_655
Fe3 Fe31 2.656849 1_655
Fe3 Fe33 2.656849 1_655
Fe3 Fe32 2.656872 1_655
Fe10 Fe14 2.454894 1_555
Fe10 Fe4 2.472725 1_555
Fe10 Fe7 2.472725 1_655
Fe10 Fe13 2.535345 1_555
Fe10 Fe23 2.542135 1_555
Fe10 Fe32 2.542135 1_655
Fe10 Fe30 2.664979 1_554
Fe10 Fe27 2.664979 1_554
Fe10 Fe3 2.765836 1_555
Fe11 Fe13 2.455076 1_555
Fe11 Fe5 2.472823 1_555
Fe11 Fe8 2.472823 1_655
Fe11 Fe15 2.535322 1_555
Fe11 Fe24 2.542040 1_555
Fe11 Fe33 2.542040 1_655
Fe11 Fe28 2.664913 1_555
Fe11 Fe25 2.664913 1_555
Fe11 Fe3 2.765912 1_555
Fe12 Fe15 2.455076 1_555
Fe12 Fe6 2.472889 1_565
Fe12 Fe9 2.472889 1_665
Fe12 Fe14 2.535345 1_555
Fe12 Fe22 2.542078 1_555
Fe12 Fe31 2.542078 1_655
Fe12 Fe26 2.664497 1_565
Fe12 Fe29 2.664497 1_565
Fe12 Fe3 2.766379 1_555
Fe13 Fe4 2.472889 1_555
Fe13 Fe7 2.472889 1_655
Fe13 Fe24 2.542078 1_555
Fe13 Fe33 2.542078 1_655
Fe13 Fe29 2.664497 1_554
Fe13 Fe26 2.664497 1_554
Fe13 Fe3 2.766379 1_555
Fe14 Fe9 2.472725 1_665
Fe14 Fe6 2.472725 1_565
Fe14 Fe23 2.542135 1_555
Fe14 Fe32 2.542135 1_655
Fe14 Fe28 2.664979 1_565
Fe14 Fe25 2.664979 1_565
Fe14 Fe3 2.765836 1_555
Fe15 Fe5 2.472823 1_555
Fe15 Fe8 2.472823 1_655
Fe15 Fe22 2.542040 1_555
Fe15 Fe31 2.542040 1_655
Fe15 Fe30 2.664913 1_555
Fe15 Fe27 2.664913 1_555
Fe15 Fe3 2.765912 1_555
Fe16 Fe20 2.454894 1_555
Fe16 Fe7 2.472725 1_556
Fe16 Fe4 2.472725 1_556
Fe16 Fe19 2.535345 1_555
Fe16 Fe29 2.542135 1_455
Fe16 Fe26 2.542135 1_555
Fe16 Fe24 2.664979 1_556
Fe16 Fe33 2.664979 1_556
Fe16 Fe2 2.765836 1_555
Fe17 Fe19 2.455076 1_555
Fe17 Fe8 2.472823 1_555
Fe17 Fe5 2.472823 1_555
Fe17 Fe21 2.535322 1_555
Fe17 Fe30 2.542040 1_455
Fe17 Fe27 2.542040 1_555
Fe17 Fe31 2.664913 1_555
Fe17 Fe22 2.664913 1_555
Fe17 Fe2 2.765912 1_555
Fe18 Fe21 2.455076 1_555
Fe18 Fe9 2.472889 1_555
Fe18 Fe6 2.472889 1_555
Fe18 Fe20 2.535345 1_555
Fe18 Fe28 2.542078 1_455
Fe18 Fe25 2.542078 1_555
Fe18 Fe23 2.664497 1_545
Fe18 Fe32 2.664497 1_545
Fe18 Fe2 2.766379 1_555
Fe19 Fe4 2.472889 1_556
Fe19 Fe7 2.472889 1_556
Fe19 Fe27 2.542078 1_555
Fe19 Fe30 2.542078 1_455
Fe19 Fe23 2.664497 1_556
Fe19 Fe32 2.664497 1_556
Fe19 Fe2 2.766379 1_555
Fe20 Fe6 2.472725 1_555
Fe20 Fe9 2.472725 1_555
Fe20 Fe29 2.542135 1_455
Fe20 Fe26 2.542135 1_555
Fe20 Fe31 2.664979 1_545
Fe20 Fe22 2.664979 1_545
Fe21 Fe8 2.472823 1_555
Fe21 Fe5 2.472823 1_555
Fe21 Fe25 2.542040 1_555
Fe21 Fe28 2.542040 1_455
Fe21 Fe24 2.664913 1_555
Fe21 Fe33 2.664913 1_555
Fe22 Fe6 2.461378 1_565
Fe22 Fe5 2.461439 1_555
Fe22 Fe26 2.478800 1_565
Fe22 Fe27 2.478844 1_555
Fe23 Fe6 2.461359 1_565
Fe23 Fe4 2.461359 1_555
Fe23 Fe27 2.478800 1_554
Fe23 Fe25 2.478800 1_565
Fe24 Fe4 2.461378 1_555
Fe24 Fe5 2.461439 1_555
Fe24 Fe26 2.478800 1_554
Fe24 Fe25 2.478844 1_555
Fe25 Fe6 2.461378 1_555
Fe25 Fe5 2.461439 1_555
Fe26 Fe4 2.461359 1_556
Fe26 Fe6 2.461359 1_555
Fe27 Fe4 2.461378 1_556
Fe27 Fe5 2.461439 1_555
Fe28 Fe9 2.461378 1_655
Fe28 Fe8 2.461439 1_655
Fe28 Fe32 2.478800 1_645
Fe28 Fe33 2.478844 1_655
Fe29 Fe9 2.461359 1_655
Fe29 Fe7 2.461359 1_656
Fe29 Fe31 2.478800 1_645
Fe29 Fe33 2.478800 1_656
Fe30 Fe7 2.461378 1_656
Fe30 Fe8 2.461439 1_655
Fe30 Fe32 2.478800 1_656
Fe30 Fe31 2.478844 1_655
Fe31 Fe9 2.461378 1_565
Fe31 Fe8 2.461439 1_555
Fe32 Fe9 2.461359 1_565
Fe32 Fe7 2.461359 1_555
Fe33 Fe7 2.461378 1_555
Fe33 Fe8 2.461439 1_555
