# generated using pymatgen
data_V2Co3N4
_symmetry_space_group_name_H-M   'P 1'
_cell_length_a   5.52311117
_cell_length_b   7.16219145
_cell_length_c   5.64378144
_cell_angle_alpha   89.99999934
_cell_angle_beta   89.46459274
_cell_angle_gamma   130.41984640
_symmetry_Int_Tables_number   1
_chemical_formula_structural   V2Co3N4
_chemical_formula_sum   'V4 Co6 N8'
_cell_volume   169.95379307
_cell_formula_units_Z   2
loop_
 _symmetry_equiv_pos_site_id
 _symmetry_equiv_pos_as_xyz
  1  'x, y, z'
loop_
 _atom_site_type_symbol
 _atom_site_label
 _atom_site_symmetry_multiplicity
 _atom_site_fract_x
 _atom_site_fract_y
 _atom_site_fract_z
 _atom_site_occupancy
  V  V0  1  0.64233300  0.19458200  0.65298500  1
  V  V1  1  0.35766700  0.55224900  0.84701500  1
  V  V2  1  0.35766700  0.80541800  0.34701500  1
  V  V3  1  0.64233300  0.44775100  0.15298500  1
  Co  Co0  1  0.24252800  0.01468500  0.01120600  1
  Co  Co1  1  0.75747200  0.77215700  0.48879400  1
  Co  Co2  1  0.75747200  0.98531500  0.98879400  1
  Co  Co3  1  0.24252800  0.22784300  0.51120600  1
  Co  Co4  1  0.00000000  0.66749800  0.75000000  1
  Co  Co5  1  0.00000000  0.33250200  0.25000000  1
  N  N0  1  0.21397200  0.94489600  0.53031800  1
  N  N1  1  0.78602800  0.73092400  0.96968200  1
  N  N2  1  0.78602800  0.05510400  0.46968200  1
  N  N3  1  0.21397200  0.26907600  0.03031800  1
  N  N4  1  0.70352000  0.24154000  0.99350400  1
  N  N5  1  0.29648000  0.53801900  0.50649600  1
  N  N6  1  0.29648000  0.75846000  0.00649600  1
  N  N7  1  0.70352000  0.46198100  0.49350400  1
loop_
_geom_bond_atom_site_label_1
_geom_bond_atom_site_label_2
_geom_bond_distance
_geom_bond_site_symmetry_2
Co0 N3 1.930934 1_555
Co0 N4 1.939912 1_554
Co0 N1 1.976997 1_444
Co0 N6 2.041124 1_545
Co1 N2 1.930934 1_565
Co1 N5 1.939912 1_555
Co1 N0 1.976997 1_655
Co1 N7 2.041117 1_555
Co2 N1 1.930934 1_555
Co2 N6 1.939912 1_556
Co2 N3 1.976997 1_666
Co2 N4 2.041124 1_565
Co3 N0 1.930934 1_545
Co3 N7 1.939912 1_555
Co3 N2 1.976997 1_455
Co3 N5 2.041117 1_555
Co4 N1 1.951659 1_455
Co4 N0 1.951660 1_555
Co4 N7 1.965269 1_455
Co4 N6 1.965270 1_556
Co5 N3 1.951659 1_555
Co5 N2 1.951660 1_455
Co5 N5 1.965269 1_555
Co5 N4 1.965270 1_454
N0 V2 1.926346 1_555
N0 V0 1.954180 1_565
N1 V3 1.926346 1_556
N1 V1 1.954180 1_555
N2 V0 1.926346 1_555
N2 V2 1.954180 1_545
N3 V1 1.926346 1_554
N3 V3 1.954180 1_555
N4 V3 1.935767 1_556
N4 V0 1.945621 1_555
N5 V2 1.935773 1_555
N5 V1 1.945620 1_555
N6 V1 1.935767 1_554
N6 V2 1.945621 1_555
N7 V0 1.935773 1_555
N7 V3 1.945620 1_555
