# generated using pymatgen
data_RbLaMg14
_symmetry_space_group_name_H-M   'P 1'
_cell_length_a   6.83950171
_cell_length_b   6.83950108
_cell_length_c   10.51759781
_cell_angle_alpha   90.00000000
_cell_angle_beta   90.00000000
_cell_angle_gamma   120.00000302
_symmetry_Int_Tables_number   1
_chemical_formula_structural   RbLaMg14
_chemical_formula_sum   'Rb1 La1 Mg14'
_cell_volume   426.08482059
_cell_formula_units_Z   1
loop_
 _symmetry_equiv_pos_site_id
 _symmetry_equiv_pos_as_xyz
  1  'x, y, z'
loop_
 _atom_site_type_symbol
 _atom_site_label
 _atom_site_symmetry_multiplicity
 _atom_site_fract_x
 _atom_site_fract_y
 _atom_site_fract_z
 _atom_site_occupancy
  Rb  Rb0  1  0.16666700  0.33333300  0.62500000  1
  La  La0  1  0.16666700  0.33333300  0.12500000  1
  Mg  Mg0  1  0.17329770  0.83664835  0.12500000  1
  Mg  Mg1  1  0.17116532  0.83558216  0.62500000  1
  Mg  Mg2  1  0.66335165  0.32670230  0.12500000  1
  Mg  Mg3  1  0.66441784  0.32883468  0.62500000  1
  Mg  Mg4  1  0.66335165  0.83664835  0.12500000  1
  Mg  Mg5  1  0.66441784  0.83558216  0.62500000  1
  Mg  Mg6  1  0.34191435  0.15808565  0.37040151  1
  Mg  Mg7  1  0.34191435  0.15808565  0.87959849  1
  Mg  Mg8  1  0.34191435  0.68382970  0.37040151  1
  Mg  Mg9  1  0.34191435  0.68382970  0.87959849  1
  Mg  Mg10  1  0.81617030  0.15808565  0.37040151  1
  Mg  Mg11  1  0.81617030  0.15808565  0.87959849  1
  Mg  Mg12  1  0.83333300  0.66666700  0.37397421  1
  Mg  Mg13  1  0.83333300  0.66666700  0.87602579  1
loop_
_geom_bond_atom_site_label_1
_geom_bond_atom_site_label_2
_geom_bond_distance
_geom_bond_site_symmetry_2
La0 Mg7 3.312355 1_554
La0 Mg6 3.312355 1_555
La0 Mg9 3.312362 1_554
La0 Mg8 3.312362 1_555
La0 Mg11 3.312363 1_454
La0 Mg10 3.312363 1_455
La0 Mg0 3.419976 1_555
La0 Mg4 3.419976 1_555
La0 Mg0 3.419976 1_545
La0 Mg4 3.419976 1_445
La0 Mg2 3.419976 1_555
La0 Mg2 3.419976 1_455
Mg0 Mg8 3.207736 1_555
Mg0 Mg9 3.207736 1_554
Mg0 Mg7 3.207742 1_564
Mg0 Mg6 3.207742 1_565
Mg0 Mg13 3.303332 1_454
Mg0 Mg12 3.303332 1_455
Mg0 Mg2 3.351725 1_565
Mg0 Mg4 3.351725 1_555
Mg0 Mg2 3.487777 1_455
Mg0 Mg4 3.487777 1_455
Mg1 Mg8 3.289930 1_555
Mg1 Mg9 3.289930 1_555
Mg1 Mg6 3.289937 1_565
Mg1 Mg7 3.289937 1_565
Mg1 Mg12 3.312818 1_455
Mg1 Mg13 3.312818 1_455
Mg1 Mg3 3.373601 1_565
Mg1 Mg5 3.373601 1_555
Mg1 Rb0 3.419854 1_555
Mg1 Rb0 3.419854 1_565
Mg1 Mg3 3.465900 1_455
Mg1 Mg5 3.465900 1_455
Mg2 Mg6 3.207743 1_555
Mg2 Mg7 3.207743 1_554
Mg2 Mg4 3.351725 1_545
Mg2 Mg4 3.487777 1_555
Mg3 Mg6 3.289937 1_555
Mg3 Mg7 3.289937 1_555
Mg3 Mg5 3.373601 1_545
Mg3 Rb0 3.419855 1_555
Mg3 Rb0 3.419855 1_655
Mg3 Mg5 3.465900 1_555
Mg4 Mg9 3.207743 1_554
Mg4 Mg8 3.207743 1_555
Mg5 Mg8 3.289937 1_555
Mg5 Mg9 3.289937 1_555
Mg5 Rb0 3.419854 1_555
Mg5 Rb0 3.419854 1_665
Mg6 Rb0 3.388271 1_555
Mg7 Rb0 3.388271 1_555
Mg8 Rb0 3.388278 1_555
Mg9 Rb0 3.388278 1_555
Mg10 Mg2 3.207736 1_555
Mg10 Mg4 3.207743 1_545
Mg10 Mg3 3.289930 1_555
Mg10 Mg5 3.289937 1_545
Mg10 Rb0 3.388278 1_655
Mg10 Mg12 3.421468 1_555
Mg10 Mg12 3.421468 1_545
Mg11 Mg2 3.207736 1_556
Mg11 Mg4 3.207743 1_546
Mg11 Mg3 3.289930 1_555
Mg11 Mg5 3.289937 1_545
Mg11 Rb0 3.388278 1_655
Mg11 Mg13 3.421468 1_555
Mg11 Mg13 3.421468 1_545
Mg12 Mg4 3.303324 1_555
Mg12 Mg2 3.303331 1_555
Mg12 Mg5 3.312811 1_555
Mg12 Mg3 3.312818 1_555
Mg12 Mg6 3.421468 1_555
Mg12 Mg6 3.421468 1_665
Mg12 Mg8 3.421468 1_555
Mg12 Mg8 3.421468 1_655
Mg13 Mg4 3.303324 1_556
Mg13 Mg2 3.303331 1_556
Mg13 Mg5 3.312811 1_555
Mg13 Mg3 3.312818 1_555
Mg13 Mg7 3.421468 1_555
Mg13 Mg7 3.421468 1_665
Mg13 Mg9 3.421468 1_555
Mg13 Mg9 3.421468 1_655
