# generated using pymatgen
data_Nb2SiNi3
_symmetry_space_group_name_H-M   'P 1'
_cell_length_a   4.87179815
_cell_length_b   4.87179815
_cell_length_c   7.70530100
_cell_angle_alpha   90.00000000
_cell_angle_beta   90.00000000
_cell_angle_gamma   120.00000200
_symmetry_Int_Tables_number   1
_chemical_formula_structural   Nb2SiNi3
_chemical_formula_sum   'Nb4 Si2 Ni6'
_cell_volume   158.37944014
_cell_formula_units_Z   2
loop_
 _symmetry_equiv_pos_site_id
 _symmetry_equiv_pos_as_xyz
  1  'x, y, z'
loop_
 _atom_site_type_symbol
 _atom_site_label
 _atom_site_symmetry_multiplicity
 _atom_site_fract_x
 _atom_site_fract_y
 _atom_site_fract_z
 _atom_site_occupancy
  Nb  Nb0  1  0.33333300  0.66666700  0.43992700  1
  Nb  Nb1  1  0.66666700  0.33333300  0.56007300  1
  Nb  Nb2  1  0.66666700  0.33333300  0.93992700  1
  Nb  Nb3  1  0.33333300  0.66666700  0.06007300  1
  Si  Si0  1  0.00000000  0.00000000  0.50000000  1
  Si  Si1  1  0.00000000  0.00000000  0.00000000  1
  Ni  Ni0  1  0.83112400  0.16887600  0.25000000  1
  Ni  Ni1  1  0.83112400  0.66224700  0.25000000  1
  Ni  Ni2  1  0.33775300  0.16887600  0.25000000  1
  Ni  Ni3  1  0.16887600  0.83112400  0.75000000  1
  Ni  Ni4  1  0.16887600  0.33775300  0.75000000  1
  Ni  Ni5  1  0.66224700  0.83112400  0.75000000  1
loop_
_geom_bond_atom_site_label_1
_geom_bond_atom_site_label_2
_geom_bond_distance
_geom_bond_site_symmetry_2
Nb0 Ni5 2.762983 1_555
Nb0 Ni4 2.762983 1_555
Nb0 Ni3 2.762983 1_555
Nb0 Ni2 2.841760 1_565
Nb0 Ni1 2.841760 1_455
Nb0 Ni0 2.841764 1_455
Nb0 Ni0 2.841764 1_565
Nb0 Ni1 2.841768 1_555
Nb0 Ni2 2.841768 1_555
Nb0 Si0 2.850564 1_565
Nb0 Si0 2.850568 1_665
Nb0 Si0 2.850568 1_555
Nb0 Nb3 2.926889 1_555
Nb0 Nb1 2.961164 1_455
Nb0 Nb1 2.961164 1_565
Nb0 Nb1 2.961172 1_555
Nb1 Ni1 2.762983 1_555
Nb1 Ni2 2.762983 1_555
Nb1 Ni0 2.762983 1_555
Nb1 Ni4 2.841760 1_655
Nb1 Ni5 2.841760 1_545
Nb1 Ni3 2.841764 1_655
Nb1 Ni3 2.841764 1_545
Nb1 Ni5 2.841768 1_555
Nb1 Ni4 2.841768 1_555
Nb1 Si0 2.850564 1_655
Nb1 Si0 2.850568 1_555
Nb1 Si0 2.850568 1_665
Nb1 Nb2 2.926889 1_555
Nb2 Ni2 2.762983 1_556
Nb2 Ni1 2.762983 1_556
Nb2 Ni0 2.762983 1_556
Nb2 Ni4 2.841760 1_655
Nb2 Ni5 2.841760 1_545
Nb2 Ni3 2.841764 1_545
Nb2 Ni3 2.841764 1_655
Nb2 Ni5 2.841768 1_555
Nb2 Ni4 2.841768 1_555
Nb2 Si1 2.850564 1_656
Nb2 Si1 2.850568 1_556
Nb2 Si1 2.850568 1_666
Nb2 Nb3 2.961164 1_656
Nb2 Nb3 2.961164 1_546
Nb2 Nb3 2.961172 1_556
Nb3 Ni4 2.762983 1_554
Nb3 Ni5 2.762983 1_554
Nb3 Ni3 2.762983 1_554
Nb3 Ni2 2.841760 1_565
Nb3 Ni1 2.841760 1_455
Nb3 Ni0 2.841764 1_455
Nb3 Ni0 2.841764 1_565
Nb3 Ni2 2.841768 1_555
Nb3 Ni1 2.841768 1_555
Nb3 Si1 2.850564 1_565
Nb3 Si1 2.850568 1_665
Nb3 Si1 2.850568 1_555
Ni0 Si1 2.396118 1_655
Ni0 Si0 2.396118 1_655
Ni0 Ni2 2.403604 1_555
Ni0 Ni1 2.403604 1_555
Ni0 Ni1 2.468194 1_545
Ni0 Ni2 2.468194 1_655
Ni1 Si1 2.396121 1_665
Ni1 Si0 2.396121 1_665
Ni1 Ni2 2.403604 1_555
Ni1 Ni2 2.468194 1_665
Ni2 Si1 2.396121 1_555
Ni2 Si0 2.396121 1_555
Ni3 Si1 2.396118 1_566
Ni3 Si0 2.396118 1_565
Ni3 Ni5 2.403604 1_555
Ni3 Ni4 2.403604 1_555
Ni3 Ni4 2.468194 1_565
Ni3 Ni5 2.468194 1_455
Ni4 Si1 2.396121 1_556
Ni4 Si0 2.396121 1_555
Ni4 Ni5 2.403604 1_555
Ni4 Ni5 2.468194 1_445
Ni5 Si1 2.396121 1_666
Ni5 Si0 2.396121 1_665
