# generated using pymatgen
data_NaSrPrSbO6
_symmetry_space_group_name_H-M   'P 1'
_cell_length_a   8.49678733
_cell_length_b   8.56080746
_cell_length_c   8.50940699
_cell_angle_alpha   90.00000000
_cell_angle_beta   90.00000000
_cell_angle_gamma   90.00000000
_symmetry_Int_Tables_number   1
_chemical_formula_structural   NaSrPrSbO6
_chemical_formula_sum   'Na4 Sr4 Pr4 Sb4 O24'
_cell_volume   618.96882150
_cell_formula_units_Z   4
loop_
 _symmetry_equiv_pos_site_id
 _symmetry_equiv_pos_as_xyz
  1  'x, y, z'
loop_
 _atom_site_type_symbol
 _atom_site_label
 _atom_site_symmetry_multiplicity
 _atom_site_fract_x
 _atom_site_fract_y
 _atom_site_fract_z
 _atom_site_occupancy
  Na  Na0  1  0.00000000  -0.00000000  0.00000000  1
  Na  Na1  1  0.50000000  0.50000000  0.50000000  1
  Na  Na2  1  0.00000000  0.50000000  0.50000000  1
  Na  Na3  1  0.50000000  -0.00000000  0.00000000  1
  Sr  Sr0  1  0.50000000  -0.00000000  0.50000000  1
  Sr  Sr1  1  0.50000000  0.50000000  0.00000000  1
  Sr  Sr2  1  0.00000000  0.50000000  0.00000000  1
  Sr  Sr3  1  0.00000000  -0.00000000  0.50000000  1
  Pr  Pr0  1  0.75000000  0.75000000  0.75000000  1
  Pr  Pr1  1  0.25000000  0.25000000  0.75000000  1
  Pr  Pr2  1  0.25000000  0.75000000  0.25000000  1
  Pr  Pr3  1  0.75000000  0.25000000  0.25000000  1
  Sb  Sb0  1  0.25000000  0.25000000  0.25000000  1
  Sb  Sb1  1  0.75000000  0.75000000  0.25000000  1
  Sb  Sb2  1  0.75000000  0.25000000  0.75000000  1
  Sb  Sb3  1  0.25000000  0.75000000  0.75000000  1
  O  O0  1  0.02188150  0.20246044  0.27755969  1
  O  O1  1  0.97811850  0.79753956  0.27755969  1
  O  O2  1  0.97811850  0.20246044  0.72244031  1
  O  O3  1  0.02188150  0.79753956  0.72244031  1
  O  O4  1  0.29428106  0.02200778  0.21432293  1
  O  O5  1  0.29428106  0.97799222  0.78567707  1
  O  O6  1  0.70571894  0.97799222  0.21432293  1
  O  O7  1  0.70571894  0.02200778  0.78567707  1
  O  O8  1  0.21705474  0.29454264  0.02029624  1
  O  O9  1  0.78294526  0.29454264  0.97970376  1
  O  O10  1  0.21705474  0.70545736  0.97970376  1
  O  O11  1  0.78294526  0.70545736  0.02029624  1
  O  O12  1  0.47811850  0.29753956  0.22244031  1
  O  O13  1  0.52188150  0.70246044  0.22244031  1
  O  O14  1  0.52188150  0.29753956  0.77755969  1
  O  O15  1  0.47811850  0.70246044  0.77755969  1
  O  O16  1  0.20571894  0.47799222  0.28567707  1
  O  O17  1  0.20571894  0.52200778  0.71432293  1
  O  O18  1  0.79428106  0.52200778  0.28567707  1
  O  O19  1  0.79428106  0.47799222  0.71432293  1
  O  O20  1  0.28294526  0.20545736  0.47970376  1
  O  O21  1  0.71705474  0.20545736  0.52029624  1
  O  O22  1  0.28294526  0.79454264  0.52029624  1
  O  O23  1  0.71705474  0.79454264  0.47970376  1
loop_
_geom_bond_atom_site_label_1
_geom_bond_atom_site_label_2
_geom_bond_distance
_geom_bond_site_symmetry_2
Na0 O3 2.935483 1_544
Na0 O1 2.935483 1_445
Na0 O0 2.935483 1_555
Na0 O2 2.935483 1_454
Na1 O13 2.935483 1_555
Na1 O15 2.935483 1_555
Na1 O12 2.935483 1_555
Na1 O14 2.935483 1_555
Na2 O17 2.533166 1_555
Na2 O16 2.533166 1_555
Na2 O19 2.533166 1_455
Na2 O18 2.533166 1_455
Na3 O6 2.533166 1_545
Na3 O4 2.533166 1_555
Na3 O7 2.533166 1_554
Na3 O5 2.533166 1_544
O0 Sb0 1.994376 1_555
O0 Pr3 2.357388 1_455
O0 Sr3 2.573220 1_555
O1 Sb1 1.994376 1_555
O1 Pr2 2.357388 1_655
O1 Sr3 2.573220 1_665
O2 Sb2 1.994376 1_555
O2 Pr1 2.357388 1_655
O2 Sr3 2.573220 1_655
O3 Sb3 1.994376 1_555
O3 Pr0 2.357388 1_455
O3 Sr3 2.573220 1_565
O4 Sb0 2.010782 1_555
O4 Pr2 2.378263 1_545
O4 Sr0 3.000051 1_555
O5 Sb3 2.010782 1_555
O5 Pr1 2.378263 1_565
O5 Sr0 3.000051 1_565
O6 Sb1 2.010782 1_555
O6 Pr3 2.378263 1_565
O6 Sr0 3.000051 1_565
O7 Sb2 2.010782 1_555
O7 Pr0 2.378263 1_545
O7 Sr0 3.000051 1_555
O8 Sb0 2.011068 1_555
O8 Pr1 2.348200 1_554
O8 Sr2 2.554372 1_555
O8 Sr1 2.983842 1_555
O9 Sb2 2.011068 1_555
O9 Pr3 2.348200 1_556
O9 Sr2 2.554372 1_656
O9 Sr1 2.983842 1_556
O10 Sb3 2.011068 1_555
O10 Pr2 2.348200 1_556
O10 Sr2 2.554372 1_556
O10 Sr1 2.983842 1_556
O11 Sb1 2.011068 1_555
O11 Pr0 2.348200 1_554
O11 Sr2 2.554372 1_655
O11 Sr1 2.983842 1_555
O12 Sb0 1.994376 1_555
O12 Pr3 2.357388 1_555
O12 Sr1 2.573220 1_555
O13 Sb1 1.994376 1_555
O13 Pr2 2.357388 1_555
O13 Sr1 2.573220 1_555
O14 Sb2 1.994376 1_555
O14 Pr1 2.357388 1_555
O14 Sr1 2.573220 1_556
O15 Sb3 1.994376 1_555
O15 Pr0 2.357388 1_555
O15 Sr1 2.573220 1_556
O16 Sb0 2.010782 1_555
O16 Pr2 2.378263 1_555
O16 Sr2 3.000051 1_555
O17 Sb3 2.010782 1_555
O17 Pr1 2.378263 1_555
O17 Sr2 3.000051 1_556
O18 Sb1 2.010782 1_555
O18 Pr3 2.378263 1_555
O18 Sr2 3.000051 1_655
O19 Sb2 2.010782 1_555
O19 Pr0 2.378263 1_555
O19 Sr2 3.000051 1_656
O20 Sb0 2.011068 1_555
O20 Pr1 2.348200 1_555
O20 Sr0 2.554372 1_555
O20 Sr3 2.983842 1_555
O21 Sb2 2.011068 1_555
O21 Pr3 2.348200 1_555
O21 Sr0 2.554372 1_555
O21 Sr3 2.983842 1_655
O22 Sb3 2.011068 1_555
O22 Pr2 2.348200 1_555
O22 Sr0 2.554372 1_565
O22 Sr3 2.983842 1_565
O23 Sb1 2.011068 1_555
O23 Pr0 2.348200 1_555
O23 Sr0 2.554372 1_565
O23 Sr3 2.983842 1_665
