# generated using pymatgen
data_CuBi2Se3O11
_symmetry_space_group_name_H-M   'P 1'
_cell_length_a   8.74518218
_cell_length_b   8.74518218
_cell_length_c   11.00444000
_cell_angle_alpha   90.00000000
_cell_angle_beta   90.00000000
_cell_angle_gamma   142.03437852
_symmetry_Int_Tables_number   1
_chemical_formula_structural   CuBi2Se3O11
_chemical_formula_sum   'Cu2 Bi4 Se6 O22'
_cell_volume   517.74260983
_cell_formula_units_Z   2
loop_
 _symmetry_equiv_pos_site_id
 _symmetry_equiv_pos_as_xyz
  1  'x, y, z'
loop_
 _atom_site_type_symbol
 _atom_site_label
 _atom_site_symmetry_multiplicity
 _atom_site_fract_x
 _atom_site_fract_y
 _atom_site_fract_z
 _atom_site_occupancy
  Cu  Cu0  1  0.99950500  0.49950500  0.39606900  1
  Cu  Cu1  1  0.49950500  0.99950500  0.60393100  1
  Bi  Bi0  1  0.90417500  0.06995800  0.12106500  1
  Bi  Bi1  1  0.06995800  0.90417500  0.87893500  1
  Bi  Bi2  1  0.40417500  0.56995800  0.87893500  1
  Bi  Bi3  1  0.56995800  0.40417500  0.12106500  1
  Se  Se0  1  0.15945000  0.65945000  0.12231500  1
  Se  Se1  1  0.65945000  0.15945000  0.87768500  1
  Se  Se2  1  0.40816000  0.56667000  0.35155000  1
  Se  Se3  1  0.56667000  0.40816000  0.64845000  1
  Se  Se4  1  0.90816000  0.06667000  0.64845000  1
  Se  Se5  1  0.06667000  0.90816000  0.35155000  1
  O  O0  1  0.92289000  0.42289000  0.22682000  1
  O  O1  1  0.42289000  0.92289000  0.77318000  1
  O  O2  1  0.96832700  0.63162000  0.03605400  1
  O  O3  1  0.63162000  0.96832700  0.96394600  1
  O  O4  1  0.46832700  0.13162000  0.96394600  1
  O  O5  1  0.13162000  0.46832700  0.03605400  1
  O  O6  1  0.28953100  0.34625400  0.23838800  1
  O  O7  1  0.34625400  0.28953100  0.76161200  1
  O  O8  1  0.78953100  0.84625400  0.76161200  1
  O  O9  1  0.84625400  0.78953100  0.23838800  1
  O  O10  1  0.11406600  0.38642700  0.40954600  1
  O  O11  1  0.38642700  0.11406600  0.59045400  1
  O  O12  1  0.61406600  0.88642700  0.59045400  1
  O  O13  1  0.88642700  0.61406600  0.40954600  1
  O  O14  1  0.50244800  0.79224500  0.26879800  1
  O  O15  1  0.79224500  0.50244800  0.73120200  1
  O  O16  1  0.00244800  0.29224500  0.73120200  1
  O  O17  1  0.29224500  0.00244800  0.26879800  1
  O  O18  1  0.19962000  0.19962000  0.00000000  1
  O  O19  1  0.69962000  0.69962000  0.00000000  1
  O  O20  1  0.11465400  0.61465400  0.54588100  1
  O  O21  1  0.61465400  0.11465400  0.45411900  1
loop_
_geom_bond_atom_site_label_1
_geom_bond_atom_site_label_2
_geom_bond_distance
_geom_bond_site_symmetry_2
Cu0 O20 1.773995 1_655
Cu0 O10 1.888318 1_655
Cu0 O13 1.888318 1_555
Cu0 O0 1.912817 1_555
Cu0 O21 2.280834 1_555
Cu1 O21 1.773995 1_565
Cu1 O11 1.888318 1_565
Cu1 O12 1.888318 1_555
Cu1 O1 1.912817 1_555
Cu1 O20 2.280834 1_555
Bi0 O18 2.262035 1_655
Bi0 O9 2.445195 1_545
Bi0 O6 2.454154 1_655
Bi0 O5 2.458108 1_655
Bi0 O3 2.473942 1_544
Bi0 O19 2.515729 1_545
Bi0 O14 2.725868 1_545
Bi1 O18 2.262035 1_566
Bi1 O8 2.445195 1_455
Bi1 O7 2.454154 1_565
Bi1 O4 2.458108 1_565
Bi1 O2 2.473942 1_456
Bi1 O19 2.515729 1_456
Bi1 O15 2.725868 1_455
Bi2 O19 2.262035 1_556
Bi2 O7 2.445195 1_555
Bi2 O8 2.454154 1_555
Bi2 O3 2.458108 1_555
Bi2 O5 2.473942 1_556
Bi2 O18 2.515729 1_556
Bi2 O16 2.725868 1_555
Bi3 O19 2.262035 1_555
Bi3 O6 2.445195 1_555
Bi3 O9 2.454154 1_555
Bi3 O2 2.458108 1_555
Bi3 O4 2.473942 1_554
Bi3 O18 2.515729 1_555
Bi3 O17 2.725868 1_555
O0 Se0 1.770286 1_655
O1 Se1 1.770286 1_565
O2 Se0 1.764231 1_655
O3 Se1 1.764231 1_565
O4 Se1 1.764231 1_555
O5 Se0 1.764231 1_555
O6 Se2 1.785906 1_555
O7 Se3 1.785906 1_555
O8 Se4 1.785906 1_565
O9 Se5 1.785906 1_655
O10 Se2 1.764778 1_555
O11 Se3 1.764778 1_555
O12 Se4 1.764778 1_565
O13 Se5 1.764778 1_655
O14 Se2 1.684017 1_555
O15 Se3 1.684017 1_555
O16 Se4 1.684017 1_455
O17 Se5 1.684017 1_545
