# generated using pymatgen
data_Na2TePH3O11
_symmetry_space_group_name_H-M   'P 1'
_cell_length_a   6.01027403
_cell_length_b   6.01027403
_cell_length_c   15.23391500
_cell_angle_alpha   90.00000000
_cell_angle_beta   90.00000000
_cell_angle_gamma   120.00000031
_symmetry_Int_Tables_number   1
_chemical_formula_structural   Na2TePH3O11
_chemical_formula_sum   'Na4 Te2 P2 H6 O22'
_cell_volume   476.57439488
_cell_formula_units_Z   2
loop_
 _symmetry_equiv_pos_site_id
 _symmetry_equiv_pos_as_xyz
  1  'x, y, z'
loop_
 _atom_site_type_symbol
 _atom_site_label
 _atom_site_symmetry_multiplicity
 _atom_site_fract_x
 _atom_site_fract_y
 _atom_site_fract_z
 _atom_site_occupancy
  Na  Na0  1  0.66666700  0.33333300  0.94920200  1
  Na  Na1  1  0.33333300  0.66666700  0.44920200  1
  Na  Na2  1  0.66666700  0.33333300  0.72919300  1
  Na  Na3  1  0.33333300  0.66666700  0.22919300  1
  Te  Te0  1  0.66666700  0.33333300  0.27965200  1
  Te  Te1  1  0.33333300  0.66666700  0.77965200  1
  P  P0  1  0.00000000  0.00000000  0.99346500  1
  P  P1  1  0.00000000  0.00000000  0.49346500  1
  H  H0  1  0.81145300  0.29593400  0.54540200  1
  H  H1  1  0.48448100  0.18854700  0.54540200  1
  H  H2  1  0.18854700  0.70406600  0.04540200  1
  H  H3  1  0.70406600  0.51551900  0.54540200  1
  H  H4  1  0.51551900  0.81145300  0.04540200  1
  H  H5  1  0.29593400  0.48448100  0.04540200  1
  O  O0  1  0.60951300  0.91890700  0.70741700  1
  O  O1  1  0.30939400  0.39048700  0.70741700  1
  O  O2  1  0.39048700  0.08109300  0.20741700  1
  O  O3  1  0.08109300  0.69060600  0.70741700  1
  O  O4  1  0.69060600  0.60951300  0.20741700  1
  O  O5  1  0.91890700  0.30939400  0.20741700  1
  O  O6  1  0.66666700  0.33333300  0.56594500  1
  O  O7  1  0.33333300  0.66666700  0.06594500  1
  O  O8  1  0.00000000  0.00000000  0.88856100  1
  O  O9  1  0.00000000  0.00000000  0.38856100  1
  O  O10  1  0.73981600  0.76990300  0.52025700  1
  O  O11  1  0.03008700  0.26018400  0.52025700  1
  O  O12  1  0.26018400  0.23009700  0.02025700  1
  O  O13  1  0.23009700  0.96991300  0.52025700  1
  O  O14  1  0.96991300  0.73981600  0.02025700  1
  O  O15  1  0.76990300  0.03008700  0.02025700  1
  O  O16  1  0.55559900  0.57403900  0.84158500  1
  O  O17  1  0.01843900  0.44440100  0.84158500  1
  O  O18  1  0.44440100  0.42596100  0.34158500  1
  O  O19  1  0.42596100  0.98156100  0.84158500  1
  O  O20  1  0.98156100  0.55559900  0.34158500  1
  O  O21  1  0.57403900  0.01843900  0.34158500  1
loop_
_geom_bond_atom_site_label_1
_geom_bond_atom_site_label_2
_geom_bond_distance
_geom_bond_site_symmetry_2
Na0 O15 2.451407 1_556
Na0 O14 2.451411 1_556
Na0 O12 2.451412 1_556
Na0 O17 2.488377 1_655
Na0 O19 2.488379 1_545
Na0 O16 2.488386 1_555
Na1 O13 2.451407 1_555
Na1 O11 2.451411 1_555
Na1 O10 2.451412 1_555
Na1 O20 2.488377 1_455
Na1 O21 2.488379 1_565
Na1 O18 2.488386 1_555
Na2 O0 2.361478 1_545
Na2 O3 2.361480 1_655
Na2 O1 2.361484 1_555
Na2 O6 2.486906 1_555
Na2 O17 2.536892 1_655
Na2 O19 2.536894 1_545
Na2 O16 2.536901 1_555
Na3 O2 2.361478 1_565
Na3 O5 2.361480 1_455
Na3 O4 2.361484 1_555
Na3 O7 2.486906 1_555
Na3 O20 2.536892 1_455
Na3 O21 2.536894 1_565
Na3 O18 2.536901 1_555
H0 O6 1.049438 1_555
H0 O11 1.483905 1_655
H1 O6 1.049442 1_555
H1 O13 1.483905 1_545
H2 O7 1.049438 1_555
H2 O14 1.483905 1_455
H3 O6 1.049444 1_555
H3 O10 1.483905 1_555
H4 O7 1.049442 1_555
H4 O15 1.483905 1_565
H5 O7 1.049444 1_555
H5 O12 1.483905 1_555
O0 Te1 1.936006 1_555
O1 Te1 1.936008 1_555
O2 Te0 1.936006 1_555
O3 Te1 1.936003 1_555
O4 Te0 1.936008 1_555
O5 Te0 1.936003 1_555
O8 P0 1.598099 1_555
O9 P1 1.598099 1_555
O10 P1 1.536848 1_665
O11 P1 1.536848 1_555
O12 P0 1.536848 1_554
O13 P1 1.536848 1_565
O14 P0 1.536848 1_664
O15 P0 1.536848 1_654
O16 Te1 1.930901 1_555
O17 Te1 1.930901 1_555
O18 Te0 1.930901 1_555
O19 Te1 1.930901 1_555
O20 Te0 1.930901 1_555
O21 Te0 1.930901 1_555
