# generated using pymatgen
data_Tm2Sn3(PbS4)3
_symmetry_space_group_name_H-M   'P 1'
_cell_length_a   3.93218800
_cell_length_b   11.61593300
_cell_length_c   20.35898900
_cell_angle_alpha   90.00000000
_cell_angle_beta   90.00000000
_cell_angle_gamma   90.00000000
_symmetry_Int_Tables_number   1
_chemical_formula_structural   Tm2Sn3(PbS4)3
_chemical_formula_sum   'Tm4 Sn6 Pb6 S24'
_cell_volume   929.91784021
_cell_formula_units_Z   2
loop_
 _symmetry_equiv_pos_site_id
 _symmetry_equiv_pos_as_xyz
  1  'x, y, z'
loop_
 _atom_site_type_symbol
 _atom_site_label
 _atom_site_symmetry_multiplicity
 _atom_site_fract_x
 _atom_site_fract_y
 _atom_site_fract_z
 _atom_site_occupancy
  Tm  Tm0  1  0.50000000  0.64667300  0.41234100  1
  Tm  Tm1  1  0.50000000  0.14667300  0.58765900  1
  Tm  Tm2  1  0.50000000  0.82559900  0.89459500  1
  Tm  Tm3  1  0.50000000  0.32559900  0.10540500  1
  Sn  Sn0  1  0.00000000  0.00145300  0.75046100  1
  Sn  Sn1  1  0.00000000  0.50145300  0.24953900  1
  Sn  Sn2  1  0.00000000  0.52003600  0.91217800  1
  Sn  Sn3  1  0.00000000  0.02003600  0.08782200  1
  Sn  Sn4  1  0.00000000  0.99249800  0.42682000  1
  Sn  Sn5  1  0.00000000  0.49249800  0.57318000  1
  Pb  Pb0  1  0.50000000  0.40320600  0.74132500  1
  Pb  Pb1  1  0.50000000  0.90320600  0.25867500  1
  Pb  Pb2  1  0.50000000  0.19884400  0.91480800  1
  Pb  Pb3  1  0.50000000  0.69884400  0.08519200  1
  Pb  Pb4  1  0.50000000  0.77133900  0.62191300  1
  Pb  Pb5  1  0.50000000  0.27133900  0.37808700  1
  S  S0  1  0.00000000  0.98835900  0.87607000  1
  S  S1  1  0.00000000  0.48835900  0.12393000  1
  S  S2  1  0.00000000  0.98675700  0.62627000  1
  S  S3  1  0.00000000  0.48675700  0.37373000  1
  S  S4  1  0.00000000  0.68229500  0.50828700  1
  S  S5  1  0.00000000  0.18229500  0.49171300  1
  S  S6  1  0.50000000  0.64666900  0.25824300  1
  S  S7  1  0.50000000  0.14666900  0.74175700  1
  S  S8  1  0.50000000  0.84956900  0.75759400  1
  S  S9  1  0.50000000  0.34956900  0.24240600  1
  S  S10  1  0.50000000  0.60316200  0.84169900  1
  S  S11  1  0.50000000  0.10316200  0.15830100  1
  S  S12  1  0.50000000  0.43772300  0.98345400  1
  S  S13  1  0.50000000  0.93772300  0.01654600  1
  S  S14  1  0.50000000  0.93777300  0.49398400  1
  S  S15  1  0.50000000  0.43777300  0.50601600  1
  S  S16  1  0.00000000  0.33766600  0.84279200  1
  S  S17  1  0.00000000  0.83766600  0.15720800  1
  S  S18  1  0.00000000  0.71624700  0.96817900  1
  S  S19  1  0.00000000  0.21624700  0.03182100  1
  S  S20  1  0.00000000  0.80253000  0.36149700  1
  S  S21  1  0.00000000  0.30253000  0.63850300  1
  S  S22  1  0.00000000  0.60090200  0.67649900  1
  S  S23  1  0.00000000  0.10090200  0.32350100  1
loop_
_geom_bond_atom_site_label_1
_geom_bond_atom_site_label_2
_geom_bond_distance
_geom_bond_site_symmetry_2
Pb0 S16 2.951695 1_555
Pb0 S16 2.951695 1_655
Pb0 S7 2.979930 1_555
Pb0 S10 3.093666 1_555
Pb0 S21 3.100847 1_555
Pb0 S21 3.100847 1_655
Pb1 S17 2.951695 1_555
Pb1 S17 2.951695 1_655
Pb1 S6 2.979930 1_555
Pb1 S11 3.093666 1_565
Pb1 S20 3.100847 1_555
Pb1 S20 3.100847 1_655
Pb2 S16 2.935217 1_555
Pb2 S16 2.935217 1_655
Pb2 S19 3.095413 1_556
Pb2 S19 3.095413 1_656
Pb2 S12 3.106881 1_555
Pb2 S0 3.235034 1_645
Pb2 S0 3.235034 1_545
Pb3 S17 2.935217 1_555
Pb3 S17 2.935217 1_655
Pb3 S18 3.095413 1_654
Pb3 S18 3.095413 1_554
Pb3 S13 3.106881 1_555
Pb3 S1 3.235034 1_555
Pb3 S1 3.235034 1_655
Pb4 S8 2.907958 1_555
Pb4 S22 3.003347 1_555
Pb4 S22 3.003347 1_655
Pb4 S2 3.183521 1_555
Pb4 S2 3.183521 1_655
Pb4 S4 3.207299 1_655
Pb4 S4 3.207299 1_555
Pb4 S14 3.243616 1_555
Pb5 S9 2.907958 1_555
Pb5 S23 3.003347 1_555
Pb5 S23 3.003347 1_655
Pb5 S3 3.183521 1_555
Pb5 S3 3.183521 1_655
Pb5 S5 3.207299 1_555
Pb5 S5 3.207299 1_655
Pb5 S15 3.243616 1_555
S0 Sn0 2.561791 1_565
S0 Tm2 2.753574 1_455
S0 Tm2 2.753574 1_555
S1 Sn1 2.561791 1_555
S1 Tm3 2.753574 1_455
S1 Tm3 2.753574 1_555
S2 Sn0 2.534159 1_565
S2 Tm1 2.816741 1_565
S2 Tm1 2.816741 1_465
S3 Sn1 2.534159 1_555
S3 Tm0 2.816741 1_455
S3 Tm0 2.816741 1_555
S4 Sn5 2.570218 1_555
S4 Tm0 2.802208 1_455
S4 Tm0 2.802208 1_555
S5 Sn4 2.570218 1_545
S5 Tm1 2.802208 1_555
S5 Tm1 2.802208 1_455
S6 Sn1 2.596591 1_555
S6 Sn1 2.596591 1_655
S6 Tm0 3.137279 1_555
S7 Sn0 2.596591 1_555
S7 Sn0 2.596591 1_655
S7 Tm1 3.137279 1_555
S8 Sn0 2.645615 1_665
S8 Sn0 2.645615 1_565
S8 Tm2 2.803065 1_555
S9 Sn1 2.645615 1_555
S9 Sn1 2.645615 1_655
S9 Tm3 2.803065 1_555
S10 Sn2 2.618543 1_555
S10 Sn2 2.618543 1_655
S10 Tm2 2.799254 1_555
S11 Sn3 2.618543 1_655
S11 Sn3 2.618543 1_555
S11 Tm3 2.799254 1_555
S12 Sn2 2.624013 1_655
S12 Sn2 2.624013 1_555
S12 Tm3 2.803676 1_556
S13 Sn3 2.624013 1_565
S13 Sn3 2.624013 1_665
S13 Tm2 2.803676 1_554
S14 Sn4 2.477776 1_555
S14 Sn4 2.477776 1_655
S14 Tm1 3.086320 1_565
S15 Sn5 2.477776 1_655
S15 Sn5 2.477776 1_555
S15 Tm0 3.086320 1_555
S16 Sn2 2.546199 1_555
S17 Sn3 2.546199 1_565
S18 Sn2 2.548434 1_555
S18 Tm2 2.779081 1_455
S18 Tm2 2.779081 1_555
S19 Sn3 2.548434 1_555
S19 Tm3 2.779081 1_555
S19 Tm3 2.779081 1_455
S20 Sn4 2.576430 1_555
S20 Tm0 2.866123 1_455
S20 Tm0 2.866123 1_555
S21 Sn5 2.576430 1_555
S21 Tm1 2.866123 1_555
S21 Tm1 2.866123 1_455
S22 Sn5 2.451572 1_555
S23 Sn4 2.451572 1_545
