# generated using pymatgen
data_Lu2CuTe2(SO7)2
_symmetry_space_group_name_H-M   'P 1'
_cell_length_a   5.35981100
_cell_length_b   8.16509692
_cell_length_c   8.22576632
_cell_angle_alpha   114.87432555
_cell_angle_beta   106.21779600
_cell_angle_gamma   96.81016313
_symmetry_Int_Tables_number   1
_chemical_formula_structural   Lu2CuTe2(SO7)2
_chemical_formula_sum   'Lu2 Cu1 Te2 S2 O14'
_cell_volume   301.86309483
_cell_formula_units_Z   1
loop_
 _symmetry_equiv_pos_site_id
 _symmetry_equiv_pos_as_xyz
  1  'x, y, z'
loop_
 _atom_site_type_symbol
 _atom_site_label
 _atom_site_symmetry_multiplicity
 _atom_site_fract_x
 _atom_site_fract_y
 _atom_site_fract_z
 _atom_site_occupancy
  Lu  Lu0  1  0.17071900  0.23352800  0.52951300  1
  Lu  Lu1  1  0.82928100  0.76647200  0.47048700  1
  Cu  Cu0  1  0.50000000  0.50000000  0.00000000  1
  Te  Te0  1  0.12700700  0.76452100  0.14513800  1
  Te  Te1  1  0.87299300  0.23547900  0.85486200  1
  S  S0  1  0.58721000  0.27348800  0.27138100  1
  S  S1  1  0.41279000  0.72651200  0.72861900  1
  O  O0  1  0.38390000  0.18175500  0.32229100  1
  O  O1  1  0.61610000  0.81824500  0.67770900  1
  O  O2  1  0.29866000  0.52520100  0.58297300  1
  O  O3  1  0.70134000  0.47479900  0.41702700  1
  O  O4  1  0.81241000  0.18162900  0.28014400  1
  O  O5  1  0.18759000  0.81837100  0.71985600  1
  O  O6  1  0.45844700  0.24972500  0.07716500  1
  O  O7  1  0.54155300  0.75027500  0.92283500  1
  O  O8  1  0.88608400  0.57423100  0.15312500  1
  O  O9  1  0.11391600  0.42576900  0.84687500  1
  O  O10  1  0.44698100  0.69491400  0.23092500  1
  O  O11  1  0.55301900  0.30508600  0.76907500  1
  O  O12  1  0.12581600  0.92469100  0.39243400  1
  O  O13  1  0.87418400  0.07530900  0.60756600  1
loop_
_geom_bond_atom_site_label_1
_geom_bond_atom_site_label_2
_geom_bond_distance
_geom_bond_site_symmetry_2
Lu0 O2 2.213269 1_555
Lu0 O11 2.217030 1_555
Lu0 O4 2.225017 1_455
Lu0 O0 2.232949 1_555
Lu0 O12 2.236224 1_545
Lu0 O13 2.321225 1_455
Lu0 O9 2.545892 1_555
Lu1 O3 2.213269 1_555
Lu1 O10 2.217030 1_555
Lu1 O5 2.225017 1_655
Lu1 O1 2.232949 1_555
Lu1 O13 2.236224 1_565
Lu1 O12 2.321225 1_655
Lu1 O8 2.545892 1_555
Cu0 O8 1.959698 1_555
Cu0 O9 1.959698 1_554
Cu0 O10 2.021733 1_555
Cu0 O11 2.021733 1_554
Cu0 O7 2.385519 1_554
Cu0 O6 2.385519 1_555
O0 S0 1.499681 1_555
O1 S1 1.499681 1_555
O2 S1 1.485551 1_555
O3 S0 1.485551 1_555
O4 S0 1.495413 1_555
O5 S1 1.495413 1_555
O6 S0 1.468946 1_555
O7 S1 1.468946 1_555
O8 Te0 1.934764 1_655
O9 Te1 1.934764 1_455
O10 Te0 1.911745 1_555
O11 Te1 1.911745 1_555
O12 Te0 1.902515 1_555
O13 Te1 1.902515 1_555
