# generated using pymatgen
data_RuN3Cl5O
_symmetry_space_group_name_H-M   'P 1'
_cell_length_a   6.89210800
_cell_length_b   10.52763000
_cell_length_c   13.47315700
_cell_angle_alpha   90.00000000
_cell_angle_beta   90.00000000
_cell_angle_gamma   90.00000000
_symmetry_Int_Tables_number   1
_chemical_formula_structural   RuN3Cl5O
_chemical_formula_sum   'Ru4 N12 Cl20 O4'
_cell_volume   977.57943708
_cell_formula_units_Z   4
loop_
 _symmetry_equiv_pos_site_id
 _symmetry_equiv_pos_as_xyz
  1  'x, y, z'
loop_
 _atom_site_type_symbol
 _atom_site_label
 _atom_site_symmetry_multiplicity
 _atom_site_fract_x
 _atom_site_fract_y
 _atom_site_fract_z
 _atom_site_occupancy
  Ru  Ru0  1  0.32228500  0.75000000  0.11016400  1
  Ru  Ru1  1  0.82228500  0.25000000  0.38983600  1
  Ru  Ru2  1  0.67771500  0.25000000  0.88983600  1
  Ru  Ru3  1  0.17771500  0.75000000  0.61016400  1
  N  N0  1  0.16748400  0.50061500  0.85886700  1
  N  N1  1  0.66748400  0.49938500  0.64113300  1
  N  N2  1  0.83251600  0.00061500  0.14113300  1
  N  N3  1  0.33251600  0.99938500  0.35886700  1
  N  N4  1  0.16748400  0.99938500  0.85886700  1
  N  N5  1  0.66748400  0.00061500  0.64113300  1
  N  N6  1  0.83251600  0.49938500  0.14113300  1
  N  N7  1  0.33251600  0.50061500  0.35886700  1
  N  N8  1  0.49191600  0.75000000  0.00921000  1
  N  N9  1  0.99191600  0.25000000  0.49079000  1
  N  N10  1  0.50808400  0.25000000  0.99079000  1
  N  N11  1  0.00808400  0.75000000  0.50921000  1
  Cl  Cl0  1  0.42344000  0.25000000  0.77453300  1
  Cl  Cl1  1  0.92344000  0.75000000  0.72546700  1
  Cl  Cl2  1  0.57656000  0.75000000  0.22546700  1
  Cl  Cl3  1  0.07656000  0.25000000  0.27453300  1
  Cl  Cl4  1  0.31457500  0.97194300  0.11199200  1
  Cl  Cl5  1  0.81457500  0.02805700  0.38800800  1
  Cl  Cl6  1  0.68542500  0.47194300  0.88800800  1
  Cl  Cl7  1  0.18542500  0.52805700  0.61199200  1
  Cl  Cl8  1  0.31457500  0.52805700  0.11199200  1
  Cl  Cl9  1  0.81457500  0.47194300  0.38800800  1
  Cl  Cl10  1  0.68542500  0.02805700  0.88800800  1
  Cl  Cl11  1  0.18542500  0.97194300  0.61199200  1
  Cl  Cl12  1  0.05329700  0.75000000  0.00504900  1
  Cl  Cl13  1  0.55329700  0.25000000  0.49495100  1
  Cl  Cl14  1  0.94670300  0.25000000  0.99495100  1
  Cl  Cl15  1  0.44670300  0.75000000  0.50504900  1
  Cl  Cl16  1  0.11202500  0.75000000  0.24343000  1
  Cl  Cl17  1  0.61202500  0.25000000  0.25657000  1
  Cl  Cl18  1  0.88797500  0.25000000  0.75657000  1
  Cl  Cl19  1  0.38797500  0.75000000  0.74343000  1
  O  O0  1  0.60732900  0.75000000  0.94745800  1
  O  O1  1  0.10732900  0.25000000  0.55254200  1
  O  O2  1  0.39267100  0.25000000  0.05254200  1
  O  O3  1  0.89267100  0.75000000  0.44745800  1
loop_
_geom_bond_atom_site_label_1
_geom_bond_atom_site_label_2
_geom_bond_distance
_geom_bond_site_symmetry_2
N8 O0 1.151059 1_554
N8 Ru0 1.793569 1_555
N9 O1 1.151059 1_655
N9 Ru1 1.793569 1_555
N10 O2 1.151059 1_556
N10 Ru2 1.793569 1_555
N11 O3 1.151059 1_455
N11 Ru3 1.793569 1_555
Cl0 Ru2 2.341916 1_555
Cl1 Ru3 2.341916 1_655
Cl2 Ru0 2.341916 1_555
Cl3 Ru1 2.341916 1_455
Cl4 Ru0 2.337268 1_555
Cl5 Ru1 2.337268 1_555
Cl6 Ru2 2.337268 1_555
Cl7 Ru3 2.337268 1_555
Cl8 Ru0 2.337268 1_555
Cl9 Ru1 2.337268 1_555
Cl10 Ru2 2.337268 1_555
Cl11 Ru3 2.337268 1_555
Cl12 Ru0 2.332945 1_555
Cl13 Ru1 2.332945 1_555
Cl14 Ru2 2.332945 1_555
Cl15 Ru3 2.332945 1_555
Cl16 Ru0 2.307349 1_555
Cl17 Ru1 2.307349 1_555
Cl18 Ru2 2.307349 1_555
Cl19 Ru3 2.307349 1_555
