# generated using pymatgen
data_Zr4FeBiPb4O15
_symmetry_space_group_name_H-M   'P 1'
_cell_length_a   15.52270810
_cell_length_b   15.52270810
_cell_length_c   5.94281112
_cell_angle_alpha   79.24113679
_cell_angle_beta   79.24113679
_cell_angle_gamma   141.60979425
_symmetry_Int_Tables_number   1
_chemical_formula_structural   Zr4FeBiPb4O15
_chemical_formula_sum   'Zr8 Fe2 Bi2 Pb8 O30'
_cell_volume   732.02419669
_cell_formula_units_Z   2
loop_
 _symmetry_equiv_pos_site_id
 _symmetry_equiv_pos_as_xyz
  1  'x, y, z'
loop_
 _atom_site_type_symbol
 _atom_site_label
 _atom_site_symmetry_multiplicity
 _atom_site_fract_x
 _atom_site_fract_y
 _atom_site_fract_z
 _atom_site_occupancy
  Zr  Zr0  1  0.37493600  0.47648100  0.67081400  1
  Zr  Zr1  1  0.27398500  0.57441400  0.16537900  1
  Zr  Zr2  1  0.97733600  0.87515800  0.67139800  1
  Zr  Zr3  1  0.87515800  0.97733600  0.17139800  1
  Zr  Zr4  1  0.57441400  0.27398500  0.66537900  1
  Zr  Zr5  1  0.47648100  0.37493600  0.17081400  1
  Zr  Zr6  1  0.07541300  0.77362700  0.16609900  1
  Zr  Zr7  1  0.77362700  0.07541300  0.66609900  1
  Fe  Fe0  1  0.17401700  0.67473500  0.68412500  1
  Fe  Fe1  1  0.67473500  0.17401700  0.18412500  1
  Bi  Bi0  1  0.38991000  0.88821400  0.04082500  1
  Bi  Bi1  1  0.88821400  0.38991000  0.54082500  1
  Pb  Pb0  1  0.00005100  0.31096700  0.98275100  1
  Pb  Pb1  1  0.60608100  0.70530700  0.98428700  1
  Pb  Pb2  1  0.49586800  0.80513200  0.48077000  1
  Pb  Pb3  1  0.20416400  0.10456600  0.98619800  1
  Pb  Pb4  1  0.10456600  0.20416400  0.48619800  1
  Pb  Pb5  1  0.80513200  0.49586800  0.98077000  1
  Pb  Pb6  1  0.70530700  0.60608100  0.48428700  1
  Pb  Pb7  1  0.31096700  0.00005100  0.48275100  1
  O  O0  1  0.36567200  0.57492700  0.37755100  1
  O  O1  1  0.80958400  0.02590400  0.38128600  1
  O  O2  1  0.37366100  0.56909400  0.87865300  1
  O  O3  1  0.96662700  0.97260000  0.37678200  1
  O  O4  1  0.04174400  0.32538300  0.38136600  1
  O  O5  1  0.41113300  0.42587000  0.37619800  1
  O  O6  1  0.82284500  0.01121600  0.87878800  1
  O  O7  1  0.97260000  0.96662700  0.87678200  1
  O  O8  1  0.56909400  0.37366100  0.37865300  1
  O  O9  1  0.12371300  0.24407700  0.87690000  1
  O  O10  1  0.64436300  0.72326000  0.37706200  1
  O  O11  1  0.01121600  0.82284500  0.37878800  1
  O  O12  1  0.42587000  0.41113300  0.87619800  1
  O  O13  1  0.57492700  0.36567200  0.87755100  1
  O  O14  1  0.17815000  0.77976900  0.36736400  1
  O  O15  1  0.72326000  0.64436300  0.87706200  1
  O  O16  1  0.24407700  0.12371300  0.37690000  1
  O  O17  1  0.61341900  0.22564100  0.36547700  1
  O  O18  1  0.02590400  0.80958400  0.88128600  1
  O  O19  1  0.17934800  0.76854900  0.87107500  1
  O  O20  1  0.76854900  0.17934800  0.37107500  1
  O  O21  1  0.32538300  0.04174400  0.88136600  1
  O  O22  1  0.84869500  0.51843700  0.38694000  1
  O  O23  1  0.21459200  0.63483600  0.36569600  1
  O  O24  1  0.63483600  0.21459200  0.86569600  1
  O  O25  1  0.77976900  0.17815000  0.86736400  1
  O  O26  1  0.92994500  0.45158300  0.85371300  1
  O  O27  1  0.45158300  0.92994500  0.35371300  1
  O  O28  1  0.22564100  0.61341900  0.86547700  1
  O  O29  1  0.51843700  0.84869500  0.88694000  1
loop_
_geom_bond_atom_site_label_1
_geom_bond_atom_site_label_2
_geom_bond_distance
_geom_bond_site_symmetry_2
Fe0 O19 1.952258 1_555
Fe0 O28 1.960784 1_555
Fe0 O26 2.016648 1_455
Fe0 O14 2.202508 1_555
Fe0 O23 2.228316 1_555
Fe0 O27 2.300800 1_555
Fe1 O20 1.952258 1_555
Fe1 O17 1.960784 1_555
Fe1 O27 2.016648 1_545
Fe1 O25 2.202508 1_554
Fe1 O24 2.228316 1_554
Fe1 O26 2.300800 1_554
Bi0 O27 2.221660 1_555
Bi0 O23 2.242146 1_555
Bi0 O14 2.264772 1_555
Bi0 O29 2.576783 1_554
Bi0 O19 2.750339 1_554
Bi0 O24 2.750376 1_564
Bi1 O26 2.221660 1_555
Bi1 O24 2.242146 1_555
Bi1 O25 2.264772 1_555
Bi1 O22 2.576783 1_555
Bi1 O20 2.750339 1_555
Bi1 O23 2.750376 1_655
O0 Zr1 2.066759 1_555
O0 Zr0 2.199320 1_555
O0 Pb1 2.573461 1_554
O0 Pb2 2.681454 1_555
O1 Zr3 2.059203 1_545
O1 Zr7 2.138307 1_555
O1 Pb0 2.625905 1_654
O1 Pb2 2.795674 1_545
O2 Zr0 2.071499 1_555
O2 Zr1 2.138402 1_556
O2 Pb2 2.609479 1_555
O2 Pb1 2.695168 1_555
O3 Zr3 2.070816 1_555
O3 Zr2 2.212471 1_555
O3 Pb3 2.523625 1_664
O3 Pb4 2.693574 1_665
O4 Zr1 2.039891 1_555
O4 Zr7 2.201097 1_455
O4 Pb0 2.573687 1_554
O4 Pb4 2.746862 1_555
O5 Zr5 2.073423 1_555
O5 Zr0 2.199226 1_555
O5 Pb1 2.533197 1_554
O5 Pb4 2.691217 1_555
O6 Zr7 2.063513 1_555
O6 Zr3 2.194328 1_546
O6 Pb4 2.566613 1_655
O6 Pb1 2.705095 1_545
O7 Zr2 2.070816 1_555
O7 Zr3 2.212471 1_556
O7 Pb4 2.523625 1_665
O7 Pb3 2.693574 1_665
O8 Zr5 2.071499 1_555
O8 Zr4 2.138402 1_555
O8 Pb5 2.609479 1_554
O8 Pb6 2.695168 1_555
O9 Zr0 2.058077 1_555
O9 Zr3 2.196322 1_446
O9 Pb4 2.523752 1_555
O9 Pb0 2.841828 1_555
O10 Zr3 2.073527 1_555
O10 Zr0 2.208161 1_555
O10 Pb1 2.525934 1_554
O10 Pb6 2.664447 1_555
O11 Zr6 2.063513 1_555
O11 Zr2 2.194328 1_455
O11 Pb3 2.566613 1_564
O11 Pb6 2.705095 1_455
O12 Zr0 2.073423 1_555
O12 Zr5 2.199226 1_556
O12 Pb6 2.533197 1_555
O12 Pb3 2.691217 1_555
O13 Zr4 2.066759 1_555
O13 Zr5 2.199320 1_556
O13 Pb6 2.573461 1_555
O13 Pb5 2.681454 1_555
O14 Zr6 2.121162 1_555
O14 Pb7 2.600973 1_565
O15 Zr2 2.073527 1_555
O15 Zr5 2.208161 1_556
O15 Pb6 2.525934 1_555
O15 Pb1 2.664447 1_555
O16 Zr5 2.058077 1_555
O16 Zr2 2.196322 1_445
O16 Pb3 2.523752 1_554
O16 Pb7 2.841828 1_555
O17 Zr4 2.216957 1_555
O17 Pb5 2.447298 1_554
O17 Pb7 2.623977 1_555
O18 Zr2 2.059203 1_455
O18 Zr6 2.138307 1_556
O18 Pb7 2.625905 1_565
O18 Pb5 2.795674 1_455
O19 Zr6 2.208609 1_556
O19 Pb7 2.459206 1_565
O20 Zr7 2.208609 1_555
O20 Pb0 2.459206 1_654
O21 Zr4 2.039891 1_555
O21 Zr6 2.201097 1_546
O21 Pb7 2.573687 1_555
O21 Pb3 2.746862 1_555
O22 Zr6 2.068897 1_655
O22 Zr4 2.227924 1_555
O22 Pb5 2.638209 1_554
O23 Zr1 2.123539 1_555
O24 Zr4 2.123539 1_555
O25 Zr7 2.121162 1_555
O25 Pb0 2.600973 1_655
O26 Pb5 2.555728 1_555
O27 Pb2 2.555728 1_555
O28 Zr1 2.216957 1_556
O28 Pb2 2.447298 1_555
O28 Pb0 2.623977 1_555
O29 Zr7 2.068897 1_565
O29 Zr1 2.227924 1_556
O29 Pb2 2.638209 1_555
