# generated using pymatgen
data_Hf6Al2Pt
_symmetry_space_group_name_H-M   'P 1'
_cell_length_a   15.80680184
_cell_length_b   15.80680184
_cell_length_c   6.66731484
_cell_angle_alpha   90.00000000
_cell_angle_beta   90.00000000
_cell_angle_gamma   120.00000804
_symmetry_Int_Tables_number   1
_chemical_formula_structural   Hf6Al2Pt
_chemical_formula_sum   'Hf48 Al16 Pt8'
_cell_volume   1442.67856046
_cell_formula_units_Z   8
loop_
 _symmetry_equiv_pos_site_id
 _symmetry_equiv_pos_as_xyz
  1  'x, y, z'
loop_
 _atom_site_type_symbol
 _atom_site_label
 _atom_site_symmetry_multiplicity
 _atom_site_fract_x
 _atom_site_fract_y
 _atom_site_fract_z
 _atom_site_occupancy
  Hf  Hf0_0  1  0.00000000  0.36652309  0.25000000  1
  Hf  Hf0_1  1  0.00000000  0.36652309  0.75000000  1
  Hf  Hf0_2  1  0.00000000  0.86652309  0.25000000  1
  Hf  Hf0_3  1  0.00000000  0.86652309  0.75000000  1
  Hf  Hf0_4  1  0.50000000  0.36652309  0.25000000  1
  Hf  Hf0_5  1  0.50000000  0.36652309  0.75000000  1
  Hf  Hf0_6  1  0.50000000  0.86652309  0.25000000  1
  Hf  Hf0_7  1  0.50000000  0.86652309  0.75000000  1
  Hf  Hf1_0  1  0.13347691  0.13347691  0.25000000  1
  Hf  Hf1_1  1  0.13347691  0.13347691  0.75000000  1
  Hf  Hf1_2  1  0.13347691  0.63347691  0.25000000  1
  Hf  Hf1_3  1  0.13347691  0.63347691  0.75000000  1
  Hf  Hf1_4  1  0.63347691  0.13347691  0.25000000  1
  Hf  Hf1_5  1  0.63347691  0.13347691  0.75000000  1
  Hf  Hf1_6  1  0.63347691  0.63347691  0.25000000  1
  Hf  Hf1_7  1  0.63347691  0.63347691  0.75000000  1
  Hf  Hf2_0  1  0.36652309  0.00000000  0.25000000  1
  Hf  Hf2_1  1  0.36652309  0.00000000  0.75000000  1
  Hf  Hf2_2  1  0.36652309  0.50000000  0.25000000  1
  Hf  Hf2_3  1  0.36652309  0.50000000  0.75000000  1
  Hf  Hf2_4  1  0.86652309  0.00000000  0.25000000  1
  Hf  Hf2_5  1  0.86652309  0.00000000  0.75000000  1
  Hf  Hf2_6  1  0.86652309  0.50000000  0.25000000  1
  Hf  Hf2_7  1  0.86652309  0.50000000  0.75000000  1
  Hf  Hf3_0  1  0.00000000  0.19944054  0.00000000  1
  Hf  Hf3_1  1  0.00000000  0.19944054  0.50000000  1
  Hf  Hf3_2  1  0.00000000  0.69944054  0.00000000  1
  Hf  Hf3_3  1  0.00000000  0.69944054  0.50000000  1
  Hf  Hf3_4  1  0.50000000  0.19944053  0.00000000  1
  Hf  Hf3_5  1  0.50000000  0.19944053  0.50000000  1
  Hf  Hf3_6  1  0.50000000  0.69944053  0.00000000  1
  Hf  Hf3_7  1  0.50000000  0.69944053  0.50000000  1
  Hf  Hf4_0  1  0.30055947  0.30055947  0.00000000  1
  Hf  Hf4_1  1  0.30055947  0.30055947  0.50000000  1
  Hf  Hf4_2  1  0.30055947  0.80055947  0.00000000  1
  Hf  Hf4_3  1  0.30055947  0.80055947  0.50000000  1
  Hf  Hf4_4  1  0.80055947  0.30055947  0.00000000  1
  Hf  Hf4_5  1  0.80055947  0.30055947  0.50000000  1
  Hf  Hf4_6  1  0.80055947  0.80055946  0.00000000  1
  Hf  Hf4_7  1  0.80055947  0.80055946  0.50000000  1
  Hf  Hf5_0  1  0.19944054  0.00000000  0.00000000  1
  Hf  Hf5_1  1  0.19944054  0.00000000  0.50000000  1
  Hf  Hf5_2  1  0.19944054  0.50000000  0.00000000  1
  Hf  Hf5_3  1  0.19944054  0.50000000  0.50000000  1
  Hf  Hf5_4  1  0.69944054  1.00000000  0.00000000  1
  Hf  Hf5_5  1  0.69944054  1.00000000  0.50000000  1
  Hf  Hf5_6  1  0.69944054  0.50000000  0.00000000  1
  Hf  Hf5_7  1  0.69944054  0.50000000  0.50000000  1
  Al  Al0_0  1  0.16666650  0.33333350  0.25000000  1
  Al  Al0_1  1  0.16666650  0.33333350  0.75000000  1
  Al  Al0_2  1  0.16666650  0.83333350  0.25000000  1
  Al  Al0_3  1  0.16666650  0.83333350  0.75000000  1
  Al  Al0_4  1  0.66666650  0.33333350  0.25000000  1
  Al  Al0_5  1  0.66666650  0.33333350  0.75000000  1
  Al  Al0_6  1  0.66666650  0.83333350  0.25000000  1
  Al  Al0_7  1  0.66666650  0.83333350  0.75000000  1
  Al  Al1_0  1  0.33333350  0.16666650  0.25000000  1
  Al  Al1_1  1  0.33333350  0.16666650  0.75000000  1
  Al  Al1_2  1  0.33333350  0.66666650  0.25000000  1
  Al  Al1_3  1  0.33333350  0.66666650  0.75000000  1
  Al  Al1_4  1  0.83333350  0.16666650  0.25000000  1
  Al  Al1_5  1  0.83333350  0.16666650  0.75000000  1
  Al  Al1_6  1  0.83333350  0.66666650  0.25000000  1
  Al  Al1_7  1  0.83333350  0.66666650  0.75000000  1
  Pt  Pt0_0  1  0.00000000  0.00000000  0.00000000  1
  Pt  Pt0_1  1  0.00000000  0.00000000  0.50000000  1
  Pt  Pt0_2  1  0.00000000  0.50000000  0.00000000  1
  Pt  Pt0_3  1  0.00000000  0.50000000  0.50000000  1
  Pt  Pt0_4  1  0.50000000  0.00000000  0.00000000  1
  Pt  Pt0_5  1  0.50000000  0.00000000  0.50000000  1
  Pt  Pt0_6  1  0.50000000  0.50000000  0.00000000  1
  Pt  Pt0_7  1  0.50000000  0.50000000  0.50000000  1
loop_
_geom_bond_atom_site_label_1
_geom_bond_atom_site_label_2
_geom_bond_distance
_geom_bond_site_symmetry_2
Hf0_0 Pt0_3 2.688821 1_555
Hf0_0 Pt0_2 2.688821 1_555
Hf0_0 Hf3_1 3.123046 1_555
Hf0_0 Hf3_0 3.123046 1_555
Hf0_0 Hf5_2 3.242962 1_555
Hf0_0 Hf5_3 3.242962 1_555
Hf0_0 Hf4_4 3.242962 1_455
Hf0_0 Hf4_5 3.242962 1_455
Hf0_0 Hf0_1 3.333657 1_555
Hf0_0 Hf0_1 3.333657 1_554
Hf0_1 Pt0_2 2.688821 1_556
Hf0_1 Pt0_3 2.688821 1_555
Hf0_1 Hf3_1 3.123046 1_555
Hf0_1 Hf3_0 3.123046 1_556
Hf0_1 Hf5_2 3.242962 1_556
Hf0_1 Hf5_3 3.242962 1_555
Hf0_1 Hf4_4 3.242962 1_456
Hf0_1 Hf4_5 3.242962 1_455
Hf0_2 Pt0_0 2.688821 1_565
Hf0_2 Pt0_1 2.688821 1_565
Hf0_2 Hf3_2 3.123046 1_555
Hf0_2 Hf3_3 3.123046 1_555
Hf0_2 Hf5_0 3.242962 1_565
Hf0_2 Hf5_1 3.242962 1_565
Hf0_2 Hf4_7 3.242962 1_455
Hf0_2 Hf4_6 3.242962 1_455
Hf0_2 Hf0_3 3.333657 1_554
Hf0_2 Hf0_3 3.333657 1_555
Hf0_3 Pt0_0 2.688821 1_566
Hf0_3 Pt0_1 2.688821 1_565
Hf0_3 Hf3_2 3.123046 1_556
Hf0_3 Hf3_3 3.123046 1_555
Hf0_3 Hf5_0 3.242962 1_566
Hf0_3 Hf5_1 3.242962 1_565
Hf0_3 Hf4_6 3.242962 1_456
Hf0_3 Hf4_7 3.242962 1_455
Hf0_4 Pt0_6 2.688821 1_555
Hf0_4 Pt0_7 2.688821 1_555
Hf0_4 Hf3_5 3.123046 1_555
Hf0_4 Hf3_4 3.123046 1_555
Hf0_4 Hf5_7 3.242962 1_555
Hf0_4 Hf5_6 3.242962 1_555
Hf0_4 Hf4_1 3.242962 1_555
Hf0_4 Hf4_0 3.242962 1_555
Hf0_4 Hf0_5 3.333657 1_555
Hf0_4 Hf0_5 3.333657 1_554
Hf0_5 Pt0_6 2.688821 1_556
Hf0_5 Pt0_7 2.688821 1_555
Hf0_5 Hf3_4 3.123046 1_556
Hf0_5 Hf3_5 3.123046 1_555
Hf0_5 Hf5_6 3.242962 1_556
Hf0_5 Hf5_7 3.242962 1_555
Hf0_5 Hf4_0 3.242962 1_556
Hf0_5 Hf4_1 3.242962 1_555
Hf0_6 Pt0_4 2.688821 1_565
Hf0_6 Pt0_5 2.688821 1_565
Hf0_6 Hf3_6 3.123046 1_555
Hf0_6 Hf3_7 3.123046 1_555
Hf0_6 Hf5_4 3.242962 1_555
Hf0_6 Hf5_5 3.242962 1_555
Hf0_6 Hf4_3 3.242962 1_555
Hf0_6 Hf4_2 3.242962 1_555
Hf0_6 Hf0_7 3.333657 1_554
Hf0_6 Hf0_7 3.333657 1_555
Hf0_7 Pt0_4 2.688821 1_566
Hf0_7 Pt0_5 2.688821 1_565
Hf0_7 Hf3_6 3.123046 1_556
Hf0_7 Hf3_7 3.123046 1_555
Hf0_7 Hf5_5 3.242962 1_555
Hf0_7 Hf5_4 3.242962 1_556
Hf0_7 Hf4_3 3.242962 1_555
Hf0_7 Hf4_2 3.242962 1_556
Hf1_0 Pt0_0 2.688820 1_555
Hf1_0 Pt0_1 2.688820 1_555
Hf1_0 Hf4_0 3.123045 1_555
Hf1_0 Hf4_1 3.123045 1_555
Hf1_0 Hf5_1 3.242962 1_555
Hf1_0 Hf5_0 3.242962 1_555
Hf1_0 Hf3_1 3.242962 1_555
Hf1_0 Hf3_0 3.242962 1_555
Hf1_0 Hf1_1 3.333657 1_554
Hf1_0 Hf1_1 3.333657 1_555
Hf1_1 Pt0_0 2.688820 1_556
Hf1_1 Pt0_1 2.688820 1_555
Hf1_1 Hf4_0 3.123045 1_556
Hf1_1 Hf4_1 3.123045 1_555
Hf1_1 Hf5_0 3.242962 1_556
Hf1_1 Hf3_1 3.242962 1_555
Hf1_1 Hf3_0 3.242962 1_556
Hf1_1 Hf5_1 3.242962 1_555
Hf1_2 Pt0_3 2.688820 1_555
Hf1_2 Pt0_2 2.688820 1_555
Hf1_2 Hf4_2 3.123045 1_555
Hf1_2 Hf4_3 3.123045 1_555
Hf1_2 Hf5_2 3.242962 1_555
Hf1_2 Hf5_3 3.242962 1_555
Hf1_2 Hf3_3 3.242962 1_555
Hf1_2 Hf3_2 3.242962 1_555
Hf1_2 Hf1_3 3.333657 1_555
Hf1_2 Hf1_3 3.333657 1_554
Hf1_3 Pt0_3 2.688820 1_555
Hf1_3 Pt0_2 2.688820 1_556
Hf1_3 Hf4_2 3.123045 1_556
Hf1_3 Hf4_3 3.123045 1_555
Hf1_3 Hf5_2 3.242962 1_556
Hf1_3 Hf5_3 3.242962 1_555
Hf1_3 Hf3_2 3.242962 1_556
Hf1_3 Hf3_3 3.242962 1_555
Hf1_4 Pt0_4 2.688820 1_555
Hf1_4 Pt0_5 2.688820 1_555
Hf1_4 Hf4_4 3.123045 1_555
Hf1_4 Hf4_5 3.123045 1_555
Hf1_4 Hf5_4 3.242962 1_545
Hf1_4 Hf5_5 3.242962 1_545
Hf1_4 Hf3_4 3.242962 1_555
Hf1_4 Hf3_5 3.242962 1_555
Hf1_4 Hf1_5 3.333657 1_555
Hf1_4 Hf1_5 3.333657 1_554
Hf1_5 Pt0_4 2.688820 1_556
Hf1_5 Pt0_5 2.688820 1_555
Hf1_5 Hf4_4 3.123045 1_556
Hf1_5 Hf4_5 3.123045 1_555
Hf1_5 Hf5_5 3.242962 1_545
Hf1_5 Hf5_4 3.242962 1_546
Hf1_5 Hf3_4 3.242962 1_556
Hf1_5 Hf3_5 3.242962 1_555
Hf1_6 Pt0_6 2.688820 1_555
Hf1_6 Pt0_7 2.688820 1_555
Hf1_6 Hf4_6 3.123045 1_555
Hf1_6 Hf4_7 3.123045 1_555
Hf1_6 Hf5_6 3.242962 1_555
Hf1_6 Hf5_7 3.242962 1_555
Hf1_6 Hf3_6 3.242962 1_555
Hf1_6 Hf3_7 3.242962 1_555
Hf1_6 Hf1_7 3.333657 1_555
Hf1_6 Hf1_7 3.333657 1_554
Hf1_7 Pt0_6 2.688820 1_556
Hf1_7 Pt0_7 2.688820 1_555
Hf1_7 Hf4_6 3.123045 1_556
Hf1_7 Hf4_7 3.123045 1_555
Hf1_7 Hf5_6 3.242962 1_556
Hf1_7 Hf5_7 3.242962 1_555
Hf1_7 Hf3_7 3.242962 1_555
Hf1_7 Hf3_6 3.242962 1_556
Hf2_0 Pt0_4 2.688821 1_555
Hf2_0 Pt0_5 2.688821 1_555
Hf2_0 Hf5_1 3.123046 1_555
Hf2_0 Hf5_0 3.123046 1_555
Hf2_0 Hf3_4 3.242962 1_555
Hf2_0 Hf3_5 3.242962 1_555
Hf2_0 Hf4_3 3.242962 1_545
Hf2_0 Hf4_2 3.242962 1_545
Hf2_0 Hf2_1 3.333657 1_554
Hf2_0 Hf2_1 3.333657 1_555
Hf2_1 Pt0_4 2.688821 1_556
Hf2_1 Pt0_5 2.688821 1_555
Hf2_1 Hf5_0 3.123046 1_556
Hf2_1 Hf5_1 3.123046 1_555
Hf2_1 Hf3_4 3.242962 1_556
Hf2_1 Hf3_5 3.242962 1_555
Hf2_1 Hf4_2 3.242962 1_546
Hf2_1 Hf4_3 3.242962 1_545
Hf2_2 Pt0_7 2.688821 1_555
Hf2_2 Pt0_6 2.688821 1_555
Hf2_2 Hf5_2 3.123046 1_555
Hf2_2 Hf5_3 3.123046 1_555
Hf2_2 Hf3_7 3.242962 1_555
Hf2_2 Hf3_6 3.242962 1_555
Hf2_2 Hf4_0 3.242962 1_555
Hf2_2 Hf4_1 3.242962 1_555
Hf2_2 Hf2_3 3.333657 1_555
Hf2_2 Hf2_3 3.333657 1_554
Hf2_3 Pt0_6 2.688821 1_556
Hf2_3 Pt0_7 2.688821 1_555
Hf2_3 Hf5_2 3.123046 1_556
Hf2_3 Hf5_3 3.123046 1_555
Hf2_3 Hf3_6 3.242962 1_556
Hf2_3 Hf3_7 3.242962 1_555
Hf2_3 Hf4_0 3.242962 1_556
Hf2_3 Hf4_1 3.242962 1_555
Hf2_4 Pt0_0 2.688821 1_655
Hf2_4 Pt0_1 2.688821 1_655
Hf2_4 Hf5_5 3.123046 1_545
Hf2_4 Hf5_4 3.123046 1_545
Hf2_4 Hf3_1 3.242962 1_655
Hf2_4 Hf3_0 3.242962 1_655
Hf2_4 Hf4_7 3.242962 1_545
Hf2_4 Hf4_6 3.242962 1_545
Hf2_4 Hf2_5 3.333657 1_555
Hf2_4 Hf2_5 3.333657 1_554
Hf2_5 Pt0_1 2.688821 1_655
Hf2_5 Pt0_0 2.688821 1_656
Hf2_5 Hf5_5 3.123046 1_545
Hf2_5 Hf5_4 3.123046 1_546
Hf2_5 Hf3_1 3.242962 1_655
Hf2_5 Hf3_0 3.242962 1_656
Hf2_5 Hf4_6 3.242962 1_546
Hf2_5 Hf4_7 3.242962 1_545
Hf2_6 Pt0_2 2.688821 1_655
Hf2_6 Pt0_3 2.688821 1_655
Hf2_6 Hf5_7 3.123046 1_555
Hf2_6 Hf5_6 3.123046 1_555
Hf2_6 Hf3_2 3.242962 1_655
Hf2_6 Hf3_3 3.242962 1_655
Hf2_6 Hf4_4 3.242962 1_555
Hf2_6 Hf4_5 3.242962 1_555
Hf2_6 Hf2_7 3.333657 1_555
Hf2_6 Hf2_7 3.333657 1_554
Hf2_7 Pt0_2 2.688821 1_656
Hf2_7 Pt0_3 2.688821 1_655
Hf2_7 Hf5_7 3.123046 1_555
Hf2_7 Hf5_6 3.123046 1_556
Hf2_7 Hf3_2 3.242962 1_656
Hf2_7 Hf3_3 3.242962 1_655
Hf2_7 Hf4_4 3.242962 1_556
Hf2_7 Hf4_5 3.242962 1_555
Hf3_0 Pt0_0 3.152517 1_555
Hf3_0 Hf3_1 3.333657 1_555
Hf3_0 Hf3_1 3.333657 1_554
Hf3_1 Pt0_1 3.152517 1_555
Hf3_2 Pt0_2 3.152517 1_555
Hf3_2 Hf3_3 3.333657 1_555
Hf3_2 Hf3_3 3.333657 1_554
Hf3_3 Pt0_3 3.152517 1_555
Hf3_4 Pt0_4 3.152517 1_555
Hf3_4 Hf3_5 3.333657 1_555
Hf3_4 Hf3_5 3.333657 1_554
Hf3_5 Pt0_5 3.152517 1_555
Hf3_6 Pt0_6 3.152517 1_555
Hf3_6 Hf3_7 3.333657 1_555
Hf3_6 Hf3_7 3.333657 1_554
Hf3_7 Pt0_7 3.152517 1_555
Hf4_0 Pt0_6 3.152517 1_555
Hf4_0 Hf4_1 3.333657 1_555
Hf4_0 Hf4_1 3.333657 1_554
Hf4_1 Pt0_7 3.152517 1_555
Hf4_2 Pt0_4 3.152517 1_565
Hf4_2 Hf4_3 3.333657 1_555
Hf4_2 Hf4_3 3.333657 1_554
Hf4_3 Pt0_5 3.152517 1_565
Hf4_4 Pt0_2 3.152517 1_655
Hf4_4 Hf4_5 3.333657 1_555
Hf4_4 Hf4_5 3.333657 1_554
Hf4_5 Pt0_3 3.152517 1_655
Hf4_6 Pt0_0 3.152517 1_665
Hf4_6 Hf4_7 3.333657 1_555
Hf4_6 Hf4_7 3.333657 1_554
Hf4_7 Pt0_1 3.152517 1_665
Hf5_0 Pt0_0 3.152517 1_555
Hf5_0 Hf5_1 3.333657 1_555
Hf5_0 Hf5_1 3.333657 1_554
Hf5_1 Pt0_1 3.152517 1_555
Hf5_2 Pt0_2 3.152517 1_555
Hf5_2 Hf5_3 3.333657 1_555
Hf5_2 Hf5_3 3.333657 1_554
Hf5_3 Pt0_3 3.152517 1_555
Hf5_4 Pt0_4 3.152517 1_565
Hf5_4 Hf5_5 3.333657 1_555
Hf5_4 Hf5_5 3.333657 1_554
Hf5_5 Pt0_5 3.152517 1_565
Hf5_6 Pt0_6 3.152517 1_555
Hf5_6 Hf5_7 3.333657 1_555
Hf5_6 Hf5_7 3.333657 1_554
Hf5_7 Pt0_7 3.152517 1_555
Al0_0 Hf0_0 2.932188 1_555
Al0_0 Hf2_2 2.932193 1_555
Al0_0 Hf1_0 2.932196 1_555
Al0_0 Hf5_3 2.936377 1_555
Al0_0 Hf5_2 2.936377 1_555
Al0_0 Hf3_1 2.936379 1_555
Al0_0 Hf3_0 2.936379 1_555
Al0_0 Hf4_0 2.936383 1_555
Al0_0 Hf4_1 2.936383 1_555
Al0_1 Hf0_1 2.932188 1_555
Al0_1 Hf2_3 2.932193 1_555
Al0_1 Hf1_1 2.932196 1_555
Al0_1 Hf5_3 2.936377 1_555
Al0_1 Hf5_2 2.936377 1_556
Al0_1 Hf3_0 2.936379 1_556
Al0_1 Hf3_1 2.936379 1_555
Al0_1 Hf4_0 2.936383 1_556
Al0_1 Hf4_1 2.936383 1_555
Al0_2 Hf0_2 2.932188 1_555
Al0_2 Hf2_0 2.932193 1_565
Al0_2 Hf1_2 2.932196 1_555
Al0_2 Hf5_0 2.936377 1_565
Al0_2 Hf5_1 2.936377 1_565
Al0_2 Hf3_3 2.936379 1_555
Al0_2 Hf3_2 2.936379 1_555
Al0_2 Hf4_2 2.936383 1_555
Al0_2 Hf4_3 2.936383 1_555
Al0_3 Hf0_3 2.932188 1_555
Al0_3 Hf2_1 2.932193 1_565
Al0_3 Hf1_3 2.932196 1_555
Al0_3 Hf5_0 2.936377 1_566
Al0_3 Hf5_1 2.936377 1_565
Al0_3 Hf3_2 2.936379 1_556
Al0_3 Hf3_3 2.936379 1_555
Al0_3 Hf4_2 2.936383 1_556
Al0_3 Hf4_3 2.936383 1_555
Al0_4 Hf0_4 2.932188 1_555
Al0_4 Hf2_6 2.932193 1_555
Al0_4 Hf1_4 2.932196 1_555
Al0_4 Hf5_6 2.936377 1_555
Al0_4 Hf5_7 2.936377 1_555
Al0_4 Hf3_5 2.936379 1_555
Al0_4 Hf3_4 2.936379 1_555
Al0_4 Hf4_4 2.936383 1_555
Al0_4 Hf4_5 2.936383 1_555
Al0_5 Hf0_5 2.932188 1_555
Al0_5 Hf2_7 2.932193 1_555
Al0_5 Hf1_5 2.932196 1_555
Al0_5 Hf5_6 2.936377 1_556
Al0_5 Hf5_7 2.936377 1_555
Al0_5 Hf3_4 2.936379 1_556
Al0_5 Hf3_5 2.936379 1_555
Al0_5 Hf4_4 2.936383 1_556
Al0_5 Hf4_5 2.936383 1_555
Al0_6 Hf0_6 2.932188 1_555
Al0_6 Hf2_4 2.932193 1_565
Al0_6 Hf1_6 2.932196 1_555
Al0_6 Hf5_4 2.936377 1_555
Al0_6 Hf5_5 2.936377 1_555
Al0_6 Hf3_7 2.936379 1_555
Al0_6 Hf3_6 2.936379 1_555
Al0_6 Hf4_6 2.936383 1_555
Al0_6 Hf4_7 2.936383 1_555
Al0_7 Hf0_7 2.932188 1_555
Al0_7 Hf2_5 2.932193 1_565
Al0_7 Hf1_7 2.932196 1_555
Al0_7 Hf5_4 2.936377 1_556
Al0_7 Hf5_5 2.936377 1_555
Al0_7 Hf3_6 2.936379 1_556
Al0_7 Hf3_7 2.936379 1_555
Al0_7 Hf4_6 2.936383 1_556
Al0_7 Hf4_7 2.936383 1_555
Al1_0 Hf2_0 2.932188 1_555
Al1_0 Hf0_4 2.932193 1_555
Al1_0 Hf1_0 2.932196 1_555
Al1_0 Hf3_5 2.936377 1_555
Al1_0 Hf3_4 2.936377 1_555
Al1_0 Hf5_1 2.936379 1_555
Al1_0 Hf5_0 2.936379 1_555
Al1_0 Hf4_0 2.936383 1_555
Al1_0 Hf4_1 2.936383 1_555
Al1_1 Hf2_1 2.932188 1_555
Al1_1 Hf0_5 2.932193 1_555
Al1_1 Hf1_1 2.932196 1_555
Al1_1 Hf3_4 2.936377 1_556
Al1_1 Hf3_5 2.936377 1_555
Al1_1 Hf5_0 2.936379 1_556
Al1_1 Hf5_1 2.936379 1_555
Al1_1 Hf4_0 2.936383 1_556
Al1_1 Hf4_1 2.936383 1_555
Al1_2 Hf2_2 2.932188 1_555
Al1_2 Hf0_6 2.932193 1_555
Al1_2 Hf1_2 2.932196 1_555
Al1_2 Hf3_6 2.936377 1_555
Al1_2 Hf3_7 2.936377 1_555
Al1_2 Hf5_2 2.936379 1_555
Al1_2 Hf5_3 2.936379 1_555
Al1_2 Hf4_2 2.936383 1_555
Al1_2 Hf4_3 2.936383 1_555
Al1_3 Hf2_3 2.932188 1_555
Al1_3 Hf0_7 2.932193 1_555
Al1_3 Hf1_3 2.932196 1_555
Al1_3 Hf3_7 2.936377 1_555
Al1_3 Hf3_6 2.936377 1_556
Al1_3 Hf5_2 2.936379 1_556
Al1_3 Hf5_3 2.936379 1_555
Al1_3 Hf4_2 2.936383 1_556
Al1_3 Hf4_3 2.936383 1_555
Al1_4 Hf2_4 2.932188 1_555
Al1_4 Hf0_0 2.932193 1_655
Al1_4 Hf1_4 2.932196 1_555
Al1_4 Hf3_0 2.936377 1_655
Al1_4 Hf3_1 2.936377 1_655
Al1_4 Hf5_5 2.936379 1_545
Al1_4 Hf5_4 2.936379 1_545
Al1_4 Hf4_4 2.936383 1_555
Al1_4 Hf4_5 2.936383 1_555
Al1_5 Hf2_5 2.932188 1_555
Al1_5 Hf0_1 2.932193 1_655
Al1_5 Hf1_5 2.932196 1_555
Al1_5 Hf3_0 2.936377 1_656
Al1_5 Hf3_1 2.936377 1_655
Al1_5 Hf5_5 2.936379 1_545
Al1_5 Hf5_4 2.936379 1_546
Al1_5 Hf4_4 2.936383 1_556
Al1_5 Hf4_5 2.936383 1_555
Al1_6 Hf2_6 2.932188 1_555
Al1_6 Hf0_2 2.932193 1_655
Al1_6 Hf1_6 2.932196 1_555
Al1_6 Hf3_2 2.936377 1_655
Al1_6 Hf3_3 2.936377 1_655
Al1_6 Hf5_6 2.936379 1_555
Al1_6 Hf5_7 2.936379 1_555
Al1_6 Hf4_6 2.936383 1_555
Al1_6 Hf4_7 2.936383 1_555
Al1_7 Hf2_7 2.932188 1_555
Al1_7 Hf0_3 2.932193 1_655
Al1_7 Hf1_7 2.932196 1_555
Al1_7 Hf3_2 2.936377 1_656
Al1_7 Hf3_3 2.936377 1_655
Al1_7 Hf5_6 2.936379 1_556
Al1_7 Hf5_7 2.936379 1_555
Al1_7 Hf4_6 2.936383 1_556
Al1_7 Hf4_7 2.936383 1_555
