# generated using pymatgen
data_Sm2Mn2O5
_symmetry_space_group_name_H-M   'P 1'
_cell_length_a   8.68681279
_cell_length_b   8.68681279
_cell_length_c   8.68681279
_cell_angle_alpha   141.56760555
_cell_angle_beta   140.79299832
_cell_angle_gamma   56.06794471
_symmetry_Int_Tables_number   1
_chemical_formula_structural   Sm2Mn2O5
_chemical_formula_sum   'Sm4 Mn4 O10'
_cell_volume   255.57352080
_cell_formula_units_Z   2
loop_
 _symmetry_equiv_pos_site_id
 _symmetry_equiv_pos_as_xyz
  1  'x, y, z'
loop_
 _atom_site_type_symbol
 _atom_site_label
 _atom_site_symmetry_multiplicity
 _atom_site_fract_x
 _atom_site_fract_y
 _atom_site_fract_z
 _atom_site_occupancy
  Sm  Sm0  1  0.90005200  0.36493400  0.49191800  1
  Sm  Sm1  1  0.09994800  0.59186600  0.46488100  1
  Sm  Sm2  1  0.37301500  0.86493400  0.46488100  1
  Sm  Sm3  1  0.62698500  0.09186600  0.49191800  1
  Mn  Mn0  1  0.00000000  0.99920700  0.99920700  1
  Mn  Mn1  1  0.50000000  0.49920700  0.99920700  1
  Mn  Mn2  1  0.71011100  0.71254600  0.92265700  1
  Mn  Mn3  1  0.28988900  0.21254600  0.00243500  1
  O  O0  1  0.29957000  0.26919300  0.50214600  1
  O  O1  1  0.70043000  0.20257600  0.96962300  1
  O  O2  1  0.26704700  0.76919300  0.96962300  1
  O  O3  1  0.73295300  0.70257600  0.50214600  1
  O  O4  1  0.97579500  0.94863700  0.20830700  1
  O  O5  1  0.02420500  0.23251100  0.97284200  1
  O  O6  1  0.24033100  0.44863700  0.97284200  1
  O  O7  1  0.75966900  0.73251100  0.20830700  1
  O  O8  1  0.63490500  0.34252900  0.47743400  1
  O  O9  1  0.36509500  0.84252900  0.70762400  1
loop_
_geom_bond_atom_site_label_1
_geom_bond_atom_site_label_2
_geom_bond_distance
_geom_bond_site_symmetry_2
Mn0 O3 2.093914 1_455
Mn0 O2 2.093914 1_555
Mn0 O1 2.121645 1_465
Mn0 O0 2.121645 1_566
Mn0 O5 2.341286 1_565
Mn0 O4 2.341295 1_456
Mn1 O1 2.093914 1_555
Mn1 O0 2.093914 1_555
Mn1 O3 2.121645 1_556
Mn1 O2 2.121645 1_555
Mn1 O7 2.341281 1_556
Mn1 O6 2.341286 1_555
Mn2 O4 2.031326 1_556
Mn2 O7 2.031339 1_556
Mn2 O9 2.144059 1_555
Mn2 O8 2.160783 1_555
Mn3 O6 2.031330 1_554
Mn3 O5 2.031330 1_554
Mn3 O8 2.144059 1_555
Mn3 O9 2.160783 1_544
O0 Sm3 2.399190 1_555
O0 Sm1 2.468555 1_555
O1 Sm2 2.399186 1_545
O1 Sm0 2.468551 1_556
O2 Sm1 2.399190 1_555
O2 Sm3 2.468555 1_566
O3 Sm0 2.399182 1_555
O3 Sm2 2.468555 1_555
O4 Sm2 2.285206 1_655
O4 Sm0 2.340461 1_565
O5 Sm3 2.285208 1_455
O5 Sm1 2.340457 1_556
O6 Sm0 2.285212 1_455
O6 Sm2 2.340460 1_556
O7 Sm1 2.285205 1_655
O7 Sm3 2.340453 1_565
O8 Sm3 2.317713 1_555
O8 Sm0 2.317718 1_555
O9 Sm1 2.317713 1_555
O9 Sm2 2.317720 1_555
