# generated using pymatgen
data_Li9Co7O16
_symmetry_space_group_name_H-M   'P 1'
_cell_length_a   4.98744200
_cell_length_b   5.05689062
_cell_length_c   11.56761019
_cell_angle_alpha   90.35110697
_cell_angle_beta   90.71167785
_cell_angle_gamma   108.83982040
_symmetry_Int_Tables_number   1
_chemical_formula_structural   Li9Co7O16
_chemical_formula_sum   'Li9 Co7 O16'
_cell_volume   276.07867652
_cell_formula_units_Z   1
loop_
 _symmetry_equiv_pos_site_id
 _symmetry_equiv_pos_as_xyz
  1  'x, y, z'
loop_
 _atom_site_type_symbol
 _atom_site_label
 _atom_site_symmetry_multiplicity
 _atom_site_fract_x
 _atom_site_fract_y
 _atom_site_fract_z
 _atom_site_occupancy
  Li  Li0  1  0.00000000  0.50000000  0.00000000  1
  Li  Li1  1  0.49896400  0.49871200  0.12278100  1
  Li  Li2  1  0.00137800  0.50142800  0.24812900  1
  Li  Li3  1  0.49933500  0.50038600  0.37752300  1
  Li  Li4  1  0.00000000  0.50000000  0.50000000  1
  Li  Li5  1  0.50066500  0.49961400  0.62247700  1
  Li  Li6  1  0.99862200  0.49857200  0.75187100  1
  Li  Li7  1  0.50103600  0.50128800  0.87721900  1
  Li  Li8  1  0.50000000  0.00000000  0.00000000  1
  Co  Co0  1  0.00602000  0.00005000  0.87852200  1
  Co  Co1  1  0.99398000  0.99995000  0.12147800  1
  Co  Co2  1  0.49678300  0.99618200  0.24395200  1
  Co  Co3  1  0.00165000  0.99711600  0.37502300  1
  Co  Co4  1  0.50000000  0.00000000  0.50000000  1
  Co  Co5  1  0.99835000  0.00288400  0.62497700  1
  Co  Co6  1  0.50321700  0.00381800  0.75604800  1
  O  O0  1  0.23340900  0.77569600  0.87025300  1
  O  O1  1  0.78639800  0.78004300  0.00170500  1
  O  O2  1  0.24277000  0.77799900  0.13129800  1
  O  O3  1  0.76391100  0.77004600  0.24066000  1
  O  O4  1  0.25448300  0.77277000  0.38063300  1
  O  O5  1  0.74543600  0.77030700  0.49945500  1
  O  O6  1  0.26562000  0.77984000  0.62182300  1
  O  O7  1  0.77050700  0.77211600  0.75821900  1
  O  O8  1  0.76659100  0.22430400  0.12974700  1
  O  O9  1  0.22949300  0.22788400  0.24178100  1
  O  O10  1  0.73438000  0.22016000  0.37817700  1
  O  O11  1  0.25456400  0.22969300  0.50054500  1
  O  O12  1  0.74551700  0.22723000  0.61936700  1
  O  O13  1  0.23608900  0.22995400  0.75934000  1
  O  O14  1  0.75723000  0.22200100  0.86870200  1
  O  O15  1  0.21360200  0.21995700  0.99829500  1
loop_
_geom_bond_atom_site_label_1
_geom_bond_atom_site_label_2
_geom_bond_distance
_geom_bond_site_symmetry_2
Li0 O1 2.028627 1_455
Li0 O15 2.028627 1_554
Li0 O8 2.138295 1_455
Li0 O0 2.138295 1_554
Li0 O2 2.139608 1_555
Li0 O14 2.139608 1_454
Li1 O3 2.061421 1_555
Li1 O9 2.111183 1_555
Li1 O15 2.171348 1_554
Li1 O1 2.190374 1_555
Li1 O2 2.191788 1_555
Li1 O8 2.215542 1_555
Li2 O8 2.021669 1_455
Li2 O2 2.051349 1_555
Li2 O9 2.056817 1_555
Li2 O3 2.072018 1_455
Li2 O4 2.152467 1_555
Li2 O10 2.216324 1_455
Li3 O5 2.051933 1_555
Li3 O11 2.092126 1_555
Li3 O10 2.110726 1_555
Li3 O4 2.115824 1_555
Li3 O9 2.213355 1_555
Li3 O3 2.241298 1_555
Li4 O12 2.087184 1_455
Li4 O4 2.087184 1_555
Li4 O10 2.112304 1_455
Li4 O6 2.112304 1_555
Li4 O5 2.145037 1_455
Li4 O11 2.145037 1_555
Li5 O11 2.051933 1_555
Li5 O5 2.092126 1_555
Li5 O6 2.110726 1_555
Li5 O12 2.115824 1_555
Li5 O7 2.213355 1_555
Li5 O13 2.241298 1_555
Li6 O0 2.021669 1_655
Li6 O14 2.051349 1_555
Li6 O7 2.056817 1_555
Li6 O13 2.072018 1_655
Li6 O12 2.152467 1_555
Li6 O6 2.216324 1_655
Li7 O13 2.061421 1_555
Li7 O7 2.111183 1_555
Li7 O1 2.171348 1_556
Li7 O15 2.190374 1_555
Li7 O14 2.191788 1_555
Li7 O0 2.215542 1_555
Li8 O8 2.064598 1_555
Li8 O0 2.064598 1_544
Li8 O15 2.074511 1_554
Li8 O1 2.074511 1_545
Li8 O14 2.086163 1_554
Li8 O2 2.086163 1_545
Co0 O0 1.847925 1_545
Co0 O15 1.852024 1_555
Co0 O14 1.926087 1_455
Co0 O7 1.926188 1_445
Co0 O1 1.933688 1_446
Co0 O13 1.940704 1_555
Co1 O8 1.847925 1_565
Co1 O1 1.852024 1_555
Co1 O2 1.926087 1_655
Co1 O9 1.926188 1_665
Co1 O15 1.933688 1_664
Co1 O3 1.940704 1_555
Co2 O2 1.886555 1_555
Co2 O8 1.986722 1_565
Co2 O3 2.017132 1_555
Co2 O9 2.039352 1_565
Co2 O10 2.040526 1_565
Co2 O4 2.103363 1_555
Co3 O4 1.950433 1_555
Co3 O10 2.005521 1_465
Co3 O11 2.014464 1_565
Co3 O5 2.034592 1_455
Co3 O3 2.047722 1_455
Co3 O9 2.058591 1_565
Co4 O4 1.938087 1_545
Co4 O12 1.938087 1_555
Co4 O11 1.940618 1_555
Co4 O5 1.940618 1_545
Co4 O6 1.952287 1_545
Co4 O10 1.952287 1_555
Co5 O12 1.950433 1_555
Co5 O6 2.005521 1_645
Co5 O5 2.014464 1_545
Co5 O11 2.034592 1_655
Co5 O13 2.047722 1_655
Co5 O7 2.058591 1_545
Co6 O14 1.886555 1_555
Co6 O0 1.986722 1_545
Co6 O13 2.017132 1_555
Co6 O7 2.039352 1_545
Co6 O6 2.040526 1_545
Co6 O12 2.103363 1_555
