# generated using pymatgen
data_NaMg6Ti
_symmetry_space_group_name_H-M   'P 1'
_cell_length_a   5.09088800
_cell_length_b   6.69380800
_cell_length_c   10.87861900
_cell_angle_alpha   90.00000000
_cell_angle_beta   90.00000000
_cell_angle_gamma   90.00000000
_symmetry_Int_Tables_number   1
_chemical_formula_structural   NaMg6Ti
_chemical_formula_sum   'Na2 Mg12 Ti2'
_cell_volume   370.71534289
_cell_formula_units_Z   2
loop_
 _symmetry_equiv_pos_site_id
 _symmetry_equiv_pos_as_xyz
  1  'x, y, z'
loop_
 _atom_site_type_symbol
 _atom_site_label
 _atom_site_symmetry_multiplicity
 _atom_site_fract_x
 _atom_site_fract_y
 _atom_site_fract_z
 _atom_site_occupancy
  Na  Na0  1  0.50000000  0.50000000  0.83589500  1
  Na  Na1  1  0.50000000  0.00000000  0.33589500  1
  Mg  Mg0  1  0.50000000  0.25382600  0.08417900  1
  Mg  Mg1  1  0.50000000  0.74617400  0.08417900  1
  Mg  Mg2  1  0.00000000  0.23620700  0.91257200  1
  Mg  Mg3  1  0.00000000  0.76379300  0.91257200  1
  Mg  Mg4  1  0.00000000  0.50000000  0.17040100  1
  Mg  Mg5  1  0.00000000  0.50000000  0.66127400  1
  Mg  Mg6  1  0.50000000  0.75382600  0.58417900  1
  Mg  Mg7  1  0.50000000  0.24617400  0.58417900  1
  Mg  Mg8  1  0.00000000  0.73620700  0.41257200  1
  Mg  Mg9  1  0.00000000  0.26379300  0.41257200  1
  Mg  Mg10  1  0.00000000  0.00000000  0.67040100  1
  Mg  Mg11  1  0.00000000  0.00000000  0.16127400  1
  Ti  Ti0  1  0.50000000  0.50000000  0.33893200  1
  Ti  Ti1  1  0.50000000  0.00000000  0.83893200  1
loop_
_geom_bond_atom_site_label_1
_geom_bond_atom_site_label_2
_geom_bond_distance
_geom_bond_site_symmetry_2
Na0 Ti1 3.347067 1_565
Na0 Ti1 3.347067 1_555
Na1 Ti0 3.347067 1_555
Na1 Ti0 3.347067 1_545
Mg0 Mg2 3.158847 1_654
Mg0 Mg2 3.158847 1_554
Mg0 Ti1 3.163031 1_554
Mg0 Na0 3.163971 1_554
Mg0 Mg11 3.173247 1_555
Mg0 Mg11 3.173247 1_655
Mg0 Mg4 3.174030 1_555
Mg0 Mg4 3.174030 1_655
Mg0 Na1 3.222611 1_555
Mg0 Ti0 3.224255 1_555
Mg0 Mg1 3.295683 1_555
Mg0 Mg1 3.398125 1_545
Mg1 Mg3 3.158847 1_654
Mg1 Mg3 3.158847 1_554
Mg1 Ti1 3.163031 1_564
Mg1 Na0 3.163971 1_554
Mg1 Mg11 3.173247 1_665
Mg1 Mg11 3.173247 1_565
Mg1 Mg4 3.174030 1_555
Mg1 Mg4 3.174030 1_655
Mg1 Na1 3.222611 1_565
Mg1 Ti0 3.224255 1_555
Mg2 Ti1 3.101774 1_555
Mg2 Ti1 3.101774 1_455
Mg2 Na0 3.208279 1_555
Mg2 Na0 3.208279 1_455
Mg2 Mg5 3.254459 1_555
Mg2 Mg4 3.314365 1_556
Mg3 Ti1 3.101774 1_465
Mg3 Ti1 3.101774 1_565
Mg3 Na0 3.208279 1_455
Mg3 Na0 3.208279 1_555
Mg3 Mg5 3.254459 1_555
Mg3 Mg4 3.314365 1_556
Mg4 Mg8 3.072535 1_555
Mg4 Mg9 3.072535 1_555
Mg4 Ti0 3.136971 1_455
Mg4 Ti0 3.136971 1_555
Mg5 Mg8 3.133667 1_555
Mg5 Mg9 3.133667 1_555
Mg5 Mg6 3.173247 1_455
Mg5 Mg6 3.173247 1_555
Mg5 Mg7 3.173247 1_455
Mg5 Mg7 3.173247 1_555
Mg5 Na0 3.176145 1_455
Mg5 Na0 3.176145 1_555
Mg6 Mg8 3.158847 1_655
Mg6 Mg8 3.158847 1_555
Mg6 Ti0 3.163031 1_555
Mg6 Na1 3.163971 1_565
Mg6 Na0 3.222611 1_555
Mg6 Ti1 3.224255 1_565
Mg6 Mg7 3.295683 1_565
Mg6 Mg7 3.398125 1_555
Mg7 Mg9 3.158847 1_555
Mg7 Mg9 3.158847 1_655
Mg7 Ti0 3.163031 1_555
Mg7 Na1 3.163971 1_555
Mg7 Na0 3.222611 1_555
Mg7 Ti1 3.224255 1_555
Mg8 Ti0 3.101774 1_455
Mg8 Ti0 3.101774 1_555
Mg8 Na1 3.208279 1_465
Mg8 Na1 3.208279 1_565
Mg9 Ti0 3.101774 1_455
Mg9 Ti0 3.101774 1_555
Mg9 Na1 3.208279 1_455
Mg9 Na1 3.208279 1_555
Mg10 Mg2 3.072535 1_555
Mg10 Mg3 3.072535 1_545
Mg10 Ti1 3.136971 1_455
Mg10 Ti1 3.136971 1_555
Mg10 Mg7 3.174030 1_555
Mg10 Mg6 3.174030 1_445
Mg10 Mg6 3.174030 1_545
Mg10 Mg7 3.174030 1_455
Mg10 Mg9 3.314365 1_555
Mg10 Mg8 3.314365 1_545
Mg10 Mg5 3.348376 1_545
Mg10 Mg5 3.348376 1_555
Mg11 Mg2 3.133667 1_554
Mg11 Mg3 3.133667 1_544
Mg11 Na1 3.176145 1_555
Mg11 Na1 3.176145 1_455
Mg11 Mg9 3.254459 1_555
Mg11 Mg8 3.254459 1_545
Mg11 Mg4 3.348376 1_555
Mg11 Mg4 3.348376 1_545
