# generated using pymatgen
data_Al5(CoO4)3
_symmetry_space_group_name_H-M   'P 1'
_cell_length_a   5.75412502
_cell_length_b   5.75412502
_cell_length_c   13.98996183
_cell_angle_alpha   89.33604833
_cell_angle_beta   89.33604833
_cell_angle_gamma   59.87343841
_symmetry_Int_Tables_number   1
_chemical_formula_structural   Al5(CoO4)3
_chemical_formula_sum   'Al10 Co6 O24'
_cell_volume   400.60064040
_cell_formula_units_Z   2
loop_
 _symmetry_equiv_pos_site_id
 _symmetry_equiv_pos_as_xyz
  1  'x, y, z'
loop_
 _atom_site_type_symbol
 _atom_site_label
 _atom_site_symmetry_multiplicity
 _atom_site_fract_x
 _atom_site_fract_y
 _atom_site_fract_z
 _atom_site_occupancy
  Al  Al0  1  0.33879500  0.33879500  0.16487600  1
  Al  Al1  1  0.66120500  0.66120500  0.83512400  1
  Al  Al2  1  0.16542100  0.67082500  0.33753000  1
  Al  Al3  1  0.50000000  0.00000000  0.00000000  1
  Al  Al4  1  0.83457900  0.32917500  0.66247000  1
  Al  Al5  1  0.67082500  0.16542100  0.33753000  1
  Al  Al6  1  0.00000000  0.50000000  0.00000000  1
  Al  Al7  1  0.32917500  0.83457900  0.66247000  1
  Al  Al8  1  0.16322400  0.16322400  0.33639200  1
  Al  Al9  1  0.83677600  0.83677600  0.66360800  1
  Co  Co0  1  0.33357800  0.33357800  0.54522200  1
  Co  Co1  1  0.67154000  0.67154000  0.20734300  1
  Co  Co2  1  0.00953300  0.00953300  0.88047200  1
  Co  Co3  1  0.66642200  0.66642200  0.45477800  1
  Co  Co4  1  0.99046700  0.99046700  0.11952800  1
  Co  Co5  1  0.32846000  0.32846000  0.79265700  1
  O  O0  1  0.99976400  0.99976400  0.26087700  1
  O  O1  1  0.32266800  0.32266800  0.92252100  1
  O  O2  1  0.66838700  0.66838700  0.59413600  1
  O  O3  1  0.48281200  0.48281200  0.25212800  1
  O  O4  1  0.81650500  0.81650500  0.92141500  1
  O  O5  1  0.16225700  0.16225700  0.59700600  1
  O  O6  1  0.32542400  0.83456500  0.40158300  1
  O  O7  1  0.64010200  0.15975700  0.08551800  1
  O  O8  1  0.96240500  0.51981400  0.74620500  1
  O  O9  1  0.83456500  0.32542400  0.40158300  1
  O  O10  1  0.15975700  0.64010200  0.08551800  1
  O  O11  1  0.51981400  0.96240500  0.74620500  1
  O  O12  1  0.48018600  0.03759500  0.25379500  1
  O  O13  1  0.84024300  0.35989800  0.91448200  1
  O  O14  1  0.16543500  0.67457600  0.59841700  1
  O  O15  1  0.03759500  0.48018600  0.25379500  1
  O  O16  1  0.35989800  0.84024300  0.91448200  1
  O  O17  1  0.67457600  0.16543500  0.59841700  1
  O  O18  1  0.83774300  0.83774300  0.40299400  1
  O  O19  1  0.18349500  0.18349500  0.07858500  1
  O  O20  1  0.51718800  0.51718800  0.74787200  1
  O  O21  1  0.33161300  0.33161300  0.40586400  1
  O  O22  1  0.67733200  0.67733200  0.07747900  1
  O  O23  1  0.00023600  0.00023600  0.73912300  1
loop_
_geom_bond_atom_site_label_1
_geom_bond_atom_site_label_2
_geom_bond_distance
_geom_bond_site_symmetry_2
Al0 O7 1.867822 1_555
Al0 O10 1.867822 1_555
Al0 O3 1.897286 1_555
Al0 O15 1.941961 1_555
Al0 O12 1.941961 1_555
Al0 O19 1.976374 1_555
Al1 O13 1.867822 1_555
Al1 O16 1.867822 1_555
Al1 O20 1.897286 1_555
Al1 O8 1.941961 1_555
Al1 O11 1.941961 1_555
Al1 O4 1.976374 1_555
Al2 O6 1.856823 1_555
Al2 O18 1.865167 1_455
Al2 O21 1.934541 1_555
Al2 O0 1.951070 1_455
Al2 O3 1.982250 1_555
Al2 O15 1.994065 1_555
Al3 O4 1.921075 1_544
Al3 O19 1.921075 1_555
Al3 O7 1.928225 1_555
Al3 O16 1.928225 1_544
Al3 O22 1.934049 1_545
Al3 O1 1.934049 1_554
Al4 O17 1.856823 1_555
Al4 O5 1.865167 1_655
Al4 O2 1.934541 1_555
Al4 O23 1.951070 1_655
Al4 O20 1.982250 1_555
Al4 O8 1.994065 1_555
Al5 O9 1.856823 1_555
Al5 O18 1.865167 1_545
Al5 O21 1.934541 1_555
Al5 O0 1.951070 1_545
Al5 O3 1.982250 1_555
Al5 O12 1.994065 1_555
Al6 O4 1.921075 1_454
Al6 O19 1.921075 1_555
Al6 O10 1.928225 1_555
Al6 O13 1.928225 1_454
Al6 O22 1.934049 1_455
Al6 O1 1.934049 1_554
Al7 O14 1.856823 1_555
Al7 O5 1.865167 1_565
Al7 O2 1.934541 1_555
Al7 O23 1.951070 1_565
Al7 O20 1.982250 1_555
Al7 O11 1.994065 1_555
Al8 O6 1.867420 1_545
Al8 O9 1.867420 1_455
Al8 O21 1.951495 1_555
Al8 O0 1.954365 1_445
Al8 O15 1.957357 1_555
Al8 O12 1.957357 1_555
Al9 O14 1.867420 1_655
Al9 O17 1.867420 1_565
Al9 O2 1.951495 1_555
Al9 O23 1.954365 1_665
Al9 O11 1.957357 1_555
Al9 O8 1.957357 1_555
Co0 O5 1.846854 1_555
Co0 O14 1.857799 1_555
Co0 O17 1.857799 1_555
Co0 O21 1.949974 1_555
Co1 O22 1.816938 1_555
Co1 O12 1.938645 1_565
Co1 O15 1.938645 1_655
Co1 O3 1.975723 1_555
Co2 O13 1.811033 1_455
Co2 O16 1.811033 1_545
Co2 O23 1.980878 1_555
Co2 O4 2.001082 1_445
Co3 O18 1.846854 1_555
Co3 O6 1.857799 1_555
Co3 O9 1.857799 1_555
Co3 O2 1.949974 1_555
Co4 O10 1.811033 1_655
Co4 O7 1.811033 1_565
Co4 O0 1.980878 1_555
Co4 O19 2.001082 1_665
Co5 O1 1.816938 1_555
Co5 O11 1.938645 1_545
Co5 O8 1.938645 1_455
Co5 O20 1.975723 1_555
