# generated using pymatgen
data_Hf8Mg(N2O)4
_symmetry_space_group_name_H-M   'P 1'
_cell_length_a   5.41536288
_cell_length_b   5.64875506
_cell_length_c   11.20532325
_cell_angle_alpha   100.78134596
_cell_angle_beta   78.75130278
_cell_angle_gamma   59.90900397
_symmetry_Int_Tables_number   1
_chemical_formula_structural   Hf8Mg(N2O)4
_chemical_formula_sum   'Hf8 Mg1 N8 O4'
_cell_volume   274.00068168
_cell_formula_units_Z   1
loop_
 _symmetry_equiv_pos_site_id
 _symmetry_equiv_pos_as_xyz
  1  'x, y, z'
loop_
 _atom_site_type_symbol
 _atom_site_label
 _atom_site_symmetry_multiplicity
 _atom_site_fract_x
 _atom_site_fract_y
 _atom_site_fract_z
 _atom_site_occupancy
  Hf  Hf0  1  0.19102500  0.31438700  0.31323200  1
  Hf  Hf1  1  0.10405900  0.01168500  0.78071400  1
  Hf  Hf2  1  0.36668700  0.44598200  0.93184400  1
  Hf  Hf3  1  0.62395800  0.20655700  0.54567700  1
  Hf  Hf4  1  0.37046700  0.78816900  0.48093600  1
  Hf  Hf5  1  0.88522500  0.94275900  0.24489200  1
  Hf  Hf6  1  0.62998300  0.83708400  0.01579700  1
  Hf  Hf7  1  0.83532600  0.62530800  0.71475100  1
  Mg  Mg0  1  0.85522700  0.30606000  0.08417600  1
  N  N0  1  0.48004300  0.03615100  0.39039600  1
  N  N1  1  0.57966100  0.18191600  0.16296000  1
  N  N2  1  0.23759200  0.61321500  0.63045600  1
  N  N3  1  0.76369100  0.36232900  0.40164400  1
  N  N4  1  0.40363400  0.76745400  0.87356200  1
  N  N5  1  0.00113300  0.58869400  0.09428000  1
  N  N6  1  0.93771500  0.20071500  0.63330800  1
  N  N7  1  0.72890200  0.01425100  0.87235000  1
  O  O0  1  0.18530900  0.03984700  0.15705800  1
  O  O1  1  0.09229000  0.73739600  0.38342900  1
  O  O2  1  0.06885300  0.42303900  0.84020100  1
  O  O3  1  0.56155600  0.89738400  0.62361000  1
loop_
_geom_bond_atom_site_label_1
_geom_bond_atom_site_label_2
_geom_bond_distance
_geom_bond_site_symmetry_2
Hf0 N0 2.058442 1_555
Hf0 N1 2.095584 1_555
Hf0 O1 2.113245 1_555
Hf0 O0 2.126580 1_555
Hf0 N3 2.187908 1_455
Hf1 N7 2.081596 1_455
Hf1 N4 2.137470 1_545
Hf1 O2 2.192415 1_555
Hf1 N2 2.213396 1_545
Hf1 N6 2.226129 1_455
Hf1 O3 2.433752 1_545
Hf2 N7 2.079484 1_555
Hf2 N5 2.080080 1_556
Hf2 O2 2.116283 1_555
Hf2 N4 2.126292 1_555
Hf3 N2 2.036073 1_555
Hf3 N6 2.111648 1_555
Hf3 N3 2.161980 1_555
Hf3 O3 2.230268 1_545
Hf3 N0 2.283890 1_555
Hf3 O1 2.533709 1_645
Hf4 N3 2.106208 1_555
Hf4 N0 2.115164 1_565
Hf4 O1 2.122143 1_555
Hf4 O3 2.218989 1_555
Hf4 N2 2.272377 1_555
Hf4 N6 2.304764 1_465
Hf5 N1 2.054546 1_565
Hf5 N5 2.075419 1_655
Hf5 O0 2.093299 1_665
Hf5 N0 2.207463 1_565
Hf5 O1 2.249743 1_655
Hf5 N3 2.358571 1_565
Hf6 N7 2.162315 1_564
Hf6 N1 2.162960 1_565
Hf6 O0 2.164513 1_565
Hf6 N5 2.259467 1_655
Hf6 N4 2.282203 1_554
Hf6 O2 2.422836 1_654
Hf7 O3 2.120406 1_555
Hf7 N6 2.131406 1_555
Hf7 N2 2.160146 1_655
Hf7 O2 2.174006 1_655
Hf7 N7 2.271436 1_565
Hf7 N4 2.288396 1_555
Mg0 N1 2.065196 1_555
Mg0 N5 2.101965 1_655
Mg0 O0 2.111173 1_655
