# generated using pymatgen
data_Mg14CrW
_symmetry_space_group_name_H-M   'P 1'
_cell_length_a   6.25904176
_cell_length_b   6.25904127
_cell_length_c   9.94824431
_cell_angle_alpha   90.00000000
_cell_angle_beta   90.00000000
_cell_angle_gamma   120.00000260
_symmetry_Int_Tables_number   1
_chemical_formula_structural   Mg14CrW
_chemical_formula_sum   'Mg14 Cr1 W1'
_cell_volume   337.51472644
_cell_formula_units_Z   1
loop_
 _symmetry_equiv_pos_site_id
 _symmetry_equiv_pos_as_xyz
  1  'x, y, z'
loop_
 _atom_site_type_symbol
 _atom_site_label
 _atom_site_symmetry_multiplicity
 _atom_site_fract_x
 _atom_site_fract_y
 _atom_site_fract_z
 _atom_site_occupancy
  Mg  Mg0  1  0.16771561  0.83385731  0.12500000  1
  Mg  Mg1  1  0.16850462  0.83425181  0.62500000  1
  Mg  Mg2  1  0.66614269  0.33228439  0.12500000  1
  Mg  Mg3  1  0.66574819  0.33149538  0.62500000  1
  Mg  Mg4  1  0.66614269  0.83385731  0.12500000  1
  Mg  Mg5  1  0.66574819  0.83425181  0.62500000  1
  Mg  Mg6  1  0.32631863  0.17368137  0.37935322  1
  Mg  Mg7  1  0.32631863  0.17368137  0.87064678  1
  Mg  Mg8  1  0.32631863  0.65263826  0.37935322  1
  Mg  Mg9  1  0.32631863  0.65263826  0.87064678  1
  Mg  Mg10  1  0.84736174  0.17368137  0.37935322  1
  Mg  Mg11  1  0.84736174  0.17368137  0.87064678  1
  Mg  Mg12  1  0.83333300  0.66666700  0.37537066  1
  Mg  Mg13  1  0.83333300  0.66666700  0.87462934  1
  Cr  Cr0  1  0.16666700  0.33333300  0.12500000  1
  W  W0  1  0.16666700  0.33333300  0.62500000  1
loop_
_geom_bond_atom_site_label_1
_geom_bond_atom_site_label_2
_geom_bond_distance
_geom_bond_site_symmetry_2
Mg0 Mg13 3.080430 1_454
Mg0 Mg12 3.080430 1_455
Mg0 Mg2 3.119676 1_565
Mg0 Mg4 3.119676 1_555
Mg0 Mg9 3.130614 1_554
Mg0 Mg8 3.130614 1_555
Mg0 Mg7 3.130620 1_564
Mg0 Mg6 3.130620 1_565
Mg0 Mg2 3.139366 1_455
Mg0 Mg4 3.139366 1_455
Mg1 Mg8 3.059833 1_555
Mg1 Mg9 3.059833 1_555
Mg1 Mg6 3.059840 1_565
Mg1 Mg7 3.059840 1_565
Mg1 Mg12 3.076993 1_455
Mg1 Mg13 3.076993 1_455
Mg1 Mg3 3.112268 1_565
Mg1 Mg5 3.112268 1_555
Mg1 W0 3.129536 1_555
Mg1 W0 3.129536 1_565
Mg1 Mg3 3.146773 1_455
Mg1 Mg5 3.146773 1_455
Mg2 Mg4 3.119676 1_545
Mg2 Mg7 3.130620 1_554
Mg2 Mg6 3.130620 1_555
Mg2 Mg4 3.139366 1_555
Mg3 Mg6 3.059840 1_555
Mg3 Mg7 3.059840 1_555
Mg3 Mg5 3.112268 1_545
Mg3 W0 3.129537 1_655
Mg3 W0 3.129537 1_555
Mg3 Mg5 3.146773 1_555
Mg4 Mg9 3.130620 1_554
Mg4 Mg8 3.130620 1_555
Mg5 Mg8 3.059840 1_555
Mg5 Mg9 3.059840 1_555
Mg5 W0 3.129536 1_555
Mg5 W0 3.129536 1_665
Mg6 W0 2.994584 1_555
Mg6 Mg8 2.997811 1_555
Mg6 Mg8 3.261230 1_545
Mg7 W0 2.994584 1_555
Mg7 Mg9 2.997811 1_555
Mg7 Mg9 3.261230 1_545
Mg8 W0 2.994590 1_555
Mg9 W0 2.994590 1_555
Mg10 W0 2.994590 1_655
Mg10 Mg8 2.997811 1_655
Mg10 Mg6 2.997811 1_655
Mg10 Mg3 3.059833 1_555
Mg10 Mg5 3.059839 1_545
Mg10 Mg2 3.130614 1_555
Mg10 Mg4 3.130620 1_545
Mg10 Mg12 3.130695 1_545
Mg10 Mg12 3.130695 1_555
Mg10 Mg8 3.261230 1_545
Mg10 Mg6 3.261231 1_555
Mg11 W0 2.994590 1_655
Mg11 Mg9 2.997811 1_655
Mg11 Mg7 2.997811 1_655
Mg11 Mg3 3.059833 1_555
Mg11 Mg5 3.059839 1_545
Mg11 Mg2 3.130614 1_556
Mg11 Mg4 3.130620 1_546
Mg11 Mg13 3.130695 1_545
Mg11 Mg13 3.130695 1_555
Mg11 Mg9 3.261230 1_545
Mg11 Mg7 3.261231 1_555
Mg12 Mg5 3.076987 1_555
Mg12 Mg3 3.076993 1_555
Mg12 Mg4 3.080423 1_555
Mg12 Mg2 3.080430 1_555
Mg12 Mg6 3.130695 1_665
Mg12 Mg6 3.130695 1_555
Mg12 Mg8 3.130695 1_655
Mg12 Mg8 3.130695 1_555
Mg13 Mg5 3.076987 1_555
Mg13 Mg3 3.076993 1_555
Mg13 Mg4 3.080423 1_556
Mg13 Mg2 3.080430 1_556
Mg13 Mg7 3.130695 1_665
Mg13 Mg7 3.130695 1_555
Mg13 Mg9 3.130695 1_655
Mg13 Mg9 3.130695 1_555
Cr0 Mg7 3.065675 1_554
Cr0 Mg6 3.065675 1_555
Cr0 Mg9 3.065681 1_554
Cr0 Mg8 3.065681 1_555
Cr0 Mg11 3.065681 1_454
Cr0 Mg10 3.065681 1_455
Cr0 Mg0 3.129526 1_545
Cr0 Mg4 3.129526 1_555
Cr0 Mg4 3.129526 1_445
Cr0 Mg0 3.129526 1_555
Cr0 Mg2 3.129526 1_555
Cr0 Mg2 3.129526 1_455
