# generated using pymatgen
data_KBe2B3O7
_symmetry_space_group_name_H-M   'P 1'
_cell_length_a   4.41722000
_cell_length_b   7.72051800
_cell_length_c   17.69876500
_cell_angle_alpha   90.00000000
_cell_angle_beta   90.00000000
_cell_angle_gamma   90.00000000
_symmetry_Int_Tables_number   1
_chemical_formula_structural   KBe2B3O7
_chemical_formula_sum   'K4 Be8 B12 O28'
_cell_volume   603.58499192
_cell_formula_units_Z   4
loop_
 _symmetry_equiv_pos_site_id
 _symmetry_equiv_pos_as_xyz
  1  'x, y, z'
loop_
 _atom_site_type_symbol
 _atom_site_label
 _atom_site_symmetry_multiplicity
 _atom_site_fract_x
 _atom_site_fract_y
 _atom_site_fract_z
 _atom_site_occupancy
  K  K0  1  0.10582100  0.00000000  0.36271100  1
  K  K1  1  0.60582100  0.50000000  0.63728900  1
  K  K2  1  0.17724400  0.50000000  0.14710600  1
  K  K3  1  0.67724400  0.00000000  0.85289400  1
  Be  Be0  1  0.62605900  0.31189600  0.45848700  1
  Be  Be1  1  0.62605900  0.68810400  0.45848700  1
  Be  Be2  1  0.12605900  0.18810400  0.54151300  1
  Be  Be3  1  0.12605900  0.81189600  0.54151300  1
  Be  Be4  1  0.77094300  0.17593400  0.03735900  1
  Be  Be5  1  0.77094300  0.82406600  0.03735900  1
  Be  Be6  1  0.27094300  0.32406600  0.96264100  1
  Be  Be7  1  0.27094300  0.67593400  0.96264100  1
  B  B0  1  0.12428800  0.50000000  0.48023800  1
  B  B1  1  0.62428800  0.00000000  0.51976200  1
  B  B2  1  0.26559900  0.00000000  0.00903400  1
  B  B3  1  0.76559900  0.50000000  0.99096600  1
  B  B4  1  0.54538400  0.33999100  0.31543300  1
  B  B5  1  0.54538400  0.66000900  0.31543300  1
  B  B6  1  0.04538400  0.16000900  0.68456700  1
  B  B7  1  0.04538400  0.83999100  0.68456700  1
  B  B8  1  0.67126700  0.16491800  0.19270400  1
  B  B9  1  0.67126700  0.83508200  0.19270400  1
  B  B10  1  0.17126700  0.33508200  0.80729600  1
  B  B11  1  0.17126700  0.66491800  0.80729600  1
  O  O0  1  0.81191400  0.50000000  0.47275000  1
  O  O1  1  0.31191400  0.00000000  0.52725000  1
  O  O2  1  0.27527700  0.34306600  0.48713700  1
  O  O3  1  0.27527700  0.65693400  0.48713700  1
  O  O4  1  0.77527700  0.15693400  0.51286300  1
  O  O5  1  0.77527700  0.84306600  0.51286300  1
  O  O6  1  0.95387200  0.00000000  0.00972600  1
  O  O7  1  0.45387200  0.50000000  0.99027400  1
  O  O8  1  0.42009000  0.15527100  0.00706100  1
  O  O9  1  0.42009000  0.84472900  0.00706100  1
  O  O10  1  0.92009000  0.34472900  0.99293900  1
  O  O11  1  0.92009000  0.65527100  0.99293900  1
  O  O12  1  0.63738500  0.23872200  0.37273900  1
  O  O13  1  0.63738500  0.76127800  0.37273900  1
  O  O14  1  0.13738500  0.26127800  0.62726100  1
  O  O15  1  0.13738500  0.73872200  0.62726100  1
  O  O16  1  0.40796500  0.50000000  0.33072900  1
  O  O17  1  0.90796500  0.00000000  0.66927100  1
  O  O18  1  0.57326500  0.30202700  0.23886900  1
  O  O19  1  0.57326500  0.69797300  0.23886900  1
  O  O20  1  0.07326500  0.19797300  0.76113100  1
  O  O21  1  0.07326500  0.80202700  0.76113100  1
  O  O22  1  0.63168700  0.00000000  0.22411500  1
  O  O23  1  0.13168700  0.50000000  0.77588500  1
  O  O24  1  0.78388100  0.20641600  0.12546600  1
  O  O25  1  0.78388100  0.79358400  0.12546600  1
  O  O26  1  0.28388100  0.29358400  0.87453400  1
  O  O27  1  0.28388100  0.70641600  0.87453400  1
loop_
_geom_bond_atom_site_label_1
_geom_bond_atom_site_label_2
_geom_bond_distance
_geom_bond_site_symmetry_2
K0 O13 2.776668 1_445
K0 O12 2.776668 1_455
K0 O13 2.990256 1_545
K0 O12 2.990256 1_555
K0 O1 3.051114 1_555
K0 O22 3.225433 1_455
K1 O14 2.776668 1_555
K1 O15 2.776668 1_555
K1 O14 2.990256 1_655
K1 O15 2.990256 1_655
K1 O0 3.051114 1_555
K1 O23 3.225433 1_555
K2 O19 2.834420 1_555
K2 O18 2.834420 1_555
K2 O25 2.881564 1_455
K2 O24 2.881564 1_455
K2 O7 3.032787 1_554
K3 O21 2.834420 1_645
K3 O20 2.834420 1_655
K3 O27 2.881564 1_545
K3 O26 2.881564 1_555
K3 O6 3.032787 1_556
Be0 O12 1.620146 1_555
Be0 O2 1.648006 1_555
Be0 O4 1.670923 1_555
Be0 O0 1.687236 1_555
Be1 O13 1.620146 1_555
Be1 O3 1.648006 1_555
Be1 O5 1.670923 1_555
Be1 O0 1.687236 1_555
Be2 O14 1.620146 1_555
Be2 O4 1.648006 1_455
Be2 O2 1.670923 1_555
Be2 O1 1.687236 1_555
Be3 O15 1.620146 1_555
Be3 O5 1.648006 1_455
Be3 O3 1.670923 1_555
Be3 O1 1.687236 1_565
Be4 O24 1.578078 1_555
Be4 O8 1.647684 1_555
Be4 O6 1.654418 1_555
Be4 O10 1.658435 1_554
Be5 O25 1.578078 1_555
Be5 O9 1.647684 1_555
Be5 O6 1.654418 1_565
Be5 O11 1.658435 1_554
Be6 O26 1.578078 1_555
Be6 O10 1.647684 1_455
Be6 O7 1.654418 1_555
Be6 O8 1.658435 1_556
Be7 O27 1.578078 1_555
Be7 O11 1.647684 1_455
Be7 O7 1.654418 1_555
Be7 O9 1.658435 1_556
B0 O0 1.386175 1_455
B0 O2 1.388430 1_555
B0 O3 1.388430 1_555
B1 O1 1.386175 1_555
B1 O4 1.388430 1_555
B1 O5 1.388430 1_545
B2 O6 1.377021 1_455
B2 O8 1.379845 1_555
B2 O9 1.379845 1_545
B3 O7 1.377021 1_555
B3 O10 1.379845 1_555
B3 O11 1.379845 1_555
B4 O12 1.343553 1_555
B4 O18 1.391884 1_555
B4 O16 1.402799 1_555
B5 O13 1.343553 1_555
B5 O19 1.391884 1_555
B5 O16 1.402799 1_555
B6 O14 1.343553 1_555
B6 O20 1.391884 1_555
B6 O17 1.402799 1_455
B7 O15 1.343553 1_555
B7 O21 1.391884 1_555
B7 O17 1.402799 1_465
B8 O24 1.329009 1_555
B8 O22 1.400287 1_555
B8 O18 1.405534 1_555
B9 O25 1.329009 1_555
B9 O22 1.400287 1_565
B9 O19 1.405534 1_555
B10 O26 1.329009 1_555
B10 O23 1.400287 1_555
B10 O20 1.405534 1_555
B11 O27 1.329009 1_555
B11 O23 1.400287 1_555
B11 O21 1.405534 1_555
