# generated using pymatgen
data_LiScF2
_symmetry_space_group_name_H-M   'P 1'
_cell_length_a   7.46312313
_cell_length_b   7.46312313
_cell_length_c   7.46312313
_cell_angle_alpha   132.73548440
_cell_angle_beta   132.73548440
_cell_angle_gamma   69.06986045
_symmetry_Int_Tables_number   1
_chemical_formula_structural   LiScF2
_chemical_formula_sum   'Li4 Sc4 F8'
_cell_volume   220.10477769
_cell_formula_units_Z   4
loop_
 _symmetry_equiv_pos_site_id
 _symmetry_equiv_pos_as_xyz
  1  'x, y, z'
loop_
 _atom_site_type_symbol
 _atom_site_label
 _atom_site_symmetry_multiplicity
 _atom_site_fract_x
 _atom_site_fract_y
 _atom_site_fract_z
 _atom_site_occupancy
  Li  Li0  1  0.37500000  0.12500000  0.25000000  1
  Li  Li1  1  0.87500000  0.12500000  0.75000000  1
  Li  Li2  1  0.87500000  0.12500000  0.25000000  1
  Li  Li3  1  0.87500000  0.62500000  0.75000000  1
  Sc  Sc0  1  0.87500000  0.62500000  0.25000000  1
  Sc  Sc1  1  0.37500000  0.62500000  0.75000000  1
  Sc  Sc2  1  0.37500000  0.62500000  0.25000000  1
  Sc  Sc3  1  0.37500000  0.12500000  0.75000000  1
  F  F0  1  0.18965900  0.43961700  0.24995800  1
  F  F1  1  0.18965900  0.93970100  0.75004200  1
  F  F2  1  0.18961700  0.43965900  0.74995800  1
  F  F3  1  0.56034100  0.81038300  0.25004200  1
  F  F4  1  0.68970100  0.43965900  0.25004200  1
  F  F5  1  0.56034100  0.31029900  0.74995800  1
  F  F6  1  0.56038300  0.81034100  0.75004200  1
  F  F7  1  0.06029900  0.81034100  0.24995800  1
loop_
_geom_bond_atom_site_label_1
_geom_bond_atom_site_label_2
_geom_bond_distance
_geom_bond_site_symmetry_2
F0 Li1 2.259754 1_454
F0 Li0 2.259754 1_555
F0 Sc0 2.260087 1_455
F0 Sc1 2.260087 1_555
F0 Sc2 2.278944 1_555
F1 Li0 2.259754 1_566
F1 Li1 2.259754 1_465
F1 Sc0 2.260087 1_455
F1 Sc1 2.260087 1_555
F1 Sc3 2.278944 1_565
F2 Li3 2.259754 1_455
F2 Li2 2.259754 1_455
F2 Sc2 2.260087 1_556
F2 Sc3 2.260087 1_555
F2 Sc1 2.278944 1_555
F3 Li0 2.259754 1_565
F3 Li1 2.259754 1_565
F3 Sc0 2.260087 1_555
F3 Sc1 2.260087 1_554
F3 Sc2 2.278944 1_555
F4 Li2 2.259754 1_555
F4 Li3 2.259754 1_555
F4 Sc3 2.260087 1_554
F4 Sc2 2.260087 1_555
F4 Sc0 2.278944 1_555
F5 Li0 2.259754 1_555
F5 Li1 2.259754 1_555
F5 Sc0 2.260087 1_556
F5 Sc1 2.260087 1_555
F5 Sc3 2.278944 1_555
F6 Li2 2.259754 1_566
F6 Li3 2.259754 1_555
F6 Sc2 2.260087 1_555
F6 Sc3 2.260087 1_565
F6 Sc1 2.278944 1_555
F7 Li3 2.259754 1_454
F7 Li2 2.259754 1_465
F7 Sc2 2.260087 1_555
F7 Sc3 2.260087 1_565
F7 Sc0 2.278944 1_455
