# generated using pymatgen
data_MnAl2SiO5
_symmetry_space_group_name_H-M   'P 1'
_cell_length_a   5.48473200
_cell_length_b   15.16570141
_cell_length_c   15.16570141
_cell_angle_alpha   122.21099815
_cell_angle_beta   90.00000000
_cell_angle_gamma   90.00000000
_symmetry_Int_Tables_number   1
_chemical_formula_structural   MnAl2SiO5
_chemical_formula_sum   'Mn8 Al16 Si8 O40'
_cell_volume   1067.32681128
_cell_formula_units_Z   8
loop_
 _symmetry_equiv_pos_site_id
 _symmetry_equiv_pos_as_xyz
  1  'x, y, z'
loop_
 _atom_site_type_symbol
 _atom_site_label
 _atom_site_symmetry_multiplicity
 _atom_site_fract_x
 _atom_site_fract_y
 _atom_site_fract_z
 _atom_site_occupancy
  Mn  Mn0  1  0.76047400  0.81034000  0.14304100  1
  Mn  Mn1  1  0.76047400  0.18966000  0.85695900  1
  Mn  Mn2  1  0.23952600  0.85695900  0.18966000  1
  Mn  Mn3  1  0.73952600  0.68966000  0.35695900  1
  Mn  Mn4  1  0.23952600  0.14304100  0.81034000  1
  Mn  Mn5  1  0.73952600  0.31034000  0.64304100  1
  Mn  Mn6  1  0.26047400  0.64304100  0.31034000  1
  Mn  Mn7  1  0.26047400  0.35695900  0.68966000  1
  Al  Al0  1  0.66431400  0.52622300  0.59894500  1
  Al  Al1  1  0.66431400  0.47377700  0.40105500  1
  Al  Al2  1  0.33568600  0.40105500  0.47377700  1
  Al  Al3  1  0.83568600  0.97377700  0.90105500  1
  Al  Al4  1  0.33568600  0.59894500  0.52622300  1
  Al  Al5  1  0.83568600  0.02622300  0.09894500  1
  Al  Al6  1  0.16431400  0.09894500  0.02622300  1
  Al  Al7  1  0.16431400  0.90105500  0.97377700  1
  Al  Al8  1  0.66303800  0.57091400  0.10243700  1
  Al  Al9  1  0.66303800  0.42908600  0.89756300  1
  Al  Al10  1  0.33696200  0.89756300  0.42908600  1
  Al  Al11  1  0.83696200  0.92908600  0.39756300  1
  Al  Al12  1  0.33696200  0.10243700  0.57091400  1
  Al  Al13  1  0.83696200  0.07091400  0.60243700  1
  Al  Al14  1  0.16303800  0.60243700  0.07091400  1
  Al  Al15  1  0.16303800  0.39756300  0.92908600  1
  Si  Si0  1  0.85540400  0.56700900  0.81453700  1
  Si  Si1  1  0.85540400  0.43299100  0.18546300  1
  Si  Si2  1  0.14459600  0.18546300  0.43299100  1
  Si  Si3  1  0.64459600  0.93299100  0.68546300  1
  Si  Si4  1  0.14459600  0.81453700  0.56700900  1
  Si  Si5  1  0.64459600  0.06700900  0.31453700  1
  Si  Si6  1  0.35540400  0.31453700  0.06700900  1
  Si  Si7  1  0.35540400  0.68546300  0.93299100  1
  O  O0  1  0.83806200  0.55909100  0.70418600  1
  O  O1  1  0.83806200  0.44090900  0.29581400  1
  O  O2  1  0.16193800  0.29581400  0.44090900  1
  O  O3  1  0.66193800  0.94090900  0.79581400  1
  O  O4  1  0.16193800  0.70418600  0.55909100  1
  O  O5  1  0.66193800  0.05909100  0.20418600  1
  O  O6  1  0.33806200  0.20418600  0.05909100  1
  O  O7  1  0.33806200  0.79581400  0.94090900  1
  O  O8  1  0.87550600  0.67162700  0.12136600  1
  O  O9  1  0.87550600  0.32837300  0.87863400  1
  O  O10  1  0.12449400  0.87863400  0.32837300  1
  O  O11  1  0.62449400  0.82837300  0.37863400  1
  O  O12  1  0.12449400  0.12136600  0.67162700  1
  O  O13  1  0.62449400  0.17162600  0.62136600  1
  O  O14  1  0.37550600  0.62136600  0.17162600  1
  O  O15  1  0.37550600  0.37863400  0.82837300  1
  O  O16  1  0.63033600  0.63962000  0.89035100  1
  O  O17  1  0.63033600  0.36038000  0.10964900  1
  O  O18  1  0.36966400  0.10964900  0.36038000  1
  O  O19  1  0.86966400  0.86038000  0.60964900  1
  O  O20  1  0.36966400  0.89035100  0.63962000  1
  O  O21  1  0.86966400  0.13962000  0.39035100  1
  O  O22  1  0.13033600  0.39035100  0.13962000  1
  O  O23  1  0.13033600  0.60964900  0.86038000  1
  O  O24  1  0.82725500  0.45223200  0.80194700  1
  O  O25  1  0.82725500  0.54776800  0.19805300  1
  O  O26  1  0.17274500  0.19805300  0.54776800  1
  O  O27  1  0.67274500  0.04776800  0.69805300  1
  O  O28  1  0.17274500  0.80194700  0.45223200  1
  O  O29  1  0.67274500  0.95223200  0.30194700  1
  O  O30  1  0.32725500  0.30194700  0.95223200  1
  O  O31  1  0.32725500  0.69805300  0.04776800  1
  O  O32  1  0.82777500  0.90293300  0.96991600  1
  O  O33  1  0.82777500  0.09706700  0.03008400  1
  O  O34  1  0.17222500  0.03008400  0.09706700  1
  O  O35  1  0.67222500  0.59706700  0.53008400  1
  O  O36  1  0.17222500  0.96991600  0.90293300  1
  O  O37  1  0.67222500  0.40293300  0.46991600  1
  O  O38  1  0.32777500  0.46991600  0.40293300  1
  O  O39  1  0.32777500  0.53008400  0.59706700  1
loop_
_geom_bond_atom_site_label_1
_geom_bond_atom_site_label_2
_geom_bond_distance
_geom_bond_site_symmetry_2
Mn0 O8 2.048017 1_555
Mn0 O29 2.267448 1_555
Mn1 O9 2.048017 1_555
Mn1 O27 2.267448 1_555
Mn2 O10 2.048017 1_555
Mn2 O31 2.267448 1_555
Mn3 O11 2.048017 1_555
Mn3 O25 2.267448 1_555
Mn4 O12 2.048017 1_555
Mn4 O30 2.267448 1_555
Mn5 O13 2.048032 1_555
Mn5 O24 2.267448 1_555
Mn6 O14 2.048032 1_555
Mn6 O28 2.267448 1_555
Mn7 O15 2.048017 1_555
Mn7 O26 2.267448 1_555
Al0 O0 1.689924 1_555
Al0 O39 1.847456 1_555
Al0 O37 1.851082 1_555
Al0 O35 1.855531 1_555
Al1 O1 1.689924 1_555
Al1 O38 1.847456 1_555
Al1 O35 1.851082 1_555
Al1 O37 1.855531 1_555
Al2 O2 1.689924 1_555
Al2 O37 1.847456 1_555
Al2 O39 1.851082 1_555
Al2 O38 1.855531 1_555
Al3 O3 1.689924 1_555
Al3 O36 1.847456 1_655
Al3 O33 1.851082 1_566
Al3 O32 1.855531 1_555
Al4 O4 1.689924 1_555
Al4 O35 1.847456 1_555
Al4 O38 1.851082 1_555
Al4 O39 1.855531 1_555
Al5 O5 1.689924 1_555
Al5 O34 1.847456 1_655
Al5 O32 1.851082 1_544
Al5 O33 1.855531 1_555
Al6 O6 1.689924 1_555
Al6 O33 1.847456 1_455
Al6 O36 1.851082 1_544
Al6 O34 1.855531 1_555
Al7 O7 1.689924 1_555
Al7 O32 1.847456 1_455
Al7 O34 1.851082 1_566
Al7 O36 1.855531 1_555
Al8 O8 1.818203 1_555
Al8 O14 1.821428 1_555
Al8 O25 1.892049 1_555
Al9 O9 1.818203 1_555
Al9 O15 1.821433 1_555
Al9 O24 1.892049 1_555
Al10 O10 1.818203 1_555
Al10 O11 1.821433 1_555
Al10 O28 1.892049 1_555
Al11 O11 1.818203 1_555
Al11 O10 1.821433 1_655
Al11 O29 1.892049 1_555
Al12 O12 1.818203 1_555
Al12 O13 1.821428 1_555
Al12 O26 1.892049 1_555
Al13 O13 1.818192 1_555
Al13 O12 1.821433 1_655
Al13 O27 1.892049 1_555
Al14 O14 1.818192 1_555
Al14 O8 1.821433 1_455
Al14 O31 1.892049 1_555
Al15 O15 1.818203 1_555
Al15 O9 1.821433 1_455
Al15 O30 1.892049 1_555
O0 Si0 1.615548 1_555
O1 Si1 1.615548 1_555
O2 Si2 1.615548 1_555
O3 Si3 1.615548 1_555
O4 Si4 1.615548 1_555
O5 Si5 1.615548 1_555
O6 Si6 1.615548 1_555
O7 Si7 1.615548 1_555
O16 Si7 1.641977 1_555
O16 Si0 1.645801 1_555
O17 Si6 1.641977 1_555
O17 Si1 1.645801 1_555
O18 Si5 1.641977 1_555
O18 Si2 1.645801 1_555
O19 Si4 1.641977 1_655
O19 Si3 1.645801 1_555
O20 Si3 1.641977 1_555
O20 Si4 1.645801 1_555
O21 Si2 1.641977 1_655
O21 Si5 1.645801 1_555
O22 Si1 1.641977 1_455
O22 Si6 1.645801 1_555
O23 Si0 1.641977 1_455
O23 Si7 1.645801 1_555
O24 Si0 1.654061 1_555
O25 Si1 1.654061 1_555
O26 Si2 1.654061 1_555
O27 Si3 1.654061 1_545
O28 Si4 1.654061 1_555
O29 Si5 1.654061 1_565
O30 Si6 1.654061 1_556
O31 Si7 1.654061 1_554
