# generated using pymatgen
data_Dy2Si9B36C
_symmetry_space_group_name_H-M   'P 1'
_cell_length_a   8.04102975
_cell_length_b   8.04102975
_cell_length_c   8.01233762
_cell_angle_alpha   78.02391606
_cell_angle_beta   78.02391606
_cell_angle_gamma   77.93128821
_symmetry_Int_Tables_number   1
_chemical_formula_structural   Dy2Si9B36C
_chemical_formula_sum   'Dy2 Si9 B36 C1'
_cell_volume   488.23795458
_cell_formula_units_Z   1
loop_
 _symmetry_equiv_pos_site_id
 _symmetry_equiv_pos_as_xyz
  1  'x, y, z'
loop_
 _atom_site_type_symbol
 _atom_site_label
 _atom_site_symmetry_multiplicity
 _atom_site_fract_x
 _atom_site_fract_y
 _atom_site_fract_z
 _atom_site_occupancy
  Dy  Dy0  1  0.00028000  0.50012600  0.50026100  1
  Dy  Dy1  1  0.50012600  0.00028000  0.50026100  1
  Si  Si0  1  0.26689300  0.65611800  0.25423000  1
  Si  Si1  1  0.26280100  0.26280100  0.66289100  1
  Si  Si2  1  0.65611800  0.26689300  0.25423000  1
  Si  Si3  1  0.73349200  0.34589900  0.74601600  1
  Si  Si4  1  0.73724100  0.73724100  0.33971600  1
  Si  Si5  1  0.34589900  0.73349200  0.74601600  1
  Si  Si6  1  0.42832700  0.42832700  0.42729700  1
  Si  Si7  1  0.56999900  0.56999900  0.57148800  1
  Si  Si8  1  0.04462200  0.04462200  0.04299400  1
  B  B0  1  0.44694500  0.87412200  0.87407400  1
  B  B1  1  0.87412200  0.44694500  0.87407400  1
  B  B2  1  0.87444400  0.87444400  0.44570000  1
  B  B3  1  0.56246300  0.12230900  0.12248900  1
  B  B4  1  0.12230900  0.56246300  0.12248900  1
  B  B5  1  0.12185400  0.12185400  0.56404000  1
  B  B6  1  0.37388800  0.20099600  0.01917500  1
  B  B7  1  0.01832300  0.37449100  0.19673700  1
  B  B8  1  0.19768000  0.01727400  0.37422400  1
  B  B9  1  0.01727400  0.19768000  0.37422400  1
  B  B10  1  0.37449100  0.01832300  0.19673700  1
  B  B11  1  0.20099600  0.37388800  0.01917500  1
  B  B12  1  0.62928300  0.79667000  0.97751800  1
  B  B13  1  0.97864100  0.62902100  0.80014900  1
  B  B14  1  0.79939300  0.97965800  0.62899900  1
  B  B15  1  0.97965800  0.79939300  0.62899900  1
  B  B16  1  0.62902100  0.97864100  0.80014900  1
  B  B17  1  0.79667000  0.62928300  0.97751800  1
  B  B18  1  0.29721600  0.00580400  0.00564000  1
  B  B19  1  0.00580400  0.29721600  0.00564000  1
  B  B20  1  0.00545300  0.00545300  0.29589100  1
  B  B21  1  0.72363200  0.98248500  0.98275700  1
  B  B22  1  0.98248500  0.72363200  0.98275700  1
  B  B23  1  0.98270500  0.98270500  0.72547200  1
  B  B24  1  0.42160600  0.10728800  0.82404200  1
  B  B25  1  0.81997700  0.42084900  0.10607500  1
  B  B26  1  0.10936000  0.81948000  0.41935600  1
  B  B27  1  0.81948000  0.10936000  0.41935600  1
  B  B28  1  0.42084900  0.81997700  0.10607500  1
  B  B29  1  0.10728800  0.42160600  0.82404200  1
  B  B30  1  0.58796400  0.89188700  0.17158400  1
  B  B31  1  0.17547200  0.58868300  0.89315000  1
  B  B32  1  0.88988300  0.17643400  0.58999200  1
  B  B33  1  0.17643400  0.88988300  0.58999200  1
  B  B34  1  0.58868300  0.17547200  0.89315000  1
  B  B35  1  0.89188700  0.58796400  0.17158400  1
  C  C0  1  0.93310900  0.93310900  0.93420800  1
loop_
_geom_bond_atom_site_label_1
_geom_bond_atom_site_label_2
_geom_bond_distance
_geom_bond_site_symmetry_2
Dy0 Si4 2.861565 1_455
Dy0 Si1 2.867187 1_555
Dy0 Si3 2.891943 1_455
Dy0 Si0 2.898248 1_555
Dy0 Si6 3.316031 1_555
Dy0 Si7 3.333619 1_455
Dy1 Si4 2.861565 1_545
Dy1 Si1 2.867187 1_555
Dy1 Si5 2.891943 1_545
Dy1 Si2 2.898248 1_555
Dy1 Si6 3.316031 1_555
Dy1 Si7 3.333619 1_545
Si0 Si6 2.379412 1_555
Si1 Si6 2.400375 1_555
Si2 Si6 2.379412 1_555
Si3 Si7 2.378548 1_555
Si4 Si7 2.397701 1_555
Si5 Si7 2.378548 1_555
Si6 Si7 2.359090 1_555
B0 B18 1.756528 1_566
B0 B12 1.769968 1_555
B0 B16 1.774475 1_555
B0 B28 1.797065 1_556
B0 B24 1.810988 1_565
B0 Si5 2.050216 1_555
B0 Dy1 2.927729 1_565
B1 B19 1.756528 1_656
B1 B17 1.769968 1_555
B1 B13 1.774475 1_555
B1 B25 1.797065 1_556
B1 B29 1.810988 1_655
B1 Si3 2.050216 1_555
B1 Dy0 2.927729 1_655
B2 B20 1.753512 1_665
B2 B26 1.825436 1_655
B2 B27 1.825436 1_565
B2 Si4 2.107613 1_555
B2 Dy1 2.939116 1_565
B2 Dy0 2.939116 1_655
B3 B34 1.776138 1_554
B3 B30 1.789382 1_545
B3 B6 1.813064 1_555
B3 Si2 2.058710 1_555
B3 Dy1 2.952839 1_555
B4 B7 1.812885 1_555
B4 Si0 2.058710 1_555
B4 Dy0 2.952839 1_555
B5 B8 1.823045 1_555
B5 B9 1.823045 1_555
B5 Si1 2.116250 1_555
B5 Dy1 2.964379 1_555
B5 Dy0 2.964379 1_555
B7 B9 1.790170 1_555
B7 Dy0 2.787081 1_555
B8 B9 1.824495 1_555
B8 Dy1 2.788544 1_555
B9 Dy0 2.788544 1_555
B10 B8 1.790170 1_555
B10 B18 1.795986 1_555
B10 B30 1.797903 1_545
B10 B3 1.812885 1_555
B10 B6 1.820519 1_555
B10 B28 1.824878 1_545
B10 Dy1 2.787081 1_555
B11 B6 1.748504 1_555
B11 B31 1.805227 1_554
B11 B29 1.810661 1_554
B11 B4 1.813064 1_555
B11 B7 1.820519 1_555
B11 B19 1.832583 1_555
B12 B17 1.692830 1_555
B12 B28 1.771291 1_556
B12 B30 1.813195 1_556
B12 B16 1.815946 1_555
B12 B21 1.822926 1_555
B13 B15 1.725615 1_555
B13 B29 1.765394 1_655
B13 B22 1.791921 1_555
B13 B17 1.815946 1_555
B13 B31 1.827552 1_655
B13 Dy0 2.768135 1_655
B14 B16 1.725615 1_555
B14 B27 1.779359 1_565
B14 B2 1.780795 1_555
B14 B23 1.807381 1_555
B14 B32 1.820050 1_565
B14 B15 1.823069 1_555
B14 Dy1 2.770304 1_565
B15 B26 1.779359 1_655
B15 B2 1.780795 1_555
B15 B23 1.807381 1_555
B15 B33 1.820050 1_655
B15 Dy0 2.770304 1_655
B16 B24 1.765394 1_565
B16 B21 1.791921 1_555
B16 B34 1.827552 1_565
B16 Dy1 2.768135 1_565
B17 B25 1.771291 1_556
B17 B35 1.813195 1_556
B17 B22 1.822926 1_555
B18 B24 1.740125 1_554
B18 B28 1.755117 1_545
B18 B6 1.832583 1_555
B18 Si8 1.958012 1_555
B19 B29 1.740125 1_554
B19 B25 1.755117 1_455
B19 B7 1.795986 1_555
B19 Si8 1.958012 1_555
B20 B27 1.766229 1_455
B20 B26 1.766229 1_545
B20 B9 1.811342 1_555
B20 B8 1.811342 1_555
B20 Si8 1.953469 1_555
B21 C0 1.630554 1_555
B21 B30 1.788787 1_556
B21 B34 1.804961 1_565
B21 B3 1.872977 1_566
B22 C0 1.630554 1_555
B22 B35 1.788787 1_556
B22 B31 1.804961 1_655
B22 B4 1.872977 1_656
B23 C0 1.621149 1_555
B23 B33 1.819442 1_655
B23 B32 1.819442 1_565
B23 B5 1.870610 1_665
B24 B34 1.776189 1_555
B24 B6 1.810661 1_556
B24 Si1 2.051332 1_555
B24 Dy1 2.808659 1_555
B25 B35 1.777407 1_555
B25 B7 1.824878 1_655
B25 Si2 2.025058 1_555
B26 B33 1.798750 1_555
B26 B8 1.814327 1_565
B26 Si0 2.100120 1_555
B26 Dy0 2.792653 1_555
B27 B32 1.798750 1_555
B27 B9 1.814327 1_655
B27 Si2 2.100120 1_555
B27 Dy1 2.792653 1_555
B28 B30 1.777407 1_555
B28 Si0 2.025058 1_555
B29 B31 1.776189 1_555
B29 Si1 2.051332 1_555
B29 Dy0 2.808659 1_555
B30 Si4 2.038036 1_555
B30 Dy1 2.849021 1_565
B31 B4 1.776138 1_556
B31 Si5 2.012656 1_555
B32 B5 1.802699 1_655
B32 B9 1.811885 1_655
B32 Si3 2.083038 1_555
B32 Dy0 2.829187 1_655
B33 B5 1.802699 1_565
B33 B8 1.811885 1_565
B33 Si5 2.083038 1_555
B33 Dy1 2.829187 1_565
B34 B6 1.805227 1_556
B34 Si3 2.012656 1_555
B35 B4 1.789382 1_655
B35 B7 1.797903 1_655
B35 Si4 2.038036 1_555
B35 Dy0 2.849021 1_655
C0 Si8 1.831050 1_666
