# generated using pymatgen
data_Lu3TlC
_symmetry_space_group_name_H-M   'P 1'
_cell_length_a   4.74607332
_cell_length_b   4.74607332
_cell_length_c   4.74607332
_cell_angle_alpha   90.00000000
_cell_angle_beta   90.00000000
_cell_angle_gamma   90.00000000
_symmetry_Int_Tables_number   1
_chemical_formula_structural   Lu3TlC
_chemical_formula_sum   'Lu3 Tl1 C1'
_cell_volume   106.90630751
_cell_formula_units_Z   1
loop_
 _symmetry_equiv_pos_site_id
 _symmetry_equiv_pos_as_xyz
  1  'x, y, z'
loop_
 _atom_site_type_symbol
 _atom_site_label
 _atom_site_symmetry_multiplicity
 _atom_site_fract_x
 _atom_site_fract_y
 _atom_site_fract_z
 _atom_site_occupancy
  Lu  Lu0  1  0.50000000  -0.00000000  0.50000000  1
  Lu  Lu1  1  -0.00000000  0.50000000  0.50000000  1
  Lu  Lu2  1  0.50000000  0.50000000  -0.00000000  1
  Tl  Tl0  1  -0.00000000  -0.00000000  -0.00000000  1
  C  C0  1  0.50000000  0.50000000  0.50000000  1
loop_
_geom_bond_atom_site_label_1
_geom_bond_atom_site_label_2
_geom_bond_distance
_geom_bond_site_symmetry_2
Lu0 Tl0 3.355981 1_656
Lu0 Tl0 3.355981 1_555
Lu0 Tl0 3.355981 1_556
Lu0 Tl0 3.355981 1_655
Lu1 Tl0 3.355981 1_566
Lu1 Tl0 3.355981 1_555
Lu1 Tl0 3.355981 1_556
Lu1 Tl0 3.355981 1_565
Lu2 Tl0 3.355981 1_665
Lu2 Tl0 3.355981 1_555
Lu2 Tl0 3.355981 1_565
Lu2 Tl0 3.355981 1_655
C0 Lu0 2.373037 1_555
C0 Lu0 2.373037 1_565
C0 Lu1 2.373037 1_555
C0 Lu2 2.373037 1_556
C0 Lu1 2.373037 1_655
C0 Lu2 2.373037 1_555
