# generated using pymatgen
data_LuCrO5
_symmetry_space_group_name_H-M   'P 1'
_cell_length_a   8.03618710
_cell_length_b   8.15946833
_cell_length_c   11.41504500
_cell_angle_alpha   90.00000000
_cell_angle_beta   90.00000000
_cell_angle_gamma   92.13573890
_symmetry_Int_Tables_number   1
_chemical_formula_structural   LuCrO5
_chemical_formula_sum   'Lu8 Cr8 O40'
_cell_volume   747.97612850
_cell_formula_units_Z   8
loop_
 _symmetry_equiv_pos_site_id
 _symmetry_equiv_pos_as_xyz
  1  'x, y, z'
loop_
 _atom_site_type_symbol
 _atom_site_label
 _atom_site_symmetry_multiplicity
 _atom_site_fract_x
 _atom_site_fract_y
 _atom_site_fract_z
 _atom_site_occupancy
  Lu  Lu0  1  0.86709200  0.66009300  0.55867900  1
  Lu  Lu1  1  0.13290800  0.33990700  0.44132100  1
  Lu  Lu2  1  0.63290800  0.83990700  0.05867900  1
  Lu  Lu3  1  0.36709200  0.16009300  0.94132100  1
  Lu  Lu4  1  0.07184600  0.82258200  0.07588900  1
  Lu  Lu5  1  0.92815400  0.17741800  0.92411100  1
  Lu  Lu6  1  0.42815400  0.67741800  0.57588900  1
  Lu  Lu7  1  0.57184600  0.32258200  0.42411100  1
  Cr  Cr0  1  0.13592100  0.00084000  0.67214500  1
  Cr  Cr1  1  0.86407900  0.99916000  0.32785500  1
  Cr  Cr2  1  0.36407900  0.49916000  0.17214500  1
  Cr  Cr3  1  0.63592100  0.50084000  0.82785500  1
  Cr  Cr4  1  0.36270100  0.95538900  0.31020200  1
  Cr  Cr5  1  0.63729900  0.04461100  0.68979800  1
  Cr  Cr6  1  0.13729900  0.54461100  0.81020200  1
  Cr  Cr7  1  0.86270100  0.45538900  0.18979800  1
  O  O0  1  0.30688600  0.91442800  0.62797000  1
  O  O1  1  0.69311400  0.08557200  0.37203000  1
  O  O2  1  0.19311400  0.58557200  0.12797000  1
  O  O3  1  0.80688600  0.41442800  0.87203000  1
  O  O4  1  0.15562200  0.60411500  0.51301000  1
  O  O5  1  0.84437800  0.39588500  0.48699000  1
  O  O6  1  0.34437800  0.89588500  0.01301000  1
  O  O7  1  0.65562200  0.10411500  0.98699000  1
  O  O8  1  0.65883700  0.56566000  0.68730100  1
  O  O9  1  0.34116300  0.43434000  0.31269900  1
  O  O10  1  0.84116300  0.93434000  0.18730100  1
  O  O11  1  0.15883700  0.06566000  0.81269900  1
  O  O12  1  0.42428400  0.81369800  0.40343100  1
  O  O13  1  0.57571600  0.18630200  0.59656900  1
  O  O14  1  0.07571600  0.68630200  0.90343100  1
  O  O15  1  0.92428400  0.31369800  0.09656900  1
  O  O16  1  0.90117900  0.84239700  0.41597900  1
  O  O17  1  0.09882100  0.15760300  0.58402100  1
  O  O18  1  0.59882100  0.65760300  0.91597900  1
  O  O19  1  0.40117900  0.34239700  0.08402100  1
  O  O20  1  0.98742800  0.85671200  0.66517900  1
  O  O21  1  0.01257200  0.14328800  0.33482100  1
  O  O22  1  0.51257200  0.64328800  0.16517900  1
  O  O23  1  0.48742800  0.35671200  0.83482100  1
  O  O24  1  0.18222000  0.89121700  0.25533400  1
  O  O25  1  0.81778000  0.10878300  0.74466600  1
  O  O26  1  0.31778000  0.60878300  0.75533400  1
  O  O27  1  0.68222000  0.39121700  0.24466600  1
  O  O28  1  0.48846000  0.98071700  0.19317200  1
  O  O29  1  0.51154000  0.01928300  0.80682800  1
  O  O30  1  0.01154000  0.51928300  0.69317200  1
  O  O31  1  0.98846000  0.48071700  0.30682800  1
  O  O32  1  0.63941600  0.58393300  0.45978400  1
  O  O33  1  0.36058400  0.41606700  0.54021600  1
  O  O34  1  0.86058400  0.91606700  0.95978400  1
  O  O35  1  0.13941600  0.08393300  0.04021600  1
  O  O36  1  0.84755900  0.63523600  0.11855700  1
  O  O37  1  0.15244100  0.36476400  0.88144300  1
  O  O38  1  0.65244100  0.86476400  0.61855700  1
  O  O39  1  0.34755900  0.13523600  0.38144300  1
loop_
_geom_bond_atom_site_label_1
_geom_bond_atom_site_label_2
_geom_bond_distance
_geom_bond_site_symmetry_2
Lu0 O20 2.207095 1_555
Lu0 O16 2.216018 1_555
Lu0 O32 2.218880 1_555
Lu0 O30 2.263606 1_655
Lu0 O5 2.306755 1_555
Lu0 O8 2.335409 1_555
Lu0 O4 2.436310 1_655
Lu0 O38 2.538968 1_555
Lu1 O21 2.207095 1_555
Lu1 O17 2.216018 1_555
Lu1 O33 2.218880 1_555
Lu1 O31 2.263606 1_455
Lu1 O4 2.306755 1_555
Lu1 O9 2.335409 1_555
Lu1 O5 2.436310 1_455
Lu1 O39 2.538968 1_555
Lu2 O22 2.207095 1_555
Lu2 O18 2.216018 1_554
Lu2 O34 2.218880 1_554
Lu2 O28 2.263606 1_555
Lu2 O7 2.306755 1_564
Lu2 O10 2.335409 1_555
Lu2 O6 2.436310 1_555
Lu2 O36 2.538968 1_555
Lu3 O23 2.207095 1_555
Lu3 O19 2.216018 1_556
Lu3 O35 2.218880 1_556
Lu3 O29 2.263606 1_555
Lu3 O6 2.306755 1_546
Lu3 O11 2.335409 1_555
Lu3 O7 2.436310 1_555
Lu3 O37 2.538968 1_555
Lu4 O35 2.218527 1_565
Lu4 O14 2.261742 1_554
Lu4 O2 2.276729 1_555
Lu4 O24 2.293290 1_555
Lu4 O34 2.305912 1_454
Lu4 O6 2.360490 1_555
Lu4 O36 2.370086 1_455
Lu4 O10 2.451848 1_455
Lu5 O34 2.218527 1_545
Lu5 O15 2.261742 1_556
Lu5 O3 2.276729 1_555
Lu5 O25 2.293290 1_555
Lu5 O35 2.305912 1_656
Lu5 O7 2.360490 1_555
Lu5 O37 2.370086 1_655
Lu5 O11 2.451848 1_655
Lu6 O33 2.218527 1_555
Lu6 O12 2.261742 1_555
Lu6 O0 2.276729 1_555
Lu6 O26 2.293290 1_555
Lu6 O32 2.305912 1_555
Lu6 O4 2.360490 1_555
Lu6 O38 2.370086 1_555
Lu6 O8 2.451848 1_555
Lu7 O32 2.218527 1_555
Lu7 O13 2.261742 1_555
Lu7 O1 2.276729 1_555
Lu7 O27 2.293290 1_555
Lu7 O33 2.305912 1_555
Lu7 O5 2.360490 1_555
Lu7 O39 2.370086 1_555
Lu7 O9 2.451848 1_555
Cr0 O20 1.645821 1_445
Cr0 O0 1.646582 1_545
Cr0 O17 1.662928 1_555
Cr0 O11 1.697228 1_555
Cr1 O21 1.645821 1_665
Cr1 O1 1.646582 1_565
Cr1 O16 1.662928 1_555
Cr1 O10 1.697228 1_555
Cr2 O22 1.645821 1_555
Cr2 O2 1.646582 1_555
Cr2 O19 1.662928 1_555
Cr2 O9 1.697228 1_555
Cr3 O23 1.645821 1_555
Cr3 O3 1.646582 1_555
Cr3 O18 1.662928 1_555
Cr3 O8 1.697228 1_555
Cr4 O24 1.647252 1_555
Cr4 O12 1.660342 1_555
Cr4 O28 1.683193 1_555
Cr4 O39 1.686081 1_565
Cr5 O25 1.647252 1_555
Cr5 O13 1.660342 1_555
Cr5 O29 1.683193 1_555
Cr5 O38 1.686081 1_545
Cr6 O26 1.647252 1_555
Cr6 O14 1.660342 1_555
Cr6 O30 1.683193 1_555
Cr6 O37 1.686081 1_555
Cr7 O27 1.647252 1_555
Cr7 O15 1.660342 1_555
Cr7 O31 1.683193 1_555
Cr7 O36 1.686081 1_555
