# generated using pymatgen
data_CaHoO3
_symmetry_space_group_name_H-M   'P 1'
_cell_length_a   4.31132800
_cell_length_b   4.31132800
_cell_length_c   4.31132800
_cell_angle_alpha   90.00000000
_cell_angle_beta   90.00000000
_cell_angle_gamma   90.00000000
_symmetry_Int_Tables_number   1
_chemical_formula_structural   CaHoO3
_chemical_formula_sum   'Ca1 Ho1 O3'
_cell_volume   80.13702099
_cell_formula_units_Z   1
loop_
 _symmetry_equiv_pos_site_id
 _symmetry_equiv_pos_as_xyz
  1  'x, y, z'
loop_
 _atom_site_type_symbol
 _atom_site_label
 _atom_site_symmetry_multiplicity
 _atom_site_fract_x
 _atom_site_fract_y
 _atom_site_fract_z
 _atom_site_occupancy
  Ca  Ca0  1  0.00000000  0.00000000  0.00000000  1
  Ho  Ho0  1  0.50000000  0.50000000  0.50000000  1
  O  O0  1  0.50000000  0.50000000  0.00000000  1
  O  O1  1  0.50000000  0.00000000  0.50000000  1
  O  O2  1  0.00000000  0.50000000  0.50000000  1
loop_
_geom_bond_atom_site_label_1
_geom_bond_atom_site_label_2
_geom_bond_distance
_geom_bond_site_symmetry_2
Ca0 O2 3.048569 1_545
Ca0 O1 3.048569 1_455
Ca0 O1 3.048569 1_555
Ca0 O1 3.048569 1_454
Ca0 O1 3.048569 1_554
Ca0 O0 3.048569 1_545
Ca0 O0 3.048569 1_555
Ca0 O0 3.048569 1_445
Ca0 O2 3.048569 1_555
Ca0 O0 3.048569 1_455
Ca0 O2 3.048569 1_554
Ca0 O2 3.048569 1_544
Ho0 O0 2.155664 1_555
Ho0 O2 2.155664 1_555
Ho0 O1 2.155664 1_565
Ho0 O2 2.155664 1_655
Ho0 O0 2.155664 1_556
Ho0 O1 2.155664 1_555
