# generated using pymatgen
data_Mn2Fe(PO4)3
_symmetry_space_group_name_H-M   'P 1'
_cell_length_a   5.97154600
_cell_length_b   10.94240800
_cell_length_c   13.89974586
_cell_angle_alpha   71.55406907
_cell_angle_beta   90.00000000
_cell_angle_gamma   90.00000000
_symmetry_Int_Tables_number   1
_chemical_formula_structural   Mn2Fe(PO4)3
_chemical_formula_sum   'Mn8 Fe4 P12 O48'
_cell_volume   861.58879821
_cell_formula_units_Z   4
loop_
 _symmetry_equiv_pos_site_id
 _symmetry_equiv_pos_as_xyz
  1  'x, y, z'
loop_
 _atom_site_type_symbol
 _atom_site_label
 _atom_site_symmetry_multiplicity
 _atom_site_fract_x
 _atom_site_fract_y
 _atom_site_fract_z
 _atom_site_occupancy
  Mn  Mn0  1  0.00000000  0.82875000  0.45642900  1
  Mn  Mn1  1  0.00000000  0.16204500  0.12224300  1
  Mn  Mn2  1  0.50000000  0.27902700  0.93379000  1
  Mn  Mn3  1  0.50000000  0.61691700  0.60136200  1
  Mn  Mn4  1  0.50000000  0.94859200  0.26659300  1
  Mn  Mn5  1  0.50000000  0.50661100  0.21071800  1
  Mn  Mn6  1  0.50000000  0.83949100  0.87787200  1
  Mn  Mn7  1  0.50000000  0.17214000  0.54517700  1
  Fe  Fe0  1  0.00000000  0.70700200  0.07058300  1
  Fe  Fe1  1  0.00000000  0.03889000  0.73899900  1
  Fe  Fe2  1  0.00000000  0.37247800  0.40463100  1
  Fe  Fe3  1  0.00000000  0.49659200  0.78113600  1
  P  P0  1  0.00000000  0.09846900  0.49469400  1
  P  P1  1  0.00000000  0.43200700  0.16125400  1
  P  P2  1  0.00000000  0.76650100  0.82688300  1
  P  P3  1  0.00000000  0.86147100  0.23537100  1
  P  P4  1  0.00000000  0.19215700  0.90173600  1
  P  P5  1  0.00000000  0.52706600  0.56838600  1
  P  P6  1  0.50000000  0.23544100  0.16885500  1
  P  P7  1  0.50000000  0.56822000  0.83610900  1
  P  P8  1  0.50000000  0.90155900  0.50249500  1
  P  P9  1  0.50000000  0.47079100  0.43408800  1
  P  P10  1  0.50000000  0.80495800  0.09948100  1
  P  P11  1  0.50000000  0.13722400  0.76614800  1
  O  O0  1  0.00000000  0.40828800  0.53314900  1
  O  O1  1  0.00000000  0.74336300  0.19877100  1
  O  O2  1  0.00000000  0.07143700  0.86779600  1
  O  O3  1  0.00000000  0.01251600  0.42590800  1
  O  O4  1  0.00000000  0.34584900  0.09303100  1
  O  O5  1  0.00000000  0.68291400  0.75765100  1
  O  O6  1  0.50000000  0.92404300  0.13618900  1
  O  O7  1  0.50000000  0.25636900  0.80253000  1
  O  O8  1  0.50000000  0.58899900  0.47191600  1
  O  O9  1  0.50000000  0.32515000  0.23539600  1
  O  O10  1  0.50000000  0.65767100  0.90291700  1
  O  O11  1  0.50000000  0.99085400  0.56909100  1
  O  O12  1  0.20032800  0.19762500  0.46702800  1
  O  O13  1  0.20032300  0.53099200  0.13407100  1
  O  O14  1  0.20064900  0.86588800  0.80108100  1
  O  O15  1  0.79731900  0.85921400  0.30745000  1
  O  O16  1  0.79705700  0.19028600  0.97391500  1
  O  O17  1  0.79952100  0.52446800  0.64238200  1
  O  O18  1  0.70275200  0.14056400  0.19606000  1
  O  O19  1  0.70586100  0.47591900  0.86039200  1
  O  O20  1  0.70230600  0.80616900  0.52960700  1
  O  O21  1  0.29492800  0.47269900  0.36365400  1
  O  O22  1  0.29514400  0.80619500  0.02914600  1
  O  O23  1  0.29533800  0.13831700  0.69548000  1
  O  O24  1  0.29724800  0.14056400  0.19606000  1
  O  O25  1  0.29413900  0.47591900  0.86039200  1
  O  O26  1  0.29769400  0.80616900  0.52960700  1
  O  O27  1  0.70507200  0.47269900  0.36365400  1
  O  O28  1  0.70485600  0.80619500  0.02914600  1
  O  O29  1  0.70466200  0.13831700  0.69548000  1
  O  O30  1  0.79967200  0.19762500  0.46702800  1
  O  O31  1  0.79967700  0.53099200  0.13407100  1
  O  O32  1  0.79935100  0.86588800  0.80108100  1
  O  O33  1  0.20268100  0.85921400  0.30745000  1
  O  O34  1  0.20294300  0.19028600  0.97391500  1
  O  O35  1  0.20047900  0.52446800  0.64238200  1
  O  O36  1  0.00000000  0.34966900  0.27248600  1
  O  O37  1  0.00000000  0.68397700  0.93818600  1
  O  O38  1  0.00000000  0.01574200  0.60546000  1
  O  O39  1  0.00000000  0.98247000  0.14081900  1
  O  O40  1  0.00000000  0.31276700  0.80839400  1
  O  O41  1  0.00000000  0.64818100  0.47454300  1
  O  O42  1  0.50000000  0.98785900  0.39097300  1
  O  O43  1  0.50000000  0.32127500  0.05711200  1
  O  O44  1  0.50000000  0.65696900  0.72426400  1
  O  O45  1  0.50000000  0.35020200  0.52987500  1
  O  O46  1  0.50000000  0.68472900  0.19553800  1
  O  O47  1  0.50000000  0.01763800  0.86244300  1
loop_
_geom_bond_atom_site_label_1
_geom_bond_atom_site_label_2
_geom_bond_distance
_geom_bond_site_symmetry_2
Mn0 O41 1.911177 1_555
Mn0 O3 1.919277 1_565
Mn0 O26 2.024057 1_555
Mn0 O20 2.024057 1_455
Mn0 O33 2.329647 1_555
Mn0 O15 2.329647 1_455
Mn1 O39 1.899147 1_545
Mn1 O4 1.921779 1_555
Mn1 O24 2.026355 1_555
Mn1 O18 2.026355 1_455
Mn1 O34 2.326300 1_554
Mn1 O16 2.326300 1_454
Mn2 O43 1.911408 1_556
Mn2 O7 1.917409 1_555
Mn2 O16 2.014434 1_555
Mn2 O34 2.014434 1_555
Mn2 O19 2.408908 1_555
Mn2 O25 2.408908 1_555
Mn3 O44 1.893192 1_555
Mn3 O8 1.917946 1_555
Mn3 O17 2.045129 1_555
Mn3 O35 2.045129 1_555
Mn3 O20 2.331454 1_555
Mn3 O26 2.331454 1_555
Mn4 O42 1.908830 1_555
Mn4 O6 1.914612 1_555
Mn4 O33 2.019846 1_555
Mn4 O15 2.019846 1_555
Mn4 O18 2.352973 1_565
Mn4 O24 2.352973 1_565
Mn5 O46 1.892890 1_555
Mn5 O9 1.905081 1_555
Mn5 O31 2.056397 1_555
Mn5 O13 2.056397 1_555
Mn5 O27 2.378457 1_555
Mn5 O21 2.378457 1_555
Mn6 O47 1.892467 1_565
Mn6 O10 1.908193 1_555
Mn6 O32 2.055016 1_555
Mn6 O14 2.055016 1_555
Mn6 O28 2.359163 1_556
Mn6 O22 2.359163 1_556
Mn7 O45 1.891918 1_555
Mn7 O11 1.904812 1_545
Mn7 O30 2.065997 1_555
Mn7 O12 2.065997 1_555
Mn7 O23 2.346480 1_555
Mn7 O29 2.346480 1_555
Fe0 O37 1.934822 1_554
Fe0 O1 1.944652 1_555
Fe0 O22 2.054392 1_555
Fe0 O28 2.054392 1_455
Fe0 O13 2.200809 1_555
Fe0 O31 2.200809 1_455
Fe1 O2 1.932690 1_555
Fe1 O38 1.951155 1_555
Fe1 O29 2.059973 1_455
Fe1 O23 2.059973 1_555
Fe1 O14 2.174903 1_545
Fe1 O32 2.174903 1_445
Fe2 O36 1.930328 1_555
Fe2 O0 1.946180 1_555
Fe2 O21 2.057556 1_555
Fe2 O27 2.057556 1_455
Fe2 O12 2.189503 1_555
Fe2 O30 2.189503 1_455
Fe3 O40 1.925449 1_555
Fe3 O5 1.960139 1_555
Fe3 O25 2.047497 1_555
Fe3 O19 2.047497 1_455
Fe3 O35 2.207634 1_555
Fe3 O17 2.207634 1_455
O0 P5 1.527088 1_555
O1 P3 1.531382 1_555
O2 P4 1.536837 1_555
O3 P0 1.538768 1_555
O4 P1 1.534216 1_555
O5 P2 1.523021 1_555
O6 P10 1.542429 1_555
O7 P11 1.540347 1_555
O8 P9 1.542707 1_555
O9 P6 1.547124 1_555
O10 P7 1.547768 1_555
O11 P8 1.544007 1_555
O12 P0 1.578650 1_555
O13 P1 1.577322 1_555
O14 P2 1.581195 1_555
O15 P3 1.566393 1_655
O16 P4 1.569278 1_655
O17 P5 1.572700 1_655
O18 P6 1.561500 1_555
O19 P7 1.558681 1_555
O20 P8 1.562709 1_555
O21 P9 1.563844 1_555
O22 P10 1.563351 1_555
O23 P11 1.565632 1_555
O24 P6 1.561500 1_555
O25 P7 1.558681 1_555
O26 P8 1.562709 1_555
O27 P9 1.563844 1_555
O28 P10 1.563351 1_555
O29 P11 1.565632 1_555
O30 P0 1.578650 1_655
O31 P1 1.577322 1_655
O32 P2 1.581195 1_655
O33 P3 1.566393 1_555
O34 P4 1.569278 1_555
O35 P5 1.572700 1_555
O36 P1 1.523371 1_555
O37 P2 1.524738 1_555
O38 P0 1.519179 1_555
O39 P3 1.542438 1_555
O40 P4 1.530204 1_555
O41 P5 1.537492 1_555
O42 P8 1.538932 1_555
O43 P6 1.539941 1_555
O44 P7 1.550657 1_555
O45 P9 1.549861 1_555
O46 P10 1.549803 1_555
O47 P11 1.547733 1_555
