# generated using pymatgen
data_Cs3VF6
_symmetry_space_group_name_H-M   'P 1'
_cell_length_a   6.69140766
_cell_length_b   6.69140117
_cell_length_c   6.69141198
_cell_angle_alpha   60.00001070
_cell_angle_beta   59.99991453
_cell_angle_gamma   60.00007477
_symmetry_Int_Tables_number   1
_chemical_formula_structural   Cs3VF6
_chemical_formula_sum   'Cs3 V1 F6'
_cell_volume   211.85432214
_cell_formula_units_Z   1
loop_
 _symmetry_equiv_pos_site_id
 _symmetry_equiv_pos_as_xyz
  1  'x, y, z'
loop_
 _atom_site_type_symbol
 _atom_site_label
 _atom_site_symmetry_multiplicity
 _atom_site_fract_x
 _atom_site_fract_y
 _atom_site_fract_z
 _atom_site_occupancy
  Cs  Cs0  1  0.25000000  0.25000000  0.25000000  1
  Cs  Cs1  1  0.75000000  0.75000000  0.75000000  1
  Cs  Cs2  1  0.50000000  0.50000000  0.50000000  1
  V  V0  1  -0.00000000  -0.00000000  0.00000000  1
  F  F0  1  0.79441684  0.20558316  0.20558316  1
  F  F1  1  0.20558316  0.79441684  0.79441684  1
  F  F2  1  0.20558416  0.79441584  0.20558416  1
  F  F3  1  0.79441584  0.20558416  0.79441584  1
  F  F4  1  0.20558316  0.20558316  0.79441684  1
  F  F5  1  0.79441684  0.79441684  0.20558316  1
loop_
_geom_bond_atom_site_label_1
_geom_bond_atom_site_label_2
_geom_bond_distance
_geom_bond_site_symmetry_2
Cs0 F2 3.371999 1_545
Cs0 F2 3.371999 1_555
Cs0 F3 3.371999 1_554
Cs0 F3 3.371999 1_455
Cs0 F1 3.372003 1_554
Cs0 F1 3.372003 1_545
Cs0 F0 3.372003 1_455
Cs0 F0 3.372003 1_555
Cs0 F4 3.372005 1_554
Cs0 F5 3.372005 1_545
Cs0 F5 3.372005 1_455
Cs0 F4 3.372005 1_555
Cs1 F3 3.371999 1_565
Cs1 F2 3.371999 1_556
Cs1 F2 3.371999 1_655
Cs1 F3 3.371999 1_555
Cs1 F0 3.372003 1_556
Cs1 F0 3.372003 1_565
Cs1 F1 3.372003 1_655
Cs1 F1 3.372003 1_555
Cs1 F5 3.372005 1_556
Cs1 F5 3.372005 1_555
Cs1 F4 3.372005 1_565
Cs1 F4 3.372005 1_655
Cs2 F2 2.786085 1_555
Cs2 F3 2.786085 1_555
Cs2 F4 2.786085 1_555
Cs2 F5 2.786085 1_555
Cs2 F0 2.786089 1_555
Cs2 F1 2.786089 1_555
F0 V0 1.945449 1_655
F1 V0 1.945449 1_566
F2 V0 1.945462 1_565
F3 V0 1.945462 1_656
F4 V0 1.945447 1_556
F5 V0 1.945447 1_665
