# generated using pymatgen
data_Li6MnV3(PO4)6
_symmetry_space_group_name_H-M   'P 1'
_cell_length_a   9.77308600
_cell_length_b   9.84121375
_cell_length_c   9.84791823
_cell_angle_alpha   84.79160983
_cell_angle_beta   86.51949190
_cell_angle_gamma   87.31216780
_symmetry_Int_Tables_number   1
_chemical_formula_structural   Li6MnV3(PO4)6
_chemical_formula_sum   'Li12 Mn2 V6 P12 O48'
_cell_volume   940.69639434
_cell_formula_units_Z   2
loop_
 _symmetry_equiv_pos_site_id
 _symmetry_equiv_pos_as_xyz
  1  'x, y, z'
loop_
 _atom_site_type_symbol
 _atom_site_label
 _atom_site_symmetry_multiplicity
 _atom_site_fract_x
 _atom_site_fract_y
 _atom_site_fract_z
 _atom_site_occupancy
  Li  Li0  1  0.24031500  0.51315200  0.98567500  1
  Li  Li1  1  0.38523900  0.26382600  0.00006700  1
  Li  Li2  1  0.46546500  0.56702300  0.78087100  1
  Li  Li3  1  0.17708700  0.73436700  0.76994700  1
  Li  Li4  1  0.61205000  0.99027300  0.74561000  1
  Li  Li5  1  0.81397300  0.74560200  0.62398900  1
  Li  Li6  1  0.75366300  0.01309100  0.49188100  1
  Li  Li7  1  0.53581200  0.21965900  0.43643200  1
  Li  Li8  1  0.97350800  0.92539700  0.30125200  1
  Li  Li9  1  0.82127700  0.23230800  0.26462600  1
  Li  Li10  1  0.18883400  0.37836200  0.24859500  1
  Li  Li11  1  0.02400000  0.69128000  0.07869200  1
  Mn  Mn0  1  0.50103800  0.75701600  0.24915800  1
  Mn  Mn1  1  0.72223000  0.73608500  0.02906700  1
  V  V0  1  0.78246700  0.24919500  0.97023900  1
  V  V1  1  0.99964300  0.24611600  0.75112000  1
  V  V2  1  0.21751700  0.02832900  0.75230100  1
  V  V3  1  0.00189100  0.46592300  0.53073800  1
  V  V4  1  0.50175700  0.53356200  0.46756100  1
  V  V5  1  0.27988700  0.96798300  0.25640600  1
  P  P0  1  0.40477000  0.82157400  0.95176500  1
  P  P1  1  0.89880700  0.94449200  0.82686300  1
  P  P2  1  0.93018700  0.54927200  0.83936900  1
  P  P3  1  0.30186200  0.34168800  0.68043800  1
  P  P4  1  0.69791800  0.31888600  0.65849200  1
  P  P5  1  0.42460800  0.83835100  0.55921300  1
  P  P6  1  0.06964800  0.15534700  0.44901300  1
  P  P7  1  0.80230700  0.68243700  0.34806100  1
  P  P8  1  0.20200400  0.65209400  0.31501700  1
  P  P9  1  0.57705500  0.44384200  0.16018600  1
  P  P10  1  0.59351800  0.05228900  0.18487600  1
  P  P11  1  0.09662800  0.17333300  0.05368400  1
  O  O0  1  0.85919100  0.86793900  0.96806300  1
  O  O1  1  0.56172500  0.82091200  0.91801200  1
  O  O2  1  0.79136200  0.61045300  0.88887300  1
  O  O3  1  0.34240500  0.95943900  0.89016800  1
  O  O4  1  0.33816900  0.69718300  0.90354100  1
  O  O5  1  0.92594200  0.38906700  0.87374500  1
  O  O6  1  0.05523400  0.60126600  0.90423800  1
  O  O7  1  0.12407800  0.16313900  0.89401100  1
  O  O8  1  0.87268800  0.10291300  0.83893100  1
  O  O9  1  0.66959700  0.30958400  0.81608500  1
  O  O10  1  0.05437500  0.90874100  0.79800400  1
  O  O11  1  0.34938500  0.40439200  0.80581800  1
  O  O12  1  0.80982100  0.90993600  0.71337300  1
  O  O13  1  0.94327200  0.58791500  0.68052600  1
  O  O14  1  0.32840100  0.18444900  0.68805500  1
  O  O15  1  0.14058200  0.37706900  0.67273400  1
  O  O16  1  0.28636000  0.87615200  0.63577200  1
  O  O17  1  0.54882800  0.91017300  0.59763100  1
  O  O18  1  0.86022300  0.32499800  0.62165200  1
  O  O19  1  0.63402000  0.45767300  0.60408400  1
  O  O20  1  0.44420400  0.67816800  0.59260500  1
  O  O21  1  0.64934400  0.19391900  0.59591000  1
  O  O22  1  0.07435000  0.12180800  0.60872300  1
  O  O23  1  0.36856800  0.39678700  0.54203900  1
  O  O24  1  0.84348600  0.80526100  0.42050900  1
  O  O25  1  0.14343500  0.59134000  0.45320600  1
  O  O26  1  0.86265800  0.54489900  0.40898200  1
  O  O27  1  0.40881300  0.87407200  0.40143300  1
  O  O28  1  0.64067300  0.67157700  0.37315900  1
  O  O29  1  0.94056600  0.09700900  0.39846700  1
  O  O30  1  0.06929800  0.31383600  0.41033700  1
  O  O31  1  0.20485700  0.09333200  0.38746100  1
  O  O32  1  0.36462400  0.62851600  0.32425500  1
  O  O33  1  0.15731700  0.80698100  0.29561100  1
  O  O34  1  0.55804200  0.41138200  0.31998400  1
  O  O35  1  0.65674700  0.10606400  0.30786800  1
  O  O36  1  0.84517200  0.69915300  0.19277500  1
  O  O37  1  0.62657500  0.89326700  0.18545600  1
  O  O38  1  0.16133100  0.57915300  0.19268500  1
  O  O39  1  0.43565400  0.08542800  0.18351200  1
  O  O40  1  0.59291600  0.60449900  0.12305900  1
  O  O41  1  0.37334200  0.82817900  0.11245000  1
  O  O42  1  0.71475600  0.37061400  0.11937900  1
  O  O43  1  0.94155800  0.20707100  0.09042700  1
  O  O44  1  0.45199300  0.40527400  0.09050700  1
  O  O45  1  0.13016300  0.03248600  0.12829300  1
  O  O46  1  0.18869100  0.28648900  0.08721700  1
  O  O47  1  0.65824100  0.11068900  0.04637100  1
loop_
_geom_bond_atom_site_label_1
_geom_bond_atom_site_label_2
_geom_bond_distance
_geom_bond_site_symmetry_2
Li0 O6 2.137684 1_555
Li0 O4 2.156714 1_555
Li0 O38 2.275087 1_556
Li0 O11 2.329595 1_555
Li0 O46 2.422719 1_556
Li0 O44 2.515344 1_556
Li1 O44 1.880798 1_555
Li1 O46 2.066523 1_555
Li1 O11 2.291563 1_554
Li1 O39 2.457603 1_555
Li2 O11 1.993483 1_555
Li2 O20 2.081891 1_555
Li2 O4 2.144035 1_555
Li3 O10 2.076601 1_555
Li3 O4 2.110244 1_555
Li3 O16 2.113547 1_555
Li3 O6 2.126854 1_555
Li4 O17 1.868263 1_555
Li4 O12 2.071097 1_555
Li4 O1 2.316054 1_555
Li4 O21 2.406152 1_565
Li5 O12 1.907861 1_555
Li5 O13 2.014852 1_555
Li5 O24 2.043389 1_555
Li6 O29 2.159716 1_555
Li6 O35 2.200967 1_555
Li6 O21 2.299964 1_555
Li6 O24 2.337858 1_545
Li6 O12 2.404299 1_545
Li6 O17 2.421447 1_545
Li7 O21 1.968459 1_555
Li7 O35 2.049628 1_555
Li7 O34 2.130166 1_555
Li7 O23 2.578234 1_555
Li8 O29 2.019310 1_565
Li8 O24 2.024702 1_555
Li8 O33 2.095573 1_655
Li8 O45 2.421698 1_665
Li9 O43 2.047334 1_555
Li9 O35 2.078126 1_555
Li9 O29 2.142819 1_555
Li9 O42 2.162586 1_555
Li10 O46 1.898530 1_555
Li10 O30 1.991257 1_555
Li10 O38 2.012638 1_555
Li11 O6 2.004179 1_554
Li11 O36 2.021724 1_455
Li11 O38 2.024438 1_555
Li11 O0 2.531863 1_454
Mn0 O37 1.898646 1_555
Mn0 O32 1.947340 1_555
Mn0 O41 1.952247 1_555
Mn0 O28 1.992187 1_555
Mn0 O27 2.107213 1_555
Mn0 O40 2.162834 1_555
Mn1 O0 1.939094 1_554
Mn1 O40 1.981094 1_555
Mn1 O2 2.002376 1_554
Mn1 O36 2.064642 1_555
Mn1 O1 2.067198 1_554
Mn1 O37 2.400153 1_555
O0 P1 1.556544 1_555
O1 P0 1.549527 1_555
O2 P2 1.528830 1_555
O3 P0 1.548599 1_555
O3 V2 1.936282 1_565
O4 P0 1.538044 1_555
O5 P2 1.584158 1_555
O5 V1 2.015942 1_555
O5 V0 2.132061 1_555
O6 P2 1.541499 1_455
O7 P11 1.590446 1_556
O7 V1 2.007966 1_455
O7 V2 2.146944 1_555
O8 P1 1.581950 1_545
O8 V1 2.021337 1_555
O8 V0 2.145346 1_555
O9 P4 1.554993 1_555
O9 V0 1.962817 1_555
O10 P1 1.559369 1_455
O10 V2 2.030381 1_565
O11 P3 1.534897 1_555
O12 P1 1.528349 1_555
O13 P2 1.574863 1_555
O13 V3 2.024809 1_655
O14 P3 1.552759 1_555
O14 V2 1.957456 1_555
O15 P3 1.603016 1_555
O15 V1 2.002687 1_455
O15 V3 2.110507 1_555
O16 P5 1.553197 1_555
O16 V2 2.033761 1_565
O17 P5 1.517021 1_555
O18 P4 1.608244 1_555
O18 V1 2.004206 1_555
O18 V3 2.108573 1_655
O19 P4 1.539586 1_555
O19 V4 1.993587 1_555
O20 P5 1.585891 1_555
O20 V4 2.004241 1_555
O21 P4 1.531519 1_555
O22 P6 1.580472 1_555
O22 V1 2.024722 1_455
O22 V2 2.164851 1_555
O23 P3 1.538744 1_555
O23 V4 1.978196 1_555
O24 P7 1.539187 1_555
O25 P8 1.525414 1_555
O25 V3 1.969958 1_555
O26 P7 1.536407 1_555
O26 V3 1.955273 1_655
O27 P5 1.576889 1_555
O27 V5 2.085950 1_555
O28 P7 1.591062 1_555
O28 V4 2.083915 1_555
O29 P6 1.537824 1_655
O30 P6 1.571503 1_555
O30 V3 2.053028 1_555
O31 P6 1.542821 1_555
O31 V5 1.953058 1_545
O32 P8 1.602225 1_555
O32 V4 2.129277 1_555
O33 P8 1.563804 1_555
O33 V5 2.026151 1_555
O34 P9 1.578552 1_555
O34 V4 2.004663 1_555
O35 P10 1.538468 1_555
O36 P7 1.556968 1_555
O37 P10 1.582630 1_565
O38 P8 1.538355 1_555
O39 P10 1.562485 1_555
O39 V5 2.012551 1_545
O40 P9 1.602689 1_555
O41 P0 1.600120 1_554
O41 V5 2.194531 1_555
O42 P9 1.545274 1_555
O42 V0 2.036986 1_554
O43 P11 1.563964 1_655
O43 V0 2.015963 1_554
O44 P9 1.517045 1_555
O45 P11 1.539571 1_555
O45 V5 2.031621 1_545
O46 P11 1.534759 1_555
O47 P10 1.542042 1_555
O47 V0 1.937313 1_554
