# generated using pymatgen
data_KSO2F
_symmetry_space_group_name_H-M   'P 1'
_cell_length_a   5.87897900
_cell_length_b   4.71828200
_cell_length_c   7.19136108
_cell_angle_alpha   72.93450831
_cell_angle_beta   90.00000000
_cell_angle_gamma   90.00000000
_symmetry_Int_Tables_number   1
_chemical_formula_structural   KSO2F
_chemical_formula_sum   'K2 S2 O4 F2'
_cell_volume   190.69580232
_cell_formula_units_Z   2
loop_
 _symmetry_equiv_pos_site_id
 _symmetry_equiv_pos_as_xyz
  1  'x, y, z'
loop_
 _atom_site_type_symbol
 _atom_site_label
 _atom_site_symmetry_multiplicity
 _atom_site_fract_x
 _atom_site_fract_y
 _atom_site_fract_z
 _atom_site_occupancy
  K  K0  1  0.25078800  0.34484400  0.28906100  1
  K  K1  1  0.75078800  0.65515600  0.71093900  1
  S  S0  1  0.72621000  0.94410300  0.16228100  1
  S  S1  1  0.22621000  0.05589700  0.83771900  1
  O  O0  1  0.04411400  0.17227800  0.69206100  1
  O  O1  1  0.54411400  0.82772200  0.30793900  1
  O  O2  1  0.75348600  0.26852700  0.12027200  1
  O  O3  1  0.25348600  0.73147300  0.87972800  1
  F  F0  1  0.97540200  0.82450100  0.31867400  1
  F  F1  1  0.47540200  0.17549900  0.68132600  1
loop_
_geom_bond_atom_site_label_1
_geom_bond_atom_site_label_2
_geom_bond_distance
_geom_bond_site_symmetry_2
K0 O1 2.892166 1_555
K0 O1 2.958211 1_545
K0 O3 2.973456 1_554
K0 O0 3.025453 1_555
K0 O2 3.226013 1_455
K0 O2 3.254790 1_555
K1 O0 2.892166 1_655
K1 O0 2.958211 1_665
K1 O2 2.973456 1_556
K1 O1 3.025453 1_555
K1 O3 3.226013 1_555
K1 O3 3.254790 1_655
O0 S1 1.485665 1_555
O1 S0 1.485665 1_555
O2 S0 1.479418 1_545
O3 S1 1.479418 1_565
F0 S0 1.832227 1_555
F0 K0 2.840991 1_655
F0 K0 2.896074 1_665
F0 K1 3.002802 1_555
F1 S1 1.832227 1_555
F1 K1 2.840991 1_555
F1 K1 2.896074 1_545
F1 K0 3.002802 1_555
