# generated using pymatgen
data_Ho14(PbS8)3
_symmetry_space_group_name_H-M   'P 1'
_cell_length_a   7.27139980
_cell_length_b   7.27139980
_cell_length_c   18.84547823
_cell_angle_alpha   75.02468923
_cell_angle_beta   75.02468923
_cell_angle_gamma   70.09284067
_symmetry_Int_Tables_number   1
_chemical_formula_structural   Ho14(PbS8)3
_chemical_formula_sum   'Ho14 Pb3 S24'
_cell_volume   888.98978206
_cell_formula_units_Z   1
loop_
 _symmetry_equiv_pos_site_id
 _symmetry_equiv_pos_as_xyz
  1  'x, y, z'
loop_
 _atom_site_type_symbol
 _atom_site_label
 _atom_site_symmetry_multiplicity
 _atom_site_fract_x
 _atom_site_fract_y
 _atom_site_fract_z
 _atom_site_occupancy
  Ho  Ho0  1  0.78899100  0.28743200  0.80194600  1
  Ho  Ho1  1  0.81847700  0.82282600  0.96056900  1
  Ho  Ho2  1  0.12974300  0.61383500  0.12111000  1
  Ho  Ho3  1  0.38616500  0.87025700  0.87889000  1
  Ho  Ho4  1  0.16232900  0.16373700  0.28708300  1
  Ho  Ho5  1  0.45720900  0.95714800  0.46202700  1
  Ho  Ho6  1  0.17717400  0.18152300  0.03943100  1
  Ho  Ho7  1  0.70731100  0.20578200  0.19454700  1
  Ho  Ho8  1  0.20239600  0.45362400  0.83597700  1
  Ho  Ho9  1  0.49597500  0.49128800  0.62744200  1
  Ho  Ho10  1  0.50871200  0.50402500  0.37255800  1
  Ho  Ho11  1  0.04285200  0.54279100  0.53797300  1
  Ho  Ho12  1  0.54637600  0.79760400  0.16402300  1
  Ho  Ho13  1  0.83626300  0.83767100  0.71291700  1
  Pb  Pb0  1  0.96114200  0.70854300  0.33038400  1
  Pb  Pb1  1  0.29145700  0.03885800  0.66961600  1
  Pb  Pb2  1  0.87817700  0.12182300  0.50000000  1
  S  S0  1  0.03966000  0.15776000  0.91418100  1
  S  S1  1  0.03683900  0.89978200  0.80234400  1
  S  S2  1  0.41476600  0.79542800  0.03630500  1
  S  S3  1  0.83942000  0.47972700  0.08137200  1
  S  S4  1  0.76539600  0.62050900  0.86395600  1
  S  S5  1  0.20457200  0.58523400  0.96369500  1
  S  S6  1  0.74631500  0.12192100  0.36376500  1
  S  S7  1  0.18744100  0.80097000  0.41663500  1
  S  S8  1  0.37949100  0.23460400  0.13604400  1
  S  S9  1  0.10021800  0.96316100  0.19765600  1
  S  S10  1  0.84224000  0.96034000  0.08581900  1
  S  S11  1  0.53636700  0.90829500  0.28963800  1
  S  S12  1  0.87807900  0.25368500  0.63623500  1
  S  S13  1  0.52027300  0.16058000  0.91862800  1
  S  S14  1  0.09170500  0.46363300  0.71036200  1
  S  S15  1  0.50592900  0.13792900  0.75358000  1
  S  S16  1  0.70031300  0.57784000  0.46558100  1
  S  S17  1  0.42216000  0.29968700  0.53441900  1
  S  S18  1  0.37565300  0.49525800  0.24302800  1
  S  S19  1  0.18618900  0.30309600  0.41052800  1
  S  S20  1  0.86207100  0.49407100  0.24642000  1
  S  S21  1  0.69690400  0.81381100  0.58947200  1
  S  S22  1  0.50474200  0.62434700  0.75697200  1
  S  S23  1  0.19903000  0.81255900  0.58336500  1
loop_
_geom_bond_atom_site_label_1
_geom_bond_atom_site_label_2
_geom_bond_distance
_geom_bond_site_symmetry_2
Ho0 S22 2.715901 1_555
Ho0 S13 2.731788 1_555
Ho0 S1 2.780290 1_645
Ho0 S14 2.877469 1_655
Ho0 S4 2.887382 1_555
Ho0 S0 2.911433 1_655
Ho0 S15 3.042101 1_555
Ho0 S12 3.078095 1_555
Ho1 S5 2.756782 1_655
Ho1 S13 2.759377 1_565
Ho1 S4 2.786097 1_555
Ho1 S10 2.854711 1_556
Ho1 S3 2.900913 1_556
Ho1 S2 2.963143 1_556
Ho1 S1 3.003567 1_655
Ho1 S0 3.181624 1_665
Ho2 S10 2.725165 1_455
Ho2 S8 2.726531 1_555
Ho2 S2 2.766639 1_555
Ho2 S20 2.799909 1_455
Ho2 S5 2.923590 1_554
Ho2 S3 2.926540 1_455
Ho2 S18 3.044542 1_555
Ho2 S9 3.152989 1_555
Ho3 S0 2.725165 1_565
Ho3 S4 2.726531 1_555
Ho3 S5 2.766639 1_555
Ho3 S15 2.799909 1_565
Ho3 S2 2.923590 1_556
Ho3 S13 2.926540 1_565
Ho3 S22 3.044542 1_555
Ho3 S1 3.152989 1_555
Ho4 S9 2.698801 1_545
Ho4 S11 2.725943 1_545
Ho4 S20 2.732336 1_455
Ho4 S19 2.831188 1_555
Ho4 S8 2.886907 1_555
Ho4 S6 3.077585 1_455
Ho4 S7 3.086471 1_545
Ho4 S18 3.122985 1_555
Ho5 S16 2.716967 1_555
Ho5 S19 2.739386 1_565
Ho5 S23 2.782386 1_555
Ho5 S6 2.800121 1_565
Ho5 S7 2.958977 1_555
Ho5 S17 3.045338 1_565
Ho5 S21 3.086283 1_555
Ho5 S11 3.240782 1_555
Ho6 S2 2.756782 1_545
Ho6 S3 2.759377 1_455
Ho6 S8 2.786097 1_555
Ho6 S0 2.854711 1_554
Ho6 S13 2.900913 1_554
Ho6 S5 2.963143 1_554
Ho6 S9 3.003567 1_545
Ho6 S10 3.181624 1_445
Ho7 S18 2.734876 1_555
Ho7 S3 2.736471 1_555
Ho7 S8 2.800023 1_555
Ho7 S9 2.806931 1_645
Ho7 S10 2.829281 1_545
Ho7 S11 2.848184 1_545
Ho7 S20 3.138528 1_555
Ho7 S6 3.156996 1_555
Ho8 S14 2.667000 1_555
Ho8 S0 2.719251 1_555
Ho8 S22 2.793358 1_555
Ho8 S5 2.815968 1_555
Ho8 S4 2.947305 1_455
Ho8 S1 3.007954 1_555
Ho8 S13 3.016704 1_555
Ho8 S15 3.028660 1_555
Ho9 S23 2.701580 1_555
Ho9 S12 2.748291 1_555
Ho9 S17 2.749564 1_555
Ho9 S22 2.870875 1_555
Ho9 S14 2.998301 1_555
Ho9 S15 3.010580 1_555
Ho9 S21 3.012040 1_555
Ho9 S16 3.034920 1_555
Ho10 S7 2.701580 1_555
Ho10 S6 2.748291 1_555
Ho10 S16 2.749564 1_555
Ho10 S18 2.870875 1_555
Ho10 S11 2.998301 1_555
Ho10 S20 3.010580 1_555
Ho10 S19 3.012040 1_555
Ho10 S17 3.034920 1_555
Ho11 S17 2.716967 1_555
Ho11 S21 2.739386 1_455
Ho11 S7 2.782386 1_555
Ho11 S12 2.800121 1_455
Ho11 S23 2.958977 1_555
Ho11 S16 3.045338 1_455
Ho11 S19 3.086283 1_555
Ho11 S14 3.240782 1_555
Ho12 S11 2.667000 1_555
Ho12 S10 2.719251 1_555
Ho12 S18 2.793358 1_555
Ho12 S2 2.815968 1_555
Ho12 S8 2.947305 1_565
Ho12 S9 3.007954 1_555
Ho12 S3 3.016704 1_555
Ho12 S20 3.028660 1_555
Ho13 S1 2.698801 1_655
Ho13 S14 2.725943 1_655
Ho13 S15 2.732336 1_565
Ho13 S21 2.831188 1_555
Ho13 S4 2.886907 1_555
Ho13 S12 3.077585 1_565
Ho13 S23 3.086471 1_655
Ho13 S22 3.122985 1_555
Pb0 S20 2.843293 1_555
Pb0 S9 2.877760 1_655
Pb0 S16 2.910431 1_555
Pb0 S7 2.915719 1_655
Pb0 S6 3.023702 1_565
Pb0 S19 3.056368 1_655
Pb0 S18 3.126004 1_655
Pb0 S11 3.135865 1_555
Pb1 S15 2.843293 1_555
Pb1 S1 2.877760 1_545
Pb1 S17 2.910431 1_555
Pb1 S23 2.915719 1_545
Pb1 S12 3.023702 1_455
Pb1 S21 3.056368 1_545
Pb1 S22 3.126004 1_545
Pb1 S14 3.135865 1_555
Pb2 S19 2.916634 1_655
Pb2 S21 2.916634 1_545
Pb2 S6 2.963403 1_555
Pb2 S12 2.963403 1_555
Pb2 S7 3.076349 1_645
Pb2 S23 3.076349 1_645
Pb2 S17 3.080591 1_555
Pb2 S16 3.080591 1_555
