# generated using pymatgen
data_Ca8TiMn7O22
_symmetry_space_group_name_H-M   'P 1'
_cell_length_a   10.87664586
_cell_length_b   15.54233695
_cell_length_c   10.85751625
_cell_angle_alpha   89.83391619
_cell_angle_beta   90.98559020
_cell_angle_gamma   90.22009425
_symmetry_Int_Tables_number   1
_chemical_formula_structural   Ca8TiMn7O22
_chemical_formula_sum   'Ca32 Ti4 Mn28 O88'
_cell_volume   1835.15432567
_cell_formula_units_Z   4
loop_
 _symmetry_equiv_pos_site_id
 _symmetry_equiv_pos_as_xyz
  1  'x, y, z'
loop_
 _atom_site_type_symbol
 _atom_site_label
 _atom_site_symmetry_multiplicity
 _atom_site_fract_x
 _atom_site_fract_y
 _atom_site_fract_z
 _atom_site_occupancy
  Ca  Ca0  1  0.99837940  0.10760262  0.50740451  1
  Ca  Ca1  1  0.98745867  0.11578374  0.01304852  1
  Ca  Ca2  1  0.01952375  0.62753836  0.50079955  1
  Ca  Ca3  1  0.01800256  0.62609358  0.99521571  1
  Ca  Ca4  1  0.54166815  0.12726193  0.48005775  1
  Ca  Ca5  1  0.54648371  0.12419502  0.98653812  1
  Ca  Ca6  1  0.52192607  0.62501405  0.50067284  1
  Ca  Ca7  1  0.52287320  0.62406611  0.99863126  1
  Ca  Ca8  1  0.49697211  0.39119766  0.99954752  1
  Ca  Ca9  1  0.49283730  0.39321159  0.49982510  1
  Ca  Ca10  1  0.49505630  0.85758706  0.00324776  1
  Ca  Ca11  1  0.49569089  0.85711459  0.49586987  1
  Ca  Ca12  1  0.96615005  0.38727442  0.99941897  1
  Ca  Ca13  1  0.96622685  0.39041181  0.50540386  1
  Ca  Ca14  1  0.96821809  0.86694675  0.00430591  1
  Ca  Ca15  1  0.96892823  0.87069199  0.51531160  1
  Ca  Ca16  1  0.23311307  0.39440588  0.25883541  1
  Ca  Ca17  1  0.23532256  0.39910050  0.76001573  1
  Ca  Ca18  1  0.22944406  0.86276663  0.25971294  1
  Ca  Ca19  1  0.22727197  0.87024417  0.74733471  1
  Ca  Ca20  1  0.73387203  0.38774555  0.25008053  1
  Ca  Ca21  1  0.73158493  0.38827588  0.75429768  1
  Ca  Ca22  1  0.73049945  0.86376555  0.24849715  1
  Ca  Ca23  1  0.73758049  0.86139242  0.75024840  1
  Ca  Ca24  1  0.22598450  0.12008895  0.24388997  1
  Ca  Ca25  1  0.22149584  0.11141067  0.72277066  1
  Ca  Ca26  1  0.27109571  0.62744238  0.26156847  1
  Ca  Ca27  1  0.26914979  0.62851827  0.75818017  1
  Ca  Ca28  1  0.77701070  0.11665866  0.25094179  1
  Ca  Ca29  1  0.78173415  0.12352727  0.75394263  1
  Ca  Ca30  1  0.76909500  0.62550972  0.25682056  1
  Ca  Ca31  1  0.77107716  0.62458909  0.75628192  1
  Ti  Ti0  1  0.99030624  0.98699050  0.26123679  1
  Ti  Ti1  1  0.23023440  0.99339402  0.01176986  1
  Ti  Ti2  1  0.26482318  0.23281140  0.93479004  1
  Ti  Ti3  1  0.98891668  0.25586286  0.27422883  1
  Mn  Mn0  1  0.99226559  0.99470826  0.75477476  1
  Mn  Mn1  1  0.00077245  0.50328775  0.25259550  1
  Mn  Mn2  1  0.00082643  0.50305954  0.75116605  1
  Mn  Mn3  1  0.50345727  0.99301437  0.23413852  1
  Mn  Mn4  1  0.50714504  0.98625919  0.73517893  1
  Mn  Mn5  1  0.49785048  0.50413918  0.25173333  1
  Mn  Mn6  1  0.49843066  0.50395365  0.75326489  1
  Mn  Mn7  1  0.24321038  0.99620478  0.50541428  1
  Mn  Mn8  1  0.24993930  0.50729729  0.00832324  1
  Mn  Mn9  1  0.25100167  0.50270773  0.50473209  1
  Mn  Mn10  1  0.74551725  0.99586179  0.99233519  1
  Mn  Mn11  1  0.74160766  0.99811715  0.49876655  1
  Mn  Mn12  1  0.74992352  0.50363167  0.00447633  1
  Mn  Mn13  1  0.74871912  0.50396805  0.50280915  1
  Mn  Mn14  1  0.26641959  0.24492194  0.45332365  1
  Mn  Mn15  1  0.25053209  0.74971635  0.00618972  1
  Mn  Mn16  1  0.25201853  0.74955958  0.50613049  1
  Mn  Mn17  1  0.75625948  0.25083650  0.00403702  1
  Mn  Mn18  1  0.74929050  0.25226432  0.50622274  1
  Mn  Mn19  1  0.75066172  0.74593381  0.00208809  1
  Mn  Mn20  1  0.75031611  0.74691057  0.50226879  1
  Mn  Mn21  1  0.99059921  0.25702295  0.75520922  1
  Mn  Mn22  1  0.00064756  0.74601476  0.25265851  1
  Mn  Mn23  1  0.00290434  0.74879400  0.75341175  1
  Mn  Mn24  1  0.52223224  0.25525505  0.25311652  1
  Mn  Mn25  1  0.51553014  0.25324624  0.75179327  1
  Mn  Mn26  1  0.49932661  0.74630053  0.25288532  1
  Mn  Mn27  1  0.49931605  0.74624543  0.75427015  1
  O  O0  1  0.10865687  0.77641318  0.10766307  1
  O  O1  1  0.10852352  0.77392542  0.60673484  1
  O  O2  1  0.58670482  0.25821522  0.09307293  1
  O  O3  1  0.57871353  0.25742106  0.58216478  1
  O  O4  1  0.61049200  0.76338277  0.11256182  1
  O  O5  1  0.60883954  0.76531405  0.61423905  1
  O  O6  1  0.40483659  0.19488996  0.34499546  1
  O  O7  1  0.39499921  0.17870483  0.85329450  1
  O  O8  1  0.39591208  0.72882232  0.39956657  1
  O  O9  1  0.39693344  0.72927699  0.90187098  1
  O  O10  1  0.92258002  0.23962109  0.42643685  1
  O  O11  1  0.91211326  0.23991020  0.92110872  1
  O  O12  1  0.89505856  0.72843436  0.39407399  1
  O  O13  1  0.89529332  0.73017622  0.89553613  1
  O  O14  1  0.16202909  0.25350592  0.29197630  1
  O  O15  1  0.17128124  0.24949099  0.79326682  1
  O  O16  1  0.14893940  0.73335666  0.35525831  1
  O  O17  1  0.14950879  0.73441655  0.85623528  1
  O  O18  1  0.66458925  0.22386118  0.34619542  1
  O  O19  1  0.65933383  0.22545911  0.85798662  1
  O  O20  1  0.64294117  0.72789030  0.35882627  1
  O  O21  1  0.64450992  0.72584700  0.85873107  1
  O  O22  1  0.35678226  0.77319442  0.14678369  1
  O  O23  1  0.35669788  0.77140043  0.64996246  1
  O  O24  1  0.85851249  0.27117113  0.15730749  1
  O  O25  1  0.84174032  0.27628362  0.65747178  1
  O  O26  1  0.85892583  0.76976789  0.14510912  1
  O  O27  1  0.86013863  0.76884797  0.64381639  1
  O  O28  1  0.35696870  0.48248409  0.14580153  1
  O  O29  1  0.35680565  0.48548941  0.64597568  1
  O  O30  1  0.35392512  0.02291317  0.13312112  1
  O  O31  1  0.34848374  0.99676626  0.66119097  1
  O  O32  1  0.85910768  0.48115214  0.14583637  1
  O  O33  1  0.85759539  0.48171887  0.64540460  1
  O  O34  1  0.85414866  0.97952397  0.14627652  1
  O  O35  1  0.84466995  0.97783493  0.64776135  1
  O  O36  1  0.14806985  0.00646544  0.35439710  1
  O  O37  1  0.14630898  0.02231485  0.86586229  1
  O  O38  1  0.14805836  0.51927402  0.35547532  1
  O  O39  1  0.14774200  0.51829065  0.85830829  1
  O  O40  1  0.63526788  0.02810007  0.34833491  1
  O  O41  1  0.63240759  0.02944200  0.84236366  1
  O  O42  1  0.64304932  0.52003867  0.35802268  1
  O  O43  1  0.64245215  0.51959087  0.85983785  1
  O  O44  1  0.39490569  0.52023211  0.39821509  1
  O  O45  1  0.39254534  0.51570888  0.89905860  1
  O  O46  1  0.88824810  0.01113866  0.39527400  1
  O  O47  1  0.89023964  0.01621386  0.89404140  1
  O  O48  1  0.89673194  0.52063868  0.39637231  1
  O  O49  1  0.89492964  0.51735675  0.89600271  1
  O  O50  1  0.10847607  0.47445002  0.10765851  1
  O  O51  1  0.10888993  0.47803781  0.60760587  1
  O  O52  1  0.10144480  0.97616368  0.11080955  1
  O  O53  1  0.09589655  0.98423786  0.61600167  1
  O  O54  1  0.60921652  0.48467077  0.11416744  1
  O  O55  1  0.60830103  0.48541875  0.61378231  1
  O  O56  1  0.59745952  0.98851644  0.08122802  1
  O  O57  1  0.58560334  0.99184510  0.57918946  1
  O  O58  1  0.00435607  0.38032095  0.29014064  1
  O  O59  1  0.01377659  0.37870981  0.78601157  1
  O  O60  1  0.00331619  0.86994758  0.29337702  1
  O  O61  1  0.00773890  0.87165625  0.79222826  1
  O  O62  1  0.49688613  0.37633826  0.28228815  1
  O  O63  1  0.49519598  0.37734482  0.78123172  1
  O  O64  1  0.50495227  0.87079354  0.28170059  1
  O  O65  1  0.51235173  0.87124727  0.79210426  1
  O  O66  1  0.48622913  0.62471641  0.21184285  1
  O  O67  1  0.48595917  0.62606705  0.71456126  1
  O  O68  1  0.99653536  0.12756948  0.23224601  1
  O  O69  1  0.99647393  0.13421204  0.71612324  1
  O  O70  1  0.99298837  0.62526272  0.20944633  1
  O  O71  1  0.99428078  0.62470389  0.71537969  1
  O  O72  1  0.20073649  0.15234083  0.03690944  1
  O  O73  1  0.22897873  0.12739720  0.51494667  1
  O  O74  1  0.23531273  0.63132000  0.04461080  1
  O  O75  1  0.23702449  0.62736644  0.54191345  1
  O  O76  1  0.75609253  0.12544236  0.03837787  1
  O  O77  1  0.75242590  0.12489288  0.53785776  1
  O  O78  1  0.74574800  0.62385218  0.04085326  1
  O  O79  1  0.74326387  0.62514468  0.54064015  1
  O  O80  1  0.27318675  0.36805552  0.47884915  1
  O  O81  1  0.28964171  0.33981662  0.99148999  1
  O  O82  1  0.28050044  0.88006952  0.46753417  1
  O  O83  1  0.27797379  0.88629025  0.96595743  1
  O  O84  1  0.74894721  0.37725391  0.46576032  1
  O  O85  1  0.74828105  0.37625009  0.97071090  1
  O  O86  1  0.74583904  0.87310776  0.46455465  1
  O  O87  1  0.74920245  0.87147196  0.96442332  1
loop_
_geom_bond_atom_site_label_1
_geom_bond_atom_site_label_2
_geom_bond_distance
_geom_bond_site_symmetry_2
Ca0 O46 2.260866 1_555
Ca0 O69 2.305233 1_555
Ca0 O10 2.374939 1_555
Ca0 O53 2.480139 1_645
Ca0 O73 2.525730 1_655
Ca0 O77 2.715591 1_555
Ca0 O36 2.830089 1_655
Ca0 O68 3.002449 1_555
Ca0 O35 3.037959 1_545
Ca1 O47 2.265973 1_554
Ca1 O11 2.315767 1_554
Ca1 O68 2.387828 1_555
Ca1 O72 2.396086 1_655
Ca1 O76 2.541226 1_555
Ca1 O52 2.708278 1_645
Ca1 O37 2.788752 1_654
Ca1 O34 2.951389 1_545
Ca2 O71 2.350881 1_455
Ca2 O12 2.363550 1_455
Ca2 O75 2.399880 1_555
Ca2 O48 2.402403 1_455
Ca2 O16 2.688314 1_555
Ca2 O38 2.717514 1_555
Ca2 O1 2.719646 1_555
Ca2 O51 2.766152 1_555
Ca3 O70 2.346506 1_456
Ca3 O13 2.350809 1_455
Ca3 O49 2.398339 1_455
Ca3 O74 2.415787 1_556
Ca3 O39 2.667019 1_555
Ca3 O17 2.682988 1_555
Ca3 O0 2.806889 1_556
Ca3 O50 2.823754 1_556
Ca4 O6 2.323403 1_555
Ca4 O3 2.339918 1_555
Ca4 O40 2.352040 1_555
Ca4 O77 2.366649 1_555
Ca4 O57 2.406962 1_545
Ca4 O18 2.488535 1_555
Ca5 O7 2.333889 1_555
Ca5 O76 2.338895 1_556
Ca5 O41 2.359423 1_555
Ca5 O56 2.405842 1_546
Ca5 O2 2.420276 1_556
Ca5 O19 2.441959 1_555
Ca6 O67 2.361756 1_555
Ca6 O8 2.375236 1_555
Ca6 O44 2.395569 1_555
Ca6 O79 2.438848 1_555
Ca6 O20 2.588492 1_555
Ca6 O42 2.626366 1_555
Ca6 O55 2.656812 1_555
Ca6 O5 2.669957 1_555
Ca7 O66 2.355812 1_556
Ca7 O9 2.368916 1_555
Ca7 O45 2.440074 1_555
Ca7 O78 2.459349 1_556
Ca7 O21 2.568884 1_555
Ca7 O43 2.587864 1_555
Ca7 O4 2.661964 1_556
Ca7 O54 2.666226 1_556
Ca8 O54 2.257077 1_556
Ca8 O63 2.380488 1_555
Ca8 O81 2.389657 1_555
Ca8 O45 2.487464 1_555
Ca8 O2 2.494963 1_556
Ca8 O28 2.639370 1_556
Ca8 O85 2.767347 1_555
Ca9 O55 2.259400 1_555
Ca9 O62 2.378360 1_555
Ca9 O80 2.426308 1_555
Ca9 O3 2.470098 1_555
Ca9 O44 2.492439 1_555
Ca9 O29 2.621906 1_555
Ca9 O84 2.828295 1_555
Ca10 O4 2.254247 1_555
Ca10 O65 2.312509 1_554
Ca10 O83 2.431468 1_554
Ca10 O56 2.461414 1_555
Ca10 O9 2.506692 1_554
Ca10 O22 2.542580 1_555
Ca10 O87 2.810758 1_554
Ca11 O5 2.269468 1_555
Ca11 O64 2.338292 1_555
Ca11 O82 2.383510 1_555
Ca11 O57 2.474777 1_555
Ca11 O8 2.490663 1_555
Ca11 O23 2.630206 1_555
Ca11 O86 2.757922 1_555
Ca12 O50 2.354536 1_656
Ca12 O59 2.387154 1_655
Ca12 O85 2.390334 1_555
Ca12 O49 2.432571 1_555
Ca12 O32 2.470188 1_556
Ca12 O11 2.509579 1_555
Ca12 O24 2.756905 1_556
Ca13 O51 2.329636 1_655
Ca13 O58 2.386456 1_655
Ca13 O84 2.402906 1_555
Ca13 O33 2.409922 1_555
Ca13 O48 2.456935 1_555
Ca13 O10 2.538154 1_555
Ca13 O25 2.783393 1_555
Ca14 O0 2.349666 1_655
Ca14 O61 2.350553 1_654
Ca14 O87 2.415108 1_554
Ca14 O26 2.463096 1_555
Ca14 O52 2.500650 1_655
Ca14 O13 2.551850 1_554
Ca14 O34 2.659884 1_555
Ca14 O47 2.738417 1_564
Ca15 O1 2.347259 1_655
Ca15 O27 2.425279 1_555
Ca15 O60 2.444930 1_655
Ca15 O86 2.479397 1_555
Ca15 O53 2.481379 1_655
Ca15 O35 2.601105 1_555
Ca15 O46 2.681878 1_565
Ca15 O12 2.689558 1_555
Ca16 O28 2.286465 1_555
Ca16 O14 2.348396 1_555
Ca16 O38 2.404635 1_555
Ca16 O50 2.450355 1_555
Ca16 O80 2.454377 1_555
Ca16 O58 2.525592 1_555
Ca16 O62 2.890555 1_555
Ca16 O44 3.018359 1_555
Ca16 O81 3.098916 1_554
Ca17 O29 2.261603 1_555
Ca17 O39 2.353313 1_555
Ca17 O59 2.450236 1_555
Ca17 O15 2.452305 1_555
Ca17 O51 2.461205 1_555
Ca17 O81 2.730216 1_555
Ca17 O63 2.853293 1_555
Ca17 O45 2.896771 1_555
Ca17 O80 3.126524 1_555
Ca18 O82 2.330539 1_555
Ca18 O22 2.333003 1_555
Ca18 O16 2.427749 1_555
Ca18 O0 2.485436 1_555
Ca18 O60 2.495702 1_555
Ca18 O36 2.624531 1_565
Ca18 O52 2.753754 1_555
Ca19 O23 2.353024 1_555
Ca19 O83 2.440923 1_555
Ca19 O61 2.445421 1_555
Ca19 O1 2.483993 1_555
Ca19 O31 2.547878 1_555
Ca19 O17 2.564429 1_555
Ca19 O53 2.673740 1_555
Ca19 O37 2.844384 1_565
Ca20 O32 2.296170 1_555
Ca20 O84 2.349901 1_555
Ca20 O24 2.492319 1_555
Ca20 O54 2.493845 1_555
Ca20 O42 2.578084 1_555
Ca20 O62 2.612459 1_555
Ca20 O18 2.853374 1_555
Ca21 O33 2.327243 1_555
Ca21 O85 2.360526 1_555
Ca21 O25 2.374958 1_555
Ca21 O55 2.517351 1_555
Ca21 O43 2.546641 1_555
Ca21 O63 2.597548 1_555
Ca21 O19 2.878773 1_555
Ca22 O26 2.329111 1_555
Ca22 O86 2.353773 1_555
Ca22 O64 2.488530 1_555
Ca22 O4 2.499538 1_555
Ca22 O34 2.509714 1_555
Ca22 O20 2.609756 1_555
Ca23 O27 2.293155 1_555
Ca23 O87 2.332357 1_555
Ca23 O35 2.426309 1_555
Ca23 O65 2.504549 1_555
Ca23 O5 2.509371 1_555
Ca23 O21 2.619252 1_555
Ca24 O14 2.255259 1_555
Ca24 O36 2.299486 1_555
Ca24 O72 2.313074 1_555
Ca24 O30 2.397552 1_555
Ca24 O68 2.499799 1_455
Ca24 O6 2.501491 1_555
Ca25 O37 2.241113 1_555
Ca25 O73 2.272191 1_555
Ca25 O15 2.350058 1_555
Ca25 O31 2.363746 1_545
Ca25 O69 2.474149 1_455
Ca25 O7 2.562222 1_555
Ca25 O53 2.656113 1_545
Ca26 O16 2.362821 1_555
Ca26 O74 2.381570 1_555
Ca26 O38 2.382553 1_555
Ca26 O66 2.410998 1_555
Ca26 O8 2.549124 1_555
Ca26 O44 2.593328 1_555
Ca26 O22 2.749705 1_555
Ca26 O28 2.757030 1_555
Ca27 O75 2.368131 1_555
Ca27 O17 2.368564 1_555
Ca27 O67 2.413684 1_555
Ca27 O39 2.425257 1_555
Ca27 O9 2.596340 1_555
Ca27 O45 2.673388 1_555
Ca27 O23 2.688129 1_555
Ca27 O29 2.721547 1_555
Ca28 O76 2.318885 1_555
Ca28 O18 2.325954 1_555
Ca28 O40 2.328268 1_555
Ca28 O68 2.405078 1_555
Ca28 O46 2.558205 1_555
Ca28 O34 2.568805 1_545
Ca28 O24 2.754450 1_555
Ca29 O77 2.362308 1_555
Ca29 O19 2.374173 1_555
Ca29 O69 2.383498 1_555
Ca29 O41 2.392737 1_555
Ca29 O47 2.535189 1_555
Ca29 O35 2.641851 1_545
Ca29 O25 2.675270 1_555
Ca29 O11 2.913416 1_555
Ca30 O78 2.354436 1_555
Ca30 O20 2.391789 1_555
Ca30 O42 2.407944 1_555
Ca30 O70 2.497600 1_555
Ca30 O12 2.565854 1_555
Ca30 O48 2.609687 1_555
Ca30 O26 2.731486 1_555
Ca30 O32 2.741840 1_555
Ca31 O79 2.355625 1_555
Ca31 O21 2.385095 1_555
Ca31 O43 2.431153 1_555
Ca31 O71 2.475487 1_555
Ca31 O13 2.594523 1_555
Ca31 O49 2.612663 1_555
Ca31 O33 2.708524 1_555
Ca31 O27 2.732155 1_555
Mn0 O53 1.904852 1_655
Mn0 O47 1.921738 1_565
Mn0 O61 1.961381 1_655
Mn0 O35 1.982495 1_555
Mn0 O37 2.091420 1_665
Mn0 O69 2.207711 1_565
Mn1 O32 1.942406 1_455
Mn1 O38 1.952636 1_555
Mn1 O70 1.953290 1_455
Mn1 O58 1.953422 1_555
Mn1 O48 1.963602 1_455
Mn1 O50 2.030056 1_555
Mn2 O71 1.930382 1_455
Mn2 O33 1.947380 1_455
Mn2 O59 1.973390 1_555
Mn2 O39 1.974205 1_555
Mn2 O49 1.978710 1_455
Mn2 O51 2.008071 1_555
Mn3 O40 1.956228 1_565
Mn3 O56 1.966272 1_555
Mn3 O64 1.967148 1_555
Mn3 O30 2.001399 1_565
Mn4 O65 1.890432 1_555
Mn4 O31 1.898358 1_555
Mn4 O41 1.898417 1_565
Mn4 O57 1.911163 1_555
Mn5 O66 1.926360 1_555
Mn5 O28 1.929197 1_555
Mn5 O42 1.955234 1_555
Mn5 O54 1.964018 1_555
Mn5 O44 1.977741 1_555
Mn5 O62 2.012907 1_555
Mn6 O29 1.936232 1_555
Mn6 O43 1.946322 1_555
Mn6 O67 1.947437 1_555
Mn6 O55 1.967742 1_555
Mn6 O45 1.982802 1_555
Mn6 O63 1.990487 1_555
Mn7 O82 1.899315 1_555
Mn7 O36 1.930328 1_565
Mn7 O31 2.026127 1_555
Mn7 O53 2.026373 1_555
Mn7 O73 2.048547 1_565
Mn8 O28 1.916328 1_555
Mn8 O50 1.959378 1_555
Mn8 O39 1.963488 1_554
Mn8 O45 1.972608 1_554
Mn8 O74 1.976134 1_555
Mn8 O81 2.647605 1_554
Mn9 O29 1.920157 1_555
Mn9 O51 1.958608 1_555
Mn9 O38 1.970674 1_555
Mn9 O44 1.979571 1_555
Mn9 O75 1.987171 1_555
Mn9 O80 2.127599 1_555
Mn10 O56 1.894538 1_556
Mn10 O47 1.941343 1_565
Mn10 O87 1.958454 1_555
Mn10 O34 2.045991 1_556
Mn10 O76 2.078787 1_566
Mn10 O41 2.090079 1_565
Mn11 O57 1.923621 1_555
Mn11 O46 1.976193 1_565
Mn11 O35 1.977453 1_555
Mn11 O86 1.980042 1_555
Mn11 O77 2.019351 1_565
Mn11 O40 2.038966 1_565
Mn12 O78 1.911786 1_555
Mn12 O32 1.955865 1_555
Mn12 O43 1.957278 1_554
Mn12 O54 1.976020 1_555
Mn12 O49 1.994986 1_554
Mn12 O85 2.014465 1_554
Mn13 O79 1.930154 1_555
Mn13 O42 1.947403 1_555
Mn13 O33 1.963650 1_555
Mn13 O55 1.981255 1_555
Mn13 O84 2.011256 1_555
Mn13 O48 2.013311 1_555
Mn14 O80 1.935480 1_555
Mn14 O73 1.986598 1_555
Mn14 O14 2.075396 1_555
Mn14 O6 2.080830 1_555
Mn15 O74 1.892929 1_555
Mn15 O22 1.933437 1_555
Mn15 O0 1.957885 1_555
Mn15 O17 1.963009 1_554
Mn15 O9 1.996850 1_554
Mn15 O83 2.186299 1_554
Mn16 O75 1.944196 1_555
Mn16 O23 1.946603 1_555
Mn16 O1 1.959101 1_555
Mn16 O16 1.985148 1_555
Mn16 O8 1.990071 1_555
Mn16 O82 2.093040 1_555
Mn17 O19 1.929888 1_554
Mn17 O11 1.941326 1_554
Mn17 O76 1.983202 1_555
Mn17 O85 1.983443 1_554
Mn17 O24 2.010680 1_555
Mn17 O2 2.100547 1_555
Mn18 O25 1.947083 1_555
Mn18 O84 1.990448 1_555
Mn18 O18 2.002191 1_555
Mn18 O77 2.008563 1_555
Mn18 O3 2.045141 1_555
Mn18 O10 2.097989 1_555
Mn19 O78 1.943097 1_555
Mn19 O21 1.947160 1_554
Mn19 O26 1.967811 1_555
Mn19 O4 1.976002 1_555
Mn19 O13 1.985006 1_554
Mn19 O87 1.992458 1_554
Mn20 O79 1.938175 1_555
Mn20 O20 1.953039 1_555
Mn20 O27 1.960042 1_555
Mn20 O5 1.999354 1_555
Mn20 O12 2.002488 1_555
Mn20 O86 2.003129 1_555
Mn21 O59 1.936365 1_655
Mn21 O25 1.944207 1_555
Mn21 O69 1.958096 1_555
Mn21 O15 2.005010 1_655
Mn21 O11 2.022964 1_555
Mn22 O70 1.936979 1_455
Mn22 O12 1.951139 1_455
Mn22 O26 1.953433 1_455
Mn22 O16 1.954613 1_555
Mn22 O60 1.977531 1_555
Mn22 O0 2.033904 1_555
Mn23 O17 1.943962 1_555
Mn23 O61 1.957029 1_555
Mn23 O27 1.965278 1_455
Mn23 O13 1.972773 1_455
Mn23 O71 1.975069 1_455
Mn23 O1 2.016026 1_555
Mn24 O6 1.880159 1_555
Mn24 O2 1.885361 1_555
Mn24 O18 1.898936 1_555
Mn24 O62 1.930899 1_555
Mn25 O63 1.969914 1_555
Mn25 O19 1.975499 1_555
Mn25 O3 1.977628 1_555
Mn25 O7 2.075098 1_555
Mn26 O20 1.945420 1_555
Mn26 O66 1.946913 1_555
Mn26 O22 1.961204 1_555
Mn26 O64 1.961493 1_555
Mn26 O4 1.977938 1_555
Mn26 O8 1.982953 1_555
Mn27 O67 1.922574 1_555
Mn27 O23 1.945087 1_555
Mn27 O21 1.954732 1_555
Mn27 O5 1.968623 1_555
Mn27 O9 1.983572 1_555
Mn27 O65 1.990956 1_555
O7 Ti2 1.884515 1_555
O10 Ti3 1.831013 1_555
O14 Ti3 1.889901 1_455
O15 Ti2 1.846456 1_555
O24 Ti3 1.902320 1_555
O30 Ti1 1.922034 1_545
O34 Ti0 1.923677 1_555
O36 Ti0 1.999313 1_445
O37 Ti1 1.869290 1_546
O46 Ti0 1.884927 1_545
O52 Ti1 1.799318 1_555
O52 Ti0 2.056255 1_455
O58 Ti3 1.948917 1_455
O60 Ti0 1.856771 1_455
O68 Ti3 2.049009 1_555
O68 Ti0 2.207528 1_545
O72 Ti2 1.814204 1_554
O72 Ti1 2.508655 1_545
O81 Ti2 1.792921 1_555
O83 Ti1 1.818899 1_556
