# generated using pymatgen
data_Tm4Si2S3O7
_symmetry_space_group_name_H-M   'P 1'
_cell_length_a   10.63188918
_cell_length_b   10.63188918
_cell_length_c   10.63188918
_cell_angle_alpha   113.72229180
_cell_angle_beta   113.72229180
_cell_angle_gamma   101.26762418
_symmetry_Int_Tables_number   1
_chemical_formula_structural   Tm4Si2S3O7
_chemical_formula_sum   'Tm16 Si8 S12 O28'
_cell_volume   911.21077000
_cell_formula_units_Z   4
loop_
 _symmetry_equiv_pos_site_id
 _symmetry_equiv_pos_as_xyz
  1  'x, y, z'
loop_
 _atom_site_type_symbol
 _atom_site_label
 _atom_site_symmetry_multiplicity
 _atom_site_fract_x
 _atom_site_fract_y
 _atom_site_fract_z
 _atom_site_occupancy
  Tm  Tm0  1  0.92258100  0.42258100  0.84516100  1
  Tm  Tm1  1  0.17258100  0.82741900  0.00000000  1
  Tm  Tm2  1  0.82741900  0.17258100  0.00000000  1
  Tm  Tm3  1  0.57741900  0.07741900  0.15483900  1
  Tm  Tm4  1  0.82741900  0.82741900  0.65483900  1
  Tm  Tm5  1  0.57741900  0.42258100  0.50000000  1
  Tm  Tm6  1  0.92258100  0.07741900  0.50000000  1
  Tm  Tm7  1  0.17258100  0.17258100  0.34516100  1
  Tm  Tm8  1  0.53423200  0.29884700  0.76461400  1
  Tm  Tm9  1  0.53423200  0.76961800  0.23538600  1
  Tm  Tm10  1  0.70115300  0.46576800  0.23538600  1
  Tm  Tm11  1  0.51961800  0.78423200  0.73538600  1
  Tm  Tm12  1  0.04884700  0.78423200  0.26461400  1
  Tm  Tm13  1  0.21576800  0.48038200  0.26461400  1
  Tm  Tm14  1  0.21576800  0.95115300  0.73538600  1
  Tm  Tm15  1  0.23038200  0.46576800  0.76461400  1
  Si  Si0  1  0.77984300  0.90509900  0.12525700  1
  Si  Si1  1  0.77984300  0.65458600  0.87474300  1
  Si  Si2  1  0.09490100  0.22015700  0.87474300  1
  Si  Si3  1  0.40458600  0.02984300  0.37474300  1
  Si  Si4  1  0.65509900  0.02984300  0.62525700  1
  Si  Si5  1  0.97015700  0.59541400  0.62525700  1
  Si  Si6  1  0.97015700  0.34490100  0.37474300  1
  Si  Si7  1  0.34541400  0.22015700  0.12525700  1
  S  S0  1  0.00000000  0.00000000  0.00000000  1
  S  S1  1  0.75000000  0.25000000  0.50000000  1
  S  S2  1  0.25000000  0.75000000  0.50000000  1
  S  S3  1  0.50000000  0.50000000  0.00000000  1
  S  S4  1  0.37500000  0.47969000  0.60469000  1
  S  S5  1  0.22969000  0.12500000  0.60469000  1
  S  S6  1  0.52031000  0.62500000  0.39531000  1
  S  S7  1  0.87500000  0.77031000  0.39531000  1
  S  S8  1  0.37500000  0.77031000  0.89531000  1
  S  S9  1  0.52031000  0.12500000  0.89531000  1
  S  S10  1  0.22969000  0.62500000  0.10469000  1
  S  S11  1  0.87500000  0.47969000  0.10469000  1
  O  O0  1  0.72483300  0.72483300  0.00000000  1
  O  O1  1  0.47483300  0.97483300  0.50000000  1
  O  O2  1  0.02516700  0.52516700  0.50000000  1
  O  O3  1  0.27516700  0.27516700  0.00000000  1
  O  O4  1  0.70127000  0.46685400  0.76558400  1
  O  O5  1  0.70127000  0.93568600  0.23441600  1
  O  O6  1  0.53314600  0.29873000  0.23441600  1
  O  O7  1  0.68568600  0.95127000  0.73441600  1
  O  O8  1  0.21685400  0.95127000  0.26558400  1
  O  O9  1  0.04873000  0.31431400  0.26558400  1
  O  O10  1  0.04873000  0.78314600  0.73441600  1
  O  O11  1  0.06431400  0.29873000  0.76558400  1
  O  O12  1  0.79076500  0.55726200  0.51644900  1
  O  O13  1  0.04081200  0.27431600  0.48355100  1
  O  O14  1  0.44273800  0.20923500  0.48355100  1
  O  O15  1  0.02431600  0.04076500  0.73350400  1
  O  O16  1  0.30726200  0.29081200  0.26649600  1
  O  O17  1  0.95923500  0.97568400  0.26649600  1
  O  O18  1  0.70918800  0.69273800  0.73350400  1
  O  O19  1  0.72568400  0.95918800  0.51644900  1
  O  O20  1  0.95923500  0.69273800  0.98355100  1
  O  O21  1  0.70918800  0.97568400  0.01644900  1
  O  O22  1  0.30726200  0.04076500  0.01644900  1
  O  O23  1  0.72568400  0.20923500  0.76649600  1
  O  O24  1  0.44273800  0.95918800  0.23350400  1
  O  O25  1  0.79076500  0.27431600  0.23350400  1
  O  O26  1  0.04081200  0.55726200  0.76649600  1
  O  O27  1  0.02431600  0.29081200  0.98355100  1
loop_
_geom_bond_atom_site_label_1
_geom_bond_atom_site_label_2
_geom_bond_distance
_geom_bond_site_symmetry_2
S0 Tm7 2.837085 1_555
S0 Tm4 2.837085 1_444
S0 Tm1 2.837093 1_545
S0 Tm2 2.837093 1_455
S1 Tm0 2.837085 1_555
S1 Tm3 2.837085 1_555
S1 Tm6 2.837093 1_555
S1 Tm5 2.837093 1_555
S2 Tm14 2.774863 1_555
S2 Tm12 2.774863 1_555
S2 Tm11 2.774868 1_555
S2 Tm13 2.774868 1_555
S3 Tm8 2.774863 1_554
S3 Tm10 2.774863 1_555
S3 Tm9 2.774868 1_555
S3 Tm15 2.774868 1_554
S4 Tm11 2.737529 1_555
S4 Tm15 2.737529 1_555
S4 Tm5 2.851893 1_555
S4 Tm7 2.851895 1_555
S4 Tm8 3.322674 1_555
S4 Tm13 3.322684 1_555
S5 Tm8 2.737531 1_555
S5 Tm14 2.737538 1_545
S5 Tm6 2.851893 1_455
S5 Tm7 2.851903 1_555
S5 Tm15 3.322684 1_555
S5 Tm12 3.322685 1_545
S6 Tm13 2.737529 1_555
S6 Tm9 2.737529 1_555
S6 Tm5 2.851893 1_555
S6 Tm4 2.851895 1_555
S6 Tm10 3.322674 1_555
S6 Tm11 3.322684 1_555
S7 Tm10 2.737531 1_555
S7 Tm12 2.737538 1_655
S7 Tm6 2.851893 1_565
S7 Tm4 2.851903 1_555
S7 Tm9 3.322684 1_555
S7 Tm14 3.322685 1_655
S8 Tm11 2.737529 1_555
S8 Tm15 2.737529 1_555
S8 Tm1 2.851893 1_556
S8 Tm3 2.851895 1_566
S8 Tm14 3.322674 1_555
S8 Tm9 3.322684 1_556
S9 Tm14 2.737531 1_545
S9 Tm8 2.737538 1_555
S9 Tm2 2.851893 1_556
S9 Tm3 2.851903 1_556
S9 Tm11 3.322684 1_545
S9 Tm10 3.322685 1_556
S10 Tm13 2.737529 1_555
S10 Tm9 2.737529 1_555
S10 Tm1 2.851893 1_555
S10 Tm0 2.851895 1_454
S10 Tm12 3.322674 1_555
S10 Tm15 3.322684 1_554
S11 Tm12 2.737531 1_655
S11 Tm10 2.737538 1_555
S11 Tm2 2.851893 1_555
S11 Tm0 2.851903 1_554
S11 Tm13 3.322684 1_655
S11 Tm8 3.322685 1_554
O0 Si0 1.634142 1_555
O0 Si1 1.634150 1_554
O1 Si4 1.634142 1_565
O1 Si3 1.634150 1_565
O2 Si6 1.634142 1_455
O2 Si5 1.634150 1_455
O3 Si2 1.634142 1_554
O3 Si7 1.634150 1_555
O4 Si1 1.653208 1_555
O4 Tm8 2.252875 1_555
O4 Tm0 2.371761 1_555
O4 Tm5 2.371762 1_555
O5 Si0 1.653208 1_555
O5 Tm9 2.252881 1_555
O5 Tm3 2.371757 1_565
O5 Tm6 2.371762 1_565
O6 Si7 1.653208 1_555
O6 Tm10 2.252875 1_555
O6 Tm3 2.371761 1_555
O6 Tm5 2.371762 1_555
O7 Si4 1.653208 1_565
O7 Tm11 2.252881 1_555
O7 Tm4 2.371757 1_555
O7 Tm2 2.371762 1_566
O8 Si3 1.653208 1_565
O8 Tm12 2.252875 1_555
O8 Tm7 2.371761 1_565
O8 Tm1 2.371762 1_555
O9 Si6 1.653208 1_455
O9 Tm13 2.252881 1_555
O9 Tm7 2.371757 1_555
O9 Tm2 2.371762 1_455
O10 Si5 1.653208 1_455
O10 Tm14 2.252875 1_555
O10 Tm4 2.371761 1_455
O10 Tm1 2.371762 1_556
O11 Si2 1.653208 1_555
O11 Tm15 2.252881 1_555
O11 Tm0 2.371757 1_455
O11 Tm6 2.371762 1_455
O12 Si5 1.638697 1_555
O12 Tm5 2.331544 1_555
O12 Tm10 2.406604 1_555
O12 Tm4 2.503514 1_555
O13 Si6 1.638703 1_455
O13 Tm6 2.331540 1_455
O13 Tm15 2.406607 1_555
O13 Tm7 2.503529 1_555
O14 Si3 1.638697 1_555
O14 Tm5 2.331544 1_555
O14 Tm8 2.406604 1_555
O14 Tm7 2.503514 1_555
O15 Si2 1.638692 1_555
O15 Tm4 2.331544 1_445
O15 Tm14 2.406613 1_545
O15 Tm6 2.503522 1_455
O16 Si7 1.638686 1_555
O16 Tm7 2.331538 1_555
O16 Tm13 2.406613 1_555
O16 Tm5 2.503516 1_555
O17 Si0 1.638692 1_555
O17 Tm7 2.331544 1_665
O17 Tm12 2.406613 1_655
O17 Tm6 2.503522 1_565
O18 Si1 1.638686 1_555
O18 Tm4 2.331538 1_555
O18 Tm11 2.406613 1_555
O18 Tm5 2.503516 1_555
O19 Si4 1.638703 1_565
O19 Tm6 2.331540 1_565
O19 Tm9 2.406607 1_555
O19 Tm4 2.503529 1_555
O20 Si1 1.638697 1_555
O20 Tm1 2.331544 1_656
O20 Tm12 2.406604 1_656
O20 Tm0 2.503514 1_555
O21 Si0 1.638703 1_555
O21 Tm2 2.331540 1_565
O21 Tm11 2.406607 1_554
O21 Tm3 2.503529 1_565
O22 Si7 1.638697 1_555
O22 Tm1 2.331544 1_545
O22 Tm14 2.406604 1_544
O22 Tm3 2.503514 1_555
O23 Si4 1.638692 1_555
O23 Tm0 2.331544 1_555
O23 Tm8 2.406613 1_555
O23 Tm2 2.503522 1_556
O24 Si3 1.638686 1_565
O24 Tm3 2.331538 1_565
O24 Tm9 2.406613 1_555
O24 Tm1 2.503516 1_555
O25 Si6 1.638692 1_555
O25 Tm3 2.331544 1_555
O25 Tm10 2.406613 1_555
O25 Tm2 2.503522 1_555
O26 Si5 1.638686 1_455
O26 Tm0 2.331538 1_455
O26 Tm15 2.406613 1_555
O26 Tm1 2.503516 1_556
O27 Si2 1.638703 1_555
O27 Tm2 2.331540 1_456
O27 Tm13 2.406607 1_556
O27 Tm0 2.503529 1_455
