# generated using pymatgen
data_Li8Ti7Fe9(PO4)24
_symmetry_space_group_name_H-M   'P 1'
_cell_length_a   8.68776856
_cell_length_b   8.82691916
_cell_length_c   24.37747317
_cell_angle_alpha   89.96583761
_cell_angle_beta   90.00296944
_cell_angle_gamma   90.01034971
_symmetry_Int_Tables_number   1
_chemical_formula_structural   Li8Ti7Fe9(PO4)24
_chemical_formula_sum   'Li8 Ti7 Fe9 P24 O96'
_cell_volume   1869.41616772
_cell_formula_units_Z   1
loop_
 _symmetry_equiv_pos_site_id
 _symmetry_equiv_pos_as_xyz
  1  'x, y, z'
loop_
 _atom_site_type_symbol
 _atom_site_label
 _atom_site_symmetry_multiplicity
 _atom_site_fract_x
 _atom_site_fract_y
 _atom_site_fract_z
 _atom_site_occupancy
  Li  Li0  1  0.03252729  0.47007767  0.21468573  1
  Li  Li1  1  0.03307627  0.03015515  0.71419875  1
  Li  Li2  1  0.46776182  0.52977472  0.71447561  1
  Li  Li3  1  0.46755030  0.97018268  0.21463621  1
  Li  Li4  1  0.53231043  0.47013373  0.28544506  1
  Li  Li5  1  0.53248823  0.03059522  0.78500297  1
  Li  Li6  1  0.96749305  0.97042745  0.28558279  1
  Li  Li7  1  0.96649348  0.53129287  0.78544462  1
  Ti  Ti0  1  0.00102993  0.22127954  0.06688725  1
  Ti  Ti1  1  0.00149657  0.27920629  0.56620325  1
  Ti  Ti2  1  0.49977618  0.72052095  0.06676261  1
  Ti  Ti3  1  0.49873505  0.77923351  0.56622204  1
  Ti  Ti4  1  0.50136998  0.22086094  0.43381160  1
  Ti  Ti5  1  0.50000936  0.27897401  0.93337253  1
  Ti  Ti6  1  0.99866967  0.72096294  0.43372956  1
  Fe  Fe0  1  0.00023271  0.28841705  0.31919210  1
  Fe  Fe1  1  0.99972402  0.21146381  0.81890840  1
  Fe  Fe2  1  0.49935620  0.71190329  0.81888234  1
  Fe  Fe3  1  0.49973605  0.78842240  0.31923303  1
  Fe  Fe4  1  0.50039331  0.28838942  0.18092470  1
  Fe  Fe5  1  0.50035357  0.21185735  0.68074027  1
  Fe  Fe6  1  0.99945444  0.78061843  0.93283525  1
  Fe  Fe7  1  0.99915138  0.78867496  0.18139953  1
  Fe  Fe8  1  0.00020091  0.71180095  0.68021159  1
  P  P0  1  0.14231825  0.14584344  0.19861984  1
  P  P1  1  0.14222062  0.35450768  0.69844151  1
  P  P2  1  0.15009415  0.86948602  0.05443382  1
  P  P3  1  0.15014056  0.63021558  0.55353843  1
  P  P4  1  0.21369349  0.50011987  0.87748980  1
  P  P5  1  0.21428363  0.99903378  0.37716023  1
  P  P6  1  0.28569504  0.49905217  0.37713813  1
  P  P7  1  0.28754570  0.00017239  0.87703170  1
  P  P8  1  0.34987196  0.36988032  0.05394685  1
  P  P9  1  0.35030897  0.13031705  0.55374962  1
  P  P10  1  0.35765283  0.64561304  0.19853844  1
  P  P11  1  0.35788356  0.85410875  0.69830602  1
  P  P12  1  0.64212909  0.14573594  0.30161711  1
  P  P13  1  0.64219398  0.35438884  0.80152107  1
  P  P14  1  0.64957985  0.63018332  0.94635987  1
  P  P15  1  0.64974717  0.86959072  0.44613621  1
  P  P16  1  0.71417547  0.50071965  0.62255844  1
  P  P17  1  0.71422874  0.99933062  0.12280780  1
  P  P18  1  0.78600136  0.49919132  0.12287280  1
  P  P19  1  0.78564848  0.00096912  0.62261771  1
  P  P20  1  0.85028807  0.36957501  0.44613258  1
  P  P21  1  0.85040975  0.13070123  0.94655684  1
  P  P22  1  0.85766018  0.64562919  0.30168144  1
  P  P23  1  0.85727416  0.85435947  0.80063440  1
  O  O0  1  0.07131981  0.77069906  0.01098899  1
  O  O1  1  0.07201478  0.72652542  0.50855970  1
  O  O2  1  0.08187175  0.51424737  0.71358872  1
  O  O3  1  0.08180942  0.98632469  0.21394650  1
  O  O4  1  0.08096083  0.26381667  0.24043462  1
  O  O5  1  0.08114307  0.23660126  0.74053341  1
  O  O6  1  0.08320176  0.19873810  0.14190844  1
  O  O7  1  0.08304112  0.30142802  0.64178676  1
  O  O8  1  0.09893779  0.82140816  0.11163655  1
  O  O9  1  0.09614901  0.68214644  0.60989576  1
  O  O10  1  0.10191878  0.08621434  0.33942291  1
  O  O11  1  0.10143731  0.41450206  0.83913361  1
  O  O12  1  0.11421771  0.03908354  0.04621205  1
  O  O13  1  0.11391719  0.46103384  0.54552605  1
  O  O14  1  0.11521015  0.90387738  0.41703542  1
  O  O15  1  0.11713604  0.59062991  0.91887374  1
  O  O16  1  0.17407941  0.34808268  0.04851642  1
  O  O17  1  0.17430668  0.15250297  0.54832940  1
  O  O18  1  0.17947548  0.85698752  0.70026534  1
  O  O19  1  0.17928493  0.64283320  0.20051387  1
  O  O20  1  0.18137677  0.60430685  0.41068486  1
  O  O21  1  0.18598527  0.89571112  0.91126552  1
  O  O22  1  0.19204097  0.39240938  0.34054030  1
  O  O23  1  0.19063640  0.10664031  0.84086896  1
  O  O24  1  0.30791798  0.89246295  0.34059557  1
  O  O25  1  0.30748656  0.60810506  0.84097981  1
  O  O26  1  0.31864132  0.10427689  0.41076288  1
  O  O27  1  0.31923834  0.39240816  0.90967018  1
  O  O28  1  0.32065524  0.14290653  0.20035630  1
  O  O29  1  0.32066831  0.35725669  0.70028117  1
  O  O30  1  0.32630388  0.84829476  0.04833417  1
  O  O31  1  0.32601797  0.65229522  0.54796021  1
  O  O32  1  0.38461695  0.40367131  0.41698422  1
  O  O33  1  0.38828660  0.09593110  0.91637494  1
  O  O34  1  0.38632584  0.53925888  0.04588332  1
  O  O35  1  0.38608721  0.96112383  0.54560781  1
  O  O36  1  0.39810046  0.58618234  0.33938025  1
  O  O37  1  0.39941152  0.91482964  0.83857685  1
  O  O38  1  0.40458474  0.31810528  0.11018414  1
  O  O39  1  0.40468160  0.18219515  0.61011429  1
  O  O40  1  0.41680846  0.69858534  0.14188105  1
  O  O41  1  0.41677751  0.80126433  0.64160639  1
  O  O42  1  0.41902134  0.76353276  0.24044818  1
  O  O43  1  0.41916667  0.73612590  0.74029194  1
  O  O44  1  0.41818679  0.01397722  0.71343052  1
  O  O45  1  0.41784913  0.48585135  0.21367893  1
  O  O46  1  0.42693686  0.27357529  0.00868947  1
  O  O47  1  0.42811761  0.22658070  0.50867904  1
  O  O48  1  0.57190933  0.77345939  0.49127307  1
  O  O49  1  0.57143023  0.72725923  0.99136009  1
  O  O50  1  0.58194941  0.51427027  0.78641969  1
  O  O51  1  0.58206440  0.98593530  0.28640411  1
  O  O52  1  0.58072120  0.26348492  0.25960919  1
  O  O53  1  0.58074187  0.23686243  0.75948306  1
  O  O54  1  0.58331339  0.19853631  0.35823792  1
  O  O55  1  0.58387038  0.30126110  0.85824533  1
  O  O56  1  0.59388536  0.68220277  0.88999490  1
  O  O57  1  0.59548500  0.81791588  0.38989223  1
  O  O58  1  0.60192832  0.08611367  0.16068690  1
  O  O59  1  0.60199359  0.41384243  0.66053584  1
  O  O60  1  0.61389969  0.03876580  0.45431554  1
  O  O61  1  0.60858426  0.46176517  0.95427150  1
  O  O62  1  0.61496296  0.59609732  0.58273353  1
  O  O63  1  0.61452625  0.90423671  0.08291204  1
  O  O64  1  0.67442305  0.34751066  0.45165700  1
  O  O65  1  0.67521801  0.15711441  0.95237692  1
  O  O66  1  0.67932406  0.64290064  0.29964367  1
  O  O67  1  0.67855914  0.85709488  0.79900120  1
  O  O68  1  0.68168230  0.60461106  0.08925691  1
  O  O69  1  0.68128276  0.89563663  0.58915208  1
  O  O70  1  0.69220419  0.39245091  0.15944803  1
  O  O71  1  0.69209817  0.10793578  0.65942422  1
  O  O72  1  0.80848488  0.60779605  0.65906856  1
  O  O73  1  0.80778246  0.89174783  0.15923090  1
  O  O74  1  0.81833265  0.10455256  0.08917165  1
  O  O75  1  0.81859802  0.39550132  0.58906784  1
  O  O76  1  0.82053203  0.14308524  0.29966171  1
  O  O77  1  0.82075506  0.35721877  0.79974773  1
  O  O78  1  0.82433483  0.64666589  0.95280387  1
  O  O79  1  0.82559907  0.84753278  0.45167075  1
  O  O80  1  0.88442973  0.09669425  0.58272673  1
  O  O81  1  0.88488834  0.40407630  0.08291526  1
  O  O82  1  0.88612064  0.53875933  0.45430403  1
  O  O83  1  0.88101515  0.96182544  0.95545980  1
  O  O84  1  0.89874318  0.58617959  0.16055716  1
  O  O85  1  0.89864084  0.91421735  0.66029513  1
  O  O86  1  0.90494517  0.18098186  0.88989867  1
  O  O87  1  0.90458508  0.31799145  0.38990059  1
  O  O88  1  0.91655139  0.69842668  0.35829557  1
  O  O89  1  0.91612886  0.79845201  0.85650869  1
  O  O90  1  0.91906373  0.76373787  0.25976704  1
  O  O91  1  0.91683052  0.73728917  0.75802506  1
  O  O92  1  0.91794638  0.48606189  0.28640590  1
  O  O93  1  0.91702781  0.01456732  0.78572286  1
  O  O94  1  0.92817517  0.27341868  0.49126120  1
  O  O95  1  0.93063810  0.22645591  0.99129743  1
loop_
_geom_bond_atom_site_label_1
_geom_bond_atom_site_label_2
_geom_bond_distance
_geom_bond_site_symmetry_2
Li0 O4 1.970965 1_555
Li0 O92 2.016955 1_455
Li0 O19 2.017176 1_555
Li0 O84 2.034933 1_455
Li1 O5 1.976947 1_555
Li1 O18 2.017634 1_545
Li1 O93 2.018740 1_455
Li1 O85 2.034474 1_445
Li2 O43 1.973231 1_555
Li2 O29 2.017822 1_555
Li2 O50 2.019483 1_555
Li2 O59 2.034294 1_555
Li3 O42 1.974675 1_555
Li3 O51 2.017420 1_555
Li3 O28 2.018497 1_565
Li3 O58 2.034167 1_565
Li4 O52 1.975467 1_555
Li4 O45 2.017017 1_555
Li4 O66 2.019059 1_555
Li4 O36 2.034631 1_555
Li5 O53 1.968788 1_555
Li5 O44 2.012923 1_555
Li5 O67 2.018001 1_545
Li5 O37 2.021041 1_545
Li6 O90 1.975522 1_555
Li6 O3 2.013824 1_655
Li6 O76 2.017914 1_565
Li6 O10 2.032755 1_665
Li7 O91 1.984441 1_555
Li7 O77 2.020975 1_555
Li7 O2 2.023928 1_655
Li7 O11 2.036866 1_655
Fe0 O87 1.931459 1_455
Fe0 O22 1.972359 1_555
Fe0 O92 2.047484 1_455
Fe0 O10 2.051522 1_555
Fe0 O4 2.055670 1_555
Fe0 O76 2.075957 1_455
Fe1 O86 1.935141 1_555
Fe1 O23 1.973208 1_655
Fe1 O93 2.047531 1_555
Fe1 O5 2.049265 1_655
Fe1 O11 2.058245 1_655
Fe1 O77 2.071446 1_555
Fe2 O56 1.935909 1_555
Fe2 O25 1.976665 1_555
Fe2 O50 2.046101 1_555
Fe2 O37 2.048052 1_555
Fe2 O43 2.049613 1_555
Fe2 O67 2.073607 1_555
Fe3 O57 1.930552 1_555
Fe3 O24 1.973047 1_555
Fe3 O51 2.046835 1_555
Fe3 O36 2.050877 1_555
Fe3 O42 2.056432 1_555
Fe3 O66 2.076974 1_555
Fe4 O38 1.932573 1_555
Fe4 O70 1.973247 1_555
Fe4 O45 2.047429 1_555
Fe4 O58 2.052093 1_555
Fe4 O52 2.052798 1_555
Fe4 O28 2.076162 1_555
Fe5 O39 1.929743 1_555
Fe5 O71 1.971720 1_555
Fe5 O44 2.047791 1_555
Fe5 O59 2.049269 1_555
Fe5 O53 2.054618 1_555
Fe5 O29 2.076669 1_555
Fe6 O83 1.980675 1_555
Fe6 O21 1.983320 1_655
Fe6 O78 1.987057 1_555
Fe6 O15 1.993697 1_655
Fe6 O89 2.002597 1_555
Fe6 O0 2.006721 1_656
Fe7 O8 1.930468 1_655
Fe7 O73 1.970740 1_555
Fe7 O90 2.044941 1_555
Fe7 O3 2.046972 1_655
Fe7 O84 2.052902 1_555
Fe7 O19 2.079273 1_655
Fe8 O9 1.924147 1_555
Fe8 O72 1.970418 1_455
Fe8 O91 2.043075 1_455
Fe8 O2 2.050602 1_555
Fe8 O85 2.050869 1_455
Fe8 O18 2.075354 1_555
O0 P2 1.533354 1_555
O1 P3 1.544231 1_555
O1 Ti6 1.932877 1_455
O2 P1 1.549280 1_555
O3 P0 1.548450 1_565
O4 P0 1.552133 1_555
O5 P1 1.554407 1_555
O6 P0 1.546694 1_555
O6 Ti0 1.973149 1_555
O7 P1 1.546579 1_555
O7 Ti1 1.983820 1_555
O8 P2 1.523622 1_555
O9 P3 1.522663 1_555
O10 P5 1.546213 1_545
O11 P4 1.548233 1_555
O12 P2 1.542142 1_545
O12 Ti0 1.951664 1_555
O13 P3 1.538656 1_555
O13 Ti1 1.944854 1_555
O14 P5 1.545993 1_555
O14 Ti6 1.948393 1_455
O15 P4 1.536562 1_555
O16 P8 1.544968 1_555
O16 Ti0 1.926775 1_555
O17 P9 1.547227 1_555
O17 Ti1 1.922480 1_555
O18 P11 1.550920 1_555
O19 P10 1.550559 1_555
O20 P6 1.534472 1_555
O20 Ti6 1.974043 1_455
O21 P7 1.524480 1_565
O22 P6 1.531247 1_555
O23 P7 1.538959 1_555
O24 P5 1.530524 1_555
O25 P4 1.537352 1_555
O26 P5 1.535092 1_545
O26 Ti4 1.973544 1_555
O27 P4 1.536066 1_555
O27 Ti5 1.950039 1_555
O28 P0 1.550148 1_555
O29 P1 1.551144 1_555
O30 P2 1.549458 1_555
O30 Ti2 1.935229 1_555
O31 P3 1.546314 1_555
O31 Ti3 1.924874 1_555
O32 P6 1.546004 1_555
O32 Ti4 1.949553 1_555
O33 P7 1.549489 1_555
O33 Ti5 1.929894 1_555
O34 P8 1.540689 1_555
O34 Ti2 1.947007 1_555
O35 P9 1.538488 1_565
O35 Ti3 1.946172 1_555
O36 P6 1.546398 1_555
O37 P7 1.546603 1_565
O38 P8 1.521018 1_555
O39 P9 1.523612 1_555
O40 P10 1.545829 1_555
O40 Ti2 1.977371 1_555
O41 P11 1.546208 1_555
O41 Ti3 1.980525 1_555
O42 P10 1.553206 1_555
O43 P11 1.553859 1_555
O44 P11 1.549863 1_545
O45 P10 1.548555 1_555
O46 P8 1.545793 1_555
O46 Ti5 1.943277 1_554
O47 P9 1.544304 1_555
O47 Ti4 1.933574 1_555
O48 P15 1.544924 1_555
O48 Ti3 1.935240 1_555
O49 P14 1.549197 1_555
O49 Ti2 1.941580 1_556
O50 P13 1.549433 1_555
O51 P12 1.549135 1_565
O52 P12 1.553202 1_555
O53 P13 1.553192 1_555
O54 P12 1.544148 1_555
O54 Ti4 1.985022 1_555
O55 P13 1.545315 1_555
O55 Ti5 1.980715 1_555
O56 P14 1.527152 1_555
O57 P15 1.520121 1_555
O58 P17 1.546784 1_545
O59 P16 1.547258 1_555
O60 P15 1.538573 1_545
O60 Ti4 1.946457 1_555
O61 P14 1.540630 1_555
O61 Ti5 1.937273 1_555
O62 P16 1.547070 1_555
O62 Ti3 1.947965 1_555
O63 P17 1.549629 1_555
O63 Ti2 1.943889 1_555
O64 P20 1.546076 1_555
O64 Ti4 1.923346 1_555
O65 P21 1.546363 1_555
O65 Ti5 1.920565 1_555
O66 P22 1.550320 1_555
O67 P23 1.553335 1_555
O68 P18 1.535617 1_555
O68 Ti2 1.960826 1_555
O69 P19 1.533830 1_565
O69 Ti3 1.970624 1_555
O70 P18 1.531512 1_555
O71 P19 1.535728 1_555
O72 P16 1.535391 1_555
O73 P17 1.532957 1_555
O74 P17 1.533572 1_545
O74 Ti0 1.968462 1_655
O75 P16 1.534084 1_555
O75 Ti1 1.972474 1_655
O76 P12 1.550840 1_555
O77 P13 1.552098 1_555
O78 P14 1.533229 1_555
O79 P15 1.546034 1_555
O79 Ti6 1.923936 1_555
O80 P19 1.547556 1_555
O80 Ti1 1.946971 1_655
O81 P18 1.546955 1_555
O81 Ti0 1.943099 1_655
O82 P20 1.538488 1_555
O82 Ti6 1.947508 1_555
O83 P21 1.529575 1_565
O84 P18 1.547042 1_555
O85 P19 1.546919 1_565
O86 P21 1.525904 1_555
O87 P20 1.519804 1_555
O88 P22 1.544108 1_555
O88 Ti6 1.982501 1_555
O89 P23 1.536047 1_555
O90 P22 1.553723 1_555
O91 P23 1.554353 1_555
O92 P22 1.548461 1_555
O93 P23 1.549376 1_545
O94 P20 1.545173 1_555
O94 Ti1 1.935436 1_655
O95 P21 1.546145 1_555
O95 Ti0 1.942002 1_656
