# generated using pymatgen
data_FePH2O5
_symmetry_space_group_name_H-M   'P 1'
_cell_length_a   5.18373854
_cell_length_b   5.18373854
_cell_length_c   7.54893245
_cell_angle_alpha   105.35649753
_cell_angle_beta   105.35649753
_cell_angle_gamma   98.58419788
_symmetry_Int_Tables_number   1
_chemical_formula_structural   FePH2O5
_chemical_formula_sum   'Fe2 P2 H4 O10'
_cell_volume   183.29701781
_cell_formula_units_Z   2
loop_
 _symmetry_equiv_pos_site_id
 _symmetry_equiv_pos_as_xyz
  1  'x, y, z'
loop_
 _atom_site_type_symbol
 _atom_site_label
 _atom_site_symmetry_multiplicity
 _atom_site_fract_x
 _atom_site_fract_y
 _atom_site_fract_z
 _atom_site_occupancy
  Fe  Fe0  1  0.00000000  0.50000000  0.50000000  1
  Fe  Fe1  1  0.50000000  0.00000000  0.00000000  1
  P  P0  1  0.08183000  0.91817000  0.25000000  1
  P  P1  1  0.91817000  0.08183000  0.75000000  1
  H  H0  1  0.63502400  0.55190500  0.20411800  1
  H  H1  1  0.44809500  0.36497600  0.29588200  1
  H  H2  1  0.36497600  0.44809500  0.79588200  1
  H  H3  1  0.55190500  0.63502400  0.70411800  1
  O  O0  1  0.76277800  0.82659000  0.15104100  1
  O  O1  1  0.17341000  0.23722200  0.34895900  1
  O  O2  1  0.23722200  0.17341000  0.84895900  1
  O  O3  1  0.82659000  0.76277800  0.65104100  1
  O  O4  1  0.15815900  0.77060100  0.40114800  1
  O  O5  1  0.22939900  0.84184100  0.09885200  1
  O  O6  1  0.84184100  0.22939900  0.59885200  1
  O  O7  1  0.77060100  0.15815900  0.90114800  1
  O  O8  1  0.61578500  0.38421500  0.25000000  1
  O  O9  1  0.38421500  0.61578500  0.75000000  1
loop_
_geom_bond_atom_site_label_1
_geom_bond_atom_site_label_2
_geom_bond_distance
_geom_bond_site_symmetry_2
Fe0 O6 1.931784 1_455
Fe0 O4 1.931784 1_555
Fe0 O3 2.012307 1_455
Fe0 O1 2.012307 1_555
Fe0 O9 2.222842 1_555
Fe0 O8 2.222842 1_455
Fe1 O5 1.931784 1_545
Fe1 O7 1.931784 1_554
Fe1 O0 2.012307 1_545
Fe1 O2 2.012307 1_554
Fe1 O9 2.222842 1_544
Fe1 O8 2.222842 1_555
H0 O8 1.018532 1_555
H0 O0 1.669670 1_555
H1 O8 1.018532 1_555
H1 O1 1.669670 1_555
H2 O9 1.018532 1_555
H2 O2 1.669670 1_555
H3 O9 1.018532 1_555
H3 O3 1.669670 1_555
O0 P0 1.562738 1_655
O1 P0 1.562738 1_545
O2 P1 1.562738 1_455
O3 P1 1.562738 1_565
O4 P0 1.535298 1_555
O5 P0 1.535298 1_555
O6 P1 1.535298 1_555
O7 P1 1.535298 1_555
