# generated using pymatgen
data_Nd3AlNi8
_symmetry_space_group_name_H-M   'P 1'
_cell_length_a   5.14527000
_cell_length_b   5.14526954
_cell_length_c   16.27267100
_cell_angle_alpha   90.00000000
_cell_angle_beta   90.00000000
_cell_angle_gamma   120.00000295
_symmetry_Int_Tables_number   1
_chemical_formula_structural   Nd3AlNi8
_chemical_formula_sum   'Nd6 Al2 Ni16'
_cell_volume   373.08326004
_cell_formula_units_Z   2
loop_
 _symmetry_equiv_pos_site_id
 _symmetry_equiv_pos_as_xyz
  1  'x, y, z'
loop_
 _atom_site_type_symbol
 _atom_site_label
 _atom_site_symmetry_multiplicity
 _atom_site_fract_x
 _atom_site_fract_y
 _atom_site_fract_z
 _atom_site_occupancy
  Nd  Nd0  1  0.33333300  0.66666700  0.95321000  1
  Nd  Nd1  1  0.66666700  0.33333300  0.04679000  1
  Nd  Nd2  1  0.66666700  0.33333300  0.45321000  1
  Nd  Nd3  1  0.33333300  0.66666700  0.54679000  1
  Nd  Nd4  1  0.33333300  0.66666700  0.75000000  1
  Nd  Nd5  1  0.66666700  0.33333300  0.25000000  1
  Al  Al0  1  0.00000000  0.00000000  0.50000000  1
  Al  Al1  1  0.00000000  0.00000000  0.00000000  1
  Ni  Ni0  1  0.16823000  0.83177000  0.37279500  1
  Ni  Ni1  1  0.16823000  0.33646000  0.37279500  1
  Ni  Ni2  1  0.66354000  0.83177000  0.37279500  1
  Ni  Ni3  1  0.83177000  0.16823000  0.62720500  1
  Ni  Ni4  1  0.83177000  0.66354000  0.62720500  1
  Ni  Ni5  1  0.33646000  0.16823000  0.62720500  1
  Ni  Ni6  1  0.83177000  0.16823000  0.87279500  1
  Ni  Ni7  1  0.83177000  0.66354000  0.87279500  1
  Ni  Ni8  1  0.33646000  0.16823000  0.87279500  1
  Ni  Ni9  1  0.16823000  0.83177000  0.12720500  1
  Ni  Ni10  1  0.16823000  0.33646000  0.12720500  1
  Ni  Ni11  1  0.66354000  0.83177000  0.12720500  1
  Ni  Ni12  1  0.33333300  0.66666700  0.25000000  1
  Ni  Ni13  1  0.66666700  0.33333300  0.75000000  1
  Ni  Ni14  1  0.00000000  0.00000000  0.25000000  1
  Ni  Ni15  1  0.00000000  0.00000000  0.75000000  1
loop_
_geom_bond_atom_site_label_1
_geom_bond_atom_site_label_2
_geom_bond_distance
_geom_bond_site_symmetry_2
Nd0 Ni8 2.886343 1_565
Nd0 Ni7 2.886344 1_455
Nd0 Ni6 2.886346 1_565
Nd0 Ni6 2.886346 1_455
Nd0 Ni8 2.886348 1_555
Nd0 Ni7 2.886348 1_555
Nd0 Ni9 3.190857 1_556
Nd0 Ni10 3.190859 1_556
Nd0 Ni11 3.190859 1_556
Nd1 Ni11 2.886343 1_545
Nd1 Ni10 2.886344 1_655
Nd1 Ni9 2.886346 1_545
Nd1 Ni9 2.886346 1_655
Nd1 Ni11 2.886348 1_555
Nd1 Ni10 2.886348 1_555
Nd1 Ni6 3.190857 1_554
Nd1 Ni7 3.190859 1_554
Nd1 Ni8 3.190859 1_554
Nd2 Ni2 2.886343 1_545
Nd2 Ni1 2.886344 1_655
Nd2 Ni0 2.886346 1_545
Nd2 Ni0 2.886346 1_655
Nd2 Ni2 2.886348 1_555
Nd2 Ni1 2.886348 1_555
Nd2 Ni3 3.190857 1_555
Nd2 Ni4 3.190859 1_555
Nd2 Ni5 3.190859 1_555
Nd3 Ni5 2.886343 1_565
Nd3 Ni4 2.886344 1_455
Nd3 Ni3 2.886346 1_565
Nd3 Ni3 2.886346 1_455
Nd3 Ni5 2.886348 1_555
Nd3 Ni4 2.886348 1_555
Nd3 Ni0 3.190857 1_555
Nd3 Ni1 3.190859 1_555
Nd3 Ni2 3.190859 1_555
Nd4 Ni13 2.970620 1_565
Nd4 Ni15 2.970620 1_565
Nd4 Ni13 2.970620 1_455
Nd4 Ni15 2.970624 1_555
Nd4 Ni15 2.970624 1_665
Nd4 Ni13 2.970629 1_555
Nd4 Ni8 3.257521 1_565
Nd4 Ni5 3.257521 1_565
Nd4 Ni4 3.257521 1_455
Nd4 Ni7 3.257521 1_455
Nd4 Ni3 3.257523 1_565
Nd4 Ni6 3.257523 1_565
Nd4 Ni6 3.257523 1_455
Nd4 Ni3 3.257523 1_455
Nd4 Ni8 3.257525 1_555
Nd4 Ni5 3.257525 1_555
Nd4 Ni7 3.257525 1_555
Nd4 Ni4 3.257525 1_555
Nd5 Ni12 2.970620 1_545
Nd5 Ni14 2.970620 1_655
Nd5 Ni12 2.970620 1_655
Nd5 Ni14 2.970624 1_665
Nd5 Ni14 2.970624 1_555
Nd5 Ni12 2.970629 1_555
Nd5 Ni2 3.257521 1_545
Nd5 Ni11 3.257521 1_545
Nd5 Ni1 3.257521 1_655
Nd5 Ni10 3.257521 1_655
Nd5 Ni0 3.257523 1_545
Nd5 Ni9 3.257523 1_545
Nd5 Ni0 3.257523 1_655
Nd5 Ni9 3.257523 1_655
Nd5 Ni2 3.257525 1_555
Nd5 Ni11 3.257525 1_555
Nd5 Ni1 3.257525 1_555
Nd5 Ni10 3.257525 1_555
Al0 Ni1 2.555873 1_555
Al0 Ni4 2.555873 1_445
Al0 Ni0 2.555873 1_545
Al0 Ni5 2.555873 1_555
Al0 Ni3 2.555873 1_455
Al0 Ni2 2.555873 1_445
Al0 Nd3 3.066645 1_545
Al0 Nd2 3.066645 1_455
Al0 Nd2 3.066649 1_445
Al0 Nd3 3.066649 1_555
Al0 Nd2 3.066649 1_555
Al0 Nd3 3.066649 1_445
Al1 Ni10 2.555873 1_555
Al1 Ni7 2.555873 1_444
Al1 Ni11 2.555873 1_445
Al1 Ni9 2.555873 1_545
Al1 Ni6 2.555873 1_454
Al1 Ni8 2.555873 1_554
Al1 Nd0 3.066645 1_544
Al1 Nd1 3.066645 1_455
Al1 Nd0 3.066649 1_554
Al1 Nd1 3.066649 1_445
Al1 Nd0 3.066649 1_444
Al1 Nd1 3.066649 1_555
Ni0 Ni12 2.481484 1_555
Ni0 Ni14 2.498108 1_565
Ni0 Ni1 2.548503 1_555
Ni0 Ni2 2.548504 1_555
Ni0 Ni1 2.596766 1_565
Ni0 Ni2 2.596766 1_455
Ni1 Ni12 2.481486 1_555
Ni1 Ni14 2.498108 1_555
Ni1 Ni2 2.548503 1_555
Ni1 Ni2 2.596766 1_445
Ni3 Ni4 2.548503 1_555
Ni3 Ni5 2.548504 1_555
Ni3 Ni4 2.596766 1_545
Ni3 Ni5 2.596766 1_655
Ni4 Ni5 2.548503 1_555
Ni4 Ni5 2.596766 1_665
Ni6 Ni7 2.548503 1_555
Ni6 Ni8 2.548504 1_555
Ni6 Ni7 2.596766 1_545
Ni6 Ni8 2.596766 1_655
Ni7 Ni8 2.548503 1_555
Ni7 Ni8 2.596766 1_665
Ni10 Ni12 2.481486 1_555
Ni10 Ni14 2.498108 1_555
Ni10 Ni11 2.548503 1_555
Ni10 Ni9 2.548503 1_555
Ni10 Ni11 2.596766 1_445
Ni10 Ni9 2.596766 1_545
Ni11 Ni12 2.481486 1_555
Ni11 Ni14 2.498108 1_665
Ni11 Ni9 2.548504 1_555
Ni11 Ni9 2.596766 1_655
Ni12 Ni9 2.481484 1_555
Ni12 Ni2 2.481486 1_555
Ni13 Ni3 2.481484 1_555
Ni13 Ni6 2.481484 1_555
Ni13 Ni7 2.481486 1_555
Ni13 Ni4 2.481486 1_555
Ni13 Ni8 2.481486 1_555
Ni13 Ni5 2.481486 1_555
Ni14 Ni2 2.498108 1_445
Ni14 Ni9 2.498108 1_545
Ni15 Ni4 2.498108 1_445
Ni15 Ni7 2.498108 1_445
Ni15 Ni6 2.498108 1_455
Ni15 Ni5 2.498108 1_555
Ni15 Ni8 2.498108 1_555
Ni15 Ni3 2.498108 1_455
