# generated using pymatgen
data_Sr2CaTi6N2O11
_symmetry_space_group_name_H-M   'P 1'
_cell_length_a   3.92469543
_cell_length_b   8.00642906
_cell_length_c   9.87372526
_cell_angle_alpha   79.02826170
_cell_angle_beta   88.11039830
_cell_angle_gamma   69.91316358
_symmetry_Int_Tables_number   1
_chemical_formula_structural   Sr2CaTi6N2O11
_chemical_formula_sum   'Sr2 Ca1 Ti6 N2 O11'
_cell_volume   285.88509899
_cell_formula_units_Z   1
loop_
 _symmetry_equiv_pos_site_id
 _symmetry_equiv_pos_as_xyz
  1  'x, y, z'
loop_
 _atom_site_type_symbol
 _atom_site_label
 _atom_site_symmetry_multiplicity
 _atom_site_fract_x
 _atom_site_fract_y
 _atom_site_fract_z
 _atom_site_occupancy
  Sr  Sr0  1  0.56677100  0.93927900  0.84204100  1
  Sr  Sr1  1  0.49046700  0.16839700  0.20178200  1
  Ca  Ca0  1  0.37204600  0.88816900  0.49741300  1
  Ti  Ti0  1  0.10075200  0.78421100  0.13079100  1
  Ti  Ti1  1  0.18019400  0.58235900  0.42156000  1
  Ti  Ti2  1  0.20828600  0.53732000  0.75059800  1
  Ti  Ti3  1  0.75620200  0.51843500  0.20253800  1
  Ti  Ti4  1  0.89563800  0.28576500  0.54564300  1
  Ti  Ti5  1  0.87229500  0.27779700  0.91905500  1
  N  N0  1  0.24996400  0.51765600  0.23845300  1
  N  N1  1  0.84640600  0.35693100  0.08002900  1
  O  O0  1  0.01909600  0.86082700  0.29819000  1
  O  O1  1  0.03333200  0.71992700  0.58071300  1
  O  O2  1  0.14304500  0.68515300  0.86663600  1
  O  O3  1  0.61336900  0.76800400  0.09608400  1
  O  O4  1  0.68417600  0.57776000  0.41989700  1
  O  O5  1  0.74918300  0.46919700  0.73866800  1
  O  O6  1  0.34736000  0.35234500  0.55956700  1
  O  O7  1  0.36671600  0.28127200  0.87220100  1
  O  O8  1  0.00074600  0.19526100  0.38658200  1
  O  O9  1  0.06164000  0.06832100  0.66224300  1
  O  O10  1  0.98297600  0.02562700  0.99401200  1
loop_
_geom_bond_atom_site_label_1
_geom_bond_atom_site_label_2
_geom_bond_distance
_geom_bond_site_symmetry_2
Ca0 O1 2.234783 1_555
Ca0 O9 2.401896 1_565
Ca0 O8 2.446681 1_565
Ca0 O0 2.527457 1_555
Ca0 O1 2.558215 1_655
Ca0 O4 2.614194 1_555
N0 Ti1 1.959196 1_555
N0 Ti3 1.979214 1_455
N0 Ti3 2.008604 1_555
N0 Ti0 2.084851 1_555
N0 Sr1 2.718695 1_555
N1 Ti5 1.807328 1_554
N1 Ti3 1.874365 1_555
N1 Sr1 2.514385 1_555
N1 Sr1 2.646126 1_655
O0 Ti0 1.851184 1_555
O0 Ti1 2.214302 1_555
O0 Sr1 2.646365 1_465
O1 Ti2 1.968644 1_555
O1 Ti1 2.043967 1_555
O2 Ti2 1.751535 1_555
O2 Sr0 2.449752 1_455
O2 Sr0 3.012264 1_555
O3 Ti3 1.970198 1_555
O3 Ti0 1.993493 1_555
O3 Ti0 2.005951 1_655
O3 Sr0 2.598924 1_554
O4 Ti1 1.960336 1_655
O4 Ti1 1.965216 1_555
O4 Ti3 2.273155 1_555
O4 Ti4 2.307843 1_555
O5 Ti2 2.007618 1_555
O5 Ti5 2.064777 1_555
O5 Ti2 2.066757 1_655
O5 Ti4 2.555974 1_555
O6 Ti1 1.988094 1_555
O6 Ti4 2.034516 1_455
O6 Ti4 2.038109 1_555
O6 Ti2 2.547376 1_555
O7 Ti5 1.988248 1_455
O7 Ti5 2.041993 1_555
O7 Ti2 2.065816 1_555
O7 Sr0 2.649682 1_545
O8 Ti4 1.829460 1_455
O8 Sr1 2.589193 1_555
O8 Ti3 2.745504 1_455
O8 Sr1 2.841246 1_455
O9 Ti4 1.813348 1_455
O9 Sr0 2.505256 1_545
O9 Sr0 2.905854 1_445
O10 Ti5 1.913826 1_555
O10 Ti0 2.051198 1_646
O10 Sr0 2.594218 1_545
O10 Sr0 2.656934 1_645
O10 Sr1 2.892204 1_556
