# generated using pymatgen
data_La4Si2S3O7
_symmetry_space_group_name_H-M   'P 1'
_cell_length_a   11.26289293
_cell_length_b   11.26289293
_cell_length_c   11.26289293
_cell_angle_alpha   114.37100328
_cell_angle_beta   114.37100328
_cell_angle_gamma   100.06195800
_symmetry_Int_Tables_number   1
_chemical_formula_structural   La4Si2S3O7
_chemical_formula_sum   'La16 Si8 S12 O28'
_cell_volume   1078.12507775
_cell_formula_units_Z   4
loop_
 _symmetry_equiv_pos_site_id
 _symmetry_equiv_pos_as_xyz
  1  'x, y, z'
loop_
 _atom_site_type_symbol
 _atom_site_label
 _atom_site_symmetry_multiplicity
 _atom_site_fract_x
 _atom_site_fract_y
 _atom_site_fract_z
 _atom_site_occupancy
  La  La0  1  0.42101100  0.92101100  0.84202100  1
  La  La1  1  0.67101100  0.32898900  0.00000000  1
  La  La2  1  0.32898900  0.67101100  0.00000000  1
  La  La3  1  0.07898900  0.57898900  0.15797900  1
  La  La4  1  0.32898900  0.32898900  0.65797900  1
  La  La5  1  0.07898900  0.92101100  0.50000000  1
  La  La6  1  0.42101100  0.57898900  0.50000000  1
  La  La7  1  0.67101100  0.67101100  0.34202100  1
  La  La8  1  0.71810500  0.98114800  0.26304300  1
  La  La9  1  0.71810500  0.45506200  0.73695700  1
  La  La10  1  0.01885200  0.28189500  0.73695700  1
  La  La11  1  0.20506200  0.96810500  0.23695700  1
  La  La12  1  0.73114800  0.96810500  0.76304300  1
  La  La13  1  0.03189500  0.79493800  0.76304300  1
  La  La14  1  0.03189500  0.26885200  0.23695700  1
  La  La15  1  0.54493800  0.28189500  0.26304300  1
  Si  Si0  1  0.47280900  0.84935300  0.37654400  1
  Si  Si1  1  0.47280900  0.09626400  0.62345600  1
  Si  Si2  1  0.15064700  0.52719100  0.62345600  1
  Si  Si3  1  0.84626400  0.72280900  0.12345600  1
  Si  Si4  1  0.59935300  0.72280900  0.87654400  1
  Si  Si5  1  0.27719100  0.15373600  0.87654400  1
  Si  Si6  1  0.27719100  0.40064700  0.12345600  1
  Si  Si7  1  0.90373600  0.52719100  0.37654400  1
  S  S0  1  0.37500000  0.97591600  0.10091600  1
  S  S1  1  0.72591600  0.12500000  0.10091600  1
  S  S2  1  0.02408400  0.62500000  0.89908400  1
  S  S3  1  0.87500000  0.27408400  0.89908400  1
  S  S4  1  0.37500000  0.27408400  0.39908400  1
  S  S5  1  0.02408400  0.12500000  0.39908400  1
  S  S6  1  0.72591600  0.62500000  0.60091600  1
  S  S7  1  0.87500000  0.97591600  0.60091600  1
  S  S8  1  0.00000000  0.00000000  0.00000000  1
  S  S9  1  0.75000000  0.25000000  0.50000000  1
  S  S10  1  0.25000000  0.75000000  0.50000000  1
  S  S11  1  0.50000000  0.50000000  0.00000000  1
  O  O0  1  0.54977100  0.82535100  0.27558000  1
  O  O1  1  0.54977100  0.27419000  0.72442000  1
  O  O2  1  0.17464900  0.45022900  0.72442000  1
  O  O3  1  0.02419000  0.79977100  0.22442000  1
  O  O4  1  0.57535100  0.79977100  0.77558000  1
  O  O5  1  0.20022900  0.97581000  0.77558000  1
  O  O6  1  0.20022900  0.42464900  0.22442000  1
  O  O7  1  0.72581000  0.45022900  0.27558000  1
  O  O8  1  0.51987600  0.01987600  0.50000000  1
  O  O9  1  0.76987600  0.76987600  0.00000000  1
  O  O10  1  0.23012400  0.23012400  0.00000000  1
  O  O11  1  0.98012400  0.48012400  0.50000000  1
  O  O12  1  0.21364800  0.47101300  0.02267900  1
  O  O13  1  0.44833400  0.19096900  0.97732100  1
  O  O14  1  0.52898700  0.78635200  0.97732100  1
  O  O15  1  0.94096900  0.46364800  0.24263500  1
  O  O16  1  0.22101300  0.69833400  0.75736500  1
  O  O17  1  0.53635200  0.05903100  0.75736500  1
  O  O18  1  0.30166600  0.77898700  0.24263500  1
  O  O19  1  0.80903100  0.55166600  0.02267900  1
  O  O20  1  0.53635200  0.77898700  0.47732100  1
  O  O21  1  0.30166600  0.05903100  0.52267900  1
  O  O22  1  0.22101300  0.46364800  0.52267900  1
  O  O23  1  0.80903100  0.78635200  0.25736500  1
  O  O24  1  0.52898700  0.55166600  0.74263500  1
  O  O25  1  0.21364800  0.19096900  0.74263500  1
  O  O26  1  0.44833400  0.47101300  0.25736500  1
  O  O27  1  0.94096900  0.69833400  0.47732100  1
loop_
_geom_bond_atom_site_label_1
_geom_bond_atom_site_label_2
_geom_bond_distance
_geom_bond_site_symmetry_2
La0 O4 2.550688 1_555
La0 O5 2.550698 1_555
La0 O17 2.559881 1_565
La0 O16 2.559895 1_555
La0 O13 2.669039 1_565
La0 O14 2.669045 1_555
La0 S10 2.952253 1_555
La0 S1 3.004052 1_566
La0 S0 3.004061 1_556
La1 O1 2.550688 1_554
La1 O7 2.550688 1_555
La1 O19 2.559891 1_555
La1 O13 2.559891 1_554
La1 O15 2.669038 1_555
La1 O17 2.669038 1_554
La1 S11 2.952262 1_555
La1 S1 3.004050 1_555
La1 S3 3.004050 1_554
La2 O2 2.550692 1_554
La2 O0 2.550692 1_555
La2 O14 2.559891 1_554
La2 O12 2.559891 1_555
La2 O18 2.669038 1_555
La2 O16 2.669038 1_554
La2 S11 2.952262 1_555
La2 S0 3.004050 1_555
La2 S2 3.004050 1_554
La3 O6 2.550688 1_555
La3 O3 2.550698 1_555
La3 O15 2.559881 1_455
La3 O18 2.559895 1_555
La3 O19 2.669039 1_455
La3 O12 2.669045 1_555
La3 S10 2.952253 1_555
La3 S3 3.004052 1_454
La3 S2 3.004061 1_554
La4 O2 2.550688 1_555
La4 O1 2.550698 1_555
La4 O25 2.559881 1_555
La4 O24 2.559895 1_555
La4 O21 2.669039 1_555
La4 O22 2.669045 1_555
La4 S11 2.952253 1_556
La4 S5 3.004052 1_555
La4 S4 3.004061 1_555
La5 O5 2.550688 1_555
La5 O3 2.550688 1_555
La5 O27 2.559891 1_455
La5 O21 2.559891 1_565
La5 O23 2.669038 1_455
La5 O25 2.669038 1_565
La5 S10 2.952262 1_555
La5 S7 3.004050 1_455
La5 S5 3.004050 1_565
La6 O6 2.550692 1_555
La6 O4 2.550692 1_555
La6 O22 2.559891 1_555
La6 O20 2.559891 1_555
La6 O24 2.669038 1_555
La6 O26 2.669038 1_555
La6 S10 2.952262 1_555
La6 S4 3.004050 1_555
La6 S6 3.004050 1_555
La7 O0 2.550688 1_555
La7 O7 2.550698 1_555
La7 O23 2.559881 1_555
La7 O26 2.559895 1_555
La7 O27 2.669039 1_555
La7 O20 2.669045 1_555
La7 S11 2.952253 1_555
La7 S7 3.004052 1_555
La7 S6 3.004061 1_555
La8 O0 2.440590 1_555
La8 O14 2.567040 1_554
La8 O23 2.567040 1_555
La8 S5 2.914014 1_665
La8 S1 2.914014 1_565
La8 S9 2.929167 1_565
La8 S7 3.504160 1_555
La8 S0 3.504160 1_555
La9 O1 2.440598 1_555
La9 O19 2.567040 1_556
La9 O24 2.567040 1_555
La9 S2 2.914014 1_655
La9 S6 2.914014 1_555
La9 S9 2.929167 1_555
La9 S3 3.504160 1_555
La9 S4 3.504160 1_555
La10 O2 2.440590 1_555
La10 O12 2.567040 1_556
La10 O25 2.567040 1_555
La10 S3 2.914014 1_455
La10 S7 2.914014 1_445
La10 S9 2.929167 1_455
La10 S5 3.504160 1_555
La10 S2 3.504160 1_555
La11 O3 2.440598 1_555
La11 O18 2.567040 1_555
La11 O21 2.567040 1_565
La11 S4 2.914014 1_565
La11 S0 2.914014 1_555
La11 S8 2.929167 1_565
La11 S2 3.504160 1_554
La11 S5 3.504160 1_565
La12 O4 2.440590 1_555
La12 O20 2.567040 1_555
La12 O17 2.567040 1_565
La12 S7 2.914014 1_555
La12 S3 2.914014 1_565
La12 S8 2.929167 1_666
La12 S1 3.504160 1_566
La12 S6 3.504160 1_555
La13 O5 2.440598 1_555
La13 O27 2.567040 1_455
La13 O16 2.567040 1_555
La13 S6 2.914014 1_455
La13 S2 2.914014 1_555
La13 S8 2.929167 1_566
La13 S0 3.504160 1_556
La13 S7 3.504160 1_455
La14 O6 2.440590 1_555
La14 O22 2.567040 1_555
La14 O15 2.567040 1_455
La14 S1 2.914014 1_455
La14 S5 2.914014 1_555
La14 S8 2.929167 1_555
La14 S4 3.504160 1_555
La14 S3 3.504160 1_454
La15 O7 2.440598 1_555
La15 O26 2.567040 1_555
La15 O13 2.567040 1_554
La15 S0 2.914014 1_545
La15 S4 2.914014 1_555
La15 S9 2.929167 1_555
La15 S6 3.504160 1_555
La15 S1 3.504160 1_555
O0 Si0 1.661088 1_555
O1 Si1 1.661088 1_555
O2 Si2 1.661088 1_555
O3 Si3 1.661088 1_455
O4 Si4 1.661088 1_555
O5 Si5 1.661088 1_565
O6 Si6 1.661088 1_555
O7 Si7 1.661088 1_555
O8 Si1 1.653794 1_555
O8 Si0 1.653797 1_545
O9 Si3 1.653794 1_555
O9 Si4 1.653797 1_554
O10 Si5 1.653794 1_554
O10 Si6 1.653797 1_555
O11 Si7 1.653794 1_555
O11 Si2 1.653797 1_655
O12 Si6 1.642798 1_555
O13 Si5 1.642800 1_555
O14 Si4 1.642798 1_555
O15 Si7 1.642790 1_555
O16 Si2 1.642798 1_555
O17 Si1 1.642790 1_555
O18 Si0 1.642798 1_555
O19 Si3 1.642800 1_555
O20 Si0 1.642798 1_555
O21 Si1 1.642800 1_555
O22 Si2 1.642798 1_555
O23 Si3 1.642790 1_555
O24 Si4 1.642798 1_555
O25 Si5 1.642790 1_555
O26 Si6 1.642798 1_555
O27 Si7 1.642800 1_555
