# generated using pymatgen
data_Mg6CdNi
_symmetry_space_group_name_H-M   'P 1'
_cell_length_a   4.90633500
_cell_length_b   6.14109400
_cell_length_c   10.65515200
_cell_angle_alpha   90.00000000
_cell_angle_beta   90.00000000
_cell_angle_gamma   90.00000000
_symmetry_Int_Tables_number   1
_chemical_formula_structural   Mg6CdNi
_chemical_formula_sum   'Mg12 Cd2 Ni2'
_cell_volume   321.04254731
_cell_formula_units_Z   2
loop_
 _symmetry_equiv_pos_site_id
 _symmetry_equiv_pos_as_xyz
  1  'x, y, z'
loop_
 _atom_site_type_symbol
 _atom_site_label
 _atom_site_symmetry_multiplicity
 _atom_site_fract_x
 _atom_site_fract_y
 _atom_site_fract_z
 _atom_site_occupancy
  Mg  Mg0  1  0.00000000  0.75016900  0.08401200  1
  Mg  Mg1  1  0.00000000  0.24983100  0.08401200  1
  Mg  Mg2  1  0.00000000  0.00000000  0.33314600  1
  Mg  Mg3  1  0.50000000  0.26302700  0.40981400  1
  Mg  Mg4  1  0.50000000  0.73697300  0.40981400  1
  Mg  Mg5  1  0.50000000  0.00000000  0.16726700  1
  Mg  Mg6  1  0.00000000  0.25016900  0.58401200  1
  Mg  Mg7  1  0.00000000  0.74983100  0.58401200  1
  Mg  Mg8  1  0.00000000  0.50000000  0.83314600  1
  Mg  Mg9  1  0.50000000  0.76302700  0.90981400  1
  Mg  Mg10  1  0.50000000  0.23697300  0.90981400  1
  Mg  Mg11  1  0.50000000  0.50000000  0.66726700  1
  Cd  Cd0  1  0.50000000  0.50000000  0.16957200  1
  Cd  Cd1  1  0.50000000  0.00000000  0.66957200  1
  Ni  Ni0  1  0.00000000  0.50000000  0.34236200  1
  Ni  Ni1  1  0.00000000  0.00000000  0.84236200  1
loop_
_geom_bond_atom_site_label_1
_geom_bond_atom_site_label_2
_geom_bond_distance
_geom_bond_site_symmetry_2
Mg0 Ni1 2.997259 1_564
Mg0 Mg5 3.026359 1_465
Mg0 Mg5 3.026359 1_565
Mg0 Mg2 3.066035 1_565
Mg0 Mg1 3.068471 1_565
Mg0 Mg1 3.072623 1_555
Mg0 Mg9 3.077238 1_454
Mg0 Mg9 3.077238 1_554
Mg0 Mg8 3.083061 1_554
Mg0 Ni0 3.152449 1_555
Mg1 Ni1 2.997259 1_554
Mg1 Mg5 3.026359 1_555
Mg1 Mg5 3.026359 1_455
Mg1 Mg2 3.066035 1_555
Mg1 Mg10 3.077238 1_554
Mg1 Mg10 3.077238 1_454
Mg1 Mg8 3.083061 1_554
Mg1 Ni0 3.152449 1_555
Mg2 Mg5 3.023569 1_555
Mg2 Mg5 3.023569 1_455
Mg2 Mg3 3.048685 1_555
Mg2 Mg4 3.048685 1_445
Mg2 Mg3 3.048685 1_455
Mg2 Mg4 3.048685 1_545
Mg2 Ni0 3.072117 1_555
Mg2 Ni0 3.072117 1_545
Mg2 Mg6 3.083061 1_555
Mg2 Mg7 3.083061 1_545
Mg3 Mg4 2.910547 1_555
Mg3 Ni0 2.941496 1_655
Mg3 Ni0 2.941496 1_555
Mg3 Mg5 3.047639 1_555
Mg3 Mg6 3.077238 1_655
Mg3 Mg6 3.077238 1_555
Mg3 Mg4 3.230547 1_545
Mg4 Ni0 2.941496 1_655
Mg4 Ni0 2.941496 1_555
Mg4 Mg5 3.047639 1_565
Mg4 Mg7 3.077238 1_655
Mg4 Mg7 3.077238 1_555
Mg5 Mg9 3.105313 1_544
Mg6 Ni0 2.997259 1_555
Mg6 Mg8 3.066035 1_555
Mg6 Mg7 3.068471 1_555
Mg6 Mg7 3.072623 1_545
Mg6 Ni1 3.152449 1_555
Mg7 Ni0 2.997259 1_555
Mg7 Mg8 3.066035 1_555
Mg7 Ni1 3.152449 1_565
Mg8 Mg9 3.048685 1_455
Mg8 Mg9 3.048685 1_555
Mg8 Ni1 3.072117 1_555
Mg8 Ni1 3.072117 1_565
Mg9 Ni1 2.941496 1_665
Mg9 Ni1 2.941496 1_565
Mg10 Mg9 2.910547 1_545
Mg10 Ni1 2.941496 1_555
Mg10 Ni1 2.941496 1_655
Mg10 Mg11 3.047639 1_555
Mg10 Mg8 3.048685 1_655
Mg10 Mg8 3.048685 1_555
Mg10 Mg5 3.105313 1_556
Mg10 Mg9 3.230547 1_555
Mg11 Mg8 3.023569 1_655
Mg11 Mg8 3.023569 1_555
Mg11 Mg7 3.026359 1_655
Mg11 Mg7 3.026359 1_555
Mg11 Mg6 3.026359 1_555
Mg11 Mg6 3.026359 1_655
Mg11 Mg9 3.047639 1_555
Mg11 Mg3 3.105313 1_555
Mg11 Mg4 3.105313 1_555
Cd0 Mg4 2.944567 1_555
Cd0 Mg3 2.944567 1_555
Cd0 Mg0 3.034699 1_655
Cd0 Mg1 3.034699 1_555
Cd0 Mg1 3.034699 1_655
Cd0 Mg0 3.034699 1_555
Cd0 Ni0 3.067196 1_655
Cd0 Ni0 3.067196 1_555
Cd0 Mg5 3.070645 1_565
Cd0 Mg5 3.070645 1_555
Cd0 Mg9 3.204623 1_554
Cd0 Mg10 3.204623 1_554
Cd1 Mg9 2.944567 1_545
Cd1 Mg10 2.944567 1_555
Cd1 Mg6 3.034699 1_555
Cd1 Mg6 3.034699 1_655
Cd1 Mg7 3.034699 1_545
Cd1 Mg7 3.034699 1_645
Cd1 Ni1 3.067196 1_655
Cd1 Ni1 3.067196 1_555
Cd1 Mg11 3.070645 1_545
Cd1 Mg11 3.070645 1_555
Cd1 Mg3 3.204623 1_555
Cd1 Mg4 3.204623 1_545
