# generated using pymatgen
data_Sm2Au
_symmetry_space_group_name_H-M   'P 1'
_cell_length_a   5.02616300
_cell_length_b   7.26960800
_cell_length_c   9.22162100
_cell_angle_alpha   90.00000000
_cell_angle_beta   90.00000000
_cell_angle_gamma   90.00000000
_symmetry_Int_Tables_number   1
_chemical_formula_structural   Sm2Au
_chemical_formula_sum   'Sm8 Au4'
_cell_volume   336.94175291
_cell_formula_units_Z   4
loop_
 _symmetry_equiv_pos_site_id
 _symmetry_equiv_pos_as_xyz
  1  'x, y, z'
loop_
 _atom_site_type_symbol
 _atom_site_label
 _atom_site_symmetry_multiplicity
 _atom_site_fract_x
 _atom_site_fract_y
 _atom_site_fract_z
 _atom_site_occupancy
  Sm  Sm0  1  0.75000000  0.15156200  0.08464000  1
  Sm  Sm1  1  0.75000000  0.65156200  0.41536000  1
  Sm  Sm2  1  0.25000000  0.84843800  0.91536000  1
  Sm  Sm3  1  0.25000000  0.34843800  0.58464000  1
  Sm  Sm4  1  0.75000000  0.51015900  0.82395600  1
  Sm  Sm5  1  0.75000000  0.01015900  0.67604400  1
  Sm  Sm6  1  0.25000000  0.48984100  0.17604400  1
  Sm  Sm7  1  0.25000000  0.98984100  0.32395600  1
  Au  Au0  1  0.75000000  0.74336800  0.09680400  1
  Au  Au1  1  0.75000000  0.24336800  0.40319600  1
  Au  Au2  1  0.25000000  0.25663200  0.90319600  1
  Au  Au3  1  0.25000000  0.75663200  0.59680400  1
loop_
_geom_bond_atom_site_label_1
_geom_bond_atom_site_label_2
_geom_bond_distance
_geom_bond_site_symmetry_2
Sm0 Sm7 3.545145 1_545
Sm0 Sm7 3.545145 1_645
Sm0 Sm4 3.546067 1_554
Sm0 Sm6 3.615729 1_555
Sm0 Sm6 3.615729 1_655
Sm0 Sm2 3.688934 1_644
Sm0 Sm2 3.688934 1_544
Sm0 Sm5 3.905621 1_554
Sm1 Sm6 3.545145 1_555
Sm1 Sm6 3.545145 1_655
Sm1 Sm5 3.546067 1_565
Sm1 Sm7 3.615729 1_555
Sm1 Sm7 3.615729 1_655
Sm1 Sm3 3.688934 1_655
Sm1 Sm3 3.688934 1_555
Sm1 Sm4 3.905621 1_555
Sm2 Sm5 3.545145 1_565
Sm2 Sm5 3.545145 1_465
Sm2 Sm6 3.546067 1_556
Sm2 Sm4 3.615729 1_555
Sm2 Sm4 3.615729 1_455
Sm2 Sm7 3.905621 1_556
Sm3 Sm4 3.545145 1_455
Sm3 Sm4 3.545145 1_555
Sm3 Sm7 3.546067 1_545
Sm3 Sm5 3.615729 1_555
Sm3 Sm5 3.615729 1_455
Sm3 Sm6 3.905621 1_555
Au0 Sm0 2.969530 1_565
Au0 Sm1 3.012461 1_555
Au0 Sm4 3.033963 1_554
Au0 Sm2 3.114261 1_654
Au0 Sm2 3.114261 1_554
Au0 Sm6 3.200990 1_555
Au0 Sm6 3.200990 1_655
Au1 Sm1 2.969530 1_555
Au1 Sm0 3.012461 1_555
Au1 Sm5 3.033963 1_555
Au1 Sm3 3.114261 1_555
Au1 Sm3 3.114261 1_655
Au1 Sm7 3.200990 1_645
Au1 Sm7 3.200990 1_545
Au2 Sm2 2.969530 1_545
Au2 Sm3 3.012461 1_555
Au2 Sm6 3.033963 1_556
Au2 Sm0 3.114261 1_556
Au2 Sm0 3.114261 1_456
Au2 Sm4 3.200990 1_455
Au2 Sm4 3.200990 1_555
Au3 Sm3 2.969530 1_555
Au3 Sm2 3.012461 1_555
Au3 Sm7 3.033963 1_555
Au3 Sm1 3.114261 1_555
Au3 Sm1 3.114261 1_455
Au3 Sm5 3.200990 1_565
Au3 Sm5 3.200990 1_465
