# generated using pymatgen
data_Y3Al3V2O12
_symmetry_space_group_name_H-M   'P 1'
_cell_length_a   10.68069650
_cell_length_b   10.68069650
_cell_length_c   10.68069650
_cell_angle_alpha   109.47122063
_cell_angle_beta   109.47122063
_cell_angle_gamma   109.47122063
_symmetry_Int_Tables_number   1
_chemical_formula_structural   Y3Al3V2O12
_chemical_formula_sum   'Y12 Al12 V8 O48'
_cell_volume   937.94383395
_cell_formula_units_Z   4
loop_
 _symmetry_equiv_pos_site_id
 _symmetry_equiv_pos_as_xyz
  1  'x, y, z'
loop_
 _atom_site_type_symbol
 _atom_site_label
 _atom_site_symmetry_multiplicity
 _atom_site_fract_x
 _atom_site_fract_y
 _atom_site_fract_z
 _atom_site_occupancy
  Y  Y0  1  0.25000000  0.37500000  0.12500000  1
  Y  Y1  1  0.75000000  0.62500000  0.87500000  1
  Y  Y2  1  0.75000000  0.12500000  0.37500000  1
  Y  Y3  1  0.12500000  0.25000000  0.37500000  1
  Y  Y4  1  0.37500000  0.75000000  0.12500000  1
  Y  Y5  1  0.25000000  0.87500000  0.62500000  1
  Y  Y6  1  0.87500000  0.75000000  0.62500000  1
  Y  Y7  1  0.62500000  0.25000000  0.87500000  1
  Y  Y8  1  0.37500000  0.12500000  0.25000000  1
  Y  Y9  1  0.62500000  0.87500000  0.75000000  1
  Y  Y10  1  0.12500000  0.37500000  0.75000000  1
  Y  Y11  1  0.87500000  0.62500000  0.25000000  1
  Al  Al0  1  0.25000000  0.62500000  0.37500000  1
  Al  Al1  1  0.75000000  0.37500000  0.62500000  1
  Al  Al2  1  0.75000000  0.87500000  0.12500000  1
  Al  Al3  1  0.37500000  0.25000000  0.62500000  1
  Al  Al4  1  0.62500000  0.75000000  0.37500000  1
  Al  Al5  1  0.25000000  0.12500000  0.87500000  1
  Al  Al6  1  0.12500000  0.75000000  0.87500000  1
  Al  Al7  1  0.87500000  0.25000000  0.12500000  1
  Al  Al8  1  0.62500000  0.37500000  0.25000000  1
  Al  Al9  1  0.37500000  0.62500000  0.75000000  1
  Al  Al10  1  0.87500000  0.12500000  0.75000000  1
  Al  Al11  1  0.12500000  0.87500000  0.25000000  1
  V  V0  1  0.00000000  0.00000000  0.00000000  1
  V  V1  1  0.50000000  0.00000000  0.50000000  1
  V  V2  1  0.00000000  0.50000000  0.50000000  1
  V  V3  1  0.50000000  0.00000000  0.00000000  1
  V  V4  1  0.50000000  0.50000000  0.00000000  1
  V  V5  1  0.50000000  0.50000000  0.50000000  1
  V  V6  1  0.00000000  0.00000000  0.50000000  1
  V  V7  1  0.00000000  0.50000000  0.00000000  1
  O  O0  1  0.47626800  0.37709000  0.29069300  1
  O  O1  1  0.52373200  0.62291000  0.70930700  1
  O  O2  1  0.58639700  0.18557500  0.20930700  1
  O  O3  1  0.91360300  0.12291000  0.59917800  1
  O  O4  1  0.29069300  0.47626800  0.37709000  1
  O  O5  1  0.31442500  0.91360300  0.29069300  1
  O  O6  1  0.41360300  0.81442500  0.79069300  1
  O  O7  1  0.08639700  0.87709000  0.40082200  1
  O  O8  1  0.70930700  0.52373200  0.62291000  1
  O  O9  1  0.68557500  0.08639700  0.70930700  1
  O  O10  1  0.02373200  0.31442500  0.90082200  1
  O  O11  1  0.20930700  0.58639700  0.18557500  1
  O  O12  1  0.12291000  0.02373200  0.20930700  1
  O  O13  1  0.97626800  0.68557500  0.09917800  1
  O  O14  1  0.79069300  0.41360300  0.81442500  1
  O  O15  1  0.87709000  0.97626800  0.79069300  1
  O  O16  1  0.59917800  0.91360300  0.12291000  1
  O  O17  1  0.18557500  0.47626800  0.59917800  1
  O  O18  1  0.40082200  0.08639700  0.87709000  1
  O  O19  1  0.81442500  0.52373200  0.40082200  1
  O  O20  1  0.90082200  0.02373200  0.31442500  1
  O  O21  1  0.37709000  0.58639700  0.90082200  1
  O  O22  1  0.09917800  0.97626800  0.68557500  1
  O  O23  1  0.62291000  0.41360300  0.09917800  1
  O  O24  1  0.37709000  0.29069300  0.47626800  1
  O  O25  1  0.58639700  0.90082200  0.37709000  1
  O  O26  1  0.62291000  0.70930700  0.52373200  1
  O  O27  1  0.41360300  0.09917800  0.62291000  1
  O  O28  1  0.12291000  0.59917800  0.91360300  1
  O  O29  1  0.02373200  0.20930700  0.12291000  1
  O  O30  1  0.87709000  0.40082200  0.08639700  1
  O  O31  1  0.97626800  0.79069300  0.87709000  1
  O  O32  1  0.31442500  0.90082200  0.02373200  1
  O  O33  1  0.91360300  0.29069300  0.31442500  1
  O  O34  1  0.68557500  0.09917800  0.97626800  1
  O  O35  1  0.08639700  0.70930700  0.68557500  1
  O  O36  1  0.18557500  0.20930700  0.58639700  1
  O  O37  1  0.47626800  0.59917800  0.18557500  1
  O  O38  1  0.81442500  0.79069300  0.41360300  1
  O  O39  1  0.52373200  0.40082200  0.81442500  1
  O  O40  1  0.29069300  0.31442500  0.91360300  1
  O  O41  1  0.70930700  0.68557500  0.08639700  1
  O  O42  1  0.20930700  0.12291000  0.02373200  1
  O  O43  1  0.79069300  0.87709000  0.97626800  1
  O  O44  1  0.90082200  0.37709000  0.58639700  1
  O  O45  1  0.09917800  0.62291000  0.41360300  1
  O  O46  1  0.59917800  0.18557500  0.47626800  1
  O  O47  1  0.40082200  0.81442500  0.52373200  1
loop_
_geom_bond_atom_site_label_1
_geom_bond_atom_site_label_2
_geom_bond_distance
_geom_bond_site_symmetry_2
Al0 O4 1.786167 1_555
Al0 O47 1.786167 1_555
Al0 O45 1.786167 1_555
Al0 O11 1.786167 1_555
Al1 O14 1.786167 1_555
Al1 O8 1.786167 1_555
Al1 O46 1.786167 1_555
Al1 O44 1.786167 1_555
Al2 O41 1.786167 1_555
Al2 O43 1.786167 1_554
Al2 O16 1.786167 1_555
Al2 O20 1.786167 1_565
Al3 O24 1.786167 1_555
Al3 O39 1.786167 1_555
Al3 O36 1.786167 1_555
Al3 O27 1.786167 1_555
Al4 O38 1.786167 1_555
Al4 O26 1.786167 1_555
Al4 O37 1.786167 1_555
Al4 O25 1.786167 1_555
Al5 O22 1.786167 1_545
Al5 O40 1.786167 1_555
Al5 O18 1.786167 1_555
Al5 O42 1.786167 1_556
Al6 O35 1.786167 1_555
Al6 O31 1.786167 1_455
Al6 O32 1.786167 1_556
Al6 O28 1.786167 1_555
Al7 O34 1.786167 1_554
Al7 O30 1.786167 1_555
Al7 O33 1.786167 1_555
Al7 O29 1.786167 1_655
Al8 O19 1.786167 1_555
Al8 O0 1.786167 1_555
Al8 O2 1.786167 1_555
Al8 O23 1.786167 1_555
Al9 O6 1.786167 1_555
Al9 O1 1.786167 1_555
Al9 O17 1.786167 1_555
Al9 O21 1.786167 1_555
Al10 O9 1.786167 1_555
Al10 O15 1.786167 1_545
Al10 O3 1.786167 1_555
Al10 O10 1.786167 1_655
Al11 O13 1.786167 1_455
Al11 O7 1.786167 1_555
Al11 O5 1.786167 1_555
Al11 O12 1.786167 1_565
O0 V5 2.056492 1_555
O0 Y8 2.360779 1_555
O0 Y0 2.461561 1_555
O1 V5 2.056492 1_555
O1 Y9 2.360779 1_555
O1 Y1 2.461561 1_555
O2 V3 2.056492 1_555
O2 Y8 2.360779 1_555
O2 Y2 2.461561 1_555
O3 V6 2.056492 1_655
O3 Y10 2.360779 1_655
O3 Y2 2.461561 1_555
O4 V5 2.056492 1_555
O4 Y0 2.360779 1_555
O4 Y3 2.461561 1_555
O5 V1 2.056492 1_565
O5 Y8 2.360779 1_565
O5 Y4 2.461561 1_555
O6 V3 2.056492 1_566
O6 Y9 2.360779 1_555
O6 Y5 2.461561 1_555
O7 V6 2.056492 1_565
O7 Y11 2.360779 1_455
O7 Y5 2.461561 1_555
O8 V5 2.056492 1_555
O8 Y1 2.360779 1_555
O8 Y6 2.461561 1_555
O9 V1 2.056492 1_555
O9 Y9 2.360779 1_545
O9 Y7 2.461561 1_555
O10 V7 2.056492 1_556
O10 Y10 2.360779 1_555
O10 Y0 2.461561 1_556
O11 V7 2.056492 1_555
O11 Y0 2.360779 1_555
O11 Y4 2.461561 1_555
O12 V0 2.056492 1_555
O12 Y8 2.360779 1_555
O12 Y3 2.461561 1_555
O13 V7 2.056492 1_655
O13 Y11 2.360779 1_555
O13 Y1 2.461561 1_554
O14 V7 2.056492 1_656
O14 Y1 2.360779 1_555
O14 Y7 2.461561 1_555
O15 V0 2.056492 1_666
O15 Y9 2.360779 1_555
O15 Y6 2.461561 1_555
O16 V3 2.056492 1_565
O16 Y2 2.360779 1_565
O16 Y4 2.461561 1_555
O17 V2 2.056492 1_555
O17 Y10 2.360779 1_555
O17 Y3 2.461561 1_555
O18 V3 2.056492 1_556
O18 Y5 2.360779 1_545
O18 Y7 2.461561 1_555
O19 V2 2.056492 1_655
O19 Y11 2.360779 1_555
O19 Y6 2.461561 1_555
O20 V6 2.056492 1_655
O20 Y2 2.360779 1_555
O20 Y3 2.461561 1_655
O21 V4 2.056492 1_556
O21 Y10 2.360779 1_555
O21 Y4 2.461561 1_556
O22 V6 2.056492 1_565
O22 Y5 2.360779 1_555
O22 Y6 2.461561 1_455
O23 V4 2.056492 1_555
O23 Y11 2.360779 1_555
O23 Y7 2.461561 1_554
O24 V5 2.056492 1_555
O24 Y3 2.360779 1_555
O24 Y8 2.461561 1_555
O25 V1 2.056492 1_565
O25 Y4 2.360779 1_555
O25 Y2 2.461561 1_565
O26 V5 2.056492 1_555
O26 Y6 2.360779 1_555
O26 Y9 2.461561 1_555
O27 V1 2.056492 1_555
O27 Y7 2.360779 1_555
O27 Y5 2.461561 1_545
O28 V7 2.056492 1_556
O28 Y4 2.360779 1_556
O28 Y10 2.461561 1_555
O29 V0 2.056492 1_555
O29 Y3 2.360779 1_555
O29 Y0 2.461561 1_555
O30 V7 2.056492 1_655
O30 Y7 2.360779 1_554
O30 Y11 2.461561 1_555
O31 V0 2.056492 1_666
O31 Y6 2.360779 1_555
O31 Y1 2.461561 1_555
O32 V3 2.056492 1_565
O32 Y4 2.360779 1_555
O32 Y8 2.461561 1_565
O33 V2 2.056492 1_655
O33 Y3 2.360779 1_655
O33 Y2 2.461561 1_555
O34 V3 2.056492 1_556
O34 Y7 2.360779 1_555
O34 Y9 2.461561 1_545
O35 V2 2.056492 1_555
O35 Y6 2.360779 1_455
O35 Y5 2.461561 1_555
O36 V6 2.056492 1_555
O36 Y3 2.360779 1_555
O36 Y10 2.461561 1_555
O37 V4 2.056492 1_555
O37 Y4 2.360779 1_555
O37 Y0 2.461561 1_555
O38 V6 2.056492 1_665
O38 Y6 2.360779 1_555
O38 Y11 2.461561 1_555
O39 V4 2.056492 1_556
O39 Y7 2.360779 1_555
O39 Y1 2.461561 1_555
O40 V4 2.056492 1_556
O40 Y0 2.360779 1_556
O40 Y10 2.461561 1_555
O41 V4 2.056492 1_555
O41 Y1 2.360779 1_554
O41 Y11 2.461561 1_555
O42 V0 2.056492 1_555
O42 Y0 2.360779 1_555
O42 Y8 2.461561 1_555
O43 V0 2.056492 1_666
O43 Y1 2.360779 1_555
O43 Y9 2.461561 1_555
O44 V2 2.056492 1_655
O44 Y2 2.360779 1_555
O44 Y10 2.461561 1_655
O45 V2 2.056492 1_555
O45 Y5 2.360779 1_555
O45 Y11 2.461561 1_455
O46 V1 2.056492 1_555
O46 Y2 2.360779 1_555
O46 Y8 2.461561 1_555
O47 V1 2.056492 1_565
O47 Y5 2.360779 1_555
O47 Y9 2.461561 1_555
