# generated using pymatgen
data_KLaNb4O12
_symmetry_space_group_name_H-M   'P 1'
_cell_length_a   5.68547267
_cell_length_b   5.68547267
_cell_length_c   7.98294613
_cell_angle_alpha   90.00000000
_cell_angle_beta   90.00000000
_cell_angle_gamma   91.66630848
_symmetry_Int_Tables_number   1
_chemical_formula_structural   KLaNb4O12
_chemical_formula_sum   'K1 La1 Nb4 O12'
_cell_volume   257.93641719
_cell_formula_units_Z   1
loop_
 _symmetry_equiv_pos_site_id
 _symmetry_equiv_pos_as_xyz
  1  'x, y, z'
loop_
 _atom_site_type_symbol
 _atom_site_label
 _atom_site_symmetry_multiplicity
 _atom_site_fract_x
 _atom_site_fract_y
 _atom_site_fract_z
 _atom_site_occupancy
  K  K0  1  0.99555573  0.00444427  0.50000000  1
  La  La0  1  0.48652876  0.51347124  0.00000000  1
  Nb  Nb0  1  0.48886407  0.01631471  0.25228375  1
  Nb  Nb1  1  0.48886407  0.01631471  0.74771625  1
  Nb  Nb2  1  0.98368529  0.51113593  0.74771625  1
  Nb  Nb3  1  0.98368529  0.51113593  0.25228375  1
  O  O0  1  0.27857312  0.26866834  0.23624780  1
  O  O1  1  0.73133166  0.72142688  0.23624780  1
  O  O2  1  0.73133166  0.72142688  0.76375220  1
  O  O3  1  0.27857312  0.26866834  0.76375220  1
  O  O4  1  0.25219475  0.74780525  0.21399234  1
  O  O5  1  0.76923719  0.23076281  0.26293873  1
  O  O6  1  0.76923719  0.23076281  0.73706127  1
  O  O7  1  0.25219475  0.74780525  0.78600766  1
  O  O8  1  0.52801903  0.02569125  0.00000000  1
  O  O9  1  0.47995470  0.98013910  0.50000000  1
  O  O10  1  0.97430875  0.47198097  -0.00000000  1
  O  O11  1  0.01986090  0.52004530  0.50000000  1
loop_
_geom_bond_atom_site_label_1
_geom_bond_atom_site_label_2
_geom_bond_distance
_geom_bond_site_symmetry_2
K0 O6 2.643668 1_555
K0 O5 2.643668 1_555
K0 O9 2.761512 1_645
K0 O11 2.761512 1_645
K0 O11 2.930674 1_655
K0 O9 2.930674 1_545
K0 O3 3.022998 1_655
K0 O2 3.022998 1_545
K0 O0 3.022998 1_655
K0 O1 3.022998 1_545
K0 O7 3.097543 1_645
K0 O4 3.097543 1_645
La0 O4 2.563499 1_555
La0 O7 2.563499 1_554
La0 O1 2.606948 1_555
La0 O0 2.606948 1_555
La0 O3 2.606948 1_554
La0 O2 2.606948 1_554
La0 O8 2.790100 1_555
La0 O10 2.790100 1_555
La0 O8 2.914906 1_565
La0 O10 2.914906 1_455
La0 O5 3.118202 1_555
La0 O6 3.118202 1_554
Nb0 O0 1.898453 1_555
Nb0 O5 1.980342 1_555
Nb0 O9 1.988665 1_545
Nb0 O8 2.026765 1_555
Nb0 O4 2.028564 1_545
Nb0 O1 2.205015 1_545
Nb1 O3 1.898453 1_555
Nb1 O6 1.980342 1_555
Nb1 O9 1.988665 1_545
Nb1 O8 2.026765 1_556
Nb1 O7 2.028564 1_545
Nb1 O2 2.205015 1_545
Nb2 O2 1.898453 1_555
Nb2 O6 1.980342 1_555
Nb2 O11 1.988665 1_655
Nb2 O10 2.026765 1_556
Nb2 O7 2.028564 1_655
Nb2 O3 2.205015 1_655
Nb3 O1 1.898453 1_555
Nb3 O5 1.980342 1_555
Nb3 O11 1.988665 1_655
Nb3 O10 2.026765 1_555
Nb3 O4 2.028564 1_655
Nb3 O0 2.205015 1_655
