# generated using pymatgen
data_HfSO
_symmetry_space_group_name_H-M   'P 1'
_cell_length_a   3.57654100
_cell_length_b   3.57654100
_cell_length_c   6.36312200
_cell_angle_alpha   90.00000000
_cell_angle_beta   90.00000000
_cell_angle_gamma   90.00000000
_symmetry_Int_Tables_number   1
_chemical_formula_structural   HfSO
_chemical_formula_sum   'Hf2 S2 O2'
_cell_volume   81.39480105
_cell_formula_units_Z   2
loop_
 _symmetry_equiv_pos_site_id
 _symmetry_equiv_pos_as_xyz
  1  'x, y, z'
loop_
 _atom_site_type_symbol
 _atom_site_label
 _atom_site_symmetry_multiplicity
 _atom_site_fract_x
 _atom_site_fract_y
 _atom_site_fract_z
 _atom_site_occupancy
  Hf  Hf0  1  0.50000000  0.00000000  0.19648200  1
  Hf  Hf1  1  0.00000000  0.50000000  0.80351800  1
  S  S0  1  0.50000000  0.00000000  0.62739900  1
  S  S1  1  0.00000000  0.50000000  0.37260100  1
  O  O0  1  0.00000000  0.00000000  0.00000000  1
  O  O1  1  0.50000000  0.50000000  0.00000000  1
loop_
_geom_bond_atom_site_label_1
_geom_bond_atom_site_label_2
_geom_bond_distance
_geom_bond_site_symmetry_2
Hf0 O0 2.181974 1_655
Hf0 O1 2.181974 1_545
Hf0 O0 2.181974 1_555
Hf0 O1 2.181974 1_555
Hf0 S0 2.741977 1_555
Hf0 S1 2.766174 1_655
Hf0 S1 2.766174 1_545
Hf0 S1 2.766174 1_645
Hf0 S1 2.766174 1_555
Hf1 O0 2.181974 1_556
Hf1 O1 2.181974 1_456
Hf1 O1 2.181974 1_556
Hf1 O0 2.181974 1_566
Hf1 S1 2.741977 1_555
Hf1 S0 2.766174 1_465
Hf1 S0 2.766174 1_455
Hf1 S0 2.766174 1_565
Hf1 S0 2.766174 1_555
