# generated using pymatgen
data_Ba2LiMn2O6
_symmetry_space_group_name_H-M   'P 1'
_cell_length_a   5.81777792
_cell_length_b   5.81424743
_cell_length_c   5.26608000
_cell_angle_alpha   90.00000000
_cell_angle_beta   90.00000000
_cell_angle_gamma   120.91270283
_symmetry_Int_Tables_number   1
_chemical_formula_structural   Ba2LiMn2O6
_chemical_formula_sum   'Ba2 Li1 Mn2 O6'
_cell_volume   152.82718039
_cell_formula_units_Z   1
loop_
 _symmetry_equiv_pos_site_id
 _symmetry_equiv_pos_as_xyz
  1  'x, y, z'
loop_
 _atom_site_type_symbol
 _atom_site_label
 _atom_site_symmetry_multiplicity
 _atom_site_fract_x
 _atom_site_fract_y
 _atom_site_fract_z
 _atom_site_occupancy
  Ba  Ba0  1  0.67095000  0.32843700  0.25000000  1
  Ba  Ba1  1  0.31494200  0.68469700  0.75000000  1
  Li  Li0  1  0.34855100  0.65160400  0.25000000  1
  Mn  Mn0  1  0.99807700  0.00182100  0.50494000  1
  Mn  Mn1  1  0.99807700  0.00182100  0.99506000  1
  O  O0  1  0.84127400  0.71126100  0.75000000  1
  O  O1  1  0.17105300  0.82993400  0.25000000  1
  O  O2  1  0.70629600  0.83898000  0.25000000  1
  O  O3  1  0.28919500  0.16040400  0.75000000  1
  O  O4  1  0.16030500  0.29353700  0.25000000  1
  O  O5  1  0.83461300  0.16417000  0.75000000  1
loop_
_geom_bond_atom_site_label_1
_geom_bond_atom_site_label_2
_geom_bond_distance
_geom_bond_site_symmetry_2
Ba0 O1 2.863223 1_545
Ba0 O2 2.868213 1_555
Ba0 O4 2.871856 1_555
Ba0 O1 2.872390 1_655
Ba0 O4 2.956334 1_655
Ba0 O2 2.956734 1_545
Ba0 O5 3.112244 1_554
Ba0 O5 3.112244 1_555
Ba0 O3 3.254328 1_554
Ba0 O3 3.254328 1_555
Ba0 O0 3.256219 1_555
Ba0 O0 3.256219 1_554
Ba1 Li0 2.654583 1_555
Ba1 Li0 2.654583 1_556
Ba1 O0 2.838136 1_455
Ba1 O3 2.845733 1_565
Ba1 O5 2.872696 1_565
Ba1 O5 2.877306 1_455
Ba1 O3 2.974195 1_555
Ba1 O0 2.985679 1_555
Ba1 O1 3.012151 1_555
Ba1 O1 3.012151 1_556
Li0 O2 1.785752 1_555
Li0 O4 1.786344 1_555
Li0 O1 1.800424 1_555
Mn0 O0 1.941177 1_545
Mn0 O3 1.944103 1_655
Mn0 O4 1.981210 1_655
Mn0 O2 1.982182 1_545
Mn0 O5 2.093598 1_555
Mn0 O1 2.201646 1_645
Mn1 O0 1.941177 1_545
Mn1 O3 1.944103 1_655
Mn1 O4 1.981210 1_656
Mn1 O2 1.982182 1_546
Mn1 O5 2.093598 1_555
Mn1 O1 2.201646 1_646
