# generated using pymatgen
data_Ca2Al2SiO7
_symmetry_space_group_name_H-M   'P 1'
_cell_length_a   7.75778300
_cell_length_b   5.10285400
_cell_length_c   7.78498802
_cell_angle_alpha   89.93491747
_cell_angle_beta   90.00000000
_cell_angle_gamma   90.00000000
_symmetry_Int_Tables_number   1
_chemical_formula_structural   Ca2Al2SiO7
_chemical_formula_sum   'Ca4 Al4 Si2 O14'
_cell_volume   308.18282981
_cell_formula_units_Z   2
loop_
 _symmetry_equiv_pos_site_id
 _symmetry_equiv_pos_as_xyz
  1  'x, y, z'
loop_
 _atom_site_type_symbol
 _atom_site_label
 _atom_site_symmetry_multiplicity
 _atom_site_fract_x
 _atom_site_fract_y
 _atom_site_fract_z
 _atom_site_occupancy
  Ca  Ca0  1  0.34228300  0.51623900  0.92544100  1
  Ca  Ca1  1  0.84228300  0.48376100  0.07455900  1
  Ca  Ca2  1  0.66497100  0.51450800  0.60425900  1
  Ca  Ca3  1  0.16497100  0.48549200  0.39574100  1
  Al  Al0  1  0.50050500  0.00029400  0.25081300  1
  Al  Al1  1  0.00050500  0.99970600  0.74918700  1
  Al  Al2  1  0.14255500  0.95978200  0.10702400  1
  Al  Al3  1  0.64255500  0.04021800  0.89297600  1
  Si  Si0  1  0.85633400  0.95207500  0.39406500  1
  Si  Si1  1  0.35633400  0.04792500  0.60593500  1
  O  O0  1  0.49081400  0.17943000  0.74565600  1
  O  O1  1  0.99081400  0.82057000  0.25434400  1
  O  O2  1  0.40956200  0.19031900  0.42104000  1
  O  O3  1  0.90956200  0.80968100  0.57896000  1
  O  O4  1  0.58844200  0.19820200  0.08840000  1
  O  O5  1  0.08844200  0.80179800  0.91160000  1
  O  O6  1  0.33621700  0.79853500  0.16933400  1
  O  O7  1  0.83621700  0.20146500  0.83066600  1
  O  O8  1  0.66897200  0.81334200  0.34745200  1
  O  O9  1  0.16897200  0.18665800  0.65254800  1
  O  O10  1  0.14130100  0.29908100  0.11351600  1
  O  O11  1  0.64130100  0.70091900  0.88648400  1
  O  O12  1  0.85804400  0.26854800  0.39744200  1
  O  O13  1  0.35804400  0.73145200  0.60255800  1
loop_
_geom_bond_atom_site_label_1
_geom_bond_atom_site_label_2
_geom_bond_distance
_geom_bond_site_symmetry_2
Ca0 O6 2.385076 1_556
Ca0 O10 2.408122 1_556
Ca0 O5 2.452041 1_555
Ca0 O0 2.499205 1_555
Ca0 O11 2.522008 1_555
Ca0 O13 2.744651 1_555
Ca0 O4 2.808078 1_556
Ca0 O9 3.026161 1_555
Ca1 O7 2.385076 1_554
Ca1 O11 2.408122 1_554
Ca1 O4 2.452041 1_555
Ca1 O1 2.499205 1_555
Ca1 O10 2.522008 1_655
Ca1 O12 2.744651 1_555
Ca1 O5 2.808078 1_654
Ca1 O8 3.026161 1_555
Ca2 O11 2.402214 1_555
Ca2 O3 2.430489 1_555
Ca2 O0 2.440579 1_555
Ca2 O8 2.513232 1_555
Ca2 O12 2.532911 1_555
Ca2 O13 2.625866 1_555
Ca2 O7 2.723396 1_555
Ca2 O2 2.950001 1_555
Ca3 O10 2.402214 1_555
Ca3 O2 2.430489 1_555
Ca3 O1 2.440579 1_455
Ca3 O9 2.513232 1_555
Ca3 O13 2.532911 1_555
Ca3 O12 2.625866 1_455
Ca3 O6 2.723396 1_555
Ca3 O3 2.950001 1_455
Al0 O4 1.755291 1_555
Al0 O6 1.757322 1_545
Al0 O8 1.783967 1_545
Al0 O2 1.788051 1_555
Al1 O5 1.755291 1_555
Al1 O7 1.757322 1_465
Al1 O9 1.783967 1_565
Al1 O3 1.788051 1_455
Al2 O10 1.732215 1_565
Al2 O5 1.772992 1_554
Al2 O6 1.780056 1_555
Al2 O1 1.789935 1_455
Al3 O11 1.732215 1_545
Al3 O4 1.772992 1_556
Al3 O7 1.780056 1_555
Al3 O0 1.789935 1_555
O0 Si1 1.650309 1_555
O1 Si0 1.650309 1_555
O2 Si1 1.663729 1_555
O3 Si0 1.663729 1_555
O8 Si0 1.657148 1_555
O9 Si1 1.657148 1_555
O12 Si0 1.615214 1_545
O13 Si1 1.615214 1_565
