# generated using pymatgen
data_BaAgTeF
_symmetry_space_group_name_H-M   'P 1'
_cell_length_a   4.58337300
_cell_length_b   4.58337300
_cell_length_c   9.83437000
_cell_angle_alpha   90.00000000
_cell_angle_beta   90.00000000
_cell_angle_gamma   90.00000000
_symmetry_Int_Tables_number   1
_chemical_formula_structural   BaAgTeF
_chemical_formula_sum   'Ba2 Ag2 Te2 F2'
_cell_volume   206.59364014
_cell_formula_units_Z   2
loop_
 _symmetry_equiv_pos_site_id
 _symmetry_equiv_pos_as_xyz
  1  'x, y, z'
loop_
 _atom_site_type_symbol
 _atom_site_label
 _atom_site_symmetry_multiplicity
 _atom_site_fract_x
 _atom_site_fract_y
 _atom_site_fract_z
 _atom_site_occupancy
  Ba  Ba0  1  0.50000000  0.00000000  0.14797100  1
  Ba  Ba1  1  0.00000000  0.50000000  0.85202900  1
  Ag  Ag0  1  0.50000000  0.50000000  0.50000000  1
  Ag  Ag1  1  0.00000000  0.00000000  0.50000000  1
  Te  Te0  1  0.00000000  0.50000000  0.31661100  1
  Te  Te1  1  0.50000000  0.00000000  0.68338900  1
  F  F0  1  0.00000000  0.00000000  0.00000000  1
  F  F1  1  0.50000000  0.50000000  0.00000000  1
loop_
_geom_bond_atom_site_label_1
_geom_bond_atom_site_label_2
_geom_bond_distance
_geom_bond_site_symmetry_2
Ba0 F0 2.714671 1_555
Ba0 F1 2.714671 1_555
Ba0 F0 2.714671 1_655
Ba0 F1 2.714671 1_545
Ba0 Te0 3.640628 1_555
Ba0 Te0 3.640628 1_645
Ba0 Te0 3.640628 1_655
Ba0 Te0 3.640628 1_545
Ba1 F0 2.714671 1_556
Ba1 F1 2.714671 1_556
Ba1 F0 2.714671 1_566
Ba1 F1 2.714671 1_456
Ba1 Te1 3.640628 1_565
Ba1 Te1 3.640628 1_455
Ba1 Te1 3.640628 1_465
Ba1 Te1 3.640628 1_555
Ag0 Te1 2.916247 1_555
Ag0 Te1 2.916247 1_565
Ag0 Te0 2.916247 1_555
Ag0 Te0 2.916247 1_655
Ag1 Te1 2.916247 1_555
Ag1 Te1 2.916247 1_455
Ag1 Te0 2.916247 1_555
Ag1 Te0 2.916247 1_545
