# generated using pymatgen
data_Si3Ru5
_symmetry_space_group_name_H-M   'P 1'
_cell_length_a   4.02254334
_cell_length_b   5.24660169
_cell_length_c   9.78204393
_cell_angle_alpha   90.00000000
_cell_angle_beta   90.00000000
_cell_angle_gamma   90.00000000
_symmetry_Int_Tables_number   1
_chemical_formula_structural   Si3Ru5
_chemical_formula_sum   'Si6 Ru10'
_cell_volume   206.44693316
_cell_formula_units_Z   2
loop_
 _symmetry_equiv_pos_site_id
 _symmetry_equiv_pos_as_xyz
  1  'x, y, z'
loop_
 _atom_site_type_symbol
 _atom_site_label
 _atom_site_symmetry_multiplicity
 _atom_site_fract_x
 _atom_site_fract_y
 _atom_site_fract_z
 _atom_site_occupancy
  Si  Si0  1  0.00000000  0.49997268  0.49999810  1
  Si  Si1  1  0.00000000  0.00002732  -0.00000190  1
  Si  Si2  1  0.50000000  0.87022367  0.36361288  1
  Si  Si3  1  0.50000000  0.12980164  0.63638865  1
  Si  Si4  1  0.50000000  0.37019836  0.13638865  1
  Si  Si5  1  0.50000000  0.62977633  0.86361288  1
  Ru  Ru0  1  -0.00000000  0.49999424  0.00000412  1
  Ru  Ru1  1  -0.00000000  0.00000576  0.50000412  1
  Ru  Ru2  1  -0.00000000  0.65744515  0.27305041  1
  Ru  Ru3  1  0.00000000  0.34256048  0.72695700  1
  Ru  Ru4  1  0.00000000  0.15743952  0.22695700  1
  Ru  Ru5  1  0.00000000  0.84255485  0.77305041  1
  Ru  Ru6  1  0.50000000  0.83411729  0.10941955  1
  Ru  Ru7  1  0.50000000  0.16586115  0.89057030  1
  Ru  Ru8  1  0.50000000  0.33413885  0.39057030  1
  Ru  Ru9  1  0.50000000  0.66588271  0.60941955  1
loop_
_geom_bond_atom_site_label_1
_geom_bond_atom_site_label_2
_geom_bond_distance
_geom_bond_site_symmetry_2
Ru0 Si4 2.507754 1_455
Ru0 Si4 2.507754 1_555
Ru0 Si5 2.507770 1_454
Ru0 Si5 2.507770 1_554
Ru0 Si1 2.623127 1_555
Ru0 Si1 2.623474 1_565
Ru1 Si3 2.507754 1_555
Ru1 Si3 2.507754 1_455
Ru1 Si2 2.507770 1_445
Ru1 Si2 2.507770 1_545
Ru1 Si0 2.623127 1_555
Ru1 Si0 2.623474 1_545
Ru2 Si0 2.368766 1_555
Ru2 Si2 2.465010 1_455
Ru2 Si2 2.465010 1_555
Ru2 Si4 2.846681 1_555
Ru2 Si4 2.846681 1_455
Ru3 Si0 2.368759 1_555
Ru3 Si3 2.464984 1_555
Ru3 Si3 2.464984 1_455
Ru3 Si5 2.846568 1_455
Ru3 Si5 2.846568 1_555
Ru4 Si1 2.368759 1_555
Ru4 Si4 2.464984 1_555
Ru4 Si4 2.464984 1_455
Ru4 Si2 2.846568 1_545
Ru4 Si2 2.846568 1_445
Ru5 Si1 2.368766 1_566
Ru5 Si5 2.465010 1_455
Ru5 Si5 2.465010 1_555
Ru5 Si3 2.846681 1_465
Ru5 Si3 2.846681 1_565
Ru6 Si1 2.438976 1_565
Ru6 Si1 2.438976 1_665
Ru6 Si4 2.448253 1_555
Ru6 Si2 2.493736 1_555
Ru6 Si5 2.632673 1_554
Ru6 Si4 2.824949 1_565
Ru7 Si1 2.438860 1_556
Ru7 Si1 2.438860 1_656
Ru7 Si5 2.448221 1_555
Ru7 Si3 2.493603 1_555
Ru7 Si4 2.632770 1_556
Ru7 Si5 2.824958 1_545
Ru8 Si0 2.438860 1_555
Ru8 Si0 2.438860 1_655
Ru8 Si2 2.448221 1_545
Ru8 Si4 2.493603 1_555
Ru8 Si3 2.632770 1_555
Ru8 Si2 2.824958 1_555
Ru9 Si0 2.438976 1_555
Ru9 Si0 2.438976 1_655
Ru9 Si3 2.448253 1_565
Ru9 Si5 2.493736 1_555
Ru9 Si2 2.632673 1_555
Ru9 Si3 2.824949 1_555
