# generated using pymatgen
data_Eu5Mg
_symmetry_space_group_name_H-M   'P 1'
_cell_length_a   6.61345745
_cell_length_b   6.61345745
_cell_length_c   6.13389900
_cell_angle_alpha   90.00000000
_cell_angle_beta   90.00000000
_cell_angle_gamma   119.99999450
_symmetry_Int_Tables_number   1
_chemical_formula_structural   Eu5Mg
_chemical_formula_sum   'Eu5 Mg1'
_cell_volume   232.34022408
_cell_formula_units_Z   1
loop_
 _symmetry_equiv_pos_site_id
 _symmetry_equiv_pos_as_xyz
  1  'x, y, z'
loop_
 _atom_site_type_symbol
 _atom_site_label
 _atom_site_symmetry_multiplicity
 _atom_site_fract_x
 _atom_site_fract_y
 _atom_site_fract_z
 _atom_site_occupancy
  Eu  Eu0  1  0.33333300  0.66666700  0.50000000  1
  Eu  Eu1  1  0.00000000  0.67818900  0.00000000  1
  Eu  Eu2  1  0.67818900  0.00000000  0.00000000  1
  Eu  Eu3  1  0.32181100  0.32181100  0.00000000  1
  Eu  Eu4  1  0.66666700  0.33333300  0.50000000  1
  Mg  Mg0  1  0.00000000  0.00000000  0.50000000  1
loop_
_geom_bond_atom_site_label_1
_geom_bond_atom_site_label_2
_geom_bond_distance
_geom_bond_site_symmetry_2
Eu0 Eu1 3.799963 1_555
Eu0 Eu1 3.799963 1_556
Eu0 Eu2 3.799965 1_566
Eu0 Eu2 3.799965 1_565
Eu0 Eu3 3.799967 1_555
Eu0 Eu3 3.799967 1_556
Eu0 Mg0 3.818278 1_565
Eu0 Eu4 3.818278 1_455
Eu0 Eu4 3.818278 1_565
Eu0 Mg0 3.818284 1_555
Eu0 Mg0 3.818284 1_665
Eu0 Eu4 3.818289 1_555
Eu1 Eu2 3.686295 1_465
Eu1 Eu3 3.686295 1_565
Eu1 Mg0 3.733064 1_565
Eu1 Mg0 3.733064 1_564
Eu1 Eu4 3.799965 1_455
Eu1 Eu4 3.799965 1_454
Eu1 Eu3 3.885956 1_555
Eu1 Eu2 3.885956 1_565
Eu1 Eu2 3.885956 1_455
Eu1 Eu3 3.885956 1_455
Eu2 Eu3 3.686295 1_655
Eu2 Mg0 3.733064 1_654
Eu2 Mg0 3.733064 1_655
Eu2 Eu4 3.799963 1_555
Eu2 Eu4 3.799963 1_554
Eu2 Eu3 3.885956 1_555
Eu2 Eu3 3.885956 1_545
Eu3 Mg0 3.733064 1_555
Eu3 Mg0 3.733064 1_554
Eu3 Eu4 3.799967 1_555
Eu3 Eu4 3.799967 1_554
Eu4 Mg0 3.818278 1_655
Eu4 Mg0 3.818284 1_665
Eu4 Mg0 3.818284 1_555
