# generated using pymatgen
data_Sr3Sn2S7
_symmetry_space_group_name_H-M   'P 1'
_cell_length_a   4.01033698
_cell_length_b   11.53228942
_cell_length_c   12.85916753
_cell_angle_alpha   90.00000000
_cell_angle_beta   90.00000000
_cell_angle_gamma   90.00000000
_symmetry_Int_Tables_number   1
_chemical_formula_structural   Sr3Sn2S7
_chemical_formula_sum   'Sr6 Sn4 S14'
_cell_volume   594.71549571
_cell_formula_units_Z   2
loop_
 _symmetry_equiv_pos_site_id
 _symmetry_equiv_pos_as_xyz
  1  'x, y, z'
loop_
 _atom_site_type_symbol
 _atom_site_label
 _atom_site_symmetry_multiplicity
 _atom_site_fract_x
 _atom_site_fract_y
 _atom_site_fract_z
 _atom_site_occupancy
  Sr  Sr0  1  0.50000000  0.11522757  0.15103586  1
  Sr  Sr1  1  0.50000000  0.88477243  0.84896414  1
  Sr  Sr2  1  0.50000000  0.38477243  0.65103586  1
  Sr  Sr3  1  0.50000000  0.61522757  0.34896414  1
  Sr  Sr4  1  0.50000000  -0.00000000  0.50000000  1
  Sr  Sr5  1  0.50000000  0.50000000  0.00000000  1
  Sn  Sn0  1  -0.00000000  0.28278242  0.39601615  1
  Sn  Sn1  1  -0.00000000  0.71721758  0.60398385  1
  Sn  Sn2  1  0.00000000  0.21721758  0.89601615  1
  Sn  Sn3  1  -0.00000000  0.78278242  0.10398385  1
  S  S0  1  0.50000000  0.35140306  0.29941903  1
  S  S1  1  0.50000000  0.64859694  0.70058097  1
  S  S2  1  0.50000000  0.14859694  0.79941903  1
  S  S3  1  0.50000000  0.85140306  0.20058097  1
  S  S4  1  -0.00000000  0.08405005  0.32417745  1
  S  S5  1  -0.00000000  0.91594995  0.67582255  1
  S  S6  1  0.00000000  0.41594995  0.82417745  1
  S  S7  1  -0.00000000  0.58405005  0.17582255  1
  S  S8  1  0.00000000  0.29605606  0.06861933  1
  S  S9  1  0.00000000  0.70394394  0.93138067  1
  S  S10  1  0.00000000  0.20394394  0.56861933  1
  S  S11  1  -0.00000000  0.79605606  0.43138067  1
  S  S12  1  0.00000000  -0.00000000  0.00000000  1
  S  S13  1  0.00000000  0.50000000  0.50000000  1
loop_
_geom_bond_atom_site_label_1
_geom_bond_atom_site_label_2
_geom_bond_distance
_geom_bond_site_symmetry_2
S0 Sn0 2.487951 1_655
S0 Sn0 2.487951 1_555
S0 Sr3 3.108491 1_555
S0 Sr0 3.325511 1_555
S1 Sn1 2.487951 1_655
S1 Sn1 2.487951 1_555
S1 Sr2 3.108491 1_555
S1 Sr1 3.325511 1_555
S2 Sn2 2.487951 1_655
S2 Sn2 2.487951 1_555
S2 Sr1 3.108491 1_545
S2 Sr2 3.325511 1_555
S3 Sn3 2.487951 1_655
S3 Sn3 2.487951 1_555
S3 Sr0 3.108491 1_565
S3 Sr3 3.325511 1_555
S4 Sn0 2.471013 1_555
S4 Sr0 3.017795 1_455
S4 Sr0 3.017795 1_555
S4 Sr4 3.173647 1_555
S4 Sr4 3.173647 1_455
S5 Sn1 2.471013 1_555
S5 Sr1 3.017795 1_455
S5 Sr1 3.017795 1_555
S5 Sr4 3.173647 1_465
S5 Sr4 3.173647 1_565
S6 Sn2 2.471013 1_555
S6 Sr2 3.017795 1_555
S6 Sr2 3.017795 1_455
S6 Sr5 3.173647 1_456
S6 Sr5 3.173647 1_556
S7 Sn3 2.471013 1_555
S7 Sr3 3.017795 1_455
S7 Sr3 3.017795 1_555
S7 Sr5 3.173647 1_455
S7 Sr5 3.173647 1_555
S8 Sn2 2.398531 1_554
S8 Sr0 3.081014 1_555
S8 Sr0 3.081014 1_455
S8 Sr5 3.214177 1_455
S8 Sr5 3.214177 1_555
S9 Sn3 2.398531 1_556
S9 Sr1 3.081014 1_455
S9 Sr1 3.081014 1_555
S9 Sr5 3.214177 1_556
S9 Sr5 3.214177 1_456
S10 Sn0 2.398531 1_555
S10 Sr2 3.081014 1_455
S10 Sr2 3.081014 1_555
S10 Sr4 3.214177 1_455
S10 Sr4 3.214177 1_555
S11 Sn1 2.398531 1_555
S11 Sr3 3.081014 1_455
S11 Sr3 3.081014 1_555
S11 Sr4 3.214177 1_465
S11 Sr4 3.214177 1_565
S12 Sn2 2.839553 1_554
S12 Sn3 2.839553 1_545
S12 Sr1 3.091704 1_444
S12 Sr1 3.091704 1_544
S12 Sr0 3.091704 1_555
S12 Sr0 3.091704 1_455
S13 Sn1 2.839553 1_555
S13 Sn0 2.839553 1_555
S13 Sr3 3.091704 1_455
S13 Sr3 3.091704 1_555
S13 Sr2 3.091704 1_455
S13 Sr2 3.091704 1_555
