# generated using pymatgen
data_RbZn2HSe2O7
_symmetry_space_group_name_H-M   'P 1'
_cell_length_a   5.02863412
_cell_length_b   7.58798356
_cell_length_c   12.11404228
_cell_angle_alpha   82.15818588
_cell_angle_beta   78.00678282
_cell_angle_gamma   70.81266455
_symmetry_Int_Tables_number   1
_chemical_formula_structural   RbZn2HSe2O7
_chemical_formula_sum   'Rb2 Zn4 H2 Se4 O14'
_cell_volume   425.86762942
_cell_formula_units_Z   2
loop_
 _symmetry_equiv_pos_site_id
 _symmetry_equiv_pos_as_xyz
  1  'x, y, z'
loop_
 _atom_site_type_symbol
 _atom_site_label
 _atom_site_symmetry_multiplicity
 _atom_site_fract_x
 _atom_site_fract_y
 _atom_site_fract_z
 _atom_site_occupancy
  Rb  Rb0  1  0.32516100  0.62208600  0.70885800  1
  Rb  Rb1  1  0.67483900  0.37791400  0.29114100  1
  Zn  Zn0  1  0.65495800  0.70263800  0.92454800  1
  Zn  Zn1  1  0.34504200  0.29736200  0.07545200  1
  Zn  Zn2  1  0.65678800  0.99051400  0.64283800  1
  Zn  Zn3  1  0.34321200  0.00948600  0.35716200  1
  H  H0  1  0.42125200  0.98061700  0.15535600  1
  H  H1  1  0.57874800  0.01938300  0.84464400  1
  Se  Se0  1  0.95081500  0.25921300  0.90640700  1
  Se  Se1  1  0.04918500  0.74078700  0.09359300  1
  Se  Se2  1  0.94352700  0.74339900  0.42618200  1
  Se  Se3  1  0.05647300  0.25660100  0.57381800  1
  O  O0  1  0.24340800  0.70336300  0.95965400  1
  O  O1  1  0.75659200  0.29663700  0.04034600  1
  O  O2  1  0.84989300  0.47984600  0.83605100  1
  O  O3  1  0.15010700  0.52015400  0.16394900  1
  O  O4  1  0.70946300  0.76279100  0.07048000  1
  O  O5  1  0.29053700  0.23720900  0.92952000  1
  O  O6  1  0.75116800  0.96179100  0.37717300  1
  O  O7  1  0.24883200  0.03820900  0.62282700  1
  O  O8  1  0.71308500  0.23904100  0.60200300  1
  O  O9  1  0.28691500  0.76095900  0.39799700  1
  O  O10  1  0.85199900  0.74993400  0.57209400  1
  O  O11  1  0.14800100  0.25006600  0.42790600  1
  O  O12  1  0.66848400  0.90547500  0.80384600  1
  O  O13  1  0.33151600  0.09452500  0.19615400  1
loop_
_geom_bond_atom_site_label_1
_geom_bond_atom_site_label_2
_geom_bond_distance
_geom_bond_site_symmetry_2
H0 O13 0.981054 1_565
H1 O12 0.981054 1_545
O0 Se1 1.718144 1_556
O0 Zn0 2.022683 1_555
O0 Rb0 3.099242 1_555
O1 Se0 1.718144 1_554
O1 Zn1 2.022683 1_555
O1 Rb1 3.099230 1_555
O2 Se0 1.737438 1_555
O2 Zn0 1.984104 1_555
O2 Rb0 2.993701 1_655
O2 Rb0 3.140952 1_555
O3 Se1 1.737438 1_555
O3 Zn1 1.984104 1_555
O3 Rb1 2.993697 1_455
O3 Rb1 3.140945 1_555
O4 Se1 1.738744 1_655
O4 Zn0 1.977994 1_554
O5 Se0 1.738744 1_455
O5 Zn1 1.977994 1_556
O6 Se2 1.717805 1_555
O6 Zn3 2.023105 1_565
O6 Rb1 3.110491 1_565
O7 Se3 1.717805 1_555
O7 Zn2 2.023105 1_545
O7 Rb0 3.110488 1_545
O8 Se3 1.734899 1_655
O8 Zn2 1.979728 1_545
O8 Rb0 3.190494 1_555
O9 Se2 1.734899 1_455
O9 Zn3 1.979728 1_565
O9 Rb1 3.190499 1_555
O10 Se2 1.734781 1_555
O10 Zn2 1.982409 1_555
O10 Rb0 3.004960 1_655
O10 Rb0 3.182969 1_555
O11 Se3 1.734781 1_555
O11 Zn3 1.982409 1_555
O11 Rb1 3.004968 1_455
O11 Rb1 3.182973 1_555
O12 Zn2 1.975706 1_555
O12 Zn0 1.981136 1_555
O12 Rb0 3.358731 1_655
O13 Zn3 1.975706 1_555
O13 Zn1 1.981136 1_555
O13 Rb1 3.358728 1_455
