# generated using pymatgen
data_BaMg6Nb
_symmetry_space_group_name_H-M   'P 1'
_cell_length_a   5.27744600
_cell_length_b   6.71977000
_cell_length_c   11.51872300
_cell_angle_alpha   90.00000000
_cell_angle_beta   90.00000000
_cell_angle_gamma   90.00000000
_symmetry_Int_Tables_number   1
_chemical_formula_structural   BaMg6Nb
_chemical_formula_sum   'Ba2 Mg12 Nb2'
_cell_volume   408.49104597
_cell_formula_units_Z   2
loop_
 _symmetry_equiv_pos_site_id
 _symmetry_equiv_pos_as_xyz
  1  'x, y, z'
loop_
 _atom_site_type_symbol
 _atom_site_label
 _atom_site_symmetry_multiplicity
 _atom_site_fract_x
 _atom_site_fract_y
 _atom_site_fract_z
 _atom_site_occupancy
  Ba  Ba0  1  0.00000000  0.50000000  0.34041400  1
  Ba  Ba1  1  0.00000000  0.00000000  0.84041400  1
  Mg  Mg0  1  0.00000000  0.27568200  0.08840500  1
  Mg  Mg1  1  0.00000000  0.72431800  0.08840500  1
  Mg  Mg2  1  0.00000000  0.50000000  0.83000500  1
  Mg  Mg3  1  0.50000000  0.27262800  0.92207600  1
  Mg  Mg4  1  0.50000000  0.72737200  0.92207600  1
  Mg  Mg5  1  0.50000000  0.50000000  0.66099600  1
  Mg  Mg6  1  0.00000000  0.77568200  0.58840500  1
  Mg  Mg7  1  0.00000000  0.22431800  0.58840500  1
  Mg  Mg8  1  0.00000000  0.00000000  0.33000500  1
  Mg  Mg9  1  0.50000000  0.77262800  0.42207600  1
  Mg  Mg10  1  0.50000000  0.22737200  0.42207600  1
  Mg  Mg11  1  0.50000000  0.00000000  0.16099600  1
  Nb  Nb0  1  0.50000000  0.50000000  0.14762300  1
  Nb  Nb1  1  0.50000000  0.00000000  0.64762300  1
loop_
_geom_bond_atom_site_label_1
_geom_bond_atom_site_label_2
_geom_bond_distance
_geom_bond_site_symmetry_2
Ba0 Mg0 3.270860 1_555
Ba0 Mg1 3.270860 1_555
Ba0 Mg10 3.347220 1_555
Ba0 Mg10 3.347220 1_455
Ba0 Mg9 3.347220 1_455
Ba0 Mg9 3.347220 1_555
Ba0 Mg8 3.362024 1_565
Ba0 Mg8 3.362024 1_555
Ba0 Mg6 3.404651 1_555
Ba0 Mg7 3.404651 1_555
Ba0 Nb0 3.448825 1_555
Ba0 Nb0 3.448825 1_455
Ba1 Mg6 3.270860 1_545
Ba1 Mg7 3.270860 1_555
Ba1 Mg3 3.347220 1_555
Ba1 Mg4 3.347220 1_545
Ba1 Mg3 3.347220 1_455
Ba1 Mg4 3.347220 1_445
Ba1 Mg2 3.362024 1_545
Ba1 Mg2 3.362024 1_555
Ba1 Mg0 3.404651 1_556
Ba1 Mg1 3.404651 1_546
Ba1 Nb1 3.448825 1_555
Ba1 Nb1 3.448825 1_455
Mg0 Mg1 3.014731 1_555
Mg0 Nb0 3.114529 1_555
Mg0 Nb0 3.114529 1_455
Mg0 Mg3 3.260973 1_454
Mg0 Mg3 3.260973 1_554
Mg0 Mg11 3.330742 1_455
Mg0 Mg11 3.330742 1_555
Mg0 Mg2 3.336365 1_554
Mg0 Mg8 3.343126 1_555
Mg1 Nb0 3.114529 1_555
Mg1 Nb0 3.114529 1_455
Mg1 Mg4 3.260973 1_554
Mg1 Mg4 3.260973 1_454
Mg1 Mg11 3.330742 1_465
Mg1 Mg11 3.330742 1_565
Mg1 Mg2 3.336365 1_554
Mg1 Mg8 3.343126 1_565
Mg2 Mg4 3.228319 1_455
Mg2 Mg3 3.228319 1_555
Mg2 Mg4 3.228319 1_555
Mg2 Mg3 3.228319 1_455
Mg2 Mg5 3.279141 1_455
Mg2 Mg5 3.279141 1_555
Mg2 Mg7 3.343126 1_555
Mg2 Mg6 3.343126 1_555
Mg3 Nb0 3.013986 1_556
Mg3 Mg4 3.055775 1_555
Mg3 Mg5 3.373180 1_555
Mg3 Nb1 3.653811 1_555
Mg4 Nb0 3.013986 1_556
Mg4 Mg5 3.373180 1_555
Mg4 Nb1 3.653811 1_565
Mg5 Mg9 3.306057 1_555
Mg5 Mg7 3.330742 1_555
Mg5 Mg6 3.330742 1_655
Mg5 Mg7 3.330742 1_655
Mg5 Mg6 3.330742 1_555
Mg5 Nb1 3.363414 1_555
Mg5 Nb1 3.363414 1_565
Mg6 Mg7 3.014731 1_565
Mg6 Nb1 3.114529 1_565
Mg6 Nb1 3.114529 1_465
Mg6 Mg9 3.260973 1_555
Mg6 Mg9 3.260973 1_455
Mg6 Mg8 3.336365 1_565
Mg7 Nb1 3.114529 1_555
Mg7 Nb1 3.114529 1_455
Mg7 Mg8 3.336365 1_555
Mg8 Mg9 3.228319 1_445
Mg8 Mg9 3.228319 1_545
Mg9 Nb1 3.013986 1_565
Mg9 Nb0 3.653811 1_555
Mg10 Nb1 3.013986 1_555
Mg10 Mg9 3.055775 1_545
Mg10 Mg8 3.228319 1_555
Mg10 Mg8 3.228319 1_655
Mg10 Mg7 3.260973 1_555
Mg10 Mg7 3.260973 1_655
Mg10 Mg5 3.306057 1_555
Mg10 Mg11 3.373180 1_555
Mg10 Nb0 3.653811 1_555
Mg11 Mg8 3.279141 1_555
Mg11 Mg8 3.279141 1_655
Mg11 Mg4 3.306057 1_544
Mg11 Mg3 3.306057 1_554
Mg11 Nb0 3.363414 1_555
Mg11 Nb0 3.363414 1_545
Mg11 Mg9 3.373180 1_545
