# generated using pymatgen
data_MgSO9
_symmetry_space_group_name_H-M   'P 1'
_cell_length_a   4.83016100
_cell_length_b   6.14811600
_cell_length_c   6.67170393
_cell_angle_alpha   114.58098346
_cell_angle_beta   106.45769942
_cell_angle_gamma   94.26228314
_symmetry_Int_Tables_number   1
_chemical_formula_structural   MgSO9
_chemical_formula_sum   'Mg1 S1 O9'
_cell_volume   168.54146511
_cell_formula_units_Z   1
loop_
 _symmetry_equiv_pos_site_id
 _symmetry_equiv_pos_as_xyz
  1  'x, y, z'
loop_
 _atom_site_type_symbol
 _atom_site_label
 _atom_site_symmetry_multiplicity
 _atom_site_fract_x
 _atom_site_fract_y
 _atom_site_fract_z
 _atom_site_occupancy
  Mg  Mg0  1  0.97903100  0.68227600  0.13141700  1
  S  S0  1  0.60638500  0.11339800  0.81204000  1
  O  O0  1  0.53306000  0.40946800  0.36399200  1
  O  O1  1  0.24119600  0.80482300  0.45513300  1
  O  O2  1  0.50320700  0.99593200  0.52755000  1
  O  O3  1  0.40454900  0.65751800  0.01234300  1
  O  O4  1  0.84168700  0.33130900  0.88673400  1
  O  O5  1  0.29411100  0.63193100  0.80523500  1
  O  O6  1  0.89535800  0.96782100  0.08168800  1
  O  O7  1  0.79462800  0.89930000  0.83386500  1
  O  O8  1  0.76844800  0.50622500  0.36668300  1
loop_
_geom_bond_atom_site_label_1
_geom_bond_atom_site_label_2
_geom_bond_distance
_geom_bond_site_symmetry_2
Mg0 O1 1.946902 1_655
Mg0 O6 1.967102 1_555
Mg0 O4 2.001018 1_554
Mg0 O3 2.397852 1_655
Mg0 O8 2.612333 1_555
Mg0 O3 2.634689 1_555
O0 O8 1.235270 1_555
O1 O2 1.475067 1_555
O2 S0 1.625604 1_565
O3 O5 1.267917 1_554
O4 S0 1.494081 1_555
O6 O7 1.442970 1_554
O7 S0 1.686095 1_565
