# generated using pymatgen
data_Mg3Cu2(Si2O7)2
_symmetry_space_group_name_H-M   'P 1'
_cell_length_a   9.41061632
_cell_length_b   9.41061632
_cell_length_c   9.95144157
_cell_angle_alpha   58.14275325
_cell_angle_beta   58.14275325
_cell_angle_gamma   47.86914716
_symmetry_Int_Tables_number   1
_chemical_formula_structural   Mg3Cu2(Si2O7)2
_chemical_formula_sum   'Mg6 Cu4 Si8 O28'
_cell_volume   533.59678419
_cell_formula_units_Z   2
loop_
 _symmetry_equiv_pos_site_id
 _symmetry_equiv_pos_as_xyz
  1  'x, y, z'
loop_
 _atom_site_type_symbol
 _atom_site_label
 _atom_site_symmetry_multiplicity
 _atom_site_fract_x
 _atom_site_fract_y
 _atom_site_fract_z
 _atom_site_occupancy
  Mg  Mg0  1  0.25975900  0.07040600  0.54828500  1
  Mg  Mg1  1  0.92959400  0.74024100  0.95171500  1
  Mg  Mg2  1  0.07040600  0.25975900  0.04828500  1
  Mg  Mg3  1  0.60849200  0.39150800  0.25000000  1
  Mg  Mg4  1  0.74024100  0.92959400  0.45171500  1
  Mg  Mg5  1  0.39150800  0.60849200  0.75000000  1
  Cu  Cu0  1  0.21998200  0.78001800  0.25000000  1
  Cu  Cu1  1  0.78001800  0.21998200  0.75000000  1
  Cu  Cu2  1  0.00000000  0.00000000  0.00000000  1
  Cu  Cu3  1  0.00000000  0.00000000  0.50000000  1
  Si  Si0  1  0.07193900  0.55825100  0.67059300  1
  Si  Si1  1  0.55825100  0.07193900  0.17059300  1
  Si  Si2  1  0.25287100  0.51203200  0.12957000  1
  Si  Si3  1  0.51203200  0.25287100  0.62957000  1
  Si  Si4  1  0.44174900  0.92806100  0.82940700  1
  Si  Si5  1  0.74712900  0.48796800  0.87043000  1
  Si  Si6  1  0.48796800  0.74712900  0.37043000  1
  Si  Si7  1  0.92806100  0.44174900  0.32940700  1
  O  O0  1  0.32708500  0.81842700  0.53836200  1
  O  O1  1  0.88653800  0.98505800  0.72152200  1
  O  O2  1  0.63551800  0.45239100  0.81976200  1
  O  O3  1  0.98505800  0.88653800  0.22152200  1
  O  O4  1  0.02245500  0.21420600  0.45535100  1
  O  O5  1  0.50551600  0.07177700  0.79664900  1
  O  O6  1  0.45239100  0.63551800  0.31976200  1
  O  O7  1  0.78579400  0.97754500  0.04464900  1
  O  O8  1  0.49448400  0.92822300  0.20335100  1
  O  O9  1  0.70143900  0.60160300  0.41666200  1
  O  O10  1  0.11346200  0.01494200  0.27847800  1
  O  O11  1  0.97754500  0.78579400  0.54464900  1
  O  O12  1  0.92822300  0.49448400  0.70335100  1
  O  O13  1  0.81842700  0.32708500  0.03836200  1
  O  O14  1  0.60160300  0.70143900  0.91666200  1
  O  O15  1  0.21420600  0.02245500  0.95535100  1
  O  O16  1  0.46777100  0.92471400  0.65746400  1
  O  O17  1  0.29856100  0.39839700  0.58333800  1
  O  O18  1  0.07528600  0.53222900  0.84253600  1
  O  O19  1  0.39839700  0.29856100  0.08333800  1
  O  O20  1  0.07177700  0.50551600  0.29664900  1
  O  O21  1  0.01494200  0.11346200  0.77847800  1
  O  O22  1  0.92471400  0.46777100  0.15746400  1
  O  O23  1  0.36448200  0.54760900  0.18023800  1
  O  O24  1  0.53222900  0.07528600  0.34253600  1
  O  O25  1  0.54760900  0.36448200  0.68023800  1
  O  O26  1  0.18157300  0.67291500  0.96163800  1
  O  O27  1  0.67291500  0.18157300  0.46163800  1
loop_
_geom_bond_atom_site_label_1
_geom_bond_atom_site_label_2
_geom_bond_distance
_geom_bond_site_symmetry_2
Mg0 O16 1.990966 1_545
Mg0 O0 2.049288 1_545
Mg0 O4 2.116169 1_555
Mg0 O21 2.208131 1_555
Mg0 O24 2.299084 1_555
Mg1 O18 1.990966 1_655
Mg1 O26 2.049288 1_655
Mg1 O7 2.116169 1_556
Mg1 O1 2.208131 1_555
Mg1 O22 2.299084 1_556
Mg2 O22 1.990966 1_455
Mg2 O13 2.049288 1_455
Mg2 O15 2.116169 1_554
Mg2 O10 2.208131 1_555
Mg2 O18 2.299084 1_554
Mg3 O23 1.998346 1_555
Mg3 O6 1.998346 1_555
Mg3 O27 2.013691 1_555
Mg3 O13 2.013691 1_555
Mg4 O24 1.990966 1_565
Mg4 O27 2.049288 1_565
Mg4 O11 2.116169 1_555
Mg4 O3 2.208131 1_555
Mg4 O16 2.299084 1_555
Mg5 O25 1.998346 1_555
Mg5 O2 1.998346 1_555
Mg5 O26 2.013691 1_555
Mg5 O0 2.013691 1_555
Cu0 O10 1.833282 1_565
Cu0 O3 1.833282 1_455
Cu0 O23 1.931478 1_555
Cu0 O6 1.931478 1_555
Cu1 O21 1.833282 1_655
Cu1 O1 1.833282 1_545
Cu1 O25 1.931478 1_555
Cu1 O2 1.931478 1_555
Cu2 O3 1.846356 1_445
Cu2 O21 1.846356 1_554
Cu2 O15 1.957673 1_554
Cu2 O7 1.957673 1_445
Cu2 O13 2.456689 1_455
Cu2 O26 2.456689 1_544
Cu3 O1 1.846356 1_445
Cu3 O10 1.846356 1_555
Cu3 O4 1.957673 1_555
Cu3 O11 1.957673 1_445
Cu3 O0 2.456689 1_545
Cu3 O27 2.456689 1_455
O0 Si6 1.638621 1_555
O2 Si5 1.636631 1_555
O4 Si7 1.653897 1_455
O5 Si4 1.646961 1_545
O5 Si3 1.647434 1_555
O6 Si6 1.636631 1_555
O7 Si1 1.653897 1_565
O8 Si1 1.646961 1_565
O8 Si6 1.647434 1_555
O9 Si7 1.638582 1_555
O9 Si6 1.655977 1_555
O11 Si0 1.653897 1_655
O12 Si0 1.646961 1_655
O12 Si5 1.647434 1_555
O13 Si5 1.638621 1_554
O14 Si4 1.638582 1_555
O14 Si5 1.655977 1_555
O15 Si4 1.653897 1_545
O16 Si4 1.610275 1_555
O17 Si0 1.638582 1_555
O17 Si3 1.655977 1_555
O18 Si0 1.610275 1_555
O19 Si1 1.638582 1_555
O19 Si2 1.655977 1_555
O20 Si7 1.646961 1_455
O20 Si2 1.647434 1_555
O22 Si7 1.610275 1_555
O23 Si2 1.636631 1_555
O24 Si1 1.610275 1_555
O25 Si3 1.636631 1_555
O26 Si2 1.638621 1_556
O27 Si3 1.638621 1_555
