# generated using pymatgen
data_CaP4(Br3O)4
_symmetry_space_group_name_H-M   'P 1'
_cell_length_a   6.72884488
_cell_length_b   11.11501186
_cell_length_c   10.95613348
_cell_angle_alpha   91.34712127
_cell_angle_beta   94.94504102
_cell_angle_gamma   100.32376929
_symmetry_Int_Tables_number   1
_chemical_formula_structural   CaP4(Br3O)4
_chemical_formula_sum   'Ca1 P4 Br12 O4'
_cell_volume   802.52115714
_cell_formula_units_Z   1
loop_
 _symmetry_equiv_pos_site_id
 _symmetry_equiv_pos_as_xyz
  1  'x, y, z'
loop_
 _atom_site_type_symbol
 _atom_site_label
 _atom_site_symmetry_multiplicity
 _atom_site_fract_x
 _atom_site_fract_y
 _atom_site_fract_z
 _atom_site_occupancy
  Ca  Ca0  1  0.13387900  0.05047000  0.03929100  1
  P  P0  1  0.33170200  0.33878100  0.20780200  1
  P  P1  1  0.60624900  0.68639800  0.74309300  1
  P  P2  1  0.91054800  0.18852900  0.75000700  1
  P  P3  1  0.11490000  0.79236600  0.26391500  1
  Br  Br0  1  0.79397400  0.65435300  0.59483300  1
  Br  Br1  1  0.91248600  0.95541900  0.24695700  1
  Br  Br2  1  0.30065800  0.82622400  0.45056300  1
  Br  Br3  1  0.76706700  0.14060100  0.96615100  1
  Br  Br4  1  0.19835700  0.33119100  0.38264900  1
  Br  Br5  1  0.80346900  0.67240300  0.91279900  1
  Br  Br6  1  0.36584900  0.52342600  0.73837400  1
  Br  Br7  1  0.73410000  0.12550200  0.56249400  1
  Br  Br8  1  0.16950100  0.06158900  0.77349900  1
  Br  Br9  1  0.16769900  0.44902300  0.08880700  1
  Br  Br10  1  0.32202300  0.84135400  0.07000800  1
  Br  Br11  1  0.63689400  0.44375600  0.24260200  1
  O  O0  1  0.53217800  0.80333200  0.73704600  1
  O  O1  1  0.00934900  0.31907900  0.75128500  1
  O  O2  1  0.32248700  0.21355100  0.15153400  1
  O  O3  1  0.98121300  0.67015200  0.25143600  1
loop_
_geom_bond_atom_site_label_1
_geom_bond_atom_site_label_2
_geom_bond_distance
_geom_bond_site_symmetry_2
Ca0 O2 2.282590 1_555
Br0 P1 2.201998 1_555
Br1 P3 2.455830 1_655
Br1 Ca0 2.940289 1_665
Br2 P3 2.289171 1_555
Br3 P2 2.663259 1_555
Br3 Ca0 2.884595 1_656
Br4 P0 2.181441 1_555
Br5 P1 2.214627 1_555
Br6 P1 2.198086 1_555
Br7 P2 2.309708 1_555
Br8 P2 2.431888 1_455
Br8 Ca0 2.946085 1_556
Br9 P0 2.175023 1_555
Br10 P3 2.654262 1_555
Br10 Ca0 2.852455 1_565
Br11 P0 2.170091 1_555
O0 P1 1.473982 1_555
O1 P2 1.483051 1_455
O2 P0 1.497831 1_555
O3 P3 1.485012 1_655
