# generated using pymatgen
data_Ca(TmS2)2
_symmetry_space_group_name_H-M   'P 1'
_cell_length_a   6.66068287
_cell_length_b   6.66068316
_cell_length_c   13.18539600
_cell_angle_alpha   90.00000000
_cell_angle_beta   90.00000000
_cell_angle_gamma   146.35136107
_symmetry_Int_Tables_number   1
_chemical_formula_structural   Ca(TmS2)2
_chemical_formula_sum   'Ca2 Tm4 S8'
_cell_volume   324.12880205
_cell_formula_units_Z   2
loop_
 _symmetry_equiv_pos_site_id
 _symmetry_equiv_pos_as_xyz
  1  'x, y, z'
loop_
 _atom_site_type_symbol
 _atom_site_label
 _atom_site_symmetry_multiplicity
 _atom_site_fract_x
 _atom_site_fract_y
 _atom_site_fract_z
 _atom_site_occupancy
  Ca  Ca0  1  0.88615300  0.11384700  0.01525900  1
  Ca  Ca1  1  0.11384700  0.88615300  0.51525900  1
  Tm  Tm0  1  0.35777900  0.64222100  0.32450600  1
  Tm  Tm1  1  0.64222100  0.35777900  0.82450600  1
  Tm  Tm2  1  0.62592600  0.37407400  0.18118100  1
  Tm  Tm3  1  0.37407400  0.62592600  0.68118100  1
  S  S0  1  0.54095000  0.45905000  0.99859600  1
  S  S1  1  0.45905000  0.54095000  0.49859600  1
  S  S2  1  0.73641200  0.26358800  0.63754300  1
  S  S3  1  0.26358800  0.73641200  0.13754300  1
  S  S4  1  0.72007400  0.27992600  0.37029100  1
  S  S5  1  0.27992600  0.72007400  0.87029100  1
  S  S6  1  0.98603900  0.01396100  0.23992400  1
  S  S7  1  0.01396100  0.98603900  0.73992400  1
loop_
_geom_bond_atom_site_label_1
_geom_bond_atom_site_label_2
_geom_bond_distance
_geom_bond_site_symmetry_2
Ca0 S0 2.767843 1_654
Ca0 S0 2.767843 1_544
Ca0 S3 2.959532 1_545
Ca0 S3 2.959532 1_655
Ca0 S5 3.033979 1_544
Ca0 S5 3.033979 1_654
Ca0 S6 3.224503 1_555
Ca1 S1 2.767843 1_455
Ca1 S1 2.767843 1_565
Ca1 S2 2.959532 1_565
Ca1 S2 2.959532 1_455
Ca1 S4 3.033979 1_565
Ca1 S4 3.033979 1_455
Ca1 S7 3.224503 1_555
S0 Tm1 2.633740 1_555
S0 Tm2 2.640058 1_556
S1 Tm0 2.633740 1_555
S1 Tm3 2.640058 1_555
S2 Tm3 2.670010 1_655
S2 Tm3 2.670010 1_545
S2 Tm1 2.742194 1_555
S3 Tm2 2.670010 1_455
S3 Tm2 2.670010 1_565
S3 Tm0 2.742194 1_555
S4 Tm0 2.676613 1_655
S4 Tm0 2.676613 1_545
S4 Tm2 2.767433 1_555
S5 Tm1 2.676613 1_455
S5 Tm1 2.676613 1_565
S5 Tm3 2.767433 1_555
S6 Tm2 2.738288 1_655
S6 Tm2 2.738288 1_545
S6 Tm0 2.763177 1_545
S6 Tm0 2.763177 1_655
S7 Tm3 2.738288 1_455
S7 Tm3 2.738288 1_565
S7 Tm1 2.763177 1_565
S7 Tm1 2.763177 1_455
