# generated using pymatgen
data_Ti(FeO2)3
_symmetry_space_group_name_H-M   'P 1'
_cell_length_a   6.04008800
_cell_length_b   6.06406711
_cell_length_c   14.77307284
_cell_angle_alpha   89.12125943
_cell_angle_beta   89.19563369
_cell_angle_gamma   60.22221440
_symmetry_Int_Tables_number   1
_chemical_formula_structural   Ti(FeO2)3
_chemical_formula_sum   'Ti4 Fe12 O24'
_cell_volume   469.58463809
_cell_formula_units_Z   4
loop_
 _symmetry_equiv_pos_site_id
 _symmetry_equiv_pos_as_xyz
  1  'x, y, z'
loop_
 _atom_site_type_symbol
 _atom_site_label
 _atom_site_symmetry_multiplicity
 _atom_site_fract_x
 _atom_site_fract_y
 _atom_site_fract_z
 _atom_site_occupancy
  Ti  Ti0  1  0.51690800  0.01485600  0.98535000  1
  Ti  Ti1  1  0.15017700  0.16239500  0.82540700  1
  Ti  Ti2  1  0.50789700  0.50404300  0.50554100  1
  Ti  Ti3  1  0.00597200  0.99573900  0.50551400  1
  Fe  Fe0  1  0.83146500  0.32217700  0.29748700  1
  Fe  Fe1  1  0.17282100  0.65963800  0.95331500  1
  Fe  Fe2  1  0.48934200  0.99309100  0.62799800  1
  Fe  Fe3  1  0.83559200  0.34325100  0.03860900  1
  Fe  Fe4  1  0.17719100  0.65844300  0.71079200  1
  Fe  Fe5  1  0.50205300  0.01147900  0.37747800  1
  Fe  Fe6  1  0.82610700  0.33843100  0.66821600  1
  Fe  Fe7  1  0.15409300  0.65590800  0.33914300  1
  Fe  Fe8  1  0.33356600  0.83062700  0.16544800  1
  Fe  Fe9  1  0.83160600  0.83282800  0.16729700  1
  Fe  Fe10  1  0.66050700  0.66232000  0.82997400  1
  Fe  Fe11  1  0.33195000  0.33381000  0.16613000  1
  O  O0  1  0.18065500  0.65773100  0.09563700  1
  O  O1  1  0.48039900  0.99874300  0.75405700  1
  O  O2  1  0.82152700  0.31906100  0.42550600  1
  O  O3  1  0.01261700  0.49626100  0.25377400  1
  O  O4  1  0.34307000  0.86304800  0.91398300  1
  O  O5  1  0.66785200  0.16782100  0.57287800  1
  O  O6  1  0.47951400  0.50825200  0.24852900  1
  O  O7  1  0.80122300  0.83085800  0.91844400  1
  O  O8  1  0.15020100  0.14170200  0.57880700  1
  O  O9  1  0.01947600  0.97749200  0.25196000  1
  O  O10  1  0.33357900  0.30088300  0.91939800  1
  O  O11  1  0.64082100  0.66385600  0.57516200  1
  O  O12  1  0.48802500  0.00859400  0.24505000  1
  O  O13  1  0.85719600  0.34115600  0.91297400  1
  O  O14  1  0.18223300  0.67800500  0.56698900  1
  O  O15  1  0.64925000  0.16627900  0.08025900  1
  O  O16  1  0.99584700  0.48631900  0.75967000  1
  O  O17  1  0.32335000  0.82371300  0.42100500  1
  O  O18  1  0.18836600  0.15732300  0.08788500  1
  O  O19  1  0.52630600  0.51306000  0.75020700  1
  O  O20  1  0.84844300  0.85549800  0.41486100  1
  O  O21  1  0.64552200  0.68923400  0.08313000  1
  O  O22  1  0.01673000  0.01619900  0.75771400  1
  O  O23  1  0.35388600  0.35321100  0.41508800  1
loop_
_geom_bond_atom_site_label_1
_geom_bond_atom_site_label_2
_geom_bond_distance
_geom_bond_site_symmetry_2
Fe0 O2 1.891446 1_555
Fe0 O9 1.942901 1_645
Fe0 O3 1.958369 1_655
Fe0 O6 1.987706 1_555
Fe1 O10 1.961714 1_555
Fe1 O7 2.020506 1_455
Fe1 O4 2.034134 1_555
Fe1 O0 2.103455 1_556
Fe2 O1 1.862651 1_555
Fe2 O11 1.909385 1_555
Fe2 O8 1.929881 1_565
Fe2 O5 2.007977 1_565
Fe3 O13 1.858563 1_554
Fe3 O21 1.944509 1_555
Fe3 O15 1.989257 1_555
Fe3 O18 1.993363 1_655
Fe4 O19 1.932623 1_555
Fe4 O16 1.975064 1_455
Fe4 O22 2.016224 1_565
Fe4 O14 2.126539 1_555
Fe5 O23 1.892947 1_555
Fe5 O20 1.904685 1_545
Fe5 O12 1.960112 1_555
Fe5 O17 2.013410 1_545
Fe6 O19 1.985119 1_555
Fe6 O22 2.149612 1_655
Fe6 O8 2.157771 1_655
Fe6 O16 2.161030 1_555
Fe6 O11 2.191550 1_555
Fe6 O5 2.243333 1_555
Fe7 O23 1.964435 1_555
Fe7 O20 1.971937 1_455
Fe7 O3 2.036518 1_555
Fe7 O9 2.121388 1_555
Fe7 O17 2.156136 1_555
Fe7 O6 2.161467 1_555
Fe8 O0 2.009392 1_555
Fe8 O21 2.031585 1_555
Fe8 O18 2.059055 1_565
Fe8 O9 2.077088 1_555
Fe8 O6 2.085719 1_555
Fe8 O12 2.118434 1_565
Fe9 O0 2.107438 1_655
Fe9 O12 2.129723 1_565
Fe9 O21 2.147592 1_555
Fe9 O9 2.164217 1_655
Fe9 O15 2.168656 1_565
Fe9 O3 2.176187 1_655
Fe10 O19 1.911338 1_555
Fe10 O16 2.036685 1_555
Fe10 O4 2.087940 1_555
Fe10 O1 2.088757 1_555
Fe10 O13 2.092208 1_555
Fe10 O7 2.100020 1_555
Fe11 O0 1.989728 1_555
Fe11 O18 2.054676 1_555
Fe11 O12 2.061794 1_555
Fe11 O15 2.086088 1_555
Fe11 O6 2.098014 1_555
Fe11 O3 2.109229 1_555
O1 Ti1 2.020189 1_565
O2 Ti2 2.027799 1_555
O2 Ti3 2.068479 1_645
O4 Ti0 2.020512 1_565
O4 Ti1 2.057695 1_565
O5 Ti2 2.021927 1_555
O5 Ti3 2.026859 1_645
O7 Ti0 1.803865 1_565
O8 Ti3 1.880564 1_545
O10 Ti0 1.804060 1_555
O10 Ti1 2.205320 1_555
O11 Ti2 1.862321 1_555
O13 Ti1 2.013332 1_655
O14 Ti3 1.899107 1_555
O14 Ti2 1.929839 1_555
O15 Ti0 2.061076 1_554
O16 Ti1 1.954142 1_655
O17 Ti3 2.075610 1_555
O17 Ti2 2.092484 1_555
O18 Ti0 2.287284 1_554
O20 Ti3 2.072807 1_655
O21 Ti0 2.238192 1_564
O22 Ti1 1.787544 1_555
O23 Ti2 2.098826 1_555
