# generated using pymatgen
data_CoPH6NO5
_symmetry_space_group_name_H-M   'P 1'
_cell_length_a   4.83659600
_cell_length_b   5.65746200
_cell_length_c   17.82464400
_cell_angle_alpha   90.00000000
_cell_angle_beta   90.00000000
_cell_angle_gamma   90.00000000
_symmetry_Int_Tables_number   1
_chemical_formula_structural   CoPH6NO5
_chemical_formula_sum   'Co4 P4 H24 N4 O20'
_cell_volume   487.73320409
_cell_formula_units_Z   4
loop_
 _symmetry_equiv_pos_site_id
 _symmetry_equiv_pos_as_xyz
  1  'x, y, z'
loop_
 _atom_site_type_symbol
 _atom_site_label
 _atom_site_symmetry_multiplicity
 _atom_site_fract_x
 _atom_site_fract_y
 _atom_site_fract_z
 _atom_site_occupancy
  Co  Co0  1  0.88497300  0.75000000  0.23870200  1
  Co  Co1  1  0.61502700  0.75000000  0.73870200  1
  Co  Co2  1  0.11502700  0.25000000  0.76129800  1
  Co  Co3  1  0.38497300  0.25000000  0.26129800  1
  P  P0  1  0.32004800  0.75000000  0.34606700  1
  P  P1  1  0.17995200  0.75000000  0.84606700  1
  P  P2  1  0.67995200  0.25000000  0.65393300  1
  P  P3  1  0.82004800  0.25000000  0.15393300  1
  H  H0  1  0.30064800  0.61090800  0.15134200  1
  H  H1  1  0.19935200  0.88909200  0.65134200  1
  H  H2  1  0.69935200  0.11090800  0.84865800  1
  H  H3  1  0.80064800  0.38909200  0.34865800  1
  H  H4  1  0.69935200  0.38909200  0.84865800  1
  H  H5  1  0.80064800  0.11090800  0.34865800  1
  H  H6  1  0.30064800  0.88909200  0.15134200  1
  H  H7  1  0.19935200  0.61090800  0.65134200  1
  H  H8  1  0.57804700  0.75000000  0.48057700  1
  H  H9  1  0.92195300  0.75000000  0.98057700  1
  H  H10  1  0.42195300  0.25000000  0.51942300  1
  H  H11  1  0.07804700  0.25000000  0.01942300  1
  H  H12  1  0.93435900  0.75000000  0.47892400  1
  H  H13  1  0.56564100  0.75000000  0.97892400  1
  H  H14  1  0.06564100  0.25000000  0.52107600  1
  H  H15  1  0.43435900  0.25000000  0.02107600  1
  H  H16  1  0.75746900  0.59916000  0.54663300  1
  H  H17  1  0.74253100  0.90084000  0.04663300  1
  H  H18  1  0.24253100  0.09916000  0.45336700  1
  H  H19  1  0.25746900  0.40084000  0.95336700  1
  H  H20  1  0.24253100  0.40084000  0.45336700  1
  H  H21  1  0.25746900  0.09916000  0.95336700  1
  H  H22  1  0.75746900  0.90084000  0.54663300  1
  H  H23  1  0.74253100  0.59916000  0.04663300  1
  N  N0  1  0.75837600  0.75000000  0.51369800  1
  N  N1  1  0.74162400  0.75000000  0.01369800  1
  N  N2  1  0.24162400  0.25000000  0.48630200  1
  N  N3  1  0.25837600  0.25000000  0.98630200  1
  O  O0  1  0.18090700  0.75000000  0.14481900  1
  O  O1  1  0.31909300  0.75000000  0.64481900  1
  O  O2  1  0.81909300  0.25000000  0.85518100  1
  O  O3  1  0.68090700  0.25000000  0.35518100  1
  O  O4  1  0.63243800  0.75000000  0.33433700  1
  O  O5  1  0.86756200  0.75000000  0.83433700  1
  O  O6  1  0.36756200  0.25000000  0.66566300  1
  O  O7  1  0.13243800  0.25000000  0.16566300  1
  O  O8  1  0.17494900  0.53199300  0.30700900  1
  O  O9  1  0.32505100  0.96800700  0.80700900  1
  O  O10  1  0.82505100  0.03199300  0.69299100  1
  O  O11  1  0.67494900  0.46800700  0.19299100  1
  O  O12  1  0.82505100  0.46800700  0.69299100  1
  O  O13  1  0.67494900  0.03199300  0.19299100  1
  O  O14  1  0.17494900  0.96800700  0.30700900  1
  O  O15  1  0.32505100  0.53199300  0.80700900  1
  O  O16  1  0.25677600  0.75000000  0.43178000  1
  O  O17  1  0.24322400  0.75000000  0.93178000  1
  O  O18  1  0.74322400  0.25000000  0.56822000  1
  O  O19  1  0.75677600  0.25000000  0.06822000  1
loop_
_geom_bond_atom_site_label_1
_geom_bond_atom_site_label_2
_geom_bond_distance
_geom_bond_site_symmetry_2
Co0 O13 2.059347 1_565
Co0 O11 2.059347 1_555
Co0 O4 2.097071 1_555
Co0 O0 2.202051 1_655
Co0 O8 2.229487 1_655
Co0 O14 2.229487 1_655
Co1 O12 2.059347 1_555
Co1 O10 2.059347 1_565
Co1 O5 2.097071 1_555
Co1 O1 2.202051 1_555
Co1 O15 2.229487 1_555
Co1 O9 2.229487 1_555
Co2 O15 2.059347 1_555
Co2 O9 2.059347 1_545
Co2 O6 2.097071 1_555
Co2 O2 2.202051 1_455
Co2 O10 2.229487 1_455
Co2 O12 2.229487 1_455
Co3 O8 2.059347 1_555
Co3 O14 2.059347 1_545
Co3 O7 2.097071 1_555
Co3 O3 2.202051 1_555
Co3 O13 2.229487 1_555
Co3 O11 2.229487 1_555
H0 O0 0.983943 1_555
H1 O1 0.983943 1_555
H2 O2 0.983943 1_555
H3 O3 0.983943 1_555
H4 O2 0.983943 1_555
H5 O3 0.983943 1_555
H6 O0 0.983943 1_555
H7 O1 0.983943 1_555
H8 N0 1.053201 1_555
H9 N1 1.053201 1_556
H10 N2 1.053201 1_555
H11 N3 1.053201 1_554
H12 N0 1.052932 1_555
H13 N1 1.052932 1_556
H14 N2 1.052932 1_555
H15 N3 1.052932 1_554
H16 N0 1.035807 1_555
H17 N1 1.035807 1_555
H18 N2 1.035807 1_555
H19 N3 1.035807 1_555
H20 N2 1.035807 1_555
H21 N3 1.035807 1_555
H22 N0 1.035807 1_555
H23 N1 1.035807 1_555
O4 P0 1.525302 1_555
O5 P1 1.525302 1_655
O6 P2 1.525302 1_555
O7 P3 1.525302 1_455
O8 P0 1.580627 1_555
O9 P1 1.580627 1_555
O10 P2 1.580627 1_555
O11 P3 1.580627 1_555
O12 P2 1.580627 1_555
O13 P3 1.580627 1_555
O14 P0 1.580627 1_555
O15 P1 1.580627 1_555
O16 P0 1.558151 1_555
O17 P1 1.558151 1_555
O18 P2 1.558151 1_555
O19 P3 1.558151 1_555
