# generated using pymatgen
data_USnPt
_symmetry_space_group_name_H-M   'P 1'
_cell_length_a   7.46186196
_cell_length_b   7.46186196
_cell_length_c   4.16258900
_cell_angle_alpha   90.00000000
_cell_angle_beta   90.00000000
_cell_angle_gamma   119.99999960
_symmetry_Int_Tables_number   1
_chemical_formula_structural   USnPt
_chemical_formula_sum   'U3 Sn3 Pt3'
_cell_volume   200.71904699
_cell_formula_units_Z   3
loop_
 _symmetry_equiv_pos_site_id
 _symmetry_equiv_pos_as_xyz
  1  'x, y, z'
loop_
 _atom_site_type_symbol
 _atom_site_label
 _atom_site_symmetry_multiplicity
 _atom_site_fract_x
 _atom_site_fract_y
 _atom_site_fract_z
 _atom_site_occupancy
  U  U0  1  0.00000000  0.41205200  0.50000000  1
  U  U1  1  0.58794800  0.58794800  0.50000000  1
  U  U2  1  0.41205200  0.00000000  0.50000000  1
  Sn  Sn0  1  0.00000000  0.74560600  0.00000000  1
  Sn  Sn1  1  0.25439400  0.25439400  0.00000000  1
  Sn  Sn2  1  0.74560600  0.00000000  0.00000000  1
  Pt  Pt0  1  0.33333300  0.66666700  0.00000000  1
  Pt  Pt1  1  0.66666700  0.33333300  0.00000000  1
  Pt  Pt2  1  0.00000000  0.00000000  0.50000000  1
loop_
_geom_bond_atom_site_label_1
_geom_bond_atom_site_label_2
_geom_bond_distance
_geom_bond_site_symmetry_2
Sn0 U0 3.244469 1_555
Sn0 U0 3.244469 1_554
Sn0 U1 3.398863 1_455
Sn0 U1 3.398863 1_454
Sn0 U2 3.398863 1_565
Sn0 U2 3.398863 1_564
Sn1 U1 3.244469 1_554
Sn1 U1 3.244469 1_555
Sn1 U2 3.398863 1_554
Sn1 U0 3.398863 1_555
Sn1 U0 3.398863 1_554
Sn1 U2 3.398863 1_555
Sn2 U2 3.244469 1_555
Sn2 U2 3.244469 1_554
Sn2 U1 3.398863 1_544
Sn2 U1 3.398863 1_545
Sn2 U0 3.398863 1_655
Sn2 U0 3.398863 1_654
Pt0 Sn0 2.828186 1_555
Pt0 Sn2 2.828191 1_565
Pt0 Sn1 2.828193 1_555
Pt0 U2 3.066332 1_564
Pt0 U2 3.066332 1_565
Pt0 U0 3.066334 1_555
Pt0 U0 3.066334 1_554
Pt0 U1 3.066338 1_555
Pt0 U1 3.066338 1_554
Pt1 Sn2 2.828186 1_555
Pt1 Sn0 2.828191 1_655
Pt1 Sn1 2.828193 1_555
Pt1 U0 3.066332 1_655
Pt1 U0 3.066332 1_654
Pt1 U2 3.066334 1_555
Pt1 U2 3.066334 1_554
Pt1 U1 3.066338 1_555
Pt1 U1 3.066338 1_554
Pt2 Sn0 2.816940 1_546
Pt2 Sn2 2.816940 1_456
Pt2 Sn0 2.816940 1_545
Pt2 Sn2 2.816940 1_455
Pt2 Sn1 2.816940 1_555
Pt2 Sn1 2.816940 1_556
Pt2 U0 3.074675 1_555
Pt2 U2 3.074675 1_555
Pt2 U1 3.074675 1_445
