# generated using pymatgen
data_Na4Sc3In(SiO3)8
_symmetry_space_group_name_H-M   'P 1'
_cell_length_a   9.18031300
_cell_length_b   5.41349400
_cell_length_c   9.85549078
_cell_angle_alpha   75.66688338
_cell_angle_beta   90.00000000
_cell_angle_gamma   90.00000000
_symmetry_Int_Tables_number   1
_chemical_formula_structural   Na4Sc3In(SiO3)8
_chemical_formula_sum   'Na4 Sc3 In1 Si8 O24'
_cell_volume   474.54802525
_cell_formula_units_Z   1
loop_
 _symmetry_equiv_pos_site_id
 _symmetry_equiv_pos_as_xyz
  1  'x, y, z'
loop_
 _atom_site_type_symbol
 _atom_site_label
 _atom_site_symmetry_multiplicity
 _atom_site_fract_x
 _atom_site_fract_y
 _atom_site_fract_z
 _atom_site_occupancy
  Na  Na0  1  0.80407300  0.50000000  0.50000000  1
  Na  Na1  1  0.30254100  0.00000000  0.00000000  1
  Na  Na2  1  0.19678700  0.00000000  0.50000000  1
  Na  Na3  1  0.69726000  0.50000000  0.00000000  1
  Sc  Sc0  1  0.89443000  0.00000000  0.00000000  1
  Sc  Sc1  1  0.60818100  0.00000000  0.50000000  1
  Sc  Sc2  1  0.10579000  0.50000000  0.00000000  1
  In  In0  1  0.39611000  0.50000000  0.50000000  1
  Si  Si0  1  0.08547700  0.70359000  0.28986400  1
  Si  Si1  1  0.58687700  0.20237700  0.79156300  1
  Si  Si2  1  0.08547700  0.29641000  0.71013600  1
  Si  Si3  1  0.58687700  0.79762300  0.20843700  1
  Si  Si4  1  0.91289300  0.79704800  0.70968800  1
  Si  Si5  1  0.41295000  0.29650900  0.20863600  1
  Si  Si6  1  0.91289300  0.20295200  0.29031200  1
  Si  Si7  1  0.41295000  0.70349100  0.79136400  1
  O  O0  1  0.24509600  0.70843600  0.35545300  1
  O  O1  1  0.74657200  0.19679000  0.86106900  1
  O  O2  1  0.24509600  0.29156400  0.64454700  1
  O  O3  1  0.74657200  0.80321000  0.13893100  1
  O  O4  1  0.75367500  0.80293600  0.63950600  1
  O  O5  1  0.25336700  0.30377000  0.13860200  1
  O  O6  1  0.75367500  0.19706400  0.36049400  1
  O  O7  1  0.25336700  0.69623000  0.86139800  1
  O  O8  1  0.07721300  0.77641000  0.11768400  1
  O  O9  1  0.58186300  0.27475900  0.61938300  1
  O  O10  1  0.07721300  0.22359000  0.88231600  1
  O  O11  1  0.58186300  0.72524100  0.38061700  1
  O  O12  1  0.92131500  0.72343900  0.88166200  1
  O  O13  1  0.42218800  0.21541900  0.38036400  1
  O  O14  1  0.92131500  0.27656100  0.11833800  1
  O  O15  1  0.42218800  0.78458100  0.61963600  1
  O  O16  1  0.00735300  0.41910800  0.34947300  1
  O  O17  1  0.50791600  0.91906100  0.85022100  1
  O  O18  1  0.00735300  0.58089200  0.65052700  1
  O  O19  1  0.50791600  0.08093900  0.14977900  1
  O  O20  1  0.99066100  0.08089300  0.65073900  1
  O  O21  1  0.49199800  0.58052200  0.15083100  1
  O  O22  1  0.99066100  0.91910700  0.34926100  1
  O  O23  1  0.49199800  0.41947800  0.84916900  1
loop_
_geom_bond_atom_site_label_1
_geom_bond_atom_site_label_2
_geom_bond_distance
_geom_bond_site_symmetry_2
Na0 O4 2.431089 1_555
Na0 O6 2.431089 1_555
Na0 O18 2.489346 1_655
Na0 O16 2.489346 1_655
Na0 O9 2.514405 1_555
Na0 O11 2.514405 1_555
Na0 O20 2.935973 1_555
Na0 O22 2.935973 1_555
Na1 O5 2.426139 1_555
Na1 O7 2.426139 1_544
Na1 O19 2.499198 1_555
Na1 O17 2.499198 1_544
Na1 O8 2.528683 1_545
Na1 O10 2.528683 1_554
Na1 O21 2.952995 1_545
Na1 O23 2.952995 1_554
Na2 O0 2.414682 1_545
Na2 O2 2.414682 1_555
Na2 O20 2.510320 1_455
Na2 O22 2.510320 1_445
Na2 O13 2.520154 1_555
Na2 O15 2.520154 1_545
Na2 O16 2.950643 1_555
Na2 O18 2.950643 1_545
Na3 O3 2.426271 1_555
Na3 O1 2.426271 1_554
Na3 O23 2.504278 1_554
Na3 O21 2.504278 1_555
Na3 O14 2.521042 1_555
Na3 O12 2.521042 1_554
Na3 O19 2.947697 1_555
Na3 O17 2.947697 1_554
In0 O0 2.104459 1_555
In0 O2 2.104459 1_555
In0 O15 2.172616 1_555
In0 O13 2.172616 1_555
In0 O9 2.251390 1_555
In0 O11 2.251390 1_555
O0 Si0 1.604428 1_555
O1 Si1 1.615304 1_555
O1 Sc0 2.032236 1_556
O2 Si2 1.604428 1_555
O3 Si3 1.615304 1_555
O3 Sc0 2.032236 1_565
O4 Si4 1.614002 1_555
O4 Sc1 2.021448 1_565
O5 Si5 1.615798 1_555
O5 Sc2 2.027665 1_555
O6 Si6 1.614002 1_555
O6 Sc1 2.021448 1_555
O7 Si7 1.615798 1_555
O7 Sc2 2.027665 1_556
O8 Si0 1.646051 1_555
O8 Sc2 2.124233 1_555
O8 Sc0 2.220566 1_465
O9 Si1 1.644985 1_555
O9 Sc1 2.126398 1_555
O10 Si2 1.646051 1_555
O10 Sc2 2.124233 1_556
O10 Sc0 2.220566 1_456
O11 Si3 1.644985 1_555
O11 Sc1 2.126398 1_565
O12 Si4 1.644086 1_555
O12 Sc0 2.127709 1_566
O12 Sc2 2.234481 1_656
O13 Si5 1.642095 1_555
O13 Sc1 2.232676 1_555
O14 Si6 1.644086 1_555
O14 Sc0 2.127709 1_555
O14 Sc2 2.234481 1_655
O15 Si7 1.642095 1_555
O15 Sc1 2.232676 1_565
O16 Si0 1.668318 1_555
O16 Si6 1.673029 1_455
O17 Si1 1.665230 1_565
O17 Si7 1.671394 1_555
O18 Si2 1.668318 1_555
O18 Si4 1.673029 1_455
O19 Si3 1.665230 1_545
O19 Si5 1.671394 1_555
O20 Si4 1.663234 1_545
O20 Si2 1.673226 1_655
O21 Si5 1.667756 1_555
O21 Si3 1.671118 1_555
O22 Si6 1.663234 1_565
O22 Si0 1.673226 1_655
O23 Si7 1.667756 1_555
O23 Si1 1.671118 1_555
