# generated using pymatgen
data_Li4BH10N3
_symmetry_space_group_name_H-M   'P 1'
_cell_length_a   9.29891833
_cell_length_b   9.29891833
_cell_length_c   9.29891833
_cell_angle_alpha   109.47122063
_cell_angle_beta   109.47122063
_cell_angle_gamma   109.47122063
_symmetry_Int_Tables_number   1
_chemical_formula_structural   Li4BH10N3
_chemical_formula_sum   'Li16 B4 H40 N12'
_cell_volume   618.97827921
_cell_formula_units_Z   4
loop_
 _symmetry_equiv_pos_site_id
 _symmetry_equiv_pos_as_xyz
  1  'x, y, z'
loop_
 _atom_site_type_symbol
 _atom_site_label
 _atom_site_symmetry_multiplicity
 _atom_site_fract_x
 _atom_site_fract_y
 _atom_site_fract_z
 _atom_site_occupancy
  Li  Li0  1  0.53687700  0.75000000  0.28687700  1
  Li  Li1  1  0.25000000  0.21312300  0.96312300  1
  Li  Li2  1  0.28687700  0.53687700  0.75000000  1
  Li  Li3  1  0.96312300  0.25000000  0.21312300  1
  Li  Li4  1  0.75000000  0.28687700  0.53687700  1
  Li  Li5  1  0.21312300  0.96312300  0.25000000  1
  Li  Li6  1  0.77363800  0.75000000  0.52363800  1
  Li  Li7  1  0.25000000  0.97636200  0.72636200  1
  Li  Li8  1  0.52363800  0.77363800  0.75000000  1
  Li  Li9  1  0.72636200  0.25000000  0.97636200  1
  Li  Li10  1  0.75000000  0.52363800  0.77363800  1
  Li  Li11  1  0.97636200  0.72636200  0.25000000  1
  Li  Li12  1  0.96314600  0.50000000  0.00000000  1
  Li  Li13  1  0.00000000  0.96314600  0.50000000  1
  Li  Li14  1  0.50000000  0.00000000  0.96314600  1
  Li  Li15  1  0.53685400  0.53685400  0.53685400  1
  B  B0  1  0.23050100  0.50000000  0.00000000  1
  B  B1  1  0.00000000  0.23050100  0.50000000  1
  B  B2  1  0.50000000  0.00000000  0.23050100  1
  B  B3  1  0.26949900  0.26949900  0.26949900  1
  H  H0  1  0.58590900  0.59120500  0.88904000  1
  H  H1  1  0.69686800  0.61096000  0.20216500  1
  H  H2  1  0.49470400  0.29783500  0.90879500  1
  H  H3  1  0.20216500  0.69686800  0.61096000  1
  H  H4  1  0.90879500  0.49470400  0.29783500  1
  H  H5  1  0.88904000  0.58590900  0.59120500  1
  H  H6  1  0.29783500  0.90879500  0.49470400  1
  H  H7  1  0.59120500  0.88904000  0.58590900  1
  H  H8  1  0.61096000  0.20216500  0.69686800  1
  H  H9  1  0.91409100  0.80313200  0.00529600  1
  H  H10  1  0.80313200  0.00529600  0.91409100  1
  H  H11  1  0.00529600  0.91409100  0.80313200  1
  H  H12  1  0.44235900  0.41433100  0.70054000  1
  H  H13  1  0.74181800  0.79946000  0.21379000  1
  H  H14  1  0.52802800  0.28621000  0.08566900  1
  H  H15  1  0.21379000  0.74181800  0.79946000  1
  H  H16  1  0.08566900  0.52802800  0.28621000  1
  H  H17  1  0.70054000  0.44235900  0.41433100  1
  H  H18  1  0.28621000  0.08566900  0.52802800  1
  H  H19  1  0.41433100  0.70054000  0.44235900  1
  H  H20  1  0.79946000  0.21379000  0.74181800  1
  H  H21  1  0.05764100  0.75818200  0.97197200  1
  H  H22  1  0.75818200  0.97197200  0.05764100  1
  H  H23  1  0.97197200  0.05764100  0.75818200  1
  H  H24  1  0.15635200  0.53066400  0.88678400  1
  H  H25  1  0.26956900  0.61321600  0.14388000  1
  H  H26  1  0.12568900  0.35612000  0.96933600  1
  H  H27  1  0.14388000  0.26956900  0.61321600  1
  H  H28  1  0.96933600  0.12568900  0.35612000  1
  H  H29  1  0.88678400  0.15635200  0.53066400  1
  H  H30  1  0.35612000  0.96933600  0.12568900  1
  H  H31  1  0.53066400  0.88678400  0.15635200  1
  H  H32  1  0.61321600  0.14388000  0.26956900  1
  H  H33  1  0.34364800  0.23043100  0.37431100  1
  H  H34  1  0.23043100  0.37431100  0.34364800  1
  H  H35  1  0.37431100  0.34364800  0.23043100  1
  H  H36  1  0.36284300  0.50000000  0.00000000  1
  H  H37  1  0.00000000  0.36284300  0.50000000  1
  H  H38  1  0.50000000  0.00000000  0.36284300  1
  H  H39  1  0.13715700  0.13715700  0.13715700  1
  N  N0  1  0.52057700  0.54817400  0.75658500  1
  N  N1  1  0.76399200  0.74341500  0.29158900  1
  N  N2  1  0.47240300  0.20841100  0.95182600  1
  N  N3  1  0.29158900  0.76399200  0.74341500  1
  N  N4  1  0.95182600  0.47240300  0.20841100  1
  N  N5  1  0.75658500  0.52057700  0.54817400  1
  N  N6  1  0.20841100  0.95182600  0.47240300  1
  N  N7  1  0.54817400  0.75658500  0.52057700  1
  N  N8  1  0.74341500  0.29158900  0.76399200  1
  N  N9  1  0.97942300  0.73600800  0.02759700  1
  N  N10  1  0.73600800  0.02759700  0.97942300  1
  N  N11  1  0.02759700  0.97942300  0.73600800  1
loop_
_geom_bond_atom_site_label_1
_geom_bond_atom_site_label_2
_geom_bond_distance
_geom_bond_site_symmetry_2
Li0 N7 2.119482 1_555
Li0 N1 2.119482 1_555
Li1 N2 2.119482 1_555
Li1 N11 2.119482 1_545
Li2 N0 2.119482 1_555
Li2 N3 2.119482 1_555
Li3 N4 2.119482 1_555
Li3 N10 2.119482 1_554
Li4 N5 2.119482 1_555
Li4 N8 2.119482 1_555
Li5 N6 2.119482 1_555
Li5 N9 2.119482 1_455
Li6 N1 2.108823 1_555
Li6 N7 2.108823 1_555
Li6 N5 2.179822 1_555
Li6 N11 2.179822 1_655
Li7 N2 2.108823 1_565
Li7 N11 2.108823 1_555
Li7 N3 2.179822 1_555
Li7 N6 2.179822 1_555
Li8 N3 2.108823 1_555
Li8 N0 2.108823 1_555
Li8 N7 2.179822 1_555
Li8 N10 2.179822 1_565
Li9 N4 2.108823 1_556
Li9 N10 2.108823 1_555
Li9 N8 2.179822 1_555
Li9 N2 2.179822 1_555
Li10 N8 2.108823 1_555
Li10 N5 2.108823 1_555
Li10 N0 2.179822 1_555
Li10 N9 2.179822 1_556
Li11 N6 2.108823 1_655
Li11 N9 2.108823 1_555
Li11 N1 2.179822 1_555
Li11 N4 2.179822 1_555
Li12 N4 2.069375 1_555
Li12 N9 2.069375 1_555
Li12 N8 2.069375 1_554
Li13 N6 2.069375 1_555
Li13 N11 2.069375 1_555
Li13 N1 2.069375 1_455
Li14 N2 2.069375 1_555
Li14 N10 2.069375 1_555
Li14 N3 2.069375 1_545
Li15 N0 2.069375 1_555
Li15 N7 2.069375 1_555
Li15 N5 2.069375 1_555
B0 H26 1.229773 1_554
B0 H25 1.229773 1_555
B0 H24 1.229776 1_554
B0 H36 1.230637 1_555
B1 H28 1.229773 1_455
B1 H27 1.229773 1_555
B1 H29 1.229776 1_455
B1 H37 1.230637 1_555
B2 H30 1.229773 1_545
B2 H32 1.229773 1_555
B2 H31 1.229776 1_545
B2 H38 1.230637 1_555
B3 H35 1.229776 1_555
B3 H34 1.229776 1_555
B3 H33 1.229776 1_555
B3 H39 1.230637 1_555
H0 N0 1.027993 1_555
H1 N1 1.027993 1_555
H2 N2 1.027993 1_555
H3 N3 1.027993 1_555
H4 N4 1.027993 1_555
H5 N5 1.027993 1_555
H6 N6 1.027993 1_555
H7 N7 1.027993 1_555
H8 N8 1.027993 1_555
H9 N9 1.028001 1_555
H10 N10 1.028001 1_555
H11 N11 1.028001 1_555
H12 N0 1.030060 1_555
H12 Li2 2.189238 1_555
H13 N1 1.030069 1_555
H13 Li0 2.189235 1_555
H14 N2 1.030062 1_554
H14 Li1 2.189235 1_554
H15 N3 1.030069 1_555
H15 Li2 2.189235 1_555
H16 N4 1.030062 1_455
H16 Li3 2.189235 1_455
H17 N5 1.030060 1_555
H17 Li4 2.189238 1_555
H18 N6 1.030062 1_545
H18 Li5 2.189235 1_545
H19 N7 1.030060 1_555
H19 Li0 2.189238 1_555
H20 N8 1.030069 1_555
H20 Li4 2.189235 1_555
H21 N9 1.030062 1_456
H21 Li5 2.189235 1_556
H22 N10 1.030062 1_564
H22 Li3 2.189235 1_565
H23 N11 1.030062 1_645
H23 Li1 2.189235 1_655
H24 Li2 2.031205 1_555
H25 Li0 2.031198 1_555
H26 Li1 2.031198 1_555
H27 Li2 2.031198 1_555
H28 Li3 2.031198 1_555
H29 Li4 2.031205 1_555
H30 Li5 2.031198 1_555
H31 Li0 2.031205 1_555
H32 Li4 2.031198 1_555
H33 Li5 2.031198 1_545
H34 Li3 2.031198 1_455
H35 Li1 2.031198 1_554
