# generated using pymatgen
data_FeB18H42C8(SN)2
_symmetry_space_group_name_H-M   'P 1'
_cell_length_a   12.45313763
_cell_length_b   12.45313763
_cell_length_c   12.21556565
_cell_angle_alpha   60.87773744
_cell_angle_beta   60.87773744
_cell_angle_gamma   79.16561391
_symmetry_Int_Tables_number   1
_chemical_formula_structural   FeB18H42C8(SN)2
_chemical_formula_sum   'Fe2 B36 H84 C16 S4 N4'
_cell_volume   1442.73631116
_cell_formula_units_Z   2
loop_
 _symmetry_equiv_pos_site_id
 _symmetry_equiv_pos_as_xyz
  1  'x, y, z'
loop_
 _atom_site_type_symbol
 _atom_site_label
 _atom_site_symmetry_multiplicity
 _atom_site_fract_x
 _atom_site_fract_y
 _atom_site_fract_z
 _atom_site_occupancy
  Fe  Fe0  1  0.50000000  0.00000000  0.50000000  1
  Fe  Fe1  1  0.00000000  0.50000000  0.00000000  1
  B  B0  1  0.40515000  0.10015500  0.79408300  1
  B  B1  1  0.59485000  0.89984500  0.20591700  1
  B  B2  1  0.10015500  0.40515000  0.29408300  1
  B  B3  1  0.89984500  0.59485000  0.70591700  1
  B  B4  1  0.29268000  0.08836700  0.74761100  1
  B  B5  1  0.59059800  0.79105800  0.36846800  1
  B  B6  1  0.20894200  0.40940200  0.13153200  1
  B  B7  1  0.91163300  0.70732000  0.75238900  1
  B  B8  1  0.70732000  0.91163300  0.25238900  1
  B  B9  1  0.40940200  0.20894200  0.63153200  1
  B  B10  1  0.79105800  0.59059800  0.86846800  1
  B  B11  1  0.08836700  0.29268000  0.24761100  1
  B  B12  1  0.33008500  0.97338400  0.69571300  1
  B  B13  1  0.47300700  0.82758000  0.49831500  1
  B  B14  1  0.17242000  0.52699300  0.00168500  1
  B  B15  1  0.02661600  0.66991500  0.80428700  1
  B  B16  1  0.66991500  0.02661600  0.30428700  1
  B  B17  1  0.52699300  0.17242000  0.50168500  1
  B  B18  1  0.82758000  0.47300700  0.99831500  1
  B  B19  1  0.97338400  0.33008500  0.19571300  1
  B  B20  1  0.34725300  0.95448800  0.84504300  1
  B  B21  1  0.45264900  0.85139200  0.36048300  1
  B  B22  1  0.14860800  0.54735100  0.13951700  1
  B  B23  1  0.04551200  0.65274700  0.65495700  1
  B  B24  1  0.65274700  0.04551200  0.15495700  1
  B  B25  1  0.54735100  0.14860800  0.63951700  1
  B  B26  1  0.85139200  0.45264900  0.86048300  1
  B  B27  1  0.95448800  0.34725300  0.34504300  1
  B  B28  1  0.37315400  0.13099200  0.56251700  1
  B  B29  1  0.62684600  0.86900800  0.43748300  1
  B  B30  1  0.13099200  0.37315400  0.06251700  1
  B  B31  1  0.86900800  0.62684600  0.93748300  1
  B  B32  1  0.51461800  0.99036600  0.76780600  1
  B  B33  1  0.48538200  0.00963400  0.23219400  1
  B  B34  1  0.99036600  0.51461800  0.26780600  1
  B  B35  1  0.00963400  0.48538200  0.73219400  1
  H  H0  1  0.18638800  0.10764900  0.80445000  1
  H  H1  1  0.61400100  0.68517900  0.39731000  1
  H  H2  1  0.31482100  0.38599900  0.10269000  1
  H  H3  1  0.89235100  0.81361200  0.69555000  1
  H  H4  1  0.81361200  0.89235100  0.19555000  1
  H  H5  1  0.38599900  0.31482100  0.60269000  1
  H  H6  1  0.68517900  0.61400100  0.89731000  1
  H  H7  1  0.10764900  0.18638800  0.30445000  1
  H  H8  1  0.57941100  0.62906900  0.69137200  1
  H  H9  1  0.12930000  0.07984900  0.60039900  1
  H  H10  1  0.92015100  0.87070000  0.89960100  1
  H  H11  1  0.37093100  0.42058900  0.80862800  1
  H  H12  1  0.42058900  0.37093100  0.30862800  1
  H  H13  1  0.87070000  0.92015100  0.39960100  1
  H  H14  1  0.07984900  0.12930000  0.10039900  1
  H  H15  1  0.62906900  0.57941100  0.19137200  1
  H  H16  1  0.37626900  0.12489500  0.88805100  1
  H  H17  1  0.62373100  0.87510500  0.11194900  1
  H  H18  1  0.12489500  0.37626900  0.38805100  1
  H  H19  1  0.87510500  0.62373100  0.61194900  1
  H  H20  1  0.45263500  0.54347600  0.86001200  1
  H  H21  1  0.04334500  0.95230200  0.64366700  1
  H  H22  1  0.04769800  0.95665500  0.85633300  1
  H  H23  1  0.45652400  0.54736500  0.63998800  1
  H  H24  1  0.54736500  0.45652400  0.13998800  1
  H  H25  1  0.95665500  0.04769800  0.35633300  1
  H  H26  1  0.95230200  0.04334500  0.14366700  1
  H  H27  1  0.54347600  0.45263500  0.36001200  1
  H  H28  1  0.28882900  0.87546800  0.96238800  1
  H  H29  1  0.37682100  0.79390900  0.37139300  1
  H  H30  1  0.20609100  0.62317900  0.12860700  1
  H  H31  1  0.12453200  0.71117100  0.53761200  1
  H  H32  1  0.71117100  0.12453200  0.03761200  1
  H  H33  1  0.62317900  0.20609100  0.62860700  1
  H  H34  1  0.79390900  0.37682100  0.87139300  1
  H  H35  1  0.87546800  0.28882900  0.46238800  1
  H  H36  1  0.56370300  0.93864400  0.84269500  1
  H  H37  1  0.43629700  0.06135600  0.15730500  1
  H  H38  1  0.93864400  0.56370300  0.34269500  1
  H  H39  1  0.06135600  0.43629700  0.65730500  1
  H  H40  1  0.60871400  0.52361400  0.83748800  1
  H  H41  1  0.02298800  0.10776400  0.53156200  1
  H  H42  1  0.89223600  0.97701200  0.96843800  1
  H  H43  1  0.47638600  0.39128600  0.66251200  1
  H  H44  1  0.39128600  0.47638600  0.16251200  1
  H  H45  1  0.97701200  0.89223600  0.46843800  1
  H  H46  1  0.10776400  0.02298800  0.03156200  1
  H  H47  1  0.52361400  0.60871400  0.33748800  1
  H  H48  1  0.25800900  0.90691800  0.71484300  1
  H  H49  1  0.40725600  0.75899100  0.61959000  1
  H  H50  1  0.24100900  0.59274400  0.88041000  1
  H  H51  1  0.09308200  0.74199100  0.78515700  1
  H  H52  1  0.74199100  0.09308200  0.28515700  1
  H  H53  1  0.59274400  0.24100900  0.38041000  1
  H  H54  1  0.75899100  0.40725600  0.11959000  1
  H  H55  1  0.90691800  0.25800900  0.21484300  1
  H  H56  1  0.61894600  0.31099100  0.89982500  1
  H  H57  1  0.80959300  0.11811500  0.67121100  1
  H  H58  1  0.88188500  0.19040700  0.82878900  1
  H  H59  1  0.68900900  0.38105400  0.60017500  1
  H  H60  1  0.38105400  0.68900900  0.10017500  1
  H  H61  1  0.19040700  0.88188500  0.32878900  1
  H  H62  1  0.11811500  0.80959300  0.17121100  1
  H  H63  1  0.31099100  0.61894600  0.39982500  1
  H  H64  1  0.55384300  0.24549400  0.84007000  1
  H  H65  1  0.74572900  0.05405200  0.85953000  1
  H  H66  1  0.94594800  0.25427100  0.64047000  1
  H  H67  1  0.75450600  0.44615700  0.65993000  1
  H  H68  1  0.44615700  0.75450600  0.15993000  1
  H  H69  1  0.25427100  0.94594800  0.14047000  1
  H  H70  1  0.05405200  0.74572900  0.35953000  1
  H  H71  1  0.24549400  0.55384300  0.34007000  1
  H  H72  1  0.45518700  0.30528300  0.96148000  1
  H  H73  1  0.80435800  0.95460100  0.77788600  1
  H  H74  1  0.04539900  0.19564200  0.72211400  1
  H  H75  1  0.69471700  0.54481300  0.53852000  1
  H  H76  1  0.54481300  0.69471700  0.03852000  1
  H  H77  1  0.19564200  0.04539900  0.22211400  1
  H  H78  1  0.95460100  0.80435800  0.27788600  1
  H  H79  1  0.30528300  0.45518700  0.46148000  1
  H  H80  1  0.31741300  0.17953500  0.49449900  1
  H  H81  1  0.68258700  0.82046500  0.50550100  1
  H  H82  1  0.17953500  0.31741300  0.99449900  1
  H  H83  1  0.82046500  0.68258700  0.00550100  1
  C  C0  1  0.54954500  0.54119500  0.78842100  1
  C  C1  1  0.04117500  0.04916900  0.62148500  1
  C  C2  1  0.95083100  0.95882500  0.87851500  1
  C  C3  1  0.45880500  0.45045500  0.71157900  1
  C  C4  1  0.45045500  0.45880500  0.21157900  1
  C  C5  1  0.95882500  0.95083100  0.37851500  1
  C  C6  1  0.04916900  0.04117500  0.12148500  1
  C  C7  1  0.54119500  0.54954500  0.28842100  1
  C  C8  1  0.54591300  0.31609800  0.87227800  1
  C  C9  1  0.81590700  0.04548200  0.76549700  1
  C  C10  1  0.95451800  0.18409300  0.73450300  1
  C  C11  1  0.68390200  0.45408700  0.62772200  1
  C  C12  1  0.45408700  0.68390200  0.12772200  1
  C  C13  1  0.18409300  0.95451800  0.23450300  1
  C  C14  1  0.04548200  0.81590700  0.26549700  1
  C  C15  1  0.31609800  0.54591300  0.37227800  1
  S  S0  1  0.46924800  0.87871800  0.72879400  1
  S  S1  1  0.12128200  0.53075200  0.77120600  1
  S  S2  1  0.53075200  0.12128200  0.27120600  1
  S  S3  1  0.87871800  0.46924800  0.22879400  1
  N  N0  1  0.55946400  0.44053600  0.75000000  1
  N  N1  1  0.94075700  0.05924300  0.75000000  1
  N  N2  1  0.44053600  0.55946400  0.25000000  1
  N  N3  1  0.05924300  0.94075700  0.25000000  1
loop_
_geom_bond_atom_site_label_1
_geom_bond_atom_site_label_2
_geom_bond_distance
_geom_bond_site_symmetry_2
Fe0 S0 2.303463 1_545
Fe0 S2 2.303463 1_555
Fe1 S3 2.303463 1_455
Fe1 S1 2.303463 1_554
B0 H16 1.201088 1_555
B0 B32 1.769533 1_545
B1 H17 1.201088 1_555
B1 B33 1.769533 1_565
B2 H18 1.201088 1_555
B2 B34 1.769533 1_455
B3 H19 1.201088 1_555
B3 B35 1.769533 1_655
B4 H0 1.200029 1_555
B5 H1 1.204531 1_555
B6 H2 1.204531 1_555
B7 H3 1.200029 1_555
B8 H4 1.200029 1_555
B9 H5 1.204531 1_555
B10 H6 1.204531 1_555
B11 H7 1.200029 1_555
B11 B19 1.736265 1_455
B12 H48 1.196754 1_555
B12 B4 1.736265 1_565
B12 B28 1.795894 1_565
B12 B20 1.836160 1_555
B12 S0 2.001579 1_555
B12 Fe0 2.207102 1_565
B13 H49 1.202196 1_555
B13 Fe0 2.246075 1_565
B14 H50 1.202196 1_554
B14 Fe1 2.246075 1_555
B15 H51 1.196754 1_555
B15 B7 1.736265 1_455
B15 B31 1.795894 1_455
B15 B23 1.836160 1_555
B15 S1 2.001579 1_555
B15 Fe1 2.207102 1_556
B16 H52 1.196754 1_555
B16 B8 1.736265 1_545
B16 B29 1.795894 1_545
B16 B24 1.836160 1_555
B16 S2 2.001579 1_555
B16 Fe0 2.207102 1_555
B17 H53 1.202196 1_555
B17 Fe0 2.246075 1_555
B18 H54 1.202196 1_556
B18 Fe1 2.246075 1_656
B19 H55 1.196754 1_555
B19 B30 1.795894 1_655
B19 B27 1.836160 1_555
B19 S3 2.001579 1_555
B19 Fe1 2.207102 1_655
B20 H28 1.197286 1_555
B20 B32 1.859974 1_555
B20 S0 1.969854 1_555
B21 H29 1.208578 1_555
B21 B33 1.783159 1_565
B22 H30 1.208578 1_555
B22 B34 1.783159 1_455
B23 H31 1.197286 1_555
B23 B35 1.859974 1_555
B23 S1 1.969854 1_555
B24 H32 1.197286 1_555
B24 B33 1.859974 1_555
B24 S2 1.969854 1_555
B25 H33 1.208578 1_555
B25 B32 1.783159 1_545
B26 H34 1.208578 1_555
B26 B35 1.783159 1_655
B27 H35 1.197286 1_555
B27 B34 1.859974 1_555
B27 S3 1.969854 1_555
B28 H80 1.205147 1_555
B28 Fe0 2.192968 1_555
B29 H81 1.205147 1_555
B29 Fe0 2.192968 1_565
B30 H82 1.205147 1_554
B30 Fe1 2.192968 1_555
B31 H83 1.205147 1_556
B31 Fe1 2.192968 1_656
B32 H36 1.203384 1_555
B32 S0 1.918796 1_555
B33 H37 1.203384 1_555
B33 S2 1.918796 1_555
B34 H38 1.203384 1_555
B34 S3 1.918796 1_555
B35 H39 1.203384 1_555
B35 S1 1.918796 1_555
C0 H40 1.091615 1_555
C0 H8 1.096526 1_555
C0 H20 1.098208 1_555
C0 N0 1.504941 1_555
C1 H41 1.090967 1_555
C1 H9 1.096985 1_555
C1 H21 1.098192 1_545
C1 N1 1.505304 1_455
C2 H42 1.090967 1_555
C2 H10 1.096985 1_555
C2 H22 1.098192 1_655
C2 N1 1.505304 1_565
C3 H43 1.091615 1_555
C3 H11 1.096526 1_555
C3 H23 1.098208 1_555
C3 N0 1.504941 1_555
C4 H44 1.091615 1_555
C4 H12 1.096526 1_555
C4 H24 1.098208 1_555
C4 N2 1.504941 1_555
C5 H45 1.090967 1_555
C5 H13 1.096985 1_555
C5 H25 1.098192 1_565
C5 N3 1.505304 1_655
C6 H46 1.090967 1_555
C6 H14 1.096985 1_555
C6 H26 1.098192 1_455
C6 N3 1.505304 1_545
C7 H47 1.091615 1_555
C7 H15 1.096526 1_555
C7 H27 1.098208 1_555
C7 N2 1.504941 1_555
C8 H72 1.094549 1_555
C8 H56 1.095337 1_555
C8 H64 1.097206 1_555
C8 N0 1.503647 1_555
C9 H73 1.094416 1_545
C9 H57 1.094652 1_555
C9 H65 1.096239 1_555
C9 N1 1.504870 1_555
C10 H74 1.094416 1_655
C10 H58 1.094652 1_555
C10 H66 1.096239 1_555
C10 N1 1.504870 1_555
C11 H75 1.094549 1_555
C11 H59 1.095337 1_555
C11 H67 1.097206 1_555
C11 N0 1.503647 1_555
C12 H76 1.094549 1_555
C12 H60 1.095337 1_555
C12 H68 1.097206 1_555
C12 N2 1.503647 1_555
C13 H77 1.094416 1_565
C13 H61 1.094652 1_555
C13 H69 1.096239 1_555
C13 N3 1.504870 1_555
C14 H78 1.094416 1_455
C14 H62 1.094652 1_555
C14 H70 1.096239 1_555
C14 N3 1.504870 1_555
C15 H79 1.094549 1_555
C15 H63 1.095337 1_555
C15 H71 1.097206 1_555
C15 N2 1.503647 1_555
