# generated using pymatgen
data_LiY4(BiO3)4
_symmetry_space_group_name_H-M   'P 1'
_cell_length_a   5.96680956
_cell_length_b   6.07262338
_cell_length_c   9.44068700
_cell_angle_alpha   92.39237985
_cell_angle_beta   88.64828208
_cell_angle_gamma   94.05135863
_symmetry_Int_Tables_number   1
_chemical_formula_structural   LiY4(BiO3)4
_chemical_formula_sum   'Li1 Y4 Bi4 O12'
_cell_volume   340.85028160
_cell_formula_units_Z   1
loop_
 _symmetry_equiv_pos_site_id
 _symmetry_equiv_pos_as_xyz
  1  'x, y, z'
loop_
 _atom_site_type_symbol
 _atom_site_label
 _atom_site_symmetry_multiplicity
 _atom_site_fract_x
 _atom_site_fract_y
 _atom_site_fract_z
 _atom_site_occupancy
  Li  Li0  1  0.34215300  0.35688700  0.03931900  1
  Y  Y0  1  0.96273600  0.04632600  0.77110900  1
  Y  Y1  1  0.56614800  0.56009500  0.28905500  1
  Y  Y2  1  0.51663600  0.48852000  0.71686400  1
  Y  Y3  1  0.97376900  0.06263200  0.22442300  1
  Bi  Bi0  1  0.06382600  0.49997300  0.49198300  1
  Bi  Bi1  1  0.52462300  0.03232900  0.47698500  1
  Bi  Bi2  1  0.45456600  0.91839700  0.01580200  1
  Bi  Bi3  1  0.90769100  0.49951900  0.97738900  1
  O  O0  1  0.76511500  0.30416100  0.38787800  1
  O  O1  1  0.19008900  0.25869300  0.63736500  1
  O  O2  1  0.74530000  0.77421600  0.10903700  1
  O  O3  1  0.34663600  0.59091000  0.91221400  1
  O  O4  1  0.42749300  0.65742200  0.52613300  1
  O  O5  1  0.80620700  0.84578700  0.39392700  1
  O  O6  1  0.10111400  0.12680000  0.98872300  1
  O  O7  1  0.64255000  0.29792300  0.10807300  1
  O  O8  1  0.22671400  0.35166200  0.30470700  1
  O  O9  1  0.65755500  0.15768800  0.68604700  1
  O  O10  1  0.29905200  0.85415900  0.21829400  1
  O  O11  1  0.83419300  0.70131900  0.76753200  1
loop_
_geom_bond_atom_site_label_1
_geom_bond_atom_site_label_2
_geom_bond_distance
_geom_bond_site_symmetry_2
Li0 O3 1.896238 1_554
Li0 O7 1.981727 1_555
Li0 O6 1.985365 1_554
Li0 O8 2.583571 1_555
Bi0 O8 2.188911 1_555
Bi0 O1 2.229537 1_555
Bi0 O0 2.289600 1_455
Bi0 O4 2.332560 1_555
Bi1 O5 2.203098 1_545
Bi1 O9 2.228721 1_555
Bi1 O0 2.283857 1_555
Bi1 O4 2.371383 1_545
Bi2 O10 2.143616 1_555
Bi2 O2 2.213985 1_555
Bi2 O3 2.238846 1_554
Bi2 O6 2.558195 1_564
Bi2 O7 2.615700 1_565
Bi3 O2 2.294493 1_556
Bi3 O7 2.298705 1_556
Bi3 O11 2.436969 1_555
Bi3 O6 2.619445 1_655
Bi3 O3 2.700625 1_655
O0 Y1 2.264815 1_555
O0 Y3 2.461899 1_555
O1 Y0 2.214858 1_455
O1 Y2 2.429993 1_555
O2 Y1 2.371510 1_555
O2 Y3 2.384529 1_565
O3 Y2 2.172986 1_555
O4 Y2 2.203104 1_555
O4 Y1 2.431980 1_555
O5 Y3 2.282276 1_565
O5 Y1 2.369431 1_555
O6 Y0 2.253978 1_455
O6 Y3 2.373050 1_456
O7 Y1 2.345319 1_555
O7 Y3 2.790413 1_555
O8 Y1 2.316285 1_555
O8 Y3 2.345548 1_455
O9 Y0 2.169429 1_555
O9 Y2 2.237445 1_555
O10 Y3 2.389337 1_465
O10 Y1 2.593648 1_555
O11 Y0 2.178785 1_565
O11 Y2 2.265869 1_555
