# generated using pymatgen
data_Gd3Mn3Ga2Si
_symmetry_space_group_name_H-M   'P 1'
_cell_length_a   4.15477500
_cell_length_b   7.07091412
_cell_length_c   7.05527916
_cell_angle_alpha   59.99128910
_cell_angle_beta   90.00000000
_cell_angle_gamma   90.00000000
_symmetry_Int_Tables_number   1
_chemical_formula_structural   Gd3Mn3Ga2Si
_chemical_formula_sum   'Gd3 Mn3 Ga2 Si1'
_cell_volume   179.48566918
_cell_formula_units_Z   1
loop_
 _symmetry_equiv_pos_site_id
 _symmetry_equiv_pos_as_xyz
  1  'x, y, z'
loop_
 _atom_site_type_symbol
 _atom_site_label
 _atom_site_symmetry_multiplicity
 _atom_site_fract_x
 _atom_site_fract_y
 _atom_site_fract_z
 _atom_site_occupancy
  Gd  Gd0  1  0.50000000  0.57717400  0.41666500  1
  Gd  Gd1  1  0.50000000  0.41757900  0.00515200  1
  Gd  Gd2  1  0.50000000  0.00585700  0.57724000  1
  Mn  Mn0  1  0.00000000  0.22963900  0.75792000  1
  Mn  Mn1  1  0.00000000  0.76338900  0.00998100  1
  Mn  Mn2  1  0.00000000  0.00575100  0.23356800  1
  Ga  Ga0  1  0.50000000  0.00069600  0.00001200  1
  Ga  Ga1  1  0.00000000  0.66590600  0.66718700  1
  Si  Si0  1  0.00000000  0.33391000  0.33237500  1
loop_
_geom_bond_atom_site_label_1
_geom_bond_atom_site_label_2
_geom_bond_distance
_geom_bond_site_symmetry_2
Gd0 Si0 2.941280 1_555
Gd0 Si0 2.941280 1_655
Gd0 Mn0 3.198904 1_655
Gd0 Mn0 3.198904 1_555
Gd0 Mn1 3.240830 1_655
Gd0 Mn1 3.240830 1_555
Gd0 Mn2 3.354409 1_565
Gd0 Mn2 3.354409 1_665
Gd1 Si0 2.937553 1_555
Gd1 Si0 2.937553 1_655
Gd1 Mn1 3.221645 1_555
Gd1 Mn1 3.221645 1_655
Gd1 Mn2 3.270826 1_555
Gd1 Mn2 3.270826 1_655
Gd1 Mn0 3.382705 1_554
Gd1 Mn0 3.382705 1_654
Gd2 Si0 2.944890 1_555
Gd2 Si0 2.944890 1_655
Gd2 Mn2 3.193202 1_555
Gd2 Mn2 3.193202 1_655
Gd2 Mn0 3.234494 1_655
Gd2 Mn0 3.234494 1_555
Gd2 Mn1 3.367577 1_546
Gd2 Mn1 3.367577 1_646
Mn0 Si0 2.709881 1_555
Mn0 Mn1 2.857810 1_546
Mn0 Mn2 2.907539 1_556
Mn1 Si0 2.736172 1_555
Mn1 Mn2 2.851193 1_565
Mn2 Si0 2.736446 1_555
Ga0 Mn1 2.649159 1_545
Ga0 Mn1 2.649159 1_645
Ga0 Mn0 2.662289 1_654
Ga0 Mn0 2.662289 1_554
Ga0 Mn2 2.662890 1_555
Ga0 Mn2 2.662890 1_655
Ga0 Gd2 2.964692 1_554
Ga0 Gd1 2.966047 1_555
Ga0 Gd0 2.967138 1_545
Ga1 Mn2 2.789324 1_565
Ga1 Mn0 2.819676 1_555
Ga1 Mn1 2.826978 1_556
Ga1 Gd1 2.982671 1_556
Ga1 Gd1 2.982671 1_456
Ga1 Gd0 2.990403 1_555
Ga1 Gd0 2.990403 1_455
Ga1 Gd2 2.995080 1_465
Ga1 Gd2 2.995080 1_565
