# generated using pymatgen
data_Ba(FeO2)2
_symmetry_space_group_name_H-M   'P 1'
_cell_length_a   5.50470356
_cell_length_b   5.50470356
_cell_length_c   9.24476100
_cell_angle_alpha   90.00000000
_cell_angle_beta   90.00000000
_cell_angle_gamma   119.99999475
_symmetry_Int_Tables_number   1
_chemical_formula_structural   Ba(FeO2)2
_chemical_formula_sum   'Ba2 Fe4 O8'
_cell_volume   242.60191000
_cell_formula_units_Z   2
loop_
 _symmetry_equiv_pos_site_id
 _symmetry_equiv_pos_as_xyz
  1  'x, y, z'
loop_
 _atom_site_type_symbol
 _atom_site_label
 _atom_site_symmetry_multiplicity
 _atom_site_fract_x
 _atom_site_fract_y
 _atom_site_fract_z
 _atom_site_occupancy
  Ba  Ba0  1  0.00000000  0.00000000  0.75000000  1
  Ba  Ba1  1  0.00000000  0.00000000  0.25000000  1
  Fe  Fe0  1  0.33333300  0.66666700  0.45228000  1
  Fe  Fe1  1  0.66666700  0.33333300  0.95228000  1
  Fe  Fe2  1  0.66666700  0.33333300  0.54772000  1
  Fe  Fe3  1  0.33333300  0.66666700  0.04772000  1
  O  O0  1  0.67221600  0.00000000  0.50000000  1
  O  O1  1  0.67221600  0.67221600  0.00000000  1
  O  O2  1  0.00000000  0.32778400  0.00000000  1
  O  O3  1  0.00000000  0.67221600  0.50000000  1
  O  O4  1  0.32778400  0.32778400  0.50000000  1
  O  O5  1  0.32778400  0.00000000  0.00000000  1
  O  O6  1  0.33333300  0.66666700  0.25000000  1
  O  O7  1  0.66666700  0.33333300  0.75000000  1
loop_
_geom_bond_atom_site_label_1
_geom_bond_atom_site_label_2
_geom_bond_distance
_geom_bond_site_symmetry_2
Ba0 O5 2.932114 1_556
Ba0 O2 2.932114 1_556
Ba0 O3 2.932114 1_545
Ba0 O0 2.932114 1_455
Ba0 O4 2.932114 1_555
Ba0 O1 2.932114 1_446
Ba0 O7 3.178139 1_455
Ba0 O7 3.178144 1_555
Ba0 O7 3.178144 1_445
Ba1 O5 2.932114 1_555
Ba1 O2 2.932114 1_555
Ba1 O3 2.932114 1_545
Ba1 O0 2.932114 1_455
Ba1 O4 2.932114 1_555
Ba1 O1 2.932114 1_445
Ba1 O6 3.178139 1_545
Ba1 O6 3.178144 1_445
Ba1 O6 3.178144 1_555
Fe0 O6 1.870030 1_555
Fe0 O3 1.902225 1_555
Fe0 O0 1.902228 1_565
Fe0 O4 1.902230 1_555
Fe1 O7 1.870030 1_555
Fe1 O2 1.902225 1_656
Fe1 O5 1.902228 1_556
Fe1 O1 1.902230 1_556
Fe2 O7 1.870030 1_555
Fe2 O0 1.902225 1_555
Fe2 O3 1.902228 1_655
Fe2 O4 1.902230 1_555
Fe3 O6 1.870030 1_555
Fe3 O5 1.902225 1_565
Fe3 O2 1.902228 1_555
Fe3 O1 1.902230 1_555
