# generated using pymatgen
data_Sm2SbO2
_symmetry_space_group_name_H-M   'P 1'
_cell_length_a   7.33490767
_cell_length_b   7.33490767
_cell_length_c   7.33490767
_cell_angle_alpha   148.95485658
_cell_angle_beta   148.95485658
_cell_angle_gamma   44.47775920
_symmetry_Int_Tables_number   1
_chemical_formula_structural   Sm2SbO2
_chemical_formula_sum   'Sm2 Sb1 O2'
_cell_volume   104.64161166
_cell_formula_units_Z   1
loop_
 _symmetry_equiv_pos_site_id
 _symmetry_equiv_pos_as_xyz
  1  'x, y, z'
loop_
 _atom_site_type_symbol
 _atom_site_label
 _atom_site_symmetry_multiplicity
 _atom_site_fract_x
 _atom_site_fract_y
 _atom_site_fract_z
 _atom_site_occupancy
  Sm  Sm0  1  0.66411493  0.66411493  -0.00000000  1
  Sm  Sm1  1  0.33588507  0.33588507  0.00000000  1
  Sb  Sb0  1  -0.00000000  -0.00000000  -0.00000000  1
  O  O0  1  0.75000000  0.25000000  0.50000000  1
  O  O1  1  0.25000000  0.75000000  0.50000000  1
loop_
_geom_bond_atom_site_label_1
_geom_bond_atom_site_label_2
_geom_bond_distance
_geom_bond_site_symmetry_2
Sb0 Sm0 3.559825 1_556
Sb0 Sm0 3.559825 1_545
Sb0 Sm0 3.559825 1_444
Sb0 Sm1 3.559825 1_556
Sb0 Sm1 3.559825 1_444
Sb0 Sm0 3.559825 1_455
Sb0 Sm1 3.559825 1_545
Sb0 Sm1 3.559825 1_455
O0 Sm0 2.283244 1_545
O0 Sm1 2.283244 1_555
O0 Sm0 2.283244 1_556
O0 Sm1 2.283244 1_656
O1 Sm0 2.283244 1_455
O1 Sm1 2.283244 1_555
O1 Sm0 2.283244 1_556
O1 Sm1 2.283244 1_566
