# generated using pymatgen
data_K2Ca4Si8O21
_symmetry_space_group_name_H-M   'P 1'
_cell_length_a   6.88323100
_cell_length_b   7.19391899
_cell_length_c   11.33271883
_cell_angle_alpha   96.69197155
_cell_angle_beta   105.31884906
_cell_angle_gamma   109.12697282
_symmetry_Int_Tables_number   1
_chemical_formula_structural   K2Ca4Si8O21
_chemical_formula_sum   'K2 Ca4 Si8 O21'
_cell_volume   498.48732328
_cell_formula_units_Z   1
loop_
 _symmetry_equiv_pos_site_id
 _symmetry_equiv_pos_as_xyz
  1  'x, y, z'
loop_
 _atom_site_type_symbol
 _atom_site_label
 _atom_site_symmetry_multiplicity
 _atom_site_fract_x
 _atom_site_fract_y
 _atom_site_fract_z
 _atom_site_occupancy
  K  K0  1  0.73953800  0.70777700  0.43040300  1
  K  K1  1  0.26046200  0.29222300  0.56959700  1
  Ca  Ca0  1  0.66238300  0.78522800  0.81700900  1
  Ca  Ca1  1  0.33761700  0.21477200  0.18299100  1
  Ca  Ca2  1  0.37098900  0.73308000  0.04271100  1
  Ca  Ca3  1  0.62901100  0.26692000  0.95728900  1
  Si  Si0  1  0.09761300  0.23897400  0.88669200  1
  Si  Si1  1  0.90238700  0.76102600  0.11330800  1
  Si  Si2  1  0.17554100  0.90146000  0.74509000  1
  Si  Si3  1  0.82445900  0.09854000  0.25491000  1
  Si  Si4  1  0.66290700  0.19962200  0.47078800  1
  Si  Si5  1  0.33709300  0.80037800  0.52921200  1
  Si  Si6  1  0.87171700  0.47041200  0.74272200  1
  Si  Si7  1  0.12828300  0.52958800  0.25727800  1
  O  O0  1  0.50000000  0.00000000  0.50000000  1
  O  O1  1  0.84578200  0.34410700  0.60495300  1
  O  O2  1  0.15421800  0.65589300  0.39504700  1
  O  O3  1  0.38922600  0.91167700  0.85112100  1
  O  O4  1  0.61077400  0.08832300  0.14887900  1
  O  O5  1  0.87396300  0.12394700  0.91222900  1
  O  O6  1  0.12603700  0.87605300  0.08777100  1
  O  O7  1  0.67447700  0.69324700  0.00257700  1
  O  O8  1  0.32552300  0.30675300  0.99742300  1
  O  O9  1  0.11653700  0.10482800  0.76213200  1
  O  O10  1  0.88346300  0.89517200  0.23786800  1
  O  O11  1  0.08688900  0.45480200  0.84502300  1
  O  O12  1  0.91311100  0.54519800  0.15497700  1
  O  O13  1  0.95163400  0.71505400  0.74006200  1
  O  O14  1  0.04836600  0.28494600  0.25993800  1
  O  O15  1  0.46765300  0.68659700  0.60892500  1
  O  O16  1  0.53234700  0.31340300  0.39107500  1
  O  O17  1  0.34243800  0.58512000  0.21728600  1
  O  O18  1  0.65756200  0.41488000  0.78271400  1
  O  O19  1  0.18732800  0.88053000  0.60026700  1
  O  O20  1  0.81267200  0.11947000  0.39973300  1
loop_
_geom_bond_atom_site_label_1
_geom_bond_atom_site_label_2
_geom_bond_distance
_geom_bond_site_symmetry_2
K0 O16 2.645669 1_555
K0 O20 2.915671 1_565
K0 O10 2.917565 1_555
K0 O17 2.918478 1_555
K0 O19 2.923612 1_655
K0 O15 3.082882 1_555
K0 O2 3.116844 1_655
K0 O0 3.214362 1_565
K1 O15 2.645669 1_555
K1 O19 2.915671 1_545
K1 O9 2.917565 1_555
K1 O18 2.918478 1_555
K1 O20 2.923612 1_455
K1 O16 3.082882 1_555
K1 O1 3.116844 1_455
K1 O0 3.214362 1_555
Ca0 O7 2.266113 1_556
Ca0 O15 2.275441 1_555
Ca0 O5 2.335431 1_565
Ca0 O3 2.436192 1_555
Ca0 O13 2.540217 1_555
Ca0 O18 2.635207 1_555
Ca1 O8 2.266113 1_554
Ca1 O16 2.275441 1_555
Ca1 O6 2.335431 1_545
Ca1 O4 2.436192 1_555
Ca1 O14 2.540217 1_555
Ca1 O17 2.635207 1_555
Ca2 O7 2.348775 1_555
Ca2 O6 2.372852 1_555
Ca2 O17 2.375889 1_555
Ca2 O4 2.484500 1_565
Ca2 O11 2.631589 1_554
Ca2 O3 2.658805 1_554
Ca2 O8 2.947353 1_554
Ca3 O8 2.348775 1_555
Ca3 O5 2.372852 1_555
Ca3 O18 2.375889 1_555
Ca3 O3 2.484500 1_545
Ca3 O12 2.631589 1_556
Ca3 O4 2.658805 1_556
Ca3 O7 2.947353 1_556
O0 Si5 1.637353 1_545
O0 Si4 1.637353 1_555
O1 Si6 1.646488 1_555
O1 Si4 1.655189 1_555
O2 Si7 1.646488 1_555
O2 Si5 1.655189 1_555
O3 Si2 1.608535 1_555
O4 Si3 1.608535 1_555
O5 Si0 1.610831 1_655
O6 Si1 1.610831 1_455
O7 Si1 1.609170 1_555
O8 Si0 1.609170 1_555
O9 Si2 1.645488 1_545
O9 Si0 1.674194 1_555
O10 Si3 1.645488 1_565
O10 Si1 1.674194 1_555
O11 Si6 1.668039 1_455
O11 Si0 1.693143 1_555
O12 Si7 1.668039 1_655
O12 Si1 1.693143 1_555
O13 Si2 1.660787 1_655
O13 Si6 1.669602 1_555
O14 Si3 1.660787 1_455
O14 Si7 1.669602 1_555
O15 Si5 1.587170 1_555
O16 Si4 1.587170 1_555
O17 Si7 1.595994 1_555
O18 Si6 1.595994 1_555
O19 Si2 1.656408 1_555
O19 Si5 1.662381 1_555
O20 Si3 1.656408 1_555
O20 Si4 1.662381 1_555
