# generated using pymatgen
data_SrEu
_symmetry_space_group_name_H-M   'P 1'
_cell_length_a   8.28535929
_cell_length_b   8.28535929
_cell_length_c   13.72307036
_cell_angle_alpha   90.00000000
_cell_angle_beta   90.00000000
_cell_angle_gamma   119.99999495
_symmetry_Int_Tables_number   1
_chemical_formula_structural   SrEu
_chemical_formula_sum   'Sr8 Eu8'
_cell_volume   815.83932590
_cell_formula_units_Z   8
loop_
 _symmetry_equiv_pos_site_id
 _symmetry_equiv_pos_as_xyz
  1  'x, y, z'
loop_
 _atom_site_type_symbol
 _atom_site_label
 _atom_site_symmetry_multiplicity
 _atom_site_fract_x
 _atom_site_fract_y
 _atom_site_fract_z
 _atom_site_occupancy
  Sr  Sr0_0  1  0.16666650  0.33333350  0.00000000  1
  Sr  Sr0_1  1  0.16666650  0.33333350  0.50000000  1
  Sr  Sr0_2  1  0.16666650  0.83333350  0.00000000  1
  Sr  Sr0_3  1  0.16666650  0.83333350  0.50000000  1
  Sr  Sr0_4  1  0.66666650  0.33333350  0.00000000  1
  Sr  Sr0_5  1  0.66666650  0.33333350  0.50000000  1
  Sr  Sr0_6  1  0.66666650  0.83333350  0.00000000  1
  Sr  Sr0_7  1  0.66666650  0.83333350  0.50000000  1
  Eu  Eu0_0  1  0.33333350  0.16666650  0.25000000  1
  Eu  Eu0_1  1  0.33333350  0.16666650  0.75000000  1
  Eu  Eu0_2  1  0.33333350  0.66666650  0.25000000  1
  Eu  Eu0_3  1  0.33333350  0.66666650  0.75000000  1
  Eu  Eu0_4  1  0.83333350  0.16666650  0.25000000  1
  Eu  Eu0_5  1  0.83333350  0.16666650  0.75000000  1
  Eu  Eu0_6  1  0.83333350  0.66666650  0.25000000  1
  Eu  Eu0_7  1  0.83333350  0.66666650  0.75000000  1
loop_
_geom_bond_atom_site_label_1
_geom_bond_atom_site_label_2
_geom_bond_distance
_geom_bond_site_symmetry_2
Sr0_0 Sr0_2 4.142680 1_545
Sr0_0 Sr0_2 4.142680 1_555
Sr0_0 Sr0_4 4.142680 1_455
Sr0_0 Sr0_4 4.142680 1_555
Sr0_0 Sr0_6 4.142680 1_555
Sr0_0 Sr0_6 4.142680 1_445
Sr0_1 Sr0_5 4.142680 1_555
Sr0_1 Sr0_3 4.142680 1_555
Sr0_1 Sr0_3 4.142680 1_545
Sr0_1 Sr0_5 4.142680 1_455
Sr0_1 Sr0_7 4.142680 1_555
Sr0_1 Sr0_7 4.142680 1_445
Sr0_2 Sr0_6 4.142680 1_455
Sr0_2 Sr0_6 4.142680 1_555
Sr0_2 Sr0_4 4.142680 1_565
Sr0_2 Sr0_4 4.142680 1_455
Sr0_3 Sr0_7 4.142680 1_455
Sr0_3 Sr0_7 4.142680 1_555
Sr0_3 Sr0_5 4.142680 1_455
Sr0_3 Sr0_5 4.142680 1_565
Sr0_4 Sr0_6 4.142680 1_555
Sr0_4 Sr0_6 4.142680 1_545
Sr0_5 Sr0_7 4.142680 1_545
Sr0_5 Sr0_7 4.142680 1_555
Eu0_0 Eu0_2 4.142680 1_545
Eu0_0 Eu0_2 4.142680 1_555
Eu0_0 Eu0_4 4.142680 1_455
Eu0_0 Eu0_4 4.142680 1_555
Eu0_0 Eu0_6 4.142680 1_555
Eu0_0 Eu0_6 4.142680 1_445
Eu0_0 Sr0_5 4.182195 1_555
Eu0_0 Sr0_4 4.182195 1_555
Eu0_0 Sr0_3 4.182195 1_545
Eu0_0 Sr0_2 4.182195 1_545
Eu0_0 Sr0_0 4.182199 1_555
Eu0_0 Sr0_1 4.182199 1_555
Eu0_1 Eu0_3 4.142680 1_545
Eu0_1 Eu0_3 4.142680 1_555
Eu0_1 Eu0_5 4.142680 1_455
Eu0_1 Eu0_5 4.142680 1_555
Eu0_1 Eu0_7 4.142680 1_555
Eu0_1 Eu0_7 4.142680 1_445
Eu0_1 Sr0_5 4.182195 1_555
Eu0_1 Sr0_4 4.182195 1_556
Eu0_1 Sr0_2 4.182195 1_546
Eu0_1 Sr0_3 4.182195 1_545
Eu0_1 Sr0_0 4.182199 1_556
Eu0_1 Sr0_1 4.182199 1_555
Eu0_2 Eu0_6 4.142680 1_555
Eu0_2 Eu0_6 4.142680 1_455
Eu0_2 Eu0_4 4.142680 1_455
Eu0_2 Eu0_4 4.142680 1_565
Eu0_2 Sr0_0 4.182195 1_555
Eu0_2 Sr0_6 4.182195 1_555
Eu0_2 Sr0_7 4.182195 1_555
Eu0_2 Sr0_1 4.182195 1_555
Eu0_2 Sr0_2 4.182199 1_555
Eu0_2 Sr0_3 4.182199 1_555
Eu0_3 Eu0_7 4.142680 1_555
Eu0_3 Eu0_7 4.142680 1_455
Eu0_3 Eu0_5 4.142680 1_455
Eu0_3 Eu0_5 4.142680 1_565
Eu0_3 Sr0_6 4.182195 1_556
Eu0_3 Sr0_0 4.182195 1_556
Eu0_3 Sr0_7 4.182195 1_555
Eu0_3 Sr0_1 4.182195 1_555
Eu0_3 Sr0_2 4.182199 1_556
Eu0_3 Sr0_3 4.182199 1_555
Eu0_4 Eu0_6 4.142680 1_545
Eu0_4 Eu0_6 4.142680 1_555
Eu0_4 Sr0_6 4.182195 1_545
Eu0_4 Sr0_7 4.182195 1_545
Eu0_4 Sr0_1 4.182195 1_655
Eu0_4 Sr0_0 4.182195 1_655
Eu0_4 Sr0_5 4.182199 1_555
Eu0_4 Sr0_4 4.182199 1_555
Eu0_5 Eu0_7 4.142680 1_555
Eu0_5 Eu0_7 4.142680 1_545
Eu0_5 Sr0_6 4.182195 1_546
Eu0_5 Sr0_7 4.182195 1_545
Eu0_5 Sr0_0 4.182195 1_656
Eu0_5 Sr0_1 4.182195 1_655
Eu0_5 Sr0_5 4.182199 1_555
Eu0_5 Sr0_4 4.182199 1_556
Eu0_6 Sr0_5 4.182195 1_555
Eu0_6 Sr0_4 4.182195 1_555
Eu0_6 Sr0_3 4.182195 1_655
Eu0_6 Sr0_2 4.182195 1_655
Eu0_6 Sr0_6 4.182199 1_555
Eu0_6 Sr0_7 4.182199 1_555
Eu0_7 Sr0_5 4.182195 1_555
Eu0_7 Sr0_4 4.182195 1_556
Eu0_7 Sr0_2 4.182195 1_656
Eu0_7 Sr0_3 4.182195 1_655
Eu0_7 Sr0_6 4.182199 1_556
Eu0_7 Sr0_7 4.182199 1_555
