# generated using pymatgen
data_Al9Fe2
_symmetry_space_group_name_H-M   'P 1'
_cell_length_a   6.11011854
_cell_length_b   6.30829900
_cell_length_c   8.68034517
_cell_angle_alpha   90.00000000
_cell_angle_beta   95.19136994
_cell_angle_gamma   90.00000000
_symmetry_Int_Tables_number   1
_chemical_formula_structural   Al9Fe2
_chemical_formula_sum   'Al18 Fe4'
_cell_volume   333.20674053
_cell_formula_units_Z   2
loop_
 _symmetry_equiv_pos_site_id
 _symmetry_equiv_pos_as_xyz
  1  'x, y, z'
loop_
 _atom_site_type_symbol
 _atom_site_label
 _atom_site_symmetry_multiplicity
 _atom_site_fract_x
 _atom_site_fract_y
 _atom_site_fract_z
 _atom_site_occupancy
  Al  Al0  1  0.00000000  0.50000000  0.50000000  1
  Al  Al1  1  0.00000000  0.00000000  0.00000000  1
  Al  Al2  1  0.58375700  0.45321400  0.23165900  1
  Al  Al3  1  0.41624300  0.95321400  0.26834100  1
  Al  Al4  1  0.41624300  0.54678600  0.76834100  1
  Al  Al5  1  0.58375700  0.04678600  0.73165900  1
  Al  Al6  1  0.92091200  0.80101800  0.27293100  1
  Al  Al7  1  0.07908800  0.30101800  0.22706900  1
  Al  Al8  1  0.07908800  0.19898200  0.72706900  1
  Al  Al9  1  0.92091200  0.69898200  0.77293100  1
  Al  Al10  1  0.60953500  0.68688300  0.50393500  1
  Al  Al11  1  0.39046500  0.18688300  0.99606500  1
  Al  Al12  1  0.39046500  0.31311700  0.49606500  1
  Al  Al13  1  0.60953500  0.81311700  0.00393500  1
  Al  Al14  1  0.78032300  0.11783400  0.45389000  1
  Al  Al15  1  0.21967700  0.61783400  0.04611000  1
  Al  Al16  1  0.21967700  0.88216600  0.54611000  1
  Al  Al17  1  0.78032300  0.38216600  0.95389000  1
  Fe  Fe0  1  0.73640300  0.11792800  0.16543300  1
  Fe  Fe1  1  0.26359700  0.61792800  0.33456700  1
  Fe  Fe2  1  0.26359700  0.88207200  0.83456700  1
  Fe  Fe3  1  0.73640300  0.38207200  0.66543300  1
loop_
_geom_bond_atom_site_label_1
_geom_bond_atom_site_label_2
_geom_bond_distance
_geom_bond_site_symmetry_2
Al0 Fe1 2.372377 1_555
Al0 Fe3 2.372377 1_455
Al0 Al12 2.664157 1_555
Al0 Al10 2.664157 1_455
Al0 Al8 2.748091 1_555
Al0 Al6 2.748091 1_455
Al0 Al9 2.762086 1_455
Al0 Al7 2.762086 1_555
Al0 Al16 2.770679 1_555
Al0 Al14 2.770679 1_455
Al1 Fe2 2.372377 1_544
Al1 Fe0 2.372377 1_455
Al1 Al11 2.664157 1_554
Al1 Al13 2.664157 1_445
Al1 Al7 2.748091 1_555
Al1 Al9 2.748091 1_444
Al1 Al8 2.762086 1_554
Al1 Al6 2.762086 1_445
Al1 Al15 2.770679 1_545
Al1 Al17 2.770679 1_454
Al2 Fe0 2.402286 1_555
Al2 Fe1 2.453692 1_555
Al2 Al6 3.008735 1_555
Al3 Fe1 2.402286 1_555
Al3 Fe0 2.453692 1_565
Al3 Al7 3.008735 1_565
Al4 Fe2 2.402286 1_555
Al4 Fe3 2.453692 1_555
Al4 Al8 3.008735 1_555
Al5 Fe3 2.402286 1_555
Al5 Fe2 2.453692 1_545
Al5 Al9 3.008735 1_545
Al6 Fe1 2.408673 1_655
Al6 Fe0 2.438844 1_565
Al7 Fe0 2.408673 1_455
Al7 Fe1 2.438844 1_555
Al8 Fe3 2.408673 1_455
Al8 Fe2 2.438844 1_545
Al9 Fe2 2.408673 1_655
Al9 Fe3 2.438844 1_555
Al10 Fe3 2.463080 1_555
Al10 Fe1 2.501217 1_555
Al10 Al12 2.709090 1_555
Al10 Al16 2.735639 1_555
Al10 Al2 2.777800 1_555
Al10 Al4 2.816750 1_555
Al10 Al3 2.821820 1_555
Al10 Al9 2.876408 1_555
Al10 Al14 2.958094 1_565
Al10 Al6 2.974774 1_555
Al10 Al5 3.023771 1_565
Al11 Fe2 2.463080 1_545
Al11 Fe0 2.501217 1_556
Al11 Al13 2.709090 1_546
Al11 Al17 2.735639 1_555
Al11 Al3 2.777800 1_546
Al11 Al5 2.816750 1_555
Al11 Al2 2.821820 1_556
Al11 Al8 2.876408 1_555
Al11 Al15 2.958094 1_556
Al11 Al7 2.974774 1_556
Al11 Al4 3.023771 1_555
Al12 Fe1 2.463080 1_555
Al12 Fe3 2.501217 1_555
Al12 Al14 2.735639 1_555
Al12 Al4 2.777800 1_555
Al12 Al2 2.816750 1_555
Al12 Al5 2.821820 1_555
Al12 Al7 2.876408 1_555
Al12 Al16 2.958094 1_545
Al12 Al8 2.974774 1_555
Al12 Al3 3.023771 1_545
Al13 Fe0 2.463080 1_565
Al13 Fe2 2.501217 1_554
Al13 Al15 2.735639 1_555
Al13 Al5 2.777800 1_564
Al13 Al3 2.816750 1_555
Al13 Al4 2.821820 1_554
Al13 Al6 2.876408 1_555
Al13 Al17 2.958094 1_554
Al13 Al9 2.974774 1_554
Al13 Al2 3.023771 1_555
Al14 Fe0 2.493986 1_555
Al14 Fe3 2.512289 1_555
Al14 Al6 2.728322 1_545
Al14 Al3 2.823629 1_545
Al14 Al5 2.825063 1_555
Al14 Al8 2.904154 1_655
Al14 Al7 3.032277 1_655
Al14 Al2 3.036531 1_555
Al14 Al16 3.109446 1_645
Al15 Fe1 2.493986 1_555
Al15 Fe2 2.512289 1_554
Al15 Al7 2.728322 1_555
Al15 Al2 2.823629 1_555
Al15 Al4 2.825063 1_554
Al15 Al9 2.904154 1_454
Al15 Al6 3.032277 1_455
Al15 Al3 3.036531 1_555
Al15 Al17 3.109446 1_454
Al16 Fe2 2.493986 1_555
Al16 Fe1 2.512289 1_555
Al16 Al8 2.728322 1_565
Al16 Al5 2.823629 1_565
Al16 Al3 2.825063 1_555
Al16 Al6 2.904154 1_455
Al16 Al9 3.032277 1_455
Al16 Al4 3.036531 1_555
Al17 Fe3 2.493986 1_555
Al17 Fe0 2.512289 1_556
Al17 Al9 2.728322 1_555
Al17 Al4 2.823629 1_555
Al17 Al2 2.825063 1_556
Al17 Al7 2.904154 1_656
Al17 Al8 3.032277 1_655
Al17 Al5 3.036531 1_555
