# generated using pymatgen
data_Na3Li2Al(SiO4)2
_symmetry_space_group_name_H-M   'P 1'
_cell_length_a   10.30263704
_cell_length_b   10.30263704
_cell_length_c   7.15377000
_cell_angle_alpha   90.00000000
_cell_angle_beta   90.00000000
_cell_angle_gamma   92.46139282
_symmetry_Int_Tables_number   1
_chemical_formula_structural   Na3Li2Al(SiO4)2
_chemical_formula_sum   'Na12 Li8 Al4 Si8 O32'
_cell_volume   758.63155412
_cell_formula_units_Z   4
loop_
 _symmetry_equiv_pos_site_id
 _symmetry_equiv_pos_as_xyz
  1  'x, y, z'
loop_
 _atom_site_type_symbol
 _atom_site_label
 _atom_site_symmetry_multiplicity
 _atom_site_fract_x
 _atom_site_fract_y
 _atom_site_fract_z
 _atom_site_occupancy
  Na  Na0  1  0.87734800  0.87734800  0.00000000  1
  Na  Na1  1  0.37734800  0.37734800  0.50000000  1
  Na  Na2  1  0.12265200  0.12265200  0.00000000  1
  Na  Na3  1  0.62265200  0.62265200  0.50000000  1
  Na  Na4  1  0.09765000  0.40235000  0.75000000  1
  Na  Na5  1  0.40235000  0.09765000  0.25000000  1
  Na  Na6  1  0.90235000  0.59765000  0.25000000  1
  Na  Na7  1  0.59765000  0.90235000  0.75000000  1
  Na  Na8  1  0.86581500  0.13418500  0.24789100  1
  Na  Na9  1  0.13418500  0.86581500  0.75210900  1
  Na  Na10  1  0.63418500  0.36581500  0.74789100  1
  Na  Na11  1  0.36581500  0.63418500  0.25210900  1
  Li  Li0  1  0.16300100  0.64827900  0.51412000  1
  Li  Li1  1  0.64827900  0.16300100  0.48588000  1
  Li  Li2  1  0.14827900  0.66300100  0.01412000  1
  Li  Li3  1  0.66300100  0.14827900  0.98588000  1
  Li  Li4  1  0.83699900  0.35172100  0.48588000  1
  Li  Li5  1  0.35172100  0.83699900  0.51412000  1
  Li  Li6  1  0.85172100  0.33699900  0.98588000  1
  Li  Li7  1  0.33699900  0.85172100  0.01412000  1
  Al  Al0  1  0.83809100  0.83809100  0.50000000  1
  Al  Al1  1  0.33809100  0.33809100  0.00000000  1
  Al  Al2  1  0.16190900  0.16190900  0.50000000  1
  Al  Al3  1  0.66190900  0.66190900  0.00000000  1
  Si  Si0  1  0.09808300  0.90191700  0.28469200  1
  Si  Si1  1  0.90191700  0.09808300  0.71530800  1
  Si  Si2  1  0.40191700  0.59808300  0.78469200  1
  Si  Si3  1  0.59808300  0.40191700  0.21530800  1
  Si  Si4  1  0.90450100  0.59549900  0.75000000  1
  Si  Si5  1  0.59549900  0.90450100  0.25000000  1
  Si  Si6  1  0.09549900  0.40450100  0.25000000  1
  Si  Si7  1  0.40450100  0.09549900  0.75000000  1
  O  O0  1  0.17121600  0.82878400  0.45011600  1
  O  O1  1  0.82878400  0.17121600  0.54988400  1
  O  O2  1  0.32878400  0.67121600  0.95011600  1
  O  O3  1  0.67121600  0.32878400  0.04988400  1
  O  O4  1  0.13397800  0.86602200  0.06921500  1
  O  O5  1  0.86602200  0.13397800  0.93078500  1
  O  O6  1  0.36602200  0.63397800  0.56921500  1
  O  O7  1  0.63397800  0.36602200  0.43078500  1
  O  O8  1  0.93575000  0.87701600  0.30476200  1
  O  O9  1  0.87701600  0.93575000  0.69523800  1
  O  O10  1  0.37701600  0.43575000  0.80476200  1
  O  O11  1  0.43575000  0.37701600  0.19523800  1
  O  O12  1  0.06425000  0.12298400  0.69523800  1
  O  O13  1  0.12298400  0.06425000  0.30476200  1
  O  O14  1  0.62298400  0.56425000  0.19523800  1
  O  O15  1  0.56425000  0.62298400  0.80476200  1
  O  O16  1  0.82868300  0.65298100  0.93896700  1
  O  O17  1  0.65298100  0.82868300  0.06103300  1
  O  O18  1  0.15298100  0.32868300  0.43896700  1
  O  O19  1  0.32868300  0.15298100  0.56103300  1
  O  O20  1  0.17131700  0.34701900  0.06103300  1
  O  O21  1  0.34701900  0.17131700  0.93896700  1
  O  O22  1  0.84701900  0.67131700  0.56103300  1
  O  O23  1  0.67131700  0.84701900  0.43896700  1
  O  O24  1  0.06058700  0.62876900  0.76717600  1
  O  O25  1  0.62876900  0.06058700  0.23282400  1
  O  O26  1  0.12876900  0.56058700  0.26717600  1
  O  O27  1  0.56058700  0.12876900  0.73282400  1
  O  O28  1  0.93941300  0.37123100  0.23282400  1
  O  O29  1  0.37123100  0.93941300  0.76717600  1
  O  O30  1  0.87123100  0.43941300  0.73282400  1
  O  O31  1  0.43941300  0.87123100  0.26717600  1
loop_
_geom_bond_atom_site_label_1
_geom_bond_atom_site_label_2
_geom_bond_distance
_geom_bond_site_symmetry_2
Na0 O9 2.261744 1_554
Na0 O8 2.261744 1_555
Na0 O16 2.384498 1_554
Na0 O17 2.384498 1_555
Na0 O5 2.697377 1_564
Na0 O4 2.697377 1_655
Na1 O10 2.261744 1_555
Na1 O11 2.261744 1_555
Na1 O18 2.384498 1_555
Na1 O19 2.384498 1_555
Na1 O6 2.697377 1_555
Na1 O7 2.697377 1_555
Na2 O12 2.261744 1_554
Na2 O13 2.261744 1_555
Na2 O20 2.384498 1_555
Na2 O21 2.384498 1_554
Na2 O5 2.697377 1_454
Na2 O4 2.697377 1_545
Na3 O15 2.261744 1_555
Na3 O14 2.261744 1_555
Na3 O22 2.384498 1_555
Na3 O23 2.384498 1_555
Na3 O7 2.697377 1_555
Na3 O6 2.697377 1_555
Na4 O24 2.383057 1_555
Na4 O30 2.383057 1_455
Na4 O20 2.426734 1_556
Na4 O18 2.426734 1_555
Na4 O10 2.910479 1_555
Na4 O12 2.910479 1_555
Na5 O31 2.383057 1_545
Na5 O25 2.383057 1_555
Na5 O19 2.426734 1_555
Na5 O21 2.426734 1_554
Na5 O13 2.910479 1_555
Na5 O11 2.910479 1_555
Na6 O26 2.383057 1_655
Na6 O28 2.383057 1_555
Na6 O16 2.426734 1_554
Na6 O22 2.426734 1_555
Na6 O8 2.910479 1_555
Na6 O14 2.910479 1_555
Na7 O27 2.383057 1_565
Na7 O29 2.383057 1_555
Na7 O17 2.426734 1_556
Na7 O23 2.426734 1_555
Na7 O15 2.910479 1_555
Na7 O9 2.910479 1_555
Na8 O1 2.229549 1_555
Na8 O5 2.268505 1_554
Na8 O25 2.528210 1_555
Na8 O28 2.528210 1_555
Na8 O13 2.805099 1_655
Na8 O8 2.805099 1_545
Na9 O0 2.229549 1_555
Na9 O4 2.268505 1_556
Na9 O29 2.528210 1_555
Na9 O24 2.528210 1_555
Na9 O12 2.805099 1_565
Na9 O9 2.805099 1_455
Na10 O3 2.229549 1_556
Na10 O7 2.268505 1_555
Na10 O30 2.528210 1_555
Na10 O27 2.528210 1_555
Na10 O15 2.805099 1_555
Na10 O10 2.805099 1_555
Na11 O2 2.229549 1_554
Na11 O6 2.268505 1_555
Na11 O26 2.528210 1_555
Na11 O31 2.528210 1_555
Na11 O14 2.805099 1_555
Na11 O11 2.805099 1_555
Li0 O0 1.913554 1_555
Li0 O26 2.008497 1_555
Li0 O24 2.100642 1_555
Li0 O6 2.139750 1_555
Li1 O1 1.913554 1_555
Li1 O27 2.008497 1_555
Li1 O25 2.100642 1_555
Li1 O7 2.139750 1_555
Li2 O2 1.913554 1_554
Li2 O24 2.008497 1_554
Li2 O26 2.100642 1_555
Li2 O4 2.139750 1_555
Li3 O3 1.913554 1_556
Li3 O25 2.008497 1_556
Li3 O27 2.100642 1_555
Li3 O5 2.139750 1_555
Li4 O1 1.913554 1_555
Li4 O30 2.008497 1_555
Li4 O28 2.100642 1_555
Li4 O7 2.139750 1_555
Li5 O0 1.913554 1_555
Li5 O31 2.008497 1_555
Li5 O29 2.100642 1_555
Li5 O6 2.139750 1_555
Li6 O3 1.913554 1_556
Li6 O28 2.008497 1_556
Li6 O30 2.100642 1_555
Li6 O5 2.139750 1_555
Li7 O2 1.913554 1_554
Li7 O29 2.008497 1_554
Li7 O31 2.100642 1_555
Li7 O4 2.139750 1_555
Al0 O9 1.757621 1_555
Al0 O8 1.757621 1_555
Al0 O23 1.779023 1_555
Al0 O22 1.779023 1_555
Al1 O10 1.757621 1_554
Al1 O11 1.757621 1_555
Al1 O20 1.779023 1_555
Al1 O21 1.779023 1_554
Al2 O12 1.757621 1_555
Al2 O13 1.757621 1_555
Al2 O19 1.779023 1_555
Al2 O18 1.779023 1_555
Al3 O14 1.757621 1_555
Al3 O15 1.757621 1_554
Al3 O16 1.779023 1_554
Al3 O17 1.779023 1_555
O0 Si0 1.607676 1_555
O1 Si1 1.607676 1_555
O2 Si2 1.607676 1_555
O3 Si3 1.607676 1_555
O4 Si0 1.631383 1_555
O5 Si1 1.631383 1_555
O6 Si2 1.631383 1_555
O7 Si3 1.631383 1_555
O8 Si0 1.687214 1_655
O9 Si1 1.687214 1_565
O10 Si2 1.687214 1_555
O11 Si3 1.687214 1_555
O12 Si1 1.687214 1_455
O13 Si0 1.687214 1_545
O14 Si3 1.687214 1_555
O15 Si2 1.687214 1_555
O16 Si4 1.681679 1_555
O17 Si5 1.681679 1_555
O18 Si6 1.681679 1_555
O19 Si7 1.681679 1_555
O20 Si6 1.681679 1_555
O21 Si7 1.681679 1_555
O22 Si4 1.681679 1_555
O23 Si5 1.681679 1_555
O24 Si4 1.634387 1_455
O25 Si5 1.634387 1_545
O26 Si6 1.634387 1_555
O27 Si7 1.634387 1_555
O28 Si6 1.634387 1_655
O29 Si7 1.634387 1_565
O30 Si4 1.634387 1_555
O31 Si5 1.634387 1_555
