# generated using pymatgen
data_CaV4O6
_symmetry_space_group_name_H-M   'P 1'
_cell_length_a   3.11118300
_cell_length_b   5.26347122
_cell_length_c   15.43700300
_cell_angle_alpha   90.00050749
_cell_angle_beta   90.00227026
_cell_angle_gamma   72.81275371
_symmetry_Int_Tables_number   1
_chemical_formula_structural   CaV4O6
_chemical_formula_sum   'Ca2 V8 O12'
_cell_volume   241.50195548
_cell_formula_units_Z   2
loop_
 _symmetry_equiv_pos_site_id
 _symmetry_equiv_pos_as_xyz
  1  'x, y, z'
loop_
 _atom_site_type_symbol
 _atom_site_label
 _atom_site_symmetry_multiplicity
 _atom_site_fract_x
 _atom_site_fract_y
 _atom_site_fract_z
 _atom_site_occupancy
  Ca  Ca0  1  0.34899500  0.30177400  0.74999100  1
  Ca  Ca1  1  0.65103400  0.69821100  0.25000800  1
  V  V0  1  0.86140000  0.27725600  0.95739200  1
  V  V1  1  0.86128900  0.27726700  0.54260300  1
  V  V2  1  0.40246600  0.19524500  0.36606400  1
  V  V3  1  0.40244900  0.19523200  0.13394500  1
  V  V4  1  0.13862600  0.72271800  0.04259000  1
  V  V5  1  0.13864500  0.72270700  0.45741100  1
  V  V6  1  0.59755900  0.80475500  0.63397600  1
  V  V7  1  0.59757300  0.80476600  0.86602300  1
  O  O0  1  0.49994800  0.00004400  0.49999500  1
  O  O1  1  0.49997600  0.00003200  0.99999900  1
  O  O2  1  0.67807400  0.64362700  0.75000100  1
  O  O3  1  0.32194600  0.35632800  0.25000600  1
  O  O4  1  0.96996500  0.05992500  0.84133700  1
  O  O5  1  0.03009300  0.94006900  0.15866500  1
  O  O6  1  0.03018200  0.94008300  0.34134300  1
  O  O7  1  0.96990600  0.05991400  0.65865300  1
  O  O8  1  0.22364000  0.55258400  0.91159400  1
  O  O9  1  0.77631400  0.44743500  0.08839600  1
  O  O10  1  0.77626500  0.44745700  0.41160600  1
  O  O11  1  0.22364800  0.55257100  0.58840400  1
loop_
_geom_bond_atom_site_label_1
_geom_bond_atom_site_label_2
_geom_bond_distance
_geom_bond_site_symmetry_2
Ca0 O2 2.318306 1_555
Ca0 O2 2.318402 1_455
Ca0 O4 2.426262 1_455
Ca0 O7 2.426279 1_455
Ca0 O7 2.426355 1_555
Ca0 O4 2.426452 1_555
Ca0 O11 2.795088 1_555
Ca0 O8 2.795345 1_555
Ca1 O3 2.318464 1_655
Ca1 O3 2.318468 1_555
Ca1 O6 2.426229 1_555
Ca1 O5 2.426324 1_655
Ca1 O5 2.426381 1_555
Ca1 O6 2.426412 1_655
Ca1 O10 2.795142 1_555
Ca1 O9 2.795391 1_555
O0 V1 2.189738 1_555
O0 V5 2.190033 1_545
O0 V1 2.190087 1_455
O0 V5 2.190299 1_645
O0 V2 2.288660 1_555
O0 V6 2.289547 1_545
O1 V0 2.189861 1_455
O1 V0 2.189955 1_555
O1 V4 2.190105 1_546
O1 V4 2.190139 1_646
O1 V3 2.288872 1_556
O1 V7 2.289433 1_545
O2 V7 1.965795 1_555
O2 V6 1.965810 1_555
O3 V2 1.966181 1_555
O3 V3 1.966255 1_555
O4 V7 2.052038 1_545
O4 V7 2.052250 1_645
O4 V0 2.098551 1_555
O5 V3 2.052068 1_565
O5 V3 2.052440 1_465
O5 V4 2.098867 1_555
O6 V2 2.051875 1_565
O6 V2 2.052635 1_465
O6 V5 2.098835 1_555
O7 V6 2.051885 1_545
O7 V6 2.052355 1_645
O7 V1 2.098537 1_555
O8 V7 2.126653 1_455
O8 V7 2.126707 1_555
O8 V4 2.195709 1_556
O8 V0 2.198947 1_455
O8 V0 2.199431 1_555
O9 V3 2.126527 1_555
O9 V3 2.126734 1_655
O9 V0 2.195910 1_554
O9 V4 2.198953 1_655
O9 V4 2.199220 1_555
O10 V2 2.126340 1_555
O10 V2 2.126909 1_655
O10 V1 2.195828 1_555
O10 V5 2.198920 1_655
O10 V5 2.199039 1_555
O11 V6 2.126632 1_555
O11 V6 2.126755 1_455
O11 V5 2.195665 1_555
O11 V1 2.199085 1_455
O11 V1 2.199177 1_555
