# generated using pymatgen
data_Ca2Zr5Ti2O16
_symmetry_space_group_name_H-M   'P 1'
_cell_length_a   12.04192997
_cell_length_b   12.04192997
_cell_length_c   12.04192997
_cell_angle_alpha   129.60445298
_cell_angle_beta   100.50648155
_cell_angle_gamma   100.37962552
_symmetry_Int_Tables_number   1
_chemical_formula_structural   Ca2Zr5Ti2O16
_chemical_formula_sum   'Ca8 Zr20 Ti8 O64'
_cell_volume   1217.34480845
_cell_formula_units_Z   4
loop_
 _symmetry_equiv_pos_site_id
 _symmetry_equiv_pos_as_xyz
  1  'x, y, z'
loop_
 _atom_site_type_symbol
 _atom_site_label
 _atom_site_symmetry_multiplicity
 _atom_site_fract_x
 _atom_site_fract_y
 _atom_site_fract_z
 _atom_site_occupancy
  Ca  Ca0  1  0.50040800  0.79443900  0.45798200  1
  Ca  Ca1  1  0.83645700  0.29443900  0.29403100  1
  Ca  Ca2  1  0.00044700  0.20935800  0.04247900  1
  Ca  Ca3  1  0.66687900  0.70935800  0.20891100  1
  Ca  Ca4  1  0.16687900  0.95796800  0.95752100  1
  Ca  Ca5  1  0.50044700  0.45796800  0.79108900  1
  Ca  Ca6  1  0.33645700  0.04242600  0.54201800  1
  Ca  Ca7  1  0.00040800  0.54242600  0.70596900  1
  Zr  Zr0  1  0.82182200  0.98076100  0.62324300  1
  Zr  Zr1  1  0.85751800  0.48076100  0.15894000  1
  Zr  Zr2  1  0.31906900  0.37246900  0.23295000  1
  Zr  Zr3  1  0.63951900  0.87246900  0.05339900  1
  Zr  Zr4  1  0.68266700  0.02341600  0.87983500  1
  Zr  Zr5  1  0.64358100  0.52341600  0.34074900  1
  Zr  Zr6  1  0.18031900  0.62900200  0.27430400  1
  Zr  Zr7  1  0.85469800  0.12900200  0.44868300  1
  Zr  Zr8  1  0.14358100  0.80283200  0.12016500  1
  Zr  Zr9  1  0.18266700  0.30283200  0.65925100  1
  Zr  Zr10  1  0.35469800  0.90601500  0.72569600  1
  Zr  Zr11  1  0.68031900  0.40601500  0.55131700  1
  Zr  Zr12  1  0.35751800  0.19857900  0.37675700  1
  Zr  Zr13  1  0.32182200  0.69857900  0.84106000  1
  Zr  Zr14  1  0.13951900  0.08612000  0.76705000  1
  Zr  Zr15  1  0.81906900  0.58612000  0.94660100  1
  Zr  Zr16  1  0.50109100  0.14138800  0.11086000  1
  Zr  Zr17  1  0.53052800  0.64138800  0.64029700  1
  Zr  Zr18  1  0.03052800  0.39023000  0.88914000  1
  Zr  Zr19  1  0.00109100  0.89023000  0.35970300  1
  Ti  Ti0  1  0.16947100  0.46488800  0.46443300  1
  Ti  Ti1  1  0.50045500  0.96488800  0.29541700  1
  Ti  Ti2  1  0.66947100  0.20503800  0.70458300  1
  Ti  Ti3  1  0.00045500  0.70503800  0.53556700  1
  Ti  Ti4  1  0.34307300  0.55050900  0.05085000  1
  Ti  Ti5  1  0.99965900  0.05050900  0.20743600  1
  Ti  Ti6  1  0.84307300  0.79222300  0.79256400  1
  Ti  Ti7  1  0.49965900  0.29222300  0.94915000  1
  O  O0  1  0.98689200  0.57178200  0.92588500  1
  O  O1  1  0.14589700  0.07178200  0.58489000  1
  O  O2  1  0.48652500  0.67451600  0.81943200  1
  O  O3  1  0.35508400  0.17451600  0.18799200  1
  O  O4  1  0.51360300  0.42753100  0.57395900  1
  O  O5  1  0.35357200  0.92753100  0.91392800  1
  O  O6  1  0.01389700  0.32326100  0.67511800  1
  O  O7  1  0.14814300  0.82326100  0.30936400  1
  O  O8  1  0.85357200  0.93964300  0.42604100  1
  O  O9  1  0.01360300  0.43964300  0.08607200  1
  O  O10  1  0.64814300  0.33877900  0.32488200  1
  O  O11  1  0.51389700  0.83877900  0.69063600  1
  O  O12  1  0.64589700  0.06100700  0.07411500  1
  O  O13  1  0.48689200  0.56100700  0.41511000  1
  O  O14  1  0.85508400  0.66709200  0.18056800  1
  O  O15  1  0.98652500  0.16709200  0.81200800  1
  O  O16  1  0.16392300  0.03594000  0.21417200  1
  O  O17  1  0.32176800  0.53594000  0.87201800  1
  O  O18  1  0.66459000  0.96586700  0.28772500  1
  O  O19  1  0.17814200  0.46586700  0.30127700  1
  O  O20  1  0.33412000  0.96146800  0.28217300  1
  O  O21  1  0.17929500  0.46146800  0.62734800  1
  O  O22  1  0.83437800  0.03420200  0.21309300  1
  O  O23  1  0.32110900  0.53420200  0.19982400  1
  O  O24  1  0.67929500  0.05194700  0.71782700  1
  O  O25  1  0.83412000  0.55194700  0.37265200  1
  O  O26  1  0.82110900  0.62128500  0.78690700  1
  O  O27  1  0.33437800  0.12128500  0.80017600  1
  O  O28  1  0.82176800  0.94975100  0.78582800  1
  O  O29  1  0.66392300  0.44975100  0.12798200  1
  O  O30  1  0.67814200  0.37686500  0.71227500  1
  O  O31  1  0.16459000  0.87686500  0.69872300  1
  O  O32  1  0.52882300  0.11325400  0.92081700  1
  O  O33  1  0.69243700  0.61325400  0.58443000  1
  O  O34  1  0.03243600  0.66129100  0.36259700  1
  O  O35  1  0.79869400  0.16129100  0.62885500  1
  O  O36  1  0.96762900  0.88837600  0.59065000  1
  O  O37  1  0.79772600  0.38837600  0.92074700  1
  O  O38  1  0.47161300  0.32998600  0.13880100  1
  O  O39  1  0.69118500  0.82998600  0.85837300  1
  O  O40  1  0.29772600  0.37697900  0.40935000  1
  O  O41  1  0.46762900  0.87697900  0.07925300  1
  O  O42  1  0.19118500  0.33281200  0.86119900  1
  O  O43  1  0.97161300  0.83281200  0.14162700  1
  O  O44  1  0.19243700  0.60800600  0.07918300  1
  O  O45  1  0.02882300  0.10800600  0.41557000  1
  O  O46  1  0.29869400  0.66983900  0.63740300  1
  O  O47  1  0.53243600  0.16983900  0.37114500  1
  O  O48  1  0.17947500  0.74909200  0.92822400  1
  O  O49  1  0.32086800  0.24909300  0.56961700  1
  O  O50  1  0.67965900  0.67965900  0.00000000  1
  O  O51  1  0.17965900  0.17965900  0.00000000  1
  O  O52  1  0.82088500  0.32088500  0.50000000  1
  O  O53  1  0.32088500  0.82088500  0.50000000  1
  O  O54  1  0.67947500  0.75125100  0.43038300  1
  O  O55  1  0.82086800  0.25125100  0.07177600  1
  O  O56  1  0.03693000  0.24975900  0.28808400  1
  O  O57  1  0.46167400  0.74975900  0.21282900  1
  O  O58  1  0.53724800  0.03724800  0.50000000  1
  O  O59  1  0.03724800  0.53724800  0.50000000  1
  O  O60  1  0.96092200  0.96092200  0.00000000  1
  O  O61  1  0.46092200  0.46092200  0.00000000  1
  O  O62  1  0.53693000  0.24884500  0.78717100  1
  O  O63  1  0.96167400  0.74884500  0.71191600  1
loop_
_geom_bond_atom_site_label_1
_geom_bond_atom_site_label_2
_geom_bond_distance
_geom_bond_site_symmetry_2
Ca0 O53 2.339310 1_555
Ca0 O54 2.340018 1_555
Ca0 O11 2.460901 1_555
Ca0 O13 2.479687 1_555
Ca0 O58 2.562512 1_565
Ca0 O57 2.569892 1_555
Ca0 O24 2.609754 1_565
Ca0 O23 2.615277 1_555
Ca1 O52 2.339310 1_555
Ca1 O55 2.340018 1_555
Ca1 O10 2.460901 1_555
Ca1 O12 2.479687 1_555
Ca1 O59 2.562512 1_655
Ca1 O56 2.569893 1_655
Ca1 O25 2.609754 1_555
Ca1 O22 2.615277 1_555
Ca2 O51 2.343978 1_555
Ca2 O55 2.345139 1_455
Ca2 O9 2.438442 1_555
Ca2 O15 2.447072 1_454
Ca2 O19 2.597144 1_555
Ca2 O28 2.605171 1_444
Ca2 O56 2.606043 1_555
Ca2 O60 2.623963 1_445
Ca3 O50 2.343978 1_555
Ca3 O54 2.345139 1_555
Ca3 O8 2.438450 1_555
Ca3 O14 2.447070 1_555
Ca3 O18 2.597144 1_555
Ca3 O29 2.605166 1_555
Ca3 O57 2.606055 1_555
Ca3 O61 2.623963 1_555
Ca4 O51 2.343978 1_566
Ca4 O48 2.345139 1_555
Ca4 O5 2.438454 1_555
Ca4 O3 2.447070 1_566
Ca4 O31 2.597144 1_555
Ca4 O16 2.605171 1_566
Ca4 O63 2.606050 1_455
Ca4 O60 2.623963 1_456
Ca5 O50 2.343978 1_556
Ca5 O49 2.345137 1_555
Ca5 O4 2.438454 1_555
Ca5 O2 2.447066 1_555
Ca5 O30 2.597144 1_555
Ca5 O17 2.605174 1_555
Ca5 O62 2.606055 1_555
Ca5 O61 2.623963 1_556
Ca6 O53 2.339310 1_545
Ca6 O49 2.340030 1_555
Ca6 O7 2.460901 1_545
Ca6 O1 2.479687 1_555
Ca6 O58 2.562512 1_555
Ca6 O62 2.569892 1_555
Ca6 O20 2.609754 1_545
Ca6 O27 2.615277 1_555
Ca7 O52 2.339310 1_455
Ca7 O48 2.340018 1_555
Ca7 O6 2.460901 1_555
Ca7 O0 2.479687 1_455
Ca7 O59 2.562512 1_555
Ca7 O63 2.569886 1_455
Ca7 O21 2.609754 1_555
Ca7 O26 2.615277 1_455
O0 Zr15 2.104947 1_555
O0 Zr18 2.125303 1_655
O0 Zr8 2.230256 1_656
O1 Zr14 2.104935 1_555
O1 Zr19 2.125292 1_545
O1 Zr9 2.230256 1_555
O2 Zr13 2.093965 1_555
O2 Zr17 2.118726 1_555
O2 Zr3 2.230722 1_556
O3 Zr12 2.093956 1_555
O3 Zr16 2.118732 1_555
O3 Zr2 2.230732 1_555
O4 Zr17 2.107183 1_555
O4 Zr11 2.113964 1_555
O4 Zr12 2.220527 1_555
O5 Zr16 2.107183 1_566
O5 Zr10 2.113964 1_555
O5 Zr13 2.220522 1_555
O6 Zr18 2.106255 1_555
O6 Zr9 2.118768 1_555
O6 Zr7 2.219812 1_455
O7 Zr19 2.106245 1_555
O7 Zr8 2.118768 1_555
O7 Zr6 2.219812 1_555
O8 Zr19 2.107183 1_655
O8 Zr7 2.113976 1_565
O8 Zr0 2.220522 1_555
O9 Zr18 2.107183 1_554
O9 Zr6 2.113967 1_555
O9 Zr1 2.220534 1_455
O10 Zr16 2.106250 1_555
O10 Zr5 2.118768 1_555
O10 Zr11 2.219812 1_555
O11 Zr17 2.106250 1_555
O11 Zr4 2.118768 1_565
O11 Zr10 2.219812 1_555
O12 Zr3 2.104935 1_545
O12 Zr16 2.125291 1_555
O12 Zr4 2.230256 1_554
O13 Zr2 2.104942 1_555
O13 Zr17 2.125291 1_555
O13 Zr5 2.230256 1_555
O14 Zr1 2.093963 1_555
O14 Zr19 2.118726 1_655
O14 Zr15 2.230726 1_554
O15 Zr0 2.093963 1_545
O15 Zr18 2.118721 1_655
O15 Zr14 2.230716 1_655
O16 Ti5 2.008666 1_455
O16 Zr8 2.195631 1_545
O16 Zr12 2.214739 1_555
O17 Ti4 2.008654 1_556
O17 Zr9 2.195633 1_555
O17 Zr13 2.214757 1_555
O18 Ti1 1.993751 1_555
O18 Zr7 2.182512 1_565
O18 Zr3 2.199779 1_555
O19 Ti0 1.993751 1_555
O19 Zr6 2.182512 1_555
O19 Zr2 2.199768 1_555
O20 Ti1 1.970919 1_555
O20 Zr8 2.180908 1_555
O20 Zr12 2.230698 1_565
O21 Ti0 1.970919 1_555
O21 Zr9 2.180908 1_555
O21 Zr13 2.230695 1_555
O22 Ti5 1.982466 1_555
O22 Zr7 2.220016 1_555
O22 Zr3 2.220278 1_545
O23 Ti4 1.982466 1_555
O23 Zr6 2.220016 1_555
O23 Zr2 2.220276 1_555
O24 Ti2 1.970919 1_555
O24 Zr4 2.180908 1_555
O24 Zr0 2.230698 1_545
O25 Ti3 1.970919 1_655
O25 Zr5 2.180908 1_555
O25 Zr1 2.230687 1_555
O26 Ti6 1.982466 1_555
O26 Zr11 2.220016 1_555
O26 Zr15 2.220279 1_555
O27 Ti7 1.982466 1_555
O27 Zr10 2.220016 1_545
O27 Zr14 2.220278 1_555
O28 Ti6 2.008666 1_555
O28 Zr4 2.195631 1_565
O28 Zr0 2.214739 1_555
O29 Ti7 2.008662 1_554
O29 Zr5 2.195642 1_555
O29 Zr1 2.214736 1_555
O30 Ti2 1.993751 1_555
O30 Zr11 2.182512 1_555
O30 Zr15 2.199775 1_555
O31 Ti3 1.993751 1_555
O31 Zr10 2.182512 1_555
O31 Zr14 2.199779 1_565
O32 Ti7 2.064772 1_555
O32 Zr16 2.189621 1_556
O32 Zr10 2.233141 1_545
O32 Zr4 2.284918 1_555
O33 Ti6 2.064776 1_555
O33 Zr17 2.189626 1_555
O33 Zr11 2.233148 1_555
O33 Zr5 2.284907 1_555
O34 Ti3 1.931563 1_555
O34 Zr1 2.201320 1_455
O34 Zr6 2.205852 1_555
O35 Ti2 1.931563 1_555
O35 Zr0 2.201324 1_545
O35 Zr7 2.205852 1_555
O36 Ti3 2.003340 1_655
O36 Zr14 2.153666 1_665
O36 Zr0 2.207484 1_555
O37 Ti2 2.003340 1_555
O37 Zr15 2.153667 1_555
O37 Zr1 2.207496 1_556
O38 Ti7 2.132833 1_554
O38 Zr16 2.181017 1_555
O38 Zr5 2.197968 1_555
O38 Zr2 2.297828 1_555
O39 Ti6 2.132833 1_555
O39 Zr17 2.181017 1_555
O39 Zr4 2.197968 1_565
O39 Zr3 2.297816 1_556
O40 Ti0 2.003340 1_555
O40 Zr2 2.153662 1_555
O40 Zr12 2.207484 1_555
O41 Ti1 2.003340 1_555
O41 Zr3 2.153666 1_555
O41 Zr13 2.207491 1_554
O42 Ti4 2.132833 1_556
O42 Zr18 2.181013 1_555
O42 Zr9 2.197968 1_555
O42 Zr14 2.297816 1_555
O43 Ti5 2.132833 1_565
O43 Zr19 2.181023 1_655
O43 Zr8 2.197968 1_655
O43 Zr15 2.297821 1_554
O44 Ti4 2.064772 1_555
O44 Zr18 2.189626 1_554
O44 Zr6 2.233141 1_555
O44 Zr8 2.284918 1_555
O45 Ti5 2.064783 1_455
O45 Zr19 2.189627 1_545
O45 Zr7 2.233138 1_455
O45 Zr9 2.284912 1_555
O46 Ti0 1.931563 1_555
O46 Zr13 2.201312 1_555
O46 Zr10 2.205852 1_555
O47 Ti1 1.931563 1_545
O47 Zr12 2.201324 1_555
O47 Zr11 2.205852 1_555
O48 Zr8 2.122736 1_556
O48 Zr13 2.151234 1_555
O49 Zr9 2.122734 1_555
O49 Zr12 2.151224 1_555
O50 Zr15 2.156872 1_554
O50 Zr3 2.156883 1_555
O51 Zr2 2.156879 1_555
O51 Zr14 2.156883 1_554
O52 Zr11 2.120616 1_555
O52 Zr7 2.120616 1_555
O53 Zr6 2.120616 1_555
O53 Zr10 2.120616 1_555
O54 Zr5 2.122736 1_555
O54 Zr0 2.151229 1_555
O55 Zr4 2.122736 1_554
O55 Zr1 2.151224 1_555
O56 Ti5 1.839462 1_455
O56 Ti0 2.007014 1_555
O57 Ti4 1.839458 1_555
O57 Ti1 2.007013 1_555
O58 Ti2 1.936666 1_555
O58 Ti1 1.936666 1_545
O59 Ti3 1.936666 1_555
O59 Ti0 1.936666 1_555
O60 Ti5 1.891835 1_565
O60 Ti6 1.891835 1_554
O61 Ti7 1.891835 1_554
O61 Ti4 1.891835 1_555
O62 Ti7 1.839458 1_555
O62 Ti2 2.007013 1_555
O63 Ti6 1.839452 1_555
O63 Ti3 2.007024 1_655
