# generated using pymatgen
data_Fe3N
_symmetry_space_group_name_H-M   'P 1'
_cell_length_a   4.47103200
_cell_length_b   4.94051700
_cell_length_c   7.07031200
_cell_angle_alpha   90.00000000
_cell_angle_beta   90.00000000
_cell_angle_gamma   90.00000000
_symmetry_Int_Tables_number   1
_chemical_formula_structural   Fe3N
_chemical_formula_sum   'Fe12 N4'
_cell_volume   156.17760373
_cell_formula_units_Z   4
loop_
 _symmetry_equiv_pos_site_id
 _symmetry_equiv_pos_as_xyz
  1  'x, y, z'
loop_
 _atom_site_type_symbol
 _atom_site_label
 _atom_site_symmetry_multiplicity
 _atom_site_fract_x
 _atom_site_fract_y
 _atom_site_fract_z
 _atom_site_occupancy
  Fe  Fe0  1  0.68445200  0.55633600  0.25000000  1
  Fe  Fe1  1  0.81554800  0.05633600  0.25000000  1
  Fe  Fe2  1  0.31554800  0.44366400  0.75000000  1
  Fe  Fe3  1  0.18445200  0.94366400  0.75000000  1
  Fe  Fe4  1  0.18645000  0.67293400  0.42444300  1
  Fe  Fe5  1  0.31355000  0.17293400  0.07555700  1
  Fe  Fe6  1  0.81355000  0.32706600  0.92444300  1
  Fe  Fe7  1  0.68645000  0.82706600  0.57555700  1
  Fe  Fe8  1  0.81355000  0.32706600  0.57555700  1
  Fe  Fe9  1  0.68645000  0.82706600  0.92444300  1
  Fe  Fe10  1  0.18645000  0.67293400  0.07555700  1
  Fe  Fe11  1  0.31355000  0.17293400  0.42444300  1
  N  N0  1  0.43297500  0.88297300  0.25000000  1
  N  N1  1  0.06702500  0.38297300  0.25000000  1
  N  N2  1  0.56702500  0.11702700  0.75000000  1
  N  N3  1  0.93297500  0.61702700  0.75000000  1
loop_
_geom_bond_atom_site_label_1
_geom_bond_atom_site_label_2
_geom_bond_distance
_geom_bond_site_symmetry_2
Fe0 N1 1.912954 1_655
Fe0 N0 1.966824 1_555
Fe1 N0 1.912954 1_545
Fe1 N1 1.966824 1_655
Fe2 N3 1.912954 1_455
Fe2 N2 1.966824 1_555
Fe3 N2 1.912954 1_565
Fe3 N3 1.966824 1_455
Fe4 N0 1.952667 1_555
Fe4 N1 1.964311 1_555
Fe5 N1 1.952667 1_555
Fe5 N0 1.964311 1_545
Fe6 N2 1.952667 1_555
Fe6 N3 1.964311 1_555
Fe7 N3 1.952667 1_555
Fe7 N2 1.964311 1_565
Fe8 N2 1.952667 1_555
Fe8 N3 1.964311 1_555
Fe9 N3 1.952667 1_555
Fe9 N2 1.964311 1_565
Fe10 N0 1.952667 1_555
Fe10 N1 1.964311 1_555
Fe11 N1 1.952667 1_555
Fe11 N0 1.964311 1_545
