# generated using pymatgen
data_NdErFe17
_symmetry_space_group_name_H-M   'P 1'
_cell_length_a   6.42743122
_cell_length_b   6.42743141
_cell_length_c   6.42743122
_cell_angle_alpha   82.94748298
_cell_angle_beta   82.94747926
_cell_angle_gamma   82.94748298
_symmetry_Int_Tables_number   1
_chemical_formula_structural   NdErFe17
_chemical_formula_sum   'Nd1 Er1 Fe17'
_cell_volume   259.95807542
_cell_formula_units_Z   1
loop_
 _symmetry_equiv_pos_site_id
 _symmetry_equiv_pos_as_xyz
  1  'x, y, z'
loop_
 _atom_site_type_symbol
 _atom_site_label
 _atom_site_symmetry_multiplicity
 _atom_site_fract_x
 _atom_site_fract_y
 _atom_site_fract_z
 _atom_site_occupancy
  Nd  Nd0  1  0.65730200  0.65730200  0.65730200  1
  Er  Er0  1  0.34154800  0.34154800  0.34154800  1
  Fe  Fe0  1  0.00091100  0.49943100  0.00091100  1
  Fe  Fe1  1  0.49943100  0.00091100  0.00091100  1
  Fe  Fe2  1  0.00091100  0.00091100  0.49943100  1
  Fe  Fe3  1  0.34233900  0.34233900  0.84486200  1
  Fe  Fe4  1  0.34233900  0.84486200  0.34233900  1
  Fe  Fe5  1  0.84486200  0.34233900  0.34233900  1
  Fe  Fe6  1  0.65638200  0.65638200  0.15606700  1
  Fe  Fe7  1  0.65638200  0.15606700  0.65638200  1
  Fe  Fe8  1  0.15606700  0.65638200  0.65638200  1
  Fe  Fe9  1  0.70771200  0.00136100  0.29112100  1
  Fe  Fe10  1  0.00136100  0.29112100  0.70771200  1
  Fe  Fe11  1  0.29112100  0.70771200  0.00136100  1
  Fe  Fe12  1  0.00136100  0.70771200  0.29112100  1
  Fe  Fe13  1  0.70771200  0.29112100  0.00136100  1
  Fe  Fe14  1  0.29112100  0.00136100  0.70771200  1
  Fe  Fe15  1  0.90358300  0.90358300  0.90358300  1
  Fe  Fe16  1  0.09755600  0.09755600  0.09755600  1
loop_
_geom_bond_atom_site_label_1
_geom_bond_atom_site_label_2
_geom_bond_distance
_geom_bond_site_symmetry_2
Er0 Fe10 3.024560 1_555
Er0 Fe13 3.024560 1_555
Er0 Fe14 3.024560 1_555
Er0 Fe9 3.024560 1_555
Er0 Fe12 3.024560 1_555
Er0 Fe11 3.024560 1_555
Er0 Fe16 3.031487 1_555
Er0 Fe8 3.071107 1_555
Er0 Fe6 3.071107 1_555
Er0 Fe7 3.071107 1_555
Er0 Fe5 3.191176 1_455
Er0 Fe3 3.191176 1_554
Er0 Fe4 3.191176 1_545
Er0 Fe5 3.236273 1_555
Er0 Fe3 3.236273 1_555
Er0 Fe4 3.236273 1_555
Er0 Fe2 3.271522 1_555
Er0 Fe1 3.271522 1_555
Er0 Fe0 3.271522 1_555
Fe0 Fe12 2.426310 1_555
Fe0 Fe11 2.426310 1_555
Fe0 Fe10 2.441589 1_554
Fe0 Fe13 2.441589 1_455
Fe0 Fe5 2.450597 1_455
Fe0 Fe3 2.450597 1_554
Fe0 Fe8 2.464165 1_554
Fe0 Fe6 2.464165 1_455
Fe0 Fe16 2.598170 1_555
Fe0 Fe15 2.613146 1_454
Fe0 Nd0 3.298775 1_454
Fe1 Fe13 2.426310 1_555
Fe1 Fe9 2.426310 1_555
Fe1 Fe11 2.441589 1_545
Fe1 Fe14 2.441589 1_554
Fe1 Fe4 2.450597 1_545
Fe1 Fe3 2.450597 1_554
Fe1 Fe7 2.464165 1_554
Fe1 Fe6 2.464165 1_545
Fe1 Fe16 2.598170 1_555
Fe1 Fe15 2.613146 1_544
Fe1 Nd0 3.298774 1_544
Fe2 Fe9 2.441589 1_455
Fe2 Fe4 2.450597 1_545
Fe2 Fe5 2.450597 1_455
Fe2 Fe7 2.464165 1_455
Fe2 Fe8 2.464165 1_545
Fe2 Nd0 3.298774 1_445
Fe3 Fe7 2.477413 1_555
Fe3 Fe8 2.477413 1_555
Fe3 Nd0 3.075306 1_555
Fe4 Fe8 2.477413 1_555
Fe4 Fe6 2.477413 1_555
Fe4 Fe9 2.635170 1_565
Fe4 Nd0 3.075306 1_555
Fe5 Fe7 2.477413 1_555
Fe5 Fe6 2.477413 1_555
Fe5 Fe9 2.532085 1_555
Fe5 Nd0 3.075306 1_555
Fe6 Fe9 2.549805 1_565
Fe6 Nd0 3.204338 1_554
Fe6 Nd0 3.223117 1_555
Fe7 Fe9 2.629019 1_555
Fe7 Nd0 3.204338 1_545
Fe7 Nd0 3.223117 1_555
Fe8 Nd0 3.204338 1_455
Fe8 Nd0 3.223117 1_555
Fe9 Nd0 3.040624 1_545
Fe10 Fe2 2.426310 1_555
Fe10 Fe14 2.466865 1_555
Fe10 Fe13 2.499974 1_456
Fe10 Fe3 2.532085 1_555
Fe10 Fe7 2.549805 1_455
Fe10 Fe8 2.629019 1_555
Fe10 Fe5 2.635170 1_455
Fe10 Fe15 2.757615 1_445
Fe10 Fe16 2.763091 1_556
Fe10 Nd0 3.040624 1_455
Fe11 Fe12 2.466865 1_555
Fe11 Fe14 2.499974 1_564
Fe11 Fe4 2.532085 1_555
Fe11 Fe8 2.549805 1_554
Fe11 Fe6 2.629019 1_555
Fe11 Fe3 2.635170 1_554
Fe11 Fe15 2.757615 1_454
Fe11 Fe16 2.763091 1_565
Fe11 Nd0 3.040624 1_554
Fe12 Fe2 2.441589 1_565
Fe12 Fe9 2.499974 1_465
Fe12 Fe4 2.532085 1_555
Fe12 Fe6 2.549805 1_455
Fe12 Fe8 2.629019 1_555
Fe12 Fe5 2.635170 1_455
Fe12 Fe15 2.757615 1_454
Fe12 Fe16 2.763091 1_565
Fe12 Nd0 3.040624 1_455
Fe13 Fe9 2.466865 1_555
Fe13 Fe5 2.532085 1_555
Fe13 Fe7 2.549805 1_554
Fe13 Fe6 2.629019 1_555
Fe13 Fe3 2.635170 1_554
Fe13 Fe15 2.757615 1_544
Fe13 Fe16 2.763091 1_655
Fe13 Nd0 3.040624 1_554
Fe14 Fe2 2.426310 1_555
Fe14 Fe3 2.532085 1_555
Fe14 Fe8 2.549805 1_545
Fe14 Fe7 2.629019 1_555
Fe14 Fe4 2.635170 1_545
Fe14 Fe15 2.757615 1_445
Fe14 Fe16 2.763091 1_556
Fe14 Nd0 3.040624 1_545
Fe15 Fe16 2.410024 1_666
Fe15 Fe2 2.613146 1_665
Fe15 Fe8 2.652574 1_655
Fe15 Fe6 2.652574 1_556
Fe15 Fe7 2.652574 1_565
Fe15 Fe9 2.757615 1_566
Fe15 Nd0 3.059926 1_555
Fe16 Fe2 2.598170 1_555
Fe16 Fe5 2.634676 1_455
Fe16 Fe3 2.634676 1_554
Fe16 Fe4 2.634676 1_545
Fe16 Fe9 2.763091 1_455
