# generated using pymatgen
data_Ti3Ir2
_symmetry_space_group_name_H-M   'P 1'
_cell_length_a   3.10957800
_cell_length_b   3.10957800
_cell_length_c   15.96866300
_cell_angle_alpha   90.00000000
_cell_angle_beta   90.00000000
_cell_angle_gamma   90.00000000
_symmetry_Int_Tables_number   1
_chemical_formula_structural   Ti3Ir2
_chemical_formula_sum   'Ti6 Ir4'
_cell_volume   154.40859306
_cell_formula_units_Z   2
loop_
 _symmetry_equiv_pos_site_id
 _symmetry_equiv_pos_as_xyz
  1  'x, y, z'
loop_
 _atom_site_type_symbol
 _atom_site_label
 _atom_site_symmetry_multiplicity
 _atom_site_fract_x
 _atom_site_fract_y
 _atom_site_fract_z
 _atom_site_occupancy
  Ti  Ti0  1  0.50000000  0.50000000  0.10667400  1
  Ti  Ti1  1  0.50000000  0.50000000  0.30286500  1
  Ti  Ti2  1  0.50000000  0.50000000  0.50000000  1
  Ti  Ti3  1  0.50000000  0.50000000  0.69713500  1
  Ti  Ti4  1  0.50000000  0.50000000  0.89332600  1
  Ti  Ti5  1  0.00000000  0.00000000  0.00000000  1
  Ir  Ir0  1  0.00000000  0.00000000  0.20577700  1
  Ir  Ir1  1  0.00000000  0.00000000  0.39983900  1
  Ir  Ir2  1  0.00000000  0.00000000  0.60016100  1
  Ir  Ir3  1  0.00000000  0.00000000  0.79422300  1
loop_
_geom_bond_atom_site_label_1
_geom_bond_atom_site_label_2
_geom_bond_distance
_geom_bond_site_symmetry_2
Ti0 Ti5 2.781447 1_555
Ti0 Ti5 2.781447 1_565
Ti0 Ti5 2.781447 1_655
Ti0 Ti5 2.781447 1_665
Ti4 Ti5 2.781447 1_556
Ti4 Ti5 2.781447 1_566
Ti4 Ti5 2.781447 1_666
Ti4 Ti5 2.781447 1_656
Ir0 Ti1 2.690422 1_555
Ir0 Ti1 2.690422 1_455
Ir0 Ti1 2.690422 1_545
Ir0 Ti1 2.690422 1_445
Ir0 Ti0 2.709092 1_545
Ir0 Ti0 2.709092 1_445
Ir0 Ti0 2.709092 1_455
Ir0 Ti0 2.709092 1_555
Ir1 Ti1 2.689373 1_455
Ir1 Ti1 2.689373 1_545
Ir1 Ti1 2.689373 1_445
Ir1 Ti1 2.689373 1_555
Ir1 Ti2 2.718996 1_455
Ir1 Ti2 2.718996 1_555
Ir1 Ti2 2.718996 1_445
Ir1 Ti2 2.718996 1_545
Ir2 Ti3 2.689373 1_445
Ir2 Ti3 2.689373 1_455
Ir2 Ti3 2.689373 1_545
Ir2 Ti3 2.689373 1_555
Ir2 Ti2 2.718996 1_555
Ir2 Ti2 2.718996 1_455
Ir2 Ti2 2.718996 1_445
Ir2 Ti2 2.718996 1_545
Ir3 Ti3 2.690422 1_455
Ir3 Ti3 2.690422 1_545
Ir3 Ti3 2.690422 1_555
Ir3 Ti3 2.690422 1_445
Ir3 Ti4 2.709092 1_455
Ir3 Ti4 2.709092 1_555
Ir3 Ti4 2.709092 1_445
Ir3 Ti4 2.709092 1_545
