# generated using pymatgen
data_YAlAu
_symmetry_space_group_name_H-M   'P 1'
_cell_length_a   4.45938904
_cell_length_b   7.18064298
_cell_length_c   7.75991450
_cell_angle_alpha   89.99998733
_cell_angle_beta   90.00000000
_cell_angle_gamma   90.00000000
_symmetry_Int_Tables_number   1
_chemical_formula_structural   YAlAu
_chemical_formula_sum   'Y4 Al4 Au4'
_cell_volume   248.48239968
_cell_formula_units_Z   4
loop_
 _symmetry_equiv_pos_site_id
 _symmetry_equiv_pos_as_xyz
  1  'x, y, z'
loop_
 _atom_site_type_symbol
 _atom_site_label
 _atom_site_symmetry_multiplicity
 _atom_site_fract_x
 _atom_site_fract_y
 _atom_site_fract_z
 _atom_site_occupancy
  Y  Y0  1  0.25000000  0.00681312  0.29920263  1
  Y  Y1  1  0.25000000  0.50681333  0.20079602  1
  Y  Y2  1  0.75000000  0.99318312  0.70075800  1
  Y  Y3  1  0.75000000  0.49318339  0.79924208  1
  Al  Al0  1  0.25000000  0.17720616  0.92139295  1
  Al  Al1  1  0.25000000  0.67720675  0.57860647  1
  Al  Al2  1  0.75000000  0.82281923  0.07861776  1
  Al  Al3  1  0.75000000  0.32281810  0.42138417  1
  Au  Au0  1  0.25000000  0.28774396  0.59261755  1
  Au  Au1  1  0.25000000  0.78774187  0.90738256  1
  Au  Au2  1  0.75000000  0.71223246  0.40734775  1
  Au  Au3  1  0.75000000  0.21223951  0.09265207  1
loop_
_geom_bond_atom_site_label_1
_geom_bond_atom_site_label_2
_geom_bond_distance
_geom_bond_site_symmetry_2
Al0 Au3 2.607862 1_556
Al0 Au3 2.607862 1_456
Al0 Au0 2.671888 1_555
Al0 Au1 2.798717 1_545
Al0 Y2 3.106278 1_545
Al0 Y2 3.106278 1_445
Al0 Y0 3.176839 1_556
Al0 Y1 3.209759 1_556
Al0 Y3 3.319339 1_455
Al0 Y3 3.319339 1_555
Al1 Au2 2.607855 1_455
Al1 Au2 2.607855 1_555
Al1 Au1 2.671887 1_555
Al1 Au0 2.798706 1_555
Al1 Y3 3.106281 1_555
Al1 Y3 3.106281 1_455
Al1 Y1 3.176846 1_555
Al1 Y0 3.209758 1_565
Al1 Y2 3.319336 1_555
Al1 Y2 3.319336 1_455
Al2 Au1 2.607798 1_654
Al2 Au1 2.607798 1_554
Al2 Au2 2.671656 1_555
Al2 Au3 2.798408 1_565
Al2 Y0 3.105975 1_565
Al2 Y0 3.105975 1_665
Al2 Y2 3.177117 1_554
Al2 Y3 3.209767 1_554
Al2 Y1 3.319540 1_555
Al2 Y1 3.319540 1_655
Al3 Au0 2.607789 1_655
Al3 Au0 2.607789 1_555
Al3 Au3 2.671654 1_555
Al3 Au2 2.798366 1_555
Al3 Y1 3.105992 1_555
Al3 Y1 3.105992 1_655
Al3 Y3 3.177108 1_555
Al3 Y2 3.209752 1_545
Al3 Y0 3.319543 1_655
Al3 Y0 3.319543 1_555
Au0 Y0 3.041959 1_555
Au0 Y3 3.117462 1_455
Au0 Y3 3.117462 1_555
Au0 Y2 3.185833 1_545
Au0 Y2 3.185833 1_445
Au0 Y1 3.423326 1_555
Au1 Y1 3.041939 1_556
Au1 Y2 3.117468 1_455
Au1 Y2 3.117468 1_555
Au1 Y3 3.185822 1_455
Au1 Y3 3.185822 1_555
Au1 Y0 3.423323 1_566
Au2 Y2 3.042026 1_555
Au2 Y1 3.117103 1_555
Au2 Y1 3.117103 1_655
Au2 Y0 3.185937 1_565
Au2 Y0 3.185937 1_665
Au2 Y3 3.423761 1_555
Au3 Y3 3.041992 1_554
Au3 Y0 3.117122 1_655
Au3 Y0 3.117122 1_555
Au3 Y1 3.185902 1_655
Au3 Y1 3.185902 1_555
Au3 Y2 3.423784 1_544
