# generated using pymatgen
data_BaEuSnWO6
_symmetry_space_group_name_H-M   'P 1'
_cell_length_a   8.63234665
_cell_length_b   8.67337432
_cell_length_c   8.58207652
_cell_angle_alpha   90.00000000
_cell_angle_beta   90.00000000
_cell_angle_gamma   90.00000000
_symmetry_Int_Tables_number   1
_chemical_formula_structural   BaEuSnWO6
_chemical_formula_sum   'Ba4 Eu4 Sn4 W4 O24'
_cell_volume   642.55357514
_cell_formula_units_Z   4
loop_
 _symmetry_equiv_pos_site_id
 _symmetry_equiv_pos_as_xyz
  1  'x, y, z'
loop_
 _atom_site_type_symbol
 _atom_site_label
 _atom_site_symmetry_multiplicity
 _atom_site_fract_x
 _atom_site_fract_y
 _atom_site_fract_z
 _atom_site_occupancy
  Ba  Ba0  1  0.00000000  -0.00000000  -0.00000000  1
  Ba  Ba1  1  0.50000000  0.50000000  0.50000000  1
  Ba  Ba2  1  0.50000000  -0.00000000  -0.00000000  1
  Ba  Ba3  1  0.00000000  -0.00000000  0.50000000  1
  Eu  Eu0  1  0.00000000  0.50000000  0.50000000  1
  Eu  Eu1  1  0.50000000  -0.00000000  0.50000000  1
  Eu  Eu2  1  0.50000000  0.50000000  -0.00000000  1
  Eu  Eu3  1  0.00000000  0.50000000  -0.00000000  1
  Sn  Sn0  1  0.76165810  0.73272792  0.75176894  1
  Sn  Sn1  1  0.23834190  0.26727208  0.75176894  1
  Sn  Sn2  1  0.23834190  0.73272792  0.24823106  1
  Sn  Sn3  1  0.76165810  0.26727208  0.24823106  1
  W  W0  1  0.24653111  0.26098214  0.24663221  1
  W  W1  1  0.75346889  0.73901786  0.24663221  1
  W  W2  1  0.75346889  0.26098214  0.75336779  1
  W  W3  1  0.24653111  0.73901786  0.75336779  1
  O  O0  1  0.01659317  0.23482897  0.28977516  1
  O  O1  1  0.98340683  0.76517103  0.28977516  1
  O  O2  1  0.98340683  0.23482897  0.71022484  1
  O  O3  1  0.01659317  0.76517103  0.71022484  1
  O  O4  1  0.26482661  0.04764467  0.19804185  1
  O  O5  1  0.26482661  0.95235533  0.80195815  1
  O  O6  1  0.73517339  0.95235533  0.19804185  1
  O  O7  1  0.73517339  0.04764467  0.80195815  1
  O  O8  1  0.19462371  0.30551742  0.02539728  1
  O  O9  1  0.80537629  0.30551742  0.97460272  1
  O  O10  1  0.19462371  0.69448258  0.97460272  1
  O  O11  1  0.80537629  0.69448258  0.02539728  1
  O  O12  1  0.45663362  0.31307761  0.20234788  1
  O  O13  1  0.54336638  0.68692239  0.20234788  1
  O  O14  1  0.54336638  0.31307761  0.79765212  1
  O  O15  1  0.45663362  0.68692239  0.79765212  1
  O  O16  1  0.20884931  0.48777193  0.30339833  1
  O  O17  1  0.20884931  0.51222807  0.69660167  1
  O  O18  1  0.79115069  0.51222807  0.30339833  1
  O  O19  1  0.79115069  0.48777193  0.69660167  1
  O  O20  1  0.29900703  0.21720020  0.46381378  1
  O  O21  1  0.70099297  0.21720020  0.53618622  1
  O  O22  1  0.29900703  0.78279980  0.53618622  1
  O  O23  1  0.70099297  0.78279980  0.46381378  1
loop_
_geom_bond_atom_site_label_1
_geom_bond_atom_site_label_2
_geom_bond_distance
_geom_bond_site_symmetry_2
Ba0 O6 2.878469 1_445
Ba0 O5 2.878469 1_544
Ba0 O7 2.878469 1_454
Ba0 O4 2.878469 1_555
Ba0 O9 3.145139 1_454
Ba0 O8 3.145139 1_555
Ba0 O10 3.145139 1_544
Ba0 O11 3.145139 1_445
Ba0 O0 3.217676 1_555
Ba0 O1 3.217676 1_445
Ba0 O3 3.217676 1_544
Ba0 O2 3.217676 1_454
Ba1 O20 3.020460 1_555
Ba1 O21 3.020460 1_555
Ba1 O22 3.020460 1_555
Ba1 O23 3.020460 1_555
Ba1 O17 3.028995 1_555
Ba1 O19 3.028995 1_555
Ba1 O16 3.028995 1_555
Ba1 O18 3.028995 1_555
Ba1 O12 3.048593 1_555
Ba1 O13 3.048593 1_555
Ba1 O14 3.048593 1_555
Ba1 O15 3.048593 1_555
Ba2 O5 2.679691 1_544
Ba2 O7 2.679691 1_554
Ba2 O4 2.679691 1_555
Ba2 O6 2.679691 1_545
Ba2 O12 3.244905 1_555
Ba2 O14 3.244905 1_554
Ba2 O13 3.244905 1_545
Ba2 O15 3.244905 1_544
Ba3 O0 2.724687 1_555
Ba3 O2 2.724687 1_455
Ba3 O3 2.724687 1_545
Ba3 O1 2.724687 1_445
Ba3 O23 3.210547 1_445
Ba3 O20 3.210547 1_555
Ba3 O22 3.210547 1_545
Ba3 O21 3.210547 1_455
Eu0 O19 2.471511 1_455
Eu0 O17 2.471511 1_555
Eu0 O18 2.471511 1_455
Eu0 O16 2.471511 1_555
Eu0 O3 2.926636 1_555
Eu0 O2 2.926636 1_455
Eu0 O0 2.926636 1_555
Eu0 O1 2.926636 1_455
Eu1 O22 2.579871 1_545
Eu1 O20 2.579871 1_555
Eu1 O23 2.579871 1_545
Eu1 O21 2.579871 1_555
Eu2 O12 2.405045 1_555
Eu2 O14 2.405045 1_554
Eu2 O13 2.405045 1_555
Eu2 O15 2.405045 1_554
Eu3 O10 2.390705 1_554
Eu3 O11 2.390705 1_455
Eu3 O8 2.390705 1_555
Eu3 O9 2.390705 1_454
O0 W0 2.031844 1_555
O0 Sn3 2.247070 1_455
O1 W1 2.031844 1_555
O1 Sn2 2.247070 1_655
O2 W2 2.031844 1_555
O2 Sn1 2.247070 1_655
O3 W3 2.031844 1_555
O3 Sn0 2.247070 1_455
O4 W0 1.903327 1_555
O4 Sn2 2.774580 1_545
O5 W3 1.903327 1_555
O5 Sn1 2.774580 1_565
O6 W1 1.903327 1_555
O6 Sn3 2.774580 1_565
O7 W2 1.903327 1_555
O7 Sn0 2.774580 1_545
O8 W0 1.988687 1_555
O8 Sn1 2.401451 1_554
O9 W2 1.988687 1_555
O9 Sn3 2.401451 1_556
O10 W3 1.988687 1_555
O10 Sn2 2.401451 1_556
O11 W1 1.988687 1_555
O11 Sn0 2.401451 1_554
O12 W0 1.907362 1_555
O12 Sn3 2.691838 1_555
O13 W1 1.907362 1_555
O13 Sn2 2.691838 1_555
O14 W2 1.907362 1_555
O14 Sn1 2.691838 1_555
O15 W3 1.907362 1_555
O15 Sn0 2.691838 1_555
O16 W0 2.052404 1_555
O16 Sn2 2.191546 1_555
O17 W3 2.052404 1_555
O17 Sn1 2.191546 1_555
O18 W1 2.052404 1_555
O18 Sn3 2.191546 1_555
O19 W2 2.052404 1_555
O19 Sn0 2.191546 1_555
O20 W0 1.955354 1_555
O20 Sn1 2.563190 1_555
O21 W2 1.955354 1_555
O21 Sn3 2.563190 1_555
O22 W3 1.955354 1_555
O22 Sn2 2.563190 1_555
O23 W1 1.955354 1_555
O23 Sn0 2.563190 1_555
