# generated using pymatgen
data_KSrNdMnO6
_symmetry_space_group_name_H-M   'P 1'
_cell_length_a   8.42655878
_cell_length_b   8.41489636
_cell_length_c   8.43322485
_cell_angle_alpha   90.00000000
_cell_angle_beta   90.00000000
_cell_angle_gamma   90.00000000
_symmetry_Int_Tables_number   1
_chemical_formula_structural   KSrNdMnO6
_chemical_formula_sum   'K4 Sr4 Nd4 Mn4 O24'
_cell_volume   597.98832619
_cell_formula_units_Z   4
loop_
 _symmetry_equiv_pos_site_id
 _symmetry_equiv_pos_as_xyz
  1  'x, y, z'
loop_
 _atom_site_type_symbol
 _atom_site_label
 _atom_site_symmetry_multiplicity
 _atom_site_fract_x
 _atom_site_fract_y
 _atom_site_fract_z
 _atom_site_occupancy
  K  K0  1  0.50000000  0.00000000  0.50000000  1
  K  K1  1  0.50000000  0.50000000  0.00000000  1
  K  K2  1  0.00000000  0.50000000  0.00000000  1
  K  K3  1  0.00000000  0.00000000  0.50000000  1
  Sr  Sr0  1  0.00000000  0.50000000  0.50000000  1
  Sr  Sr1  1  0.50000000  0.00000000  0.00000000  1
  Sr  Sr2  1  0.00000000  0.00000000  0.00000000  1
  Sr  Sr3  1  0.50000000  0.50000000  0.50000000  1
  Nd  Nd0  1  0.25000000  0.25000000  0.25000000  1
  Nd  Nd1  1  0.75000000  0.75000000  0.25000000  1
  Nd  Nd2  1  0.75000000  0.25000000  0.75000000  1
  Nd  Nd3  1  0.25000000  0.75000000  0.75000000  1
  Mn  Mn0  1  0.75000000  0.75000000  0.75000000  1
  Mn  Mn1  1  0.25000000  0.25000000  0.75000000  1
  Mn  Mn2  1  0.25000000  0.75000000  0.25000000  1
  Mn  Mn3  1  0.75000000  0.25000000  0.25000000  1
  O  O0  1  0.97513871  0.24038915  0.25907205  1
  O  O1  1  0.02486129  0.75961085  0.25907205  1
  O  O2  1  0.02486129  0.24038915  0.74092795  1
  O  O3  1  0.97513871  0.75961085  0.74092795  1
  O  O4  1  0.26071267  0.97711252  0.22435262  1
  O  O5  1  0.26071267  0.02288748  0.77564738  1
  O  O6  1  0.73928733  0.02288748  0.22435262  1
  O  O7  1  0.73928733  0.97711252  0.77564738  1
  O  O8  1  0.23858992  0.24690954  0.97633602  1
  O  O9  1  0.76141008  0.24690954  0.02366398  1
  O  O10  1  0.23858992  0.75309046  0.02366398  1
  O  O11  1  0.76141008  0.75309046  0.97633602  1
  O  O12  1  0.52486129  0.25961085  0.24092795  1
  O  O13  1  0.47513871  0.74038915  0.24092795  1
  O  O14  1  0.47513871  0.25961085  0.75907205  1
  O  O15  1  0.52486129  0.74038915  0.75907205  1
  O  O16  1  0.23928733  0.52288748  0.27564738  1
  O  O17  1  0.23928733  0.47711252  0.72435262  1
  O  O18  1  0.76071267  0.47711252  0.27564738  1
  O  O19  1  0.76071267  0.52288748  0.72435262  1
  O  O20  1  0.26141008  0.25309046  0.52366398  1
  O  O21  1  0.73858992  0.25309046  0.47633602  1
  O  O22  1  0.26141008  0.74690954  0.47633602  1
  O  O23  1  0.73858992  0.74690954  0.52366398  1
loop_
_geom_bond_atom_site_label_1
_geom_bond_atom_site_label_2
_geom_bond_distance
_geom_bond_site_symmetry_2
K0 O20 2.935584 1_555
K0 O22 2.935584 1_545
K0 O21 2.935584 1_555
K0 O23 2.935584 1_545
K0 O6 3.083275 1_555
K0 O5 3.083275 1_555
K0 O7 3.083275 1_545
K0 O4 3.083275 1_545
K0 O13 3.096735 1_545
K0 O15 3.096735 1_545
K0 O14 3.096735 1_555
K0 O12 3.096735 1_555
K1 O14 2.874721 1_554
K1 O15 2.874721 1_554
K1 O13 2.874721 1_555
K1 O12 2.874721 1_555
K1 O9 3.070480 1_555
K1 O10 3.070480 1_555
K1 O11 3.070480 1_554
K1 O8 3.070480 1_554
K1 O18 3.204256 1_555
K1 O19 3.204256 1_554
K1 O16 3.204256 1_555
K1 O17 3.204256 1_554
K2 O10 2.935584 1_555
K2 O11 2.935584 1_454
K2 O8 2.935584 1_554
K2 O9 2.935584 1_455
K2 O17 3.083275 1_554
K2 O18 3.083275 1_455
K2 O19 3.083275 1_454
K2 O16 3.083275 1_555
K2 O2 3.096735 1_554
K2 O0 3.096735 1_455
K2 O3 3.096735 1_454
K2 O1 3.096735 1_555
K3 O1 2.874721 1_545
K3 O3 2.874721 1_445
K3 O0 2.874721 1_455
K3 O2 2.874721 1_555
K3 O23 3.070480 1_445
K3 O22 3.070480 1_545
K3 O21 3.070480 1_455
K3 O20 3.070480 1_555
K3 O7 3.204256 1_445
K3 O6 3.204256 1_455
K3 O5 3.204256 1_555
K3 O4 3.204256 1_545
Nd0 O4 2.308249 1_545
Nd0 O16 2.308249 1_555
Nd0 O20 2.310018 1_555
Nd0 O8 2.310018 1_554
Nd0 O0 2.318809 1_455
Nd0 O12 2.318809 1_555
Nd1 O18 2.308249 1_555
Nd1 O6 2.308249 1_565
Nd1 O11 2.310018 1_554
Nd1 O23 2.310018 1_555
Nd1 O13 2.318809 1_555
Nd1 O1 2.318809 1_655
Nd2 O7 2.308249 1_545
Nd2 O19 2.308249 1_555
Nd2 O21 2.310018 1_555
Nd2 O9 2.310018 1_556
Nd2 O14 2.318809 1_555
Nd2 O2 2.318809 1_655
Nd3 O17 2.308249 1_555
Nd3 O5 2.308249 1_565
Nd3 O22 2.310018 1_555
Nd3 O10 2.310018 1_556
Nd3 O3 2.318809 1_455
Nd3 O15 2.318809 1_555
Mn0 O15 1.900408 1_555
Mn0 O3 1.900408 1_555
Mn0 O11 1.911340 1_555
Mn0 O23 1.911340 1_555
Mn0 O7 1.925446 1_555
Mn0 O19 1.925446 1_555
Mn1 O2 1.900408 1_555
Mn1 O14 1.900408 1_555
Mn1 O20 1.911340 1_555
Mn1 O8 1.911340 1_555
Mn1 O17 1.925446 1_555
Mn1 O5 1.925446 1_555
Mn2 O1 1.900408 1_555
Mn2 O13 1.900408 1_555
Mn2 O22 1.911340 1_555
Mn2 O10 1.911340 1_555
Mn2 O16 1.925446 1_555
Mn2 O4 1.925446 1_555
Mn3 O12 1.900408 1_555
Mn3 O0 1.900408 1_555
Mn3 O9 1.911340 1_555
Mn3 O21 1.911340 1_555
Mn3 O18 1.925446 1_555
Mn3 O6 1.925446 1_555
O0 Sr2 2.984831 1_655
O0 Sr0 2.990747 1_655
O1 Sr2 2.984831 1_565
O1 Sr0 2.990747 1_555
O2 Sr2 2.984831 1_556
O2 Sr0 2.990747 1_555
O3 Sr2 2.984831 1_666
O3 Sr0 2.990747 1_655
O4 Sr1 2.771743 1_565
O4 Sr2 2.905724 1_565
O5 Sr1 2.771743 1_556
O5 Sr2 2.905724 1_556
O6 Sr1 2.771743 1_555
O6 Sr2 2.905724 1_655
O7 Sr1 2.771743 1_566
O7 Sr2 2.905724 1_666
O8 Sr2 2.898071 1_556
O8 Sr1 3.034635 1_556
O9 Sr2 2.898071 1_655
O9 Sr1 3.034635 1_555
O10 Sr2 2.898071 1_565
O10 Sr1 3.034635 1_565
O11 Sr2 2.898071 1_666
O11 Sr1 3.034635 1_566
O12 Sr3 2.984831 1_555
O12 Sr1 2.990747 1_555
O13 Sr3 2.984831 1_555
O13 Sr1 2.990747 1_565
O14 Sr3 2.984831 1_555
O14 Sr1 2.990747 1_556
O15 Sr3 2.984831 1_555
O15 Sr1 2.990747 1_566
O16 Sr0 2.771743 1_555
O16 Sr3 2.905724 1_555
O17 Sr0 2.771743 1_555
O17 Sr3 2.905724 1_555
O18 Sr0 2.771743 1_655
O18 Sr3 2.905724 1_555
O19 Sr0 2.771743 1_655
O19 Sr3 2.905724 1_555
O20 Sr3 2.898071 1_555
O20 Sr0 3.034635 1_555
O21 Sr3 2.898071 1_555
O21 Sr0 3.034635 1_655
O22 Sr3 2.898071 1_555
O22 Sr0 3.034635 1_555
O23 Sr3 2.898071 1_555
O23 Sr0 3.034635 1_655
