# generated using pymatgen
data_K2Na2NbW3O10
_symmetry_space_group_name_H-M   'P 1'
_cell_length_a   11.56653040
_cell_length_b   11.74620290
_cell_length_c   17.57556491
_cell_angle_alpha   109.20626047
_cell_angle_beta   109.12364500
_cell_angle_gamma   89.80348760
_symmetry_Int_Tables_number   1
_chemical_formula_structural   K2Na2NbW3O10
_chemical_formula_sum   'K16 Na16 Nb8 W24 O80'
_cell_volume   2115.89621853
_cell_formula_units_Z   8
loop_
 _symmetry_equiv_pos_site_id
 _symmetry_equiv_pos_as_xyz
  1  'x, y, z'
loop_
 _atom_site_type_symbol
 _atom_site_label
 _atom_site_symmetry_multiplicity
 _atom_site_fract_x
 _atom_site_fract_y
 _atom_site_fract_z
 _atom_site_occupancy
  K  K0  1  0.30148662  0.06415376  0.11124205  1
  K  K1  1  0.30292430  0.55829160  0.11104082  1
  K  K2  1  0.80303177  0.05944055  0.11255385  1
  K  K3  1  0.80166588  0.55737801  0.10836846  1
  K  K4  1  0.19833206  0.93728745  0.38979436  1
  K  K5  1  0.19469464  0.92750442  0.87937282  1
  K  K6  1  0.69926710  0.44110204  0.39449532  1
  K  K7  1  0.68778525  0.42158111  0.87851134  1
  K  K8  1  0.69616498  0.93479856  0.39050922  1
  K  K9  1  0.05327251  0.29883763  0.10989615  1
  K  K10  1  0.05301472  0.79448555  0.10980118  1
  K  K11  1  0.54907794  0.29670592  0.10947545  1
  K  K12  1  0.55383608  0.79604361  0.10892625  1
  K  K13  1  0.45057189  0.70914453  0.39292650  1
  K  K14  1  0.44146760  0.70434129  0.88166692  1
  K  K15  1  0.94115082  0.70049593  0.87788844  1
  Na  Na0  1  0.30065558  0.07280941  0.60075118  1
  Na  Na1  1  0.30506325  0.56586388  0.60265378  1
  Na  Na2  1  0.80402247  0.06235402  0.59714971  1
  Na  Na3  1  0.81336555  0.56588186  0.60338630  1
  Na  Na4  1  0.19894739  0.44318122  0.40227456  1
  Na  Na5  1  0.19904477  0.43092289  0.89806040  1
  Na  Na6  1  0.70155768  0.93720761  0.89643677  1
  Na  Na7  1  0.05270422  0.27867219  0.59761131  1
  Na  Na8  1  0.06653649  0.78862369  0.60482444  1
  Na  Na9  1  0.55896772  0.28301430  0.60151087  1
  Na  Na10  1  0.55947692  0.78927317  0.60328058  1
  Na  Na11  1  0.44673499  0.21127999  0.40415112  1
  Na  Na12  1  0.44553405  0.21639299  0.89591202  1
  Na  Na13  1  0.94664060  0.21374581  0.40162557  1
  Na  Na14  1  0.95307897  0.21595807  0.89851414  1
  Na  Na15  1  0.94794317  0.71281254  0.40257488  1
  Nb  Nb0  1  0.09010711  0.08444162  0.74391620  1
  Nb  Nb1  1  0.12445980  0.57299739  0.74332752  1
  Nb  Nb2  1  0.57709886  0.07423324  0.74604810  1
  Nb  Nb3  1  0.59856865  0.58093379  0.74149102  1
  Nb  Nb4  1  0.32163393  0.41313065  0.74465586  1
  Nb  Nb5  1  0.37328826  0.92219622  0.74422219  1
  Nb  Nb6  1  0.86508387  0.39789927  0.74222804  1
  Nb  Nb7  1  0.85859339  0.92426177  0.74674455  1
  W  W0  1  0.00171792  0.99823665  0.99583404  1
  W  W1  1  0.01264197  0.00172223  0.50457271  1
  W  W2  1  0.00051873  0.49586700  0.99512534  1
  W  W3  1  0.01530976  0.50339412  0.50478817  1
  W  W4  1  0.50109947  0.99758881  0.99557346  1
  W  W5  1  0.51182241  0.00578929  0.50860125  1
  W  W6  1  0.49917638  0.49739504  0.99374044  1
  W  W7  1  0.51435202  0.50278249  0.50779711  1
  W  W8  1  0.25026159  0.24670501  0.99445904  1
  W  W9  1  0.26168686  0.25657273  0.50642689  1
  W  W10  1  0.24915965  0.74496075  0.99377057  1
  W  W11  1  0.26528025  0.75280149  0.50643667  1
  W  W12  1  0.74856439  0.24281483  0.99287450  1
  W  W13  1  0.76494280  0.25234461  0.50602966  1
  W  W14  1  0.74945073  0.74529091  0.99237211  1
  W  W15  1  0.76636395  0.75454528  0.50884302  1
  W  W16  1  0.10470136  0.10842968  0.25898264  1
  W  W17  1  0.09430787  0.61119033  0.25728792  1
  W  W18  1  0.60253258  0.10172312  0.25731802  1
  W  W19  1  0.60267979  0.60530298  0.25208377  1
  W  W20  1  0.34451405  0.39946772  0.25794817  1
  W  W21  1  0.36289382  0.89674292  0.25008584  1
  W  W22  1  0.85522609  0.40040189  0.25204590  1
  W  W23  1  0.86379435  0.89449068  0.25023202  1
  O  O0  1  0.12699569  0.12572697  0.49116827  1
  O  O1  1  0.11716493  0.11774319  0.98147211  1
  O  O2  1  0.13053563  0.62072185  0.48993096  1
  O  O3  1  0.11916309  0.61296239  0.98024838  1
  O  O4  1  0.63147350  0.12853701  0.49926117  1
  O  O5  1  0.61956786  0.11364427  0.98228523  1
  O  O6  1  0.63487348  0.62568203  0.49998669  1
  O  O7  1  0.61864677  0.61573888  0.98056562  1
  O  O8  1  0.12663256  0.37270880  0.99772802  1
  O  O9  1  0.14767235  0.38950880  0.52226182  1
  O  O10  1  0.12785992  0.87417846  0.00065987  1
  O  O11  1  0.14836723  0.88723476  0.52405538  1
  O  O12  1  0.62332004  0.36968726  0.99736332  1
  O  O13  1  0.65110149  0.38923619  0.52840381  1
  O  O14  1  0.62935544  0.87497757  0.99895876  1
  O  O15  1  0.64905528  0.88863557  0.52698371  1
  O  O16  1  0.38239034  0.12822467  0.49794046  1
  O  O17  1  0.37060673  0.11732970  0.98102401  1
  O  O18  1  0.38100300  0.61809045  0.49605644  1
  O  O19  1  0.36816001  0.61559836  0.98458361  1
  O  O20  1  0.88075139  0.11987724  0.49013396  1
  O  O21  1  0.86731819  0.11257439  0.97780102  1
  O  O22  1  0.88687023  0.62564840  0.49891455  1
  O  O23  1  0.86925712  0.61524701  0.98240234  1
  O  O24  1  0.37525187  0.37391549  0.99762515  1
  O  O25  1  0.40180929  0.38866621  0.52968103  1
  O  O26  1  0.37786790  0.87584686  0.00224018  1
  O  O27  1  0.39888199  0.88952121  0.52760250  1
  O  O28  1  0.87588762  0.36972497  0.99747662  1
  O  O29  1  0.90044834  0.38568345  0.52456178  1
  O  O30  1  0.87506326  0.87565348  0.99830374  1
  O  O31  1  0.90053919  0.88819073  0.52794735  1
  O  O32  1  0.06449457  0.08148341  0.13401820  1
  O  O33  1  0.07699215  0.10989233  0.64205533  1
  O  O34  1  0.06899068  0.56865470  0.13281225  1
  O  O35  1  0.09784706  0.61029102  0.64347773  1
  O  O36  1  0.56531597  0.07785075  0.13357891  1
  O  O37  1  0.57522663  0.10263735  0.64586127  1
  O  O38  1  0.57356632  0.57900466  0.13018999  1
  O  O39  1  0.58690267  0.61864397  0.64513107  1
  O  O40  1  0.44495303  0.39666011  0.37189843  1
  O  O41  1  0.42003063  0.41264881  0.85387797  1
  O  O42  1  0.44317927  0.92681483  0.37337292  1
  O  O43  1  0.43936561  0.91072664  0.85325017  1
  O  O44  1  0.95015932  0.39906084  0.36865470  1
  O  O45  1  0.93690005  0.40020956  0.85607407  1
  O  O46  1  0.94236062  0.90154173  0.37047795  1
  O  O47  1  0.93802714  0.90946261  0.85309435  1
  O  O48  1  0.31661590  0.30553224  0.13465877  1
  O  O49  1  0.31461086  0.28916620  0.64254315  1
  O  O50  1  0.31356411  0.79901677  0.13148117  1
  O  O51  1  0.34090882  0.78419722  0.64461628  1
  O  O52  1  0.82384912  0.29649520  0.13358828  1
  O  O53  1  0.84159073  0.26912010  0.64016495  1
  O  O54  1  0.81819163  0.79690853  0.13076888  1
  O  O55  1  0.84284384  0.78958721  0.64911096  1
  O  O56  1  0.20482955  0.22639833  0.36972229  1
  O  O57  1  0.17886068  0.19801285  0.85232927  1
  O  O58  1  0.20584452  0.70923578  0.37247040  1
  O  O59  1  0.18834190  0.69244008  0.85270004  1
  O  O60  1  0.70476528  0.21182252  0.37008013  1
  O  O61  1  0.67135730  0.18553862  0.85376772  1
  O  O62  1  0.70339392  0.70299949  0.37223235  1
  O  O63  1  0.67931597  0.69947068  0.84989252  1
  O  O64  1  0.45175133  0.07276725  0.27354699  1
  O  O65  1  0.40608303  0.09274731  0.74633458  1
  O  O66  1  0.45516491  0.53088647  0.25428995  1
  O  O67  1  0.43388598  0.53675597  0.73391233  1
  O  O68  1  0.95667959  0.06583890  0.27650939  1
  O  O69  1  0.91476609  0.08176258  0.74515262  1
  O  O70  1  0.94447176  0.56310944  0.27191801  1
  O  O71  1  0.94615017  0.53432020  0.73217432  1
  O  O72  1  0.19123390  0.44926794  0.26710366  1
  O  O73  1  0.14937790  0.40231537  0.74532170  1
  O  O74  1  0.20464236  0.96521247  0.24652768  1
  O  O75  1  0.19529279  0.95402176  0.73415173  1
  O  O76  1  0.69747785  0.45255965  0.25088222  1
  O  O77  1  0.69856238  0.44939409  0.73399771  1
  O  O78  1  0.70798700  0.96228693  0.24773183  1
  O  O79  1  0.69153473  0.94227183  0.74381550  1
loop_
_geom_bond_atom_site_label_1
_geom_bond_atom_site_label_2
_geom_bond_distance
_geom_bond_site_symmetry_2
K0 O10 2.722107 1_545
K0 O48 2.725306 1_555
K0 O26 2.765991 1_545
K0 O64 2.780495 1_555
K0 O1 2.809419 1_554
K0 O32 2.894349 1_555
K0 O17 2.900017 1_554
K0 O36 2.944328 1_555
K0 O50 3.246317 1_545
K1 O66 2.677244 1_555
K1 O8 2.718344 1_554
K1 O50 2.728486 1_555
K1 O24 2.757442 1_554
K1 O3 2.823977 1_554
K1 O19 2.837050 1_554
K1 O34 2.850977 1_555
K1 O38 3.038560 1_555
K1 O48 3.126769 1_555
K2 O52 2.686454 1_555
K2 O14 2.696670 1_544
K2 O30 2.760145 1_544
K2 O5 2.813699 1_554
K2 O68 2.823236 1_555
K2 O36 2.890050 1_555
K2 O32 2.923838 1_655
K2 O21 2.946373 1_554
K2 O54 3.201847 1_545
K3 O54 2.708009 1_555
K3 O12 2.736133 1_554
K3 O28 2.766029 1_554
K3 O70 2.785315 1_555
K3 O38 2.786871 1_555
K3 O7 2.807889 1_554
K3 O23 2.846501 1_554
K3 O34 2.976189 1_655
K3 O52 3.235199 1_555
K4 O58 2.599043 1_555
K4 O0 2.666576 1_565
K4 O74 2.667809 1_555
K4 O16 2.784210 1_565
K4 O11 2.838407 1_555
K4 O46 2.883307 1_455
K4 O42 2.937456 1_555
K4 O27 2.960735 1_555
K5 O59 2.641232 1_555
K5 O75 2.673231 1_555
K5 O17 2.707744 1_565
K5 O26 2.715844 1_556
K5 O1 2.723959 1_565
K5 O10 2.737809 1_556
K5 O47 2.848375 1_455
K5 O43 3.007735 1_555
K6 O76 2.564914 1_555
K6 O60 2.587984 1_555
K6 O6 2.634760 1_555
K6 O22 2.753390 1_555
K6 O13 2.832908 1_555
K6 O40 2.862084 1_555
K6 O29 2.923627 1_555
K6 O44 3.094772 1_555
K6 O62 3.228656 1_555
K7 O61 2.658705 1_555
K7 O12 2.674398 1_555
K7 O7 2.700714 1_555
K7 O28 2.706407 1_555
K7 O77 2.706858 1_555
K7 O23 2.775500 1_555
K7 O41 2.980540 1_555
K7 O45 3.032386 1_555
K8 O62 2.638974 1_555
K8 O78 2.679221 1_555
K8 O20 2.725489 1_565
K8 O4 2.730492 1_565
K8 O15 2.838736 1_555
K8 O42 2.840389 1_555
K8 O31 2.973630 1_555
K8 O46 2.990703 1_555
K9 O72 2.687213 1_555
K9 O28 2.687264 1_454
K9 O32 2.718210 1_555
K9 O8 2.754262 1_554
K9 O52 2.819211 1_455
K9 O1 2.844082 1_554
K9 O21 2.867313 1_454
K9 O48 2.929857 1_555
K9 O34 3.058761 1_555
K10 O74 2.638968 1_555
K10 O30 2.749304 1_454
K10 O10 2.753233 1_555
K10 O23 2.788282 1_454
K10 O34 2.808525 1_555
K10 O54 2.856947 1_455
K10 O3 2.872676 1_554
K10 O50 2.909551 1_555
K11 O76 2.589858 1_555
K11 O24 2.701883 1_554
K11 O36 2.735764 1_555
K11 O12 2.753176 1_554
K11 O17 2.764803 1_554
K11 O48 2.860742 1_555
K11 O5 2.881878 1_554
K11 O52 3.065677 1_555
K11 O38 3.217578 1_555
K12 O78 2.642596 1_555
K12 O26 2.679546 1_555
K12 O38 2.694085 1_555
K12 O14 2.765660 1_554
K12 O19 2.790905 1_554
K12 O7 2.844396 1_554
K12 O50 2.931535 1_555
K12 O54 2.953879 1_555
K12 O36 3.191273 1_565
K13 O66 2.655456 1_555
K13 O42 2.687007 1_555
K13 O18 2.704413 1_555
K13 O58 2.734089 1_555
K13 O6 2.759922 1_555
K13 O27 2.840453 1_555
K13 O15 2.913367 1_555
K13 O62 3.060561 1_555
K14 O43 2.629685 1_555
K14 O67 2.667400 1_555
K14 O7 2.673184 1_555
K14 O26 2.700505 1_556
K14 O19 2.707193 1_555
K14 O14 2.714006 1_555
K14 O59 2.798215 1_555
K14 O63 2.977940 1_555
K15 O47 2.628482 1_555
K15 O71 2.679444 1_555
K15 O23 2.699094 1_555
K15 O3 2.703436 1_655
K15 O30 2.735087 1_555
K15 O10 2.749999 1_656
K15 O63 2.904163 1_555
K15 O59 3.029778 1_655
Na0 O65 2.377429 1_555
Na0 O49 2.391883 1_555
Na0 O11 2.491711 1_545
Na0 O0 2.524822 1_555
Na0 O16 2.545567 1_555
Na0 O27 2.588044 1_545
Na1 O51 2.419802 1_555
Na1 O67 2.433576 1_555
Na1 O9 2.452836 1_555
Na1 O25 2.529298 1_555
Na1 O18 2.548726 1_555
Na1 O2 2.574079 1_555
Na1 O35 2.720937 1_555
Na2 O53 2.289751 1_555
Na2 O15 2.412161 1_545
Na2 O69 2.426483 1_555
Na2 O31 2.479437 1_545
Na2 O4 2.483349 1_555
Na2 O20 2.591485 1_555
Na3 O71 2.426977 1_555
Na3 O55 2.470641 1_555
Na3 O13 2.484256 1_555
Na3 O29 2.526734 1_555
Na3 O6 2.535731 1_555
Na3 O22 2.542080 1_555
Na4 O72 2.372736 1_555
Na4 O56 2.425239 1_555
Na4 O2 2.454019 1_555
Na4 O9 2.625492 1_555
Na4 O18 2.626691 1_555
Na4 O44 2.755549 1_455
Na4 O25 2.901785 1_555
Na5 O8 2.447633 1_555
Na5 O73 2.459001 1_555
Na5 O24 2.467632 1_555
Na5 O3 2.518177 1_555
Na5 O57 2.572907 1_555
Na5 O19 2.598858 1_555
Na5 O45 2.869610 1_455
Na5 O41 2.893006 1_555
Na6 O30 2.498641 1_555
Na6 O21 2.501326 1_565
Na6 O14 2.516997 1_555
Na6 O5 2.517479 1_565
Na6 O63 2.626312 1_555
Na6 O79 2.667106 1_555
Na6 O43 2.865793 1_555
Na7 O33 2.343238 1_555
Na7 O73 2.393267 1_555
Na7 O29 2.427938 1_455
Na7 O20 2.499738 1_455
Na7 O0 2.509421 1_555
Na7 O9 2.598592 1_555
Na7 O53 2.790748 1_455
Na7 O49 2.861266 1_555
Na8 O35 2.398012 1_555
Na8 O75 2.460759 1_555
Na8 O31 2.490862 1_455
Na8 O11 2.494475 1_555
Na8 O22 2.568348 1_455
Na8 O2 2.619993 1_555
Na8 O55 2.934941 1_455
Na8 O51 3.021872 1_555
Na9 O25 2.439242 1_555
Na9 O4 2.461088 1_555
Na9 O37 2.473835 1_555
Na9 O16 2.490513 1_555
Na9 O13 2.510868 1_555
Na9 O77 2.532313 1_555
Na10 O39 2.339093 1_555
Na10 O27 2.450055 1_555
Na10 O15 2.486416 1_555
Na10 O79 2.507981 1_555
Na10 O6 2.545473 1_555
Na10 O18 2.615788 1_555
Na10 O51 2.855774 1_555
Na11 O64 2.355624 1_555
Na11 O40 2.422287 1_555
Na11 O16 2.467745 1_555
Na11 O4 2.649357 1_555
Na11 O56 2.680388 1_555
Na11 O25 2.682955 1_555
Na11 O13 2.893827 1_555
Na12 O65 2.436225 1_555
Na12 O24 2.458813 1_555
Na12 O12 2.482091 1_555
Na12 O17 2.518802 1_555
Na12 O41 2.630606 1_555
Na12 O5 2.645702 1_555
Na12 O57 2.914635 1_555
Na12 O61 2.930366 1_555
Na13 O68 2.349409 1_555
Na13 O44 2.433447 1_555
Na13 O20 2.475360 1_555
Na13 O0 2.608075 1_655
Na13 O29 2.628827 1_555
Na13 O60 2.666586 1_555
Na13 O9 2.843797 1_655
Na14 O28 2.454421 1_555
Na14 O8 2.465743 1_655
Na14 O45 2.498659 1_555
Na14 O1 2.517415 1_655
Na14 O69 2.524493 1_555
Na14 O21 2.535328 1_555
Na15 O70 2.377042 1_555
Na15 O46 2.456580 1_555
Na15 O22 2.518640 1_555
Na15 O2 2.634424 1_655
Na15 O31 2.682729 1_555
Na15 O62 2.696668 1_555
Na15 O11 2.835797 1_655
Nb0 O33 1.868502 1_555
Nb0 O57 1.876023 1_555
Nb0 O75 1.951289 1_545
Nb0 O69 2.035771 1_455
Nb1 O59 1.873919 1_555
Nb1 O35 1.875448 1_555
Nb1 O73 2.034560 1_555
Nb1 O71 2.044836 1_455
Nb2 O61 1.873791 1_555
Nb2 O37 1.890460 1_555
Nb2 O65 1.990702 1_555
Nb2 O79 2.033742 1_545
Nb3 O39 1.850961 1_555
Nb3 O63 1.881086 1_555
Nb3 O77 1.922497 1_555
Nb3 O67 1.926233 1_555
Nb4 O49 1.879810 1_555
Nb4 O41 1.885725 1_555
Nb4 O73 2.000986 1_555
Nb4 O67 2.045497 1_555
Nb5 O43 1.866486 1_555
Nb5 O51 1.881497 1_555
Nb5 O65 2.026237 1_565
Nb5 O75 2.051631 1_555
Nb6 O53 1.864922 1_555
Nb6 O45 1.889386 1_555
Nb6 O71 1.945085 1_555
Nb6 O77 1.990875 1_555
Nb7 O47 1.858918 1_555
Nb7 O55 1.868516 1_555
Nb7 O79 1.928815 1_555
Nb7 O69 1.974784 1_565
O0 W9 2.081509 1_555
O0 W1 2.090401 1_555
O1 W8 2.067603 1_555
O1 W0 2.069817 1_545
O2 W3 2.054545 1_555
O2 W11 2.084309 1_555
O3 W10 2.064151 1_555
O3 W2 2.080396 1_555
O4 W13 2.072087 1_555
O4 W5 2.083116 1_555
O5 W12 2.052002 1_555
O5 W4 2.054871 1_545
O6 W7 2.077421 1_555
O6 W15 2.081860 1_555
O7 W14 2.061579 1_555
O7 W6 2.080892 1_555
O8 W2 2.051344 1_555
O8 W8 2.054761 1_555
O9 W3 2.043497 1_555
O9 W9 2.048232 1_555
O10 W0 2.060357 1_554
O10 W10 2.064624 1_554
O11 W1 2.080021 1_565
O11 W11 2.087114 1_555
O12 W6 2.074681 1_555
O12 W12 2.075671 1_555
O13 W7 2.083232 1_555
O13 W13 2.093492 1_555
O14 W14 2.058714 1_555
O14 W4 2.064548 1_555
O15 W15 2.088513 1_555
O15 W5 2.111666 1_565
O16 W9 2.053855 1_555
O16 W5 2.079270 1_555
O17 W8 2.065793 1_555
O17 W4 2.071461 1_545
O18 W7 2.053542 1_555
O18 W11 2.069841 1_555
O19 W10 2.049240 1_555
O19 W6 2.054971 1_555
O20 W13 2.058716 1_555
O20 W1 2.069140 1_655
O21 W12 2.062672 1_555
O21 W0 2.064873 1_645
O22 W15 2.058311 1_555
O22 W3 2.064520 1_655
O23 W14 2.062229 1_555
O23 W2 2.071390 1_655
O24 W8 2.057501 1_555
O24 W6 2.075205 1_555
O25 W7 2.078081 1_555
O25 W9 2.089800 1_555
O26 W10 2.078937 1_554
O26 W4 2.079412 1_554
O27 W5 2.069141 1_565
O27 W11 2.086314 1_555
O28 W12 2.062827 1_555
O28 W2 2.090251 1_655
O29 W13 2.088631 1_555
O29 W3 2.104477 1_655
O30 W14 2.068224 1_555
O30 W0 2.078102 1_655
O31 W15 2.077042 1_555
O31 W1 2.085615 1_665
O32 W16 2.003664 1_555
O32 W0 2.160723 1_544
O33 W1 2.194348 1_555
O34 W17 1.995902 1_555
O34 W2 2.145203 1_554
O35 W3 2.213462 1_555
O36 W18 1.994949 1_555
O36 W4 2.154886 1_544
O37 W5 2.166248 1_555
O38 W19 1.972588 1_555
O38 W6 2.133453 1_554
O39 W7 2.214001 1_555
O40 W20 1.969876 1_555
O40 W7 2.166756 1_555
O41 W6 2.189376 1_555
O42 W21 1.965341 1_555
O42 W5 2.111334 1_565
O43 W4 2.227880 1_555
O44 W22 1.988186 1_555
O44 W3 2.165680 1_655
O45 W2 2.190277 1_655
O46 W23 1.981434 1_555
O46 W1 2.127576 1_665
O47 W0 2.235385 1_655
O48 W20 1.997045 1_555
O48 W8 2.186896 1_554
O49 W9 2.164247 1_555
O50 W21 1.907722 1_555
O50 W10 2.151027 1_554
O51 W11 2.195500 1_555
O52 W22 1.947310 1_555
O52 W12 2.199754 1_554
O53 W13 2.169965 1_555
O54 W23 1.922389 1_555
O54 W14 2.163832 1_554
O55 W15 2.221612 1_555
O56 W16 1.951710 1_555
O56 W9 2.176442 1_555
O57 W8 2.227270 1_555
O58 W17 1.963136 1_555
O58 W11 2.104139 1_555
O59 W10 2.208313 1_555
O60 W18 1.946067 1_555
O60 W13 2.141147 1_555
O61 W12 2.172304 1_555
O62 W19 1.983967 1_555
O62 W15 2.136039 1_555
O63 W14 2.236915 1_555
O64 W18 1.905904 1_555
O64 W21 2.162718 1_545
O66 W19 1.937187 1_555
O66 W20 2.039076 1_555
O68 W16 1.931134 1_655
O68 W23 2.120522 1_545
O70 W17 1.944969 1_655
O70 W22 2.044100 1_555
O72 W20 1.905045 1_555
O72 W17 2.231291 1_555
O74 W21 1.987252 1_555
O74 W16 2.030850 1_565
O76 W22 1.918608 1_555
O76 W19 2.097251 1_555
O78 W23 1.960903 1_555
O78 W18 2.034228 1_565
