# generated using pymatgen
data_Sr2NdSmMn4O12
_symmetry_space_group_name_H-M   'P 1'
_cell_length_a   5.51174067
_cell_length_b   5.51174067
_cell_length_c   7.79752715
_cell_angle_alpha   89.55603470
_cell_angle_beta   89.55603470
_cell_angle_gamma   89.50267605
_symmetry_Int_Tables_number   1
_chemical_formula_structural   Sr2NdSmMn4O12
_chemical_formula_sum   'Sr2 Nd1 Sm1 Mn4 O12'
_cell_volume   236.86027778
_cell_formula_units_Z   1
loop_
 _symmetry_equiv_pos_site_id
 _symmetry_equiv_pos_as_xyz
  1  'x, y, z'
loop_
 _atom_site_type_symbol
 _atom_site_label
 _atom_site_symmetry_multiplicity
 _atom_site_fract_x
 _atom_site_fract_y
 _atom_site_fract_z
 _atom_site_occupancy
  Sr  Sr0  1  0.74935700  0.74935700  0.99978200  1
  Sr  Sr1  1  0.24973500  0.24973500  0.49966900  1
  Nd  Nd0  1  0.75619400  0.75619400  0.50715200  1
  Sm  Sm0  1  0.25964600  0.25964600  0.00780700  1
  Mn  Mn0  1  0.25055300  0.75086700  0.75142000  1
  Mn  Mn1  1  0.75055300  0.25039700  0.24959700  1
  Mn  Mn2  1  0.25039700  0.75055300  0.24959700  1
  Mn  Mn3  1  0.75086700  0.25055300  0.75142000  1
  O  O0  1  0.45975300  0.03909600  0.23823400  1
  O  O1  1  0.96093000  0.53877500  0.74102700  1
  O  O2  1  0.27957400  0.69675300  0.99969900  1
  O  O3  1  0.77895800  0.20225800  0.49974900  1
  O  O4  1  0.69675300  0.27957400  0.99969900  1
  O  O5  1  0.20225800  0.77895800  0.49974900  1
  O  O6  1  0.53877500  0.96093000  0.74102700  1
  O  O7  1  0.03909600  0.45975300  0.23823400  1
  O  O8  1  0.97131300  0.97131300  0.22020300  1
  O  O9  1  0.47091600  0.47091600  0.72167700  1
  O  O10  1  0.04325100  0.04325100  0.79417200  1
  O  O11  1  0.54112300  0.54112300  0.29008500  1
loop_
_geom_bond_atom_site_label_1
_geom_bond_atom_site_label_2
_geom_bond_distance
_geom_bond_site_symmetry_2
Nd0 O11 2.400385 1_555
Nd0 O1 2.451469 1_555
Nd0 O6 2.451469 1_555
Nd0 O3 2.463083 1_565
Nd0 O5 2.463083 1_655
Mn0 O2 1.964057 1_555
Mn0 O9 1.969403 1_555
Mn0 O6 1.974650 1_555
Mn0 O5 1.987098 1_555
Mn0 O1 1.989283 1_455
Mn0 O10 1.996043 1_565
Mn1 O8 1.966696 1_545
Mn1 O3 1.973731 1_555
Mn1 O7 1.974019 1_655
Mn1 O4 1.978396 1_554
Mn1 O0 1.992347 1_555
Mn1 O11 1.992466 1_555
Mn2 O8 1.966696 1_455
Mn2 O5 1.973731 1_555
Mn2 O0 1.974019 1_565
Mn2 O2 1.978396 1_554
Mn2 O7 1.992347 1_555
Mn2 O11 1.992466 1_555
Mn3 O4 1.964057 1_555
Mn3 O9 1.969403 1_555
Mn3 O1 1.974650 1_555
Mn3 O3 1.987098 1_555
Mn3 O6 1.989283 1_545
Mn3 O10 1.996043 1_655
O0 Sm0 2.428194 1_555
O0 Sr1 2.611570 1_555
O0 Sr0 2.917383 1_544
O1 Sr0 2.598899 1_555
O1 Sr1 2.927425 1_655
O2 Sm0 2.412992 1_556
O2 Sr0 2.608010 1_555
O2 Sr0 2.934256 1_455
O3 Sr1 2.610216 1_655
O3 Sr1 2.926396 1_555
O4 Sm0 2.412992 1_556
O4 Sr0 2.608010 1_555
O4 Sr0 2.934256 1_545
O5 Sr1 2.610216 1_565
O5 Sr1 2.926396 1_555
O6 Sr0 2.598899 1_555
O6 Sr1 2.927425 1_565
O7 Sm0 2.428194 1_555
O7 Sr1 2.611570 1_555
O7 Sr0 2.917383 1_454
O8 Sr0 2.457326 1_554
O8 Sr1 3.098892 1_665
O9 Sr1 2.461775 1_555
O9 Sr0 3.091462 1_555
O10 Sm0 2.388803 1_556
O10 Sr0 2.789876 1_445
O10 Sr1 2.793813 1_555
O11 Sr0 2.775069 1_554
O11 Sr1 2.791592 1_555
