# generated using pymatgen
data_NaV3Fe2CuO12
_symmetry_space_group_name_H-M   'P 1'
_cell_length_a   6.74543600
_cell_length_b   8.33843915
_cell_length_c   9.94509462
_cell_angle_alpha   107.09888511
_cell_angle_beta   103.81468444
_cell_angle_gamma   102.08507679
_symmetry_Int_Tables_number   1
_chemical_formula_structural   NaV3Fe2CuO12
_chemical_formula_sum   'Na2 V6 Fe4 Cu2 O24'
_cell_volume   495.07236161
_cell_formula_units_Z   2
loop_
 _symmetry_equiv_pos_site_id
 _symmetry_equiv_pos_as_xyz
  1  'x, y, z'
loop_
 _atom_site_type_symbol
 _atom_site_label
 _atom_site_symmetry_multiplicity
 _atom_site_fract_x
 _atom_site_fract_y
 _atom_site_fract_z
 _atom_site_occupancy
  Na  Na0  1  0.50827100  0.00134500  0.50293800  1
  Na  Na1  1  0.01251700  0.97541100  0.44827900  1
  V  V0  1  0.61064300  0.58859800  0.33186200  1
  V  V1  1  0.38864300  0.41016700  0.66777100  1
  V  V2  1  0.72434700  0.16367300  0.25981300  1
  V  V3  1  0.27412700  0.83726100  0.73887900  1
  V  V4  1  0.90850000  0.22763500  0.87319300  1
  V  V5  1  0.09166000  0.77145500  0.12591700  1
  Fe  Fe0  1  0.87964200  0.45003200  0.60799200  1
  Fe  Fe1  1  0.12079100  0.54906600  0.39307300  1
  Fe  Fe2  1  0.54716000  0.70444800  0.01579800  1
  Fe  Fe3  1  0.45338400  0.29528100  0.98315800  1
  Cu  Cu0  1  0.22225600  0.21300700  0.20348700  1
  Cu  Cu1  1  0.77566100  0.78586700  0.79387200  1
  O  O0  1  0.67027500  0.80350100  0.41869300  1
  O  O1  1  0.33321700  0.19596800  0.57960800  1
  O  O2  1  0.57832900  0.55282600  0.14198000  1
  O  O3  1  0.42179300  0.44732300  0.85798500  1
  O  O4  1  0.62993700  0.51788500  0.65088600  1
  O  O5  1  0.36943800  0.48259400  0.34954300  1
  O  O6  1  0.68405100  0.94426700  0.17981600  1
  O  O7  1  0.31890000  0.05567700  0.82233800  1
  O  O8  1  0.93017400  0.34225300  0.75352200  1
  O  O9  1  0.06788100  0.66105200  0.24825500  1
  O  O10  1  0.49612800  0.77936700  0.83351300  1
  O  O11  1  0.50156700  0.22015600  0.16569200  1
  O  O12  1  0.80984900  0.00624000  0.76438300  1
  O  O13  1  0.18615100  0.99343600  0.23902300  1
  O  O14  1  0.97946500  0.27377300  0.25867600  1
  O  O15  1  0.02099700  0.72607100  0.74162800  1
  O  O16  1  0.74169800  0.20335800  0.44489800  1
  O  O17  1  0.25698800  0.79768400  0.55267800  1
  O  O18  1  0.73127000  0.28305300  0.96463100  1
  O  O19  1  0.26952800  0.71745600  0.03546600  1
  O  O20  1  0.83968000  0.72774100  0.99348000  1
  O  O21  1  0.16098500  0.27208400  0.00687400  1
  O  O22  1  0.83052000  0.52469600  0.42048700  1
  O  O23  1  0.16957900  0.47489200  0.57901400  1
loop_
_geom_bond_atom_site_label_1
_geom_bond_atom_site_label_2
_geom_bond_distance
_geom_bond_site_symmetry_2
Na0 O0 2.235402 1_545
Na0 O1 2.261437 1_555
Na0 O16 2.354800 1_555
Na0 O17 2.385541 1_545
Na0 O12 2.877025 1_555
Na0 O13 2.954505 1_545
Na1 O1 2.310877 1_565
Na1 O0 2.347935 1_455
Na1 O13 2.645655 1_555
Na1 O17 2.665344 1_555
Na1 O16 2.900553 1_465
Na1 O6 2.937881 1_455
Na1 O9 2.943815 1_555
Fe0 O8 1.917320 1_555
Fe0 O4 1.984805 1_555
Fe0 O23 2.021268 1_655
Fe0 O16 2.059946 1_555
Fe0 O22 2.109196 1_555
Fe0 O15 2.156484 1_655
Fe1 O9 1.938688 1_555
Fe1 O5 1.975515 1_555
Fe1 O22 2.017502 1_455
Fe1 O17 2.057251 1_555
Fe1 O23 2.092258 1_555
Fe1 O14 2.153049 1_455
Fe2 O19 1.950572 1_555
Fe2 O20 2.013563 1_554
Fe2 O6 2.025244 1_555
Fe2 O2 2.033630 1_555
Fe2 O10 2.062313 1_554
Fe2 O3 2.098428 1_554
Fe3 O18 1.947274 1_555
Fe3 O7 2.010415 1_555
Fe3 O21 2.018039 1_556
Fe3 O3 2.029010 1_555
Fe3 O11 2.065335 1_556
Fe3 O2 2.104456 1_556
Cu0 O13 1.941962 1_545
Cu0 O14 1.962998 1_455
Cu0 O11 1.999730 1_555
Cu0 O21 2.121919 1_555
Cu0 O5 2.146035 1_555
Cu1 O12 1.920312 1_565
Cu1 O15 1.964955 1_655
Cu1 O10 2.009605 1_555
Cu1 O4 2.127381 1_555
Cu1 O20 2.146191 1_555
O0 V0 1.655581 1_555
O1 V1 1.655775 1_555
O2 V0 1.774116 1_555
O3 V1 1.774497 1_555
O4 V1 1.758186 1_555
O5 V0 1.756497 1_555
O6 V2 1.698972 1_565
O7 V3 1.690599 1_545
O8 V4 1.744906 1_555
O9 V5 1.744558 1_555
O10 V3 1.805019 1_555
O11 V2 1.800026 1_555
O12 V4 1.728825 1_555
O13 V5 1.742672 1_555
O14 V2 1.777150 1_555
O15 V3 1.774862 1_555
O16 V2 1.741853 1_555
O17 V3 1.753229 1_555
O18 V4 1.724259 1_555
O19 V5 1.718978 1_555
O20 V5 1.773636 1_656
O21 V4 1.780473 1_454
O22 V0 1.800927 1_555
O23 V1 1.801431 1_555
