# generated using pymatgen
data_BaMnO3
_symmetry_space_group_name_H-M   'P 1'
_cell_length_a   9.93015546
_cell_length_b   9.93014143
_cell_length_c   4.90105618
_cell_angle_alpha   89.99987452
_cell_angle_beta   90.00029651
_cell_angle_gamma   120.00013374
_symmetry_Int_Tables_number   1
_chemical_formula_structural   BaMnO3
_chemical_formula_sum   'Ba6 Mn6 O18'
_cell_volume   418.53444768
_cell_formula_units_Z   6
loop_
 _symmetry_equiv_pos_site_id
 _symmetry_equiv_pos_as_xyz
  1  'x, y, z'
loop_
 _atom_site_type_symbol
 _atom_site_label
 _atom_site_symmetry_multiplicity
 _atom_site_fract_x
 _atom_site_fract_y
 _atom_site_fract_z
 _atom_site_occupancy
  Ba  Ba0  1  0.66613231  0.66613150  0.72455825  1
  Ba  Ba1  1  -0.00000190  0.66613550  0.22456019  1
  Ba  Ba2  1  0.66613695  0.00000118  0.22455813  1
  Ba  Ba3  1  0.33386783  0.00000007  0.72455846  1
  Ba  Ba4  1  -0.00000111  0.33386765  0.72456051  1
  Ba  Ba5  1  0.33386537  0.33386348  0.22456070  1
  Mn  Mn0  1  0.33333307  0.66666787  0.93376336  1
  Mn  Mn1  1  0.66666810  0.33333116  0.43384465  1
  Mn  Mn2  1  0.33333314  0.66666823  0.43377684  1
  Mn  Mn3  1  0.66666801  0.33332759  0.93384596  1
  Mn  Mn4  1  0.00000008  -0.00000097  0.53703915  1
  Mn  Mn5  1  0.00000036  0.00000413  0.03701818  1
  O  O0  1  0.33315387  0.81369067  0.18225049  1
  O  O1  1  0.18630623  0.51946253  0.18224911  1
  O  O2  1  0.48053627  0.66684259  0.18225317  1
  O  O3  1  0.51945543  0.33314729  0.68233122  1
  O  O4  1  0.66685194  0.18630948  0.68233660  1
  O  O5  1  0.81369166  0.48054393  0.68233250  1
  O  O6  1  0.33315554  0.51946446  0.68225092  1
  O  O7  1  0.81369614  0.33316150  0.18233800  1
  O  O8  1  0.51946594  0.18629889  0.18233005  1
  O  O9  1  0.48053507  0.81369082  0.68224838  1
  O  O10  1  0.18630964  0.66684452  0.68224812  1
  O  O11  1  0.66683577  0.48053506  0.18233573  1
  O  O12  1  -0.00000031  0.14701687  0.28864201  1
  O  O13  1  0.85298673  0.00000068  0.78864022  1
  O  O14  1  0.14701560  0.14701786  0.78864297  1
  O  O15  1  0.85298504  0.85298477  0.28864332  1
  O  O16  1  0.14701567  0.00000173  0.28864426  1
  O  O17  1  0.00000158  0.85298893  0.78864352  1
loop_
_geom_bond_atom_site_label_1
_geom_bond_atom_site_label_2
_geom_bond_distance
_geom_bond_site_symmetry_2
Ba0 O15 2.829700 1_555
Ba0 O6 2.877755 1_555
Ba0 O3 2.877783 1_555
Ba0 O5 2.878650 1_555
Ba0 O9 2.878764 1_555
Ba0 O13 2.895081 1_565
Ba0 O17 2.895088 1_655
Ba0 O2 2.905450 1_556
Ba0 O11 2.905729 1_556
Ba0 O11 3.236001 1_555
Ba0 O2 3.236343 1_555
Ba0 O15 3.329540 1_556
Ba1 O17 2.829692 1_554
Ba1 O7 2.877693 1_455
Ba1 O1 2.877796 1_555
Ba1 O0 2.878758 1_555
Ba1 O11 2.878779 1_455
Ba1 O15 2.895031 1_455
Ba1 O16 2.895054 1_565
Ba1 O10 2.905443 1_555
Ba1 O5 2.905721 1_455
Ba1 O5 3.236017 1_454
Ba1 O10 3.236417 1_554
Ba1 O17 3.329535 1_555
Ba2 O13 2.829698 1_554
Ba2 O8 2.877656 1_555
Ba2 O0 2.877806 1_545
Ba2 O7 2.878759 1_555
Ba2 O2 2.878774 1_545
Ba2 O12 2.895027 1_655
Ba2 O15 2.895047 1_545
Ba2 O9 2.905455 1_545
Ba2 O4 2.905756 1_555
Ba2 O4 3.236005 1_554
Ba2 O9 3.236387 1_544
Ba2 O13 3.329511 1_555
Ba3 O16 2.829689 1_555
Ba3 O9 2.877758 1_545
Ba3 O4 2.877786 1_555
Ba3 O3 2.878645 1_555
Ba3 O10 2.878749 1_545
Ba3 O17 2.895065 1_545
Ba3 O14 2.895097 1_555
Ba3 O0 2.905432 1_546
Ba3 O8 2.905706 1_556
Ba3 O8 3.236026 1_555
Ba3 O0 3.236369 1_545
Ba3 O16 3.329558 1_556
Ba4 O12 2.829701 1_555
Ba4 O10 2.877754 1_555
Ba4 O5 2.877784 1_455
Ba4 O4 2.878646 1_455
Ba4 O6 2.878762 1_555
Ba4 O13 2.895062 1_455
Ba4 O14 2.895062 1_555
Ba4 O1 2.905409 1_556
Ba4 O7 2.905751 1_456
Ba4 O7 3.235999 1_455
Ba4 O1 3.236375 1_555
Ba4 O12 3.329518 1_556
Ba5 O14 2.829667 1_554
Ba5 O11 2.877668 1_555
Ba5 O2 2.877770 1_555
Ba5 O1 2.878779 1_555
Ba5 O8 2.878811 1_555
Ba5 O16 2.895018 1_555
Ba5 O12 2.895052 1_555
Ba5 O6 2.905454 1_555
Ba5 O3 2.905700 1_555
Ba5 O3 3.236035 1_554
Ba5 O6 3.236389 1_554
Ba5 O14 3.329509 1_555
Mn0 O0 1.901905 1_556
Mn0 O1 1.901928 1_556
Mn0 O2 1.901934 1_556
Mn0 O10 1.911431 1_555
Mn0 O9 1.911441 1_555
Mn0 O6 1.911450 1_555
Mn1 O4 1.901925 1_555
Mn1 O5 1.901945 1_555
Mn1 O3 1.901971 1_555
Mn1 O7 1.911422 1_555
Mn1 O8 1.911470 1_555
Mn1 O11 1.911476 1_555
Mn2 O9 1.901848 1_555
Mn2 O10 1.901853 1_555
Mn2 O6 1.901879 1_555
Mn2 O0 1.911470 1_555
Mn2 O2 1.911500 1_555
Mn2 O1 1.911504 1_555
Mn3 O7 1.901905 1_556
Mn3 O8 1.901917 1_556
Mn3 O11 1.901998 1_556
Mn3 O4 1.911406 1_555
Mn3 O5 1.911493 1_555
Mn3 O3 1.911511 1_555
Mn4 O15 1.900866 1_445
Mn4 O16 1.900870 1_555
Mn4 O12 1.900898 1_555
Mn4 O17 1.910948 1_545
Mn4 O13 1.910972 1_455
Mn4 O14 1.910992 1_555
Mn5 O13 1.900790 1_454
Mn5 O14 1.900805 1_554
Mn5 O17 1.900814 1_544
Mn5 O12 1.911031 1_555
Mn5 O16 1.911059 1_555
Mn5 O15 1.911067 1_445
