# generated using pymatgen
data_LuTlSe2
_symmetry_space_group_name_H-M   'P 1'
_cell_length_a   4.07909072
_cell_length_b   4.07909212
_cell_length_c   8.08875482
_cell_angle_alpha   75.39547789
_cell_angle_beta   75.39547493
_cell_angle_gamma   60.00000564
_symmetry_Int_Tables_number   1
_chemical_formula_structural   LuTlSe2
_chemical_formula_sum   'Lu1 Tl1 Se2'
_cell_volume   111.50756521
_cell_formula_units_Z   1
loop_
 _symmetry_equiv_pos_site_id
 _symmetry_equiv_pos_as_xyz
  1  'x, y, z'
loop_
 _atom_site_type_symbol
 _atom_site_label
 _atom_site_symmetry_multiplicity
 _atom_site_fract_x
 _atom_site_fract_y
 _atom_site_fract_z
 _atom_site_occupancy
  Lu  Lu0  1  -0.00000000  -0.00000000  -0.00000000  1
  Tl  Tl0  1  0.50000000  0.50000000  0.50000000  1
  Se  Se0  1  0.73313084  0.73313084  0.80060448  1
  Se  Se1  1  0.26686916  0.26686916  0.19939552  1
loop_
_geom_bond_atom_site_label_1
_geom_bond_atom_site_label_2
_geom_bond_distance
_geom_bond_site_symmetry_2
Lu0 Se0 2.815514 1_544
Lu0 Se1 2.815514 1_455
Lu0 Se0 2.815515 1_454
Lu0 Se1 2.815515 1_545
Lu0 Se0 2.815523 1_444
Lu0 Se1 2.815523 1_555
Se0 Tl0 3.310194 1_555
Se0 Tl0 3.310201 1_655
Se0 Tl0 3.310202 1_565
Se1 Tl0 3.310194 1_555
Se1 Tl0 3.310201 1_455
Se1 Tl0 3.310202 1_545
