# generated using pymatgen
data_RbTiP2O7
_symmetry_space_group_name_H-M   'P 1'
_cell_length_a   10.43268000
_cell_length_b   7.67057200
_cell_length_c   8.36003420
_cell_angle_alpha   74.19108352
_cell_angle_beta   90.00000000
_cell_angle_gamma   90.00000000
_symmetry_Int_Tables_number   1
_chemical_formula_structural   RbTiP2O7
_chemical_formula_sum   'Rb4 Ti4 P8 O28'
_cell_volume   643.70374375
_cell_formula_units_Z   4
loop_
 _symmetry_equiv_pos_site_id
 _symmetry_equiv_pos_as_xyz
  1  'x, y, z'
loop_
 _atom_site_type_symbol
 _atom_site_label
 _atom_site_symmetry_multiplicity
 _atom_site_fract_x
 _atom_site_fract_y
 _atom_site_fract_z
 _atom_site_occupancy
  Rb  Rb0  1  0.18282400  0.18929800  0.94458000  1
  Rb  Rb1  1  0.68282400  0.81070200  0.55542000  1
  Rb  Rb2  1  0.81717600  0.81070200  0.05542000  1
  Rb  Rb3  1  0.31717600  0.18929800  0.44458000  1
  Ti  Ti0  1  0.89835500  0.23769900  0.24121500  1
  Ti  Ti1  1  0.39835500  0.76230100  0.25878500  1
  Ti  Ti2  1  0.10164500  0.76230100  0.75878500  1
  Ti  Ti3  1  0.60164500  0.23769900  0.74121500  1
  P  P0  1  0.59747200  0.13166200  0.17165300  1
  P  P1  1  0.09747200  0.86833800  0.32834700  1
  P  P2  1  0.40252800  0.86833800  0.82834700  1
  P  P3  1  0.90252800  0.13166200  0.67165300  1
  P  P4  1  0.63436800  0.43561900  0.31378100  1
  P  P5  1  0.13436800  0.56438100  0.18621900  1
  P  P6  1  0.36563200  0.56438100  0.68621900  1
  P  P7  1  0.86563200  0.43561900  0.81378100  1
  O  O0  1  0.58931300  0.15411500  0.98515200  1
  O  O1  1  0.08931300  0.84588500  0.51484800  1
  O  O2  1  0.41068700  0.84588500  0.01484800  1
  O  O3  1  0.91068700  0.15411500  0.48515200  1
  O  O4  1  0.49944600  0.99756700  0.27096900  1
  O  O5  1  0.99944600  0.00243300  0.22903100  1
  O  O6  1  0.50055400  0.00243300  0.72903100  1
  O  O7  1  0.00055400  0.99756700  0.77096900  1
  O  O8  1  0.73361800  0.08375400  0.23911100  1
  O  O9  1  0.23361800  0.91624600  0.26088900  1
  O  O10  1  0.26638200  0.91624600  0.76088900  1
  O  O11  1  0.76638200  0.08375400  0.73911100  1
  O  O12  1  0.55906500  0.32801400  0.19761100  1
  O  O13  1  0.05906500  0.67198600  0.30238900  1
  O  O14  1  0.44093500  0.67198600  0.80238900  1
  O  O15  1  0.94093500  0.32801400  0.69761100  1
  O  O16  1  0.72331200  0.44533100  0.76681000  1
  O  O17  1  0.22331200  0.55466900  0.73319000  1
  O  O18  1  0.27668800  0.55466900  0.23319000  1
  O  O19  1  0.77668800  0.44533100  0.26681000  1
  O  O20  1  0.89231800  0.32410900  0.99329100  1
  O  O21  1  0.39231800  0.67589100  0.50670900  1
  O  O22  1  0.10768200  0.67589100  0.00670900  1
  O  O23  1  0.60768200  0.32410900  0.49329100  1
  O  O24  1  0.92428300  0.62456100  0.77147600  1
  O  O25  1  0.42428300  0.37543900  0.72852400  1
  O  O26  1  0.07571700  0.37543900  0.22852400  1
  O  O27  1  0.57571700  0.62456100  0.27147600  1
loop_
_geom_bond_atom_site_label_1
_geom_bond_atom_site_label_2
_geom_bond_distance
_geom_bond_site_symmetry_2
O0 P0 1.523667 1_556
O0 Ti3 1.968260 1_555
O0 Rb2 3.477357 1_546
O1 P1 1.523667 1_555
O1 Ti2 1.968260 1_555
O1 Rb3 3.477357 1_565
O2 P2 1.523667 1_554
O2 Ti1 1.968260 1_555
O2 Rb0 3.477357 1_564
O3 P3 1.523667 1_555
O3 Ti0 1.968260 1_555
O3 Rb1 3.477357 1_545
O4 P0 1.525746 1_565
O4 Ti1 2.116480 1_555
O4 Rb3 3.008062 1_565
O4 Rb1 3.084211 1_555
O5 P1 1.525746 1_645
O5 Ti0 2.116480 1_555
O5 Rb2 3.008062 1_545
O5 Rb0 3.084211 1_654
O6 P2 1.525746 1_545
O6 Ti3 2.116480 1_555
O6 Rb1 3.008062 1_545
O6 Rb3 3.084211 1_555
O7 P3 1.525746 1_465
O7 Ti2 2.116480 1_555
O7 Rb0 3.008062 1_565
O7 Rb2 3.084211 1_456
O8 P0 1.535451 1_555
O8 Ti0 2.088008 1_555
O8 Rb1 2.939812 1_545
O8 Rb2 3.042605 1_545
O9 P1 1.535451 1_555
O9 Ti1 2.088008 1_555
O9 Rb0 2.939812 1_564
O9 Rb3 3.042605 1_565
O10 P2 1.535451 1_555
O10 Ti2 2.088008 1_555
O10 Rb3 2.939812 1_565
O10 Rb0 3.042605 1_565
O11 P3 1.535451 1_555
O11 Ti3 2.088008 1_555
O11 Rb2 2.939812 1_546
O11 Rb1 3.042605 1_545
O12 P0 1.629160 1_555
O12 P4 1.636589 1_555
O12 Rb3 3.250591 1_555
O13 P1 1.629160 1_555
O13 P5 1.636589 1_555
O13 Rb2 3.250591 1_455
O14 P2 1.629160 1_555
O14 P6 1.636589 1_555
O14 Rb1 3.250591 1_555
O15 P3 1.629160 1_555
O15 P7 1.636589 1_555
O15 Rb0 3.250591 1_655
O16 P7 1.532441 1_555
O16 Ti3 2.092648 1_555
O16 Rb1 2.908178 1_555
O17 P6 1.532441 1_555
O17 Ti2 2.092648 1_555
O17 Rb0 2.908178 1_555
O18 P5 1.532441 1_555
O18 Ti1 2.092648 1_555
O18 Rb3 2.908178 1_555
O19 P4 1.532441 1_555
O19 Ti0 2.092648 1_555
O19 Rb2 2.908178 1_555
O20 P7 1.536834 1_555
O20 Ti0 1.997664 1_556
O20 Rb0 3.263445 1_655
O21 P6 1.536834 1_555
O21 Ti1 1.997664 1_555
O21 Rb1 3.263445 1_555
O22 P5 1.536834 1_555
O22 Ti2 1.997664 1_554
O22 Rb2 3.263445 1_455
O23 P4 1.536834 1_555
O23 Ti3 1.997664 1_555
O23 Rb3 3.263445 1_555
O24 P7 1.523371 1_555
O24 Ti2 2.119033 1_655
O24 Rb1 3.200256 1_555
O24 Rb2 3.281582 1_556
O25 P6 1.523371 1_555
O25 Ti3 2.119033 1_555
O25 Rb0 3.200256 1_555
O25 Rb3 3.281582 1_555
O26 P5 1.523371 1_555
O26 Ti0 2.119033 1_455
O26 Rb3 3.200256 1_555
O26 Rb0 3.281582 1_554
O27 P4 1.523371 1_555
O27 Ti1 2.119033 1_555
O27 Rb2 3.200256 1_555
O27 Rb1 3.281582 1_555
