# generated using pymatgen
data_Mg4Si3
_symmetry_space_group_name_H-M   'P 1'
_cell_length_a   5.99498300
_cell_length_b   7.21700406
_cell_length_c   7.58069142
_cell_angle_alpha   108.91592016
_cell_angle_beta   109.83336751
_cell_angle_gamma   103.93438693
_symmetry_Int_Tables_number   1
_chemical_formula_structural   Mg4Si3
_chemical_formula_sum   'Mg8 Si6'
_cell_volume   268.23245088
_cell_formula_units_Z   2
loop_
 _symmetry_equiv_pos_site_id
 _symmetry_equiv_pos_as_xyz
  1  'x, y, z'
loop_
 _atom_site_type_symbol
 _atom_site_label
 _atom_site_symmetry_multiplicity
 _atom_site_fract_x
 _atom_site_fract_y
 _atom_site_fract_z
 _atom_site_occupancy
  Mg  Mg0  1  0.04354700  0.81772300  0.26410000  1
  Mg  Mg1  1  0.24961900  0.16120300  0.10089700  1
  Mg  Mg2  1  0.34852600  0.39663700  0.67204400  1
  Mg  Mg3  1  0.93145700  0.37648100  0.86722800  1
  Mg  Mg4  1  0.48057600  0.69077300  0.22883100  1
  Mg  Mg5  1  0.41287300  0.94763900  0.70789600  1
  Mg  Mg6  1  0.80232600  0.52280200  0.50139400  1
  Mg  Mg7  1  0.74509200  0.08275300  0.17992000  1
  Si  Si0  1  0.65853800  0.39388400  0.07938000  1
  Si  Si1  1  0.55975100  0.11985700  0.47001700  1
  Si  Si2  1  0.20559200  0.74523400  0.89538900  1
  Si  Si3  1  0.12031400  0.47152800  0.30547500  1
  Si  Si4  1  0.89371900  0.98130900  0.62106400  1
  Si  Si5  1  0.79810100  0.79214700  0.85628600  1
loop_
_geom_bond_atom_site_label_1
_geom_bond_atom_site_label_2
_geom_bond_distance
_geom_bond_site_symmetry_2
Mg0 Si3 2.741635 1_555
Mg0 Si1 2.834309 1_565
Mg0 Si5 2.858157 1_454
Mg0 Si0 2.876484 1_455
Mg0 Si4 3.100314 1_455
Mg0 Si2 3.188909 1_554
Mg1 Si0 2.706004 1_555
Mg1 Si3 2.724311 1_555
Mg1 Si5 2.789105 1_444
Mg1 Si2 2.795721 1_544
Mg1 Si1 2.941756 1_555
Mg1 Si4 3.131561 1_444
Mg2 Si1 2.913731 1_555
Mg2 Si5 2.918564 1_555
Mg2 Si3 2.938710 1_555
Mg2 Si0 3.025367 1_556
Mg2 Si2 3.031709 1_555
Mg3 Si0 2.651943 1_556
Mg3 Si2 2.667593 1_655
Mg3 Si1 2.702972 1_555
Mg3 Si4 2.760313 1_545
Mg3 Si3 2.895782 1_656
Mg4 Si3 2.703238 1_555
Mg4 Si0 2.712932 1_555
Mg4 Si2 2.718472 1_554
Mg4 Si4 2.798448 1_555
Mg4 Si1 2.861818 1_565
Mg5 Si2 2.714506 1_555
Mg5 Si1 2.752367 1_565
Mg5 Si5 2.856917 1_555
Mg5 Si4 3.042473 1_455
Mg5 Si0 3.080984 1_566
Mg5 Si4 3.139430 1_555
Mg6 Si2 2.732178 1_655
Mg6 Si0 2.766931 1_555
Mg6 Si5 2.774234 1_555
Mg6 Si3 2.807402 1_655
Mg6 Si1 2.812151 1_555
Mg6 Si4 2.985996 1_555
Mg7 Si0 2.700833 1_555
Mg7 Si1 2.749920 1_555
Mg7 Si3 2.759412 1_655
Mg7 Si5 2.834190 1_544
Mg7 Si2 3.018578 1_544
Si0 Si3 2.515121 1_655
Si1 Si4 2.543681 1_545
Si2 Si5 2.478367 1_455
Si4 Si5 2.695727 1_555
