# generated using pymatgen
data_Li3TiMn2O6
_symmetry_space_group_name_H-M   'P 1'
_cell_length_a   5.91530529
_cell_length_b   6.57356888
_cell_length_c   7.17238499
_cell_angle_alpha   105.84506705
_cell_angle_beta   77.90711571
_cell_angle_gamma   116.37041390
_symmetry_Int_Tables_number   1
_chemical_formula_structural   Li3TiMn2O6
_chemical_formula_sum   'Li6 Ti2 Mn4 O12'
_cell_volume   239.11736273
_cell_formula_units_Z   2
loop_
 _symmetry_equiv_pos_site_id
 _symmetry_equiv_pos_as_xyz
  1  'x, y, z'
loop_
 _atom_site_type_symbol
 _atom_site_label
 _atom_site_symmetry_multiplicity
 _atom_site_fract_x
 _atom_site_fract_y
 _atom_site_fract_z
 _atom_site_occupancy
  Li  Li0  1  0.58339400  0.83287000  0.33211200  1
  Li  Li1  1  0.08345200  0.83298200  0.33236400  1
  Li  Li2  1  0.25648000  0.51540200  0.02271800  1
  Li  Li3  1  0.74629100  0.51150300  0.02629100  1
  Li  Li4  1  0.91006000  0.15085600  0.64373100  1
  Li  Li5  1  0.42048200  0.15482900  0.64014900  1
  Ti  Ti0  1  0.83511100  0.33604400  0.33248500  1
  Ti  Ti1  1  0.33136000  0.33080800  0.33459000  1
  Mn  Mn0  1  0.49962200  0.99342400  0.00403800  1
  Mn  Mn1  1  0.16329600  0.67124500  0.68337500  1
  Mn  Mn2  1  0.00354100  0.99556000  0.98332600  1
  Mn  Mn3  1  0.66668200  0.67334200  0.66285000  1
  O  O0  1  0.85062900  0.25023200  0.04467000  1
  O  O1  1  0.37948800  0.24652400  0.04323300  1
  O  O2  1  0.31644400  0.41660300  0.62207200  1
  O  O3  1  0.78693200  0.42041600  0.62362800  1
  O  O4  1  0.55067800  0.91002800  0.66983200  1
  O  O5  1  0.01875300  0.90800700  0.66519200  1
  O  O6  1  0.61603400  0.75707100  0.99776900  1
  O  O7  1  0.14780900  0.75889900  0.00211700  1
  O  O8  1  0.19594100  0.55548700  0.32498700  1
  O  O9  1  0.69815700  0.56336800  0.32767500  1
  O  O10  1  0.97067300  0.11105100  0.34160100  1
  O  O11  1  0.46868600  0.10344500  0.33920100  1
loop_
_geom_bond_atom_site_label_1
_geom_bond_atom_site_label_2
_geom_bond_distance
_geom_bond_site_symmetry_2
Li0 O9 2.151495 1_555
Li0 O11 2.152868 1_565
Li0 O8 2.205892 1_555
Li0 O10 2.207393 1_565
Li0 O6 2.296761 1_554
Li0 O4 2.319899 1_555
Li1 O9 2.178978 1_455
Li1 O11 2.180895 1_565
Li1 O8 2.187198 1_555
Li1 O10 2.188450 1_465
Li1 O7 2.269273 1_555
Li1 O5 2.286977 1_555
Li2 O6 2.018307 1_554
Li2 O7 2.019928 1_555
Li2 O8 2.084329 1_555
Li2 O1 2.237067 1_555
Li2 O0 2.258482 1_455
Li3 O9 2.072658 1_555
Li3 O1 2.098656 1_555
Li3 O0 2.108893 1_555
Li3 O6 2.143050 1_554
Li3 O7 2.205919 1_655
Li4 O4 2.016414 1_545
Li4 O5 2.018161 1_645
Li4 O10 2.083517 1_555
Li4 O3 2.240796 1_555
Li4 O2 2.261796 1_655
Li5 O11 2.069812 1_555
Li5 O3 2.098639 1_555
Li5 O2 2.110140 1_555
Li5 O4 2.141209 1_545
Li5 O5 2.206124 1_545
Mn0 O6 1.946650 1_554
Mn0 O7 1.964213 1_555
Mn0 O1 2.015776 1_565
Mn0 O0 2.029031 1_565
Mn0 O4 2.294292 1_554
Mn0 O11 2.306345 1_565
Mn1 O5 2.123689 1_555
Mn1 O4 2.125773 1_555
Mn1 O2 2.143427 1_555
Mn1 O3 2.147485 1_455
Mn1 O7 2.192407 1_556
Mn1 O8 2.465403 1_555
Mn2 O7 2.123379 1_556
Mn2 O6 2.125943 1_455
Mn2 O0 2.142564 1_466
Mn2 O1 2.146130 1_566
Mn2 O5 2.188311 1_555
Mn2 O10 2.464533 1_466
Mn3 O4 1.945662 1_555
Mn3 O5 1.965634 1_655
Mn3 O3 2.015139 1_555
Mn3 O2 2.025906 1_555
Mn3 O6 2.299143 1_555
Mn3 O9 2.306409 1_555
O0 Ti0 1.979586 1_555
O1 Ti1 2.003389 1_555
O2 Ti1 1.977467 1_555
O3 Ti0 2.001996 1_555
O8 Ti0 1.974490 1_455
O8 Ti1 1.989332 1_555
O9 Ti0 2.001450 1_555
O9 Ti1 2.024085 1_555
O10 Ti1 1.974390 1_655
O10 Ti0 1.990758 1_555
O11 Ti1 2.002881 1_555
O11 Ti0 2.022541 1_555
