# generated using pymatgen
data_MnH12C4(N9O2)2
_symmetry_space_group_name_H-M   'P 1'
_cell_length_a   7.53429500
_cell_length_b   14.81595800
_cell_length_c   15.11636400
_cell_angle_alpha   90.00000000
_cell_angle_beta   90.00000000
_cell_angle_gamma   90.00000000
_symmetry_Int_Tables_number   1
_chemical_formula_structural   MnH12C4(N9O2)2
_chemical_formula_sum   'Mn4 H48 C16 N72 O16'
_cell_volume   1687.40643131
_cell_formula_units_Z   4
loop_
 _symmetry_equiv_pos_site_id
 _symmetry_equiv_pos_as_xyz
  1  'x, y, z'
loop_
 _atom_site_type_symbol
 _atom_site_label
 _atom_site_symmetry_multiplicity
 _atom_site_fract_x
 _atom_site_fract_y
 _atom_site_fract_z
 _atom_site_occupancy
  Mn  Mn0  1  0.00000000  0.50000000  0.50000000  1
  Mn  Mn1  1  0.50000000  0.00000000  0.50000000  1
  Mn  Mn2  1  0.00000000  0.00000000  0.00000000  1
  Mn  Mn3  1  0.50000000  0.50000000  0.00000000  1
  H  H0  1  0.16106400  0.67197200  0.74917500  1
  H  H1  1  0.83893600  0.32802800  0.25082500  1
  H  H2  1  0.33893600  0.17197200  0.25082500  1
  H  H3  1  0.83893600  0.82802800  0.24917500  1
  H  H4  1  0.66106400  0.82802800  0.74917500  1
  H  H5  1  0.16106400  0.17197200  0.75082500  1
  H  H6  1  0.66106400  0.32802800  0.75082500  1
  H  H7  1  0.33893600  0.67197200  0.24917500  1
  H  H8  1  0.06778300  0.82306900  0.66604600  1
  H  H9  1  0.93221700  0.17693100  0.33395400  1
  H  H10  1  0.43221700  0.32306900  0.33395400  1
  H  H11  1  0.93221700  0.67693100  0.16604600  1
  H  H12  1  0.56778300  0.67693100  0.66604600  1
  H  H13  1  0.06778300  0.32306900  0.83395400  1
  H  H14  1  0.56778300  0.17693100  0.83395400  1
  H  H15  1  0.43221700  0.82306900  0.16604600  1
  H  H16  1  0.23106300  0.76972200  0.86492400  1
  H  H17  1  0.76893700  0.23027800  0.13507600  1
  H  H18  1  0.26893700  0.26972200  0.13507600  1
  H  H19  1  0.76893700  0.73027800  0.36492400  1
  H  H20  1  0.73106300  0.73027800  0.86492400  1
  H  H21  1  0.23106300  0.26972200  0.63507600  1
  H  H22  1  0.73106300  0.23027800  0.63507600  1
  H  H23  1  0.26893700  0.76972200  0.36492400  1
  H  H24  1  0.38362700  0.69784100  0.84546000  1
  H  H25  1  0.61637300  0.30215900  0.15454000  1
  H  H26  1  0.11637300  0.19784100  0.15454000  1
  H  H27  1  0.61637300  0.80215900  0.34546000  1
  H  H28  1  0.88362700  0.80215900  0.84546000  1
  H  H29  1  0.38362700  0.19784100  0.65454000  1
  H  H30  1  0.88362700  0.30215900  0.65454000  1
  H  H31  1  0.11637300  0.69784100  0.34546000  1
  H  H32  1  0.14325000  0.57468600  0.98765700  1
  H  H33  1  0.85675000  0.42531400  0.01234300  1
  H  H34  1  0.35675000  0.07468600  0.01234300  1
  H  H35  1  0.85675000  0.92531400  0.48765700  1
  H  H36  1  0.64325000  0.92531400  0.98765700  1
  H  H37  1  0.14325000  0.07468600  0.51234300  1
  H  H38  1  0.64325000  0.42531400  0.51234300  1
  H  H39  1  0.35675000  0.57468600  0.48765700  1
  H  H40  1  0.17969500  0.52253400  0.89735100  1
  H  H41  1  0.82030500  0.47746600  0.10264900  1
  H  H42  1  0.32030500  0.02253400  0.10264900  1
  H  H43  1  0.82030500  0.97746600  0.39735100  1
  H  H44  1  0.67969500  0.97746600  0.89735100  1
  H  H45  1  0.17969500  0.02253400  0.60264900  1
  H  H46  1  0.67969500  0.47746600  0.60264900  1
  H  H47  1  0.32030500  0.52253400  0.39735100  1
  C  C0  1  0.09971000  0.54188700  0.70596800  1
  C  C1  1  0.90029000  0.45811300  0.29403200  1
  C  C2  1  0.40029000  0.04188700  0.29403200  1
  C  C3  1  0.90029000  0.95811300  0.20596800  1
  C  C4  1  0.59971000  0.95811300  0.70596800  1
  C  C5  1  0.09971000  0.04188700  0.79403200  1
  C  C6  1  0.59971000  0.45811300  0.79403200  1
  C  C7  1  0.40029000  0.54188700  0.20596800  1
  C  C8  1  0.04381100  0.67975500  0.62522100  1
  C  C9  1  0.95618900  0.32024500  0.37477900  1
  C  C10  1  0.45618900  0.17975500  0.37477900  1
  C  C11  1  0.95618900  0.82024500  0.12522100  1
  C  C12  1  0.54381100  0.82024500  0.62522100  1
  C  C13  1  0.04381100  0.17975500  0.87477900  1
  C  C14  1  0.54381100  0.32024500  0.87477900  1
  C  C15  1  0.45618900  0.67975500  0.12522100  1
  N  N0  1  0.48140400  0.85427300  0.54883800  1
  N  N1  1  0.51859600  0.14572700  0.45116200  1
  N  N2  1  0.01859600  0.35427300  0.45116200  1
  N  N3  1  0.51859600  0.64572700  0.04883800  1
  N  N4  1  0.98140400  0.64572700  0.54883800  1
  N  N5  1  0.48140400  0.35427300  0.95116200  1
  N  N6  1  0.98140400  0.14572700  0.95116200  1
  N  N7  1  0.01859600  0.85427300  0.04883800  1
  N  N8  1  0.06848500  0.78204100  0.99893700  1
  N  N9  1  0.93151500  0.21795900  0.00106300  1
  N  N10  1  0.43151500  0.28204100  0.00106300  1
  N  N11  1  0.93151500  0.71795900  0.49893700  1
  N  N12  1  0.56848500  0.71795900  0.99893700  1
  N  N13  1  0.06848500  0.28204100  0.50106300  1
  N  N14  1  0.56848500  0.21795900  0.50106300  1
  N  N15  1  0.43151500  0.78204100  0.49893700  1
  N  N16  1  0.06774800  0.90048300  0.81847000  1
  N  N17  1  0.93225200  0.09951700  0.18153000  1
  N  N18  1  0.43225200  0.40048300  0.18153000  1
  N  N19  1  0.93225200  0.59951700  0.31847000  1
  N  N20  1  0.56774800  0.59951700  0.81847000  1
  N  N21  1  0.06774800  0.40048300  0.68153000  1
  N  N22  1  0.56774800  0.09951700  0.68153000  1
  N  N23  1  0.43225200  0.90048300  0.31847000  1
  N  N24  1  0.03302800  0.77067700  0.62021400  1
  N  N25  1  0.96697200  0.22932300  0.37978600  1
  N  N26  1  0.46697200  0.27067700  0.37978600  1
  N  N27  1  0.96697200  0.72932300  0.12021400  1
  N  N28  1  0.53302800  0.72932300  0.62021400  1
  N  N29  1  0.03302800  0.27067700  0.87978600  1
  N  N30  1  0.53302800  0.22932300  0.87978600  1
  N  N31  1  0.46697200  0.77067700  0.12021400  1
  N  N32  1  0.06785900  0.98161400  0.85879000  1
  N  N33  1  0.93214100  0.01838600  0.14121000  1
  N  N34  1  0.43214100  0.48161400  0.14121000  1
  N  N35  1  0.93214100  0.51838600  0.35879000  1
  N  N36  1  0.56785900  0.51838600  0.85879000  1
  N  N37  1  0.06785900  0.48161400  0.64121000  1
  N  N38  1  0.56785900  0.01838600  0.64121000  1
  N  N39  1  0.43214100  0.98161400  0.35879000  1
  N  N40  1  0.10110200  0.91217000  0.73429300  1
  N  N41  1  0.89889800  0.08783000  0.26570700  1
  N  N42  1  0.39889800  0.41217000  0.26570700  1
  N  N43  1  0.89889800  0.58783000  0.23429300  1
  N  N44  1  0.60110200  0.58783000  0.73429300  1
  N  N45  1  0.10110200  0.41217000  0.76570700  1
  N  N46  1  0.60110200  0.08783000  0.76570700  1
  N  N47  1  0.39889800  0.91217000  0.23429300  1
  N  N48  1  0.46198100  0.70741100  0.54073800  1
  N  N49  1  0.53801900  0.29258900  0.45926200  1
  N  N50  1  0.03801900  0.20741100  0.45926200  1
  N  N51  1  0.53801900  0.79258900  0.04073800  1
  N  N52  1  0.96198100  0.79258900  0.54073800  1
  N  N53  1  0.46198100  0.20741100  0.95926200  1
  N  N54  1  0.96198100  0.29258900  0.95926200  1
  N  N55  1  0.03801900  0.70741100  0.04073800  1
  N  N56  1  0.12215600  0.50035200  0.78430500  1
  N  N57  1  0.87784400  0.49964800  0.21569500  1
  N  N58  1  0.37784400  0.00035200  0.21569500  1
  N  N59  1  0.87784400  0.99964800  0.28430500  1
  N  N60  1  0.62215600  0.99964800  0.78430500  1
  N  N61  1  0.12215600  0.00035200  0.71569500  1
  N  N62  1  0.62215600  0.49964800  0.71569500  1
  N  N63  1  0.37784400  0.50035200  0.28430500  1
  N  N64  1  0.10614300  0.63437800  0.69670500  1
  N  N65  1  0.89385700  0.36562200  0.30329500  1
  N  N66  1  0.39385700  0.13437800  0.30329500  1
  N  N67  1  0.89385700  0.86562200  0.19670500  1
  N  N68  1  0.60614300  0.86562200  0.69670500  1
  N  N69  1  0.10614300  0.13437800  0.80329500  1
  N  N70  1  0.60614300  0.36562200  0.80329500  1
  N  N71  1  0.39385700  0.63437800  0.19670500  1
  O  O0  1  0.21576100  0.52703600  0.96102000  1
  O  O1  1  0.78423900  0.47296400  0.03898000  1
  O  O2  1  0.28423900  0.02703600  0.03898000  1
  O  O3  1  0.78423900  0.97296400  0.46102000  1
  O  O4  1  0.71576100  0.97296400  0.96102000  1
  O  O5  1  0.21576100  0.02703600  0.53898000  1
  O  O6  1  0.71576100  0.47296400  0.53898000  1
  O  O7  1  0.28423900  0.52703600  0.46102000  1
  O  O8  1  0.28717400  0.73321400  0.81871700  1
  O  O9  1  0.71282600  0.26678600  0.18128300  1
  O  O10  1  0.21282600  0.23321400  0.18128300  1
  O  O11  1  0.71282600  0.76678600  0.31871700  1
  O  O12  1  0.78717400  0.76678600  0.81871700  1
  O  O13  1  0.28717400  0.23321400  0.68128300  1
  O  O14  1  0.78717400  0.26678600  0.68128300  1
  O  O15  1  0.21282600  0.73321400  0.31871700  1
loop_
_geom_bond_atom_site_label_1
_geom_bond_atom_site_label_2
_geom_bond_distance
_geom_bond_site_symmetry_2
Mn0 N35 2.211796 1_455
Mn0 N37 2.211796 1_555
Mn0 O7 2.256955 1_555
Mn0 O6 2.256955 1_455
Mn0 N4 2.286109 1_455
Mn0 N2 2.286109 1_555
Mn1 N39 2.211796 1_545
Mn1 N38 2.211796 1_555
Mn1 O3 2.256955 1_545
Mn1 O5 2.256955 1_555
Mn1 N0 2.286109 1_545
Mn1 N1 2.286109 1_555
Mn2 N32 2.211796 1_544
Mn2 N33 2.211796 1_455
Mn2 O2 2.256955 1_555
Mn2 O4 2.256955 1_444
Mn2 N7 2.286109 1_545
Mn2 N6 2.286109 1_454
Mn3 N36 2.211796 1_554
Mn3 N34 2.211796 1_555
Mn3 O1 2.256955 1_555
Mn3 O0 2.256955 1_554
Mn3 N3 2.286109 1_555
Mn3 N5 2.286109 1_554
H0 N64 1.053830 1_555
H0 O8 1.682603 1_555
H1 N65 1.053830 1_555
H1 O9 1.682603 1_555
H2 N66 1.053830 1_555
H2 O10 1.682603 1_555
H3 N67 1.053830 1_555
H3 O11 1.682603 1_555
H4 N68 1.053830 1_555
H4 O12 1.682603 1_555
H5 N69 1.053830 1_555
H5 O13 1.682603 1_555
H6 N70 1.053830 1_555
H6 O14 1.682603 1_555
H7 N71 1.053830 1_555
H7 O15 1.682603 1_555
H8 N24 1.072895 1_555
H8 N40 1.694114 1_555
H9 N25 1.072895 1_555
H9 N41 1.694114 1_555
H10 N26 1.072895 1_555
H10 N42 1.694114 1_555
H11 N27 1.072895 1_555
H11 N43 1.694114 1_555
H12 N28 1.072895 1_555
H12 N44 1.694114 1_555
H13 N29 1.072895 1_555
H13 N45 1.694114 1_555
H14 N30 1.072895 1_555
H14 N46 1.694114 1_555
H15 N31 1.072895 1_555
H15 N47 1.694114 1_555
H16 O8 0.979374 1_555
H17 O9 0.979374 1_555
H18 O10 0.979374 1_555
H19 O11 0.979374 1_555
H20 O12 0.979374 1_555
H21 O13 0.979374 1_555
H22 O14 0.979374 1_555
H23 O15 0.979374 1_555
H24 O8 0.982949 1_555
H25 O9 0.982949 1_555
H26 O10 0.982949 1_555
H27 O11 0.982949 1_555
H28 O12 0.982949 1_555
H29 O13 0.982949 1_555
H30 O14 0.982949 1_555
H31 O15 0.982949 1_555
H32 O0 0.979287 1_555
H33 O1 0.979287 1_555
H34 O2 0.979287 1_555
H35 O3 0.979287 1_555
H36 O4 0.979287 1_555
H37 O5 0.979287 1_555
H38 O6 0.979287 1_555
H39 O7 0.979287 1_555
H40 O0 1.002290 1_555
H41 O1 1.002290 1_555
H42 O2 1.002290 1_555
H43 O3 1.002290 1_555
H44 O4 1.002290 1_555
H45 O5 1.002290 1_555
H46 O6 1.002290 1_555
H47 O7 1.002290 1_555
C0 N56 1.345196 1_555
C0 N37 1.346587 1_555
C0 N64 1.378330 1_555
C1 N57 1.345196 1_555
C1 N35 1.346587 1_555
C1 N65 1.378330 1_555
C2 N58 1.345196 1_555
C2 N39 1.346587 1_545
C2 N66 1.378330 1_555
C3 N59 1.345196 1_555
C3 N33 1.346587 1_565
C3 N67 1.378330 1_555
C4 N60 1.345196 1_555
C4 N38 1.346587 1_565
C4 N68 1.378330 1_555
C5 N61 1.345196 1_555
C5 N32 1.346587 1_545
C5 N69 1.378330 1_555
C6 N62 1.345196 1_555
C6 N36 1.346587 1_555
C6 N70 1.378330 1_555
C7 N63 1.345196 1_555
C7 N34 1.346587 1_555
C7 N71 1.378330 1_555
C8 N4 1.344780 1_455
C8 N24 1.351665 1_555
C8 N64 1.356537 1_555
C9 N2 1.344780 1_655
C9 N25 1.351665 1_555
C9 N65 1.356537 1_555
C10 N1 1.344780 1_555
C10 N26 1.351665 1_555
C10 N66 1.356537 1_555
C11 N7 1.344780 1_655
C11 N27 1.351665 1_555
C11 N67 1.356537 1_555
C12 N0 1.344780 1_555
C12 N28 1.351665 1_555
C12 N68 1.356537 1_555
C13 N6 1.344780 1_455
C13 N29 1.351665 1_555
C13 N69 1.356537 1_555
C14 N5 1.344780 1_555
C14 N30 1.351665 1_555
C14 N70 1.356537 1_555
C15 N3 1.344780 1_555
C15 N31 1.351665 1_555
C15 N71 1.356537 1_555
N0 N15 1.362198 1_555
N1 N14 1.362198 1_555
N6 N9 1.362198 1_556
N7 N8 1.362198 1_554
N10 N53 1.294050 1_554
N10 N5 1.362198 1_554
N11 N52 1.294050 1_555
N11 N4 1.362198 1_555
N12 N51 1.294050 1_556
N12 N3 1.362198 1_556
N13 N50 1.294050 1_555
N13 N2 1.362198 1_555
N14 N49 1.294050 1_555
N15 N48 1.294050 1_555
N16 N40 1.308535 1_555
N16 N32 1.347726 1_555
N17 N41 1.308535 1_555
N17 N33 1.347726 1_555
N18 N42 1.308535 1_555
N18 N34 1.347726 1_555
N19 N43 1.308535 1_555
N19 N35 1.347726 1_555
N20 N44 1.308535 1_555
N20 N36 1.347726 1_555
N21 N45 1.308535 1_555
N21 N37 1.347726 1_555
N22 N46 1.308535 1_555
N22 N38 1.347726 1_555
N23 N47 1.308535 1_555
N23 N39 1.347726 1_555
N24 N52 1.354719 1_455
N25 N50 1.354719 1_655
N26 N49 1.354719 1_555
N27 N55 1.354719 1_655
N28 N48 1.354719 1_555
N29 N54 1.354719 1_455
N30 N53 1.354719 1_555
N31 N51 1.354719 1_555
N40 N61 1.345787 1_565
N41 N59 1.345787 1_545
N42 N63 1.345787 1_555
N43 N57 1.345787 1_555
N44 N62 1.345787 1_555
N45 N56 1.345787 1_555
N46 N60 1.345787 1_545
N47 N58 1.345787 1_565
N54 N9 1.294050 1_556
N55 N8 1.294050 1_554
