# generated using pymatgen
data_K2VCuS4
_symmetry_space_group_name_H-M   'P 1'
_cell_length_a   13.23790720
_cell_length_b   11.81425633
_cell_length_c   7.09938163
_cell_angle_alpha   84.96039859
_cell_angle_beta   62.74866339
_cell_angle_gamma   32.29093801
_symmetry_Int_Tables_number   1
_chemical_formula_structural   K2VCuS4
_chemical_formula_sum   'K4 V2 Cu2 S8'
_cell_volume   409.48035839
_cell_formula_units_Z   2
loop_
 _symmetry_equiv_pos_site_id
 _symmetry_equiv_pos_as_xyz
  1  'x, y, z'
loop_
 _atom_site_type_symbol
 _atom_site_label
 _atom_site_symmetry_multiplicity
 _atom_site_fract_x
 _atom_site_fract_y
 _atom_site_fract_z
 _atom_site_occupancy
  K  K0  1  0.67880800  0.67880800  0.32119200  1
  K  K1  1  0.92880800  0.92880800  0.57119200  1
  K  K2  1  0.32119200  0.32119200  0.67880800  1
  K  K3  1  0.57119200  0.57119200  0.92880800  1
  V  V0  1  0.75000000  0.75000000  0.75000000  1
  V  V1  1  0.50000000  0.50000000  0.50000000  1
  Cu  Cu0  1  0.00000000  0.00000000  0.00000000  1
  Cu  Cu1  1  0.25000000  0.25000000  0.25000000  1
  S  S0  1  0.02323600  0.36791200  0.67053200  1
  S  S1  1  0.22676400  0.88208800  0.57946800  1
  S  S2  1  0.88208800  0.22676400  0.31168100  1
  S  S3  1  0.57946800  0.31168100  0.22676400  1
  S  S4  1  0.93831900  0.67053200  0.36791200  1
  S  S5  1  0.67053200  0.93831900  0.02323600  1
  S  S6  1  0.36791200  0.02323600  0.93831900  1
  S  S7  1  0.31168100  0.57946800  0.88208800  1
loop_
_geom_bond_atom_site_label_1
_geom_bond_atom_site_label_2
_geom_bond_distance
_geom_bond_site_symmetry_2
K0 S6 3.316087 1_565
K0 S0 3.316093 1_654
K0 S1 3.371481 1_555
K0 S2 3.371482 1_555
K0 S6 3.482737 1_654
K0 S0 3.482739 1_565
K0 S4 3.520133 1_555
K0 S5 3.520137 1_555
K1 S7 3.316090 1_565
K1 S3 3.316092 1_655
K1 S5 3.371489 1_556
K1 S4 3.371493 1_555
K1 S7 3.482736 1_654
K1 S3 3.482742 1_566
K1 S2 3.520143 1_565
K1 S1 3.520147 1_655
K2 S4 3.316090 1_545
K2 S5 3.316092 1_456
K2 S3 3.371489 1_555
K2 S7 3.371493 1_555
K2 S4 3.482736 1_456
K2 S5 3.482742 1_545
K2 S6 3.520143 1_555
K2 S0 3.520147 1_555
K3 S2 3.316087 1_555
K3 S1 3.316093 1_556
K3 S0 3.371481 1_655
K3 S6 3.371482 1_565
K3 S2 3.482737 1_466
K3 S1 3.482739 1_645
K3 S7 3.520133 1_555
K3 S3 3.520137 1_556
Cu0 S3 2.306149 1_455
Cu0 S7 2.306150 1_544
Cu0 S1 2.306153 1_544
Cu0 S2 2.306158 1_455
Cu1 S5 2.306149 1_545
Cu1 S4 2.306150 1_455
Cu1 S0 2.306153 1_555
Cu1 S6 2.306158 1_554
S0 V0 2.179872 1_455
S1 V1 2.179872 1_555
S2 V1 2.179875 1_555
S3 V1 2.179864 1_555
S4 V0 2.179870 1_555
S5 V0 2.179864 1_554
S6 V0 2.179875 1_545
S7 V1 2.179870 1_555
