# generated using pymatgen
data_Er2Cu(GeO4)2
_symmetry_space_group_name_H-M   'P 1'
_cell_length_a   5.13339983
_cell_length_b   8.13033599
_cell_length_c   8.88274230
_cell_angle_alpha   116.92922772
_cell_angle_beta   106.34481139
_cell_angle_gamma   90.94356048
_symmetry_Int_Tables_number   1
_chemical_formula_structural   Er2Cu(GeO4)2
_chemical_formula_sum   'Er4 Cu2 Ge4 O16'
_cell_volume   312.65446381
_cell_formula_units_Z   2
loop_
 _symmetry_equiv_pos_site_id
 _symmetry_equiv_pos_as_xyz
  1  'x, y, z'
loop_
 _atom_site_type_symbol
 _atom_site_label
 _atom_site_symmetry_multiplicity
 _atom_site_fract_x
 _atom_site_fract_y
 _atom_site_fract_z
 _atom_site_occupancy
  Er  Er0  1  0.11321200  0.30111200  0.76006000  1
  Er  Er1  1  0.35315200  0.54105200  0.23994000  1
  Er  Er2  1  0.36604900  0.04448600  0.24109300  1
  Er  Er3  1  0.12495700  0.80339300  0.75890700  1
  Cu  Cu0  1  0.54733000  0.92493000  0.58554400  1
  Cu  Cu1  1  0.96178600  0.33938500  0.41445600  1
  Ge  Ge0  1  0.78773600  0.16230200  0.00000000  1
  Ge  Ge1  1  0.97095900  0.88862700  0.42116100  1
  Ge  Ge2  1  0.54979800  0.46746600  0.57883900  1
  Ge  Ge3  1  0.68762800  0.66655800  0.00000000  1
  O  O0  1  0.17335800  0.09699800  0.46912400  1
  O  O1  1  0.70423400  0.62787400  0.53087600  1
  O  O2  1  0.47847400  0.06259600  0.81218100  1
  O  O3  1  0.66629200  0.25041400  0.18781900  1
  O  O4  1  0.47785300  0.49076100  0.00000000  1
  O  O5  1  0.19562600  0.74393900  0.48241700  1
  O  O6  1  0.71320900  0.26152200  0.51758300  1
  O  O7  1  0.00501200  0.75726800  0.18414300  1
  O  O8  1  0.82086900  0.57312600  0.81585700  1
  O  O9  1  0.00125300  0.33839400  0.00000000  1
  O  O10  1  0.47816800  0.83730100  0.00000000  1
  O  O11  1  0.59490200  0.83866000  0.33819600  1
  O  O12  1  0.25670600  0.50046400  0.66180400  1
  O  O13  1  0.01058900  0.99537300  0.00000000  1
  O  O14  1  0.93470400  0.00488000  0.65935900  1
  O  O15  1  0.27534500  0.34552100  0.34064100  1
loop_
_geom_bond_atom_site_label_1
_geom_bond_atom_site_label_2
_geom_bond_distance
_geom_bond_site_symmetry_2
Er0 O14 2.226010 1_455
Er0 O9 2.252720 1_556
Er0 O4 2.259797 1_556
Er0 O12 2.352697 1_555
Er0 O6 2.412489 1_455
Er0 O0 2.471706 1_555
Er0 O8 2.631333 1_455
Er0 O2 2.816921 1_555
Er1 O15 2.226011 1_555
Er1 O9 2.252720 1_555
Er1 O4 2.259797 1_555
Er1 O11 2.352697 1_555
Er1 O5 2.412489 1_555
Er1 O1 2.471706 1_555
Er1 O7 2.631327 1_555
Er1 O3 2.816924 1_555
Er2 O13 2.253301 1_545
Er2 O10 2.283240 1_545
Er2 O15 2.301738 1_555
Er2 O0 2.371038 1_555
Er2 O11 2.392975 1_545
Er2 O6 2.414348 1_555
Er2 O3 2.538851 1_555
Er2 O7 2.720962 1_545
Er3 O13 2.253304 1_556
Er3 O10 2.283237 1_556
Er3 O14 2.301739 1_465
Er3 O1 2.371041 1_455
Er3 O12 2.392973 1_555
Er3 O5 2.414346 1_555
Er3 O2 2.538857 1_565
Er3 O8 2.720959 1_455
Cu0 O14 1.909001 1_565
Cu0 O2 1.950148 1_565
Cu0 O5 2.006187 1_555
Cu0 O11 2.071409 1_555
Cu0 O1 2.437106 1_555
Cu0 O0 2.644514 1_565
Cu1 O15 1.909003 1_655
Cu1 O3 1.950151 1_555
Cu1 O6 2.006183 1_555
Cu1 O12 2.071410 1_655
Cu1 O0 2.437099 1_655
Cu1 O1 2.644520 1_555
Ge0 O9 1.788690 1_655
Ge0 O13 1.789363 1_645
Ge0 O2 1.789628 1_554
Ge0 O3 1.789631 1_555
Ge1 O0 1.780508 1_665
Ge1 O5 1.811427 1_655
Ge1 O11 1.826761 1_555
Ge1 O7 1.944319 1_655
Ge1 O14 1.954694 1_565
Ge2 O1 1.780508 1_555
Ge2 O6 1.811427 1_555
Ge2 O12 1.826761 1_555
Ge2 O8 1.944319 1_555
Ge2 O15 1.954694 1_555
Ge3 O10 1.769859 1_555
Ge3 O4 1.775331 1_555
Ge3 O8 1.800476 1_554
Ge3 O7 1.800476 1_655
