# generated using pymatgen
data_CaAgAsO4
_symmetry_space_group_name_H-M   'P 1'
_cell_length_a   5.61533021
_cell_length_b   5.61533021
_cell_length_c   7.15422300
_cell_angle_alpha   90.00000000
_cell_angle_beta   90.00000000
_cell_angle_gamma   116.05701306
_symmetry_Int_Tables_number   1
_chemical_formula_structural   CaAgAsO4
_chemical_formula_sum   'Ca2 Ag2 As2 O8'
_cell_volume   202.65728490
_cell_formula_units_Z   2
loop_
 _symmetry_equiv_pos_site_id
 _symmetry_equiv_pos_as_xyz
  1  'x, y, z'
loop_
 _atom_site_type_symbol
 _atom_site_label
 _atom_site_symmetry_multiplicity
 _atom_site_fract_x
 _atom_site_fract_y
 _atom_site_fract_z
 _atom_site_occupancy
  Ca  Ca0  1  0.00000000  0.00000000  0.50000000  1
  Ca  Ca1  1  0.00000000  0.00000000  0.00000000  1
  Ag  Ag0  1  0.31181500  0.68818500  0.75000000  1
  Ag  Ag1  1  0.68818500  0.31181500  0.25000000  1
  As  As0  1  0.65154000  0.34846000  0.75000000  1
  As  As1  1  0.34846000  0.65154000  0.25000000  1
  O  O0  1  0.75832600  0.24167400  0.55768500  1
  O  O1  1  0.24167400  0.75832600  0.44231500  1
  O  O2  1  0.24167400  0.75832600  0.05768500  1
  O  O3  1  0.75832600  0.24167400  0.94231500  1
  O  O4  1  0.77504800  0.69265900  0.75000000  1
  O  O5  1  0.22495200  0.30734100  0.25000000  1
  O  O6  1  0.30734100  0.22495200  0.75000000  1
  O  O7  1  0.69265800  0.77504800  0.25000000  1
loop_
_geom_bond_atom_site_label_1
_geom_bond_atom_site_label_2
_geom_bond_distance
_geom_bond_site_symmetry_2
Ca0 O0 2.339145 1_455
Ca0 O1 2.339145 1_545
Ca0 O5 2.420289 1_555
Ca0 O6 2.420289 1_555
Ca0 O4 2.420289 1_445
Ca0 O7 2.420291 1_445
Ca1 O3 2.339145 1_454
Ca1 O2 2.339145 1_545
Ca1 O5 2.420289 1_555
Ca1 O6 2.420289 1_554
Ca1 O4 2.420289 1_444
Ca1 O7 2.420291 1_445
Ag0 O2 2.300442 1_556
Ag0 O1 2.300442 1_555
Ag0 O6 2.590269 1_555
Ag0 O4 2.590269 1_555
Ag1 O3 2.300442 1_554
Ag1 O0 2.300442 1_555
Ag1 O5 2.590269 1_555
Ag1 O7 2.590271 1_555
As0 O3 1.711148 1_555
As0 O0 1.711148 1_555
As0 O6 1.743284 1_555
As0 O4 1.743284 1_555
As1 O1 1.711148 1_555
As1 O2 1.711148 1_555
As1 O7 1.743278 1_555
As1 O5 1.743284 1_555
