# generated using pymatgen
data_Sm3YS4
_symmetry_space_group_name_H-M   'P 1'
_cell_length_a   6.87935760
_cell_length_b   6.87935760
_cell_length_c   6.90488462
_cell_angle_alpha   80.31538278
_cell_angle_beta   80.31538278
_cell_angle_gamma   33.65090870
_symmetry_Int_Tables_number   1
_chemical_formula_structural   Sm3YS4
_chemical_formula_sum   'Sm3 Y1 S4'
_cell_volume   178.25924402
_cell_formula_units_Z   1
loop_
 _symmetry_equiv_pos_site_id
 _symmetry_equiv_pos_as_xyz
  1  'x, y, z'
loop_
 _atom_site_type_symbol
 _atom_site_label
 _atom_site_symmetry_multiplicity
 _atom_site_fract_x
 _atom_site_fract_y
 _atom_site_fract_z
 _atom_site_occupancy
  Sm  Sm0  1  0.24775060  0.24775060  0.25327274  1
  Sm  Sm1  1  0.50000000  0.50000000  0.50000000  1
  Sm  Sm2  1  0.75224940  0.75224940  0.74672726  1
  Y  Y0  1  -0.00000000  -0.00000000  0.00000000  1
  S  S0  1  0.62178211  0.62178211  0.11962391  1
  S  S1  1  0.87660503  0.87660503  0.36799590  1
  S  S2  1  0.12339497  0.12339497  0.63200410  1
  S  S3  1  0.37821789  0.37821789  0.88037609  1
loop_
_geom_bond_atom_site_label_1
_geom_bond_atom_site_label_2
_geom_bond_distance
_geom_bond_site_symmetry_2
S0 Y0 2.772253 1_655
S0 Y0 2.772253 1_565
S0 Sm1 2.826641 1_555
S0 Sm2 2.833171 1_554
S0 Sm0 2.847298 1_565
S0 Sm0 2.847298 1_655
S1 Y0 2.765136 1_665
S1 Sm0 2.818674 1_565
S1 Sm0 2.818674 1_655
S1 Sm1 2.820903 1_655
S1 Sm1 2.820903 1_565
S1 Sm2 2.831164 1_555
S2 Y0 2.765136 1_556
S2 Sm2 2.818674 1_455
S2 Sm2 2.818674 1_545
S2 Sm1 2.820903 1_545
S2 Sm1 2.820903 1_455
S2 Sm0 2.831164 1_555
S3 Y0 2.772253 1_656
S3 Y0 2.772253 1_566
S3 Sm1 2.826641 1_555
S3 Sm0 2.833171 1_556
S3 Sm2 2.847298 1_455
S3 Sm2 2.847298 1_545
