# generated using pymatgen
data_LaTlZn
_symmetry_space_group_name_H-M   'P 1'
_cell_length_a   4.84849985
_cell_length_b   4.84849985
_cell_length_c   7.85385200
_cell_angle_alpha   90.00000000
_cell_angle_beta   90.00000000
_cell_angle_gamma   119.99999799
_symmetry_Int_Tables_number   1
_chemical_formula_structural   LaTlZn
_chemical_formula_sum   'La2 Tl2 Zn2'
_cell_volume   159.89251254
_cell_formula_units_Z   2
loop_
 _symmetry_equiv_pos_site_id
 _symmetry_equiv_pos_as_xyz
  1  'x, y, z'
loop_
 _atom_site_type_symbol
 _atom_site_label
 _atom_site_symmetry_multiplicity
 _atom_site_fract_x
 _atom_site_fract_y
 _atom_site_fract_z
 _atom_site_occupancy
  La  La0  1  0.00000000  0.00000000  0.50000000  1
  La  La1  1  0.00000000  0.00000000  0.00000000  1
  Tl  Tl0  1  0.33333300  0.66666700  0.25000000  1
  Tl  Tl1  1  0.66666700  0.33333300  0.75000000  1
  Zn  Zn0  1  0.33333300  0.66666700  0.75000000  1
  Zn  Zn1  1  0.66666700  0.33333300  0.25000000  1
loop_
_geom_bond_atom_site_label_1
_geom_bond_atom_site_label_2
_geom_bond_distance
_geom_bond_site_symmetry_2
La0 Tl0 3.419233 1_545
La0 Tl1 3.419233 1_455
La0 Zn1 3.419233 1_455
La0 Zn0 3.419233 1_545
La0 Tl1 3.419237 1_445
La0 Zn0 3.419237 1_445
La0 Zn0 3.419237 1_555
La0 Tl0 3.419237 1_445
La0 Zn1 3.419237 1_445
La0 Zn1 3.419237 1_555
La0 Tl0 3.419237 1_555
La0 Tl1 3.419237 1_555
La1 Tl0 3.419233 1_545
La1 Tl1 3.419233 1_454
La1 Zn1 3.419233 1_455
La1 Zn0 3.419233 1_544
La1 Tl1 3.419237 1_554
La1 Zn0 3.419237 1_554
La1 Zn0 3.419237 1_444
La1 Zn1 3.419237 1_445
La1 Tl1 3.419237 1_444
La1 Tl0 3.419237 1_555
La1 Tl0 3.419237 1_445
La1 Zn1 3.419237 1_555
Tl0 Zn1 2.799280 1_455
Tl0 Zn1 2.799280 1_565
Tl0 Zn1 2.799288 1_555
Tl1 Zn0 2.799280 1_545
Tl1 Zn0 2.799280 1_655
Tl1 Zn0 2.799288 1_555
