# generated using pymatgen
data_ZnCuO2
_symmetry_space_group_name_H-M   'P 1'
_cell_length_a   2.89361400
_cell_length_b   8.35233782
_cell_length_c   8.42555172
_cell_angle_alpha   91.02843524
_cell_angle_beta   99.65958898
_cell_angle_gamma   99.86109751
_symmetry_Int_Tables_number   1
_chemical_formula_structural   ZnCuO2
_chemical_formula_sum   'Zn4 Cu4 O8'
_cell_volume   197.55091402
_cell_formula_units_Z   4
loop_
 _symmetry_equiv_pos_site_id
 _symmetry_equiv_pos_as_xyz
  1  'x, y, z'
loop_
 _atom_site_type_symbol
 _atom_site_label
 _atom_site_symmetry_multiplicity
 _atom_site_fract_x
 _atom_site_fract_y
 _atom_site_fract_z
 _atom_site_occupancy
  Zn  Zn0  1  0.91439600  0.57133100  0.26942100  1
  Zn  Zn1  1  0.08560400  0.42866900  0.73057900  1
  Zn  Zn2  1  0.29596200  0.21428000  0.38063100  1
  Zn  Zn3  1  0.70403800  0.78572000  0.61936900  1
  Cu  Cu0  1  0.31846000  0.68888100  0.94474600  1
  Cu  Cu1  1  0.09923300  0.88931000  0.30811000  1
  Cu  Cu2  1  0.90076700  0.11069000  0.69189000  1
  Cu  Cu3  1  0.68154000  0.31111900  0.05525400  1
  O  O0  1  0.09008200  0.26838400  0.91107900  1
  O  O1  1  0.31583700  0.94110600  0.69230100  1
  O  O2  1  0.68416300  0.05889400  0.30769900  1
  O  O3  1  0.90991800  0.73161600  0.08892100  1
  O  O4  1  0.69961200  0.61138800  0.77922600  1
  O  O5  1  0.54589500  0.71700600  0.38916400  1
  O  O6  1  0.30038800  0.38861200  0.22077400  1
  O  O7  1  0.45410500  0.28299400  0.61083600  1
loop_
_geom_bond_atom_site_label_1
_geom_bond_atom_site_label_2
_geom_bond_distance
_geom_bond_site_symmetry_2
Cu0 O3 1.899897 1_556
Cu0 O3 1.900374 1_456
Cu0 O4 2.074367 1_455
Cu0 O4 2.075696 1_555
Cu1 O2 2.007553 1_465
Cu1 O2 2.012963 1_565
Cu1 O5 2.141065 1_555
Cu1 O5 2.171211 1_455
Cu1 O3 2.184386 1_455
Cu2 O1 2.007553 1_645
Cu2 O1 2.012963 1_545
Cu2 O7 2.141065 1_555
Cu2 O7 2.171211 1_655
Cu2 O0 2.184386 1_655
Cu3 O0 1.899897 1_554
Cu3 O0 1.900374 1_654
Cu3 O6 2.074367 1_655
Cu3 O6 2.075696 1_555
O0 Zn1 2.043946 1_555
O1 Zn3 2.003826 1_455
O1 Zn3 2.006528 1_555
O2 Zn2 2.003826 1_655
O2 Zn2 2.006528 1_555
O3 Zn0 2.043946 1_555
O4 Zn3 2.001057 1_555
O4 Zn1 2.111437 1_555
O4 Zn1 2.111774 1_655
O5 Zn3 1.968014 1_555
O5 Zn0 2.096817 1_555
O5 Zn0 2.100736 1_455
O6 Zn2 2.001057 1_555
O6 Zn0 2.111437 1_555
O6 Zn0 2.111774 1_455
O7 Zn2 1.968014 1_555
O7 Zn1 2.096817 1_555
O7 Zn1 2.100736 1_655
