# generated using pymatgen
data_Zn(MoO2)2
_symmetry_space_group_name_H-M   'P 1'
_cell_length_a   6.32938723
_cell_length_b   6.32938723
_cell_length_c   6.32938720
_cell_angle_alpha   60.89214154
_cell_angle_beta   60.89214154
_cell_angle_gamma   60.89213597
_symmetry_Int_Tables_number   1
_chemical_formula_structural   Zn(MoO2)2
_chemical_formula_sum   'Zn2 Mo4 O8'
_cell_volume   182.90138106
_cell_formula_units_Z   2
loop_
 _symmetry_equiv_pos_site_id
 _symmetry_equiv_pos_as_xyz
  1  'x, y, z'
loop_
 _atom_site_type_symbol
 _atom_site_label
 _atom_site_symmetry_multiplicity
 _atom_site_fract_x
 _atom_site_fract_y
 _atom_site_fract_z
 _atom_site_occupancy
  Zn  Zn0  1  0.99594200  0.99594200  0.99594200  1
  Zn  Zn1  1  0.37064400  0.37064400  0.37064400  1
  Mo  Mo0  1  0.76184500  0.76184500  0.76184500  1
  Mo  Mo1  1  0.87747600  0.37490600  0.37490600  1
  Mo  Mo2  1  0.37490600  0.37490600  0.87747600  1
  Mo  Mo3  1  0.37490600  0.87747600  0.37490600  1
  O  O0  1  0.61583900  0.15281400  0.61583900  1
  O  O1  1  0.61583900  0.61583900  0.15281400  1
  O  O2  1  0.15281400  0.61583900  0.61583900  1
  O  O3  1  0.61250300  0.61250300  0.61250300  1
  O  O4  1  0.13198300  0.13198300  0.13198300  1
  O  O5  1  0.60181000  0.13174800  0.13174800  1
  O  O6  1  0.13174800  0.13174800  0.60181000  1
  O  O7  1  0.13174800  0.60181000  0.13174800  1
loop_
_geom_bond_atom_site_label_1
_geom_bond_atom_site_label_2
_geom_bond_distance
_geom_bond_site_symmetry_2
Mo0 O0 2.052495 1_565
Mo0 O2 2.052495 1_655
Mo0 O1 2.052495 1_556
Mo0 O3 2.299630 1_555
Mo1 O3 2.151394 1_555
Mo1 O6 2.170210 1_655
Mo1 O7 2.170210 1_655
Mo1 O1 2.183150 1_555
Mo1 O0 2.183150 1_555
Mo1 O4 2.191727 1_655
Mo2 O3 2.151394 1_555
Mo2 O5 2.170210 1_556
Mo2 O7 2.170210 1_556
Mo2 O2 2.183150 1_555
Mo2 O0 2.183150 1_555
Mo2 O4 2.191727 1_556
Mo3 O3 2.151394 1_555
Mo3 O6 2.170210 1_565
Mo3 O5 2.170210 1_565
Mo3 O1 2.183150 1_555
Mo3 O2 2.183150 1_555
Mo3 O4 2.191727 1_565
O0 Zn1 2.213070 1_555
O1 Zn1 2.213070 1_555
O2 Zn1 2.213070 1_555
O4 Zn0 2.094816 1_444
O5 Zn0 2.060886 1_544
O5 Zn1 2.152441 1_555
O6 Zn0 2.060886 1_445
O6 Zn1 2.152442 1_555
O7 Zn0 2.060886 1_454
O7 Zn1 2.152441 1_555
