# generated using pymatgen
data_Li7Mn2(CoO4)3
_symmetry_space_group_name_H-M   'P 1'
_cell_length_a   5.17478386
_cell_length_b   10.62524363
_cell_length_c   8.52529590
_cell_angle_alpha   66.34258991
_cell_angle_beta   89.99493069
_cell_angle_gamma   97.40421091
_symmetry_Int_Tables_number   1
_chemical_formula_structural   Li7Mn2(CoO4)3
_chemical_formula_sum   'Li14 Mn4 Co6 O24'
_cell_volume   425.08307754
_cell_formula_units_Z   2
loop_
 _symmetry_equiv_pos_site_id
 _symmetry_equiv_pos_as_xyz
  1  'x, y, z'
loop_
 _atom_site_type_symbol
 _atom_site_label
 _atom_site_symmetry_multiplicity
 _atom_site_fract_x
 _atom_site_fract_y
 _atom_site_fract_z
 _atom_site_occupancy
  Li  Li0  1  0.24640900  0.50249900  0.91635800  1
  Li  Li1  1  0.75368400  0.49751500  0.41883200  1
  Li  Li2  1  0.35811800  0.25817400  0.53675700  1
  Li  Li3  1  0.86296500  0.25836900  0.03545500  1
  Li  Li4  1  0.13722300  0.74162000  0.29375900  1
  Li  Li5  1  0.64197000  0.74176000  0.79492100  1
  Li  Li6  1  0.38490000  0.24993100  0.20567100  1
  Li  Li7  1  0.88462900  0.25014900  0.70632300  1
  Li  Li8  1  0.11557300  0.74997600  0.95639100  1
  Li  Li9  1  0.61498900  0.75006700  0.45558300  1
  Li  Li10  1  0.87119500  0.25520400  0.37497300  1
  Li  Li11  1  0.37086500  0.25419600  0.87435900  1
  Li  Li12  1  0.62903700  0.74571000  0.12856900  1
  Li  Li13  1  0.12895600  0.74489000  0.63001000  1
  Mn  Mn0  1  0.99966100  0.99997600  0.99603400  1
  Mn  Mn1  1  0.99956800  0.99997600  0.33674900  1
  Mn  Mn2  1  0.50026900  0.00005100  0.83400800  1
  Mn  Mn3  1  0.50000000  0.00000600  0.49503500  1
  Co  Co0  1  0.00004500  0.99999600  0.66519800  1
  Co  Co1  1  0.49976100  0.00002600  0.16446700  1
  Co  Co2  1  0.25445500  0.49904900  0.25120900  1
  Co  Co3  1  0.74569800  0.50094900  0.75025600  1
  Co  Co4  1  0.24895200  0.49910800  0.59266300  1
  Co  Co5  1  0.75124700  0.50090300  0.09175200  1
  O  O0  1  0.19890100  0.10725900  0.11251100  1
  O  O1  1  0.69908700  0.10755100  0.61101000  1
  O  O2  1  0.30112600  0.89251300  0.71858900  1
  O  O3  1  0.80041500  0.89264200  0.21981000  1
  O  O4  1  0.40528900  0.60783000  0.36255500  1
  O  O5  1  0.90999200  0.60990700  0.86441000  1
  O  O6  1  0.09024400  0.39011200  0.47434200  1
  O  O7  1  0.59489600  0.39219800  0.97038900  1
  O  O8  1  0.16797200  0.11752600  0.77109700  1
  O  O9  1  0.66704000  0.11837700  0.26952800  1
  O  O10  1  0.16702800  0.11924200  0.44137900  1
  O  O11  1  0.66732900  0.11898100  0.94031300  1
  O  O12  1  0.33260400  0.88165800  0.38795100  1
  O  O13  1  0.83197400  0.88236700  0.88863000  1
  O  O14  1  0.33254700  0.88113800  0.05915400  1
  O  O15  1  0.83276100  0.88063800  0.56084300  1
  O  O16  1  0.45812500  0.60532700  0.04596900  1
  O  O17  1  0.95282100  0.60376900  0.54844000  1
  O  O18  1  0.93186800  0.61596900  0.17857400  1
  O  O19  1  0.43443000  0.61603600  0.67743800  1
  O  O20  1  0.04733300  0.39621100  0.15228000  1
  O  O21  1  0.54198400  0.39463300  0.65136700  1
  O  O22  1  0.56575000  0.38396900  0.29350700  1
  O  O23  1  0.06831500  0.38404700  0.79458300  1
loop_
_geom_bond_atom_site_label_1
_geom_bond_atom_site_label_2
_geom_bond_distance
_geom_bond_site_symmetry_2
Li0 O20 2.063705 1_556
Li0 O23 2.064216 1_555
Li0 O16 2.067741 1_556
Li0 O19 2.067833 1_555
Li0 O5 2.153095 1_455
Li0 O7 2.224720 1_555
Li1 O17 2.063705 1_555
Li1 O18 2.064305 1_555
Li1 O22 2.067639 1_555
Li1 O21 2.068073 1_555
Li1 O6 2.153719 1_655
Li1 O4 2.224384 1_555
Li2 O6 2.017980 1_555
Li2 O10 2.098891 1_555
Li2 O8 2.101758 1_555
Li2 O22 2.155573 1_555
Li2 O21 2.178019 1_555
Li2 O1 2.447494 1_555
Li3 O7 2.032123 1_554
Li3 O9 2.109844 1_555
Li3 O11 2.110459 1_554
Li3 O23 2.135995 1_654
Li3 O20 2.204073 1_655
Li3 O0 2.429932 1_655
Li4 O4 2.031835 1_555
Li4 O12 2.110054 1_555
Li4 O14 2.110328 1_555
Li4 O18 2.136034 1_455
Li4 O17 2.203939 1_455
Li4 O3 2.432945 1_455
Li5 O5 2.017970 1_555
Li5 O15 2.096541 1_555
Li5 O13 2.101514 1_555
Li5 O19 2.155284 1_555
Li5 O16 2.177494 1_556
Li5 O2 2.447857 1_555
Li6 O22 1.994333 1_555
Li6 O9 2.072986 1_555
Li6 O0 2.108442 1_555
Li6 O10 2.143380 1_555
Li6 O7 2.152255 1_554
Li6 O20 2.409667 1_555
Li7 O23 2.001113 1_655
Li7 O8 2.085348 1_655
Li7 O6 2.118131 1_655
Li7 O1 2.119205 1_555
Li7 O11 2.133234 1_555
Li7 O21 2.417582 1_555
Li8 O18 2.001332 1_456
Li8 O13 2.084777 1_455
Li8 O2 2.118138 1_555
Li8 O5 2.119028 1_455
Li8 O14 2.132396 1_556
Li8 O16 2.418276 1_556
Li9 O19 1.993367 1_555
Li9 O12 2.074242 1_555
Li9 O3 2.106458 1_555
Li9 O15 2.143904 1_555
Li9 O4 2.151736 1_555
Li9 O17 2.410875 1_555
Li10 O20 2.011183 1_655
Li10 O1 2.099945 1_555
Li10 O6 2.147838 1_655
Li10 O22 2.155813 1_555
Li10 O10 2.159820 1_655
Li10 O9 2.165862 1_555
Li11 O21 2.001838 1_555
Li11 O0 2.109327 1_556
Li11 O8 2.149242 1_555
Li11 O23 2.149695 1_555
Li11 O11 2.157253 1_555
Li11 O7 2.165579 1_555
Li12 O16 2.001510 1_555
Li12 O3 2.108725 1_555
Li12 O13 2.149046 1_554
Li12 O18 2.150141 1_555
Li12 O14 2.158836 1_555
Li12 O4 2.164062 1_555
Li13 O17 2.011810 1_455
Li13 O2 2.101160 1_555
Li13 O5 2.148223 1_455
Li13 O19 2.156477 1_555
Li13 O15 2.159814 1_455
Li13 O12 2.163127 1_555
Mn0 O13 1.947279 1_555
Mn0 O8 1.947596 1_665
Mn0 O3 1.988404 1_556
Mn0 O0 1.988500 1_666
Mn0 O11 2.204675 1_565
Mn0 O14 2.206084 1_656
Mn1 O15 1.943269 1_555
Mn1 O10 1.943386 1_665
Mn1 O0 1.991412 1_665
Mn1 O3 1.991558 1_555
Mn1 O9 2.202641 1_565
Mn1 O12 2.204358 1_655
Mn2 O11 1.950182 1_555
Mn2 O14 1.950564 1_546
Mn2 O1 1.982805 1_555
Mn2 O2 1.983624 1_545
Mn2 O13 2.193812 1_545
Mn2 O8 2.195146 1_555
Mn3 O9 1.950407 1_555
Mn3 O12 1.950828 1_545
Mn3 O2 1.986376 1_545
Mn3 O1 1.986998 1_555
Mn3 O15 2.209198 1_545
Mn3 O10 2.209280 1_555
Co0 O8 1.937765 1_565
Co0 O13 1.937992 1_455
Co0 O10 1.941711 1_565
Co0 O15 1.942129 1_455
Co0 O1 1.995001 1_465
Co0 O2 1.995100 1_555
Co1 O12 1.938120 1_545
Co1 O9 1.938136 1_555
Co1 O14 1.944002 1_545
Co1 O11 1.944249 1_554
Co1 O0 1.992628 1_555
Co1 O3 1.992648 1_545
Co2 O20 1.868675 1_555
Co2 O4 1.869327 1_555
Co2 O16 1.885410 1_555
Co2 O6 1.913021 1_555
Co2 O22 2.091415 1_555
Co2 O18 2.151906 1_455
Co3 O17 1.868679 1_555
Co3 O7 1.869004 1_555
Co3 O21 1.885638 1_555
Co3 O5 1.913340 1_555
Co3 O19 2.091363 1_555
Co3 O23 2.151897 1_655
Co4 O23 1.829736 1_555
Co4 O19 1.844042 1_555
Co4 O6 1.930225 1_555
Co4 O21 1.941715 1_555
Co4 O4 1.943591 1_555
Co4 O17 1.957021 1_455
Co5 O18 1.829781 1_555
Co5 O22 1.844140 1_555
Co5 O5 1.930204 1_554
Co5 O16 1.941787 1_555
Co5 O7 1.943591 1_554
Co5 O20 1.957037 1_655
