# generated using pymatgen
data_KMg3
_symmetry_space_group_name_H-M   'P 1'
_cell_length_a   5.66638057
_cell_length_b   5.66638057
_cell_length_c   5.66638057
_cell_angle_alpha   124.20980293
_cell_angle_beta   124.20980293
_cell_angle_gamma   82.85101903
_symmetry_Int_Tables_number   1
_chemical_formula_structural   KMg3
_chemical_formula_sum   'K1 Mg3'
_cell_volume   119.44096987
_cell_formula_units_Z   1
loop_
 _symmetry_equiv_pos_site_id
 _symmetry_equiv_pos_as_xyz
  1  'x, y, z'
loop_
 _atom_site_type_symbol
 _atom_site_label
 _atom_site_symmetry_multiplicity
 _atom_site_fract_x
 _atom_site_fract_y
 _atom_site_fract_z
 _atom_site_occupancy
  K  K0  1  0.00000000  0.00000000  0.00000000  1
  Mg  Mg0  1  0.50000000  0.50000000  0.00000000  1
  Mg  Mg1  1  0.75000000  0.25000000  0.50000000  1
  Mg  Mg2  1  0.25000000  0.75000000  0.50000000  1
loop_
_geom_bond_atom_site_label_1
_geom_bond_atom_site_label_2
_geom_bond_distance
_geom_bond_site_symmetry_2
K0 Mg1 3.397201 1_455
K0 Mg1 3.397201 1_454
K0 Mg1 3.397201 1_444
K0 Mg1 3.397201 1_555
K0 Mg2 3.397201 1_444
K0 Mg2 3.397201 1_545
K0 Mg2 3.397201 1_544
K0 Mg2 3.397201 1_555
K0 Mg0 3.749137 1_444
K0 Mg0 3.749137 1_455
K0 Mg0 3.749137 1_556
K0 Mg0 3.749137 1_545
Mg0 Mg2 3.397201 1_655
Mg0 Mg1 3.397201 1_454
Mg0 Mg2 3.397201 1_554
Mg0 Mg1 3.397201 1_565
Mg0 Mg1 3.397201 1_555
Mg0 Mg1 3.397201 1_554
Mg0 Mg2 3.397201 1_544
Mg0 Mg2 3.397201 1_555
