# generated using pymatgen
data_Li4Ni3BiO8
_symmetry_space_group_name_H-M   'P 1'
_cell_length_a   6.05419097
_cell_length_b   10.52525944
_cell_length_c   6.05381348
_cell_angle_alpha   89.96599971
_cell_angle_beta   119.53385898
_cell_angle_gamma   73.07413487
_symmetry_Int_Tables_number   1
_chemical_formula_structural   Li4Ni3BiO8
_chemical_formula_sum   'Li8 Ni6 Bi2 O16'
_cell_volume   316.24908622
_cell_formula_units_Z   2
loop_
 _symmetry_equiv_pos_site_id
 _symmetry_equiv_pos_as_xyz
  1  'x, y, z'
loop_
 _atom_site_type_symbol
 _atom_site_label
 _atom_site_symmetry_multiplicity
 _atom_site_fract_x
 _atom_site_fract_y
 _atom_site_fract_z
 _atom_site_occupancy
  Li  Li0  1  0.50016800  0.75017600  0.74966500  1
  Li  Li1  1  0.50023500  0.25016200  0.24965000  1
  Li  Li2  1  0.00012400  0.25029200  0.75064800  1
  Li  Li3  1  0.99919600  0.75023700  0.24961800  1
  Li  Li4  1  0.52002200  0.48670700  0.52171300  1
  Li  Li5  1  0.48075800  0.01279700  0.97877700  1
  Li  Li6  1  0.00861900  0.51275400  0.00657500  1
  Li  Li7  1  0.99145300  0.98668800  0.49324400  1
  Ni  Ni0  1  0.99970400  0.25003100  0.24968400  1
  Ni  Ni1  1  0.00029000  0.74989100  0.74990300  1
  Ni  Ni2  1  0.50191600  0.00037500  0.50230900  1
  Ni  Ni3  1  0.50018500  0.24979500  0.74970200  1
  Ni  Ni4  1  0.49986900  0.74998300  0.25005600  1
  Ni  Ni5  1  0.49720400  0.50051200  0.99764000  1
  Bi  Bi0  1  0.00392700  0.99984900  0.00381500  1
  Bi  Bi1  1  0.99640300  0.49985200  0.49629600  1
  O  O0  1  0.27380100  0.13779400  0.62336500  1
  O  O1  1  0.23886800  0.63781400  0.08835300  1
  O  O2  1  0.72541200  0.36216000  0.87677400  1
  O  O3  1  0.76095900  0.86213700  0.41247900  1
  O  O4  1  0.75134800  0.62532000  0.62330900  1
  O  O5  1  0.75148100  0.12531800  0.12338600  1
  O  O6  1  0.25543700  0.87752700  0.37459900  1
  O  O7  1  0.25924600  0.37200200  0.86552100  1
  O  O8  1  0.76259700  0.87194800  0.86896900  1
  O  O9  1  0.74789100  0.37758500  0.36701000  1
  O  O10  1  0.23663900  0.62843700  0.63002100  1
  O  O11  1  0.25279500  0.12220400  0.13374100  1
  O  O12  1  0.74416900  0.62223000  0.12511300  1
  O  O13  1  0.74156200  0.12833900  0.63492100  1
  O  O14  1  0.24908000  0.87452700  0.87681600  1
  O  O15  1  0.24864200  0.37455700  0.37632800  1
loop_
_geom_bond_atom_site_label_1
_geom_bond_atom_site_label_2
_geom_bond_distance
_geom_bond_site_symmetry_2
Li0 O4 2.146855 1_555
Li0 O14 2.147711 1_555
Li0 O6 2.161205 1_555
Li0 O12 2.165556 1_556
Li0 O8 2.178099 1_555
Li0 O10 2.182677 1_555
Li1 O5 2.146692 1_555
Li1 O15 2.148035 1_555
Li1 O9 2.161793 1_555
Li1 O11 2.165624 1_555
Li1 O7 2.177853 1_554
Li1 O13 2.182825 1_555
Li2 O13 2.163023 1_455
Li2 O7 2.163645 1_555
Li2 O9 2.197588 1_455
Li2 O11 2.198645 1_556
Li2 O2 2.201873 1_455
Li2 O0 2.204197 1_555
Li3 O10 2.161709 1_655
Li3 O8 2.162609 1_554
Li3 O6 2.197332 1_655
Li3 O12 2.198265 1_555
Li3 O3 2.203122 1_555
Li3 O1 2.203844 1_655
Li4 O2 2.073007 1_555
Li4 O9 2.109952 1_555
Li4 O15 2.138284 1_555
Li4 O4 2.193110 1_555
Li4 O10 2.284439 1_555
Li4 O1 2.515100 1_555
Li5 O0 2.075857 1_555
Li5 O11 2.112634 1_556
Li5 O5 2.138276 1_556
Li5 O14 2.191443 1_545
Li5 O8 2.279838 1_545
Li5 O3 2.514659 1_546
Li6 O1 2.075972 1_555
Li6 O12 2.113164 1_455
Li6 O4 2.138348 1_454
Li6 O15 2.190087 1_555
Li6 O7 2.279522 1_554
Li6 O2 2.515008 1_454
Li7 O3 2.073204 1_555
Li7 O6 2.110388 1_655
Li7 O14 2.138313 1_655
Li7 O5 2.192686 1_565
Li7 O13 2.283571 1_565
Li7 O0 2.515742 1_665
Ni0 O2 2.099207 1_554
Ni0 O0 2.102671 1_655
Ni0 O9 2.123201 1_555
Ni0 O11 2.124071 1_655
Ni0 O5 2.140790 1_555
Ni0 O15 2.142257 1_655
Ni1 O3 1.936561 1_455
Ni1 O1 1.939912 1_556
Ni1 O10 2.041606 1_555
Ni1 O8 2.046477 1_455
Ni1 O14 2.142591 1_555
Ni1 O4 2.142657 1_455
Ni2 O0 2.091014 1_555
Ni2 O3 2.094131 1_545
Ni2 O11 2.109564 1_555
Ni2 O6 2.117454 1_545
Ni2 O8 2.132033 1_545
Ni2 O13 2.134081 1_555
Ni3 O2 1.937974 1_555
Ni3 O0 1.939453 1_555
Ni3 O13 2.041311 1_555
Ni3 O7 2.047131 1_555
Ni3 O15 2.142691 1_555
Ni3 O5 2.142782 1_556
Ni4 O1 2.100385 1_555
Ni4 O3 2.101051 1_555
Ni4 O6 2.122489 1_555
Ni4 O12 2.124579 1_555
Ni4 O14 2.141137 1_554
Ni4 O4 2.141748 1_555
Ni5 O1 2.089928 1_556
Ni5 O2 2.095516 1_555
Ni5 O12 2.109808 1_556
Ni5 O9 2.117773 1_556
Ni5 O7 2.131810 1_555
Ni5 O10 2.133733 1_555
Bi0 O6 2.121342 1_555
Bi0 O11 2.123657 1_565
Bi0 O14 2.126052 1_554
Bi0 O5 2.126129 1_465
Bi0 O8 2.141029 1_454
Bi0 O13 2.141895 1_464
Bi1 O9 2.121308 1_555
Bi1 O12 2.123364 1_555
Bi1 O15 2.126162 1_655
Bi1 O4 2.126341 1_555
Bi1 O7 2.140598 1_655
Bi1 O10 2.142208 1_655
