# generated using pymatgen
data_VPO4
_symmetry_space_group_name_H-M   'P 1'
_cell_length_a   9.14789876
_cell_length_b   9.14789876
_cell_length_c   15.86180191
_cell_angle_alpha   61.95062839
_cell_angle_beta   61.95062839
_cell_angle_gamma   32.58391299
_symmetry_Int_Tables_number   1
_chemical_formula_structural   VPO4
_chemical_formula_sum   'V8 P8 O32'
_cell_volume   623.17998556
_cell_formula_units_Z   8
loop_
 _symmetry_equiv_pos_site_id
 _symmetry_equiv_pos_as_xyz
  1  'x, y, z'
loop_
 _atom_site_type_symbol
 _atom_site_label
 _atom_site_symmetry_multiplicity
 _atom_site_fract_x
 _atom_site_fract_y
 _atom_site_fract_z
 _atom_site_occupancy
  V  V0  1  0.40422400  0.81742000  0.01709000  1
  V  V1  1  0.18258000  0.59577600  0.48291000  1
  V  V2  1  0.59577600  0.18258000  0.98291000  1
  V  V3  1  0.00000000  0.50000000  0.00000000  1
  V  V4  1  0.81742000  0.40422400  0.51709000  1
  V  V5  1  0.66394900  0.33605100  0.75000000  1
  V  V6  1  0.33605100  0.66394900  0.25000000  1
  V  V7  1  0.50000000  0.00000000  0.50000000  1
  P  P0  1  0.48908800  0.94117000  0.14328300  1
  P  P1  1  0.79541700  0.21925600  0.38361700  1
  P  P2  1  0.51091200  0.05883000  0.85671700  1
  P  P3  1  0.21925600  0.79541700  0.88361700  1
  P  P4  1  0.94117000  0.48908800  0.64328300  1
  P  P5  1  0.05883000  0.51091200  0.35671700  1
  P  P6  1  0.20458300  0.78074400  0.61638300  1
  P  P7  1  0.78074400  0.20458300  0.11638300  1
  O  O0  1  0.22057700  0.22546900  0.92287800  1
  O  O1  1  0.70661200  0.16974100  0.06534000  1
  O  O2  1  0.22546900  0.22057700  0.42287800  1
  O  O3  1  0.59437800  0.23053400  0.45012000  1
  O  O4  1  0.68536000  0.77364900  0.93220800  1
  O  O5  1  0.66943300  0.42989200  0.29166800  1
  O  O6  1  0.76946600  0.40562200  0.04988000  1
  O  O7  1  0.91623100  0.07897100  0.86232900  1
  O  O8  1  0.40562200  0.76946600  0.54988000  1
  O  O9  1  0.83025900  0.29338800  0.43466000  1
  O  O10  1  0.57806400  0.16300200  0.86586700  1
  O  O11  1  0.96419600  0.43437900  0.74167200  1
  O  O12  1  0.29338800  0.83025900  0.93466000  1
  O  O13  1  0.07897100  0.91623100  0.36232900  1
  O  O14  1  0.77942300  0.77453100  0.07712200  1
  O  O15  1  0.42193600  0.83699800  0.13413300  1
  O  O16  1  0.43437900  0.96419600  0.24167200  1
  O  O17  1  0.23053400  0.59437800  0.95012000  1
  O  O18  1  0.16300200  0.57806400  0.36586700  1
  O  O19  1  0.03580400  0.56562100  0.25832800  1
  O  O20  1  0.92102900  0.08376900  0.63767100  1
  O  O21  1  0.77364900  0.68536000  0.43220800  1
  O  O22  1  0.08376900  0.92102900  0.13767100  1
  O  O23  1  0.42989200  0.66943300  0.79166800  1
  O  O24  1  0.16974100  0.70661200  0.56534000  1
  O  O25  1  0.77453100  0.77942300  0.57712200  1
  O  O26  1  0.56562100  0.03580400  0.75832800  1
  O  O27  1  0.22635100  0.31464000  0.56779200  1
  O  O28  1  0.31464000  0.22635100  0.06779200  1
  O  O29  1  0.57010800  0.33056700  0.20833200  1
  O  O30  1  0.33056700  0.57010800  0.70833200  1
  O  O31  1  0.83699800  0.42193600  0.63413300  1
loop_
_geom_bond_atom_site_label_1
_geom_bond_atom_site_label_2
_geom_bond_distance
_geom_bond_site_symmetry_2
O0 P2 1.593564 1_555
O0 V3 1.975626 1_556
O0 V0 2.352916 1_546
O1 P7 1.529804 1_555
O1 V2 1.911283 1_554
O2 P5 1.593564 1_555
O2 V7 1.975626 1_555
O2 V4 2.352916 1_455
O3 P1 1.569626 1_555
O3 V1 2.050789 1_555
O3 V7 2.583709 1_555
O4 P2 1.621649 1_565
O4 V3 1.986018 1_656
O4 V0 2.025434 1_556
O5 P1 1.537435 1_555
O5 V6 1.970470 1_555
O6 P7 1.569626 1_555
O6 V0 2.050789 1_555
O6 V3 2.583709 1_655
O7 P3 1.570291 1_645
O7 V5 2.193514 1_555
O7 V2 2.213512 1_555
O8 P6 1.569626 1_555
O8 V4 2.050789 1_555
O8 V7 2.583709 1_565
O9 P1 1.529804 1_555
O9 V4 1.911283 1_555
O10 P2 1.583349 1_555
O10 V2 2.037025 1_555
O10 V5 2.121979 1_555
O11 P4 1.458545 1_555
O12 P3 1.529804 1_555
O12 V0 1.911283 1_556
O13 P1 1.570291 1_465
O13 V6 2.193514 1_555
O13 V1 2.213512 1_555
O14 P0 1.593564 1_555
O14 V3 1.975626 1_655
O14 V2 2.352916 1_564
O15 P0 1.583349 1_555
O15 V0 2.037025 1_555
O15 V6 2.121979 1_555
O16 P0 1.458545 1_555
O17 P3 1.569626 1_555
O17 V2 2.050789 1_555
O17 V3 2.583709 1_556
O18 P5 1.583349 1_555
O18 V1 2.037025 1_555
O18 V6 2.121979 1_555
O19 P5 1.458545 1_555
O20 P6 1.570291 1_645
O20 V5 2.193514 1_555
O20 V4 2.213512 1_555
O21 P5 1.621649 1_655
O21 V7 1.986018 1_565
O21 V4 2.025434 1_555
O22 P7 1.570291 1_465
O22 V6 2.193514 1_555
O22 V0 2.213512 1_555
O23 P3 1.537435 1_555
O23 V5 1.970470 1_555
O24 P6 1.529804 1_555
O24 V1 1.911283 1_555
O25 P4 1.593564 1_555
O25 V7 1.975626 1_565
O25 V1 2.352916 1_655
O26 P2 1.458545 1_555
O27 P4 1.621649 1_455
O27 V7 1.986018 1_555
O27 V1 2.025434 1_555
O28 P0 1.621649 1_545
O28 V3 1.986018 1_555
O28 V2 2.025434 1_554
O29 P7 1.537435 1_555
O29 V6 1.970470 1_555
O30 P6 1.537435 1_555
O30 V5 1.970470 1_555
O31 P4 1.583349 1_555
O31 V4 2.037025 1_555
O31 V5 2.121979 1_555
