# generated using pymatgen
data_Nb3(CuS3)2
_symmetry_space_group_name_H-M   'P 1'
_cell_length_a   3.38469621
_cell_length_b   3.38469621
_cell_length_c   40.71447600
_cell_angle_alpha   90.00005092
_cell_angle_beta   89.99994908
_cell_angle_gamma   120.00027769
_symmetry_Int_Tables_number   1
_chemical_formula_structural   Nb3(CuS3)2
_chemical_formula_sum   'Nb6 Cu4 S12'
_cell_volume   403.94073886
_cell_formula_units_Z   2
loop_
 _symmetry_equiv_pos_site_id
 _symmetry_equiv_pos_as_xyz
  1  'x, y, z'
loop_
 _atom_site_type_symbol
 _atom_site_label
 _atom_site_symmetry_multiplicity
 _atom_site_fract_x
 _atom_site_fract_y
 _atom_site_fract_z
 _atom_site_occupancy
  Nb  Nb0  1  0.66665100  0.33334900  0.08332400  1
  Nb  Nb1  1  0.66666000  0.33334000  0.42527500  1
  Nb  Nb2  1  0.66666900  0.33333100  0.75039800  1
  Nb  Nb3  1  0.33335300  0.66664700  0.24156200  1
  Nb  Nb4  1  0.33334800  0.66665200  0.58631400  1
  Nb  Nb5  1  0.33334200  0.66665800  0.91945500  1
  Cu  Cu0  1  0.66666100  0.33333900  0.01224700  1
  Cu  Cu1  1  0.66667400  0.33332600  0.35347100  1
  Cu  Cu2  1  0.66665000  0.33335000  0.67918700  1
  Cu  Cu3  1  0.33336200  0.66663800  0.31330900  1
  S  S0  1  0.66668500  0.33331500  0.20375000  1
  S  S1  1  0.66668600  0.33331400  0.54893100  1
  S  S2  1  0.66667100  0.33332900  0.88209900  1
  S  S3  1  0.33332000  0.66668000  0.12079000  1
  S  S4  1  0.33332400  0.66667600  0.46309100  1
  S  S5  1  0.33333700  0.66666300  0.78793900  1
  S  S6  1  0.33330800  0.66669200  0.04371000  1
  S  S7  1  0.33332900  0.66667100  0.38632900  1
  S  S8  1  0.33332500  0.66667500  0.71079100  1
  S  S9  1  0.66668300  0.33331700  0.28046900  1
  S  S10  1  0.66668800  0.33331200  0.62487900  1
  S  S11  1  0.66667400  0.33332600  0.95801100  1
loop_
_geom_bond_atom_site_label_1
_geom_bond_atom_site_label_2
_geom_bond_distance
_geom_bond_site_symmetry_2
Nb0 S3 2.479021 1_555
Nb0 S3 2.479033 1_545
Nb0 S3 2.479033 1_655
Nb0 S6 2.533755 1_545
Nb0 S6 2.533755 1_655
Nb0 S6 2.533829 1_555
Nb1 S4 2.487815 1_655
Nb1 S4 2.487815 1_545
Nb1 S4 2.487838 1_555
Nb1 S7 2.516550 1_555
Nb1 S7 2.516557 1_655
Nb1 S7 2.516557 1_545
Nb2 S5 2.480906 1_555
Nb2 S5 2.480910 1_655
Nb2 S5 2.480910 1_545
Nb2 S8 2.533572 1_655
Nb2 S8 2.533572 1_545
Nb2 S8 2.533652 1_555
Nb3 S0 2.487719 1_555
Nb3 S0 2.487723 1_565
Nb3 S0 2.487723 1_455
Nb3 S9 2.515545 1_555
Nb3 S9 2.515560 1_565
Nb3 S9 2.515560 1_455
Nb4 S1 2.476938 1_455
Nb4 S1 2.476938 1_565
Nb4 S1 2.476975 1_555
Nb4 S10 2.506792 1_565
Nb4 S10 2.506792 1_455
Nb4 S10 2.506846 1_555
Nb5 S2 2.476258 1_555
Nb5 S2 2.476284 1_565
Nb5 S2 2.476284 1_455
Nb5 S11 2.506580 1_555
Nb5 S11 2.506581 1_455
Nb5 S11 2.506581 1_565
Cu0 S11 2.208190 1_554
Cu0 S6 2.336544 1_545
Cu0 S6 2.336544 1_655
Cu0 S6 2.336694 1_555
Cu1 S7 2.368178 1_655
Cu1 S7 2.368178 1_545
Cu1 S7 2.368268 1_555
Cu2 S10 2.211122 1_555
Cu2 S8 2.339709 1_555
Cu2 S8 2.339765 1_655
Cu2 S8 2.339765 1_545
Cu3 S9 2.367738 1_555
Cu3 S9 2.367823 1_565
Cu3 S9 2.367823 1_455
