# generated using pymatgen
data_CeMg
_symmetry_space_group_name_H-M   'P 1'
_cell_length_a   6.17580682
_cell_length_b   6.17580682
_cell_length_c   35.39032486
_cell_angle_alpha   90.00000000
_cell_angle_beta   90.00000000
_cell_angle_gamma   119.99998741
_symmetry_Int_Tables_number   1
_chemical_formula_structural   CeMg
_chemical_formula_sum   'Ce24 Mg24'
_cell_volume   1168.96805244
_cell_formula_units_Z   24
loop_
 _symmetry_equiv_pos_site_id
 _symmetry_equiv_pos_as_xyz
  1  'x, y, z'
loop_
 _atom_site_type_symbol
 _atom_site_label
 _atom_site_symmetry_multiplicity
 _atom_site_fract_x
 _atom_site_fract_y
 _atom_site_fract_z
 _atom_site_occupancy
  Ce  Ce0_0  1  0.00000000  0.00000000  0.41717668  1
  Ce  Ce0_1  1  0.00000000  0.00000000  0.91717669  1
  Ce  Ce0_2  1  0.00000000  0.50000000  0.41717668  1
  Ce  Ce0_3  1  0.00000000  0.50000000  0.91717669  1
  Ce  Ce0_4  1  0.50000000  0.00000000  0.41717668  1
  Ce  Ce0_5  1  0.50000000  0.00000000  0.91717669  1
  Ce  Ce0_6  1  0.50000000  0.50000000  0.41717668  1
  Ce  Ce0_7  1  0.50000000  0.50000000  0.91717669  1
  Ce  Ce1_0  1  0.16666650  0.33333350  0.32888206  1
  Ce  Ce1_1  1  0.16666650  0.33333350  0.82888206  1
  Ce  Ce1_2  1  0.16666650  0.83333350  0.32888206  1
  Ce  Ce1_3  1  0.16666650  0.83333350  0.82888206  1
  Ce  Ce1_4  1  0.66666650  0.33333350  0.32888206  1
  Ce  Ce1_5  1  0.66666650  0.33333350  0.82888206  1
  Ce  Ce1_6  1  0.66666650  0.83333350  0.32888206  1
  Ce  Ce1_7  1  0.66666650  0.83333350  0.82888206  1
  Ce  Ce2_0  1  0.00000000  0.00000000  0.08641210  1
  Ce  Ce2_1  1  0.00000000  0.00000000  0.58641210  1
  Ce  Ce2_2  1  0.00000000  0.50000000  0.08641210  1
  Ce  Ce2_3  1  0.00000000  0.50000000  0.58641210  1
  Ce  Ce2_4  1  0.50000000  0.00000000  0.08641210  1
  Ce  Ce2_5  1  0.50000000  0.00000000  0.58641210  1
  Ce  Ce2_6  1  0.50000000  0.50000000  0.08641210  1
  Ce  Ce2_7  1  0.50000000  0.50000000  0.58641210  1
  Mg  Mg0_0  1  0.16666650  0.33333350  0.00171077  1
  Mg  Mg0_1  1  0.16666650  0.33333350  0.50171077  1
  Mg  Mg0_2  1  0.16666650  0.83333350  0.00171077  1
  Mg  Mg0_3  1  0.16666650  0.83333350  0.50171077  1
  Mg  Mg0_4  1  0.66666650  0.33333350  0.00171077  1
  Mg  Mg0_5  1  0.66666650  0.33333350  0.50171077  1
  Mg  Mg0_6  1  0.66666650  0.83333350  0.00171077  1
  Mg  Mg0_7  1  0.66666650  0.83333350  0.50171077  1
  Mg  Mg1_0  1  0.00000000  0.00000000  0.24571897  1
  Mg  Mg1_1  1  0.00000000  0.00000000  0.74571897  1
  Mg  Mg1_2  1  0.00000000  0.50000000  0.24571897  1
  Mg  Mg1_3  1  0.00000000  0.50000000  0.74571897  1
  Mg  Mg1_4  1  0.50000000  0.00000000  0.24571897  1
  Mg  Mg1_5  1  0.50000000  0.00000000  0.74571897  1
  Mg  Mg1_6  1  0.50000000  0.50000000  0.24571897  1
  Mg  Mg1_7  1  0.50000000  0.50000000  0.74571897  1
  Mg  Mg2_0  1  0.16666650  0.33333350  0.17009894  1
  Mg  Mg2_1  1  0.16666650  0.33333350  0.67009894  1
  Mg  Mg2_2  1  0.16666650  0.83333350  0.17009894  1
  Mg  Mg2_3  1  0.16666650  0.83333350  0.67009894  1
  Mg  Mg2_4  1  0.66666650  0.33333350  0.17009894  1
  Mg  Mg2_5  1  0.66666650  0.33333350  0.67009894  1
  Mg  Mg2_6  1  0.66666650  0.83333350  0.17009894  1
  Mg  Mg2_7  1  0.66666650  0.83333350  0.67009894  1
loop_
_geom_bond_atom_site_label_1
_geom_bond_atom_site_label_2
_geom_bond_distance
_geom_bond_site_symmetry_2
Ce0_0 Ce0_4 3.087903 1_555
Ce0_0 Ce0_2 3.087903 1_545
Ce0_0 Ce0_4 3.087903 1_455
Ce0_0 Ce0_2 3.087903 1_555
Ce0_0 Ce0_6 3.087904 1_445
Ce0_0 Ce0_6 3.087904 1_555
Ce0_0 Mg0_3 3.482611 1_545
Ce0_0 Mg0_7 3.482612 1_445
Ce0_0 Mg0_1 3.482612 1_555
Ce0_0 Ce1_2 3.597582 1_545
Ce0_0 Ce1_0 3.597584 1_555
Ce0_0 Ce1_6 3.597584 1_445
Ce0_1 Ce0_3 3.087903 1_545
Ce0_1 Ce0_3 3.087903 1_555
Ce0_1 Ce0_5 3.087903 1_455
Ce0_1 Ce0_5 3.087903 1_555
Ce0_1 Ce0_7 3.087904 1_555
Ce0_1 Ce0_7 3.087904 1_445
Ce0_1 Mg0_2 3.482611 1_546
Ce0_1 Mg0_0 3.482612 1_556
Ce0_1 Mg0_6 3.482612 1_446
Ce0_1 Ce1_3 3.597582 1_545
Ce0_1 Ce1_7 3.597584 1_445
Ce0_1 Ce1_1 3.597584 1_555
Ce0_2 Ce0_6 3.087903 1_555
Ce0_2 Ce0_6 3.087903 1_455
Ce0_2 Ce0_4 3.087904 1_455
Ce0_2 Ce0_4 3.087904 1_565
Ce0_2 Mg0_1 3.482611 1_555
Ce0_2 Mg0_3 3.482612 1_555
Ce0_2 Mg0_5 3.482612 1_455
Ce0_2 Ce1_0 3.597582 1_555
Ce0_2 Ce1_2 3.597584 1_555
Ce0_2 Ce1_4 3.597584 1_455
Ce0_3 Ce0_7 3.087903 1_555
Ce0_3 Ce0_7 3.087903 1_455
Ce0_3 Ce0_5 3.087904 1_455
Ce0_3 Ce0_5 3.087904 1_565
Ce0_3 Mg0_0 3.482611 1_556
Ce0_3 Mg0_2 3.482612 1_556
Ce0_3 Mg0_4 3.482612 1_456
Ce0_3 Ce1_1 3.597582 1_555
Ce0_3 Ce1_3 3.597584 1_555
Ce0_3 Ce1_5 3.597584 1_455
Ce0_4 Ce0_6 3.087903 1_555
Ce0_4 Ce0_6 3.087903 1_545
Ce0_4 Mg0_7 3.482611 1_545
Ce0_4 Mg0_5 3.482612 1_555
Ce0_4 Mg0_3 3.482612 1_545
Ce0_4 Ce1_6 3.597582 1_545
Ce0_4 Ce1_4 3.597584 1_555
Ce0_4 Ce1_2 3.597584 1_545
Ce0_5 Ce0_7 3.087903 1_545
Ce0_5 Ce0_7 3.087903 1_555
Ce0_5 Mg0_6 3.482611 1_546
Ce0_5 Mg0_2 3.482612 1_546
Ce0_5 Mg0_4 3.482612 1_556
Ce0_5 Ce1_7 3.597582 1_545
Ce0_5 Ce1_3 3.597584 1_545
Ce0_5 Ce1_5 3.597584 1_555
Ce0_6 Mg0_5 3.482611 1_555
Ce0_6 Mg0_7 3.482612 1_555
Ce0_6 Mg0_1 3.482612 1_555
Ce0_6 Ce1_4 3.597582 1_555
Ce0_6 Ce1_0 3.597584 1_555
Ce0_6 Ce1_6 3.597584 1_555
Ce0_7 Mg0_4 3.482611 1_556
Ce0_7 Mg0_0 3.482612 1_556
Ce0_7 Mg0_6 3.482612 1_556
Ce0_7 Ce1_5 3.597582 1_555
Ce0_7 Ce1_7 3.597584 1_555
Ce0_7 Ce1_1 3.597584 1_555
Ce1_0 Ce1_4 3.087903 1_555
Ce1_0 Ce1_2 3.087903 1_555
Ce1_0 Ce1_2 3.087903 1_545
Ce1_0 Ce1_4 3.087903 1_455
Ce1_0 Ce1_6 3.087904 1_445
Ce1_0 Ce1_6 3.087904 1_555
Ce1_0 Mg1_2 3.441020 1_555
Ce1_0 Mg1_6 3.441021 1_555
Ce1_0 Mg1_0 3.441021 1_555
Ce1_1 Ce1_3 3.087903 1_555
Ce1_1 Ce1_5 3.087903 1_555
Ce1_1 Ce1_3 3.087903 1_545
Ce1_1 Ce1_5 3.087903 1_455
Ce1_1 Ce1_7 3.087904 1_555
Ce1_1 Ce1_7 3.087904 1_445
Ce1_1 Mg1_3 3.441020 1_555
Ce1_1 Mg1_1 3.441021 1_555
Ce1_1 Mg1_7 3.441021 1_555
Ce1_2 Ce1_6 3.087903 1_555
Ce1_2 Ce1_6 3.087903 1_455
Ce1_2 Ce1_4 3.087904 1_455
Ce1_2 Ce1_4 3.087904 1_565
Ce1_2 Mg1_0 3.441020 1_565
Ce1_2 Mg1_4 3.441021 1_565
Ce1_2 Mg1_2 3.441021 1_555
Ce1_3 Ce1_7 3.087903 1_555
Ce1_3 Ce1_7 3.087903 1_455
Ce1_3 Ce1_5 3.087904 1_455
Ce1_3 Ce1_5 3.087904 1_565
Ce1_3 Mg1_1 3.441020 1_565
Ce1_3 Mg1_3 3.441021 1_555
Ce1_3 Mg1_5 3.441021 1_565
Ce1_4 Ce1_6 3.087903 1_545
Ce1_4 Ce1_6 3.087903 1_555
Ce1_4 Mg1_6 3.441020 1_555
Ce1_4 Mg1_2 3.441021 1_655
Ce1_4 Mg1_4 3.441021 1_555
Ce1_5 Ce1_7 3.087903 1_545
Ce1_5 Ce1_7 3.087903 1_555
Ce1_5 Mg1_7 3.441020 1_555
Ce1_5 Mg1_3 3.441021 1_655
Ce1_5 Mg1_5 3.441021 1_555
Ce1_6 Mg1_4 3.441020 1_565
Ce1_6 Mg1_6 3.441021 1_555
Ce1_6 Mg1_0 3.441021 1_665
Ce1_7 Mg1_5 3.441020 1_565
Ce1_7 Mg1_1 3.441021 1_665
Ce1_7 Mg1_7 3.441021 1_555
Ce2_0 Ce2_4 3.087903 1_455
Ce2_0 Ce2_4 3.087903 1_555
Ce2_0 Ce2_2 3.087903 1_555
Ce2_0 Ce2_2 3.087903 1_545
Ce2_0 Ce2_6 3.087904 1_445
Ce2_0 Ce2_6 3.087904 1_555
Ce2_0 Mg2_2 3.456887 1_545
Ce2_0 Mg2_6 3.456889 1_445
Ce2_0 Mg2_0 3.456889 1_555
Ce2_0 Mg0_2 3.487696 1_545
Ce2_0 Mg0_0 3.487698 1_555
Ce2_0 Mg0_6 3.487698 1_445
Ce2_1 Ce2_3 3.087903 1_555
Ce2_1 Ce2_5 3.087903 1_455
Ce2_1 Ce2_3 3.087903 1_545
Ce2_1 Ce2_5 3.087903 1_555
Ce2_1 Ce2_7 3.087904 1_445
Ce2_1 Ce2_7 3.087904 1_555
Ce2_1 Mg2_3 3.456887 1_545
Ce2_1 Mg2_7 3.456889 1_445
Ce2_1 Mg2_1 3.456889 1_555
Ce2_1 Mg0_3 3.487696 1_545
Ce2_1 Mg0_7 3.487698 1_445
Ce2_1 Mg0_1 3.487698 1_555
Ce2_2 Ce2_6 3.087903 1_455
Ce2_2 Ce2_6 3.087903 1_555
Ce2_2 Ce2_4 3.087904 1_565
Ce2_2 Ce2_4 3.087904 1_455
Ce2_2 Mg2_0 3.456887 1_555
Ce2_2 Mg2_2 3.456889 1_555
Ce2_2 Mg2_4 3.456889 1_455
Ce2_2 Mg0_0 3.487696 1_555
Ce2_2 Mg0_4 3.487698 1_455
Ce2_2 Mg0_2 3.487698 1_555
Ce2_3 Ce2_7 3.087903 1_455
Ce2_3 Ce2_7 3.087903 1_555
Ce2_3 Ce2_5 3.087904 1_455
Ce2_3 Ce2_5 3.087904 1_565
Ce2_3 Mg2_1 3.456887 1_555
Ce2_3 Mg2_3 3.456889 1_555
Ce2_3 Mg2_5 3.456889 1_455
Ce2_3 Mg0_1 3.487696 1_555
Ce2_3 Mg0_3 3.487698 1_555
Ce2_3 Mg0_5 3.487698 1_455
Ce2_4 Ce2_6 3.087903 1_545
Ce2_4 Ce2_6 3.087903 1_555
Ce2_4 Mg2_6 3.456887 1_545
Ce2_4 Mg2_2 3.456889 1_545
Ce2_4 Mg2_4 3.456889 1_555
Ce2_4 Mg0_6 3.487696 1_545
Ce2_4 Mg0_2 3.487698 1_545
Ce2_4 Mg0_4 3.487698 1_555
Ce2_5 Ce2_7 3.087903 1_555
Ce2_5 Ce2_7 3.087903 1_545
Ce2_5 Mg2_7 3.456887 1_545
Ce2_5 Mg2_3 3.456889 1_545
Ce2_5 Mg2_5 3.456889 1_555
Ce2_5 Mg0_7 3.487696 1_545
Ce2_5 Mg0_5 3.487698 1_555
Ce2_5 Mg0_3 3.487698 1_545
Ce2_6 Mg2_4 3.456887 1_555
Ce2_6 Mg2_6 3.456889 1_555
Ce2_6 Mg2_0 3.456889 1_555
Ce2_6 Mg0_4 3.487696 1_555
Ce2_6 Mg0_0 3.487698 1_555
Ce2_6 Mg0_6 3.487698 1_555
Ce2_7 Mg2_5 3.456887 1_555
Ce2_7 Mg2_7 3.456889 1_555
Ce2_7 Mg2_1 3.456889 1_555
Ce2_7 Mg0_5 3.487696 1_555
Ce2_7 Mg0_1 3.487698 1_555
Ce2_7 Mg0_7 3.487698 1_555
Mg0_0 Mg0_4 3.087903 1_555
Mg0_0 Mg0_2 3.087903 1_555
Mg0_0 Mg0_4 3.087903 1_455
Mg0_0 Mg0_2 3.087903 1_545
Mg0_0 Mg0_6 3.087904 1_445
Mg0_0 Mg0_6 3.087904 1_555
Mg0_1 Mg0_5 3.087903 1_555
Mg0_1 Mg0_3 3.087903 1_555
Mg0_1 Mg0_5 3.087903 1_455
Mg0_1 Mg0_3 3.087903 1_545
Mg0_1 Mg0_7 3.087904 1_445
Mg0_1 Mg0_7 3.087904 1_555
Mg0_2 Mg0_6 3.087903 1_555
Mg0_2 Mg0_6 3.087903 1_455
Mg0_2 Mg0_4 3.087904 1_565
Mg0_2 Mg0_4 3.087904 1_455
Mg0_3 Mg0_7 3.087903 1_555
Mg0_3 Mg0_7 3.087903 1_455
Mg0_3 Mg0_5 3.087904 1_565
Mg0_3 Mg0_5 3.087904 1_455
Mg0_4 Mg0_6 3.087903 1_545
Mg0_4 Mg0_6 3.087903 1_555
Mg0_5 Mg0_7 3.087903 1_545
Mg0_5 Mg0_7 3.087903 1_555
Mg1_0 Mg1_4 3.087903 1_455
Mg1_0 Mg1_4 3.087903 1_555
Mg1_0 Mg1_2 3.087903 1_555
Mg1_0 Mg1_2 3.087903 1_545
Mg1_0 Mg1_6 3.087904 1_445
Mg1_0 Mg1_6 3.087904 1_555
Mg1_0 Mg2_2 3.215667 1_545
Mg1_0 Mg2_6 3.215669 1_445
Mg1_0 Mg2_0 3.215669 1_555
Mg1_1 Mg1_3 3.087903 1_555
Mg1_1 Mg1_3 3.087903 1_545
Mg1_1 Mg1_5 3.087903 1_455
Mg1_1 Mg1_5 3.087903 1_555
Mg1_1 Mg1_7 3.087904 1_445
Mg1_1 Mg1_7 3.087904 1_555
Mg1_1 Mg2_3 3.215667 1_545
Mg1_1 Mg2_7 3.215669 1_445
Mg1_1 Mg2_1 3.215669 1_555
Mg1_2 Mg1_6 3.087903 1_555
Mg1_2 Mg1_6 3.087903 1_455
Mg1_2 Mg1_4 3.087904 1_565
Mg1_2 Mg1_4 3.087904 1_455
Mg1_2 Mg2_0 3.215667 1_555
Mg1_2 Mg2_2 3.215669 1_555
Mg1_2 Mg2_4 3.215669 1_455
Mg1_3 Mg1_7 3.087903 1_555
Mg1_3 Mg1_7 3.087903 1_455
Mg1_3 Mg1_5 3.087904 1_455
Mg1_3 Mg1_5 3.087904 1_565
Mg1_3 Mg2_1 3.215667 1_555
Mg1_3 Mg2_3 3.215669 1_555
Mg1_3 Mg2_5 3.215669 1_455
Mg1_4 Mg1_6 3.087903 1_555
Mg1_4 Mg1_6 3.087903 1_545
Mg1_4 Mg2_6 3.215667 1_545
Mg1_4 Mg2_2 3.215669 1_545
Mg1_4 Mg2_4 3.215669 1_555
Mg1_5 Mg1_7 3.087903 1_555
Mg1_5 Mg1_7 3.087903 1_545
Mg1_5 Mg2_7 3.215667 1_545
Mg1_5 Mg2_3 3.215669 1_545
Mg1_5 Mg2_5 3.215669 1_555
Mg1_6 Mg2_4 3.215667 1_555
Mg1_6 Mg2_0 3.215669 1_555
Mg1_6 Mg2_6 3.215669 1_555
Mg1_7 Mg2_5 3.215667 1_555
Mg1_7 Mg2_7 3.215669 1_555
Mg1_7 Mg2_1 3.215669 1_555
Mg2_0 Mg2_4 3.087903 1_555
Mg2_0 Mg2_2 3.087903 1_555
Mg2_0 Mg2_4 3.087903 1_455
Mg2_0 Mg2_2 3.087903 1_545
Mg2_0 Mg2_6 3.087904 1_555
Mg2_0 Mg2_6 3.087904 1_445
Mg2_1 Mg2_3 3.087903 1_555
Mg2_1 Mg2_5 3.087903 1_555
Mg2_1 Mg2_5 3.087903 1_455
Mg2_1 Mg2_3 3.087903 1_545
Mg2_1 Mg2_7 3.087904 1_445
Mg2_1 Mg2_7 3.087904 1_555
Mg2_2 Mg2_6 3.087903 1_555
Mg2_2 Mg2_6 3.087903 1_455
Mg2_2 Mg2_4 3.087904 1_565
Mg2_2 Mg2_4 3.087904 1_455
Mg2_3 Mg2_7 3.087903 1_555
Mg2_3 Mg2_7 3.087903 1_455
Mg2_3 Mg2_5 3.087904 1_455
Mg2_3 Mg2_5 3.087904 1_565
Mg2_4 Mg2_6 3.087903 1_545
Mg2_4 Mg2_6 3.087903 1_555
Mg2_5 Mg2_7 3.087903 1_545
Mg2_5 Mg2_7 3.087903 1_555
