# generated using pymatgen
data_Ni3Se3O10
_symmetry_space_group_name_H-M   'P 1'
_cell_length_a   8.17532100
_cell_length_b   8.21681301
_cell_length_c   8.31019326
_cell_angle_alpha   61.59011616
_cell_angle_beta   70.62073034
_cell_angle_gamma   68.05228370
_symmetry_Int_Tables_number   1
_chemical_formula_structural   Ni3Se3O10
_chemical_formula_sum   'Ni6 Se6 O20'
_cell_volume   447.23483589
_cell_formula_units_Z   2
loop_
 _symmetry_equiv_pos_site_id
 _symmetry_equiv_pos_as_xyz
  1  'x, y, z'
loop_
 _atom_site_type_symbol
 _atom_site_label
 _atom_site_symmetry_multiplicity
 _atom_site_fract_x
 _atom_site_fract_y
 _atom_site_fract_z
 _atom_site_occupancy
  Ni  Ni0  1  0.86902300  0.71236600  0.39621500  1
  Ni  Ni1  1  0.13097700  0.28763400  0.60378500  1
  Ni  Ni2  1  0.96955500  0.34076700  0.21003400  1
  Ni  Ni3  1  0.03044500  0.65923300  0.78996600  1
  Ni  Ni4  1  0.50000000  0.50000000  0.50000000  1
  Ni  Ni5  1  0.00000000  0.00000000  0.00000000  1
  Se  Se0  1  0.23472100  0.57184600  0.23016000  1
  Se  Se1  1  0.76527900  0.42815400  0.76984000  1
  Se  Se2  1  0.32650700  0.20028800  0.94879700  1
  Se  Se3  1  0.67349300  0.79971200  0.05120300  1
  Se  Se4  1  0.32442800  0.83028400  0.69269000  1
  Se  Se5  1  0.67557200  0.16971600  0.30731000  1
  O  O0  1  0.71537300  0.30602800  0.38964200  1
  O  O1  1  0.28462700  0.69397200  0.61035800  1
  O  O2  1  0.26752300  0.06318500  0.53007000  1
  O  O3  1  0.73247700  0.93681500  0.46993000  1
  O  O4  1  0.21380800  0.13075900  0.85563700  1
  O  O5  1  0.78619200  0.86924100  0.14436300  1
  O  O6  1  0.48603500  0.28780800  0.76741500  1
  O  O7  1  0.51396500  0.71219200  0.23258500  1
  O  O8  1  0.13413300  0.80916100  0.87294900  1
  O  O9  1  0.86586700  0.19083900  0.12705100  1
  O  O10  1  0.89395100  0.21006200  0.76098700  1
  O  O11  1  0.10604900  0.78993800  0.23901300  1
  O  O12  1  0.87721000  0.90764500  0.68182000  1
  O  O13  1  0.12279000  0.09235500  0.31818000  1
  O  O14  1  0.31371200  0.44243500  0.43879500  1
  O  O15  1  0.68628800  0.55756500  0.56120500  1
  O  O16  1  0.16887500  0.40439700  0.97677500  1
  O  O17  1  0.83112500  0.59560300  0.02322500  1
  O  O18  1  0.04934400  0.46572300  0.33133700  1
  O  O19  1  0.95065600  0.53427700  0.66866300  1
loop_
_geom_bond_atom_site_label_1
_geom_bond_atom_site_label_2
_geom_bond_distance
_geom_bond_site_symmetry_2
Ni0 O3 2.026063 1_555
Ni0 O15 2.032541 1_555
Ni0 O5 2.054617 1_555
Ni0 O11 2.078171 1_655
Ni0 O19 2.198406 1_555
Ni0 O18 2.202279 1_655
Ni1 O2 2.026063 1_555
Ni1 O14 2.032541 1_555
Ni1 O4 2.054617 1_555
Ni1 O10 2.078171 1_455
Ni1 O18 2.198406 1_555
Ni1 O19 2.202279 1_455
Ni2 O13 1.906187 1_655
Ni2 O16 2.064559 1_654
Ni2 O17 2.092054 1_555
Ni2 O18 2.101844 1_655
Ni2 O0 2.146410 1_555
Ni2 O9 2.165347 1_555
Ni3 O12 1.906187 1_455
Ni3 O17 2.064559 1_456
Ni3 O16 2.092054 1_555
Ni3 O19 2.101844 1_455
Ni3 O1 2.146410 1_555
Ni3 O8 2.165347 1_555
Ni4 O15 2.020725 1_555
Ni4 O14 2.020725 1_555
Ni4 O6 2.070019 1_555
Ni4 O7 2.070019 1_555
Ni4 O1 2.168651 1_555
Ni4 O0 2.168651 1_555
Ni5 O8 2.073115 1_544
Ni5 O9 2.073115 1_455
Ni5 O5 2.105863 1_445
Ni5 O4 2.105863 1_554
Ni5 O10 2.106654 1_454
Ni5 O11 2.106654 1_545
O0 Se5 1.725657 1_555
O1 Se4 1.725657 1_555
O2 Se4 1.730841 1_545
O3 Se5 1.730841 1_565
O4 Se2 1.749953 1_555
O5 Se3 1.749953 1_555
O6 Se2 1.689711 1_555
O7 Se3 1.689711 1_555
O8 Se4 1.761314 1_555
O9 Se5 1.761314 1_555
O10 Se1 1.728661 1_555
O11 Se0 1.728661 1_555
O14 Se0 1.740463 1_555
O15 Se1 1.740463 1_555
O16 Se2 1.756167 1_555
O17 Se3 1.756167 1_555
O18 Se0 1.791278 1_555
O19 Se1 1.791278 1_555
