# generated using pymatgen
data_NaNi2H3(SO5)2
_symmetry_space_group_name_H-M   'P 1'
_cell_length_a   6.51456394
_cell_length_b   6.51456394
_cell_length_c   7.05738133
_cell_angle_alpha   75.44106068
_cell_angle_beta   75.44106068
_cell_angle_gamma   55.78581534
_symmetry_Int_Tables_number   1
_chemical_formula_structural   NaNi2H3(SO5)2
_chemical_formula_sum   'Na1 Ni2 H3 S2 O10'
_cell_volume   237.44981911
_cell_formula_units_Z   1
loop_
 _symmetry_equiv_pos_site_id
 _symmetry_equiv_pos_as_xyz
  1  'x, y, z'
loop_
 _atom_site_type_symbol
 _atom_site_label
 _atom_site_symmetry_multiplicity
 _atom_site_fract_x
 _atom_site_fract_y
 _atom_site_fract_z
 _atom_site_occupancy
  Na  Na0  1  0.49624100  0.49624100  0.50130400  1
  Ni  Ni0  1  0.49789600  0.01246500  0.99596300  1
  Ni  Ni1  1  0.01246500  0.49789600  0.99596300  1
  H  H0  1  0.08272900  0.08272900  0.01936700  1
  H  H1  1  0.53901000  0.53901000  0.98521200  1
  H  H2  1  0.91679400  0.91679400  0.98275500  1
  S  S0  1  0.10387600  0.10387600  0.65796200  1
  S  S1  1  0.89741700  0.89741700  0.34006100  1
  O  O0  1  0.28060800  0.28060800  0.17232600  1
  O  O1  1  0.61877100  0.61877100  0.02015300  1
  O  O2  1  0.15593500  0.15593500  0.90606000  1
  O  O3  1  0.77451400  0.17212700  0.30209400  1
  O  O4  1  0.82922100  0.22701300  0.69433600  1
  O  O5  1  0.17212700  0.77451400  0.30209400  1
  O  O6  1  0.22701300  0.82922100  0.69433600  1
  O  O7  1  0.84303700  0.84303700  0.09398800  1
  O  O8  1  0.38048500  0.38048500  0.97875000  1
  O  O9  1  0.72086200  0.72086200  0.82927700  1
loop_
_geom_bond_atom_site_label_1
_geom_bond_atom_site_label_2
_geom_bond_distance
_geom_bond_site_symmetry_2
Na0 O5 2.372276 1_555
Na0 O3 2.372276 1_555
Na0 O6 2.375592 1_555
Na0 O4 2.375592 1_555
Ni0 O0 2.007715 1_556
Ni0 O8 2.045924 1_555
Ni0 O9 2.064895 1_545
Ni0 O2 2.076018 1_555
Ni0 O7 2.087964 1_546
Ni0 O1 2.191665 1_546
Ni1 O0 2.007715 1_556
Ni1 O8 2.045924 1_555
Ni1 O9 2.064895 1_455
Ni1 O2 2.076018 1_555
Ni1 O7 2.087964 1_456
Ni1 O1 2.191665 1_456
H0 O2 0.983176 1_554
H1 O1 1.016492 1_556
H2 O7 0.978960 1_556
O0 O8 1.515043 1_554
O1 O9 1.515217 1_554
O2 S0 2.005539 1_555
O3 S1 1.473424 1_545
O4 S0 1.472864 1_655
O5 S1 1.473424 1_455
O6 S0 1.472864 1_565
O7 S1 2.006648 1_555
