# generated using pymatgen
data_Co5(GeN3)2
_symmetry_space_group_name_H-M   'P 1'
_cell_length_a   6.17647363
_cell_length_b   4.71864665
_cell_length_c   11.65984948
_cell_angle_alpha   90.00000238
_cell_angle_beta   69.60553037
_cell_angle_gamma   112.45672003
_symmetry_Int_Tables_number   1
_chemical_formula_structural   Co5(GeN3)2
_chemical_formula_sum   'Co10 Ge4 N12'
_cell_volume   290.86977471
_cell_formula_units_Z   2
loop_
 _symmetry_equiv_pos_site_id
 _symmetry_equiv_pos_as_xyz
  1  'x, y, z'
loop_
 _atom_site_type_symbol
 _atom_site_label
 _atom_site_symmetry_multiplicity
 _atom_site_fract_x
 _atom_site_fract_y
 _atom_site_fract_z
 _atom_site_occupancy
  Co  Co0  1  0.18566200  0.72652100  0.02993700  1
  Co  Co1  1  0.81433800  0.54085800  0.47006300  1
  Co  Co2  1  0.81433800  0.27347900  0.97006300  1
  Co  Co3  1  0.18566200  0.45914200  0.52993700  1
  Co  Co4  1  0.21906300  0.04563000  0.64918400  1
  Co  Co5  1  0.78093700  0.82656800  0.85081600  1
  Co  Co6  1  0.78093700  0.95437000  0.35081600  1
  Co  Co7  1  0.21906300  0.17343200  0.14918400  1
  Co  Co8  1  0.00000000  0.40374700  0.75000000  1
  Co  Co9  1  0.00000000  0.59625300  0.25000000  1
  Ge  Ge0  1  0.66538100  0.92243200  0.58333400  1
  Ge  Ge1  1  0.33461900  0.25705100  0.91666600  1
  Ge  Ge2  1  0.33461900  0.07756800  0.41666600  1
  Ge  Ge3  1  0.66538100  0.74294900  0.08333400  1
  N  N0  1  0.93151600  0.09199900  0.64862600  1
  N  N1  1  0.06848400  0.16048200  0.85137400  1
  N  N2  1  0.06848400  0.90800100  0.35137400  1
  N  N3  1  0.93151600  0.83951800  0.14862600  1
  N  N4  1  0.29098500  0.69914600  0.64325300  1
  N  N5  1  0.70901500  0.40816000  0.85674700  1
  N  N6  1  0.70901500  0.30085400  0.35674700  1
  N  N7  1  0.29098500  0.59184000  0.14325300  1
  N  N8  1  0.56763000  0.26881500  0.60268300  1
  N  N9  1  0.43237000  0.70118600  0.89731700  1
  N  N10  1  0.43237000  0.73118500  0.39731700  1
  N  N11  1  0.56763000  0.29881400  0.10268300  1
loop_
_geom_bond_atom_site_label_1
_geom_bond_atom_site_label_2
_geom_bond_distance
_geom_bond_site_symmetry_2
Co0 N9 1.795628 1_554
Co0 N7 1.867521 1_555
Co0 N3 1.946505 1_455
Co1 N8 1.795628 1_555
Co1 N6 1.867521 1_555
Co1 N2 1.946505 1_655
Co2 N11 1.795628 1_556
Co2 N5 1.867521 1_555
Co2 N1 1.946505 1_655
Co3 N10 1.795628 1_555
Co3 N4 1.867521 1_555
Co3 N0 1.946505 1_455
Co4 N4 1.846233 1_545
Co4 N8 1.868793 1_555
Co4 N0 1.872729 1_455
Co4 N1 2.360813 1_555
Co5 N5 1.846242 1_555
Co5 N9 1.868793 1_555
Co5 N1 1.872724 1_665
Co5 N0 2.360813 1_565
Co6 N6 1.846233 1_565
Co6 N10 1.868793 1_555
Co6 N2 1.872729 1_655
Co6 N3 2.360813 1_555
Co7 N7 1.846242 1_555
Co7 N11 1.868793 1_555
Co7 N3 1.872724 1_445
Co7 N2 2.360813 1_545
Co8 N5 1.802568 1_455
Co8 N4 1.802570 1_555
Co8 N0 1.900811 1_455
Co8 N1 1.900814 1_555
Co9 N7 1.802568 1_555
Co9 N6 1.802570 1_455
Co9 N2 1.900811 1_555
Co9 N3 1.900814 1_455
Ge0 N8 1.935417 1_565
Ge0 N0 1.946575 1_565
Ge0 N4 1.989537 1_555
Ge1 N9 1.935422 1_555
Ge1 N1 1.946574 1_555
Ge1 N5 1.989537 1_555
Ge2 N10 1.935417 1_545
Ge2 N2 1.946575 1_545
Ge2 N6 1.989537 1_555
Ge3 N11 1.935422 1_555
Ge3 N3 1.946574 1_555
Ge3 N7 1.989537 1_555
