# generated using pymatgen
data_Eu3FeO6
_symmetry_space_group_name_H-M   'P 1'
_cell_length_a   5.58978500
_cell_length_b   7.39187929
_cell_length_c   7.39187929
_cell_angle_alpha   102.91997192
_cell_angle_beta   90.00000000
_cell_angle_gamma   90.00000000
_symmetry_Int_Tables_number   1
_chemical_formula_structural   Eu3FeO6
_chemical_formula_sum   'Eu6 Fe2 O12'
_cell_volume   297.69282571
_cell_formula_units_Z   2
loop_
 _symmetry_equiv_pos_site_id
 _symmetry_equiv_pos_as_xyz
  1  'x, y, z'
loop_
 _atom_site_type_symbol
 _atom_site_label
 _atom_site_symmetry_multiplicity
 _atom_site_fract_x
 _atom_site_fract_y
 _atom_site_fract_z
 _atom_site_occupancy
  Eu  Eu0  1  0.46155300  0.19963000  0.41445700  1
  Eu  Eu1  1  0.46155300  0.58554300  0.80037000  1
  Eu  Eu2  1  0.96155300  0.80037000  0.58554300  1
  Eu  Eu3  1  0.96155300  0.41445700  0.19963000  1
  Eu  Eu4  1  0.50052200  0.10490100  0.89509900  1
  Eu  Eu5  1  0.00052200  0.89509900  0.10490100  1
  Fe  Fe0  1  0.92505400  0.30820400  0.69179600  1
  Fe  Fe1  1  0.42505400  0.69179600  0.30820400  1
  O  O0  1  0.22829400  0.85451300  0.82535100  1
  O  O1  1  0.22829400  0.17464900  0.14548700  1
  O  O2  1  0.72829400  0.14548700  0.17464900  1
  O  O3  1  0.72829400  0.82535100  0.85451300  1
  O  O4  1  0.25161300  0.91616100  0.39059200  1
  O  O5  1  0.25161300  0.60940800  0.08383900  1
  O  O6  1  0.75161300  0.08383900  0.60940800  1
  O  O7  1  0.75161300  0.39059200  0.91616100  1
  O  O8  1  0.28358700  0.54435600  0.45564400  1
  O  O9  1  0.78358700  0.45564400  0.54435600  1
  O  O10  1  0.25922600  0.28715800  0.71284200  1
  O  O11  1  0.75922600  0.71284200  0.28715800  1
loop_
_geom_bond_atom_site_label_1
_geom_bond_atom_site_label_2
_geom_bond_distance
_geom_bond_site_symmetry_2
Eu0 O2 2.282171 1_555
Eu0 O1 2.350087 1_555
Eu0 O4 2.373508 1_545
Eu0 O10 2.433995 1_555
Eu0 O6 2.447373 1_555
Eu0 O9 2.632687 1_555
Eu0 O8 2.688600 1_555
Eu1 O3 2.282171 1_555
Eu1 O0 2.350087 1_555
Eu1 O5 2.373508 1_556
Eu1 O10 2.433995 1_555
Eu1 O7 2.447373 1_555
Eu1 O9 2.632687 1_555
Eu1 O8 2.688600 1_555
Eu2 O0 2.282171 1_655
Eu2 O3 2.350087 1_555
Eu2 O6 2.373508 1_565
Eu2 O11 2.433995 1_555
Eu2 O4 2.447373 1_655
Eu2 O8 2.632687 1_655
Eu2 O9 2.688600 1_555
Eu3 O1 2.282171 1_655
Eu3 O2 2.350087 1_555
Eu3 O7 2.373508 1_554
Eu3 O11 2.433995 1_555
Eu3 O5 2.447373 1_655
Eu3 O8 2.632687 1_655
Eu3 O9 2.688600 1_555
Eu4 O1 2.362257 1_556
Eu4 O0 2.362257 1_545
Eu4 O2 2.388267 1_556
Eu4 O3 2.388267 1_545
Eu4 O10 2.502177 1_555
Eu4 O6 2.511339 1_555
Eu4 O7 2.511339 1_555
Eu5 O2 2.362257 1_465
Eu5 O3 2.362257 1_454
Eu5 O0 2.388267 1_554
Eu5 O1 2.388267 1_565
Eu5 O11 2.502177 1_455
Eu5 O4 2.511339 1_555
Eu5 O5 2.511339 1_555
Fe0 O9 1.879377 1_555
Fe0 O10 1.883736 1_655
Fe0 O6 1.899922 1_555
Fe0 O7 1.899922 1_555
Fe1 O8 1.879377 1_555
Fe1 O11 1.883736 1_555
Fe1 O5 1.899922 1_555
Fe1 O4 1.899922 1_555
