# generated using pymatgen
data_MgSn2P2O9
_symmetry_space_group_name_H-M   'P 1'
_cell_length_a   6.48699400
_cell_length_b   8.07846200
_cell_length_c   16.07884600
_cell_angle_alpha   90.00000000
_cell_angle_beta   90.00000000
_cell_angle_gamma   90.00000000
_symmetry_Int_Tables_number   1
_chemical_formula_structural   MgSn2P2O9
_chemical_formula_sum   'Mg4 Sn8 P8 O36'
_cell_volume   842.61087184
_cell_formula_units_Z   4
loop_
 _symmetry_equiv_pos_site_id
 _symmetry_equiv_pos_as_xyz
  1  'x, y, z'
loop_
 _atom_site_type_symbol
 _atom_site_label
 _atom_site_symmetry_multiplicity
 _atom_site_fract_x
 _atom_site_fract_y
 _atom_site_fract_z
 _atom_site_occupancy
  Mg  Mg0  1  0.25000000  0.50741900  0.80744200  1
  Mg  Mg1  1  0.25000000  0.99258100  0.30744200  1
  Mg  Mg2  1  0.75000000  0.00741900  0.69255800  1
  Mg  Mg3  1  0.75000000  0.49258100  0.19255800  1
  Sn  Sn0  1  0.25000000  0.87690100  0.88478600  1
  Sn  Sn1  1  0.75000000  0.12309900  0.11521400  1
  Sn  Sn2  1  0.75000000  0.37690100  0.61521400  1
  Sn  Sn3  1  0.25000000  0.62309900  0.38478600  1
  Sn  Sn4  1  0.00000000  0.50000000  0.00000000  1
  Sn  Sn5  1  0.00000000  0.00000000  0.50000000  1
  Sn  Sn6  1  0.50000000  0.00000000  0.50000000  1
  Sn  Sn7  1  0.50000000  0.50000000  0.00000000  1
  P  P0  1  0.75000000  0.89271700  0.93448000  1
  P  P1  1  0.25000000  0.10728300  0.06552000  1
  P  P2  1  0.25000000  0.39271700  0.56552000  1
  P  P3  1  0.75000000  0.60728300  0.43448000  1
  P  P4  1  0.25000000  0.89815400  0.70800600  1
  P  P5  1  0.25000000  0.60184600  0.20800600  1
  P  P6  1  0.75000000  0.39815400  0.79199400  1
  P  P7  1  0.75000000  0.10184600  0.29199400  1
  O  O0  1  0.54861100  0.07817400  0.34328400  1
  O  O1  1  0.04861100  0.92182600  0.65671600  1
  O  O2  1  0.45138900  0.57817400  0.15671600  1
  O  O3  1  0.95138900  0.42182600  0.84328400  1
  O  O4  1  0.45138900  0.92182600  0.65671600  1
  O  O5  1  0.95138900  0.07817400  0.34328400  1
  O  O6  1  0.54861100  0.42182600  0.84328400  1
  O  O7  1  0.04861100  0.57817400  0.15671600  1
  O  O8  1  0.75000000  0.77126500  0.48354900  1
  O  O9  1  0.25000000  0.22873500  0.51645100  1
  O  O10  1  0.25000000  0.27126500  0.01645100  1
  O  O11  1  0.75000000  0.72873500  0.98354900  1
  O  O12  1  0.25000000  0.63772700  0.91635200  1
  O  O13  1  0.75000000  0.36227300  0.08364800  1
  O  O14  1  0.75000000  0.13772700  0.58364800  1
  O  O15  1  0.25000000  0.86227300  0.41635200  1
  O  O16  1  0.25000000  0.72821300  0.75411500  1
  O  O17  1  0.75000000  0.27178700  0.24588500  1
  O  O18  1  0.75000000  0.22821300  0.74588500  1
  O  O19  1  0.25000000  0.77178700  0.25411500  1
  O  O20  1  0.93566700  0.59356000  0.37381600  1
  O  O21  1  0.43566700  0.40644000  0.62618400  1
  O  O22  1  0.06433300  0.09356000  0.12618400  1
  O  O23  1  0.56433300  0.90644000  0.87381600  1
  O  O24  1  0.06433300  0.40644000  0.62618400  1
  O  O25  1  0.56433300  0.59356000  0.37381600  1
  O  O26  1  0.93566700  0.90644000  0.87381600  1
  O  O27  1  0.43566700  0.09356000  0.12618400  1
  O  O28  1  0.25000000  0.95723800  0.00535300  1
  O  O29  1  0.75000000  0.52840800  0.71828400  1
  O  O30  1  0.75000000  0.97159200  0.21828400  1
  O  O31  1  0.25000000  0.02840800  0.78171600  1
  O  O32  1  0.25000000  0.54276200  0.50535300  1
  O  O33  1  0.75000000  0.45723800  0.49464700  1
  O  O34  1  0.75000000  0.04276200  0.99464700  1
  O  O35  1  0.25000000  0.47159200  0.28171600  1
loop_
_geom_bond_atom_site_label_1
_geom_bond_atom_site_label_2
_geom_bond_distance
_geom_bond_site_symmetry_2
Mg0 O16 1.979065 1_555
Mg0 O12 2.043201 1_555
Mg0 O6 2.136011 1_555
Mg0 O3 2.136011 1_455
Mg1 O19 1.979065 1_555
Mg1 O15 2.043201 1_555
Mg1 O5 2.136011 1_465
Mg1 O0 2.136011 1_565
Mg2 O18 1.979065 1_555
Mg2 O14 2.043201 1_555
Mg2 O1 2.136011 1_645
Mg2 O4 2.136011 1_545
Mg3 O17 1.979065 1_555
Mg3 O13 2.043201 1_555
Mg3 O2 2.136011 1_555
Mg3 O7 2.136011 1_655
O0 P7 1.556721 1_555
O0 Sn6 2.616815 1_555
O1 P4 1.556721 1_555
O1 Sn5 2.616815 1_565
O2 P5 1.556721 1_555
O2 Sn7 2.616815 1_555
O3 P6 1.556721 1_555
O3 Sn4 2.616815 1_656
O4 P4 1.556721 1_555
O4 Sn6 2.616815 1_565
O5 P7 1.556721 1_555
O5 Sn5 2.616815 1_655
O6 P6 1.556721 1_555
O6 Sn7 2.616815 1_556
O7 P5 1.556721 1_555
O7 Sn4 2.616815 1_555
O8 P3 1.541871 1_555
O8 Sn6 2.472752 1_565
O8 Sn5 2.472752 1_665
O9 P2 1.541871 1_555
O9 Sn6 2.472752 1_555
O9 Sn5 2.472752 1_555
O10 P1 1.541871 1_555
O10 Sn4 2.472752 1_555
O10 Sn7 2.472752 1_555
O11 P0 1.541871 1_555
O11 Sn4 2.472752 1_656
O11 Sn7 2.472752 1_556
O12 Sn0 1.997708 1_555
O12 Sn4 2.382629 1_556
O12 Sn7 2.382629 1_556
O13 Sn1 1.997708 1_555
O13 Sn4 2.382629 1_655
O13 Sn7 2.382629 1_555
O14 Sn2 1.997708 1_555
O14 Sn6 2.382629 1_555
O14 Sn5 2.382629 1_655
O15 Sn3 1.997708 1_555
O15 Sn5 2.382629 1_565
O15 Sn6 2.382629 1_565
O16 P4 1.560254 1_555
O16 Sn0 2.420160 1_555
O17 P7 1.560254 1_555
O17 Sn1 2.420160 1_555
O18 P6 1.560254 1_555
O18 Sn2 2.420160 1_555
O19 P5 1.560254 1_555
O19 Sn3 2.420160 1_555
O20 P3 1.553814 1_555
O20 Sn3 2.060555 1_655
O21 P2 1.553814 1_555
O21 Sn2 2.060555 1_555
O22 P1 1.553814 1_555
O22 Sn1 2.060555 1_455
O23 P0 1.553814 1_555
O23 Sn0 2.060555 1_555
O24 P2 1.553814 1_555
O24 Sn2 2.060555 1_455
O25 P3 1.553814 1_555
O25 Sn3 2.060555 1_555
O26 P0 1.553814 1_555
O26 Sn0 2.060555 1_655
O27 P1 1.553814 1_555
O27 Sn1 2.060555 1_555
O28 P1 1.550858 1_565
O28 Sn0 2.044330 1_554
O29 P6 1.584887 1_555
O29 Sn2 2.060219 1_555
O30 P7 1.584887 1_565
O30 Sn1 2.060219 1_565
O31 P4 1.584887 1_545
O31 Sn0 2.060219 1_545
O32 P2 1.550858 1_555
O32 Sn3 2.044330 1_555
O33 P3 1.550858 1_555
O33 Sn2 2.044330 1_555
O34 P0 1.550858 1_545
O34 Sn1 2.044330 1_556
O35 P5 1.584887 1_555
O35 Sn3 2.060219 1_555
