# generated using pymatgen
data_Dy(InCu)6
_symmetry_space_group_name_H-M   'P 1'
_cell_length_a   7.05438452
_cell_length_b   7.05438452
_cell_length_c   7.05438452
_cell_angle_alpha   133.49370507
_cell_angle_beta   99.18163315
_cell_angle_gamma   98.75214469
_symmetry_Int_Tables_number   1
_chemical_formula_structural   Dy(InCu)6
_chemical_formula_sum   'Dy1 In6 Cu6'
_cell_volume   233.98459854
_cell_formula_units_Z   1
loop_
 _symmetry_equiv_pos_site_id
 _symmetry_equiv_pos_as_xyz
  1  'x, y, z'
loop_
 _atom_site_type_symbol
 _atom_site_label
 _atom_site_symmetry_multiplicity
 _atom_site_fract_x
 _atom_site_fract_y
 _atom_site_fract_z
 _atom_site_occupancy
  Dy  Dy0  1  0.00000000  0.00000000  0.00000000  1
  In  In0  1  0.33564700  0.00000000  0.33564700  1
  In  In1  1  0.66435300  0.00000000  0.66435300  1
  In  In2  1  0.34181400  0.34181400  0.00000000  1
  In  In3  1  0.65818600  0.65818600  0.00000000  1
  In  In4  1  0.81421400  0.31421400  0.50000000  1
  In  In5  1  0.18578600  0.68578600  0.50000000  1
  Cu  Cu0  1  0.00000000  0.50000000  0.00000000  1
  Cu  Cu1  1  0.00000000  0.00000000  0.50000000  1
  Cu  Cu2  1  0.50000000  0.00000000  0.00000000  1
  Cu  Cu3  1  0.50000000  0.50000000  0.50000000  1
  Cu  Cu4  1  0.76518300  0.50000000  0.26518300  1
  Cu  Cu5  1  0.23481700  0.50000000  0.73481700  1
loop_
_geom_bond_atom_site_label_1
_geom_bond_atom_site_label_2
_geom_bond_distance
_geom_bond_site_symmetry_2
Dy0 In0 3.069793 1_555
Dy0 In1 3.069793 1_454
Dy0 In3 3.139936 1_445
Dy0 In2 3.139936 1_555
Dy0 In4 3.266350 1_444
Dy0 In5 3.266350 1_544
Dy0 In4 3.266350 1_455
Dy0 In5 3.266350 1_555
In0 In1 3.006311 1_555
Cu0 Cu5 2.689313 1_554
Cu0 Cu4 2.689313 1_455
Cu0 In4 2.741353 1_454
Cu0 In5 2.741353 1_555
Cu0 Cu1 2.785031 1_554
Cu0 Cu1 2.785031 1_565
Cu0 In0 2.797626 1_565
Cu0 In1 2.797626 1_454
Cu0 In2 2.806850 1_555
Cu0 In3 2.806850 1_455
Cu0 Dy0 3.527192 1_555
Cu0 Dy0 3.527192 1_565
Cu1 Cu5 2.689313 1_555
Cu1 Cu4 2.689313 1_445
Cu1 In5 2.741353 1_545
Cu1 In4 2.741353 1_455
Cu1 In0 2.797626 1_555
Cu1 In1 2.797626 1_455
Cu1 In2 2.806850 1_556
Cu1 In3 2.806850 1_445
Cu1 Dy0 3.527192 1_556
Cu1 Dy0 3.527192 1_555
Cu2 Cu5 2.689313 1_544
Cu2 Cu4 2.689313 1_555
Cu2 In4 2.741353 1_555
Cu2 In5 2.741353 1_544
Cu2 Cu3 2.785031 1_544
Cu2 Cu3 2.785031 1_555
Cu2 In0 2.797626 1_555
Cu2 In1 2.797626 1_554
Cu2 In2 2.806850 1_555
Cu2 In3 2.806850 1_545
Cu2 Dy0 3.527192 1_655
Cu2 Dy0 3.527192 1_555
Cu3 Cu4 2.689313 1_555
Cu3 Cu5 2.689313 1_555
Cu3 In4 2.741353 1_555
Cu3 In5 2.741353 1_555
Cu3 In0 2.797626 1_555
Cu3 In1 2.797626 1_565
Cu3 In2 2.806850 1_555
Cu3 In3 2.806850 1_556
Cu3 Dy0 3.527192 1_555
Cu3 Dy0 3.527192 1_666
Cu4 In5 2.743152 1_655
Cu4 In4 2.743152 1_555
Cu4 In2 2.827329 1_555
Cu4 In3 2.827329 1_555
Cu4 In1 2.933737 1_565
Cu4 In1 2.933737 1_554
Cu4 Dy0 3.516907 1_655
Cu4 Dy0 3.516907 1_666
Cu5 In4 2.743152 1_455
Cu5 In5 2.743152 1_555
Cu5 In2 2.827329 1_556
Cu5 In3 2.827329 1_556
Cu5 In0 2.933737 1_555
Cu5 In0 2.933737 1_566
Cu5 Dy0 3.516907 1_555
Cu5 Dy0 3.516907 1_566
