# generated using pymatgen
data_TaMnSi
_symmetry_space_group_name_H-M   'P 1'
_cell_length_a   7.34125301
_cell_length_b   7.34095345
_cell_length_c   7.34106656
_cell_angle_alpha   127.82578535
_cell_angle_beta   122.59899653
_cell_angle_gamma   81.25449586
_symmetry_Int_Tables_number   1
_chemical_formula_structural   TaMnSi
_chemical_formula_sum   'Ta6 Mn6 Si6'
_cell_volume   253.63263940
_cell_formula_units_Z   6
loop_
 _symmetry_equiv_pos_site_id
 _symmetry_equiv_pos_as_xyz
  1  'x, y, z'
loop_
 _atom_site_type_symbol
 _atom_site_label
 _atom_site_symmetry_multiplicity
 _atom_site_fract_x
 _atom_site_fract_y
 _atom_site_fract_z
 _atom_site_occupancy
  Ta  Ta0  1  0.54353441  0.08475106  0.04121709  1
  Ta  Ta1  1  0.45646776  0.49767102  0.54121090  1
  Ta  Ta2  1  0.95677627  0.49757970  0.04081676  1
  Ta  Ta3  1  0.04322755  0.08404497  0.54081830  1
  Ta  Ta4  1  0.75001551  0.90709972  0.65713833  1
  Ta  Ta5  1  0.25002151  0.90710817  0.15712592  1
  Mn  Mn0  1  0.12513950  0.74592299  0.62170020  1
  Mn  Mn1  1  0.87483367  0.49657380  0.62074518  1
  Mn  Mn2  1  0.62421197  0.74592315  0.12077369  1
  Mn  Mn3  1  0.37576593  0.49658058  0.12168152  1
  Mn  Mn4  1  0.49999101  0.24693841  0.74693980  1
  Mn  Mn5  1  -0.00001088  0.24692952  0.24693033  1
  Si  Si0  1  0.33349848  0.83099931  0.49768450  1
  Si  Si1  1  0.66652338  0.16421150  0.49753949  1
  Si  Si2  1  0.83334364  0.83099503  0.99752664  1
  Si  Si3  1  0.16667511  0.16420760  -0.00231157  1
  Si  Si4  1  0.75034286  0.49757948  0.24723693  1
  Si  Si5  1  0.24964230  0.49687998  0.74722800  1
loop_
_geom_bond_atom_site_label_1
_geom_bond_atom_site_label_2
_geom_bond_distance
_geom_bond_site_symmetry_2
Mn0 Si5 2.382772 1_555
Mn0 Si4 2.383191 1_455
Mn0 Si0 2.459069 1_555
Mn0 Si3 2.474405 1_566
Mn1 Si4 2.382479 1_555
Mn1 Si5 2.383206 1_655
Mn1 Si1 2.459104 1_555
Mn1 Si2 2.474288 1_555
Mn2 Si5 2.382908 1_554
Mn2 Si4 2.383105 1_555
Mn2 Si2 2.459077 1_554
Mn2 Si1 2.474425 1_565
Mn3 Si5 2.382853 1_554
Mn3 Si4 2.382889 1_555
Mn3 Si3 2.459142 1_555
Mn3 Si0 2.474277 1_555
Mn4 Si5 2.391296 1_555
Mn4 Si4 2.391397 1_556
Mn4 Si0 2.457154 1_545
Mn4 Si1 2.457200 1_555
Mn5 Si4 2.391316 1_455
Mn5 Si5 2.391396 1_555
Mn5 Si2 2.457135 1_444
Mn5 Si3 2.457180 1_555
Si0 Ta1 2.623175 1_555
Si0 Ta2 2.623614 1_455
Si0 Ta4 2.625422 1_555
Si0 Ta3 2.625600 1_565
Si0 Ta0 2.626054 1_566
Si0 Ta5 2.626077 1_555
Si1 Ta0 2.623298 1_555
Si1 Ta3 2.623518 1_655
Si1 Ta5 2.625450 1_545
Si1 Ta2 2.625472 1_556
Si1 Ta1 2.625885 1_555
Si1 Ta4 2.626322 1_545
Si2 Ta2 2.623372 1_556
Si2 Ta1 2.623413 1_555
Si2 Ta4 2.625199 1_555
Si2 Ta3 2.625523 1_666
Si2 Ta0 2.626164 1_566
Si2 Ta5 2.626229 1_656
Si3 Ta0 2.623321 1_555
Si3 Ta3 2.623478 1_554
Si3 Ta2 2.625338 1_455
Si3 Ta5 2.625458 1_545
Si3 Ta1 2.626025 1_555
Si3 Ta4 2.626225 1_444
Si4 Ta4 2.646246 1_555
Si4 Ta2 2.658464 1_555
Si4 Ta0 2.660819 1_555
Si5 Ta5 2.646240 1_556
Si5 Ta3 2.658349 1_555
Si5 Ta1 2.660929 1_555
