# generated using pymatgen
data_KPO3
_symmetry_space_group_name_H-M   'P 1'
_cell_length_a   16.08063130
_cell_length_b   16.08063130
_cell_length_c   16.08063130
_cell_angle_alpha   90.00000000
_cell_angle_beta   90.00000000
_cell_angle_gamma   90.00000000
_symmetry_Int_Tables_number   1
_chemical_formula_structural   KPO3
_chemical_formula_sum   'K48 P48 O144'
_cell_volume   4158.23743013
_cell_formula_units_Z   48
loop_
 _symmetry_equiv_pos_site_id
 _symmetry_equiv_pos_as_xyz
  1  'x, y, z'
loop_
 _atom_site_type_symbol
 _atom_site_label
 _atom_site_symmetry_multiplicity
 _atom_site_fract_x
 _atom_site_fract_y
 _atom_site_fract_z
 _atom_site_occupancy
  K  K0  1  -0.00000000  0.50000000  0.00000000  1
  K  K1  1  -0.00000000  -0.00000000  0.50000000  1
  K  K2  1  0.50000000  0.50000000  0.50000000  1
  K  K3  1  0.50000000  -0.00000000  0.00000000  1
  K  K4  1  -0.00000000  -0.00000000  0.00000000  1
  K  K5  1  -0.00000000  0.50000000  0.50000000  1
  K  K6  1  0.50000000  -0.00000000  0.50000000  1
  K  K7  1  0.50000000  0.50000000  0.00000000  1
  K  K8  1  0.76753945  0.23246055  0.73246055  1
  K  K9  1  0.23246055  0.73246055  0.76753945  1
  K  K10  1  0.73246055  0.76753945  0.23246055  1
  K  K11  1  0.26753945  0.26753945  0.26753945  1
  K  K12  1  0.23246055  0.76753945  0.26753945  1
  K  K13  1  0.76753945  0.26753945  0.23246055  1
  K  K14  1  0.26753945  0.23246055  0.76753945  1
  K  K15  1  0.73246055  0.73246055  0.73246055  1
  K  K16  1  0.55855729  0.25602924  0.62002337  1
  K  K17  1  0.44144271  0.75602924  0.87997663  1
  K  K18  1  0.94144271  0.74397076  0.12002337  1
  K  K19  1  0.05855729  0.24397076  0.37997663  1
  K  K20  1  0.62002337  0.55855729  0.25602924  1
  K  K21  1  0.87997663  0.44144271  0.75602924  1
  K  K22  1  0.12002337  0.94144271  0.74397076  1
  K  K23  1  0.37997663  0.05855729  0.24397076  1
  K  K24  1  0.25602924  0.62002337  0.55855729  1
  K  K25  1  0.75602924  0.87997663  0.44144271  1
  K  K26  1  0.74397076  0.12002337  0.94144271  1
  K  K27  1  0.24397076  0.37997663  0.05855729  1
  K  K28  1  0.44144271  0.74397076  0.37997663  1
  K  K29  1  0.55855729  0.24397076  0.12002337  1
  K  K30  1  0.05855729  0.25602924  0.87997663  1
  K  K31  1  0.94144271  0.75602924  0.62002337  1
  K  K32  1  0.37997663  0.44144271  0.74397076  1
  K  K33  1  0.12002337  0.55855729  0.24397076  1
  K  K34  1  0.87997663  0.05855729  0.25602924  1
  K  K35  1  0.62002337  0.94144271  0.75602924  1
  K  K36  1  0.74397076  0.37997663  0.44144271  1
  K  K37  1  0.24397076  0.12002337  0.55855729  1
  K  K38  1  0.25602924  0.87997663  0.05855729  1
  K  K39  1  0.75602924  0.62002337  0.94144271  1
  K  K40  1  0.37168506  0.62831494  0.12831494  1
  K  K41  1  0.62831494  0.12831494  0.37168506  1
  K  K42  1  0.12831494  0.37168506  0.62831494  1
  K  K43  1  0.87168506  0.87168506  0.87168506  1
  K  K44  1  0.62831494  0.37168506  0.87168506  1
  K  K45  1  0.37168506  0.87168506  0.62831494  1
  K  K46  1  0.87168506  0.62831494  0.37168506  1
  K  K47  1  0.12831494  0.12831494  0.12831494  1
  P  P0  1  0.72561129  0.07823635  0.55874787  1
  P  P1  1  0.27438871  0.57823635  0.94125213  1
  P  P2  1  0.77438871  0.92176365  0.05874787  1
  P  P3  1  0.22561129  0.42176365  0.44125213  1
  P  P4  1  0.55874787  0.72561129  0.07823635  1
  P  P5  1  0.94125213  0.27438871  0.57823635  1
  P  P6  1  0.05874787  0.77438871  0.92176365  1
  P  P7  1  0.44125213  0.22561129  0.42176365  1
  P  P8  1  0.07823635  0.55874787  0.72561129  1
  P  P9  1  0.57823635  0.94125213  0.27438871  1
  P  P10  1  0.92176365  0.05874787  0.77438871  1
  P  P11  1  0.42176365  0.44125213  0.22561129  1
  P  P12  1  0.27438871  0.92176365  0.44125213  1
  P  P13  1  0.72561129  0.42176365  0.05874787  1
  P  P14  1  0.22561129  0.07823635  0.94125213  1
  P  P15  1  0.77438871  0.57823635  0.55874787  1
  P  P16  1  0.44125213  0.27438871  0.92176365  1
  P  P17  1  0.05874787  0.72561129  0.42176365  1
  P  P18  1  0.94125213  0.22561129  0.07823635  1
  P  P19  1  0.55874787  0.77438871  0.57823635  1
  P  P20  1  0.92176365  0.44125213  0.27438871  1
  P  P21  1  0.42176365  0.05874787  0.72561129  1
  P  P22  1  0.07823635  0.94125213  0.22561129  1
  P  P23  1  0.57823635  0.55874787  0.77438871  1
  P  P24  1  0.54609605  0.15480314  0.82787863  1
  P  P25  1  0.45390395  0.65480314  0.67212137  1
  P  P26  1  0.95390395  0.84519686  0.32787863  1
  P  P27  1  0.04609605  0.34519686  0.17212137  1
  P  P28  1  0.82787863  0.54609605  0.15480314  1
  P  P29  1  0.67212137  0.45390395  0.65480314  1
  P  P30  1  0.32787863  0.95390395  0.84519686  1
  P  P31  1  0.17212137  0.04609605  0.34519686  1
  P  P32  1  0.15480314  0.82787863  0.54609605  1
  P  P33  1  0.65480314  0.67212137  0.45390395  1
  P  P34  1  0.84519686  0.32787863  0.95390395  1
  P  P35  1  0.34519686  0.17212137  0.04609605  1
  P  P36  1  0.45390395  0.84519686  0.17212137  1
  P  P37  1  0.54609605  0.34519686  0.32787863  1
  P  P38  1  0.04609605  0.15480314  0.67212137  1
  P  P39  1  0.95390395  0.65480314  0.82787863  1
  P  P40  1  0.17212137  0.45390395  0.84519686  1
  P  P41  1  0.32787863  0.54609605  0.34519686  1
  P  P42  1  0.67212137  0.04609605  0.15480314  1
  P  P43  1  0.82787863  0.95390395  0.65480314  1
  P  P44  1  0.84519686  0.17212137  0.45390395  1
  P  P45  1  0.34519686  0.32787863  0.54609605  1
  P  P46  1  0.15480314  0.67212137  0.04609605  1
  P  P47  1  0.65480314  0.82787863  0.95390395  1
  O  O0  1  0.81472296  0.09438912  0.51154453  1
  O  O1  1  0.18527704  0.59438912  0.98845547  1
  O  O2  1  0.68527704  0.90561088  0.01154453  1
  O  O3  1  0.31472296  0.40561088  0.48845547  1
  O  O4  1  0.51154453  0.81472296  0.09438912  1
  O  O5  1  0.98845547  0.18527704  0.59438912  1
  O  O6  1  0.01154453  0.68527704  0.90561088  1
  O  O7  1  0.48845547  0.31472296  0.40561088  1
  O  O8  1  0.09438912  0.51154453  0.81472296  1
  O  O9  1  0.59438912  0.98845547  0.18527704  1
  O  O10  1  0.90561088  0.01154453  0.68527704  1
  O  O11  1  0.40561088  0.48845547  0.31472296  1
  O  O12  1  0.18527704  0.90561088  0.48845547  1
  O  O13  1  0.81472296  0.40561088  0.01154453  1
  O  O14  1  0.31472296  0.09438912  0.98845547  1
  O  O15  1  0.68527704  0.59438912  0.51154453  1
  O  O16  1  0.48845547  0.18527704  0.90561088  1
  O  O17  1  0.01154453  0.81472296  0.40561088  1
  O  O18  1  0.98845547  0.31472296  0.09438912  1
  O  O19  1  0.51154453  0.68527704  0.59438912  1
  O  O20  1  0.90561088  0.48845547  0.18527704  1
  O  O21  1  0.40561088  0.01154453  0.81472296  1
  O  O22  1  0.09438912  0.98845547  0.31472296  1
  O  O23  1  0.59438912  0.51154453  0.68527704  1
  O  O24  1  0.75602451  0.02352310  0.63844177  1
  O  O25  1  0.24397549  0.52352310  0.86155823  1
  O  O26  1  0.74397549  0.97647690  0.13844177  1
  O  O27  1  0.25602451  0.47647690  0.36155823  1
  O  O28  1  0.63844177  0.75602451  0.02352310  1
  O  O29  1  0.86155823  0.24397549  0.52352310  1
  O  O30  1  0.13844177  0.74397549  0.97647690  1
  O  O31  1  0.36155823  0.25602451  0.47647690  1
  O  O32  1  0.02352310  0.63844177  0.75602451  1
  O  O33  1  0.52352310  0.86155823  0.24397549  1
  O  O34  1  0.97647690  0.13844177  0.74397549  1
  O  O35  1  0.47647690  0.36155823  0.25602451  1
  O  O36  1  0.24397549  0.97647690  0.36155823  1
  O  O37  1  0.75602451  0.47647690  0.13844177  1
  O  O38  1  0.25602451  0.02352310  0.86155823  1
  O  O39  1  0.74397549  0.52352310  0.63844177  1
  O  O40  1  0.36155823  0.24397549  0.97647690  1
  O  O41  1  0.13844177  0.75602451  0.47647690  1
  O  O42  1  0.86155823  0.25602451  0.02352310  1
  O  O43  1  0.63844177  0.74397549  0.52352310  1
  O  O44  1  0.97647690  0.36155823  0.24397549  1
  O  O45  1  0.47647690  0.13844177  0.75602451  1
  O  O46  1  0.02352310  0.86155823  0.25602451  1
  O  O47  1  0.52352310  0.63844177  0.74397549  1
  O  O48  1  0.67325201  0.02430553  0.50348860  1
  O  O49  1  0.32674799  0.52430553  0.99651140  1
  O  O50  1  0.82674799  0.97569447  0.00348860  1
  O  O51  1  0.17325201  0.47569447  0.49651140  1
  O  O52  1  0.50348860  0.67325201  0.02430553  1
  O  O53  1  0.99651140  0.32674799  0.52430553  1
  O  O54  1  0.00348860  0.82674799  0.97569447  1
  O  O55  1  0.49651140  0.17325201  0.47569447  1
  O  O56  1  0.02430553  0.50348860  0.67325201  1
  O  O57  1  0.52430553  0.99651140  0.32674799  1
  O  O58  1  0.97569447  0.00348860  0.82674799  1
  O  O59  1  0.47569447  0.49651140  0.17325201  1
  O  O60  1  0.32674799  0.97569447  0.49651140  1
  O  O61  1  0.67325201  0.47569447  0.00348860  1
  O  O62  1  0.17325201  0.02430553  0.99651140  1
  O  O63  1  0.82674799  0.52430553  0.50348860  1
  O  O64  1  0.49651140  0.32674799  0.97569447  1
  O  O65  1  0.00348860  0.67325201  0.47569447  1
  O  O66  1  0.99651140  0.17325201  0.02430553  1
  O  O67  1  0.50348860  0.82674799  0.52430553  1
  O  O68  1  0.97569447  0.49651140  0.32674799  1
  O  O69  1  0.47569447  0.00348860  0.67325201  1
  O  O70  1  0.02430553  0.99651140  0.17325201  1
  O  O71  1  0.52430553  0.50348860  0.82674799  1
  O  O72  1  0.69155850  0.15812752  0.59247217  1
  O  O73  1  0.30844150  0.65812752  0.90752783  1
  O  O74  1  0.80844150  0.84187248  0.09247217  1
  O  O75  1  0.19155850  0.34187248  0.40752783  1
  O  O76  1  0.59247217  0.69155850  0.15812752  1
  O  O77  1  0.90752783  0.30844150  0.65812752  1
  O  O78  1  0.09247217  0.80844150  0.84187248  1
  O  O79  1  0.40752783  0.19155850  0.34187248  1
  O  O80  1  0.15812752  0.59247217  0.69155850  1
  O  O81  1  0.65812752  0.90752783  0.30844150  1
  O  O82  1  0.84187248  0.09247217  0.80844150  1
  O  O83  1  0.34187248  0.40752783  0.19155850  1
  O  O84  1  0.30844150  0.84187248  0.40752783  1
  O  O85  1  0.69155850  0.34187248  0.09247217  1
  O  O86  1  0.19155850  0.15812752  0.90752783  1
  O  O87  1  0.80844150  0.65812752  0.59247217  1
  O  O88  1  0.40752783  0.30844150  0.84187248  1
  O  O89  1  0.09247217  0.69155850  0.34187248  1
  O  O90  1  0.90752783  0.19155850  0.15812752  1
  O  O91  1  0.59247217  0.80844150  0.65812752  1
  O  O92  1  0.84187248  0.40752783  0.30844150  1
  O  O93  1  0.34187248  0.09247217  0.69155850  1
  O  O94  1  0.15812752  0.90752783  0.19155850  1
  O  O95  1  0.65812752  0.59247217  0.80844150  1
  O  O96  1  0.58670467  0.07556234  0.85552413  1
  O  O97  1  0.41329533  0.57556234  0.64447587  1
  O  O98  1  0.91329533  0.92443766  0.35552413  1
  O  O99  1  0.08670467  0.42443766  0.14447587  1
  O  O100  1  0.85552413  0.58670467  0.07556234  1
  O  O101  1  0.64447587  0.41329533  0.57556234  1
  O  O102  1  0.35552413  0.91329533  0.92443766  1
  O  O103  1  0.14447587  0.08670467  0.42443766  1
  O  O104  1  0.07556234  0.85552413  0.58670467  1
  O  O105  1  0.57556234  0.64447587  0.41329533  1
  O  O106  1  0.92443766  0.35552413  0.91329533  1
  O  O107  1  0.42443766  0.14447587  0.08670467  1
  O  O108  1  0.41329533  0.92443766  0.14447587  1
  O  O109  1  0.58670467  0.42443766  0.35552413  1
  O  O110  1  0.08670467  0.07556234  0.64447587  1
  O  O111  1  0.91329533  0.57556234  0.85552413  1
  O  O112  1  0.14447587  0.41329533  0.92443766  1
  O  O113  1  0.35552413  0.58670467  0.42443766  1
  O  O114  1  0.64447587  0.08670467  0.07556234  1
  O  O115  1  0.85552413  0.91329533  0.57556234  1
  O  O116  1  0.92443766  0.14447587  0.41329533  1
  O  O117  1  0.42443766  0.35552413  0.58670467  1
  O  O118  1  0.07556234  0.64447587  0.08670467  1
  O  O119  1  0.57556234  0.85552413  0.91329533  1
  O  O120  1  0.59927129  0.22470072  0.79597951  1
  O  O121  1  0.40072871  0.72470072  0.70402049  1
  O  O122  1  0.90072871  0.77529928  0.29597951  1
  O  O123  1  0.09927129  0.27529928  0.20402049  1
  O  O124  1  0.79597951  0.59927129  0.22470072  1
  O  O125  1  0.70402049  0.40072871  0.72470072  1
  O  O126  1  0.29597951  0.90072871  0.77529928  1
  O  O127  1  0.20402049  0.09927129  0.27529928  1
  O  O128  1  0.22470072  0.79597951  0.59927129  1
  O  O129  1  0.72470072  0.70402049  0.40072871  1
  O  O130  1  0.77529928  0.29597951  0.90072871  1
  O  O131  1  0.27529928  0.20402049  0.09927129  1
  O  O132  1  0.40072871  0.77529928  0.20402049  1
  O  O133  1  0.59927129  0.27529928  0.29597951  1
  O  O134  1  0.09927129  0.22470072  0.70402049  1
  O  O135  1  0.90072871  0.72470072  0.79597951  1
  O  O136  1  0.20402049  0.40072871  0.77529928  1
  O  O137  1  0.29597951  0.59927129  0.27529928  1
  O  O138  1  0.70402049  0.09927129  0.22470072  1
  O  O139  1  0.79597951  0.90072871  0.72470072  1
  O  O140  1  0.77529928  0.20402049  0.40072871  1
  O  O141  1  0.27529928  0.29597951  0.59927129  1
  O  O142  1  0.22470072  0.70402049  0.09927129  1
  O  O143  1  0.72470072  0.79597951  0.90072871  1
loop_
_geom_bond_atom_site_label_1
_geom_bond_atom_site_label_2
_geom_bond_distance
_geom_bond_site_symmetry_2
K0 O111 2.969507 1_454
K0 O106 2.969507 1_454
K0 O100 2.969507 1_455
K0 O112 2.969507 1_554
K0 O99 2.969507 1_555
K0 O118 2.969507 1_555
K1 O98 2.969507 1_445
K1 O115 2.969507 1_445
K1 O104 2.969507 1_545
K1 O116 2.969507 1_455
K1 O103 2.969507 1_555
K1 O110 2.969507 1_555
K2 O117 2.969507 1_555
K2 O113 2.969507 1_555
K2 O109 2.969507 1_555
K2 O105 2.969507 1_555
K2 O97 2.969507 1_555
K2 O101 2.969507 1_555
K3 O102 2.969507 1_544
K3 O119 2.969507 1_544
K3 O108 2.969507 1_545
K3 O96 2.969507 1_554
K3 O107 2.969507 1_555
K3 O114 2.969507 1_555
K4 O54 2.813843 1_544
K4 O50 2.813843 1_445
K4 O58 2.813843 1_454
K4 O70 2.813843 1_545
K4 O62 2.813843 1_554
K4 O66 2.813843 1_455
K5 O51 2.813843 1_555
K5 O68 2.813843 1_455
K5 O56 2.813843 1_555
K5 O65 2.813843 1_555
K5 O63 2.813843 1_455
K5 O53 2.813843 1_455
K6 O69 2.813843 1_555
K6 O60 2.813843 1_545
K6 O48 2.813843 1_555
K6 O55 2.813843 1_555
K6 O57 2.813843 1_545
K6 O67 2.813843 1_545
K7 O61 2.813843 1_555
K7 O71 2.813843 1_554
K7 O52 2.813843 1_555
K7 O59 2.813843 1_555
K7 O64 2.813843 1_554
K7 O49 2.813843 1_554
K8 O82 2.826500 1_555
K8 O77 2.826500 1_555
K8 O72 2.826500 1_555
K8 O125 2.894918 1_555
K8 O130 2.894918 1_555
K8 O120 2.894918 1_555
K9 O78 2.826500 1_555
K9 O73 2.826500 1_555
K9 O80 2.826500 1_555
K9 O126 2.894918 1_555
K9 O121 2.894918 1_555
K9 O128 2.894918 1_555
K10 O74 2.826500 1_555
K10 O81 2.826500 1_555
K10 O76 2.826500 1_555
K10 O129 2.894918 1_555
K10 O124 2.894918 1_555
K10 O122 2.894918 1_555
K11 O83 2.826500 1_555
K11 O75 2.826500 1_555
K11 O79 2.826500 1_555
K11 O131 2.894918 1_555
K11 O123 2.894918 1_555
K11 O127 2.894918 1_555
K12 O84 2.826500 1_555
K12 O94 2.826500 1_555
K12 O89 2.826500 1_555
K12 O137 2.894918 1_555
K12 O132 2.894918 1_555
K12 O142 2.894918 1_555
K13 O92 2.826500 1_555
K13 O90 2.826500 1_555
K13 O85 2.826500 1_555
K13 O140 2.894918 1_555
K13 O133 2.894918 1_555
K13 O138 2.894918 1_555
K14 O88 2.826500 1_555
K14 O86 2.826500 1_555
K14 O93 2.826500 1_555
K14 O136 2.894918 1_555
K14 O141 2.894918 1_555
K14 O134 2.894918 1_555
K15 O95 2.826500 1_555
K15 O87 2.826500 1_555
K15 O91 2.826500 1_555
K15 O143 2.894918 1_555
K15 O139 2.894918 1_555
K15 O135 2.894918 1_555
K16 O72 2.692396 1_555
K16 O117 2.738312 1_555
K16 O55 2.855505 1_555
K16 O120 2.947614 1_555
K16 O101 2.969105 1_555
K16 O45 3.178125 1_555
K17 O73 2.692396 1_555
K17 O119 2.738312 1_555
K17 O52 2.855505 1_556
K17 O121 2.947614 1_555
K17 O102 2.969105 1_555
K17 O47 3.178125 1_555
K18 O74 2.692396 1_555
K18 O118 2.738312 1_655
K18 O54 2.855505 1_654
K18 O122 2.947614 1_555
K18 O100 2.969105 1_555
K18 O46 3.178125 1_655
K19 O75 2.692396 1_555
K19 O116 2.738312 1_455
K19 O53 2.855505 1_455
K19 O123 2.947614 1_555
K19 O103 2.969105 1_555
K19 O44 3.178125 1_455
K20 O76 2.692396 1_555
K20 O109 2.738312 1_555
K20 O59 2.855505 1_555
K20 O124 2.947614 1_555
K20 O105 2.969105 1_555
K20 O37 3.178125 1_555
K21 O77 2.692396 1_555
K21 O111 2.738312 1_555
K21 O56 2.855505 1_655
K21 O125 2.947614 1_555
K21 O106 2.969105 1_555
K21 O39 3.178125 1_555
K22 O78 2.692396 1_555
K22 O110 2.738312 1_565
K22 O58 2.855505 1_465
K22 O126 2.947614 1_555
K22 O104 2.969105 1_555
K22 O38 3.178125 1_565
K23 O79 2.692396 1_555
K23 O108 2.738312 1_545
K23 O57 2.855505 1_545
K23 O127 2.947614 1_555
K23 O107 2.969105 1_555
K23 O36 3.178125 1_545
K24 O80 2.692396 1_555
K24 O113 2.738312 1_555
K24 O51 2.855505 1_555
K24 O128 2.947614 1_555
K24 O97 2.969105 1_555
K24 O41 3.178125 1_555
K25 O81 2.692396 1_555
K25 O115 2.738312 1_555
K25 O48 2.855505 1_565
K25 O129 2.947614 1_555
K25 O98 2.969105 1_555
K25 O43 3.178125 1_555
K26 O82 2.692396 1_555
K26 O114 2.738312 1_556
K26 O50 2.855505 1_546
K26 O130 2.947614 1_555
K26 O96 2.969105 1_555
K26 O42 3.178125 1_556
K27 O83 2.692396 1_555
K27 O112 2.738312 1_554
K27 O49 2.855505 1_554
K27 O131 2.947614 1_555
K27 O99 2.969105 1_555
K27 O40 3.178125 1_554
K28 O84 2.692396 1_555
K28 O105 2.738312 1_555
K28 O67 2.855505 1_555
K28 O132 2.947614 1_555
K28 O113 2.969105 1_555
K28 O33 3.178125 1_555
K29 O85 2.692396 1_555
K29 O107 2.738312 1_555
K29 O64 2.855505 1_554
K29 O133 2.947614 1_555
K29 O114 2.969105 1_555
K29 O35 3.178125 1_555
K30 O86 2.692396 1_555
K30 O106 2.738312 1_455
K30 O66 2.855505 1_456
K30 O134 2.947614 1_555
K30 O112 2.969105 1_555
K30 O34 3.178125 1_455
K31 O87 2.692396 1_555
K31 O104 2.738312 1_655
K31 O65 2.855505 1_655
K31 O135 2.947614 1_555
K31 O115 2.969105 1_555
K31 O32 3.178125 1_655
K32 O88 2.692396 1_555
K32 O97 2.738312 1_555
K32 O71 2.855505 1_555
K32 O136 2.947614 1_555
K32 O117 2.969105 1_555
K32 O25 3.178125 1_555
K33 O89 2.692396 1_555
K33 O99 2.738312 1_555
K33 O68 2.855505 1_455
K33 O137 2.947614 1_555
K33 O118 2.969105 1_555
K33 O27 3.178125 1_555
K34 O90 2.692396 1_555
K34 O98 2.738312 1_545
K34 O70 2.855505 1_645
K34 O138 2.947614 1_555
K34 O116 2.969105 1_555
K34 O26 3.178125 1_545
K35 O91 2.692396 1_555
K35 O96 2.738312 1_565
K35 O69 2.855505 1_565
K35 O139 2.947614 1_555
K35 O119 2.969105 1_555
K35 O24 3.178125 1_565
K36 O92 2.692396 1_555
K36 O101 2.738312 1_555
K36 O63 2.855505 1_555
K36 O140 2.947614 1_555
K36 O109 2.969105 1_555
K36 O29 3.178125 1_555
K37 O93 2.692396 1_555
K37 O103 2.738312 1_555
K37 O60 2.855505 1_545
K37 O141 2.947614 1_555
K37 O110 2.969105 1_555
K37 O31 3.178125 1_555
K38 O94 2.692396 1_555
K38 O102 2.738312 1_554
K38 O62 2.855505 1_564
K38 O142 2.947614 1_555
K38 O108 2.969105 1_555
K38 O30 3.178125 1_554
K39 O95 2.692396 1_555
K39 O100 2.738312 1_556
K39 O61 2.855505 1_556
K39 O143 2.947614 1_555
K39 O111 2.969105 1_555
K39 O28 3.178125 1_556
K40 O137 2.699404 1_555
K40 O142 2.699404 1_555
K40 O132 2.699404 1_555
K40 O52 2.794954 1_555
K40 O59 2.794954 1_555
K40 O49 2.794954 1_554
K41 O133 2.699404 1_555
K41 O138 2.699404 1_555
K41 O140 2.699404 1_555
K41 O48 2.794954 1_555
K41 O55 2.794954 1_555
K41 O57 2.794954 1_545
K42 O141 2.699404 1_555
K42 O136 2.699404 1_555
K42 O134 2.699404 1_555
K42 O56 2.794954 1_555
K42 O51 2.794954 1_555
K42 O53 2.794954 1_455
K43 O135 2.699404 1_555
K43 O139 2.699404 1_555
K43 O143 2.699404 1_555
K43 O54 2.794954 1_655
K43 O50 2.794954 1_556
K43 O58 2.794954 1_565
K44 O120 2.699404 1_555
K44 O125 2.699404 1_555
K44 O130 2.699404 1_555
K44 O61 2.794954 1_556
K44 O71 2.794954 1_555
K44 O64 2.794954 1_555
K45 O128 2.699404 1_555
K45 O126 2.699404 1_555
K45 O121 2.699404 1_555
K45 O69 2.794954 1_565
K45 O67 2.794954 1_555
K45 O60 2.794954 1_555
K46 O124 2.699404 1_555
K46 O122 2.699404 1_555
K46 O129 2.699404 1_555
K46 O65 2.794954 1_655
K46 O63 2.794954 1_555
K46 O68 2.794954 1_555
K47 O131 2.699404 1_555
K47 O123 2.699404 1_555
K47 O127 2.699404 1_555
K47 O62 2.794954 1_554
K47 O70 2.794954 1_545
K47 O66 2.794954 1_455
O0 P44 1.631483 1_555
O0 P0 1.642269 1_555
O1 P46 1.631483 1_556
O1 P1 1.642269 1_555
O2 P47 1.631483 1_554
O2 P2 1.642269 1_555
O3 P45 1.631483 1_555
O3 P3 1.642269 1_555
O4 P36 1.631483 1_555
O4 P4 1.642269 1_555
O5 P38 1.631483 1_655
O5 P5 1.642269 1_555
O6 P39 1.631483 1_455
O6 P6 1.642269 1_555
O7 P37 1.631483 1_555
O7 P7 1.642269 1_555
O8 P40 1.631483 1_555
O8 P8 1.642269 1_555
O9 P42 1.631483 1_565
O9 P9 1.642269 1_555
O10 P43 1.631483 1_545
O10 P10 1.642269 1_555
O11 P41 1.631483 1_555
O11 P11 1.642269 1_555
O12 P32 1.631483 1_555
O12 P12 1.642269 1_555
O13 P34 1.631483 1_554
O13 P13 1.642269 1_555
O14 P35 1.631483 1_556
O14 P14 1.642269 1_555
O15 P33 1.631483 1_555
O15 P15 1.642269 1_555
O16 P24 1.631483 1_555
O16 P16 1.642269 1_555
O17 P26 1.631483 1_455
O17 P17 1.642269 1_555
O18 P27 1.631483 1_655
O18 P18 1.642269 1_555
O19 P25 1.631483 1_555
O19 P19 1.642269 1_555
O20 P28 1.631483 1_555
O20 P20 1.642269 1_555
O21 P30 1.631483 1_545
O21 P21 1.642269 1_555
O22 P31 1.631483 1_565
O22 P22 1.642269 1_555
O23 P29 1.631483 1_555
O23 P23 1.642269 1_555
O24 P0 1.629597 1_555
O24 P43 1.630225 1_545
O25 P1 1.629597 1_555
O25 P40 1.630225 1_555
O26 P2 1.629597 1_555
O26 P42 1.630225 1_565
O27 P3 1.629597 1_555
O27 P41 1.630225 1_555
O28 P4 1.629597 1_555
O28 P47 1.630225 1_554
O29 P5 1.629597 1_555
O29 P44 1.630225 1_555
O30 P6 1.629597 1_555
O30 P46 1.630225 1_556
O31 P7 1.629597 1_555
O31 P45 1.630225 1_555
O32 P8 1.629597 1_555
O32 P39 1.630225 1_455
O33 P9 1.629597 1_555
O33 P36 1.630225 1_555
O34 P10 1.629597 1_555
O34 P38 1.630225 1_655
O35 P11 1.629597 1_555
O35 P37 1.630225 1_555
O36 P12 1.629597 1_555
O36 P31 1.630225 1_565
O37 P13 1.629597 1_555
O37 P28 1.630225 1_555
O38 P14 1.629597 1_555
O38 P30 1.630225 1_545
O39 P15 1.629597 1_555
O39 P29 1.630225 1_555
O40 P16 1.629597 1_555
O40 P35 1.630225 1_556
O41 P17 1.629597 1_555
O41 P32 1.630225 1_555
O42 P18 1.629597 1_555
O42 P34 1.630225 1_554
O43 P19 1.629597 1_555
O43 P33 1.630225 1_555
O44 P20 1.629597 1_555
O44 P27 1.630225 1_655
O45 P21 1.629597 1_555
O45 P24 1.630225 1_555
O46 P22 1.629597 1_555
O46 P26 1.630225 1_455
O47 P23 1.629597 1_555
O47 P25 1.630225 1_555
O48 P0 1.500213 1_555
O49 P1 1.500213 1_555
O50 P2 1.500213 1_555
O51 P3 1.500213 1_555
O52 P4 1.500213 1_555
O53 P5 1.500213 1_555
O54 P6 1.500213 1_555
O55 P7 1.500213 1_555
O56 P8 1.500213 1_555
O57 P9 1.500213 1_555
O58 P10 1.500213 1_555
O59 P11 1.500213 1_555
O60 P12 1.500213 1_555
O61 P13 1.500213 1_555
O62 P14 1.500213 1_555
O63 P15 1.500213 1_555
O64 P16 1.500213 1_555
O65 P17 1.500213 1_555
O66 P18 1.500213 1_555
O67 P19 1.500213 1_555
O68 P20 1.500213 1_555
O69 P21 1.500213 1_555
O70 P22 1.500213 1_555
O71 P23 1.500213 1_555
O72 P0 1.498135 1_555
O73 P1 1.498135 1_555
O74 P2 1.498135 1_555
O75 P3 1.498135 1_555
O76 P4 1.498135 1_555
O77 P5 1.498135 1_555
O78 P6 1.498135 1_555
O79 P7 1.498135 1_555
O80 P8 1.498135 1_555
O81 P9 1.498135 1_555
O82 P10 1.498135 1_555
O83 P11 1.498135 1_555
O84 P12 1.498135 1_555
O85 P13 1.498135 1_555
O86 P14 1.498135 1_555
O87 P15 1.498135 1_555
O88 P16 1.498135 1_555
O89 P17 1.498135 1_555
O90 P18 1.498135 1_555
O91 P19 1.498135 1_555
O92 P20 1.498135 1_555
O93 P21 1.498135 1_555
O94 P22 1.498135 1_555
O95 P23 1.498135 1_555
O96 P24 1.499249 1_555
O97 P25 1.499249 1_555
O98 P26 1.499249 1_555
O99 P27 1.499249 1_555
O100 P28 1.499249 1_555
O101 P29 1.499249 1_555
O102 P30 1.499249 1_555
O103 P31 1.499249 1_555
O104 P32 1.499249 1_555
O105 P33 1.499249 1_555
O106 P34 1.499249 1_555
O107 P35 1.499249 1_555
O108 P36 1.499249 1_555
O109 P37 1.499249 1_555
O110 P38 1.499249 1_555
O111 P39 1.499249 1_555
O112 P40 1.499249 1_555
O113 P41 1.499249 1_555
O114 P42 1.499249 1_555
O115 P43 1.499249 1_555
O116 P44 1.499249 1_555
O117 P45 1.499249 1_555
O118 P46 1.499249 1_555
O119 P47 1.499249 1_555
O120 P24 1.502557 1_555
O121 P25 1.502557 1_555
O122 P26 1.502557 1_555
O123 P27 1.502557 1_555
O124 P28 1.502557 1_555
O125 P29 1.502557 1_555
O126 P30 1.502557 1_555
O127 P31 1.502557 1_555
O128 P32 1.502557 1_555
O129 P33 1.502557 1_555
O130 P34 1.502557 1_555
O131 P35 1.502557 1_555
O132 P36 1.502557 1_555
O133 P37 1.502557 1_555
O134 P38 1.502557 1_555
O135 P39 1.502557 1_555
O136 P40 1.502557 1_555
O137 P41 1.502557 1_555
O138 P42 1.502557 1_555
O139 P43 1.502557 1_555
O140 P44 1.502557 1_555
O141 P45 1.502557 1_555
O142 P46 1.502557 1_555
O143 P47 1.502557 1_555
