# generated using pymatgen
data_NbN3O8
_symmetry_space_group_name_H-M   'P 1'
_cell_length_a   6.37611876
_cell_length_b   6.37611876
_cell_length_c   6.37611876
_cell_angle_alpha   114.20440510
_cell_angle_beta   114.20440510
_cell_angle_gamma   100.37055668
_symmetry_Int_Tables_number   1
_chemical_formula_structural   NbN3O8
_chemical_formula_sum   'Nb1 N3 O8'
_cell_volume   195.85945456
_cell_formula_units_Z   1
loop_
 _symmetry_equiv_pos_site_id
 _symmetry_equiv_pos_as_xyz
  1  'x, y, z'
loop_
 _atom_site_type_symbol
 _atom_site_label
 _atom_site_symmetry_multiplicity
 _atom_site_fract_x
 _atom_site_fract_y
 _atom_site_fract_z
 _atom_site_occupancy
  Nb  Nb0  1  0.00000000  0.00000000  0.00000000  1
  N  N0  1  0.75000000  0.25000000  0.50000000  1
  N  N1  1  0.25000000  0.75000000  0.50000000  1
  N  N2  1  0.50000000  0.50000000  0.00000000  1
  O  O0  1  0.22122400  0.22122400  0.42253000  1
  O  O1  1  0.79869500  0.79869500  0.57747000  1
  O  O2  1  0.77877600  0.20130500  0.00000000  1
  O  O3  1  0.20130500  0.77877600  0.00000000  1
  O  O4  1  0.32796600  0.32796600  0.32105600  1
  O  O5  1  0.00691000  0.00691000  0.67894400  1
  O  O6  1  0.67203400  0.99309000  0.00000000  1
  O  O7  1  0.99309000  0.67203400  0.00000000  1
loop_
_geom_bond_atom_site_label_1
_geom_bond_atom_site_label_2
_geom_bond_distance
_geom_bond_site_symmetry_2
Nb0 O3 2.070983 1_545
Nb0 O2 2.070983 1_455
Nb0 O0 2.070988 1_555
Nb0 O1 2.070988 1_444
Nb0 O6 2.083670 1_445
Nb0 O5 2.083670 1_554
Nb0 O4 2.083670 1_555
Nb0 O7 2.083670 1_445
O0 O4 1.378569 1_555
O1 O5 1.378562 1_665
O2 O6 1.378564 1_545
O3 O7 1.378564 1_455
