# generated using pymatgen
data_H10C2N12O5
_symmetry_space_group_name_H-M   'P 1'
_cell_length_a   6.88778743
_cell_length_b   6.88778743
_cell_length_c   13.68297919
_cell_angle_alpha   79.62793583
_cell_angle_beta   79.62793583
_cell_angle_gamma   73.08856623
_symmetry_Int_Tables_number   1
_chemical_formula_structural   H10C2N12O5
_chemical_formula_sum   'H20 C4 N24 O10'
_cell_volume   605.27490496
_cell_formula_units_Z   2
loop_
 _symmetry_equiv_pos_site_id
 _symmetry_equiv_pos_as_xyz
  1  'x, y, z'
loop_
 _atom_site_type_symbol
 _atom_site_label
 _atom_site_symmetry_multiplicity
 _atom_site_fract_x
 _atom_site_fract_y
 _atom_site_fract_z
 _atom_site_occupancy
  H  H0  1  0.53329600  0.87763900  0.27683700  1
  H  H1  1  0.46670400  0.12236100  0.72316300  1
  H  H2  1  0.12236100  0.46670400  0.22316300  1
  H  H3  1  0.87763900  0.53329600  0.77683700  1
  H  H4  1  0.71319900  0.98464300  0.29606600  1
  H  H5  1  0.28680100  0.01535700  0.70393400  1
  H  H6  1  0.01535700  0.28680000  0.20393400  1
  H  H7  1  0.98464300  0.71320000  0.79606600  1
  H  H8  1  0.46840900  0.06648400  0.35292700  1
  H  H9  1  0.53159100  0.93351600  0.64707300  1
  H  H10  1  0.93351600  0.53159100  0.14707300  1
  H  H11  1  0.06648400  0.46840900  0.85292700  1
  H  H12  1  0.08241000  0.93902900  0.19242100  1
  H  H13  1  0.91759000  0.06097100  0.80757900  1
  H  H14  1  0.06097100  0.91759000  0.30757900  1
  H  H15  1  0.93902900  0.08241000  0.69242100  1
  H  H16  1  0.61802700  0.83066100  0.39149400  1
  H  H17  1  0.38197300  0.16933900  0.60850600  1
  H  H18  1  0.16933900  0.38197300  0.10850600  1
  H  H19  1  0.83066100  0.61802700  0.89149400  1
  C  C0  1  0.42936600  0.75957300  0.02226800  1
  C  C1  1  0.57063400  0.24042700  0.97773200  1
  C  C2  1  0.24042700  0.57063400  0.47773200  1
  C  C3  1  0.75957300  0.42936600  0.52226800  1
  N  N0  1  0.34566900  0.81209300  0.11307300  1
  N  N1  1  0.65433100  0.18790700  0.88692700  1
  N  N2  1  0.18790700  0.65433100  0.38692700  1
  N  N3  1  0.81209300  0.34566900  0.61307300  1
  N  N4  1  0.50679900  0.78035400  0.16073500  1
  N  N5  1  0.49320100  0.21964600  0.83926500  1
  N  N6  1  0.21964600  0.49320100  0.33926500  1
  N  N7  1  0.78035400  0.50679900  0.66073500  1
  N  N8  1  0.58190300  0.93988200  0.32946900  1
  N  N9  1  0.41809700  0.06011800  0.67053100  1
  N  N10  1  0.06011800  0.41809700  0.17053100  1
  N  N11  1  0.93988200  0.58190300  0.82946900  1
  N  N12  1  0.63457600  0.69642300  0.01155400  1
  N  N13  1  0.36542400  0.30357700  0.98844600  1
  N  N14  1  0.30357700  0.36542400  0.48844600  1
  N  N15  1  0.69642300  0.63457600  0.51155400  1
  N  N16  1  0.68715000  0.23504100  0.05660300  1
  N  N17  1  0.31285000  0.76495900  0.94339700  1
  N  N18  1  0.76495900  0.31285000  0.44339700  1
  N  N19  1  0.23504100  0.68715000  0.55660300  1
  N  N20  1  0.67984700  0.70960400  0.10044000  1
  N  N21  1  0.32015300  0.29039600  0.89956000  1
  N  N22  1  0.29039600  0.32015300  0.39956000  1
  N  N23  1  0.70960400  0.67984700  0.60044000  1
  O  O0  1  0.99620200  0.00379800  0.25000000  1
  O  O1  1  0.00379800  0.99620200  0.75000000  1
  O  O2  1  0.78322600  0.12631800  0.46630700  1
  O  O3  1  0.21677400  0.87368200  0.53369300  1
  O  O4  1  0.87368200  0.21677400  0.03369300  1
  O  O5  1  0.12631800  0.78322600  0.96630700  1
  O  O6  1  0.59020700  0.25310100  0.14170900  1
  O  O7  1  0.40979300  0.74689900  0.85829100  1
  O  O8  1  0.74689900  0.40979300  0.35829100  1
  O  O9  1  0.25310100  0.59020700  0.64170900  1
loop_
_geom_bond_atom_site_label_1
_geom_bond_atom_site_label_2
_geom_bond_distance
_geom_bond_site_symmetry_2
H0 N8 1.046907 1_555
H1 N9 1.046907 1_555
H2 N10 1.046907 1_555
H3 N11 1.046907 1_555
H4 N8 1.041353 1_555
H5 N9 1.041353 1_555
H6 N10 1.041359 1_555
H7 N11 1.041359 1_555
H8 N8 1.043246 1_545
H9 N9 1.043246 1_565
H10 N10 1.043246 1_655
H11 N11 1.043246 1_455
H12 O0 0.988081 1_465
H13 O1 0.988081 1_645
H14 O0 0.988081 1_465
H15 O1 0.988081 1_645
H16 N8 1.041807 1_555
H17 N9 1.041807 1_555
H18 N10 1.041807 1_555
H19 N11 1.041807 1_555
C0 N0 1.337745 1_555
C0 N12 1.341333 1_555
C0 N17 1.445759 1_554
C1 N1 1.337745 1_555
C1 N13 1.341333 1_555
C1 N16 1.445759 1_556
C2 N2 1.337745 1_555
C2 N14 1.341333 1_555
C2 N19 1.445759 1_555
C3 N3 1.337745 1_555
C3 N15 1.341333 1_555
C3 N18 1.445759 1_555
N0 N4 1.331522 1_555
N1 N5 1.331522 1_555
N2 N6 1.331522 1_555
N3 N7 1.331522 1_555
N12 N20 1.333215 1_555
N13 N21 1.333215 1_555
N14 N22 1.333215 1_555
N15 N23 1.333215 1_555
N16 O4 1.240936 1_555
N16 O6 1.241470 1_555
N17 O5 1.240936 1_555
N17 O7 1.241470 1_555
N18 O2 1.240936 1_555
N18 O8 1.241470 1_555
N19 O3 1.240936 1_555
N19 O9 1.241470 1_555
N20 N4 1.338488 1_555
N21 N5 1.338488 1_555
N22 N6 1.338488 1_555
N23 N7 1.338488 1_555
