# generated using pymatgen
data_H4C7
_symmetry_space_group_name_H-M   'P 1'
_cell_length_a   11.45338300
_cell_length_b   8.91431700
_cell_length_c   15.32341416
_cell_angle_alpha   87.47843437
_cell_angle_beta   90.00000000
_cell_angle_gamma   90.00000000
_symmetry_Int_Tables_number   1
_chemical_formula_structural   H4C7
_chemical_formula_sum   'H48 C84'
_cell_volume   1562.99173167
_cell_formula_units_Z   12
loop_
 _symmetry_equiv_pos_site_id
 _symmetry_equiv_pos_as_xyz
  1  'x, y, z'
loop_
 _atom_site_type_symbol
 _atom_site_label
 _atom_site_symmetry_multiplicity
 _atom_site_fract_x
 _atom_site_fract_y
 _atom_site_fract_z
 _atom_site_occupancy
  H  H0  1  0.71301900  0.11818400  0.39266500  1
  H  H1  1  0.21301900  0.88181600  0.60733500  1
  H  H2  1  0.86826800  0.26118000  0.46428200  1
  H  H3  1  0.36826800  0.73882000  0.53571800  1
  H  H4  1  0.07565800  0.17611500  0.45585200  1
  H  H5  1  0.57565800  0.82388500  0.54414800  1
  H  H6  1  0.21627100  0.02127800  0.40580100  1
  H  H7  1  0.71627100  0.97872200  0.59419900  1
  H  H8  1  0.28150600  0.79744800  0.32444000  1
  H  H9  1  0.78150600  0.20255200  0.67556000  1
  H  H10  1  0.13501100  0.64786800  0.24759800  1
  H  H11  1  0.63501100  0.35213200  0.75240200  1
  H  H12  1  0.70059700  0.05077000  0.20392200  1
  H  H13  1  0.20059700  0.94923000  0.79607800  1
  H  H14  1  0.53289600  0.93477100  0.13362500  1
  H  H15  1  0.03289600  0.06522900  0.86637500  1
  H  H16  1  0.40214800  0.71272000  0.11733200  1
  H  H17  1  0.90214800  0.28728000  0.88266800  1
  H  H18  1  0.33339400  0.46252200  0.17122400  1
  H  H19  1  0.83339400  0.53747800  0.82877600  1
  H  H20  1  0.34039100  0.25118200  0.28108600  1
  H  H21  1  0.84039100  0.74881800  0.71891400  1
  H  H22  1  0.42135900  0.13687200  0.41962900  1
  H  H23  1  0.92135900  0.86312800  0.58037100  1
  H  H24  1  0.57311200  0.26996200  0.50208600  1
  H  H25  1  0.07311200  0.73003800  0.49791400  1
  H  H26  1  0.70620300  0.48397200  0.51501700  1
  H  H27  1  0.20620300  0.51602800  0.48498300  1
  H  H28  1  0.79085200  0.72198500  0.45441500  1
  H  H29  1  0.29085200  0.27801500  0.54558500  1
  H  H30  1  0.92028700  0.49810400  0.32435900  1
  H  H31  1  0.42028700  0.50189600  0.67564100  1
  H  H32  1  0.79314200  0.33000000  0.24525300  1
  H  H33  1  0.29314200  0.67000000  0.75474700  1
  H  H34  1  0.65995800  0.28465100  0.11984900  1
  H  H35  1  0.15995800  0.71534900  0.88015100  1
  H  H36  1  0.56719100  0.37338500  0.98177000  1
  H  H37  1  0.06719100  0.62661500  0.01823000  1
  H  H38  1  0.53968500  0.57416000  0.86596300  1
  H  H39  1  0.03968500  0.42584000  0.13403700  1
  H  H40  1  0.59086400  0.82477900  0.80003800  1
  H  H41  1  0.09086400  0.17522100  0.19996200  1
  H  H42  1  0.73576300  0.98686500  0.87309800  1
  H  H43  1  0.23576300  0.01313500  0.12690200  1
  H  H44  1  0.86668100  0.03009700  0.99548000  1
  H  H45  1  0.36668100  0.96990300  0.00452000  1
  H  H46  1  0.95291000  0.94868700  0.13772500  1
  H  H47  1  0.45291000  0.05131300  0.86227500  1
  C  C0  1  0.82682500  0.95190700  0.34162700  1
  C  C1  1  0.32682500  0.04809300  0.65837300  1
  C  C2  1  0.80327500  0.08017800  0.38741600  1
  C  C3  1  0.30327500  0.91982200  0.61258400  1
  C  C4  1  0.89126800  0.16262500  0.42829100  1
  C  C5  1  0.39126800  0.83737500  0.57170900  1
  C  C6  1  0.00535800  0.11700400  0.42357900  1
  C  C7  1  0.50535800  0.88299600  0.57642100  1
  C  C8  1  0.03507100  0.99035200  0.37543000  1
  C  C9  1  0.53507100  0.00964800  0.62457000  1
  C  C10  1  0.15467400  0.95084900  0.37169100  1
  C  C11  1  0.65467400  0.04915100  0.62830900  1
  C  C12  1  0.18951600  0.82851800  0.32705000  1
  C  C13  1  0.68951600  0.17148200  0.67295000  1
  C  C14  1  0.10533300  0.74449600  0.28291800  1
  C  C15  1  0.60533300  0.25550400  0.71708200  1
  C  C16  1  0.98685700  0.78066100  0.28199800  1
  C  C17  1  0.48685700  0.21933900  0.71800200  1
  C  C18  1  0.94678400  0.90495200  0.33166400  1
  C  C19  1  0.44678400  0.09504800  0.66833600  1
  C  C20  1  0.72288000  0.87507000  0.30409400  1
  C  C21  1  0.22288000  0.12493000  0.69590600  1
  C  C22  1  0.66649600  0.94464600  0.23165700  1
  C  C23  1  0.16649600  0.05535400  0.76834300  1
  C  C24  1  0.57140500  0.87917900  0.19165200  1
  C  C25  1  0.07140500  0.12082100  0.80834800  1
  C  C26  1  0.52772100  0.73934000  0.22233900  1
  C  C27  1  0.02772100  0.26066000  0.77766100  1
  C  C28  1  0.57803400  0.67045200  0.29956300  1
  C  C29  1  0.07803400  0.32954800  0.70043700  1
  C  C30  1  0.43761300  0.66121200  0.17768600  1
  C  C31  1  0.93761300  0.33878800  0.82231400  1
  C  C32  1  0.39920200  0.52332500  0.20724700  1
  C  C33  1  0.89920200  0.47667500  0.79275300  1
  C  C34  1  0.44466400  0.45315400  0.28595700  1
  C  C35  1  0.94466400  0.54684600  0.71404300  1
  C  C36  1  0.53365200  0.52950500  0.33246700  1
  C  C37  1  0.03365200  0.47049500  0.66753300  1
  C  C38  1  0.40598400  0.31107800  0.31791900  1
  C  C39  1  0.90598400  0.68892200  0.68208100  1
  C  C40  1  0.45178900  0.24703000  0.39533100  1
  C  C41  1  0.95178900  0.75297000  0.60466900  1
  C  C42  1  0.53726500  0.32114800  0.44177700  1
  C  C43  1  0.03726500  0.67885200  0.55822300  1
  C  C44  1  0.58063300  0.46131500  0.41093600  1
  C  C45  1  0.08063300  0.53868500  0.58906400  1
  C  C46  1  0.67269200  0.53707100  0.45439800  1
  C  C47  1  0.17269200  0.46292900  0.54560200  1
  C  C48  1  0.71890400  0.66869300  0.42081300  1
  C  C49  1  0.21890400  0.33130700  0.57918700  1
  C  C50  1  0.67475300  0.74016700  0.34166800  1
  C  C51  1  0.17475300  0.25983300  0.65833200  1
  C  C52  1  0.90931600  0.68371700  0.22923800  1
  C  C53  1  0.40931600  0.31628300  0.77076200  1
  C  C54  1  0.88466400  0.53705000  0.26126700  1
  C  C55  1  0.38466400  0.46295000  0.73873300  1
  C  C56  1  0.81247800  0.44131300  0.21630700  1
  C  C57  1  0.31247800  0.55868700  0.78369300  1
  C  C58  1  0.76119700  0.48783200  0.13637200  1
  C  C59  1  0.26119700  0.51216800  0.86362800  1
  C  C60  1  0.78868100  0.63412400  0.10014800  1
  C  C61  1  0.28868100  0.36587600  0.89985200  1
  C  C62  1  0.68106700  0.39533400  0.09095300  1
  C  C63  1  0.18106700  0.60466600  0.90904700  1
  C  C64  1  0.62963600  0.44438100  0.01453100  1
  C  C65  1  0.12963600  0.55561900  0.98546900  1
  C  C66  1  0.65580800  0.58996900  0.97604700  1
  C  C67  1  0.15580800  0.41003100  0.02395300  1
  C  C68  1  0.73738300  0.68340700  0.01910000  1
  C  C69  1  0.23738300  0.31659300  0.98090000  1
  C  C70  1  0.60358400  0.64416200  0.89779900  1
  C  C71  1  0.10358400  0.35583800  0.10220100  1
  C  C72  1  0.63226200  0.78552000  0.86097900  1
  C  C73  1  0.13226200  0.21448000  0.13902100  1
  C  C74  1  0.71305000  0.87632100  0.90171400  1
  C  C75  1  0.21305000  0.12367900  0.09828600  1
  C  C76  1  0.76546800  0.82805400  0.98103400  1
  C  C77  1  0.26546800  0.17194600  0.01896600  1
  C  C78  1  0.84577400  0.92030900  0.02598000  1
  C  C79  1  0.34577400  0.07969100  0.97402000  1
  C  C80  1  0.89275100  0.87508300  0.10484500  1
  C  C81  1  0.39275100  0.12491700  0.89515500  1
  C  C82  1  0.86496900  0.73150500  0.14590700  1
  C  C83  1  0.36496900  0.26849500  0.85409300  1
loop_
_geom_bond_atom_site_label_1
_geom_bond_atom_site_label_2
_geom_bond_distance
_geom_bond_site_symmetry_2
C0 C2 1.393960 1_565
C0 C18 1.446317 1_555
C0 C20 1.500646 1_555
C1 C3 1.393960 1_545
C1 C19 1.446317 1_555
C1 C21 1.500646 1_555
C2 H0 1.091908 1_555
C3 H1 1.091908 1_555
C4 H2 1.089971 1_555
C4 C6 1.371384 1_655
C5 H3 1.089971 1_555
C5 C7 1.371384 1_555
C6 H4 1.092453 1_555
C6 C8 1.417091 1_545
C7 H5 1.092453 1_555
C7 C9 1.417091 1_565
C10 H6 1.092684 1_565
C10 C12 1.371859 1_555
C10 C8 1.416183 1_555
C11 H7 1.092684 1_545
C11 C13 1.371859 1_555
C11 C9 1.416183 1_555
C12 H8 1.090574 1_555
C12 C14 1.411570 1_555
C13 H9 1.090574 1_555
C13 C15 1.411570 1_555
C14 H10 1.091534 1_555
C14 C16 1.394650 1_455
C15 H11 1.091534 1_555
C15 C17 1.394650 1_555
C16 C18 1.446253 1_555
C16 C52 1.500215 1_555
C17 C19 1.446253 1_555
C17 C53 1.500215 1_555
C18 C8 1.448010 1_655
C19 C9 1.448010 1_555
C20 C22 1.404707 1_555
C20 C50 1.421474 1_555
C21 C23 1.404707 1_555
C21 C51 1.421474 1_555
C22 H12 1.092131 1_565
C23 H13 1.092131 1_545
C24 H14 1.091774 1_555
C24 C26 1.404921 1_555
C25 H15 1.091774 1_555
C25 C27 1.404921 1_555
C26 C28 1.430216 1_555
C26 C30 1.435365 1_555
C27 C29 1.430216 1_555
C27 C31 1.435365 1_455
C28 C36 1.426719 1_555
C28 C50 1.436976 1_555
C29 C37 1.426719 1_555
C29 C51 1.436976 1_555
C30 H16 1.092596 1_555
C31 H17 1.092596 1_555
C32 H18 1.092203 1_555
C32 C34 1.432031 1_555
C33 H19 1.092203 1_555
C33 C35 1.432031 1_555
C34 C38 1.409115 1_555
C34 C36 1.432706 1_555
C35 C39 1.409115 1_555
C35 C37 1.432706 1_655
C36 C44 1.428471 1_555
C37 C45 1.428471 1_555
C38 H20 1.092955 1_555
C38 C40 1.395966 1_555
C39 H21 1.092955 1_555
C39 C41 1.395966 1_555
C40 H22 1.091888 1_555
C41 H23 1.091888 1_555
C42 H24 1.092564 1_555
C42 C44 1.406889 1_555
C43 H25 1.092564 1_555
C43 C45 1.406889 1_555
C44 C46 1.432093 1_555
C45 C47 1.432093 1_555
C46 H26 1.093396 1_555
C47 H27 1.093396 1_555
C48 H28 1.091504 1_555
C48 C50 1.436831 1_555
C49 H29 1.091504 1_555
C49 C51 1.436831 1_555
C52 C54 1.404823 1_555
C52 C82 1.422009 1_555
C53 C55 1.404823 1_555
C53 C83 1.422009 1_555
C54 H30 1.091851 1_555
C54 C56 1.392219 1_555
C55 H31 1.091851 1_555
C55 C57 1.392219 1_555
C56 H32 1.091639 1_555
C56 C58 1.404480 1_555
C57 H33 1.091639 1_555
C57 C59 1.404480 1_555
C58 C60 1.429742 1_555
C58 C62 1.434242 1_555
C59 C61 1.429742 1_555
C59 C63 1.434242 1_555
C60 C68 1.425689 1_555
C60 C82 1.436050 1_555
C61 C69 1.425689 1_555
C61 C83 1.436050 1_555
C62 H34 1.090676 1_555
C62 C64 1.365448 1_555
C63 H35 1.090676 1_555
C63 C65 1.365448 1_555
C64 H36 1.091801 1_554
C64 C66 1.433386 1_554
C65 H37 1.091801 1_556
C65 C67 1.433386 1_556
C66 C70 1.406360 1_555
C66 C68 1.431886 1_556
C67 C71 1.406360 1_555
C67 C69 1.431886 1_554
C68 C76 1.428341 1_554
C69 C77 1.428341 1_556
C70 H38 1.090775 1_555
C70 C72 1.396974 1_555
C71 H39 1.090775 1_555
C71 C73 1.396974 1_555
C72 H40 1.091130 1_555
C73 H41 1.091130 1_555
C74 H42 1.092241 1_555
C74 C76 1.406014 1_555
C75 H43 1.092241 1_555
C75 C77 1.406014 1_555
C76 C78 1.430557 1_556
C77 C79 1.430557 1_554
C78 H44 1.092404 1_564
C78 C80 1.367328 1_555
C79 H45 1.092404 1_546
C79 C81 1.367328 1_555
C80 H46 1.090044 1_555
C80 C82 1.436815 1_555
C81 H47 1.090044 1_555
C81 C83 1.436815 1_555
