# generated using pymatgen
data_SrEuCrBiO6
_symmetry_space_group_name_H-M   'P 1'
_cell_length_a   8.31232772
_cell_length_b   8.73775139
_cell_length_c   9.23506599
_cell_angle_alpha   90.00000000
_cell_angle_beta   90.00000000
_cell_angle_gamma   90.00000000
_symmetry_Int_Tables_number   1
_chemical_formula_structural   SrEuCrBiO6
_chemical_formula_sum   'Sr4 Eu4 Cr4 Bi4 O24'
_cell_volume   670.75256821
_cell_formula_units_Z   4
loop_
 _symmetry_equiv_pos_site_id
 _symmetry_equiv_pos_as_xyz
  1  'x, y, z'
loop_
 _atom_site_type_symbol
 _atom_site_label
 _atom_site_symmetry_multiplicity
 _atom_site_fract_x
 _atom_site_fract_y
 _atom_site_fract_z
 _atom_site_occupancy
  Sr  Sr0  1  0.50000000  0.00000000  0.50000000  1
  Sr  Sr1  1  0.50000000  0.50000000  0.00000000  1
  Sr  Sr2  1  0.50000000  0.00000000  0.00000000  1
  Sr  Sr3  1  0.00000000  0.00000000  0.50000000  1
  Eu  Eu0  1  0.00000000  0.50000000  0.50000000  1
  Eu  Eu1  1  0.00000000  0.50000000  0.00000000  1
  Eu  Eu2  1  0.00000000  0.00000000  0.00000000  1
  Eu  Eu3  1  0.50000000  0.50000000  0.50000000  1
  Cr  Cr0  1  0.25552566  0.24116873  0.25858095  1
  Cr  Cr1  1  0.74447434  0.75883127  0.25858095  1
  Cr  Cr2  1  0.74447434  0.24116873  0.74141905  1
  Cr  Cr3  1  0.25552566  0.75883127  0.74141905  1
  Bi  Bi0  1  0.75137138  0.75113150  0.74554770  1
  Bi  Bi1  1  0.24862862  0.24886850  0.74554770  1
  Bi  Bi2  1  0.24862862  0.75113150  0.25445230  1
  Bi  Bi3  1  0.75137138  0.24886850  0.25445230  1
  O  O0  1  0.00463673  0.20359230  0.28664998  1
  O  O1  1  -0.00463673  0.79640770  0.28664998  1
  O  O2  1  -0.00463673  0.20359230  0.71335002  1
  O  O3  1  0.00463673  0.79640770  0.71335002  1
  O  O4  1  0.28302608  0.99102189  0.19918141  1
  O  O5  1  0.28302608  0.00897811  0.80081859  1
  O  O6  1  0.71697392  0.00897811  0.19918141  1
  O  O7  1  0.71697392  0.99102189  0.80081859  1
  O  O8  1  0.19418458  0.29297649  0.97975822  1
  O  O9  1  0.80581542  0.29297649  0.02024178  1
  O  O10  1  0.19418458  0.70702351  0.02024178  1
  O  O11  1  0.80581542  0.70702351  0.97975822  1
  O  O12  1  0.49226223  0.30046769  0.21511359  1
  O  O13  1  0.50773777  0.69953231  0.21511359  1
  O  O14  1  0.50773777  0.30046769  0.78488641  1
  O  O15  1  0.49226223  0.69953231  0.78488641  1
  O  O16  1  0.20575858  0.51632414  0.30415053  1
  O  O17  1  0.20575858  0.48367586  0.69584947  1
  O  O18  1  0.79424142  0.48367586  0.30415053  1
  O  O19  1  0.79424142  0.51632414  0.69584947  1
  O  O20  1  0.29635008  0.21881592  0.51294040  1
  O  O21  1  0.70364992  0.21881592  0.48705960  1
  O  O22  1  0.29635008  0.78118408  0.48705960  1
  O  O23  1  0.70364992  0.78118408  0.51294040  1
loop_
_geom_bond_atom_site_label_1
_geom_bond_atom_site_label_2
_geom_bond_distance
_geom_bond_site_symmetry_2
Eu0 O17 2.493375 1_555
Eu0 O16 2.493375 1_555
Eu0 O18 2.493375 1_455
Eu0 O19 2.493375 1_455
Eu1 O10 2.431571 1_555
Eu1 O11 2.431571 1_454
Eu1 O8 2.431571 1_554
Eu1 O9 2.431571 1_455
Eu2 O5 2.987389 1_554
Eu2 O7 2.987389 1_444
Eu2 O6 2.987389 1_455
Eu2 O4 2.987389 1_545
Eu2 O8 3.032115 1_554
Eu2 O9 3.032115 1_455
Eu2 O11 3.032115 1_444
Eu2 O10 3.032115 1_545
Eu2 O3 3.189662 1_544
Eu2 O2 3.189662 1_554
Eu2 O1 3.189662 1_545
Eu2 O0 3.189662 1_555
Eu3 O23 2.986019 1_555
Eu3 O22 2.986019 1_555
Eu3 O20 2.986019 1_555
Eu3 O21 2.986019 1_555
Eu3 O16 3.045286 1_555
Eu3 O19 3.045286 1_555
Eu3 O17 3.045286 1_555
Eu3 O18 3.045286 1_555
Eu3 O14 3.156845 1_555
Eu3 O15 3.156845 1_555
Eu3 O12 3.156845 1_555
Eu3 O13 3.156845 1_555
Cr0 O12 2.074120 1_555
Cr0 O0 2.127014 1_555
Cr0 O4 2.265071 1_545
Cr0 O20 2.381434 1_555
Cr0 O16 2.475602 1_555
Cr0 O8 2.663692 1_554
Cr1 O13 2.074120 1_555
Cr1 O1 2.127014 1_655
Cr1 O6 2.265071 1_565
Cr1 O23 2.381434 1_555
Cr1 O18 2.475602 1_555
Cr1 O11 2.663692 1_554
Cr2 O14 2.074120 1_555
Cr2 O2 2.127014 1_655
Cr2 O7 2.265071 1_545
Cr2 O21 2.381434 1_555
Cr2 O19 2.475602 1_555
Cr2 O9 2.663692 1_556
Cr3 O15 2.074120 1_555
Cr3 O3 2.127014 1_555
Cr3 O5 2.265071 1_565
Cr3 O22 2.381434 1_555
Cr3 O17 2.475602 1_555
Cr3 O10 2.663692 1_556
Bi0 O19 2.132384 1_555
Bi0 O3 2.162613 1_655
Bi0 O7 2.176221 1_555
Bi0 O23 2.200188 1_555
Bi0 O15 2.230272 1_555
Bi0 O11 2.243144 1_555
Bi1 O17 2.132384 1_555
Bi1 O2 2.162613 1_555
Bi1 O5 2.176221 1_555
Bi1 O20 2.200188 1_555
Bi1 O14 2.230272 1_555
Bi1 O8 2.243144 1_555
Bi2 O16 2.132384 1_555
Bi2 O1 2.162613 1_555
Bi2 O4 2.176221 1_555
Bi2 O22 2.200188 1_555
Bi2 O13 2.230272 1_555
Bi2 O10 2.243144 1_555
Bi3 O18 2.132384 1_555
Bi3 O0 2.162613 1_655
Bi3 O6 2.176221 1_555
Bi3 O21 2.200188 1_555
Bi3 O12 2.230272 1_555
Bi3 O9 2.243144 1_555
O0 Sr3 2.654844 1_555
O1 Sr3 2.654844 1_565
O2 Sr3 2.654844 1_555
O3 Sr3 2.654844 1_565
O4 Sr2 2.577318 1_565
O5 Sr2 2.577318 1_556
O6 Sr2 2.577318 1_555
O7 Sr2 2.577318 1_566
O8 Sr1 3.125555 1_556
O9 Sr1 3.125555 1_555
O10 Sr1 3.125555 1_555
O11 Sr1 3.125555 1_556
O12 Sr1 2.643924 1_555
O13 Sr1 2.643924 1_555
O14 Sr1 2.643924 1_556
O15 Sr1 2.643924 1_556
O20 Sr0 2.556454 1_555
O20 Sr3 3.120578 1_555
O21 Sr0 2.556454 1_555
O21 Sr3 3.120578 1_655
O22 Sr0 2.556454 1_565
O22 Sr3 3.120578 1_565
O23 Sr0 2.556454 1_565
O23 Sr3 3.120578 1_665
