# generated using pymatgen
data_TiVO4
_symmetry_space_group_name_H-M   'P 1'
_cell_length_a   4.71060100
_cell_length_b   7.44694384
_cell_length_c   7.70055527
_cell_angle_alpha   99.76784920
_cell_angle_beta   90.00072550
_cell_angle_gamma   90.00043980
_symmetry_Int_Tables_number   1
_chemical_formula_structural   TiVO4
_chemical_formula_sum   'Ti4 V4 O16'
_cell_volume   266.21621476
_cell_formula_units_Z   4
loop_
 _symmetry_equiv_pos_site_id
 _symmetry_equiv_pos_as_xyz
  1  'x, y, z'
loop_
 _atom_site_type_symbol
 _atom_site_label
 _atom_site_symmetry_multiplicity
 _atom_site_fract_x
 _atom_site_fract_y
 _atom_site_fract_z
 _atom_site_occupancy
  Ti  Ti0  1  0.52676100  0.41646800  0.31535900  1
  Ti  Ti1  1  0.02675700  0.08352900  0.18464700  1
  Ti  Ti2  1  0.47324000  0.58352800  0.68464200  1
  Ti  Ti3  1  0.97324500  0.91647500  0.81535300  1
  V  V0  1  0.50651400  0.28762200  0.91976200  1
  V  V1  1  0.00651000  0.21237700  0.58024500  1
  V  V2  1  0.49349400  0.71237700  0.08023000  1
  V  V3  1  0.99349700  0.78762300  0.41976200  1
  O  O0  1  0.28597200  0.25960700  0.14427600  1
  O  O1  1  0.78597000  0.24039600  0.35572400  1
  O  O2  1  0.71402000  0.74039900  0.85572400  1
  O  O3  1  0.21402300  0.75959800  0.64427600  1
  O  O4  1  0.24725900  0.15595800  0.77748000  1
  O  O5  1  0.74725500  0.34404600  0.72252600  1
  O  O6  1  0.75274000  0.84404200  0.22252700  1
  O  O7  1  0.25274600  0.65595500  0.27746700  1
  O  O8  1  0.18547900  0.02345700  0.39469100  1
  O  O9  1  0.68548100  0.47654400  0.10530900  1
  O  O10  1  0.81452000  0.97654300  0.60531200  1
  O  O11  1  0.31451800  0.52345700  0.89468900  1
  O  O12  1  0.21761900  0.89272900  0.01970100  1
  O  O13  1  0.71761500  0.60727000  0.48029800  1
  O  O14  1  0.78238000  0.10728200  0.98030600  1
  O  O15  1  0.28238500  0.39271800  0.51969500  1
loop_
_geom_bond_atom_site_label_1
_geom_bond_atom_site_label_2
_geom_bond_distance
_geom_bond_site_symmetry_2
O0 Ti1 1.856149 1_555
O0 Ti0 1.965828 1_555
O0 V0 2.057734 1_554
O1 Ti0 1.856093 1_555
O1 Ti1 1.965847 1_655
O1 V1 2.057763 1_655
O2 Ti3 1.856169 1_555
O2 Ti2 1.965835 1_555
O2 V2 2.057656 1_556
O3 Ti2 1.856109 1_555
O3 Ti3 1.965858 1_455
O3 V3 2.057694 1_455
O4 V0 1.813476 1_555
O4 V1 1.996484 1_555
O4 Ti3 2.260128 1_445
O5 V1 1.813517 1_655
O5 V0 1.996499 1_555
O5 Ti2 2.260158 1_555
O6 V2 1.813510 1_555
O6 V3 1.996505 1_555
O6 Ti1 2.260174 1_665
O7 V3 1.813550 1_455
O7 V2 1.996519 1_555
O7 Ti0 2.260204 1_555
O8 Ti1 1.902840 1_555
O8 V1 2.012375 1_555
O8 V3 2.013588 1_445
O9 Ti0 1.902902 1_555
O9 V0 2.012323 1_554
O9 V2 2.013617 1_555
O10 Ti3 1.902813 1_555
O10 V3 2.012372 1_555
O10 V1 2.013598 1_665
O11 Ti2 1.902871 1_555
O11 V2 2.012305 1_556
O11 V0 2.013638 1_555
O12 Ti1 1.956589 1_565
O12 V2 1.980485 1_555
O12 Ti3 1.981662 1_454
O13 Ti0 1.956528 1_555
O13 V3 1.980525 1_555
O13 Ti2 1.981655 1_555
O14 Ti3 1.956656 1_545
O14 V0 1.980433 1_555
O14 Ti1 1.981638 1_656
O15 Ti2 1.956599 1_555
O15 V1 1.980477 1_555
O15 Ti0 1.981621 1_555
