# generated using pymatgen
data_YErNi2
_symmetry_space_group_name_H-M   'P 1'
_cell_length_a   4.04785411
_cell_length_b   5.43062873
_cell_length_c   7.12107381
_cell_angle_alpha   90.00000000
_cell_angle_beta   90.00000000
_cell_angle_gamma   90.00000000
_symmetry_Int_Tables_number   1
_chemical_formula_structural   YErNi2
_chemical_formula_sum   'Y2 Er2 Ni4'
_cell_volume   156.53824182
_cell_formula_units_Z   2
loop_
 _symmetry_equiv_pos_site_id
 _symmetry_equiv_pos_as_xyz
  1  'x, y, z'
loop_
 _atom_site_type_symbol
 _atom_site_label
 _atom_site_symmetry_multiplicity
 _atom_site_fract_x
 _atom_site_fract_y
 _atom_site_fract_z
 _atom_site_occupancy
  Y  Y0  1  0.50000000  0.38152451  0.32040676  1
  Y  Y1  1  0.50000000  0.61847549  0.82040676  1
  Er  Er0  1  -0.00000000  0.11783882  0.68077076  1
  Er  Er1  1  -0.00000000  0.88216118  0.18077076  1
  Ni  Ni0  1  -0.00000000  0.63530516  0.53483288  1
  Ni  Ni1  1  -0.00000000  0.36469484  0.03483288  1
  Ni  Ni2  1  0.50000000  0.87587326  0.46399060  1
  Ni  Ni3  1  0.50000000  0.12412674  0.96399060  1
loop_
_geom_bond_atom_site_label_1
_geom_bond_atom_site_label_2
_geom_bond_distance
_geom_bond_site_symmetry_2
Er0 Ni0 2.819011 1_545
Er0 Ni1 2.855544 1_556
Er0 Ni3 2.857455 1_555
Er0 Ni3 2.857455 1_455
Er0 Ni2 2.864607 1_445
Er0 Ni2 2.864607 1_545
Er0 Ni0 2.996173 1_555
Er1 Ni1 2.819011 1_565
Er1 Ni0 2.855544 1_555
Er1 Ni2 2.857455 1_555
Er1 Ni2 2.857455 1_455
Er1 Ni3 2.864607 1_464
Er1 Ni3 2.864607 1_564
Er1 Ni1 2.996173 1_555
Ni0 Ni2 2.461209 1_455
Ni0 Ni2 2.461209 1_555
Ni0 Y1 2.870563 1_455
Ni0 Y1 2.870563 1_555
Ni0 Y0 2.885696 1_455
Ni0 Y0 2.885696 1_555
Ni1 Ni3 2.461209 1_554
Ni1 Ni3 2.461209 1_454
Ni1 Y0 2.870563 1_555
Ni1 Y0 2.870563 1_455
Ni1 Y1 2.885696 1_554
Ni1 Y1 2.885696 1_454
Ni2 Y0 2.872744 1_555
Ni2 Y1 2.897535 1_555
Ni2 Y0 2.930185 1_565
Ni3 Y1 2.872744 1_555
Ni3 Y0 2.897535 1_556
Ni3 Y1 2.930185 1_545
