# generated using pymatgen
data_EuAl2Ag3
_symmetry_space_group_name_H-M   'P 1'
_cell_length_a   4.38845800
_cell_length_b   5.77341693
_cell_length_c   5.77341765
_cell_angle_alpha   60.06512091
_cell_angle_beta   90.00000000
_cell_angle_gamma   90.00000000
_symmetry_Int_Tables_number   1
_chemical_formula_structural   EuAl2Ag3
_chemical_formula_sum   'Eu1 Al2 Ag3'
_cell_volume   126.76316840
_cell_formula_units_Z   1
loop_
 _symmetry_equiv_pos_site_id
 _symmetry_equiv_pos_as_xyz
  1  'x, y, z'
loop_
 _atom_site_type_symbol
 _atom_site_label
 _atom_site_symmetry_multiplicity
 _atom_site_fract_x
 _atom_site_fract_y
 _atom_site_fract_z
 _atom_site_occupancy
  Eu  Eu0  1  0.00000000  0.99998000  0.00002000  1
  Al  Al0  1  0.00000000  0.33337400  0.33344400  1
  Al  Al1  1  0.00000000  0.66655600  0.66662600  1
  Ag  Ag0  1  0.50000000  0.50000300  0.49999700  1
  Ag  Ag1  1  0.50000000  0.49999700  0.00001000  1
  Ag  Ag2  1  0.50000000  0.99999000  0.50000300  1
loop_
_geom_bond_atom_site_label_1
_geom_bond_atom_site_label_2
_geom_bond_distance
_geom_bond_site_symmetry_2
Al0 Eu0 3.332946 1_545
Al0 Eu0 3.335019 1_546
Al0 Eu0 3.335168 1_555
Al1 Eu0 3.332946 1_556
Al1 Eu0 3.335018 1_546
Al1 Eu0 3.335169 1_555
Ag0 Al0 2.754631 1_555
Ag0 Al0 2.754631 1_655
Ag0 Al1 2.754631 1_655
Ag0 Al1 2.754631 1_555
Ag0 Eu0 3.628136 1_555
Ag0 Eu0 3.628136 1_655
Ag0 Eu0 3.628348 1_546
Ag0 Eu0 3.628348 1_646
Ag1 Al1 2.756234 1_654
Ag1 Al1 2.756234 1_554
Ag1 Al0 2.756386 1_655
Ag1 Al0 2.756386 1_555
Ag1 Eu0 3.625924 1_655
Ag1 Eu0 3.625924 1_555
Ag1 Eu0 3.626035 1_645
Ag1 Eu0 3.626035 1_545
Ag2 Al0 2.756234 1_665
Ag2 Al0 2.756234 1_565
Ag2 Al1 2.756386 1_555
Ag2 Al1 2.756386 1_655
Ag2 Eu0 3.625924 1_555
Ag2 Eu0 3.625924 1_655
Ag2 Eu0 3.626035 1_656
Ag2 Eu0 3.626035 1_556
