# generated using pymatgen
data_Ca2Fe3O8
_symmetry_space_group_name_H-M   'P 1'
_cell_length_a   6.12547773
_cell_length_b   9.14207854
_cell_length_c   6.83040048
_cell_angle_alpha   76.50196077
_cell_angle_beta   116.64112173
_cell_angle_gamma   109.47803339
_symmetry_Int_Tables_number   1
_chemical_formula_structural   Ca2Fe3O8
_chemical_formula_sum   'Ca4 Fe6 O16'
_cell_volume   320.72272764
_cell_formula_units_Z   2
loop_
 _symmetry_equiv_pos_site_id
 _symmetry_equiv_pos_as_xyz
  1  'x, y, z'
loop_
 _atom_site_type_symbol
 _atom_site_label
 _atom_site_symmetry_multiplicity
 _atom_site_fract_x
 _atom_site_fract_y
 _atom_site_fract_z
 _atom_site_occupancy
  Ca  Ca0  1  0.72263000  0.89197900  0.55168100  1
  Ca  Ca1  1  0.72081500  0.39186300  0.05183200  1
  Ca  Ca2  1  0.27736200  0.10833100  0.44824300  1
  Ca  Ca3  1  0.27954500  0.60825900  0.94852000  1
  Fe  Fe0  1  0.99578500  0.25004100  0.75010200  1
  Fe  Fe1  1  0.26233700  0.49992100  0.49936000  1
  Fe  Fe2  1  0.26340500  0.99985000  0.00047700  1
  Fe  Fe3  1  0.99806700  0.74995200  0.25068500  1
  Fe  Fe4  1  0.73696400  0.49876000  0.50030200  1
  Fe  Fe5  1  0.73798000  0.00045300  0.99981300  1
  O  O0  1  0.39883700  0.37774900  0.39850900  1
  O  O1  1  0.40433700  0.87937000  0.89855700  1
  O  O2  1  0.62529400  0.62061900  0.59960100  1
  O  O3  1  0.62392600  0.12167600  0.10158600  1
  O  O4  1  0.88842300  0.35187400  0.45449100  1
  O  O5  1  0.89082200  0.85075800  0.95354400  1
  O  O6  1  0.08984800  0.64923400  0.54673100  1
  O  O7  1  0.08285200  0.14784900  0.04477600  1
  O  O8  1  0.31567700  0.90049300  0.30652600  1
  O  O9  1  0.31466000  0.39920500  0.80700200  1
  O  O10  1  0.89272300  0.90040600  0.31000100  1
  O  O11  1  0.89307800  0.40066300  0.81001800  1
  O  O12  1  0.10916600  0.10046800  0.69369800  1
  O  O13  1  0.10821900  0.59953400  0.19229300  1
  O  O14  1  0.68360100  0.10031100  0.68976600  1
  O  O15  1  0.68364200  0.60038300  0.19188000  1
loop_
_geom_bond_atom_site_label_1
_geom_bond_atom_site_label_2
_geom_bond_distance
_geom_bond_site_symmetry_2
Ca0 O10 2.290433 1_555
Ca0 O8 2.312819 1_555
Ca0 O2 2.329486 1_555
Ca0 O14 2.432827 1_565
Ca0 O12 2.444119 1_665
Ca0 O5 2.444949 1_555
Ca1 O11 2.300504 1_554
Ca1 O9 2.306190 1_554
Ca1 O3 2.319557 1_555
Ca1 O15 2.436595 1_555
Ca1 O13 2.441358 1_655
Ca1 O4 2.449618 1_555
Ca2 O14 2.302777 1_555
Ca2 O12 2.306708 1_555
Ca2 O0 2.312899 1_555
Ca2 O10 2.431478 1_445
Ca2 O8 2.441737 1_545
Ca2 O7 2.454061 1_555
Ca3 O15 2.295290 1_556
Ca3 O13 2.308553 1_556
Ca3 O1 2.327968 1_555
Ca3 O11 2.436074 1_455
Ca3 O9 2.440552 1_555
Ca3 O6 2.443908 1_555
Fe0 O14 1.873849 1_555
Fe0 O11 1.879128 1_555
Fe0 O9 1.901620 1_655
Fe0 O12 1.902577 1_655
Fe0 O7 1.923586 1_656
Fe0 O4 1.927711 1_555
Fe1 O0 1.979797 1_555
Fe1 O2 1.995203 1_555
Fe1 O13 2.006385 1_555
Fe1 O9 2.013868 1_555
Fe1 O6 2.135173 1_555
Fe1 O4 2.160673 1_455
Fe2 O3 1.986283 1_565
Fe2 O1 1.993502 1_554
Fe2 O8 2.001199 1_555
Fe2 O12 2.008460 1_564
Fe2 O7 2.152802 1_565
Fe2 O5 2.154660 1_454
Fe3 O15 1.883308 1_555
Fe3 O10 1.886517 1_555
Fe3 O8 1.902247 1_655
Fe3 O13 1.903018 1_655
Fe3 O6 1.925969 1_655
Fe3 O5 1.932610 1_554
Fe4 O2 1.856346 1_555
Fe4 O0 1.880605 1_555
Fe4 O4 2.012264 1_555
Fe4 O11 2.016447 1_555
Fe4 O15 2.019754 1_555
Fe4 O6 2.066703 1_655
Fe5 O1 1.860526 1_545
Fe5 O3 1.873769 1_556
Fe5 O7 2.021324 1_656
Fe5 O10 2.023973 1_546
Fe5 O14 2.024071 1_555
Fe5 O5 2.042295 1_545
