# generated using pymatgen
data_Zn(FeO2)2
_symmetry_space_group_name_H-M   'P 1'
_cell_length_a   2.94995600
_cell_length_b   9.73639700
_cell_length_c   10.06987400
_cell_angle_alpha   90.00000000
_cell_angle_beta   90.00000000
_cell_angle_gamma   90.00000000
_symmetry_Int_Tables_number   1
_chemical_formula_structural   Zn(FeO2)2
_chemical_formula_sum   'Zn4 Fe8 O16'
_cell_volume   289.22634451
_cell_formula_units_Z   4
loop_
 _symmetry_equiv_pos_site_id
 _symmetry_equiv_pos_as_xyz
  1  'x, y, z'
loop_
 _atom_site_type_symbol
 _atom_site_label
 _atom_site_symmetry_multiplicity
 _atom_site_fract_x
 _atom_site_fract_y
 _atom_site_fract_z
 _atom_site_occupancy
  Zn  Zn0  1  0.19899700  0.36164700  0.25000000  1
  Zn  Zn1  1  0.19899700  0.13835300  0.75000000  1
  Zn  Zn2  1  0.80100300  0.86164700  0.25000000  1
  Zn  Zn3  1  0.80100300  0.63835300  0.75000000  1
  Fe  Fe0  1  0.73624800  0.11842600  0.42582000  1
  Fe  Fe1  1  0.73624800  0.38157400  0.92582000  1
  Fe  Fe2  1  0.26375200  0.88157400  0.92582000  1
  Fe  Fe3  1  0.73624800  0.38157400  0.57418000  1
  Fe  Fe4  1  0.26375200  0.88157400  0.57418000  1
  Fe  Fe5  1  0.73624800  0.11842600  0.07418000  1
  Fe  Fe6  1  0.26375200  0.61842600  0.07418000  1
  Fe  Fe7  1  0.26375200  0.61842600  0.42582000  1
  O  O0  1  0.23917500  0.98040000  0.11322500  1
  O  O1  1  0.76082500  0.01960000  0.88677500  1
  O  O2  1  0.23508100  0.25000000  0.00000000  1
  O  O3  1  0.76082500  0.48040000  0.11322500  1
  O  O4  1  0.76082500  0.48040000  0.38677500  1
  O  O5  1  0.70615200  0.28515900  0.75000000  1
  O  O6  1  0.23917500  0.51960000  0.88677500  1
  O  O7  1  0.29384800  0.78515900  0.75000000  1
  O  O8  1  0.23508100  0.25000000  0.50000000  1
  O  O9  1  0.76491900  0.75000000  0.00000000  1
  O  O10  1  0.23917500  0.98040000  0.38677500  1
  O  O11  1  0.29384800  0.71484100  0.25000000  1
  O  O12  1  0.70615200  0.21484100  0.25000000  1
  O  O13  1  0.76491900  0.75000000  0.50000000  1
  O  O14  1  0.23917500  0.51960000  0.61322500  1
  O  O15  1  0.76082500  0.01960000  0.61322500  1
loop_
_geom_bond_atom_site_label_1
_geom_bond_atom_site_label_2
_geom_bond_distance
_geom_bond_site_symmetry_2
Fe0 O12 2.005922 1_555
Fe0 O10 2.027500 1_545
Fe0 O10 2.040024 1_645
Fe0 O8 2.089140 1_655
Fe0 O8 2.093996 1_555
Fe0 O15 2.119533 1_555
Fe1 O5 2.005922 1_555
Fe1 O6 2.027500 1_555
Fe1 O6 2.040024 1_655
Fe1 O2 2.089140 1_656
Fe1 O2 2.093996 1_556
Fe1 O3 2.119533 1_556
Fe2 O7 2.005922 1_555
Fe2 O1 2.027500 1_565
Fe2 O1 2.040024 1_465
Fe2 O9 2.089140 1_456
Fe2 O9 2.093996 1_556
Fe2 O0 2.119533 1_556
Fe3 O5 2.005922 1_555
Fe3 O14 2.027500 1_555
Fe3 O14 2.040024 1_655
Fe3 O8 2.089140 1_655
Fe3 O8 2.093996 1_555
Fe3 O4 2.119533 1_555
Fe4 O7 2.005922 1_555
Fe4 O15 2.027500 1_565
Fe4 O15 2.040024 1_465
Fe4 O13 2.089140 1_455
Fe4 O13 2.093996 1_555
Fe4 O10 2.119533 1_555
Fe5 O12 2.005922 1_555
Fe5 O0 2.027500 1_545
Fe5 O0 2.040024 1_645
Fe5 O2 2.089140 1_655
Fe5 O2 2.093996 1_555
Fe5 O1 2.119533 1_554
Fe6 O11 2.005922 1_555
Fe6 O3 2.027500 1_555
Fe6 O3 2.040024 1_455
Fe6 O9 2.089140 1_455
Fe6 O9 2.093996 1_555
Fe6 O6 2.119533 1_554
Fe7 O11 2.005922 1_555
Fe7 O4 2.027500 1_555
Fe7 O4 2.040024 1_455
Fe7 O13 2.089140 1_455
Fe7 O13 2.093996 1_555
Fe7 O14 2.119533 1_555
O0 Zn2 2.214637 1_455
O0 Zn2 2.445547 1_555
O1 Zn1 2.214637 1_655
O1 Zn1 2.445547 1_555
O3 Zn0 2.214637 1_655
O3 Zn0 2.445547 1_555
O4 Zn0 2.214637 1_655
O4 Zn0 2.445547 1_555
O5 Zn1 2.038827 1_655
O5 Zn1 2.069141 1_555
O6 Zn3 2.214637 1_455
O6 Zn3 2.445547 1_555
O7 Zn3 2.038827 1_455
O7 Zn3 2.069141 1_555
O10 Zn2 2.214637 1_455
O10 Zn2 2.445547 1_555
O11 Zn2 2.038827 1_455
O11 Zn2 2.069141 1_555
O12 Zn0 2.038827 1_655
O12 Zn0 2.069141 1_555
O14 Zn3 2.214637 1_455
O14 Zn3 2.445547 1_555
O15 Zn1 2.214637 1_655
O15 Zn1 2.445547 1_555
