# generated using pymatgen
data_Nb4Si7Ni4
_symmetry_space_group_name_H-M   'P 1'
_cell_length_a   9.29046102
_cell_length_b   9.29046102
_cell_length_c   9.29046102
_cell_angle_alpha   94.19155895
_cell_angle_beta   94.19155895
_cell_angle_gamma   148.62933784
_symmetry_Int_Tables_number   1
_chemical_formula_structural   Nb4Si7Ni4
_chemical_formula_sum   'Nb8 Si14 Ni8'
_cell_volume   401.89399168
_cell_formula_units_Z   2
loop_
 _symmetry_equiv_pos_site_id
 _symmetry_equiv_pos_as_xyz
  1  'x, y, z'
loop_
 _atom_site_type_symbol
 _atom_site_label
 _atom_site_symmetry_multiplicity
 _atom_site_fract_x
 _atom_site_fract_y
 _atom_site_fract_z
 _atom_site_occupancy
  Nb  Nb0  1  0.13454100  0.13454100  0.26908300  1
  Nb  Nb1  1  0.86545900  0.86545900  0.73091700  1
  Nb  Nb2  1  0.86545900  0.13454100  0.00000000  1
  Nb  Nb3  1  0.13454100  0.86545900  0.00000000  1
  Nb  Nb4  1  0.50000000  0.30856100  0.80856100  1
  Nb  Nb5  1  0.50000000  0.69143900  0.19143900  1
  Nb  Nb6  1  0.69143900  0.50000000  0.19143900  1
  Nb  Nb7  1  0.30856100  0.50000000  0.80856100  1
  Si  Si0  1  0.50000000  0.09298400  0.59298400  1
  Si  Si1  1  0.50000000  0.90701600  0.40701600  1
  Si  Si2  1  0.90701600  0.50000000  0.40701600  1
  Si  Si3  1  0.09298400  0.50000000  0.59298400  1
  Si  Si4  1  0.75050900  0.75050900  0.00000000  1
  Si  Si5  1  0.24949100  0.24949100  0.00000000  1
  Si  Si6  1  0.29229800  0.29229800  0.58459600  1
  Si  Si7  1  0.70770200  0.70770200  0.41540400  1
  Si  Si8  1  0.70770200  0.29229800  0.00000000  1
  Si  Si9  1  0.29229800  0.70770200  0.00000000  1
  Si  Si10  1  0.00000000  0.29188200  0.29188200  1
  Si  Si11  1  0.00000000  0.70811800  0.70811800  1
  Si  Si12  1  0.70811800  0.00000000  0.70811800  1
  Si  Si13  1  0.29188200  0.00000000  0.29188200  1
  Ni  Ni0  1  0.39810000  0.89810000  0.79620000  1
  Ni  Ni1  1  0.10190000  0.60190000  0.20380000  1
  Ni  Ni2  1  0.10190000  0.89810000  0.50000000  1
  Ni  Ni3  1  0.39810000  0.60190000  0.50000000  1
  Ni  Ni4  1  0.60190000  0.39810000  0.50000000  1
  Ni  Ni5  1  0.89810000  0.10190000  0.50000000  1
  Ni  Ni6  1  0.89810000  0.39810000  0.79620000  1
  Ni  Ni7  1  0.60190000  0.10190000  0.20380000  1
loop_
_geom_bond_atom_site_label_1
_geom_bond_atom_site_label_2
_geom_bond_distance
_geom_bond_site_symmetry_2
Nb0 Si13 2.618689 1_555
Nb0 Si10 2.618689 1_555
Nb0 Si4 2.713576 1_445
Nb0 Si5 2.713578 1_555
Nb0 Si6 2.822104 1_555
Nb0 Si7 2.832236 1_445
Nb0 Si7 2.832241 1_555
Nb0 Ni5 3.027559 1_455
Nb0 Ni2 3.027559 1_545
Nb0 Ni3 3.027561 1_555
Nb0 Ni4 3.027561 1_555
Nb1 Si12 2.618689 1_565
Nb1 Si11 2.618689 1_655
Nb1 Si5 2.713576 1_666
Nb1 Si4 2.713578 1_556
Nb1 Si7 2.822104 1_555
Nb1 Si6 2.832236 1_665
Nb1 Si6 2.832241 1_555
Nb1 Ni5 3.027559 1_565
Nb1 Ni2 3.027559 1_655
Nb1 Ni3 3.027561 1_555
Nb1 Ni4 3.027561 1_555
Nb2 Si12 2.618690 1_554
Nb2 Si10 2.618690 1_655
Nb2 Si5 2.713569 1_655
Nb2 Si4 2.713569 1_545
Nb2 Si8 2.822113 1_555
Nb2 Si9 2.832242 1_545
Nb2 Si9 2.832242 1_655
Nb2 Ni1 3.027566 1_655
Nb2 Ni0 3.027566 1_544
Nb2 Ni6 3.027566 1_554
Nb2 Ni7 3.027566 1_555
Nb3 Si13 2.618690 1_565
Nb3 Si11 2.618690 1_554
Nb3 Si5 2.713569 1_565
Nb3 Si4 2.713569 1_455
Nb3 Si9 2.822113 1_555
Nb3 Si8 2.832242 1_455
Nb3 Si8 2.832242 1_565
Nb3 Ni6 3.027566 1_454
Nb3 Ni0 3.027566 1_554
Nb3 Ni7 3.027566 1_565
Nb3 Ni1 3.027566 1_555
Nb4 Si6 2.635352 1_555
Nb4 Si8 2.635352 1_556
Nb4 Si0 2.726925 1_555
Nb4 Si4 2.729051 1_556
Nb4 Si5 2.729051 1_556
Nb4 Si11 2.814781 1_655
Nb4 Si11 2.814781 1_545
Nb4 Ni2 3.034233 1_545
Nb4 Ni6 3.034233 1_555
Nb4 Ni0 3.034233 1_545
Nb4 Ni4 3.034233 1_555
Nb5 Si9 2.635352 1_555
Nb5 Si7 2.635352 1_555
Nb5 Si1 2.726925 1_555
Nb5 Si5 2.729051 1_555
Nb5 Si4 2.729051 1_555
Nb5 Si10 2.814781 1_665
Nb5 Si10 2.814781 1_555
Nb5 Ni3 3.034233 1_555
Nb5 Ni5 3.034233 1_565
Nb5 Ni1 3.034233 1_555
Nb5 Ni7 3.034233 1_565
Nb6 Si7 2.635352 1_555
Nb6 Si8 2.635352 1_555
Nb6 Si2 2.726925 1_555
Nb6 Si5 2.729051 1_555
Nb6 Si4 2.729051 1_555
Nb6 Si13 2.814781 1_665
Nb6 Si13 2.814781 1_555
Nb6 Ni2 3.034233 1_655
Nb6 Ni4 3.034233 1_555
Nb6 Ni7 3.034233 1_555
Nb6 Ni1 3.034233 1_655
Nb7 Si6 2.635352 1_555
Nb7 Si9 2.635352 1_556
Nb7 Si3 2.726925 1_555
Nb7 Si5 2.729051 1_556
Nb7 Si4 2.729051 1_556
Nb7 Si12 2.814781 1_455
Nb7 Si12 2.814781 1_565
Nb7 Ni6 3.034233 1_455
Nb7 Ni0 3.034233 1_555
Nb7 Ni5 3.034233 1_455
Nb7 Ni3 3.034233 1_555
Si0 Si1 2.352388 1_545
Si2 Si3 2.352388 1_655
Si4 Si5 2.506599 1_665
Si4 Si5 2.516827 1_555
Ni0 Si9 2.339368 1_556
Ni0 Si8 2.339368 1_566
Ni0 Si3 2.360677 1_555
Ni0 Si0 2.360677 1_565
Ni0 Si12 2.379727 1_565
Ni0 Si11 2.379727 1_555
Ni0 Ni6 2.511713 1_565
Ni0 Ni6 2.511713 1_455
Ni1 Si8 2.339368 1_455
Ni1 Si9 2.339368 1_555
Ni1 Si2 2.360677 1_455
Ni1 Si1 2.360677 1_555
Ni1 Si13 2.379727 1_565
Ni1 Si10 2.379727 1_555
Ni1 Ni7 2.511713 1_455
Ni1 Ni7 2.511713 1_565
Ni2 Si6 2.339368 1_565
Ni2 Si7 2.339368 1_455
Ni2 Si0 2.360677 1_565
Ni2 Si2 2.360677 1_455
Ni2 Si11 2.379727 1_555
Ni2 Si13 2.379727 1_565
Ni2 Ni4 2.511713 1_565
Ni2 Ni4 2.511713 1_455
Ni3 Si7 2.339368 1_555
Ni3 Si6 2.339368 1_555
Ni3 Si3 2.360677 1_555
Ni3 Si1 2.360677 1_555
Ni3 Si12 2.379727 1_565
Ni3 Si10 2.379727 1_555
Ni3 Ni5 2.511713 1_455
Ni3 Ni5 2.511713 1_565
Ni4 Si6 2.339368 1_555
Ni4 Si7 2.339368 1_555
Ni4 Si0 2.360677 1_555
Ni4 Si2 2.360677 1_555
Ni4 Si11 2.379727 1_655
Ni4 Si13 2.379727 1_555
Ni5 Si6 2.339368 1_655
Ni5 Si7 2.339368 1_545
Ni5 Si3 2.360677 1_655
Ni5 Si1 2.360677 1_545
Ni5 Si10 2.379727 1_655
Ni5 Si12 2.379727 1_555
Ni6 Si8 2.339368 1_556
Ni6 Si9 2.339368 1_656
Ni6 Si3 2.360677 1_655
Ni6 Si0 2.360677 1_555
Ni6 Si11 2.379727 1_655
Ni6 Si12 2.379727 1_555
Ni7 Si9 2.339368 1_545
Ni7 Si8 2.339368 1_555
Ni7 Si2 2.360677 1_555
Ni7 Si1 2.360677 1_545
Ni7 Si10 2.379727 1_655
Ni7 Si13 2.379727 1_555
