# generated using pymatgen
data_SrLaCuRuO6
_symmetry_space_group_name_H-M   'P 1'
_cell_length_a   5.81242200
_cell_length_b   5.70344000
_cell_length_c   9.57421645
_cell_angle_alpha   53.62755566
_cell_angle_beta   90.00000000
_cell_angle_gamma   90.00000000
_symmetry_Int_Tables_number   1
_chemical_formula_structural   SrLaCuRuO6
_chemical_formula_sum   'Sr2 La2 Cu2 Ru2 O12'
_cell_volume   255.55815903
_cell_formula_units_Z   2
loop_
 _symmetry_equiv_pos_site_id
 _symmetry_equiv_pos_as_xyz
  1  'x, y, z'
loop_
 _atom_site_type_symbol
 _atom_site_label
 _atom_site_symmetry_multiplicity
 _atom_site_fract_x
 _atom_site_fract_y
 _atom_site_fract_z
 _atom_site_occupancy
  Sr  Sr0  1  0.71650800  0.25463900  0.24836700  1
  Sr  Sr1  1  0.28349200  0.25463900  0.74836700  1
  La  La0  1  0.19571300  0.74143200  0.24692500  1
  La  La1  1  0.80428700  0.74143200  0.74692500  1
  Cu  Cu0  1  0.73530000  0.99881000  0.99723800  1
  Cu  Cu1  1  0.26470000  0.99881000  0.49723800  1
  Ru  Ru0  1  0.74073700  0.50040800  0.49965600  1
  Ru  Ru1  1  0.25926300  0.50040800  0.99965600  1
  O  O0  1  0.26819300  0.15853400  0.24908700  1
  O  O1  1  0.77672600  0.81811100  0.24967700  1
  O  O2  1  0.22327400  0.81811100  0.74967700  1
  O  O3  1  0.73180700  0.15853400  0.74908700  1
  O  O4  1  0.44733300  0.73885200  0.04490700  1
  O  O5  1  0.95450400  0.26783400  0.46343600  1
  O  O6  1  0.01146000  0.66505100  0.54347300  1
  O  O7  1  0.53977700  0.35633100  0.95723300  1
  O  O8  1  0.04549600  0.26783400  0.96343600  1
  O  O9  1  0.55266700  0.73885200  0.54490700  1
  O  O10  1  0.46022300  0.35633100  0.45723300  1
  O  O11  1  0.98854000  0.66505100  0.04347300  1
loop_
_geom_bond_atom_site_label_1
_geom_bond_atom_site_label_2
_geom_bond_distance
_geom_bond_site_symmetry_2
La0 O0 2.428077 1_565
La0 O4 2.431858 1_555
La0 O10 2.448843 1_555
La0 O1 2.477186 1_455
La0 O11 2.537827 1_455
La0 O5 2.630155 1_455
La0 O8 2.734587 1_564
La0 O6 2.816180 1_555
La1 O3 2.428077 1_565
La1 O9 2.431858 1_555
La1 O7 2.448843 1_555
La1 O2 2.477186 1_655
La1 O6 2.537827 1_655
La1 O8 2.630155 1_655
La1 O5 2.734587 1_565
La1 O11 2.816180 1_556
Cu0 O3 1.976844 1_565
Cu0 O1 2.001804 1_556
Cu0 O4 2.098938 1_556
Cu0 O7 2.160983 1_565
Cu0 O11 2.233096 1_556
Cu0 O8 2.262923 1_665
Cu1 O0 1.976844 1_565
Cu1 O2 2.001804 1_555
Cu1 O9 2.098938 1_555
Cu1 O10 2.160983 1_565
Cu1 O6 2.233096 1_555
Cu1 O5 2.262923 1_465
O0 Ru1 1.996203 1_554
O0 Sr0 2.661989 1_555
O1 Ru0 1.977770 1_555
O1 Sr0 2.506849 1_565
O2 Ru1 1.977770 1_555
O2 Sr1 2.506849 1_565
O3 Ru0 1.996203 1_555
O3 Sr1 2.661989 1_555
O4 Ru1 1.982660 1_554
O4 Sr0 2.736545 1_555
O4 Sr1 2.777676 1_564
O5 Ru0 1.992280 1_555
O5 Sr0 2.518538 1_555
O6 Ru0 2.000271 1_455
O6 Sr1 2.526115 1_555
O7 Ru1 1.973449 1_555
O7 Sr0 2.691399 1_556
O7 Sr1 2.816018 1_555
O8 Ru1 1.992280 1_555
O8 Sr1 2.518538 1_555
O9 Ru0 1.982660 1_555
O9 Sr1 2.736545 1_555
O9 Sr0 2.777676 1_565
O10 Ru0 1.973449 1_555
O10 Sr1 2.691399 1_555
O10 Sr0 2.816018 1_555
O11 Ru1 2.000271 1_654
O11 Sr0 2.526115 1_555
