# generated using pymatgen
data_Li2MnPCO7
_symmetry_space_group_name_H-M   'P 1'
_cell_length_a   9.56070820
_cell_length_b   10.03378876
_cell_length_c   6.47671338
_cell_angle_alpha   90.00000000
_cell_angle_beta   90.00000000
_cell_angle_gamma   62.49590563
_symmetry_Int_Tables_number   1
_chemical_formula_structural   Li2MnPCO7
_chemical_formula_sum   'Li8 Mn4 P4 C4 O28'
_cell_volume   551.08991354
_cell_formula_units_Z   4
loop_
 _symmetry_equiv_pos_site_id
 _symmetry_equiv_pos_as_xyz
  1  'x, y, z'
loop_
 _atom_site_type_symbol
 _atom_site_label
 _atom_site_symmetry_multiplicity
 _atom_site_fract_x
 _atom_site_fract_y
 _atom_site_fract_z
 _atom_site_occupancy
  Li  Li0  1  0.73606052  0.26556635  0.96048041  1
  Li  Li1  1  0.73651588  0.26672289  0.53376878  1
  Li  Li2  1  0.73606052  0.76556635  0.53951959  1
  Li  Li3  1  0.73651588  0.76672289  0.96623122  1
  Li  Li4  1  0.26658468  0.23461690  0.46770179  1
  Li  Li5  1  0.26658468  0.73461690  0.03229821  1
  Li  Li6  1  0.11041006  0.05144951  0.25757468  1
  Li  Li7  1  0.11041006  0.55144951  0.24242532  1
  Mn  Mn0  1  0.66229110  0.07539431  0.24912698  1
  Mn  Mn1  1  0.66229110  0.57539431  0.25087302  1
  Mn  Mn2  1  0.32592105  0.43130147  0.75019673  1
  Mn  Mn3  1  0.32592105  0.93130147  0.74980327  1
  P  P0  1  0.58451195  0.07782650  0.74290663  1
  P  P1  1  0.58451195  0.57782650  0.75709337  1
  P  P2  1  0.41661978  0.43225134  0.24535867  1
  P  P3  1  0.41661978  0.93225134  0.25464133  1
  C  C0  1  0.95070702  0.37660915  0.27087572  1
  C  C1  1  0.95070702  0.87660915  0.22912428  1
  C  C2  1  0.04369301  0.11335078  0.75279995  1
  C  C3  1  0.04369301  0.61335078  0.74720005  1
  O  O0  1  0.92910186  0.01299148  0.23979327  1
  O  O1  1  0.92910186  0.51299148  0.26020673  1
  O  O2  1  0.90303782  0.21809987  0.74849188  1
  O  O3  1  0.81758182  0.36147218  0.26252555  1
  O  O4  1  0.90303782  0.71809987  0.75150812  1
  O  O5  1  0.81758182  0.86147218  0.23747445  1
  O  O6  1  0.66766626  0.09564875  0.93921179  1
  O  O7  1  0.68857479  0.07836426  0.55758872  1
  O  O8  1  0.68857479  0.57836426  0.94241128  1
  O  O9  1  0.66766626  0.59564875  0.56078821  1
  O  O10  1  0.58330502  0.29203740  0.25572029  1
  O  O11  1  0.56890566  0.42994965  0.75067948  1
  O  O12  1  0.58330502  0.79203740  0.24427971  1
  O  O13  1  0.56890566  0.92994965  0.74932052  1
  O  O14  1  0.44606000  0.07053769  0.26714894  1
  O  O15  1  0.41665981  0.21179192  0.71961376  1
  O  O16  1  0.44606000  0.57053769  0.23285106  1
  O  O17  1  0.41665981  0.71179192  0.78038624  1
  O  O18  1  0.31707284  0.42962067  0.06012889  1
  O  O19  1  0.31275497  0.43539388  0.43056661  1
  O  O20  1  0.31707284  0.92962067  0.43987111  1
  O  O21  1  0.31275497  0.93539388  0.06943339  1
  O  O22  1  0.16559968  0.14273550  0.72893987  1
  O  O23  1  0.08166491  0.26031638  0.28879286  1
  O  O24  1  0.16559968  0.64273550  0.77106013  1
  O  O25  1  0.08166491  0.76031638  0.21120714  1
  O  O26  1  0.08491952  0.47300717  0.72042102  1
  O  O27  1  0.08491952  0.97300717  0.77957898  1
loop_
_geom_bond_atom_site_label_1
_geom_bond_atom_site_label_2
_geom_bond_distance
_geom_bond_site_symmetry_2
Li0 O2 1.989532 1_555
Li0 O6 2.093560 1_555
Li0 O11 2.164777 1_555
Li0 O10 2.345556 1_556
Li0 O3 2.460319 1_556
Li1 O2 1.997334 1_555
Li1 O7 2.146136 1_555
Li1 O11 2.190857 1_555
Li1 O10 2.260431 1_555
Li1 O3 2.295931 1_555
Li2 O4 1.989532 1_555
Li2 O9 2.093560 1_555
Li2 O13 2.164777 1_555
Li2 O12 2.345556 1_555
Li2 O5 2.460319 1_555
Li3 O4 1.997334 1_555
Li3 O8 2.146136 1_555
Li3 O13 2.190857 1_555
Li3 O12 2.260431 1_556
Li3 O5 2.295931 1_556
Li4 O23 2.028250 1_555
Li4 O15 2.114157 1_555
Li4 O14 2.175493 1_555
Li4 O19 2.265496 1_555
Li4 O22 2.338154 1_555
Li5 O25 2.028250 1_555
Li5 O17 2.114157 1_554
Li5 O16 2.175493 1_555
Li5 O21 2.265496 1_555
Li5 O24 2.338154 1_554
Li6 O0 1.945449 1_455
Li6 O23 1.994119 1_555
Li6 O21 2.121949 1_545
Li6 O20 2.135750 1_545
Li7 O1 1.945449 1_455
Li7 O25 1.994119 1_555
Li7 O19 2.121949 1_555
Li7 O18 2.135750 1_555
Mn0 O10 1.944512 1_555
Mn0 O5 1.968204 1_545
Mn0 O7 2.015497 1_555
Mn0 O6 2.020537 1_554
Mn0 O14 2.093530 1_555
Mn0 O0 2.329714 1_555
Mn1 O12 1.944512 1_555
Mn1 O3 1.968204 1_555
Mn1 O8 2.015497 1_554
Mn1 O9 2.020537 1_555
Mn1 O16 2.093530 1_555
Mn1 O1 2.329714 1_555
Mn2 O24 1.965951 1_555
Mn2 O15 1.969288 1_555
Mn2 O18 2.009522 1_556
Mn2 O19 2.073232 1_555
Mn2 O26 2.151935 1_555
Mn2 O11 2.316874 1_555
Mn3 O22 1.965951 1_565
Mn3 O17 1.969288 1_555
Mn3 O20 2.009522 1_555
Mn3 O21 2.073232 1_556
Mn3 O27 2.151935 1_555
Mn3 O13 2.316874 1_555
C0 O23 1.262248 1_655
C0 O1 1.288011 1_555
C0 O3 1.350735 1_555
C1 O25 1.262248 1_655
C1 O0 1.288011 1_565
C1 O5 1.350735 1_555
C2 O2 1.268224 1_455
C2 O27 1.286762 1_545
C2 O22 1.336649 1_555
C3 O4 1.268224 1_455
C3 O26 1.286762 1_555
C3 O24 1.336649 1_555
O6 P0 1.553005 1_555
O7 P0 1.560591 1_555
O8 P1 1.560591 1_555
O9 P1 1.553005 1_555
O10 P2 1.566096 1_555
O11 P1 1.558854 1_555
O12 P3 1.566096 1_555
O13 P0 1.558854 1_565
O14 P3 1.540053 1_545
O15 P0 1.553238 1_555
O16 P2 1.540053 1_555
O17 P1 1.553238 1_555
O18 P2 1.539136 1_555
O19 P2 1.548244 1_555
O20 P3 1.539136 1_555
O21 P3 1.548244 1_555
