# generated using pymatgen
data_Na2CaP2O11
_symmetry_space_group_name_H-M   'P 1'
_cell_length_a   8.87338400
_cell_length_b   5.75320200
_cell_length_c   9.71801837
_cell_angle_alpha   81.28906359
_cell_angle_beta   90.00000000
_cell_angle_gamma   90.00000000
_symmetry_Int_Tables_number   1
_chemical_formula_structural   Na2CaP2O11
_chemical_formula_sum   'Na4 Ca2 P4 O22'
_cell_volume   490.38582677
_cell_formula_units_Z   2
loop_
 _symmetry_equiv_pos_site_id
 _symmetry_equiv_pos_as_xyz
  1  'x, y, z'
loop_
 _atom_site_type_symbol
 _atom_site_label
 _atom_site_symmetry_multiplicity
 _atom_site_fract_x
 _atom_site_fract_y
 _atom_site_fract_z
 _atom_site_occupancy
  Na  Na0  1  0.31571300  0.32483300  0.97205200  1
  Na  Na1  1  0.68428700  0.32483300  0.47205200  1
  Na  Na2  1  0.63056100  0.78785600  0.93958400  1
  Na  Na3  1  0.36943900  0.78785600  0.43958400  1
  Ca  Ca0  1  0.97342300  0.01024100  0.01365500  1
  Ca  Ca1  1  0.02657700  0.01024100  0.51365500  1
  P  P0  1  0.94992700  0.58992800  0.79346000  1
  P  P1  1  0.05007300  0.58992800  0.29346000  1
  P  P2  1  0.25124900  0.81335700  0.80109000  1
  P  P3  1  0.74875100  0.81335700  0.30109000  1
  O  O0  1  0.94063200  0.64121700  0.63487300  1
  O  O1  1  0.05936800  0.64121700  0.13487300  1
  O  O2  1  0.13115600  0.59412500  0.83465400  1
  O  O3  1  0.86884400  0.59412500  0.33465400  1
  O  O4  1  0.89588400  0.34231400  0.85670600  1
  O  O5  1  0.10411600  0.34231400  0.35670600  1
  O  O6  1  0.87424700  0.77980400  0.86303900  1
  O  O7  1  0.12575300  0.77980400  0.36303900  1
  O  O8  1  0.24938600  0.89526200  0.64396600  1
  O  O9  1  0.75061400  0.89526200  0.14396600  1
  O  O10  1  0.39983500  0.69863400  0.85773300  1
  O  O11  1  0.60016500  0.69863400  0.35773300  1
  O  O12  1  0.19869000  0.00996100  0.88165900  1
  O  O13  1  0.80131000  0.00996100  0.38165900  1
  O  O14  1  0.87188000  0.24605700  0.64215500  1
  O  O15  1  0.12812000  0.24605700  0.14215500  1
  O  O16  1  0.44323900  0.23177600  0.29583600  1
  O  O17  1  0.55676100  0.23177600  0.79583600  1
  O  O18  1  0.39456500  0.90186800  0.04993000  1
  O  O19  1  0.60543500  0.90186800  0.54993000  1
  O  O20  1  0.49849000  0.31076400  0.68250700  1
  O  O21  1  0.50151000  0.31076400  0.18250700  1
loop_
_geom_bond_atom_site_label_1
_geom_bond_atom_site_label_2
_geom_bond_distance
_geom_bond_site_symmetry_2
Na0 O15 2.341354 1_556
Na0 O12 2.369289 1_555
Na0 O10 2.385918 1_555
Na0 O2 2.497688 1_555
Na0 O18 2.534946 1_546
Na0 O21 2.618648 1_556
Na0 O17 2.841096 1_555
Na1 O14 2.341354 1_555
Na1 O13 2.369289 1_555
Na1 O11 2.385918 1_555
Na1 O3 2.497688 1_555
Na1 O19 2.534946 1_545
Na1 O20 2.618648 1_555
Na1 O16 2.841096 1_555
Na2 O10 2.282848 1_555
Na2 O6 2.289442 1_555
Na2 O9 2.415232 1_556
Na2 O18 2.485641 1_556
Na2 O17 2.796846 1_565
Na3 O11 2.282848 1_555
Na3 O7 2.289442 1_555
Na3 O8 2.415232 1_555
Na3 O19 2.485641 1_555
Na3 O16 2.796846 1_565
Ca0 O6 2.293953 1_544
Ca0 O4 2.359459 1_554
Ca0 O12 2.375200 1_654
Ca0 O9 2.386698 1_545
Ca0 O1 2.391476 1_645
Ca0 O15 2.407795 1_655
Ca1 O7 2.293953 1_545
Ca1 O5 2.359459 1_555
Ca1 O13 2.375200 1_455
Ca1 O8 2.386698 1_545
Ca1 O0 2.391476 1_445
Ca1 O14 2.407795 1_455
O0 P0 1.526851 1_555
O1 P1 1.526851 1_555
O2 P2 1.645658 1_555
O2 P0 1.658253 1_455
O3 P3 1.645658 1_555
O3 P1 1.658253 1_655
O4 P0 1.540105 1_555
O5 P1 1.540105 1_555
O6 P0 1.524871 1_555
O7 P1 1.524871 1_555
O8 P2 1.528367 1_555
O9 P3 1.528367 1_555
O10 P2 1.538482 1_555
O11 P3 1.538482 1_555
O12 P2 1.542140 1_545
O13 P3 1.542140 1_545
O16 O21 1.239032 1_555
O17 O20 1.239032 1_555
