# generated using pymatgen
data_YCdB
_symmetry_space_group_name_H-M   'P 1'
_cell_length_a   4.33798697
_cell_length_b   4.33798697
_cell_length_c   4.33798697
_cell_angle_alpha   60.00000000
_cell_angle_beta   60.00000000
_cell_angle_gamma   60.00000000
_symmetry_Int_Tables_number   1
_chemical_formula_structural   YCdB
_chemical_formula_sum   'Y1 Cd1 B1'
_cell_volume   57.72311112
_cell_formula_units_Z   1
loop_
 _symmetry_equiv_pos_site_id
 _symmetry_equiv_pos_as_xyz
  1  'x, y, z'
loop_
 _atom_site_type_symbol
 _atom_site_label
 _atom_site_symmetry_multiplicity
 _atom_site_fract_x
 _atom_site_fract_y
 _atom_site_fract_z
 _atom_site_occupancy
  Y  Y0  1  0.50000000  0.50000000  0.50000000  1
  Cd  Cd0  1  0.00000000  0.00000000  0.00000000  1
  B  B0  1  0.25000000  0.25000000  0.25000000  1
loop_
_geom_bond_atom_site_label_1
_geom_bond_atom_site_label_2
_geom_bond_distance
_geom_bond_site_symmetry_2
Cd0 Y0 3.067420 1_445
Cd0 Y0 3.067420 1_545
Cd0 Y0 3.067420 1_554
Cd0 Y0 3.067420 1_455
Cd0 Y0 3.067420 1_544
Cd0 Y0 3.067420 1_454
B0 Cd0 2.656464 1_655
B0 Y0 2.656464 1_455
B0 Y0 2.656464 1_554
B0 Cd0 2.656464 1_565
B0 Y0 2.656464 1_555
B0 Cd0 2.656464 1_555
B0 Cd0 2.656464 1_556
B0 Y0 2.656464 1_545
