# generated using pymatgen
data_PrGeIr
_symmetry_space_group_name_H-M   'P 1'
_cell_length_a   4.49759710
_cell_length_b   7.25899366
_cell_length_c   7.39682632
_cell_angle_alpha   90.00000000
_cell_angle_beta   90.00000000
_cell_angle_gamma   90.00000000
_symmetry_Int_Tables_number   1
_chemical_formula_structural   PrGeIr
_chemical_formula_sum   'Pr4 Ge4 Ir4'
_cell_volume   241.49179898
_cell_formula_units_Z   4
loop_
 _symmetry_equiv_pos_site_id
 _symmetry_equiv_pos_as_xyz
  1  'x, y, z'
loop_
 _atom_site_type_symbol
 _atom_site_label
 _atom_site_symmetry_multiplicity
 _atom_site_fract_x
 _atom_site_fract_y
 _atom_site_fract_z
 _atom_site_occupancy
  Pr  Pr0  1  0.25000000  0.82246742  0.48167794  1
  Pr  Pr1  1  0.25000000  0.67753258  0.98167794  1
  Pr  Pr2  1  0.75000000  0.17753258  0.51832206  1
  Pr  Pr3  1  0.75000000  0.32246742  0.01832206  1
  Ge  Ge0  1  0.25000000  0.11034271  0.80599039  1
  Ge  Ge1  1  0.25000000  0.38965729  0.30599039  1
  Ge  Ge2  1  0.75000000  0.88965729  0.19400961  1
  Ge  Ge3  1  0.75000000  0.61034271  0.69400961  1
  Ir  Ir0  1  0.25000000  0.07247893  0.14417438  1
  Ir  Ir1  1  0.25000000  0.42752107  0.64417438  1
  Ir  Ir2  1  0.75000000  0.92752107  0.85582562  1
  Ir  Ir3  1  0.75000000  0.57247893  0.35582562  1
loop_
_geom_bond_atom_site_label_1
_geom_bond_atom_site_label_2
_geom_bond_distance
_geom_bond_site_symmetry_2
Ge0 Ir0 2.516543 1_556
Ge0 Ir1 2.594929 1_555
Ge0 Ir2 2.637077 1_445
Ge0 Ir2 2.637077 1_545
Ge0 Pr2 3.134110 1_455
Ge0 Pr2 3.134110 1_555
Ge0 Pr3 3.145606 1_456
Ge0 Pr3 3.145606 1_556
Ge0 Pr0 3.181418 1_545
Ge0 Pr1 3.399922 1_545
Ge1 Ir1 2.516543 1_555
Ge1 Ir0 2.594929 1_555
Ge1 Ir3 2.637077 1_455
Ge1 Ir3 2.637077 1_555
Ge1 Pr3 3.134110 1_455
Ge1 Pr3 3.134110 1_555
Ge1 Pr2 3.145606 1_455
Ge1 Pr2 3.145606 1_555
Ge1 Pr1 3.181418 1_554
Ge1 Pr0 3.399922 1_555
Ge2 Ir2 2.516543 1_554
Ge2 Ir3 2.594929 1_555
Ge2 Ir0 2.637077 1_665
Ge2 Ir0 2.637077 1_565
Ge2 Pr0 3.134110 1_655
Ge2 Pr0 3.134110 1_555
Ge2 Pr1 3.145606 1_654
Ge2 Pr1 3.145606 1_554
Ge2 Pr2 3.181418 1_565
Ge2 Pr3 3.399922 1_565
Ge3 Ir3 2.516543 1_555
Ge3 Ir2 2.594929 1_555
Ge3 Ir1 2.637077 1_555
Ge3 Ir1 2.637077 1_655
Ge3 Pr1 3.134110 1_555
Ge3 Pr1 3.134110 1_655
Ge3 Pr0 3.145606 1_555
Ge3 Pr0 3.145606 1_655
Ge3 Pr3 3.181418 1_556
Ge3 Pr2 3.399922 1_555
Ir0 Pr3 3.035901 1_455
Ir0 Pr3 3.035901 1_555
Ir0 Pr0 3.086406 1_545
Ir0 Pr1 3.108680 1_544
Ir1 Pr2 3.035901 1_455
Ir1 Pr2 3.035901 1_555
Ir1 Pr1 3.086406 1_555
Ir1 Pr0 3.108680 1_555
Ir2 Pr1 3.035901 1_655
Ir2 Pr1 3.035901 1_555
Ir2 Pr2 3.086406 1_565
Ir2 Pr3 3.108680 1_566
Ir3 Pr0 3.035901 1_555
Ir3 Pr0 3.035901 1_655
Ir3 Pr3 3.086406 1_555
Ir3 Pr2 3.108680 1_555
