# generated using pymatgen
data_MgPt7
_symmetry_space_group_name_H-M   'P 1'
_cell_length_a   5.56708474
_cell_length_b   5.56708617
_cell_length_c   5.56708617
_cell_angle_alpha   59.99999992
_cell_angle_beta   59.99999996
_cell_angle_gamma   59.99999996
_symmetry_Int_Tables_number   1
_chemical_formula_structural   MgPt7
_chemical_formula_sum   'Mg1 Pt7'
_cell_volume   122.00249753
_cell_formula_units_Z   1
loop_
 _symmetry_equiv_pos_site_id
 _symmetry_equiv_pos_as_xyz
  1  'x, y, z'
loop_
 _atom_site_type_symbol
 _atom_site_label
 _atom_site_symmetry_multiplicity
 _atom_site_fract_x
 _atom_site_fract_y
 _atom_site_fract_z
 _atom_site_occupancy
  Mg  Mg0  1  0.00000000  -0.00000000  -0.00000000  1
  Pt  Pt0  1  -0.00000000  -0.00000000  0.50000000  1
  Pt  Pt1  1  0.50000000  0.50000000  0.00000000  1
  Pt  Pt2  1  0.00000000  0.50000000  -0.00000000  1
  Pt  Pt3  1  0.50000000  0.00000000  0.50000000  1
  Pt  Pt4  1  0.50000000  -0.00000000  0.00000000  1
  Pt  Pt5  1  -0.00000000  0.50000000  0.50000000  1
  Pt  Pt6  1  0.50000000  0.50000000  0.50000000  1
loop_
_geom_bond_atom_site_label_1
_geom_bond_atom_site_label_2
_geom_bond_distance
_geom_bond_site_symmetry_2
Mg0 Pt4 2.783542 1_455
Mg0 Pt4 2.783542 1_555
Mg0 Pt1 2.783543 1_545
Mg0 Pt3 2.783543 1_554
Mg0 Pt1 2.783543 1_455
Mg0 Pt3 2.783543 1_455
Mg0 Pt5 2.783543 1_545
Mg0 Pt5 2.783543 1_554
Mg0 Pt2 2.783543 1_555
Mg0 Pt0 2.783543 1_555
Mg0 Pt2 2.783543 1_545
Mg0 Pt0 2.783543 1_554
Pt0 Pt6 2.783543 1_455
Pt0 Pt6 2.783543 1_545
Pt1 Pt6 2.783543 1_555
Pt1 Pt6 2.783543 1_554
Pt2 Pt6 2.783543 1_554
Pt2 Pt6 2.783543 1_455
Pt3 Pt6 2.783543 1_545
Pt3 Pt6 2.783543 1_555
Pt4 Pt6 2.783543 1_554
Pt4 Pt6 2.783543 1_545
Pt5 Pt6 2.783542 1_455
Pt5 Pt6 2.783542 1_555
