# generated using pymatgen
data_LaAl4
_symmetry_space_group_name_H-M   'P 1'
_cell_length_a   8.87780190
_cell_length_b   8.87780190
_cell_length_c   8.87780190
_cell_angle_alpha   151.46925134
_cell_angle_beta   102.29925728
_cell_angle_gamma   84.74556883
_symmetry_Int_Tables_number   1
_chemical_formula_structural   LaAl4
_chemical_formula_sum   'La3 Al12'
_cell_volume   319.61016736
_cell_formula_units_Z   3
loop_
 _symmetry_equiv_pos_site_id
 _symmetry_equiv_pos_as_xyz
  1  'x, y, z'
loop_
 _atom_site_type_symbol
 _atom_site_label
 _atom_site_symmetry_multiplicity
 _atom_site_fract_x
 _atom_site_fract_y
 _atom_site_fract_z
 _atom_site_occupancy
  La  La0  1  0.00962600  0.00000000  0.00962600  1
  La  La1  1  0.32897200  0.33258500  0.99638700  1
  La  La2  1  0.66380200  0.66741500  0.99638700  1
  Al  Al0  1  0.60858600  0.00000000  0.60858600  1
  Al  Al1  1  0.37869200  0.00000000  0.37869200  1
  Al  Al2  1  0.24816500  0.50000000  0.74816500  1
  Al  Al3  1  0.74551000  0.50000000  0.24551000  1
  Al  Al4  1  0.59195400  0.83927600  0.75267800  1
  Al  Al5  1  0.91340300  0.16072400  0.75267800  1
  Al  Al6  1  0.29017500  0.67066100  0.61951400  1
  Al  Al7  1  0.94885300  0.32933900  0.61951400  1
  Al  Al8  1  0.05028700  0.66129800  0.38898900  1
  Al  Al9  1  0.72769000  0.33870200  0.38898900  1
  Al  Al10  1  0.07922600  0.82658400  0.25264300  1
  Al  Al11  1  0.42605900  0.17341600  0.25264300  1
loop_
_geom_bond_atom_site_label_1
_geom_bond_atom_site_label_2
_geom_bond_distance
_geom_bond_site_symmetry_2
Al0 Al1 2.560534 1_555
Al0 Al4 2.649622 1_545
Al0 Al5 2.649630 1_555
Al0 Al3 2.666720 1_545
Al0 Al3 2.666720 1_556
Al0 La1 3.342143 1_555
Al0 La1 3.342143 1_544
Al0 La2 3.342143 1_555
Al0 La2 3.342143 1_544
Al1 Al2 2.626624 1_544
Al1 Al2 2.626624 1_555
Al1 Al11 2.673118 1_555
Al1 Al10 2.673127 1_545
Al1 La1 3.365511 1_555
Al1 La2 3.365511 1_555
Al1 La1 3.365511 1_544
Al1 La2 3.365511 1_544
Al2 Al6 2.657944 1_555
Al2 Al7 2.657944 1_455
Al2 La0 3.441559 1_555
Al2 La0 3.441559 1_566
Al2 La2 3.530727 1_555
Al2 La1 3.530727 1_555
Al3 Al8 2.651496 1_655
Al3 Al9 2.651498 1_555
Al3 La1 3.538591 1_554
Al3 La2 3.538591 1_554
Al3 La0 3.665952 1_655
Al3 La0 3.665952 1_666
Al4 Al9 2.662827 1_555
Al4 Al9 2.662830 1_566
Al4 Al6 2.663044 1_555
Al4 La2 3.528481 1_555
Al4 La0 3.554587 1_666
Al4 La1 3.597463 1_565
Al4 La1 3.597463 1_554
Al5 Al8 2.662827 1_645
Al5 Al8 2.662830 1_656
Al5 Al7 2.663042 1_555
Al5 La1 3.528472 1_655
Al5 La0 3.554586 1_656
Al5 La2 3.597466 1_544
Al5 La2 3.597469 1_555
Al6 Al8 2.570498 1_555
Al6 La1 3.343318 1_565
Al6 La1 3.343318 1_554
Al6 La0 3.360815 1_566
Al6 La0 3.360815 1_555
Al7 Al9 2.570503 1_555
Al7 La2 3.343318 1_555
Al7 La2 3.343318 1_544
Al7 La0 3.360815 1_655
Al7 La0 3.360815 1_666
Al8 La0 3.326810 1_555
Al8 La0 3.326810 1_566
Al8 La1 3.356306 1_565
Al8 La1 3.356306 1_554
Al9 La0 3.326815 1_666
Al9 La0 3.326818 1_655
Al9 La2 3.356302 1_555
Al9 La2 3.356305 1_544
Al10 Al7 2.643017 1_465
Al10 Al7 2.643021 1_454
Al10 Al8 2.647058 1_555
Al10 La1 3.487400 1_565
Al10 La1 3.487402 1_554
Al10 La0 3.535644 1_565
Al10 La2 3.536295 1_454
Al11 Al6 2.643022 1_555
Al11 Al6 2.643022 1_544
Al11 Al9 2.647051 1_555
Al11 La2 3.487397 1_555
Al11 La2 3.487397 1_544
Al11 La0 3.535644 1_555
Al11 La1 3.536303 1_554
