# generated using pymatgen
data_BaEuYSnO6
_symmetry_space_group_name_H-M   'P 1'
_cell_length_a   8.52292465
_cell_length_b   8.44707683
_cell_length_c   8.58776989
_cell_angle_alpha   90.00000000
_cell_angle_beta   90.00000000
_cell_angle_gamma   90.00000000
_symmetry_Int_Tables_number   1
_chemical_formula_structural   BaEuYSnO6
_chemical_formula_sum   'Ba4 Eu4 Y4 Sn4 O24'
_cell_volume   618.26618219
_cell_formula_units_Z   4
loop_
 _symmetry_equiv_pos_site_id
 _symmetry_equiv_pos_as_xyz
  1  'x, y, z'
loop_
 _atom_site_type_symbol
 _atom_site_label
 _atom_site_symmetry_multiplicity
 _atom_site_fract_x
 _atom_site_fract_y
 _atom_site_fract_z
 _atom_site_occupancy
  Ba  Ba0  1  0.00000000  -0.00000000  0.00000000  1
  Ba  Ba1  1  0.50000000  0.50000000  0.50000000  1
  Ba  Ba2  1  0.00000000  0.50000000  0.50000000  1
  Ba  Ba3  1  0.50000000  -0.00000000  0.00000000  1
  Eu  Eu0  1  0.50000000  -0.00000000  0.50000000  1
  Eu  Eu1  1  0.50000000  0.50000000  0.00000000  1
  Eu  Eu2  1  0.00000000  0.50000000  0.00000000  1
  Eu  Eu3  1  0.00000000  -0.00000000  0.50000000  1
  Y  Y0  1  0.25000000  0.25000000  0.25000000  1
  Y  Y1  1  0.75000000  0.75000000  0.25000000  1
  Y  Y2  1  0.75000000  0.25000000  0.75000000  1
  Y  Y3  1  0.25000000  0.75000000  0.75000000  1
  Sn  Sn0  1  0.75000000  0.75000000  0.75000000  1
  Sn  Sn1  1  0.25000000  0.25000000  0.75000000  1
  Sn  Sn2  1  0.25000000  0.75000000  0.25000000  1
  Sn  Sn3  1  0.75000000  0.25000000  0.25000000  1
  O  O0  1  0.99097611  0.19939948  0.29793158  1
  O  O1  1  0.00902389  0.80060052  0.29793158  1
  O  O2  1  0.00902389  0.19939948  0.70206842  1
  O  O3  1  0.99097611  0.80060052  0.70206842  1
  O  O4  1  0.28204105  0.98990506  0.21874129  1
  O  O5  1  0.28204105  0.01009494  0.78125871  1
  O  O6  1  0.71795895  0.01009494  0.21874129  1
  O  O7  1  0.71795895  0.98990506  0.78125871  1
  O  O8  1  0.19843769  0.29552517  0.99128490  1
  O  O9  1  0.80156231  0.29552517  0.00871510  1
  O  O10  1  0.19843769  0.70447483  0.00871510  1
  O  O11  1  0.80156231  0.70447483  0.99128490  1
  O  O12  1  0.50902389  0.30060052  0.20206842  1
  O  O13  1  0.49097611  0.69939948  0.20206842  1
  O  O14  1  0.49097611  0.30060052  0.79793158  1
  O  O15  1  0.50902389  0.69939948  0.79793158  1
  O  O16  1  0.21795895  0.51009494  0.28125871  1
  O  O17  1  0.21795895  0.48990506  0.71874129  1
  O  O18  1  0.78204105  0.48990506  0.28125871  1
  O  O19  1  0.78204105  0.51009494  0.71874129  1
  O  O20  1  0.30156231  0.20447483  0.50871510  1
  O  O21  1  0.69843769  0.20447483  0.49128490  1
  O  O22  1  0.30156231  0.79552517  0.49128490  1
  O  O23  1  0.69843769  0.79552517  0.50871510  1
loop_
_geom_bond_atom_site_label_1
_geom_bond_atom_site_label_2
_geom_bond_distance
_geom_bond_site_symmetry_2
Ba0 O10 3.016227 1_545
Ba0 O8 3.016227 1_554
Ba0 O11 3.016227 1_444
Ba0 O9 3.016227 1_455
Ba0 O5 3.051943 1_554
Ba0 O7 3.051943 1_444
Ba0 O6 3.051943 1_455
Ba0 O4 3.051943 1_545
Ba0 O2 3.064179 1_554
Ba0 O1 3.064179 1_545
Ba0 O0 3.064179 1_455
Ba0 O3 3.064179 1_444
Ba1 O20 3.016227 1_555
Ba1 O23 3.016227 1_555
Ba1 O21 3.016227 1_555
Ba1 O22 3.016227 1_555
Ba1 O17 3.051943 1_555
Ba1 O18 3.051943 1_555
Ba1 O19 3.051943 1_555
Ba1 O16 3.051943 1_555
Ba1 O14 3.064179 1_555
Ba1 O15 3.064179 1_555
Ba1 O12 3.064179 1_555
Ba1 O13 3.064179 1_555
Ba2 O16 2.643272 1_555
Ba2 O17 2.643272 1_555
Ba2 O18 2.643272 1_455
Ba2 O19 2.643272 1_455
Ba2 O2 3.076484 1_555
Ba2 O1 3.076484 1_555
Ba2 O0 3.076484 1_455
Ba2 O3 3.076484 1_455
Ba3 O5 2.643272 1_554
Ba3 O7 2.643272 1_544
Ba3 O6 2.643272 1_555
Ba3 O4 2.643272 1_545
Ba3 O14 3.076484 1_554
Ba3 O12 3.076484 1_555
Ba3 O13 3.076484 1_545
Ba3 O15 3.076484 1_544
Eu0 O20 2.418525 1_555
Eu0 O22 2.418525 1_545
Eu0 O21 2.418525 1_555
Eu0 O23 2.418525 1_545
Eu0 O6 3.048313 1_555
Eu0 O5 3.048313 1_555
Eu0 O7 3.048313 1_545
Eu0 O4 3.048313 1_545
Eu1 O13 2.419556 1_555
Eu1 O15 2.419556 1_554
Eu1 O12 2.419556 1_555
Eu1 O14 2.419556 1_554
Eu2 O10 2.418525 1_555
Eu2 O11 2.418525 1_454
Eu2 O8 2.418525 1_554
Eu2 O9 2.418525 1_455
Eu2 O17 3.048313 1_554
Eu2 O18 3.048313 1_455
Eu2 O19 3.048313 1_454
Eu2 O16 3.048313 1_555
Eu3 O3 2.419556 1_445
Eu3 O1 2.419556 1_545
Eu3 O2 2.419556 1_555
Eu3 O0 2.419556 1_455
O0 Sn3 2.137828 1_555
O0 Y0 2.286003 1_655
O1 Sn2 2.137828 1_555
O1 Y1 2.286003 1_455
O2 Sn1 2.137828 1_555
O2 Y2 2.286003 1_455
O3 Sn0 2.137828 1_555
O3 Y3 2.286003 1_655
O4 Sn2 2.062359 1_555
O4 Y0 2.230164 1_565
O5 Sn1 2.062359 1_555
O5 Y3 2.230164 1_545
O6 Sn3 2.062359 1_555
O6 Y1 2.230164 1_545
O7 Sn0 2.062359 1_555
O7 Y2 2.230164 1_565
O8 Sn1 2.152813 1_555
O8 Y0 2.297246 1_556
O9 Sn3 2.152813 1_555
O9 Y2 2.297246 1_554
O10 Sn2 2.152813 1_555
O10 Y3 2.297246 1_554
O11 Sn0 2.152813 1_555
O11 Y1 2.297246 1_556
O12 Sn3 2.137828 1_555
O12 Y0 2.286003 1_555
O13 Sn2 2.137828 1_555
O13 Y1 2.286003 1_555
O14 Sn1 2.137828 1_555
O14 Y2 2.286003 1_555
O15 Sn0 2.137828 1_555
O15 Y3 2.286003 1_555
O16 Sn2 2.062359 1_555
O16 Y0 2.230164 1_555
O17 Sn1 2.062359 1_555
O17 Y3 2.230164 1_555
O18 Sn3 2.062359 1_555
O18 Y1 2.230164 1_555
O19 Sn0 2.062359 1_555
O19 Y2 2.230164 1_555
O20 Sn1 2.152813 1_555
O20 Y0 2.297246 1_555
O21 Sn3 2.152813 1_555
O21 Y2 2.297246 1_555
O22 Sn2 2.152813 1_555
O22 Y3 2.297246 1_555
O23 Sn0 2.152813 1_555
O23 Y1 2.297246 1_555
