# generated using pymatgen
data_Y2Si3(WO4)3
_symmetry_space_group_name_H-M   'P 1'
_cell_length_a   11.10665976
_cell_length_b   11.10665976
_cell_length_c   11.10665976
_cell_angle_alpha   109.47122063
_cell_angle_beta   109.47122063
_cell_angle_gamma   109.47122063
_symmetry_Int_Tables_number   1
_chemical_formula_structural   Y2Si3(WO4)3
_chemical_formula_sum   'Y8 Si12 W12 O48'
_cell_volume   1054.69894755
_cell_formula_units_Z   4
loop_
 _symmetry_equiv_pos_site_id
 _symmetry_equiv_pos_as_xyz
  1  'x, y, z'
loop_
 _atom_site_type_symbol
 _atom_site_label
 _atom_site_symmetry_multiplicity
 _atom_site_fract_x
 _atom_site_fract_y
 _atom_site_fract_z
 _atom_site_occupancy
  Y  Y0  1  0.00000000  0.00000000  0.00000000  1
  Y  Y1  1  0.50000000  0.00000000  0.00000000  1
  Y  Y2  1  0.50000000  0.50000000  0.00000000  1
  Y  Y3  1  0.00000000  0.50000000  0.50000000  1
  Y  Y4  1  0.00000000  0.00000000  0.50000000  1
  Y  Y5  1  0.50000000  0.50000000  0.50000000  1
  Y  Y6  1  0.00000000  0.50000000  0.00000000  1
  Y  Y7  1  0.50000000  0.00000000  0.50000000  1
  Si  Si0  1  0.12500000  0.75000000  0.87500000  1
  Si  Si1  1  0.75000000  0.87500000  0.12500000  1
  Si  Si2  1  0.25000000  0.62500000  0.37500000  1
  Si  Si3  1  0.62500000  0.75000000  0.37500000  1
  Si  Si4  1  0.87500000  0.12500000  0.75000000  1
  Si  Si5  1  0.37500000  0.25000000  0.62500000  1
  Si  Si6  1  0.37500000  0.62500000  0.75000000  1
  Si  Si7  1  0.25000000  0.12500000  0.87500000  1
  Si  Si8  1  0.62500000  0.37500000  0.25000000  1
  Si  Si9  1  0.12500000  0.87500000  0.25000000  1
  Si  Si10  1  0.75000000  0.37500000  0.62500000  1
  Si  Si11  1  0.87500000  0.25000000  0.12500000  1
  W  W0  1  0.87500000  0.75000000  0.62500000  1
  W  W1  1  0.87500000  0.62500000  0.25000000  1
  W  W2  1  0.62500000  0.87500000  0.75000000  1
  W  W3  1  0.25000000  0.87500000  0.62500000  1
  W  W4  1  0.75000000  0.62500000  0.87500000  1
  W  W5  1  0.62500000  0.25000000  0.87500000  1
  W  W6  1  0.12500000  0.25000000  0.37500000  1
  W  W7  1  0.12500000  0.37500000  0.75000000  1
  W  W8  1  0.37500000  0.12500000  0.25000000  1
  W  W9  1  0.75000000  0.12500000  0.37500000  1
  W  W10  1  0.25000000  0.37500000  0.12500000  1
  W  W11  1  0.37500000  0.75000000  0.12500000  1
  O  O0  1  0.58339000  0.88018600  0.37170300  1
  O  O1  1  0.37170300  0.58339000  0.88018600  1
  O  O2  1  0.28831300  0.29679600  0.91661000  1
  O  O3  1  0.49151700  0.61981300  0.20320400  1
  O  O4  1  0.29679600  0.88018600  0.00848300  1
  O  O5  1  0.12829700  0.00848300  0.21168700  1
  O  O6  1  0.37170300  0.28831300  0.49151700  1
  O  O7  1  0.88018600  0.37170300  0.58339000  1
  O  O8  1  0.20320400  0.21168700  0.58339000  1
  O  O9  1  0.49151700  0.37170300  0.28831300  1
  O  O10  1  0.88018600  0.00848300  0.29679600  1
  O  O11  1  0.61981400  0.91661000  0.12829700  1
  O  O12  1  0.91661000  0.12829700  0.61981400  1
  O  O13  1  0.28831300  0.49151700  0.37170300  1
  O  O14  1  0.58339000  0.20320400  0.21168700  1
  O  O15  1  0.21168700  0.58339000  0.20320400  1
  O  O16  1  0.00848300  0.29679600  0.88018700  1
  O  O17  1  0.91661000  0.28831300  0.29679600  1
  O  O18  1  0.00848300  0.21168700  0.12829700  1
  O  O19  1  0.79679600  0.78831300  0.41661000  1
  O  O20  1  0.29679600  0.91661000  0.28831300  1
  O  O21  1  0.61981400  0.20320400  0.49151700  1
  O  O22  1  0.21168700  0.12829700  0.00848300  1
  O  O23  1  0.12829700  0.61981300  0.91661000  1
  O  O24  1  0.41661000  0.11981300  0.62829700  1
  O  O25  1  0.62829700  0.41661000  0.11981400  1
  O  O26  1  0.71168700  0.70320400  0.08339000  1
  O  O27  1  0.50848300  0.38018600  0.79679600  1
  O  O28  1  0.70320400  0.11981300  0.99151700  1
  O  O29  1  0.87170300  0.99151700  0.78831300  1
  O  O30  1  0.62829700  0.71168700  0.50848300  1
  O  O31  1  0.11981400  0.62829700  0.41661000  1
  O  O32  1  0.87170300  0.38018600  0.08339000  1
  O  O33  1  0.78831300  0.87170300  0.99151700  1
  O  O34  1  0.38018600  0.79679600  0.50848300  1
  O  O35  1  0.70320400  0.08339000  0.71168700  1
  O  O36  1  0.79679600  0.50848300  0.38018600  1
  O  O37  1  0.99151700  0.78831300  0.87170300  1
  O  O38  1  0.08339000  0.71168700  0.70320400  1
  O  O39  1  0.99151700  0.70320400  0.11981400  1
  O  O40  1  0.78831300  0.41661000  0.79679600  1
  O  O41  1  0.41661000  0.79679600  0.78831300  1
  O  O42  1  0.71168700  0.50848300  0.62829700  1
  O  O43  1  0.08339000  0.87170300  0.38018600  1
  O  O44  1  0.38018600  0.08339000  0.87170300  1
  O  O45  1  0.11981400  0.99151700  0.70320400  1
  O  O46  1  0.50848300  0.62829700  0.71168700  1
  O  O47  1  0.20320400  0.49151700  0.61981300  1
loop_
_geom_bond_atom_site_label_1
_geom_bond_atom_site_label_2
_geom_bond_distance
_geom_bond_site_symmetry_2
O0 Si3 1.665877 1_555
O0 Y7 2.257546 1_565
O0 W11 2.419766 1_555
O0 W9 2.711641 1_565
O1 Si6 1.665877 1_555
O1 Y2 2.257546 1_556
O1 W7 2.419766 1_555
O1 W11 2.711641 1_556
O2 Si7 1.665877 1_555
O2 Y2 2.257546 1_556
O2 W10 2.419766 1_556
O2 W7 2.711641 1_555
O3 Si3 1.665879 1_555
O3 Y2 2.257543 1_555
O3 W11 2.419776 1_555
O3 W10 2.711635 1_555
O4 Si0 1.665877 1_554
O4 Y1 2.257546 1_565
O4 W11 2.419766 1_555
O4 W8 2.711641 1_565
O5 Si9 1.665877 1_545
O5 Y0 2.257546 1_555
O5 W8 2.419766 1_555
O5 W6 2.711641 1_555
O6 Si5 1.665877 1_555
O6 Y5 2.257546 1_555
O6 W6 2.419766 1_555
O6 W8 2.711641 1_555
O7 Si10 1.665877 1_555
O7 Y3 2.257546 1_655
O7 W9 2.419766 1_555
O7 W7 2.711641 1_655
O8 Si5 1.665877 1_555
O8 Y4 2.257546 1_555
O8 W6 2.419766 1_555
O8 W7 2.711641 1_555
O9 Si8 1.665877 1_555
O9 Y5 2.257546 1_555
O9 W8 2.419766 1_555
O9 W10 2.711641 1_555
O10 Si1 1.665877 1_545
O10 Y4 2.257546 1_655
O10 W9 2.419766 1_555
O10 W6 2.711641 1_655
O11 Si1 1.665877 1_555
O11 Y1 2.257546 1_565
O11 W9 2.419766 1_565
O11 W11 2.711641 1_555
O12 Si4 1.665877 1_555
O12 Y4 2.257546 1_655
O12 W7 2.419766 1_655
O12 W9 2.711641 1_555
O13 Si2 1.665877 1_555
O13 Y5 2.257546 1_555
O13 W10 2.419766 1_555
O13 W6 2.711641 1_555
O14 Si8 1.665877 1_555
O14 Y1 2.257546 1_555
O14 W8 2.419766 1_555
O14 W9 2.711641 1_555
O15 Si2 1.665877 1_555
O15 Y6 2.257546 1_555
O15 W10 2.419766 1_555
O15 W11 2.711641 1_555
O16 Si4 1.665879 1_455
O16 Y6 2.257543 1_556
O16 W7 2.419776 1_555
O16 W10 2.711635 1_556
O17 Si11 1.665877 1_555
O17 Y3 2.257546 1_655
O17 W6 2.419766 1_655
O17 W9 2.711641 1_555
O18 Si11 1.665877 1_455
O18 Y0 2.257546 1_555
O18 W6 2.419766 1_555
O18 W10 2.711641 1_555
O19 Si3 1.665877 1_555
O19 Y4 2.257546 1_665
O19 W0 2.419766 1_555
O19 W1 2.711641 1_555
O20 Si9 1.665877 1_555
O20 Y7 2.257546 1_565
O20 W8 2.419766 1_565
O20 W11 2.711641 1_555
O21 Si10 1.665877 1_555
O21 Y7 2.257546 1_555
O21 W9 2.419766 1_555
O21 W8 2.711641 1_555
O22 Si7 1.665877 1_554
O22 Y0 2.257546 1_555
O22 W10 2.419766 1_555
O22 W8 2.711641 1_555
O23 Si0 1.665888 1_555
O23 Y6 2.257541 1_556
O23 W11 2.419765 1_556
O23 W7 2.711633 1_555
O24 Si5 1.665888 1_555
O24 Y7 2.257541 1_555
O24 W5 2.419765 1_555
O24 W3 2.711633 1_545
O25 Si8 1.665877 1_555
O25 Y2 2.257546 1_555
O25 W1 2.419766 1_555
O25 W5 2.711641 1_554
O26 Si1 1.665877 1_555
O26 Y2 2.257546 1_555
O26 W4 2.419766 1_554
O26 W1 2.711641 1_555
O27 Si5 1.665877 1_555
O27 Y2 2.257546 1_556
O27 W5 2.419766 1_555
O27 W4 2.711641 1_555
O28 Si11 1.665879 1_556
O28 Y1 2.257543 1_556
O28 W5 2.419776 1_555
O28 W2 2.711635 1_545
O29 Si4 1.665877 1_565
O29 Y0 2.257546 1_666
O29 W2 2.419766 1_555
O29 W0 2.711641 1_555
O30 Si3 1.665877 1_555
O30 Y5 2.257546 1_555
O30 W0 2.419766 1_555
O30 W2 2.711641 1_555
O31 Si2 1.665877 1_555
O31 Y3 2.257546 1_555
O31 W3 2.419766 1_555
O31 W1 2.711641 1_455
O32 Si11 1.665877 1_555
O32 Y6 2.257546 1_655
O32 W5 2.419766 1_554
O32 W1 2.711641 1_555
O33 Si1 1.665877 1_556
O33 Y0 2.257546 1_666
O33 W4 2.419766 1_555
O33 W2 2.711641 1_555
O34 Si2 1.665877 1_555
O34 Y7 2.257546 1_565
O34 W3 2.419766 1_555
O34 W2 2.711641 1_555
O35 Si4 1.665877 1_555
O35 Y7 2.257546 1_555
O35 W2 2.419766 1_545
O35 W5 2.711641 1_555
O36 Si8 1.665877 1_555
O36 Y3 2.257546 1_655
O36 W1 2.419766 1_555
O36 W0 2.711641 1_555
O37 Si0 1.665877 1_655
O37 Y0 2.257546 1_666
O37 W0 2.419766 1_555
O37 W4 2.711641 1_555
O38 Si0 1.665877 1_555
O38 Y3 2.257546 1_555
O38 W0 2.419766 1_455
O38 W3 2.711641 1_555
O39 Si9 1.665877 1_655
O39 Y6 2.257546 1_655
O39 W1 2.419766 1_555
O39 W4 2.711641 1_554
O40 Si10 1.665877 1_555
O40 Y6 2.257546 1_656
O40 W4 2.419766 1_555
O40 W5 2.711641 1_555
O41 Si6 1.665877 1_555
O41 Y1 2.257546 1_566
O41 W2 2.419766 1_555
O41 W3 2.711641 1_555
O42 Si10 1.665877 1_555
O42 Y5 2.257546 1_555
O42 W4 2.419766 1_555
O42 W0 2.711641 1_555
O43 Si9 1.665877 1_555
O43 Y4 2.257546 1_565
O43 W1 2.419766 1_455
O43 W3 2.711641 1_555
O44 Si7 1.665877 1_555
O44 Y1 2.257546 1_556
O44 W3 2.419766 1_545
O44 W5 2.711641 1_555
O45 Si7 1.665877 1_565
O45 Y4 2.257546 1_565
O45 W3 2.419766 1_555
O45 W0 2.711641 1_455
O46 Si6 1.665877 1_555
O46 Y5 2.257546 1_555
O46 W2 2.419766 1_555
O46 W4 2.711641 1_555
O47 Si6 1.665879 1_555
O47 Y3 2.257543 1_555
O47 W7 2.419776 1_555
O47 W6 2.711635 1_555
