# generated using pymatgen
data_LiPrNdO2
_symmetry_space_group_name_H-M   'P 1'
_cell_length_a   6.18314237
_cell_length_b   6.18314237
_cell_length_c   6.04662820
_cell_angle_alpha   36.29441326
_cell_angle_beta   36.29441326
_cell_angle_gamma   45.05534782
_symmetry_Int_Tables_number   1
_chemical_formula_structural   LiPrNdO2
_chemical_formula_sum   'Li1 Pr1 Nd1 O2'
_cell_volume   79.92718359
_cell_formula_units_Z   1
loop_
 _symmetry_equiv_pos_site_id
 _symmetry_equiv_pos_as_xyz
  1  'x, y, z'
loop_
 _atom_site_type_symbol
 _atom_site_label
 _atom_site_symmetry_multiplicity
 _atom_site_fract_x
 _atom_site_fract_y
 _atom_site_fract_z
 _atom_site_occupancy
  Li  Li0  1  0.00000000  0.00000000  0.50000000  1
  Pr  Pr0  1  0.50000000  0.50000000  0.50000000  1
  Nd  Nd0  1  0.00000000  0.00000000  0.00000000  1
  O  O0  1  0.25994400  0.25994400  0.25722500  1
  O  O1  1  0.74005600  0.74005600  0.74277500  1
loop_
_geom_bond_atom_site_label_1
_geom_bond_atom_site_label_2
_geom_bond_distance
_geom_bond_site_symmetry_2
Li0 O0 1.834326 1_555
Li0 O1 1.834326 1_445
Nd0 O1 2.390688 1_445
Nd0 O0 2.390688 1_554
Nd0 O1 2.847316 1_454
Nd0 O1 2.847316 1_544
Nd0 O0 2.847316 1_545
Nd0 O0 2.847316 1_455
O0 Pr0 2.563758 1_554
O1 Pr0 2.563758 1_556
