# generated using pymatgen
data_HfSiTe
_symmetry_space_group_name_H-M   'P 1'
_cell_length_a   3.65416812
_cell_length_b   3.65416812
_cell_length_c   10.16696008
_cell_angle_alpha   90.00000000
_cell_angle_beta   90.00000000
_cell_angle_gamma   90.00000000
_symmetry_Int_Tables_number   1
_chemical_formula_structural   HfSiTe
_chemical_formula_sum   'Hf2 Si2 Te2'
_cell_volume   135.75885520
_cell_formula_units_Z   2
loop_
 _symmetry_equiv_pos_site_id
 _symmetry_equiv_pos_as_xyz
  1  'x, y, z'
loop_
 _atom_site_type_symbol
 _atom_site_label
 _atom_site_symmetry_multiplicity
 _atom_site_fract_x
 _atom_site_fract_y
 _atom_site_fract_z
 _atom_site_occupancy
  Hf  Hf0  1  0.75000000  0.75000000  0.79433468  1
  Hf  Hf1  1  0.25000000  0.25000000  0.20566532  1
  Si  Si0  1  0.75000000  0.25000000  0.00000000  1
  Si  Si1  1  0.25000000  0.75000000  0.00000000  1
  Te  Te0  1  0.25000000  0.25000000  0.65844710  1
  Te  Te1  1  0.75000000  0.75000000  0.34155290  1
loop_
_geom_bond_atom_site_label_1
_geom_bond_atom_site_label_2
_geom_bond_distance
_geom_bond_site_symmetry_2
Hf0 Si0 2.776775 1_556
Hf0 Si1 2.776775 1_556
Hf0 Si1 2.776775 1_656
Hf0 Si0 2.776775 1_566
Hf0 Te0 2.930050 1_555
Hf0 Te0 2.930050 1_655
Hf0 Te0 2.930050 1_665
Hf0 Te0 2.930050 1_565
Hf1 Si0 2.776775 1_455
Hf1 Si0 2.776775 1_555
Hf1 Si1 2.776775 1_555
Hf1 Si1 2.776775 1_545
Hf1 Te1 2.930050 1_455
Hf1 Te1 2.930050 1_545
Hf1 Te1 2.930050 1_555
Hf1 Te1 2.930050 1_445
Si0 Si1 2.583887 1_555
Si0 Si1 2.583887 1_545
Si0 Si1 2.583887 1_655
Si0 Si1 2.583887 1_645
