# generated using pymatgen
data_La23Mg4Ir7
_symmetry_space_group_name_H-M   'P 1'
_cell_length_a   10.23051824
_cell_length_b   10.23051824
_cell_length_c   23.12602403
_cell_angle_alpha   90.00000000
_cell_angle_beta   90.00000000
_cell_angle_gamma   120.00000140
_symmetry_Int_Tables_number   1
_chemical_formula_structural   La23Mg4Ir7
_chemical_formula_sum   'La46 Mg8 Ir14'
_cell_volume   2096.17176058
_cell_formula_units_Z   2
loop_
 _symmetry_equiv_pos_site_id
 _symmetry_equiv_pos_as_xyz
  1  'x, y, z'
loop_
 _atom_site_type_symbol
 _atom_site_label
 _atom_site_symmetry_multiplicity
 _atom_site_fract_x
 _atom_site_fract_y
 _atom_site_fract_z
 _atom_site_occupancy
  La  La0  1  0.20792904  0.41585807  0.71840460  1
  La  La1  1  0.20792904  0.79207096  0.71840460  1
  La  La2  1  0.79207096  0.58414193  0.21840460  1
  La  La3  1  0.58414193  0.79207096  0.71840460  1
  La  La4  1  0.79207096  0.20792904  0.21840460  1
  La  La5  1  0.41585807  0.20792904  0.21840460  1
  La  La6  1  0.79230232  0.58460464  0.94846782  1
  La  La7  1  0.79230232  0.20769768  0.94846782  1
  La  La8  1  0.20769768  0.41539536  0.44846782  1
  La  La9  1  0.41539536  0.20769768  0.94846782  1
  La  La10  1  0.20769768  0.79230232  0.44846782  1
  La  La11  1  0.58460464  0.79230232  0.44846782  1
  La  La12  1  0.20928590  0.41857180  0.99099036  1
  La  La13  1  0.20928590  0.79071410  0.99099036  1
  La  La14  1  0.79071410  0.58142820  0.49099036  1
  La  La15  1  0.58142820  0.79071410  0.99099036  1
  La  La16  1  0.79071410  0.20928590  0.49099036  1
  La  La17  1  0.41857180  0.20928590  0.49099036  1
  La  La18  1  0.87151331  0.74302661  0.63423934  1
  La  La19  1  0.87151331  0.12848669  0.63423934  1
  La  La20  1  0.12848669  0.25697339  0.13423934  1
  La  La21  1  0.25697339  0.12848669  0.63423934  1
  La  La22  1  0.12848669  0.87151331  0.13423934  1
  La  La23  1  0.74302661  0.87151331  0.13423934  1
  La  La24  1  0.45969399  0.91938797  0.85588804  1
  La  La25  1  0.45969399  0.54030601  0.85588804  1
  La  La26  1  0.54030601  0.08061203  0.35588804  1
  La  La27  1  0.08061203  0.54030601  0.85588804  1
  La  La28  1  0.54030601  0.45969399  0.35588804  1
  La  La29  1  0.91938797  0.45969399  0.35588804  1
  La  La30  1  0.00000000  -0.00000000  0.00143368  1
  La  La31  1  0.00000000  -0.00000000  0.50143368  1
  La  La32  1  0.45988681  0.91977363  0.58567756  1
  La  La33  1  0.45988681  0.54011319  0.58567756  1
  La  La34  1  0.54011319  0.08022637  0.08567756  1
  La  La35  1  0.08022637  0.54011319  0.58567756  1
  La  La36  1  0.54011319  0.45988681  0.08567756  1
  La  La37  1  0.91977363  0.45988681  0.08567756  1
  La  La38  1  0.79350435  0.58700869  0.78117440  1
  La  La39  1  0.79350435  0.20649565  0.78117440  1
  La  La40  1  0.20649565  0.41299131  0.28117440  1
  La  La41  1  0.41299131  0.20649565  0.78117440  1
  La  La42  1  0.20649565  0.79350435  0.28117440  1
  La  La43  1  0.58700869  0.79350435  0.28117440  1
  La  La44  1  0.66666700  0.33333300  0.64637704  1
  La  La45  1  0.33333300  0.66666700  0.14637704  1
  Mg  Mg0  1  0.00000000  -0.00000000  0.75049207  1
  Mg  Mg1  1  0.00000000  -0.00000000  0.25049207  1
  Mg  Mg2  1  0.10550115  0.21100229  0.86277374  1
  Mg  Mg3  1  0.10550115  0.89449885  0.86277374  1
  Mg  Mg4  1  0.89449885  0.78899771  0.36277374  1
  Mg  Mg5  1  0.78899771  0.89449885  0.86277374  1
  Mg  Mg6  1  0.89449885  0.10550115  0.36277374  1
  Mg  Mg7  1  0.21100229  0.10550115  0.36277374  1
  Ir  Ir0  1  0.52013044  0.04026088  0.71002819  1
  Ir  Ir1  1  0.52013044  0.47986956  0.71002819  1
  Ir  Ir2  1  0.47986956  0.95973912  0.21002819  1
  Ir  Ir3  1  0.95973912  0.47986956  0.71002819  1
  Ir  Ir4  1  0.47986956  0.52013044  0.21002819  1
  Ir  Ir5  1  0.04026088  0.52013044  0.21002819  1
  Ir  Ir6  1  0.66666700  0.33333300  0.86521421  1
  Ir  Ir7  1  0.33333300  0.66666700  0.36521421  1
  Ir  Ir8  1  0.14417812  0.28835623  0.56342361  1
  Ir  Ir9  1  0.14417812  0.85582188  0.56342361  1
  Ir  Ir10  1  0.85582188  0.71164377  0.06342361  1
  Ir  Ir11  1  0.71164377  0.85582188  0.56342361  1
  Ir  Ir12  1  0.85582188  0.14417812  0.06342361  1
  Ir  Ir13  1  0.28835623  0.14417812  0.06342361  1
loop_
_geom_bond_atom_site_label_1
_geom_bond_atom_site_label_2
_geom_bond_distance
_geom_bond_site_symmetry_2
La0 Mg0 3.758439 1_555
La0 Mg2 3.800136 1_555
La1 Mg0 3.758439 1_565
La1 Mg3 3.800136 1_555
La2 Mg1 3.758439 1_665
La2 Mg4 3.800136 1_555
La3 Mg0 3.758439 1_665
La3 Mg5 3.800136 1_555
La4 Mg1 3.758439 1_655
La4 Mg6 3.800136 1_555
La5 Mg1 3.758439 1_555
La5 Mg7 3.800136 1_555
La6 Mg3 3.753267 1_655
La6 Mg5 3.753267 1_555
La7 Mg2 3.753267 1_655
La7 Mg5 3.753267 1_545
La8 Mg6 3.753267 1_455
La8 Mg7 3.753267 1_555
La9 Mg3 3.753267 1_545
La9 Mg2 3.753267 1_555
La10 Mg7 3.753267 1_565
La10 Mg4 3.753267 1_455
La11 Mg6 3.753267 1_565
La11 Mg4 3.753267 1_555
La12 Mg2 3.489146 1_555
La13 Mg3 3.489146 1_555
La14 Mg4 3.489146 1_555
La15 Mg5 3.489146 1_555
La16 Mg6 3.489146 1_555
La17 Mg7 3.489146 1_555
La18 Mg0 3.522989 1_665
La19 Mg0 3.522989 1_655
La20 Mg1 3.522989 1_555
La21 Mg0 3.522989 1_555
La22 Mg1 3.522989 1_565
La23 Mg1 3.522989 1_665
La24 Mg3 3.506826 1_555
La24 Mg5 3.506826 1_555
La25 Mg2 3.506826 1_555
La25 Mg5 3.506826 1_555
La26 Mg6 3.506826 1_555
La26 Mg7 3.506826 1_555
La27 Mg3 3.506826 1_555
La27 Mg2 3.506826 1_555
La28 Mg4 3.506826 1_555
La28 Mg7 3.506826 1_555
La29 Mg6 3.506826 1_555
La29 Mg4 3.506826 1_555
La30 Mg5 3.711805 1_444
La30 Mg2 3.711805 1_554
La30 Mg3 3.711805 1_544
La31 Mg7 3.711805 1_555
La31 Mg4 3.711805 1_445
La31 Mg6 3.711805 1_455
La38 Mg3 3.688380 1_655
La38 Mg5 3.688380 1_555
La38 Mg0 3.727221 1_665
La39 Mg2 3.688380 1_655
La39 Mg5 3.688380 1_545
La39 Mg0 3.727221 1_655
La40 Mg6 3.688380 1_455
La40 Mg7 3.688380 1_555
La40 Mg1 3.727221 1_555
La41 Mg3 3.688380 1_545
La41 Mg2 3.688380 1_555
La41 Mg0 3.727221 1_555
La42 Mg7 3.688380 1_565
La42 Mg4 3.688380 1_455
La42 Mg1 3.727221 1_565
La43 Mg6 3.688380 1_565
La43 Mg4 3.688380 1_555
La43 Mg1 3.727221 1_665
Mg0 Mg5 3.199586 1_445
Mg0 Mg2 3.199586 1_555
Mg0 Mg3 3.199586 1_545
Mg1 Mg4 3.199586 1_445
Mg1 Mg7 3.199586 1_555
Mg1 Mg6 3.199586 1_455
Mg2 Mg5 3.237994 1_445
Mg2 Mg3 3.237994 1_545
Mg3 Mg5 3.237994 1_455
Mg4 Mg7 3.237994 1_665
Mg4 Mg6 3.237994 1_565
Mg6 Mg7 3.237994 1_655
Ir0 La1 2.928525 1_545
Ir0 La3 2.928525 1_545
Ir0 La41 2.943616 1_555
Ir0 La39 2.943616 1_555
Ir0 La44 2.984801 1_555
Ir0 La32 3.067478 1_545
Ir0 La24 3.539077 1_545
Ir0 La21 3.683033 1_555
Ir0 La19 3.683033 1_555
Ir1 La0 2.928525 1_555
Ir1 La3 2.928525 1_555
Ir1 La41 2.943616 1_555
Ir1 La38 2.943616 1_555
Ir1 La44 2.984809 1_555
Ir1 La33 3.067478 1_555
Ir1 La25 3.539077 1_555
Ir1 La18 3.683033 1_555
Ir1 La21 3.683033 1_555
Ir2 La4 2.928525 1_565
Ir2 La5 2.928525 1_565
Ir2 La43 2.943616 1_555
Ir2 La42 2.943616 1_555
Ir2 La45 2.984801 1_555
Ir2 La34 3.067478 1_565
Ir2 La26 3.539077 1_565
Ir2 La23 3.683033 1_555
Ir2 La22 3.683033 1_555
Ir3 La1 2.928525 1_655
Ir3 La0 2.928525 1_655
Ir3 La38 2.943616 1_555
Ir3 La39 2.943616 1_555
Ir3 La44 2.984801 1_555
Ir3 La35 3.067478 1_655
Ir3 La27 3.539077 1_655
Ir3 La18 3.683033 1_555
Ir3 La19 3.683033 1_555
Ir4 La5 2.928525 1_555
Ir4 La2 2.928525 1_555
Ir4 La43 2.943616 1_555
Ir4 La40 2.943616 1_555
Ir4 La45 2.984809 1_555
Ir4 La36 3.067478 1_555
Ir4 La28 3.539077 1_555
Ir4 La20 3.683033 1_555
Ir4 La23 3.683033 1_555
Ir5 La4 2.928525 1_455
Ir5 La2 2.928525 1_455
Ir5 La40 2.943616 1_555
Ir5 La42 2.943616 1_555
Ir5 La45 2.984801 1_555
Ir5 La37 3.067478 1_455
Ir5 La29 3.539077 1_455
Ir5 La20 3.683033 1_555
Ir5 La22 3.683033 1_555
Ir6 La7 2.943293 1_555
Ir6 La6 2.943300 1_555
Ir6 La9 2.943300 1_555
Ir6 La39 2.971297 1_555
Ir6 La41 2.971304 1_555
Ir6 La38 2.971304 1_555
Ir6 La24 3.673843 1_545
Ir6 La27 3.673843 1_655
Ir6 La25 3.673852 1_555
Ir7 La10 2.943293 1_555
Ir7 La11 2.943300 1_555
Ir7 La8 2.943300 1_555
Ir7 La42 2.971297 1_555
Ir7 La43 2.971304 1_555
Ir7 La40 2.971304 1_555
Ir7 La26 3.673843 1_565
Ir7 La29 3.673843 1_455
Ir7 La28 3.673852 1_555
Ir8 La8 2.886925 1_555
Ir8 La19 2.928479 1_455
Ir8 La21 2.928479 1_555
Ir8 La31 2.929535 1_555
Ir8 La33 3.001960 1_555
Ir8 La35 3.001960 1_555
Ir8 La17 3.689368 1_555
Ir8 La16 3.689369 1_455
Ir9 La10 2.886924 1_555
Ir9 La21 2.928479 1_565
Ir9 La18 2.928479 1_455
Ir9 La31 2.929535 1_565
Ir9 La35 3.001960 1_555
Ir9 La32 3.001960 1_555
Ir9 La17 3.689368 1_565
Ir9 La14 3.689368 1_455
Ir10 La6 2.886925 1_554
Ir10 La22 2.928479 1_655
Ir10 La23 2.928479 1_555
Ir10 La30 2.929535 1_665
Ir10 La36 3.001960 1_555
Ir10 La37 3.001960 1_555
Ir10 La15 3.689368 1_554
Ir10 La13 3.689369 1_654
Ir11 La11 2.886925 1_555
Ir11 La19 2.928479 1_565
Ir11 La18 2.928479 1_555
Ir11 La31 2.929535 1_665
Ir11 La33 3.001960 1_555
Ir11 La32 3.001960 1_555
Ir11 La14 3.689368 1_555
Ir11 La16 3.689369 1_565
Ir12 La7 2.886924 1_554
Ir12 La20 2.928479 1_655
Ir12 La23 2.928479 1_545
Ir12 La30 2.929535 1_655
Ir12 La34 3.001960 1_555
Ir12 La37 3.001960 1_555
Ir12 La12 3.689368 1_654
Ir12 La15 3.689368 1_544
Ir13 La9 2.886925 1_554
Ir13 La22 2.928479 1_545
Ir13 La20 2.928479 1_555
Ir13 La30 2.929535 1_555
Ir13 La36 3.001960 1_555
Ir13 La34 3.001960 1_555
Ir13 La12 3.689368 1_554
Ir13 La13 3.689369 1_544
