# generated using pymatgen
data_MgFe(GeO3)2
_symmetry_space_group_name_H-M   'P 1'
_cell_length_a   5.25206587
_cell_length_b   9.80323004
_cell_length_c   9.17677927
_cell_angle_alpha   90.00026092
_cell_angle_beta   89.99760141
_cell_angle_gamma   79.63428810
_symmetry_Int_Tables_number   1
_chemical_formula_structural   MgFe(GeO3)2
_chemical_formula_sum   'Mg4 Fe4 Ge8 O24'
_cell_volume   464.77545705
_cell_formula_units_Z   4
loop_
 _symmetry_equiv_pos_site_id
 _symmetry_equiv_pos_as_xyz
  1  'x, y, z'
loop_
 _atom_site_type_symbol
 _atom_site_label
 _atom_site_symmetry_multiplicity
 _atom_site_fract_x
 _atom_site_fract_y
 _atom_site_fract_z
 _atom_site_occupancy
  Mg  Mg0  1  0.75000000  0.50004600  0.22889600  1
  Mg  Mg1  1  0.75000300  0.00003100  0.72890100  1
  Mg  Mg2  1  0.25000300  0.49997500  0.77108600  1
  Mg  Mg3  1  0.24997000  0.99999700  0.27110800  1
  Fe  Fe0  1  0.74997800  0.00000100  0.09233800  1
  Fe  Fe1  1  0.25002900  0.99999300  0.90771800  1
  Fe  Fe2  1  0.75007400  0.49996800  0.59238200  1
  Fe  Fe3  1  0.24998100  0.49997500  0.40761700  1
  Ge  Ge0  1  0.78556800  0.30091500  0.90583300  1
  Ge  Ge1  1  0.78550300  0.80093300  0.40582200  1
  Ge  Ge2  1  0.71445700  0.69908300  0.90579600  1
  Ge  Ge3  1  0.71452200  0.19907100  0.40582900  1
  Ge  Ge4  1  0.21443300  0.69908200  0.09415000  1
  Ge  Ge5  1  0.21446200  0.19906700  0.59420000  1
  Ge  Ge6  1  0.28553600  0.30092000  0.09416200  1
  Ge  Ge7  1  0.28545900  0.80094000  0.59419100  1
  O  O0  1  0.59510000  0.35970000  0.06898200  1
  O  O1  1  0.59508400  0.85971300  0.56895900  1
  O  O2  1  0.90488600  0.64030300  0.06896000  1
  O  O3  1  0.90489700  0.14028900  0.56897300  1
  O  O4  1  0.40490000  0.64030300  0.93102000  1
  O  O5  1  0.40490800  0.14029200  0.43103800  1
  O  O6  1  0.09511100  0.35969700  0.93103200  1
  O  O7  1  0.09509300  0.85971600  0.43103400  1
  O  O8  1  0.11447200  0.38519300  0.23895700  1
  O  O9  1  0.11450500  0.88522100  0.73902100  1
  O  O10  1  0.38548800  0.61480900  0.23894200  1
  O  O11  1  0.38548100  0.11479000  0.73900800  1
  O  O12  1  0.88552000  0.61479500  0.76102500  1
  O  O13  1  0.88550100  0.11478700  0.26099100  1
  O  O14  1  0.61452400  0.38519400  0.76104500  1
  O  O15  1  0.61451900  0.88520900  0.26099600  1
  O  O16  1  0.85863800  0.11803000  0.90515500  1
  O  O17  1  0.85862000  0.61805500  0.40513000  1
  O  O18  1  0.64137800  0.88196800  0.90513800  1
  O  O19  1  0.64138800  0.38194800  0.40515900  1
  O  O20  1  0.14135400  0.88197200  0.09486400  1
  O  O21  1  0.14140700  0.38193800  0.59485500  1
  O  O22  1  0.35862600  0.11803200  0.09486500  1
  O  O23  1  0.35862300  0.61805000  0.59482300  1
loop_
_geom_bond_atom_site_label_1
_geom_bond_atom_site_label_2
_geom_bond_distance
_geom_bond_site_symmetry_2
Mg0 O10 2.040642 1_555
Mg0 O8 2.040817 1_655
Mg0 O17 2.125296 1_555
Mg0 O19 2.125972 1_555
Mg0 O2 2.260275 1_555
Mg0 O0 2.260802 1_555
Mg1 O11 2.040696 1_555
Mg1 O9 2.040812 1_645
Mg1 O16 2.125406 1_555
Mg1 O18 2.125612 1_545
Mg1 O3 2.260253 1_555
Mg1 O1 2.260830 1_545
Mg2 O12 2.040742 1_455
Mg2 O14 2.040747 1_555
Mg2 O21 2.125391 1_555
Mg2 O23 2.125854 1_555
Mg2 O6 2.260488 1_555
Mg2 O4 2.260794 1_555
Mg3 O13 2.040591 1_465
Mg3 O15 2.040926 1_555
Mg3 O20 2.125451 1_555
Mg3 O22 2.125551 1_565
Mg3 O7 2.260351 1_555
Mg3 O5 2.260654 1_565
Fe0 O15 2.110934 1_545
Fe0 O13 2.111047 1_555
Fe0 O22 2.169844 1_555
Fe0 O20 2.169946 1_645
Fe0 O16 2.202877 1_554
Fe0 O18 2.202939 1_544
Fe1 O9 2.111264 1_555
Fe1 O11 2.111297 1_565
Fe1 O18 2.169815 1_555
Fe1 O16 2.170046 1_465
Fe1 O22 2.202588 1_566
Fe1 O20 2.202596 1_556
Fe2 O12 2.111043 1_555
Fe2 O14 2.111069 1_555
Fe2 O21 2.169753 1_655
Fe2 O23 2.170460 1_555
Fe2 O19 2.203191 1_555
Fe2 O17 2.203485 1_555
Fe3 O8 2.111039 1_555
Fe3 O10 2.111402 1_555
Fe3 O17 2.170057 1_455
Fe3 O19 2.170069 1_555
Fe3 O21 2.203156 1_555
Fe3 O23 2.203295 1_555
Ge0 O14 1.728598 1_555
Ge0 O16 1.764675 1_555
Ge0 O6 1.834594 1_655
Ge0 O0 1.834876 1_556
Ge1 O15 1.728718 1_555
Ge1 O17 1.764617 1_555
Ge1 O1 1.834650 1_555
Ge1 O7 1.834847 1_655
Ge2 O12 1.728491 1_555
Ge2 O18 1.764676 1_555
Ge2 O4 1.834667 1_555
Ge2 O2 1.834950 1_556
Ge3 O13 1.728758 1_555
Ge3 O19 1.764610 1_555
Ge3 O3 1.834666 1_555
Ge3 O5 1.834927 1_555
Ge4 O10 1.728628 1_555
Ge4 O20 1.764725 1_555
Ge4 O2 1.834590 1_455
Ge4 O4 1.834719 1_554
Ge5 O11 1.728674 1_555
Ge5 O21 1.764537 1_555
Ge5 O3 1.834717 1_455
Ge5 O5 1.834896 1_555
Ge6 O8 1.728606 1_555
Ge6 O22 1.764708 1_555
Ge6 O0 1.834650 1_555
Ge6 O6 1.834679 1_554
Ge7 O9 1.728633 1_555
Ge7 O23 1.764738 1_555
Ge7 O7 1.834728 1_555
Ge7 O1 1.834980 1_555
