# generated using pymatgen
data_Bi4PbS7
_symmetry_space_group_name_H-M   'P 1'
_cell_length_a   6.99940884
_cell_length_b   6.99940884
_cell_length_c   12.21958437
_cell_angle_alpha   75.32016993
_cell_angle_beta   75.32016993
_cell_angle_gamma   33.37203433
_symmetry_Int_Tables_number   1
_chemical_formula_structural   Bi4PbS7
_chemical_formula_sum   'Bi4 Pb1 S7'
_cell_volume   317.57281778
_cell_formula_units_Z   1
loop_
 _symmetry_equiv_pos_site_id
 _symmetry_equiv_pos_as_xyz
  1  'x, y, z'
loop_
 _atom_site_type_symbol
 _atom_site_label
 _atom_site_symmetry_multiplicity
 _atom_site_fract_x
 _atom_site_fract_y
 _atom_site_fract_z
 _atom_site_occupancy
  Bi  Bi0  1  0.87134305  0.87134305  0.93047312  1
  Bi  Bi1  1  0.11339665  0.11339665  0.06701093  1
  Bi  Bi2  1  0.00332385  0.00332385  0.50650077  1
  Bi  Bi3  1  0.69393803  0.69393803  0.65770093  1
  Pb  Pb0  1  0.34270320  0.34270320  0.29206184  1
  S  S0  1  0.26218445  0.26218445  0.85565087  1
  S  S1  1  0.72768095  0.72768095  0.13224994  1
  S  S2  1  0.04973301  0.04973301  0.71917506  1
  S  S3  1  0.98690325  0.98690325  0.28771694  1
  S  S4  1  0.34463590  0.34463590  0.53901343  1
  S  S5  1  0.65320435  0.65320435  0.45633895  1
  S  S6  1  0.47105232  0.47105232  0.03190723  1
loop_
_geom_bond_atom_site_label_1
_geom_bond_atom_site_label_2
_geom_bond_distance
_geom_bond_site_symmetry_2
Bi0 S1 2.697630 1_556
Bi0 S0 2.779492 1_655
Bi0 S0 2.779492 1_565
Bi0 S6 2.870509 1_566
Bi0 S6 2.870509 1_656
Bi0 S2 3.020054 1_665
Bi1 S1 2.769366 1_455
Bi1 S1 2.769366 1_545
Bi1 S3 2.780304 1_445
Bi1 S0 2.815073 1_554
Bi1 S6 2.880885 1_545
Bi1 S6 2.880885 1_455
Bi2 S3 2.739941 1_445
Bi2 S5 2.793234 1_545
Bi2 S5 2.793234 1_455
Bi2 S2 2.827847 1_555
Bi2 S4 2.877059 1_455
Bi2 S4 2.877059 1_545
Bi3 S5 2.657786 1_555
Bi3 S2 2.752064 1_565
Bi3 S2 2.752064 1_655
Bi3 S4 2.945362 1_655
Bi3 S4 2.945362 1_565
Pb0 S3 2.779639 1_455
Pb0 S3 2.779639 1_545
Pb0 S4 3.024605 1_555
Pb0 S6 3.189530 1_555
