# generated using pymatgen
data_Ba2CoAg2(SeO)2
_symmetry_space_group_name_H-M   'P 1'
_cell_length_a   11.02726047
_cell_length_b   11.02726047
_cell_length_c   11.02726047
_cell_angle_alpha   158.18907553
_cell_angle_beta   158.18907553
_cell_angle_gamma   31.03750237
_symmetry_Int_Tables_number   1
_chemical_formula_structural   Ba2CoAg2(SeO)2
_chemical_formula_sum   'Ba2 Co1 Ag2 Se2 O2'
_cell_volume   184.98051574
_cell_formula_units_Z   1
loop_
 _symmetry_equiv_pos_site_id
 _symmetry_equiv_pos_as_xyz
  1  'x, y, z'
loop_
 _atom_site_type_symbol
 _atom_site_label
 _atom_site_symmetry_multiplicity
 _atom_site_fract_x
 _atom_site_fract_y
 _atom_site_fract_z
 _atom_site_occupancy
  Ba  Ba0  1  0.58799700  0.58799700  0.00000000  1
  Ba  Ba1  1  0.41200300  0.41200300  0.00000000  1
  Co  Co0  1  0.00000000  0.00000000  0.00000000  1
  Ag  Ag0  1  0.75000000  0.25000000  0.50000000  1
  Ag  Ag1  1  0.25000000  0.75000000  0.50000000  1
  Se  Se0  1  0.83663800  0.83663800  0.00000000  1
  Se  Se1  1  0.16336200  0.16336200  0.00000000  1
  O  O0  1  0.00000000  0.50000000  0.50000000  1
  O  O1  1  0.50000000  0.00000000  0.50000000  1
loop_
_geom_bond_atom_site_label_1
_geom_bond_atom_site_label_2
_geom_bond_distance
_geom_bond_site_symmetry_2
Ba0 O1 2.801643 1_565
Ba0 O0 2.801643 1_554
Ba0 O0 2.801643 1_655
Ba0 O1 2.801643 1_554
Ba0 Se1 3.357038 1_554
Ba0 Se1 3.357038 1_666
Ba0 Se1 3.357038 1_565
Ba0 Se1 3.357038 1_655
Ba1 O0 2.801643 1_554
Ba1 O1 2.801643 1_554
Ba1 O0 2.801643 1_655
Ba1 O1 2.801643 1_565
Ba1 Se0 3.357038 1_455
Ba1 Se0 3.357038 1_556
Ba1 Se0 3.357038 1_545
Ba1 Se0 3.357038 1_444
Co0 O1 2.086237 1_555
Co0 O1 2.086237 1_454
Co0 O0 2.086237 1_544
Co0 O0 2.086237 1_555
Ag0 Se0 2.782450 1_556
Ag0 Se0 2.782450 1_545
Ag0 Se1 2.782450 1_555
Ag0 Se1 2.782450 1_656
Ag1 Se0 2.782450 1_556
Ag1 Se1 2.782450 1_555
Ag1 Se1 2.782450 1_566
Ag1 Se0 2.782450 1_455
