# generated using pymatgen
data_NbCr3(CuS4)2
_symmetry_space_group_name_H-M   'P 1'
_cell_length_a   11.45196395
_cell_length_b   3.41761100
_cell_length_c   12.05825805
_cell_angle_alpha   90.00000000
_cell_angle_beta   90.61633397
_cell_angle_gamma   90.00000000
_symmetry_Int_Tables_number   1
_chemical_formula_structural   NbCr3(CuS4)2
_chemical_formula_sum   'Nb2 Cr6 Cu4 S16'
_cell_volume   471.91311493
_cell_formula_units_Z   2
loop_
 _symmetry_equiv_pos_site_id
 _symmetry_equiv_pos_as_xyz
  1  'x, y, z'
loop_
 _atom_site_type_symbol
 _atom_site_label
 _atom_site_symmetry_multiplicity
 _atom_site_fract_x
 _atom_site_fract_y
 _atom_site_fract_z
 _atom_site_occupancy
  Nb  Nb0  1  0.14647200  0.25000000  0.71415600  1
  Nb  Nb1  1  0.85352800  0.75000000  0.28584400  1
  Cr  Cr0  1  0.11867800  0.25000000  0.07421800  1
  Cr  Cr1  1  0.88132200  0.75000000  0.92578200  1
  Cr  Cr2  1  0.39048700  0.75000000  0.56776900  1
  Cr  Cr3  1  0.60951300  0.25000000  0.43223100  1
  Cr  Cr4  1  0.35392200  0.75000000  0.20565700  1
  Cr  Cr5  1  0.64607800  0.25000000  0.79434300  1
  Cu  Cu0  1  0.13179800  0.75000000  0.41592700  1
  Cu  Cu1  1  0.86820200  0.25000000  0.58407300  1
  Cu  Cu2  1  0.38755200  0.25000000  0.93752100  1
  Cu  Cu3  1  0.61244800  0.75000000  0.06247900  1
  S  S0  1  0.03308400  0.75000000  0.61033000  1
  S  S1  1  0.96691600  0.25000000  0.38967000  1
  S  S2  1  0.46888200  0.25000000  0.11890900  1
  S  S3  1  0.53111800  0.75000000  0.88109100  1
  S  S4  1  0.02532800  0.25000000  0.88071700  1
  S  S5  1  0.97467200  0.75000000  0.11928300  1
  S  S6  1  0.47101300  0.75000000  0.38408400  1
  S  S7  1  0.52898700  0.25000000  0.61591600  1
  S  S8  1  0.21530000  0.25000000  0.25091300  1
  S  S9  1  0.78470000  0.75000000  0.74908700  1
  S  S10  1  0.29750800  0.75000000  0.75046000  1
  S  S11  1  0.70249200  0.25000000  0.24954000  1
  S  S12  1  0.25174200  0.75000000  0.03021300  1
  S  S13  1  0.74825800  0.25000000  0.96978700  1
  S  S14  1  0.25004800  0.25000000  0.52314400  1
  S  S15  1  0.74995200  0.75000000  0.47685600  1
loop_
_geom_bond_atom_site_label_1
_geom_bond_atom_site_label_2
_geom_bond_distance
_geom_bond_site_symmetry_2
Nb0 S4 2.453255 1_555
Nb0 S10 2.467201 1_555
Nb0 S10 2.467201 1_545
Nb0 S0 2.477618 1_545
Nb0 S0 2.477618 1_555
Nb0 S14 2.602073 1_555
Nb1 S5 2.453255 1_555
Nb1 S11 2.467201 1_565
Nb1 S11 2.467201 1_555
Nb1 S1 2.477618 1_555
Nb1 S1 2.477618 1_565
Nb1 S15 2.602073 1_555
Cr0 S12 2.353949 1_555
Cr0 S12 2.353949 1_545
Cr0 S8 2.390240 1_555
Cr0 S5 2.440141 1_455
Cr0 S5 2.440141 1_445
Cr0 S4 2.556052 1_554
Cr1 S13 2.353949 1_565
Cr1 S13 2.353949 1_555
Cr1 S9 2.390240 1_555
Cr1 S4 2.440141 1_655
Cr1 S4 2.440141 1_665
Cr1 S5 2.556052 1_556
Cr2 S7 2.398535 1_555
Cr2 S7 2.398535 1_565
Cr2 S14 2.403661 1_565
Cr2 S14 2.403661 1_555
Cr2 S6 2.408368 1_555
Cr2 S10 2.457065 1_555
Cr3 S6 2.398535 1_555
Cr3 S6 2.398535 1_545
Cr3 S15 2.403661 1_545
Cr3 S15 2.403661 1_555
Cr3 S7 2.408368 1_555
Cr3 S11 2.457065 1_555
Cr4 S8 2.399289 1_555
Cr4 S8 2.399289 1_565
Cr4 S2 2.403547 1_555
Cr4 S2 2.403547 1_565
Cr4 S12 2.406568 1_555
Cr4 S6 2.522903 1_555
Cr5 S9 2.399289 1_545
Cr5 S9 2.399289 1_555
Cr5 S3 2.403547 1_555
Cr5 S3 2.403547 1_545
Cr5 S13 2.406568 1_555
Cr5 S7 2.522903 1_555
Cu0 S14 2.527381 1_555
Cu0 S14 2.527381 1_565
Cu0 S1 2.563744 1_465
Cu0 S1 2.563744 1_455
Cu0 S0 2.613439 1_555
Cu0 S8 2.799039 1_555
Cu0 S8 2.799039 1_565
Cu1 S15 2.527381 1_545
Cu1 S15 2.527381 1_555
Cu1 S0 2.563744 1_655
Cu1 S0 2.563744 1_645
Cu1 S1 2.613439 1_555
Cu1 S9 2.799039 1_545
Cu1 S9 2.799039 1_555
Cu2 S2 2.368038 1_556
Cu2 S3 2.471882 1_545
Cu2 S3 2.471882 1_555
Cu2 S12 2.574026 1_546
Cu2 S12 2.574026 1_556
Cu2 S10 3.003527 1_555
Cu2 S10 3.003527 1_545
Cu3 S3 2.368038 1_554
Cu3 S2 2.471882 1_565
Cu3 S2 2.471882 1_555
Cu3 S13 2.574026 1_554
Cu3 S13 2.574026 1_564
Cu3 S11 3.003527 1_555
Cu3 S11 3.003527 1_565
