# generated using pymatgen
data_SmMgMoS4
_symmetry_space_group_name_H-M   'P 1'
_cell_length_a   7.79725402
_cell_length_b   7.70501384
_cell_length_c   7.70506922
_cell_angle_alpha   59.75720581
_cell_angle_beta   59.60241588
_cell_angle_gamma   59.60361683
_symmetry_Int_Tables_number   1
_chemical_formula_structural   SmMgMoS4
_chemical_formula_sum   'Sm2 Mg2 Mo2 S8'
_cell_volume   324.75131296
_cell_formula_units_Z   2
loop_
 _symmetry_equiv_pos_site_id
 _symmetry_equiv_pos_as_xyz
  1  'x, y, z'
loop_
 _atom_site_type_symbol
 _atom_site_label
 _atom_site_symmetry_multiplicity
 _atom_site_fract_x
 _atom_site_fract_y
 _atom_site_fract_z
 _atom_site_occupancy
  Sm  Sm0  1  0.50000200  0.50001900  0.49997300  1
  Sm  Sm1  1  0.00000000  0.49998600  0.50001600  1
  Mg  Mg0  1  0.87314500  0.87685600  0.87685900  1
  Mg  Mg1  1  0.12685400  0.12315100  0.12315000  1
  Mo  Mo0  1  0.49999900  0.49999600  0.00000100  1
  Mo  Mo1  1  0.49999900  0.99999800  0.50000600  1
  S  S0  1  0.71283500  0.75665000  0.75664800  1
  S  S1  1  0.26719400  0.23055200  0.73506800  1
  S  S2  1  0.26719200  0.73506900  0.23053400  1
  S  S3  1  0.72613600  0.24335400  0.24334500  1
  S  S4  1  0.73278900  0.26493500  0.76944400  1
  S  S5  1  0.27386700  0.75663800  0.75665500  1
  S  S6  1  0.28716500  0.24333700  0.24336500  1
  S  S7  1  0.73282700  0.76945400  0.26493500  1
loop_
_geom_bond_atom_site_label_1
_geom_bond_atom_site_label_2
_geom_bond_distance
_geom_bond_site_symmetry_2
Mg0 S7 2.436340 1_556
Mg0 S4 2.436367 1_565
Mg0 S5 2.546625 1_655
Mg0 S0 2.546675 1_555
Mg1 S1 2.436379 1_554
Mg1 S2 2.436398 1_545
Mg1 S6 2.546584 1_555
Mg1 S3 2.546612 1_455
Mo0 S2 2.526160 1_555
Mo0 S4 2.526224 1_554
Mo0 S5 2.572401 1_554
Mo0 S0 2.572414 1_554
Mo0 S3 2.572416 1_555
Mo0 S6 2.572433 1_555
Mo1 S7 2.526208 1_555
Mo1 S1 2.526213 1_565
Mo1 S6 2.572384 1_565
Mo1 S0 2.572401 1_555
Mo1 S5 2.572422 1_555
Mo1 S3 2.572431 1_565
S0 Sm1 2.794983 1_655
S1 Sm1 2.754005 1_555
S1 Sm0 2.754098 1_555
S2 Sm0 2.754024 1_555
S2 Sm1 2.754105 1_555
S3 Sm0 2.794967 1_555
S4 Sm1 2.754030 1_655
S4 Sm0 2.754069 1_555
S5 Sm0 2.795012 1_555
S6 Sm1 2.795003 1_555
S7 Sm0 2.754030 1_555
S7 Sm1 2.754047 1_655
