# generated using pymatgen
data_YAgS2
_symmetry_space_group_name_H-M   'P 1'
_cell_length_a   7.66057200
_cell_length_b   7.66785900
_cell_length_c   12.85392438
_cell_angle_alpha   89.90579166
_cell_angle_beta   90.00000000
_cell_angle_gamma   90.00000000
_symmetry_Int_Tables_number   1
_chemical_formula_structural   YAgS2
_chemical_formula_sum   'Y8 Ag8 S16'
_cell_volume   755.04088743
_cell_formula_units_Z   8
loop_
 _symmetry_equiv_pos_site_id
 _symmetry_equiv_pos_as_xyz
  1  'x, y, z'
loop_
 _atom_site_type_symbol
 _atom_site_label
 _atom_site_symmetry_multiplicity
 _atom_site_fract_x
 _atom_site_fract_y
 _atom_site_fract_z
 _atom_site_occupancy
  Y  Y0  1  0.27446700  0.50265300  0.25344600  1
  Y  Y1  1  0.77446700  0.49734700  0.74655400  1
  Y  Y2  1  0.02711400  0.24596000  0.50463800  1
  Y  Y3  1  0.52711400  0.75404000  0.49536200  1
  Y  Y4  1  0.28304400  0.99576700  0.75290700  1
  Y  Y5  1  0.78304400  0.00423300  0.24709300  1
  Y  Y6  1  0.52888400  0.25258600  0.00331800  1
  Y  Y7  1  0.02888400  0.74741400  0.99668200  1
  Ag  Ag0  1  0.28016500  0.99654700  0.29485700  1
  Ag  Ag1  1  0.78016500  0.00345300  0.70514300  1
  Ag  Ag2  1  0.52992800  0.25448600  0.53790300  1
  Ag  Ag3  1  0.02992800  0.74551400  0.46209700  1
  Ag  Ag4  1  0.78068300  0.49564500  0.19400500  1
  Ag  Ag5  1  0.28068300  0.50435500  0.80599500  1
  Ag  Ag6  1  0.02921500  0.24488800  0.03533700  1
  Ag  Ag7  1  0.52921500  0.75511200  0.96466300  1
  S  S0  1  0.55065900  0.27441700  0.21871000  1
  S  S1  1  0.05065900  0.72558300  0.78129000  1
  S  S2  1  0.25334700  0.47521600  0.03803000  1
  S  S3  1  0.75334700  0.52478400  0.96197000  1
  S  S4  1  0.30421000  0.02593700  0.53813500  1
  S  S5  1  0.80421000  0.97406300  0.46186500  1
  S  S6  1  0.05469700  0.22632500  0.28975100  1
  S  S7  1  0.55469700  0.77367500  0.71024900  1
  S  S8  1  0.25806600  0.51953300  0.46902200  1
  S  S9  1  0.75806600  0.48046700  0.53097800  1
  S  S10  1  0.00849100  0.22746400  0.72054700  1
  S  S11  1  0.50849100  0.77253600  0.27945300  1
  S  S12  1  0.79967100  0.02107500  0.03069500  1
  S  S13  1  0.29967100  0.97892500  0.96930500  1
  S  S14  1  0.00415900  0.72729800  0.21134000  1
  S  S15  1  0.50415900  0.27270200  0.78866000  1
loop_
_geom_bond_atom_site_label_1
_geom_bond_atom_site_label_2
_geom_bond_distance
_geom_bond_site_symmetry_2
Ag0 S11 2.459704 1_555
Ag0 S6 2.468098 1_565
Ag0 S0 3.128046 1_565
Ag0 S4 3.140962 1_565
Ag1 S10 2.459704 1_655
Ag1 S7 2.468098 1_545
Ag1 S1 3.128046 1_645
Ag1 S5 3.140962 1_545
Ag2 S4 2.461924 1_555
Ag2 S9 2.462584 1_555
Ag2 S8 3.040677 1_555
Ag2 S5 3.162373 1_545
Ag3 S5 2.461924 1_455
Ag3 S8 2.462584 1_555
Ag3 S9 3.040677 1_455
Ag3 S4 3.162373 1_565
Ag4 S0 2.466112 1_555
Ag4 S14 2.477280 1_655
Ag4 S3 2.997874 1_554
Ag4 S11 3.173275 1_555
Ag5 S1 2.466112 1_555
Ag5 S15 2.477280 1_555
Ag5 S2 2.997874 1_556
Ag5 S10 3.173275 1_555
Ag6 S12 2.457891 1_455
Ag6 S2 2.463454 1_555
Ag6 S13 3.029467 1_544
Ag6 S3 3.155146 1_454
Ag7 S13 2.457891 1_555
Ag7 S3 2.463454 1_555
Ag7 S12 3.029467 1_566
Ag7 S2 3.155146 1_556
S0 Y5 2.755325 1_555
S0 Y6 2.778974 1_555
S0 Y0 2.782314 1_555
S1 Y4 2.755325 1_555
S1 Y7 2.778974 1_555
S1 Y1 2.782314 1_455
S2 Y6 2.751566 1_555
S2 Y7 2.755333 1_554
S2 Y0 2.781975 1_555
S3 Y7 2.751566 1_655
S3 Y6 2.755333 1_556
S3 Y1 2.781975 1_555
S4 Y2 2.745039 1_555
S4 Y3 2.751096 1_545
S4 Y4 2.774702 1_545
S5 Y3 2.745039 1_555
S5 Y2 2.751096 1_665
S5 Y5 2.774702 1_565
S6 Y5 2.744899 1_455
S6 Y0 2.745616 1_555
S6 Y2 2.774546 1_555
S7 Y4 2.744899 1_555
S7 Y1 2.745616 1_555
S7 Y3 2.774546 1_555
S8 Y3 2.756449 1_555
S8 Y0 2.777075 1_555
S8 Y2 2.781548 1_555
S9 Y2 2.756449 1_655
S9 Y1 2.777075 1_555
S9 Y3 2.781548 1_555
S10 Y1 2.758718 1_455
S10 Y2 2.782326 1_555
S10 Y4 2.783982 1_545
S11 Y0 2.758718 1_555
S11 Y3 2.782326 1_555
S11 Y5 2.783982 1_565
S12 Y6 2.752482 1_555
S12 Y7 2.771392 1_644
S12 Y5 2.787260 1_555
S13 Y7 2.752482 1_555
S13 Y6 2.771392 1_566
S13 Y4 2.787260 1_555
S14 Y0 2.746795 1_555
S14 Y5 2.755511 1_465
S14 Y7 2.769736 1_554
S15 Y1 2.746795 1_555
S15 Y4 2.755511 1_545
S15 Y6 2.769736 1_556
