# generated using pymatgen
data_Cr2HgSe3S
_symmetry_space_group_name_H-M   'P 1'
_cell_length_a   7.62292669
_cell_length_b   7.62292669
_cell_length_c   7.62292669
_cell_angle_alpha   120.18918775
_cell_angle_beta   119.82572425
_cell_angle_gamma   89.98737459
_symmetry_Int_Tables_number   1
_chemical_formula_structural   Cr2HgSe3S
_chemical_formula_sum   'Cr4 Hg2 Se6 S2'
_cell_volume   313.18129082
_cell_formula_units_Z   2
loop_
 _symmetry_equiv_pos_site_id
 _symmetry_equiv_pos_as_xyz
  1  'x, y, z'
loop_
 _atom_site_type_symbol
 _atom_site_label
 _atom_site_symmetry_multiplicity
 _atom_site_fract_x
 _atom_site_fract_y
 _atom_site_fract_z
 _atom_site_occupancy
  Cr  Cr0  1  0.75478400  0.00456200  0.24977900  1
  Cr  Cr1  1  0.75478400  0.50500500  0.75022100  1
  Cr  Cr2  1  0.75902200  0.00000700  0.75901500  1
  Cr  Cr3  1  0.24099100  0.00000700  0.24098500  1
  Hg  Hg0  1  0.11482600  0.61482600  0.50000000  1
  Hg  Hg1  1  0.37709900  0.37709900  0.00000000  1
  Se  Se0  1  0.98429100  0.76477900  0.21951300  1
  Se  Se1  1  0.54526600  0.76477900  0.78048700  1
  Se  Se2  1  0.51863400  0.23299400  0.71436000  1
  Se  Se3  1  0.51863400  0.80427400  0.28564000  1
  Se  Se4  1  0.51589900  0.23516400  0.28073500  1
  Se  Se5  1  0.95442900  0.23516400  0.71926500  1
  S  S0  1  0.98067000  0.76823400  0.78756400  1
  S  S1  1  0.98067000  0.19310600  0.21243600  1
loop_
_geom_bond_atom_site_label_1
_geom_bond_atom_site_label_2
_geom_bond_distance
_geom_bond_site_symmetry_2
Cr0 S1 2.451911 1_555
Cr0 Se0 2.535950 1_545
Cr0 Se1 2.535961 1_544
Cr0 Se5 2.543746 1_555
Cr0 Se4 2.543751 1_555
Cr0 Se3 2.560628 1_545
Cr1 S0 2.451906 1_555
Cr1 Se1 2.535961 1_555
Cr1 Se0 2.535961 1_556
Cr1 Se5 2.543746 1_555
Cr1 Se4 2.543746 1_555
Cr1 Se2 2.560633 1_555
Cr2 S1 2.458310 1_556
Cr2 S0 2.458310 1_545
Cr2 Se1 2.541446 1_545
Cr2 Se5 2.553514 1_555
Cr2 Se2 2.571812 1_555
Cr2 Se3 2.571812 1_545
Cr3 S1 2.458305 1_455
Cr3 S0 2.458310 1_444
Cr3 Se0 2.541446 1_445
Cr3 Se4 2.553520 1_555
Cr3 Se2 2.571813 1_555
Cr3 Se3 2.571818 1_545
Hg0 S1 2.621047 1_455
Hg0 S0 2.621047 1_455
Hg0 Se0 2.685062 1_455
Hg0 Se1 2.685062 1_555
Hg1 Se5 2.635457 1_454
Hg1 Se4 2.635457 1_555
Hg1 Se2 2.653799 1_554
Hg1 Se3 2.653799 1_555
