# generated using pymatgen
data_YNi(WO4)2
_symmetry_space_group_name_H-M   'P 1'
_cell_length_a   6.06150600
_cell_length_b   5.09206100
_cell_length_c   11.08833093
_cell_angle_alpha   65.40551346
_cell_angle_beta   90.00000000
_cell_angle_gamma   90.00000000
_symmetry_Int_Tables_number   1
_chemical_formula_structural   YNi(WO4)2
_chemical_formula_sum   'Y2 Ni2 W4 O16'
_cell_volume   311.19751609
_cell_formula_units_Z   2
loop_
 _symmetry_equiv_pos_site_id
 _symmetry_equiv_pos_as_xyz
  1  'x, y, z'
loop_
 _atom_site_type_symbol
 _atom_site_label
 _atom_site_symmetry_multiplicity
 _atom_site_fract_x
 _atom_site_fract_y
 _atom_site_fract_z
 _atom_site_occupancy
  Y  Y0  1  0.66306800  0.50000000  0.25000000  1
  Y  Y1  1  0.33693200  0.50000000  0.75000000  1
  Ni  Ni0  1  0.27728000  0.00000000  0.25000000  1
  Ni  Ni1  1  0.72272000  0.00000000  0.75000000  1
  W  W0  1  0.16659900  0.73693900  0.01215400  1
  W  W1  1  0.16659900  0.26306100  0.48784600  1
  W  W2  1  0.83340100  0.26306100  0.98784600  1
  W  W3  1  0.83340100  0.73693900  0.51215400  1
  O  O0  1  0.35617200  0.23296600  0.36371800  1
  O  O1  1  0.35617200  0.76703400  0.13628200  1
  O  O2  1  0.64382800  0.76703400  0.63628200  1
  O  O3  1  0.64382800  0.23296600  0.86371800  1
  O  O4  1  0.91147700  0.66065800  0.89093000  1
  O  O5  1  0.91147700  0.33934200  0.60907000  1
  O  O6  1  0.08852300  0.33934200  0.10907000  1
  O  O7  1  0.08852300  0.66065800  0.39093000  1
  O  O8  1  0.63943200  0.71457900  0.39060900  1
  O  O9  1  0.63943200  0.28542100  0.10939100  1
  O  O10  1  0.36056800  0.28542100  0.60939100  1
  O  O11  1  0.36056800  0.71457900  0.89060900  1
  O  O12  1  0.88588800  0.15918700  0.40396800  1
  O  O13  1  0.11411200  0.84081300  0.59603200  1
  O  O14  1  0.88588800  0.84081300  0.09603200  1
  O  O15  1  0.11411200  0.15918700  0.90396800  1
loop_
_geom_bond_atom_site_label_1
_geom_bond_atom_site_label_2
_geom_bond_distance
_geom_bond_site_symmetry_2
Ni0 O0 2.114478 1_555
Ni0 O1 2.114478 1_545
Ni0 O6 2.118779 1_555
Ni0 O7 2.118779 1_545
Ni1 O2 2.114478 1_545
Ni1 O3 2.114478 1_555
Ni1 O5 2.118779 1_555
Ni1 O4 2.118779 1_545
O0 W1 1.847669 1_555
O0 Y0 2.339286 1_555
O1 W0 1.847669 1_555
O1 Y0 2.339286 1_555
O2 W3 1.847669 1_555
O2 Y1 2.339286 1_555
O3 W2 1.847669 1_555
O3 Y1 2.339286 1_555
O4 W2 1.914877 1_555
O4 W0 2.187167 1_656
O5 W3 1.914877 1_555
O5 W1 2.187167 1_655
O6 W0 1.914877 1_555
O6 W2 2.187167 1_454
O7 W1 1.914877 1_555
O7 W3 2.187167 1_455
O8 W3 1.827416 1_555
O8 Y0 2.250176 1_555
O9 W2 1.827416 1_554
O9 Y0 2.250176 1_555
O10 W1 1.827416 1_555
O10 Y1 2.250176 1_555
O11 W0 1.827416 1_556
O11 Y1 2.250176 1_555
O12 W3 2.004069 1_545
O12 W1 2.109382 1_655
O12 Y0 2.298787 1_555
O13 W1 2.004069 1_565
O13 W3 2.109382 1_455
O13 Y1 2.298787 1_555
O14 W2 2.004069 1_564
O14 W0 2.109382 1_655
O14 Y0 2.298787 1_555
O15 W0 2.004069 1_546
O15 W2 2.109382 1_455
O15 Y1 2.298787 1_555
