# generated using pymatgen
data_Ba5Yb8Zn4O21
_symmetry_space_group_name_H-M   'P 1'
_cell_length_a   10.00718473
_cell_length_b   10.00718473
_cell_length_c   10.00718473
_cell_angle_alpha   94.55303351
_cell_angle_beta   94.55303351
_cell_angle_gamma   147.27090780
_symmetry_Int_Tables_number   1
_chemical_formula_structural   Ba5Yb8Zn4O21
_chemical_formula_sum   'Ba5 Yb8 Zn4 O21'
_cell_volume   519.88323788
_cell_formula_units_Z   1
loop_
 _symmetry_equiv_pos_site_id
 _symmetry_equiv_pos_as_xyz
  1  'x, y, z'
loop_
 _atom_site_type_symbol
 _atom_site_label
 _atom_site_symmetry_multiplicity
 _atom_site_fract_x
 _atom_site_fract_y
 _atom_site_fract_z
 _atom_site_occupancy
  Ba  Ba0  1  0.46313222  0.85925003  0.32238224  1
  Ba  Ba1  1  0.14074997  0.46313222  0.60388219  1
  Ba  Ba2  1  0.85925003  0.53686778  0.39611781  1
  Ba  Ba3  1  0.53686778  0.14074997  0.67761776  1
  Ba  Ba4  1  0.00000000  0.00000000  0.00000000  1
  Yb  Yb0  1  0.58847661  0.64147845  0.22995506  1
  Yb  Yb1  1  0.35852155  0.58847661  0.94699816  1
  Yb  Yb2  1  0.64147845  0.41152339  0.05300184  1
  Yb  Yb3  1  0.41152339  0.35852155  0.77004494  1
  Yb  Yb4  1  0.75211298  0.83140838  0.58352136  1
  Yb  Yb5  1  0.16859162  0.75211298  0.92070461  1
  Yb  Yb6  1  0.83140838  0.24788702  0.07929539  1
  Yb  Yb7  1  0.24788702  0.16859162  0.41647864  1
  Zn  Zn0  1  0.95951683  0.75153906  0.71105588  1
  Zn  Zn1  1  0.24846094  0.95951683  0.20797777  1
  Zn  Zn2  1  0.75153906  0.04048317  0.79202223  1
  Zn  Zn3  1  0.04048317  0.24846094  0.28894412  1
  O  O0  1  0.10105375  0.99351955  0.59501919  1
  O  O1  1  0.50603456  0.10105375  0.10753420  1
  O  O2  1  0.99351955  0.39850036  0.89246580  1
  O  O3  1  0.39850036  0.50603456  0.40498081  1
  O  O4  1  0.89894625  0.00648045  0.40498081  1
  O  O5  1  0.49396544  0.89894625  0.89246580  1
  O  O6  1  0.00648045  0.60149964  0.10753420  1
  O  O7  1  0.60149964  0.49396544  0.59501919  1
  O  O8  1  0.92549921  0.79752829  0.22578783  1
  O  O9  1  0.69971138  0.92549921  0.12797091  1
  O  O10  1  0.79752829  0.57174047  0.87202909  1
  O  O11  1  0.57174047  0.69971138  0.77421217  1
  O  O12  1  0.07450079  0.20247171  0.77421217  1
  O  O13  1  0.30028862  0.07450079  0.87202909  1
  O  O14  1  0.20247171  0.42825953  0.12797091  1
  O  O15  1  0.42825953  0.30028862  0.22578783  1
  O  O16  1  0.36882888  0.04064333  0.40947221  1
  O  O17  1  0.50000000  0.50000000  0.00000000  1
  O  O18  1  0.63117112  0.95935667  0.59052779  1
  O  O19  1  0.04064333  0.63117112  0.67181446  1
  O  O20  1  0.95935667  0.36882888  0.32818554  1
loop_
_geom_bond_atom_site_label_1
_geom_bond_atom_site_label_2
_geom_bond_distance
_geom_bond_site_symmetry_2
Ba0 O18 2.656013 1_555
Ba0 O16 2.776115 1_565
Ba0 O20 2.822966 1_565
Ba0 O20 2.822966 1_455
Ba0 O14 2.850409 1_555
Ba0 O9 2.850409 1_555
Ba0 O1 3.144339 1_565
Ba0 O6 3.144339 1_555
Ba0 O3 3.209037 1_555
Ba0 O4 3.209037 1_565
Ba1 O19 2.656013 1_555
Ba1 O20 2.776115 1_455
Ba1 O18 2.822966 1_445
Ba1 O18 2.822966 1_555
Ba1 O12 2.850409 1_555
Ba1 O11 2.850409 1_555
Ba1 O3 3.144339 1_555
Ba1 O4 3.144339 1_455
Ba1 O2 3.209037 1_455
Ba1 O5 3.209037 1_555
Ba2 O20 2.656013 1_555
Ba2 O19 2.776115 1_655
Ba2 O16 2.822966 1_665
Ba2 O16 2.822966 1_555
Ba2 O15 2.850409 1_555
Ba2 O8 2.850409 1_555
Ba2 O7 3.144339 1_555
Ba2 O0 3.144339 1_655
Ba2 O6 3.209037 1_655
Ba2 O1 3.209037 1_555
Ba3 O16 2.656013 1_555
Ba3 O18 2.776115 1_545
Ba3 O19 2.822966 1_545
Ba3 O19 2.822966 1_655
Ba3 O10 2.850409 1_555
Ba3 O13 2.850409 1_555
Ba3 O5 3.144339 1_545
Ba3 O2 3.144339 1_555
Ba3 O7 3.209037 1_555
Ba3 O0 3.209037 1_545
Ba4 O17 2.819502 1_445
Ba4 O17 2.819502 1_555
Ba4 O13 2.866931 1_554
Ba4 O9 2.866931 1_445
Ba4 O8 2.866931 1_445
Ba4 O10 2.866931 1_444
Ba4 O11 2.866931 1_444
Ba4 O12 2.866931 1_554
Ba4 O15 2.866931 1_555
Ba4 O14 2.866931 1_555
O0 Zn0 2.038466 1_455
O0 Yb7 2.236808 1_565
O0 Yb3 2.255967 1_565
O0 Yb4 2.283442 1_455
O1 Zn1 2.038466 1_545
O1 Yb6 2.236808 1_555
O1 Yb2 2.255967 1_555
O1 Yb5 2.283442 1_544
O2 Zn2 2.038466 1_555
O2 Yb5 2.236808 1_655
O2 Yb1 2.255967 1_655
O2 Yb6 2.283442 1_556
O3 Zn3 2.038466 1_555
O3 Yb4 2.236808 1_555
O3 Yb0 2.255967 1_555
O3 Yb7 2.283442 1_555
O4 Zn3 2.038466 1_655
O4 Yb4 2.236808 1_545
O4 Yb0 2.255967 1_545
O4 Yb7 2.283442 1_655
O5 Zn2 2.038466 1_565
O5 Yb5 2.236808 1_555
O5 Yb1 2.255967 1_555
O5 Yb6 2.283442 1_566
O6 Zn1 2.038466 1_555
O6 Yb6 2.236808 1_455
O6 Yb2 2.255967 1_455
O6 Yb5 2.283442 1_554
O7 Zn0 2.038466 1_555
O7 Yb7 2.236808 1_555
O7 Yb3 2.255967 1_555
O7 Yb4 2.283442 1_555
O8 Zn1 2.104190 1_655
O8 Yb0 2.233065 1_555
O8 Yb7 2.362264 1_665
O8 Yb2 2.382616 1_555
O9 Zn3 2.104190 1_665
O9 Yb1 2.233065 1_554
O9 Yb6 2.362264 1_565
O9 Yb0 2.382616 1_555
O10 Zn0 2.104190 1_555
O10 Yb2 2.233065 1_556
O10 Yb5 2.362264 1_655
O10 Yb3 2.382616 1_555
O11 Zn2 2.104190 1_565
O11 Yb3 2.233065 1_555
O11 Yb4 2.362264 1_555
O11 Yb1 2.382616 1_555
O12 Zn2 2.104190 1_455
O12 Yb3 2.233065 1_555
O12 Yb4 2.362264 1_445
O12 Yb1 2.382616 1_555
O13 Zn0 2.104190 1_445
O13 Yb2 2.233065 1_556
O13 Yb5 2.362264 1_545
O13 Yb3 2.382616 1_555
O14 Zn3 2.104190 1_555
O14 Yb1 2.233065 1_554
O14 Yb6 2.362264 1_455
O14 Yb0 2.382616 1_555
O15 Zn1 2.104190 1_545
O15 Yb0 2.233065 1_555
O15 Yb7 2.362264 1_555
O15 Yb2 2.382616 1_555
O16 Zn1 1.971054 1_545
O16 Yb7 2.390735 1_555
O17 Yb2 2.265868 1_555
O17 Yb1 2.265868 1_554
O17 Yb0 2.265868 1_555
O17 Yb3 2.265868 1_554
O18 Zn2 1.971054 1_565
O18 Yb4 2.390735 1_555
O19 Zn0 1.971054 1_455
O19 Yb5 2.390735 1_555
O20 Zn3 1.971054 1_655
O20 Yb6 2.390735 1_555
