# generated using pymatgen
data_CrFe2Si
_symmetry_space_group_name_H-M   'P 1'
_cell_length_a   3.95316248
_cell_length_b   3.95316248
_cell_length_c   3.95316248
_cell_angle_alpha   60.00000000
_cell_angle_beta   60.00000000
_cell_angle_gamma   60.00000000
_symmetry_Int_Tables_number   1
_chemical_formula_structural   CrFe2Si
_chemical_formula_sum   'Cr1 Fe2 Si1'
_cell_volume   43.68365796
_cell_formula_units_Z   1
loop_
 _symmetry_equiv_pos_site_id
 _symmetry_equiv_pos_as_xyz
  1  'x, y, z'
loop_
 _atom_site_type_symbol
 _atom_site_label
 _atom_site_symmetry_multiplicity
 _atom_site_fract_x
 _atom_site_fract_y
 _atom_site_fract_z
 _atom_site_occupancy
  Cr  Cr0  1  0.00000000  0.00000000  0.00000000  1
  Fe  Fe0  1  0.25000000  0.25000000  0.25000000  1
  Fe  Fe1  1  0.75000000  0.75000000  0.75000000  1
  Si  Si0  1  0.50000000  0.50000000  0.50000000  1
loop_
_geom_bond_atom_site_label_1
_geom_bond_atom_site_label_2
_geom_bond_distance
_geom_bond_site_symmetry_2
Cr0 Fe0 2.420808 1_455
Cr0 Fe0 2.420808 1_545
Cr0 Fe1 2.420808 1_454
Cr0 Fe1 2.420808 1_544
Cr0 Fe0 2.420808 1_554
Cr0 Fe0 2.420808 1_555
Cr0 Fe1 2.420808 1_444
Cr0 Fe1 2.420808 1_445
Cr0 Si0 2.795308 1_544
Cr0 Si0 2.795308 1_454
Cr0 Si0 2.795308 1_445
Cr0 Si0 2.795308 1_545
Cr0 Si0 2.795308 1_554
Cr0 Si0 2.795308 1_455
Fe0 Si0 2.420808 1_455
Fe0 Si0 2.420808 1_545
Fe0 Si0 2.420808 1_554
Fe0 Si0 2.420808 1_555
Fe1 Si0 2.420808 1_565
Fe1 Si0 2.420808 1_655
Fe1 Si0 2.420808 1_556
Fe1 Si0 2.420808 1_555
