# generated using pymatgen
data_RbGaH4
_symmetry_space_group_name_H-M   'P 1'
_cell_length_a   5.92142200
_cell_length_b   7.81233400
_cell_length_c   9.71786000
_cell_angle_alpha   90.00000000
_cell_angle_beta   90.00000000
_cell_angle_gamma   90.00000000
_symmetry_Int_Tables_number   1
_chemical_formula_structural   RbGaH4
_chemical_formula_sum   'Rb4 Ga4 H16'
_cell_volume   449.54943212
_cell_formula_units_Z   4
loop_
 _symmetry_equiv_pos_site_id
 _symmetry_equiv_pos_as_xyz
  1  'x, y, z'
loop_
 _atom_site_type_symbol
 _atom_site_label
 _atom_site_symmetry_multiplicity
 _atom_site_fract_x
 _atom_site_fract_y
 _atom_site_fract_z
 _atom_site_occupancy
  Rb  Rb0  1  0.25000000  0.33747700  0.68254200  1
  Rb  Rb1  1  0.25000000  0.16252300  0.18254200  1
  Rb  Rb2  1  0.75000000  0.66252300  0.31745800  1
  Rb  Rb3  1  0.75000000  0.83747700  0.81745800  1
  Ga  Ga0  1  0.25000000  0.69314600  0.06214200  1
  Ga  Ga1  1  0.25000000  0.80685400  0.56214200  1
  Ga  Ga2  1  0.75000000  0.30685400  0.93785800  1
  Ga  Ga3  1  0.75000000  0.19314600  0.43785800  1
  H  H0  1  0.25000000  0.61412200  0.91152800  1
  H  H1  1  0.25000000  0.88587800  0.41152800  1
  H  H2  1  0.75000000  0.38587800  0.08847200  1
  H  H3  1  0.75000000  0.11412200  0.58847200  1
  H  H4  1  0.25000000  0.55060500  0.17958900  1
  H  H5  1  0.25000000  0.94939500  0.67958900  1
  H  H6  1  0.75000000  0.44939500  0.82041100  1
  H  H7  1  0.75000000  0.05060500  0.32041100  1
  H  H8  1  0.96866400  0.18747100  0.91816500  1
  H  H9  1  0.53133600  0.31252900  0.41816500  1
  H  H10  1  0.46866400  0.81252900  0.08183500  1
  H  H11  1  0.03133600  0.68747100  0.58183500  1
  H  H12  1  0.03133600  0.81252900  0.08183500  1
  H  H13  1  0.46866400  0.68747100  0.58183500  1
  H  H14  1  0.53133600  0.18747100  0.91816500  1
  H  H15  1  0.96866400  0.31252900  0.41816500  1
loop_
_geom_bond_atom_site_label_1
_geom_bond_atom_site_label_2
_geom_bond_distance
_geom_bond_site_symmetry_2
Ga0 H0 1.588520 1_554
Ga0 H4 1.594584 1_555
Ga0 H12 1.607168 1_555
Ga0 H10 1.607168 1_555
Ga1 H1 1.588520 1_555
Ga1 H5 1.594584 1_555
Ga1 H11 1.607168 1_555
Ga1 H13 1.607168 1_555
Ga2 H2 1.588520 1_556
Ga2 H6 1.594584 1_555
Ga2 H14 1.607168 1_555
Ga2 H8 1.607168 1_555
Ga3 H3 1.588520 1_555
Ga3 H7 1.594584 1_555
Ga3 H15 1.607168 1_555
Ga3 H9 1.607168 1_555
H0 Rb0 3.102052 1_555
H1 Rb1 3.102052 1_565
H2 Rb2 3.102052 1_555
H3 Rb3 3.102052 1_545
H4 Rb1 3.031962 1_555
H5 Rb0 3.031962 1_565
H6 Rb3 3.031962 1_555
H7 Rb2 3.031962 1_545
H8 Rb0 3.064565 1_655
H8 Rb1 3.068211 1_656
H8 Rb3 3.179703 1_545
H9 Rb1 3.064565 1_555
H9 Rb0 3.068211 1_555
H9 Rb2 3.179703 1_555
H10 Rb2 3.064565 1_555
H10 Rb3 3.068211 1_554
H10 Rb1 3.179703 1_565
H11 Rb3 3.064565 1_455
H11 Rb2 3.068211 1_455
H11 Rb0 3.179703 1_555
H12 Rb2 3.064565 1_455
H12 Rb3 3.068211 1_454
H12 Rb1 3.179703 1_565
H13 Rb3 3.064565 1_555
H13 Rb2 3.068211 1_555
H13 Rb0 3.179703 1_555
H14 Rb0 3.064565 1_555
H14 Rb1 3.068211 1_556
H14 Rb3 3.179703 1_545
H15 Rb1 3.064565 1_655
H15 Rb0 3.068211 1_655
H15 Rb2 3.179703 1_555
