# generated using pymatgen
data_RbNaMg6
_symmetry_space_group_name_H-M   'P 1'
_cell_length_a   5.47948200
_cell_length_b   6.51222300
_cell_length_c   13.12783100
_cell_angle_alpha   90.00000000
_cell_angle_beta   90.00000000
_cell_angle_gamma   90.00000000
_symmetry_Int_Tables_number   1
_chemical_formula_structural   RbNaMg6
_chemical_formula_sum   'Rb2 Na2 Mg12'
_cell_volume   468.44838460
_cell_formula_units_Z   2
loop_
 _symmetry_equiv_pos_site_id
 _symmetry_equiv_pos_as_xyz
  1  'x, y, z'
loop_
 _atom_site_type_symbol
 _atom_site_label
 _atom_site_symmetry_multiplicity
 _atom_site_fract_x
 _atom_site_fract_y
 _atom_site_fract_z
 _atom_site_occupancy
  Rb  Rb0  1  0.50000000  0.50000000  0.17897000  1
  Rb  Rb1  1  0.50000000  0.00000000  0.67897000  1
  Na  Na0  1  0.50000000  0.00000000  0.17155400  1
  Na  Na1  1  0.50000000  0.50000000  0.67155400  1
  Mg  Mg0  1  0.50000000  0.25013000  0.42356500  1
  Mg  Mg1  1  0.50000000  0.74987000  0.42356500  1
  Mg  Mg2  1  0.00000000  0.75833000  0.05772700  1
  Mg  Mg3  1  0.00000000  0.24167000  0.05772700  1
  Mg  Mg4  1  0.00000000  0.00000000  0.33525400  1
  Mg  Mg5  1  0.00000000  0.50000000  0.35163400  1
  Mg  Mg6  1  0.50000000  0.75013000  0.92356500  1
  Mg  Mg7  1  0.50000000  0.24987000  0.92356500  1
  Mg  Mg8  1  0.00000000  0.25833000  0.55772700  1
  Mg  Mg9  1  0.00000000  0.74167000  0.55772700  1
  Mg  Mg10  1  0.00000000  0.50000000  0.83525400  1
  Mg  Mg11  1  0.00000000  0.00000000  0.85163400  1
loop_
_geom_bond_atom_site_label_1
_geom_bond_atom_site_label_2
_geom_bond_distance
_geom_bond_site_symmetry_2
Na0 Rb0 3.257567 1_555
Na0 Rb0 3.257567 1_545
Na1 Rb1 3.257567 1_555
Na1 Rb1 3.257567 1_565
Mg0 Mg1 3.254418 1_555
Mg0 Mg8 3.257461 1_655
Mg0 Mg8 3.257461 1_555
Mg0 Mg1 3.257805 1_545
Mg0 Mg5 3.323506 1_555
Mg0 Mg5 3.323506 1_655
Mg0 Mg4 3.391689 1_655
Mg0 Mg4 3.391689 1_555
Mg0 Rb0 3.599770 1_555
Mg0 Na1 3.639569 1_555
Mg0 Na0 3.687622 1_555
Mg0 Rb1 3.727647 1_555
Mg1 Mg9 3.257461 1_555
Mg1 Mg9 3.257461 1_655
Mg1 Mg5 3.323506 1_555
Mg1 Mg5 3.323506 1_655
Mg1 Mg4 3.391689 1_565
Mg1 Mg4 3.391689 1_665
Mg1 Rb0 3.599770 1_555
Mg1 Na1 3.639569 1_555
Mg1 Na0 3.687622 1_565
Mg1 Rb1 3.727647 1_565
Mg2 Mg3 3.147618 1_565
Mg2 Mg6 3.257461 1_554
Mg2 Mg6 3.257461 1_454
Mg2 Mg3 3.364605 1_555
Mg2 Na0 3.495138 1_565
Mg2 Na0 3.495138 1_465
Mg2 Rb0 3.587436 1_455
Mg2 Rb0 3.587436 1_555
Mg3 Mg7 3.257461 1_554
Mg3 Mg7 3.257461 1_454
Mg3 Na0 3.495138 1_555
Mg3 Na0 3.495138 1_455
Mg3 Rb0 3.587436 1_455
Mg3 Rb0 3.587436 1_555
Mg4 Mg5 3.263204 1_555
Mg4 Mg5 3.263204 1_545
Mg4 Mg8 3.370456 1_555
Mg4 Mg9 3.370456 1_545
Mg4 Na0 3.482024 1_455
Mg4 Na0 3.482024 1_555
Mg5 Mg8 3.130000 1_555
Mg5 Mg9 3.130000 1_555
Mg5 Rb0 3.555858 1_455
Mg5 Rb0 3.555858 1_555
Mg6 Mg7 3.254418 1_565
Mg6 Mg7 3.257805 1_555
Mg6 Rb1 3.599770 1_565
Mg6 Na0 3.639569 1_566
Mg6 Na1 3.687622 1_555
Mg6 Rb0 3.727647 1_556
Mg7 Rb1 3.599770 1_555
Mg7 Na0 3.639569 1_556
Mg7 Na1 3.687622 1_555
Mg7 Rb0 3.727647 1_556
Mg8 Mg9 3.147618 1_555
Mg8 Mg9 3.364605 1_545
Mg8 Na1 3.495138 1_555
Mg8 Na1 3.495138 1_455
Mg8 Rb1 3.587436 1_455
Mg8 Rb1 3.587436 1_555
Mg9 Na1 3.495138 1_555
Mg9 Na1 3.495138 1_455
Mg9 Rb1 3.587436 1_465
Mg9 Rb1 3.587436 1_565
Mg10 Mg11 3.263204 1_565
Mg10 Mg11 3.263204 1_555
Mg10 Mg3 3.370456 1_556
Mg10 Mg2 3.370456 1_556
Mg10 Mg7 3.391689 1_455
Mg10 Mg6 3.391689 1_455
Mg10 Mg6 3.391689 1_555
Mg10 Mg7 3.391689 1_555
Mg10 Na1 3.482024 1_555
Mg10 Na1 3.482024 1_455
Mg11 Mg2 3.130000 1_546
Mg11 Mg3 3.130000 1_556
Mg11 Mg7 3.323506 1_555
Mg11 Mg6 3.323506 1_445
Mg11 Mg6 3.323506 1_545
Mg11 Mg7 3.323506 1_455
Mg11 Rb1 3.555858 1_455
Mg11 Rb1 3.555858 1_555
