# generated using pymatgen
data_Ba2Cu2O5
_symmetry_space_group_name_H-M   'P 1'
_cell_length_a   9.36016392
_cell_length_b   9.36016392
_cell_length_c   9.36016392
_cell_angle_alpha   144.65692829
_cell_angle_beta   144.52812192
_cell_angle_gamma   50.94224839
_symmetry_Int_Tables_number   1
_chemical_formula_structural   Ba2Cu2O5
_chemical_formula_sum   'Ba4 Cu4 O10'
_cell_volume   273.85494624
_cell_formula_units_Z   2
loop_
 _symmetry_equiv_pos_site_id
 _symmetry_equiv_pos_as_xyz
  1  'x, y, z'
loop_
 _atom_site_type_symbol
 _atom_site_label
 _atom_site_symmetry_multiplicity
 _atom_site_fract_x
 _atom_site_fract_y
 _atom_site_fract_z
 _atom_site_occupancy
  Ba  Ba0  1  0.60230100  0.12070200  0.49327900  1
  Ba  Ba1  1  0.37257600  0.87929800  0.48159900  1
  Ba  Ba2  1  0.10230100  0.60902300  0.48159900  1
  Ba  Ba3  1  0.87257600  0.39097700  0.49327900  1
  Cu  Cu0  1  0.98911400  0.00000000  0.98911400  1
  Cu  Cu1  1  0.48911400  0.50000000  0.98911400  1
  Cu  Cu2  1  0.22813500  0.29481300  0.02294900  1
  Cu  Cu3  1  0.72813500  0.70518700  0.93332200  1
  O  O0  1  0.23318600  0.74596200  0.98305500  1
  O  O1  1  0.23709300  0.25403800  0.48722400  1
  O  O2  1  0.73318600  0.75013100  0.48722400  1
  O  O3  1  0.73709300  0.24986900  0.98305500  1
  O  O4  1  0.13749700  0.11019000  0.95728300  1
  O  O5  1  0.84709300  0.88981000  0.02730700  1
  O  O6  1  0.63749700  0.68021400  0.02730700  1
  O  O7  1  0.34709300  0.31978600  0.95728300  1
  O  O8  1  0.94580300  0.45448000  0.90028300  1
  O  O9  1  0.44580300  0.54552000  0.49132300  1
loop_
_geom_bond_atom_site_label_1
_geom_bond_atom_site_label_2
_geom_bond_distance
_geom_bond_site_symmetry_2
Ba0 O6 2.724425 1_545
Ba0 O3 2.743935 1_555
Ba0 O1 2.769424 1_555
Ba0 O8 2.811145 1_555
Ba0 O2 2.823574 1_545
Ba0 O0 2.848902 1_544
Ba0 O4 2.879254 1_554
Ba0 O4 2.933591 1_655
Ba0 O6 3.050676 1_556
Ba0 O9 3.269904 1_555
Ba1 O7 2.724421 1_565
Ba1 O2 2.743944 1_555
Ba1 O0 2.769430 1_554
Ba1 O9 2.811140 1_555
Ba1 O3 2.823580 1_565
Ba1 O1 2.848905 1_565
Ba1 O5 2.879249 1_455
Ba1 O5 2.933592 1_556
Ba1 O7 3.050678 1_554
Ba1 O8 3.269898 1_454
Ba2 O4 2.724421 1_565
Ba2 O1 2.743944 1_555
Ba2 O3 2.769430 1_454
Ba2 O9 2.811140 1_555
Ba2 O0 2.823580 1_555
Ba2 O2 2.848905 1_455
Ba2 O6 2.879249 1_455
Ba2 O6 2.933592 1_556
Ba2 O4 3.050678 1_554
Ba2 O8 3.269898 1_454
Ba3 O5 2.724422 1_545
Ba3 O0 2.743947 1_655
Ba3 O2 2.769435 1_555
Ba3 O8 2.811131 1_555
Ba3 O1 2.823586 1_655
Ba3 O3 2.848914 1_554
Ba3 O7 2.879251 1_554
Ba3 O7 2.933588 1_655
Ba3 O5 3.050673 1_556
Ba3 O9 3.269892 1_555
Cu0 O0 2.005424 1_645
Cu0 O1 2.005424 1_656
Cu0 O2 2.020809 1_545
Cu0 O3 2.020809 1_555
Cu0 O4 2.462142 1_655
Cu0 O5 2.462142 1_546
Cu1 O2 2.005424 1_556
Cu1 O3 2.005424 1_555
Cu1 O0 2.020809 1_555
Cu1 O1 2.020809 1_555
Cu1 O7 2.462142 1_555
Cu1 O6 2.462142 1_556
Cu2 O4 1.830108 1_554
Cu2 O7 1.830124 1_554
Cu2 O8 1.848143 1_454
Cu2 O9 1.889609 1_555
Cu3 O6 1.830115 1_556
Cu3 O5 1.830115 1_556
Cu3 O9 1.848142 1_555
Cu3 O8 1.889613 1_555
