# generated using pymatgen
data_LaRh2
_symmetry_space_group_name_H-M   'P 1'
_cell_length_a   5.41415910
_cell_length_b   5.41415859
_cell_length_c   5.41415734
_cell_angle_alpha   59.99999502
_cell_angle_beta   59.99999818
_cell_angle_gamma   59.99999573
_symmetry_Int_Tables_number   1
_chemical_formula_structural   LaRh2
_chemical_formula_sum   'La2 Rh4'
_cell_volume   112.22195362
_cell_formula_units_Z   2
loop_
 _symmetry_equiv_pos_site_id
 _symmetry_equiv_pos_as_xyz
  1  'x, y, z'
loop_
 _atom_site_type_symbol
 _atom_site_label
 _atom_site_symmetry_multiplicity
 _atom_site_fract_x
 _atom_site_fract_y
 _atom_site_fract_z
 _atom_site_occupancy
  La  La0  1  0.12500000  0.12500000  0.12500000  1
  La  La1  1  0.87500000  0.87500000  0.87500000  1
  Rh  Rh0  1  0.50000000  -0.00000000  0.50000000  1
  Rh  Rh1  1  -0.00000000  0.50000000  0.50000000  1
  Rh  Rh2  1  0.50000000  0.50000000  0.50000000  1
  Rh  Rh3  1  0.50000000  0.50000000  0.00000000  1
loop_
_geom_bond_atom_site_label_1
_geom_bond_atom_site_label_2
_geom_bond_distance
_geom_bond_site_symmetry_2
La0 Rh1 3.174331 1_554
La0 Rh0 3.174331 1_554
La0 Rh2 3.174331 1_554
La0 Rh2 3.174331 1_545
La0 Rh1 3.174331 1_555
La0 Rh0 3.174332 1_555
La0 Rh2 3.174332 1_455
La0 Rh3 3.174332 1_545
La0 Rh1 3.174332 1_545
La0 Rh3 3.174332 1_455
La0 Rh0 3.174332 1_455
La0 Rh3 3.174332 1_555
La1 Rh1 3.174331 1_656
La1 Rh0 3.174331 1_566
La1 Rh2 3.174331 1_556
La1 Rh2 3.174331 1_565
La1 Rh1 3.174331 1_655
La1 Rh0 3.174332 1_565
La1 Rh2 3.174332 1_655
La1 Rh3 3.174332 1_566
La1 Rh1 3.174332 1_665
La1 Rh3 3.174332 1_656
La1 Rh0 3.174332 1_665
La1 Rh3 3.174332 1_556
Rh0 Rh3 2.707079 1_555
Rh0 Rh3 2.707079 1_546
Rh0 Rh1 2.707079 1_555
Rh0 Rh1 2.707079 1_645
Rh0 Rh2 2.707079 1_545
Rh0 Rh2 2.707079 1_555
Rh1 Rh3 2.707079 1_555
Rh1 Rh3 2.707079 1_456
Rh1 Rh2 2.707080 1_555
Rh1 Rh2 2.707080 1_455
Rh2 Rh3 2.707079 1_555
Rh2 Rh3 2.707079 1_556
