# generated using pymatgen
data_Ca(GaSe2)2
_symmetry_space_group_name_H-M   'P 1'
_cell_length_a   14.96894473
_cell_length_b   12.37879461
_cell_length_c   12.32867918
_cell_angle_alpha   74.61450274
_cell_angle_beta   52.87269812
_cell_angle_gamma   52.55779402
_symmetry_Int_Tables_number   1
_chemical_formula_structural   Ca(GaSe2)2
_chemical_formula_sum   'Ca8 Ga16 Se32'
_cell_volume   1427.36875975
_cell_formula_units_Z   8
loop_
 _symmetry_equiv_pos_site_id
 _symmetry_equiv_pos_as_xyz
  1  'x, y, z'
loop_
 _atom_site_type_symbol
 _atom_site_label
 _atom_site_symmetry_multiplicity
 _atom_site_fract_x
 _atom_site_fract_y
 _atom_site_fract_z
 _atom_site_occupancy
  Ca  Ca0  1  0.50001237  0.49996888  0.49998556  1
  Ca  Ca1  1  0.75002609  0.75004253  0.75000416  1
  Ca  Ca2  1  -0.00001855  0.00005888  0.99999797  1
  Ca  Ca3  1  0.25005301  0.24996916  0.24998485  1
  Ca  Ca4  1  0.24790645  0.24791949  0.75213376  1
  Ca  Ca5  1  0.75207871  0.75210773  0.24793896  1
  Ca  Ca6  1  0.00215051  0.00212003  0.49788965  1
  Ca  Ca7  1  0.49785840  0.49795067  0.00213772  1
  Ga  Ga0  1  0.09539304  0.65509558  0.26388974  1
  Ga  Ga1  1  0.98570067  0.26373434  0.65492009  1
  Ga  Ga2  1  0.26364765  0.98576128  0.09549951  1
  Ga  Ga3  1  0.65500864  0.09544170  0.98579811  1
  Ga  Ga4  1  0.15431268  0.59506081  0.98637314  1
  Ga  Ga5  1  0.26416407  0.98625130  0.59509239  1
  Ga  Ga6  1  0.98609051  0.26457610  0.15453485  1
  Ga  Ga7  1  0.59498579  0.15438414  0.26439781  1
  Ga  Ga8  1  0.73871743  0.01269201  0.48956962  1
  Ga  Ga9  1  0.75917725  0.48960355  0.01257288  1
  Ga  Ga10  1  0.48984182  0.75880897  0.73850275  1
  Ga  Ga11  1  0.01277421  0.73854978  0.75902760  1
  Ga  Ga12  1  0.51153192  0.23711744  0.76037062  1
  Ga  Ga13  1  0.49104974  0.76036504  0.23722670  1
  Ga  Ga14  1  0.76049347  0.49097034  0.51142879  1
  Ga  Ga15  1  0.23714782  0.51159163  0.49101674  1
  Se  Se0  1  0.54055455  0.53664960  0.70963608  1
  Se  Se1  1  0.21271833  0.71017732  0.53683496  1
  Se  Se2  1  0.71005178  0.21275523  0.54049123  1
  Se  Se3  1  0.53693302  0.54035864  0.21263773  1
  Se  Se4  1  0.70982049  0.71309229  0.54004714  1
  Se  Se5  1  0.03707788  0.54014849  0.71299940  1
  Se  Se6  1  0.54012594  0.03708186  0.70946274  1
  Se  Se7  1  0.71319020  0.70970469  0.03707284  1
  Se  Se8  1  0.03945211  0.03658663  0.71004049  1
  Se  Se9  1  0.21364304  0.71013835  0.03664151  1
  Se  Se10  1  0.70994161  0.21380044  0.03984519  1
  Se  Se11  1  0.03631894  0.03990813  0.21382924  1
  Se  Se12  1  0.21035119  0.21339138  0.54009803  1
  Se  Se13  1  0.03610489  0.54003445  0.21347361  1
  Se  Se14  1  0.53991224  0.03613854  0.21034787  1
  Se  Se15  1  0.21337506  0.21042343  0.03609609  1
  Se  Se16  1  0.46436484  0.28286194  0.97159395  1
  Se  Se17  1  0.28130071  0.97169912  0.28272400  1
  Se  Se18  1  0.97174830  0.28111366  0.46412035  1
  Se  Se19  1  0.28280530  0.46421321  0.28133334  1
  Se  Se20  1  0.78593727  0.96677920  0.27829344  1
  Se  Se21  1  0.96901658  0.27828433  0.96681859  1
  Se  Se22  1  0.27848724  0.96865121  0.78568451  1
  Se  Se23  1  0.96696526  0.78564381  0.96899353  1
  Se  Se24  1  0.80878342  0.94371427  0.77478737  1
  Se  Se25  1  0.47274225  0.77463802  0.94386880  1
  Se  Se26  1  0.77451027  0.47262525  0.80880490  1
  Se  Se27  1  0.94395243  0.80906301  0.47270099  1
  Se  Se28  1  0.44104865  0.30611576  0.47549739  1
  Se  Se29  1  0.77720487  0.47572447  0.30618509  1
  Se  Se30  1  0.47525646  0.77715058  0.44140118  1
  Se  Se31  1  0.30620219  0.44119229  0.77734144  1
loop_
_geom_bond_atom_site_label_1
_geom_bond_atom_site_label_2
_geom_bond_distance
_geom_bond_site_symmetry_2
Ca0 Se30 3.145476 1_555
Ca0 Se31 3.147927 1_555
Ca0 Se28 3.148017 1_555
Ca0 Se29 3.148635 1_555
Ca0 Se0 3.179087 1_555
Ca0 Se1 3.183359 1_555
Ca0 Se2 3.183780 1_555
Ca0 Se3 3.184053 1_555
Ca1 Se24 3.145090 1_555
Ca1 Se25 3.147531 1_555
Ca1 Se27 3.149851 1_555
Ca1 Se26 3.149957 1_555
Ca1 Se5 3.179570 1_655
Ca1 Se4 3.180452 1_555
Ca1 Se7 3.181259 1_556
Ca1 Se6 3.182117 1_565
Ca2 Se21 3.127974 1_455
Ca2 Se22 3.128810 1_545
Ca2 Se20 3.129170 1_446
Ca2 Se23 3.129940 1_445
Ca2 Se11 3.199432 1_556
Ca2 Se10 3.199798 1_456
Ca2 Se9 3.200060 1_546
Ca2 Se8 3.201583 1_555
Ca3 Se19 3.126800 1_555
Ca3 Se17 3.127033 1_545
Ca3 Se18 3.127906 1_455
Ca3 Se16 3.129247 1_554
Ca3 Se14 3.198944 1_555
Ca3 Se13 3.201913 1_555
Ca3 Se12 3.202019 1_555
Ca3 Se15 3.202209 1_555
Ca4 Se28 3.136096 1_555
Ca4 Se31 3.137273 1_555
Ca4 Se21 3.139423 1_455
Ca4 Se22 3.142794 1_545
Ca4 Se15 3.159710 1_556
Ca4 Se12 3.160916 1_555
Ca4 Se6 3.208029 1_555
Ca4 Se5 3.210764 1_555
Ca5 Se29 3.133707 1_555
Ca5 Se20 3.138925 1_555
Ca5 Se30 3.139263 1_555
Ca5 Se23 3.139775 1_554
Ca5 Se13 3.160380 1_655
Ca5 Se14 3.161945 1_565
Ca5 Se7 3.208629 1_555
Ca5 Se4 3.209573 1_555
Ca6 Se27 3.133433 1_445
Ca6 Se24 3.140276 1_445
Ca6 Se18 3.140466 1_455
Ca6 Se17 3.142446 1_545
Ca6 Se8 3.159059 1_555
Ca6 Se11 3.162973 1_555
Ca6 Se1 3.206478 1_545
Ca6 Se2 3.206947 1_455
Ca7 Se26 3.135481 1_554
Ca7 Se25 3.137377 1_554
Ca7 Se16 3.140913 1_554
Ca7 Se19 3.143402 1_555
Ca7 Se9 3.162381 1_555
Ca7 Se10 3.162766 1_555
Ca7 Se3 3.206458 1_555
Ca7 Se0 3.211807 1_554
Ga0 Se27 2.388300 1_455
Ga0 Se13 2.423905 1_555
Ga0 Se19 2.428615 1_555
Ga0 Se9 2.431817 1_555
Ga1 Se26 2.388093 1_555
Ga1 Se12 2.423628 1_655
Ga1 Se18 2.427584 1_555
Ga1 Se8 2.431201 1_655
Ga2 Se25 2.388351 1_554
Ga2 Se15 2.424199 1_565
Ga2 Se17 2.428010 1_555
Ga2 Se11 2.431009 1_565
Ga3 Se24 2.387652 1_545
Ga3 Se14 2.423420 1_556
Ga3 Se16 2.427839 1_555
Ga3 Se10 2.431285 1_556
Ga4 Se31 2.388382 1_555
Ga4 Se9 2.423485 1_556
Ga4 Se23 2.426686 1_455
Ga4 Se13 2.430442 1_556
Ga5 Se30 2.388417 1_555
Ga5 Se8 2.424189 1_565
Ga5 Se22 2.427855 1_555
Ga5 Se12 2.430663 1_565
Ga6 Se29 2.388038 1_555
Ga6 Se11 2.424149 1_655
Ga6 Se21 2.429604 1_554
Ga6 Se15 2.430174 1_655
Ga7 Se28 2.388046 1_555
Ga7 Se10 2.423615 1_555
Ga7 Se20 2.429278 1_545
Ga7 Se14 2.431905 1_555
Ga8 Se20 2.383672 1_545
Ga8 Se6 2.427346 1_555
Ga8 Se2 2.432938 1_555
Ga8 Se27 2.434357 1_545
Ga9 Se21 2.383398 1_554
Ga9 Se7 2.427682 1_555
Ga9 Se3 2.433340 1_555
Ga9 Se26 2.435859 1_554
Ga10 Se22 2.383852 1_555
Ga10 Se4 2.427462 1_555
Ga10 Se0 2.433226 1_555
Ga10 Se25 2.436046 1_555
Ga11 Se23 2.383867 1_455
Ga11 Se5 2.426943 1_555
Ga11 Se1 2.433142 1_555
Ga11 Se24 2.434737 1_455
Ga12 Se16 2.382712 1_555
Ga12 Se2 2.426879 1_555
Ga12 Se6 2.433173 1_555
Ga12 Se31 2.436285 1_555
Ga13 Se17 2.383627 1_555
Ga13 Se3 2.427542 1_555
Ga13 Se7 2.433050 1_555
Ga13 Se30 2.436144 1_555
Ga14 Se18 2.382725 1_555
Ga14 Se0 2.426485 1_555
Ga14 Se4 2.432261 1_555
Ga14 Se29 2.435757 1_555
Ga15 Se19 2.382899 1_555
Ga15 Se1 2.426981 1_555
Ga15 Se5 2.432229 1_555
Ga15 Se28 2.436321 1_555
