# generated using pymatgen
data_Ba2CuSeO2
_symmetry_space_group_name_H-M   'P 1'
_cell_length_a   4.05272900
_cell_length_b   4.05272900
_cell_length_c   7.56178200
_cell_angle_alpha   90.00000000
_cell_angle_beta   90.00000000
_cell_angle_gamma   90.00000000
_symmetry_Int_Tables_number   1
_chemical_formula_structural   Ba2CuSeO2
_chemical_formula_sum   'Ba2 Cu1 Se1 O2'
_cell_volume   124.19933801
_cell_formula_units_Z   1
loop_
 _symmetry_equiv_pos_site_id
 _symmetry_equiv_pos_as_xyz
  1  'x, y, z'
loop_
 _atom_site_type_symbol
 _atom_site_label
 _atom_site_symmetry_multiplicity
 _atom_site_fract_x
 _atom_site_fract_y
 _atom_site_fract_z
 _atom_site_occupancy
  Ba  Ba0  1  0.50000000  0.50000000  0.74875400  1
  Ba  Ba1  1  0.50000000  0.50000000  0.25124600  1
  Cu  Cu0  1  0.00000000  0.00000000  0.50000000  1
  Se  Se0  1  0.00000000  0.00000000  0.00000000  1
  O  O0  1  0.00000000  0.50000000  0.50000000  1
  O  O1  1  0.50000000  0.00000000  0.50000000  1
loop_
_geom_bond_atom_site_label_1
_geom_bond_atom_site_label_2
_geom_bond_distance
_geom_bond_site_symmetry_2
Ba0 O1 2.764851 1_555
Ba0 O0 2.764851 1_655
Ba0 O1 2.764851 1_565
Ba0 O0 2.764851 1_555
Ba0 Se0 3.438285 1_656
Ba0 Se0 3.438285 1_556
Ba0 Se0 3.438285 1_566
Ba0 Se0 3.438285 1_666
Ba1 O1 2.764851 1_555
Ba1 O0 2.764851 1_555
Ba1 O1 2.764851 1_565
Ba1 O0 2.764851 1_655
Ba1 Se0 3.438285 1_665
Ba1 Se0 3.438285 1_565
Ba1 Se0 3.438285 1_555
Ba1 Se0 3.438285 1_655
Cu0 O0 2.026365 1_555
Cu0 O0 2.026365 1_545
Cu0 O1 2.026365 1_555
Cu0 O1 2.026365 1_455
