# generated using pymatgen
data_LaP3(HO2)6
_symmetry_space_group_name_H-M   'P 1'
_cell_length_a   6.94160600
_cell_length_b   6.94160675
_cell_length_c   6.17510500
_cell_angle_alpha   90.00000000
_cell_angle_beta   90.00000000
_cell_angle_gamma   119.99999645
_symmetry_Int_Tables_number   1
_chemical_formula_structural   LaP3(HO2)6
_chemical_formula_sum   'La1 P3 H6 O12'
_cell_volume   257.68845413
_cell_formula_units_Z   1
loop_
 _symmetry_equiv_pos_site_id
 _symmetry_equiv_pos_as_xyz
  1  'x, y, z'
loop_
 _atom_site_type_symbol
 _atom_site_label
 _atom_site_symmetry_multiplicity
 _atom_site_fract_x
 _atom_site_fract_y
 _atom_site_fract_z
 _atom_site_occupancy
  La  La0  1  0.66666700  0.33333300  0.00000000  1
  P  P0  1  0.05785100  0.45269500  0.50000000  1
  P  P1  1  0.39484400  0.94214900  0.50000000  1
  P  P2  1  0.54730500  0.60515600  0.50000000  1
  H  H0  1  0.71420200  0.90216000  0.87461300  1
  H  H1  1  0.18795900  0.28579800  0.87461300  1
  H  H2  1  0.09784000  0.81204100  0.87461300  1
  H  H3  1  0.71420200  0.90216000  0.12538700  1
  H  H4  1  0.18795900  0.28579800  0.12538700  1
  H  H5  1  0.09784000  0.81204100  0.12538700  1
  O  O0  1  0.28158000  0.43400000  0.50000000  1
  O  O1  1  0.15242000  0.71842000  0.50000000  1
  O  O2  1  0.56600000  0.84758000  0.50000000  1
  O  O3  1  0.94214100  0.35819100  0.71053400  1
  O  O4  1  0.41605000  0.05785900  0.71053400  1
  O  O5  1  0.64180900  0.58395000  0.71053400  1
  O  O6  1  0.94214100  0.35819100  0.28946600  1
  O  O7  1  0.41605000  0.05785900  0.28946600  1
  O  O8  1  0.64180900  0.58395000  0.28946600  1
  O  O9  1  0.71567400  0.98806300  0.00000000  1
  O  O10  1  0.27238900  0.28432600  0.00000000  1
  O  O11  1  0.01193700  0.72761100  0.00000000  1
loop_
_geom_bond_atom_site_label_1
_geom_bond_atom_site_label_2
_geom_bond_distance
_geom_bond_site_symmetry_2
La0 O6 2.559597 1_555
La0 O3 2.559597 1_554
La0 O4 2.559599 1_554
La0 O7 2.559599 1_555
La0 O8 2.559602 1_555
La0 O5 2.559602 1_554
La0 O9 2.583674 1_545
La0 O11 2.583678 1_655
La0 O10 2.583681 1_555
H0 O9 0.974216 1_556
H1 O10 0.974212 1_556
H2 O11 0.974214 1_556
H3 O9 0.974216 1_555
H4 O10 0.974212 1_555
H5 O11 0.974214 1_555
O0 P2 1.619400 1_555
O0 P0 1.621824 1_555
O1 P0 1.619400 1_555
O1 P1 1.621824 1_555
O2 P1 1.619400 1_555
O2 P2 1.621824 1_555
O3 P0 1.496250 1_655
O4 P1 1.496250 1_545
O5 P2 1.496250 1_555
O6 P0 1.496250 1_655
O7 P1 1.496250 1_545
O8 P2 1.496250 1_555
