# generated using pymatgen
data_Nb6BiTe8
_symmetry_space_group_name_H-M   'P 1'
_cell_length_a   21.62984813
_cell_length_b   21.62984813
_cell_length_c   7.25495800
_cell_angle_alpha   90.00000000
_cell_angle_beta   90.00000000
_cell_angle_gamma   120.00000040
_symmetry_Int_Tables_number   1
_chemical_formula_structural   Nb6BiTe8
_chemical_formula_sum   'Nb48 Bi8 Te64'
_cell_volume   2939.49328790
_cell_formula_units_Z   8
loop_
 _symmetry_equiv_pos_site_id
 _symmetry_equiv_pos_as_xyz
  1  'x, y, z'
loop_
 _atom_site_type_symbol
 _atom_site_label
 _atom_site_symmetry_multiplicity
 _atom_site_fract_x
 _atom_site_fract_y
 _atom_site_fract_z
 _atom_site_occupancy
  Nb  Nb0_0  1  0.30761400  0.25641050  0.12484150  1
  Nb  Nb0_1  1  0.30761400  0.25641050  0.62484150  1
  Nb  Nb0_2  1  0.30761400  0.75641050  0.12484150  1
  Nb  Nb0_3  1  0.30761400  0.75641050  0.62484150  1
  Nb  Nb0_4  1  0.80761400  0.25641050  0.12484150  1
  Nb  Nb0_5  1  0.80761400  0.25641050  0.62484150  1
  Nb  Nb0_6  1  0.80761400  0.75641050  0.12484150  1
  Nb  Nb0_7  1  0.80761400  0.75641050  0.62484150  1
  Nb  Nb1_0  1  0.44879700  0.19238600  0.12484150  1
  Nb  Nb1_1  1  0.44879700  0.19238600  0.62484150  1
  Nb  Nb1_2  1  0.44879700  0.69238600  0.12484150  1
  Nb  Nb1_3  1  0.44879700  0.69238600  0.62484150  1
  Nb  Nb1_4  1  0.94879700  0.19238600  0.12484150  1
  Nb  Nb1_5  1  0.94879700  0.19238600  0.62484150  1
  Nb  Nb1_6  1  0.94879700  0.69238600  0.12484150  1
  Nb  Nb1_7  1  0.94879700  0.69238600  0.62484150  1
  Nb  Nb2_0  1  0.24358950  0.05120300  0.12484150  1
  Nb  Nb2_1  1  0.24358950  0.05120300  0.62484150  1
  Nb  Nb2_2  1  0.24358950  0.55120300  0.12484150  1
  Nb  Nb2_3  1  0.24358950  0.55120300  0.62484150  1
  Nb  Nb2_4  1  0.74358950  0.05120300  0.12484150  1
  Nb  Nb2_5  1  0.74358950  0.05120300  0.62484150  1
  Nb  Nb2_6  1  0.74358950  0.55120300  0.12484150  1
  Nb  Nb2_7  1  0.74358950  0.55120300  0.62484150  1
  Nb  Nb3_0  1  0.19238600  0.24358950  0.37515850  1
  Nb  Nb3_1  1  0.19238600  0.24358950  0.87515850  1
  Nb  Nb3_2  1  0.19238600  0.74358950  0.37515850  1
  Nb  Nb3_3  1  0.19238600  0.74358950  0.87515850  1
  Nb  Nb3_4  1  0.69238600  0.24358950  0.37515850  1
  Nb  Nb3_5  1  0.69238600  0.24358950  0.87515850  1
  Nb  Nb3_6  1  0.69238600  0.74358950  0.37515850  1
  Nb  Nb3_7  1  0.69238600  0.74358950  0.87515850  1
  Nb  Nb4_0  1  0.05120300  0.30761400  0.37515850  1
  Nb  Nb4_1  1  0.05120300  0.30761400  0.87515850  1
  Nb  Nb4_2  1  0.05120300  0.80761400  0.37515850  1
  Nb  Nb4_3  1  0.05120300  0.80761400  0.87515850  1
  Nb  Nb4_4  1  0.55120300  0.30761400  0.37515850  1
  Nb  Nb4_5  1  0.55120300  0.30761400  0.87515850  1
  Nb  Nb4_6  1  0.55120300  0.80761400  0.37515850  1
  Nb  Nb4_7  1  0.55120300  0.80761400  0.87515850  1
  Nb  Nb5_0  1  0.25641050  0.44879700  0.37515850  1
  Nb  Nb5_1  1  0.25641050  0.44879700  0.87515850  1
  Nb  Nb5_2  1  0.25641050  0.94879700  0.37515850  1
  Nb  Nb5_3  1  0.25641050  0.94879700  0.87515850  1
  Nb  Nb5_4  1  0.75641050  0.44879700  0.37515850  1
  Nb  Nb5_5  1  0.75641050  0.44879700  0.87515850  1
  Nb  Nb5_6  1  0.75641050  0.94879700  0.37515850  1
  Nb  Nb5_7  1  0.75641050  0.94879700  0.87515850  1
  Bi  Bi0_0  1  0.00000000  0.00000000  0.25000000  1
  Bi  Bi0_1  1  0.00000000  0.00000000  0.75000000  1
  Bi  Bi0_2  1  0.00000000  0.50000000  0.25000000  1
  Bi  Bi0_3  1  0.00000000  0.50000000  0.75000000  1
  Bi  Bi0_4  1  0.50000000  0.00000000  0.25000000  1
  Bi  Bi0_5  1  0.50000000  0.00000000  0.75000000  1
  Bi  Bi0_6  1  0.50000000  0.50000000  0.25000000  1
  Bi  Bi0_7  1  0.50000000  0.50000000  0.75000000  1
  Te  Te0_0  1  0.46725000  0.33263850  0.12627000  1
  Te  Te0_1  1  0.46725000  0.33263850  0.62627000  1
  Te  Te0_2  1  0.46725000  0.83263850  0.12627000  1
  Te  Te0_3  1  0.46725000  0.83263850  0.62627000  1
  Te  Te0_4  1  0.96725000  0.33263850  0.12627000  1
  Te  Te0_5  1  0.96725000  0.33263850  0.62627000  1
  Te  Te0_6  1  0.96725000  0.83263850  0.12627000  1
  Te  Te0_7  1  0.96725000  0.83263850  0.62627000  1
  Te  Te1_0  1  0.36538850  0.03275000  0.12627000  1
  Te  Te1_1  1  0.36538850  0.03275000  0.62627000  1
  Te  Te1_2  1  0.36538850  0.53275000  0.12627000  1
  Te  Te1_3  1  0.36538850  0.53275000  0.62627000  1
  Te  Te1_4  1  0.86538850  0.03275000  0.12627000  1
  Te  Te1_5  1  0.86538850  0.03275000  0.62627000  1
  Te  Te1_6  1  0.86538850  0.53275000  0.12627000  1
  Te  Te1_7  1  0.86538850  0.53275000  0.62627000  1
  Te  Te2_0  1  0.16736150  0.13461150  0.12627000  1
  Te  Te2_1  1  0.16736150  0.13461150  0.62627000  1
  Te  Te2_2  1  0.16736150  0.63461150  0.12627000  1
  Te  Te2_3  1  0.16736150  0.63461150  0.62627000  1
  Te  Te2_4  1  0.66736150  0.13461150  0.12627000  1
  Te  Te2_5  1  0.66736150  0.13461150  0.62627000  1
  Te  Te2_6  1  0.66736150  0.63461150  0.12627000  1
  Te  Te2_7  1  0.66736150  0.63461150  0.62627000  1
  Te  Te3_0  1  0.03275000  0.16736150  0.37373000  1
  Te  Te3_1  1  0.03275000  0.16736150  0.87373000  1
  Te  Te3_2  1  0.03275000  0.66736150  0.37373000  1
  Te  Te3_3  1  0.03275000  0.66736150  0.87373000  1
  Te  Te3_4  1  0.53275000  0.16736150  0.37373000  1
  Te  Te3_5  1  0.53275000  0.16736150  0.87373000  1
  Te  Te3_6  1  0.53275000  0.66736150  0.37373000  1
  Te  Te3_7  1  0.53275000  0.66736150  0.87373000  1
  Te  Te4_0  1  0.13461150  0.46725000  0.37373000  1
  Te  Te4_1  1  0.13461150  0.46725000  0.87373000  1
  Te  Te4_2  1  0.13461150  0.96725000  0.37373000  1
  Te  Te4_3  1  0.13461150  0.96725000  0.87373000  1
  Te  Te4_4  1  0.63461150  0.46725000  0.37373000  1
  Te  Te4_5  1  0.63461150  0.46725000  0.87373000  1
  Te  Te4_6  1  0.63461150  0.96725000  0.37373000  1
  Te  Te4_7  1  0.63461150  0.96725000  0.87373000  1
  Te  Te5_0  1  0.33263850  0.36538850  0.37373000  1
  Te  Te5_1  1  0.33263850  0.36538850  0.87373000  1
  Te  Te5_2  1  0.33263850  0.86538850  0.37373000  1
  Te  Te5_3  1  0.33263850  0.86538850  0.87373000  1
  Te  Te5_4  1  0.83263850  0.36538850  0.37373000  1
  Te  Te5_5  1  0.83263850  0.36538850  0.87373000  1
  Te  Te5_6  1  0.83263850  0.86538850  0.37373000  1
  Te  Te5_7  1  0.83263850  0.86538850  0.87373000  1
  Te  Te6_0  1  0.16666650  0.33333350  0.12543850  1
  Te  Te6_1  1  0.16666650  0.33333350  0.62543850  1
  Te  Te6_2  1  0.16666650  0.83333350  0.12543850  1
  Te  Te6_3  1  0.16666650  0.83333350  0.62543850  1
  Te  Te6_4  1  0.66666650  0.33333350  0.12543850  1
  Te  Te6_5  1  0.66666650  0.33333350  0.62543850  1
  Te  Te6_6  1  0.66666650  0.83333350  0.12543850  1
  Te  Te6_7  1  0.66666650  0.83333350  0.62543850  1
  Te  Te7_0  1  0.33333350  0.16666650  0.37456150  1
  Te  Te7_1  1  0.33333350  0.16666650  0.87456150  1
  Te  Te7_2  1  0.33333350  0.66666650  0.37456150  1
  Te  Te7_3  1  0.33333350  0.66666650  0.87456150  1
  Te  Te7_4  1  0.83333350  0.16666650  0.37456150  1
  Te  Te7_5  1  0.83333350  0.16666650  0.87456150  1
  Te  Te7_6  1  0.83333350  0.66666650  0.37456150  1
  Te  Te7_7  1  0.83333350  0.66666650  0.87456150  1
loop_
_geom_bond_atom_site_label_1
_geom_bond_atom_site_label_2
_geom_bond_distance
_geom_bond_site_symmetry_2
Nb0_0 Te5_0 2.798901 1_555
Nb0_0 Te5_1 2.809333 1_554
Nb0_0 Te2_0 2.855089 1_555
Nb0_0 Te7_0 2.905117 1_555
Nb0_0 Te7_1 2.907652 1_554
Nb0_0 Te0_0 2.991327 1_555
Nb0_1 Te5_1 2.798901 1_555
Nb0_1 Te5_0 2.809333 1_555
Nb0_1 Te2_1 2.855089 1_555
Nb0_1 Te7_1 2.905117 1_555
Nb0_1 Te7_0 2.907652 1_555
Nb0_1 Te0_1 2.991327 1_555
Nb0_2 Te5_2 2.798901 1_555
Nb0_2 Te5_3 2.809333 1_554
Nb0_2 Te2_2 2.855089 1_555
Nb0_2 Te7_2 2.905117 1_555
Nb0_2 Te7_3 2.907652 1_554
Nb0_2 Te0_2 2.991327 1_555
Nb0_3 Te5_3 2.798901 1_555
Nb0_3 Te5_2 2.809333 1_555
Nb0_3 Te2_3 2.855089 1_555
Nb0_3 Te7_3 2.905117 1_555
Nb0_3 Te7_2 2.907652 1_555
Nb0_3 Te0_3 2.991327 1_555
Nb0_4 Te5_4 2.798901 1_555
Nb0_4 Te5_5 2.809333 1_554
Nb0_4 Te2_4 2.855089 1_555
Nb0_4 Te7_4 2.905117 1_555
Nb0_4 Te7_5 2.907652 1_554
Nb0_4 Te0_4 2.991327 1_555
Nb0_5 Te5_5 2.798901 1_555
Nb0_5 Te5_4 2.809333 1_555
Nb0_5 Te2_5 2.855089 1_555
Nb0_5 Te7_5 2.905117 1_555
Nb0_5 Te7_4 2.907652 1_555
Nb0_5 Te0_5 2.991327 1_555
Nb0_6 Te5_6 2.798901 1_555
Nb0_6 Te5_7 2.809333 1_554
Nb0_6 Te2_6 2.855089 1_555
Nb0_6 Te7_6 2.905117 1_555
Nb0_6 Te7_7 2.907652 1_554
Nb0_6 Te0_6 2.991327 1_555
Nb0_7 Te5_7 2.798901 1_555
Nb0_7 Te5_6 2.809333 1_555
Nb0_7 Te2_7 2.855089 1_555
Nb0_7 Te7_7 2.905117 1_555
Nb0_7 Te7_6 2.907652 1_555
Nb0_7 Te0_7 2.991327 1_555
Nb1_0 Te3_4 2.798893 1_555
Nb1_0 Te3_5 2.809325 1_554
Nb1_0 Te0_0 2.855093 1_555
Nb1_0 Te7_0 2.905117 1_555
Nb1_0 Te7_1 2.907652 1_554
Nb1_0 Te1_0 2.991327 1_555
Nb1_1 Te3_5 2.798893 1_555
Nb1_1 Te3_4 2.809325 1_555
Nb1_1 Te0_1 2.855093 1_555
Nb1_1 Te7_1 2.905117 1_555
Nb1_1 Te7_0 2.907652 1_555
Nb1_1 Te1_1 2.991327 1_555
Nb1_2 Te3_6 2.798893 1_555
Nb1_2 Te3_7 2.809325 1_554
Nb1_2 Te0_2 2.855093 1_555
Nb1_2 Te7_2 2.905117 1_555
Nb1_2 Te7_3 2.907652 1_554
Nb1_2 Te1_2 2.991327 1_555
Nb1_3 Te3_7 2.798893 1_555
Nb1_3 Te3_6 2.809325 1_555
Nb1_3 Te0_3 2.855093 1_555
Nb1_3 Te7_3 2.905117 1_555
Nb1_3 Te7_2 2.907652 1_555
Nb1_3 Te1_3 2.991327 1_555
Nb1_4 Te3_0 2.798893 1_655
Nb1_4 Te3_1 2.809325 1_654
Nb1_4 Te0_4 2.855093 1_555
Nb1_4 Te7_4 2.905117 1_555
Nb1_4 Te7_5 2.907652 1_554
Nb1_4 Te1_4 2.991327 1_555
Nb1_5 Te3_1 2.798893 1_655
Nb1_5 Te3_0 2.809325 1_655
Nb1_5 Te0_5 2.855093 1_555
Nb1_5 Te7_5 2.905117 1_555
Nb1_5 Te7_4 2.907652 1_555
Nb1_5 Te1_5 2.991327 1_555
Nb1_6 Te3_2 2.798893 1_655
Nb1_6 Te3_3 2.809325 1_654
Nb1_6 Te0_6 2.855093 1_555
Nb1_6 Te7_6 2.905117 1_555
Nb1_6 Te7_7 2.907652 1_554
Nb1_6 Te1_6 2.991327 1_555
Nb1_7 Te3_3 2.798893 1_655
Nb1_7 Te3_2 2.809325 1_655
Nb1_7 Te0_7 2.855093 1_555
Nb1_7 Te7_7 2.905117 1_555
Nb1_7 Te7_6 2.907652 1_555
Nb1_7 Te1_7 2.991327 1_555
Nb2_0 Te4_2 2.798898 1_545
Nb2_0 Te4_3 2.809330 1_544
Nb2_0 Te1_0 2.855082 1_555
Nb2_0 Te7_0 2.905117 1_555
Nb2_0 Te7_1 2.907652 1_554
Nb2_0 Te2_0 2.991337 1_555
Nb2_1 Te4_3 2.798898 1_545
Nb2_1 Te4_2 2.809330 1_545
Nb2_1 Te1_1 2.855082 1_555
Nb2_1 Te7_1 2.905117 1_555
Nb2_1 Te7_0 2.907652 1_555
Nb2_1 Te2_1 2.991337 1_555
Nb2_2 Te4_0 2.798898 1_555
Nb2_2 Te4_1 2.809330 1_554
Nb2_2 Te1_2 2.855082 1_555
Nb2_2 Te7_2 2.905117 1_555
Nb2_2 Te7_3 2.907652 1_554
Nb2_2 Te2_2 2.991337 1_555
Nb2_3 Te4_1 2.798898 1_555
Nb2_3 Te4_0 2.809330 1_555
Nb2_3 Te1_3 2.855082 1_555
Nb2_3 Te7_3 2.905117 1_555
Nb2_3 Te7_2 2.907652 1_555
Nb2_3 Te2_3 2.991337 1_555
Nb2_4 Te4_6 2.798898 1_545
Nb2_4 Te4_7 2.809330 1_544
Nb2_4 Te1_4 2.855082 1_555
Nb2_4 Te7_4 2.905117 1_555
Nb2_4 Te7_5 2.907652 1_554
Nb2_4 Te2_4 2.991337 1_555
Nb2_5 Te4_7 2.798898 1_545
Nb2_5 Te4_6 2.809330 1_545
Nb2_5 Te1_5 2.855082 1_555
Nb2_5 Te7_5 2.905117 1_555
Nb2_5 Te7_4 2.907652 1_555
Nb2_5 Te2_5 2.991337 1_555
Nb2_6 Te4_4 2.798898 1_555
Nb2_6 Te4_5 2.809330 1_554
Nb2_6 Te1_6 2.855082 1_555
Nb2_6 Te7_6 2.905117 1_555
Nb2_6 Te7_7 2.907652 1_554
Nb2_6 Te2_6 2.991337 1_555
Nb2_7 Te4_5 2.798898 1_555
Nb2_7 Te4_4 2.809330 1_555
Nb2_7 Te1_7 2.855082 1_555
Nb2_7 Te7_7 2.905117 1_555
Nb2_7 Te7_6 2.907652 1_555
Nb2_7 Te2_7 2.991337 1_555
Nb3_0 Te2_0 2.798901 1_555
Nb3_0 Te2_1 2.809333 1_555
Nb3_0 Te5_0 2.855089 1_555
Nb3_0 Te6_0 2.905117 1_555
Nb3_0 Te6_1 2.907652 1_555
Nb3_0 Te3_0 2.991327 1_555
Nb3_1 Te2_1 2.798901 1_555
Nb3_1 Te2_0 2.809333 1_556
Nb3_1 Te5_1 2.855089 1_555
Nb3_1 Te6_1 2.905117 1_555
Nb3_1 Te6_0 2.907652 1_556
Nb3_1 Te3_1 2.991327 1_555
Nb3_2 Te2_2 2.798901 1_555
Nb3_2 Te2_3 2.809333 1_555
Nb3_2 Te5_2 2.855089 1_555
Nb3_2 Te6_2 2.905117 1_555
Nb3_2 Te6_3 2.907652 1_555
Nb3_2 Te3_2 2.991327 1_555
Nb3_3 Te2_3 2.798901 1_555
Nb3_3 Te2_2 2.809333 1_556
Nb3_3 Te5_3 2.855089 1_555
Nb3_3 Te6_3 2.905117 1_555
Nb3_3 Te6_2 2.907652 1_556
Nb3_3 Te3_3 2.991327 1_555
Nb3_4 Te2_4 2.798901 1_555
Nb3_4 Te2_5 2.809333 1_555
Nb3_4 Te5_4 2.855089 1_555
Nb3_4 Te6_4 2.905117 1_555
Nb3_4 Te6_5 2.907652 1_555
Nb3_4 Te3_4 2.991327 1_555
Nb3_5 Te2_5 2.798901 1_555
Nb3_5 Te2_4 2.809333 1_556
Nb3_5 Te5_5 2.855089 1_555
Nb3_5 Te6_5 2.905117 1_555
Nb3_5 Te6_4 2.907652 1_556
Nb3_5 Te3_5 2.991327 1_555
Nb3_6 Te2_6 2.798901 1_555
Nb3_6 Te2_7 2.809333 1_555
Nb3_6 Te5_6 2.855089 1_555
Nb3_6 Te6_6 2.905117 1_555
Nb3_6 Te6_7 2.907652 1_555
Nb3_6 Te3_6 2.991327 1_555
Nb3_7 Te2_7 2.798901 1_555
Nb3_7 Te2_6 2.809333 1_556
Nb3_7 Te5_7 2.855089 1_555
Nb3_7 Te6_7 2.905117 1_555
Nb3_7 Te6_6 2.907652 1_556
Nb3_7 Te3_7 2.991327 1_555
Nb4_0 Te0_4 2.798893 1_455
Nb4_0 Te0_5 2.809325 1_455
Nb4_0 Te3_0 2.855093 1_555
Nb4_0 Te6_0 2.905117 1_555
Nb4_0 Te6_1 2.907652 1_555
Nb4_0 Te4_0 2.991327 1_555
Nb4_1 Te0_5 2.798893 1_455
Nb4_1 Te0_4 2.809325 1_456
Nb4_1 Te3_1 2.855093 1_555
Nb4_1 Te6_1 2.905117 1_555
Nb4_1 Te6_0 2.907652 1_556
Nb4_1 Te4_1 2.991327 1_555
Nb4_2 Te0_6 2.798893 1_455
Nb4_2 Te0_7 2.809325 1_455
Nb4_2 Te3_2 2.855093 1_555
Nb4_2 Te6_2 2.905117 1_555
Nb4_2 Te6_3 2.907652 1_555
Nb4_2 Te4_2 2.991327 1_555
Nb4_3 Te0_7 2.798893 1_455
Nb4_3 Te0_6 2.809325 1_456
Nb4_3 Te3_3 2.855093 1_555
Nb4_3 Te6_3 2.905117 1_555
Nb4_3 Te6_2 2.907652 1_556
Nb4_3 Te4_3 2.991327 1_555
Nb4_4 Te0_0 2.798893 1_555
Nb4_4 Te0_1 2.809325 1_555
Nb4_4 Te3_4 2.855093 1_555
Nb4_4 Te6_4 2.905117 1_555
Nb4_4 Te6_5 2.907652 1_555
Nb4_4 Te4_4 2.991327 1_555
Nb4_5 Te0_1 2.798893 1_555
Nb4_5 Te0_0 2.809325 1_556
Nb4_5 Te3_5 2.855093 1_555
Nb4_5 Te6_5 2.905117 1_555
Nb4_5 Te6_4 2.907652 1_556
Nb4_5 Te4_5 2.991327 1_555
Nb4_6 Te0_2 2.798893 1_555
Nb4_6 Te0_3 2.809325 1_555
Nb4_6 Te3_6 2.855093 1_555
Nb4_6 Te6_6 2.905117 1_555
Nb4_6 Te6_7 2.907652 1_555
Nb4_6 Te4_6 2.991327 1_555
Nb4_7 Te0_3 2.798893 1_555
Nb4_7 Te0_2 2.809325 1_556
Nb4_7 Te3_7 2.855093 1_555
Nb4_7 Te6_7 2.905117 1_555
Nb4_7 Te6_6 2.907652 1_556
Nb4_7 Te4_7 2.991327 1_555
Nb5_0 Te1_2 2.798898 1_555
Nb5_0 Te1_3 2.809330 1_555
Nb5_0 Te4_0 2.855082 1_555
Nb5_0 Te6_0 2.905117 1_555
Nb5_0 Te6_1 2.907652 1_555
Nb5_0 Te5_0 2.991337 1_555
Nb5_1 Te1_3 2.798898 1_555
Nb5_1 Te1_2 2.809330 1_556
Nb5_1 Te4_1 2.855082 1_555
Nb5_1 Te6_1 2.905117 1_555
Nb5_1 Te6_0 2.907652 1_556
Nb5_1 Te5_1 2.991337 1_555
Nb5_2 Te1_0 2.798898 1_565
Nb5_2 Te1_1 2.809330 1_565
Nb5_2 Te4_2 2.855082 1_555
Nb5_2 Te6_2 2.905117 1_555
Nb5_2 Te6_3 2.907652 1_555
Nb5_2 Te5_2 2.991337 1_555
Nb5_3 Te1_1 2.798898 1_565
Nb5_3 Te1_0 2.809330 1_566
Nb5_3 Te4_3 2.855082 1_555
Nb5_3 Te6_3 2.905117 1_555
Nb5_3 Te6_2 2.907652 1_556
Nb5_3 Te5_3 2.991337 1_555
Nb5_4 Te1_6 2.798898 1_555
Nb5_4 Te1_7 2.809330 1_555
Nb5_4 Te4_4 2.855082 1_555
Nb5_4 Te6_4 2.905117 1_555
Nb5_4 Te6_5 2.907652 1_555
Nb5_4 Te5_4 2.991337 1_555
Nb5_5 Te1_7 2.798898 1_555
Nb5_5 Te1_6 2.809330 1_556
Nb5_5 Te4_5 2.855082 1_555
Nb5_5 Te6_5 2.905117 1_555
Nb5_5 Te6_4 2.907652 1_556
Nb5_5 Te5_5 2.991337 1_555
Nb5_6 Te1_4 2.798898 1_565
Nb5_6 Te1_5 2.809330 1_565
Nb5_6 Te4_6 2.855082 1_555
Nb5_6 Te6_6 2.905117 1_555
Nb5_6 Te6_7 2.907652 1_555
Nb5_6 Te5_6 2.991337 1_555
Nb5_7 Te1_5 2.798898 1_565
Nb5_7 Te1_4 2.809330 1_566
Nb5_7 Te4_7 2.855082 1_555
Nb5_7 Te6_7 2.905117 1_555
Nb5_7 Te6_6 2.907652 1_556
Nb5_7 Te5_7 2.991337 1_555
Bi0_0 Te2_0 3.442046 1_555
Bi0_0 Te5_6 3.442046 1_445
Bi0_0 Te0_6 3.442046 1_445
Bi0_0 Te3_0 3.442046 1_555
Bi0_0 Te4_2 3.442046 1_545
Bi0_0 Te1_4 3.442046 1_455
Bi0_0 Bi0_1 3.627479 1_555
Bi0_0 Bi0_1 3.627479 1_554
Bi0_1 Te2_1 3.442046 1_555
Bi0_1 Te5_7 3.442046 1_445
Bi0_1 Te0_7 3.442046 1_445
Bi0_1 Te3_1 3.442046 1_555
Bi0_1 Te4_3 3.442046 1_545
Bi0_1 Te1_5 3.442046 1_455
Bi0_2 Te2_2 3.442046 1_555
Bi0_2 Te5_4 3.442046 1_455
Bi0_2 Te0_4 3.442046 1_455
Bi0_2 Te3_2 3.442046 1_555
Bi0_2 Te1_6 3.442046 1_455
Bi0_2 Te4_0 3.442046 1_555
Bi0_2 Bi0_3 3.627479 1_555
Bi0_2 Bi0_3 3.627479 1_554
Bi0_3 Te2_3 3.442046 1_555
Bi0_3 Te5_5 3.442046 1_455
Bi0_3 Te0_5 3.442046 1_455
Bi0_3 Te3_3 3.442046 1_555
Bi0_3 Te1_7 3.442046 1_455
Bi0_3 Te4_1 3.442046 1_555
Bi0_4 Te5_2 3.442046 1_545
Bi0_4 Te2_4 3.442046 1_555
Bi0_4 Te0_2 3.442046 1_545
Bi0_4 Te3_4 3.442046 1_555
Bi0_4 Te4_6 3.442046 1_545
Bi0_4 Te1_0 3.442046 1_555
Bi0_4 Bi0_5 3.627479 1_555
Bi0_4 Bi0_5 3.627479 1_554
Bi0_5 Te2_5 3.442046 1_555
Bi0_5 Te5_3 3.442046 1_545
Bi0_5 Te0_3 3.442046 1_545
Bi0_5 Te3_5 3.442046 1_555
Bi0_5 Te4_7 3.442046 1_545
Bi0_5 Te1_1 3.442046 1_555
Bi0_6 Te2_6 3.442046 1_555
Bi0_6 Te5_0 3.442046 1_555
Bi0_6 Te3_6 3.442046 1_555
Bi0_6 Te0_0 3.442046 1_555
Bi0_6 Te4_4 3.442046 1_555
Bi0_6 Te1_2 3.442046 1_555
Bi0_6 Bi0_7 3.627479 1_555
Bi0_6 Bi0_7 3.627479 1_554
Bi0_7 Te2_7 3.442046 1_555
Bi0_7 Te5_1 3.442046 1_555
Bi0_7 Te3_7 3.442046 1_555
Bi0_7 Te0_1 3.442046 1_555
Bi0_7 Te4_5 3.442046 1_555
Bi0_7 Te1_3 3.442046 1_555
