# generated using pymatgen
data_Er6NiI10
_symmetry_space_group_name_H-M   'P 1'
_cell_length_a   7.58662411
_cell_length_b   9.52575897
_cell_length_c   9.53575597
_cell_angle_alpha   107.21881448
_cell_angle_beta   96.98327677
_cell_angle_gamma   104.73983474
_symmetry_Int_Tables_number   1
_chemical_formula_structural   Er6NiI10
_chemical_formula_sum   'Er6 Ni1 I10'
_cell_volume   621.95602733
_cell_formula_units_Z   1
loop_
 _symmetry_equiv_pos_site_id
 _symmetry_equiv_pos_as_xyz
  1  'x, y, z'
loop_
 _atom_site_type_symbol
 _atom_site_label
 _atom_site_symmetry_multiplicity
 _atom_site_fract_x
 _atom_site_fract_y
 _atom_site_fract_z
 _atom_site_occupancy
  Er  Er0  1  0.33839566  0.12059904  0.16049319  1
  Er  Er1  1  0.66160434  0.87940096  0.83950681  1
  Er  Er2  1  0.97001275  0.27816643  0.08298896  1
  Er  Er3  1  0.02998725  0.72183357  0.91701104  1
  Er  Er4  1  0.88933244  0.96078539  0.23541309  1
  Er  Er5  1  0.11066756  0.03921461  0.76458691  1
  Ni  Ni0  1  -0.00000000  -0.00000000  -0.00000000  1
  I  I0  1  0.35419712  0.45351058  0.27432154  1
  I  I1  1  0.64580288  0.54648942  0.72567846  1
  I  I2  1  0.77761983  0.25947546  0.34771530  1
  I  I3  1  0.22238017  0.74052454  0.65228470  1
  I  I4  1  0.54619893  0.18692022  0.90561722  1
  I  I5  1  0.45380107  0.81307978  0.09438278  1
  I  I6  1  0.73784091  0.91077369  0.53507069  1
  I  I7  1  0.26215909  0.08922631  0.46492931  1
  I  I8  1  0.91433583  0.62713492  0.18244089  1
  I  I9  1  0.08566417  0.37286508  0.81755911  1
loop_
_geom_bond_atom_site_label_1
_geom_bond_atom_site_label_2
_geom_bond_distance
_geom_bond_site_symmetry_2
Er0 Ni0 2.599194 1_555
Er0 I0 2.997710 1_555
Er0 I7 3.112132 1_555
Er0 I5 3.176648 1_545
Er0 I4 3.182059 1_554
Er0 I2 3.309550 1_555
Er1 Ni0 2.599194 1_666
Er1 I1 2.997710 1_555
Er1 I6 3.112132 1_555
Er1 I4 3.176648 1_565
Er1 I5 3.182059 1_556
Er1 I3 3.309550 1_555
Er2 Ni0 2.609260 1_655
Er2 I0 3.006548 1_655
Er2 I9 3.078787 1_654
Er2 I2 3.092635 1_555
Er2 I4 3.215528 1_554
Er2 I8 3.327691 1_555
Er3 Ni0 2.609260 1_566
Er3 I1 3.006548 1_455
Er3 I8 3.078787 1_456
Er3 I3 3.092635 1_555
Er3 I5 3.215528 1_556
Er3 I9 3.327691 1_555
Er4 Ni0 2.584364 1_665
Er4 I7 3.071764 1_665
Er4 I2 3.099093 1_565
Er4 I8 3.126045 1_555
Er4 I5 3.184271 1_555
Er4 I6 3.322476 1_555
Er5 Ni0 2.584364 1_556
Er5 I6 3.071764 1_445
Er5 I3 3.099093 1_545
Er5 I9 3.126045 1_555
Er5 I4 3.184271 1_555
Er5 I7 3.322476 1_555
