# generated using pymatgen
data_Cd3H18S4N2O21
_symmetry_space_group_name_H-M   'P 1'
_cell_length_a   10.24912982
_cell_length_b   10.14558862
_cell_length_c   19.87355778
_cell_angle_alpha   103.29586894
_cell_angle_beta   90.00000000
_cell_angle_gamma   90.00000000
_symmetry_Int_Tables_number   1
_chemical_formula_structural   Cd3H18S4N2O21
_chemical_formula_sum   'Cd12 H72 S16 N8 O84'
_cell_volume   2011.12904230
_cell_formula_units_Z   4
loop_
 _symmetry_equiv_pos_site_id
 _symmetry_equiv_pos_as_xyz
  1  'x, y, z'
loop_
 _atom_site_type_symbol
 _atom_site_label
 _atom_site_symmetry_multiplicity
 _atom_site_fract_x
 _atom_site_fract_y
 _atom_site_fract_z
 _atom_site_occupancy
  Cd  Cd0  1  0.13484415  0.94684493  0.34271247  1
  Cd  Cd1  1  0.63484415  0.55315507  0.65728753  1
  Cd  Cd2  1  0.86515585  0.05315507  0.65728753  1
  Cd  Cd3  1  0.36515585  0.44684493  0.34271247  1
  Cd  Cd4  1  0.84722515  0.67306197  0.32440257  1
  Cd  Cd5  1  0.34722515  0.82693803  0.67559743  1
  Cd  Cd6  1  0.15277485  0.32693803  0.67559743  1
  Cd  Cd7  1  0.65277485  0.17306197  0.32440257  1
  Cd  Cd8  1  0.78271062  0.94490174  0.05913463  1
  Cd  Cd9  1  0.28271062  0.55509826  0.94086537  1
  Cd  Cd10  1  0.21728938  0.05509826  0.94086537  1
  Cd  Cd11  1  0.71728938  0.44490174  0.05913463  1
  H  H0  1  0.49117291  0.79571989  0.20231185  1
  H  H1  1  0.99117291  0.70428011  0.79768815  1
  H  H2  1  0.50882709  0.20428011  0.79768815  1
  H  H3  1  0.00882709  0.29571989  0.20231185  1
  H  H4  1  0.41112418  0.71859983  0.25702566  1
  H  H5  1  0.91112418  0.78140017  0.74297434  1
  H  H6  1  0.58887582  0.28140017  0.74297434  1
  H  H7  1  0.08887582  0.21859983  0.25702566  1
  H  H8  1  0.57568581  0.72417637  0.25815187  1
  H  H9  1  0.07568581  0.77582363  0.74184813  1
  H  H10  1  0.42431419  0.27582363  0.74184813  1
  H  H11  1  0.92431419  0.22417637  0.25815187  1
  H  H12  1  0.48449318  0.86574618  0.28874145  1
  H  H13  1  0.98449318  0.63425382  0.71125855  1
  H  H14  1  0.51550682  0.13425382  0.71125855  1
  H  H15  1  0.01550682  0.36574618  0.28874145  1
  H  H16  1  0.35378992  0.31326006  0.07375995  1
  H  H17  1  0.85378992  0.18673994  0.92624005  1
  H  H18  1  0.64621008  0.68673994  0.92624005  1
  H  H19  1  0.14621008  0.81326006  0.07375995  1
  H  H20  1  0.29748378  0.27249102  0.14747584  1
  H  H21  1  0.79748378  0.22750898  0.85252416  1
  H  H22  1  0.70251622  0.72750898  0.85252416  1
  H  H23  1  0.20251622  0.77249102  0.14747584  1
  H  H24  1  0.42625767  0.37440321  0.15240635  1
  H  H25  1  0.92625767  0.12559679  0.84759365  1
  H  H26  1  0.57374233  0.62559679  0.84759365  1
  H  H27  1  0.07374233  0.87440321  0.15240635  1
  H  H28  1  0.28132055  0.43372889  0.13564904  1
  H  H29  1  0.78132055  0.06627111  0.86435096  1
  H  H30  1  0.71867945  0.56627111  0.86435096  1
  H  H31  1  0.21867945  0.93372889  0.13564904  1
  H  H32  1  0.23935766  0.94382525  0.47477322  1
  H  H33  1  0.73935766  0.55617475  0.52522678  1
  H  H34  1  0.76064234  0.05617475  0.52522678  1
  H  H35  1  0.26064234  0.44382525  0.47477322  1
  H  H36  1  0.30589283  0.06629858  0.45255693  1
  H  H37  1  0.80589283  0.43370142  0.54744307  1
  H  H38  1  0.69410717  0.93370142  0.54744307  1
  H  H39  1  0.19410717  0.56629858  0.45255693  1
  H  H40  1  0.91288255  0.91969058  0.42124791  1
  H  H41  1  0.41288255  0.58030942  0.57875209  1
  H  H42  1  0.08711745  0.08030942  0.57875209  1
  H  H43  1  0.58711745  0.41969058  0.42124791  1
  H  H44  1  0.00564178  0.79920921  0.43749585  1
  H  H45  1  0.50564178  0.70079079  0.56250415  1
  H  H46  1  0.99435822  0.20079079  0.56250415  1
  H  H47  1  0.49435822  0.29920921  0.43749585  1
  H  H48  1  0.87740147  0.43706995  0.38906424  1
  H  H49  1  0.37740147  0.06293005  0.61093576  1
  H  H50  1  0.12259853  0.56293005  0.61093576  1
  H  H51  1  0.62259853  0.93706995  0.38906424  1
  H  H52  1  0.97819214  0.55128405  0.42184777  1
  H  H53  1  0.47819214  0.94871595  0.57815223  1
  H  H54  1  0.02180786  0.44871595  0.57815223  1
  H  H55  1  0.52180786  0.05128405  0.42184777  1
  H  H56  1  0.57447147  0.05813919  0.15348346  1
  H  H57  1  0.07447147  0.44186081  0.84651654  1
  H  H58  1  0.42552853  0.94186081  0.84651654  1
  H  H59  1  0.92552853  0.55813919  0.15348346  1
  H  H60  1  0.64048805  0.18143919  0.13159056  1
  H  H61  1  0.14048805  0.31856081  0.86840944  1
  H  H62  1  0.35951195  0.81856081  0.86840944  1
  H  H63  1  0.85951195  0.68143919  0.13159056  1
  H  H64  1  0.60654742  0.95103818  0.94446285  1
  H  H65  1  0.10654742  0.54896182  0.05553715  1
  H  H66  1  0.39345258  0.04896182  0.05553715  1
  H  H67  1  0.89345258  0.45103818  0.94446285  1
  H  H68  1  0.64498075  0.10090330  0.97747323  1
  H  H69  1  0.14498075  0.39909670  0.02252677  1
  H  H70  1  0.35501925  0.89909670  0.02252677  1
  H  H71  1  0.85501925  0.60090330  0.97747323  1
  S  S0  1  0.34021314  0.11183559  0.25327346  1
  S  S1  1  0.84021314  0.38816441  0.74672654  1
  S  S2  1  0.65978686  0.88816441  0.74672654  1
  S  S3  1  0.15978686  0.61183559  0.25327346  1
  S  S4  1  0.85543525  0.93188401  0.23215584  1
  S  S5  1  0.35543525  0.56811599  0.76784416  1
  S  S6  1  0.14456475  0.06811599  0.76784416  1
  S  S7  1  0.64456475  0.43188401  0.23215584  1
  S  S8  1  0.58755997  0.68886102  0.43857164  1
  S  S9  1  0.08755997  0.81113898  0.56142836  1
  S  S10  1  0.41244003  0.31113898  0.56142836  1
  S  S11  1  0.91244003  0.18886102  0.43857164  1
  S  S12  1  0.52555553  0.72083863  0.05983509  1
  S  S13  1  0.02555553  0.77916137  0.94016491  1
  S  S14  1  0.47444447  0.27916137  0.94016491  1
  S  S15  1  0.97444447  0.22083863  0.05983509  1
  N  N0  1  0.49147824  0.77601148  0.25211516  1
  N  N1  1  0.99147824  0.72398852  0.74788484  1
  N  N2  1  0.50852176  0.22398852  0.74788484  1
  N  N3  1  0.00852176  0.27601148  0.25211516  1
  N  N4  1  0.33934150  0.34788912  0.12660580  1
  N  N5  1  0.83934150  0.15211088  0.87339420  1
  N  N6  1  0.66065850  0.65211088  0.87339420  1
  N  N7  1  0.16065850  0.84788912  0.12660580  1
  O  O0  1  0.48605860  0.11123037  0.24468886  1
  O  O1  1  0.98605860  0.38876963  0.75531114  1
  O  O2  1  0.51394140  0.88876963  0.75531114  1
  O  O3  1  0.01394140  0.61123037  0.24468886  1
  O  O4  1  0.29841439  0.22652421  0.31089884  1
  O  O5  1  0.79841439  0.27347579  0.68910116  1
  O  O6  1  0.70158561  0.77347579  0.68910116  1
  O  O7  1  0.20158561  0.72652421  0.31089884  1
  O  O8  1  0.27711016  0.12206347  0.18751798  1
  O  O9  1  0.77711016  0.37793653  0.81248202  1
  O  O10  1  0.72288984  0.87793653  0.81248202  1
  O  O11  1  0.22288984  0.62206347  0.18751798  1
  O  O12  1  0.30001650  0.98287171  0.27157807  1
  O  O13  1  0.80001650  0.51712829  0.72842193  1
  O  O14  1  0.69998350  0.01712829  0.72842193  1
  O  O15  1  0.19998350  0.48287171  0.27157807  1
  O  O16  1  0.99803095  0.94429880  0.24791880  1
  O  O17  1  0.49803095  0.55570120  0.75208120  1
  O  O18  1  0.00196905  0.05570120  0.75208120  1
  O  O19  1  0.50196905  0.44429880  0.24791880  1
  O  O20  1  0.79748511  0.07030315  0.24193624  1
  O  O21  1  0.29748511  0.42969685  0.75806376  1
  O  O22  1  0.20251489  0.92969685  0.75806376  1
  O  O23  1  0.70251489  0.57030315  0.24193624  1
  O  O24  1  0.84122038  0.85990566  0.15748093  1
  O  O25  1  0.34122038  0.64009434  0.84251907  1
  O  O26  1  0.15877962  0.14009434  0.84251907  1
  O  O27  1  0.65877962  0.35990566  0.15748093  1
  O  O28  1  0.78656266  0.85701968  0.27733996  1
  O  O29  1  0.28656266  0.64298032  0.72266004  1
  O  O30  1  0.21343734  0.14298032  0.72266004  1
  O  O31  1  0.71343734  0.35701968  0.27733996  1
  O  O32  1  0.67096429  0.76143529  0.39666552  1
  O  O33  1  0.17096429  0.73856471  0.60333448  1
  O  O34  1  0.32903571  0.23856471  0.60333448  1
  O  O35  1  0.82903571  0.26143529  0.39666552  1
  O  O36  1  0.56373719  0.78338300  0.50746253  1
  O  O37  1  0.06373719  0.71661700  0.49253747  1
  O  O38  1  0.43626281  0.21661700  0.49253747  1
  O  O39  1  0.93626281  0.28338300  0.50746253  1
  O  O40  1  0.65902943  0.56631853  0.44974190  1
  O  O41  1  0.15902943  0.93368147  0.55025810  1
  O  O42  1  0.34097057  0.43368147  0.55025810  1
  O  O43  1  0.84097057  0.06631853  0.44974190  1
  O  O44  1  0.46237359  0.64758446  0.40258988  1
  O  O45  1  0.96237359  0.85241554  0.59741012  1
  O  O46  1  0.53762641  0.35241554  0.59741012  1
  O  O47  1  0.03762641  0.14758446  0.40258988  1
  O  O48  1  0.64957616  0.75349478  0.02625545  1
  O  O49  1  0.14957616  0.74650522  0.97374455  1
  O  O50  1  0.35042384  0.24650522  0.97374455  1
  O  O51  1  0.85042384  0.25349478  0.02625545  1
  O  O52  1  0.41712272  0.71874371  0.00852084  1
  O  O53  1  0.91712272  0.78125629  0.99147916  1
  O  O54  1  0.58287728  0.28125629  0.99147916  1
  O  O55  1  0.08287728  0.21874371  0.00852084  1
  O  O56  1  0.53961644  0.58591283  0.07699109  1
  O  O57  1  0.03961644  0.91408717  0.92300891  1
  O  O58  1  0.46038356  0.41408717  0.92300891  1
  O  O59  1  0.96038356  0.08591283  0.07699109  1
  O  O60  1  0.49596348  0.82659089  0.12261525  1
  O  O61  1  0.99596348  0.67340911  0.87738475  1
  O  O62  1  0.50403652  0.17340911  0.87738475  1
  O  O63  1  0.00403652  0.32659089  0.12261525  1
  O  O64  1  0.27854122  0.97202527  0.43445506  1
  O  O65  1  0.77854122  0.52797473  0.56554494  1
  O  O66  1  0.72145878  0.02797473  0.56554494  1
  O  O67  1  0.22145878  0.47202527  0.43445506  1
  O  O68  1  0.96921357  0.83973264  0.39944321  1
  O  O69  1  0.46921357  0.66026736  0.60055679  1
  O  O70  1  0.03078643  0.16026736  0.60055679  1
  O  O71  1  0.53078643  0.33973264  0.39944321  1
  O  O72  1  0.93136260  0.51132144  0.37901220  1
  O  O73  1  0.43136260  0.98867856  0.62098780  1
  O  O74  1  0.06863740  0.48867856  0.62098780  1
  O  O75  1  0.56863740  0.01132144  0.37901220  1
  O  O76  1  0.61527123  0.08517685  0.11383756  1
  O  O77  1  0.11527123  0.41482315  0.88616244  1
  O  O78  1  0.38472877  0.91482315  0.88616244  1
  O  O79  1  0.88472877  0.58517685  0.11383756  1
  O  O80  1  0.68021814  0.00748481  0.96477808  1
  O  O81  1  0.18021814  0.49251519  0.03522192  1
  O  O82  1  0.31978186  0.99251519  0.03522192  1
  O  O83  1  0.81978186  0.50748481  0.96477808  1
loop_
_geom_bond_atom_site_label_1
_geom_bond_atom_site_label_2
_geom_bond_distance
_geom_bond_site_symmetry_2
Cd0 O7 2.283441 1_555
Cd0 O12 2.288148 1_555
Cd0 O64 2.311779 1_555
Cd0 O47 2.332799 1_565
Cd0 O16 2.343827 1_455
Cd0 O68 2.428450 1_455
Cd1 O6 2.283441 1_555
Cd1 O13 2.288148 1_555
Cd1 O65 2.311779 1_555
Cd1 O46 2.332799 1_555
Cd1 O17 2.343827 1_555
Cd1 O69 2.428450 1_555
Cd2 O5 2.283441 1_555
Cd2 O14 2.288148 1_555
Cd2 O66 2.311779 1_555
Cd2 O45 2.332799 1_545
Cd2 O18 2.343827 1_655
Cd2 O70 2.428450 1_655
Cd3 O4 2.283441 1_555
Cd3 O15 2.288148 1_555
Cd3 O67 2.311779 1_555
Cd3 O44 2.332799 1_555
Cd3 O19 2.343827 1_555
Cd3 O71 2.428450 1_555
Cd4 O23 2.277443 1_555
Cd4 O3 2.316407 1_655
Cd4 O72 2.330953 1_555
Cd4 O68 2.342371 1_555
Cd4 O32 2.353210 1_555
Cd4 O28 2.355324 1_555
Cd5 O22 2.277443 1_555
Cd5 O2 2.316407 1_555
Cd5 O73 2.330953 1_555
Cd5 O69 2.342371 1_555
Cd5 O33 2.353210 1_555
Cd5 O29 2.355324 1_555
Cd6 O21 2.277443 1_555
Cd6 O1 2.316407 1_455
Cd6 O74 2.330953 1_555
Cd6 O70 2.342371 1_555
Cd6 O34 2.353210 1_555
Cd6 O30 2.355324 1_555
Cd7 O20 2.277443 1_555
Cd7 O0 2.316407 1_555
Cd7 O75 2.330953 1_555
Cd7 O71 2.342371 1_555
Cd7 O35 2.353210 1_555
Cd7 O31 2.355324 1_555
Cd8 O59 2.292414 1_565
Cd8 O53 2.331389 1_554
Cd8 O76 2.332527 1_565
Cd8 O48 2.340156 1_555
Cd8 O80 2.360220 1_564
Cd8 O24 2.387152 1_555
Cd9 O58 2.292414 1_555
Cd9 O52 2.331389 1_556
Cd9 O77 2.332527 1_555
Cd9 O49 2.340156 1_555
Cd9 O81 2.360220 1_556
Cd9 O25 2.387152 1_555
Cd10 O57 2.292414 1_545
Cd10 O55 2.331389 1_556
Cd10 O78 2.332527 1_545
Cd10 O50 2.340156 1_555
Cd10 O82 2.360220 1_546
Cd10 O26 2.387152 1_555
Cd11 O56 2.292414 1_555
Cd11 O54 2.331389 1_554
Cd11 O79 2.332527 1_555
Cd11 O51 2.340156 1_555
Cd11 O83 2.360220 1_554
Cd11 O27 2.387152 1_555
H0 N0 1.053880 1_555
H0 O60 1.684422 1_555
H1 N1 1.053880 1_555
H1 O61 1.684422 1_555
H2 N2 1.053880 1_555
H2 O62 1.684422 1_555
H3 N3 1.053880 1_555
H3 O63 1.684422 1_555
H4 N0 1.026253 1_555
H5 N1 1.026253 1_555
H6 N2 1.026253 1_555
H7 N3 1.026253 1_555
H8 N0 1.031913 1_555
H9 N1 1.031913 1_455
H10 N2 1.031913 1_555
H11 N3 1.031913 1_655
H12 N0 1.029076 1_555
H13 N1 1.029076 1_555
H14 N2 1.029076 1_555
H15 N3 1.029076 1_555
H16 N4 1.038576 1_555
H17 N5 1.038576 1_555
H18 N6 1.038576 1_555
H19 N7 1.038576 1_555
H20 N4 1.042673 1_555
H21 N5 1.042673 1_555
H22 N6 1.042673 1_555
H23 N7 1.042673 1_555
H24 N4 1.032174 1_555
H25 N5 1.032174 1_555
H26 N6 1.032174 1_555
H27 N7 1.032174 1_555
H28 N4 1.035563 1_555
H29 N5 1.035563 1_555
H30 N6 1.035563 1_555
H31 N7 1.035563 1_555
H32 O64 0.995292 1_555
H32 O41 1.734900 1_555
H33 O65 0.995292 1_555
H33 O40 1.734900 1_555
H34 O66 0.995292 1_555
H34 O43 1.734900 1_555
H35 O67 0.995292 1_555
H35 O42 1.734900 1_555
H36 O64 0.982116 1_545
H37 O65 0.982116 1_555
H38 O66 0.982116 1_565
H39 O67 0.982116 1_555
H40 O68 1.008710 1_555
H40 O43 1.639954 1_565
H41 O69 1.008710 1_555
H41 O42 1.639954 1_555
H42 O70 1.008710 1_555
H42 O41 1.639954 1_545
H43 O71 1.008710 1_555
H43 O40 1.639954 1_555
H44 O68 1.011601 1_455
H44 O37 1.635496 1_555
H45 O69 1.011601 1_555
H45 O36 1.635496 1_555
H46 O70 1.011601 1_655
H46 O39 1.635496 1_555
H47 O71 1.011601 1_555
H47 O38 1.635496 1_555
H48 O72 0.991209 1_555
H49 O73 0.991209 1_545
H50 O74 0.991209 1_555
H51 O75 0.991209 1_565
H52 O72 0.980151 1_555
H53 O73 0.980151 1_555
H54 O74 0.980151 1_555
H55 O75 0.980151 1_555
H56 O76 0.985045 1_555
H57 O77 0.985045 1_555
H58 O78 0.985045 1_555
H59 O79 0.985045 1_555
H60 O76 0.993281 1_555
H60 O27 1.774773 1_555
H61 O77 0.993281 1_555
H61 O26 1.774773 1_555
H62 O78 0.993281 1_555
H62 O25 1.774773 1_555
H63 O79 0.993281 1_555
H63 O24 1.774773 1_555
H64 O80 0.977107 1_565
H65 O81 0.977107 1_555
H66 O82 0.977107 1_545
H67 O83 0.977107 1_555
H68 O80 0.991159 1_555
H69 O81 0.991159 1_555
H70 O82 0.991159 1_555
H71 O83 0.991159 1_555
O0 S0 1.504346 1_555
O1 S1 1.504346 1_555
O2 S2 1.504346 1_555
O3 S3 1.504346 1_555
O4 S0 1.495347 1_555
O5 S1 1.495347 1_555
O6 S2 1.495347 1_555
O7 S3 1.495347 1_555
O8 S0 1.482950 1_555
O9 S1 1.482950 1_555
O10 S2 1.482950 1_555
O11 S3 1.482950 1_555
O12 S0 1.494302 1_565
O13 S1 1.494302 1_555
O14 S2 1.494302 1_545
O15 S3 1.494302 1_555
O16 S4 1.493915 1_555
O17 S5 1.493915 1_555
O18 S6 1.493915 1_555
O19 S7 1.493915 1_555
O20 S4 1.495718 1_545
O21 S5 1.495718 1_555
O22 S6 1.495718 1_565
O23 S7 1.495718 1_555
O24 S4 1.502814 1_555
O25 S5 1.502814 1_555
O26 S6 1.502814 1_555
O27 S7 1.502814 1_555
O28 S4 1.481634 1_555
O29 S5 1.481634 1_555
O30 S6 1.481634 1_555
O31 S7 1.481634 1_555
O32 S8 1.499507 1_555
O33 S9 1.499507 1_555
O34 S10 1.499507 1_555
O35 S11 1.499507 1_555
O36 S8 1.499937 1_555
O37 S9 1.499937 1_555
O38 S10 1.499937 1_555
O39 S11 1.499937 1_555
O40 S8 1.502828 1_555
O41 S9 1.502828 1_555
O42 S10 1.502828 1_555
O43 S11 1.502828 1_555
O44 S8 1.481621 1_555
O45 S9 1.481621 1_655
O46 S10 1.481621 1_555
O47 S11 1.481621 1_455
O48 S12 1.507489 1_555
O49 S13 1.507489 1_555
O50 S14 1.507489 1_555
O51 S15 1.507489 1_555
O52 S12 1.505174 1_555
O53 S13 1.505174 1_655
O54 S14 1.505174 1_555
O55 S15 1.505174 1_455
O56 S12 1.491839 1_555
O57 S13 1.491839 1_555
O58 S14 1.491839 1_555
O59 S15 1.491839 1_555
O60 S12 1.477866 1_555
O61 S13 1.477866 1_655
O62 S14 1.477866 1_555
O63 S15 1.477866 1_455
