# generated using pymatgen
data_Na2B4O17
_symmetry_space_group_name_H-M   'P 1'
_cell_length_a   8.31834399
_cell_length_b   8.31834399
_cell_length_c   12.92570093
_cell_angle_alpha   85.17534169
_cell_angle_beta   85.17534169
_cell_angle_gamma   71.15983309
_symmetry_Int_Tables_number   1
_chemical_formula_structural   Na2B4O17
_chemical_formula_sum   'Na4 B8 O34'
_cell_volume   841.93474589
_cell_formula_units_Z   2
loop_
 _symmetry_equiv_pos_site_id
 _symmetry_equiv_pos_as_xyz
  1  'x, y, z'
loop_
 _atom_site_type_symbol
 _atom_site_label
 _atom_site_symmetry_multiplicity
 _atom_site_fract_x
 _atom_site_fract_y
 _atom_site_fract_z
 _atom_site_occupancy
  Na  Na0  1  0.59916800  0.59352600  0.54894600  1
  Na  Na1  1  0.40647400  0.40083200  0.95105400  1
  Na  Na2  1  0.40083200  0.40647400  0.45105400  1
  Na  Na3  1  0.59352600  0.59916800  0.04894600  1
  B  B0  1  0.00133000  0.99606300  0.35619100  1
  B  B1  1  0.00393700  0.99867000  0.14380900  1
  B  B2  1  0.99867000  0.00393700  0.64380900  1
  B  B3  1  0.99606300  0.00133000  0.85619100  1
  B  B4  1  0.79818200  0.18960600  0.49746000  1
  B  B5  1  0.81039400  0.20181800  0.00254000  1
  B  B6  1  0.20181800  0.81039400  0.50254000  1
  B  B7  1  0.18960600  0.79818200  0.99746000  1
  O  O0  1  0.86311500  0.11027000  0.40371200  1
  O  O1  1  0.88973000  0.13688500  0.09628800  1
  O  O2  1  0.13688500  0.88973000  0.59628800  1
  O  O3  1  0.11027000  0.86311500  0.90371200  1
  O  O4  1  0.67029200  0.33479600  0.49613600  1
  O  O5  1  0.66520400  0.32970800  0.00386400  1
  O  O6  1  0.32970800  0.66520400  0.50386400  1
  O  O7  1  0.33479600  0.67029200  0.99613600  1
  O  O8  1  0.00997900  0.99002100  0.25000000  1
  O  O9  1  0.99002100  0.00997900  0.75000000  1
  O  O10  1  0.86483600  0.11388700  0.59265900  1
  O  O11  1  0.88611300  0.13516400  0.90734100  1
  O  O12  1  0.13516400  0.88611300  0.40734100  1
  O  O13  1  0.11388700  0.86483600  0.09265900  1
  O  O14  1  0.57477700  0.46320100  0.30253800  1
  O  O15  1  0.53679900  0.42522300  0.19746200  1
  O  O16  1  0.42522300  0.53679900  0.69746200  1
  O  O17  1  0.46320100  0.57477700  0.80253800  1
  O  O18  1  0.89474800  0.69000900  0.68735700  1
  O  O19  1  0.30999100  0.10525200  0.81264300  1
  O  O20  1  0.10525200  0.30999100  0.31264300  1
  O  O21  1  0.69000900  0.89474800  0.18735700  1
  O  O22  1  0.77069800  0.76169100  0.63497900  1
  O  O23  1  0.23830900  0.22930200  0.86502100  1
  O  O24  1  0.22930200  0.23830900  0.36502100  1
  O  O25  1  0.76169100  0.77069800  0.13497900  1
  O  O26  1  0.97072700  0.55993700  0.46774500  1
  O  O27  1  0.44006300  0.02927300  0.03225500  1
  O  O28  1  0.02927300  0.44006300  0.53225500  1
  O  O29  1  0.55993700  0.97072700  0.96774500  1
  O  O30  1  0.68516200  0.31483800  0.25000000  1
  O  O31  1  0.31483800  0.68516200  0.75000000  1
  O  O32  1  0.28138400  0.71861600  0.25000000  1
  O  O33  1  0.71861600  0.28138400  0.75000000  1
loop_
_geom_bond_atom_site_label_1
_geom_bond_atom_site_label_2
_geom_bond_distance
_geom_bond_site_symmetry_2
Na0 O4 2.191980 1_555
Na0 O6 2.239937 1_555
Na0 O16 2.413046 1_555
Na0 O22 2.654615 1_555
Na1 O5 2.191980 1_556
Na1 O7 2.239937 1_555
Na1 O17 2.413046 1_555
Na1 O23 2.654615 1_555
Na2 O6 2.191980 1_555
Na2 O4 2.239937 1_555
Na2 O14 2.413046 1_555
Na2 O24 2.654615 1_555
Na3 O7 2.191980 1_554
Na3 O5 2.239937 1_555
Na3 O15 2.413046 1_555
Na3 O25 2.654615 1_555
B0 O0 1.369526 1_465
B0 O12 1.370212 1_555
B0 O8 1.372724 1_555
B1 O1 1.369526 1_465
B1 O13 1.370212 1_555
B1 O8 1.372724 1_555
B2 O2 1.369526 1_645
B2 O10 1.370212 1_555
B2 O9 1.372724 1_555
B3 O3 1.369526 1_645
B3 O11 1.370212 1_555
B3 O9 1.372724 1_555
B4 O4 1.326814 1_555
B4 O10 1.406109 1_555
B4 O0 1.410613 1_555
B5 O5 1.326814 1_555
B5 O11 1.406109 1_554
B5 O1 1.410613 1_555
B6 O6 1.326814 1_555
B6 O12 1.406109 1_555
B6 O2 1.410613 1_555
B7 O7 1.326814 1_555
B7 O13 1.406109 1_556
B7 O3 1.410613 1_555
O14 O30 1.459992 1_555
O14 O15 1.501022 1_555
O15 O30 1.459992 1_555
O16 O31 1.459992 1_555
O16 O17 1.501022 1_555
O17 O31 1.459992 1_555
O18 O22 1.237304 1_555
O19 O23 1.237304 1_555
O20 O24 1.237304 1_555
O21 O25 1.237304 1_555
O26 O28 1.241603 1_655
O27 O29 1.241603 1_544
