# generated using pymatgen
data_U2WO8
_symmetry_space_group_name_H-M   'P 1'
_cell_length_a   4.06088700
_cell_length_b   6.82989900
_cell_length_c   23.70099300
_cell_angle_alpha   90.00000000
_cell_angle_beta   90.00000000
_cell_angle_gamma   90.00000000
_symmetry_Int_Tables_number   1
_chemical_formula_structural   U2WO8
_chemical_formula_sum   'U8 W4 O32'
_cell_volume   657.35766033
_cell_formula_units_Z   4
loop_
 _symmetry_equiv_pos_site_id
 _symmetry_equiv_pos_as_xyz
  1  'x, y, z'
loop_
 _atom_site_type_symbol
 _atom_site_label
 _atom_site_symmetry_multiplicity
 _atom_site_fract_x
 _atom_site_fract_y
 _atom_site_fract_z
 _atom_site_occupancy
  U  U0  1  0.00000000  0.30354800  0.37682400  1
  U  U1  1  0.00000000  0.69645200  0.62317600  1
  U  U2  1  0.00000000  0.19645200  0.87682400  1
  U  U3  1  0.00000000  0.80354800  0.12317600  1
  U  U4  1  0.00000000  0.32619300  0.21580000  1
  U  U5  1  0.00000000  0.67380700  0.78420000  1
  U  U6  1  0.00000000  0.17380700  0.71580000  1
  U  U7  1  0.00000000  0.82619300  0.28420000  1
  W  W0  1  0.00000000  0.32513300  0.04782000  1
  W  W1  1  0.00000000  0.67486700  0.95218000  1
  W  W2  1  0.00000000  0.17486700  0.54782000  1
  W  W3  1  0.00000000  0.82513300  0.45218000  1
  O  O0  1  0.00000000  0.13913600  0.46540000  1
  O  O1  1  0.00000000  0.86086400  0.53460000  1
  O  O2  1  0.00000000  0.36086400  0.96540000  1
  O  O3  1  0.00000000  0.63913600  0.03460000  1
  O  O4  1  0.00000000  0.41850200  0.12310400  1
  O  O5  1  0.00000000  0.58149800  0.87689600  1
  O  O6  1  0.00000000  0.08149800  0.62310400  1
  O  O7  1  0.00000000  0.91850200  0.37689600  1
  O  O8  1  0.50000000  0.32100100  0.21618200  1
  O  O9  1  0.50000000  0.67899900  0.78381800  1
  O  O10  1  0.50000000  0.17899900  0.71618200  1
  O  O11  1  0.50000000  0.82100100  0.28381800  1
  O  O12  1  0.00000000  0.15242300  0.29373000  1
  O  O13  1  0.00000000  0.84757700  0.70627000  1
  O  O14  1  0.00000000  0.34757700  0.79373000  1
  O  O15  1  0.00000000  0.65242300  0.20627000  1
  O  O16  1  0.50000000  0.30155000  0.37799800  1
  O  O17  1  0.50000000  0.69845000  0.62200200  1
  O  O18  1  0.50000000  0.19845000  0.87799800  1
  O  O19  1  0.50000000  0.80155000  0.12200200  1
  O  O20  1  0.50000000  0.33217500  0.04607900  1
  O  O21  1  0.50000000  0.66782500  0.95392100  1
  O  O22  1  0.50000000  0.16782500  0.54607900  1
  O  O23  1  0.50000000  0.83217500  0.45392100  1
  O  O24  1  0.00000000  0.02533000  0.18761300  1
  O  O25  1  0.00000000  0.97467000  0.81238700  1
  O  O26  1  0.00000000  0.47467000  0.68761300  1
  O  O27  1  0.00000000  0.52533000  0.31238700  1
  O  O28  1  0.00000000  0.06187700  0.06126900  1
  O  O29  1  0.00000000  0.93812300  0.93873100  1
  O  O30  1  0.00000000  0.43812300  0.56126900  1
  O  O31  1  0.00000000  0.56187700  0.43873100  1
loop_
_geom_bond_atom_site_label_1
_geom_bond_atom_site_label_2
_geom_bond_distance
_geom_bond_site_symmetry_2
O0 W2 1.968621 1_555
O0 W3 2.167376 1_545
O0 U0 2.380792 1_555
O1 W3 1.968621 1_555
O1 W2 2.167376 1_565
O1 U1 2.380792 1_555
O2 W0 1.968621 1_556
O2 W1 2.167376 1_555
O2 U2 2.380792 1_555
O3 W1 1.968621 1_554
O3 W0 2.167376 1_555
O3 U3 2.380792 1_555
O4 W0 1.894837 1_555
O4 U4 2.285658 1_555
O4 U3 2.629826 1_555
O5 W1 1.894837 1_555
O5 U5 2.285658 1_555
O5 U2 2.629826 1_555
O6 W2 1.894837 1_555
O6 U6 2.285658 1_555
O6 U1 2.629826 1_545
O7 W3 1.894837 1_555
O7 U7 2.285658 1_555
O7 U0 2.629826 1_565
O8 U4 2.030773 1_655
O8 U4 2.030773 1_555
O9 U5 2.030773 1_555
O9 U5 2.030773 1_655
O10 U6 2.030773 1_655
O10 U6 2.030773 1_555
O11 U7 2.030773 1_655
O11 U7 2.030773 1_555
O12 U4 2.195460 1_555
O12 U0 2.223499 1_555
O12 U7 2.239537 1_545
O13 U5 2.195460 1_555
O13 U1 2.223499 1_555
O13 U6 2.239537 1_565
O14 U6 2.195460 1_555
O14 U2 2.223499 1_555
O14 U5 2.239537 1_555
O15 U7 2.195460 1_555
O15 U3 2.223499 1_555
O15 U4 2.239537 1_555
O16 U0 2.030680 1_655
O16 U0 2.030680 1_555
O17 U1 2.030680 1_655
O17 U1 2.030680 1_555
O18 U2 2.030680 1_655
O18 U2 2.030680 1_555
O19 U3 2.030680 1_655
O19 U3 2.030680 1_555
O20 W0 2.031432 1_655
O20 W0 2.031432 1_555
O21 W1 2.031432 1_655
O21 W1 2.031432 1_555
O22 W2 2.031432 1_555
O22 W2 2.031432 1_655
O23 W3 2.031432 1_655
O23 W3 2.031432 1_555
O24 U3 2.151015 1_545
O24 U4 2.160734 1_555
O24 U7 2.662763 1_545
O25 U2 2.151015 1_565
O25 U5 2.160734 1_555
O25 U6 2.662763 1_565
O26 U1 2.151015 1_555
O26 U6 2.160734 1_555
O26 U5 2.662763 1_555
O27 U0 2.151015 1_555
O27 U7 2.160734 1_555
O27 U4 2.662763 1_555
O28 W0 1.826048 1_555
O28 U3 2.294736 1_545
O29 W1 1.826048 1_555
O29 U2 2.294736 1_565
O30 W2 1.826048 1_555
O30 U1 2.294736 1_555
O31 W3 1.826048 1_555
O31 U0 2.294736 1_555
