# generated using pymatgen
data_Na(NiO2)2
_symmetry_space_group_name_H-M   'P 1'
_cell_length_a   4.84727857
_cell_length_b   5.68776814
_cell_length_c   12.57675066
_cell_angle_alpha   61.74055461
_cell_angle_beta   90.00000000
_cell_angle_gamma   90.00000000
_symmetry_Int_Tables_number   1
_chemical_formula_structural   Na(NiO2)2
_chemical_formula_sum   'Na4 Ni8 O16'
_cell_volume   305.41606741
_cell_formula_units_Z   4
loop_
 _symmetry_equiv_pos_site_id
 _symmetry_equiv_pos_as_xyz
  1  'x, y, z'
loop_
 _atom_site_type_symbol
 _atom_site_label
 _atom_site_symmetry_multiplicity
 _atom_site_fract_x
 _atom_site_fract_y
 _atom_site_fract_z
 _atom_site_occupancy
  Na  Na0  1  0.51276079  -0.00463844  0.25160339  1
  Na  Na1  1  0.85858981  0.50245527  0.74822791  1
  Na  Na2  1  0.14141019  0.50245527  0.24822791  1
  Na  Na3  1  0.48723921  -0.00463844  0.75160339  1
  Ni  Ni0  1  0.50333635  0.75102265  0.00231348  1
  Ni  Ni1  1  0.49785062  0.25178821  0.99762648  1
  Ni  Ni2  1  0.50214938  0.25178821  0.49762648  1
  Ni  Ni3  1  0.49666365  0.75102265  0.50231348  1
  Ni  Ni4  1  0.00040600  0.50079757  0.99763594  1
  Ni  Ni5  1  -0.00036599  0.00189120  0.00071979  1
  Ni  Ni6  1  -0.00040600  0.50079757  0.49763594  1
  Ni  Ni7  1  0.00036599  0.00189120  0.50071979  1
  O  O0  1  0.65744501  0.41052660  0.58621742  1
  O  O1  1  0.66550473  0.09238450  0.91196132  1
  O  O2  1  0.68224986  0.92429801  0.59392189  1
  O  O3  1  0.67211391  0.57612601  0.90498628  1
  O  O4  1  0.84303598  0.65804390  0.08383755  1
  O  O5  1  0.83933598  0.34143015  0.41344188  1
  O  O6  1  0.81421100  0.13896425  0.08960107  1
  O  O7  1  0.81799659  0.86522112  0.41211561  1
  O  O8  1  0.18578900  0.13896425  0.58960107  1
  O  O9  1  0.18200341  0.86522112  0.91211561  1
  O  O10  1  0.15696402  0.65804390  0.58383755  1
  O  O11  1  0.16066402  0.34143015  0.91344188  1
  O  O12  1  0.32788609  0.57612601  0.40498628  1
  O  O13  1  0.33449527  0.09238450  0.41196132  1
  O  O14  1  0.31775014  0.92429801  0.09392189  1
  O  O15  1  0.34255499  0.41052660  0.08621742  1
loop_
_geom_bond_atom_site_label_1
_geom_bond_atom_site_label_2
_geom_bond_distance
_geom_bond_site_symmetry_2
Na0 O6 2.318984 1_555
Na0 O7 2.323205 1_545
Na0 O14 2.397645 1_545
Na0 O12 2.419605 1_545
Na0 O15 2.435606 1_555
Na0 O13 2.484451 1_555
Na1 O10 2.327432 1_655
Na1 O11 2.344833 1_655
Na1 O3 2.379440 1_555
Na1 O2 2.417531 1_555
Na1 O1 2.451207 1_555
Na1 O0 2.526765 1_555
Na2 O4 2.327432 1_455
Na2 O5 2.344833 1_455
Na2 O12 2.379440 1_555
Na2 O14 2.417531 1_555
Na2 O13 2.451207 1_555
Na2 O15 2.526765 1_555
Na3 O8 2.318984 1_555
Na3 O9 2.323205 1_545
Na3 O2 2.397645 1_545
Na3 O3 2.419605 1_545
Na3 O0 2.435606 1_555
Na3 O1 2.484451 1_555
Ni0 O9 1.853945 1_554
Ni0 O4 1.878519 1_555
Ni0 O15 1.880531 1_555
Ni0 O1 1.894658 1_564
Ni0 O14 2.045290 1_555
Ni0 O3 2.076111 1_554
Ni1 O6 1.843509 1_556
Ni1 O3 1.854416 1_555
Ni1 O11 1.881797 1_555
Ni1 O14 1.887407 1_546
Ni1 O1 1.888965 1_555
Ni1 O15 1.890980 1_556
Ni2 O8 1.843509 1_555
Ni2 O12 1.854416 1_555
Ni2 O5 1.881797 1_555
Ni2 O2 1.887407 1_545
Ni2 O13 1.888965 1_555
Ni2 O0 1.890980 1_555
Ni3 O7 1.853945 1_555
Ni3 O10 1.878519 1_555
Ni3 O0 1.880531 1_555
Ni3 O13 1.894658 1_565
Ni3 O2 2.045290 1_555
Ni3 O12 2.076111 1_555
Ni4 O11 1.858820 1_555
Ni4 O4 1.864223 1_456
Ni4 O3 1.897602 1_455
Ni4 O15 1.927099 1_556
Ni4 O9 2.029023 1_555
Ni4 O6 2.033171 1_456
Ni5 O9 1.856816 1_544
Ni5 O14 1.859212 1_545
Ni5 O6 1.868287 1_455
Ni5 O11 1.880536 1_554
Ni5 O4 1.886236 1_445
Ni5 O1 1.894762 1_454
Ni6 O5 1.858820 1_455
Ni6 O10 1.864223 1_555
Ni6 O12 1.897602 1_555
Ni6 O0 1.927099 1_455
Ni6 O7 2.029023 1_455
Ni6 O8 2.033171 1_555
Ni7 O7 1.856816 1_445
Ni7 O2 1.859212 1_445
Ni7 O8 1.868287 1_555
Ni7 O5 1.880536 1_455
Ni7 O10 1.886236 1_545
Ni7 O13 1.894762 1_555
