# generated using pymatgen
data_NaNd3PtO7
_symmetry_space_group_name_H-M   'P 1'
_cell_length_a   5.74757259
_cell_length_b   5.74757259
_cell_length_c   12.06242490
_cell_angle_alpha   76.69323657
_cell_angle_beta   76.69323657
_cell_angle_gamma   61.69787038
_symmetry_Int_Tables_number   1
_chemical_formula_structural   NaNd3PtO7
_chemical_formula_sum   'Na2 Nd6 Pt2 O14'
_cell_volume   337.99979417
_cell_formula_units_Z   2
loop_
 _symmetry_equiv_pos_site_id
 _symmetry_equiv_pos_as_xyz
  1  'x, y, z'
loop_
 _atom_site_type_symbol
 _atom_site_label
 _atom_site_symmetry_multiplicity
 _atom_site_fract_x
 _atom_site_fract_y
 _atom_site_fract_z
 _atom_site_occupancy
  Na  Na0  1  0.42118500  0.87967600  0.76018500  1
  Na  Na1  1  0.87967600  0.42118500  0.26018500  1
  Nd  Nd0  1  0.32353600  0.81154500  0.06125400  1
  Nd  Nd1  1  0.81154500  0.32353600  0.56125400  1
  Nd  Nd2  1  0.69043300  0.20368700  0.93040500  1
  Nd  Nd3  1  0.20368700  0.69043300  0.43040500  1
  Nd  Nd4  1  0.56305700  0.06317500  0.24231900  1
  Nd  Nd5  1  0.06317500  0.56305700  0.74231900  1
  Pt  Pt0  1  0.50379200  0.99985200  0.50434000  1
  Pt  Pt1  1  0.99985200  0.50379200  0.00434000  1
  O  O0  1  0.80136100  0.89459100  0.60182300  1
  O  O1  1  0.37137700  0.71790600  0.59395200  1
  O  O2  1  0.23784500  0.29637000  0.59641500  1
  O  O3  1  0.71790600  0.37137700  0.09395200  1
  O  O4  1  0.89459100  0.80136100  0.10182300  1
  O  O5  1  0.29637000  0.23784500  0.09641500  1
  O  O6  1  0.20305100  0.13320600  0.40674600  1
  O  O7  1  0.61755900  0.27252500  0.40175000  1
  O  O8  1  0.78589100  0.71200200  0.40373500  1
  O  O9  1  0.27252500  0.61755900  0.90175000  1
  O  O10  1  0.13320600  0.20305100  0.90674600  1
  O  O11  1  0.71200200  0.78589100  0.90373500  1
  O  O12  1  0.37442600  0.77094900  0.24707700  1
  O  O13  1  0.77094900  0.37442600  0.74707700  1
loop_
_geom_bond_atom_site_label_1
_geom_bond_atom_site_label_2
_geom_bond_distance
_geom_bond_site_symmetry_2
Na0 O9 2.297912 1_555
Na0 O11 2.476097 1_555
Na0 O1 2.518341 1_555
Na0 O10 2.562798 1_565
Na0 O0 2.571334 1_555
Na0 O13 2.651161 1_555
Na0 O2 2.671334 1_565
Na1 O7 2.297912 1_555
Na1 O8 2.476097 1_555
Na1 O3 2.518341 1_555
Na1 O6 2.562798 1_655
Na1 O4 2.571334 1_555
Na1 O12 2.651161 1_555
Na1 O5 2.671334 1_655
Nd0 O12 2.271683 1_555
Nd0 O4 2.426797 1_455
Nd0 O3 2.491648 1_555
Nd0 O5 2.508548 1_565
Nd0 O10 2.531301 1_564
Nd0 O11 2.545782 1_554
Nd0 O9 2.566708 1_554
Nd1 O13 2.271683 1_555
Nd1 O0 2.426797 1_545
Nd1 O1 2.491648 1_555
Nd1 O2 2.508548 1_655
Nd1 O6 2.531301 1_655
Nd1 O8 2.545782 1_555
Nd1 O7 2.566708 1_555
Nd2 O13 2.242311 1_555
Nd2 O11 2.437240 1_545
Nd2 O3 2.451258 1_556
Nd2 O9 2.476511 1_555
Nd2 O10 2.493022 1_655
Nd2 O5 2.617215 1_556
Nd2 O4 2.709697 1_546
Nd3 O12 2.242311 1_555
Nd3 O8 2.437240 1_455
Nd3 O1 2.451258 1_555
Nd3 O7 2.476511 1_555
Nd3 O6 2.493022 1_565
Nd3 O2 2.617215 1_555
Nd3 O0 2.709697 1_455
Nd4 O5 2.328969 1_555
Nd4 O12 2.377696 1_545
Nd4 O4 2.394967 1_545
Nd4 O6 2.462894 1_555
Nd4 O8 2.528420 1_545
Nd4 O3 2.536792 1_555
Nd4 O7 2.635203 1_555
Nd5 O2 2.328969 1_555
Nd5 O13 2.377696 1_455
Nd5 O0 2.394967 1_455
Nd5 O10 2.462894 1_555
Nd5 O11 2.528420 1_455
Nd5 O1 2.536792 1_555
Nd5 O9 2.635203 1_555
O0 Pt0 2.071465 1_555
O1 Pt0 2.087611 1_555
O2 Pt0 2.023394 1_545
O3 Pt1 2.087611 1_555
O4 Pt1 2.071465 1_555
O5 Pt1 2.023394 1_455
O6 Pt0 2.055773 1_545
O7 Pt0 2.030162 1_545
O8 Pt0 2.076911 1_555
O9 Pt1 2.030162 1_456
O10 Pt1 2.055773 1_456
O11 Pt1 2.076911 1_556
