# generated using pymatgen
data_PrSm
_symmetry_space_group_name_H-M   'P 1'
_cell_length_a   7.48784899
_cell_length_b   7.48784899
_cell_length_c   11.80713570
_cell_angle_alpha   90.00000000
_cell_angle_beta   90.00000000
_cell_angle_gamma   120.00000977
_symmetry_Int_Tables_number   1
_chemical_formula_structural   PrSm
_chemical_formula_sum   'Pr8 Sm8'
_cell_volume   573.30971024
_cell_formula_units_Z   8
loop_
 _symmetry_equiv_pos_site_id
 _symmetry_equiv_pos_as_xyz
  1  'x, y, z'
loop_
 _atom_site_type_symbol
 _atom_site_label
 _atom_site_symmetry_multiplicity
 _atom_site_fract_x
 _atom_site_fract_y
 _atom_site_fract_z
 _atom_site_occupancy
  Pr  Pr0_0  1  0.33333350  0.16666650  0.25000000  1
  Pr  Pr0_1  1  0.33333350  0.16666650  0.75000000  1
  Pr  Pr0_2  1  0.33333350  0.66666650  0.25000000  1
  Pr  Pr0_3  1  0.33333350  0.66666650  0.75000000  1
  Pr  Pr0_4  1  0.83333350  0.16666650  0.25000000  1
  Pr  Pr0_5  1  0.83333350  0.16666650  0.75000000  1
  Pr  Pr0_6  1  0.83333350  0.66666650  0.25000000  1
  Pr  Pr0_7  1  0.83333350  0.66666650  0.75000000  1
  Sm  Sm0_0  1  0.16666650  0.33333350  0.00000000  1
  Sm  Sm0_1  1  0.16666650  0.33333350  0.50000000  1
  Sm  Sm0_2  1  0.16666650  0.83333350  0.00000000  1
  Sm  Sm0_3  1  0.16666650  0.83333350  0.50000000  1
  Sm  Sm0_4  1  0.66666650  0.33333350  0.00000000  1
  Sm  Sm0_5  1  0.66666650  0.33333350  0.50000000  1
  Sm  Sm0_6  1  0.66666650  0.83333350  0.00000000  1
  Sm  Sm0_7  1  0.66666650  0.83333350  0.50000000  1
loop_
_geom_bond_atom_site_label_1
_geom_bond_atom_site_label_2
_geom_bond_distance
_geom_bond_site_symmetry_2
Pr0_0 Sm0_4 3.658598 1_555
Pr0_0 Sm0_3 3.658598 1_545
Pr0_0 Sm0_5 3.658598 1_555
Pr0_0 Sm0_2 3.658598 1_545
Pr0_0 Sm0_1 3.658602 1_555
Pr0_0 Sm0_0 3.658602 1_555
Pr0_0 Pr0_6 3.743924 1_555
Pr0_0 Pr0_6 3.743924 1_445
Pr0_0 Pr0_2 3.743924 1_555
Pr0_0 Pr0_4 3.743924 1_455
Pr0_0 Pr0_4 3.743924 1_555
Pr0_0 Pr0_2 3.743924 1_545
Pr0_1 Sm0_3 3.658598 1_545
Pr0_1 Sm0_5 3.658598 1_555
Pr0_1 Sm0_4 3.658598 1_556
Pr0_1 Sm0_2 3.658598 1_546
Pr0_1 Sm0_1 3.658602 1_555
Pr0_1 Sm0_0 3.658602 1_556
Pr0_1 Pr0_7 3.743924 1_555
Pr0_1 Pr0_7 3.743924 1_445
Pr0_1 Pr0_3 3.743924 1_555
Pr0_1 Pr0_5 3.743924 1_455
Pr0_1 Pr0_5 3.743924 1_555
Pr0_1 Pr0_3 3.743924 1_545
Pr0_2 Sm0_1 3.658598 1_555
Pr0_2 Sm0_0 3.658598 1_555
Pr0_2 Sm0_6 3.658598 1_555
Pr0_2 Sm0_7 3.658598 1_555
Pr0_2 Sm0_2 3.658602 1_555
Pr0_2 Sm0_3 3.658602 1_555
Pr0_2 Pr0_4 3.743924 1_565
Pr0_2 Pr0_4 3.743924 1_455
Pr0_2 Pr0_6 3.743924 1_555
Pr0_2 Pr0_6 3.743924 1_455
Pr0_3 Sm0_1 3.658598 1_555
Pr0_3 Sm0_7 3.658598 1_555
Pr0_3 Sm0_0 3.658598 1_556
Pr0_3 Sm0_6 3.658598 1_556
Pr0_3 Sm0_3 3.658602 1_555
Pr0_3 Sm0_2 3.658602 1_556
Pr0_3 Pr0_5 3.743924 1_565
Pr0_3 Pr0_5 3.743924 1_455
Pr0_3 Pr0_7 3.743924 1_555
Pr0_3 Pr0_7 3.743924 1_455
Pr0_4 Sm0_0 3.658598 1_655
Pr0_4 Sm0_6 3.658598 1_545
Pr0_4 Sm0_1 3.658598 1_655
Pr0_4 Sm0_7 3.658598 1_545
Pr0_4 Sm0_5 3.658602 1_555
Pr0_4 Sm0_4 3.658602 1_555
Pr0_4 Pr0_6 3.743924 1_545
Pr0_4 Pr0_6 3.743924 1_555
Pr0_5 Sm0_1 3.658598 1_655
Pr0_5 Sm0_7 3.658598 1_545
Pr0_5 Sm0_0 3.658598 1_656
Pr0_5 Sm0_6 3.658598 1_546
Pr0_5 Sm0_5 3.658602 1_555
Pr0_5 Sm0_4 3.658602 1_556
Pr0_5 Pr0_7 3.743924 1_555
Pr0_5 Pr0_7 3.743924 1_545
Pr0_6 Sm0_5 3.658598 1_555
Pr0_6 Sm0_4 3.658598 1_555
Pr0_6 Sm0_2 3.658598 1_655
Pr0_6 Sm0_3 3.658598 1_655
Pr0_6 Sm0_6 3.658602 1_555
Pr0_6 Sm0_7 3.658602 1_555
Pr0_7 Sm0_5 3.658598 1_555
Pr0_7 Sm0_3 3.658598 1_655
Pr0_7 Sm0_4 3.658598 1_556
Pr0_7 Sm0_2 3.658598 1_656
Pr0_7 Sm0_7 3.658602 1_555
Pr0_7 Sm0_6 3.658602 1_556
Sm0_0 Sm0_6 3.743924 1_555
Sm0_0 Sm0_6 3.743924 1_445
Sm0_0 Sm0_2 3.743924 1_555
Sm0_0 Sm0_4 3.743924 1_455
Sm0_0 Sm0_4 3.743924 1_555
Sm0_0 Sm0_2 3.743924 1_545
Sm0_1 Sm0_7 3.743924 1_555
Sm0_1 Sm0_7 3.743924 1_445
Sm0_1 Sm0_3 3.743924 1_555
Sm0_1 Sm0_5 3.743924 1_455
Sm0_1 Sm0_3 3.743924 1_545
Sm0_1 Sm0_5 3.743924 1_555
Sm0_2 Sm0_4 3.743924 1_565
Sm0_2 Sm0_4 3.743924 1_455
Sm0_2 Sm0_6 3.743924 1_455
Sm0_2 Sm0_6 3.743924 1_555
Sm0_3 Sm0_5 3.743924 1_565
Sm0_3 Sm0_5 3.743924 1_455
Sm0_3 Sm0_7 3.743924 1_455
Sm0_3 Sm0_7 3.743924 1_555
Sm0_4 Sm0_6 3.743924 1_555
Sm0_4 Sm0_6 3.743924 1_545
Sm0_5 Sm0_7 3.743924 1_555
Sm0_5 Sm0_7 3.743924 1_545
