# generated using pymatgen
data_TaH6C2SeCl5
_symmetry_space_group_name_H-M   'P 1'
_cell_length_a   7.60152342
_cell_length_b   7.60152342
_cell_length_c   11.48994300
_cell_angle_alpha   90.00000000
_cell_angle_beta   90.00000000
_cell_angle_gamma   112.64074487
_symmetry_Int_Tables_number   1
_chemical_formula_structural   TaH6C2SeCl5
_chemical_formula_sum   'Ta2 H12 C4 Se2 Cl10'
_cell_volume   612.76092775
_cell_formula_units_Z   2
loop_
 _symmetry_equiv_pos_site_id
 _symmetry_equiv_pos_as_xyz
  1  'x, y, z'
loop_
 _atom_site_type_symbol
 _atom_site_label
 _atom_site_symmetry_multiplicity
 _atom_site_fract_x
 _atom_site_fract_y
 _atom_site_fract_z
 _atom_site_occupancy
  Ta  Ta0  1  0.78940100  0.21059900  0.69352100  1
  Ta  Ta1  1  0.21059900  0.78940100  0.19352100  1
  H  H0  1  0.45674700  0.21268200  0.44088300  1
  H  H1  1  0.78731800  0.54325300  0.44088300  1
  H  H2  1  0.54325300  0.78731800  0.94088300  1
  H  H3  1  0.21268200  0.45674700  0.94088300  1
  H  H4  1  0.28199400  0.15130900  0.55680800  1
  H  H5  1  0.84869100  0.71800600  0.55680800  1
  H  H6  1  0.71800600  0.84869100  0.05680800  1
  H  H7  1  0.15130900  0.28199400  0.05680800  1
  H  H8  1  0.31746300  0.35581200  0.46670500  1
  H  H9  1  0.64418800  0.68253700  0.46670500  1
  H  H10  1  0.68253700  0.64418800  0.96670500  1
  H  H11  1  0.35581200  0.31746300  0.96670500  1
  C  C0  1  0.38534500  0.26695500  0.50668100  1
  C  C1  1  0.73304500  0.61465500  0.50668100  1
  C  C2  1  0.61465500  0.73304500  0.00668100  1
  C  C3  1  0.26695500  0.38534500  0.00668100  1
  Se  Se0  1  0.57248100  0.42751900  0.61878500  1
  Se  Se1  1  0.42751900  0.57248100  0.11878500  1
  Cl  Cl0  1  0.96462600  0.03537400  0.74955800  1
  Cl  Cl1  1  0.03537400  0.96462600  0.24955800  1
  Cl  Cl2  1  0.49231600  0.95531300  0.69135400  1
  Cl  Cl3  1  0.04468700  0.50768400  0.69135400  1
  Cl  Cl4  1  0.50768400  0.04468700  0.19135400  1
  Cl  Cl5  1  0.95531300  0.49231600  0.19135400  1
  Cl  Cl6  1  0.82510200  0.17489800  0.49391000  1
  Cl  Cl7  1  0.17489800  0.82510200  0.99391000  1
  Cl  Cl8  1  0.72041500  0.27958500  0.88338100  1
  Cl  Cl9  1  0.27958500  0.72041500  0.38338100  1
loop_
_geom_bond_atom_site_label_1
_geom_bond_atom_site_label_2
_geom_bond_distance
_geom_bond_site_symmetry_2
C0 H4 1.090873 1_555
C0 H8 1.096271 1_555
C0 H0 1.099433 1_555
C0 Se0 1.958481 1_555
C1 H5 1.090873 1_555
C1 H9 1.096271 1_555
C1 H1 1.099433 1_555
C1 Se0 1.958481 1_555
C2 H6 1.090873 1_555
C2 H10 1.096271 1_554
C2 H2 1.099433 1_554
C2 Se1 1.958481 1_555
C3 H7 1.090873 1_555
C3 H11 1.096271 1_554
C3 H3 1.099433 1_554
C3 Se1 1.958481 1_555
Se0 Ta0 2.875518 1_555
Se1 Ta1 2.875518 1_555
Cl0 Ta0 2.308423 1_555
Cl1 Ta1 2.308423 1_555
Cl2 Ta0 2.343569 1_565
Cl3 Ta0 2.343569 1_455
Cl4 Ta1 2.343569 1_545
Cl5 Ta1 2.343569 1_655
Cl6 Ta0 2.337569 1_555
Cl7 Ta1 2.337569 1_556
Cl8 Ta0 2.349588 1_555
Cl9 Ta1 2.349588 1_555
