# generated using pymatgen
data_RbBi3
_symmetry_space_group_name_H-M   'P 1'
_cell_length_a   5.81870668
_cell_length_b   5.81870668
_cell_length_c   10.32586600
_cell_angle_alpha   90.00000000
_cell_angle_beta   90.00000000
_cell_angle_gamma   120.00000775
_symmetry_Int_Tables_number   1
_chemical_formula_structural   RbBi3
_chemical_formula_sum   'Rb2 Bi6'
_cell_volume   302.76802852
_cell_formula_units_Z   2
loop_
 _symmetry_equiv_pos_site_id
 _symmetry_equiv_pos_as_xyz
  1  'x, y, z'
loop_
 _atom_site_type_symbol
 _atom_site_label
 _atom_site_symmetry_multiplicity
 _atom_site_fract_x
 _atom_site_fract_y
 _atom_site_fract_z
 _atom_site_occupancy
  Rb  Rb0  1  0.33333300  0.66666700  0.25000000  1
  Rb  Rb1  1  0.66666700  0.33333300  0.75000000  1
  Bi  Bi0  1  0.33333300  0.66666700  0.59686900  1
  Bi  Bi1  1  0.66666700  0.33333300  0.40313100  1
  Bi  Bi2  1  0.66666700  0.33333300  0.09686900  1
  Bi  Bi3  1  0.33333300  0.66666700  0.90313100  1
  Bi  Bi4  1  0.00000000  0.00000000  0.25000000  1
  Bi  Bi5  1  0.00000000  0.00000000  0.75000000  1
loop_
_geom_bond_atom_site_label_1
_geom_bond_atom_site_label_2
_geom_bond_distance
_geom_bond_site_symmetry_2
Bi0 Bi3 3.162420 1_555
Bi0 Rb0 3.581723 1_555
Bi0 Rb1 3.712948 1_455
Bi0 Rb1 3.712948 1_565
Bi0 Bi5 3.712948 1_565
Bi0 Bi5 3.712953 1_555
Bi0 Bi5 3.712953 1_665
Bi0 Rb1 3.712958 1_555
Bi1 Bi2 3.162420 1_555
Bi1 Rb1 3.581723 1_555
Bi1 Rb0 3.712948 1_545
Bi1 Rb0 3.712948 1_655
Bi1 Bi4 3.712948 1_655
Bi1 Bi4 3.712953 1_665
Bi1 Bi4 3.712953 1_555
Bi1 Rb0 3.712958 1_555
Bi2 Rb1 3.581723 1_554
Bi2 Rb0 3.712948 1_545
Bi2 Rb0 3.712948 1_655
Bi2 Bi4 3.712948 1_655
Bi2 Bi4 3.712953 1_555
Bi2 Bi4 3.712953 1_665
Bi2 Rb0 3.712958 1_555
Bi3 Rb0 3.581723 1_556
Bi3 Rb1 3.712948 1_455
Bi3 Rb1 3.712948 1_565
Bi3 Bi5 3.712948 1_565
Bi3 Bi5 3.712953 1_665
Bi3 Bi5 3.712953 1_555
Bi3 Rb1 3.712958 1_555
Bi4 Rb0 3.359429 1_545
Bi4 Rb0 3.359433 1_555
Bi4 Rb0 3.359433 1_445
Bi5 Rb1 3.359429 1_455
Bi5 Rb1 3.359433 1_555
Bi5 Rb1 3.359433 1_445
