# generated using pymatgen
data_NaMg14V
_symmetry_space_group_name_H-M   'P 1'
_cell_length_a   6.42593922
_cell_length_b   6.42593869
_cell_length_c   10.16553338
_cell_angle_alpha   90.00000000
_cell_angle_beta   90.00000000
_cell_angle_gamma   120.00000271
_symmetry_Int_Tables_number   1
_chemical_formula_structural   NaMg14V
_chemical_formula_sum   'Na1 Mg14 V1'
_cell_volume   363.52474789
_cell_formula_units_Z   1
loop_
 _symmetry_equiv_pos_site_id
 _symmetry_equiv_pos_as_xyz
  1  'x, y, z'
loop_
 _atom_site_type_symbol
 _atom_site_label
 _atom_site_symmetry_multiplicity
 _atom_site_fract_x
 _atom_site_fract_y
 _atom_site_fract_z
 _atom_site_occupancy
  Na  Na0  1  0.16666700  0.33333300  0.62500000  1
  Mg  Mg0  1  0.16754767  0.83377334  0.12500000  1
  Mg  Mg1  1  0.17034907  0.83517404  0.62500000  1
  Mg  Mg2  1  0.66622666  0.33245233  0.12500000  1
  Mg  Mg3  1  0.66482596  0.32965093  0.62500000  1
  Mg  Mg4  1  0.66622666  0.83377334  0.12500000  1
  Mg  Mg5  1  0.66482596  0.83517404  0.62500000  1
  Mg  Mg6  1  0.33174448  0.16825552  0.36760776  1
  Mg  Mg7  1  0.33174448  0.16825552  0.88239224  1
  Mg  Mg8  1  0.33174448  0.66348995  0.36760776  1
  Mg  Mg9  1  0.33174448  0.66348995  0.88239224  1
  Mg  Mg10  1  0.83651005  0.16825552  0.36760776  1
  Mg  Mg11  1  0.83651005  0.16825552  0.88239224  1
  Mg  Mg12  1  0.83333300  0.66666700  0.37651009  1
  Mg  Mg13  1  0.83333300  0.66666700  0.87348991  1
  V  V0  1  0.16666700  0.33333300  0.12500000  1
loop_
_geom_bond_atom_site_label_1
_geom_bond_atom_site_label_2
_geom_bond_distance
_geom_bond_site_symmetry_2
Mg0 Mg9 3.089901 1_554
Mg0 Mg8 3.089901 1_555
Mg0 Mg7 3.089907 1_564
Mg0 Mg6 3.089907 1_565
Mg0 Mg12 3.161672 1_455
Mg0 Mg13 3.161672 1_454
Mg0 Mg2 3.204481 1_565
Mg0 Mg4 3.204481 1_555
Mg0 V0 3.212973 1_565
Mg0 V0 3.212973 1_555
Mg0 Mg2 3.221458 1_455
Mg0 Mg4 3.221458 1_455
Mg1 Mg12 3.146165 1_455
Mg1 Mg13 3.146165 1_455
Mg1 Mg3 3.177478 1_565
Mg1 Mg5 3.177478 1_555
Mg1 Mg8 3.206733 1_555
Mg1 Mg9 3.206733 1_555
Mg1 Mg6 3.206740 1_565
Mg1 Mg7 3.206740 1_565
Mg1 Na0 3.213035 1_565
Mg1 Na0 3.213035 1_555
Mg1 Mg3 3.248461 1_455
Mg1 Mg5 3.248461 1_455
Mg2 Mg7 3.089907 1_554
Mg2 Mg6 3.089907 1_555
Mg2 Mg4 3.204481 1_545
Mg2 V0 3.212973 1_555
Mg2 V0 3.212973 1_655
Mg2 Mg4 3.221458 1_555
Mg3 Mg5 3.177478 1_545
Mg3 Mg6 3.206740 1_555
Mg3 Mg7 3.206740 1_555
Mg3 Na0 3.213035 1_555
Mg3 Na0 3.213035 1_655
Mg3 Mg5 3.248461 1_555
Mg4 Mg9 3.089907 1_554
Mg4 Mg8 3.089907 1_555
Mg4 V0 3.212973 1_555
Mg4 V0 3.212973 1_665
Mg5 Mg8 3.206740 1_555
Mg5 Mg9 3.206740 1_555
Mg5 Na0 3.213035 1_555
Mg5 Na0 3.213035 1_665
Mg6 V0 3.075398 1_555
Mg6 Mg8 3.182346 1_555
Mg6 Na0 3.197182 1_555
Mg6 Mg8 3.243593 1_545
Mg7 V0 3.075398 1_556
Mg7 Mg9 3.182346 1_555
Mg7 Na0 3.197182 1_555
Mg7 Mg9 3.243593 1_545
Mg8 V0 3.075405 1_555
Mg8 Na0 3.197189 1_555
Mg9 V0 3.075405 1_556
Mg9 Na0 3.197189 1_555
Mg10 V0 3.075405 1_655
Mg10 Mg2 3.089901 1_555
Mg10 Mg4 3.089907 1_545
Mg10 Mg8 3.182346 1_655
Mg10 Mg6 3.182346 1_655
Mg10 Na0 3.197189 1_655
Mg10 Mg3 3.206733 1_555
Mg10 Mg5 3.206739 1_545
Mg10 Mg12 3.214292 1_545
Mg10 Mg12 3.214292 1_555
Mg10 Mg8 3.243593 1_545
Mg10 Mg6 3.243593 1_555
Mg11 V0 3.075405 1_656
Mg11 Mg2 3.089901 1_556
Mg11 Mg4 3.089907 1_546
Mg11 Mg9 3.182346 1_655
Mg11 Mg7 3.182346 1_655
Mg11 Na0 3.197189 1_655
Mg11 Mg3 3.206733 1_555
Mg11 Mg5 3.206739 1_545
Mg11 Mg13 3.214292 1_545
Mg11 Mg13 3.214292 1_555
Mg11 Mg9 3.243593 1_545
Mg11 Mg7 3.243593 1_555
Mg12 Mg5 3.146158 1_555
Mg12 Mg3 3.146165 1_555
Mg12 Mg4 3.161665 1_555
Mg12 Mg2 3.161672 1_555
Mg12 Mg6 3.214292 1_665
Mg12 Mg6 3.214292 1_555
Mg12 Mg8 3.214292 1_555
Mg12 Mg8 3.214292 1_655
Mg13 Mg5 3.146158 1_555
Mg13 Mg3 3.146165 1_555
Mg13 Mg4 3.161665 1_556
Mg13 Mg2 3.161672 1_556
Mg13 Mg7 3.214292 1_665
Mg13 Mg7 3.214292 1_555
Mg13 Mg9 3.214292 1_555
Mg13 Mg9 3.214292 1_655
