# generated using pymatgen
data_CuH5C3NO4
_symmetry_space_group_name_H-M   'P 1'
_cell_length_a   13.28236000
_cell_length_b   9.51173400
_cell_length_c   9.98144854
_cell_angle_alpha   78.56780073
_cell_angle_beta   90.00000000
_cell_angle_gamma   90.00000000
_symmetry_Int_Tables_number   1
_chemical_formula_structural   CuH5C3NO4
_chemical_formula_sum   'Cu8 H40 C24 N8 O32'
_cell_volume   1236.01990312
_cell_formula_units_Z   8
loop_
 _symmetry_equiv_pos_site_id
 _symmetry_equiv_pos_as_xyz
  1  'x, y, z'
loop_
 _atom_site_type_symbol
 _atom_site_label
 _atom_site_symmetry_multiplicity
 _atom_site_fract_x
 _atom_site_fract_y
 _atom_site_fract_z
 _atom_site_occupancy
  Cu  Cu0  1  0.65205200  0.82232000  0.18669300  1
  Cu  Cu1  1  0.15205200  0.67768000  0.81330700  1
  Cu  Cu2  1  0.34794800  0.17768000  0.81330700  1
  Cu  Cu3  1  0.84794800  0.32232000  0.18669300  1
  Cu  Cu4  1  0.59651600  0.25822600  0.50244300  1
  Cu  Cu5  1  0.09651600  0.24177400  0.49755700  1
  Cu  Cu6  1  0.40348400  0.74177400  0.49755700  1
  Cu  Cu7  1  0.90348400  0.75822600  0.50244300  1
  H  H0  1  0.48079000  0.85827500  0.06493700  1
  H  H1  1  0.98079000  0.64172500  0.93506300  1
  H  H2  1  0.51921000  0.14172500  0.93506300  1
  H  H3  1  0.01921000  0.35827500  0.06493700  1
  H  H4  1  0.48658300  0.70017100  0.16558000  1
  H  H5  1  0.98658300  0.79982900  0.83442000  1
  H  H6  1  0.51341700  0.29982900  0.83442000  1
  H  H7  1  0.01341700  0.20017100  0.16558000  1
  H  H8  1  0.77781900  0.26067600  0.57761700  1
  H  H9  1  0.27781900  0.23932400  0.42238300  1
  H  H10  1  0.22218100  0.73932400  0.42238300  1
  H  H11  1  0.72218100  0.76067600  0.57761700  1
  H  H12  1  0.75454300  0.10844800  0.53398600  1
  H  H13  1  0.25454300  0.39155200  0.46601400  1
  H  H14  1  0.24545700  0.89155200  0.46601400  1
  H  H15  1  0.74545700  0.60844800  0.53398600  1
  H  H16  1  0.46417100  0.68023600  0.93035700  1
  H  H17  1  0.96417100  0.81976400  0.06964300  1
  H  H18  1  0.53582900  0.31976400  0.06964300  1
  H  H19  1  0.03582900  0.18023600  0.93035700  1
  H  H20  1  0.57754900  0.77894000  0.89067500  1
  H  H21  1  0.07754900  0.72106000  0.10932500  1
  H  H22  1  0.42245100  0.22106000  0.10932500  1
  H  H23  1  0.92245100  0.27894000  0.89067500  1
  H  H24  1  0.58192900  0.60532800  0.99726000  1
  H  H25  1  0.08192900  0.89467200  0.00274000  1
  H  H26  1  0.41807100  0.39467200  0.00274000  1
  H  H27  1  0.91807100  0.10532800  0.99726000  1
  H  H28  1  0.79993300  0.06805900  0.77174400  1
  H  H29  1  0.29993300  0.43194100  0.22825600  1
  H  H30  1  0.20006700  0.93194100  0.22825600  1
  H  H31  1  0.70006700  0.56805900  0.77174400  1
  H  H32  1  0.69965000  0.18371900  0.79945300  1
  H  H33  1  0.19965000  0.31628100  0.20054700  1
  H  H34  1  0.30035000  0.81628100  0.20054700  1
  H  H35  1  0.80035000  0.68371900  0.79945300  1
  H  H36  1  0.67257100  0.01708200  0.75179900  1
  H  H37  1  0.17257100  0.48291800  0.24820100  1
  H  H38  1  0.32742900  0.98291800  0.24820100  1
  H  H39  1  0.82742900  0.51708200  0.75179900  1
  C  C0  1  0.70892500  0.10523800  0.11902200  1
  C  C1  1  0.20892500  0.39476200  0.88097800  1
  C  C2  1  0.29107500  0.89476200  0.88097800  1
  C  C3  1  0.79107500  0.60523800  0.11902200  1
  C  C4  1  0.77050100  0.03986900  0.24768200  1
  C  C5  1  0.27050100  0.46013100  0.75231800  1
  C  C6  1  0.22949900  0.96013100  0.75231800  1
  C  C7  1  0.72949900  0.53986900  0.24768200  1
  C  C8  1  0.47030700  0.48980200  0.43702000  1
  C  C9  1  0.97030700  0.01019800  0.56298000  1
  C  C10  1  0.52969300  0.51019800  0.56298000  1
  C  C11  1  0.02969300  0.98980200  0.43702000  1
  C  C12  1  0.53112000  0.00022100  0.43354800  1
  C  C13  1  0.03112000  0.49977900  0.56645200  1
  C  C14  1  0.46888000  0.99977900  0.56645200  1
  C  C15  1  0.96888000  0.50022100  0.43354800  1
  C  C16  1  0.53777800  0.70409700  0.97060700  1
  C  C17  1  0.03777800  0.79590300  0.02939300  1
  C  C18  1  0.46222200  0.29590300  0.02939300  1
  C  C19  1  0.96222200  0.20409700  0.97060700  1
  C  C20  1  0.72491000  0.10777800  0.73719000  1
  C  C21  1  0.22491000  0.39222200  0.26281000  1
  C  C22  1  0.27509000  0.89222200  0.26281000  1
  C  C23  1  0.77509000  0.60777800  0.73719000  1
  N  N0  1  0.52555500  0.76924600  0.09217100  1
  N  N1  1  0.02555500  0.73075400  0.90782900  1
  N  N2  1  0.47444500  0.23075400  0.90782900  1
  N  N3  1  0.97444500  0.26924600  0.09217100  1
  N  N4  1  0.72717200  0.17813200  0.59135700  1
  N  N5  1  0.22717200  0.32186800  0.40864300  1
  N  N6  1  0.27282800  0.82186800  0.40864300  1
  N  N7  1  0.77282800  0.67813200  0.59135700  1
  O  O0  1  0.64462200  0.02075400  0.07957800  1
  O  O1  1  0.14462200  0.47924600  0.92042200  1
  O  O2  1  0.35537800  0.97924600  0.92042200  1
  O  O3  1  0.85537800  0.52075400  0.07957800  1
  O  O4  1  0.72470000  0.23205400  0.06140800  1
  O  O5  1  0.22470000  0.26794600  0.93859200  1
  O  O6  1  0.27530000  0.76794600  0.93859200  1
  O  O7  1  0.77530000  0.73205400  0.06140800  1
  O  O8  1  0.75730100  0.90772000  0.29777500  1
  O  O9  1  0.25730100  0.59228000  0.70222500  1
  O  O10  1  0.24269900  0.09228000  0.70222500  1
  O  O11  1  0.74269900  0.40772000  0.29777500  1
  O  O12  1  0.83109600  0.12056500  0.29616000  1
  O  O13  1  0.33109600  0.37943500  0.70384000  1
  O  O14  1  0.16890400  0.87943500  0.70384000  1
  O  O15  1  0.66890400  0.62056500  0.29616000  1
  O  O16  1  0.48862600  0.38006900  0.38796800  1
  O  O17  1  0.98862600  0.11993100  0.61203200  1
  O  O18  1  0.51137400  0.61993100  0.61203200  1
  O  O19  1  0.01137400  0.88006900  0.38796800  1
  O  O20  1  0.40560800  0.58573500  0.38980500  1
  O  O21  1  0.90560800  0.91426500  0.61019500  1
  O  O22  1  0.59439200  0.41426500  0.61019500  1
  O  O23  1  0.09439200  0.08573500  0.38980500  1
  O  O24  1  0.58888700  0.10801500  0.39285800  1
  O  O25  1  0.08888700  0.39198500  0.60714200  1
  O  O26  1  0.41111300  0.89198500  0.60714200  1
  O  O27  1  0.91111300  0.60801500  0.39285800  1
  O  O28  1  0.52131700  0.89598900  0.37460400  1
  O  O29  1  0.02131700  0.60401100  0.62539600  1
  O  O30  1  0.47868300  0.10401100  0.62539600  1
  O  O31  1  0.97868300  0.39598900  0.37460400  1
loop_
_geom_bond_atom_site_label_1
_geom_bond_atom_site_label_2
_geom_bond_distance
_geom_bond_site_symmetry_2
Cu0 O0 1.978726 1_565
Cu0 O15 2.023725 1_555
Cu0 N0 2.038820 1_555
Cu0 O8 2.049510 1_555
Cu0 O7 2.325179 1_555
Cu1 O1 1.978726 1_555
Cu1 O14 2.023725 1_555
Cu1 N1 2.038820 1_555
Cu1 O9 2.049510 1_555
Cu1 O6 2.325179 1_555
Cu2 O2 1.978726 1_545
Cu2 O13 2.023725 1_555
Cu2 N2 2.038820 1_555
Cu2 O10 2.049510 1_555
Cu2 O5 2.325179 1_555
Cu3 O3 1.978726 1_555
Cu3 O12 2.023725 1_555
Cu3 N3 2.038820 1_555
Cu3 O11 2.049510 1_555
Cu3 O4 2.325179 1_555
Cu4 O24 1.966622 1_555
Cu4 O22 1.998297 1_555
Cu4 N4 2.027729 1_555
Cu4 O16 2.043862 1_555
Cu4 O30 2.322436 1_555
Cu5 O25 1.966622 1_555
Cu5 O23 1.998297 1_555
Cu5 N5 2.027729 1_555
Cu5 O17 2.043862 1_455
Cu5 O31 2.322436 1_455
Cu6 O26 1.966622 1_555
Cu6 O20 1.998297 1_555
Cu6 N6 2.027729 1_555
Cu6 O18 2.043862 1_555
Cu6 O28 2.322436 1_555
Cu7 O27 1.966622 1_555
Cu7 O21 1.998297 1_555
Cu7 N7 2.027729 1_555
Cu7 O19 2.043862 1_655
Cu7 O29 2.322436 1_655
H0 N0 1.026293 1_555
H1 N1 1.026293 1_655
H2 N2 1.026293 1_555
H3 N3 1.026293 1_455
H4 N0 1.022584 1_555
H5 N1 1.022584 1_655
H6 N2 1.022584 1_555
H7 N3 1.022584 1_455
H8 N4 1.022303 1_555
H9 N5 1.022303 1_555
H10 N6 1.022303 1_555
H11 N7 1.022303 1_555
H12 N4 1.024637 1_555
H13 N5 1.024637 1_555
H14 N6 1.024637 1_555
H15 N7 1.024637 1_555
C0 O4 1.246852 1_555
C0 O0 1.286724 1_555
C1 O5 1.246852 1_555
C1 O1 1.286724 1_555
C2 O6 1.246852 1_555
C2 O2 1.286724 1_555
C3 O7 1.246852 1_555
C3 O3 1.286724 1_555
C4 O8 1.269473 1_545
C4 O12 1.272122 1_555
C5 O9 1.269473 1_555
C5 O13 1.272122 1_555
C6 O10 1.269473 1_565
C6 O14 1.272122 1_555
C7 O11 1.269473 1_555
C7 O15 1.272122 1_555
C8 O16 1.261317 1_555
C8 O20 1.273874 1_555
C9 O17 1.261317 1_555
C9 O21 1.273874 1_545
C10 O18 1.261317 1_555
C10 O22 1.273874 1_555
C11 O19 1.261317 1_555
C11 O23 1.273874 1_565
C12 O28 1.255892 1_545
C12 O24 1.280568 1_555
C13 O29 1.255892 1_555
C13 O25 1.280568 1_555
C14 O30 1.255892 1_565
C14 O26 1.280568 1_555
C15 O31 1.255892 1_555
C15 O27 1.280568 1_555
C16 H20 1.094178 1_555
C16 H24 1.094619 1_555
C16 H16 1.097684 1_555
C16 N0 1.476731 1_556
C17 H21 1.094178 1_555
C17 H25 1.094619 1_555
C17 H17 1.097684 1_455
C17 N1 1.476731 1_554
C18 H22 1.094178 1_555
C18 H26 1.094619 1_555
C18 H18 1.097684 1_555
C18 N2 1.476731 1_554
C19 H23 1.094178 1_555
C19 H27 1.094619 1_555
C19 H19 1.097684 1_655
C19 N3 1.476731 1_556
C20 H32 1.094768 1_555
C20 H36 1.094938 1_555
C20 H28 1.096818 1_555
C20 N4 1.476961 1_555
C21 H33 1.094768 1_555
C21 H37 1.094938 1_555
C21 H29 1.096818 1_555
C21 N5 1.476961 1_555
C22 H34 1.094768 1_555
C22 H38 1.094938 1_555
C22 H30 1.096818 1_555
C22 N6 1.476961 1_555
C23 H35 1.094768 1_555
C23 H39 1.094938 1_555
C23 H31 1.096818 1_555
C23 N7 1.476961 1_555
