# generated using pymatgen
data_Cr4CoNiS8
_symmetry_space_group_name_H-M   'P 1'
_cell_length_a   6.89400262
_cell_length_b   6.89400262
_cell_length_c   6.89400262
_cell_angle_alpha   90.00000000
_cell_angle_beta   60.00000000
_cell_angle_gamma   120.00000000
_symmetry_Int_Tables_number   1
_chemical_formula_structural   Cr4CoNiS8
_chemical_formula_sum   'Cr4 Co1 Ni1 S8'
_cell_volume   231.68575584
_cell_formula_units_Z   1
loop_
 _symmetry_equiv_pos_site_id
 _symmetry_equiv_pos_as_xyz
  1  'x, y, z'
loop_
 _atom_site_type_symbol
 _atom_site_label
 _atom_site_symmetry_multiplicity
 _atom_site_fract_x
 _atom_site_fract_y
 _atom_site_fract_z
 _atom_site_occupancy
  Cr  Cr0  1  0.50083300  0.50125000  0.99958300  1
  Cr  Cr1  1  0.50083300  0.99958300  0.99958300  1
  Cr  Cr2  1  0.99916700  0.99958300  0.50125000  1
  Cr  Cr3  1  0.99916700  0.99958300  0.99958300  1
  Co  Co0  1  0.75000000  0.37500000  0.37500000  1
  Ni  Ni0  1  0.25000000  0.62500000  0.62500000  1
  S  S0  1  0.01086500  0.76629800  0.24456700  1
  S  S1  1  0.01086500  0.24456700  0.24456700  1
  S  S2  1  0.48913500  0.24456700  0.76629800  1
  S  S3  1  0.48913500  0.24456700  0.24456700  1
  S  S4  1  0.98887600  0.23331400  0.75556200  1
  S  S5  1  0.98887600  0.75556200  0.75556200  1
  S  S6  1  0.51112400  0.75556200  0.23331400  1
  S  S7  1  0.51112400  0.75556200  0.75556200  1
loop_
_geom_bond_atom_site_label_1
_geom_bond_atom_site_label_2
_geom_bond_distance
_geom_bond_site_symmetry_2
Cr0 S7 2.380163 1_555
Cr0 S5 2.380168 1_555
Cr0 S6 2.380168 1_556
Cr0 S1 2.389855 1_556
Cr0 S2 2.389855 1_555
Cr0 S3 2.389860 1_556
Cr1 S7 2.380163 1_555
Cr1 S4 2.380168 1_565
Cr1 S6 2.380168 1_556
Cr1 S2 2.389850 1_565
Cr1 S3 2.389855 1_566
Cr1 S0 2.389855 1_556
Cr2 S5 2.380163 1_555
Cr2 S7 2.380168 1_555
Cr2 S4 2.380168 1_565
Cr2 S3 2.389855 1_665
Cr2 S0 2.389855 1_655
Cr2 S1 2.389860 1_665
Cr3 S5 2.380163 1_555
Cr3 S6 2.380168 1_556
Cr3 S4 2.380168 1_565
Cr3 S0 2.389850 1_656
Cr3 S1 2.389855 1_666
Cr3 S2 2.389855 1_665
Co0 S1 2.202589 1_655
Co0 S3 2.202589 1_555
Co0 S0 2.202589 1_655
Co0 S2 2.202589 1_555
Ni0 S4 2.204773 1_455
Ni0 S6 2.204773 1_555
Ni0 S7 2.204773 1_555
Ni0 S5 2.204773 1_455
