# generated using pymatgen
data_AlCo2Ni
_symmetry_space_group_name_H-M   'P 1'
_cell_length_a   4.36048763
_cell_length_b   4.36048763
_cell_length_c   4.36048763
_cell_angle_alpha   131.68596818
_cell_angle_beta   131.68596818
_cell_angle_gamma   70.72546049
_symmetry_Int_Tables_number   1
_chemical_formula_structural   AlCo2Ni
_chemical_formula_sum   'Al1 Co2 Ni1'
_cell_volume   45.29442460
_cell_formula_units_Z   1
loop_
 _symmetry_equiv_pos_site_id
 _symmetry_equiv_pos_as_xyz
  1  'x, y, z'
loop_
 _atom_site_type_symbol
 _atom_site_label
 _atom_site_symmetry_multiplicity
 _atom_site_fract_x
 _atom_site_fract_y
 _atom_site_fract_z
 _atom_site_occupancy
  Al  Al0  1  0.00000000  0.00000000  0.00000000  1
  Co  Co0  1  0.75000000  0.25000000  0.50000000  1
  Co  Co1  1  0.25000000  0.75000000  0.50000000  1
  Ni  Ni0  1  0.50000000  0.50000000  0.00000000  1
loop_
_geom_bond_atom_site_label_1
_geom_bond_atom_site_label_2
_geom_bond_distance
_geom_bond_site_symmetry_2
Al0 Co1 2.519057 1_444
Al0 Co0 2.519057 1_555
Al0 Co0 2.519057 1_444
Al0 Co0 2.519057 1_455
Al0 Co1 2.519057 1_544
Al0 Co1 2.519057 1_555
Al0 Co1 2.519057 1_545
Al0 Co0 2.519057 1_454
Al0 Ni0 2.523636 1_545
Al0 Ni0 2.523636 1_444
Al0 Ni0 2.523636 1_556
Al0 Ni0 2.523636 1_455
Co0 Ni0 2.519057 1_656
Co0 Ni0 2.519057 1_545
Co0 Ni0 2.519057 1_556
Co0 Ni0 2.519057 1_555
Co0 Co1 2.523636 1_555
Co0 Co1 2.523636 1_544
Co0 Co1 2.523636 1_656
Co0 Co1 2.523636 1_645
Co1 Ni0 2.519057 1_455
Co1 Ni0 2.519057 1_566
Co1 Ni0 2.519057 1_556
Co1 Ni0 2.519057 1_555
