# generated using pymatgen
data_Li5Fe2P5O18
_symmetry_space_group_name_H-M   'P 1'
_cell_length_a   6.51358900
_cell_length_b   9.30271474
_cell_length_c   10.63795759
_cell_angle_alpha   96.06091376
_cell_angle_beta   92.98230082
_cell_angle_gamma   91.16341764
_symmetry_Int_Tables_number   1
_chemical_formula_structural   Li5Fe2P5O18
_chemical_formula_sum   'Li10 Fe4 P10 O36'
_cell_volume   639.90972514
_cell_formula_units_Z   2
loop_
 _symmetry_equiv_pos_site_id
 _symmetry_equiv_pos_as_xyz
  1  'x, y, z'
loop_
 _atom_site_type_symbol
 _atom_site_label
 _atom_site_symmetry_multiplicity
 _atom_site_fract_x
 _atom_site_fract_y
 _atom_site_fract_z
 _atom_site_occupancy
  Li  Li0  1  0.98500100  0.05769400  0.87168600  1
  Li  Li1  1  0.82700600  0.12926900  0.35706000  1
  Li  Li2  1  0.12439800  0.21621300  0.66006700  1
  Li  Li3  1  0.55486300  0.27887700  0.59042500  1
  Li  Li4  1  0.34447100  0.37208400  0.86540700  1
  Li  Li5  1  0.65552900  0.62791600  0.13459300  1
  Li  Li6  1  0.44513700  0.72112300  0.40957500  1
  Li  Li7  1  0.87560200  0.78378700  0.33993300  1
  Li  Li8  1  0.17299400  0.87073100  0.64294000  1
  Li  Li9  1  0.01499900  0.94230600  0.12831400  1
  Fe  Fe0  1  0.66864100  0.23186800  0.05455700  1
  Fe  Fe1  1  0.23220300  0.35626200  0.40394400  1
  Fe  Fe2  1  0.76779700  0.64373800  0.59605600  1
  Fe  Fe3  1  0.33135900  0.76813200  0.94544300  1
  P  P0  1  0.48631400  0.05210300  0.79971600  1
  P  P1  1  0.22238200  0.00984300  0.40229500  1
  P  P2  1  0.17054700  0.26914100  0.10525400  1
  P  P3  1  0.83350400  0.41903700  0.82630200  1
  P  P4  1  0.72133300  0.41752600  0.34942000  1
  P  P5  1  0.27866700  0.58247400  0.65058000  1
  P  P6  1  0.16649600  0.58096300  0.17369800  1
  P  P7  1  0.82945300  0.73085900  0.89474600  1
  P  P8  1  0.77761800  0.99015700  0.59770500  1
  P  P9  1  0.51368600  0.94789700  0.20028400  1
  O  O0  1  0.97087100  0.01608100  0.68659500  1
  O  O1  1  0.66241200  0.07989100  0.90278600  1
  O  O2  1  0.41964300  0.02982500  0.32131600  1
  O  O3  1  0.73669100  0.11766000  0.52391700  1
  O  O4  1  0.67292800  0.06268800  0.16729200  1
  O  O5  1  0.39270500  0.18736700  0.75514100  1
  O  O6  1  0.22169300  0.15901200  0.48273200  1
  O  O7  1  0.98701900  0.17024000  0.05082100  1
  O  O8  1  0.01613600  0.32175700  0.81726600  1
  O  O9  1  0.23516100  0.24653400  0.23973900  1
  O  O10  1  0.67298000  0.37581300  0.91946300  1
  O  O11  1  0.35740500  0.25634800  0.02249600  1
  O  O12  1  0.92026200  0.33811600  0.38393400  1
  O  O13  1  0.54200800  0.35233100  0.41762500  1
  O  O14  1  0.73551500  0.44950700  0.69577700  1
  O  O15  1  0.25078100  0.42022200  0.59694800  1
  O  O16  1  0.67809900  0.39825200  0.20263600  1
  O  O17  1  0.07786500  0.42628700  0.10413200  1
  O  O18  1  0.92213500  0.57371300  0.89586800  1
  O  O19  1  0.32190100  0.60174800  0.79736400  1
  O  O20  1  0.74921900  0.57977800  0.40305200  1
  O  O21  1  0.26448500  0.55049300  0.30422300  1
  O  O22  1  0.45799200  0.64766900  0.58237500  1
  O  O23  1  0.07973800  0.66188400  0.61606600  1
  O  O24  1  0.64259500  0.74365200  0.97750400  1
  O  O25  1  0.32702000  0.62418700  0.08053700  1
  O  O26  1  0.76483900  0.75346600  0.76026100  1
  O  O27  1  0.98386400  0.67824300  0.18273400  1
  O  O28  1  0.01298100  0.82976000  0.94917900  1
  O  O29  1  0.77830700  0.84098800  0.51726800  1
  O  O30  1  0.60729500  0.81263300  0.24485900  1
  O  O31  1  0.32707200  0.93731200  0.83270800  1
  O  O32  1  0.26330900  0.88234000  0.47608300  1
  O  O33  1  0.58035700  0.97017500  0.67868400  1
  O  O34  1  0.33758800  0.92010900  0.09721400  1
  O  O35  1  0.02912900  0.98391900  0.31340500  1
loop_
_geom_bond_atom_site_label_1
_geom_bond_atom_site_label_2
_geom_bond_distance
_geom_bond_site_symmetry_2
Li0 O0 1.963157 1_555
Li0 O7 2.074437 1_556
Li0 O1 2.154696 1_555
Li0 O28 2.361800 1_645
Li0 O31 2.547535 1_645
Li0 O8 2.589011 1_655
Li1 O3 1.911798 1_555
Li1 O35 1.944370 1_645
Li1 O12 2.010488 1_555
Li1 O4 2.228469 1_555
Li2 O5 2.010376 1_555
Li2 O8 2.015415 1_555
Li2 O6 2.041987 1_555
Li2 O0 2.147222 1_455
Li2 O15 2.234611 1_555
Li3 O3 2.021825 1_555
Li3 O13 2.025987 1_555
Li3 O14 2.138106 1_555
Li3 O5 2.319857 1_555
Li3 O15 2.399496 1_555
Li3 O6 2.576549 1_555
Li4 O5 2.015456 1_555
Li4 O11 2.080352 1_556
Li4 O10 2.185233 1_555
Li4 O8 2.202267 1_555
Li4 O19 2.332045 1_555
Li5 O30 2.015456 1_555
Li5 O24 2.080352 1_554
Li5 O25 2.185233 1_555
Li5 O27 2.202267 1_555
Li5 O16 2.332045 1_555
Li6 O32 2.021825 1_555
Li6 O22 2.025987 1_555
Li6 O21 2.138106 1_555
Li6 O30 2.319857 1_555
Li6 O20 2.399496 1_555
Li6 O29 2.576549 1_555
Li7 O30 2.010376 1_555
Li7 O27 2.015415 1_555
Li7 O29 2.041987 1_555
Li7 O35 2.147222 1_655
Li7 O20 2.234611 1_555
Li8 O32 1.911798 1_555
Li8 O0 1.944370 1_465
Li8 O23 2.010488 1_555
Li8 O31 2.228469 1_555
Li9 O35 1.963157 1_555
Li9 O28 2.074437 1_554
Li9 O34 2.154696 1_555
Li9 O7 2.361800 1_465
Li9 O4 2.547535 1_465
Li9 O27 2.589011 1_455
Fe0 O1 2.028798 1_554
Fe0 O11 2.059414 1_555
Fe0 O10 2.065994 1_554
Fe0 O4 2.076742 1_555
Fe0 O16 2.086177 1_555
Fe0 O7 2.163997 1_555
Fe1 O9 1.929102 1_555
Fe1 O13 2.016971 1_555
Fe1 O12 2.033648 1_455
Fe1 O15 2.073022 1_555
Fe1 O6 2.097592 1_555
Fe1 O21 2.201572 1_555
Fe2 O26 1.929102 1_555
Fe2 O22 2.016971 1_555
Fe2 O23 2.033648 1_655
Fe2 O20 2.073022 1_555
Fe2 O29 2.097592 1_555
Fe2 O14 2.201572 1_555
Fe3 O34 2.028798 1_556
Fe3 O24 2.059414 1_555
Fe3 O25 2.065994 1_556
Fe3 O31 2.076742 1_555
Fe3 O19 2.086177 1_555
Fe3 O28 2.163997 1_555
O0 P8 1.533785 1_545
O1 P0 1.543358 1_555
O2 P9 1.583556 1_545
O2 P1 1.602140 1_555
O3 P8 1.510558 1_545
O4 P9 1.552877 1_545
O5 P0 1.518905 1_555
O6 P1 1.551699 1_555
O7 P2 1.543257 1_655
O8 P3 1.510158 1_455
O9 P2 1.507509 1_555
O10 P3 1.553063 1_555
O11 P2 1.538132 1_555
O12 P4 1.551166 1_555
O13 P4 1.552725 1_555
O14 P3 1.553689 1_555
O15 P5 1.559800 1_555
O16 P4 1.562930 1_555
O17 P2 1.593884 1_555
O17 P6 1.627372 1_555
O18 P7 1.593884 1_555
O18 P3 1.627372 1_555
O19 P5 1.562930 1_555
O20 P4 1.559800 1_555
O21 P6 1.553689 1_555
O22 P5 1.552725 1_555
O23 P5 1.551166 1_555
O24 P7 1.538132 1_555
O25 P6 1.553063 1_555
O26 P7 1.507509 1_555
O27 P6 1.510158 1_655
O28 P7 1.543257 1_455
O29 P8 1.551699 1_555
O30 P9 1.518905 1_555
O31 P0 1.552877 1_565
O32 P1 1.510558 1_565
O33 P0 1.583556 1_565
O33 P8 1.602140 1_555
O34 P9 1.543358 1_555
O35 P1 1.533785 1_565
