# generated using pymatgen
data_Na5NiSO2
_symmetry_space_group_name_H-M   'P 1'
_cell_length_a   4.58009900
_cell_length_b   4.58009900
_cell_length_c   8.17952700
_cell_angle_alpha   90.00000000
_cell_angle_beta   90.00000000
_cell_angle_gamma   90.00000000
_symmetry_Int_Tables_number   1
_chemical_formula_structural   Na5NiSO2
_chemical_formula_sum   'Na5 Ni1 S1 O2'
_cell_volume   171.58444777
_cell_formula_units_Z   1
loop_
 _symmetry_equiv_pos_site_id
 _symmetry_equiv_pos_as_xyz
  1  'x, y, z'
loop_
 _atom_site_type_symbol
 _atom_site_label
 _atom_site_symmetry_multiplicity
 _atom_site_fract_x
 _atom_site_fract_y
 _atom_site_fract_z
 _atom_site_occupancy
  Na  Na0  1  0.00000000  0.50000000  0.25910200  1
  Na  Na1  1  0.50000000  0.00000000  0.25910200  1
  Na  Na2  1  0.00000000  0.50000000  0.74089800  1
  Na  Na3  1  0.50000000  0.00000000  0.74089800  1
  Na  Na4  1  0.00000000  0.00000000  0.50000000  1
  Ni  Ni0  1  0.00000000  0.00000000  0.00000000  1
  S  S0  1  0.50000000  0.50000000  0.50000000  1
  O  O0  1  0.00000000  0.00000000  0.78034300  1
  O  O1  1  0.00000000  0.00000000  0.21965700  1
loop_
_geom_bond_atom_site_label_1
_geom_bond_atom_site_label_2
_geom_bond_distance
_geom_bond_site_symmetry_2
Na0 O1 2.312666 1_555
Na0 O1 2.312666 1_565
Na0 S0 3.021081 1_455
Na0 S0 3.021081 1_555
Na1 O1 2.312666 1_555
Na1 O1 2.312666 1_655
Na1 S0 3.021081 1_555
Na1 S0 3.021081 1_545
Na2 O0 2.312666 1_565
Na2 O0 2.312666 1_555
Na2 S0 3.021081 1_455
Na2 S0 3.021081 1_555
Na3 O0 2.312666 1_655
Na3 O0 2.312666 1_555
Na3 S0 3.021081 1_545
Na3 S0 3.021081 1_555
Na4 O0 2.293073 1_555
Na4 O1 2.293073 1_555
Na4 S0 3.238619 1_455
Na4 S0 3.238619 1_555
Na4 S0 3.238619 1_445
Na4 S0 3.238619 1_545
Ni0 O1 1.796690 1_555
Ni0 O0 1.796690 1_554
