# generated using pymatgen
data_ZnAs2Pb2O9
_symmetry_space_group_name_H-M   'P 1'
_cell_length_a   5.87092900
_cell_length_b   8.15478000
_cell_length_c   9.14759255
_cell_angle_alpha   66.58060311
_cell_angle_beta   90.00000000
_cell_angle_gamma   90.00000000
_symmetry_Int_Tables_number   1
_chemical_formula_structural   ZnAs2Pb2O9
_chemical_formula_sum   'Zn2 As4 Pb4 O18'
_cell_volume   401.87299022
_cell_formula_units_Z   2
loop_
 _symmetry_equiv_pos_site_id
 _symmetry_equiv_pos_as_xyz
  1  'x, y, z'
loop_
 _atom_site_type_symbol
 _atom_site_label
 _atom_site_symmetry_multiplicity
 _atom_site_fract_x
 _atom_site_fract_y
 _atom_site_fract_z
 _atom_site_occupancy
  Zn  Zn0  1  0.50000000  0.00000000  0.00000000  1
  Zn  Zn1  1  0.00000000  0.00000000  0.00000000  1
  As  As0  1  0.25000000  0.02067100  0.34945800  1
  As  As1  1  0.75000000  0.97932900  0.65054200  1
  As  As2  1  0.25000000  0.57859400  0.16459000  1
  As  As3  1  0.75000000  0.42140600  0.83541000  1
  Pb  Pb0  1  0.25000000  0.72665800  0.73588600  1
  Pb  Pb1  1  0.75000000  0.27334200  0.26411400  1
  Pb  Pb2  1  0.25000000  0.29839000  0.64673200  1
  Pb  Pb3  1  0.75000000  0.70161000  0.35326800  1
  O  O0  1  0.25000000  0.54321600  0.99252100  1
  O  O1  1  0.75000000  0.45678400  0.00747900  1
  O  O2  1  0.25000000  0.13767800  0.46314800  1
  O  O3  1  0.75000000  0.86232200  0.53685200  1
  O  O4  1  0.25000000  0.15063700  0.90825200  1
  O  O5  1  0.75000000  0.84936300  0.09174800  1
  O  O6  1  0.25000000  0.79095200  0.46846000  1
  O  O7  1  0.75000000  0.20904800  0.53154000  1
  O  O8  1  0.25000000  0.80000400  0.13575300  1
  O  O9  1  0.75000000  0.19999600  0.86424700  1
  O  O10  1  0.49168100  0.48498000  0.27874200  1
  O  O11  1  0.50831900  0.51502000  0.72125800  1
  O  O12  1  0.99168100  0.51502000  0.72125800  1
  O  O13  1  0.00831900  0.48498000  0.27874200  1
  O  O14  1  0.99492000  0.92662200  0.77124000  1
  O  O15  1  0.00508000  0.07337800  0.22876000  1
  O  O16  1  0.49492000  0.07337800  0.22876000  1
  O  O17  1  0.50508000  0.92662200  0.77124000  1
loop_
_geom_bond_atom_site_label_1
_geom_bond_atom_site_label_2
_geom_bond_distance
_geom_bond_site_symmetry_2
As0 O2 1.667581 1_555
As0 O6 1.753071 1_545
As0 O15 1.759010 1_555
As0 O16 1.759010 1_555
As1 O3 1.667581 1_555
As1 O7 1.753071 1_565
As1 O17 1.759010 1_555
As1 O14 1.759010 1_555
As2 O0 1.709309 1_554
As2 O8 1.717844 1_555
As2 O10 1.747212 1_555
As2 O13 1.747212 1_555
As3 O1 1.709309 1_556
As3 O9 1.717844 1_555
As3 O11 1.747212 1_555
As3 O12 1.747212 1_555
O0 Pb0 2.226517 1_555
O1 Pb1 2.226517 1_555
O2 Pb2 2.507461 1_555
O3 Pb3 2.507461 1_555
O4 Zn1 1.883633 1_556
O4 Zn0 1.883633 1_556
O4 Pb2 2.209856 1_555
O5 Zn1 1.883633 1_665
O5 Zn0 1.883633 1_565
O5 Pb3 2.209856 1_555
O6 Pb0 2.289046 1_555
O7 Pb1 2.289046 1_555
O8 Zn1 2.178601 1_565
O8 Zn0 2.178601 1_565
O9 Zn0 2.178601 1_556
O9 Zn1 2.178601 1_656
O10 Pb1 2.340955 1_555
O10 Pb3 2.615887 1_555
O11 Pb0 2.340955 1_555
O11 Pb2 2.615887 1_555
O12 Pb0 2.340955 1_655
O12 Pb2 2.615887 1_655
O13 Pb1 2.340955 1_455
O13 Pb3 2.615887 1_455
O14 Pb0 2.329278 1_655
O14 Zn1 2.394434 1_666
O15 Pb1 2.329278 1_455
O15 Zn1 2.394434 1_555
O16 Pb1 2.329278 1_555
O16 Zn0 2.394434 1_555
O17 Pb0 2.329278 1_555
O17 Zn0 2.394434 1_566
