# generated using pymatgen
data_CeMg14Ti
_symmetry_space_group_name_H-M   'P 1'
_cell_length_a   6.52114076
_cell_length_b   6.22633113
_cell_length_c   10.42540985
_cell_angle_alpha   90.00009033
_cell_angle_beta   89.99982303
_cell_angle_gamma   118.52006117
_symmetry_Int_Tables_number   1
_chemical_formula_structural   CeMg14Ti
_chemical_formula_sum   'Ce1 Mg14 Ti1'
_cell_volume   371.93310360
_cell_formula_units_Z   1
loop_
 _symmetry_equiv_pos_site_id
 _symmetry_equiv_pos_as_xyz
  1  'x, y, z'
loop_
 _atom_site_type_symbol
 _atom_site_label
 _atom_site_symmetry_multiplicity
 _atom_site_fract_x
 _atom_site_fract_y
 _atom_site_fract_z
 _atom_site_occupancy
  Ce  Ce0  1  0.15509070  0.82759990  0.12499869  1
  Mg  Mg0  1  0.16239694  0.33119415  0.62500014  1
  Mg  Mg1  1  0.16504080  0.83252463  0.62500052  1
  Mg  Mg2  1  0.65499329  0.33121636  0.12500006  1
  Mg  Mg3  1  0.66361124  0.32999506  0.62499974  1
  Mg  Mg4  1  0.65496283  0.82386523  0.12500023  1
  Mg  Mg5  1  0.66363831  0.83365201  0.62500006  1
  Mg  Mg6  1  0.33813484  0.17324034  0.37880962  1
  Mg  Mg7  1  0.33813187  0.17323956  0.87118995  1
  Mg  Mg8  1  0.33812252  0.66479431  0.37877933  1
  Mg  Mg9  1  0.33812380  0.66479234  0.87122018  1
  Mg  Mg10  1  0.84493102  0.17250467  0.36558684  1
  Mg  Mg11  1  0.84492894  0.17250749  0.88441349  1
  Mg  Mg12  1  0.83321516  0.66661066  0.38346240  1
  Mg  Mg13  1  0.83321216  0.66661307  0.86653774  1
  Ti  Ti0  1  0.17146558  0.33565021  0.12500103  1
loop_
_geom_bond_atom_site_label_1
_geom_bond_atom_site_label_2
_geom_bond_distance
_geom_bond_site_symmetry_2
Ce0 Ti0 3.113718 1_565
Ce0 Ti0 3.115440 1_555
Ce0 Mg2 3.250011 1_455
Ce0 Mg4 3.250366 1_455
Ce0 Mg7 3.256497 1_564
Ce0 Mg6 3.256520 1_565
Ce0 Mg9 3.256925 1_554
Ce0 Mg8 3.256941 1_555
Ce0 Mg13 3.265292 1_454
Ce0 Mg12 3.265297 1_455
Ce0 Mg2 3.270817 1_565
Ce0 Mg4 3.270903 1_555
Mg0 Mg1 3.113150 1_545
Mg0 Mg1 3.113254 1_555
Mg0 Mg9 3.153371 1_555
Mg0 Mg8 3.153382 1_555
Mg0 Mg7 3.153475 1_555
Mg0 Mg6 3.153480 1_555
Mg0 Mg5 3.248647 1_445
Mg0 Mg3 3.249094 1_455
Mg0 Mg11 3.259311 1_455
Mg0 Mg10 3.259312 1_455
Mg0 Mg3 3.272060 1_555
Mg0 Mg5 3.272068 1_555
Mg1 Mg13 3.155299 1_455
Mg1 Mg12 3.155304 1_455
Mg1 Mg7 3.174174 1_565
Mg1 Mg6 3.174189 1_565
Mg1 Mg8 3.174816 1_555
Mg1 Mg9 3.174822 1_555
Mg1 Mg3 3.247765 1_565
Mg1 Mg5 3.248079 1_555
Mg1 Mg3 3.272947 1_455
Mg1 Mg5 3.273074 1_455
Mg2 Mg4 3.067490 1_555
Mg2 Mg4 3.158841 1_545
Mg2 Ti0 3.166426 1_555
Mg2 Mg6 3.209024 1_555
Mg2 Mg7 3.209046 1_554
Mg2 Ti0 3.354895 1_655
Mg3 Mg5 3.090480 1_545
Mg3 Mg5 3.135851 1_555
Mg3 Mg6 3.172844 1_555
Mg3 Mg7 3.172846 1_555
Mg4 Ti0 3.166868 1_555
Mg4 Mg8 3.208704 1_555
Mg4 Mg9 3.208716 1_554
Mg4 Ti0 3.354037 1_665
Mg5 Mg9 3.173222 1_555
Mg5 Mg8 3.173239 1_555
Mg6 Mg8 3.060616 1_555
Mg6 Mg8 3.165715 1_545
Mg6 Ti0 3.202349 1_555
Mg7 Mg9 3.060596 1_555
Mg7 Mg9 3.165736 1_545
Mg7 Ti0 3.202356 1_556
Mg8 Ti0 3.202202 1_555
Mg9 Ti0 3.202218 1_556
Mg10 Mg12 3.119242 1_555
Mg10 Mg12 3.119680 1_545
Mg10 Ti0 3.129158 1_655
Mg10 Mg4 3.157526 1_545
Mg10 Mg2 3.157638 1_555
Mg10 Mg8 3.216220 1_655
Mg10 Mg6 3.217022 1_655
Mg10 Mg3 3.283454 1_555
Mg10 Mg5 3.283497 1_545
Mg10 Mg6 3.309950 1_555
Mg10 Mg8 3.310289 1_545
Mg11 Mg13 3.119243 1_555
Mg11 Mg13 3.119679 1_545
Mg11 Ti0 3.129188 1_656
Mg11 Mg4 3.157535 1_546
Mg11 Mg2 3.157611 1_556
Mg11 Mg9 3.216218 1_655
Mg11 Mg7 3.217027 1_655
Mg11 Mg3 3.283455 1_555
Mg11 Mg5 3.283507 1_545
Mg11 Mg7 3.309946 1_555
Mg11 Mg9 3.310292 1_545
Mg12 Mg3 3.121431 1_555
Mg12 Mg5 3.121511 1_555
Mg12 Mg8 3.223554 1_555
Mg12 Mg6 3.223567 1_555
Mg12 Mg2 3.264159 1_555
Mg12 Mg4 3.264578 1_555
Mg12 Mg6 3.297883 1_665
Mg12 Mg8 3.298348 1_655
Mg13 Mg3 3.121444 1_555
Mg13 Mg5 3.121501 1_555
Mg13 Mg9 3.223513 1_555
Mg13 Mg7 3.223576 1_555
Mg13 Mg2 3.264164 1_556
Mg13 Mg4 3.264555 1_556
Mg13 Mg7 3.297873 1_665
Mg13 Mg9 3.298389 1_655
