# generated using pymatgen
data_Pr9Al5S21
_symmetry_space_group_name_H-M   'P 1'
_cell_length_a   11.76504958
_cell_length_b   11.76504958
_cell_length_c   11.76504997
_cell_angle_alpha   95.25917474
_cell_angle_beta   95.25917475
_cell_angle_gamma   95.25917943
_symmetry_Int_Tables_number   1
_chemical_formula_structural   Pr9Al5S21
_chemical_formula_sum   'Pr18 Al10 S42'
_cell_volume   1606.55097130
_cell_formula_units_Z   2
loop_
 _symmetry_equiv_pos_site_id
 _symmetry_equiv_pos_as_xyz
  1  'x, y, z'
loop_
 _atom_site_type_symbol
 _atom_site_label
 _atom_site_symmetry_multiplicity
 _atom_site_fract_x
 _atom_site_fract_y
 _atom_site_fract_z
 _atom_site_occupancy
  Pr  Pr0  1  0.11655738  0.88042392  0.74161223  1
  Pr  Pr1  1  0.45609826  0.22285365  0.07508455  1
  Pr  Pr2  1  0.76917796  0.55069225  0.40002596  1
  Pr  Pr3  1  0.40002596  0.76917796  0.55069225  1
  Pr  Pr4  1  0.74161223  0.11655738  0.88042392  1
  Pr  Pr5  1  0.07508455  0.45609826  0.22285365  1
  Pr  Pr6  1  0.22285365  0.07508455  0.45609826  1
  Pr  Pr7  1  0.55069225  0.40002596  0.76917796  1
  Pr  Pr8  1  0.88042392  0.74161223  0.11655738  1
  Pr  Pr9  1  0.20700133  0.43707561  0.58316754  1
  Pr  Pr10  1  0.54942834  0.78093852  0.92965916  1
  Pr  Pr11  1  0.87570914  0.10385066  0.24555052  1
  Pr  Pr12  1  0.92965916  0.54942834  0.78093852  1
  Pr  Pr13  1  0.24555052  0.87570914  0.10385066  1
  Pr  Pr14  1  0.58316754  0.20700133  0.43707561  1
  Pr  Pr15  1  0.10385066  0.24555052  0.87570914  1
  Pr  Pr16  1  0.43707561  0.58316754  0.20700133  1
  Pr  Pr17  1  0.78093852  0.92965916  0.54942834  1
  Al  Al0  1  0.72175758  0.38911213  0.04799854  1
  Al  Al1  1  0.04799854  0.72175758  0.38911213  1
  Al  Al2  1  0.38911213  0.04799854  0.72175758  1
  Al  Al3  1  0.88370635  0.22622032  0.54880769  1
  Al  Al4  1  0.22622032  0.54880769  0.88370635  1
  Al  Al5  1  0.54880769  0.88370635  0.22622032  1
  Al  Al6  1  0.85536584  0.85536584  0.85536584  1
  Al  Al7  1  0.17105760  0.17105760  0.17105760  1
  Al  Al8  1  0.67304927  0.67304927  0.67304927  1
  Al  Al9  1  0.35339033  0.35339033  0.35339033  1
  S  S0  1  0.83975267  0.50890602  0.17127327  1
  S  S1  1  0.17127327  0.83975267  0.50890602  1
  S  S2  1  0.50890602  0.17127327  0.83975267  1
  S  S3  1  0.67303063  0.00651226  0.34017649  1
  S  S4  1  0.00651226  0.34017649  0.67303063  1
  S  S5  1  0.34017649  0.67303063  0.00651226  1
  S  S6  1  0.54647244  0.44796135  0.01346254  1
  S  S7  1  0.87442927  0.78317374  0.35937086  1
  S  S8  1  0.21185944  0.10629664  0.69727053  1
  S  S9  1  0.69727053  0.21185944  0.10629664  1
  S  S10  1  0.01346254  0.54647244  0.44796135  1
  S  S11  1  0.35937086  0.87442927  0.78317374  1
  S  S12  1  0.78317374  0.35937086  0.87442927  1
  S  S13  1  0.10629664  0.69727053  0.21185944  1
  S  S14  1  0.44796135  0.01346254  0.54647244  1
  S  S15  1  0.96527501  0.07253687  0.47989347  1
  S  S16  1  0.29922158  0.39075784  0.81412183  1
  S  S17  1  0.63033411  0.72677965  0.16174246  1
  S  S18  1  0.81412183  0.29922158  0.39075784  1
  S  S19  1  0.16174246  0.63033411  0.72677965  1
  S  S20  1  0.47989347  0.96527501  0.07253687  1
  S  S21  1  0.72677965  0.16174246  0.63033411  1
  S  S22  1  0.07253687  0.47989347  0.96527501  1
  S  S23  1  0.39075784  0.81412183  0.29922158  1
  S  S24  1  0.54763144  0.40220906  0.30958570  1
  S  S25  1  0.88762337  0.75534701  0.66773535  1
  S  S26  1  0.23336741  0.09396835  0.00069164  1
  S  S27  1  0.00069164  0.23336741  0.09396835  1
  S  S28  1  0.30958570  0.54763144  0.40220906  1
  S  S29  1  0.66773535  0.88762337  0.75534701  1
  S  S30  1  0.75534701  0.66773535  0.88762337  1
  S  S31  1  0.09396835  0.00069164  0.23336741  1
  S  S32  1  0.40220906  0.30958570  0.54763144  1
  S  S33  1  0.15017278  0.28339568  0.36940953  1
  S  S34  1  0.48867556  0.62311352  0.72146667  1
  S  S35  1  0.79256023  0.94123545  0.03125065  1
  S  S36  1  0.72146667  0.48867556  0.62311352  1
  S  S37  1  0.03125065  0.79256023  0.94123545  1
  S  S38  1  0.36940953  0.15017278  0.28339568  1
  S  S39  1  0.94123545  0.03125065  0.79256023  1
  S  S40  1  0.28339568  0.36940953  0.15017278  1
  S  S41  1  0.62311352  0.72146667  0.48867556  1
loop_
_geom_bond_atom_site_label_1
_geom_bond_atom_site_label_2
_geom_bond_distance
_geom_bond_site_symmetry_2
Pr0 S11 2.862177 1_555
Pr0 S1 2.877205 1_555
Pr0 S37 2.877267 1_555
Pr0 S8 2.899356 1_565
Pr0 S39 2.909528 1_465
Pr0 S25 2.963976 1_455
Pr0 S19 3.029838 1_555
Pr1 S9 2.843838 1_555
Pr1 S38 2.908656 1_555
Pr1 S2 2.914851 1_554
Pr1 S26 2.922304 1_555
Pr1 S40 2.928126 1_555
Pr1 S6 2.940619 1_555
Pr1 S20 3.066458 1_545
Pr1 S24 3.345964 1_555
Pr2 S36 2.877886 1_555
Pr2 S10 2.883516 1_655
Pr2 S0 2.901047 1_555
Pr2 S41 2.941938 1_555
Pr2 S7 2.995117 1_555
Pr2 S18 3.046770 1_555
Pr2 S24 3.048579 1_555
Pr3 S41 2.877886 1_555
Pr3 S14 2.883516 1_565
Pr3 S1 2.901046 1_555
Pr3 S34 2.941938 1_555
Pr3 S11 2.995118 1_555
Pr3 S23 3.046770 1_555
Pr3 S28 3.048579 1_555
Pr4 S12 2.862177 1_555
Pr4 S2 2.877205 1_555
Pr4 S39 2.877267 1_555
Pr4 S9 2.899356 1_556
Pr4 S35 2.909528 1_546
Pr4 S29 2.963976 1_545
Pr4 S21 3.029838 1_555
Pr5 S13 2.843838 1_555
Pr5 S40 2.908656 1_555
Pr5 S0 2.914851 1_455
Pr5 S27 2.922304 1_555
Pr5 S33 2.928126 1_555
Pr5 S10 2.940619 1_555
Pr5 S22 3.066458 1_554
Pr5 S28 3.345964 1_555
Pr6 S8 2.843838 1_555
Pr6 S33 2.908656 1_555
Pr6 S1 2.914851 1_545
Pr6 S31 2.922304 1_555
Pr6 S38 2.928126 1_555
Pr6 S14 2.940619 1_555
Pr6 S15 3.066458 1_455
Pr6 S32 3.345964 1_555
Pr7 S34 2.877886 1_555
Pr7 S6 2.883516 1_556
Pr7 S2 2.901046 1_555
Pr7 S36 2.941938 1_555
Pr7 S12 2.995118 1_555
Pr7 S16 3.046770 1_555
Pr7 S32 3.048579 1_555
Pr8 S7 2.862177 1_555
Pr8 S0 2.877204 1_555
Pr8 S35 2.877267 1_555
Pr8 S13 2.899356 1_655
Pr8 S37 2.909528 1_654
Pr8 S30 2.963976 1_554
Pr8 S17 3.029838 1_555
Pr9 S19 2.826764 1_555
Pr9 S4 2.857681 1_555
Pr9 S28 2.893429 1_555
Pr9 S32 2.896833 1_555
Pr9 S33 2.945715 1_555
Pr9 S16 2.949003 1_555
Pr9 S10 3.101636 1_555
Pr10 S20 2.847334 1_556
Pr10 S29 2.897137 1_555
Pr10 S5 2.921569 1_556
Pr10 S34 2.925779 1_555
Pr10 S30 2.928819 1_555
Pr10 S17 2.953165 1_556
Pr10 S11 3.044956 1_555
Pr10 S35 3.337439 1_556
Pr11 S27 2.869249 1_655
Pr11 S3 2.908019 1_555
Pr11 S18 2.922200 1_555
Pr11 S15 2.927840 1_555
Pr11 S31 2.948593 1_655
Pr11 S9 2.991033 1_555
Pr11 S35 3.048671 1_545
Pr12 S22 2.847334 1_655
Pr12 S30 2.897137 1_555
Pr12 S4 2.921569 1_655
Pr12 S36 2.925779 1_555
Pr12 S25 2.928819 1_555
Pr12 S19 2.953165 1_655
Pr12 S12 3.044956 1_555
Pr12 S37 3.337439 1_655
Pr13 S31 2.869249 1_565
Pr13 S5 2.908019 1_555
Pr13 S23 2.922200 1_555
Pr13 S20 2.927839 1_555
Pr13 S26 2.948593 1_565
Pr13 S13 2.991033 1_555
Pr13 S37 3.048671 1_554
Pr14 S21 2.826764 1_555
Pr14 S3 2.857682 1_555
Pr14 S32 2.893429 1_555
Pr14 S24 2.896832 1_555
Pr14 S38 2.945715 1_555
Pr14 S18 2.949002 1_555
Pr14 S14 3.101635 1_555
Pr15 S26 2.869249 1_556
Pr15 S4 2.908019 1_555
Pr15 S16 2.922199 1_555
Pr15 S22 2.927840 1_555
Pr15 S27 2.948593 1_556
Pr15 S8 2.991033 1_555
Pr15 S39 3.048671 1_455
Pr16 S17 2.826764 1_555
Pr16 S5 2.857682 1_555
Pr16 S24 2.893429 1_555
Pr16 S28 2.896832 1_555
Pr16 S40 2.945715 1_555
Pr16 S23 2.949003 1_555
Pr16 S6 3.101636 1_555
Pr17 S15 2.847334 1_565
Pr17 S25 2.897137 1_555
Pr17 S3 2.921569 1_565
Pr17 S41 2.925778 1_555
Pr17 S29 2.928819 1_555
Pr17 S21 2.953165 1_565
Pr17 S7 3.044956 1_555
Pr17 S39 3.337439 1_565
Al0 S0 2.216862 1_555
Al0 S12 2.236149 1_554
Al0 S6 2.248778 1_555
Al0 S9 2.256228 1_555
Al1 S1 2.216862 1_555
Al1 S7 2.236149 1_455
Al1 S10 2.248778 1_555
Al1 S13 2.256228 1_555
Al2 S2 2.216862 1_555
Al2 S11 2.236149 1_545
Al2 S14 2.248778 1_555
Al2 S8 2.256228 1_555
Al3 S4 2.217997 1_655
Al3 S18 2.237871 1_555
Al3 S15 2.244882 1_555
Al3 S21 2.259504 1_555
Al4 S5 2.217997 1_556
Al4 S16 2.237871 1_555
Al4 S22 2.244882 1_555
Al4 S19 2.259504 1_555
Al5 S3 2.217997 1_565
Al5 S23 2.237871 1_555
Al5 S20 2.244882 1_555
Al5 S17 2.259504 1_555
Al6 S39 2.425387 1_565
Al6 S37 2.425387 1_655
Al6 S35 2.425387 1_556
Al6 S30 2.482124 1_555
Al6 S29 2.482125 1_555
Al6 S25 2.482125 1_555
Al7 S31 2.331404 1_555
Al7 S27 2.331405 1_555
Al7 S26 2.331405 1_555
Al7 S40 2.617668 1_555
Al7 S38 2.617668 1_555
Al7 S33 2.617668 1_555
Al8 S34 2.330056 1_555
Al8 S36 2.330056 1_555
Al8 S41 2.330056 1_555
Al8 S25 2.627984 1_555
Al8 S29 2.627985 1_555
Al8 S30 2.627985 1_555
Al9 S24 2.418146 1_555
Al9 S28 2.418146 1_555
Al9 S32 2.418146 1_555
Al9 S33 2.485963 1_555
Al9 S38 2.485963 1_555
Al9 S40 2.485963 1_555
