# generated using pymatgen
data_Zr2CuSi4
_symmetry_space_group_name_H-M   'P 1'
_cell_length_a   16.62650426
_cell_length_b   16.62650426
_cell_length_c   3.68265000
_cell_angle_alpha   90.00000000
_cell_angle_beta   90.00000000
_cell_angle_gamma   167.19675201
_symmetry_Int_Tables_number   1
_chemical_formula_structural   Zr2CuSi4
_chemical_formula_sum   'Zr4 Cu2 Si8'
_cell_volume   225.60020939
_cell_formula_units_Z   2
loop_
 _symmetry_equiv_pos_site_id
 _symmetry_equiv_pos_as_xyz
  1  'x, y, z'
loop_
 _atom_site_type_symbol
 _atom_site_label
 _atom_site_symmetry_multiplicity
 _atom_site_fract_x
 _atom_site_fract_y
 _atom_site_fract_z
 _atom_site_occupancy
  Zr  Zr0  1  0.67605900  0.32394100  0.75000000  1
  Zr  Zr1  1  0.32394100  0.67605900  0.25000000  1
  Zr  Zr2  1  0.95338000  0.04662000  0.75000000  1
  Zr  Zr3  1  0.04662000  0.95338000  0.25000000  1
  Cu  Cu0  1  0.25008100  0.74991900  0.75000000  1
  Cu  Cu1  1  0.74991900  0.25008100  0.25000000  1
  Si  Si0  1  0.52386700  0.47613300  0.75000000  1
  Si  Si1  1  0.47613300  0.52386700  0.25000000  1
  Si  Si2  1  0.38817400  0.61182600  0.75000000  1
  Si  Si3  1  0.61182600  0.38817400  0.25000000  1
  Si  Si4  1  0.11213700  0.88786300  0.75000000  1
  Si  Si5  1  0.88786300  0.11213700  0.25000000  1
  Si  Si6  1  0.79711200  0.20288800  0.75000000  1
  Si  Si7  1  0.20288800  0.79711200  0.25000000  1
loop_
_geom_bond_atom_site_label_1
_geom_bond_atom_site_label_2
_geom_bond_distance
_geom_bond_site_symmetry_2
Cu0 Si7 2.413005 1_556
Cu0 Si7 2.413005 1_555
Cu0 Si6 2.419101 1_455
Cu0 Si6 2.419101 1_565
Cu0 Cu1 2.612873 1_566
Cu0 Cu1 2.612873 1_455
Cu0 Cu1 2.612873 1_456
Cu0 Cu1 2.612873 1_565
Cu0 Zr1 3.057410 1_555
Cu0 Zr1 3.057410 1_556
Cu0 Zr0 3.069208 1_565
Cu0 Zr0 3.069208 1_455
Cu1 Si6 2.413005 1_554
Cu1 Si6 2.413005 1_555
Cu1 Si7 2.419101 1_655
Cu1 Si7 2.419101 1_545
Cu1 Zr0 3.057410 1_555
Cu1 Zr0 3.057410 1_554
Cu1 Zr1 3.069208 1_545
Cu1 Zr1 3.069208 1_655
Si0 Si1 2.424598 1_555
Si0 Si1 2.424598 1_556
Si0 Zr3 2.718899 1_545
Si0 Zr3 2.718899 1_656
Si0 Zr3 2.718899 1_655
Si0 Zr3 2.718899 1_546
Si0 Zr2 2.976943 1_455
Si0 Zr2 2.976943 1_565
Si1 Zr2 2.718899 1_455
Si1 Zr2 2.718899 1_454
Si1 Zr2 2.718899 1_565
Si1 Zr2 2.718899 1_564
Si1 Zr3 2.976943 1_545
Si1 Zr3 2.976943 1_655
Si2 Si5 2.612888 1_566
Si2 Si5 2.612888 1_456
Si2 Si5 2.612888 1_455
Si2 Si5 2.612888 1_565
Si2 Zr1 2.809983 1_556
Si2 Zr1 2.809983 1_555
Si2 Zr2 2.842474 1_565
Si2 Zr2 2.842474 1_455
Si3 Si4 2.612888 1_654
Si3 Si4 2.612888 1_655
Si3 Si4 2.612888 1_544
Si3 Si4 2.612888 1_545
Si3 Zr0 2.809983 1_555
Si3 Zr0 2.809983 1_554
Si3 Zr3 2.842474 1_655
Si3 Zr3 2.842474 1_545
Si4 Zr0 2.810445 1_565
Si4 Zr0 2.810445 1_455
Si4 Zr3 2.842170 1_555
Si4 Zr3 2.842170 1_556
Si5 Zr1 2.810445 1_655
Si5 Zr1 2.810445 1_545
Si5 Zr2 2.842170 1_554
Si5 Zr2 2.842170 1_555
Si6 Zr1 2.759186 1_545
Si6 Zr1 2.759186 1_546
Si6 Zr1 2.759186 1_656
Si6 Zr1 2.759186 1_655
Si7 Zr0 2.759186 1_454
Si7 Zr0 2.759186 1_455
Si7 Zr0 2.759186 1_565
Si7 Zr0 2.759186 1_564
