# generated using pymatgen
data_Sr3AlO4F
_symmetry_space_group_name_H-M   'P 1'
_cell_length_a   7.42129025
_cell_length_b   7.42129025
_cell_length_c   7.42129025
_cell_angle_alpha   125.15455298
_cell_angle_beta   125.15455298
_cell_angle_gamma   81.28219746
_symmetry_Int_Tables_number   1
_chemical_formula_structural   Sr3AlO4F
_chemical_formula_sum   'Sr6 Al2 O8 F2'
_cell_volume   263.13892999
_cell_formula_units_Z   2
loop_
 _symmetry_equiv_pos_site_id
 _symmetry_equiv_pos_as_xyz
  1  'x, y, z'
loop_
 _atom_site_type_symbol
 _atom_site_label
 _atom_site_symmetry_multiplicity
 _atom_site_fract_x
 _atom_site_fract_y
 _atom_site_fract_z
 _atom_site_occupancy
  Sr  Sr0  1  0.83125600  0.33125600  0.16251300  1
  Sr  Sr1  1  0.33125600  0.16874400  0.50000000  1
  Sr  Sr2  1  0.66874400  0.83125600  0.50000000  1
  Sr  Sr3  1  0.16874400  0.66874400  0.83748700  1
  Sr  Sr4  1  0.25000000  0.25000000  0.00000000  1
  Sr  Sr5  1  0.75000000  0.75000000  0.00000000  1
  Al  Al0  1  0.75000000  0.25000000  0.50000000  1
  Al  Al1  1  0.25000000  0.75000000  0.50000000  1
  O  O0  1  0.50583000  0.00583000  0.21550600  1
  O  O1  1  0.20967500  0.70967500  0.21550600  1
  O  O2  1  0.49417000  0.99417000  0.78449400  1
  O  O3  1  0.99417000  0.20967500  0.50000000  1
  O  O4  1  0.70967500  0.49417000  0.50000000  1
  O  O5  1  0.00583000  0.79032500  0.50000000  1
  O  O6  1  0.29032500  0.50583000  0.50000000  1
  O  O7  1  0.79032500  0.29032500  0.78449400  1
  F  F0  1  0.50000000  0.50000000  0.00000000  1
  F  F1  1  0.00000000  0.00000000  0.00000000  1
loop_
_geom_bond_atom_site_label_1
_geom_bond_atom_site_label_2
_geom_bond_distance
_geom_bond_site_symmetry_2
Al0 O7 1.791283 1_555
Al0 O0 1.791290 1_555
Al0 O4 1.791291 1_555
Al0 O3 1.791291 1_555
Al1 O1 1.791283 1_555
Al1 O2 1.791290 1_555
Al1 O5 1.791291 1_555
Al1 O6 1.791291 1_555
O0 Sr3 2.473860 1_544
O0 Sr1 2.708034 1_555
O0 Sr2 2.708034 1_545
O0 Sr5 2.871200 1_545
O0 Sr4 2.871200 1_555
O1 Sr3 2.473876 1_554
O1 Sr1 2.708041 1_565
O1 Sr2 2.708041 1_555
O1 Sr4 2.871195 1_555
O1 Sr5 2.871195 1_455
O2 Sr0 2.473860 1_566
O2 Sr1 2.708034 1_565
O2 Sr2 2.708034 1_555
O2 Sr4 2.871200 1_566
O2 Sr5 2.871200 1_556
O3 Sr1 2.473861 1_655
O3 Sr0 2.708034 1_555
O3 Sr3 2.708040 1_655
O3 Sr4 2.871196 1_656
O3 Sr5 2.871196 1_545
O4 Sr2 2.473861 1_555
O4 Sr0 2.708034 1_555
O4 Sr3 2.708040 1_655
O4 Sr5 2.871196 1_556
O4 Sr4 2.871196 1_555
O5 Sr2 2.473861 1_455
O5 Sr3 2.708034 1_555
O5 Sr0 2.708040 1_455
O5 Sr4 2.871196 1_566
O5 Sr5 2.871196 1_455
O6 Sr1 2.473861 1_555
O6 Sr3 2.708034 1_555
O6 Sr0 2.708040 1_455
O6 Sr5 2.871196 1_556
O6 Sr4 2.871196 1_555
O7 Sr0 2.473876 1_556
O7 Sr1 2.708041 1_555
O7 Sr2 2.708041 1_545
O7 Sr5 2.871195 1_556
O7 Sr4 2.871195 1_656
F0 Sr1 2.541265 1_554
F0 Sr2 2.541265 1_555
F0 Sr3 2.541266 1_554
F0 Sr0 2.541266 1_555
F0 Sr5 2.815653 1_555
F0 Sr4 2.815653 1_555
F1 Sr2 2.541265 1_444
F1 Sr1 2.541265 1_555
F1 Sr3 2.541266 1_544
F1 Sr0 2.541266 1_455
F1 Sr5 2.815653 1_445
F1 Sr4 2.815653 1_555
