# generated using pymatgen
data_BaCaCeHfO6
_symmetry_space_group_name_H-M   'P 1'
_cell_length_a   5.94943285
_cell_length_b   6.01083667
_cell_length_c   8.49733416
_cell_angle_alpha   90.29565260
_cell_angle_beta   90.31658567
_cell_angle_gamma   89.98294843
_symmetry_Int_Tables_number   1
_chemical_formula_structural   BaCaCeHfO6
_chemical_formula_sum   'Ba2 Ca2 Ce2 Hf2 O12'
_cell_volume   303.86505919
_cell_formula_units_Z   2
loop_
 _symmetry_equiv_pos_site_id
 _symmetry_equiv_pos_as_xyz
  1  'x, y, z'
loop_
 _atom_site_type_symbol
 _atom_site_label
 _atom_site_symmetry_multiplicity
 _atom_site_fract_x
 _atom_site_fract_y
 _atom_site_fract_z
 _atom_site_occupancy
  Ba  Ba0  1  0.50605344  0.52952157  0.25019135  1
  Ba  Ba1  1  0.49394656  0.47047843  0.74980865  1
  Ca  Ca0  1  0.99297835  0.03601227  0.25272111  1
  Ca  Ca1  1  0.00702165  0.96398773  0.74727889  1
  Ce  Ce0  1  -0.00000000  0.50000000  -0.00000000  1
  Ce  Ce1  1  0.50000000  -0.00000000  0.50000000  1
  Hf  Hf0  1  0.50000000  -0.00000000  -0.00000000  1
  Hf  Hf1  1  -0.00000000  0.50000000  0.50000000  1
  O  O0  1  0.21575137  0.19523814  0.93946594  1
  O  O1  1  0.28046965  0.70295216  0.52698837  1
  O  O2  1  0.78424863  0.80476186  0.06053406  1
  O  O3  1  0.71953035  0.29704784  0.47301163  1
  O  O4  1  0.29694998  0.72058004  0.96765359  1
  O  O5  1  0.19068412  0.21154791  0.55730080  1
  O  O6  1  0.70305002  0.27941996  0.03234641  1
  O  O7  1  0.80931588  0.78845209  0.44269920  1
  O  O8  1  0.39707151  0.00346949  0.23935082  1
  O  O9  1  0.06181107  0.43769613  0.26032128  1
  O  O10  1  0.60292849  0.99653051  0.76064918  1
  O  O11  1  0.93818893  0.56230387  0.73967872  1
loop_
_geom_bond_atom_site_label_1
_geom_bond_atom_site_label_2
_geom_bond_distance
_geom_bond_site_symmetry_2
Ba0 O6 2.656008 1_555
Ba0 O3 2.673994 1_555
Ba0 O9 2.702096 1_555
Ba0 O2 2.851720 1_555
Ba0 O7 2.880323 1_555
Ba0 O1 2.903235 1_555
Ba0 O8 2.923290 1_565
Ba0 O4 2.936843 1_554
Ba0 O8 3.228740 1_555
Ba0 O9 3.352742 1_655
Ba1 O4 2.656008 1_555
Ba1 O1 2.673994 1_555
Ba1 O11 2.702096 1_555
Ba1 O0 2.851720 1_555
Ba1 O5 2.880323 1_555
Ba1 O3 2.903235 1_555
Ba1 O10 2.923290 1_545
Ba1 O6 2.936843 1_556
Ba1 O10 3.228740 1_555
Ba1 O11 3.352742 1_455
Ca0 O8 2.415263 1_655
Ca0 O9 2.449522 1_655
Ca0 O7 2.461601 1_545
Ca0 O2 2.469085 1_545
Ca0 O6 2.934898 1_555
Ca0 O3 2.935019 1_555
Ca0 O5 3.022261 1_655
Ca1 O10 2.415263 1_455
Ca1 O11 2.449522 1_455
Ca1 O5 2.461601 1_565
Ca1 O0 2.469085 1_565
Ca1 O4 2.934898 1_555
Ca1 O1 2.935019 1_555
Ca1 O7 3.022261 1_455
Ce0 O6 2.228267 1_455
Ce0 O4 2.228267 1_554
Ce0 O9 2.273338 1_555
Ce0 O11 2.273338 1_454
Ce0 O0 2.294372 1_554
Ce0 O2 2.294372 1_455
Ce1 O1 2.226072 1_545
Ce1 O3 2.226072 1_555
Ce1 O5 2.289682 1_555
Ce1 O7 2.289682 1_545
Ce1 O8 2.294853 1_555
Ce1 O10 2.294853 1_545
Hf0 O4 2.085316 1_544
Hf0 O6 2.085316 1_555
Hf0 O0 2.120639 1_554
Hf0 O2 2.120639 1_545
Hf0 O8 2.127267 1_555
Hf0 O10 2.127267 1_544
Hf1 O3 2.078273 1_455
Hf1 O1 2.078273 1_555
Hf1 O9 2.103252 1_555
Hf1 O11 2.103252 1_455
Hf1 O5 2.128782 1_555
Hf1 O7 2.128782 1_455
