# generated using pymatgen
data_Mn
_symmetry_space_group_name_H-M   'P 1'
_cell_length_a   4.93297612
_cell_length_b   6.69393339
_cell_length_c   6.69393339
_cell_angle_alpha   82.19699447
_cell_angle_beta   68.37892795
_cell_angle_gamma   68.37892795
_symmetry_Int_Tables_number   1
_chemical_formula_structural   Mn
_chemical_formula_sum   Mn16
_cell_volume   191.03034361
_cell_formula_units_Z   16
loop_
 _symmetry_equiv_pos_site_id
 _symmetry_equiv_pos_as_xyz
  1  'x, y, z'
loop_
 _atom_site_type_symbol
 _atom_site_label
 _atom_site_symmetry_multiplicity
 _atom_site_fract_x
 _atom_site_fract_y
 _atom_site_fract_z
 _atom_site_occupancy
  Mn  Mn0_0  1  0.12500000  0.25000000  0.25000000  1
  Mn  Mn0_1  1  0.12500000  0.25000000  0.75000000  1
  Mn  Mn0_2  1  0.12500000  0.75000000  0.25000000  1
  Mn  Mn0_3  1  0.12500000  0.75000000  0.75000000  1
  Mn  Mn0_4  1  0.62500000  0.25000000  0.25000000  1
  Mn  Mn0_5  1  0.62500000  0.25000000  0.75000000  1
  Mn  Mn0_6  1  0.62500000  0.75000000  0.25000000  1
  Mn  Mn0_7  1  0.62500000  0.75000000  0.75000000  1
  Mn  Mn1_0  1  0.00000000  0.00000000  0.00000000  1
  Mn  Mn1_1  1  0.00000000  0.00000000  0.50000000  1
  Mn  Mn1_2  1  0.00000000  0.50000000  0.00000000  1
  Mn  Mn1_3  1  0.00000000  0.50000000  0.50000000  1
  Mn  Mn1_4  1  0.50000000  0.00000000  0.00000000  1
  Mn  Mn1_5  1  0.50000000  0.00000000  0.50000000  1
  Mn  Mn1_6  1  0.50000000  0.50000000  0.00000000  1
  Mn  Mn1_7  1  0.50000000  0.50000000  0.50000000  1
loop_
_geom_bond_atom_site_label_1
_geom_bond_atom_site_label_2
_geom_bond_distance
_geom_bond_site_symmetry_2
Mn0_0 Mn1_4 2.284922 1_555
Mn0_0 Mn1_1 2.284922 1_555
Mn0_0 Mn1_2 2.284922 1_555
Mn0_0 Mn1_3 2.284922 1_555
Mn0_0 Mn0_4 2.466488 1_455
Mn0_0 Mn0_4 2.466488 1_555
Mn0_1 Mn1_5 2.284922 1_555
Mn0_1 Mn1_3 2.284922 1_555
Mn0_1 Mn1_0 2.284922 1_556
Mn0_1 Mn1_2 2.284922 1_556
Mn0_1 Mn0_5 2.466488 1_455
Mn0_1 Mn0_5 2.466488 1_555
Mn0_2 Mn1_6 2.284922 1_555
Mn0_2 Mn1_3 2.284922 1_555
Mn0_2 Mn1_0 2.284922 1_565
Mn0_2 Mn1_1 2.284922 1_565
Mn0_2 Mn0_6 2.466488 1_455
Mn0_2 Mn0_6 2.466488 1_555
Mn0_3 Mn1_7 2.284922 1_555
Mn0_3 Mn1_1 2.284922 1_565
Mn0_3 Mn1_2 2.284922 1_556
Mn0_3 Mn1_0 2.284922 1_566
Mn0_3 Mn0_7 2.466488 1_555
Mn0_3 Mn0_7 2.466488 1_455
Mn0_4 Mn1_0 2.284922 1_655
Mn0_4 Mn1_5 2.284922 1_555
Mn0_4 Mn1_6 2.284922 1_555
Mn0_4 Mn1_7 2.284922 1_555
Mn0_5 Mn1_1 2.284922 1_655
Mn0_5 Mn1_4 2.284922 1_556
Mn0_5 Mn1_7 2.284922 1_555
Mn0_5 Mn1_6 2.284922 1_556
Mn0_6 Mn1_2 2.284922 1_655
Mn0_6 Mn1_4 2.284922 1_565
Mn0_6 Mn1_7 2.284922 1_555
Mn0_6 Mn1_5 2.284922 1_565
Mn0_7 Mn1_3 2.284922 1_655
Mn0_7 Mn1_6 2.284922 1_556
Mn0_7 Mn1_5 2.284922 1_565
Mn0_7 Mn1_4 2.284922 1_566
Mn1_0 Mn1_4 2.466488 1_555
Mn1_0 Mn1_4 2.466488 1_455
Mn1_1 Mn1_5 2.466488 1_555
Mn1_1 Mn1_5 2.466488 1_455
Mn1_2 Mn1_6 2.466488 1_555
Mn1_2 Mn1_6 2.466488 1_455
Mn1_3 Mn1_7 2.466488 1_555
Mn1_3 Mn1_7 2.466488 1_455
