# generated using pymatgen
data_CsLiMg30O31
_symmetry_space_group_name_H-M   'P 1'
_cell_length_a   8.55568000
_cell_length_b   8.69689500
_cell_length_c   8.76089500
_cell_angle_alpha   90.00000000
_cell_angle_beta   90.00000000
_cell_angle_gamma   90.00000000
_symmetry_Int_Tables_number   1
_chemical_formula_structural   CsLiMg30O31
_chemical_formula_sum   'Cs1 Li1 Mg30 O31'
_cell_volume   651.87936640
_cell_formula_units_Z   1
loop_
 _symmetry_equiv_pos_site_id
 _symmetry_equiv_pos_as_xyz
  1  'x, y, z'
loop_
 _atom_site_type_symbol
 _atom_site_label
 _atom_site_symmetry_multiplicity
 _atom_site_fract_x
 _atom_site_fract_y
 _atom_site_fract_z
 _atom_site_occupancy
  Cs  Cs0  1  0.50000000  0.01481600  0.00000000  1
  Li  Li0  1  0.00000000  0.02753800  0.00000000  1
  Mg  Mg0  1  0.00000000  0.00597800  0.50000000  1
  Mg  Mg1  1  0.50000000  0.00197000  0.50000000  1
  Mg  Mg2  1  0.00000000  0.48132000  0.00000000  1
  Mg  Mg3  1  0.50000000  0.50515400  0.00000000  1
  Mg  Mg4  1  0.00000000  0.49760600  0.50000000  1
  Mg  Mg5  1  0.50000000  0.49937200  0.50000000  1
  Mg  Mg6  1  0.24139700  0.99582400  0.25146500  1
  Mg  Mg7  1  0.75860300  0.99582400  0.25146500  1
  Mg  Mg8  1  0.24139700  0.99582400  0.74853500  1
  Mg  Mg9  1  0.75860300  0.99582400  0.74853500  1
  Mg  Mg10  1  0.24842700  0.50175800  0.25043800  1
  Mg  Mg11  1  0.75157300  0.50175800  0.25043800  1
  Mg  Mg12  1  0.24842700  0.50175800  0.74956200  1
  Mg  Mg13  1  0.75157300  0.50175800  0.74956200  1
  Mg  Mg14  1  0.26602800  0.74828000  0.00000000  1
  Mg  Mg15  1  0.73397200  0.74828000  0.00000000  1
  Mg  Mg16  1  0.25284700  0.75055500  0.50000000  1
  Mg  Mg17  1  0.74715300  0.75055500  0.50000000  1
  Mg  Mg18  1  0.24501700  0.25531800  0.00000000  1
  Mg  Mg19  1  0.75498300  0.25531800  0.00000000  1
  Mg  Mg20  1  0.25000000  0.24833900  0.50000000  1
  Mg  Mg21  1  0.75000000  0.24833900  0.50000000  1
  Mg  Mg22  1  0.00000000  0.75623800  0.27158000  1
  Mg  Mg23  1  0.50000000  0.74816400  0.25932600  1
  Mg  Mg24  1  0.00000000  0.75623800  0.72842000  1
  Mg  Mg25  1  0.50000000  0.74816400  0.74067400  1
  Mg  Mg26  1  0.00000000  0.24302300  0.24950200  1
  Mg  Mg27  1  0.50000000  0.25599500  0.25548800  1
  Mg  Mg28  1  0.00000000  0.24302300  0.75049800  1
  Mg  Mg29  1  0.50000000  0.25599500  0.74451200  1
  O  O0  1  0.50000000  0.72156200  0.00000000  1
  O  O1  1  0.00000000  0.74407500  0.50000000  1
  O  O2  1  0.50000000  0.74061000  0.50000000  1
  O  O3  1  0.00000000  0.25481100  0.00000000  1
  O  O4  1  0.50000000  0.29379000  0.00000000  1
  O  O5  1  0.00000000  0.25588900  0.50000000  1
  O  O6  1  0.50000000  0.25680800  0.50000000  1
  O  O7  1  0.24592900  0.74761600  0.24958800  1
  O  O8  1  0.75407100  0.74761600  0.24958800  1
  O  O9  1  0.24592900  0.74761600  0.75041200  1
  O  O10  1  0.75407100  0.74761600  0.75041200  1
  O  O11  1  0.24968500  0.24884100  0.24481300  1
  O  O12  1  0.75031500  0.24884100  0.24481300  1
  O  O13  1  0.24968500  0.24884100  0.75518700  1
  O  O14  1  0.75031500  0.24884100  0.75518700  1
  O  O15  1  0.20344000  0.96972600  0.00000000  1
  O  O16  1  0.79656000  0.96972600  0.00000000  1
  O  O17  1  0.24517700  0.99973300  0.50000000  1
  O  O18  1  0.75482300  0.99973300  0.50000000  1
  O  O19  1  0.23596200  0.51065400  0.00000000  1
  O  O20  1  0.76403800  0.51065400  0.00000000  1
  O  O21  1  0.24688700  0.49865600  0.50000000  1
  O  O22  1  0.75311300  0.49865600  0.50000000  1
  O  O23  1  0.00000000  0.99909300  0.26844500  1
  O  O24  1  0.50000000  0.99354100  0.28391700  1
  O  O25  1  0.00000000  0.99909300  0.73155500  1
  O  O26  1  0.50000000  0.99354100  0.71608300  1
  O  O27  1  0.00000000  0.50674200  0.24523900  1
  O  O28  1  0.50000000  0.50221600  0.25625500  1
  O  O29  1  0.00000000  0.50674200  0.75476100  1
  O  O30  1  0.50000000  0.50221600  0.74374500  1
loop_
_geom_bond_atom_site_label_1
_geom_bond_atom_site_label_2
_geom_bond_distance
_geom_bond_site_symmetry_2
Cs0 O4 2.426208 1_555
Cs0 O26 2.494239 1_544
Cs0 O24 2.494239 1_545
Cs0 O0 2.550399 1_545
Cs0 O15 2.567397 1_545
Cs0 O16 2.567397 1_545
Li0 O16 1.811731 1_445
Li0 O15 1.811731 1_545
Li0 O3 1.976569 1_555
Li0 O23 2.364794 1_545
Li0 O25 2.364794 1_544
Mg0 O25 2.029513 1_545
Mg0 O23 2.029513 1_545
Mg0 O17 2.098359 1_545
Mg0 O18 2.098359 1_445
Mg0 O5 2.173450 1_555
Mg0 O1 2.277743 1_545
Mg1 O24 1.894499 1_545
Mg1 O26 1.894499 1_545
Mg1 O18 2.180271 1_545
Mg1 O17 2.180271 1_545
Mg1 O6 2.216299 1_555
Mg1 O2 2.273020 1_545
Mg2 O3 1.969925 1_555
Mg2 O19 2.034871 1_555
Mg2 O20 2.034871 1_455
Mg2 O27 2.159859 1_555
Mg2 O29 2.159859 1_554
Mg3 O4 1.838211 1_555
Mg3 O0 1.882078 1_555
Mg3 O28 2.245169 1_555
Mg3 O30 2.245169 1_554
Mg3 O20 2.259531 1_555
Mg3 O19 2.259531 1_555
Mg4 O5 2.102187 1_555
Mg4 O22 2.112306 1_455
Mg4 O21 2.112306 1_555
Mg4 O1 2.143515 1_555
Mg4 O29 2.233348 1_555
Mg4 O27 2.233348 1_555
Mg5 O2 2.098022 1_555
Mg5 O6 2.109554 1_555
Mg5 O30 2.135568 1_555
Mg5 O28 2.135568 1_555
Mg5 O22 2.165563 1_555
Mg5 O21 2.165563 1_555
Mg6 O23 2.070861 1_555
Mg6 O7 2.159050 1_555
Mg6 O17 2.177895 1_555
Mg6 O11 2.202376 1_565
Mg6 O24 2.230805 1_555
Mg6 O15 2.238402 1_555
Mg7 O23 2.070861 1_655
Mg7 O8 2.159050 1_555
Mg7 O18 2.177895 1_555
Mg7 O12 2.202376 1_565
Mg7 O24 2.230805 1_555
Mg7 O16 2.238402 1_555
Mg8 O25 2.070861 1_555
Mg8 O9 2.159050 1_555
Mg8 O17 2.177895 1_555
Mg8 O13 2.202376 1_565
Mg8 O26 2.230805 1_555
Mg8 O15 2.238402 1_556
Mg9 O25 2.070861 1_655
Mg9 O10 2.159050 1_555
Mg9 O18 2.177895 1_555
Mg9 O14 2.202376 1_565
Mg9 O26 2.230805 1_555
Mg9 O16 2.238402 1_556
Mg10 O27 2.126392 1_555
Mg10 O7 2.138321 1_555
Mg10 O28 2.152985 1_555
Mg10 O21 2.186593 1_555
Mg10 O19 2.198013 1_555
Mg10 O11 2.200171 1_555
Mg11 O27 2.126392 1_655
Mg11 O8 2.138321 1_555
Mg11 O28 2.152985 1_555
Mg11 O22 2.186593 1_555
Mg11 O20 2.198013 1_555
Mg11 O12 2.200171 1_555
Mg12 O29 2.126392 1_555
Mg12 O9 2.138321 1_555
Mg12 O30 2.152985 1_555
Mg12 O21 2.186593 1_555
Mg12 O19 2.198013 1_556
Mg12 O13 2.200171 1_555
Mg13 O29 2.126392 1_655
Mg13 O10 2.138321 1_555
Mg13 O30 2.152985 1_555
Mg13 O22 2.186593 1_555
Mg13 O20 2.198013 1_556
Mg13 O14 2.200171 1_555
Mg14 O15 1.998951 1_555
Mg14 O0 2.015231 1_555
Mg14 O19 2.082556 1_555
Mg14 O7 2.193373 1_555
Mg14 O9 2.193373 1_554
Mg15 O16 1.998951 1_555
Mg15 O0 2.015231 1_555
Mg15 O20 2.082556 1_555
Mg15 O8 2.193373 1_555
Mg15 O10 2.193373 1_554
Mg16 O2 2.116330 1_555
Mg16 O1 2.164012 1_555
Mg16 O17 2.168068 1_555
Mg16 O21 2.191333 1_555
Mg16 O7 2.194780 1_555
Mg16 O9 2.194780 1_555
Mg17 O2 2.116330 1_555
Mg17 O1 2.164012 1_655
Mg17 O18 2.168068 1_555
Mg17 O22 2.191333 1_555
Mg17 O10 2.194780 1_555
Mg17 O8 2.194780 1_555
Mg18 O3 2.096292 1_555
Mg18 O13 2.145892 1_554
Mg18 O11 2.145892 1_555
Mg18 O4 2.207062 1_555
Mg18 O19 2.221981 1_555
Mg18 O15 2.509107 1_545
Mg19 O3 2.096292 1_655
Mg19 O14 2.145892 1_554
Mg19 O12 2.145892 1_555
Mg19 O4 2.207062 1_555
Mg19 O20 2.221981 1_555
Mg19 O16 2.509107 1_545
Mg20 O5 2.139928 1_555
Mg20 O6 2.140188 1_555
Mg20 O17 2.162494 1_545
Mg20 O21 2.177144 1_555
Mg20 O11 2.235672 1_555
Mg20 O13 2.235672 1_555
Mg21 O5 2.139928 1_655
Mg21 O6 2.140188 1_555
Mg21 O18 2.162494 1_545
Mg21 O22 2.177144 1_555
Mg21 O12 2.235672 1_555
Mg21 O14 2.235672 1_555
Mg22 O1 2.003957 1_555
Mg22 O23 2.112263 1_555
Mg22 O8 2.114223 1_455
Mg22 O7 2.114223 1_555
Mg22 O27 2.182078 1_555
Mg23 O2 2.109543 1_555
Mg23 O28 2.139153 1_555
Mg23 O24 2.144865 1_555
Mg23 O7 2.175429 1_555
Mg23 O8 2.175429 1_555
Mg23 O0 2.283677 1_555
Mg24 O1 2.003957 1_555
Mg24 O25 2.112263 1_555
Mg24 O10 2.114223 1_455
Mg24 O9 2.114223 1_555
Mg24 O29 2.182078 1_555
Mg25 O2 2.109543 1_555
Mg25 O30 2.139153 1_555
Mg25 O26 2.144865 1_555
Mg25 O9 2.175429 1_555
Mg25 O10 2.175429 1_555
Mg25 O0 2.283677 1_556
Mg26 O23 2.127915 1_545
Mg26 O11 2.137219 1_555
Mg26 O12 2.137219 1_455
Mg26 O3 2.188264 1_555
Mg26 O5 2.197437 1_555
Mg26 O27 2.293841 1_555
Mg27 O28 2.141369 1_555
Mg27 O6 2.142156 1_555
Mg27 O12 2.144559 1_555
Mg27 O11 2.144559 1_555
Mg27 O4 2.262310 1_555
Mg27 O24 2.296083 1_545
Mg28 O25 2.127915 1_545
Mg28 O13 2.137219 1_555
Mg28 O14 2.137219 1_455
Mg28 O3 2.188264 1_556
Mg28 O5 2.197437 1_555
Mg28 O29 2.293841 1_555
Mg29 O30 2.141369 1_555
Mg29 O6 2.142156 1_555
Mg29 O14 2.144559 1_555
Mg29 O13 2.144559 1_555
Mg29 O4 2.262310 1_556
Mg29 O26 2.296083 1_545
