# generated using pymatgen
data_LuSc(FeO3)2
_symmetry_space_group_name_H-M   'P 1'
_cell_length_a   5.95047294
_cell_length_b   5.95047294
_cell_length_c   11.68921400
_cell_angle_alpha   90.00000000
_cell_angle_beta   90.00000000
_cell_angle_gamma   120.00001043
_symmetry_Int_Tables_number   1
_chemical_formula_structural   LuSc(FeO3)2
_chemical_formula_sum   'Lu3 Sc3 Fe6 O18'
_cell_volume   358.44197736
_cell_formula_units_Z   3
loop_
 _symmetry_equiv_pos_site_id
 _symmetry_equiv_pos_as_xyz
  1  'x, y, z'
loop_
 _atom_site_type_symbol
 _atom_site_label
 _atom_site_symmetry_multiplicity
 _atom_site_fract_x
 _atom_site_fract_y
 _atom_site_fract_z
 _atom_site_occupancy
  Lu  Lu0  1  0.33333300  0.66666700  0.73319900  1
  Lu  Lu1  1  0.00000000  0.00000000  0.73312600  1
  Lu  Lu2  1  0.00000000  0.00000000  0.23345500  1
  Sc  Sc0  1  0.33333300  0.66666700  0.23405000  1
  Sc  Sc1  1  0.66666700  0.33333300  0.77336600  1
  Sc  Sc2  1  0.66666700  0.33333300  0.27298900  1
  Fe  Fe0  1  0.66543300  0.66434800  0.49886000  1
  Fe  Fe1  1  0.33565200  0.00108500  0.49886000  1
  Fe  Fe2  1  0.99891500  0.33456700  0.49886000  1
  Fe  Fe3  1  0.66505400  0.00082100  0.00088600  1
  Fe  Fe4  1  0.99917900  0.66423300  0.00088600  1
  Fe  Fe5  1  0.33576700  0.33494600  0.00088600  1
  O  O0  1  0.33333300  0.66666700  0.52241000  1
  O  O1  1  0.00000000  0.00000000  0.51909400  1
  O  O2  1  0.00000000  0.00000000  0.02351400  1
  O  O3  1  0.33333300  0.66666700  0.01922200  1
  O  O4  1  0.66715600  0.63244400  0.66702700  1
  O  O5  1  0.36755600  0.03471200  0.66702700  1
  O  O6  1  0.96528800  0.33284400  0.66702700  1
  O  O7  1  0.65644500  0.02365600  0.16935100  1
  O  O8  1  0.97634400  0.63278900  0.16935100  1
  O  O9  1  0.36721100  0.34355500  0.16935100  1
  O  O10  1  0.66666700  0.33333300  0.97456600  1
  O  O11  1  0.66666700  0.33333300  0.47037400  1
  O  O12  1  0.66724300  0.98175200  0.83425000  1
  O  O13  1  0.01824800  0.68549000  0.83425000  1
  O  O14  1  0.31451000  0.33275700  0.83425000  1
  O  O15  1  0.65971000  0.68539100  0.33246600  1
  O  O16  1  0.31460900  0.97431900  0.33246600  1
  O  O17  1  0.02568100  0.34029000  0.33246600  1
loop_
_geom_bond_atom_site_label_1
_geom_bond_atom_site_label_2
_geom_bond_distance
_geom_bond_site_symmetry_2
Lu0 O5 2.233846 1_565
Lu0 O6 2.233848 1_455
Lu0 O4 2.233851 1_555
Lu0 O13 2.265626 1_555
Lu0 O12 2.265632 1_555
Lu0 O14 2.265636 1_555
Lu0 O0 2.463958 1_555
Lu1 O4 2.229671 1_445
Lu1 O5 2.229671 1_555
Lu1 O6 2.229671 1_455
Lu1 O12 2.261570 1_445
Lu1 O14 2.261572 1_555
Lu1 O13 2.261575 1_545
Lu1 O1 2.501866 1_555
Lu2 O9 2.246840 1_555
Lu2 O8 2.246841 1_445
Lu2 O7 2.246841 1_455
Lu2 O15 2.270147 1_445
Lu2 O17 2.270148 1_555
Lu2 O16 2.270148 1_545
Lu2 O2 2.454045 1_555
Fe0 O15 1.950432 1_555
Fe0 O4 1.975405 1_555
Fe0 O11 2.001273 1_555
Fe0 O0 2.002103 1_555
Fe0 O1 2.008046 1_665
Fe1 O16 1.950432 1_545
Fe1 O5 1.975405 1_555
Fe1 O11 2.001270 1_555
Fe1 O0 2.002097 1_545
Fe1 O1 2.008046 1_555
Fe2 O17 1.950432 1_655
Fe2 O6 1.975405 1_555
Fe2 O11 2.001267 1_555
Fe2 O0 2.002100 1_655
Fe2 O1 2.008046 1_655
Fe3 O12 1.951568 1_544
Fe3 O7 1.976332 1_555
Fe3 O3 1.992735 1_545
Fe3 O10 1.997656 1_554
Fe3 O2 2.012988 1_655
Fe4 O13 1.951568 1_654
Fe4 O8 1.976332 1_555
Fe4 O3 1.992732 1_655
Fe4 O10 1.997658 1_554
Fe4 O2 2.012988 1_665
Fe5 O14 1.951568 1_554
Fe5 O9 1.976332 1_555
Fe5 O3 1.992738 1_555
Fe5 O10 1.997662 1_554
Fe5 O2 2.012987 1_555
O3 Sc0 2.511170 1_555
O4 Sc1 2.169746 1_555
O5 Sc1 2.169744 1_555
O6 Sc1 2.169742 1_555
O7 Sc0 2.167217 1_545
O7 Sc2 2.180562 1_555
O8 Sc0 2.167215 1_655
O8 Sc2 2.180564 1_555
O9 Sc0 2.167221 1_555
O9 Sc2 2.180567 1_555
O10 Sc1 2.351870 1_555
O11 Sc2 2.307276 1_555
O12 Sc1 2.211436 1_565
O13 Sc1 2.211436 1_455
O14 Sc1 2.211436 1_555
O15 Sc0 2.211607 1_555
O15 Sc2 2.227207 1_555
O16 Sc0 2.211602 1_555
O16 Sc2 2.227204 1_565
O17 Sc0 2.211605 1_555
O17 Sc2 2.227201 1_455
