# generated using pymatgen
data_Sr6Ir2RuO12
_symmetry_space_group_name_H-M   'P 1'
_cell_length_a   8.80764092
_cell_length_b   8.80764092
_cell_length_c   6.97776015
_cell_angle_alpha   67.74983294
_cell_angle_beta   67.74983294
_cell_angle_gamma   36.88013396
_symmetry_Int_Tables_number   1
_chemical_formula_structural   Sr6Ir2RuO12
_chemical_formula_sum   'Sr6 Ir2 Ru1 O12'
_cell_volume   297.85578403
_cell_formula_units_Z   1
loop_
 _symmetry_equiv_pos_site_id
 _symmetry_equiv_pos_as_xyz
  1  'x, y, z'
loop_
 _atom_site_type_symbol
 _atom_site_label
 _atom_site_symmetry_multiplicity
 _atom_site_fract_x
 _atom_site_fract_y
 _atom_site_fract_z
 _atom_site_occupancy
  Sr  Sr0  1  0.88206800  0.88206800  0.70651500  1
  Sr  Sr1  1  0.21575600  0.21575600  0.70649000  1
  Sr  Sr2  1  0.54912600  0.54912600  0.70539200  1
  Sr  Sr3  1  0.45087400  0.45087400  0.29460800  1
  Sr  Sr4  1  0.78424400  0.78424400  0.29351000  1
  Sr  Sr5  1  0.11793200  0.11793200  0.29348500  1
  Ir  Ir0  1  0.66556200  0.66556200  0.00000500  1
  Ir  Ir1  1  0.33443800  0.33443800  0.99999500  1
  Ru  Ru0  1  0.00000000  0.00000000  0.00000000  1
  O  O0  1  0.94577200  0.94577200  0.32530300  1
  O  O1  1  0.27921000  0.27921000  0.32580400  1
  O  O2  1  0.61217700  0.61217700  0.32591100  1
  O  O3  1  0.38782300  0.38782300  0.67408900  1
  O  O4  1  0.72079000  0.72079000  0.67419600  1
  O  O5  1  0.05422800  0.05422800  0.67469700  1
  O  O6  1  0.50000000  0.00000000  0.00000000  1
  O  O7  1  0.83424400  0.33104800  0.99992800  1
  O  O8  1  0.16575600  0.66895200  0.00007200  1
  O  O9  1  0.00000000  0.50000000  0.00000000  1
  O  O10  1  0.33104800  0.83424400  0.99992800  1
  O  O11  1  0.66895200  0.16575600  0.00007200  1
loop_
_geom_bond_atom_site_label_1
_geom_bond_atom_site_label_2
_geom_bond_distance
_geom_bond_site_symmetry_2
Ir0 O7 1.971232 1_554
Ir0 O10 1.971232 1_554
Ir0 O9 1.982767 1_655
Ir0 O6 1.982767 1_565
Ir0 O4 2.084525 1_554
Ir0 O2 2.085147 1_555
Ir1 O11 1.971232 1_556
Ir1 O8 1.971232 1_556
Ir1 O9 1.982767 1_556
Ir1 O6 1.982767 1_556
Ir1 O1 2.084525 1_556
Ir1 O3 2.085147 1_555
O0 Ru0 2.081231 1_665
O0 Sr0 2.438928 1_555
O0 Sr3 2.792880 1_565
O0 Sr3 2.792880 1_655
O0 Sr4 2.795225 1_555
O0 Sr5 2.795739 1_665
O1 Sr1 2.435561 1_555
O1 Sr3 2.788913 1_555
O1 Sr5 2.792767 1_555
O1 Sr4 2.793624 1_455
O1 Sr4 2.793624 1_545
O2 Sr2 2.427854 1_555
O2 Sr3 2.789887 1_555
O2 Sr4 2.792844 1_555
O2 Sr5 2.793687 1_565
O2 Sr5 2.793687 1_655
O3 Sr3 2.427854 1_555
O3 Sr2 2.789887 1_555
O3 Sr1 2.792844 1_555
O3 Sr0 2.793687 1_545
O3 Sr0 2.793687 1_455
O4 Sr4 2.435561 1_555
O4 Sr2 2.788913 1_555
O4 Sr0 2.792767 1_555
O4 Sr1 2.793624 1_655
O4 Sr1 2.793624 1_565
O5 Ru0 2.081231 1_556
O5 Sr5 2.438928 1_555
O5 Sr2 2.792880 1_455
O5 Sr2 2.792880 1_545
O5 Sr1 2.795225 1_555
O5 Sr0 2.795739 1_445
O6 Sr0 2.719729 1_544
O6 Sr5 2.719729 1_555
O6 Sr4 2.719913 1_545
O6 Sr1 2.719913 1_554
O7 Ru0 1.955125 1_656
O7 Sr1 2.723993 1_655
O7 Sr2 2.724318 1_555
O7 Sr5 2.724592 1_656
O7 Sr3 2.725372 1_556
O8 Ru0 1.955125 1_565
O8 Sr4 2.723993 1_455
O8 Sr3 2.724318 1_555
O8 Sr0 2.724592 1_454
O8 Sr2 2.725372 1_554
O9 Sr0 2.719729 1_454
O9 Sr5 2.719729 1_555
O9 Sr4 2.719913 1_455
O9 Sr1 2.719913 1_554
O10 Ru0 1.955125 1_566
O10 Sr1 2.723993 1_565
O10 Sr2 2.724318 1_555
O10 Sr5 2.724592 1_566
O10 Sr3 2.725372 1_556
O11 Ru0 1.955125 1_655
O11 Sr4 2.723993 1_545
O11 Sr3 2.724318 1_555
O11 Sr0 2.724592 1_544
O11 Sr2 2.725372 1_554
