# generated using pymatgen
data_Sr2SO
_symmetry_space_group_name_H-M   'P 1'
_cell_length_a   4.04323700
_cell_length_b   4.04323700
_cell_length_c   5.71800000
_cell_angle_alpha   90.00000000
_cell_angle_beta   90.00000000
_cell_angle_gamma   90.00000000
_symmetry_Int_Tables_number   1
_chemical_formula_structural   Sr2SO
_chemical_formula_sum   'Sr2 S1 O1'
_cell_volume   93.47652278
_cell_formula_units_Z   1
loop_
 _symmetry_equiv_pos_site_id
 _symmetry_equiv_pos_as_xyz
  1  'x, y, z'
loop_
 _atom_site_type_symbol
 _atom_site_label
 _atom_site_symmetry_multiplicity
 _atom_site_fract_x
 _atom_site_fract_y
 _atom_site_fract_z
 _atom_site_occupancy
  Sr  Sr0  1  0.00000000  0.00000000  0.00000000  1
  Sr  Sr1  1  0.50000000  0.50000000  0.50000000  1
  S  S0  1  0.00000000  0.00000000  0.50000000  1
  O  O0  1  0.50000000  0.50000000  0.00000000  1
loop_
_geom_bond_atom_site_label_1
_geom_bond_atom_site_label_2
_geom_bond_distance
_geom_bond_site_symmetry_2
S0 Sr0 2.859000 1_555
S0 Sr0 2.859000 1_556
S0 Sr1 2.859000 1_545
S0 Sr1 2.859000 1_455
S0 Sr1 2.859000 1_555
S0 Sr1 2.859000 1_445
O0 Sr1 2.859000 1_554
O0 Sr1 2.859000 1_555
O0 Sr0 2.859000 1_555
O0 Sr0 2.859000 1_665
O0 Sr0 2.859000 1_565
O0 Sr0 2.859000 1_655
