# generated using pymatgen
data_Tm5(GeSb)2
_symmetry_space_group_name_H-M   'P 1'
_cell_length_a   8.38639946
_cell_length_b   8.38639946
_cell_length_c   7.82678529
_cell_angle_alpha   90.00000000
_cell_angle_beta   90.00000000
_cell_angle_gamma   124.53270802
_symmetry_Int_Tables_number   1
_chemical_formula_structural   Tm5(GeSb)2
_chemical_formula_sum   'Tm10 Ge4 Sb4'
_cell_volume   453.47957182
_cell_formula_units_Z   2
loop_
 _symmetry_equiv_pos_site_id
 _symmetry_equiv_pos_as_xyz
  1  'x, y, z'
loop_
 _atom_site_type_symbol
 _atom_site_label
 _atom_site_symmetry_multiplicity
 _atom_site_fract_x
 _atom_site_fract_y
 _atom_site_fract_z
 _atom_site_occupancy
  Tm  Tm0  1  0.03484208  0.28568286  0.33971086  1
  Tm  Tm1  1  0.96515792  0.71431714  0.66028914  1
  Tm  Tm2  1  0.46515792  0.21431714  0.83971086  1
  Tm  Tm3  1  0.78568286  0.53484208  0.16028914  1
  Tm  Tm4  1  0.53484208  0.78568286  0.16028914  1
  Tm  Tm5  1  0.21431714  0.46515792  0.83971086  1
  Tm  Tm6  1  0.71431714  0.96515792  0.66028914  1
  Tm  Tm7  1  0.28568286  0.03484208  0.33971086  1
  Tm  Tm8  1  -0.00000000  0.00000000  0.00000000  1
  Tm  Tm9  1  0.50000000  0.50000000  0.50000000  1
  Ge  Ge0  1  0.35616969  0.35616969  0.14231014  1
  Ge  Ge1  1  0.64383031  0.64383031  0.85768986  1
  Ge  Ge2  1  0.14383031  0.14383031  0.64231014  1
  Ge  Ge3  1  0.85616969  0.85616969  0.35768986  1
  Sb  Sb0  1  0.79565478  0.20434522  0.00000000  1
  Sb  Sb1  1  0.20434522  0.79565478  -0.00000000  1
  Sb  Sb2  1  0.70434522  0.29565478  0.50000000  1
  Sb  Sb3  1  0.29565478  0.70434522  0.50000000  1
loop_
_geom_bond_atom_site_label_1
_geom_bond_atom_site_label_2
_geom_bond_distance
_geom_bond_site_symmetry_2
Ge0 Tm7 2.862222 1_555
Ge0 Tm0 2.862222 1_555
Ge0 Tm8 2.994883 1_555
Ge0 Tm5 3.015404 1_554
Ge0 Tm2 3.015404 1_554
Ge0 Tm9 3.016273 1_555
Ge0 Tm3 3.020039 1_555
Ge0 Tm4 3.020039 1_555
Ge1 Tm6 2.862222 1_555
Ge1 Tm1 2.862222 1_555
Ge1 Tm8 2.994883 1_666
Ge1 Tm4 3.015404 1_556
Ge1 Tm3 3.015404 1_556
Ge1 Tm9 3.016273 1_555
Ge1 Tm5 3.020039 1_555
Ge1 Tm2 3.020039 1_555
Ge2 Tm5 2.862222 1_555
Ge2 Tm2 2.862222 1_555
Ge2 Tm9 2.994883 1_555
Ge2 Tm0 3.015404 1_555
Ge2 Tm7 3.015404 1_555
Ge2 Tm8 3.016273 1_556
Ge2 Tm6 3.020039 1_445
Ge2 Tm1 3.020039 1_445
Ge3 Tm3 2.862222 1_555
Ge3 Tm4 2.862222 1_555
Ge3 Tm9 2.994883 1_555
Ge3 Tm6 3.015404 1_555
Ge3 Tm1 3.015404 1_555
Ge3 Tm8 3.016273 1_665
Ge3 Tm0 3.020039 1_665
Ge3 Tm7 3.020039 1_665
Sb0 Tm8 3.033699 1_655
Sb0 Tm3 3.086403 1_555
Sb0 Tm2 3.086403 1_554
Sb0 Tm5 3.158927 1_654
Sb0 Tm4 3.158927 1_545
Sb0 Tm6 3.163409 1_544
Sb0 Tm0 3.163409 1_655
Sb1 Tm8 3.033699 1_565
Sb1 Tm5 3.086403 1_554
Sb1 Tm4 3.086403 1_555
Sb1 Tm2 3.158927 1_564
Sb1 Tm3 3.158927 1_455
Sb1 Tm1 3.163409 1_454
Sb1 Tm7 3.163409 1_565
Sb2 Tm9 3.033699 1_555
Sb2 Tm0 3.086403 1_655
Sb2 Tm6 3.086403 1_545
Sb2 Tm1 3.158927 1_555
Sb2 Tm7 3.158927 1_555
Sb2 Tm2 3.163409 1_555
Sb2 Tm3 3.163409 1_555
Sb3 Tm9 3.033699 1_555
Sb3 Tm7 3.086403 1_565
Sb3 Tm1 3.086403 1_455
Sb3 Tm0 3.158927 1_555
Sb3 Tm6 3.158927 1_555
Sb3 Tm5 3.163409 1_555
Sb3 Tm4 3.163409 1_555
