# generated using pymatgen
data_SrCa2(TeO3)3
_symmetry_space_group_name_H-M   'P 1'
_cell_length_a   5.79288900
_cell_length_b   8.79071000
_cell_length_c   11.53671771
_cell_angle_alpha   70.28693738
_cell_angle_beta   90.00000000
_cell_angle_gamma   90.00000000
_symmetry_Int_Tables_number   1
_chemical_formula_structural   SrCa2(TeO3)3
_chemical_formula_sum   'Sr2 Ca4 Te6 O18'
_cell_volume   553.06057256
_cell_formula_units_Z   2
loop_
 _symmetry_equiv_pos_site_id
 _symmetry_equiv_pos_as_xyz
  1  'x, y, z'
loop_
 _atom_site_type_symbol
 _atom_site_label
 _atom_site_symmetry_multiplicity
 _atom_site_fract_x
 _atom_site_fract_y
 _atom_site_fract_z
 _atom_site_occupancy
  Sr  Sr0  1  0.50062500  0.99844300  0.13733200  1
  Sr  Sr1  1  0.00062500  0.00155700  0.86266800  1
  Ca  Ca0  1  0.44784800  0.98040800  0.61605600  1
  Ca  Ca1  1  0.94784800  0.01959200  0.38394400  1
  Ca  Ca2  1  0.99150200  0.30273000  0.05103000  1
  Ca  Ca3  1  0.49150200  0.69727000  0.94897000  1
  Te  Te0  1  0.99841000  0.74424500  0.17060600  1
  Te  Te1  1  0.49841000  0.25575500  0.82939400  1
  Te  Te2  1  0.42181300  0.69400600  0.47680600  1
  Te  Te3  1  0.92181300  0.30599400  0.52319400  1
  Te  Te4  1  0.43750400  0.33349700  0.24645500  1
  Te  Te5  1  0.93750400  0.66650300  0.75354500  1
  O  O0  1  0.75636300  0.78979500  0.05267400  1
  O  O1  1  0.25636300  0.21020500  0.94732600  1
  O  O2  1  0.18456300  0.81596700  0.51613900  1
  O  O3  1  0.68456300  0.18403300  0.48386100  1
  O  O4  1  0.20885000  0.76022100  0.79348100  1
  O  O5  1  0.70885000  0.23977900  0.20651900  1
  O  O6  1  0.38363900  0.73805700  0.30693700  1
  O  O7  1  0.88363900  0.26194300  0.69306300  1
  O  O8  1  0.92595300  0.92702300  0.21453300  1
  O  O9  1  0.42595300  0.07297700  0.78546700  1
  O  O10  1  0.33037700  0.46728100  0.08943100  1
  O  O11  1  0.83037700  0.53271900  0.91056900  1
  O  O12  1  0.23982800  0.16244500  0.24533500  1
  O  O13  1  0.73982800  0.83755500  0.75466500  1
  O  O14  1  0.23032800  0.83354800  0.05106600  1
  O  O15  1  0.73032800  0.16645200  0.94893400  1
  O  O16  1  0.65444800  0.83874300  0.48684200  1
  O  O17  1  0.15444800  0.16125700  0.51315800  1
loop_
_geom_bond_atom_site_label_1
_geom_bond_atom_site_label_2
_geom_bond_distance
_geom_bond_site_symmetry_2
Ca0 O17 2.356318 1_565
Ca0 O3 2.359819 1_565
Ca0 O9 2.360311 1_565
Ca0 O13 2.374917 1_555
Ca0 O16 2.541221 1_555
Ca0 O2 2.620816 1_555
Ca0 O4 2.679614 1_555
Ca1 O16 2.356318 1_545
Ca1 O2 2.359819 1_645
Ca1 O8 2.360311 1_545
Ca1 O12 2.374917 1_655
Ca1 O17 2.541221 1_655
Ca1 O3 2.620816 1_555
Ca1 O5 2.679614 1_555
Ca2 O1 2.259098 1_654
Ca2 O11 2.318284 1_554
Ca2 O5 2.352738 1_555
Ca2 O15 2.462405 1_554
Ca2 O10 2.564105 1_655
Ca2 O12 2.598112 1_655
Ca3 O0 2.259098 1_556
Ca3 O10 2.318284 1_556
Ca3 O4 2.352738 1_555
Ca3 O14 2.462405 1_556
Ca3 O11 2.564105 1_555
Ca3 O13 2.598112 1_555
O0 Te0 1.899982 1_555
O0 Sr1 2.742212 1_664
O0 Sr0 2.778720 1_555
O1 Te1 1.899982 1_555
O1 Sr0 2.742212 1_546
O1 Sr1 2.778720 1_555
O2 Te2 1.890089 1_555
O3 Te3 1.890089 1_555
O4 Te5 1.902068 1_455
O4 Sr1 2.781240 1_565
O5 Te4 1.902068 1_555
O5 Sr0 2.781240 1_545
O6 Te2 1.878149 1_555
O6 Sr0 2.550647 1_555
O7 Te3 1.878149 1_555
O7 Sr1 2.550647 1_655
O8 Te0 1.887843 1_555
O8 Sr0 2.623144 1_555
O9 Te1 1.887843 1_555
O9 Sr1 2.623144 1_555
O10 Te4 1.900696 1_555
O11 Te5 1.900696 1_555
O12 Te4 1.893563 1_555
O12 Sr0 2.669321 1_545
O13 Te5 1.893563 1_555
O13 Sr1 2.669321 1_665
O14 Te0 1.895455 1_455
O14 Sr1 2.551549 1_564
O14 Sr0 2.552765 1_555
O15 Te1 1.895455 1_555
O15 Sr0 2.551549 1_546
O15 Sr1 2.552765 1_655
O16 Te2 1.883545 1_555
O17 Te3 1.883545 1_455
