# generated using pymatgen
data_Na3PrV2O8
_symmetry_space_group_name_H-M   'P 1'
_cell_length_a   15.10762584
_cell_length_b   15.10762584
_cell_length_c   14.43432973
_cell_angle_alpha   88.62782230
_cell_angle_beta   88.62782230
_cell_angle_gamma   21.65814178
_symmetry_Int_Tables_number   1
_chemical_formula_structural   Na3PrV2O8
_chemical_formula_sum   'Na18 Pr6 V12 O48'
_cell_volume   1215.53139936
_cell_formula_units_Z   6
loop_
 _symmetry_equiv_pos_site_id
 _symmetry_equiv_pos_as_xyz
  1  'x, y, z'
loop_
 _atom_site_type_symbol
 _atom_site_label
 _atom_site_symmetry_multiplicity
 _atom_site_fract_x
 _atom_site_fract_y
 _atom_site_fract_z
 _atom_site_occupancy
  Na  Na0  1  0.29262200  0.28676500  0.41714600  1
  Na  Na1  1  0.28676500  0.29262200  0.91714600  1
  Na  Na2  1  0.17952400  0.14476900  0.32743600  1
  Na  Na3  1  0.14476900  0.17952400  0.82743600  1
  Na  Na4  1  0.33422700  0.44503100  0.07509300  1
  Na  Na5  1  0.44503100  0.33422700  0.57509300  1
  Na  Na6  1  0.54345800  0.44983700  0.23530600  1
  Na  Na7  1  0.44983700  0.54345800  0.73530600  1
  Na  Na8  1  0.05465900  0.06698800  0.00839500  1
  Na  Na9  1  0.06698800  0.05465900  0.50839500  1
  Na  Na10  1  0.60793900  0.58815700  0.39072800  1
  Na  Na11  1  0.58815700  0.60793900  0.89072800  1
  Na  Na12  1  0.93318400  0.94972500  0.15412100  1
  Na  Na13  1  0.94972500  0.93318400  0.65412100  1
  Na  Na14  1  0.71637300  0.72761100  0.47477700  1
  Na  Na15  1  0.72761100  0.71637300  0.97477700  1
  Na  Na16  1  0.80596800  0.83572400  0.29553100  1
  Na  Na17  1  0.83572400  0.80596800  0.79553100  1
  Pr  Pr0  1  0.58032300  0.66018400  0.63606400  1
  Pr  Pr1  1  0.66018400  0.58032300  0.13606400  1
  Pr  Pr2  1  0.04320500  0.84163100  0.40092800  1
  Pr  Pr3  1  0.84163100  0.04320500  0.90092800  1
  Pr  Pr4  1  0.22824400  0.30479100  0.16859400  1
  Pr  Pr5  1  0.30479100  0.22824400  0.66859400  1
  V  V0  1  0.69949100  0.72934000  0.25418900  1
  V  V1  1  0.72934000  0.69949100  0.75418900  1
  V  V2  1  0.08527500  0.02383600  0.25808000  1
  V  V3  1  0.02383600  0.08527500  0.75808000  1
  V  V4  1  0.18092200  0.16551600  0.04718400  1
  V  V5  1  0.16551600  0.18092200  0.54718400  1
  V  V6  1  0.80057300  0.86381300  0.04812900  1
  V  V7  1  0.86381300  0.80057300  0.54812900  1
  V  V8  1  0.42972700  0.34068700  0.30746000  1
  V  V9  1  0.34068700  0.42972700  0.80746000  1
  V  V10  1  0.45159300  0.54931200  0.00249400  1
  V  V11  1  0.54931200  0.45159300  0.50249400  1
  O  O0  1  0.93485100  0.20756500  0.16105900  1
  O  O1  1  0.20756500  0.93485100  0.66105900  1
  O  O2  1  0.41948600  0.87663900  0.01525000  1
  O  O3  1  0.87663900  0.41948600  0.51525000  1
  O  O4  1  0.41666000  0.57716400  0.39374600  1
  O  O5  1  0.57716400  0.41666000  0.89374600  1
  O  O6  1  0.46026200  0.01620800  0.29153400  1
  O  O7  1  0.01620800  0.46026200  0.79153400  1
  O  O8  1  0.32122400  0.45884700  0.41832100  1
  O  O9  1  0.45884700  0.32122400  0.91832100  1
  O  O10  1  0.01528000  0.15116200  0.35304400  1
  O  O11  1  0.15116200  0.01528000  0.85304400  1
  O  O12  1  0.13487100  0.20795300  0.16551300  1
  O  O13  1  0.20795300  0.13487100  0.66551300  1
  O  O14  1  0.58608900  0.34572200  0.07415100  1
  O  O15  1  0.34572200  0.58608900  0.57415100  1
  O  O16  1  0.86990600  0.90977400  0.52762800  1
  O  O17  1  0.90977400  0.86990600  0.02762800  1
  O  O18  1  0.35400700  0.30361700  0.27695600  1
  O  O19  1  0.30361700  0.35400700  0.77695600  1
  O  O20  1  0.67330900  0.96032300  0.64340500  1
  O  O21  1  0.96032300  0.67330900  0.14340600  1
  O  O22  1  0.74484300  0.05632900  0.30110800  1
  O  O23  1  0.05632900  0.74484300  0.80110800  1
  O  O24  1  0.49272800  0.15002900  0.07513100  1
  O  O25  1  0.15002900  0.49272800  0.57513100  1
  O  O26  1  0.72872600  0.70500500  0.13541400  1
  O  O27  1  0.70500500  0.72872600  0.63541400  1
  O  O28  1  0.96010100  0.52841600  0.30313000  1
  O  O29  1  0.52841600  0.96010100  0.80313000  1
  O  O30  1  0.23271800  0.22790500  0.01630100  1
  O  O31  1  0.22790500  0.23271800  0.51630100  1
  O  O32  1  0.52079000  0.59314700  0.03387700  1
  O  O33  1  0.59314700  0.52079000  0.53387700  1
  O  O34  1  0.39628900  0.73964000  0.23775300  1
  O  O35  1  0.73964000  0.39628900  0.73775300  1
  O  O36  1  0.74785800  0.85494200  0.45432300  1
  O  O37  1  0.85494200  0.74785800  0.95432300  1
  O  O38  1  0.36945100  0.91995000  0.49490200  1
  O  O39  1  0.91995000  0.36945100  0.99490200  1
  O  O40  1  0.98149400  0.01147500  0.27425900  1
  O  O41  1  0.01147500  0.98149400  0.77425900  1
  O  O42  1  0.28479200  0.55578200  0.24076100  1
  O  O43  1  0.55578200  0.28479200  0.74076100  1
  O  O44  1  0.83280500  0.13625500  0.50155600  1
  O  O45  1  0.13625500  0.83280500  0.00155600  1
  O  O46  1  0.66190300  0.65282500  0.78602000  1
  O  O47  1  0.65282500  0.66190300  0.28602000  1
loop_
_geom_bond_atom_site_label_1
_geom_bond_atom_site_label_2
_geom_bond_distance
_geom_bond_site_symmetry_2
Na0 O31 2.243219 1_555
Na0 O18 2.311694 1_555
Na0 O36 2.599478 1_545
Na0 O25 2.677281 1_555
Na0 O28 2.700161 1_455
Na0 O6 2.702149 1_555
Na1 O30 2.243219 1_556
Na1 O19 2.311694 1_555
Na1 O37 2.599478 1_455
Na1 O24 2.677281 1_556
Na1 O29 2.700161 1_545
Na1 O7 2.702149 1_555
Na2 O12 2.366579 1_555
Na2 O10 2.411494 1_555
Na2 O6 2.580729 1_555
Na2 O38 2.726909 1_545
Na2 O47 2.783425 1_545
Na3 O13 2.366579 1_555
Na3 O11 2.411494 1_555
Na3 O7 2.580729 1_555
Na3 O39 2.726909 1_455
Na3 O46 2.783425 1_455
Na4 O9 2.369968 1_554
Na4 O24 2.399893 1_555
Na4 O14 2.473144 1_555
Na4 O17 2.506177 1_455
Na4 O42 2.618966 1_555
Na4 O21 2.908493 1_455
Na5 O8 2.369968 1_555
Na5 O25 2.399893 1_555
Na5 O15 2.473144 1_555
Na5 O16 2.506177 1_545
Na5 O43 2.618966 1_555
Na5 O20 2.908489 1_545
Na6 O4 2.398225 1_555
Na6 O34 2.454135 1_555
Na6 O42 2.490794 1_555
Na6 O40 2.550312 1_555
Na6 O14 2.553503 1_555
Na7 O5 2.398225 1_555
Na7 O35 2.454135 1_555
Na7 O43 2.490794 1_555
Na7 O41 2.550312 1_555
Na7 O15 2.553503 1_555
Na8 O0 2.351637 1_455
Na8 O11 2.361020 1_554
Na8 O45 2.439367 1_545
Na8 O32 2.695314 1_545
Na8 O39 2.783944 1_454
Na9 O1 2.351637 1_545
Na9 O10 2.361020 1_555
Na9 O44 2.439367 1_455
Na9 O33 2.695314 1_455
Na9 O38 2.783944 1_545
Na10 O47 2.293479 1_555
Na10 O33 2.378052 1_555
Na10 O10 2.498949 1_655
Na10 O34 2.613669 1_555
Na10 O38 2.626714 1_555
Na10 O3 2.665520 1_555
Na11 O46 2.293479 1_555
Na11 O32 2.378052 1_556
Na11 O11 2.498949 1_565
Na11 O35 2.613669 1_555
Na11 O39 2.626714 1_555
Na11 O2 2.665520 1_556
Na12 O40 2.411187 1_565
Na12 O17 2.417031 1_555
Na12 O14 2.503375 1_565
Na12 O42 2.529531 1_655
Na12 O22 2.558878 1_565
Na12 O45 2.677956 1_655
Na13 O41 2.411187 1_655
Na13 O16 2.417031 1_555
Na13 O15 2.503375 1_655
Na13 O43 2.529531 1_565
Na13 O23 2.558878 1_655
Na13 O44 2.677956 1_565
Na14 O27 2.320240 1_555
Na14 O36 2.383451 1_555
Na14 O3 2.619170 1_555
Na14 O38 2.766995 1_555
Na14 O28 2.841818 1_555
Na14 O31 2.894967 1_565
Na14 O31 2.930510 1_655
Na15 O26 2.320240 1_556
Na15 O37 2.383451 1_555
Na15 O2 2.619170 1_556
Na15 O39 2.766995 1_555
Na15 O29 2.841818 1_555
Na15 O30 2.894967 1_656
Na15 O30 2.930510 1_566
Na16 O36 2.360136 1_555
Na16 O21 2.378481 1_555
Na16 O22 2.501072 1_565
Na16 O28 2.623248 1_555
Na16 O18 2.634698 1_565
Na16 O6 2.872551 1_565
Na17 O37 2.360136 1_555
Na17 O20 2.378494 1_555
Na17 O23 2.501072 1_655
Na17 O29 2.623248 1_555
Na17 O19 2.634698 1_655
Na17 O7 2.872551 1_655
O0 V2 1.752508 1_655
O0 Pr1 2.366460 1_555
O1 V3 1.752508 1_565
O1 Pr0 2.366460 1_555
O2 V4 1.740093 1_565
O2 Pr1 2.444464 1_555
O3 V5 1.740093 1_655
O3 Pr0 2.444464 1_555
O4 V11 1.737890 1_555
O4 Pr2 2.428290 1_555
O5 V10 1.737890 1_556
O5 Pr3 2.428290 1_555
O6 V0 1.743201 1_545
O6 Pr4 2.442226 1_555
O7 V1 1.743201 1_455
O7 Pr5 2.442226 1_555
O8 V8 1.733864 1_555
O8 Pr2 2.445132 1_555
O9 V9 1.733864 1_555
O9 Pr3 2.445132 1_555
O10 V2 1.724295 1_555
O11 V3 1.724295 1_555
O12 V4 1.725908 1_555
O12 Pr4 2.823914 1_555
O12 Pr1 2.880603 1_455
O13 V5 1.725908 1_555
O13 Pr5 2.823914 1_555
O13 Pr0 2.880603 1_545
O14 V10 1.729205 1_555
O14 Pr3 3.054785 1_554
O15 V11 1.729205 1_555
O15 Pr2 3.054785 1_555
O16 V7 1.753674 1_555
O16 Pr2 2.471814 1_655
O17 V6 1.753674 1_555
O17 Pr3 2.471814 1_564
O18 V8 1.744398 1_555
O18 Pr4 2.476916 1_555
O19 V9 1.744398 1_555
O19 Pr5 2.476916 1_555
O20 V7 1.748518 1_555
O20 Pr5 2.365862 1_565
O21 V6 1.748529 1_555
O21 Pr4 2.365860 1_655
O22 V8 1.763510 1_555
O22 Pr2 2.413542 1_645
O23 V9 1.763510 1_555
O23 Pr3 2.413542 1_465
O24 V6 1.758425 1_545
O24 Pr4 2.404114 1_555
O25 V7 1.758425 1_455
O25 Pr5 2.404114 1_555
O26 V0 1.720937 1_555
O26 Pr1 2.871383 1_555
O26 Pr4 2.992832 1_655
O27 V1 1.720937 1_555
O27 Pr0 2.871383 1_555
O27 Pr5 2.992832 1_565
O28 V0 1.740720 1_555
O28 Pr4 2.468464 1_655
O29 V1 1.740720 1_555
O29 Pr5 2.468464 1_565
O30 V4 1.741721 1_555
O30 Pr4 2.480994 1_555
O31 V5 1.741721 1_555
O31 Pr5 2.480994 1_555
O32 V10 1.749443 1_555
O32 Pr1 2.454530 1_555
O33 V11 1.749443 1_555
O33 Pr0 2.454530 1_555
O34 V2 1.758694 1_565
O34 Pr1 2.427852 1_555
O35 V3 1.758694 1_655
O35 Pr0 2.427852 1_555
O36 V7 1.721212 1_555
O37 V6 1.721212 1_556
O38 V5 1.748799 1_565
O38 Pr0 2.527955 1_555
O39 V4 1.748799 1_656
O39 Pr1 2.527955 1_556
O40 V2 1.752797 1_655
O40 Pr2 2.491276 1_645
O41 V3 1.752797 1_565
O41 Pr3 2.491276 1_465
O42 V8 1.733832 1_555
O42 Pr2 2.844567 1_555
O43 V9 1.733832 1_555
O43 Pr3 2.844567 1_555
O44 V11 1.764333 1_555
O44 Pr2 2.411433 1_645
O45 V10 1.764333 1_555
O45 Pr3 2.411433 1_464
O46 V1 1.744513 1_555
O46 Pr0 2.465366 1_555
O47 V0 1.744513 1_555
O47 Pr1 2.465366 1_555
