# generated using pymatgen
data_RbLaMg30O32
_symmetry_space_group_name_H-M   'P 1'
_cell_length_a   8.69458200
_cell_length_b   8.69458200
_cell_length_c   8.82284900
_cell_angle_alpha   90.00000000
_cell_angle_beta   90.00000000
_cell_angle_gamma   90.00000000
_symmetry_Int_Tables_number   1
_chemical_formula_structural   RbLaMg30O32
_chemical_formula_sum   'Rb1 La1 Mg30 O32'
_cell_volume   666.96994159
_cell_formula_units_Z   1
loop_
 _symmetry_equiv_pos_site_id
 _symmetry_equiv_pos_as_xyz
  1  'x, y, z'
loop_
 _atom_site_type_symbol
 _atom_site_label
 _atom_site_symmetry_multiplicity
 _atom_site_fract_x
 _atom_site_fract_y
 _atom_site_fract_z
 _atom_site_occupancy
  Rb  Rb0  1  0.00000000  0.00000000  0.50000000  1
  La  La0  1  0.00000000  0.00000000  0.00000000  1
  Mg  Mg0  1  0.00000000  0.50000000  0.00000000  1
  Mg  Mg1  1  0.00000000  0.50000000  0.50000000  1
  Mg  Mg2  1  0.50000000  0.00000000  0.00000000  1
  Mg  Mg3  1  0.50000000  0.00000000  0.50000000  1
  Mg  Mg4  1  0.50000000  0.50000000  0.00000000  1
  Mg  Mg5  1  0.50000000  0.50000000  0.50000000  1
  Mg  Mg6  1  0.00000000  0.26153500  0.25679400  1
  Mg  Mg7  1  0.00000000  0.26153500  0.74320500  1
  Mg  Mg8  1  0.00000000  0.73846500  0.25679400  1
  Mg  Mg9  1  0.00000000  0.73846500  0.74320500  1
  Mg  Mg10  1  0.50000000  0.25127600  0.25162800  1
  Mg  Mg11  1  0.50000000  0.25127600  0.74837200  1
  Mg  Mg12  1  0.50000000  0.74872400  0.25162800  1
  Mg  Mg13  1  0.50000000  0.74872400  0.74837200  1
  Mg  Mg14  1  0.26153500  0.00000000  0.25679400  1
  Mg  Mg15  1  0.26153500  0.00000000  0.74320500  1
  Mg  Mg16  1  0.25127600  0.50000000  0.25162800  1
  Mg  Mg17  1  0.25127600  0.50000000  0.74837200  1
  Mg  Mg18  1  0.73846500  0.00000000  0.25679400  1
  Mg  Mg19  1  0.73846500  0.00000000  0.74320500  1
  Mg  Mg20  1  0.74872400  0.50000000  0.25162800  1
  Mg  Mg21  1  0.74872400  0.50000000  0.74837200  1
  Mg  Mg22  1  0.25828700  0.25828700  0.00000000  1
  Mg  Mg23  1  0.25383900  0.25383900  0.50000000  1
  Mg  Mg24  1  0.25828700  0.74171300  0.00000000  1
  Mg  Mg25  1  0.25383900  0.74616100  0.50000000  1
  Mg  Mg26  1  0.74171300  0.25828700  0.00000000  1
  Mg  Mg27  1  0.74616100  0.25383900  0.50000000  1
  Mg  Mg28  1  0.74171300  0.74171300  0.00000000  1
  Mg  Mg29  1  0.74616100  0.74616100  0.50000000  1
  O  O0  1  0.27108600  0.00000000  0.00000000  1
  O  O1  1  0.28015500  0.00000000  0.50000000  1
  O  O2  1  0.25495000  0.50000000  0.00000000  1
  O  O3  1  0.25633300  0.50000000  0.50000000  1
  O  O4  1  0.72891400  0.00000000  0.00000000  1
  O  O5  1  0.71984500  0.00000000  0.50000000  1
  O  O6  1  0.74505000  0.50000000  0.00000000  1
  O  O7  1  0.74366700  0.50000000  0.50000000  1
  O  O8  1  0.24952600  0.24952600  0.24976000  1
  O  O9  1  0.24952600  0.24952600  0.75024000  1
  O  O10  1  0.24952600  0.75047400  0.24976000  1
  O  O11  1  0.24952600  0.75047400  0.75024000  1
  O  O12  1  0.75047400  0.24952600  0.24976000  1
  O  O13  1  0.75047400  0.24952600  0.75024000  1
  O  O14  1  0.75047400  0.75047400  0.24976000  1
  O  O15  1  0.75047400  0.75047400  0.75024000  1
  O  O16  1  0.00000000  0.00000000  0.24161200  1
  O  O17  1  0.00000000  0.00000000  0.75838800  1
  O  O18  1  0.00000000  0.50000000  0.24734400  1
  O  O19  1  0.00000000  0.50000000  0.75265600  1
  O  O20  1  0.50000000  0.00000000  0.24734400  1
  O  O21  1  0.50000000  0.00000000  0.75265600  1
  O  O22  1  0.50000000  0.50000000  0.24882000  1
  O  O23  1  0.50000000  0.50000000  0.75118000  1
  O  O24  1  0.00000000  0.27108600  0.00000000  1
  O  O25  1  0.00000000  0.28015500  0.50000000  1
  O  O26  1  0.00000000  0.72891400  0.00000000  1
  O  O27  1  0.00000000  0.71984500  0.50000000  1
  O  O28  1  0.50000000  0.25495000  0.00000000  1
  O  O29  1  0.50000000  0.25633300  0.50000000  1
  O  O30  1  0.50000000  0.74505000  0.00000000  1
  O  O31  1  0.50000000  0.74366700  0.50000000  1
loop_
_geom_bond_atom_site_label_1
_geom_bond_atom_site_label_2
_geom_bond_distance
_geom_bond_site_symmetry_2
La0 O16 2.131706 1_555
La0 O17 2.131706 1_554
La0 O0 2.356979 1_555
La0 O24 2.356979 1_555
La0 O26 2.356979 1_545
La0 O4 2.356979 1_455
Mg0 O26 1.990312 1_555
Mg0 O24 1.990312 1_555
Mg0 O18 2.182279 1_555
Mg0 O19 2.182279 1_554
Mg0 O6 2.216684 1_455
Mg0 O2 2.216684 1_555
Mg1 O27 1.911460 1_555
Mg1 O25 1.911460 1_555
Mg1 O3 2.228708 1_555
Mg1 O7 2.228708 1_455
Mg1 O18 2.229146 1_555
Mg1 O19 2.229146 1_555
Mg2 O4 1.990312 1_555
Mg2 O0 1.990312 1_555
Mg2 O20 2.182279 1_555
Mg2 O21 2.182279 1_554
Mg2 O28 2.216684 1_555
Mg2 O30 2.216684 1_545
Mg3 O5 1.911460 1_555
Mg3 O1 1.911460 1_555
Mg3 O29 2.228708 1_555
Mg3 O31 2.228708 1_545
Mg3 O21 2.229146 1_555
Mg3 O20 2.229146 1_555
Mg4 O30 2.130607 1_555
Mg4 O2 2.130607 1_555
Mg4 O28 2.130607 1_555
Mg4 O6 2.130607 1_555
Mg4 O22 2.195301 1_555
Mg4 O23 2.195301 1_554
Mg5 O31 2.118583 1_555
Mg5 O7 2.118583 1_555
Mg5 O29 2.118583 1_555
Mg5 O3 2.118583 1_555
Mg5 O22 2.216123 1_555
Mg5 O23 2.216123 1_555
Mg6 O18 2.075029 1_555
Mg6 O25 2.151868 1_555
Mg6 O8 2.172922 1_555
Mg6 O12 2.172922 1_455
Mg6 O24 2.267176 1_555
Mg6 O16 2.277879 1_555
Mg7 O19 2.075030 1_555
Mg7 O25 2.151860 1_555
Mg7 O9 2.172922 1_555
Mg7 O13 2.172922 1_455
Mg7 O24 2.267185 1_556
Mg7 O17 2.277880 1_555
Mg8 O18 2.075029 1_555
Mg8 O27 2.151868 1_555
Mg8 O10 2.172922 1_555
Mg8 O14 2.172922 1_455
Mg8 O26 2.267176 1_555
Mg8 O16 2.277879 1_565
Mg9 O19 2.075030 1_555
Mg9 O27 2.151860 1_555
Mg9 O11 2.172922 1_555
Mg9 O15 2.172922 1_455
Mg9 O26 2.267185 1_556
Mg9 O17 2.277880 1_565
Mg10 O22 2.162693 1_555
Mg10 O12 2.177882 1_555
Mg10 O8 2.177882 1_555
Mg10 O20 2.185067 1_555
Mg10 O29 2.191790 1_555
Mg10 O28 2.220306 1_555
Mg11 O23 2.162693 1_555
Mg11 O9 2.177882 1_555
Mg11 O13 2.177882 1_555
Mg11 O21 2.185067 1_555
Mg11 O29 2.191790 1_555
Mg11 O28 2.220306 1_556
Mg12 O22 2.162693 1_555
Mg12 O10 2.177882 1_555
Mg12 O14 2.177882 1_555
Mg12 O20 2.185067 1_565
Mg12 O31 2.191790 1_555
Mg12 O30 2.220306 1_555
Mg13 O23 2.162693 1_555
Mg13 O11 2.177882 1_555
Mg13 O15 2.177882 1_555
Mg13 O21 2.185067 1_565
Mg13 O31 2.191790 1_555
Mg13 O30 2.220306 1_556
Mg14 O20 2.075029 1_555
Mg14 O1 2.151868 1_555
Mg14 O8 2.172922 1_555
Mg14 O10 2.172922 1_545
Mg14 O0 2.267176 1_555
Mg14 O16 2.277879 1_555
Mg15 O21 2.075030 1_555
Mg15 O1 2.151860 1_555
Mg15 O9 2.172922 1_555
Mg15 O11 2.172922 1_545
Mg15 O0 2.267185 1_556
Mg15 O17 2.277880 1_555
Mg16 O22 2.162693 1_555
Mg16 O10 2.177882 1_555
Mg16 O8 2.177882 1_555
Mg16 O18 2.185067 1_555
Mg16 O3 2.191790 1_555
Mg16 O2 2.220306 1_555
Mg17 O23 2.162693 1_555
Mg17 O9 2.177882 1_555
Mg17 O11 2.177882 1_555
Mg17 O19 2.185067 1_555
Mg17 O3 2.191790 1_555
Mg17 O2 2.220306 1_556
Mg18 O20 2.075029 1_555
Mg18 O5 2.151868 1_555
Mg18 O14 2.172922 1_545
Mg18 O12 2.172922 1_555
Mg18 O4 2.267176 1_555
Mg18 O16 2.277879 1_655
Mg19 O21 2.075030 1_555
Mg19 O5 2.151860 1_555
Mg19 O15 2.172922 1_545
Mg19 O13 2.172922 1_555
Mg19 O4 2.267185 1_556
Mg19 O17 2.277880 1_655
Mg20 O22 2.162693 1_555
Mg20 O12 2.177882 1_555
Mg20 O14 2.177882 1_555
Mg20 O18 2.185067 1_655
Mg20 O7 2.191790 1_555
Mg20 O6 2.220306 1_555
Mg21 O23 2.162693 1_555
Mg21 O13 2.177882 1_555
Mg21 O15 2.177882 1_555
Mg21 O19 2.185067 1_655
Mg21 O7 2.191790 1_555
Mg21 O6 2.220306 1_556
Mg22 O28 2.101794 1_555
Mg22 O2 2.101794 1_555
Mg22 O9 2.206226 1_554
Mg22 O8 2.206226 1_555
Mg22 O0 2.248453 1_555
Mg22 O24 2.248453 1_555
Mg23 O3 2.140377 1_555
Mg23 O29 2.140377 1_555
Mg23 O9 2.208467 1_555
Mg23 O8 2.208467 1_555
Mg23 O1 2.218853 1_555
Mg23 O25 2.218853 1_555
Mg24 O2 2.101794 1_555
Mg24 O30 2.101794 1_555
Mg24 O11 2.206226 1_554
Mg24 O10 2.206226 1_555
Mg24 O26 2.248453 1_555
Mg24 O0 2.248453 1_565
Mg25 O3 2.140377 1_555
Mg25 O31 2.140377 1_555
Mg25 O10 2.208467 1_555
Mg25 O11 2.208467 1_555
Mg25 O27 2.218853 1_555
Mg25 O1 2.218853 1_565
Mg26 O28 2.101794 1_555
Mg26 O6 2.101794 1_555
Mg26 O13 2.206226 1_554
Mg26 O12 2.206226 1_555
Mg26 O4 2.248453 1_555
Mg26 O24 2.248453 1_655
Mg27 O29 2.140377 1_555
Mg27 O7 2.140377 1_555
Mg27 O13 2.208467 1_555
Mg27 O12 2.208467 1_555
Mg27 O25 2.218853 1_655
Mg27 O5 2.218853 1_555
Mg28 O30 2.101794 1_555
Mg28 O6 2.101794 1_555
Mg28 O15 2.206226 1_554
Mg28 O14 2.206226 1_555
Mg28 O4 2.248453 1_565
Mg28 O26 2.248453 1_655
Mg29 O7 2.140377 1_555
Mg29 O31 2.140377 1_555
Mg29 O15 2.208467 1_555
Mg29 O14 2.208467 1_555
Mg29 O5 2.218853 1_565
Mg29 O27 2.218853 1_655
O1 Rb0 2.435831 1_555
O5 Rb0 2.435831 1_655
O16 Rb0 2.279718 1_555
O17 Rb0 2.279718 1_555
O25 Rb0 2.435831 1_555
O27 Rb0 2.435831 1_565
