# generated using pymatgen
data_NdB7IO15
_symmetry_space_group_name_H-M   'P 1'
_cell_length_a   17.36878600
_cell_length_b   8.18221900
_cell_length_c   12.83102502
_cell_angle_alpha   50.77726889
_cell_angle_beta   90.00000000
_cell_angle_gamma   90.00000000
_symmetry_Int_Tables_number   1
_chemical_formula_structural   NdB7IO15
_chemical_formula_sum   'Nd4 B28 I4 O60'
_cell_volume   1412.64139665
_cell_formula_units_Z   4
loop_
 _symmetry_equiv_pos_site_id
 _symmetry_equiv_pos_as_xyz
  1  'x, y, z'
loop_
 _atom_site_type_symbol
 _atom_site_label
 _atom_site_symmetry_multiplicity
 _atom_site_fract_x
 _atom_site_fract_y
 _atom_site_fract_z
 _atom_site_occupancy
  Nd  Nd0  1  0.79326400  0.44391600  0.74949400  1
  Nd  Nd1  1  0.70673600  0.44391600  0.24949400  1
  Nd  Nd2  1  0.20673600  0.55608400  0.25050600  1
  Nd  Nd3  1  0.29326400  0.55608400  0.75050600  1
  B  B0  1  0.91625000  0.09311300  0.21509400  1
  B  B1  1  0.58375000  0.09311300  0.71509400  1
  B  B2  1  0.08375000  0.90688700  0.78490600  1
  B  B3  1  0.41625000  0.90688700  0.28490600  1
  B  B4  1  0.80543200  0.93024900  0.36624600  1
  B  B5  1  0.69456800  0.93024900  0.86624600  1
  B  B6  1  0.19456800  0.06975100  0.63375400  1
  B  B7  1  0.30543200  0.06975100  0.13375400  1
  B  B8  1  0.79780500  0.84594800  0.74951800  1
  B  B9  1  0.70219500  0.84594800  0.24951800  1
  B  B10  1  0.20219500  0.15405200  0.25048200  1
  B  B11  1  0.29780500  0.15405200  0.75048200  1
  B  B12  1  0.78844800  0.19139700  0.10963700  1
  B  B13  1  0.71155200  0.19139700  0.60963700  1
  B  B14  1  0.21155200  0.80860300  0.89036300  1
  B  B15  1  0.28844800  0.80860300  0.39036300  1
  B  B16  1  0.75096400  0.56852400  0.47667200  1
  B  B17  1  0.74903600  0.56852400  0.97667200  1
  B  B18  1  0.24903600  0.43147600  0.52332800  1
  B  B19  1  0.25096400  0.43147600  0.02332800  1
  B  B20  1  0.94402700  0.91544300  0.72759400  1
  B  B21  1  0.55597300  0.91544300  0.22759400  1
  B  B22  1  0.05597300  0.08455700  0.27240600  1
  B  B23  1  0.44402700  0.08455700  0.77240600  1
  B  B24  1  0.72763100  0.03895500  0.00794000  1
  B  B25  1  0.77236900  0.03895500  0.50794000  1
  B  B26  1  0.27236900  0.96104500  0.99206000  1
  B  B27  1  0.22763100  0.96104500  0.49206000  1
  I  I0  1  0.57502500  0.66731700  0.65814500  1
  I  I1  1  0.92497500  0.66731700  0.15814500  1
  I  I2  1  0.42497500  0.33268300  0.34185500  1
  I  I3  1  0.07502500  0.33268300  0.84185500  1
  O  O0  1  0.87056900  0.89649300  0.77327500  1
  O  O1  1  0.62943100  0.89649300  0.27327500  1
  O  O2  1  0.12943100  0.10350700  0.22672500  1
  O  O3  1  0.37056900  0.10350700  0.72672500  1
  O  O4  1  0.78382300  0.71350000  0.48418300  1
  O  O5  1  0.71617700  0.71350000  0.98418300  1
  O  O6  1  0.21617700  0.28650000  0.51581700  1
  O  O7  1  0.28382300  0.28650000  0.01581700  1
  O  O8  1  0.75750600  0.20460400  0.99732800  1
  O  O9  1  0.74249400  0.20460400  0.49732800  1
  O  O10  1  0.24249400  0.79539600  0.00267200  1
  O  O11  1  0.25750600  0.79539600  0.50267200  1
  O  O12  1  0.73663400  0.98569900  0.74171800  1
  O  O13  1  0.76336600  0.98569900  0.24171800  1
  O  O14  1  0.26336600  0.01430100  0.25828200  1
  O  O15  1  0.23663400  0.01430100  0.75828200  1
  O  O16  1  0.79362600  0.85468600  0.63021300  1
  O  O17  1  0.70637400  0.85468600  0.13021300  1
  O  O18  1  0.20637400  0.14531400  0.36978700  1
  O  O19  1  0.29362600  0.14531400  0.86978700  1
  O  O20  1  0.99462200  0.12276200  0.19241400  1
  O  O21  1  0.50537800  0.12276200  0.69241400  1
  O  O22  1  0.00537800  0.87723800  0.80758600  1
  O  O23  1  0.49462200  0.87723800  0.30758600  1
  O  O24  1  0.87013600  0.20915400  0.10302600  1
  O  O25  1  0.62986400  0.20915400  0.60302600  1
  O  O26  1  0.12986400  0.79084600  0.89697400  1
  O  O27  1  0.37013600  0.79084600  0.39697400  1
  O  O28  1  0.88636700  0.95326800  0.34231400  1
  O  O29  1  0.61363300  0.95326800  0.84231400  1
  O  O30  1  0.11363300  0.04673200  0.65768600  1
  O  O31  1  0.38636700  0.04673200  0.15768600  1
  O  O32  1  0.74784300  0.36815600  0.59919800  1
  O  O33  1  0.75215700  0.36815600  0.09919800  1
  O  O34  1  0.25215700  0.63184400  0.40080200  1
  O  O35  1  0.24784300  0.63184400  0.90080200  1
  O  O36  1  0.96702500  0.50881900  0.75822900  1
  O  O37  1  0.53297500  0.50881900  0.25822900  1
  O  O38  1  0.03297500  0.49118100  0.24177100  1
  O  O39  1  0.46702500  0.49118100  0.74177100  1
  O  O40  1  0.77727700  0.62099400  0.85939000  1
  O  O41  1  0.72272300  0.62099400  0.35939000  1
  O  O42  1  0.22272300  0.37900600  0.14061000  1
  O  O43  1  0.27727700  0.37900600  0.64061000  1
  O  O44  1  0.88508000  0.19903900  0.83692000  1
  O  O45  1  0.61492000  0.19903900  0.33692000  1
  O  O46  1  0.11492000  0.80096100  0.16308000  1
  O  O47  1  0.38508000  0.80096100  0.66308000  1
  O  O48  1  0.72412800  0.07989900  0.88667000  1
  O  O49  1  0.77587200  0.07989900  0.38667000  1
  O  O50  1  0.27587200  0.92010100  0.11333000  1
  O  O51  1  0.22412800  0.92010100  0.61333000  1
  O  O52  1  0.93519500  0.52672900  0.65908800  1
  O  O53  1  0.56480500  0.52672900  0.15908800  1
  O  O54  1  0.06480500  0.47327100  0.34091200  1
  O  O55  1  0.43519500  0.47327100  0.84091200  1
  O  O56  1  0.95343300  0.96522500  0.60526900  1
  O  O57  1  0.54656700  0.96522500  0.10526900  1
  O  O58  1  0.04656700  0.03477500  0.39473100  1
  O  O59  1  0.45343300  0.03477500  0.89473100  1
loop_
_geom_bond_atom_site_label_1
_geom_bond_atom_site_label_2
_geom_bond_distance
_geom_bond_site_symmetry_2
Nd0 O44 2.230156 1_555
Nd0 O32 2.497473 1_555
Nd0 O8 2.541128 1_555
Nd0 O40 2.597788 1_555
Nd0 O48 2.604080 1_555
Nd0 O52 2.624452 1_555
Nd0 O4 2.642850 1_555
Nd0 O16 2.670833 1_555
Nd1 O45 2.230156 1_555
Nd1 O33 2.497473 1_555
Nd1 O9 2.541128 1_555
Nd1 O41 2.597788 1_555
Nd1 O49 2.604080 1_555
Nd1 O53 2.624452 1_555
Nd1 O5 2.642850 1_554
Nd1 O17 2.670833 1_555
Nd2 O46 2.230156 1_555
Nd2 O34 2.497473 1_555
Nd2 O10 2.541128 1_555
Nd2 O42 2.597788 1_555
Nd2 O50 2.604080 1_555
Nd2 O54 2.624452 1_555
Nd2 O6 2.642850 1_555
Nd2 O18 2.670833 1_555
Nd3 O47 2.230156 1_555
Nd3 O35 2.497473 1_555
Nd3 O11 2.541128 1_555
Nd3 O43 2.597788 1_555
Nd3 O51 2.604080 1_555
Nd3 O55 2.624452 1_555
Nd3 O7 2.642850 1_556
Nd3 O19 2.670833 1_555
B0 O28 1.371536 1_545
B0 O24 1.372609 1_555
B0 O20 1.381012 1_555
B1 O29 1.371536 1_545
B1 O25 1.372609 1_555
B1 O21 1.381012 1_555
B2 O30 1.371536 1_565
B2 O26 1.372609 1_555
B2 O22 1.381012 1_555
B3 O31 1.371536 1_565
B3 O27 1.372609 1_555
B3 O23 1.381012 1_555
B4 O28 1.425741 1_555
B4 O4 1.477163 1_555
B4 O49 1.495800 1_565
B4 O13 1.541395 1_555
B5 O29 1.425741 1_555
B5 O5 1.477163 1_555
B5 O48 1.495800 1_565
B5 O12 1.541395 1_555
B6 O30 1.425741 1_555
B6 O6 1.477163 1_555
B6 O51 1.495800 1_545
B6 O15 1.541395 1_555
B7 O31 1.425741 1_555
B7 O7 1.477163 1_555
B7 O50 1.495800 1_545
B7 O14 1.541395 1_555
B8 O0 1.421492 1_555
B8 O16 1.488399 1_555
B8 O40 1.490243 1_555
B8 O12 1.517119 1_555
B9 O1 1.421492 1_555
B9 O17 1.488399 1_555
B9 O41 1.490243 1_555
B9 O13 1.517119 1_555
B10 O2 1.421492 1_555
B10 O18 1.488399 1_555
B10 O42 1.490243 1_555
B10 O14 1.517119 1_555
B11 O3 1.421492 1_555
B11 O19 1.488399 1_555
B11 O43 1.490243 1_555
B11 O15 1.517119 1_555
B12 O24 1.423296 1_555
B12 O8 1.476537 1_554
B12 O33 1.503993 1_555
B12 O13 1.512392 1_545
B13 O25 1.423296 1_555
B13 O9 1.476537 1_555
B13 O32 1.503993 1_555
B13 O12 1.512392 1_545
B14 O26 1.423296 1_555
B14 O10 1.476537 1_556
B14 O35 1.503993 1_555
B14 O15 1.512392 1_565
B15 O27 1.423296 1_555
B15 O11 1.476537 1_555
B15 O34 1.503993 1_555
B15 O14 1.512392 1_565
B16 O41 1.368367 1_555
B16 O4 1.373579 1_555
B16 O32 1.379396 1_555
B17 O40 1.368367 1_555
B17 O5 1.373579 1_555
B17 O33 1.379396 1_556
B18 O43 1.368367 1_555
B18 O6 1.373579 1_555
B18 O34 1.379396 1_555
B19 O42 1.368367 1_555
B19 O7 1.373579 1_555
B19 O35 1.379396 1_554
B20 O56 1.359255 1_555
B20 O0 1.371320 1_555
B20 O22 1.371457 1_655
B21 O57 1.359255 1_555
B21 O1 1.371320 1_555
B21 O23 1.371457 1_555
B22 O58 1.359255 1_555
B22 O2 1.371320 1_555
B22 O20 1.371457 1_455
B23 O59 1.359255 1_555
B23 O3 1.371320 1_555
B23 O21 1.371457 1_555
B24 O48 1.370355 1_554
B24 O17 1.370927 1_545
B24 O8 1.375295 1_554
B25 O49 1.370355 1_555
B25 O16 1.370927 1_545
B25 O9 1.375295 1_555
B26 O50 1.370355 1_556
B26 O19 1.370927 1_565
B26 O10 1.375295 1_556
B27 O51 1.370355 1_555
B27 O18 1.370927 1_565
B27 O11 1.375295 1_555
I0 O39 2.188926 1_555
I1 O38 2.188926 1_655
I2 O37 2.188926 1_555
I3 O36 2.188926 1_455
O36 O52 1.307498 1_555
O37 O53 1.307498 1_555
O38 O54 1.307498 1_555
O39 O55 1.307498 1_555
