# generated using pymatgen
data_Na3PrTi2Nb2O12
_symmetry_space_group_name_H-M   'P 1'
_cell_length_a   5.53177000
_cell_length_b   5.58874703
_cell_length_c   7.87165176
_cell_angle_alpha   89.91439910
_cell_angle_beta   89.97146730
_cell_angle_gamma   89.96516374
_symmetry_Int_Tables_number   1
_chemical_formula_structural   Na3PrTi2Nb2O12
_chemical_formula_sum   'Na3 Pr1 Ti2 Nb2 O12'
_cell_volume   243.35698772
_cell_formula_units_Z   1
loop_
 _symmetry_equiv_pos_site_id
 _symmetry_equiv_pos_as_xyz
  1  'x, y, z'
loop_
 _atom_site_type_symbol
 _atom_site_label
 _atom_site_symmetry_multiplicity
 _atom_site_fract_x
 _atom_site_fract_y
 _atom_site_fract_z
 _atom_site_occupancy
  Na  Na0  1  0.49568100  0.51330500  0.74941100  1
  Na  Na1  1  0.00348000  0.01331000  0.74982300  1
  Na  Na2  1  0.50503500  0.47843900  0.25025100  1
  Pr  Pr0  1  0.99633300  0.96056800  0.25001200  1
  Ti  Ti0  1  0.49909000  0.98527000  0.00520100  1
  Ti  Ti1  1  0.00536600  0.48431900  0.49559200  1
  Nb  Nb0  1  0.49910600  0.99264500  0.51296600  1
  Nb  Nb1  1  0.00493400  0.48524900  0.98607100  1
  O  O0  1  0.56188400  0.98768300  0.75337900  1
  O  O1  1  0.92972500  0.49514900  0.74686200  1
  O  O2  1  0.43005500  0.01679000  0.24659300  1
  O  O3  1  0.06331400  0.51632500  0.25340600  1
  O  O4  1  0.21318300  0.79557300  0.97760900  1
  O  O5  1  0.27785800  0.28876900  0.52997500  1
  O  O6  1  0.78787000  0.22213800  0.46048700  1
  O  O7  1  0.72361900  0.73606500  0.04390000  1
  O  O8  1  0.78305400  0.21894700  0.03999300  1
  O  O9  1  0.72745000  0.73314800  0.45644800  1
  O  O10  1  0.21041300  0.79114500  0.52336200  1
  O  O11  1  0.28255000  0.28516100  0.96865800  1
loop_
_geom_bond_atom_site_label_1
_geom_bond_atom_site_label_2
_geom_bond_distance
_geom_bond_site_symmetry_2
Na0 O1 2.403188 1_555
Na0 O11 2.446933 1_555
Na0 O5 2.453700 1_555
Na0 O0 2.676804 1_555
Na0 O10 2.838850 1_555
Na0 O4 2.856573 1_555
Na0 O9 2.908943 1_555
Na0 O7 2.920080 1_556
Na0 O0 2.960208 1_545
Na1 O0 2.447233 1_445
Na1 O10 2.456130 1_545
Na1 O4 2.456690 1_545
Na1 O1 2.723430 1_455
Na1 O5 2.767815 1_555
Na1 O11 2.769857 1_555
Na1 O6 2.822225 1_455
Na1 O8 2.833398 1_456
Na1 O1 2.924845 1_445
Na2 O3 2.452644 1_555
Na2 O7 2.483284 1_555
Na2 O9 2.487093 1_555
Na2 O2 2.613619 1_555
Na2 O8 2.685077 1_555
Na2 O6 2.689081 1_555
Na2 O5 2.746474 1_555
Na2 O11 2.757955 1_554
Nb0 O0 1.924373 1_555
Nb0 O10 1.956274 1_555
Nb0 O9 1.973796 1_555
Nb0 O5 2.062226 1_565
Nb0 O6 2.089861 1_565
Nb0 O2 2.135545 1_565
Nb1 O11 1.904156 1_555
Nb1 O1 1.929292 1_455
Nb1 O8 1.975217 1_456
Nb1 O4 2.083600 1_555
Nb1 O3 2.136506 1_556
Nb1 O7 2.142971 1_456
O0 Ti0 2.012316 1_556
O1 Ti1 2.022468 1_655
O2 Ti0 1.946188 1_545
O2 Pr0 2.420058 1_445
O3 Ti1 1.941023 1_555
O3 Pr0 2.510140 1_455
O4 Ti0 1.917177 1_556
O4 Pr0 2.624711 1_456
O5 Ti1 1.880771 1_555
O6 Ti1 1.916920 1_655
O6 Pr0 2.492995 1_545
O7 Ti0 1.890028 1_555
O7 Pr0 2.548183 1_555
O8 Ti0 2.062042 1_545
O8 Pr0 2.490568 1_545
O9 Ti1 2.094975 1_655
O9 Pr0 2.542066 1_555
O10 Ti1 2.068463 1_555
O10 Pr0 2.631339 1_455
O11 Ti0 2.079201 1_546
