# generated using pymatgen
data_GaN
_symmetry_space_group_name_H-M   'P 1'
_cell_length_a   12.56655420
_cell_length_b   12.94481420
_cell_length_c   14.14561661
_cell_angle_alpha   89.88139900
_cell_angle_beta   89.15429422
_cell_angle_gamma   89.76988022
_symmetry_Int_Tables_number   1
_chemical_formula_structural   GaN
_chemical_formula_sum   'Ga50 N50'
_cell_volume   2300.81776050
_cell_formula_units_Z   50
loop_
 _symmetry_equiv_pos_site_id
 _symmetry_equiv_pos_as_xyz
  1  'x, y, z'
loop_
 _atom_site_type_symbol
 _atom_site_label
 _atom_site_symmetry_multiplicity
 _atom_site_fract_x
 _atom_site_fract_y
 _atom_site_fract_z
 _atom_site_occupancy
  Ga  Ga0  1  0.94605800  0.54322630  0.40705324  1
  Ga  Ga1  1  0.09551428  0.71067288  0.55098133  1
  Ga  Ga2  1  0.28400278  0.37915722  0.08088236  1
  Ga  Ga3  1  0.08633013  0.49444864  0.11968841  1
  Ga  Ga4  1  0.45184740  0.12299915  0.28819566  1
  Ga  Ga5  1  0.50553345  0.66236904  0.67336530  1
  Ga  Ga6  1  0.04860427  0.48450709  0.60091296  1
  Ga  Ga7  1  0.37326969  0.71801354  0.26500919  1
  Ga  Ga8  1  0.11060858  0.31027566  0.42269665  1
  Ga  Ga9  1  0.57723990  0.11983842  0.74939129  1
  Ga  Ga10  1  0.40285056  0.36503641  0.23840192  1
  Ga  Ga11  1  0.18813761  0.58347030  0.94674976  1
  Ga  Ga12  1  0.13587508  0.34032618  0.23741469  1
  Ga  Ga13  1  0.65428054  0.59362985  0.32222227  1
  Ga  Ga14  1  0.03590972  0.63696815  0.72444706  1
  Ga  Ga15  1  0.72207622  0.00039163  0.68328630  1
  Ga  Ga16  1  0.14549219  0.38330286  0.94878010  1
  Ga  Ga17  1  0.49049766  0.94385598  0.67636333  1
  Ga  Ga18  1  0.05352335  0.13100578  0.48637017  1
  Ga  Ga19  1  0.64078112  0.19916108  0.22083376  1
  Ga  Ga20  1  0.58295625  0.96772228  0.87157612  1
  Ga  Ga21  1  0.57183005  0.78873236  0.80589826  1
  Ga  Ga22  1  0.43538077  0.95872124  0.99296934  1
  Ga  Ga23  1  0.47894008  0.55318533  0.21264560  1
  Ga  Ga24  1  0.86011006  0.88268997  0.57811019  1
  Ga  Ga25  1  0.88823507  0.56158689  0.23119821  1
  Ga  Ga26  1  0.87126677  0.64425293  0.56441354  1
  Ga  Ga27  1  0.46152305  0.87797556  0.37397403  1
  Ga  Ga28  1  0.28259795  0.20042961  0.17166685  1
  Ga  Ga29  1  0.26167468  0.93247147  0.44117619  1
  Ga  Ga30  1  0.16996700  0.55032873  0.41385471  1
  Ga  Ga31  1  0.30047743  0.70720361  0.45845867  1
  Ga  Ga32  1  0.26434306  0.52397989  0.25502418  1
  Ga  Ga33  1  0.67128480  0.56818799  0.09181423  1
  Ga  Ga34  1  0.18102092  0.71087081  0.18765258  1
  Ga  Ga35  1  0.70696284  0.76690107  0.40336628  1
  Ga  Ga36  1  0.05834243  0.76116919  0.32339624  1
  Ga  Ga37  1  0.03692519  0.92097457  0.49978980  1
  Ga  Ga38  1  0.63220503  0.40648915  0.23643210  1
  Ga  Ga39  1  0.33987663  0.95301724  0.82137796  1
  Ga  Ga40  1  0.08371841  0.02307094  0.33756590  1
  Ga  Ga41  1  0.25657476  0.83743724  0.02194102  1
  Ga  Ga42  1  0.06008092  0.75610569  0.02084408  1
  Ga  Ga43  1  0.43793320  0.80600000  0.55210123  1
  Ga  Ga44  1  0.93348498  0.75558542  0.16306692  1
  Ga  Ga45  1  0.64491892  0.83597138  0.58444390  1
  Ga  Ga46  1  0.39459473  0.93007386  0.16608272  1
  Ga  Ga47  1  0.29458494  0.22942586  0.36526317  1
  Ga  Ga48  1  0.85543215  0.86252309  0.30153259  1
  Ga  Ga49  1  0.00050508  0.41733692  0.80618533  1
  N  N0  1  0.49276029  0.46339225  0.49580849  1
  N  N1  1  0.17017570  0.83662188  0.51043017  1
  N  N2  1  0.83081844  0.79399163  0.76997895  1
  N  N3  1  0.89934595  0.34679016  0.02995459  1
  N  N4  1  0.80883187  0.28580482  0.41279814  1
  N  N5  1  0.27944011  0.20313558  0.62379586  1
  N  N6  1  0.42720705  0.58638949  0.96653103  1
  N  N7  1  0.70929766  0.39991801  0.70707227  1
  N  N8  1  0.32086066  0.46399906  0.70874632  1
  N  N9  1  0.03304552  0.90371958  0.75965323  1
  N  N10  1  0.33229168  0.13373906  0.62320546  1
  N  N11  1  0.51755576  0.38395453  0.51691425  1
  N  N12  1  0.77534307  0.22925520  0.87962920  1
  N  N13  1  0.79373762  0.80090441  0.84229789  1
  N  N14  1  0.75636181  0.35522503  0.42032520  1
  N  N15  1  0.99739276  0.89453042  0.35967831  1
  N  N16  1  0.30922496  0.80445683  0.15460909  1
  N  N17  1  0.86155034  0.98221819  0.01111218  1
  N  N18  1  0.88090020  0.64115697  0.94325398  1
  N  N19  1  0.17347389  0.11873192  0.91221588  1
  N  N20  1  0.69667791  0.47468097  0.66955673  1
  N  N21  1  0.49408802  0.56274964  0.91815806  1
  N  N22  1  0.68898228  0.07324869  0.42382384  1
  N  N23  1  0.69393140  0.24494229  0.90857719  1
  N  N24  1  0.06452061  0.44523571  0.46953812  1
  N  N25  1  0.10683548  0.98573897  0.10611977  1
  N  N26  1  0.91179559  0.15200982  0.20140407  1
  N  N27  1  0.14332447  0.02990733  0.16628198  1
  N  N28  1  0.13889339  0.63008383  0.07513653  1
  N  N29  1  0.77591803  0.75957191  0.53572947  1
  N  N30  1  0.57440091  0.83167996  0.45681943  1
  N  N31  1  0.67332442  0.82400513  0.08253209  1
  N  N32  1  0.26276293  0.44272140  0.65325080  1
  N  N33  1  0.53477432  0.18645634  0.08046943  1
  N  N34  1  0.34334631  0.27713394  0.83128595  1
  N  N35  1  0.94926450  0.15899865  0.12968066  1
  N  N36  1  0.42588135  0.27305043  0.85917266  1
  N  N37  1  0.32326255  0.69643243  0.78819846  1
  N  N38  1  0.81818603  0.36888310  0.05616457  1
  N  N39  1  0.48493270  0.13866863  0.03124810  1
  N  N40  1  0.87517097  0.55678245  0.92632636  1
  N  N41  1  0.09187391  0.96426096  0.73880819  1
  N  N42  1  0.08712872  0.09943313  0.91499900  1
  N  N43  1  0.73812863  0.52565925  0.21665166  1
  N  N44  1  0.60945203  0.81233853  0.13718870  1
  N  N45  1  0.46600512  0.97513310  0.27333218  1
  N  N46  1  0.86035741  0.00064294  0.93422178  1
  N  N47  1  0.34970760  0.77769035  0.80772612  1
  N  N48  1  0.05279530  0.65862648  0.42149374  1
  N  N49  1  0.67093907  0.10898917  0.49401718  1
loop_
_geom_bond_atom_site_label_1
_geom_bond_atom_site_label_2
_geom_bond_distance
_geom_bond_site_symmetry_2
Ga0 N48 2.024315 1_655
Ga0 N24 2.150682 1_655
Ga1 N1 1.964693 1_555
Ga1 N48 2.033273 1_555
Ga1 Ga14 2.726566 1_555
Ga2 Ga28 2.643780 1_555
Ga2 Ga3 2.938129 1_555
Ga2 Ga32 3.105002 1_555
Ga3 N28 1.977034 1_555
Ga3 Ga32 2.991926 1_555
Ga4 N45 1.933251 1_545
Ga4 Ga47 2.629212 1_555
Ga6 N24 1.934975 1_555
Ga7 N16 2.088385 1_555
Ga8 N24 1.952418 1_555
Ga10 Ga23 2.642668 1_555
Ga10 Ga32 2.698014 1_555
Ga10 Ga2 2.706152 1_555
Ga10 Ga28 2.791306 1_555
Ga10 Ga47 2.843775 1_555
Ga10 Ga38 2.933557 1_555
Ga11 N28 2.003413 1_556
Ga11 Ga16 2.648088 1_555
Ga12 Ga8 2.663382 1_555
Ga12 Ga3 2.673602 1_555
Ga12 Ga28 2.733789 1_555
Ga12 Ga32 2.892290 1_555
Ga12 Ga2 2.915785 1_555
Ga12 Ga47 3.063015 1_555
Ga13 N43 2.016453 1_555
Ga13 Ga23 2.765000 1_555
Ga14 Ga6 2.641519 1_555
Ga14 Ga26 3.090325 1_455
Ga14 Ga49 3.098280 1_555
Ga15 Ga9 2.551680 1_555
Ga15 Ga17 3.006650 1_545
Ga16 Ga2 2.572808 1_556
Ga16 Ga49 2.771418 1_555
Ga16 Ga3 2.901780 1_556
Ga17 Ga43 2.601405 1_555
Ga17 Ga45 2.705177 1_555
Ga17 Ga9 2.740044 1_565
Ga17 Ga39 2.772943 1_555
Ga17 Ga21 2.908256 1_555
Ga17 Ga20 3.028516 1_555
Ga18 Ga40 2.551705 1_555
Ga18 Ga8 2.587813 1_555
Ga18 Ga37 2.733632 1_545
Ga19 N33 2.413546 1_555
Ga20 Ga21 2.503295 1_555
Ga20 Ga22 2.511656 1_555
Ga20 Ga9 2.618838 1_565
Ga22 N39 2.476653 1_566
Ga23 Ga7 2.611381 1_555
Ga23 Ga38 2.723210 1_555
Ga23 Ga32 2.781053 1_555
Ga23 Ga33 2.946533 1_555
Ga24 N29 2.013705 1_555
Ga25 N43 1.958506 1_555
Ga25 Ga44 2.746626 1_555
Ga26 N29 1.956070 1_555
Ga27 N45 1.898023 1_555
Ga27 N30 1.945233 1_555
Ga28 Ga47 2.771293 1_555
Ga29 N1 1.947934 1_555
Ga30 N48 2.030868 1_555
Ga30 N24 2.050918 1_555
Ga30 Ga32 2.547953 1_555
Ga31 N1 2.444553 1_555
Ga32 Ga34 2.803037 1_555
Ga32 Ga7 2.870058 1_555
Ga33 N43 2.040376 1_555
Ga34 N28 1.985782 1_555
Ga34 N16 2.067074 1_555
Ga35 N30 2.001040 1_555
Ga35 N29 2.076560 1_555
Ga36 N48 1.919029 1_555
Ga36 N15 1.952366 1_455
Ga36 Ga44 2.778010 1_455
Ga37 N1 2.002745 1_555
Ga37 N15 2.079758 1_455
Ga38 N43 2.057557 1_555
Ga39 N47 2.280873 1_555
Ga40 N15 2.011384 1_445
Ga40 N27 2.526953 1_555
Ga41 N16 2.042789 1_555
Ga42 N28 2.058214 1_555
Ga42 Ga44 2.546358 1_455
Ga43 N30 2.191483 1_555
Ga44 Ga48 2.580382 1_555
Ga45 N30 2.023764 1_555
Ga45 N29 2.029577 1_555
Ga46 N45 1.869544 1_555
Ga46 N16 1.960016 1_555
Ga47 Ga8 2.651251 1_555
Ga48 N15 2.020234 1_555
N0 N11 1.114693 1_555
N3 N38 1.116414 1_555
N10 N5 1.115008 1_555
N12 N23 1.114399 1_555
N13 N2 1.121444 1_555
N14 N4 1.116784 1_555
N17 N46 1.113327 1_564
N18 N40 1.121460 1_555
N19 N42 1.114537 1_555
N20 N7 1.114684 1_555
N21 N6 1.118064 1_555
N22 N49 1.116145 1_555
N25 N27 1.130068 1_565
N26 N35 1.115843 1_555
N31 N44 1.116691 1_555
N32 N8 1.115606 1_555
N33 N39 1.130276 1_555
N34 N36 1.116109 1_555
N37 N47 1.140127 1_555
N41 N9 1.115755 1_555
