# generated using pymatgen
data_Zr10(IrPt)3
_symmetry_space_group_name_H-M   'P 1'
_cell_length_a   5.51526100
_cell_length_b   8.18829656
_cell_length_c   8.18819770
_cell_angle_alpha   120.00040506
_cell_angle_beta   90.00039413
_cell_angle_gamma   89.99921257
_symmetry_Int_Tables_number   1
_chemical_formula_structural   Zr10(IrPt)3
_chemical_formula_sum   'Zr10 Ir3 Pt3'
_cell_volume   320.24091059
_cell_formula_units_Z   1
loop_
 _symmetry_equiv_pos_site_id
 _symmetry_equiv_pos_as_xyz
  1  'x, y, z'
loop_
 _atom_site_type_symbol
 _atom_site_label
 _atom_site_symmetry_multiplicity
 _atom_site_fract_x
 _atom_site_fract_y
 _atom_site_fract_z
 _atom_site_occupancy
  Zr  Zr0  1  0.50288200  0.33330800  0.66669700  1
  Zr  Zr1  1  0.50288200  0.66661100  0.33330300  1
  Zr  Zr2  1  0.99711900  0.66667600  0.33330300  1
  Zr  Zr3  1  0.99711900  0.33337300  0.66669700  1
  Zr  Zr4  1  0.75000900  0.24502500  0.00000000  1
  Zr  Zr5  1  0.74999500  0.75495100  0.75497500  1
  Zr  Zr6  1  0.74999500  0.99997600  0.24502500  1
  Zr  Zr7  1  0.25000800  0.75314100  0.00000000  1
  Zr  Zr8  1  0.24999500  0.24688600  0.24685100  1
  Zr  Zr9  1  0.24999500  0.00003500  0.75314900  1
  Ir  Ir0  1  0.74999800  0.60797200  0.00000000  1
  Ir  Ir1  1  0.75000100  0.39200400  0.39204900  1
  Ir  Ir2  1  0.75000100  0.99995500  0.60795100  1
  Pt  Pt0  1  0.24999300  0.39399400  0.00000000  1
  Pt  Pt1  1  0.25000300  0.60604000  0.60598500  1
  Pt  Pt2  1  0.25000300  0.00005400  0.39401500  1
loop_
_geom_bond_atom_site_label_1
_geom_bond_atom_site_label_2
_geom_bond_distance
_geom_bond_site_symmetry_2
Zr0 Zr3 2.725846 1_555
Zr0 Zr3 2.789415 1_455
Zr1 Zr2 2.725846 1_555
Zr1 Zr2 2.789415 1_455
Ir0 Zr6 2.808623 1_555
Ir0 Zr5 2.808623 1_554
Ir0 Zr3 2.867927 1_554
Ir0 Zr2 2.867927 1_555
Ir0 Zr0 2.868090 1_554
Ir0 Zr1 2.868090 1_555
Ir0 Zr4 2.971918 1_555
Ir0 Zr7 3.002850 1_555
Ir0 Zr7 3.002981 1_655
Ir0 Pt0 3.267132 1_655
Ir0 Pt0 3.267219 1_555
Ir1 Zr6 2.808764 1_545
Ir1 Zr4 2.808938 1_555
Ir1 Zr3 2.867939 1_555
Ir1 Zr1 2.868191 1_555
Ir1 Zr0 2.868260 1_555
Ir1 Zr2 2.868683 1_555
Ir1 Zr5 2.971796 1_555
Ir1 Zr8 3.002836 1_655
Ir1 Zr8 3.002912 1_555
Ir1 Pt1 3.267180 1_555
Ir1 Pt1 3.267219 1_655
Ir2 Zr5 2.808764 1_555
Ir2 Zr4 2.808938 1_566
Ir2 Zr2 2.867938 1_555
Ir2 Zr0 2.868191 1_565
Ir2 Zr1 2.868260 1_555
Ir2 Zr3 2.868683 1_565
Ir2 Zr6 2.971796 1_555
Ir2 Zr9 3.002836 1_665
Ir2 Zr9 3.002912 1_565
Ir2 Pt2 3.267177 1_565
Ir2 Pt2 3.267216 1_665
Pt0 Zr9 2.823341 1_554
Pt0 Zr8 2.823342 1_555
Pt0 Zr1 2.878259 1_555
Pt0 Zr0 2.878259 1_554
Pt0 Zr2 2.878368 1_455
Pt0 Zr3 2.878368 1_454
Pt0 Zr7 2.940802 1_555
Pt0 Zr4 3.015303 1_455
Pt0 Zr4 3.015433 1_555
Pt1 Zr9 2.823560 1_565
Pt1 Zr7 2.823749 1_556
Pt1 Zr1 2.878179 1_555
Pt1 Zr2 2.878469 1_455
Pt1 Zr3 2.878759 1_455
Pt1 Zr0 2.879171 1_555
Pt1 Zr8 2.940742 1_555
Pt1 Zr5 3.015268 1_555
Pt1 Zr5 3.015333 1_455
Pt2 Zr8 2.823568 1_555
Pt2 Zr7 2.823748 1_545
Pt2 Zr0 2.878183 1_555
Pt2 Zr3 2.878473 1_455
Pt2 Zr2 2.878752 1_445
Pt2 Zr1 2.879164 1_545
Pt2 Zr9 2.940738 1_555
Pt2 Zr6 3.015270 1_545
Pt2 Zr6 3.015335 1_445
