# generated using pymatgen
data_Nb3Cr3C
_symmetry_space_group_name_H-M   'P 1'
_cell_length_a   8.17759941
_cell_length_b   8.17759941
_cell_length_c   8.17759941
_cell_angle_alpha   60.00000000
_cell_angle_beta   60.00000000
_cell_angle_gamma   60.00000000
_symmetry_Int_Tables_number   1
_chemical_formula_structural   Nb3Cr3C
_chemical_formula_sum   'Nb12 Cr12 C4'
_cell_volume   386.68960700
_cell_formula_units_Z   4
loop_
 _symmetry_equiv_pos_site_id
 _symmetry_equiv_pos_as_xyz
  1  'x, y, z'
loop_
 _atom_site_type_symbol
 _atom_site_label
 _atom_site_symmetry_multiplicity
 _atom_site_fract_x
 _atom_site_fract_y
 _atom_site_fract_z
 _atom_site_occupancy
  Nb  Nb0  1  0.55763400  0.55763400  0.94236600  1
  Nb  Nb1  1  0.94236600  0.94236600  0.55763400  1
  Nb  Nb2  1  0.69236600  0.69236600  0.30763400  1
  Nb  Nb3  1  0.30763400  0.69236600  0.69236600  1
  Nb  Nb4  1  0.69236600  0.30763400  0.30763400  1
  Nb  Nb5  1  0.30763400  0.30763400  0.69236600  1
  Nb  Nb6  1  0.55763400  0.94236600  0.55763400  1
  Nb  Nb7  1  0.30763400  0.69236600  0.30763400  1
  Nb  Nb8  1  0.94236600  0.55763400  0.94236600  1
  Nb  Nb9  1  0.94236600  0.55763400  0.55763400  1
  Nb  Nb10  1  0.69236600  0.30763400  0.69236600  1
  Nb  Nb11  1  0.55763400  0.94236600  0.94236600  1
  Cr  Cr0  1  0.12500000  0.12500000  0.62500000  1
  Cr  Cr1  1  0.23542500  0.92152500  0.92152500  1
  Cr  Cr2  1  0.92152500  0.23542500  0.92152500  1
  Cr  Cr3  1  0.32847500  0.32847500  0.32847500  1
  Cr  Cr4  1  0.32847500  0.01457500  0.32847500  1
  Cr  Cr5  1  0.32847500  0.32847500  0.01457500  1
  Cr  Cr6  1  0.01457500  0.32847500  0.32847500  1
  Cr  Cr7  1  0.92152500  0.92152500  0.92152500  1
  Cr  Cr8  1  0.12500000  0.62500000  0.12500000  1
  Cr  Cr9  1  0.62500000  0.12500000  0.12500000  1
  Cr  Cr10  1  0.12500000  0.12500000  0.12500000  1
  Cr  Cr11  1  0.92152500  0.92152500  0.23542500  1
  C  C0  1  0.62500000  0.62500000  0.12500000  1
  C  C1  1  0.12500000  0.62500000  0.62500000  1
  C  C2  1  0.62500000  0.12500000  0.62500000  1
  C  C3  1  0.62500000  0.62500000  0.62500000  1
loop_
_geom_bond_atom_site_label_1
_geom_bond_atom_site_label_2
_geom_bond_distance
_geom_bond_site_symmetry_2
Cr0 Cr6 2.473132 1_555
Cr0 Cr4 2.473132 1_555
Cr0 Cr3 2.473132 1_555
Cr0 Cr7 2.473132 1_445
Cr0 Cr1 2.473132 1_545
Cr0 Cr2 2.473132 1_455
Cr0 Nb1 2.939507 1_445
Cr0 Nb10 2.939507 1_455
Cr0 Nb6 2.939507 1_545
Cr0 Nb3 2.939507 1_545
Cr0 Nb9 2.939507 1_455
Cr0 Nb5 2.939507 1_555
Cr1 Cr10 2.473132 1_566
Cr1 Cr8 2.473132 1_556
Cr1 Cr2 2.566948 1_465
Cr1 Cr7 2.566948 1_455
Cr1 Cr11 2.566948 1_456
Cr1 Nb11 2.815660 1_555
Cr1 Nb0 2.815660 1_555
Cr1 Nb6 2.815660 1_555
Cr1 Nb7 2.944628 1_556
Cr1 Nb5 2.944628 1_565
Cr1 Nb3 2.944628 1_555
Cr2 Cr9 2.473132 1_556
Cr2 Cr7 2.566948 1_545
Cr2 Nb8 2.815660 1_555
Cr2 Nb0 2.815660 1_555
Cr2 Nb9 2.815660 1_555
Cr2 Nb4 2.944628 1_556
Cr2 Nb5 2.944628 1_655
Cr2 Nb10 2.944628 1_555
Cr3 Cr8 2.473132 1_555
Cr3 Cr9 2.473132 1_555
Cr3 Cr6 2.566948 1_555
Cr3 Cr4 2.566948 1_555
Cr3 Cr5 2.566948 1_555
Cr3 Nb7 2.815660 1_555
Cr3 Nb4 2.815660 1_555
Cr3 Nb5 2.815660 1_555
Cr3 Nb9 2.944628 1_455
Cr3 Nb0 2.944628 1_554
Cr3 Nb6 2.944628 1_545
Cr4 Cr9 2.473132 1_555
Cr4 Cr6 2.566948 1_555
Cr4 Cr5 2.566948 1_555
Cr4 Nb7 2.815660 1_545
Cr4 Nb2 2.815660 1_545
Cr4 Nb3 2.815660 1_545
Cr4 Nb6 2.944628 1_545
Cr4 Nb11 2.944628 1_544
Cr4 Nb1 2.944628 1_445
Cr5 Cr8 2.473132 1_555
Cr5 Cr9 2.473132 1_555
Cr5 Cr6 2.566948 1_555
Cr5 Nb5 2.815660 1_554
Cr5 Nb10 2.815660 1_554
Cr5 Nb3 2.815660 1_554
Cr5 Nb0 2.944628 1_554
Cr5 Nb8 2.944628 1_454
Cr5 Nb11 2.944628 1_544
Cr6 Cr8 2.473132 1_555
Cr6 Nb2 2.815660 1_455
Cr6 Nb4 2.815660 1_455
Cr6 Nb10 2.815660 1_455
Cr6 Nb9 2.944628 1_455
Cr6 Nb8 2.944628 1_454
Cr6 Nb1 2.944628 1_445
Cr7 Cr9 2.473132 1_566
Cr7 Cr8 2.473132 1_656
Cr7 Nb11 2.815660 1_555
Cr7 Nb1 2.815660 1_555
Cr7 Nb8 2.815660 1_555
Cr7 Nb3 2.944628 1_655
Cr7 Nb2 2.944628 1_556
Cr7 Nb10 2.944628 1_565
Cr8 Nb8 2.939507 1_454
Cr8 Nb9 2.939507 1_455
Cr8 Nb3 2.939507 1_554
Cr8 Nb0 2.939507 1_554
Cr8 Nb2 2.939507 1_455
Cr8 Nb7 2.939507 1_555
Cr9 Nb11 2.939507 1_544
Cr9 Nb2 2.939507 1_545
Cr9 Nb0 2.939507 1_554
Cr9 Nb6 2.939507 1_545
Cr9 Nb10 2.939507 1_554
Cr9 Nb4 2.939507 1_555
Cr10 Cr11 2.473132 1_445
Cr10 Cr2 2.473132 1_454
Cr10 Cr4 2.473132 1_555
Cr10 Cr5 2.473132 1_555
Cr10 Cr6 2.473132 1_555
Cr10 Nb5 2.939507 1_554
Cr10 Nb1 2.939507 1_445
Cr10 Nb11 2.939507 1_544
Cr10 Nb8 2.939507 1_454
Cr10 Nb7 2.939507 1_545
Cr10 Nb4 2.939507 1_455
Cr11 Cr8 2.473132 1_655
Cr11 Cr9 2.473132 1_565
Cr11 Cr2 2.566948 1_564
Cr11 Cr7 2.566948 1_554
Cr11 Nb1 2.815660 1_555
Cr11 Nb9 2.815660 1_555
Cr11 Nb6 2.815660 1_555
Cr11 Nb4 2.944628 1_565
Cr11 Nb2 2.944628 1_555
Cr11 Nb7 2.944628 1_655
C0 Nb7 2.187815 1_555
C0 Nb4 2.187815 1_555
C0 Nb11 2.187815 1_554
C0 Nb8 2.187815 1_554
C0 Nb0 2.187815 1_554
C0 Nb2 2.187815 1_555
C1 Nb7 2.187815 1_555
C1 Nb5 2.187815 1_555
C1 Nb9 2.187815 1_455
C1 Nb8 2.187815 1_455
C1 Nb1 2.187815 1_455
C1 Nb3 2.187815 1_555
C2 Nb4 2.187815 1_555
C2 Nb5 2.187815 1_555
C2 Nb6 2.187815 1_545
C2 Nb11 2.187815 1_545
C2 Nb1 2.187815 1_545
C2 Nb10 2.187815 1_555
C3 Nb10 2.187815 1_555
C3 Nb2 2.187815 1_555
C3 Nb3 2.187815 1_555
C3 Nb9 2.187815 1_555
C3 Nb6 2.187815 1_555
C3 Nb0 2.187815 1_555
