# generated using pymatgen
data_Zn(NiO2)2
_symmetry_space_group_name_H-M   'P 1'
_cell_length_a   2.88571300
_cell_length_b   8.74044302
_cell_length_c   10.29971502
_cell_angle_alpha   90.00711335
_cell_angle_beta   90.00008421
_cell_angle_gamma   90.00004607
_symmetry_Int_Tables_number   1
_chemical_formula_structural   Zn(NiO2)2
_chemical_formula_sum   'Zn4 Ni8 O16'
_cell_volume   259.78363352
_cell_formula_units_Z   4
loop_
 _symmetry_equiv_pos_site_id
 _symmetry_equiv_pos_as_xyz
  1  'x, y, z'
loop_
 _atom_site_type_symbol
 _atom_site_label
 _atom_site_symmetry_multiplicity
 _atom_site_fract_x
 _atom_site_fract_y
 _atom_site_fract_z
 _atom_site_occupancy
  Zn  Zn0  1  0.74999900  0.24555500  0.34047800  1
  Zn  Zn1  1  0.25000000  0.75454900  0.65958000  1
  Zn  Zn2  1  0.74999900  0.74540300  0.15960900  1
  Zn  Zn3  1  0.25000000  0.25455000  0.84046500  1
  Ni  Ni0  1  0.24999900  0.41453700  0.10029600  1
  Ni  Ni1  1  0.75000000  0.08543600  0.60027700  1
  Ni  Ni2  1  0.25000000  0.91456700  0.39967800  1
  Ni  Ni3  1  0.74999900  0.58545600  0.89968800  1
  Ni  Ni4  1  0.74999900  0.56135600  0.38415500  1
  Ni  Ni5  1  0.25000000  0.43865200  0.61591600  1
  Ni  Ni6  1  0.75000000  0.06131600  0.11589100  1
  Ni  Ni7  1  0.24999800  0.93868600  0.88408500  1
  O  O0  1  0.24999900  0.90407300  0.07355600  1
  O  O1  1  0.75000000  0.09596400  0.92642300  1
  O  O2  1  0.24999900  0.40400100  0.42647500  1
  O  O3  1  0.75000000  0.59595200  0.57363000  1
  O  O4  1  0.25000000  0.02732300  0.71145700  1
  O  O5  1  0.75000000  0.97273500  0.28852800  1
  O  O6  1  0.24999900  0.52728100  0.78851400  1
  O  O7  1  0.74999900  0.47264200  0.21152400  1
  O  O8  1  0.25000000  0.61933600  0.03193700  1
  O  O9  1  0.74999900  0.38069300  0.96803300  1
  O  O10  1  0.25000000  0.11926300  0.46807900  1
  O  O11  1  0.75000000  0.88066100  0.53187400  1
  O  O12  1  0.74999900  0.78770400  0.82511400  1
  O  O13  1  0.25000000  0.21226300  0.17482000  1
  O  O14  1  0.24999900  0.71236100  0.32507800  1
  O  O15  1  0.75000000  0.28768500  0.67483800  1
loop_
_geom_bond_atom_site_label_1
_geom_bond_atom_site_label_2
_geom_bond_distance
_geom_bond_site_symmetry_2
Ni0 O7 1.911033 1_555
Ni0 O7 1.911036 1_455
Ni0 O8 1.923606 1_555
Ni0 O13 1.927487 1_555
Ni0 O9 2.006244 1_454
Ni0 O9 2.006247 1_554
Ni1 O4 1.910832 1_655
Ni1 O4 1.910833 1_555
Ni1 O11 1.923414 1_545
Ni1 O15 1.927264 1_555
Ni1 O10 2.005818 1_555
Ni1 O10 2.005820 1_655
Ni2 O5 1.910774 1_455
Ni2 O5 1.910776 1_555
Ni2 O10 1.922764 1_565
Ni2 O14 1.927079 1_555
Ni2 O11 2.005906 1_555
Ni2 O11 2.005908 1_455
Ni3 O6 1.910862 1_555
Ni3 O6 1.910866 1_655
Ni3 O9 1.923261 1_555
Ni3 O12 1.927484 1_555
Ni3 O8 2.006194 1_556
Ni3 O8 2.006195 1_656
Ni4 O7 1.939682 1_555
Ni4 O3 1.974789 1_555
Ni4 O2 2.040483 1_555
Ni4 O2 2.040484 1_655
Ni4 O14 2.047995 1_655
Ni4 O14 2.047995 1_555
Ni5 O6 1.939073 1_555
Ni5 O2 1.974517 1_555
Ni5 O3 2.040084 1_555
Ni5 O3 2.040085 1_455
Ni5 O15 2.047307 1_455
Ni5 O15 2.047307 1_555
Ni6 O5 1.939450 1_545
Ni6 O1 1.974862 1_554
Ni6 O0 2.039783 1_645
Ni6 O0 2.039785 1_545
Ni6 O13 2.047117 1_655
Ni6 O13 2.047120 1_555
Ni7 O4 1.939561 1_565
Ni7 O0 1.974845 1_556
Ni7 O1 2.039994 1_465
Ni7 O1 2.039999 1_565
Ni7 O12 2.047441 1_455
Ni7 O12 2.047447 1_555
O0 Zn2 2.188846 1_555
O0 Zn2 2.188846 1_455
O1 Zn3 2.187985 1_555
O1 Zn3 2.187985 1_655
O2 Zn0 2.187232 1_455
O2 Zn0 2.187235 1_555
O3 Zn1 2.187872 1_655
O3 Zn1 2.187875 1_555
O4 Zn3 2.389427 1_555
O4 Zn1 2.443241 1_545
O5 Zn2 2.389681 1_555
O5 Zn0 2.443798 1_565
O6 Zn1 2.389576 1_555
O6 Zn3 2.443170 1_555
O7 Zn0 2.388375 1_555
O7 Zn2 2.443345 1_555
O8 Zn2 2.241604 1_555
O8 Zn2 2.241611 1_455
O9 Zn3 2.241302 1_555
O9 Zn3 2.241310 1_655
O10 Zn0 2.242305 1_555
O10 Zn0 2.242308 1_455
O11 Zn1 2.242166 1_655
O11 Zn1 2.242167 1_555
O12 Zn1 2.252230 1_555
O12 Zn1 2.252237 1_655
O13 Zn0 2.253351 1_555
O13 Zn0 2.253358 1_455
O14 Zn2 2.251653 1_455
O14 Zn2 2.251655 1_555
O15 Zn3 2.252989 1_655
O15 Zn3 2.252992 1_555
