# generated using pymatgen
data_AlH16C2S2NO14
_symmetry_space_group_name_H-M   'P 1'
_cell_length_a   6.53265723
_cell_length_b   10.56929000
_cell_length_c   11.61521288
_cell_angle_alpha   90.00000000
_cell_angle_beta   99.42211806
_cell_angle_gamma   90.00000000
_symmetry_Int_Tables_number   1
_chemical_formula_structural   AlH16C2S2NO14
_chemical_formula_sum   'Al2 H32 C4 S4 N2 O28'
_cell_volume   791.15928273
_cell_formula_units_Z   2
loop_
 _symmetry_equiv_pos_site_id
 _symmetry_equiv_pos_as_xyz
  1  'x, y, z'
loop_
 _atom_site_type_symbol
 _atom_site_label
 _atom_site_symmetry_multiplicity
 _atom_site_fract_x
 _atom_site_fract_y
 _atom_site_fract_z
 _atom_site_occupancy
  Al  Al0  1  0.49410300  0.00571000  0.00092700  1
  Al  Al1  1  0.99410300  0.49429000  0.50092700  1
  H  H0  1  0.19020000  0.98607500  0.11951300  1
  H  H1  1  0.69020000  0.51392500  0.61951300  1
  H  H2  1  0.79877400  0.01920300  0.88447800  1
  H  H3  1  0.29877400  0.48079700  0.38447800  1
  H  H4  1  0.31315500  0.15013400  0.82860500  1
  H  H5  1  0.81315500  0.34986600  0.32860500  1
  H  H6  1  0.67432000  0.86402800  0.17394600  1
  H  H7  1  0.17432000  0.63597200  0.67394600  1
  H  H8  1  0.16435500  0.02940600  0.84837700  1
  H  H9  1  0.66435500  0.47059400  0.34837700  1
  H  H10  1  0.83066100  0.97856000  0.15146000  1
  H  H11  1  0.33066100  0.52144000  0.65146000  1
  H  H12  1  0.74987100  0.95119400  0.52720600  1
  H  H13  1  0.24987100  0.54880600  0.02720600  1
  H  H14  1  0.37159200  0.07982400  0.60593700  1
  H  H15  1  0.87159200  0.42017600  0.10593700  1
  H  H16  1  0.28712700  0.84681400  0.09865500  1
  H  H17  1  0.78712700  0.65318600  0.59865500  1
  H  H18  1  0.70558900  0.16113300  0.89853100  1
  H  H19  1  0.20558900  0.33886700  0.39853100  1
  H  H20  1  0.35667900  0.81568400  0.86551900  1
  H  H21  1  0.85667900  0.68431600  0.36551900  1
  H  H22  1  0.62283300  0.18861900  0.14133000  1
  H  H23  1  0.12283300  0.31138100  0.64133000  1
  H  H24  1  0.34800000  0.87361800  0.40515600  1
  H  H25  1  0.84800000  0.62638200  0.90515600  1
  H  H26  1  0.66677800  0.08647000  0.42349700  1
  H  H27  1  0.16677800  0.41353000  0.92349700  1
  H  H28  1  0.61072000  0.81194300  0.88922500  1
  H  H29  1  0.11072000  0.68805700  0.38922500  1
  H  H30  1  0.36648500  0.19876400  0.10801000  1
  H  H31  1  0.86648500  0.30123600  0.60801000  1
  C  C0  1  0.44596800  0.03387300  0.53957400  1
  C  C1  1  0.94596800  0.46612700  0.03957400  1
  C  C2  1  0.62990800  0.01506500  0.48453100  1
  C  C3  1  0.12990800  0.48493500  0.98453100  1
  S  S0  1  0.43451900  0.68920500  0.26815800  1
  S  S1  1  0.93451900  0.81079500  0.76815800  1
  S  S2  1  0.55678300  0.31381700  0.73096700  1
  S  S3  1  0.05678300  0.18618300  0.23096700  1
  N  N0  1  0.41648500  0.95669000  0.45642800  1
  N  N1  1  0.91648500  0.54331000  0.95642800  1
  O  O0  1  0.45204300  0.55236600  0.29867300  1
  O  O1  1  0.95204300  0.94763400  0.79867300  1
  O  O2  1  0.53930600  0.45320200  0.70420800  1
  O  O3  1  0.03930600  0.04679800  0.20420800  1
  O  O4  1  0.48427100  0.85061700  0.91435500  1
  O  O5  1  0.98427100  0.64938300  0.41435500  1
  O  O6  1  0.49729600  0.16028600  0.08609000  1
  O  O7  1  0.99729600  0.33971400  0.58609000  1
  O  O8  1  0.28860400  0.07997200  0.88312700  1
  O  O9  1  0.78860400  0.42002800  0.38312700  1
  O  O10  1  0.70114600  0.92993800  0.11715300  1
  O  O11  1  0.20114600  0.57006200  0.61715300  1
  O  O12  1  0.31090300  0.75198100  0.35272100  1
  O  O13  1  0.81090300  0.74801900  0.85272100  1
  O  O14  1  0.65370400  0.24896800  0.64038200  1
  O  O15  1  0.15370400  0.25103200  0.14038200  1
  O  O16  1  0.32173200  0.70594600  0.14817300  1
  O  O17  1  0.82173200  0.79405400  0.64817300  1
  O  O18  1  0.68106100  0.29648100  0.84865800  1
  O  O19  1  0.18106100  0.20351900  0.34865800  1
  O  O20  1  0.27467800  0.93705800  0.06952200  1
  O  O21  1  0.77467800  0.56294200  0.56952200  1
  O  O22  1  0.71503300  0.07098800  0.93148600  1
  O  O23  1  0.21503300  0.42901200  0.43148600  1
  O  O24  1  0.64377400  0.74905100  0.28106600  1
  O  O25  1  0.14377400  0.75094900  0.78106600  1
  O  O26  1  0.34124500  0.26101100  0.72985200  1
  O  O27  1  0.84124500  0.23898900  0.22985200  1
loop_
_geom_bond_atom_site_label_1
_geom_bond_atom_site_label_2
_geom_bond_distance
_geom_bond_site_symmetry_2
Al0 O20 1.894717 1_545
Al0 O22 1.894919 1_554
Al0 O6 1.908229 1_555
Al0 O4 1.918637 1_544
Al0 O8 1.920679 1_554
Al0 O10 1.922337 1_545
Al1 O21 1.894717 1_555
Al1 O23 1.894919 1_655
Al1 O7 1.908229 1_555
Al1 O5 1.918637 1_555
Al1 O9 1.920679 1_555
Al1 O11 1.922337 1_655
H0 O20 1.007490 1_555
H0 O3 1.633662 1_565
H1 O21 1.007490 1_555
H1 O2 1.633662 1_555
H2 O22 0.997375 1_555
H2 O1 1.701388 1_545
H3 O23 0.997375 1_555
H3 O0 1.701388 1_555
H4 O8 1.004959 1_555
H4 O26 1.670812 1_555
H5 O9 1.004959 1_555
H5 O27 1.670812 1_555
H6 O10 0.994484 1_555
H7 O11 0.994484 1_555
H8 O8 1.000051 1_555
H8 O1 1.655827 1_445
H9 O9 1.000051 1_555
H9 O0 1.655827 1_555
H10 O10 1.014072 1_555
H10 O3 1.574774 1_665
H11 O11 1.014072 1_555
H11 O2 1.574774 1_555
H16 O20 1.010877 1_555
H16 O16 1.598778 1_555
H17 O21 1.010877 1_555
H17 O17 1.598778 1_555
H18 O22 1.024872 1_555
H18 O18 1.541842 1_555
H19 O23 1.024872 1_555
H19 O19 1.541842 1_555
H20 O4 0.999013 1_555
H21 O5 0.999013 1_555
H22 O6 1.000812 1_555
H22 O27 1.701787 1_555
H23 O7 1.000812 1_455
H23 O26 1.701787 1_555
H24 N0 1.112874 1_555
H24 O12 1.426236 1_555
H25 N1 1.112874 1_555
H25 O13 1.426236 1_555
H28 O4 1.006768 1_555
H28 O13 1.589952 1_555
H29 O5 1.006768 1_455
H29 O12 1.589952 1_555
H30 O6 1.015725 1_555
H30 O15 1.596829 1_555
H31 O7 1.015725 1_555
H31 O14 1.596829 1_555
C0 H14 1.090291 1_555
C0 N0 1.254736 1_545
C0 C2 1.464132 1_555
C1 H15 1.090291 1_555
C1 N1 1.254736 1_554
C1 C3 1.464132 1_654
C2 H26 1.089065 1_555
C2 H12 1.090130 1_545
C2 N0 1.510648 1_545
C3 H27 1.089065 1_555
C3 H13 1.090130 1_556
C3 N1 1.510648 1_455
O0 S0 1.489028 1_555
O1 S1 1.489028 1_555
O2 S2 1.506101 1_555
O3 S3 1.506101 1_555
O12 S0 1.522104 1_555
O13 S1 1.522104 1_555
O14 S2 1.481833 1_555
O15 S3 1.481833 1_555
O16 S0 1.476565 1_555
O17 S1 1.476565 1_555
O18 S2 1.482576 1_555
O19 S3 1.482576 1_555
O24 S0 1.491353 1_555
O25 S1 1.491353 1_455
O26 S2 1.512700 1_555
O27 S3 1.512700 1_655
