# generated using pymatgen
data_BaSrEuWO6
_symmetry_space_group_name_H-M   'P 1'
_cell_length_a   6.00051723
_cell_length_b   6.00051723
_cell_length_c   8.75233244
_cell_angle_alpha   90.00000000
_cell_angle_beta   90.00000000
_cell_angle_gamma   90.00000000
_symmetry_Int_Tables_number   1
_chemical_formula_structural   BaSrEuWO6
_chemical_formula_sum   'Ba2 Sr2 Eu2 W2 O12'
_cell_volume   315.13829381
_cell_formula_units_Z   2
loop_
 _symmetry_equiv_pos_site_id
 _symmetry_equiv_pos_as_xyz
  1  'x, y, z'
loop_
 _atom_site_type_symbol
 _atom_site_label
 _atom_site_symmetry_multiplicity
 _atom_site_fract_x
 _atom_site_fract_y
 _atom_site_fract_z
 _atom_site_occupancy
  Ba  Ba0  1  0.00000000  0.50000000  0.25000000  1
  Ba  Ba1  1  0.50000000  -0.00000000  0.75000000  1
  Sr  Sr0  1  0.50000000  -0.00000000  0.25000000  1
  Sr  Sr1  1  -0.00000000  0.50000000  0.75000000  1
  Eu  Eu0  1  0.00000000  0.00000000  -0.00000000  1
  Eu  Eu1  1  0.50000000  0.50000000  0.50000000  1
  W  W0  1  -0.00000000  -0.00000000  0.50000000  1
  W  W1  1  0.50000000  0.50000000  -0.00000000  1
  O  O0  1  -0.00000000  0.00000000  0.27241136  1
  O  O1  1  0.50000000  0.50000000  0.22758864  1
  O  O2  1  0.00000000  0.00000000  0.72758864  1
  O  O3  1  0.50000000  0.50000000  0.77241136  1
  O  O4  1  0.33767356  0.21419453  0.01179790  1
  O  O5  1  0.66232644  0.78580547  0.01179790  1
  O  O6  1  0.78580547  0.33767356  0.98820210  1
  O  O7  1  0.21419453  0.66232644  0.98820210  1
  O  O8  1  0.83767356  0.28580547  0.51179790  1
  O  O9  1  0.16232644  0.71419453  0.51179790  1
  O  O10  1  0.28580547  0.16232644  0.48820210  1
  O  O11  1  0.71419453  0.83767356  0.48820210  1
loop_
_geom_bond_atom_site_label_1
_geom_bond_atom_site_label_2
_geom_bond_distance
_geom_bond_site_symmetry_2
Ba0 O7 2.801954 1_554
Ba0 O6 2.801954 1_454
Ba0 O8 2.801954 1_455
Ba0 O9 2.801954 1_555
Ba0 O1 3.006664 1_555
Ba0 O0 3.006664 1_565
Ba0 O0 3.006664 1_555
Ba0 O1 3.006664 1_455
Ba1 O5 2.801954 1_546
Ba1 O11 2.801954 1_545
Ba1 O4 2.801954 1_556
Ba1 O10 2.801954 1_555
Ba1 O3 3.006664 1_545
Ba1 O2 3.006664 1_555
Ba1 O3 3.006664 1_555
Ba1 O2 3.006664 1_655
Eu0 O2 2.384235 1_554
Eu0 O0 2.384235 1_555
Eu0 O4 2.401698 1_555
Eu0 O6 2.401698 1_454
Eu0 O5 2.401698 1_445
Eu0 O7 2.401698 1_544
Eu1 O3 2.384235 1_555
Eu1 O1 2.384235 1_555
Eu1 O9 2.401698 1_555
Eu1 O11 2.401698 1_555
Eu1 O8 2.401698 1_555
Eu1 O10 2.401698 1_555
O0 W0 1.991931 1_555
O0 Sr0 3.006664 1_555
O0 Sr0 3.006664 1_455
O1 W1 1.991931 1_555
O1 Sr0 3.006664 1_565
O1 Sr0 3.006664 1_555
O2 W0 1.991931 1_555
O2 Sr1 3.006664 1_555
O2 Sr1 3.006664 1_545
O3 W1 1.991931 1_556
O3 Sr1 3.006664 1_555
O3 Sr1 3.006664 1_655
O4 W1 1.974989 1_555
O4 Sr0 2.635752 1_555
O5 W1 1.974989 1_555
O5 Sr0 2.635752 1_565
O6 W1 1.974989 1_556
O6 Sr1 2.635752 1_655
O7 W1 1.974989 1_556
O7 Sr1 2.635752 1_555
O8 W0 1.974989 1_655
O8 Sr1 2.635752 1_655
O9 W0 1.974989 1_565
O9 Sr1 2.635752 1_555
O10 W0 1.974989 1_555
O10 Sr0 2.635752 1_555
O11 W0 1.974989 1_665
O11 Sr0 2.635752 1_565
