# generated using pymatgen
data_CaAlH5
_symmetry_space_group_name_H-M   'P 1'
_cell_length_a   6.18653200
_cell_length_b   11.47499478
_cell_length_c   10.68366199
_cell_angle_alpha   108.26825031
_cell_angle_beta   90.00000000
_cell_angle_gamma   90.00000000
_symmetry_Int_Tables_number   1
_chemical_formula_structural   CaAlH5
_chemical_formula_sum   'Ca8 Al8 H40'
_cell_volume   720.21190794
_cell_formula_units_Z   8
loop_
 _symmetry_equiv_pos_site_id
 _symmetry_equiv_pos_as_xyz
  1  'x, y, z'
loop_
 _atom_site_type_symbol
 _atom_site_label
 _atom_site_symmetry_multiplicity
 _atom_site_fract_x
 _atom_site_fract_y
 _atom_site_fract_z
 _atom_site_occupancy
  Ca  Ca0  1  0.32118300  0.85026700  0.01989000  1
  Ca  Ca1  1  0.19017300  0.29869700  0.82695300  1
  Ca  Ca2  1  0.69017300  0.20130300  0.67304700  1
  Ca  Ca3  1  0.17881700  0.35026700  0.51989000  1
  Ca  Ca4  1  0.80982700  0.70130300  0.17304700  1
  Ca  Ca5  1  0.30982700  0.79869700  0.32695300  1
  Ca  Ca6  1  0.67881700  0.14973300  0.98011000  1
  Ca  Ca7  1  0.82118300  0.64973300  0.48011000  1
  Al  Al0  1  0.29202700  0.58072100  0.83119900  1
  Al  Al1  1  0.26792100  0.48053500  0.30371700  1
  Al  Al2  1  0.73207900  0.51946500  0.69628300  1
  Al  Al3  1  0.76792100  0.01946500  0.19628300  1
  Al  Al4  1  0.70797300  0.41927900  0.16880100  1
  Al  Al5  1  0.23207900  0.98053500  0.80371700  1
  Al  Al6  1  0.79202700  0.91927900  0.66880100  1
  Al  Al7  1  0.20797300  0.08072100  0.33119900  1
  H  H0  1  0.81193400  0.65656000  0.70271000  1
  H  H1  1  0.74587200  0.94615200  0.30128300  1
  H  H2  1  0.88969700  0.31266700  0.09282900  1
  H  H3  1  0.61601600  0.00454600  0.78274900  1
  H  H4  1  0.90340200  0.19311200  0.84062200  1
  H  H5  1  0.25412800  0.05384800  0.69871700  1
  H  H6  1  0.18641300  0.56019400  0.45777200  1
  H  H7  1  0.53738900  0.46866500  0.32895200  1
  H  H8  1  0.40340200  0.30688800  0.65937800  1
  H  H9  1  0.18806600  0.34344000  0.29729000  1
  H  H10  1  0.00468600  0.26711300  0.64477800  1
  H  H11  1  0.49531400  0.76711300  0.14477800  1
  H  H12  1  0.19053200  0.98795600  0.42014900  1
  H  H13  1  0.03738900  0.03133500  0.17104800  1
  H  H14  1  0.30946800  0.48795600  0.92014900  1
  H  H15  1  0.24587200  0.55384800  0.19871700  1
  H  H16  1  0.88398400  0.50454600  0.28274900  1
  H  H17  1  0.99531400  0.73288700  0.35522200  1
  H  H18  1  0.59659800  0.69311200  0.34062200  1
  H  H19  1  0.46261100  0.53133500  0.67104800  1
  H  H20  1  0.50404400  0.67485500  0.88502000  1
  H  H21  1  0.38398400  0.99545400  0.21725100  1
  H  H22  1  0.11030300  0.68733300  0.90717100  1
  H  H23  1  0.61030300  0.81266700  0.59282900  1
  H  H24  1  0.81358700  0.43980600  0.54222800  1
  H  H25  1  0.11601600  0.49545400  0.71725100  1
  H  H26  1  0.49595600  0.32514500  0.11498000  1
  H  H27  1  0.31358700  0.06019400  0.95777200  1
  H  H28  1  0.38969700  0.18733300  0.40717100  1
  H  H29  1  0.69053200  0.51204400  0.07985100  1
  H  H30  1  0.80946800  0.01204400  0.57985100  1
  H  H31  1  0.50468600  0.23288700  0.85522200  1
  H  H32  1  0.96261100  0.96866500  0.82895200  1
  H  H33  1  0.00404400  0.82514500  0.61498000  1
  H  H34  1  0.99595600  0.17485500  0.38502000  1
  H  H35  1  0.68641300  0.93980600  0.04222800  1
  H  H36  1  0.68806600  0.15656000  0.20271000  1
  H  H37  1  0.31193400  0.84344000  0.79729000  1
  H  H38  1  0.75412800  0.44615200  0.80128300  1
  H  H39  1  0.09659800  0.80688800  0.15937800  1
loop_
_geom_bond_atom_site_label_1
_geom_bond_atom_site_label_2
_geom_bond_distance
_geom_bond_site_symmetry_2
Ca0 H11 2.156250 1_555
Ca0 H39 2.205471 1_555
Ca0 H21 2.273802 1_555
Ca0 H22 2.288303 1_554
Ca0 H37 2.355497 1_554
Ca0 H20 2.364160 1_554
Ca0 H35 2.462574 1_555
Ca0 H27 2.692164 1_564
Ca1 H31 2.142523 1_555
Ca1 H4 2.178920 1_455
Ca1 H10 2.189519 1_555
Ca1 H14 2.212889 1_555
Ca1 H8 2.249380 1_555
Ca2 H10 2.142523 1_655
Ca2 H8 2.178920 1_555
Ca2 H31 2.189519 1_555
Ca2 H30 2.212889 1_555
Ca2 H4 2.249380 1_555
Ca3 H10 2.156250 1_555
Ca3 H8 2.205471 1_555
Ca3 H25 2.273802 1_555
Ca3 H28 2.288303 1_555
Ca3 H9 2.355497 1_555
Ca3 H34 2.364160 1_455
Ca3 H24 2.462574 1_455
Ca3 H6 2.692164 1_555
Ca4 H11 2.142523 1_555
Ca4 H39 2.178920 1_655
Ca4 H17 2.189519 1_555
Ca4 H29 2.212889 1_555
Ca4 H18 2.249380 1_555
Ca5 H17 2.142523 1_455
Ca5 H18 2.178920 1_555
Ca5 H11 2.189519 1_555
Ca5 H12 2.212889 1_555
Ca5 H39 2.249380 1_555
Ca6 H31 2.156250 1_555
Ca6 H4 2.205471 1_555
Ca6 H3 2.273802 1_555
Ca6 H2 2.288303 1_556
Ca6 H36 2.355497 1_556
Ca6 H26 2.364160 1_556
Ca6 H27 2.462574 1_555
Ca6 H35 2.692164 1_546
Ca7 H17 2.156250 1_555
Ca7 H18 2.205471 1_555
Ca7 H16 2.273802 1_555
Ca7 H23 2.288303 1_555
Ca7 H0 2.355497 1_555
Ca7 H33 2.364160 1_655
Ca7 H6 2.462574 1_655
Ca7 H24 2.692164 1_555
Al0 H14 1.637695 1_555
Al0 H22 1.672372 1_555
Al0 H20 1.681804 1_555
Al0 H25 1.696555 1_555
Al0 H19 1.937650 1_555
Al1 H15 1.605112 1_555
Al1 H9 1.629694 1_555
Al1 H6 1.689827 1_555
Al1 H7 1.700997 1_555
Al2 H38 1.605112 1_555
Al2 H0 1.629694 1_555
Al2 H24 1.689827 1_555
Al2 H19 1.700997 1_555
Al3 H1 1.605112 1_545
Al3 H36 1.629694 1_555
Al3 H35 1.689827 1_545
Al3 H13 1.700997 1_655
Al4 H29 1.637695 1_555
Al4 H2 1.672372 1_555
Al4 H26 1.681804 1_555
Al4 H16 1.696555 1_555
Al4 H7 1.937650 1_555
Al5 H5 1.605112 1_565
Al5 H37 1.629694 1_555
Al5 H27 1.689827 1_565
Al5 H32 1.700997 1_455
Al6 H30 1.637695 1_565
Al6 H23 1.672372 1_555
Al6 H33 1.681804 1_655
Al6 H3 1.696555 1_565
Al6 H32 1.937650 1_555
Al7 H12 1.637695 1_545
Al7 H28 1.672372 1_555
Al7 H34 1.681804 1_455
Al7 H21 1.696555 1_545
Al7 H13 1.937650 1_555
