# generated using pymatgen
data_Ba3(Ge4Ir)4
_symmetry_space_group_name_H-M   'P 1'
_cell_length_a   12.27346793
_cell_length_b   12.27346793
_cell_length_c   12.27346793
_cell_angle_alpha   148.82011176
_cell_angle_beta   148.82011176
_cell_angle_gamma   44.67615988
_symmetry_Int_Tables_number   1
_chemical_formula_structural   Ba3(Ge4Ir)4
_chemical_formula_sum   'Ba3 Ge16 Ir4'
_cell_volume   494.06376910
_cell_formula_units_Z   1
loop_
 _symmetry_equiv_pos_site_id
 _symmetry_equiv_pos_as_xyz
  1  'x, y, z'
loop_
 _atom_site_type_symbol
 _atom_site_label
 _atom_site_symmetry_multiplicity
 _atom_site_fract_x
 _atom_site_fract_y
 _atom_site_fract_z
 _atom_site_occupancy
  Ba  Ba0  1  0.75000000  0.25000000  0.50000000  1
  Ba  Ba1  1  0.25000000  0.75000000  0.50000000  1
  Ba  Ba2  1  0.00000000  0.00000000  0.00000000  1
  Ge  Ge0  1  0.11544600  0.11544600  0.49115200  1
  Ge  Ge1  1  0.62429400  0.62429400  0.50884800  1
  Ge  Ge2  1  0.11544600  0.62429400  0.00000000  1
  Ge  Ge3  1  0.62429400  0.11544600  0.00000000  1
  Ge  Ge4  1  0.88455400  0.88455400  0.50884800  1
  Ge  Ge5  1  0.37570600  0.37570600  0.49115200  1
  Ge  Ge6  1  0.88455400  0.37570600  0.00000000  1
  Ge  Ge7  1  0.37570600  0.88455400  0.00000000  1
  Ge  Ge8  1  0.22391900  0.50000000  0.72391900  1
  Ge  Ge9  1  0.77608100  0.50000000  0.27608100  1
  Ge  Ge10  1  0.50000000  0.77608100  0.27608100  1
  Ge  Ge11  1  0.50000000  0.22391900  0.72391900  1
  Ge  Ge12  1  0.80557400  0.80557400  0.00000000  1
  Ge  Ge13  1  0.19442600  0.19442600  0.00000000  1
  Ge  Ge14  1  0.69241800  0.69241800  0.00000000  1
  Ge  Ge15  1  0.30758200  0.30758200  0.00000000  1
  Ir  Ir0  1  0.91062600  0.41062600  0.50000000  1
  Ir  Ir1  1  0.41062600  0.91062600  0.50000000  1
  Ir  Ir2  1  0.08937400  0.58937400  0.50000000  1
  Ir  Ir3  1  0.58937400  0.08937400  0.50000000  1
loop_
_geom_bond_atom_site_label_1
_geom_bond_atom_site_label_2
_geom_bond_distance
_geom_bond_site_symmetry_2
Ba0 Ge12 3.531610 1_545
Ba0 Ge12 3.531610 1_556
Ba0 Ge13 3.531610 1_555
Ba0 Ge13 3.531610 1_656
Ba0 Ge15 3.548155 1_555
Ba0 Ge14 3.548155 1_556
Ba0 Ge15 3.548155 1_656
Ba0 Ge14 3.548155 1_545
Ba0 Ge2 3.584557 1_656
Ba0 Ge0 3.584557 1_655
Ba0 Ge3 3.584557 1_555
Ba0 Ge5 3.584557 1_555
Ba0 Ge6 3.584557 1_556
Ba0 Ge1 3.584557 1_555
Ba0 Ge4 3.584557 1_545
Ba0 Ge7 3.584557 1_545
Ba0 Ir3 3.646992 1_555
Ba0 Ir0 3.646992 1_555
Ba1 Ge13 3.531610 1_555
Ba1 Ge13 3.531610 1_566
Ba1 Ge12 3.531610 1_455
Ba1 Ge12 3.531610 1_556
Ba1 Ge15 3.548155 1_555
Ba1 Ge14 3.548155 1_455
Ba1 Ge15 3.548155 1_566
Ba1 Ge14 3.548155 1_556
Ba1 Ge0 3.584557 1_565
Ba1 Ge2 3.584557 1_555
Ba1 Ge3 3.584557 1_566
Ba1 Ge5 3.584557 1_555
Ba1 Ge4 3.584557 1_455
Ba1 Ge7 3.584557 1_556
Ba1 Ge1 3.584557 1_555
Ba1 Ge6 3.584557 1_455
Ba1 Ir1 3.646992 1_555
Ba1 Ir2 3.646992 1_555
Ba2 Ge9 3.614171 1_455
Ba2 Ge8 3.614171 1_555
Ba2 Ge10 3.614171 1_444
Ba2 Ge9 3.614171 1_444
Ba2 Ge11 3.614171 1_555
Ba2 Ge11 3.614171 1_454
Ba2 Ge10 3.614171 1_545
Ba2 Ge8 3.614171 1_544
Ba2 Ge6 3.738824 1_455
Ba2 Ge7 3.738824 1_545
Ba2 Ge4 3.738824 1_444
Ba2 Ge5 3.738824 1_555
Ba2 Ge1 3.738824 1_444
Ba2 Ge3 3.738824 1_455
Ba2 Ge0 3.738824 1_555
Ba2 Ge2 3.738824 1_545
Ba2 Ir0 3.872710 1_455
Ba2 Ir3 3.872710 1_555
Ba2 Ir1 3.872710 1_545
Ba2 Ir2 3.872710 1_555
Ba2 Ir2 3.872710 1_544
Ba2 Ir3 3.872710 1_454
Ba2 Ir1 3.872710 1_444
Ba2 Ir0 3.872710 1_444
Ge0 Ir1 2.509593 1_545
Ge0 Ir0 2.509593 1_455
Ge0 Ge12 2.716679 1_445
Ge0 Ge15 2.763038 1_556
Ge1 Ir1 2.509593 1_555
Ge1 Ir0 2.509593 1_555
Ge1 Ge12 2.716679 1_556
Ge1 Ge15 2.763038 1_555
Ge2 Ir0 2.509593 1_454
Ge2 Ir1 2.509593 1_555
Ge3 Ir0 2.509593 1_555
Ge3 Ir1 2.509593 1_544
Ge4 Ir2 2.509593 1_655
Ge4 Ir3 2.509593 1_565
Ge5 Ir2 2.509593 1_555
Ge5 Ir3 2.509593 1_555
Ge6 Ir2 2.509593 1_655
Ge6 Ir3 2.509593 1_554
Ge7 Ir3 2.509593 1_565
Ge7 Ir2 2.509593 1_554
Ge8 Ir2 2.509952 1_555
Ge8 Ir0 2.509952 1_455
Ge9 Ir0 2.509952 1_555
Ge9 Ir2 2.509952 1_655
Ge10 Ir1 2.509952 1_555
Ge10 Ir3 2.509952 1_565
Ge11 Ir3 2.509952 1_555
Ge11 Ir1 2.509952 1_545
Ge12 Ge14 2.569192 1_555
Ge12 Ge2 2.716679 1_655
Ge12 Ge3 2.716679 1_565
Ge13 Ge15 2.569192 1_555
Ge13 Ge5 2.716679 1_555
Ge13 Ge4 2.716679 1_444
Ge13 Ge7 2.716679 1_545
Ge13 Ge6 2.716679 1_455
Ge14 Ge7 2.763038 1_555
Ge14 Ge4 2.763038 1_555
Ge14 Ge6 2.763038 1_555
Ge14 Ge5 2.763038 1_554
Ge15 Ge3 2.763038 1_555
Ge15 Ge2 2.763038 1_555
