# generated using pymatgen
data_LiRuN2
_symmetry_space_group_name_H-M   'P 1'
_cell_length_a   5.32466900
_cell_length_b   10.38918100
_cell_length_c   14.76693200
_cell_angle_alpha   90.00000000
_cell_angle_beta   90.00000000
_cell_angle_gamma   90.00000000
_symmetry_Int_Tables_number   1
_chemical_formula_structural   LiRuN2
_chemical_formula_sum   'Li16 Ru16 N32'
_cell_volume   816.89117305
_cell_formula_units_Z   16
loop_
 _symmetry_equiv_pos_site_id
 _symmetry_equiv_pos_as_xyz
  1  'x, y, z'
loop_
 _atom_site_type_symbol
 _atom_site_label
 _atom_site_symmetry_multiplicity
 _atom_site_fract_x
 _atom_site_fract_y
 _atom_site_fract_z
 _atom_site_occupancy
  Li  Li0  1  0.31687400  0.99000000  0.43628200  1
  Li  Li1  1  0.81687400  0.51000000  0.56371800  1
  Li  Li2  1  0.68312600  0.49000000  0.06371800  1
  Li  Li3  1  0.18312600  0.01000000  0.93628200  1
  Li  Li4  1  0.68312600  0.01000000  0.56371800  1
  Li  Li5  1  0.18312600  0.49000000  0.43628200  1
  Li  Li6  1  0.31687400  0.51000000  0.93628200  1
  Li  Li7  1  0.81687400  0.99000000  0.06371800  1
  Li  Li8  1  0.15022900  0.27855100  0.29645300  1
  Li  Li9  1  0.65022900  0.22144900  0.70354700  1
  Li  Li10  1  0.84977100  0.77855100  0.20354700  1
  Li  Li11  1  0.34977100  0.72144900  0.79645300  1
  Li  Li12  1  0.84977100  0.72144900  0.70354700  1
  Li  Li13  1  0.34977100  0.77855100  0.29645300  1
  Li  Li14  1  0.15022900  0.22144900  0.79645300  1
  Li  Li15  1  0.65022900  0.27855100  0.20354700  1
  Ru  Ru0  1  0.79299400  0.02130600  0.31117800  1
  Ru  Ru1  1  0.29299400  0.47869400  0.68882200  1
  Ru  Ru2  1  0.20700600  0.52130600  0.18882200  1
  Ru  Ru3  1  0.70700600  0.97869400  0.81117800  1
  Ru  Ru4  1  0.20700600  0.97869400  0.68882200  1
  Ru  Ru5  1  0.70700600  0.52130600  0.31117800  1
  Ru  Ru6  1  0.79299400  0.47869400  0.81117800  1
  Ru  Ru7  1  0.29299400  0.02130600  0.18882200  1
  Ru  Ru8  1  0.70335800  0.27855500  0.43429400  1
  Ru  Ru9  1  0.20335800  0.22144500  0.56570600  1
  Ru  Ru10  1  0.29664200  0.77855500  0.06570600  1
  Ru  Ru11  1  0.79664200  0.72144500  0.93429400  1
  Ru  Ru12  1  0.29664200  0.72144500  0.56570600  1
  Ru  Ru13  1  0.79664200  0.77855500  0.43429400  1
  Ru  Ru14  1  0.70335800  0.22144500  0.93429400  1
  Ru  Ru15  1  0.20335800  0.27855500  0.06570600  1
  N  N0  1  0.97398000  0.33452200  0.50874100  1
  N  N1  1  0.47398000  0.16547800  0.49125900  1
  N  N2  1  0.02602000  0.83452200  0.99125900  1
  N  N3  1  0.52602000  0.66547800  0.00874100  1
  N  N4  1  0.02602000  0.66547800  0.49125900  1
  N  N5  1  0.52602000  0.83452200  0.50874100  1
  N  N6  1  0.97398000  0.16547800  0.00874100  1
  N  N7  1  0.47398000  0.33452200  0.99125900  1
  N  N8  1  0.53611900  0.43026900  0.40216600  1
  N  N9  1  0.03611900  0.06973100  0.59783400  1
  N  N10  1  0.46388100  0.93026900  0.09783400  1
  N  N11  1  0.96388100  0.56973100  0.90216600  1
  N  N12  1  0.46388100  0.56973100  0.59783400  1
  N  N13  1  0.96388100  0.93026900  0.40216600  1
  N  N14  1  0.53611900  0.06973100  0.90216600  1
  N  N15  1  0.03611900  0.43026900  0.09783400  1
  N  N16  1  0.80042100  0.20143100  0.32181700  1
  N  N17  1  0.30042100  0.29856900  0.67818300  1
  N  N18  1  0.19957900  0.70143100  0.17818300  1
  N  N19  1  0.69957900  0.79856900  0.82181700  1
  N  N20  1  0.19957900  0.79856900  0.67818300  1
  N  N21  1  0.69957900  0.70143100  0.32181700  1
  N  N22  1  0.80042100  0.29856900  0.82181700  1
  N  N23  1  0.30042100  0.20143100  0.17818300  1
  N  N24  1  0.54754200  0.47318700  0.20200300  1
  N  N25  1  0.04754200  0.02681300  0.79799700  1
  N  N26  1  0.45245800  0.97318700  0.29799700  1
  N  N27  1  0.95245800  0.52681300  0.70200300  1
  N  N28  1  0.45245800  0.52681300  0.79799700  1
  N  N29  1  0.95245800  0.97318700  0.20200300  1
  N  N30  1  0.54754200  0.02681300  0.70200300  1
  N  N31  1  0.04754200  0.47318700  0.29799700  1
loop_
_geom_bond_atom_site_label_1
_geom_bond_atom_site_label_2
_geom_bond_distance
_geom_bond_site_symmetry_2
Li0 N13 2.042469 1_455
Li0 N1 2.163903 1_565
Li0 N26 2.172937 1_555
Li0 N5 2.234778 1_555
Li1 N12 2.042469 1_555
Li1 N0 2.163903 1_555
Li1 N27 2.172937 1_555
Li1 N4 2.234778 1_655
Li2 N15 2.042469 1_655
Li2 N3 2.163903 1_555
Li2 N24 2.172937 1_555
Li2 N7 2.234778 1_554
Li3 N14 2.042469 1_555
Li3 N2 2.163903 1_545
Li3 N25 2.172937 1_555
Li3 N6 2.234778 1_456
Li4 N9 2.042469 1_655
Li4 N5 2.163903 1_545
Li4 N30 2.172937 1_555
Li4 N1 2.234778 1_555
Li5 N8 2.042469 1_555
Li5 N4 2.163903 1_555
Li5 N31 2.172937 1_555
Li5 N0 2.234778 1_455
Li6 N11 2.042469 1_455
Li6 N7 2.163903 1_555
Li6 N28 2.172937 1_555
Li6 N3 2.234778 1_556
Li7 N10 2.042469 1_555
Li7 N6 2.163903 1_565
Li7 N29 2.172937 1_555
Li7 N2 2.234778 1_654
Li8 N16 2.061929 1_455
Li8 N23 2.081276 1_555
Li8 N31 2.094852 1_555
Li9 N17 2.061929 1_555
Li9 N22 2.081276 1_555
Li9 N30 2.094852 1_555
Li10 N18 2.061929 1_655
Li10 N21 2.081276 1_555
Li10 N29 2.094852 1_555
Li11 N19 2.061929 1_555
Li11 N20 2.081276 1_555
Li11 N28 2.094852 1_555
Li12 N20 2.061929 1_655
Li12 N19 2.081276 1_555
Li12 N27 2.094852 1_555
Li13 N21 2.061929 1_555
Li13 N18 2.081276 1_555
Li13 N26 2.094852 1_555
Li14 N22 2.061929 1_455
Li14 N17 2.081276 1_555
Li14 N25 2.094852 1_555
Li15 N23 2.061929 1_555
Li15 N16 2.081276 1_555
Li15 N24 2.094852 1_555
N0 Ru9 1.891941 1_655
N0 Ru8 1.903435 1_555
N1 Ru8 1.891941 1_555
N1 Ru9 1.903435 1_555
N2 Ru11 1.891941 1_455
N2 Ru10 1.903435 1_556
N3 Ru10 1.891941 1_555
N3 Ru11 1.903435 1_554
N4 Ru13 1.891941 1_455
N4 Ru12 1.903435 1_555
N5 Ru12 1.891941 1_555
N5 Ru13 1.903435 1_555
N6 Ru15 1.891941 1_655
N6 Ru14 1.903435 1_554
N7 Ru14 1.891941 1_555
N7 Ru15 1.903435 1_556
N8 Ru8 1.871475 1_555
N8 Ru5 1.878239 1_555
N9 Ru9 1.871475 1_555
N9 Ru4 1.878239 1_545
N10 Ru10 1.871475 1_555
N10 Ru7 1.878239 1_565
N11 Ru11 1.871475 1_555
N11 Ru6 1.878239 1_555
N12 Ru12 1.871475 1_555
N12 Ru1 1.878239 1_555
N13 Ru13 1.871475 1_555
N13 Ru0 1.878239 1_565
N14 Ru14 1.871475 1_555
N14 Ru3 1.878239 1_545
N15 Ru15 1.871475 1_555
N15 Ru2 1.878239 1_555
N16 Ru0 1.878351 1_555
N16 Ru8 1.915162 1_555
N17 Ru1 1.878351 1_555
N17 Ru9 1.915162 1_555
N18 Ru2 1.878351 1_555
N18 Ru10 1.915162 1_555
N19 Ru3 1.878351 1_555
N19 Ru11 1.915162 1_555
N20 Ru4 1.878351 1_555
N20 Ru12 1.915162 1_555
N21 Ru5 1.878351 1_555
N21 Ru13 1.915162 1_555
N22 Ru6 1.878351 1_555
N22 Ru14 1.915162 1_555
N23 Ru7 1.878351 1_555
N23 Ru15 1.915162 1_555
N24 Ru5 1.889444 1_555
N24 Ru2 1.890938 1_555
N25 Ru4 1.889444 1_545
N25 Ru3 1.890938 1_445
N26 Ru7 1.889444 1_565
N26 Ru0 1.890938 1_565
N27 Ru6 1.889444 1_555
N27 Ru1 1.890938 1_655
N28 Ru1 1.889444 1_555
N28 Ru6 1.890938 1_555
N29 Ru0 1.889444 1_565
N29 Ru7 1.890938 1_665
N30 Ru3 1.889444 1_545
N30 Ru4 1.890938 1_545
N31 Ru2 1.889444 1_555
N31 Ru5 1.890938 1_455
