# generated using pymatgen
data_BaSrCeHfO6
_symmetry_space_group_name_H-M   'P 1'
_cell_length_a   8.58173361
_cell_length_b   8.58226683
_cell_length_c   8.57373087
_cell_angle_alpha   90.00000000
_cell_angle_beta   90.00000000
_cell_angle_gamma   90.00000000
_symmetry_Int_Tables_number   1
_chemical_formula_structural   BaSrCeHfO6
_chemical_formula_sum   'Ba4 Sr4 Ce4 Hf4 O24'
_cell_volume   631.46151772
_cell_formula_units_Z   4
loop_
 _symmetry_equiv_pos_site_id
 _symmetry_equiv_pos_as_xyz
  1  'x, y, z'
loop_
 _atom_site_type_symbol
 _atom_site_label
 _atom_site_symmetry_multiplicity
 _atom_site_fract_x
 _atom_site_fract_y
 _atom_site_fract_z
 _atom_site_occupancy
  Ba  Ba0  1  -0.00000000  -0.00000000  0.00000000  1
  Ba  Ba1  1  0.50000000  0.50000000  0.50000000  1
  Ba  Ba2  1  0.00000000  0.50000000  0.00000000  1
  Ba  Ba3  1  0.00000000  -0.00000000  0.50000000  1
  Sr  Sr0  1  -0.00000000  0.50000000  0.50000000  1
  Sr  Sr1  1  0.50000000  -0.00000000  0.50000000  1
  Sr  Sr2  1  0.50000000  0.50000000  0.00000000  1
  Sr  Sr3  1  0.50000000  -0.00000000  0.00000000  1
  Ce  Ce0  1  0.74727591  0.74950143  0.74981580  1
  Ce  Ce1  1  0.25272409  0.25049857  0.74981580  1
  Ce  Ce2  1  0.25272409  0.74950143  0.25018420  1
  Ce  Ce3  1  0.74727591  0.25049857  0.25018420  1
  Hf  Hf0  1  0.25328730  0.25052591  0.25013961  1
  Hf  Hf1  1  0.74671270  0.74947409  0.25013961  1
  Hf  Hf2  1  0.74671270  0.25052591  0.74986039  1
  Hf  Hf3  1  0.25328730  0.74947409  0.74986039  1
  O  O0  1  0.01015267  0.22443757  0.27282411  1
  O  O1  1  0.98984733  0.77556243  0.27282411  1
  O  O2  1  0.98984733  0.22443757  0.72717589  1
  O  O3  1  0.01015267  0.77556243  0.72717589  1
  O  O4  1  0.28438767  0.00950722  0.21675138  1
  O  O5  1  0.28438767  0.99049278  0.78324862  1
  O  O6  1  0.71561233  0.99049278  0.21675138  1
  O  O7  1  0.71561233  0.00950722  0.78324862  1
  O  O8  1  0.22663842  0.27568948  0.00867446  1
  O  O9  1  0.77336158  0.27568948  0.99132554  1
  O  O10  1  0.22663842  0.72431052  0.99132554  1
  O  O11  1  0.77336158  0.72431052  0.00867446  1
  O  O12  1  0.49126622  0.28953017  0.21588569  1
  O  O13  1  0.50873378  0.71046983  0.21588569  1
  O  O14  1  0.50873378  0.28953017  0.78411431  1
  O  O15  1  0.49126622  0.71046983  0.78411431  1
  O  O16  1  0.21935468  0.49023995  0.28847356  1
  O  O17  1  0.21935468  0.50976005  0.71152644  1
  O  O18  1  0.78064532  0.50976005  0.28847356  1
  O  O19  1  0.78064532  0.49023995  0.71152644  1
  O  O20  1  0.28892359  0.21511871  0.49006346  1
  O  O21  1  0.71107641  0.21511871  0.50993654  1
  O  O22  1  0.28892359  0.78488129  0.50993654  1
  O  O23  1  0.71107641  0.78488129  0.49006346  1
loop_
_geom_bond_atom_site_label_1
_geom_bond_atom_site_label_2
_geom_bond_distance
_geom_bond_site_symmetry_2
Ba0 O3 3.031379 1_544
Ba0 O1 3.031379 1_445
Ba0 O2 3.031379 1_454
Ba0 O0 3.031379 1_555
Ba0 O10 3.063742 1_544
Ba0 O11 3.063742 1_445
Ba0 O8 3.063742 1_555
Ba0 O9 3.063742 1_454
Ba0 O7 3.068619 1_454
Ba0 O5 3.068619 1_544
Ba0 O6 3.068619 1_445
Ba0 O4 3.068619 1_555
Ba1 O17 3.016050 1_555
Ba1 O18 3.016050 1_555
Ba1 O19 3.016050 1_555
Ba1 O16 3.016050 1_555
Ba1 O15 3.033492 1_555
Ba1 O14 3.033492 1_555
Ba1 O12 3.033492 1_555
Ba1 O13 3.033492 1_555
Ba1 O21 3.044027 1_555
Ba1 O20 3.044027 1_555
Ba1 O23 3.044027 1_555
Ba1 O22 3.044027 1_555
Ba2 O9 2.737580 1_454
Ba2 O10 2.737580 1_554
Ba2 O8 2.737580 1_555
Ba2 O11 2.737580 1_455
Ba2 O18 3.109308 1_455
Ba2 O19 3.109308 1_454
Ba2 O16 3.109308 1_555
Ba2 O17 3.109308 1_554
Ba2 O3 3.327471 1_554
Ba2 O2 3.327471 1_454
Ba2 O1 3.327471 1_455
Ba2 O0 3.327471 1_555
Ba3 O1 2.740708 1_445
Ba3 O3 2.740708 1_545
Ba3 O0 2.740708 1_555
Ba3 O2 2.740708 1_455
Ba3 O22 3.092488 1_545
Ba3 O23 3.092488 1_445
Ba3 O20 3.092488 1_555
Ba3 O21 3.092488 1_455
Ce0 O11 2.241098 1_556
Ce0 O15 2.241768 1_555
Ce0 O7 2.266125 1_565
Ce0 O19 2.267295 1_555
Ce0 O23 2.269017 1_555
Ce0 O3 2.275294 1_655
Ce1 O8 2.241098 1_556
Ce1 O14 2.241768 1_555
Ce1 O5 2.266125 1_545
Ce1 O17 2.267295 1_555
Ce1 O20 2.269017 1_555
Ce1 O2 2.275294 1_455
Ce2 O10 2.241098 1_554
Ce2 O13 2.241768 1_555
Ce2 O4 2.266125 1_565
Ce2 O16 2.267295 1_555
Ce2 O22 2.269017 1_555
Ce2 O1 2.275294 1_455
Ce3 O9 2.241098 1_554
Ce3 O12 2.241768 1_555
Ce3 O6 2.266125 1_545
Ce3 O18 2.267295 1_555
Ce3 O21 2.269017 1_555
Ce3 O0 2.275294 1_655
Hf0 O12 2.090258 1_555
Hf0 O8 2.094016 1_555
Hf0 O20 2.101735 1_555
Hf0 O16 2.103630 1_555
Hf0 O4 2.105188 1_555
Hf0 O0 2.107489 1_555
Hf1 O13 2.090258 1_555
Hf1 O11 2.094016 1_555
Hf1 O23 2.101735 1_555
Hf1 O18 2.103630 1_555
Hf1 O6 2.105188 1_555
Hf1 O1 2.107489 1_555
Hf2 O14 2.090258 1_555
Hf2 O9 2.094016 1_555
Hf2 O21 2.101735 1_555
Hf2 O19 2.103630 1_555
Hf2 O7 2.105188 1_555
Hf2 O2 2.107489 1_555
Hf3 O15 2.090258 1_555
Hf3 O10 2.094016 1_555
Hf3 O22 2.101735 1_555
Hf3 O17 2.103630 1_555
Hf3 O5 2.105188 1_555
Hf3 O3 2.107489 1_555
O0 Sr0 3.065011 1_555
O1 Sr0 3.065011 1_655
O2 Sr0 3.065011 1_655
O3 Sr0 3.065011 1_555
O4 Sr3 2.623719 1_555
O4 Sr1 3.054172 1_555
O5 Sr3 2.623719 1_566
O5 Sr1 3.054172 1_565
O6 Sr3 2.623719 1_565
O6 Sr1 3.054172 1_565
O7 Sr3 2.623719 1_556
O7 Sr1 3.054172 1_555
O8 Sr2 3.035595 1_555
O9 Sr2 3.035595 1_556
O10 Sr2 3.035595 1_556
O11 Sr2 3.035595 1_555
O12 Sr2 2.587348 1_555
O12 Sr3 3.099351 1_555
O13 Sr2 2.587348 1_555
O13 Sr3 3.099351 1_565
O14 Sr2 2.587348 1_556
O14 Sr3 3.099351 1_556
O15 Sr2 2.587348 1_556
O15 Sr3 3.099351 1_566
O16 Sr0 2.615272 1_555
O17 Sr0 2.615272 1_555
O18 Sr0 2.615272 1_655
O19 Sr0 2.615272 1_655
O20 Sr1 2.587839 1_555
O21 Sr1 2.587839 1_555
O22 Sr1 2.587839 1_565
O23 Sr1 2.587839 1_565
