# generated using pymatgen
data_Li7Mn2(CoO4)3
_symmetry_space_group_name_H-M   'P 1'
_cell_length_a   2.87710100
_cell_length_b   5.82801500
_cell_length_c   13.16233953
_cell_angle_alpha   77.40858801
_cell_angle_beta   90.00000000
_cell_angle_gamma   90.00000000
_symmetry_Int_Tables_number   1
_chemical_formula_structural   Li7Mn2(CoO4)3
_chemical_formula_sum   'Li7 Mn2 Co3 O12'
_cell_volume   215.39527943
_cell_formula_units_Z   1
loop_
 _symmetry_equiv_pos_site_id
 _symmetry_equiv_pos_as_xyz
  1  'x, y, z'
loop_
 _atom_site_type_symbol
 _atom_site_label
 _atom_site_symmetry_multiplicity
 _atom_site_fract_x
 _atom_site_fract_y
 _atom_site_fract_z
 _atom_site_occupancy
  Li  Li0  1  0.00000000  0.15516900  0.68695100  1
  Li  Li1  1  0.50000000  0.98970900  0.51133600  1
  Li  Li2  1  0.00000000  0.82930400  0.33571400  1
  Li  Li3  1  0.50000000  0.67040500  0.16036100  1
  Li  Li4  1  0.00000000  0.51661900  0.98026800  1
  Li  Li5  1  0.50000000  0.33263000  0.83104900  1
  Li  Li6  1  0.50000000  0.84236100  0.83241000  1
  Mn  Mn0  1  0.00000000  0.00023700  0.99210500  1
  Mn  Mn1  1  0.00000000  0.33757300  0.32934100  1
  Co  Co0  1  0.00000000  0.66271700  0.68697900  1
  Co  Co1  1  0.50000000  0.49949100  0.50548400  1
  Co  Co2  1  0.50000000  0.15994900  0.16284700  1
  O  O0  1  0.00000000  0.72031100  0.49673900  1
  O  O1  1  0.50000000  0.56159300  0.32628000  1
  O  O2  1  0.00000000  0.39728300  0.17927700  1
  O  O3  1  0.50000000  0.22911600  0.00178000  1
  O  O4  1  0.00000000  0.07891800  0.85040500  1
  O  O5  1  0.50000000  0.89983200  0.66467300  1
  O  O6  1  0.00000000  0.58877200  0.82583100  1
  O  O7  1  0.50000000  0.43376200  0.66375700  1
  O  O8  1  0.00000000  0.28232100  0.48463400  1
  O  O9  1  0.50000000  0.10693800  0.33402200  1
  O  O10  1  0.00000000  0.93142800  0.15724300  1
  O  O11  1  0.50000000  0.77356300  0.00051400  1
loop_
_geom_bond_atom_site_label_1
_geom_bond_atom_site_label_2
_geom_bond_distance
_geom_bond_site_symmetry_2
Li0 O4 2.099838 1_555
Li0 O5 2.135445 1_545
Li0 O5 2.135445 1_445
Li0 O7 2.140733 1_455
Li0 O7 2.140733 1_555
Li0 O8 2.603872 1_555
Li1 O5 1.971516 1_555
Li1 O0 2.168625 1_555
Li1 O0 2.168625 1_655
Li1 O8 2.199964 1_565
Li1 O8 2.199964 1_665
Li1 O9 2.284406 1_565
Li2 O0 2.075728 1_555
Li2 O1 2.145603 1_455
Li2 O1 2.145603 1_555
Li2 O9 2.161554 1_565
Li2 O9 2.161554 1_465
Li2 O10 2.294104 1_555
Li3 O11 2.058301 1_555
Li3 O10 2.087602 1_655
Li3 O10 2.087602 1_555
Li3 O2 2.119510 1_555
Li3 O2 2.119510 1_655
Li3 O1 2.137213 1_555
Li4 O6 1.983992 1_555
Li4 O11 2.134679 1_456
Li4 O11 2.134679 1_556
Li4 O3 2.179516 1_556
Li4 O3 2.179516 1_456
Li4 O2 2.559454 1_556
Li5 O4 2.038740 1_555
Li5 O4 2.038740 1_655
Li5 O6 2.063466 1_655
Li5 O6 2.063466 1_555
Li5 O7 2.151778 1_555
Li5 O3 2.196102 1_556
Li6 O4 2.041714 1_565
Li6 O4 2.041714 1_665
Li6 O6 2.077733 1_655
Li6 O6 2.077733 1_555
Li6 O5 2.159677 1_555
Li6 O11 2.160960 1_556
Mn0 O4 1.820988 1_555
Mn0 O11 1.939878 1_446
Mn0 O11 1.939878 1_546
Mn0 O3 1.984697 1_556
Mn0 O3 1.984697 1_456
Mn0 O10 2.122576 1_546
Mn1 O2 1.929457 1_555
Mn1 O1 1.937185 1_555
Mn1 O1 1.937185 1_455
Mn1 O9 1.960571 1_455
Mn1 O9 1.960571 1_555
Mn1 O8 1.998684 1_555
Co0 O6 1.783959 1_555
Co0 O5 1.971905 1_455
Co0 O5 1.971905 1_555
Co0 O7 2.030067 1_455
Co0 O7 2.030067 1_555
Co0 O0 2.452805 1_555
Co1 O0 1.916849 1_555
Co1 O0 1.916849 1_655
Co1 O8 1.974361 1_555
Co1 O8 1.974361 1_655
Co1 O7 2.034382 1_555
Co1 O1 2.307045 1_555
Co2 O10 1.972677 1_545
Co2 O10 1.972677 1_645
Co2 O2 2.039562 1_655
Co2 O2 2.039562 1_555
Co2 O3 2.069873 1_555
Co2 O9 2.206413 1_555
