# generated using pymatgen
data_Li9Mn2Co5O16
_symmetry_space_group_name_H-M   'P 1'
_cell_length_a   5.79421100
_cell_length_b   6.60290662
_cell_length_c   7.79187735
_cell_angle_alpha   85.85740696
_cell_angle_beta   78.55291634
_cell_angle_gamma   77.20015165
_symmetry_Int_Tables_number   1
_chemical_formula_structural   Li9Mn2Co5O16
_chemical_formula_sum   'Li9 Mn2 Co5 O16'
_cell_volume   284.79149590
_cell_formula_units_Z   1
loop_
 _symmetry_equiv_pos_site_id
 _symmetry_equiv_pos_as_xyz
  1  'x, y, z'
loop_
 _atom_site_type_symbol
 _atom_site_label
 _atom_site_symmetry_multiplicity
 _atom_site_fract_x
 _atom_site_fract_y
 _atom_site_fract_z
 _atom_site_occupancy
  Li  Li0  1  0.81428300  0.61694200  0.12772800  1
  Li  Li1  1  0.94087100  0.87092500  0.38231300  1
  Li  Li2  1  0.68639200  0.38265100  0.86765400  1
  Li  Li3  1  0.55752000  0.12946200  0.62188600  1
  Li  Li4  1  0.43384700  0.87209200  0.38222800  1
  Li  Li5  1  0.31059700  0.61603300  0.13115500  1
  Li  Li6  1  0.19042600  0.37905000  0.86347100  1
  Li  Li7  1  0.06576300  0.13685800  0.62242200  1
  Li  Li8  1  0.24830000  0.49708100  0.49889100  1
  Mn  Mn0  1  0.00140300  0.00058700  0.00230500  1
  Mn  Mn1  1  0.61712500  0.25533400  0.25549700  1
  Co  Co0  1  0.12466500  0.24988400  0.25209100  1
  Co  Co1  1  0.37574900  0.74174900  0.74068200  1
  Co  Co2  1  0.50241400  0.99957600  0.99563100  1
  Co  Co3  1  0.75265300  0.50210200  0.49889400  1
  Co  Co4  1  0.88414400  0.73809800  0.74278000  1
  O  O0  1  0.72704300  0.95740800  0.17813600  1
  O  O1  1  0.84298100  0.19463400  0.41821700  1
  O  O2  1  0.58934100  0.70323900  0.92358800  1
  O  O3  1  0.48149900  0.44577300  0.68191400  1
  O  O4  1  0.34875500  0.18918600  0.41368900  1
  O  O5  1  0.21484100  0.95711600  0.17340300  1
  O  O6  1  0.08798000  0.71129900  0.93845200  1
  O  O7  1  0.95898800  0.45043700  0.69015000  1
  O  O8  1  0.90941700  0.28949500  0.07829800  1
  O  O9  1  0.02243500  0.53415200  0.31707600  1
  O  O10  1  0.78323900  0.05753000  0.83572500  1
  O  O11  1  0.66127800  0.80575300  0.56420900  1
  O  O12  1  0.53937000  0.53789300  0.30804900  1
  O  O13  1  0.40471100  0.30158100  0.08389600  1
  O  O14  1  0.26903500  0.05790400  0.82906200  1
  O  O15  1  0.15293400  0.81817800  0.58050700  1
loop_
_geom_bond_atom_site_label_1
_geom_bond_atom_site_label_2
_geom_bond_distance
_geom_bond_site_symmetry_2
Li0 O12 2.039117 1_555
Li0 O9 2.056168 1_655
Li0 O6 2.110659 1_654
Li0 O8 2.152868 1_555
Li0 O2 2.217302 1_554
Li0 O0 2.238043 1_555
Li1 O11 2.031705 1_555
Li1 O1 2.110634 1_565
Li1 O15 2.121751 1_655
Li1 O0 2.174808 1_555
Li1 O5 2.175862 1_655
Li1 O9 2.242498 1_655
Li2 O7 1.991160 1_555
Li2 O3 2.013283 1_555
Li2 O10 2.115011 1_555
Li2 O2 2.120292 1_555
Li2 O13 2.225894 1_556
Li2 O8 2.255214 1_556
Li3 O3 2.103962 1_555
Li3 O11 2.143394 1_545
Li3 O1 2.148081 1_555
Li3 O4 2.173821 1_555
Li3 O14 2.189050 1_555
Li3 O10 2.277659 1_555
Li4 O4 2.062939 1_565
Li4 O11 2.082128 1_555
Li4 O15 2.083768 1_555
Li4 O5 2.223727 1_555
Li4 O0 2.225895 1_555
Li4 O12 2.241327 1_555
Li5 O12 2.059744 1_555
Li5 O13 2.067136 1_555
Li5 O9 2.122617 1_555
Li5 O6 2.141691 1_554
Li5 O2 2.190110 1_554
Li5 O5 2.229189 1_555
Li6 O7 2.047216 1_455
Li6 O3 2.081337 1_555
Li6 O14 2.093218 1_555
Li6 O6 2.230921 1_555
Li6 O8 2.237080 1_456
Li6 O13 2.278431 1_556
Li7 O15 2.086237 1_545
Li7 O7 2.099772 1_455
Li7 O4 2.136490 1_555
Li7 O14 2.147289 1_555
Li7 O1 2.202930 1_455
Li7 O10 2.211494 1_455
Li8 O12 2.067905 1_555
Li8 O7 2.072849 1_455
Li8 O9 2.079300 1_555
Li8 O4 2.104739 1_555
Li8 O3 2.113406 1_555
Li8 O15 2.177409 1_555
Mn0 O14 1.930156 1_554
Mn0 O6 1.939457 1_544
Mn0 O0 1.940457 1_445
Mn0 O10 1.947863 1_454
Mn0 O5 1.957303 1_545
Mn0 O8 1.964986 1_455
Mn1 O12 1.875162 1_555
Mn1 O4 1.894853 1_555
Mn1 O13 1.955390 1_555
Mn1 O1 1.957945 1_555
Mn1 O8 2.005403 1_555
Mn1 O0 2.025479 1_545
Co0 O9 1.912067 1_555
Co0 O4 1.943566 1_555
Co0 O13 1.950322 1_555
Co0 O1 1.956919 1_455
Co0 O8 1.983015 1_455
Co0 O5 1.995600 1_545
Co1 O15 1.933649 1_555
Co1 O3 1.972754 1_555
Co1 O11 2.032078 1_555
Co1 O2 2.033654 1_555
Co1 O6 2.068624 1_555
Co1 O14 2.163594 1_565
Co2 O10 1.936182 1_565
Co2 O2 2.001801 1_555
Co2 O5 2.002121 1_556
Co2 O14 2.013717 1_565
Co2 O0 2.076217 1_556
Co2 O13 2.076864 1_566
Co3 O9 1.928625 1_655
Co3 O3 1.983282 1_555
Co3 O11 2.032087 1_555
Co3 O7 2.054157 1_555
Co3 O12 2.084132 1_555
Co3 O1 2.091344 1_555
Co4 O7 1.908120 1_555
Co4 O15 1.946935 1_655
Co4 O2 2.031681 1_555
Co4 O11 2.042273 1_555
Co4 O6 2.081819 1_655
Co4 O10 2.195718 1_565
