# generated using pymatgen
data_NdPu3
_symmetry_space_group_name_H-M   'P 1'
_cell_length_a   5.39299200
_cell_length_b   6.82567300
_cell_length_c   6.91328578
_cell_angle_alpha   60.44555402
_cell_angle_beta   90.00000000
_cell_angle_gamma   90.00000000
_symmetry_Int_Tables_number   1
_chemical_formula_structural   NdPu3
_chemical_formula_sum   'Nd2 Pu6'
_cell_volume   221.37205212
_cell_formula_units_Z   2
loop_
 _symmetry_equiv_pos_site_id
 _symmetry_equiv_pos_as_xyz
  1  'x, y, z'
loop_
 _atom_site_type_symbol
 _atom_site_label
 _atom_site_symmetry_multiplicity
 _atom_site_fract_x
 _atom_site_fract_y
 _atom_site_fract_z
 _atom_site_occupancy
  Nd  Nd0  1  0.50000000  0.66332000  0.68775100  1
  Nd  Nd1  1  0.00000000  0.34213900  0.31251600  1
  Pu  Pu0  1  0.00000000  0.31065400  0.82313200  1
  Pu  Pu1  1  0.00000000  0.83150300  0.33178900  1
  Pu  Pu2  1  0.00000000  0.85738400  0.84873300  1
  Pu  Pu3  1  0.50000000  0.69384700  0.16059200  1
  Pu  Pu4  1  0.50000000  0.17191300  0.66519700  1
  Pu  Pu5  1  0.50000000  0.12923600  0.17029100  1
loop_
_geom_bond_atom_site_label_1
_geom_bond_atom_site_label_2
_geom_bond_distance
_geom_bond_site_symmetry_2
Nd0 Pu3 3.376531 1_556
Nd0 Pu4 3.397289 1_565
Nd0 Pu5 3.418766 1_565
Nd0 Pu2 3.423239 1_655
Nd0 Pu2 3.423239 1_555
Nd0 Pu0 3.423309 1_655
Nd0 Pu0 3.423309 1_555
Nd0 Pu4 3.433772 1_555
Nd0 Pu1 3.443534 1_555
Nd0 Pu1 3.443534 1_655
Nd0 Pu5 3.524356 1_556
Nd0 Pu3 3.546259 1_555
Nd1 Pu2 3.394820 1_554
Nd1 Pu1 3.407931 1_555
Nd1 Pu3 3.413203 1_555
Nd1 Pu3 3.413203 1_455
Nd1 Pu1 3.421677 1_545
Nd1 Pu0 3.429131 1_555
Nd1 Pu5 3.429173 1_555
Nd1 Pu5 3.429173 1_455
Nd1 Pu4 3.430913 1_555
Nd1 Pu4 3.430913 1_455
Nd1 Pu0 3.494258 1_554
Nd1 Pu2 3.548223 1_545
Pu0 Pu2 3.010513 1_545
Pu0 Pu4 3.221810 1_455
Pu0 Pu4 3.221810 1_555
Pu0 Pu5 3.410676 1_456
Pu0 Pu5 3.410676 1_556
Pu0 Pu1 3.422942 1_546
Pu0 Pu1 3.502026 1_555
Pu0 Pu2 3.822201 1_555
Pu1 Pu5 3.226338 1_565
Pu1 Pu5 3.226338 1_465
Pu1 Pu2 3.255997 1_554
Pu1 Pu3 3.263696 1_455
Pu1 Pu3 3.263696 1_555
Pu1 Pu2 3.664141 1_555
Pu2 Pu3 3.284996 1_556
Pu2 Pu3 3.284996 1_456
Pu2 Pu4 3.286767 1_565
Pu2 Pu4 3.286767 1_465
Pu3 Pu5 3.005462 1_565
Pu3 Pu4 3.369357 1_564
Pu3 Pu4 3.549808 1_555
Pu3 Pu5 3.821222 1_555
Pu4 Pu5 3.357751 1_556
Pu4 Pu5 3.574104 1_555
