# generated using pymatgen
data_BaCa2In6O12
_symmetry_space_group_name_H-M   'P 1'
_cell_length_a   3.29155100
_cell_length_b   10.05594200
_cell_length_c   10.05611522
_cell_angle_alpha   60.00002000
_cell_angle_beta   89.99994603
_cell_angle_gamma   90.00014370
_symmetry_Int_Tables_number   1
_chemical_formula_structural   BaCa2In6O12
_chemical_formula_sum   'Ba1 Ca2 In6 O12'
_cell_volume   288.25995089
_cell_formula_units_Z   1
loop_
 _symmetry_equiv_pos_site_id
 _symmetry_equiv_pos_as_xyz
  1  'x, y, z'
loop_
 _atom_site_type_symbol
 _atom_site_label
 _atom_site_symmetry_multiplicity
 _atom_site_fract_x
 _atom_site_fract_y
 _atom_site_fract_z
 _atom_site_occupancy
  Ba  Ba0  1  0.66735000  0.99999700  0.99999300  1
  Ca  Ca0  1  0.74966400  0.66666900  0.66667900  1
  Ca  Ca1  1  0.24966300  0.33333200  0.33333300  1
  In  In0  1  0.75024900  0.35374700  0.65167100  1
  In  In1  1  0.75024700  0.99458800  0.35375300  1
  In  In2  1  0.75025000  0.65165500  0.99457900  1
  In  In3  1  0.24745400  0.64798200  0.34756000  1
  In  In4  1  0.24745300  0.00442600  0.64799100  1
  In  In5  1  0.24744400  0.34760400  0.00444600  1
  O  O0  1  0.74903700  0.13439100  0.46808300  1
  O  O1  1  0.74904500  0.39752100  0.13439100  1
  O  O2  1  0.74904200  0.46809300  0.39751800  1
  O  O3  1  0.24995800  0.86826600  0.53035900  1
  O  O4  1  0.24995900  0.60136900  0.86827900  1
  O  O5  1  0.24996100  0.53036000  0.60137400  1
  O  O6  1  0.74843900  0.88968400  0.80329300  1
  O  O7  1  0.74844400  0.30702600  0.88968500  1
  O  O8  1  0.74843300  0.80329100  0.30701300  1
  O  O9  1  0.24696100  0.10191900  0.18644800  1
  O  O10  1  0.24697200  0.71162500  0.10192500  1
  O  O11  1  0.24697500  0.18645600  0.71162700  1
loop_
_geom_bond_atom_site_label_1
_geom_bond_atom_site_label_2
_geom_bond_distance
_geom_bond_site_symmetry_2
Ba0 O6 2.721886 1_555
Ba0 O8 2.721959 1_556
Ba0 O7 2.722010 1_565
Ba0 O10 2.898616 1_556
Ba0 O11 2.898643 1_565
Ba0 O9 2.898723 1_566
Ba0 O10 3.182347 1_656
Ba0 O11 3.182365 1_665
Ba0 O9 3.182397 1_666
Ca0 O4 2.432143 1_555
Ca0 O3 2.432144 1_555
Ca0 O5 2.432212 1_555
Ca0 O3 2.433445 1_655
Ca0 O4 2.433462 1_655
Ca0 O5 2.433538 1_655
Ca1 O0 2.414398 1_555
Ca1 O1 2.414439 1_555
Ca1 O2 2.414449 1_555
Ca1 O0 2.417197 1_455
Ca1 O1 2.417216 1_455
Ca1 O2 2.417238 1_455
In0 O7 2.196605 1_555
In0 O11 2.202840 1_655
In0 O2 2.217085 1_555
In0 O11 2.218877 1_555
In0 O5 2.284116 1_655
In0 O5 2.285489 1_555
In1 O8 2.196734 1_555
In1 O9 2.202889 1_665
In1 O0 2.216891 1_565
In1 O9 2.218997 1_565
In1 O3 2.284113 1_655
In1 O3 2.285476 1_555
In2 O6 2.196651 1_555
In2 O10 2.202981 1_656
In2 O1 2.216890 1_556
In2 O10 2.219044 1_556
In2 O4 2.283966 1_655
In2 O4 2.285346 1_555
In3 O8 2.160230 1_455
In3 O8 2.165128 1_555
In3 O5 2.212416 1_555
In3 O10 2.220426 1_555
In3 O2 2.303757 1_455
In3 O2 2.311220 1_555
In4 O6 2.160153 1_445
In4 O6 2.165099 1_545
In4 O3 2.212193 1_545
In4 O11 2.220713 1_555
In4 O0 2.303946 1_455
In4 O0 2.311376 1_555
In5 O7 2.160324 1_454
In5 O7 2.165333 1_554
In5 O4 2.211952 1_554
In5 O9 2.220773 1_555
In5 O1 2.303635 1_455
In5 O1 2.311153 1_555
