# generated using pymatgen
data_K5UCr3H3NO17
_symmetry_space_group_name_H-M   'P 1'
_cell_length_a   6.09550011
_cell_length_b   12.26311568
_cell_length_c   27.67129772
_cell_angle_alpha   90.00000000
_cell_angle_beta   90.00000000
_cell_angle_gamma   90.00000000
_symmetry_Int_Tables_number   1
_chemical_formula_structural   K5UCr3H3NO17
_chemical_formula_sum   'K20 U4 Cr12 H12 N4 O68'
_cell_volume   2068.42460610
_cell_formula_units_Z   4
loop_
 _symmetry_equiv_pos_site_id
 _symmetry_equiv_pos_as_xyz
  1  'x, y, z'
loop_
 _atom_site_type_symbol
 _atom_site_label
 _atom_site_symmetry_multiplicity
 _atom_site_fract_x
 _atom_site_fract_y
 _atom_site_fract_z
 _atom_site_occupancy
  K  K0  1  0.50830731  0.00425901  0.32677249  1
  K  K1  1  0.99169269  0.99574099  0.82677249  1
  K  K2  1  0.49169269  0.50425901  0.17322751  1
  K  K3  1  0.00830731  0.49574099  0.67322751  1
  K  K4  1  0.03872674  0.81913182  0.45958684  1
  K  K5  1  0.46127326  0.18086818  0.95958684  1
  K  K6  1  0.96127326  0.31913182  0.04041316  1
  K  K7  1  0.53872674  0.68086818  0.54041316  1
  K  K8  1  0.20345887  0.31487612  0.53974049  1
  K  K9  1  0.29654113  0.68512388  0.03974049  1
  K  K10  1  0.79654113  0.81487612  0.96025951  1
  K  K11  1  0.70345887  0.18512388  0.46025951  1
  K  K12  1  0.51335749  0.17319845  0.12438598  1
  K  K13  1  0.98664251  0.82680155  0.62438598  1
  K  K14  1  0.48664251  0.67319845  0.37561402  1
  K  K15  1  0.01335749  0.32680155  0.87561402  1
  K  K16  1  0.47639655  0.35378032  0.33755405  1
  K  K17  1  0.02360345  0.64621968  0.83755405  1
  K  K18  1  0.52360345  0.85378032  0.16244595  1
  K  K19  1  0.97639655  0.14621968  0.66244595  1
  U  U0  1  0.03314835  0.01031745  0.21201405  1
  U  U1  1  0.46685165  0.98968255  0.71201405  1
  U  U2  1  0.96685165  0.51031745  0.28798595  1
  U  U3  1  0.53314835  0.48968255  0.78798595  1
  Cr  Cr0  1  0.05931167  0.31364909  0.18204242  1
  Cr  Cr1  1  0.44068833  0.68635091  0.68204242  1
  Cr  Cr2  1  0.94068833  0.81364909  0.31795758  1
  Cr  Cr3  1  0.55931167  0.18635091  0.81795758  1
  Cr  Cr4  1  0.08993822  0.01023805  0.07546911  1
  Cr  Cr5  1  0.41006178  0.98976195  0.57546911  1
  Cr  Cr6  1  0.91006178  0.51023805  0.42453089  1
  Cr  Cr7  1  0.58993822  0.48976195  0.92453089  1
  Cr  Cr8  1  0.00806975  0.69722413  0.16773571  1
  Cr  Cr9  1  0.49193025  0.30277587  0.66773571  1
  Cr  Cr10  1  0.99193025  0.19722413  0.33226429  1
  Cr  Cr11  1  0.50806975  0.80277587  0.83226429  1
  H  H0  1  0.41506402  0.38203730  0.44027053  1
  H  H1  1  0.08493598  0.61796270  0.94027053  1
  H  H2  1  0.58493598  0.88203730  0.05972947  1
  H  H3  1  0.91506402  0.11796270  0.55972947  1
  H  H4  1  0.51315037  0.20632064  0.26008282  1
  H  H5  1  0.98684963  0.79367936  0.76008282  1
  H  H6  1  0.48684963  0.70632064  0.23991718  1
  H  H7  1  0.01315037  0.29367936  0.73991718  1
  H  H8  1  0.17863937  0.14183187  0.46040681  1
  H  H9  1  0.32136063  0.85816813  0.96040681  1
  H  H10  1  0.82136063  0.64183187  0.03959319  1
  H  H11  1  0.67863937  0.35816813  0.53959319  1
  N  N0  1  0.45756479  0.41412212  0.05148986  1
  N  N1  1  0.04243521  0.58587788  0.55148986  1
  N  N2  1  0.54243521  0.91412212  0.44851014  1
  N  N3  1  0.95756479  0.08587788  0.94851014  1
  O  O0  1  0.23084267  0.68208814  0.13391854  1
  O  O1  1  0.26915733  0.31791186  0.63391854  1
  O  O2  1  0.76915733  0.18208814  0.36608146  1
  O  O3  1  0.73084267  0.81791186  0.86608146  1
  O  O4  1  0.47805301  0.11168712  0.55332450  1
  O  O5  1  0.02194699  0.88831288  0.05332450  1
  O  O6  1  0.52194699  0.61168712  0.94667550  1
  O  O7  1  0.97805301  0.38831288  0.44667550  1
  O  O8  1  0.19518284  0.02589568  0.73588896  1
  O  O9  1  0.30481716  0.97410432  0.23588896  1
  O  O10  1  0.80481716  0.52589568  0.76411104  1
  O  O11  1  0.69518284  0.47410432  0.26411104  1
  O  O12  1  0.46295392  0.31264807  0.04141577  1
  O  O13  1  0.03704608  0.68735193  0.54141577  1
  O  O14  1  0.53704608  0.81264807  0.45858423  1
  O  O15  1  0.96295392  0.18735193  0.95858423  1
  O  O16  1  0.29030635  0.06405245  0.04359392  1
  O  O17  1  0.20969365  0.93594755  0.54359392  1
  O  O18  1  0.70969365  0.56405245  0.45640608  1
  O  O19  1  0.79030635  0.43594755  0.95640608  1
  O  O20  1  0.18512959  0.99931611  0.13485808  1
  O  O21  1  0.31487041  0.00068389  0.63485808  1
  O  O22  1  0.81487041  0.49931611  0.36514192  1
  O  O23  1  0.68512959  0.50068389  0.86514192  1
  O  O24  1  0.21635911  0.16471026  0.36178844  1
  O  O25  1  0.28364089  0.83528974  0.86178844  1
  O  O26  1  0.78364089  0.66471026  0.13821156  1
  O  O27  1  0.71635911  0.33528974  0.63821156  1
  O  O28  1  0.11884042  0.59489181  0.42489624  1
  O  O29  1  0.38115958  0.40510819  0.92489624  1
  O  O30  1  0.88115958  0.09489181  0.07510376  1
  O  O31  1  0.61884042  0.90510819  0.57510376  1
  O  O32  1  0.14969467  0.18587318  0.19585205  1
  O  O33  1  0.35030533  0.81412682  0.69585205  1
  O  O34  1  0.85030533  0.68587318  0.30414795  1
  O  O35  1  0.64969467  0.31412682  0.80414795  1
  O  O36  1  0.13167942  0.40249554  0.22601125  1
  O  O37  1  0.36832058  0.59750446  0.72601125  1
  O  O38  1  0.86832058  0.90249554  0.27398875  1
  O  O39  1  0.63167942  0.09750446  0.77398875  1
  O  O40  1  0.03467151  0.61857151  0.21702233  1
  O  O41  1  0.46532849  0.38142849  0.71702233  1
  O  O42  1  0.96532849  0.11857151  0.28297767  1
  O  O43  1  0.53467151  0.88142849  0.78297767  1
  O  O44  1  0.29553697  0.47078501  0.03816623  1
  O  O45  1  0.20446303  0.52921499  0.53816623  1
  O  O46  1  0.70446303  0.97078501  0.46183377  1
  O  O47  1  0.79553697  0.02921499  0.96183377  1
  O  O48  1  0.79438143  0.31459724  0.17357511  1
  O  O49  1  0.70561857  0.68540276  0.67357511  1
  O  O50  1  0.20561857  0.81459724  0.32642489  1
  O  O51  1  0.29438143  0.18540276  0.82642489  1
  O  O52  1  0.61357295  0.45680486  0.07504403  1
  O  O53  1  0.88642705  0.54319514  0.57504403  1
  O  O54  1  0.38642705  0.95680486  0.42495597  1
  O  O55  1  0.11357295  0.04319514  0.92495597  1
  O  O56  1  0.18513265  0.35041525  0.13209315  1
  O  O57  1  0.31486735  0.64958475  0.63209315  1
  O  O58  1  0.81486735  0.85041525  0.36790685  1
  O  O59  1  0.68513265  0.14958475  0.86790685  1
  O  O60  1  0.24049578  0.53968553  0.31265563  1
  O  O61  1  0.25950422  0.46031447  0.81265563  1
  O  O62  1  0.75950422  0.03968553  0.18734437  1
  O  O63  1  0.74049578  0.96031447  0.68734437  1
  O  O64  1  0.01468976  0.32926316  0.31576741  1
  O  O65  1  0.48531024  0.67073684  0.81576741  1
  O  O66  1  0.98531024  0.82926316  0.18423259  1
  O  O67  1  0.51468976  0.17073684  0.68423259  1
loop_
_geom_bond_atom_site_label_1
_geom_bond_atom_site_label_2
_geom_bond_distance
_geom_bond_site_symmetry_2
K0 O24 2.824409 1_555
K0 O9 2.828395 1_545
K0 O54 2.876097 1_545
K0 O58 2.889060 1_545
K0 O2 2.909797 1_555
K0 O38 2.916563 1_545
K0 O50 2.968807 1_545
K1 O25 2.824409 1_655
K1 O8 2.828395 1_665
K1 O55 2.876097 1_665
K1 O59 2.889060 1_565
K1 O3 2.909797 1_555
K1 O39 2.916563 1_565
K1 O51 2.968807 1_665
K2 O26 2.824409 1_555
K2 O11 2.828395 1_555
K2 O52 2.876097 1_555
K2 O56 2.889060 1_555
K2 O0 2.909797 1_555
K2 O36 2.916563 1_555
K2 O48 2.968807 1_555
K3 O27 2.824409 1_455
K3 O10 2.828395 1_455
K3 O53 2.876097 1_455
K3 O57 2.889060 1_555
K3 O1 2.909797 1_555
K3 O37 2.916563 1_555
K3 O49 2.968807 1_455
K4 O46 2.759334 1_455
K4 O13 2.781866 1_555
K4 O54 2.874117 1_555
K4 O58 2.906030 1_455
K4 O17 2.922645 1_555
K4 O28 2.953267 1_555
K4 O14 3.038673 1_555
K4 O14 3.059154 1_455
K5 O47 2.759334 1_555
K5 O12 2.781866 1_556
K5 O55 2.874117 1_555
K5 O59 2.906030 1_555
K5 O16 2.922645 1_556
K5 O29 2.953267 1_555
K5 O15 3.038673 1_455
K5 O15 3.059154 1_555
K6 O44 2.759334 1_655
K6 O15 2.781866 1_554
K6 O52 2.874117 1_555
K6 O56 2.906030 1_655
K6 O19 2.922645 1_554
K6 O30 2.953267 1_555
K6 O12 3.038673 1_555
K6 O12 3.059154 1_655
K7 O45 2.759334 1_555
K7 O14 2.781866 1_555
K7 O53 2.874117 1_555
K7 O57 2.906030 1_555
K7 O18 2.922645 1_555
K7 O31 2.953267 1_555
K7 O13 3.038673 1_655
K7 O13 3.059154 1_555
K8 O45 2.628830 1_555
K8 O1 2.636882 1_555
K9 O44 2.628830 1_555
K9 O0 2.636882 1_555
K10 O47 2.628830 1_565
K10 O3 2.636882 1_555
K11 O46 2.628830 1_545
K11 O2 2.636882 1_555
K12 O48 2.791719 1_555
K12 O30 2.794300 1_555
K12 O62 2.822573 1_555
K12 O12 2.879222 1_555
K12 O20 2.938315 1_545
K12 O16 2.939054 1_555
K12 O56 2.961620 1_555
K12 O32 2.974674 1_555
K13 O49 2.791719 1_555
K13 O31 2.794300 1_555
K13 O63 2.822573 1_555
K13 O13 2.879222 1_655
K13 O21 2.938315 1_665
K13 O17 2.939054 1_655
K13 O57 2.961620 1_655
K13 O33 2.974674 1_655
K14 O50 2.791719 1_555
K14 O28 2.794300 1_555
K14 O60 2.822573 1_555
K14 O14 2.879222 1_555
K14 O22 2.938315 1_555
K14 O18 2.939054 1_555
K14 O58 2.961620 1_555
K14 O34 2.974674 1_555
K15 O51 2.791719 1_555
K15 O29 2.794300 1_555
K15 O61 2.822573 1_555
K15 O15 2.879222 1_455
K15 O23 2.938315 1_455
K15 O19 2.939054 1_455
K15 O59 2.961620 1_455
K15 O35 2.974674 1_455
K16 O60 2.782035 1_555
K16 O22 2.832783 1_555
K16 O11 2.843564 1_555
K16 O2 2.870664 1_555
K16 O24 2.887553 1_555
K16 O64 2.893841 1_555
K17 O61 2.782035 1_555
K17 O23 2.832783 1_455
K17 O10 2.843564 1_455
K17 O3 2.870664 1_455
K17 O25 2.887553 1_555
K17 O65 2.893841 1_555
K18 O62 2.782035 1_565
K18 O20 2.832783 1_555
K18 O9 2.843564 1_555
K18 O0 2.870664 1_555
K18 O26 2.887553 1_555
K18 O66 2.893841 1_555
K19 O63 2.782035 1_545
K19 O21 2.832783 1_655
K19 O8 2.843564 1_655
K19 O1 2.870664 1_655
K19 O27 2.887553 1_555
K19 O67 2.893841 1_555
Cr0 O48 1.631832 1_455
Cr0 O56 1.643731 1_555
Cr0 O36 1.691735 1_555
Cr0 O32 1.704353 1_555
Cr1 O49 1.631832 1_555
Cr1 O57 1.643731 1_555
Cr1 O37 1.691735 1_555
Cr1 O33 1.704353 1_555
Cr2 O50 1.631832 1_655
Cr2 O58 1.643731 1_555
Cr2 O38 1.691735 1_555
Cr2 O34 1.704353 1_555
Cr3 O51 1.631832 1_555
Cr3 O59 1.643731 1_555
Cr3 O39 1.691735 1_555
Cr3 O35 1.704353 1_555
Cr4 O30 1.642355 1_455
Cr4 O16 1.644739 1_555
Cr4 O5 1.668178 1_545
Cr4 O20 1.747936 1_545
Cr5 O31 1.642355 1_555
Cr5 O17 1.644739 1_555
Cr5 O4 1.668178 1_565
Cr5 O21 1.747936 1_565
Cr6 O28 1.642355 1_655
Cr6 O18 1.644739 1_555
Cr6 O7 1.668178 1_555
Cr6 O22 1.747936 1_555
Cr7 O29 1.642355 1_555
Cr7 O19 1.644739 1_555
Cr7 O6 1.668178 1_555
Cr7 O23 1.747936 1_555
Cr8 O26 1.642517 1_455
Cr8 O0 1.659528 1_555
Cr8 O40 1.678279 1_555
Cr8 O66 1.688037 1_455
Cr9 O27 1.642517 1_555
Cr9 O1 1.659528 1_555
Cr9 O41 1.678279 1_555
Cr9 O67 1.688037 1_555
Cr10 O24 1.642517 1_655
Cr10 O2 1.659528 1_555
Cr10 O42 1.678279 1_555
Cr10 O64 1.688037 1_655
Cr11 O25 1.642517 1_555
Cr11 O3 1.659528 1_555
Cr11 O43 1.678279 1_555
Cr11 O65 1.688037 1_555
H0 K16 2.887646 1_555
H1 K17 2.887646 1_555
H2 K18 2.887646 1_555
H3 K19 2.887646 1_555
H4 K16 2.813498 1_555
H5 K17 2.813498 1_655
H6 K18 2.813498 1_555
H7 K19 2.813498 1_455
H8 K11 2.944718 1_455
H8 K8 3.056996 1_555
H9 K10 2.944718 1_555
H9 K9 3.056996 1_556
H10 K9 2.944718 1_655
H10 K10 3.056996 1_554
H11 K8 2.944718 1_555
H11 K11 3.056996 1_555
N0 O44 1.262615 1_555
N0 O52 1.266129 1_555
N0 O12 1.275653 1_555
N1 O45 1.262615 1_555
N1 O53 1.266129 1_455
N1 O13 1.275653 1_555
N2 O46 1.262615 1_555
N2 O54 1.266129 1_555
N2 O14 1.275653 1_555
N3 O47 1.262615 1_555
N3 O55 1.266129 1_655
N3 O15 1.275653 1_555
O8 U1 1.837353 1_545
O9 U0 1.837353 1_565
O10 U3 1.837353 1_555
O11 U2 1.837353 1_555
O20 U0 2.331238 1_565
O21 U1 2.331238 1_545
O22 U2 2.331238 1_555
O23 U3 2.331238 1_555
O32 U0 2.310735 1_555
O33 U1 2.310735 1_555
O34 U2 2.310735 1_555
O35 U3 2.310735 1_555
O36 U2 2.387193 1_455
O37 U3 2.387193 1_555
O38 U0 2.387193 1_665
O39 U1 2.387193 1_545
O40 U2 2.406072 1_455
O41 U3 2.406072 1_555
O42 U0 2.406072 1_655
O43 U1 2.406072 1_555
O60 U2 1.837912 1_455
O61 U3 1.837912 1_555
O62 U0 1.837912 1_655
O63 U1 1.837912 1_555
O64 U2 2.367634 1_455
O65 U3 2.367634 1_555
O66 U0 2.367634 1_665
O67 U1 2.367634 1_545
