# generated using pymatgen
data_CaMnIrO6
_symmetry_space_group_name_H-M   'P 1'
_cell_length_a   5.35912100
_cell_length_b   5.22785600
_cell_length_c   9.12620422
_cell_angle_alpha   55.15452355
_cell_angle_beta   90.00000000
_cell_angle_gamma   90.00000000
_symmetry_Int_Tables_number   1
_chemical_formula_structural   CaMnIrO6
_chemical_formula_sum   'Ca2 Mn2 Ir2 O12'
_cell_volume   209.84066874
_cell_formula_units_Z   2
loop_
 _symmetry_equiv_pos_site_id
 _symmetry_equiv_pos_as_xyz
  1  'x, y, z'
loop_
 _atom_site_type_symbol
 _atom_site_label
 _atom_site_symmetry_multiplicity
 _atom_site_fract_x
 _atom_site_fract_y
 _atom_site_fract_z
 _atom_site_occupancy
  Ca  Ca0  1  0.69052500  0.76619200  0.74849900  1
  Ca  Ca1  1  0.30947500  0.76619200  0.24849900  1
  Mn  Mn0  1  0.75647900  0.00222500  0.00132400  1
  Mn  Mn1  1  0.24352100  0.00222500  0.50132400  1
  Ir  Ir0  1  0.75784900  0.50086100  0.50010100  1
  Ir  Ir1  1  0.24215100  0.50086100  0.00010100  1
  O  O0  1  0.74131700  0.66214300  0.24862900  1
  O  O1  1  0.45574600  0.83945800  0.95839800  1
  O  O2  1  0.45643700  0.25466100  0.54116300  1
  O  O3  1  0.94960400  0.74899500  0.95341400  1
  O  O4  1  0.95666100  0.15337400  0.54716900  1
  O  O5  1  0.23009500  0.33704300  0.25144800  1
  O  O6  1  0.25868300  0.66214300  0.74862900  1
  O  O7  1  0.54425400  0.83945800  0.45839800  1
  O  O8  1  0.54356300  0.25466100  0.04116300  1
  O  O9  1  0.04333900  0.15337400  0.04716900  1
  O  O10  1  0.05039600  0.74899500  0.45341400  1
  O  O11  1  0.76990500  0.33704300  0.75144800  1
loop_
_geom_bond_atom_site_label_1
_geom_bond_atom_site_label_2
_geom_bond_distance
_geom_bond_site_symmetry_2
Ca0 O11 2.268506 1_555
Ca0 O3 2.289317 1_555
Ca0 O4 2.292891 1_565
Ca0 O6 2.377205 1_555
Ca0 O2 2.480649 1_565
Ca0 O1 2.497536 1_555
Ca0 O7 2.571332 1_555
Ca0 O8 2.596810 1_556
Ca1 O5 2.268506 1_555
Ca1 O10 2.289317 1_555
Ca1 O9 2.292891 1_565
Ca1 O0 2.377205 1_555
Ca1 O8 2.480649 1_565
Ca1 O7 2.497536 1_555
Ca1 O1 2.571332 1_554
Ca1 O2 2.596810 1_555
Mn0 O9 1.881644 1_655
Mn0 O0 1.917293 1_545
Mn0 O3 1.917392 1_544
Mn0 O11 1.925616 1_554
Mn0 O8 1.929786 1_555
Mn0 O1 1.963652 1_544
Mn1 O4 1.881644 1_455
Mn1 O6 1.917293 1_545
Mn1 O10 1.917392 1_545
Mn1 O5 1.925616 1_555
Mn1 O2 1.929786 1_555
Mn1 O7 1.963652 1_545
Ir0 O10 1.921113 1_655
Ir0 O4 1.930826 1_555
Ir0 O11 1.937645 1_555
Ir0 O0 1.942806 1_555
Ir0 O7 1.954143 1_555
Ir0 O2 1.963437 1_555
Ir1 O3 1.921113 1_454
Ir1 O9 1.930826 1_555
Ir1 O5 1.937645 1_555
Ir1 O6 1.942806 1_554
Ir1 O1 1.954143 1_554
Ir1 O8 1.963437 1_555
