# generated using pymatgen
data_Ca4ZrTi3(SiO5)4
_symmetry_space_group_name_H-M   'P 1'
_cell_length_a   5.53044800
_cell_length_b   5.56689812
_cell_length_c   13.23126430
_cell_angle_alpha   92.35351762
_cell_angle_beta   92.16761049
_cell_angle_gamma   105.70931094
_symmetry_Int_Tables_number   1
_chemical_formula_structural   Ca4ZrTi3(SiO5)4
_chemical_formula_sum   'Ca4 Zr1 Ti3 Si4 O20'
_cell_volume   391.30274127
_cell_formula_units_Z   1
loop_
 _symmetry_equiv_pos_site_id
 _symmetry_equiv_pos_as_xyz
  1  'x, y, z'
loop_
 _atom_site_type_symbol
 _atom_site_label
 _atom_site_symmetry_multiplicity
 _atom_site_fract_x
 _atom_site_fract_y
 _atom_site_fract_z
 _atom_site_occupancy
  Ca  Ca0  1  0.95314300  0.28945000  0.13217100  1
  Ca  Ca1  1  0.45398800  0.79647300  0.62398200  1
  Ca  Ca2  1  0.54601200  0.20352700  0.37601800  1
  Ca  Ca3  1  0.04685700  0.71055000  0.86782900  1
  Zr  Zr0  1  0.50000000  0.50000000  0.00000000  1
  Ti  Ti0  1  0.00000000  0.00000000  0.50000000  1
  Ti  Ti1  1  0.74997700  0.74829600  0.25371800  1
  Ti  Ti2  1  0.25002300  0.25170400  0.74628200  1
  Si  Si0  1  0.19465600  0.55607100  0.37707300  1
  Si  Si1  1  0.70278000  0.06082700  0.87046300  1
  Si  Si2  1  0.29722000  0.93917300  0.12953700  1
  Si  Si3  1  0.80534400  0.44392900  0.62292700  1
  O  O0  1  0.41815900  0.54870800  0.29854600  1
  O  O1  1  0.91760200  0.04143000  0.78966400  1
  O  O2  1  0.28451200  0.15451000  0.04960100  1
  O  O3  1  0.79601400  0.66916900  0.54665200  1
  O  O4  1  0.08239800  0.95857000  0.21033600  1
  O  O5  1  0.58184100  0.45129200  0.70145400  1
  O  O6  1  0.20398600  0.33083100  0.45334800  1
  O  O7  1  0.71548800  0.84549000  0.95039900  1
  O  O8  1  0.80413400  0.94510100  0.37717500  1
  O  O9  1  0.29138500  0.44723400  0.86644600  1
  O  O10  1  0.70861500  0.55276600  0.13355400  1
  O  O11  1  0.19586600  0.05489900  0.62282500  1
  O  O12  1  0.23084100  0.66867600  0.06368800  1
  O  O13  1  0.74598800  0.17176400  0.55755400  1
  O  O14  1  0.92124300  0.49625900  0.31224800  1
  O  O15  1  0.42533500  0.00206800  0.80796500  1
  O  O16  1  0.25401200  0.82823600  0.44244600  1
  O  O17  1  0.76915900  0.33132400  0.93631200  1
  O  O18  1  0.57466500  0.99793200  0.19203500  1
  O  O19  1  0.07875700  0.50374100  0.68775200  1
loop_
_geom_bond_atom_site_label_1
_geom_bond_atom_site_label_2
_geom_bond_distance
_geom_bond_site_symmetry_2
Ca0 O10 2.247453 1_555
Ca0 O4 2.405625 1_645
Ca0 O2 2.438419 1_655
Ca0 O18 2.456390 1_545
Ca0 O12 2.478542 1_655
Ca0 O14 2.636300 1_555
Ca0 O17 2.789971 1_554
Ca1 O11 2.284731 1_565
Ca1 O3 2.437186 1_555
Ca1 O5 2.466964 1_555
Ca1 O19 2.467408 1_555
Ca1 O13 2.485230 1_565
Ca1 O16 2.638864 1_555
Ca1 O15 2.675737 1_565
Ca2 O8 2.284731 1_545
Ca2 O6 2.437186 1_555
Ca2 O0 2.466964 1_555
Ca2 O14 2.467408 1_555
Ca2 O16 2.485230 1_545
Ca2 O13 2.638864 1_555
Ca2 O18 2.675737 1_545
Ca3 O9 2.247453 1_555
Ca3 O1 2.405625 1_465
Ca3 O7 2.438419 1_455
Ca3 O15 2.456390 1_565
Ca3 O17 2.478542 1_455
Ca3 O19 2.636300 1_555
Ca3 O12 2.789971 1_556
O0 Si0 1.652328 1_555
O0 Ti1 1.996561 1_555
O1 Si1 1.649890 1_555
O1 Ti2 2.012269 1_655
O2 Si2 1.644605 1_545
O2 Zr0 2.114642 1_555
O3 Si3 1.651799 1_555
O3 Ti0 2.016561 1_665
O4 Si2 1.649890 1_555
O4 Ti1 2.012269 1_455
O5 Si3 1.652328 1_555
O5 Ti2 1.996561 1_555
O6 Si0 1.651799 1_555
O6 Ti0 2.016561 1_555
O7 Si1 1.644605 1_565
O7 Zr0 2.114642 1_556
O8 Ti0 1.885365 1_665
O8 Ti1 1.896481 1_555
O9 Ti2 1.860247 1_555
O9 Zr0 2.039513 1_556
O10 Ti1 1.860247 1_555
O10 Zr0 2.039513 1_555
O11 Ti0 1.885365 1_555
O11 Ti2 1.896481 1_555
O12 Si2 1.652300 1_555
O12 Zr0 2.143473 1_555
O13 Si3 1.659235 1_555
O13 Ti0 2.053335 1_655
O14 Si0 1.654925 1_655
O14 Ti1 2.053988 1_555
O15 Si1 1.659876 1_555
O15 Ti2 2.073719 1_555
O16 Si0 1.659235 1_555
O16 Ti0 2.053335 1_565
O17 Si1 1.652300 1_555
O17 Zr0 2.143473 1_556
O18 Si2 1.659876 1_555
O18 Ti1 2.073719 1_555
O19 Si3 1.654925 1_455
O19 Ti2 2.053988 1_555
