# generated using pymatgen
data_Nd6Al43V4
_symmetry_space_group_name_H-M   'P 1'
_cell_length_a   11.06945951
_cell_length_b   11.06945951
_cell_length_c   17.83025300
_cell_angle_alpha   90.00000000
_cell_angle_beta   90.00000000
_cell_angle_gamma   119.99999707
_symmetry_Int_Tables_number   1
_chemical_formula_structural   Nd6Al43V4
_chemical_formula_sum   'Nd12 Al86 V8'
_cell_volume   1892.08647873
_cell_formula_units_Z   2
loop_
 _symmetry_equiv_pos_site_id
 _symmetry_equiv_pos_as_xyz
  1  'x, y, z'
loop_
 _atom_site_type_symbol
 _atom_site_label
 _atom_site_symmetry_multiplicity
 _atom_site_fract_x
 _atom_site_fract_y
 _atom_site_fract_z
 _atom_site_occupancy
  Nd  Nd0  1  0.52854300  0.00000000  0.59554600  1
  Nd  Nd1  1  0.47145700  0.00000000  0.40445400  1
  Nd  Nd2  1  0.00000000  0.52854300  0.59554600  1
  Nd  Nd3  1  0.47145700  0.00000000  0.09554600  1
  Nd  Nd4  1  0.00000000  0.52854300  0.90445400  1
  Nd  Nd5  1  0.00000000  0.47145700  0.40445400  1
  Nd  Nd6  1  0.52854300  0.00000000  0.90445400  1
  Nd  Nd7  1  0.00000000  0.47145700  0.09554600  1
  Nd  Nd8  1  0.47145700  0.47145700  0.59554600  1
  Nd  Nd9  1  0.52854300  0.52854300  0.40445400  1
  Nd  Nd10  1  0.52854300  0.52854300  0.09554600  1
  Nd  Nd11  1  0.47145700  0.47145700  0.90445400  1
  Al  Al0  1  0.14609900  0.59796900  0.75000000  1
  Al  Al1  1  0.85390100  0.40203100  0.25000000  1
  Al  Al2  1  0.40203100  0.54813000  0.75000000  1
  Al  Al3  1  0.59796900  0.14609900  0.75000000  1
  Al  Al4  1  0.59796900  0.45187000  0.25000000  1
  Al  Al5  1  0.40203100  0.85390100  0.25000000  1
  Al  Al6  1  0.45187000  0.85390100  0.75000000  1
  Al  Al7  1  0.54813000  0.40203100  0.75000000  1
  Al  Al8  1  0.54813000  0.14609900  0.25000000  1
  Al  Al9  1  0.45187000  0.59796900  0.25000000  1
  Al  Al10  1  0.85390100  0.45187000  0.75000000  1
  Al  Al11  1  0.14609900  0.54813000  0.25000000  1
  Al  Al12  1  0.15461100  0.00000000  0.11617500  1
  Al  Al13  1  0.84538900  0.00000000  0.88382500  1
  Al  Al14  1  0.00000000  0.15461100  0.11617500  1
  Al  Al15  1  0.84538900  0.00000000  0.61617500  1
  Al  Al16  1  0.00000000  0.15461100  0.38382500  1
  Al  Al17  1  0.00000000  0.84538900  0.88382500  1
  Al  Al18  1  0.15461100  0.00000000  0.38382500  1
  Al  Al19  1  0.00000000  0.84538900  0.61617500  1
  Al  Al20  1  0.84538900  0.84538900  0.11617500  1
  Al  Al21  1  0.15461100  0.15461100  0.88382500  1
  Al  Al22  1  0.15461100  0.15461100  0.61617500  1
  Al  Al23  1  0.84538900  0.84538900  0.38382500  1
  Al  Al24  1  0.24709100  0.49418200  0.50000000  1
  Al  Al25  1  0.75290900  0.50581800  0.50000000  1
  Al  Al26  1  0.50581800  0.75290900  0.50000000  1
  Al  Al27  1  0.75290900  0.50581800  0.00000000  1
  Al  Al28  1  0.49418200  0.24709100  0.00000000  1
  Al  Al29  1  0.49418200  0.24709100  0.50000000  1
  Al  Al30  1  0.24709100  0.49418200  0.00000000  1
  Al  Al31  1  0.50581800  0.75290900  0.00000000  1
  Al  Al32  1  0.24709100  0.75290900  0.50000000  1
  Al  Al33  1  0.75290900  0.24709100  0.50000000  1
  Al  Al34  1  0.75290900  0.24709100  0.00000000  1
  Al  Al35  1  0.24709100  0.75290900  0.00000000  1
  Al  Al36  1  0.14398200  0.00000000  0.75000000  1
  Al  Al37  1  0.85601800  0.00000000  0.25000000  1
  Al  Al38  1  0.00000000  0.14398200  0.75000000  1
  Al  Al39  1  0.00000000  0.85601800  0.25000000  1
  Al  Al40  1  0.85601800  0.85601800  0.75000000  1
  Al  Al41  1  0.14398200  0.14398200  0.25000000  1
  Al  Al42  1  0.33333300  0.66666700  0.62848100  1
  Al  Al43  1  0.66666700  0.33333300  0.37151900  1
  Al  Al44  1  0.66666700  0.33333300  0.12848100  1
  Al  Al45  1  0.66666700  0.33333300  0.87151900  1
  Al  Al46  1  0.33333300  0.66666700  0.87151900  1
  Al  Al47  1  0.33333300  0.66666700  0.12848100  1
  Al  Al48  1  0.33333300  0.66666700  0.37151900  1
  Al  Al49  1  0.66666700  0.33333300  0.62848100  1
  Al  Al50  1  0.24965900  0.00000000  0.52965800  1
  Al  Al51  1  0.75034100  0.00000000  0.47034200  1
  Al  Al52  1  0.00000000  0.24965900  0.52965800  1
  Al  Al53  1  0.75034100  0.00000000  0.02965800  1
  Al  Al54  1  0.00000000  0.24965900  0.97034200  1
  Al  Al55  1  0.00000000  0.75034100  0.47034200  1
  Al  Al56  1  0.24965900  0.00000000  0.97034200  1
  Al  Al57  1  0.00000000  0.75034100  0.02965800  1
  Al  Al58  1  0.75034100  0.75034100  0.52965800  1
  Al  Al59  1  0.24965900  0.24965900  0.47034200  1
  Al  Al60  1  0.24965900  0.24965900  0.02965800  1
  Al  Al61  1  0.75034100  0.75034100  0.97034200  1
  Al  Al62  1  0.15696400  0.39033300  0.66746700  1
  Al  Al63  1  0.84303600  0.60966700  0.33253300  1
  Al  Al64  1  0.60966700  0.76663200  0.66746700  1
  Al  Al65  1  0.84303600  0.60966700  0.16746700  1
  Al  Al66  1  0.39033300  0.15696400  0.83253300  1
  Al  Al67  1  0.39033300  0.23336800  0.33253300  1
  Al  Al68  1  0.15696400  0.39033300  0.83253300  1
  Al  Al69  1  0.60966700  0.84303600  0.16746700  1
  Al  Al70  1  0.23336800  0.84303600  0.66746700  1
  Al  Al71  1  0.39033300  0.23336800  0.16746700  1
  Al  Al72  1  0.76663200  0.60966700  0.83253300  1
  Al  Al73  1  0.76663200  0.15696400  0.33253300  1
  Al  Al74  1  0.60966700  0.76663200  0.83253300  1
  Al  Al75  1  0.23336800  0.39033300  0.16746700  1
  Al  Al76  1  0.60966700  0.84303600  0.33253300  1
  Al  Al77  1  0.39033300  0.15696400  0.66746700  1
  Al  Al78  1  0.76663200  0.15696400  0.16746700  1
  Al  Al79  1  0.23336800  0.39033300  0.33253300  1
  Al  Al80  1  0.23336800  0.84303600  0.83253300  1
  Al  Al81  1  0.76663200  0.60966700  0.66746700  1
  Al  Al82  1  0.84303600  0.23336800  0.83253300  1
  Al  Al83  1  0.15696400  0.76663200  0.16746700  1
  Al  Al84  1  0.15696400  0.76663200  0.33253300  1
  Al  Al85  1  0.84303600  0.23336800  0.66746700  1
  V  V0  1  0.00000000  0.00000000  0.50000000  1
  V  V1  1  0.00000000  0.00000000  0.00000000  1
  V  V2  1  0.73258000  0.00000000  0.75000000  1
  V  V3  1  0.26742000  0.00000000  0.25000000  1
  V  V4  1  0.00000000  0.73258000  0.75000000  1
  V  V5  1  0.00000000  0.26742000  0.25000000  1
  V  V6  1  0.26742000  0.26742000  0.75000000  1
  V  V7  1  0.73258000  0.73258000  0.25000000  1
loop_
_geom_bond_atom_site_label_1
_geom_bond_atom_site_label_2
_geom_bond_distance
_geom_bond_site_symmetry_2
Nd0 Nd1 3.465321 1_555
Nd0 V2 3.561663 1_555
Nd1 V3 3.561663 1_555
Nd2 Nd5 3.465321 1_555
Nd2 V4 3.561663 1_555
Nd3 Nd6 3.465321 1_554
Nd3 V3 3.561663 1_555
Nd4 Nd7 3.465321 1_556
Nd4 V4 3.561663 1_555
Nd5 V5 3.561663 1_555
Nd6 V2 3.561663 1_555
Nd7 V5 3.561663 1_555
Nd8 Nd9 3.465321 1_555
Nd8 V6 3.561663 1_555
Nd9 V7 3.561663 1_555
Nd10 Nd11 3.465321 1_554
Nd10 V7 3.561663 1_555
Nd11 V6 3.561663 1_555
Al0 V4 2.691759 1_555
Al0 Al68 2.781938 1_555
Al0 Al62 2.781938 1_555
Al0 Al80 2.799507 1_555
Al0 Al70 2.799507 1_555
Al0 Al10 2.801137 1_455
Al0 Al46 2.827088 1_555
Al0 Al42 2.827088 1_555
Al0 Nd2 3.089897 1_555
Al0 Nd4 3.089897 1_555
Al1 V5 2.691759 1_655
Al1 Al63 2.781938 1_555
Al1 Al65 2.781938 1_555
Al1 Al73 2.799507 1_555
Al1 Al78 2.799507 1_555
Al1 Al11 2.801137 1_655
Al1 Al43 2.827088 1_555
Al1 Al44 2.827088 1_555
Al1 Nd5 3.089897 1_655
Al1 Nd7 3.089897 1_655
Al2 V6 2.691759 1_555
Al2 Al74 2.781944 1_555
Al2 Al64 2.781944 1_555
Al2 Al68 2.799505 1_555
Al2 Al62 2.799505 1_555
Al2 Al7 2.801137 1_555
Al2 Al46 2.827095 1_555
Al2 Al42 2.827095 1_555
Al2 Nd11 3.089897 1_555
Al2 Nd8 3.089897 1_555
Al3 V2 2.691759 1_555
Al3 Al66 2.781938 1_555
Al3 Al77 2.781938 1_555
Al3 Al82 2.799507 1_555
Al3 Al85 2.799507 1_555
Al3 Al6 2.801137 1_545
Al3 Al45 2.827088 1_555
Al3 Al49 2.827088 1_555
Al3 Nd6 3.089897 1_555
Al3 Nd0 3.089897 1_555
Al4 V7 2.691759 1_555
Al4 Al67 2.781944 1_555
Al4 Al71 2.781944 1_555
Al4 Al63 2.799505 1_555
Al4 Al65 2.799505 1_555
Al4 Al9 2.801137 1_555
Al4 Al43 2.827095 1_555
Al4 Al44 2.827095 1_555
Al4 Nd9 3.089897 1_555
Al4 Nd10 3.089897 1_555
Al5 V3 2.691759 1_565
Al5 Al76 2.781938 1_555
Al5 Al69 2.781938 1_555
Al5 Al84 2.799507 1_555
Al5 Al83 2.799507 1_555
Al5 Al8 2.801137 1_565
Al5 Nd1 3.089897 1_565
Al5 Nd3 3.089897 1_565
Al6 V2 2.691759 1_565
Al6 Al80 2.781948 1_555
Al6 Al70 2.781948 1_555
Al6 Al74 2.799498 1_555
Al6 Al64 2.799498 1_555
Al6 Nd0 3.089897 1_565
Al6 Nd6 3.089897 1_565
Al7 V6 2.691759 1_555
Al7 Al72 2.781944 1_555
Al7 Al81 2.781944 1_555
Al7 Al77 2.799505 1_555
Al7 Nd11 3.089897 1_555
Al7 Nd8 3.089897 1_555
Al8 V3 2.691759 1_555
Al8 Nd1 3.089897 1_555
Al8 Nd3 3.089897 1_555
Al9 V7 2.691759 1_555
Al9 Nd9 3.089897 1_555
Al9 Nd10 3.089897 1_555
Al10 V4 2.691759 1_655
Al10 Al82 2.781948 1_555
Al10 Al85 2.781948 1_555
Al10 Al72 2.799498 1_555
Al10 Al81 2.799498 1_555
Al10 Al45 2.827089 1_555
Al10 Al49 2.827089 1_555
Al10 Nd2 3.089897 1_655
Al10 Nd4 3.089897 1_655
Al11 V5 2.691759 1_555
Al11 Al84 2.781948 1_555
Al11 Al83 2.781948 1_555
Al11 Al79 2.799498 1_555
Al11 Al75 2.799498 1_555
Al11 Al48 2.827089 1_555
Al11 Al47 2.827089 1_555
Al11 Nd5 3.089897 1_555
Al11 Nd7 3.089897 1_555
Al12 V1 2.686990 1_555
Al12 V3 2.693134 1_555
Al12 Al83 2.752741 1_545
Al12 Al71 2.752747 1_555
Al12 Al56 2.805035 1_554
Al12 Al60 2.866431 1_555
Al12 Al57 2.866431 1_545
Al12 Al41 2.904343 1_555
Al12 Al39 2.904343 1_545
Al12 Al14 2.964336 1_555
Al12 Al20 2.964336 1_445
Al12 Nd3 3.526548 1_555
Al13 V1 2.686990 1_656
Al13 V2 2.693134 1_555
Al13 Al82 2.752741 1_555
Al13 Al74 2.752747 1_545
Al13 Al53 2.805035 1_556
Al13 Al61 2.866431 1_545
Al13 Al54 2.866431 1_655
Al13 Al40 2.904343 1_545
Al13 Al38 2.904343 1_655
Al13 Al17 2.964336 1_645
Al13 Al21 2.964336 1_655
Al13 Nd6 3.526548 1_555
Al14 V1 2.686990 1_555
Al14 V5 2.693134 1_555
Al14 Al78 2.752741 1_455
Al14 Al75 2.752747 1_555
Al14 Al54 2.805035 1_554
Al14 Al60 2.866431 1_555
Al14 Al53 2.866431 1_455
Al14 Al41 2.904343 1_555
Al14 Al37 2.904343 1_455
Al14 Al20 2.964336 1_445
Al14 Nd7 3.526548 1_555
Al15 V0 2.686990 1_655
Al15 V2 2.693134 1_555
Al15 Al85 2.752741 1_555
Al15 Al64 2.752747 1_545
Al15 Al51 2.805035 1_555
Al15 Al58 2.866431 1_545
Al15 Al52 2.866431 1_655
Al15 Al40 2.904343 1_545
Al15 Al38 2.904343 1_655
Al15 Al19 2.964336 1_645
Al15 Al22 2.964336 1_655
Al15 Nd0 3.526548 1_555
Al16 V0 2.686990 1_555
Al16 V5 2.693134 1_555
Al16 Al73 2.752741 1_455
Al16 Al79 2.752747 1_555
Al16 Al52 2.805035 1_555
Al16 Al59 2.866431 1_555
Al16 Al51 2.866431 1_455
Al16 Al41 2.904343 1_555
Al16 Al37 2.904343 1_455
Al16 Al18 2.964336 1_555
Al16 Al23 2.964336 1_445
Al16 Nd5 3.526548 1_555
Al17 V1 2.686990 1_566
Al17 V4 2.693134 1_555
Al17 Al80 2.752741 1_555
Al17 Al72 2.752747 1_455
Al17 Al57 2.805035 1_556
Al17 Al61 2.866431 1_455
Al17 Al56 2.866431 1_565
Al17 Al40 2.904343 1_455
Al17 Al36 2.904343 1_565
Al17 Al21 2.964336 1_565
Al17 Nd4 3.526548 1_555
Al18 V0 2.686990 1_555
Al18 V3 2.693134 1_555
Al18 Al84 2.752741 1_545
Al18 Al67 2.752747 1_555
Al18 Al50 2.805035 1_555
Al18 Al59 2.866431 1_555
Al18 Al55 2.866431 1_545
Al18 Al41 2.904343 1_555
Al18 Al39 2.904343 1_545
Al18 Al23 2.964336 1_445
Al18 Nd1 3.526548 1_555
Al19 V0 2.686990 1_565
Al19 V4 2.693134 1_555
Al19 Al70 2.752741 1_555
Al19 Al81 2.752747 1_455
Al19 Al55 2.805035 1_555
Al19 Al58 2.866431 1_455
Al19 Al50 2.866431 1_565
Al19 Al40 2.904343 1_455
Al19 Al36 2.904343 1_565
Al19 Al22 2.964336 1_565
Al19 Nd2 3.526548 1_555
Al20 V1 2.686990 1_665
Al20 V7 2.693134 1_555
Al20 Al65 2.752752 1_555
Al20 Al69 2.752752 1_555
Al20 Al61 2.805035 1_554
Al20 Al57 2.866431 1_655
Al20 Al53 2.866431 1_565
Al20 Al39 2.904343 1_655
Al20 Al37 2.904343 1_565
Al20 Nd10 3.526548 1_555
Al21 V1 2.686990 1_556
Al21 V6 2.693134 1_555
Al21 Al66 2.752752 1_555
Al21 Al68 2.752752 1_555
Al21 Al60 2.805035 1_556
Al21 Al56 2.866431 1_555
Al21 Al54 2.866431 1_555
Al21 Al36 2.904343 1_555
Al21 Al38 2.904343 1_555
Al21 Nd11 3.526548 1_555
Al22 V0 2.686990 1_555
Al22 V6 2.693134 1_555
Al22 Al77 2.752752 1_555
Al22 Al62 2.752752 1_555
Al22 Al59 2.805035 1_555
Al22 Al52 2.866431 1_555
Al22 Al50 2.866431 1_555
Al22 Al36 2.904343 1_555
Al22 Al38 2.904343 1_555
Al22 Nd8 3.526548 1_555
Al23 V0 2.686990 1_665
Al23 V7 2.693134 1_555
Al23 Al76 2.752752 1_555
Al23 Al63 2.752752 1_555
Al23 Al58 2.805035 1_555
Al23 Al55 2.866431 1_655
Al23 Al51 2.866431 1_565
Al23 Al39 2.904343 1_655
Al23 Al37 2.904343 1_565
Al23 Nd9 3.526548 1_555
Al24 Al59 2.771970 1_555
Al24 Al52 2.771970 1_555
Al24 Al42 2.825262 1_555
Al24 Al48 2.825262 1_555
Al24 Al32 2.863968 1_555
Al24 Al26 2.863968 1_555
Al24 Nd8 3.123883 1_555
Al24 Nd5 3.123883 1_555
Al24 Nd2 3.401238 1_555
Al24 Nd9 3.401238 1_555
Al25 Al58 2.771970 1_555
Al25 Al55 2.771970 1_655
Al25 Al49 2.825262 1_555
Al25 Al43 2.825262 1_555
Al25 Al33 2.863968 1_555
Al25 Al29 2.863968 1_555
Al25 Nd9 3.123883 1_555
Al25 Nd2 3.123883 1_655
Al25 Nd5 3.401238 1_655
Al25 Nd8 3.401238 1_555
Al26 Al58 2.771970 1_555
Al26 Al51 2.771970 1_565
Al26 Al42 2.825262 1_555
Al26 Al48 2.825262 1_555
Al26 Al32 2.863968 1_555
Al26 Nd9 3.123883 1_555
Al26 Nd0 3.123883 1_565
Al26 Nd1 3.401238 1_565
Al26 Nd8 3.401238 1_555
Al27 Al61 2.771970 1_554
Al27 Al57 2.771970 1_655
Al27 Al44 2.825262 1_555
Al27 Al45 2.825262 1_554
Al27 Al34 2.863968 1_555
Al27 Al28 2.863968 1_555
Al27 Nd10 3.123883 1_555
Al27 Nd4 3.123883 1_654
Al27 Nd7 3.401238 1_655
Al27 Nd11 3.401238 1_554
Al28 Al60 2.771970 1_555
Al28 Al56 2.771970 1_554
Al28 Al44 2.825262 1_555
Al28 Al45 2.825262 1_554
Al28 Al34 2.863968 1_555
Al28 Nd11 3.123883 1_554
Al28 Nd3 3.123883 1_555
Al28 Nd6 3.401238 1_554
Al28 Nd10 3.401238 1_555
Al29 Al59 2.771970 1_555
Al29 Al50 2.771970 1_555
Al29 Al49 2.825262 1_555
Al29 Al43 2.825262 1_555
Al29 Al33 2.863968 1_555
Al29 Nd8 3.123883 1_555
Al29 Nd1 3.123883 1_555
Al29 Nd0 3.401238 1_555
Al29 Nd9 3.401238 1_555
Al30 Al60 2.771970 1_555
Al30 Al54 2.771970 1_554
Al30 Al47 2.825262 1_555
Al30 Al46 2.825262 1_554
Al30 Al35 2.863968 1_555
Al30 Al31 2.863968 1_555
Al30 Nd11 3.123883 1_554
Al30 Nd7 3.123883 1_555
Al30 Nd4 3.401238 1_554
Al30 Nd10 3.401238 1_555
Al31 Al61 2.771970 1_554
Al31 Al53 2.771970 1_565
Al31 Al47 2.825262 1_555
Al31 Al46 2.825262 1_554
Al31 Al35 2.863968 1_555
Al31 Nd10 3.123883 1_555
Al31 Nd6 3.123883 1_564
Al31 Nd3 3.401238 1_565
Al31 Nd11 3.401238 1_554
Al32 Al55 2.771970 1_555
Al32 Al50 2.771970 1_565
Al32 Al42 2.825256 1_555
Al32 Al48 2.825256 1_555
Al32 Nd2 3.123883 1_555
Al32 Nd1 3.123883 1_565
Al32 Nd5 3.401238 1_555
Al32 Nd0 3.401238 1_565
Al33 Al51 2.771970 1_555
Al33 Al52 2.771970 1_655
Al33 Al49 2.825256 1_555
Al33 Al43 2.825256 1_555
Al33 Nd0 3.123883 1_555
Al33 Nd5 3.123883 1_655
Al33 Nd1 3.401238 1_555
Al33 Nd2 3.401238 1_655
Al34 Al53 2.771970 1_555
Al34 Al54 2.771970 1_654
Al34 Al44 2.825256 1_555
Al34 Al45 2.825256 1_554
Al34 Nd6 3.123883 1_554
Al34 Nd7 3.123883 1_655
Al34 Nd3 3.401238 1_555
Al34 Nd4 3.401238 1_654
Al35 Al57 2.771970 1_555
Al35 Al56 2.771970 1_564
Al35 Al47 2.825256 1_555
Al35 Al46 2.825256 1_554
Al35 Nd4 3.123883 1_554
Al35 Nd3 3.123883 1_565
Al35 Nd7 3.401238 1_555
Al35 Nd6 3.401238 1_564
Al36 V6 2.566124 1_555
Al36 V4 2.566124 1_545
Al36 Al38 2.760548 1_555
Al36 Al40 2.760548 1_445
Al36 Al80 2.807614 1_545
Al36 Al70 2.807614 1_545
Al36 Al66 2.807621 1_555
Al36 Al77 2.807621 1_555
Al37 V7 2.566124 1_545
Al37 V5 2.566124 1_655
Al37 Al39 2.760548 1_645
Al37 Al41 2.760548 1_655
Al37 Al73 2.807614 1_555
Al37 Al78 2.807614 1_555
Al37 Al76 2.807621 1_545
Al37 Al69 2.807621 1_545
Al38 V6 2.566124 1_555
Al38 V2 2.566124 1_455
Al38 Al40 2.760548 1_445
Al38 Al82 2.807614 1_455
Al38 Al85 2.807614 1_455
Al38 Al68 2.807621 1_555
Al38 Al62 2.807621 1_555
Al39 V7 2.566124 1_455
Al39 V3 2.566124 1_565
Al39 Al41 2.760548 1_565
Al39 Al84 2.807614 1_555
Al39 Al83 2.807614 1_555
Al39 Al63 2.807621 1_455
Al39 Al65 2.807621 1_455
Al40 V2 2.566124 1_565
Al40 V4 2.566124 1_655
Al40 Al74 2.807622 1_555
Al40 Al72 2.807622 1_555
Al40 Al81 2.807622 1_555
Al40 Al64 2.807622 1_555
Al41 V5 2.566124 1_555
Al41 V3 2.566124 1_555
Al41 Al79 2.807622 1_555
Al41 Al67 2.807622 1_555
Al41 Al75 2.807622 1_555
Al41 Al71 2.807622 1_555
Al42 Al70 2.771197 1_555
Al42 Al64 2.771197 1_555
Al42 Al62 2.771197 1_555
Al42 Al6 2.827089 1_555
Al42 Nd2 3.264312 1_555
Al42 Nd0 3.264313 1_565
Al42 Nd8 3.264322 1_555
Al43 Al73 2.771197 1_555
Al43 Al67 2.771197 1_555
Al43 Al63 2.771197 1_555
Al43 Al8 2.827089 1_555
Al43 Nd5 3.264312 1_655
Al43 Nd1 3.264313 1_555
Al43 Nd9 3.264322 1_555
Al44 Al78 2.771197 1_555
Al44 Al71 2.771197 1_555
Al44 Al65 2.771197 1_555
Al44 Al8 2.827089 1_555
Al44 Nd7 3.264312 1_655
Al44 Nd3 3.264313 1_555
Al44 Nd10 3.264322 1_555
Al45 Al82 2.771197 1_555
Al45 Al72 2.771197 1_555
Al45 Al66 2.771197 1_555
Al45 Al7 2.827095 1_555
Al45 Nd6 3.264312 1_555
Al45 Nd4 3.264313 1_655
Al45 Nd11 3.264322 1_555
Al46 Al80 2.771197 1_555
Al46 Al74 2.771197 1_555
Al46 Al68 2.771197 1_555
Al46 Al6 2.827089 1_555
Al46 Nd4 3.264312 1_555
Al46 Nd6 3.264313 1_565
Al46 Nd11 3.264322 1_555
Al47 Al83 2.771197 1_555
Al47 Al75 2.771197 1_555
Al47 Al69 2.771197 1_555
Al47 Al5 2.827088 1_555
Al47 Al9 2.827095 1_555
Al47 Nd3 3.264312 1_565
Al47 Nd7 3.264313 1_555
Al47 Nd10 3.264322 1_555
Al48 Al84 2.771197 1_555
Al48 Al79 2.771197 1_555
Al48 Al76 2.771197 1_555
Al48 Al5 2.827088 1_555
Al48 Al9 2.827095 1_555
Al48 Nd1 3.264312 1_565
Al48 Nd5 3.264313 1_555
Al48 Nd9 3.264322 1_555
Al49 Al85 2.771197 1_555
Al49 Al81 2.771197 1_555
Al49 Al77 2.771197 1_555
Al49 Al7 2.827095 1_555
Al49 Nd0 3.264312 1_555
Al49 Nd2 3.264313 1_655
Al49 Nd8 3.264322 1_555
Al50 V0 2.813729 1_555
Al50 Al59 2.959052 1_555
Al50 Al55 2.959052 1_545
Al50 Al70 2.962398 1_545
Al50 Al77 2.962401 1_555
Al50 Nd0 3.303076 1_555
Al50 Nd1 3.318377 1_555
Al51 V0 2.813729 1_655
Al51 Al58 2.959052 1_545
Al51 Al52 2.959052 1_655
Al51 Al73 2.962398 1_555
Al51 Al76 2.962401 1_545
Al51 Nd1 3.303076 1_555
Al51 Nd0 3.318377 1_555
Al52 V0 2.813729 1_555
Al52 Al59 2.959052 1_555
Al52 Al85 2.962398 1_455
Al52 Al62 2.962401 1_555
Al52 Nd2 3.303076 1_555
Al52 Nd5 3.318377 1_555
Al53 V1 2.813729 1_655
Al53 Al61 2.959052 1_544
Al53 Al54 2.959052 1_654
Al53 Al78 2.962398 1_555
Al53 Al69 2.962401 1_545
Al53 Nd3 3.303076 1_555
Al53 Nd6 3.318377 1_554
Al54 V1 2.813729 1_556
Al54 Al60 2.959052 1_556
Al54 Al82 2.962398 1_455
Al54 Al68 2.962401 1_555
Al54 Nd4 3.303076 1_555
Al54 Nd7 3.318377 1_556
Al55 V0 2.813729 1_565
Al55 Al58 2.959052 1_455
Al55 Al84 2.962398 1_555
Al55 Al63 2.962401 1_455
Al55 Nd5 3.303076 1_555
Al55 Nd2 3.318377 1_555
Al56 V1 2.813729 1_556
Al56 Al60 2.959052 1_556
Al56 Al57 2.959052 1_546
Al56 Al80 2.962398 1_545
Al56 Al66 2.962401 1_555
Al56 Nd6 3.303076 1_555
Al56 Nd3 3.318377 1_556
Al57 V1 2.813729 1_565
Al57 Al61 2.959052 1_454
Al57 Al83 2.962398 1_555
Al57 Al65 2.962401 1_455
Al57 Nd7 3.303076 1_555
Al57 Nd4 3.318377 1_554
Al58 V0 2.813729 1_665
Al58 Al81 2.962404 1_555
Al58 Al64 2.962404 1_555
Al58 Nd8 3.303076 1_555
Al58 Nd9 3.318377 1_555
Al59 V0 2.813729 1_555
Al59 Al79 2.962404 1_555
Al59 Al67 2.962404 1_555
Al59 Nd9 3.303076 1_555
Al59 Nd8 3.318377 1_555
Al60 V1 2.813729 1_555
Al60 Al75 2.962404 1_555
Al60 Al71 2.962404 1_555
Al60 Nd10 3.303076 1_555
Al60 Nd11 3.318377 1_554
Al61 V1 2.813729 1_666
Al61 Al72 2.962404 1_555
Al61 Al74 2.962404 1_555
Al61 Nd11 3.303076 1_555
Al61 Nd10 3.318377 1_556
Al62 V6 2.678670 1_555
Al62 Al68 2.943169 1_555
Al62 Al85 3.009450 1_455
Al62 Nd2 3.108417 1_555
Al62 Nd8 3.382887 1_555
Al63 V7 2.678670 1_555
Al63 Al65 2.943169 1_555
Al63 Al84 3.009450 1_655
Al63 Nd5 3.108417 1_655
Al63 Nd9 3.382887 1_555
Al64 V2 2.678662 1_565
Al64 Al74 2.943169 1_555
Al64 Al81 3.009469 1_555
Al64 Nd8 3.108426 1_555
Al64 Nd0 3.382877 1_565
Al65 V7 2.678670 1_555
Al65 Al83 3.009450 1_655
Al65 Nd7 3.108417 1_655
Al65 Nd10 3.382887 1_555
Al66 V6 2.678670 1_555
Al66 Al7 2.799505 1_555
Al66 Al77 2.943169 1_555
Al66 Al80 3.009450 1_545
Al66 Nd6 3.108417 1_555
Al66 Nd11 3.382887 1_555
Al67 V3 2.678662 1_555
Al67 Al8 2.799498 1_555
Al67 Al71 2.943169 1_555
Al67 Al79 3.009469 1_555
Al67 Nd9 3.108426 1_555
Al67 Nd1 3.382877 1_555
Al68 V6 2.678670 1_555
Al68 Al82 3.009450 1_455
Al68 Nd4 3.108417 1_555
Al68 Nd11 3.382887 1_555
Al69 V7 2.678670 1_555
Al69 Al9 2.799505 1_555
Al69 Al76 2.943169 1_555
Al69 Al78 3.009450 1_565
Al69 Nd3 3.108417 1_565
Al69 Nd10 3.382887 1_555
Al70 V4 2.678662 1_555
Al70 Al80 2.943169 1_555
Al70 Al77 3.009450 1_565
Al70 Nd0 3.108425 1_565
Al70 Nd2 3.382884 1_555
Al71 V3 2.678662 1_555
Al71 Al8 2.799498 1_555
Al71 Al75 3.009469 1_555
Al71 Nd10 3.108426 1_555
Al71 Nd3 3.382877 1_555
Al72 V4 2.678662 1_655
Al72 Al81 2.943169 1_555
Al72 Al74 3.009469 1_555
Al72 Nd11 3.108426 1_555
Al72 Nd4 3.382877 1_655
Al73 V5 2.678662 1_655
Al73 Al8 2.781948 1_555
Al73 Al78 2.943169 1_555
Al73 Al76 3.009450 1_545
Al73 Nd1 3.108425 1_555
Al73 Nd5 3.382884 1_655
Al74 V2 2.678662 1_565
Al74 Nd11 3.108426 1_555
Al74 Nd6 3.382877 1_565
Al75 V5 2.678662 1_555
Al75 Al9 2.781944 1_555
Al75 Al79 2.943169 1_555
Al75 Nd10 3.108426 1_555
Al75 Nd7 3.382877 1_555
Al76 V7 2.678670 1_555
Al76 Al9 2.799505 1_555
Al76 Nd1 3.108417 1_565
Al76 Nd9 3.382887 1_555
Al77 V6 2.678670 1_555
Al77 Nd0 3.108417 1_555
Al77 Nd8 3.382887 1_555
Al78 V5 2.678662 1_655
Al78 Al8 2.781948 1_555
Al78 Nd3 3.108425 1_555
Al78 Nd7 3.382884 1_655
Al79 V5 2.678662 1_555
Al79 Al9 2.781944 1_555
Al79 Nd9 3.108426 1_555
Al79 Nd5 3.382877 1_555
Al80 V4 2.678662 1_555
Al80 Nd6 3.108425 1_565
Al80 Nd4 3.382884 1_555
Al81 V4 2.678662 1_655
Al81 Nd8 3.108426 1_555
Al81 Nd2 3.382877 1_655
Al82 V2 2.678662 1_555
Al82 Al85 2.943169 1_555
Al82 Nd4 3.108425 1_655
Al82 Nd6 3.382884 1_555
Al83 V3 2.678662 1_565
Al83 Al84 2.943169 1_555
Al83 Nd7 3.108425 1_555
Al83 Nd3 3.382884 1_565
Al84 V3 2.678662 1_565
Al84 Nd5 3.108425 1_555
Al84 Nd1 3.382884 1_565
Al85 V2 2.678662 1_555
Al85 Nd2 3.108425 1_655
Al85 Nd0 3.382884 1_555
