# generated using pymatgen
data_Pr5Ga3
_symmetry_space_group_name_H-M   'P 1'
_cell_length_a   5.81854500
_cell_length_b   9.27625359
_cell_length_c   9.27625359
_cell_angle_alpha   84.35519230
_cell_angle_beta   71.72212193
_cell_angle_gamma   71.72212193
_symmetry_Int_Tables_number   1
_chemical_formula_structural   Pr5Ga3
_chemical_formula_sum   'Pr10 Ga6'
_cell_volume   451.43187969
_cell_formula_units_Z   2
loop_
 _symmetry_equiv_pos_site_id
 _symmetry_equiv_pos_as_xyz
  1  'x, y, z'
loop_
 _atom_site_type_symbol
 _atom_site_label
 _atom_site_symmetry_multiplicity
 _atom_site_fract_x
 _atom_site_fract_y
 _atom_site_fract_z
 _atom_site_occupancy
  Pr  Pr0  1  0.72236500  0.86169600  0.69357400  1
  Pr  Pr1  1  0.27763500  0.13830400  0.30642600  1
  Pr  Pr2  1  0.77763500  0.30642600  0.13830400  1
  Pr  Pr3  1  0.22236500  0.69357400  0.86169600  1
  Pr  Pr4  1  0.58406100  0.69357400  0.13830400  1
  Pr  Pr5  1  0.41593900  0.30642600  0.86169600  1
  Pr  Pr6  1  0.08406100  0.13830400  0.69357400  1
  Pr  Pr7  1  0.91593900  0.86169600  0.30642600  1
  Pr  Pr8  1  0.75000000  0.50000000  0.50000000  1
  Pr  Pr9  1  0.25000000  0.50000000  0.50000000  1
  Ga  Ga0  1  0.16207500  0.50000000  0.17585100  1
  Ga  Ga1  1  0.83792500  0.50000000  0.82414900  1
  Ga  Ga2  1  0.33792500  0.82414900  0.50000000  1
  Ga  Ga3  1  0.66207500  0.17585100  0.50000000  1
  Ga  Ga4  1  0.25000000  0.00000000  0.00000000  1
  Ga  Ga5  1  0.75000000  0.00000000  0.00000000  1
loop_
_geom_bond_atom_site_label_1
_geom_bond_atom_site_label_2
_geom_bond_distance
_geom_bond_site_symmetry_2
Pr0 Pr7 3.410091 1_555
Pr0 Pr3 3.584655 1_555
Pr0 Pr3 3.584655 1_655
Pr0 Pr6 3.794740 1_565
Pr0 Pr6 3.794740 1_665
Pr0 Pr9 3.895270 1_655
Pr0 Pr8 3.895270 1_555
Pr1 Pr6 3.410091 1_555
Pr1 Pr2 3.584655 1_455
Pr1 Pr2 3.584655 1_555
Pr1 Pr7 3.794740 1_545
Pr1 Pr7 3.794740 1_445
Pr1 Pr8 3.895270 1_455
Pr1 Pr9 3.895270 1_555
Pr2 Pr4 3.410091 1_555
Pr2 Pr5 3.794740 1_654
Pr2 Pr5 3.794740 1_554
Pr2 Pr9 3.895270 1_555
Pr2 Pr8 3.895270 1_555
Pr3 Pr5 3.410091 1_555
Pr3 Pr4 3.794740 1_456
Pr3 Pr4 3.794740 1_556
Pr3 Pr8 3.895270 1_555
Pr3 Pr9 3.895270 1_555
Pr4 Pr7 3.584654 1_455
Pr4 Pr7 3.584655 1_555
Pr4 Pr9 3.895270 1_555
Pr4 Pr8 3.895270 1_555
Pr5 Pr6 3.584654 1_655
Pr5 Pr6 3.584655 1_555
Pr5 Pr8 3.895270 1_555
Pr5 Pr9 3.895270 1_555
Pr6 Pr8 3.895270 1_455
Pr6 Pr9 3.895270 1_555
Pr7 Pr9 3.895270 1_655
Pr7 Pr8 3.895270 1_555
Pr8 Pr9 2.909273 1_655
Pr8 Pr9 2.909273 1_555
Ga0 Pr9 3.204374 1_555
Ga0 Pr8 3.204377 1_455
Ga0 Pr3 3.250278 1_554
Ga0 Pr5 3.250278 1_554
Ga0 Pr7 3.387151 1_455
Ga0 Pr1 3.387151 1_555
Ga0 Pr2 3.388275 1_555
Ga0 Pr4 3.388275 1_555
Ga0 Pr4 3.388280 1_455
Ga0 Pr2 3.388280 1_455
Ga1 Pr8 3.204374 1_555
Ga1 Pr9 3.204377 1_655
Ga1 Pr2 3.250278 1_556
Ga1 Pr4 3.250278 1_556
Ga1 Pr6 3.387151 1_655
Ga1 Pr0 3.387151 1_555
Ga1 Pr3 3.388275 1_555
Ga1 Pr5 3.388275 1_555
Ga1 Pr5 3.388280 1_655
Ga1 Pr3 3.388280 1_655
Ga2 Pr9 3.204374 1_555
Ga2 Pr8 3.204377 1_555
Ga2 Pr1 3.250278 1_565
Ga2 Pr6 3.250278 1_565
Ga2 Pr4 3.387151 1_555
Ga2 Pr3 3.387151 1_555
Ga2 Pr0 3.388275 1_455
Ga2 Pr7 3.388275 1_455
Ga2 Pr7 3.388280 1_555
Ga2 Pr0 3.388280 1_555
Ga3 Pr8 3.204374 1_555
Ga3 Pr9 3.204377 1_555
Ga3 Pr0 3.250278 1_545
Ga3 Pr7 3.250278 1_545
Ga3 Pr5 3.387151 1_555
Ga3 Pr2 3.387151 1_555
Ga3 Pr1 3.388275 1_655
Ga3 Pr6 3.388275 1_655
Ga3 Pr6 3.388280 1_555
Ga3 Pr1 3.388280 1_555
Ga4 Ga5 2.909273 1_455
Ga4 Ga5 2.909273 1_555
Ga4 Pr2 3.299243 1_455
Ga4 Pr0 3.299243 1_544
Ga4 Pr4 3.299243 1_545
Ga4 Pr7 3.299243 1_445
Ga4 Pr6 3.299243 1_554
Ga4 Pr5 3.299243 1_554
Ga4 Pr1 3.299243 1_555
Ga4 Pr3 3.299243 1_544
Ga5 Pr3 3.299243 1_644
Ga5 Pr1 3.299243 1_555
Ga5 Pr6 3.299243 1_654
Ga5 Pr5 3.299243 1_554
Ga5 Pr4 3.299243 1_545
Ga5 Pr7 3.299243 1_545
Ga5 Pr2 3.299243 1_555
Ga5 Pr0 3.299243 1_544
