# generated using pymatgen
data_Y(InCu)6
_symmetry_space_group_name_H-M   'P 1'
_cell_length_a   7.01324019
_cell_length_b   7.01324019
_cell_length_c   7.01324019
_cell_angle_alpha   134.49728718
_cell_angle_beta   99.00760840
_cell_angle_gamma   98.19594518
_symmetry_Int_Tables_number   1
_chemical_formula_structural   Y(InCu)6
_chemical_formula_sum   'Y1 In6 Cu6'
_cell_volume   226.89500535
_cell_formula_units_Z   1
loop_
 _symmetry_equiv_pos_site_id
 _symmetry_equiv_pos_as_xyz
  1  'x, y, z'
loop_
 _atom_site_type_symbol
 _atom_site_label
 _atom_site_symmetry_multiplicity
 _atom_site_fract_x
 _atom_site_fract_y
 _atom_site_fract_z
 _atom_site_occupancy
  Y  Y0  1  0.00000000  0.00000000  -0.00000000  1
  In  In0  1  0.33765717  0.00000000  0.33765717  1
  In  In1  1  0.66234283  0.00000000  0.66234283  1
  In  In2  1  0.34216714  0.34216714  -0.00000000  1
  In  In3  1  0.65783286  0.65783286  0.00000000  1
  In  In4  1  0.81856863  0.31856863  0.50000000  1
  In  In5  1  0.18143137  0.68143137  0.50000000  1
  Cu  Cu0  1  0.00000000  0.50000000  -0.00000000  1
  Cu  Cu1  1  0.00000000  0.00000000  0.50000000  1
  Cu  Cu2  1  0.50000000  0.00000000  -0.00000000  1
  Cu  Cu3  1  0.50000000  0.50000000  0.50000000  1
  Cu  Cu4  1  0.76243551  0.50000000  0.26243551  1
  Cu  Cu5  1  0.23756449  0.50000000  0.73756449  1
loop_
_geom_bond_atom_site_label_1
_geom_bond_atom_site_label_2
_geom_bond_distance
_geom_bond_site_symmetry_2
In0 In1 2.957484 1_555
In0 Y0 3.075639 1_555
In0 In5 3.278225 1_545
In0 In4 3.278225 1_555
In0 In3 3.412356 1_556
In0 In3 3.412356 1_545
In0 In2 3.412356 1_545
In0 In2 3.412356 1_556
In1 Y0 3.075639 1_656
In1 In4 3.278225 1_555
In1 In5 3.278225 1_545
In1 In3 3.412356 1_556
In1 In3 3.412356 1_545
In1 In2 3.412356 1_545
In1 In2 3.412356 1_556
In2 In3 2.899101 1_555
In2 In5 3.087960 1_544
In2 In5 3.087960 1_555
In2 Y0 3.142492 1_555
In3 In4 3.087960 1_565
In3 In4 3.087960 1_554
In3 Y0 3.142492 1_665
In4 Y0 3.183205 1_655
In4 Y0 3.183205 1_666
In4 In5 3.332562 1_655
In5 Y0 3.183205 1_555
In5 Y0 3.183205 1_566
Cu0 Cu4 2.669011 1_455
Cu0 Cu5 2.669011 1_554
Cu0 Cu1 2.712250 1_554
Cu0 Cu1 2.712250 1_565
Cu0 In4 2.724196 1_454
Cu0 In5 2.724196 1_555
Cu0 In2 2.782298 1_555
Cu0 In3 2.782298 1_455
Cu0 In1 2.783578 1_454
Cu0 In0 2.783578 1_565
Cu1 Cu4 2.669011 1_445
Cu1 Cu5 2.669011 1_555
Cu1 In4 2.724196 1_455
Cu1 In5 2.724196 1_545
Cu1 In3 2.782298 1_445
Cu1 In2 2.782298 1_556
Cu1 In1 2.783578 1_455
Cu1 In0 2.783578 1_555
Cu2 Cu4 2.669011 1_555
Cu2 Cu5 2.669011 1_544
Cu2 Cu3 2.712250 1_544
Cu2 Cu3 2.712250 1_555
Cu2 In4 2.724196 1_555
Cu2 In5 2.724196 1_544
Cu2 In3 2.782298 1_545
Cu2 In2 2.782298 1_555
Cu2 In1 2.783578 1_554
Cu2 In0 2.783578 1_555
Cu3 Cu4 2.669011 1_555
Cu3 Cu5 2.669011 1_555
Cu3 In4 2.724196 1_555
Cu3 In5 2.724196 1_555
Cu3 In3 2.782298 1_556
Cu3 In2 2.782298 1_555
Cu3 In1 2.783578 1_565
Cu3 In0 2.783578 1_555
Cu4 In4 2.731123 1_555
Cu4 In5 2.731123 1_655
Cu4 In2 2.795623 1_555
Cu4 In3 2.795623 1_555
Cu4 In1 2.861387 1_554
Cu4 In1 2.861387 1_565
Cu5 In5 2.731123 1_555
Cu5 In4 2.731123 1_455
Cu5 In2 2.795623 1_556
Cu5 In3 2.795623 1_556
Cu5 In0 2.861387 1_555
Cu5 In0 2.861387 1_566
