# generated using pymatgen
data_MgBi2(PO5)2
_symmetry_space_group_name_H-M   'P 1'
_cell_length_a   10.14918445
_cell_length_b   8.57345813
_cell_length_c   7.96716991
_cell_angle_alpha   75.60003705
_cell_angle_beta   54.90546075
_cell_angle_gamma   49.49450220
_symmetry_Int_Tables_number   1
_chemical_formula_structural   MgBi2(PO5)2
_chemical_formula_sum   'Mg2 Bi4 P4 O20'
_cell_volume   422.52540251
_cell_formula_units_Z   2
loop_
 _symmetry_equiv_pos_site_id
 _symmetry_equiv_pos_as_xyz
  1  'x, y, z'
loop_
 _atom_site_type_symbol
 _atom_site_label
 _atom_site_symmetry_multiplicity
 _atom_site_fract_x
 _atom_site_fract_y
 _atom_site_fract_z
 _atom_site_occupancy
  Mg  Mg0  1  0.95211800  0.54788200  0.54788200  1
  Mg  Mg1  1  0.70211800  0.29788200  0.29788200  1
  Bi  Bi0  1  0.38608400  0.36507100  0.88284400  1
  Bi  Bi1  1  0.36600000  0.88284400  0.36507100  1
  Bi  Bi2  1  0.88492900  0.86391600  0.88400000  1
  Bi  Bi3  1  0.36715600  0.88400000  0.86391600  1
  P  P0  1  0.92986600  0.45093500  0.01810100  1
  P  P1  1  0.79906500  0.32013400  0.64890200  1
  P  P2  1  0.60109800  0.01810100  0.45093500  1
  P  P3  1  0.23189900  0.64890200  0.32013400  1
  O  O0  1  0.30341800  0.79247800  0.69097500  1
  O  O1  1  0.45752200  0.94658200  0.03687200  1
  O  O2  1  0.21312800  0.69097500  0.79247800  1
  O  O3  1  0.55902500  0.03687200  0.94658200  1
  O  O4  1  0.46923600  0.21836400  0.60550800  1
  O  O5  1  0.43257100  0.54127500  0.30969400  1
  O  O6  1  0.64449200  0.54310700  0.78076400  1
  O  O7  1  0.75164500  0.03360500  0.23792800  1
  O  O8  1  0.44030900  0.03529600  0.44584300  1
  O  O9  1  0.21639500  0.49835500  0.27317800  1
  O  O10  1  0.70689300  0.60550800  0.21836400  1
  O  O11  1  0.01207200  0.27317800  0.49835500  1
  O  O12  1  0.97682200  0.23792800  0.03360500  1
  O  O13  1  0.21470400  0.80969100  0.17144800  1
  O  O14  1  0.07855200  0.44584300  0.03529600  1
  O  O15  1  0.80415700  0.17144800  0.80969100  1
  O  O16  1  0.94030600  0.53354000  0.81742900  1
  O  O17  1  0.71646000  0.30969400  0.54127400  1
  O  O18  1  0.03163600  0.78076400  0.54310700  1
  O  O19  1  0.70872500  0.81742900  0.53354000  1
loop_
_geom_bond_atom_site_label_1
_geom_bond_atom_site_label_2
_geom_bond_distance
_geom_bond_site_symmetry_2
Mg0 O19 2.057460 1_555
Mg0 O16 2.057460 1_555
Mg0 O11 2.096965 1_655
Mg0 O9 2.096965 1_655
Mg0 O18 2.580565 1_655
Mg0 O6 2.580573 1_555
Mg1 O17 2.057452 1_555
Mg1 O5 2.057460 1_555
Mg1 O12 2.096965 1_555
Mg1 O7 2.096965 1_555
Mg1 O4 2.580568 1_555
Mg1 O10 2.580573 1_555
Bi0 O14 2.224443 1_556
Bi0 O4 2.244045 1_555
Bi0 O3 2.270369 1_555
Bi0 O2 2.342644 1_555
Bi0 O17 2.637517 1_555
Bi0 O9 2.644920 1_556
Bi1 O8 2.224452 1_565
Bi1 O10 2.244056 1_555
Bi1 O1 2.270367 1_555
Bi1 O0 2.342644 1_555
Bi1 O5 2.637509 1_555
Bi1 O11 2.644917 1_565
Bi2 O15 2.224444 1_565
Bi2 O18 2.244059 1_655
Bi2 O2 2.270363 1_655
Bi2 O3 2.342644 1_565
Bi2 O16 2.637517 1_555
Bi2 O7 2.644913 1_566
Bi3 O13 2.224447 1_556
Bi3 O6 2.244054 1_555
Bi3 O0 2.270380 1_555
Bi3 O1 2.342644 1_556
Bi3 O19 2.637511 1_555
Bi3 O12 2.644918 1_466
O0 O2 1.443885 1_555
O1 O3 1.443885 1_564
O4 P2 1.557953 1_555
O5 P3 1.551912 1_555
O6 P1 1.557946 1_555
O7 P2 1.549945 1_555
O8 P2 1.564301 1_555
O9 P3 1.549945 1_555
O10 P0 1.557950 1_555
O11 P1 1.549945 1_455
O12 P0 1.549945 1_555
O13 P3 1.564301 1_555
O14 P0 1.564301 1_455
O15 P1 1.564301 1_555
O16 P0 1.551912 1_556
O17 P1 1.551919 1_555
O18 P3 1.557948 1_555
O19 P2 1.551912 1_565
