# generated using pymatgen
data_KTaWO7
_symmetry_space_group_name_H-M   'P 1'
_cell_length_a   7.47559716
_cell_length_b   7.47559716
_cell_length_c   7.47559716
_cell_angle_alpha   120.08337803
_cell_angle_beta   119.60947940
_cell_angle_gamma   90.26668741
_symmetry_Int_Tables_number   1
_chemical_formula_structural   KTaWO7
_chemical_formula_sum   'K2 Ta2 W2 O14'
_cell_volume   296.08422927
_cell_formula_units_Z   2
loop_
 _symmetry_equiv_pos_site_id
 _symmetry_equiv_pos_as_xyz
  1  'x, y, z'
loop_
 _atom_site_type_symbol
 _atom_site_label
 _atom_site_symmetry_multiplicity
 _atom_site_fract_x
 _atom_site_fract_y
 _atom_site_fract_z
 _atom_site_occupancy
  K  K0  1  0.00000000  0.50000000  0.00000000  1
  K  K1  1  0.00000000  0.00000000  0.50000000  1
  Ta  Ta0  1  0.50000000  0.00000000  0.50000000  1
  Ta  Ta1  1  0.00000000  0.00000000  0.00000000  1
  W  W0  1  0.50000000  0.00000000  0.00000000  1
  W  W1  1  0.50000000  0.50000000  0.50000000  1
  O  O0  1  0.81185000  0.06185000  0.75000000  1
  O  O1  1  0.44308400  0.69308400  0.75000000  1
  O  O2  1  0.80395300  0.68683900  0.74689300  1
  O  O3  1  0.43994600  0.05706000  0.75310700  1
  O  O4  1  0.80395300  0.05706000  0.11711400  1
  O  O5  1  0.43994600  0.68683900  0.38288600  1
  O  O6  1  0.18815000  0.93815000  0.25000000  1
  O  O7  1  0.55691600  0.30691600  0.25000000  1
  O  O8  1  0.19604700  0.31316100  0.25310700  1
  O  O9  1  0.56005400  0.94294000  0.24689300  1
  O  O10  1  0.19604700  0.94294000  0.88288600  1
  O  O11  1  0.56005400  0.31316100  0.61711400  1
  O  O12  1  0.00000000  0.50000000  0.50000000  1
  O  O13  1  0.50000000  0.50000000  0.00000000  1
loop_
_geom_bond_atom_site_label_1
_geom_bond_atom_site_label_2
_geom_bond_distance
_geom_bond_site_symmetry_2
K0 O0 2.724379 1_454
K0 O6 2.724379 1_555
K0 O5 2.758109 1_555
K0 O8 2.758109 1_555
K0 O11 2.758109 1_454
K0 O2 2.758109 1_454
K1 O0 2.724379 1_455
K1 O6 2.724379 1_545
K1 O10 2.758109 1_545
K1 O3 2.758109 1_555
K1 O4 2.758109 1_455
K1 O9 2.758109 1_445
O0 Ta1 1.989893 1_656
O0 Ta0 1.989893 1_555
O1 W1 1.960706 1_555
O1 W0 1.960706 1_566
O2 W1 1.939655 1_555
O2 Ta1 1.998922 1_666
O3 W0 1.939655 1_556
O3 Ta0 1.998922 1_555
O4 W0 1.939655 1_555
O4 Ta1 1.998922 1_655
O5 W1 1.939655 1_555
O5 Ta0 1.998922 1_565
O6 Ta0 1.989893 1_565
O6 Ta1 1.989893 1_565
O7 W0 1.960706 1_555
O7 W1 1.960706 1_555
O8 W1 1.939655 1_555
O8 Ta1 1.998922 1_555
O9 W0 1.939655 1_565
O9 Ta0 1.998922 1_565
O10 W0 1.939655 1_566
O10 Ta1 1.998922 1_566
O11 W1 1.939655 1_555
O11 Ta0 1.998922 1_555
