# generated using pymatgen
data_Y4MgRh
_symmetry_space_group_name_H-M   'P 1'
_cell_length_a   9.75157180
_cell_length_b   9.75138635
_cell_length_c   9.75139296
_cell_angle_alpha   60.00015191
_cell_angle_beta   60.00078699
_cell_angle_gamma   60.00078576
_symmetry_Int_Tables_number   1
_chemical_formula_structural   Y4MgRh
_chemical_formula_sum   'Y16 Mg4 Rh4'
_cell_volume   655.68961773
_cell_formula_units_Z   4
loop_
 _symmetry_equiv_pos_site_id
 _symmetry_equiv_pos_as_xyz
  1  'x, y, z'
loop_
 _atom_site_type_symbol
 _atom_site_label
 _atom_site_symmetry_multiplicity
 _atom_site_fract_x
 _atom_site_fract_y
 _atom_site_fract_z
 _atom_site_occupancy
  Y  Y0  1  0.59579017  0.59579323  0.59579144  1
  Y  Y1  1  0.59578900  0.59579260  0.21262557  1
  Y  Y2  1  0.59578976  0.21262470  0.59579172  1
  Y  Y3  1  0.21264208  0.59578600  0.59578439  1
  Y  Y4  1  0.06216718  0.43784141  0.43784880  1
  Y  Y5  1  0.43786557  0.06216727  0.06217087  1
  Y  Y6  1  0.43786643  0.06216841  0.43779794  1
  Y  Y7  1  0.06216629  0.43784057  0.06214604  1
  Y  Y8  1  0.43787124  0.43779527  0.06216918  1
  Y  Y9  1  0.06216951  0.06214582  0.43784267  1
  Y  Y10  1  0.18604298  0.81392706  0.81392043  1
  Y  Y11  1  0.81389356  0.18608146  0.18607569  1
  Y  Y12  1  0.81389449  0.18607960  0.81395003  1
  Y  Y13  1  0.18604468  0.81392660  0.18610901  1
  Y  Y14  1  0.81389060  0.81395351  0.18607657  1
  Y  Y15  1  0.18604155  0.18611080  0.81392401  1
  Mg  Mg0  1  0.82901553  0.82900422  0.82900478  1
  Mg  Mg1  1  0.82899032  0.82897871  0.51302374  1
  Mg  Mg2  1  0.82899055  0.51302276  0.82897908  1
  Mg  Mg3  1  0.51302305  0.82898264  0.82898259  1
  Rh  Rh0  1  0.39141516  0.39136220  0.39136543  1
  Rh  Rh1  1  0.39141331  0.39136161  0.82586092  1
  Rh  Rh2  1  0.39141192  0.82586224  0.39136310  1
  Rh  Rh3  1  0.82581406  0.39139330  0.39139700  1
loop_
_geom_bond_atom_site_label_1
_geom_bond_atom_site_label_2
_geom_bond_distance
_geom_bond_site_symmetry_2
Y0 Y12 3.541094 1_555
Y0 Y14 3.541094 1_555
Y0 Y10 3.541328 1_555
Y1 Y11 3.541072 1_555
Y1 Y14 3.541081 1_555
Y1 Y13 3.541304 1_555
Y10 Y3 3.540924 1_555
Y10 Y12 3.629061 1_465
Y10 Y14 3.629099 1_456
Y10 Y15 3.629318 1_565
Y10 Y13 3.629363 1_556
Y10 Y9 3.660104 1_565
Y10 Y7 3.660189 1_556
Y10 Y6 3.660829 1_565
Y10 Y8 3.660919 1_556
Y11 Y2 3.541094 1_555
Y11 Y12 3.628748 1_554
Y11 Y14 3.628774 1_545
Y11 Y15 3.629056 1_654
Y11 Y13 3.629085 1_645
Y11 Y8 3.659874 1_555
Y11 Y6 3.659945 1_555
Y11 Y7 3.660591 1_655
Y11 Y9 3.660663 1_655
Y12 Y2 3.541107 1_555
Y12 Y14 3.628757 1_546
Y12 Y15 3.629044 1_655
Y12 Y8 3.659910 1_556
Y12 Y5 3.659956 1_556
Y12 Y4 3.660609 1_655
Y12 Y9 3.660660 1_655
Y13 Y3 3.540905 1_555
Y13 Y14 3.629114 1_455
Y13 Y15 3.629325 1_564
Y13 Y9 3.660107 1_565
Y13 Y4 3.660182 1_555
Y13 Y5 3.660808 1_565
Y13 Y8 3.660886 1_555
Y14 Y5 3.659892 1_565
Y14 Y6 3.659920 1_565
Y14 Y7 3.660688 1_655
Y14 Y4 3.660715 1_655
Y15 Y3 3.540911 1_555
Y15 Y2 3.541328 1_555
Y15 Y4 3.660088 1_555
Y15 Y7 3.660097 1_556
Y15 Y6 3.660857 1_555
Y15 Y5 3.660867 1_556
Mg0 Mg1 3.081503 1_555
Mg0 Mg2 3.081504 1_555
Mg0 Mg3 3.081637 1_555
Mg0 Y10 3.341003 1_655
Mg0 Y14 3.341306 1_556
Mg0 Y12 3.341338 1_565
Mg0 Y1 3.534870 1_556
Mg0 Y2 3.534871 1_565
Mg0 Y3 3.534942 1_655
Mg0 Y7 3.565414 1_656
Mg0 Y9 3.565423 1_665
Mg0 Y5 3.565559 1_566
Mg1 Mg2 3.081014 1_555
Mg1 Mg3 3.081145 1_555
Mg1 Y13 3.341371 1_655
Mg1 Y14 3.341532 1_555
Mg1 Y11 3.341706 1_565
Mg1 Y0 3.534625 1_555
Mg1 Y2 3.534865 1_565
Mg1 Y3 3.534929 1_655
Mg1 Y4 3.565383 1_655
Mg1 Y6 3.565530 1_565
Mg1 Y9 3.565634 1_665
Mg2 Mg3 3.081150 1_555
Mg2 Y15 3.341340 1_655
Mg2 Y12 3.341492 1_555
Mg2 Y11 3.341643 1_556
Mg2 Y0 3.534635 1_555
Mg2 Y1 3.534879 1_556
Mg2 Y3 3.534938 1_655
Mg2 Y4 3.565353 1_655
Mg2 Y8 3.565499 1_556
Mg2 Y7 3.565601 1_656
Mg3 Y10 3.341870 1_555
Mg3 Y13 3.342024 1_556
Mg3 Y15 3.342045 1_565
Mg3 Y0 3.534563 1_555
Mg3 Y2 3.534803 1_565
Mg3 Y1 3.534809 1_556
Mg3 Y6 3.565679 1_565
Mg3 Y8 3.565680 1_556
Mg3 Y5 3.565932 1_566
Rh0 Y2 2.829910 1_555
Rh0 Y1 2.829931 1_555
Rh0 Y3 2.830179 1_555
Rh0 Y6 2.830634 1_555
Rh0 Y8 2.830642 1_555
Rh0 Y4 2.830965 1_555
Rh0 Y11 3.535659 1_555
Rh0 Y15 3.536201 1_555
Rh0 Y13 3.536238 1_555
Rh1 Y2 2.829950 1_555
Rh1 Y0 2.829965 1_555
Rh1 Y3 2.830218 1_555
Rh1 Y5 2.830642 1_556
Rh1 Y8 2.830664 1_556
Rh1 Y7 2.830963 1_556
Rh1 Y12 3.535672 1_555
Rh1 Y15 3.536187 1_555
Rh1 Y10 3.536237 1_555
Rh2 Y0 2.829953 1_555
Rh2 Y1 2.829957 1_555
Rh2 Y3 2.830205 1_555
Rh2 Y5 2.830613 1_565
Rh2 Y6 2.830628 1_565
Rh2 Y9 2.830928 1_565
Rh2 Y14 3.535656 1_555
Rh2 Y13 3.536170 1_555
Rh2 Y10 3.536184 1_555
Rh3 Y2 2.829832 1_555
Rh3 Y0 2.829843 1_555
Rh3 Y1 2.829856 1_555
Rh3 Y9 2.831156 1_655
Rh3 Y7 2.831169 1_655
Rh3 Y4 2.831175 1_655
Rh3 Y11 3.536160 1_555
Rh3 Y12 3.536167 1_555
Rh3 Y14 3.536215 1_555
