# generated using pymatgen
data_SmU2Se5
_symmetry_space_group_name_H-M   'P 1'
_cell_length_a   7.84611371
_cell_length_b   8.39190314
_cell_length_c   12.43423691
_cell_angle_alpha   90.00000000
_cell_angle_beta   90.00000000
_cell_angle_gamma   90.00000000
_symmetry_Int_Tables_number   1
_chemical_formula_structural   SmU2Se5
_chemical_formula_sum   'Sm4 U8 Se20'
_cell_volume   818.71773502
_cell_formula_units_Z   4
loop_
 _symmetry_equiv_pos_site_id
 _symmetry_equiv_pos_as_xyz
  1  'x, y, z'
loop_
 _atom_site_type_symbol
 _atom_site_label
 _atom_site_symmetry_multiplicity
 _atom_site_fract_x
 _atom_site_fract_y
 _atom_site_fract_z
 _atom_site_occupancy
  Sm  Sm0  1  0.01976599  0.50202468  0.82052045  1
  Sm  Sm1  1  0.98023401  0.00202468  0.17947955  1
  Sm  Sm2  1  0.51976599  0.00202468  0.67947955  1
  Sm  Sm3  1  0.48023401  0.50202468  0.32052045  1
  U  U0  1  0.57436658  0.25007286  0.99127596  1
  U  U1  1  0.92563342  0.25007286  0.49127596  1
  U  U2  1  0.42563342  0.75007286  0.00872404  1
  U  U3  1  0.07436658  0.75007286  0.50872404  1
  U  U4  1  0.48136258  -0.00079712  0.32126024  1
  U  U5  1  0.51863742  0.49920288  0.67873976  1
  U  U6  1  0.98136258  0.49920288  0.17873976  1
  U  U7  1  0.01863742  -0.00079712  0.82126024  1
  Se  Se0  1  0.33691681  0.04185035  0.09906618  1
  Se  Se1  1  0.16396122  0.45419824  0.59847472  1
  Se  Se2  1  0.66308319  0.54185035  0.90093382  1
  Se  Se3  1  0.83603878  0.95419824  0.40152528  1
  Se  Se4  1  0.66396122  0.95419824  0.90152528  1
  Se  Se5  1  0.83691681  0.54185035  0.40093382  1
  Se  Se6  1  0.33603878  0.45419824  0.09847472  1
  Se  Se7  1  0.16308319  0.04185035  0.59906618  1
  Se  Se8  1  0.95962486  0.25014382  -0.00024024  1
  Se  Se9  1  0.54037514  0.25014382  0.49975976  1
  Se  Se10  1  0.04037514  0.75014382  0.00024024  1
  Se  Se11  1  0.45962486  0.75014382  0.50024024  1
  Se  Se12  1  0.32647229  0.25215242  0.81571390  1
  Se  Se13  1  0.17352771  0.25215242  0.31571390  1
  Se  Se14  1  0.67352771  0.75215242  0.18428610  1
  Se  Se15  1  0.82647229  0.75215242  0.68428610  1
  Se  Se16  1  0.69985957  0.25035375  0.21536919  1
  Se  Se17  1  0.80014043  0.25035375  0.71536919  1
  Se  Se18  1  0.30014043  0.75035375  0.78463081  1
  Se  Se19  1  0.19985957  0.75035375  0.28463081  1
loop_
_geom_bond_atom_site_label_1
_geom_bond_atom_site_label_2
_geom_bond_distance
_geom_bond_site_symmetry_2
Se0 U2 2.782427 1_545
Se0 U0 2.884564 1_554
Se0 Sm1 2.990564 1_455
Se0 U4 3.007604 1_555
Se1 U3 2.811517 1_555
Se1 U1 2.864924 1_455
Se1 U5 2.980411 1_555
Se1 Sm0 3.010654 1_555
Se2 U0 2.782427 1_555
Se2 U2 2.884564 1_556
Se2 Sm0 2.990564 1_655
Se2 U5 3.007604 1_555
Se3 U1 2.811517 1_565
Se3 U3 2.864924 1_655
Se3 U4 2.980411 1_565
Se3 Sm1 3.010654 1_565
Se4 U0 2.811517 1_565
Se4 U2 2.864924 1_556
Se4 U7 2.980411 1_665
Se4 Sm2 3.010654 1_565
Se5 U1 2.782427 1_555
Se5 U3 2.884564 1_655
Se5 Sm3 2.990564 1_555
Se5 U6 3.007604 1_555
Se6 U2 2.811517 1_555
Se6 U0 2.864924 1_554
Se6 U6 2.980411 1_455
Se6 Sm3 3.010654 1_555
Se7 U3 2.782427 1_545
Se7 U1 2.884564 1_455
Se7 Sm2 2.990564 1_555
Se7 U7 3.007604 1_555
Se8 U0 3.024620 1_554
Se8 U6 3.057823 1_555
Se8 Sm1 3.058669 1_555
Se8 U7 3.094396 1_654
Se8 Sm0 3.107695 1_654
Se9 U1 3.024620 1_555
Se9 U5 3.057823 1_555
Se9 Sm2 3.058669 1_555
Se9 U4 3.094396 1_555
Se9 Sm3 3.107695 1_555
Se10 U2 3.024620 1_555
Se10 U7 3.057823 1_564
Se10 Sm0 3.058669 1_554
Se10 U6 3.094396 1_455
Se10 Sm1 3.107695 1_465
Se11 U3 3.024620 1_555
Se11 U4 3.057823 1_565
Se11 Sm3 3.058669 1_555
Se11 U5 3.094396 1_555
Se11 Sm2 3.107695 1_565
Se12 U0 2.923826 1_555
Se12 U5 3.077718 1_555
Se12 Sm2 3.094451 1_555
Se12 Sm0 3.192427 1_555
Se12 U7 3.216277 1_555
Se13 U1 2.923826 1_455
Se13 U6 3.077718 1_455
Se13 Sm1 3.094451 1_455
Se13 Sm3 3.192427 1_555
Se13 U4 3.216277 1_555
Se14 U2 2.923826 1_555
Se14 U4 3.077718 1_565
Se14 Sm3 3.094451 1_555
Se14 Sm1 3.192427 1_565
Se14 U6 3.216277 1_555
Se15 U3 2.923826 1_655
Se15 U7 3.077718 1_665
Se15 Sm0 3.094451 1_655
Se15 Sm2 3.192427 1_565
Se15 U5 3.216277 1_555
Se16 U0 2.955282 1_554
Se16 U4 3.019065 1_555
Se16 Sm3 3.023156 1_555
Se16 Sm1 3.062899 1_555
Se16 U6 3.073579 1_555
Se17 U1 2.955282 1_555
Se17 U7 3.019065 1_655
Se17 Sm0 3.023156 1_655
Se17 Sm2 3.062899 1_555
Se17 U5 3.073579 1_555
Se18 U2 2.955282 1_556
Se18 U5 3.019065 1_555
Se18 Sm2 3.023156 1_565
Se18 Sm0 3.062899 1_555
Se18 U7 3.073579 1_565
Se19 U3 2.955282 1_555
Se19 U6 3.019065 1_455
Se19 Sm1 3.023156 1_465
Se19 Sm3 3.062899 1_555
Se19 U4 3.073579 1_565
