# generated using pymatgen
data_GaNi4Ge3
_symmetry_space_group_name_H-M   'P 1'
_cell_length_a   6.12002569
_cell_length_b   6.12002569
_cell_length_c   4.88958111
_cell_angle_alpha   80.00141140
_cell_angle_beta   80.00141140
_cell_angle_gamma   36.36409547
_symmetry_Int_Tables_number   1
_chemical_formula_structural   GaNi4Ge3
_chemical_formula_sum   'Ga1 Ni4 Ge3'
_cell_volume   106.75646625
_cell_formula_units_Z   1
loop_
 _symmetry_equiv_pos_site_id
 _symmetry_equiv_pos_as_xyz
  1  'x, y, z'
loop_
 _atom_site_type_symbol
 _atom_site_label
 _atom_site_symmetry_multiplicity
 _atom_site_fract_x
 _atom_site_fract_y
 _atom_site_fract_z
 _atom_site_occupancy
  Ga  Ga0  1  0.42928600  0.42928600  0.28664000  1
  Ni  Ni0  1  0.00165800  0.00165800  0.99860400  1
  Ni  Ni1  1  0.20342000  0.20342000  0.66958500  1
  Ni  Ni2  1  0.79499900  0.79499900  0.33154500  1
  Ni  Ni3  1  0.00096300  0.00096300  0.50078600  1
  Ge  Ge0  1  0.56854100  0.56854100  0.71269800  1
  Ge  Ge1  1  0.18589200  0.18589200  0.17775100  1
  Ge  Ge2  1  0.81524200  0.81524200  0.82239000  1
loop_
_geom_bond_atom_site_label_1
_geom_bond_atom_site_label_2
_geom_bond_distance
_geom_bond_site_symmetry_2
Ga0 Ni3 2.399376 1_565
Ga0 Ni3 2.399376 1_655
Ga0 Ni0 2.430116 1_564
Ga0 Ni0 2.430116 1_654
Ga0 Ni2 2.451199 1_545
Ga0 Ni2 2.451199 1_455
Ga0 Ge0 2.862751 1_555
Ga0 Ni1 2.933832 1_555
Ga0 Ge0 2.972694 1_554
Ga0 Ge1 2.974132 1_555
Ni0 Ni3 2.435611 1_555
Ni0 Ni3 2.453995 1_556
Ni0 Ni1 2.591044 1_555
Ni0 Ni2 2.644942 1_446
Ni1 Ni2 2.620999 1_455
Ni1 Ni2 2.620999 1_545
Ni1 Ni3 2.633328 1_555
Ni2 Ni3 2.673178 1_665
Ge0 Ni3 2.373959 1_655
Ge0 Ni3 2.373959 1_565
Ge0 Ni0 2.410122 1_655
Ge0 Ni0 2.410122 1_565
Ge0 Ni1 2.455734 1_655
Ge0 Ni1 2.455734 1_565
Ge1 Ni3 2.424474 1_555
Ge1 Ni1 2.450321 1_555
Ge1 Ni1 2.455660 1_554
Ge1 Ni0 2.458305 1_554
Ge1 Ni2 2.484133 1_455
Ge1 Ni2 2.484133 1_545
Ge2 Ni3 2.428153 1_665
Ge2 Ni2 2.453984 1_555
Ge2 Ni2 2.457458 1_556
Ge2 Ni0 2.474768 1_665
Ge2 Ni1 2.500232 1_655
Ge2 Ni1 2.500232 1_565
