# generated using pymatgen
data_RbHf2Br9
_symmetry_space_group_name_H-M   'P 1'
_cell_length_a   6.86799214
_cell_length_b   10.12146590
_cell_length_c   13.02970400
_cell_angle_alpha   66.49827321
_cell_angle_beta   90.00000000
_cell_angle_gamma   90.00000000
_symmetry_Int_Tables_number   1
_chemical_formula_structural   RbHf2Br9
_chemical_formula_sum   'Rb2 Hf4 Br18'
_cell_volume   830.61515422
_cell_formula_units_Z   2
loop_
 _symmetry_equiv_pos_site_id
 _symmetry_equiv_pos_as_xyz
  1  'x, y, z'
loop_
 _atom_site_type_symbol
 _atom_site_label
 _atom_site_symmetry_multiplicity
 _atom_site_fract_x
 _atom_site_fract_y
 _atom_site_fract_z
 _atom_site_occupancy
  Rb  Rb0  1  0.58604805  0.50000000  0.75000000  1
  Rb  Rb1  1  0.41395195  0.50000000  0.25000000  1
  Hf  Hf0  1  0.26125997  0.82229934  0.86686838  1
  Hf  Hf1  1  0.73874003  0.17770066  0.13313162  1
  Hf  Hf2  1  0.26125997  0.17770066  0.63313162  1
  Hf  Hf3  1  0.73874003  0.82229934  0.36686838  1
  Br  Br0  1  0.10820432  0.78597111  0.04968462  1
  Br  Br1  1  0.89179568  0.21402889  0.95031538  1
  Br  Br2  1  0.10820432  0.21402889  0.45031538  1
  Br  Br3  1  0.89179568  0.78597111  0.54968462  1
  Br  Br4  1  0.11210431  0.61024555  0.84241048  1
  Br  Br5  1  0.88789569  0.38975445  0.15758952  1
  Br  Br6  1  0.11210431  0.38975445  0.65758952  1
  Br  Br7  1  0.88789569  0.61024555  0.34241048  1
  Br  Br8  1  0.96853821  0.00000000  0.75000000  1
  Br  Br9  1  0.03146179  0.00000000  0.25000000  1
  Br  Br10  1  0.41093787  0.08199794  0.84606940  1
  Br  Br11  1  0.58906213  0.91800206  0.15393060  1
  Br  Br12  1  0.41093787  0.91800206  0.65393060  1
  Br  Br13  1  0.58906213  0.08199794  0.34606940  1
  Br  Br14  1  0.58198670  0.70175473  0.94236329  1
  Br  Br15  1  0.41801330  0.29824527  0.05763671  1
  Br  Br16  1  0.58198670  0.29824527  0.55763671  1
  Br  Br17  1  0.41801330  0.70175473  0.44236329  1
loop_
_geom_bond_atom_site_label_1
_geom_bond_atom_site_label_2
_geom_bond_distance
_geom_bond_site_symmetry_2
Br0 Hf0 2.493143 1_554
Br0 Rb1 3.684347 1_555
Br1 Hf1 2.493143 1_556
Br1 Rb0 3.684347 1_555
Br2 Hf2 2.493143 1_555
Br2 Rb1 3.684347 1_555
Br3 Hf3 2.493143 1_555
Br3 Rb0 3.684347 1_555
Br4 Hf0 2.510587 1_555
Br4 Rb0 3.789695 1_555
Br4 Rb0 4.101208 1_455
Br5 Hf1 2.510587 1_555
Br5 Rb1 3.789695 1_555
Br5 Rb1 4.101208 1_655
Br6 Hf2 2.510587 1_555
Br6 Rb0 3.789695 1_555
Br6 Rb0 4.101208 1_455
Br7 Hf3 2.510587 1_555
Br7 Rb1 3.789695 1_555
Br7 Rb1 4.101208 1_655
Br8 Hf0 2.722338 1_645
Br8 Hf2 2.722338 1_655
Br9 Hf3 2.722338 1_445
Br9 Hf1 2.722338 1_455
Br10 Hf0 2.733357 1_545
Br10 Hf2 2.747640 1_555
Br10 Rb0 4.085230 1_555
Br11 Hf1 2.733357 1_565
Br11 Hf3 2.747640 1_555
Br11 Rb1 4.085230 1_555
Br12 Hf2 2.733357 1_565
Br12 Hf0 2.747640 1_555
Br12 Rb0 4.085230 1_555
Br13 Hf3 2.733357 1_545
Br13 Hf1 2.747640 1_555
Br13 Rb1 4.085230 1_555
Br14 Hf0 2.520146 1_555
Br14 Rb0 3.812491 1_555
Br14 Rb1 3.878265 1_556
Br15 Hf1 2.520146 1_555
Br15 Rb1 3.812491 1_555
Br15 Rb0 3.878265 1_554
Br16 Hf2 2.520146 1_555
Br16 Rb0 3.812491 1_555
Br16 Rb1 3.878265 1_555
Br17 Hf3 2.520146 1_555
Br17 Rb1 3.812491 1_555
Br17 Rb0 3.878265 1_555
