# generated using pymatgen
data_Co3Pt
_symmetry_space_group_name_H-M   'P 1'
_cell_length_a   5.27346145
_cell_length_b   5.27346145
_cell_length_c   16.58249800
_cell_angle_alpha   90.00000000
_cell_angle_beta   90.00000000
_cell_angle_gamma   120.00001819
_symmetry_Int_Tables_number   1
_chemical_formula_structural   Co3Pt
_chemical_formula_sum   'Co24 Pt8'
_cell_volume   399.36689047
_cell_formula_units_Z   8
loop_
 _symmetry_equiv_pos_site_id
 _symmetry_equiv_pos_as_xyz
  1  'x, y, z'
loop_
 _atom_site_type_symbol
 _atom_site_label
 _atom_site_symmetry_multiplicity
 _atom_site_fract_x
 _atom_site_fract_y
 _atom_site_fract_z
 _atom_site_occupancy
  Co  Co0_0  1  0.16666650  0.33333350  0.25000000  1
  Co  Co0_1  1  0.16666650  0.33333350  0.75000000  1
  Co  Co0_2  1  0.16666650  0.83333350  0.25000000  1
  Co  Co0_3  1  0.16666650  0.83333350  0.75000000  1
  Co  Co0_4  1  0.66666650  0.33333350  0.25000000  1
  Co  Co0_5  1  0.66666650  0.33333350  0.75000000  1
  Co  Co0_6  1  0.66666650  0.83333350  0.25000000  1
  Co  Co0_7  1  0.66666650  0.83333350  0.75000000  1
  Co  Co1_0  1  0.00000000  0.00000000  0.13360400  1
  Co  Co1_1  1  0.00000000  0.00000000  0.63360400  1
  Co  Co1_2  1  0.00000000  0.50000000  0.13360400  1
  Co  Co1_3  1  0.00000000  0.50000000  0.63360400  1
  Co  Co1_4  1  0.50000000  0.00000000  0.13360400  1
  Co  Co1_5  1  0.50000000  0.00000000  0.63360400  1
  Co  Co1_6  1  0.50000000  0.50000000  0.13360400  1
  Co  Co1_7  1  0.50000000  0.50000000  0.63360400  1
  Co  Co2_0  1  0.00000000  0.00000000  0.36639600  1
  Co  Co2_1  1  0.00000000  0.00000000  0.86639600  1
  Co  Co2_2  1  0.00000000  0.50000000  0.36639600  1
  Co  Co2_3  1  0.00000000  0.50000000  0.86639600  1
  Co  Co2_4  1  0.50000000  0.00000000  0.36639600  1
  Co  Co2_5  1  0.50000000  0.00000000  0.86639600  1
  Co  Co2_6  1  0.50000000  0.50000000  0.36639600  1
  Co  Co2_7  1  0.50000000  0.50000000  0.86639600  1
  Pt  Pt0_0  1  0.16666650  0.33333350  0.00000000  1
  Pt  Pt0_1  1  0.16666650  0.33333350  0.50000000  1
  Pt  Pt0_2  1  0.16666650  0.83333350  0.00000000  1
  Pt  Pt0_3  1  0.16666650  0.83333350  0.50000000  1
  Pt  Pt0_4  1  0.66666650  0.33333350  0.00000000  1
  Pt  Pt0_5  1  0.66666650  0.33333350  0.50000000  1
  Pt  Pt0_6  1  0.66666650  0.83333350  0.00000000  1
  Pt  Pt0_7  1  0.66666650  0.83333350  0.50000000  1
loop_
_geom_bond_atom_site_label_1
_geom_bond_atom_site_label_2
_geom_bond_distance
_geom_bond_site_symmetry_2
Co0_0 Co2_2 2.458225 1_555
Co0_0 Co1_2 2.458225 1_555
Co0_0 Co1_0 2.458227 1_555
Co0_0 Co2_6 2.458227 1_555
Co0_0 Co2_0 2.458227 1_555
Co0_0 Co1_6 2.458227 1_555
Co0_0 Co0_6 2.636730 1_555
Co0_0 Co0_6 2.636730 1_445
Co0_0 Co0_2 2.636731 1_555
Co0_0 Co0_4 2.636731 1_455
Co0_0 Co0_2 2.636731 1_545
Co0_0 Co0_4 2.636731 1_555
Co0_1 Co2_3 2.458225 1_555
Co0_1 Co1_3 2.458225 1_555
Co0_1 Co2_7 2.458227 1_555
Co0_1 Co2_1 2.458227 1_555
Co0_1 Co1_7 2.458227 1_555
Co0_1 Co1_1 2.458227 1_555
Co0_1 Co0_7 2.636730 1_445
Co0_1 Co0_7 2.636730 1_555
Co0_1 Co0_5 2.636731 1_455
Co0_1 Co0_5 2.636731 1_555
Co0_1 Co0_3 2.636731 1_545
Co0_1 Co0_3 2.636731 1_555
Co0_2 Co1_0 2.458225 1_565
Co0_2 Co2_0 2.458225 1_565
Co0_2 Co2_2 2.458227 1_555
Co0_2 Co2_4 2.458227 1_565
Co0_2 Co1_2 2.458227 1_555
Co0_2 Co1_4 2.458227 1_565
Co0_2 Co0_4 2.636730 1_565
Co0_2 Co0_4 2.636730 1_455
Co0_2 Co0_6 2.636731 1_555
Co0_2 Co0_6 2.636731 1_455
Co0_3 Co2_1 2.458225 1_565
Co0_3 Co1_1 2.458225 1_565
Co0_3 Co2_3 2.458227 1_555
Co0_3 Co2_5 2.458227 1_565
Co0_3 Co1_5 2.458227 1_565
Co0_3 Co1_3 2.458227 1_555
Co0_3 Co0_5 2.636730 1_565
Co0_3 Co0_5 2.636730 1_455
Co0_3 Co0_7 2.636731 1_555
Co0_3 Co0_7 2.636731 1_455
Co0_4 Co2_6 2.458225 1_555
Co0_4 Co1_6 2.458225 1_555
Co0_4 Co1_4 2.458227 1_555
Co0_4 Co2_2 2.458227 1_655
Co0_4 Co1_2 2.458227 1_655
Co0_4 Co2_4 2.458227 1_555
Co0_4 Co0_6 2.636731 1_545
Co0_4 Co0_6 2.636731 1_555
Co0_5 Co2_7 2.458225 1_555
Co0_5 Co1_7 2.458225 1_555
Co0_5 Co2_5 2.458227 1_555
Co0_5 Co2_3 2.458227 1_655
Co0_5 Co1_3 2.458227 1_655
Co0_5 Co1_5 2.458227 1_555
Co0_5 Co0_7 2.636731 1_545
Co0_5 Co0_7 2.636731 1_555
Co0_6 Co1_4 2.458225 1_565
Co0_6 Co2_4 2.458225 1_565
Co0_6 Co2_6 2.458227 1_555
Co0_6 Co1_6 2.458227 1_555
Co0_6 Co2_0 2.458227 1_665
Co0_6 Co1_0 2.458227 1_665
Co0_7 Co2_5 2.458225 1_565
Co0_7 Co1_5 2.458225 1_565
Co0_7 Co2_7 2.458227 1_555
Co0_7 Co2_1 2.458227 1_665
Co0_7 Co1_7 2.458227 1_555
Co0_7 Co1_1 2.458227 1_665
Co1_0 Co1_6 2.636730 1_555
Co1_0 Co1_6 2.636730 1_445
Co1_0 Co1_4 2.636731 1_455
Co1_0 Co1_4 2.636731 1_555
Co1_0 Co1_2 2.636731 1_555
Co1_0 Co1_2 2.636731 1_545
Co1_0 Pt0_2 2.688091 1_545
Co1_0 Pt0_0 2.688092 1_555
Co1_0 Pt0_6 2.688092 1_445
Co1_1 Co1_7 2.636730 1_555
Co1_1 Co1_7 2.636730 1_445
Co1_1 Co1_3 2.636731 1_555
Co1_1 Co1_3 2.636731 1_545
Co1_1 Co1_5 2.636731 1_555
Co1_1 Co1_5 2.636731 1_455
Co1_1 Pt0_3 2.688091 1_545
Co1_1 Pt0_1 2.688092 1_555
Co1_1 Pt0_7 2.688092 1_445
Co1_2 Co1_4 2.636730 1_565
Co1_2 Co1_4 2.636730 1_455
Co1_2 Co1_6 2.636731 1_555
Co1_2 Co1_6 2.636731 1_455
Co1_2 Pt0_0 2.688091 1_555
Co1_2 Pt0_2 2.688092 1_555
Co1_2 Pt0_4 2.688092 1_455
Co1_3 Co1_5 2.636730 1_455
Co1_3 Co1_5 2.636730 1_565
Co1_3 Co1_7 2.636731 1_555
Co1_3 Co1_7 2.636731 1_455
Co1_3 Pt0_1 2.688091 1_555
Co1_3 Pt0_5 2.688092 1_455
Co1_3 Pt0_3 2.688092 1_555
Co1_4 Co1_6 2.636731 1_545
Co1_4 Co1_6 2.636731 1_555
Co1_4 Pt0_6 2.688091 1_545
Co1_4 Pt0_4 2.688092 1_555
Co1_4 Pt0_2 2.688092 1_545
Co1_5 Co1_7 2.636731 1_545
Co1_5 Co1_7 2.636731 1_555
Co1_5 Pt0_7 2.688091 1_545
Co1_5 Pt0_3 2.688092 1_545
Co1_5 Pt0_5 2.688092 1_555
Co1_6 Pt0_4 2.688091 1_555
Co1_6 Pt0_0 2.688092 1_555
Co1_6 Pt0_6 2.688092 1_555
Co1_7 Pt0_5 2.688091 1_555
Co1_7 Pt0_1 2.688092 1_555
Co1_7 Pt0_7 2.688092 1_555
Co2_0 Co2_6 2.636730 1_555
Co2_0 Co2_6 2.636730 1_445
Co2_0 Co2_4 2.636731 1_555
Co2_0 Co2_2 2.636731 1_555
Co2_0 Co2_4 2.636731 1_455
Co2_0 Co2_2 2.636731 1_545
Co2_0 Pt0_3 2.688091 1_545
Co2_0 Pt0_1 2.688092 1_555
Co2_0 Pt0_7 2.688092 1_445
Co2_1 Co2_7 2.636730 1_555
Co2_1 Co2_7 2.636730 1_445
Co2_1 Co2_3 2.636731 1_545
Co2_1 Co2_5 2.636731 1_555
Co2_1 Co2_3 2.636731 1_555
Co2_1 Co2_5 2.636731 1_455
Co2_1 Pt0_2 2.688091 1_546
Co2_1 Pt0_0 2.688092 1_556
Co2_1 Pt0_6 2.688092 1_446
Co2_2 Co2_4 2.636730 1_565
Co2_2 Co2_4 2.636730 1_455
Co2_2 Co2_6 2.636731 1_555
Co2_2 Co2_6 2.636731 1_455
Co2_2 Pt0_1 2.688091 1_555
Co2_2 Pt0_5 2.688092 1_455
Co2_2 Pt0_3 2.688092 1_555
Co2_3 Co2_5 2.636730 1_565
Co2_3 Co2_5 2.636730 1_455
Co2_3 Co2_7 2.636731 1_555
Co2_3 Co2_7 2.636731 1_455
Co2_3 Pt0_0 2.688091 1_556
Co2_3 Pt0_4 2.688092 1_456
Co2_3 Pt0_2 2.688092 1_556
Co2_4 Co2_6 2.636731 1_545
Co2_4 Co2_6 2.636731 1_555
Co2_4 Pt0_7 2.688091 1_545
Co2_4 Pt0_5 2.688092 1_555
Co2_4 Pt0_3 2.688092 1_545
Co2_5 Co2_7 2.636731 1_545
Co2_5 Co2_7 2.636731 1_555
Co2_5 Pt0_6 2.688091 1_546
Co2_5 Pt0_2 2.688092 1_546
Co2_5 Pt0_4 2.688092 1_556
Co2_6 Pt0_5 2.688091 1_555
Co2_6 Pt0_1 2.688092 1_555
Co2_6 Pt0_7 2.688092 1_555
Co2_7 Pt0_4 2.688091 1_556
Co2_7 Pt0_0 2.688092 1_556
Co2_7 Pt0_6 2.688092 1_556
Pt0_0 Pt0_6 2.636730 1_445
Pt0_0 Pt0_6 2.636730 1_555
Pt0_0 Pt0_2 2.636731 1_555
Pt0_0 Pt0_2 2.636731 1_545
Pt0_0 Pt0_4 2.636731 1_455
Pt0_0 Pt0_4 2.636731 1_555
Pt0_1 Pt0_7 2.636730 1_555
Pt0_1 Pt0_7 2.636730 1_445
Pt0_1 Pt0_5 2.636731 1_455
Pt0_1 Pt0_3 2.636731 1_545
Pt0_1 Pt0_5 2.636731 1_555
Pt0_1 Pt0_3 2.636731 1_555
Pt0_2 Pt0_4 2.636730 1_565
Pt0_2 Pt0_4 2.636730 1_455
Pt0_2 Pt0_6 2.636731 1_555
Pt0_2 Pt0_6 2.636731 1_455
Pt0_3 Pt0_5 2.636730 1_565
Pt0_3 Pt0_5 2.636730 1_455
Pt0_3 Pt0_7 2.636731 1_555
Pt0_3 Pt0_7 2.636731 1_455
Pt0_4 Pt0_6 2.636731 1_545
Pt0_4 Pt0_6 2.636731 1_555
Pt0_5 Pt0_7 2.636731 1_545
Pt0_5 Pt0_7 2.636731 1_555
