# generated using pymatgen
data_Zr6FeS2
_symmetry_space_group_name_H-M   'P 1'
_cell_length_a   3.45801563
_cell_length_b   12.78230312
_cell_length_c   15.60164228
_cell_angle_alpha   90.00000000
_cell_angle_beta   90.00000000
_cell_angle_gamma   90.00000000
_symmetry_Int_Tables_number   1
_chemical_formula_structural   Zr6FeS2
_chemical_formula_sum   'Zr24 Fe4 S8'
_cell_volume   689.61449311
_cell_formula_units_Z   4
loop_
 _symmetry_equiv_pos_site_id
 _symmetry_equiv_pos_as_xyz
  1  'x, y, z'
loop_
 _atom_site_type_symbol
 _atom_site_label
 _atom_site_symmetry_multiplicity
 _atom_site_fract_x
 _atom_site_fract_y
 _atom_site_fract_z
 _atom_site_occupancy
  Zr  Zr0  1  -0.00000000  0.02430565  0.10595177  1
  Zr  Zr1  1  -0.00000000  0.97569435  0.89404823  1
  Zr  Zr2  1  0.50000000  0.47569435  0.60595177  1
  Zr  Zr3  1  0.50000000  0.52430565  0.39404823  1
  Zr  Zr4  1  -0.00000000  0.41228909  0.24891384  1
  Zr  Zr5  1  0.00000000  0.58771091  0.75108616  1
  Zr  Zr6  1  0.50000000  0.08771091  0.74891384  1
  Zr  Zr7  1  0.50000000  0.91228909  0.25108616  1
  Zr  Zr8  1  -0.00000000  0.08776981  0.57857698  1
  Zr  Zr9  1  0.00000000  0.91223019  0.42142302  1
  Zr  Zr10  1  0.50000000  0.41223019  0.07857698  1
  Zr  Zr11  1  0.50000000  0.58776981  0.92142302  1
  Zr  Zr12  1  -0.00000000  0.33417137  0.48231592  1
  Zr  Zr13  1  -0.00000000  0.66582863  0.51768408  1
  Zr  Zr14  1  0.50000000  0.16582863  0.98231592  1
  Zr  Zr15  1  0.50000000  0.83417137  0.01768408  1
  Zr  Zr16  1  -0.00000000  0.69449968  0.29302000  1
  Zr  Zr17  1  -0.00000000  0.30550032  0.70698000  1
  Zr  Zr18  1  0.50000000  0.80550032  0.79302000  1
  Zr  Zr19  1  0.50000000  0.19449968  0.20698000  1
  Zr  Zr20  1  0.00000000  0.62068902  0.08674399  1
  Zr  Zr21  1  -0.00000000  0.37931098  0.91325601  1
  Zr  Zr22  1  0.50000000  0.87931098  0.58674399  1
  Zr  Zr23  1  0.50000000  0.12068902  0.41325601  1
  Fe  Fe0  1  -0.00000000  0.25911538  0.09045765  1
  Fe  Fe1  1  0.00000000  0.74088462  0.90954235  1
  Fe  Fe2  1  0.50000000  0.24088462  0.59045765  1
  Fe  Fe3  1  0.50000000  0.75911538  0.40954235  1
  S  S0  1  -0.00000000  0.06327272  0.28795074  1
  S  S1  1  0.00000000  0.93672728  0.71204926  1
  S  S2  1  0.50000000  0.43672728  0.78795074  1
  S  S3  1  0.50000000  0.56327272  0.21204926  1
  S  S4  1  0.00000000  0.81282741  0.15147965  1
  S  S5  1  -0.00000000  0.18717259  0.84852035  1
  S  S6  1  0.50000000  0.68717259  0.65147965  1
  S  S7  1  0.50000000  0.31282741  0.34852035  1
loop_
_geom_bond_atom_site_label_1
_geom_bond_atom_site_label_2
_geom_bond_distance
_geom_bond_site_symmetry_2
Fe0 Zr10 2.618072 1_455
Fe0 Zr10 2.618072 1_555
Fe0 Zr19 2.641315 1_555
Fe0 Zr19 2.641315 1_455
Fe0 Zr14 2.694056 1_454
Fe0 Zr14 2.694056 1_554
Fe0 Zr0 3.011128 1_555
Fe0 Zr4 3.153582 1_555
Fe0 Zr21 3.162858 1_554
Fe1 Zr11 2.618072 1_455
Fe1 Zr11 2.618072 1_555
Fe1 Zr18 2.641315 1_455
Fe1 Zr18 2.641315 1_555
Fe1 Zr15 2.694056 1_556
Fe1 Zr15 2.694056 1_456
Fe1 Zr1 3.011128 1_555
Fe1 Zr5 3.153582 1_555
Fe1 Zr20 3.162858 1_556
Fe2 Zr8 2.618072 1_555
Fe2 Zr8 2.618072 1_655
Fe2 Zr17 2.641315 1_555
Fe2 Zr17 2.641315 1_655
Fe2 Zr12 2.694056 1_555
Fe2 Zr12 2.694056 1_655
Fe2 Zr2 3.011128 1_555
Fe2 Zr6 3.153582 1_555
Fe2 Zr23 3.162858 1_555
Fe3 Zr9 2.618072 1_655
Fe3 Zr9 2.618072 1_555
Fe3 Zr16 2.641315 1_555
Fe3 Zr16 2.641315 1_655
Fe3 Zr13 2.694056 1_655
Fe3 Zr13 2.694056 1_555
Fe3 Zr3 3.011128 1_555
Fe3 Zr7 3.153582 1_555
Fe3 Zr22 3.162858 1_555
S0 Zr7 2.654213 1_445
S0 Zr7 2.654213 1_545
S0 Zr23 2.711088 1_455
S0 Zr23 2.711088 1_555
S0 Zr19 2.720101 1_455
S0 Zr19 2.720101 1_555
S0 Zr9 2.839688 1_545
S0 Zr0 2.882838 1_555
S1 Zr6 2.654213 1_465
S1 Zr6 2.654213 1_565
S1 Zr22 2.711088 1_455
S1 Zr22 2.711088 1_555
S1 Zr18 2.720101 1_455
S1 Zr18 2.720101 1_555
S1 Zr8 2.839688 1_565
S1 Zr1 2.882838 1_555
S2 Zr5 2.654213 1_555
S2 Zr5 2.654213 1_655
S2 Zr21 2.711088 1_655
S2 Zr21 2.711088 1_555
S2 Zr17 2.720101 1_655
S2 Zr17 2.720101 1_555
S2 Zr11 2.839688 1_555
S2 Zr2 2.882838 1_555
S3 Zr4 2.654213 1_555
S3 Zr4 2.654213 1_655
S3 Zr20 2.711088 1_655
S3 Zr20 2.711088 1_555
S3 Zr16 2.720101 1_655
S3 Zr16 2.720101 1_555
S3 Zr10 2.839688 1_555
S3 Zr3 2.882838 1_555
S4 Zr7 2.649678 1_455
S4 Zr7 2.649678 1_555
S4 Zr20 2.655534 1_555
S4 Zr16 2.676580 1_555
S4 Zr15 2.724200 1_555
S4 Zr15 2.724200 1_455
S4 Zr0 2.794945 1_565
S5 Zr6 2.649678 1_555
S5 Zr6 2.649678 1_455
S5 Zr21 2.655534 1_555
S5 Zr17 2.676580 1_555
S5 Zr14 2.724200 1_555
S5 Zr14 2.724200 1_455
S5 Zr1 2.794945 1_545
S6 Zr5 2.649678 1_655
S6 Zr5 2.649678 1_555
S6 Zr22 2.655534 1_555
S6 Zr18 2.676580 1_555
S6 Zr13 2.724200 1_555
S6 Zr13 2.724200 1_655
S6 Zr2 2.794945 1_555
S7 Zr4 2.649678 1_655
S7 Zr4 2.649678 1_555
S7 Zr23 2.655534 1_555
S7 Zr19 2.676580 1_555
S7 Zr12 2.724200 1_555
S7 Zr12 2.724200 1_655
S7 Zr3 2.794945 1_555
