# generated using pymatgen
data_PrCo8P5
_symmetry_space_group_name_H-M   'P 1'
_cell_length_a   3.54473600
_cell_length_b   9.24154600
_cell_length_c   10.42259800
_cell_angle_alpha   90.00000000
_cell_angle_beta   90.00000000
_cell_angle_gamma   90.00000000
_symmetry_Int_Tables_number   1
_chemical_formula_structural   PrCo8P5
_chemical_formula_sum   'Pr2 Co16 P10'
_cell_volume   341.43222862
_cell_formula_units_Z   2
loop_
 _symmetry_equiv_pos_site_id
 _symmetry_equiv_pos_as_xyz
  1  'x, y, z'
loop_
 _atom_site_type_symbol
 _atom_site_label
 _atom_site_symmetry_multiplicity
 _atom_site_fract_x
 _atom_site_fract_y
 _atom_site_fract_z
 _atom_site_occupancy
  Pr  Pr0  1  0.75000000  0.82320100  0.75000000  1
  Pr  Pr1  1  0.25000000  0.17679900  0.25000000  1
  Co  Co0  1  0.75000000  0.52093200  0.91677400  1
  Co  Co1  1  0.75000000  0.52093200  0.58322600  1
  Co  Co2  1  0.25000000  0.47906800  0.08322600  1
  Co  Co3  1  0.25000000  0.47906800  0.41677400  1
  Co  Co4  1  0.75000000  0.11039100  0.99601200  1
  Co  Co5  1  0.75000000  0.11039100  0.50398800  1
  Co  Co6  1  0.25000000  0.88960900  0.00398800  1
  Co  Co7  1  0.25000000  0.88960900  0.49601200  1
  Co  Co8  1  0.75000000  0.69749600  0.10727300  1
  Co  Co9  1  0.75000000  0.69749600  0.39272700  1
  Co  Co10  1  0.25000000  0.30250400  0.89272700  1
  Co  Co11  1  0.25000000  0.30250400  0.60727300  1
  Co  Co12  1  0.75000000  0.15160200  0.75000000  1
  Co  Co13  1  0.25000000  0.84839800  0.25000000  1
  Co  Co14  1  0.25000000  0.54595900  0.75000000  1
  Co  Co15  1  0.75000000  0.45404100  0.25000000  1
  P  P0  1  0.75000000  0.93252300  0.13045800  1
  P  P1  1  0.75000000  0.93252300  0.36954200  1
  P  P2  1  0.25000000  0.06747700  0.86954200  1
  P  P3  1  0.25000000  0.06747700  0.63045800  1
  P  P4  1  0.75000000  0.33909300  0.05736000  1
  P  P5  1  0.75000000  0.33909300  0.44264000  1
  P  P6  1  0.25000000  0.66090700  0.94264000  1
  P  P7  1  0.25000000  0.66090700  0.55736000  1
  P  P8  1  0.75000000  0.38526500  0.75000000  1
  P  P9  1  0.25000000  0.61473500  0.25000000  1
loop_
_geom_bond_atom_site_label_1
_geom_bond_atom_site_label_2
_geom_bond_distance
_geom_bond_site_symmetry_2
Co0 P8 2.143210 1_555
Co0 P6 2.210731 1_555
Co0 P6 2.210731 1_655
Co0 P4 2.229576 1_556
Co0 Pr0 3.290087 1_555
Co1 P8 2.143210 1_555
Co1 P7 2.210731 1_655
Co1 P7 2.210731 1_555
Co1 P5 2.229576 1_555
Co1 Pr0 3.290087 1_555
Co2 P9 2.143210 1_555
Co2 P4 2.210731 1_455
Co2 P4 2.210731 1_555
Co2 P6 2.229576 1_554
Co2 Pr1 3.290087 1_555
Co3 P9 2.143210 1_555
Co3 P5 2.210731 1_555
Co3 P5 2.210731 1_455
Co3 P7 2.229576 1_555
Co3 Pr1 3.290087 1_555
Co4 P0 2.159994 1_546
Co4 P4 2.208161 1_556
Co4 P2 2.244122 1_555
Co4 P2 2.244122 1_655
Co4 Pr1 3.244330 1_556
Co4 Pr1 3.244330 1_656
Co5 P1 2.159994 1_545
Co5 P5 2.208161 1_555
Co5 P3 2.244122 1_555
Co5 P3 2.244122 1_655
Co5 Pr1 3.244330 1_655
Co5 Pr1 3.244330 1_555
Co6 P2 2.159994 1_564
Co6 P6 2.208161 1_554
Co6 P0 2.244122 1_455
Co6 P0 2.244122 1_555
Co6 Pr0 3.244330 1_554
Co6 Pr0 3.244330 1_454
Co7 P3 2.159994 1_565
Co7 P7 2.208161 1_555
Co7 P1 2.244122 1_555
Co7 P1 2.244122 1_455
Co7 Pr0 3.244330 1_455
Co7 Pr0 3.244330 1_555
Co8 P0 2.185414 1_555
Co8 P9 2.437043 1_655
Co8 P9 2.437043 1_555
Co8 P6 2.489970 1_554
Co8 P6 2.489970 1_654
Co9 P1 2.185414 1_555
Co9 P9 2.437043 1_655
Co9 P9 2.437043 1_555
Co9 P7 2.489970 1_555
Co9 P7 2.489970 1_655
Co10 P2 2.185414 1_555
Co10 P8 2.437043 1_555
Co10 P8 2.437043 1_455
Co10 P4 2.489970 1_556
Co10 P4 2.489970 1_456
Co11 P3 2.185414 1_555
Co11 P8 2.437043 1_555
Co11 P8 2.437043 1_455
Co11 P5 2.489970 1_455
Co11 P5 2.489970 1_555
Co12 P8 2.159407 1_555
Co12 P2 2.301754 1_555
Co12 P2 2.301754 1_655
Co12 P3 2.301754 1_655
Co12 P3 2.301754 1_555
Co12 Pr0 3.034933 1_545
Co13 P9 2.159407 1_555
Co13 P1 2.301754 1_455
Co13 P0 2.301754 1_555
Co13 P1 2.301754 1_555
Co13 P0 2.301754 1_455
Co13 Pr1 3.034933 1_565
Co14 P7 2.271513 1_555
Co14 P6 2.271513 1_555
Co14 P8 2.312292 1_555
Co14 P8 2.312292 1_455
Co14 Pr0 3.115425 1_555
Co14 Pr0 3.115425 1_455
Co15 P4 2.271513 1_555
Co15 P5 2.271513 1_555
Co15 P9 2.312292 1_655
Co15 P9 2.312292 1_555
Co15 Pr1 3.115425 1_655
Co15 Pr1 3.115425 1_555
P0 Pr1 3.128882 1_665
P0 Pr1 3.128882 1_565
P1 Pr1 3.128882 1_665
P1 Pr1 3.128882 1_565
P2 Pr0 3.128882 1_445
P2 Pr0 3.128882 1_545
P3 Pr0 3.128882 1_445
P3 Pr0 3.128882 1_545
P4 Pr1 3.069549 1_655
P4 Pr1 3.069549 1_555
P5 Pr1 3.069549 1_655
P5 Pr1 3.069549 1_555
P6 Pr0 3.069549 1_455
P6 Pr0 3.069549 1_555
P7 Pr0 3.069549 1_555
P7 Pr0 3.069549 1_455
