# generated using pymatgen
data_Yb(Sb3Os)4
_symmetry_space_group_name_H-M   'P 1'
_cell_length_a   8.09644335
_cell_length_b   8.09644335
_cell_length_c   8.09644335
_cell_angle_alpha   109.47122063
_cell_angle_beta   109.47122063
_cell_angle_gamma   109.47122063
_symmetry_Int_Tables_number   1
_chemical_formula_structural   Yb(Sb3Os)4
_chemical_formula_sum   'Yb1 Sb12 Os4'
_cell_volume   408.56480690
_cell_formula_units_Z   1
loop_
 _symmetry_equiv_pos_site_id
 _symmetry_equiv_pos_as_xyz
  1  'x, y, z'
loop_
 _atom_site_type_symbol
 _atom_site_label
 _atom_site_symmetry_multiplicity
 _atom_site_fract_x
 _atom_site_fract_y
 _atom_site_fract_z
 _atom_site_occupancy
  Yb  Yb0  1  0.00000000  0.00000000  0.00000000  1
  Sb  Sb0  1  0.84453323  0.66239428  0.50692752  1
  Sb  Sb1  1  0.15546677  0.33760572  0.49307248  1
  Sb  Sb2  1  0.15546677  0.66239428  0.81786205  1
  Sb  Sb3  1  0.84453323  0.33760572  0.18213795  1
  Sb  Sb4  1  0.66239428  0.50692752  0.84453323  1
  Sb  Sb5  1  0.33760572  0.49307248  0.15546677  1
  Sb  Sb6  1  0.66239428  0.81786205  0.15546677  1
  Sb  Sb7  1  0.33760572  0.18213795  0.84453323  1
  Sb  Sb8  1  0.50692752  0.84453323  0.66239428  1
  Sb  Sb9  1  0.49307248  0.15546677  0.33760572  1
  Sb  Sb10  1  0.18213795  0.84453323  0.33760572  1
  Sb  Sb11  1  0.81786205  0.15546677  0.66239428  1
  Os  Os0  1  0.50000000  0.50000000  0.50000000  1
  Os  Os1  1  0.50000000  0.00000000  0.00000000  1
  Os  Os2  1  0.00000000  0.50000000  0.00000000  1
  Os  Os3  1  0.00000000  0.00000000  0.50000000  1
loop_
_geom_bond_atom_site_label_1
_geom_bond_atom_site_label_2
_geom_bond_distance
_geom_bond_site_symmetry_2
Sb0 Sb2 2.906912 1_655
Sb0 Sb3 3.036442 1_555
Sb0 Yb0 3.474843 1_666
Sb1 Sb3 2.906912 1_455
Sb1 Sb2 3.036442 1_555
Sb1 Yb0 3.474843 1_555
Sb2 Yb0 3.474841 1_566
Sb3 Yb0 3.474841 1_655
Sb4 Sb6 2.906912 1_556
Sb4 Sb7 3.036442 1_555
Sb4 Yb0 3.474843 1_666
Sb5 Sb7 2.906912 1_554
Sb5 Sb6 3.036442 1_555
Sb5 Yb0 3.474843 1_555
Sb6 Yb0 3.474841 1_665
Sb7 Yb0 3.474841 1_556
Sb8 Yb0 3.474843 1_666
Sb9 Yb0 3.474843 1_555
Sb10 Sb9 2.906912 1_565
Sb10 Sb8 3.036442 1_555
Sb10 Yb0 3.474841 1_565
Sb11 Sb8 2.906912 1_545
Sb11 Sb9 3.036442 1_555
Sb11 Yb0 3.474841 1_656
Os0 Sb0 2.629559 1_555
Os0 Sb4 2.629559 1_555
Os0 Sb8 2.629559 1_555
Os0 Sb1 2.629559 1_555
Os0 Sb9 2.629559 1_555
Os0 Sb5 2.629559 1_555
Os1 Sb7 2.629552 1_554
Os1 Sb6 2.629552 1_545
Os1 Sb8 2.629559 1_544
Os1 Sb9 2.629559 1_555
Os1 Sb3 2.629560 1_555
Os1 Sb2 2.629560 1_544
Os2 Sb3 2.629552 1_455
Os2 Sb2 2.629552 1_554
Os2 Sb4 2.629559 1_454
Os2 Sb5 2.629559 1_555
Os2 Sb10 2.629560 1_555
Os2 Sb11 2.629560 1_454
Os3 Sb10 2.629552 1_545
Os3 Sb11 2.629552 1_455
Os3 Sb0 2.629559 1_445
Os3 Sb1 2.629559 1_555
Os3 Sb7 2.629560 1_555
Os3 Sb6 2.629560 1_445
