# generated using pymatgen
data_Li9Mn7O16
_symmetry_space_group_name_H-M   'P 1'
_cell_length_a   2.87562700
_cell_length_b   9.87109200
_cell_length_c   10.52753910
_cell_angle_alpha   83.86106679
_cell_angle_beta   90.00000000
_cell_angle_gamma   90.00000000
_symmetry_Int_Tables_number   1
_chemical_formula_structural   Li9Mn7O16
_chemical_formula_sum   'Li9 Mn7 O16'
_cell_volume   297.11664915
_cell_formula_units_Z   1
loop_
 _symmetry_equiv_pos_site_id
 _symmetry_equiv_pos_as_xyz
  1  'x, y, z'
loop_
 _atom_site_type_symbol
 _atom_site_label
 _atom_site_symmetry_multiplicity
 _atom_site_fract_x
 _atom_site_fract_y
 _atom_site_fract_z
 _atom_site_occupancy
  Li  Li0  1  0.50000000  0.24433700  0.11826500  1
  Li  Li1  1  0.50000000  0.24603700  0.63057400  1
  Li  Li2  1  0.00000000  0.00175800  0.24193400  1
  Li  Li3  1  0.00000000  0.99824200  0.75806600  1
  Li  Li4  1  0.50000000  0.75396300  0.36942600  1
  Li  Li5  1  0.50000000  0.75566300  0.88173500  1
  Li  Li6  1  0.00000000  0.50000000  0.00000000  1
  Li  Li7  1  0.00000000  0.50000000  0.50000000  1
  Li  Li8  1  0.50000000  0.00000000  0.00000000  1
  Mn  Mn0  1  0.00000000  0.23766500  0.88713900  1
  Mn  Mn1  1  0.00000000  0.76233500  0.11286100  1
  Mn  Mn2  1  0.00000000  0.25269900  0.37271000  1
  Mn  Mn3  1  0.50000000  0.00000000  0.50000000  1
  Mn  Mn4  1  0.00000000  0.74730100  0.62729000  1
  Mn  Mn5  1  0.50000000  0.50720100  0.24428800  1
  Mn  Mn6  1  0.50000000  0.49279900  0.75571200  1
  O  O0  1  0.50000000  0.35837100  0.93499000  1
  O  O1  1  0.50000000  0.36461100  0.43605100  1
  O  O2  1  0.00000000  0.13874300  0.04248200  1
  O  O3  1  0.00000000  0.11117700  0.56123400  1
  O  O4  1  0.50000000  0.86360500  0.18214900  1
  O  O5  1  0.50000000  0.85902000  0.68905300  1
  O  O6  1  0.00000000  0.60603500  0.81108400  1
  O  O7  1  0.00000000  0.62747600  0.29418300  1
  O  O8  1  0.50000000  0.14098000  0.31094700  1
  O  O9  1  0.50000000  0.13639500  0.81785100  1
  O  O10  1  0.00000000  0.88882300  0.43876600  1
  O  O11  1  0.00000000  0.86125700  0.95751800  1
  O  O12  1  0.50000000  0.63538900  0.56394900  1
  O  O13  1  0.50000000  0.64162900  0.06501000  1
  O  O14  1  0.00000000  0.39396500  0.18891600  1
  O  O15  1  0.00000000  0.37252400  0.70581700  1
loop_
_geom_bond_atom_site_label_1
_geom_bond_atom_site_label_2
_geom_bond_distance
_geom_bond_site_symmetry_2
Li0 O2 1.992012 1_655
Li0 O2 1.992012 1_555
Li0 O0 2.127268 1_554
Li0 O8 2.170933 1_555
Li0 O14 2.244322 1_555
Li0 O14 2.244322 1_655
Li1 O15 2.113105 1_655
Li1 O15 2.113105 1_555
Li1 O3 2.140129 1_655
Li1 O3 2.140129 1_555
Li1 O9 2.145237 1_555
Li1 O1 2.247442 1_555
Li2 O4 2.122910 1_445
Li2 O4 2.122910 1_545
Li2 O8 2.167335 1_555
Li2 O8 2.167335 1_455
Li2 O10 2.245557 1_545
Li2 O2 2.372776 1_555
Li3 O9 2.122910 1_465
Li3 O9 2.122910 1_565
Li3 O5 2.167335 1_555
Li3 O5 2.167335 1_455
Li3 O3 2.245557 1_565
Li3 O11 2.372776 1_555
Li4 O7 2.113105 1_655
Li4 O7 2.113105 1_555
Li4 O10 2.140129 1_655
Li4 O10 2.140129 1_555
Li4 O4 2.145237 1_555
Li4 O12 2.247442 1_555
Li5 O11 1.992012 1_655
Li5 O11 1.992012 1_555
Li5 O13 2.127268 1_556
Li5 O5 2.170933 1_555
Li5 O6 2.244322 1_555
Li5 O6 2.244322 1_655
Li6 O6 2.146095 1_554
Li6 O14 2.146095 1_555
Li6 O13 2.166758 1_555
Li6 O13 2.166758 1_455
Li6 O0 2.166758 1_554
Li6 O0 2.166758 1_454
Li7 O1 2.121093 1_555
Li7 O12 2.121093 1_455
Li7 O1 2.121093 1_455
Li7 O12 2.121093 1_555
Li7 O15 2.386428 1_555
Li7 O7 2.386428 1_555
Li8 O11 2.067360 1_544
Li8 O2 2.067360 1_655
Li8 O2 2.067360 1_555
Li8 O11 2.067360 1_644
Li8 O9 2.222079 1_554
Li8 O4 2.222079 1_545
Mn0 O2 1.812847 1_556
Mn0 O9 1.937686 1_555
Mn0 O9 1.937686 1_455
Mn0 O0 1.967009 1_455
Mn0 O0 1.967009 1_555
Mn0 O15 2.207356 1_555
Mn1 O11 1.812847 1_554
Mn1 O4 1.937686 1_455
Mn1 O4 1.937686 1_555
Mn1 O13 1.967009 1_455
Mn1 O13 1.967009 1_555
Mn1 O7 2.207356 1_555
Mn2 O8 1.964583 1_555
Mn2 O8 1.964583 1_455
Mn2 O1 1.972273 1_455
Mn2 O1 1.972273 1_555
Mn2 O14 2.260807 1_555
Mn2 O3 2.301642 1_555
Mn3 O10 1.959223 1_545
Mn3 O10 1.959223 1_645
Mn3 O3 1.959223 1_655
Mn3 O3 1.959223 1_555
Mn3 O5 2.303343 1_545
Mn3 O8 2.303343 1_555
Mn4 O5 1.964583 1_555
Mn4 O5 1.964583 1_455
Mn4 O12 1.972273 1_555
Mn4 O12 1.972273 1_455
Mn4 O6 2.260807 1_555
Mn4 O10 2.301642 1_555
Mn5 O14 1.948299 1_555
Mn5 O14 1.948299 1_655
Mn5 O7 1.971332 1_655
Mn5 O7 1.971332 1_555
Mn5 O13 2.187982 1_555
Mn5 O1 2.334287 1_555
Mn6 O6 1.948299 1_555
Mn6 O6 1.948299 1_655
Mn6 O15 1.971332 1_555
Mn6 O15 1.971332 1_655
Mn6 O0 2.187982 1_555
Mn6 O12 2.334287 1_555
