# generated using pymatgen
data_Na(SiO2)6
_symmetry_space_group_name_H-M   'P 1'
_cell_length_a   16.19252138
_cell_length_b   16.19252138
_cell_length_c   16.19252138
_cell_angle_alpha   109.47122063
_cell_angle_beta   109.47122063
_cell_angle_gamma   109.47122063
_symmetry_Int_Tables_number   1
_chemical_formula_structural   Na(SiO2)6
_chemical_formula_sum   'Na8 Si48 O96'
_cell_volume   3268.29723884
_cell_formula_units_Z   8
loop_
 _symmetry_equiv_pos_site_id
 _symmetry_equiv_pos_as_xyz
  1  'x, y, z'
loop_
 _atom_site_type_symbol
 _atom_site_label
 _atom_site_symmetry_multiplicity
 _atom_site_fract_x
 _atom_site_fract_y
 _atom_site_fract_z
 _atom_site_occupancy
  Na  Na0  1  0.74509868  0.74509868  0.74509868  1
  Na  Na1  1  0.25490132  0.25490132  0.25490132  1
  Na  Na2  1  0.25490132  0.00000000  0.00000000  1
  Na  Na3  1  -0.00000000  0.25490132  -0.00000000  1
  Na  Na4  1  0.74509868  -0.00000000  -0.00000000  1
  Na  Na5  1  -0.00000000  0.74509868  0.00000000  1
  Na  Na6  1  -0.00000000  -0.00000000  0.25490132  1
  Na  Na7  1  0.00000000  0.00000000  0.74509868  1
  Si  Si0  1  0.71357833  0.59531815  0.47700606  1
  Si  Si1  1  0.28642167  0.40468185  0.52299394  1
  Si  Si2  1  0.28642167  0.76342773  0.88173982  1
  Si  Si3  1  0.88168791  0.40468185  0.11826018  1
  Si  Si4  1  0.59531815  0.47700606  0.71357833  1
  Si  Si5  1  0.71357833  0.11826018  0.23657227  1
  Si  Si6  1  0.71357833  0.23657227  0.11826018  1
  Si  Si7  1  0.11831209  0.59531815  0.88173982  1
  Si  Si8  1  0.40468185  0.52299394  0.28642167  1
  Si  Si9  1  0.28642167  0.88173982  0.76342773  1
  Si  Si10  1  0.11831209  0.23657227  0.52299394  1
  Si  Si11  1  0.76342773  0.88173982  0.28642167  1
  Si  Si12  1  0.28642167  0.52299394  0.40468185  1
  Si  Si13  1  0.88168791  0.76342773  0.47700606  1
  Si  Si14  1  0.23657227  0.11826018  0.71357833  1
  Si  Si15  1  0.71357833  0.47700606  0.59531815  1
  Si  Si16  1  0.40468185  0.11826018  0.88168791  1
  Si  Si17  1  0.88168791  0.47700606  0.76342773  1
  Si  Si18  1  0.59531815  0.88173982  0.11831209  1
  Si  Si19  1  0.11831209  0.52299394  0.23657227  1
  Si  Si20  1  0.23657227  0.52299394  0.11831209  1
  Si  Si21  1  0.11831209  0.88173982  0.59531815  1
  Si  Si22  1  0.76342773  0.47700606  0.88168791  1
  Si  Si23  1  0.88168791  0.11826018  0.40468185  1
  Si  Si24  1  0.47700606  0.71357833  0.59531815  1
  Si  Si25  1  0.59531815  0.11831209  0.88173982  1
  Si  Si26  1  0.52299394  0.28642167  0.40468185  1
  Si  Si27  1  0.40468185  0.88168791  0.11826018  1
  Si  Si28  1  0.11826018  0.88168791  0.40468185  1
  Si  Si29  1  0.40468185  0.28642167  0.52299394  1
  Si  Si30  1  0.88173982  0.11831209  0.59531815  1
  Si  Si31  1  0.59531815  0.71357833  0.47700606  1
  Si  Si32  1  0.52299394  0.11831209  0.23657227  1
  Si  Si33  1  0.23657227  0.71357833  0.11826018  1
  Si  Si34  1  0.47700606  0.88168791  0.76342773  1
  Si  Si35  1  0.76342773  0.28642167  0.88173982  1
  Si  Si36  1  0.88173982  0.28642167  0.76342773  1
  Si  Si37  1  0.76342773  0.88168791  0.47700606  1
  Si  Si38  1  0.11826018  0.71357833  0.23657227  1
  Si  Si39  1  0.23657227  0.11831209  0.52299394  1
  Si  Si40  1  0.11826018  0.23657227  0.71357833  1
  Si  Si41  1  0.88173982  0.76342773  0.28642167  1
  Si  Si42  1  0.52299394  0.40468185  0.28642167  1
  Si  Si43  1  0.47700606  0.59531815  0.71357833  1
  Si  Si44  1  0.88173982  0.59531815  0.11831209  1
  Si  Si45  1  0.11826018  0.40468185  0.88168791  1
  Si  Si46  1  0.47700606  0.76342773  0.88168791  1
  Si  Si47  1  0.52299394  0.23657227  0.11831209  1
  O  O0  1  0.50870143  0.65604783  0.65604783  1
  O  O1  1  0.49129857  0.34395217  0.34395217  1
  O  O2  1  0.49129857  0.14734640  0.14734640  1
  O  O3  1  -0.00000000  0.34395217  0.85265360  1
  O  O4  1  0.65604783  0.65604783  0.50870143  1
  O  O5  1  0.50870143  0.85265360  0.85265360  1
  O  O6  1  0.00000000  0.65604783  0.14734640  1
  O  O7  1  0.34395217  0.34395217  0.49129857  1
  O  O8  1  0.00000000  0.85265360  0.34395217  1
  O  O9  1  0.14734640  0.14734640  0.49129857  1
  O  O10  1  -0.00000000  0.14734640  0.65604783  1
  O  O11  1  0.85265360  0.85265360  0.50870143  1
  O  O12  1  0.34395217  0.85265360  0.00000000  1
  O  O13  1  0.65604783  0.14734640  -0.00000000  1
  O  O14  1  0.85265360  0.34395217  -0.00000000  1
  O  O15  1  0.14734640  0.65604783  0.00000000  1
  O  O16  1  0.65604783  0.50870143  0.65604783  1
  O  O17  1  0.65604783  -0.00000000  0.14734640  1
  O  O18  1  0.34395217  0.49129857  0.34395217  1
  O  O19  1  0.34395217  0.00000000  0.85265360  1
  O  O20  1  0.85265360  0.00000000  0.34395217  1
  O  O21  1  0.14734640  -0.00000000  0.65604783  1
  O  O22  1  0.85265360  0.50870143  0.85265360  1
  O  O23  1  0.14734640  0.49129857  0.14734640  1
  O  O24  1  0.63850291  0.36149709  0.50000000  1
  O  O25  1  0.36149709  0.63850291  0.50000000  1
  O  O26  1  0.36149709  0.86149709  0.72299418  1
  O  O27  1  0.13850291  0.63850291  0.27700582  1
  O  O28  1  0.36149709  0.50000000  0.63850291  1
  O  O29  1  0.63850291  0.27700582  0.13850291  1
  O  O30  1  0.63850291  0.13850291  0.27700582  1
  O  O31  1  0.86149709  0.36149709  0.72299418  1
  O  O32  1  0.63850291  0.50000000  0.36149709  1
  O  O33  1  0.36149709  0.72299418  0.86149709  1
  O  O34  1  0.86149709  0.13850291  0.50000000  1
  O  O35  1  0.86149709  0.72299418  0.36149709  1
  O  O36  1  0.13850291  0.86149709  0.50000000  1
  O  O37  1  0.13850291  0.27700582  0.63850291  1
  O  O38  1  0.13850291  0.50000000  0.86149709  1
  O  O39  1  0.86149709  0.50000000  0.13850291  1
  O  O40  1  0.50000000  0.63850291  0.36149709  1
  O  O41  1  0.50000000  0.36149709  0.63850291  1
  O  O42  1  0.27700582  0.13850291  0.63850291  1
  O  O43  1  0.72299418  0.86149709  0.36149709  1
  O  O44  1  0.50000000  0.86149709  0.13850291  1
  O  O45  1  0.50000000  0.13850291  0.86149709  1
  O  O46  1  0.72299418  0.36149709  0.86149709  1
  O  O47  1  0.27700582  0.63850291  0.13850291  1
  O  O48  1  0.74571913  0.55638425  0.55638425  1
  O  O49  1  0.25428087  0.44361575  0.44361575  1
  O  O50  1  0.25428087  0.81066512  0.81066512  1
  O  O51  1  -0.00000000  0.44361575  0.18933488  1
  O  O52  1  0.55638425  0.55638425  0.74571913  1
  O  O53  1  0.74571913  0.18933488  0.18933488  1
  O  O54  1  0.00000000  0.55638425  0.81066512  1
  O  O55  1  0.44361575  0.44361575  0.25428087  1
  O  O56  1  -0.00000000  0.18933488  0.44361575  1
  O  O57  1  0.81066512  0.81066512  0.25428087  1
  O  O58  1  0.00000000  0.81066512  0.55638425  1
  O  O59  1  0.18933488  0.18933488  0.74571913  1
  O  O60  1  0.44361575  0.18933488  0.00000000  1
  O  O61  1  0.55638425  0.81066512  -0.00000000  1
  O  O62  1  0.18933488  0.44361575  0.00000000  1
  O  O63  1  0.81066512  0.55638425  -0.00000000  1
  O  O64  1  0.55638425  0.74571913  0.55638425  1
  O  O65  1  0.55638425  -0.00000000  0.81066512  1
  O  O66  1  0.44361575  0.25428087  0.44361575  1
  O  O67  1  0.44361575  0.00000000  0.18933488  1
  O  O68  1  0.18933488  0.00000000  0.44361575  1
  O  O69  1  0.81066512  -0.00000000  0.55638425  1
  O  O70  1  0.18933488  0.74571913  0.18933488  1
  O  O71  1  0.81066512  0.25428087  0.81066512  1
  O  O72  1  0.81476509  0.66847998  0.48324506  1
  O  O73  1  0.18523491  0.33152002  0.51675494  1
  O  O74  1  0.18523491  0.66847998  0.85371489  1
  O  O75  1  0.81476509  0.33152002  0.14628511  1
  O  O76  1  0.66847998  0.48324506  0.81476509  1
  O  O77  1  0.81476509  0.14628511  0.33152002  1
  O  O78  1  0.33152002  0.51675494  0.18523491  1
  O  O79  1  0.18523491  0.85371489  0.66847998  1
  O  O80  1  0.66847998  0.85371489  0.18523491  1
  O  O81  1  0.18523491  0.51675494  0.33152002  1
  O  O82  1  0.33152002  0.14628511  0.81476509  1
  O  O83  1  0.81476509  0.48324506  0.66847998  1
  O  O84  1  0.48324506  0.81476509  0.66847998  1
  O  O85  1  0.66847998  0.18523491  0.85371489  1
  O  O86  1  0.51675494  0.18523491  0.33152002  1
  O  O87  1  0.33152002  0.81476509  0.14628511  1
  O  O88  1  0.14628511  0.81476509  0.33152002  1
  O  O89  1  0.33152002  0.18523491  0.51675494  1
  O  O90  1  0.85371489  0.18523491  0.66847998  1
  O  O91  1  0.66847998  0.81476509  0.48324506  1
  O  O92  1  0.14628511  0.33152002  0.81476509  1
  O  O93  1  0.85371489  0.66847998  0.18523491  1
  O  O94  1  0.51675494  0.33152002  0.18523491  1
  O  O95  1  0.48324506  0.66847998  0.81476509  1
loop_
_geom_bond_atom_site_label_1
_geom_bond_atom_site_label_2
_geom_bond_distance
_geom_bond_site_symmetry_2
O0 Si43 1.640491 1_555
O0 Si24 1.640491 1_555
O1 Si42 1.640491 1_555
O1 Si26 1.640491 1_555
O2 Si32 1.640491 1_555
O2 Si47 1.640491 1_555
O3 Si36 1.640491 1_455
O3 Si45 1.640491 1_555
O4 Si0 1.640491 1_555
O4 Si31 1.640491 1_555
O5 Si34 1.640491 1_555
O5 Si46 1.640491 1_555
O6 Si44 1.640491 1_455
O6 Si38 1.640491 1_555
O7 Si1 1.640491 1_555
O7 Si29 1.640491 1_555
O8 Si41 1.640491 1_455
O8 Si28 1.640491 1_555
O9 Si10 1.640491 1_555
O9 Si39 1.640491 1_555
O10 Si30 1.640491 1_455
O10 Si40 1.640491 1_555
O11 Si13 1.640491 1_555
O11 Si37 1.640491 1_555
O12 Si2 1.640491 1_554
O12 Si27 1.640491 1_555
O13 Si25 1.640491 1_554
O13 Si6 1.640491 1_555
O14 Si35 1.640491 1_554
O14 Si3 1.640491 1_555
O15 Si7 1.640491 1_554
O15 Si33 1.640491 1_555
O16 Si4 1.640491 1_555
O16 Si15 1.640491 1_555
O17 Si18 1.640491 1_545
O17 Si5 1.640491 1_555
O18 Si8 1.640491 1_555
O18 Si12 1.640491 1_555
O19 Si9 1.640491 1_545
O19 Si16 1.640491 1_555
O20 Si11 1.640491 1_545
O20 Si23 1.640491 1_555
O21 Si21 1.640491 1_545
O21 Si14 1.640491 1_555
O22 Si17 1.640491 1_555
O22 Si22 1.640491 1_555
O23 Si19 1.640491 1_555
O23 Si20 1.640491 1_555
O24 Si15 1.633132 1_555
O24 Si26 1.633132 1_555
O25 Si24 1.633132 1_555
O25 Si12 1.633132 1_555
O26 Si34 1.633132 1_555
O26 Si9 1.633132 1_555
O27 Si38 1.633132 1_555
O27 Si19 1.633132 1_555
O28 Si1 1.633132 1_555
O28 Si43 1.633132 1_555
O29 Si6 1.633132 1_555
O29 Si47 1.633132 1_555
O30 Si5 1.633132 1_555
O30 Si32 1.633132 1_555
O31 Si17 1.633132 1_555
O31 Si36 1.633132 1_555
O32 Si0 1.633132 1_555
O32 Si42 1.633132 1_555
O33 Si2 1.633132 1_555
O33 Si46 1.633132 1_555
O34 Si30 1.633132 1_555
O34 Si23 1.633132 1_555
O35 Si13 1.633132 1_555
O35 Si41 1.633132 1_555
O36 Si21 1.633132 1_555
O36 Si28 1.633132 1_555
O37 Si40 1.633132 1_555
O37 Si10 1.633132 1_555
O38 Si7 1.633132 1_555
O38 Si45 1.633132 1_555
O39 Si44 1.633132 1_555
O39 Si3 1.633132 1_555
O40 Si31 1.633132 1_555
O40 Si8 1.633132 1_555
O41 Si4 1.633132 1_555
O41 Si29 1.633132 1_555
O42 Si14 1.633132 1_555
O42 Si39 1.633132 1_555
O43 Si37 1.633132 1_555
O43 Si11 1.633132 1_555
O44 Si18 1.633132 1_555
O44 Si27 1.633132 1_555
O45 Si25 1.633132 1_555
O45 Si16 1.633132 1_555
O46 Si22 1.633132 1_555
O46 Si35 1.633132 1_555
O47 Si33 1.633132 1_555
O47 Si20 1.633132 1_555
O48 Si0 1.622770 1_555
O48 Si15 1.622770 1_555
O49 Si1 1.622770 1_555
O49 Si12 1.622770 1_555
O50 Si9 1.622770 1_555
O50 Si2 1.622770 1_555
O51 Si3 1.622770 1_455
O51 Si19 1.622770 1_555
O52 Si4 1.622770 1_555
O52 Si43 1.622770 1_555
O53 Si5 1.622770 1_555
O53 Si6 1.622770 1_555
O54 Si17 1.622770 1_455
O54 Si7 1.622770 1_555
O55 Si8 1.622770 1_555
O55 Si42 1.622770 1_555
O56 Si23 1.622770 1_455
O56 Si10 1.622770 1_555
O57 Si11 1.622770 1_555
O57 Si41 1.622770 1_555
O58 Si13 1.622770 1_455
O58 Si21 1.622770 1_555
O59 Si40 1.622770 1_555
O59 Si14 1.622770 1_555
O60 Si16 1.622770 1_554
O60 Si47 1.622770 1_555
O61 Si46 1.622770 1_554
O61 Si18 1.622770 1_555
O62 Si45 1.622770 1_554
O62 Si20 1.622770 1_555
O63 Si22 1.622770 1_554
O63 Si44 1.622770 1_555
O64 Si31 1.622770 1_555
O64 Si24 1.622770 1_555
O65 Si34 1.622770 1_545
O65 Si25 1.622770 1_555
O66 Si26 1.622770 1_555
O66 Si29 1.622770 1_555
O67 Si27 1.622770 1_545
O67 Si32 1.622770 1_555
O68 Si28 1.622770 1_545
O68 Si39 1.622770 1_555
O69 Si37 1.622770 1_545
O69 Si30 1.622770 1_555
O70 Si38 1.622770 1_555
O70 Si33 1.622770 1_555
O71 Si36 1.622770 1_555
O71 Si35 1.622770 1_555
O72 Si13 1.616807 1_555
O72 Si0 1.616807 1_555
O73 Si10 1.616807 1_555
O73 Si1 1.616807 1_555
O74 Si2 1.616807 1_555
O74 Si7 1.616807 1_555
O75 Si6 1.616807 1_555
O75 Si3 1.616807 1_555
O76 Si22 1.616807 1_555
O76 Si4 1.616807 1_555
O77 Si5 1.616807 1_555
O77 Si23 1.616807 1_555
O78 Si20 1.616807 1_555
O78 Si8 1.616807 1_555
O79 Si9 1.616807 1_555
O79 Si21 1.616807 1_555
O80 Si11 1.616807 1_555
O80 Si18 1.616807 1_555
O81 Si19 1.616807 1_555
O81 Si12 1.616807 1_555
O82 Si14 1.616807 1_555
O82 Si16 1.616807 1_555
O83 Si17 1.616807 1_555
O83 Si15 1.616807 1_555
O84 Si34 1.616807 1_555
O84 Si24 1.616807 1_555
O85 Si35 1.616807 1_555
O85 Si25 1.616807 1_555
O86 Si32 1.616807 1_555
O86 Si26 1.616807 1_555
O87 Si33 1.616807 1_555
O87 Si27 1.616807 1_555
O88 Si38 1.616807 1_555
O88 Si28 1.616807 1_555
O89 Si39 1.616807 1_555
O89 Si29 1.616807 1_555
O90 Si36 1.616807 1_555
O90 Si30 1.616807 1_555
O91 Si37 1.616807 1_555
O91 Si31 1.616807 1_555
O92 Si40 1.616807 1_555
O92 Si45 1.616807 1_555
O93 Si41 1.616807 1_555
O93 Si44 1.616807 1_555
O94 Si47 1.616807 1_555
O94 Si42 1.616807 1_555
O95 Si46 1.616807 1_555
O95 Si43 1.616807 1_555
