# generated using pymatgen
data_BaTiOF4
_symmetry_space_group_name_H-M   'P 1'
_cell_length_a   5.30856000
_cell_length_b   5.60555000
_cell_length_c   13.91016500
_cell_angle_alpha   90.00000000
_cell_angle_beta   90.00000000
_cell_angle_gamma   90.00000000
_symmetry_Int_Tables_number   1
_chemical_formula_structural   BaTiOF4
_chemical_formula_sum   'Ba4 Ti4 O4 F16'
_cell_volume   413.93032322
_cell_formula_units_Z   4
loop_
 _symmetry_equiv_pos_site_id
 _symmetry_equiv_pos_as_xyz
  1  'x, y, z'
loop_
 _atom_site_type_symbol
 _atom_site_label
 _atom_site_symmetry_multiplicity
 _atom_site_fract_x
 _atom_site_fract_y
 _atom_site_fract_z
 _atom_site_occupancy
  Ba  Ba0  1  0.25148300  0.75000000  0.59368300  1
  Ba  Ba1  1  0.25148300  0.25000000  0.90631700  1
  Ba  Ba2  1  0.74851700  0.25000000  0.40631700  1
  Ba  Ba3  1  0.74851700  0.75000000  0.09368300  1
  Ti  Ti0  1  0.18683600  0.75000000  0.32300400  1
  Ti  Ti1  1  0.18683600  0.25000000  0.17699600  1
  Ti  Ti2  1  0.81316400  0.25000000  0.67699600  1
  Ti  Ti3  1  0.81316400  0.75000000  0.82300400  1
  O  O0  1  0.05290600  0.50000000  0.25000000  1
  O  O1  1  0.94709400  0.00000000  0.75000000  1
  O  O2  1  0.94709400  0.50000000  0.75000000  1
  O  O3  1  0.05290600  0.00000000  0.25000000  1
  F  F0  1  0.09725200  0.75000000  0.91205100  1
  F  F1  1  0.09725200  0.25000000  0.58794900  1
  F  F2  1  0.90274800  0.25000000  0.08794900  1
  F  F3  1  0.90274800  0.75000000  0.41205100  1
  F  F4  1  0.32040900  0.51495100  0.41873300  1
  F  F5  1  0.32040900  0.48504900  0.08126700  1
  F  F6  1  0.67959100  0.01495100  0.58126700  1
  F  F7  1  0.67959100  0.98504900  0.91873300  1
  F  F8  1  0.67959100  0.48504900  0.58126700  1
  F  F9  1  0.67959100  0.51495100  0.91873300  1
  F  F10  1  0.32040900  0.98504900  0.41873300  1
  F  F11  1  0.32040900  0.01495100  0.08126700  1
  F  F12  1  0.50539900  0.75000000  0.26461100  1
  F  F13  1  0.50539900  0.25000000  0.23538900  1
  F  F14  1  0.49460100  0.25000000  0.73538900  1
  F  F15  1  0.49460100  0.75000000  0.76461100  1
loop_
_geom_bond_atom_site_label_1
_geom_bond_atom_site_label_2
_geom_bond_distance
_geom_bond_site_symmetry_2
Ba0 F15 2.705332 1_555
Ba0 F8 2.720389 1_555
Ba0 F6 2.720389 1_565
Ba0 F10 2.791455 1_555
Ba0 F4 2.791455 1_555
Ba0 F1 2.921002 1_565
Ba0 F1 2.921002 1_555
Ba0 O1 3.050067 1_465
Ba0 O2 3.050067 1_455
Ba0 F3 3.132188 1_455
Ba1 F14 2.705332 1_555
Ba1 F9 2.720389 1_555
Ba1 F7 2.720389 1_545
Ba1 F11 2.791455 1_556
Ba1 F5 2.791455 1_556
Ba1 F0 2.921002 1_545
Ba1 F0 2.921002 1_555
Ba1 O1 3.050067 1_455
Ba1 O2 3.050067 1_455
Ba1 F2 3.132188 1_456
Ba2 F13 2.705332 1_555
Ba2 F10 2.720389 1_545
Ba2 F4 2.720389 1_555
Ba2 F8 2.791455 1_555
Ba2 F6 2.791455 1_555
Ba2 F3 2.921002 1_555
Ba2 F3 2.921002 1_545
Ba2 O0 3.050067 1_655
Ba2 O3 3.050067 1_655
Ba2 F1 3.132188 1_655
Ba3 F12 2.705332 1_555
Ba3 F5 2.720389 1_555
Ba3 F11 2.720389 1_565
Ba3 F7 2.791455 1_554
Ba3 F9 2.791455 1_554
Ba3 F2 2.921002 1_555
Ba3 F2 2.921002 1_565
Ba3 O0 3.050067 1_655
Ba3 O3 3.050067 1_665
Ba3 F0 3.132188 1_654
O0 Ti0 1.870991 1_555
O0 Ti1 1.870991 1_555
O1 Ti3 1.870991 1_545
O1 Ti2 1.870991 1_555
O2 Ti3 1.870991 1_555
O2 Ti2 1.870991 1_555
O3 Ti0 1.870991 1_545
O3 Ti1 1.870991 1_555
F0 Ti3 1.951572 1_455
F1 Ti2 1.951572 1_455
F2 Ti1 1.951572 1_655
F3 Ti0 1.951572 1_655
F4 Ti0 2.002994 1_555
F5 Ti1 2.002994 1_555
F6 Ti2 2.002994 1_555
F7 Ti3 2.002994 1_555
F8 Ti2 2.002994 1_555
F9 Ti3 2.002994 1_555
F10 Ti0 2.002994 1_555
F11 Ti1 2.002994 1_555
F12 Ti0 1.876064 1_555
F13 Ti1 1.876064 1_555
F14 Ti2 1.876064 1_555
F15 Ti3 1.876064 1_555
