# generated using pymatgen
data_CaGa3Ni2
_symmetry_space_group_name_H-M   'P 1'
_cell_length_a   5.09694306
_cell_length_b   6.24810129
_cell_length_c   6.24810075
_cell_angle_alpha   103.09474541
_cell_angle_beta   90.00000000
_cell_angle_gamma   90.00000000
_symmetry_Int_Tables_number   1
_chemical_formula_structural   CaGa3Ni2
_chemical_formula_sum   'Ca2 Ga6 Ni4'
_cell_volume   193.80428469
_cell_formula_units_Z   2
loop_
 _symmetry_equiv_pos_site_id
 _symmetry_equiv_pos_as_xyz
  1  'x, y, z'
loop_
 _atom_site_type_symbol
 _atom_site_label
 _atom_site_symmetry_multiplicity
 _atom_site_fract_x
 _atom_site_fract_y
 _atom_site_fract_z
 _atom_site_occupancy
  Ca  Ca0  1  0.25000000  0.34260796  0.34260796  1
  Ca  Ca1  1  0.75000000  0.65739204  0.65739204  1
  Ga  Ga0  1  0.75000000  0.46861811  0.08794243  1
  Ga  Ga1  1  0.75000000  0.08794243  0.46861811  1
  Ga  Ga2  1  0.25000000  0.53138189  0.91205757  1
  Ga  Ga3  1  0.75000000  0.05562022  0.05562022  1
  Ga  Ga4  1  0.25000000  0.94437978  0.94437978  1
  Ga  Ga5  1  0.25000000  0.91205757  0.53138189  1
  Ni  Ni0  1  0.50000000  0.79232912  0.20767088  1
  Ni  Ni1  1  -0.00000000  0.79232912  0.20767088  1
  Ni  Ni2  1  0.00000000  0.20767088  0.79232912  1
  Ni  Ni3  1  0.50000000  0.20767088  0.79232912  1
loop_
_geom_bond_atom_site_label_1
_geom_bond_atom_site_label_2
_geom_bond_distance
_geom_bond_site_symmetry_2
Ca0 Ga4 3.094623 1_544
Ca0 Ga2 3.172643 1_554
Ca0 Ga5 3.172643 1_545
Ca0 Ga0 3.195949 1_455
Ca0 Ga0 3.195949 1_555
Ca0 Ga1 3.195949 1_555
Ca0 Ga1 3.195949 1_455
Ca0 Ni2 3.362070 1_555
Ca0 Ni3 3.362070 1_555
Ca0 Ni1 3.362070 1_555
Ca0 Ni0 3.362070 1_555
Ca0 Ga3 3.386501 1_455
Ca0 Ga3 3.386501 1_555
Ca0 Ga2 3.485516 1_555
Ca0 Ga5 3.485516 1_555
Ca0 Ca1 3.532493 1_455
Ca0 Ca1 3.532493 1_555
Ca1 Ga3 3.094623 1_566
Ca1 Ga0 3.172643 1_556
Ca1 Ga1 3.172643 1_565
Ca1 Ga2 3.195949 1_655
Ca1 Ga2 3.195949 1_555
Ca1 Ga5 3.195949 1_655
Ca1 Ga5 3.195949 1_555
Ca1 Ni1 3.362070 1_655
Ca1 Ni0 3.362070 1_555
Ca1 Ni3 3.362070 1_555
Ca1 Ni2 3.362070 1_655
Ca1 Ga4 3.386501 1_555
Ca1 Ga4 3.386501 1_655
Ca1 Ga0 3.485516 1_555
Ca1 Ga1 3.485516 1_555
Ga0 Ni1 2.364006 1_655
Ga0 Ni0 2.364006 1_555
Ga0 Ni3 2.515730 1_554
Ga0 Ni2 2.515730 1_654
Ga0 Ga3 2.542319 1_555
Ga1 Ni3 2.364006 1_555
Ga1 Ni2 2.364006 1_655
Ga1 Ni1 2.515730 1_645
Ga1 Ni0 2.515730 1_545
Ga1 Ga3 2.542319 1_555
Ga2 Ni2 2.364006 1_555
Ga2 Ni3 2.364006 1_555
Ga2 Ni1 2.515730 1_556
Ga2 Ni0 2.515730 1_556
Ga2 Ga4 2.542319 1_555
Ga3 Ni3 2.437345 1_554
Ga3 Ni2 2.437345 1_654
Ga3 Ni0 2.437346 1_545
Ga3 Ni1 2.437346 1_645
Ga3 Ga4 2.691092 1_644
Ga3 Ga4 2.691092 1_544
Ga4 Ni0 2.437345 1_556
Ga4 Ni1 2.437345 1_556
Ga4 Ni3 2.437346 1_565
Ga4 Ni2 2.437346 1_565
Ga4 Ga5 2.542319 1_555
Ga5 Ni0 2.364006 1_555
Ga5 Ni1 2.364006 1_555
Ga5 Ni3 2.515730 1_565
Ga5 Ni2 2.515730 1_565
Ni0 Ni1 2.548472 1_555
Ni0 Ni1 2.548472 1_655
Ni2 Ni3 2.548472 1_455
Ni2 Ni3 2.548472 1_555
