# generated using pymatgen
data_Mg3Sn2(GeO4)3
_symmetry_space_group_name_H-M   'P 1'
_cell_length_a   10.84817542
_cell_length_b   10.84817542
_cell_length_c   10.84817542
_cell_angle_alpha   109.47122063
_cell_angle_beta   109.47122063
_cell_angle_gamma   109.47122063
_symmetry_Int_Tables_number   1
_chemical_formula_structural   Mg3Sn2(GeO4)3
_chemical_formula_sum   'Mg12 Sn8 Ge12 O48'
_cell_volume   982.76166500
_cell_formula_units_Z   4
loop_
 _symmetry_equiv_pos_site_id
 _symmetry_equiv_pos_as_xyz
  1  'x, y, z'
loop_
 _atom_site_type_symbol
 _atom_site_label
 _atom_site_symmetry_multiplicity
 _atom_site_fract_x
 _atom_site_fract_y
 _atom_site_fract_z
 _atom_site_occupancy
  Mg  Mg0  1  0.25000000  0.87500000  0.62500000  1
  Mg  Mg1  1  0.75000000  0.62500000  0.87500000  1
  Mg  Mg2  1  0.62500000  0.87500000  0.75000000  1
  Mg  Mg3  1  0.87500000  0.62500000  0.25000000  1
  Mg  Mg4  1  0.62500000  0.25000000  0.87500000  1
  Mg  Mg5  1  0.87500000  0.75000000  0.62500000  1
  Mg  Mg6  1  0.75000000  0.12500000  0.37500000  1
  Mg  Mg7  1  0.25000000  0.37500000  0.12500000  1
  Mg  Mg8  1  0.37500000  0.12500000  0.25000000  1
  Mg  Mg9  1  0.12500000  0.37500000  0.75000000  1
  Mg  Mg10  1  0.37500000  0.75000000  0.12500000  1
  Mg  Mg11  1  0.12500000  0.25000000  0.37500000  1
  Sn  Sn0  1  0.50000000  0.50000000  0.50000000  1
  Sn  Sn1  1  0.50000000  0.00000000  0.50000000  1
  Sn  Sn2  1  0.00000000  0.50000000  0.50000000  1
  Sn  Sn3  1  0.50000000  0.50000000  0.00000000  1
  Sn  Sn4  1  0.00000000  0.00000000  0.50000000  1
  Sn  Sn5  1  0.00000000  0.50000000  0.00000000  1
  Sn  Sn6  1  0.50000000  0.00000000  0.00000000  1
  Sn  Sn7  1  0.00000000  0.00000000  0.00000000  1
  Ge  Ge0  1  0.12500000  0.75000000  0.87500000  1
  Ge  Ge1  1  0.87500000  0.25000000  0.12500000  1
  Ge  Ge2  1  0.62500000  0.37500000  0.25000000  1
  Ge  Ge3  1  0.75000000  0.87500000  0.12500000  1
  Ge  Ge4  1  0.87500000  0.12500000  0.75000000  1
  Ge  Ge5  1  0.25000000  0.62500000  0.37500000  1
  Ge  Ge6  1  0.75000000  0.37500000  0.62500000  1
  Ge  Ge7  1  0.25000000  0.12500000  0.87500000  1
  Ge  Ge8  1  0.12500000  0.87500000  0.25000000  1
  Ge  Ge9  1  0.37500000  0.62500000  0.75000000  1
  Ge  Ge10  1  0.62500000  0.75000000  0.37500000  1
  Ge  Ge11  1  0.37500000  0.25000000  0.62500000  1
  O  O0  1  0.41492900  0.81268400  0.78156100  1
  O  O1  1  0.86663100  0.39775500  0.08507100  1
  O  O2  1  0.10224500  0.96887600  0.68731600  1
  O  O3  1  0.53112400  0.63336900  0.71843900  1
  O  O4  1  0.68731600  0.08507100  0.71843900  1
  O  O5  1  0.63336900  0.71843900  0.53112400  1
  O  O6  1  0.63336900  0.41492900  0.10224500  1
  O  O7  1  0.71843900  0.53112400  0.63336900  1
  O  O8  1  0.81268400  0.53112400  0.39775500  1
  O  O9  1  0.96887600  0.78156100  0.86663100  1
  O  O10  1  0.78156100  0.86663100  0.96887600  1
  O  O11  1  0.71843900  0.68731600  0.08507100  1
  O  O12  1  0.41492900  0.10224500  0.63336900  1
  O  O13  1  0.39775500  0.81268400  0.53112400  1
  O  O14  1  0.08507100  0.71843900  0.68731600  1
  O  O15  1  0.10224500  0.63336900  0.41492900  1
  O  O16  1  0.53112400  0.39775500  0.81268400  1
  O  O17  1  0.08507100  0.86663100  0.39775500  1
  O  O18  1  0.96887600  0.68731600  0.10224500  1
  O  O19  1  0.18731600  0.46887600  0.60224500  1
  O  O20  1  0.68731600  0.10224500  0.96887600  1
  O  O21  1  0.78156100  0.41492900  0.81268400  1
  O  O22  1  0.39775500  0.08507100  0.86663100  1
  O  O23  1  0.86663100  0.96887600  0.78156100  1
  O  O24  1  0.58507100  0.18731600  0.21843900  1
  O  O25  1  0.13336900  0.60224500  0.91492900  1
  O  O26  1  0.89775500  0.03112400  0.31268400  1
  O  O27  1  0.46887600  0.36663100  0.28156100  1
  O  O28  1  0.31268400  0.91492900  0.28156100  1
  O  O29  1  0.36663100  0.28156100  0.46887600  1
  O  O30  1  0.36663100  0.58507100  0.89775500  1
  O  O31  1  0.28156100  0.46887600  0.36663100  1
  O  O32  1  0.13336900  0.03112400  0.21843900  1
  O  O33  1  0.60224500  0.91492900  0.13336900  1
  O  O34  1  0.21843900  0.58507100  0.18731600  1
  O  O35  1  0.18731600  0.21843900  0.58507100  1
  O  O36  1  0.31268400  0.89775500  0.03112400  1
  O  O37  1  0.03112400  0.31268400  0.89775500  1
  O  O38  1  0.91492900  0.13336900  0.60224500  1
  O  O39  1  0.46887600  0.60224500  0.18731600  1
  O  O40  1  0.89775500  0.36663100  0.58507100  1
  O  O41  1  0.91492900  0.28156100  0.31268400  1
  O  O42  1  0.60224500  0.18731600  0.46887600  1
  O  O43  1  0.58507100  0.89775500  0.36663100  1
  O  O44  1  0.28156100  0.31268400  0.91492900  1
  O  O45  1  0.21843900  0.13336900  0.03112400  1
  O  O46  1  0.03112400  0.21843900  0.13336900  1
  O  O47  1  0.81268400  0.78156100  0.41492900  1
loop_
_geom_bond_atom_site_label_1
_geom_bond_atom_site_label_2
_geom_bond_distance
_geom_bond_site_symmetry_2
Mg0 O2 2.327003 1_555
Mg0 O15 2.327003 1_555
Mg0 O13 2.327003 1_555
Mg0 O22 2.327003 1_565
Mg0 O12 2.467516 1_565
Mg0 O17 2.467516 1_555
Mg0 O14 2.467522 1_555
Mg0 O0 2.467522 1_555
Mg1 O10 2.326998 1_555
Mg1 O7 2.326998 1_555
Mg1 O11 2.327009 1_556
Mg1 O21 2.327009 1_555
Mg1 O16 2.467516 1_555
Mg1 O18 2.467516 1_556
Mg1 O3 2.467520 1_555
Mg1 O9 2.467520 1_555
Mg2 O23 2.326998 1_555
Mg2 O3 2.326998 1_555
Mg2 O4 2.327009 1_565
Mg2 O0 2.327009 1_555
Mg2 O20 2.467516 1_565
Mg2 O13 2.467516 1_555
Mg2 O5 2.467520 1_555
Mg2 O10 2.467520 1_555
Mg3 O17 2.327003 1_655
Mg3 O18 2.327003 1_555
Mg3 O8 2.327003 1_555
Mg3 O6 2.327003 1_555
Mg3 O15 2.467516 1_655
Mg3 O1 2.467516 1_555
Mg3 O11 2.467522 1_555
Mg3 O47 2.467522 1_555
Mg4 O20 2.327003 1_555
Mg4 O1 2.327003 1_556
Mg4 O12 2.327003 1_555
Mg4 O16 2.327003 1_555
Mg4 O6 2.467516 1_556
Mg4 O22 2.467516 1_555
Mg4 O4 2.467522 1_555
Mg4 O21 2.467522 1_555
Mg5 O9 2.326998 1_555
Mg5 O5 2.326998 1_555
Mg5 O14 2.327009 1_655
Mg5 O47 2.327009 1_555
Mg5 O2 2.467516 1_655
Mg5 O8 2.467516 1_555
Mg5 O23 2.467520 1_555
Mg5 O7 2.467520 1_555
Mg6 O26 2.327003 1_555
Mg6 O40 2.327003 1_555
Mg6 O33 2.327003 1_545
Mg6 O42 2.327003 1_555
Mg6 O38 2.467516 1_555
Mg6 O43 2.467516 1_545
Mg6 O41 2.467522 1_555
Mg6 O24 2.467522 1_555
Mg7 O45 2.326998 1_555
Mg7 O31 2.326998 1_555
Mg7 O44 2.327009 1_554
Mg7 O34 2.327009 1_555
Mg7 O37 2.467516 1_554
Mg7 O39 2.467516 1_555
Mg7 O27 2.467520 1_555
Mg7 O46 2.467520 1_555
Mg8 O32 2.326998 1_555
Mg8 O27 2.326998 1_555
Mg8 O24 2.327009 1_555
Mg8 O28 2.327009 1_545
Mg8 O42 2.467516 1_555
Mg8 O36 2.467516 1_545
Mg8 O45 2.467520 1_555
Mg8 O29 2.467520 1_555
Mg9 O37 2.327003 1_555
Mg9 O38 2.327003 1_455
Mg9 O19 2.327003 1_555
Mg9 O30 2.327003 1_555
Mg9 O40 2.467516 1_455
Mg9 O25 2.467516 1_555
Mg9 O44 2.467522 1_555
Mg9 O35 2.467522 1_555
Mg10 O36 2.327003 1_555
Mg10 O39 2.327003 1_555
Mg10 O43 2.327003 1_555
Mg10 O25 2.327003 1_554
Mg10 O30 2.467516 1_554
Mg10 O33 2.467516 1_555
Mg10 O28 2.467522 1_555
Mg10 O34 2.467522 1_555
Mg11 O29 2.326998 1_555
Mg11 O46 2.326998 1_555
Mg11 O35 2.327009 1_555
Mg11 O41 2.327009 1_455
Mg11 O26 2.467516 1_455
Mg11 O19 2.467516 1_555
Mg11 O32 2.467520 1_555
Mg11 O31 2.467520 1_555
Ge0 O14 1.816237 1_555
Ge0 O25 1.816240 1_555
Ge0 O36 1.816240 1_556
Ge0 O9 1.816246 1_455
Ge1 O41 1.816237 1_555
Ge1 O20 1.816240 1_554
Ge1 O1 1.816240 1_555
Ge1 O46 1.816246 1_655
Ge2 O24 1.816237 1_555
Ge2 O8 1.816240 1_555
Ge2 O6 1.816240 1_555
Ge2 O27 1.816246 1_555
Ge3 O11 1.816237 1_555
Ge3 O33 1.816240 1_555
Ge3 O26 1.816240 1_565
Ge3 O10 1.816246 1_554
Ge4 O4 1.816237 1_555
Ge4 O38 1.816240 1_555
Ge4 O37 1.816240 1_655
Ge4 O23 1.816246 1_545
Ge5 O34 1.816237 1_555
Ge5 O15 1.816240 1_555
Ge5 O13 1.816240 1_555
Ge5 O31 1.816246 1_555
Ge6 O21 1.816237 1_555
Ge6 O40 1.816240 1_555
Ge6 O42 1.816240 1_555
Ge6 O7 1.816246 1_555
Ge7 O44 1.816237 1_555
Ge7 O22 1.816240 1_555
Ge7 O2 1.816240 1_545
Ge7 O45 1.816246 1_556
Ge8 O28 1.816237 1_555
Ge8 O18 1.816240 1_455
Ge8 O17 1.816240 1_555
Ge8 O32 1.816246 1_565
Ge9 O0 1.816237 1_555
Ge9 O30 1.816240 1_555
Ge9 O19 1.816240 1_555
Ge9 O3 1.816246 1_555
Ge10 O47 1.816237 1_555
Ge10 O39 1.816240 1_555
Ge10 O43 1.816240 1_555
Ge10 O5 1.816246 1_555
Ge11 O35 1.816237 1_555
Ge11 O12 1.816240 1_555
Ge11 O16 1.816240 1_555
Ge11 O29 1.816246 1_555
O0 Sn6 2.162841 1_566
O1 Sn5 2.162848 1_655
O2 Sn4 2.162848 1_565
O3 Sn0 2.162839 1_555
O4 Sn1 2.162841 1_555
O5 Sn0 2.162839 1_555
O6 Sn3 2.162848 1_555
O7 Sn0 2.162839 1_555
O8 Sn2 2.162848 1_655
O9 Sn7 2.162839 1_666
O10 Sn7 2.162839 1_666
O11 Sn3 2.162841 1_555
O12 Sn1 2.162848 1_555
O13 Sn1 2.162848 1_565
O14 Sn2 2.162841 1_555
O15 Sn2 2.162848 1_555
O16 Sn3 2.162848 1_556
O17 Sn4 2.162848 1_565
O18 Sn5 2.162848 1_655
O19 Sn2 2.162848 1_555
O20 Sn6 2.162848 1_556
O21 Sn5 2.162841 1_656
O22 Sn6 2.162848 1_556
O23 Sn7 2.162839 1_666
O24 Sn6 2.162841 1_555
O25 Sn5 2.162848 1_556
O26 Sn4 2.162848 1_655
O27 Sn0 2.162839 1_555
O28 Sn1 2.162841 1_565
O29 Sn0 2.162839 1_555
O30 Sn3 2.162848 1_556
O31 Sn0 2.162839 1_555
O32 Sn7 2.162839 1_555
O33 Sn6 2.162848 1_565
O34 Sn5 2.162841 1_555
O35 Sn4 2.162841 1_555
O36 Sn6 2.162848 1_565
O37 Sn5 2.162848 1_556
O38 Sn4 2.162848 1_655
O39 Sn3 2.162848 1_555
O40 Sn2 2.162848 1_655
O41 Sn2 2.162841 1_655
O42 Sn1 2.162848 1_555
O43 Sn1 2.162848 1_565
O44 Sn3 2.162841 1_556
O45 Sn7 2.162839 1_555
O46 Sn7 2.162839 1_555
O47 Sn4 2.162841 1_665
