# generated using pymatgen
data_La7Cr2BO17
_symmetry_space_group_name_H-M   'P 1'
_cell_length_a   18.31208400
_cell_length_b   7.08265600
_cell_length_c   13.87998860
_cell_angle_alpha   67.08047880
_cell_angle_beta   90.00000000
_cell_angle_gamma   90.00000000
_symmetry_Int_Tables_number   1
_chemical_formula_structural   La7Cr2BO17
_chemical_formula_sum   'La28 Cr8 B4 O68'
_cell_volume   1658.08788064
_cell_formula_units_Z   4
loop_
 _symmetry_equiv_pos_site_id
 _symmetry_equiv_pos_as_xyz
  1  'x, y, z'
loop_
 _atom_site_type_symbol
 _atom_site_label
 _atom_site_symmetry_multiplicity
 _atom_site_fract_x
 _atom_site_fract_y
 _atom_site_fract_z
 _atom_site_occupancy
  La  La0  1  0.72393900  0.79962700  0.17880500  1
  La  La1  1  0.27606100  0.20037300  0.82119500  1
  La  La2  1  0.22393900  0.20037300  0.32119500  1
  La  La3  1  0.77606100  0.79962700  0.67880500  1
  La  La4  1  0.86993900  0.77990300  0.43675200  1
  La  La5  1  0.13006100  0.22009700  0.56324800  1
  La  La6  1  0.36993900  0.22009700  0.06324800  1
  La  La7  1  0.63006100  0.77990300  0.93675200  1
  La  La8  1  0.60763100  0.30573900  0.19738200  1
  La  La9  1  0.39236900  0.69426100  0.80261800  1
  La  La10  1  0.10763100  0.69426100  0.30261800  1
  La  La11  1  0.89236900  0.30573900  0.69738200  1
  La  La12  1  0.27312600  0.71117200  0.09568000  1
  La  La13  1  0.72687400  0.28882800  0.90432000  1
  La  La14  1  0.77312600  0.28882800  0.40432000  1
  La  La15  1  0.22687400  0.71117200  0.59568000  1
  La  La16  1  0.44659800  0.71131900  0.51383300  1
  La  La17  1  0.55340200  0.28868100  0.48616700  1
  La  La18  1  0.94659800  0.28868100  0.98616700  1
  La  La19  1  0.05340200  0.71131900  0.01383300  1
  La  La20  1  0.51927900  0.79695500  0.21074800  1
  La  La21  1  0.48072100  0.20304500  0.78925200  1
  La  La22  1  0.01927900  0.20304500  0.28925200  1
  La  La23  1  0.98072100  0.79695500  0.71074800  1
  La  La24  1  0.65518200  0.81413900  0.42597000  1
  La  La25  1  0.34481800  0.18586100  0.57403000  1
  La  La26  1  0.15518200  0.18586100  0.07403000  1
  La  La27  1  0.84481800  0.81413900  0.92597000  1
  Cr  Cr0  1  0.80302900  0.28874000  0.16462400  1
  Cr  Cr1  1  0.19697100  0.71126000  0.83537600  1
  Cr  Cr2  1  0.30302900  0.71126000  0.33537600  1
  Cr  Cr3  1  0.69697100  0.28874000  0.66462400  1
  Cr  Cr4  1  0.93637000  0.77970400  0.18304300  1
  Cr  Cr5  1  0.06363000  0.22029600  0.81695700  1
  Cr  Cr6  1  0.43637000  0.22029600  0.31695700  1
  Cr  Cr7  1  0.56363000  0.77970400  0.68304300  1
  B  B0  1  0.43047600  0.74913600  0.00096300  1
  B  B1  1  0.56952400  0.25086400  0.99903700  1
  B  B2  1  0.93047600  0.25086400  0.49903700  1
  B  B3  1  0.06952400  0.74913600  0.50096300  1
  O  O0  1  0.86986700  0.44089500  0.08776100  1
  O  O1  1  0.13013300  0.55910500  0.91223900  1
  O  O2  1  0.36986700  0.55910500  0.41223900  1
  O  O3  1  0.63013300  0.44089500  0.58776100  1
  O  O4  1  0.37899500  0.59813800  0.00158000  1
  O  O5  1  0.62100500  0.40186200  0.99842000  1
  O  O6  1  0.87899500  0.40186200  0.49842000  1
  O  O7  1  0.12100500  0.59813800  0.50158000  1
  O  O8  1  0.76889100  0.90026700  0.49213900  1
  O  O9  1  0.23110900  0.09973300  0.50786100  1
  O  O10  1  0.26889100  0.09973300  0.00786100  1
  O  O11  1  0.73110900  0.90026700  0.99213900  1
  O  O12  1  0.63188500  0.94981300  0.24210400  1
  O  O13  1  0.36811500  0.05018700  0.75789600  1
  O  O14  1  0.13188500  0.05018700  0.25789600  1
  O  O15  1  0.86811500  0.94981300  0.74210400  1
  O  O16  1  0.93674100  0.86837700  0.04727800  1
  O  O17  1  0.06325900  0.13162300  0.95272200  1
  O  O18  1  0.43674100  0.13162300  0.45272200  1
  O  O19  1  0.56325900  0.86837700  0.54727800  1
  O  O20  1  0.85738300  0.70679900  0.24908000  1
  O  O21  1  0.14261700  0.29320100  0.75092000  1
  O  O22  1  0.35738300  0.29320100  0.25092000  1
  O  O23  1  0.64261700  0.70679900  0.74908000  1
  O  O24  1  0.14485600  0.79748900  0.11984300  1
  O  O25  1  0.85514400  0.20251100  0.88015700  1
  O  O26  1  0.64485600  0.20251100  0.38015700  1
  O  O27  1  0.35514400  0.79748900  0.61984300  1
  O  O28  1  0.73914800  0.43262500  0.20130200  1
  O  O29  1  0.26085200  0.56737500  0.79869800  1
  O  O30  1  0.23914800  0.56737500  0.29869800  1
  O  O31  1  0.76085200  0.43262500  0.70130200  1
  O  O32  1  0.54269500  0.63491200  0.40455800  1
  O  O33  1  0.45730500  0.36508800  0.59544200  1
  O  O34  1  0.04269500  0.36508800  0.09544200  1
  O  O35  1  0.95730500  0.63491200  0.90455800  1
  O  O36  1  0.00249400  0.58656200  0.22434700  1
  O  O37  1  0.99750600  0.41343800  0.77565300  1
  O  O38  1  0.50249400  0.41343800  0.27565300  1
  O  O39  1  0.49750600  0.58656200  0.72434700  1
  O  O40  1  0.32725900  0.89149700  0.21745400  1
  O  O41  1  0.67274100  0.10850300  0.78254600  1
  O  O42  1  0.82725900  0.10850300  0.28254600  1
  O  O43  1  0.17274100  0.89149700  0.71745400  1
  O  O44  1  0.60968800  0.67977900  0.12486900  1
  O  O45  1  0.39031200  0.32022100  0.87513100  1
  O  O46  1  0.10968800  0.32022100  0.37513100  1
  O  O47  1  0.89031200  0.67977900  0.62486900  1
  O  O48  1  0.96920500  0.98713200  0.20376800  1
  O  O49  1  0.03079500  0.01286800  0.79623200  1
  O  O50  1  0.46920500  0.01286800  0.29623200  1
  O  O51  1  0.53079500  0.98713200  0.70376800  1
  O  O52  1  0.42026200  0.83763300  0.07284700  1
  O  O53  1  0.57973800  0.16236700  0.92715300  1
  O  O54  1  0.92026200  0.16236700  0.42715300  1
  O  O55  1  0.07973800  0.83763300  0.57284700  1
  O  O56  1  0.51682200  0.19445700  0.07774200  1
  O  O57  1  0.48317800  0.80554300  0.92225800  1
  O  O58  1  0.01682200  0.80554300  0.42225800  1
  O  O59  1  0.98317800  0.19445700  0.57774200  1
  O  O60  1  0.74038400  0.62954400  0.37279100  1
  O  O61  1  0.25961600  0.37045600  0.62720900  1
  O  O62  1  0.24038400  0.37045600  0.12720900  1
  O  O63  1  0.75961600  0.62954400  0.87279100  1
  O  O64  1  0.26257900  0.83365800  0.40810600  1
  O  O65  1  0.73742100  0.16634200  0.59189400  1
  O  O66  1  0.76257900  0.16634200  0.09189400  1
  O  O67  1  0.23742100  0.83365800  0.90810600  1
loop_
_geom_bond_atom_site_label_1
_geom_bond_atom_site_label_2
_geom_bond_distance
_geom_bond_site_symmetry_2
La0 O12 2.339425 1_555
La0 O11 2.408270 1_554
La0 O44 2.480549 1_555
La0 O66 2.502311 1_565
La0 O60 2.503044 1_555
La0 O28 2.509880 1_555
La0 O20 2.618314 1_555
La1 O13 2.339425 1_555
La1 O10 2.408270 1_556
La1 O45 2.480549 1_555
La1 O67 2.502311 1_545
La1 O61 2.503044 1_555
La1 O29 2.509880 1_555
La1 O21 2.618314 1_555
La2 O14 2.339425 1_555
La2 O9 2.408270 1_555
La2 O46 2.480549 1_555
La2 O64 2.502311 1_545
La2 O62 2.503044 1_555
La2 O30 2.509880 1_555
La2 O22 2.618314 1_555
La3 O15 2.339425 1_555
La3 O8 2.408270 1_555
La3 O47 2.480549 1_555
La3 O65 2.502311 1_565
La3 O63 2.503044 1_555
La3 O31 2.509880 1_555
La3 O23 2.618314 1_555
La4 O8 2.291766 1_555
La4 O47 2.453066 1_555
La4 O6 2.478767 1_555
La4 O42 2.593982 1_565
La4 O58 2.698085 1_655
La4 O54 2.814919 1_565
La4 O20 2.856024 1_555
La4 O60 2.878717 1_555
La5 O9 2.291766 1_555
La5 O46 2.453066 1_555
La5 O7 2.478767 1_555
La5 O43 2.593982 1_545
La5 O59 2.698085 1_455
La5 O55 2.814919 1_545
La5 O21 2.856024 1_555
La5 O61 2.878717 1_555
La6 O10 2.291766 1_555
La6 O45 2.453066 1_554
La6 O4 2.478767 1_555
La6 O40 2.593982 1_545
La6 O56 2.698085 1_555
La6 O52 2.814919 1_545
La6 O22 2.856024 1_555
La6 O62 2.878717 1_555
La7 O11 2.291766 1_555
La7 O44 2.453066 1_556
La7 O5 2.478767 1_555
La7 O41 2.593982 1_565
La7 O57 2.698085 1_555
La7 O53 2.814919 1_565
La7 O23 2.856024 1_555
La7 O63 2.878717 1_555
La8 O12 2.391384 1_545
La8 O44 2.440471 1_555
La8 O26 2.447548 1_555
La8 O38 2.472705 1_555
La8 O28 2.578535 1_555
La8 O5 2.585631 1_554
La8 O56 2.676468 1_555
La9 O13 2.391384 1_565
La9 O45 2.440471 1_555
La9 O27 2.447548 1_555
La9 O39 2.472705 1_555
La9 O29 2.578535 1_555
La9 O4 2.585631 1_556
La9 O57 2.676468 1_555
La10 O14 2.391384 1_565
La10 O46 2.440471 1_555
La10 O24 2.447548 1_555
La10 O36 2.472705 1_555
La10 O30 2.578535 1_555
La10 O7 2.585631 1_555
La10 O58 2.676468 1_555
La11 O15 2.391384 1_545
La11 O47 2.440471 1_555
La11 O25 2.447548 1_555
La11 O37 2.472705 1_555
La11 O31 2.578535 1_555
La11 O6 2.585631 1_555
La11 O59 2.676468 1_555
La12 O62 2.356242 1_555
La12 O24 2.482584 1_555
La12 O67 2.489830 1_554
La12 O10 2.540231 1_565
La12 O4 2.630544 1_555
La12 O30 2.670130 1_555
La12 O40 2.674334 1_555
La12 O52 2.818014 1_555
La13 O63 2.356242 1_555
La13 O25 2.482584 1_555
La13 O66 2.489830 1_556
La13 O11 2.540231 1_545
La13 O5 2.630544 1_555
La13 O31 2.670130 1_555
La13 O41 2.674334 1_555
La13 O53 2.818014 1_555
La14 O60 2.356242 1_555
La14 O26 2.482584 1_555
La14 O65 2.489830 1_555
La14 O8 2.540231 1_545
La14 O6 2.630544 1_555
La14 O28 2.670130 1_555
La14 O42 2.674334 1_555
La14 O54 2.818014 1_555
La15 O61 2.356242 1_555
La15 O27 2.482584 1_555
La15 O64 2.489830 1_555
La15 O9 2.540231 1_565
La15 O7 2.630544 1_555
La15 O29 2.670130 1_555
La15 O43 2.674334 1_555
La15 O55 2.818014 1_555
La16 O33 2.274089 1_555
La16 O27 2.457980 1_555
La16 O2 2.511790 1_555
La16 O32 2.515814 1_555
La16 O19 2.533557 1_555
La16 O18 2.765341 1_565
La16 O39 2.859470 1_555
La16 O50 2.971672 1_565
La17 O32 2.274089 1_555
La17 O26 2.457980 1_555
La17 O3 2.511790 1_555
La17 O33 2.515814 1_555
La17 O18 2.533557 1_555
La17 O19 2.765341 1_545
La17 O38 2.859470 1_555
La17 O51 2.971672 1_545
La18 O35 2.274089 1_555
La18 O25 2.457980 1_555
La18 O0 2.511790 1_556
La18 O34 2.515814 1_656
La18 O17 2.533557 1_655
La18 O16 2.765341 1_546
La18 O37 2.859470 1_555
La18 O48 2.971672 1_546
La19 O34 2.274089 1_555
La19 O24 2.457980 1_555
La19 O1 2.511790 1_554
La19 O35 2.515814 1_454
La19 O16 2.533557 1_455
La19 O17 2.765341 1_564
La19 O36 2.859470 1_555
La19 O49 2.971672 1_564
La20 O44 2.370880 1_555
La20 O12 2.445522 1_555
La20 O50 2.449581 1_565
La20 O32 2.516527 1_555
La20 O38 2.525565 1_555
La20 O52 2.569991 1_555
La20 O56 2.699681 1_565
La21 O45 2.370880 1_555
La21 O13 2.445522 1_555
La21 O51 2.449581 1_545
La21 O33 2.516527 1_555
La21 O39 2.525565 1_555
La21 O53 2.569991 1_555
La21 O57 2.699681 1_545
La22 O46 2.370880 1_555
La22 O14 2.445522 1_555
La22 O48 2.449581 1_445
La22 O34 2.516527 1_555
La22 O36 2.525565 1_555
La22 O54 2.569991 1_455
La22 O58 2.699681 1_545
La23 O47 2.370880 1_555
La23 O15 2.445522 1_555
La23 O49 2.449581 1_665
La23 O35 2.516527 1_555
La23 O37 2.525565 1_555
La23 O55 2.569991 1_655
La23 O59 2.699681 1_565
La24 O60 2.332409 1_555
La24 O12 2.389208 1_555
La24 O8 2.446988 1_555
La24 O32 2.497323 1_555
La24 O19 2.513939 1_555
La24 O26 2.577621 1_565
La24 O3 2.760067 1_555
La25 O61 2.332409 1_555
La25 O13 2.389208 1_555
La25 O9 2.446988 1_555
La25 O33 2.497323 1_555
La25 O18 2.513939 1_555
La25 O27 2.577621 1_545
La25 O2 2.760067 1_555
La26 O62 2.332409 1_555
La26 O14 2.389208 1_555
La26 O10 2.446988 1_555
La26 O34 2.497323 1_555
La26 O17 2.513939 1_554
La26 O24 2.577621 1_545
La26 O1 2.760067 1_554
La27 O63 2.332409 1_555
La27 O15 2.389208 1_555
La27 O11 2.446988 1_555
La27 O35 2.497323 1_555
La27 O16 2.513939 1_556
La27 O25 2.577621 1_565
La27 O0 2.760067 1_556
Cr0 O42 1.696481 1_555
Cr0 O0 1.703553 1_555
Cr0 O66 1.732306 1_555
Cr0 O28 1.752204 1_555
Cr1 O43 1.696481 1_555
Cr1 O1 1.703553 1_555
Cr1 O67 1.732306 1_555
Cr1 O29 1.752204 1_555
Cr2 O40 1.696481 1_555
Cr2 O2 1.703553 1_555
Cr2 O64 1.732306 1_555
Cr2 O30 1.752204 1_555
Cr3 O41 1.696481 1_555
Cr3 O3 1.703553 1_555
Cr3 O65 1.732306 1_555
Cr3 O31 1.752204 1_555
Cr4 O20 1.682336 1_555
Cr4 O48 1.712258 1_555
Cr4 O16 1.738883 1_555
Cr4 O36 1.747956 1_655
Cr5 O21 1.682336 1_555
Cr5 O49 1.712258 1_555
Cr5 O17 1.738883 1_555
Cr5 O37 1.747956 1_455
Cr6 O22 1.682336 1_555
Cr6 O50 1.712258 1_555
Cr6 O18 1.738883 1_555
Cr6 O38 1.747956 1_555
Cr7 O23 1.682336 1_555
Cr7 O51 1.712258 1_555
Cr7 O19 1.738883 1_555
Cr7 O39 1.747956 1_555
B0 O52 1.382191 1_555
B0 O57 1.394438 1_554
B0 O4 1.423175 1_555
B1 O53 1.382191 1_555
B1 O56 1.394438 1_556
B1 O5 1.423175 1_555
B2 O54 1.382191 1_555
B2 O59 1.394438 1_555
B2 O6 1.423175 1_555
B3 O55 1.382191 1_555
B3 O58 1.394438 1_555
B3 O7 1.423175 1_555
