# generated using pymatgen
data_ZrU3
_symmetry_space_group_name_H-M   'P 1'
_cell_length_a   5.70952607
_cell_length_b   5.70952607
_cell_length_c   5.70952607
_cell_angle_alpha   136.67986421
_cell_angle_beta   136.67986421
_cell_angle_gamma   62.93098751
_symmetry_Int_Tables_number   1
_chemical_formula_structural   ZrU3
_chemical_formula_sum   'Zr1 U3'
_cell_volume   86.51115893
_cell_formula_units_Z   1
loop_
 _symmetry_equiv_pos_site_id
 _symmetry_equiv_pos_as_xyz
  1  'x, y, z'
loop_
 _atom_site_type_symbol
 _atom_site_label
 _atom_site_symmetry_multiplicity
 _atom_site_fract_x
 _atom_site_fract_y
 _atom_site_fract_z
 _atom_site_occupancy
  Zr  Zr0  1  0.00000000  0.00000000  0.00000000  1
  U  U0  1  0.25000000  0.75000000  0.50000000  1
  U  U1  1  0.75000000  0.25000000  0.50000000  1
  U  U2  1  0.50000000  0.50000000  0.00000000  1
loop_
_geom_bond_atom_site_label_1
_geom_bond_atom_site_label_2
_geom_bond_distance
_geom_bond_site_symmetry_2
U0 U1 2.980287 1_465
U0 U1 2.980287 1_566
U0 U1 2.980287 1_454
U0 U1 2.980287 1_555
U0 Zr0 3.220279 1_666
U0 Zr0 3.220279 1_555
U0 U2 3.220279 1_455
U0 U2 3.220279 1_555
U0 U2 3.220279 1_556
U0 Zr0 3.220279 1_566
U0 Zr0 3.220279 1_565
U0 U2 3.220279 1_566
U1 Zr0 3.220279 1_656
U1 Zr0 3.220279 1_555
U1 U2 3.220279 1_555
U1 U2 3.220279 1_556
U1 Zr0 3.220279 1_655
U1 U2 3.220279 1_656
U1 U2 3.220279 1_545
U1 Zr0 3.220279 1_666
U2 Zr0 2.980287 1_655
U2 Zr0 2.980287 1_565
U2 Zr0 2.980287 1_666
U2 Zr0 2.980287 1_554
