# generated using pymatgen
data_Er5(In2Pt)2
_symmetry_space_group_name_H-M   'P 1'
_cell_length_a   7.23917576
_cell_length_b   15.92648210
_cell_length_c   36.01605640
_cell_angle_alpha   90.00000000
_cell_angle_beta   90.00000000
_cell_angle_gamma   90.00000000
_symmetry_Int_Tables_number   1
_chemical_formula_structural   Er5(In2Pt)2
_chemical_formula_sum   'Er80 In64 Pt32'
_cell_volume   4152.45693004
_cell_formula_units_Z   16
loop_
 _symmetry_equiv_pos_site_id
 _symmetry_equiv_pos_as_xyz
  1  'x, y, z'
loop_
 _atom_site_type_symbol
 _atom_site_label
 _atom_site_symmetry_multiplicity
 _atom_site_fract_x
 _atom_site_fract_y
 _atom_site_fract_z
 _atom_site_occupancy
  Er  Er0_0  1  0.00000000  0.05722546  0.20782221  1
  Er  Er0_1  1  0.00000000  0.05722546  0.70782221  1
  Er  Er0_2  1  0.00000000  0.55722546  0.20782221  1
  Er  Er0_3  1  0.00000000  0.55722546  0.70782221  1
  Er  Er0_4  1  0.50000000  0.05722546  0.20782221  1
  Er  Er0_5  1  0.50000000  0.05722546  0.70782221  1
  Er  Er0_6  1  0.50000000  0.55722546  0.20782221  1
  Er  Er0_7  1  0.50000000  0.55722546  0.70782221  1
  Er  Er1_0  1  0.00000000  0.44277454  0.29217779  1
  Er  Er1_1  1  0.00000000  0.44277454  0.79217779  1
  Er  Er1_2  1  0.00000000  0.94277454  0.29217779  1
  Er  Er1_3  1  0.00000000  0.94277454  0.79217779  1
  Er  Er1_4  1  0.50000000  0.44277454  0.29217779  1
  Er  Er1_5  1  0.50000000  0.44277454  0.79217779  1
  Er  Er1_6  1  0.50000000  0.94277454  0.29217779  1
  Er  Er1_7  1  0.50000000  0.94277454  0.79217779  1
  Er  Er2_0  1  0.00000000  0.19277454  0.45782221  1
  Er  Er2_1  1  0.00000000  0.19277454  0.95782221  1
  Er  Er2_2  1  0.00000000  0.69277454  0.45782221  1
  Er  Er2_3  1  0.00000000  0.69277454  0.95782221  1
  Er  Er2_4  1  0.50000000  0.19277454  0.45782221  1
  Er  Er2_5  1  0.50000000  0.19277454  0.95782221  1
  Er  Er2_6  1  0.50000000  0.69277454  0.45782221  1
  Er  Er2_7  1  0.50000000  0.69277454  0.95782221  1
  Er  Er3_0  1  0.00000000  0.30722546  0.04217779  1
  Er  Er3_1  1  0.00000000  0.30722546  0.54217779  1
  Er  Er3_2  1  0.00000000  0.80722546  0.04217779  1
  Er  Er3_3  1  0.00000000  0.80722546  0.54217779  1
  Er  Er3_4  1  0.50000000  0.30722546  0.04217779  1
  Er  Er3_5  1  0.50000000  0.30722546  0.54217779  1
  Er  Er3_6  1  0.50000000  0.80722546  0.04217779  1
  Er  Er3_7  1  0.50000000  0.80722546  0.54217779  1
  Er  Er4_0  1  0.00000000  0.12235781  0.11071528  1
  Er  Er4_1  1  0.00000000  0.12235781  0.61071528  1
  Er  Er4_2  1  0.00000000  0.62235781  0.11071528  1
  Er  Er4_3  1  0.00000000  0.62235781  0.61071528  1
  Er  Er4_4  1  0.50000000  0.12235781  0.11071528  1
  Er  Er4_5  1  0.50000000  0.12235781  0.61071528  1
  Er  Er4_6  1  0.50000000  0.62235781  0.11071528  1
  Er  Er4_7  1  0.50000000  0.62235781  0.61071528  1
  Er  Er5_0  1  0.00000000  0.37764220  0.38928472  1
  Er  Er5_1  1  0.00000000  0.37764220  0.88928473  1
  Er  Er5_2  1  0.00000000  0.87764220  0.38928472  1
  Er  Er5_3  1  0.00000000  0.87764220  0.88928473  1
  Er  Er5_4  1  0.50000000  0.37764220  0.38928472  1
  Er  Er5_5  1  0.50000000  0.37764220  0.88928473  1
  Er  Er5_6  1  0.50000000  0.87764220  0.38928472  1
  Er  Er5_7  1  0.50000000  0.87764220  0.88928473  1
  Er  Er6_0  1  0.00000000  0.12764220  0.36071528  1
  Er  Er6_1  1  0.00000000  0.12764220  0.86071527  1
  Er  Er6_2  1  0.00000000  0.62764220  0.36071528  1
  Er  Er6_3  1  0.00000000  0.62764220  0.86071527  1
  Er  Er6_4  1  0.50000000  0.12764220  0.36071528  1
  Er  Er6_5  1  0.50000000  0.12764220  0.86071527  1
  Er  Er6_6  1  0.50000000  0.62764220  0.36071528  1
  Er  Er6_7  1  0.50000000  0.62764220  0.86071527  1
  Er  Er7_0  1  0.00000000  0.37235780  0.13928472  1
  Er  Er7_1  1  0.00000000  0.37235780  0.63928472  1
  Er  Er7_2  1  0.00000000  0.87235780  0.13928472  1
  Er  Er7_3  1  0.00000000  0.87235780  0.63928472  1
  Er  Er7_4  1  0.50000000  0.37235780  0.13928472  1
  Er  Er7_5  1  0.50000000  0.37235780  0.63928472  1
  Er  Er7_6  1  0.50000000  0.87235780  0.13928472  1
  Er  Er7_7  1  0.50000000  0.87235780  0.63928472  1
  Er  Er8_0  1  0.00000000  0.00000000  0.00000000  1
  Er  Er8_1  1  0.00000000  0.00000000  0.50000000  1
  Er  Er8_2  1  0.00000000  0.50000000  0.00000000  1
  Er  Er8_3  1  0.00000000  0.50000000  0.50000000  1
  Er  Er8_4  1  0.50000000  0.00000000  0.00000000  1
  Er  Er8_5  1  0.50000000  0.00000000  0.50000000  1
  Er  Er8_6  1  0.50000000  0.50000000  0.00000000  1
  Er  Er8_7  1  0.50000000  0.50000000  0.50000000  1
  Er  Er9_0  1  0.00000000  0.25000000  0.25000000  1
  Er  Er9_1  1  0.00000000  0.25000000  0.75000000  1
  Er  Er9_2  1  0.00000000  0.75000000  0.25000000  1
  Er  Er9_3  1  0.00000000  0.75000000  0.75000000  1
  Er  Er9_4  1  0.50000000  0.25000000  0.25000000  1
  Er  Er9_5  1  0.50000000  0.25000000  0.75000000  1
  Er  Er9_6  1  0.50000000  0.75000000  0.25000000  1
  Er  Er9_7  1  0.50000000  0.75000000  0.75000000  1
  In  In0_0  1  0.25000000  0.21271203  0.17602956  1
  In  In0_1  1  0.25000000  0.21271203  0.67602956  1
  In  In0_2  1  0.25000000  0.71271203  0.17602956  1
  In  In0_3  1  0.25000000  0.71271203  0.67602956  1
  In  In0_4  1  0.75000000  0.21271203  0.17602956  1
  In  In0_5  1  0.75000000  0.21271203  0.67602956  1
  In  In0_6  1  0.75000000  0.71271203  0.17602956  1
  In  In0_7  1  0.75000000  0.71271203  0.67602956  1
  In  In1_0  1  0.25000000  0.28728796  0.32397044  1
  In  In1_1  1  0.25000000  0.28728796  0.82397044  1
  In  In1_2  1  0.25000000  0.78728797  0.32397044  1
  In  In1_3  1  0.25000000  0.78728797  0.82397044  1
  In  In1_4  1  0.75000000  0.28728796  0.32397044  1
  In  In1_5  1  0.75000000  0.28728796  0.82397044  1
  In  In1_6  1  0.75000000  0.78728797  0.32397044  1
  In  In1_7  1  0.75000000  0.78728797  0.82397044  1
  In  In2_0  1  0.25000000  0.03728796  0.42602956  1
  In  In2_1  1  0.25000000  0.03728796  0.92602956  1
  In  In2_2  1  0.25000000  0.53728796  0.42602956  1
  In  In2_3  1  0.25000000  0.53728796  0.92602956  1
  In  In2_4  1  0.75000000  0.03728796  0.42602956  1
  In  In2_5  1  0.75000000  0.03728796  0.92602956  1
  In  In2_6  1  0.75000000  0.53728796  0.42602956  1
  In  In2_7  1  0.75000000  0.53728796  0.92602956  1
  In  In3_0  1  0.25000000  0.46271204  0.07397044  1
  In  In3_1  1  0.25000000  0.46271204  0.57397044  1
  In  In3_2  1  0.25000000  0.96271204  0.07397044  1
  In  In3_3  1  0.25000000  0.96271204  0.57397044  1
  In  In3_4  1  0.75000000  0.46271204  0.07397044  1
  In  In3_5  1  0.75000000  0.46271204  0.57397044  1
  In  In3_6  1  0.75000000  0.96271204  0.07397044  1
  In  In3_7  1  0.75000000  0.96271204  0.57397044  1
  In  In4_0  1  0.25000000  0.14458213  0.03380228  1
  In  In4_1  1  0.25000000  0.14458213  0.53380227  1
  In  In4_2  1  0.25000000  0.64458213  0.03380228  1
  In  In4_3  1  0.25000000  0.64458213  0.53380227  1
  In  In4_4  1  0.75000000  0.14458213  0.03380228  1
  In  In4_5  1  0.75000000  0.14458213  0.53380227  1
  In  In4_6  1  0.75000000  0.64458213  0.03380228  1
  In  In4_7  1  0.75000000  0.64458213  0.53380227  1
  In  In5_0  1  0.25000000  0.35541787  0.46619773  1
  In  In5_1  1  0.25000000  0.35541787  0.96619772  1
  In  In5_2  1  0.25000000  0.85541787  0.46619773  1
  In  In5_3  1  0.25000000  0.85541787  0.96619772  1
  In  In5_4  1  0.75000000  0.35541787  0.46619773  1
  In  In5_5  1  0.75000000  0.35541787  0.96619772  1
  In  In5_6  1  0.75000000  0.85541787  0.46619773  1
  In  In5_7  1  0.75000000  0.85541787  0.96619772  1
  In  In6_0  1  0.25000000  0.10541788  0.28380227  1
  In  In6_1  1  0.25000000  0.10541788  0.78380227  1
  In  In6_2  1  0.25000000  0.60541787  0.28380227  1
  In  In6_3  1  0.25000000  0.60541787  0.78380227  1
  In  In6_4  1  0.75000000  0.10541788  0.28380227  1
  In  In6_5  1  0.75000000  0.10541788  0.78380227  1
  In  In6_6  1  0.75000000  0.60541787  0.28380227  1
  In  In6_7  1  0.75000000  0.60541787  0.78380227  1
  In  In7_0  1  0.25000000  0.39458213  0.21619773  1
  In  In7_1  1  0.25000000  0.39458213  0.71619773  1
  In  In7_2  1  0.25000000  0.89458213  0.21619773  1
  In  In7_3  1  0.25000000  0.89458213  0.71619773  1
  In  In7_4  1  0.75000000  0.39458213  0.21619773  1
  In  In7_5  1  0.75000000  0.39458213  0.71619773  1
  In  In7_6  1  0.75000000  0.89458213  0.21619773  1
  In  In7_7  1  0.75000000  0.89458213  0.71619773  1
  Pt  Pt0_0  1  0.25000000  0.01363229  0.15204201  1
  Pt  Pt0_1  1  0.25000000  0.01363229  0.65204200  1
  Pt  Pt0_2  1  0.25000000  0.51363229  0.15204201  1
  Pt  Pt0_3  1  0.25000000  0.51363229  0.65204200  1
  Pt  Pt0_4  1  0.75000000  0.01363229  0.15204201  1
  Pt  Pt0_5  1  0.75000000  0.01363229  0.65204200  1
  Pt  Pt0_6  1  0.75000000  0.51363229  0.15204201  1
  Pt  Pt0_7  1  0.75000000  0.51363229  0.65204200  1
  Pt  Pt1_0  1  0.25000000  0.48636771  0.34795800  1
  Pt  Pt1_1  1  0.25000000  0.48636771  0.84795800  1
  Pt  Pt1_2  1  0.25000000  0.98636771  0.34795800  1
  Pt  Pt1_3  1  0.25000000  0.98636771  0.84795800  1
  Pt  Pt1_4  1  0.75000000  0.48636771  0.34795800  1
  Pt  Pt1_5  1  0.75000000  0.48636771  0.84795800  1
  Pt  Pt1_6  1  0.75000000  0.98636771  0.34795800  1
  Pt  Pt1_7  1  0.75000000  0.98636771  0.84795800  1
  Pt  Pt2_0  1  0.25000000  0.23636771  0.40204201  1
  Pt  Pt2_1  1  0.25000000  0.23636771  0.90204200  1
  Pt  Pt2_2  1  0.25000000  0.73636771  0.40204201  1
  Pt  Pt2_3  1  0.25000000  0.73636771  0.90204200  1
  Pt  Pt2_4  1  0.75000000  0.23636771  0.40204201  1
  Pt  Pt2_5  1  0.75000000  0.23636771  0.90204200  1
  Pt  Pt2_6  1  0.75000000  0.73636771  0.40204201  1
  Pt  Pt2_7  1  0.75000000  0.73636771  0.90204200  1
  Pt  Pt3_0  1  0.25000000  0.26363229  0.09795800  1
  Pt  Pt3_1  1  0.25000000  0.26363229  0.59795800  1
  Pt  Pt3_2  1  0.25000000  0.76363229  0.09795800  1
  Pt  Pt3_3  1  0.25000000  0.76363229  0.59795800  1
  Pt  Pt3_4  1  0.75000000  0.26363229  0.09795800  1
  Pt  Pt3_5  1  0.75000000  0.26363229  0.59795800  1
  Pt  Pt3_6  1  0.75000000  0.76363229  0.09795800  1
  Pt  Pt3_7  1  0.75000000  0.76363229  0.59795800  1
loop_
_geom_bond_atom_site_label_1
_geom_bond_atom_site_label_2
_geom_bond_distance
_geom_bond_site_symmetry_2
Er0_0 Pt0_4 2.791666 1_455
Er0_0 Pt0_0 2.791666 1_555
Er0_0 In7_6 3.174302 1_445
Er0_0 In7_2 3.174302 1_545
Er0_0 In0_0 3.273960 1_555
Er0_0 In0_4 3.273960 1_455
Er0_0 In6_0 3.369408 1_555
Er0_0 In6_4 3.369408 1_455
Er0_0 Er9_0 3.425471 1_555
Er0_1 Pt0_1 2.791666 1_555
Er0_1 Pt0_5 2.791666 1_455
Er0_1 In7_3 3.174302 1_545
Er0_1 In7_7 3.174302 1_445
Er0_1 In0_1 3.273960 1_555
Er0_1 In0_5 3.273960 1_455
Er0_1 In6_5 3.369408 1_455
Er0_1 In6_1 3.369408 1_555
Er0_1 Er9_1 3.425471 1_555
Er0_2 Pt0_2 2.791666 1_555
Er0_2 Pt0_6 2.791666 1_455
Er0_2 In7_4 3.174302 1_455
Er0_2 In7_0 3.174302 1_555
Er0_2 In0_2 3.273960 1_555
Er0_2 In0_6 3.273960 1_455
Er0_2 In6_2 3.369408 1_555
Er0_2 In6_6 3.369408 1_455
Er0_2 Er9_2 3.425471 1_555
Er0_3 Pt0_7 2.791666 1_455
Er0_3 Pt0_3 2.791666 1_555
Er0_3 In7_1 3.174302 1_555
Er0_3 In7_5 3.174302 1_455
Er0_3 In0_3 3.273960 1_555
Er0_3 In0_7 3.273960 1_455
Er0_3 In6_7 3.369408 1_455
Er0_3 In6_3 3.369408 1_555
Er0_3 Er9_3 3.425471 1_555
Er0_4 Pt0_0 2.791666 1_555
Er0_4 Pt0_4 2.791666 1_555
Er0_4 In7_2 3.174302 1_545
Er0_4 In7_6 3.174302 1_545
Er0_4 In0_4 3.273960 1_555
Er0_4 In0_0 3.273960 1_555
Er0_4 In6_0 3.369408 1_555
Er0_4 In6_4 3.369408 1_555
Er0_4 Er9_4 3.425471 1_555
Er0_5 Pt0_1 2.791666 1_555
Er0_5 Pt0_5 2.791666 1_555
Er0_5 In7_3 3.174302 1_545
Er0_5 In7_7 3.174302 1_545
Er0_5 In0_5 3.273960 1_555
Er0_5 In0_1 3.273960 1_555
Er0_5 In6_1 3.369408 1_555
Er0_5 In6_5 3.369408 1_555
Er0_5 Er9_5 3.425471 1_555
Er0_6 Pt0_2 2.791666 1_555
Er0_6 Pt0_6 2.791666 1_555
Er0_6 In7_4 3.174302 1_555
Er0_6 In7_0 3.174302 1_555
Er0_6 In0_6 3.273960 1_555
Er0_6 In0_2 3.273960 1_555
Er0_6 In6_2 3.369408 1_555
Er0_6 In6_6 3.369408 1_555
Er0_6 Er9_6 3.425471 1_555
Er0_7 Pt0_3 2.791666 1_555
Er0_7 Pt0_7 2.791666 1_555
Er0_7 In7_5 3.174302 1_555
Er0_7 In7_1 3.174302 1_555
Er0_7 In0_3 3.273960 1_555
Er0_7 In0_7 3.273960 1_555
Er0_7 In6_7 3.369408 1_555
Er0_7 In6_3 3.369408 1_555
Er0_7 Er9_7 3.425471 1_555
Er1_0 Pt1_0 2.791666 1_555
Er1_0 Pt1_4 2.791666 1_455
Er1_0 In6_2 3.174302 1_555
Er1_0 In6_6 3.174302 1_455
Er1_0 In1_0 3.273960 1_555
Er1_0 In1_4 3.273960 1_455
Er1_0 In7_4 3.369408 1_455
Er1_0 In7_0 3.369408 1_555
Er1_0 Er9_0 3.425471 1_555
Er1_1 Pt1_1 2.791666 1_555
Er1_1 Pt1_5 2.791666 1_455
Er1_1 In6_7 3.174302 1_455
Er1_1 In6_3 3.174302 1_555
Er1_1 In1_5 3.273960 1_455
Er1_1 In1_1 3.273960 1_555
Er1_1 In7_1 3.369408 1_555
Er1_1 In7_5 3.369408 1_455
Er1_1 Er9_1 3.425471 1_555
Er1_2 Pt1_6 2.791666 1_455
Er1_2 Pt1_2 2.791666 1_555
Er1_2 In6_4 3.174302 1_465
Er1_2 In6_0 3.174302 1_565
Er1_2 In1_2 3.273960 1_555
Er1_2 In1_6 3.273960 1_455
Er1_2 In7_2 3.369408 1_555
Er1_2 In7_6 3.369408 1_455
Er1_2 Er9_2 3.425471 1_555
Er1_3 Pt1_3 2.791666 1_555
Er1_3 Pt1_7 2.791666 1_455
Er1_3 In6_1 3.174302 1_565
Er1_3 In6_5 3.174302 1_465
Er1_3 In1_3 3.273960 1_555
Er1_3 In1_7 3.273960 1_455
Er1_3 In7_3 3.369408 1_555
Er1_3 In7_7 3.369408 1_455
Er1_3 Er9_3 3.425471 1_555
Er1_4 Pt1_0 2.791666 1_555
Er1_4 Pt1_4 2.791666 1_555
Er1_4 In6_2 3.174302 1_555
Er1_4 In6_6 3.174302 1_555
Er1_4 In1_0 3.273960 1_555
Er1_4 In1_4 3.273960 1_555
Er1_4 In7_4 3.369408 1_555
Er1_4 In7_0 3.369408 1_555
Er1_4 Er9_4 3.425471 1_555
Er1_5 Pt1_1 2.791666 1_555
Er1_5 Pt1_5 2.791666 1_555
Er1_5 In6_3 3.174302 1_555
Er1_5 In6_7 3.174302 1_555
Er1_5 In1_1 3.273960 1_555
Er1_5 In1_5 3.273960 1_555
Er1_5 In7_1 3.369408 1_555
Er1_5 In7_5 3.369408 1_555
Er1_5 Er9_5 3.425471 1_555
Er1_6 Pt1_6 2.791666 1_555
Er1_6 Pt1_2 2.791666 1_555
Er1_6 In6_4 3.174302 1_565
Er1_6 In6_0 3.174302 1_565
Er1_6 In1_2 3.273960 1_555
Er1_6 In1_6 3.273960 1_555
Er1_6 In7_2 3.369408 1_555
Er1_6 In7_6 3.369408 1_555
Er1_6 Er9_6 3.425471 1_555
Er1_7 Pt1_3 2.791666 1_555
Er1_7 Pt1_7 2.791666 1_555
Er1_7 In6_1 3.174302 1_565
Er1_7 In6_5 3.174302 1_565
Er1_7 In1_3 3.273960 1_555
Er1_7 In1_7 3.273960 1_555
Er1_7 In7_3 3.369408 1_555
Er1_7 In7_7 3.369408 1_555
Er1_7 Er9_7 3.425471 1_555
Er2_0 Pt2_0 2.791666 1_555
Er2_0 Pt2_4 2.791666 1_455
Er2_0 In5_0 3.174302 1_555
Er2_0 In5_4 3.174302 1_455
Er2_0 In2_0 3.273960 1_555
Er2_0 In2_4 3.273960 1_455
Er2_0 In4_1 3.369408 1_555
Er2_0 In4_5 3.369408 1_455
Er2_0 Er8_1 3.425471 1_555
Er2_1 Pt2_5 2.791666 1_455
Er2_1 Pt2_1 2.791666 1_555
Er2_1 In5_5 3.174302 1_455
Er2_1 In5_1 3.174302 1_555
Er2_1 In2_5 3.273960 1_455
Er2_1 In2_1 3.273960 1_555
Er2_1 In4_0 3.369408 1_556
Er2_1 In4_4 3.369408 1_456
Er2_1 Er8_0 3.425471 1_556
Er2_2 Pt2_2 2.791666 1_555
Er2_2 Pt2_6 2.791666 1_455
Er2_2 In5_6 3.174302 1_455
Er2_2 In5_2 3.174302 1_555
Er2_2 In2_6 3.273960 1_455
Er2_2 In2_2 3.273960 1_555
Er2_2 In4_7 3.369408 1_455
Er2_2 In4_3 3.369408 1_555
Er2_2 Er8_3 3.425471 1_555
Er2_3 Pt2_7 2.791666 1_455
Er2_3 Pt2_3 2.791666 1_555
Er2_3 In5_3 3.174302 1_555
Er2_3 In5_7 3.174302 1_455
Er2_3 In2_7 3.273960 1_455
Er2_3 In2_3 3.273960 1_555
Er2_3 In4_6 3.369408 1_456
Er2_3 In4_2 3.369408 1_556
Er2_3 Er8_2 3.425471 1_556
Er2_4 Pt2_0 2.791666 1_555
Er2_4 Pt2_4 2.791666 1_555
Er2_4 In5_4 3.174302 1_555
Er2_4 In5_0 3.174302 1_555
Er2_4 In2_0 3.273960 1_555
Er2_4 In2_4 3.273960 1_555
Er2_4 In4_5 3.369408 1_555
Er2_4 In4_1 3.369408 1_555
Er2_4 Er8_5 3.425471 1_555
Er2_5 Pt2_1 2.791666 1_555
Er2_5 Pt2_5 2.791666 1_555
Er2_5 In5_5 3.174302 1_555
Er2_5 In5_1 3.174302 1_555
Er2_5 In2_5 3.273960 1_555
Er2_5 In2_1 3.273960 1_555
Er2_5 In4_4 3.369408 1_556
Er2_5 In4_0 3.369408 1_556
Er2_5 Er8_4 3.425471 1_556
Er2_6 Pt2_2 2.791666 1_555
Er2_6 Pt2_6 2.791666 1_555
Er2_6 In5_6 3.174302 1_555
Er2_6 In5_2 3.174302 1_555
Er2_6 In2_6 3.273960 1_555
Er2_6 In2_2 3.273960 1_555
Er2_6 In4_7 3.369408 1_555
Er2_6 In4_3 3.369408 1_555
Er2_6 Er8_7 3.425471 1_555
Er2_7 Pt2_3 2.791666 1_555
Er2_7 Pt2_7 2.791666 1_555
Er2_7 In5_3 3.174302 1_555
Er2_7 In5_7 3.174302 1_555
Er2_7 In2_7 3.273960 1_555
Er2_7 In2_3 3.273960 1_555
Er2_7 In4_6 3.369408 1_556
Er2_7 In4_2 3.369408 1_556
Er2_7 Er8_6 3.425471 1_556
Er3_0 Pt3_4 2.791666 1_455
Er3_0 Pt3_0 2.791666 1_555
Er3_0 In4_0 3.174302 1_555
Er3_0 In4_4 3.174302 1_455
Er3_0 In3_0 3.273960 1_555
Er3_0 In3_4 3.273960 1_455
Er3_0 In5_5 3.369408 1_454
Er3_0 In5_1 3.369408 1_554
Er3_0 Er8_2 3.425471 1_555
Er3_1 Pt3_1 2.791666 1_555
Er3_1 Pt3_5 2.791666 1_455
Er3_1 In4_1 3.174302 1_555
Er3_1 In4_5 3.174302 1_455
Er3_1 In3_5 3.273960 1_455
Er3_1 In3_1 3.273960 1_555
Er3_1 In5_0 3.369408 1_555
Er3_1 In5_4 3.369408 1_455
Er3_1 Er8_3 3.425471 1_555
Er3_2 Pt3_2 2.791666 1_555
Er3_2 Pt3_6 2.791666 1_455
Er3_2 In4_6 3.174302 1_455
Er3_2 In4_2 3.174302 1_555
Er3_2 In3_6 3.273960 1_455
Er3_2 In3_2 3.273960 1_555
Er3_2 In5_7 3.369408 1_454
Er3_2 In5_3 3.369408 1_554
Er3_2 Er8_0 3.425471 1_565
Er3_3 Pt3_3 2.791666 1_555
Er3_3 Pt3_7 2.791666 1_455
Er3_3 In4_3 3.174302 1_555
Er3_3 In4_7 3.174302 1_455
Er3_3 In3_7 3.273960 1_455
Er3_3 In3_3 3.273960 1_555
Er3_3 In5_6 3.369408 1_455
Er3_3 In5_2 3.369408 1_555
Er3_3 Er8_1 3.425471 1_565
Er3_4 Pt3_4 2.791666 1_555
Er3_4 Pt3_0 2.791666 1_555
Er3_4 In4_0 3.174302 1_555
Er3_4 In4_4 3.174302 1_555
Er3_4 In3_4 3.273960 1_555
Er3_4 In3_0 3.273960 1_555
Er3_4 In5_5 3.369408 1_554
Er3_4 In5_1 3.369408 1_554
Er3_4 Er8_6 3.425471 1_555
Er3_5 Pt3_1 2.791666 1_555
Er3_5 Pt3_5 2.791666 1_555
Er3_5 In4_1 3.174302 1_555
Er3_5 In4_5 3.174302 1_555
Er3_5 In3_5 3.273960 1_555
Er3_5 In3_1 3.273960 1_555
Er3_5 In5_4 3.369408 1_555
Er3_5 In5_0 3.369408 1_555
Er3_5 Er8_7 3.425471 1_555
Er3_6 Pt3_2 2.791666 1_555
Er3_6 Pt3_6 2.791666 1_555
Er3_6 In4_2 3.174302 1_555
Er3_6 In4_6 3.174302 1_555
Er3_6 In3_6 3.273960 1_555
Er3_6 In3_2 3.273960 1_555
Er3_6 In5_3 3.369408 1_554
Er3_6 In5_7 3.369408 1_554
Er3_6 Er8_4 3.425471 1_565
Er3_7 Pt3_3 2.791666 1_555
Er3_7 Pt3_7 2.791666 1_555
Er3_7 In4_7 3.174302 1_555
Er3_7 In4_3 3.174302 1_555
Er3_7 In3_7 3.273960 1_555
Er3_7 In3_3 3.273960 1_555
Er3_7 In5_6 3.369408 1_555
Er3_7 In5_2 3.369408 1_555
Er3_7 Er8_5 3.425471 1_565
Er4_0 Pt0_4 2.913633 1_455
Er4_0 Pt0_0 2.913633 1_555
Er4_0 Pt3_4 2.923865 1_455
Er4_0 Pt3_0 2.923865 1_555
Er4_0 In0_0 3.298448 1_555
Er4_0 In0_4 3.298448 1_455
Er4_0 In4_0 3.327778 1_555
Er4_0 In4_4 3.327778 1_455
Er4_0 In3_2 3.389918 1_545
Er4_0 In3_6 3.389918 1_445
Er4_1 Pt0_1 2.913633 1_555
Er4_1 Pt0_5 2.913633 1_455
Er4_1 Pt3_1 2.923865 1_555
Er4_1 Pt3_5 2.923865 1_455
Er4_1 In0_5 3.298448 1_455
Er4_1 In0_1 3.298448 1_555
Er4_1 In4_5 3.327778 1_455
Er4_1 In4_1 3.327778 1_555
Er4_1 In3_7 3.389918 1_445
Er4_1 In3_3 3.389918 1_545
Er4_2 Pt0_6 2.913633 1_455
Er4_2 Pt0_2 2.913633 1_555
Er4_2 Pt3_2 2.923865 1_555
Er4_2 Pt3_6 2.923865 1_455
Er4_2 In0_2 3.298448 1_555
Er4_2 In0_6 3.298448 1_455
Er4_2 In4_2 3.327778 1_555
Er4_2 In4_6 3.327778 1_455
Er4_2 In3_4 3.389918 1_455
Er4_2 In3_0 3.389918 1_555
Er4_3 Pt0_3 2.913633 1_555
Er4_3 Pt0_7 2.913633 1_455
Er4_3 Pt3_3 2.923865 1_555
Er4_3 Pt3_7 2.923865 1_455
Er4_3 In0_3 3.298448 1_555
Er4_3 In0_7 3.298448 1_455
Er4_3 In4_3 3.327778 1_555
Er4_3 In4_7 3.327778 1_455
Er4_3 In3_1 3.389918 1_555
Er4_3 In3_5 3.389918 1_455
Er4_4 Pt0_0 2.913633 1_555
Er4_4 Pt0_4 2.913633 1_555
Er4_4 Pt3_0 2.923865 1_555
Er4_4 Pt3_4 2.923865 1_555
Er4_4 In0_0 3.298448 1_555
Er4_4 In0_4 3.298448 1_555
Er4_4 In4_0 3.327778 1_555
Er4_4 In4_4 3.327778 1_555
Er4_4 In3_2 3.389918 1_545
Er4_4 In3_6 3.389918 1_545
Er4_5 Pt0_1 2.913633 1_555
Er4_5 Pt0_5 2.913633 1_555
Er4_5 Pt3_5 2.923865 1_555
Er4_5 Pt3_1 2.923865 1_555
Er4_5 In0_1 3.298448 1_555
Er4_5 In0_5 3.298448 1_555
Er4_5 In4_1 3.327778 1_555
Er4_5 In4_5 3.327778 1_555
Er4_5 In3_7 3.389918 1_545
Er4_5 In3_3 3.389918 1_545
Er4_6 Pt0_2 2.913633 1_555
Er4_6 Pt0_6 2.913633 1_555
Er4_6 Pt3_2 2.923865 1_555
Er4_6 Pt3_6 2.923865 1_555
Er4_6 In0_2 3.298448 1_555
Er4_6 In0_6 3.298448 1_555
Er4_6 In4_2 3.327778 1_555
Er4_6 In4_6 3.327778 1_555
Er4_6 In3_4 3.389918 1_555
Er4_6 In3_0 3.389918 1_555
Er4_7 Pt0_3 2.913633 1_555
Er4_7 Pt0_7 2.913633 1_555
Er4_7 Pt3_3 2.923865 1_555
Er4_7 Pt3_7 2.923865 1_555
Er4_7 In0_3 3.298448 1_555
Er4_7 In0_7 3.298448 1_555
Er4_7 In4_7 3.327778 1_555
Er4_7 In4_3 3.327778 1_555
Er4_7 In3_1 3.389918 1_555
Er4_7 In3_5 3.389918 1_555
Er5_0 Pt1_0 2.913633 1_555
Er5_0 Pt1_4 2.913633 1_455
Er5_0 Pt2_4 2.923865 1_455
Er5_0 Pt2_0 2.923865 1_555
Er5_0 In1_4 3.298448 1_455
Er5_0 In1_0 3.298448 1_555
Er5_0 In5_4 3.327778 1_455
Er5_0 In5_0 3.327778 1_555
Er5_0 In2_2 3.389918 1_555
Er5_0 In2_6 3.389918 1_455
Er5_1 Pt1_1 2.913633 1_555
Er5_1 Pt1_5 2.913633 1_455
Er5_1 Pt2_5 2.923865 1_455
Er5_1 Pt2_1 2.923865 1_555
Er5_1 In1_5 3.298448 1_455
Er5_1 In1_1 3.298448 1_555
Er5_1 In5_5 3.327778 1_455
Er5_1 In5_1 3.327778 1_555
Er5_1 In2_7 3.389918 1_455
Er5_1 In2_3 3.389918 1_555
Er5_2 Pt1_2 2.913633 1_555
Er5_2 Pt1_6 2.913633 1_455
Er5_2 Pt2_2 2.923865 1_555
Er5_2 Pt2_6 2.923865 1_455
Er5_2 In1_2 3.298448 1_555
Er5_2 In1_6 3.298448 1_455
Er5_2 In5_2 3.327778 1_555
Er5_2 In5_6 3.327778 1_455
Er5_2 In2_0 3.389918 1_565
Er5_2 In2_4 3.389918 1_465
Er5_3 Pt1_7 2.913633 1_455
Er5_3 Pt1_3 2.913633 1_555
Er5_3 Pt2_7 2.923865 1_455
Er5_3 Pt2_3 2.923865 1_555
Er5_3 In1_3 3.298448 1_555
Er5_3 In1_7 3.298448 1_455
Er5_3 In5_3 3.327778 1_555
Er5_3 In5_7 3.327778 1_455
Er5_3 In2_5 3.389918 1_465
Er5_3 In2_1 3.389918 1_565
Er5_4 Pt1_0 2.913633 1_555
Er5_4 Pt1_4 2.913633 1_555
Er5_4 Pt2_4 2.923865 1_555
Er5_4 Pt2_0 2.923865 1_555
Er5_4 In1_4 3.298448 1_555
Er5_4 In1_0 3.298448 1_555
Er5_4 In5_4 3.327778 1_555
Er5_4 In5_0 3.327778 1_555
Er5_4 In2_2 3.389918 1_555
Er5_4 In2_6 3.389918 1_555
Er5_5 Pt1_1 2.913633 1_555
Er5_5 Pt1_5 2.913633 1_555
Er5_5 Pt2_1 2.923865 1_555
Er5_5 Pt2_5 2.923865 1_555
Er5_5 In1_5 3.298448 1_555
Er5_5 In1_1 3.298448 1_555
Er5_5 In5_1 3.327778 1_555
Er5_5 In5_5 3.327778 1_555
Er5_5 In2_7 3.389918 1_555
Er5_5 In2_3 3.389918 1_555
Er5_6 Pt1_2 2.913633 1_555
Er5_6 Pt1_6 2.913633 1_555
Er5_6 Pt2_2 2.923865 1_555
Er5_6 Pt2_6 2.923865 1_555
Er5_6 In1_2 3.298448 1_555
Er5_6 In1_6 3.298448 1_555
Er5_6 In5_2 3.327778 1_555
Er5_6 In5_6 3.327778 1_555
Er5_6 In2_0 3.389918 1_565
Er5_6 In2_4 3.389918 1_565
Er5_7 Pt1_7 2.913633 1_555
Er5_7 Pt1_3 2.913633 1_555
Er5_7 Pt2_7 2.923865 1_555
Er5_7 Pt2_3 2.923865 1_555
Er5_7 In1_3 3.298448 1_555
Er5_7 In1_7 3.298448 1_555
Er5_7 In5_3 3.327778 1_555
Er5_7 In5_7 3.327778 1_555
Er5_7 In2_5 3.389918 1_565
Er5_7 In2_1 3.389918 1_565
Er6_0 Pt2_4 2.913633 1_455
Er6_0 Pt2_0 2.913633 1_555
Er6_0 Pt1_6 2.923865 1_445
Er6_0 Pt1_2 2.923865 1_545
Er6_0 In2_0 3.298448 1_555
Er6_0 In2_4 3.298448 1_455
Er6_0 In6_4 3.327778 1_455
Er6_0 In6_0 3.327778 1_555
Er6_0 In1_4 3.389918 1_455
Er6_0 In1_0 3.389918 1_555
Er6_1 Pt2_1 2.913633 1_555
Er6_1 Pt2_5 2.913633 1_455
Er6_1 Pt1_7 2.923865 1_445
Er6_1 Pt1_3 2.923865 1_545
Er6_1 In2_1 3.298448 1_555
Er6_1 In2_5 3.298448 1_455
Er6_1 In6_5 3.327778 1_455
Er6_1 In6_1 3.327778 1_555
Er6_1 In1_5 3.389918 1_455
Er6_1 In1_1 3.389918 1_555
Er6_2 Pt2_2 2.913633 1_555
Er6_2 Pt2_6 2.913633 1_455
Er6_2 Pt1_0 2.923865 1_555
Er6_2 Pt1_4 2.923865 1_455
Er6_2 In2_6 3.298448 1_455
Er6_2 In2_2 3.298448 1_555
Er6_2 In6_2 3.327778 1_555
Er6_2 In6_6 3.327778 1_455
Er6_2 In1_2 3.389918 1_555
Er6_2 In1_6 3.389918 1_455
Er6_3 Pt2_7 2.913633 1_455
Er6_3 Pt2_3 2.913633 1_555
Er6_3 Pt1_5 2.923865 1_455
Er6_3 Pt1_1 2.923865 1_555
Er6_3 In2_3 3.298448 1_555
Er6_3 In2_7 3.298448 1_455
Er6_3 In6_3 3.327778 1_555
Er6_3 In6_7 3.327778 1_455
Er6_3 In1_3 3.389918 1_555
Er6_3 In1_7 3.389918 1_455
Er6_4 Pt2_0 2.913633 1_555
Er6_4 Pt2_4 2.913633 1_555
Er6_4 Pt1_2 2.923865 1_545
Er6_4 Pt1_6 2.923865 1_545
Er6_4 In2_4 3.298448 1_555
Er6_4 In2_0 3.298448 1_555
Er6_4 In6_0 3.327778 1_555
Er6_4 In6_4 3.327778 1_555
Er6_4 In1_4 3.389918 1_555
Er6_4 In1_0 3.389918 1_555
Er6_5 Pt2_1 2.913633 1_555
Er6_5 Pt2_5 2.913633 1_555
Er6_5 Pt1_3 2.923865 1_545
Er6_5 Pt1_7 2.923865 1_545
Er6_5 In2_1 3.298448 1_555
Er6_5 In2_5 3.298448 1_555
Er6_5 In6_1 3.327778 1_555
Er6_5 In6_5 3.327778 1_555
Er6_5 In1_1 3.389918 1_555
Er6_5 In1_5 3.389918 1_555
Er6_6 Pt2_2 2.913633 1_555
Er6_6 Pt2_6 2.913633 1_555
Er6_6 Pt1_0 2.923865 1_555
Er6_6 Pt1_4 2.923865 1_555
Er6_6 In2_6 3.298448 1_555
Er6_6 In2_2 3.298448 1_555
Er6_6 In6_2 3.327778 1_555
Er6_6 In6_6 3.327778 1_555
Er6_6 In1_2 3.389918 1_555
Er6_6 In1_6 3.389918 1_555
Er6_7 Pt2_3 2.913633 1_555
Er6_7 Pt2_7 2.913633 1_555
Er6_7 Pt1_1 2.923865 1_555
Er6_7 Pt1_5 2.923865 1_555
Er6_7 In2_3 3.298448 1_555
Er6_7 In2_7 3.298448 1_555
Er6_7 In6_3 3.327778 1_555
Er6_7 In6_7 3.327778 1_555
Er6_7 In1_3 3.389918 1_555
Er6_7 In1_7 3.389918 1_555
Er7_0 Pt3_0 2.913633 1_555
Er7_0 Pt3_4 2.913633 1_455
Er7_0 Pt0_2 2.923865 1_555
Er7_0 Pt0_6 2.923865 1_455
Er7_0 In3_0 3.298448 1_555
Er7_0 In3_4 3.298448 1_455
Er7_0 In7_0 3.327778 1_555
Er7_0 In7_4 3.327778 1_455
Er7_0 In0_0 3.389918 1_555
Er7_0 In0_4 3.389918 1_455
Er7_1 Pt3_1 2.913633 1_555
Er7_1 Pt3_5 2.913633 1_455
Er7_1 Pt0_7 2.923865 1_455
Er7_1 Pt0_3 2.923865 1_555
Er7_1 In3_1 3.298448 1_555
Er7_1 In3_5 3.298448 1_455
Er7_1 In7_5 3.327778 1_455
Er7_1 In7_1 3.327778 1_555
Er7_1 In0_5 3.389918 1_455
Er7_1 In0_1 3.389918 1_555
Er7_2 Pt3_6 2.913633 1_455
Er7_2 Pt3_2 2.913633 1_555
Er7_2 Pt0_4 2.923865 1_465
Er7_2 Pt0_0 2.923865 1_565
Er7_2 In3_2 3.298448 1_555
Er7_2 In3_6 3.298448 1_455
Er7_2 In7_2 3.327778 1_555
Er7_2 In7_6 3.327778 1_455
Er7_2 In0_2 3.389918 1_555
Er7_2 In0_6 3.389918 1_455
Er7_3 Pt3_7 2.913633 1_455
Er7_3 Pt3_3 2.913633 1_555
Er7_3 Pt0_1 2.923865 1_565
Er7_3 Pt0_5 2.923865 1_465
Er7_3 In3_3 3.298448 1_555
Er7_3 In3_7 3.298448 1_455
Er7_3 In7_3 3.327778 1_555
Er7_3 In7_7 3.327778 1_455
Er7_3 In0_7 3.389918 1_455
Er7_3 In0_3 3.389918 1_555
Er7_4 Pt3_0 2.913633 1_555
Er7_4 Pt3_4 2.913633 1_555
Er7_4 Pt0_2 2.923865 1_555
Er7_4 Pt0_6 2.923865 1_555
Er7_4 In3_0 3.298448 1_555
Er7_4 In3_4 3.298448 1_555
Er7_4 In7_0 3.327778 1_555
Er7_4 In7_4 3.327778 1_555
Er7_4 In0_0 3.389918 1_555
Er7_4 In0_4 3.389918 1_555
Er7_5 Pt3_1 2.913633 1_555
Er7_5 Pt3_5 2.913633 1_555
Er7_5 Pt0_7 2.923865 1_555
Er7_5 Pt0_3 2.923865 1_555
Er7_5 In3_1 3.298448 1_555
Er7_5 In3_5 3.298448 1_555
Er7_5 In7_1 3.327778 1_555
Er7_5 In7_5 3.327778 1_555
Er7_5 In0_1 3.389918 1_555
Er7_5 In0_5 3.389918 1_555
Er7_6 Pt3_6 2.913633 1_555
Er7_6 Pt3_2 2.913633 1_555
Er7_6 Pt0_0 2.923865 1_565
Er7_6 Pt0_4 2.923865 1_565
Er7_6 In3_2 3.298448 1_555
Er7_6 In3_6 3.298448 1_555
Er7_6 In7_2 3.327778 1_555
Er7_6 In7_6 3.327778 1_555
Er7_6 In0_6 3.389918 1_555
Er7_6 In0_2 3.389918 1_555
Er7_7 Pt3_7 2.913633 1_555
Er7_7 Pt3_3 2.913633 1_555
Er7_7 Pt0_1 2.923865 1_565
Er7_7 Pt0_5 2.923865 1_565
Er7_7 In3_3 3.298448 1_555
Er7_7 In3_7 3.298448 1_555
Er7_7 In7_3 3.327778 1_555
Er7_7 In7_7 3.327778 1_555
Er7_7 In0_3 3.389918 1_555
Er7_7 In0_7 3.389918 1_555
Er8_0 In4_4 3.171724 1_455
Er8_0 In4_0 3.171724 1_555
Er8_0 In5_3 3.171724 1_544
Er8_0 In5_7 3.171724 1_444
Er8_0 In2_1 3.274994 1_554
Er8_0 In2_5 3.274994 1_454
Er8_0 In3_6 3.274994 1_445
Er8_0 In3_2 3.274994 1_545
Er8_0 Er8_4 3.619588 1_555
Er8_0 Er8_4 3.619588 1_455
Er8_1 In4_5 3.171724 1_455
Er8_1 In5_2 3.171724 1_545
Er8_1 In4_1 3.171724 1_555
Er8_1 In5_6 3.171724 1_445
Er8_1 In2_0 3.274994 1_555
Er8_1 In2_4 3.274994 1_455
Er8_1 In3_7 3.274994 1_445
Er8_1 In3_3 3.274994 1_545
Er8_1 Er8_5 3.619588 1_555
Er8_1 Er8_5 3.619588 1_455
Er8_2 In5_1 3.171724 1_554
Er8_2 In4_2 3.171724 1_555
Er8_2 In5_5 3.171724 1_454
Er8_2 In4_6 3.171724 1_455
Er8_2 In2_7 3.274994 1_454
Er8_2 In2_3 3.274994 1_554
Er8_2 In3_4 3.274994 1_455
Er8_2 In3_0 3.274994 1_555
Er8_2 Er8_6 3.619588 1_455
Er8_2 Er8_6 3.619588 1_555
Er8_3 In5_0 3.171724 1_555
Er8_3 In5_4 3.171724 1_455
Er8_3 In4_3 3.171724 1_555
Er8_3 In4_7 3.171724 1_455
Er8_3 In2_2 3.274994 1_555
Er8_3 In2_6 3.274994 1_455
Er8_3 In3_1 3.274994 1_555
Er8_3 In3_5 3.274994 1_455
Er8_3 Er8_7 3.619588 1_555
Er8_3 Er8_7 3.619588 1_455
Er8_4 In4_0 3.171724 1_555
Er8_4 In4_4 3.171724 1_555
Er8_4 In5_3 3.171724 1_544
Er8_4 In5_7 3.171724 1_544
Er8_4 In2_5 3.274994 1_554
Er8_4 In2_1 3.274994 1_554
Er8_4 In3_2 3.274994 1_545
Er8_4 In3_6 3.274994 1_545
Er8_5 In5_2 3.171724 1_545
Er8_5 In4_5 3.171724 1_555
Er8_5 In4_1 3.171724 1_555
Er8_5 In5_6 3.171724 1_545
Er8_5 In2_0 3.274994 1_555
Er8_5 In2_4 3.274994 1_555
Er8_5 In3_7 3.274994 1_545
Er8_5 In3_3 3.274994 1_545
Er8_6 In5_1 3.171724 1_554
Er8_6 In4_2 3.171724 1_555
Er8_6 In5_5 3.171724 1_554
Er8_6 In4_6 3.171724 1_555
Er8_6 In2_3 3.274994 1_554
Er8_6 In2_7 3.274994 1_554
Er8_6 In3_4 3.274994 1_555
Er8_6 In3_0 3.274994 1_555
Er8_7 In5_4 3.171724 1_555
Er8_7 In5_0 3.171724 1_555
Er8_7 In4_7 3.171724 1_555
Er8_7 In4_3 3.171724 1_555
Er8_7 In2_2 3.274994 1_555
Er8_7 In2_6 3.274994 1_555
Er8_7 In3_1 3.274994 1_555
Er8_7 In3_5 3.274994 1_555
Er9_0 In6_4 3.171724 1_455
Er9_0 In6_0 3.171724 1_555
Er9_0 In7_0 3.171724 1_555
Er9_0 In7_4 3.171724 1_455
Er9_0 In0_0 3.274994 1_555
Er9_0 In0_4 3.274994 1_455
Er9_0 In1_0 3.274994 1_555
Er9_0 In1_4 3.274994 1_455
Er9_0 Er9_4 3.619588 1_555
Er9_0 Er9_4 3.619588 1_455
Er9_1 In6_5 3.171724 1_455
Er9_1 In6_1 3.171724 1_555
Er9_1 In7_1 3.171724 1_555
Er9_1 In7_5 3.171724 1_455
Er9_1 In0_1 3.274994 1_555
Er9_1 In0_5 3.274994 1_455
Er9_1 In1_1 3.274994 1_555
Er9_1 In1_5 3.274994 1_455
Er9_1 Er9_5 3.619588 1_455
Er9_1 Er9_5 3.619588 1_555
Er9_2 In6_2 3.171724 1_555
Er9_2 In6_6 3.171724 1_455
Er9_2 In7_6 3.171724 1_455
Er9_2 In7_2 3.171724 1_555
Er9_2 In0_2 3.274994 1_555
Er9_2 In0_6 3.274994 1_455
Er9_2 In1_2 3.274994 1_555
Er9_2 In1_6 3.274994 1_455
Er9_2 Er9_6 3.619588 1_455
Er9_2 Er9_6 3.619588 1_555
Er9_3 In6_3 3.171724 1_555
Er9_3 In6_7 3.171724 1_455
Er9_3 In7_7 3.171724 1_455
Er9_3 In7_3 3.171724 1_555
Er9_3 In0_7 3.274994 1_455
Er9_3 In0_3 3.274994 1_555
Er9_3 In1_3 3.274994 1_555
Er9_3 In1_7 3.274994 1_455
Er9_3 Er9_7 3.619588 1_455
Er9_3 Er9_7 3.619588 1_555
Er9_4 In6_0 3.171724 1_555
Er9_4 In6_4 3.171724 1_555
Er9_4 In7_0 3.171724 1_555
Er9_4 In7_4 3.171724 1_555
Er9_4 In0_0 3.274994 1_555
Er9_4 In0_4 3.274994 1_555
Er9_4 In1_0 3.274994 1_555
Er9_4 In1_4 3.274994 1_555
Er9_5 In6_1 3.171724 1_555
Er9_5 In6_5 3.171724 1_555
Er9_5 In7_1 3.171724 1_555
Er9_5 In7_5 3.171724 1_555
Er9_5 In0_1 3.274994 1_555
Er9_5 In0_5 3.274994 1_555
Er9_5 In1_1 3.274994 1_555
Er9_5 In1_5 3.274994 1_555
Er9_6 In6_2 3.171724 1_555
Er9_6 In6_6 3.171724 1_555
Er9_6 In7_6 3.171724 1_555
Er9_6 In7_2 3.171724 1_555
Er9_6 In0_6 3.274994 1_555
Er9_6 In0_2 3.274994 1_555
Er9_6 In1_6 3.274994 1_555
Er9_6 In1_2 3.274994 1_555
Er9_7 In6_3 3.171724 1_555
Er9_7 In6_7 3.171724 1_555
Er9_7 In7_3 3.171724 1_555
Er9_7 In7_7 3.171724 1_555
Er9_7 In0_3 3.274994 1_555
Er9_7 In0_7 3.274994 1_555
Er9_7 In1_3 3.274994 1_555
Er9_7 In1_7 3.274994 1_555
In0_0 Pt3_0 2.926444 1_555
In0_0 In7_0 3.237737 1_555
In0_0 Pt0_0 3.286236 1_555
In0_1 Pt3_1 2.926444 1_555
In0_1 In7_1 3.237737 1_555
In0_1 Pt0_1 3.286236 1_555
In0_2 Pt3_2 2.926444 1_555
In0_2 In7_2 3.237737 1_555
In0_2 Pt0_2 3.286236 1_555
In0_3 Pt3_3 2.926444 1_555
In0_3 In7_3 3.237737 1_555
In0_3 Pt0_3 3.286236 1_555
In0_4 Pt3_4 2.926444 1_555
In0_4 In7_4 3.237737 1_555
In0_4 Pt0_4 3.286236 1_555
In0_5 Pt3_5 2.926444 1_555
In0_5 In7_5 3.237737 1_555
In0_5 Pt0_5 3.286236 1_555
In0_6 Pt3_6 2.926444 1_555
In0_6 In7_6 3.237737 1_555
In0_6 Pt0_6 3.286236 1_555
In0_7 Pt3_7 2.926444 1_555
In0_7 In7_7 3.237737 1_555
In0_7 Pt0_7 3.286236 1_555
In1_0 Pt2_0 2.926444 1_555
In1_0 In6_0 3.237737 1_555
In1_0 Pt1_0 3.286236 1_555
In1_1 Pt2_1 2.926444 1_555
In1_1 In6_1 3.237737 1_555
In1_1 Pt1_1 3.286236 1_555
In1_2 Pt2_2 2.926444 1_555
In1_2 In6_2 3.237737 1_555
In1_2 Pt1_2 3.286236 1_555
In1_3 Pt2_3 2.926444 1_555
In1_3 In6_3 3.237737 1_555
In1_3 Pt1_3 3.286236 1_555
In1_4 Pt2_4 2.926444 1_555
In1_4 In6_4 3.237737 1_555
In1_4 Pt1_4 3.286236 1_555
In1_5 Pt2_5 2.926444 1_555
In1_5 In6_5 3.237737 1_555
In1_5 Pt1_5 3.286236 1_555
In1_6 Pt2_6 2.926444 1_555
In1_6 In6_6 3.237737 1_555
In1_6 Pt1_6 3.286236 1_555
In1_7 Pt2_7 2.926444 1_555
In1_7 In6_7 3.237737 1_555
In1_7 Pt1_7 3.286236 1_555
In2_0 Pt1_2 2.926444 1_545
In2_0 In5_2 3.237737 1_545
In2_0 Pt2_0 3.286236 1_555
In2_1 Pt1_3 2.926444 1_545
In2_1 In5_3 3.237737 1_545
In2_1 Pt2_1 3.286236 1_555
In2_2 Pt1_0 2.926444 1_555
In2_2 In5_0 3.237737 1_555
In2_2 Pt2_2 3.286236 1_555
In2_3 Pt1_1 2.926444 1_555
In2_3 In5_1 3.237737 1_555
In2_3 Pt2_3 3.286236 1_555
In2_4 Pt1_6 2.926444 1_545
In2_4 In5_6 3.237737 1_545
In2_4 Pt2_4 3.286236 1_555
In2_5 Pt1_7 2.926444 1_545
In2_5 In5_7 3.237737 1_545
In2_5 Pt2_5 3.286236 1_555
In2_6 Pt1_4 2.926444 1_555
In2_6 In5_4 3.237737 1_555
In2_6 Pt2_6 3.286236 1_555
In2_7 Pt1_5 2.926444 1_555
In2_7 In5_5 3.237737 1_555
In2_7 Pt2_7 3.286236 1_555
In3_0 Pt0_2 2.926444 1_555
In3_0 In4_2 3.237737 1_555
In3_0 Pt3_0 3.286236 1_555
In3_1 Pt0_3 2.926444 1_555
In3_1 In4_3 3.237737 1_555
In3_1 Pt3_1 3.286236 1_555
In3_2 Pt0_0 2.926444 1_565
In3_2 In4_0 3.237737 1_565
In3_2 Pt3_2 3.286236 1_555
In3_3 Pt0_1 2.926444 1_565
In3_3 In4_1 3.237737 1_565
In3_3 Pt3_3 3.286236 1_555
In3_4 Pt0_6 2.926444 1_555
In3_4 In4_6 3.237737 1_555
In3_4 Pt3_4 3.286236 1_555
In3_5 Pt0_7 2.926444 1_555
In3_5 In4_7 3.237737 1_555
In3_5 Pt3_5 3.286236 1_555
In3_6 Pt0_4 2.926444 1_565
In3_6 In4_4 3.237737 1_565
In3_6 Pt3_6 3.286236 1_555
In3_7 Pt0_5 2.926444 1_565
In3_7 In4_5 3.237737 1_565
In3_7 Pt3_7 3.286236 1_555
In4_0 Pt3_0 2.988987 1_555
In4_1 Pt3_1 2.988987 1_555
In4_2 Pt3_2 2.988987 1_555
In4_3 Pt3_3 2.988987 1_555
In4_4 Pt3_4 2.988987 1_555
In4_5 Pt3_5 2.988987 1_555
In4_6 Pt3_6 2.988987 1_555
In4_7 Pt3_7 2.988987 1_555
In5_0 Pt2_0 2.988987 1_555
In5_1 Pt2_1 2.988987 1_555
In5_2 Pt2_2 2.988987 1_555
In5_3 Pt2_3 2.988987 1_555
In5_4 Pt2_4 2.988987 1_555
In5_5 Pt2_5 2.988987 1_555
In5_6 Pt2_6 2.988987 1_555
In5_7 Pt2_7 2.988987 1_555
In6_0 Pt1_2 2.988987 1_545
In6_1 Pt1_3 2.988987 1_545
In6_2 Pt1_0 2.988987 1_555
In6_3 Pt1_1 2.988987 1_555
In6_4 Pt1_6 2.988987 1_545
In6_5 Pt1_7 2.988987 1_545
In6_6 Pt1_4 2.988987 1_555
In6_7 Pt1_5 2.988987 1_555
In7_0 Pt0_2 2.988987 1_555
In7_1 Pt0_3 2.988987 1_555
In7_2 Pt0_0 2.988987 1_565
In7_3 Pt0_1 2.988987 1_565
In7_4 Pt0_6 2.988987 1_555
In7_5 Pt0_7 2.988987 1_555
In7_6 Pt0_4 2.988987 1_565
In7_7 Pt0_5 2.988987 1_565
