# generated using pymatgen
data_Sm2O3
_symmetry_space_group_name_H-M   'P 1'
_cell_length_a   3.77872287
_cell_length_b   3.77872220
_cell_length_c   5.94231147
_cell_angle_alpha   90.00000000
_cell_angle_beta   90.00000000
_cell_angle_gamma   120.00000577
_symmetry_Int_Tables_number   1
_chemical_formula_structural   Sm2O3
_chemical_formula_sum   'Sm2 O3'
_cell_volume   73.48116374
_cell_formula_units_Z   1
loop_
 _symmetry_equiv_pos_site_id
 _symmetry_equiv_pos_as_xyz
  1  'x, y, z'
loop_
 _atom_site_type_symbol
 _atom_site_label
 _atom_site_symmetry_multiplicity
 _atom_site_fract_x
 _atom_site_fract_y
 _atom_site_fract_z
 _atom_site_occupancy
  Sm  Sm0  1  0.66666700  0.33333300  0.75159485  1
  Sm  Sm1  1  0.33333300  0.66666700  0.24840515  1
  O  O0  1  0.66666700  0.33333300  0.35458589  1
  O  O1  1  0.33333300  0.66666700  0.64541411  1
  O  O2  1  -0.00000000  -0.00000000  -0.00000000  1
loop_
_geom_bond_atom_site_label_1
_geom_bond_atom_site_label_2
_geom_bond_distance
_geom_bond_site_symmetry_2
O0 Sm1 2.271053 1_545
O0 Sm1 2.271053 1_655
O0 Sm1 2.271059 1_555
O0 Sm0 2.359151 1_555
O1 Sm0 2.271053 1_565
O1 Sm0 2.271053 1_455
O1 Sm0 2.271059 1_555
O1 Sm1 2.359151 1_555
O2 Sm0 2.634093 1_454
O2 Sm1 2.634093 1_545
O2 Sm1 2.634095 1_555
O2 Sm0 2.634095 1_444
O2 Sm0 2.634096 1_554
O2 Sm1 2.634096 1_445
