# generated using pymatgen
data_KNa2RuF6
_symmetry_space_group_name_H-M   'P 1'
_cell_length_a   6.30564452
_cell_length_b   6.30564452
_cell_length_c   6.30564452
_cell_angle_alpha   60.00000000
_cell_angle_beta   60.00000000
_cell_angle_gamma   60.00000000
_symmetry_Int_Tables_number   1
_chemical_formula_structural   KNa2RuF6
_chemical_formula_sum   'K1 Na2 Ru1 F6'
_cell_volume   177.28559677
_cell_formula_units_Z   1
loop_
 _symmetry_equiv_pos_site_id
 _symmetry_equiv_pos_as_xyz
  1  'x, y, z'
loop_
 _atom_site_type_symbol
 _atom_site_label
 _atom_site_symmetry_multiplicity
 _atom_site_fract_x
 _atom_site_fract_y
 _atom_site_fract_z
 _atom_site_occupancy
  K  K0  1  0.50000000  0.50000000  0.50000000  1
  Na  Na0  1  0.75000000  0.75000000  0.75000000  1
  Na  Na1  1  0.25000000  0.25000000  0.25000000  1
  Ru  Ru0  1  0.00000000  0.00000000  0.00000000  1
  F  F0  1  0.77447900  0.22552100  0.22552100  1
  F  F1  1  0.22552100  0.22552100  0.77447900  1
  F  F2  1  0.22552100  0.77447900  0.77447900  1
  F  F3  1  0.22552100  0.77447900  0.22552100  1
  F  F4  1  0.77447900  0.22552100  0.77447900  1
  F  F5  1  0.77447900  0.77447900  0.22552100  1
loop_
_geom_bond_atom_site_label_1
_geom_bond_atom_site_label_2
_geom_bond_distance
_geom_bond_site_symmetry_2
F0 Ru0 2.011090 1_655
F0 K0 2.447674 1_555
F1 Ru0 2.011090 1_556
F1 K0 2.447674 1_555
F2 Ru0 2.011090 1_566
F2 K0 2.447674 1_555
F3 Ru0 2.011090 1_565
F3 K0 2.447674 1_555
F4 Ru0 2.011090 1_656
F4 K0 2.447674 1_555
F5 Ru0 2.011090 1_665
F5 K0 2.447674 1_555
