# generated using pymatgen
data_Na3GaN2
_symmetry_space_group_name_H-M   'P 1'
_cell_length_a   8.54344554
_cell_length_b   8.09996980
_cell_length_c   12.67843795
_cell_angle_alpha   89.99999602
_cell_angle_beta   137.90189180
_cell_angle_gamma   118.29725099
_symmetry_Int_Tables_number   1
_chemical_formula_structural   Na3GaN2
_chemical_formula_sum   'Na12 Ga4 N8'
_cell_volume   415.91306308
_cell_formula_units_Z   4
loop_
 _symmetry_equiv_pos_site_id
 _symmetry_equiv_pos_as_xyz
  1  'x, y, z'
loop_
 _atom_site_type_symbol
 _atom_site_label
 _atom_site_symmetry_multiplicity
 _atom_site_fract_x
 _atom_site_fract_y
 _atom_site_fract_z
 _atom_site_occupancy
  Na  Na0  1  0.00000000  0.50000000  0.37528100  1
  Na  Na1  1  0.00000000  0.00000000  0.87471900  1
  Na  Na2  1  0.00000000  0.50000000  0.12471900  1
  Na  Na3  1  0.00000000  0.00000000  0.12528100  1
  Na  Na4  1  0.53251700  0.50000000  0.51625900  1
  Na  Na5  1  0.46748300  0.50000000  0.98374100  1
  Na  Na6  1  0.53251700  0.00000000  0.26625900  1
  Na  Na7  1  0.46748300  0.00000000  0.73374100  1
  Na  Na8  1  0.46748300  0.96748300  0.98374100  1
  Na  Na9  1  0.53251700  0.03251700  0.51625900  1
  Na  Na10  1  0.46748300  0.46748300  0.73374100  1
  Na  Na11  1  0.53251700  0.53251700  0.26625900  1
  Ga  Ga0  1  0.00000000  0.50000000  0.61336400  1
  Ga  Ga1  1  0.00000000  0.00000000  0.63663600  1
  Ga  Ga2  1  0.00000000  0.50000000  0.88663600  1
  Ga  Ga3  1  0.00000000  0.00000000  0.36336400  1
  N  N0  1  0.43632000  0.71816000  0.82244400  1
  N  N1  1  0.56368000  0.28184000  0.38612300  1
  N  N2  1  0.43632000  0.21816000  0.86387700  1
  N  N3  1  0.56368000  0.78184000  0.42755600  1
  N  N4  1  0.00000000  0.28184000  0.89571700  1
  N  N5  1  0.00000000  0.71816000  0.89571700  1
  N  N6  1  0.00000000  0.78184000  0.35428300  1
  N  N7  1  0.00000000  0.21816000  0.35428300  1
loop_
_geom_bond_atom_site_label_1
_geom_bond_atom_site_label_2
_geom_bond_distance
_geom_bond_site_symmetry_2
Ga0 N0 1.770835 1_555
Ga0 N1 1.770836 1_455
Ga1 N3 1.770835 1_445
Ga1 N2 1.770836 1_555
Ga2 N4 1.770836 1_555
Ga2 N5 1.770836 1_555
Ga3 N7 1.770836 1_555
Ga3 N6 1.770836 1_545
N0 Na3 2.298364 1_666
N0 Na7 2.532852 1_565
N0 Na10 2.532853 1_555
N0 Na5 2.648313 1_555
N0 Na8 2.648313 1_555
N1 Na3 2.298366 1_555
N1 Na11 2.532839 1_555
N1 Na6 2.532839 1_555
N1 Na9 2.648331 1_555
N1 Na4 2.648331 1_555
N2 Na2 2.298366 1_656
N2 Na8 2.532839 1_545
N2 Na5 2.532839 1_555
N2 Na10 2.648331 1_555
N2 Na7 2.648331 1_555
N3 Na2 2.298364 1_555
N3 Na4 2.532852 1_555
N3 Na9 2.532853 1_565
N3 Na6 2.648313 1_565
N3 Na11 2.648313 1_555
N4 Na1 2.298366 1_555
N4 Na7 2.532839 1_455
N4 Na11 2.532846 1_556
N4 Na9 2.648322 1_455
N4 Na5 2.648331 1_555
N5 Na1 2.298366 1_565
N5 Na10 2.532839 1_455
N5 Na6 2.532846 1_566
N5 Na4 2.648322 1_455
N5 Na8 2.648331 1_555
N6 Na0 2.298366 1_555
N6 Na9 2.532839 1_565
N6 Na5 2.532846 1_454
N6 Na7 2.648322 1_565
N6 Na11 2.648331 1_455
N7 Na0 2.298366 1_555
N7 Na4 2.532839 1_555
N7 Na8 2.532846 1_444
N7 Na10 2.648322 1_555
N7 Na6 2.648331 1_455
