# generated using pymatgen
data_BaMo3O10
_symmetry_space_group_name_H-M   'P 1'
_cell_length_a   15.05268923
_cell_length_b   7.70257500
_cell_length_c   7.22572377
_cell_angle_alpha   90.00000000
_cell_angle_beta   101.03695945
_cell_angle_gamma   90.00000000
_symmetry_Int_Tables_number   1
_chemical_formula_structural   BaMo3O10
_chemical_formula_sum   'Ba4 Mo12 O40'
_cell_volume   822.28698001
_cell_formula_units_Z   4
loop_
 _symmetry_equiv_pos_site_id
 _symmetry_equiv_pos_as_xyz
  1  'x, y, z'
loop_
 _atom_site_type_symbol
 _atom_site_label
 _atom_site_symmetry_multiplicity
 _atom_site_fract_x
 _atom_site_fract_y
 _atom_site_fract_z
 _atom_site_occupancy
  Ba  Ba0  1  0.93372000  0.24892500  0.11596100  1
  Ba  Ba1  1  0.06628000  0.74892500  0.88403900  1
  Ba  Ba2  1  0.43141400  0.00464200  0.60485800  1
  Ba  Ba3  1  0.56858500  0.50464200  0.39514200  1
  Mo  Mo0  1  0.34924700  0.74788700  0.06311500  1
  Mo  Mo1  1  0.65075300  0.24788700  0.93688500  1
  Mo  Mo2  1  0.61701000  0.73689100  0.94093700  1
  Mo  Mo3  1  0.38299000  0.23689100  0.05906300  1
  Mo  Mo4  1  0.14728500  0.00917300  0.43465000  1
  Mo  Mo5  1  0.85271500  0.50917300  0.56535000  1
  Mo  Mo6  1  0.88379300  0.02082900  0.55483100  1
  Mo  Mo7  1  0.11620700  0.52082900  0.44516900  1
  Mo  Mo8  1  0.83474300  0.74824200  0.18433000  1
  Mo  Mo9  1  0.16525700  0.24824200  0.81567000  1
  Mo  Mo10  1  0.33358800  0.50449300  0.68769700  1
  Mo  Mo11  1  0.66641200  0.00449300  0.31230300  1
  O  O0  1  0.63075000  0.49449600  0.97446500  1
  O  O1  1  0.36925000  0.99449600  0.02553500  1
  O  O2  1  0.36203000  0.49952000  0.99645200  1
  O  O3  1  0.63797000  0.99952000  0.00354800  1
  O  O4  1  0.50824200  0.74902600  0.00130800  1
  O  O5  1  0.49175800  0.24902600  0.99869200  1
  O  O6  1  0.58849200  0.23143000  0.70355200  1
  O  O7  1  0.41150800  0.73143000  0.29644800  1
  O  O8  1  0.76308400  0.25316800  0.91292500  1
  O  O9  1  0.23691600  0.75316800  0.08707500  1
  O  O10  1  0.66664000  0.24050500  0.23164600  1
  O  O11  1  0.33336000  0.74050500  0.76835400  1
  O  O12  1  0.59183600  0.76391800  0.69472800  1
  O  O13  1  0.40816400  0.26391800  0.30527200  1
  O  O14  1  0.67949000  0.76308600  0.24643900  1
  O  O15  1  0.32051000  0.26308600  0.75356100  1
  O  O16  1  0.75927600  0.74147800  0.95593800  1
  O  O17  1  0.24072400  0.24147800  0.04406200  1
  O  O18  1  0.87015000  0.26164300  0.51845300  1
  O  O19  1  0.12985000  0.76164300  0.48154700  1
  O  O20  1  0.86611100  0.75477100  0.49901100  1
  O  O21  1  0.13388900  0.25477100  0.50098900  1
  O  O22  1  0.99193300  0.00929600  0.48916100  1
  O  O23  1  0.00806700  0.50929600  0.51083900  1
  O  O24  1  0.91303900  0.51411600  0.80049500  1
  O  O25  1  0.08696100  0.01411600  0.19950500  1
  O  O26  1  0.74003400  0.50534200  0.58714000  1
  O  O27  1  0.25996600  0.00534200  0.41286000  1
  O  O28  1  0.83590400  0.51447600  0.26720300  1
  O  O29  1  0.16409700  0.01447600  0.73279700  1
  O  O30  1  0.08848200  0.49440900  0.19944700  1
  O  O31  1  0.91151800  0.99440900  0.80055300  1
  O  O32  1  0.17880700  0.48913600  0.74745200  1
  O  O33  1  0.82119300  0.98913600  0.25254800  1
  O  O34  1  0.25789600  0.51375000  0.45869900  1
  O  O35  1  0.74210400  0.01375000  0.54130100  1
  O  O36  1  0.94043700  0.75928300  0.12267300  1
  O  O37  1  0.05956300  0.25928300  0.87732700  1
  O  O38  1  0.55913100  0.99507000  0.36718900  1
  O  O39  1  0.44086900  0.49507100  0.63281100  1
loop_
_geom_bond_atom_site_label_1
_geom_bond_atom_site_label_2
_geom_bond_distance
_geom_bond_site_symmetry_2
Ba0 O8 2.703321 1_554
Ba0 O37 2.796155 1_654
Ba0 O28 2.856937 1_555
Ba0 O25 2.902280 1_655
Ba0 O33 2.913310 1_545
Ba0 O30 2.971219 1_655
Ba0 O31 2.976141 1_544
Ba0 O24 3.032100 1_554
Ba1 O9 2.703321 1_556
Ba1 O36 2.796155 1_456
Ba1 O29 2.856946 1_565
Ba1 O24 2.902280 1_455
Ba1 O32 2.913310 1_555
Ba1 O31 2.971219 1_455
Ba1 O30 2.976141 1_556
Ba1 O25 3.032100 1_566
Ba2 O27 2.685913 1_555
Ba2 O38 2.813310 1_545
Ba2 O11 2.895016 1_545
Ba2 O6 2.916342 1_555
Ba2 O13 2.916646 1_555
Ba2 O15 2.931050 1_555
Ba2 O12 3.015046 1_545
Ba2 O7 3.037913 1_545
Ba3 O26 2.685926 1_555
Ba3 O39 2.813298 1_555
Ba3 O10 2.895025 1_555
Ba3 O7 2.916331 1_555
Ba3 O12 2.916646 1_555
Ba3 O14 2.931059 1_555
Ba3 O13 3.015034 1_555
Ba3 O6 3.037912 1_555
Mo0 O9 1.732859 1_555
Mo0 O7 1.769746 1_555
Mo0 O1 1.950357 1_555
Mo0 O2 1.991069 1_554
Mo0 O11 2.098026 1_554
Mo0 O4 2.517274 1_555
Mo1 O8 1.732859 1_555
Mo1 O6 1.769746 1_555
Mo1 O0 1.950357 1_555
Mo1 O3 1.991069 1_546
Mo1 O10 2.098026 1_556
Mo1 O5 2.517274 1_555
Mo2 O12 1.758917 1_555
Mo2 O4 1.775691 1_556
Mo2 O0 1.888973 1_555
Mo2 O3 2.083691 1_556
Mo2 O16 2.123696 1_555
Mo2 O14 2.236797 1_556
Mo3 O13 1.758917 1_555
Mo3 O5 1.775691 1_554
Mo3 O1 1.888973 1_545
Mo3 O2 2.083691 1_554
Mo3 O17 2.123696 1_555
Mo3 O15 2.236797 1_554
Mo4 O27 1.733449 1_555
Mo4 O25 1.766966 1_555
Mo4 O19 1.962893 1_545
Mo4 O21 1.971323 1_555
Mo4 O29 2.120871 1_555
Mo4 O22 2.444633 1_455
Mo5 O26 1.733449 1_555
Mo5 O24 1.766966 1_555
Mo5 O18 1.962893 1_555
Mo5 O20 1.971323 1_555
Mo5 O28 2.120873 1_555
Mo5 O23 2.444633 1_655
Mo6 O31 1.756228 1_545
Mo6 O22 1.782842 1_555
Mo6 O18 1.879151 1_555
Mo6 O20 2.095753 1_545
Mo6 O35 2.116963 1_555
Mo6 O33 2.220420 1_545
Mo7 O30 1.756228 1_555
Mo7 O23 1.782842 1_555
Mo7 O19 1.879151 1_555
Mo7 O21 2.095753 1_555
Mo7 O34 2.116963 1_555
Mo7 O32 2.220420 1_555
Mo8 O36 1.734452 1_555
Mo8 O16 1.816275 1_554
Mo8 O28 1.896587 1_555
Mo8 O33 1.940610 1_555
Mo8 O20 2.232613 1_555
Mo8 O14 2.465258 1_555
Mo9 O37 1.734452 1_555
Mo9 O17 1.816275 1_556
Mo9 O29 1.896588 1_555
Mo9 O32 1.940610 1_555
Mo9 O21 2.232613 1_555
Mo9 O15 2.465258 1_555
Mo10 O39 1.736538 1_555
Mo10 O34 1.821909 1_555
Mo10 O11 1.909241 1_555
Mo10 O15 1.938735 1_555
Mo10 O2 2.190049 1_555
Mo10 O32 2.452323 1_555
Mo11 O38 1.736538 1_545
Mo11 O35 1.821909 1_555
Mo11 O10 1.909241 1_555
Mo11 O14 1.938735 1_545
Mo11 O3 2.190049 1_545
Mo11 O33 2.452323 1_545
