# generated using pymatgen
data_Mg2Si3
_symmetry_space_group_name_H-M   'P 1'
_cell_length_a   3.68475300
_cell_length_b   5.29275437
_cell_length_c   20.07281631
_cell_angle_alpha   88.30449142
_cell_angle_beta   86.26081556
_cell_angle_gamma   89.30322169
_symmetry_Int_Tables_number   1
_chemical_formula_structural   Mg2Si3
_chemical_formula_sum   'Mg8 Si12'
_cell_volume   390.44503967
_cell_formula_units_Z   4
loop_
 _symmetry_equiv_pos_site_id
 _symmetry_equiv_pos_as_xyz
  1  'x, y, z'
loop_
 _atom_site_type_symbol
 _atom_site_label
 _atom_site_symmetry_multiplicity
 _atom_site_fract_x
 _atom_site_fract_y
 _atom_site_fract_z
 _atom_site_occupancy
  Mg  Mg0  1  0.73650800  0.05636500  0.21810300  1
  Mg  Mg1  1  0.44053200  0.84269900  0.78530500  1
  Mg  Mg2  1  0.29436600  0.83423700  0.07550400  1
  Mg  Mg3  1  0.90536600  0.05835200  0.92934600  1
  Mg  Mg4  1  0.96152300  0.38251000  0.72506400  1
  Mg  Mg5  1  0.20987400  0.55294700  0.28112200  1
  Mg  Mg6  1  0.07413000  0.51763200  0.56705800  1
  Mg  Mg7  1  0.65223200  0.77028900  0.42539500  1
  Si  Si0  1  0.35092900  0.32013500  0.01505200  1
  Si  Si1  1  0.85727300  0.57858100  0.98514900  1
  Si  Si2  1  0.26481200  0.32717100  0.13594100  1
  Si  Si3  1  0.92073600  0.56044900  0.86247200  1
  Si  Si4  1  0.03606500  0.99829100  0.63838600  1
  Si  Si5  1  0.19467500  0.02472100  0.32918800  1
  Si  Si6  1  0.09846200  0.02302500  0.51741300  1
  Si  Si7  1  0.60651400  0.27598900  0.48343500  1
  Si  Si8  1  0.53319000  0.72020300  0.65766700  1
  Si  Si9  1  0.68093200  0.28153100  0.36218700  1
  Si  Si10  1  0.74891000  0.58124500  0.17076100  1
  Si  Si11  1  0.43276100  0.29360800  0.83543400  1
loop_
_geom_bond_atom_site_label_1
_geom_bond_atom_site_label_2
_geom_bond_distance
_geom_bond_site_symmetry_2
Mg0 Si10 2.713258 1_545
Mg0 Si2 2.822879 1_555
Mg0 Si2 2.841315 1_655
Mg0 Si5 2.883080 1_655
Mg0 Si5 2.896807 1_555
Mg0 Si10 2.909288 1_555
Mg0 Si9 3.153987 1_555
Mg1 Si11 2.616415 1_565
Mg1 Si8 2.660800 1_555
Mg1 Si3 2.800912 1_455
Mg1 Si3 2.813912 1_555
Mg1 Si11 3.047057 1_555
Mg2 Si0 2.815156 1_565
Mg2 Si1 2.879856 1_454
Mg2 Si2 2.907489 1_565
Mg2 Si10 2.909622 1_555
Mg2 Si2 2.912634 1_555
Mg2 Si10 2.983506 1_455
Mg2 Si1 3.001479 1_554
Mg2 Si0 3.011381 1_555
Mg3 Si1 2.747893 1_545
Mg3 Si0 2.853007 1_656
Mg3 Si11 2.884886 1_655
Mg3 Si11 2.893621 1_555
Mg3 Si3 2.941078 1_555
Mg3 Si0 2.943959 1_556
Mg3 Si3 2.990918 1_545
Mg3 Si1 3.002047 1_555
Mg4 Si4 2.715048 1_645
Mg4 Si8 2.753646 1_555
Mg4 Si11 2.885009 1_555
Mg4 Si11 2.926572 1_655
Mg4 Si3 2.934831 1_555
Mg4 Si8 3.006438 1_655
Mg5 Si5 2.702047 1_565
Mg5 Si9 2.809557 1_555
Mg5 Si9 2.833061 1_455
Mg5 Si10 2.877459 1_455
Mg5 Si10 2.878985 1_555
Mg5 Si5 2.930441 1_555
Mg5 Si2 3.175643 1_555
Mg6 Si8 2.807044 1_555
Mg6 Si7 2.817459 1_555
Mg6 Si7 2.824894 1_455
Mg6 Si6 2.826861 1_555
Mg6 Si6 2.827141 1_565
Mg6 Si8 2.832141 1_455
Mg6 Si4 2.953345 1_555
Mg6 Si4 3.061941 1_545
Mg7 Si7 2.834602 1_555
Mg7 Si9 2.912548 1_555
Mg7 Si6 2.915538 1_665
Mg7 Si5 2.932725 1_565
Mg7 Si7 2.949156 1_565
Mg7 Si9 2.954492 1_565
Mg7 Si5 2.990983 1_665
Mg7 Si6 2.992139 1_565
Si0 Si1 2.360821 1_454
Si0 Si1 2.362173 1_554
Si0 Si2 2.427964 1_555
Si1 Si3 2.462925 1_555
Si4 Si8 2.380073 1_555
Si4 Si8 2.385104 1_455
Si4 Si6 2.423962 1_565
Si5 Si9 2.386823 1_455
Si5 Si9 2.400810 1_555
Si6 Si7 2.364710 1_455
Si6 Si7 2.367004 1_555
Si7 Si9 2.430701 1_555
Si10 Si2 2.393890 1_655
Si10 Si2 2.399024 1_555
Si11 Si3 2.386586 1_455
Si11 Si3 2.399305 1_555
