# generated using pymatgen
data_Mn2Bi3O7
_symmetry_space_group_name_H-M   'P 1'
_cell_length_a   10.69191743
_cell_length_b   10.69191743
_cell_length_c   5.80217000
_cell_angle_alpha   90.00000000
_cell_angle_beta   90.00000000
_cell_angle_gamma   148.33993627
_symmetry_Int_Tables_number   1
_chemical_formula_structural   Mn2Bi3O7
_chemical_formula_sum   'Mn4 Bi6 O14'
_cell_volume   348.14520488
_cell_formula_units_Z   2
loop_
 _symmetry_equiv_pos_site_id
 _symmetry_equiv_pos_as_xyz
  1  'x, y, z'
loop_
 _atom_site_type_symbol
 _atom_site_label
 _atom_site_symmetry_multiplicity
 _atom_site_fract_x
 _atom_site_fract_y
 _atom_site_fract_z
 _atom_site_occupancy
  Mn  Mn0  1  0.15685600  0.36843100  0.99186500  1
  Mn  Mn1  1  0.36843100  0.15685600  0.99186500  1
  Mn  Mn2  1  0.84314400  0.63156900  0.49186500  1
  Mn  Mn3  1  0.63156900  0.84314400  0.49186500  1
  Bi  Bi0  1  0.16065500  0.16065500  0.58336100  1
  Bi  Bi1  1  0.83934500  0.83934500  0.08336100  1
  Bi  Bi2  1  0.58743300  0.95724000  0.96779000  1
  Bi  Bi3  1  0.95724000  0.58743300  0.96779000  1
  Bi  Bi4  1  0.41256700  0.04276000  0.46779000  1
  Bi  Bi5  1  0.04276000  0.41256700  0.46779000  1
  O  O0  1  0.78847500  0.78847500  0.46814600  1
  O  O1  1  0.21152500  0.21152500  0.96814600  1
  O  O2  1  0.63110400  0.05874900  0.57026200  1
  O  O3  1  0.05874900  0.63110400  0.57026200  1
  O  O4  1  0.36889600  0.94125100  0.07026200  1
  O  O5  1  0.94125100  0.36889600  0.07026200  1
  O  O6  1  0.37904700  0.62407000  0.74582600  1
  O  O7  1  0.62407000  0.37904700  0.74582600  1
  O  O8  1  0.62095300  0.37593000  0.24582600  1
  O  O9  1  0.37593000  0.62095300  0.24582600  1
  O  O10  1  0.92717000  0.11811800  0.71350400  1
  O  O11  1  0.11811800  0.92717000  0.71350400  1
  O  O12  1  0.07283000  0.88188200  0.21350400  1
  O  O13  1  0.88188200  0.07283000  0.21350400  1
loop_
_geom_bond_atom_site_label_1
_geom_bond_atom_site_label_2
_geom_bond_distance
_geom_bond_site_symmetry_2
Mn0 O6 2.024481 1_555
Mn0 O9 2.044877 1_556
Mn0 O13 2.113793 1_456
Mn0 O10 2.147894 1_455
Mn0 O1 2.200990 1_555
Mn0 O5 2.353834 1_456
Mn1 O7 2.024481 1_555
Mn1 O8 2.044877 1_556
Mn1 O12 2.113793 1_546
Mn1 O11 2.147894 1_545
Mn1 O1 2.200990 1_555
Mn1 O4 2.353834 1_546
Mn2 O8 2.024481 1_555
Mn2 O7 2.044877 1_555
Mn2 O11 2.113793 1_655
Mn2 O12 2.147894 1_655
Mn2 O0 2.200990 1_555
Mn2 O3 2.353834 1_655
Mn3 O9 2.024481 1_555
Mn3 O6 2.044877 1_555
Mn3 O10 2.113793 1_565
Mn3 O13 2.147894 1_565
Mn3 O0 2.200990 1_555
Mn3 O2 2.353834 1_565
Bi0 O1 2.252221 1_555
Bi0 O10 2.253056 1_455
Bi0 O11 2.253056 1_545
Bi0 O0 2.271585 1_445
Bi1 O0 2.252221 1_555
Bi1 O12 2.253056 1_655
Bi1 O13 2.253056 1_565
Bi1 O1 2.271585 1_664
Bi2 O4 2.272077 1_556
Bi2 O5 2.385760 1_566
Bi2 O6 2.408528 1_555
Bi2 O2 2.419362 1_565
Bi2 O9 2.608182 1_556
Bi2 O13 2.616811 1_566
Bi2 O10 2.773740 1_565
Bi3 O5 2.272077 1_556
Bi3 O4 2.385760 1_656
Bi3 O7 2.408528 1_555
Bi3 O3 2.419362 1_655
Bi3 O8 2.608182 1_556
Bi3 O12 2.616811 1_656
Bi3 O11 2.773740 1_655
Bi4 O2 2.272077 1_555
Bi4 O3 2.385760 1_545
Bi4 O8 2.408528 1_555
Bi4 O4 2.419362 1_545
Bi4 O7 2.608182 1_555
Bi4 O11 2.616811 1_545
Bi4 O12 2.773740 1_545
Bi5 O3 2.272077 1_555
Bi5 O2 2.385760 1_455
Bi5 O9 2.408528 1_555
Bi5 O5 2.419362 1_455
Bi5 O6 2.608182 1_555
Bi5 O10 2.616811 1_455
Bi5 O13 2.773740 1_455
