# generated using pymatgen
data_Tb4(Al8Pd3)3
_symmetry_space_group_name_H-M   'P 1'
_cell_length_a   7.50681152
_cell_length_b   7.50680370
_cell_length_c   13.11511369
_cell_angle_alpha   84.55739836
_cell_angle_beta   100.94309514
_cell_angle_gamma   119.85196365
_symmetry_Int_Tables_number   1
_chemical_formula_structural   Tb4(Al8Pd3)3
_chemical_formula_sum   'Tb4 Al24 Pd9'
_cell_volume   629.34579195
_cell_formula_units_Z   1
loop_
 _symmetry_equiv_pos_site_id
 _symmetry_equiv_pos_as_xyz
  1  'x, y, z'
loop_
 _atom_site_type_symbol
 _atom_site_label
 _atom_site_symmetry_multiplicity
 _atom_site_fract_x
 _atom_site_fract_y
 _atom_site_fract_z
 _atom_site_occupancy
  Tb  Tb0  1  0.43804144  0.83178755  0.80852814  1
  Tb  Tb1  1  0.56195856  0.16821245  0.19147186  1
  Tb  Tb2  1  0.76831641  0.50188171  0.80853017  1
  Tb  Tb3  1  0.23168359  0.49811829  0.19146983  1
  Al  Al0  1  0.48144065  0.16638744  0.94527775  1
  Al  Al1  1  0.51855935  0.83361256  0.05472225  1
  Al  Al2  1  0.02084948  0.16686323  0.56131694  1
  Al  Al3  1  0.97915052  0.83313677  0.43868306  1
  Al  Al4  1  0.35365791  0.83328463  0.55963351  1
  Al  Al5  1  0.64634209  0.16671537  0.44036649  1
  Al  Al6  1  0.61810113  0.83473345  0.33032799  1
  Al  Al7  1  0.38189887  0.16526655  0.66967201  1
  Al  Al8  1  0.05602539  0.49252464  0.66983089  1
  Al  Al9  1  0.94397461  0.50747536  0.33016911  1
  Al  Al10  1  0.73119873  0.84088379  0.66843863  1
  Al  Al11  1  0.26880127  0.15911621  0.33156137  1
  Al  Al12  1  0.14814929  0.49940200  0.94529954  1
  Al  Al13  1  0.85185071  0.50059800  0.05470046  1
  Al  Al14  1  0.81868430  0.83336001  0.95597688  1
  Al  Al15  1  0.18131570  0.16663999  0.04402312  1
  Al  Al16  1  0.31339100  0.50036664  0.44043846  1
  Al  Al17  1  0.68660900  0.49963336  0.55956154  1
  Al  Al18  1  0.10191746  0.83616887  0.18377806  1
  Al  Al19  1  0.89808254  0.16383113  0.81622194  1
  Al  Al20  1  0.30717273  0.36882874  0.81466669  1
  Al  Al21  1  0.69282727  0.63117126  0.18533331  1
  Al  Al22  1  0.10299175  0.95908070  0.81615331  1
  Al  Al23  1  0.89700825  0.04091930  0.18384669  1
  Pd  Pd0  1  0.38698442  0.50714039  0.63786997  1
  Pd  Pd1  1  0.61301558  0.49285961  0.36213003  1
  Pd  Pd2  1  0.17183008  0.82817951  0.00005090  1
  Pd  Pd3  1  0.82816992  0.17182049  -0.00005090  1
  Pd  Pd4  1  0.29472387  0.83323991  0.36208003  1
  Pd  Pd5  1  0.70527613  0.16676009  0.63791997  1
  Pd  Pd6  1  0.04639599  0.82540311  0.63760394  1
  Pd  Pd7  1  0.95360401  0.17459689  0.36239606  1
  Pd  Pd8  1  0.50000000  0.50000000  -0.00000000  1
loop_
_geom_bond_atom_site_label_1
_geom_bond_atom_site_label_2
_geom_bond_distance
_geom_bond_site_symmetry_2
Al0 Pd3 2.545940 1_556
Al0 Pd8 2.600378 1_556
Al0 Pd2 2.603317 1_546
Al0 Al15 2.804566 1_556
Al0 Tb2 3.067110 1_555
Al0 Tb0 3.074056 1_545
Al0 Tb1 3.170215 1_556
Al1 Pd2 2.545940 1_555
Al1 Pd8 2.600378 1_555
Al1 Pd3 2.603317 1_565
Al1 Al14 2.804566 1_554
Al1 Tb3 3.067110 1_555
Al1 Tb1 3.074056 1_565
Al1 Tb0 3.170215 1_554
Al2 Pd7 2.562193 1_455
Al2 Pd5 2.742789 1_455
Al2 Pd0 2.745307 1_555
Al2 Pd6 2.745578 1_545
Al3 Pd6 2.562193 1_655
Al3 Pd4 2.742789 1_655
Al3 Pd1 2.745307 1_555
Al3 Pd7 2.745578 1_565
Al4 Pd4 2.544307 1_555
Al4 Pd6 2.667879 1_555
Al4 Pd0 2.673080 1_555
Al4 Pd5 2.677423 1_565
Al4 Tb0 3.204994 1_555
Al5 Pd5 2.544307 1_555
Al5 Pd7 2.667879 1_555
Al5 Pd1 2.673080 1_555
Al5 Pd4 2.677423 1_545
Al5 Tb1 3.204994 1_555
Al6 Pd4 2.534222 1_555
Al6 Pd7 2.536470 1_565
Al6 Pd1 2.543065 1_555
Al6 Tb1 3.107251 1_565
Al6 Tb3 3.112296 1_555
Al7 Pd5 2.534222 1_555
Al7 Pd6 2.536470 1_545
Al7 Pd0 2.543065 1_555
Al7 Tb0 3.107251 1_545
Al7 Tb2 3.112296 1_555
Al8 Pd6 2.529033 1_555
Al8 Pd5 2.540439 1_455
Al8 Pd0 2.544704 1_555
Al8 Tb2 3.105709 1_455
Al8 Tb0 3.105852 1_555
Al9 Pd7 2.529033 1_555
Al9 Pd4 2.540439 1_655
Al9 Pd1 2.544704 1_555
Al9 Tb3 3.105709 1_655
Al9 Tb1 3.105852 1_555
Al10 Pd6 2.534076 1_655
Al10 Pd5 2.537912 1_565
Al10 Pd0 2.542994 1_555
Al10 Tb2 3.090965 1_555
Al10 Tb0 3.095962 1_555
Al11 Pd7 2.534076 1_455
Al11 Pd4 2.537912 1_545
Al11 Pd1 2.542994 1_555
Al11 Tb3 3.090965 1_555
Al11 Tb1 3.095962 1_555
Al12 Pd2 2.547457 1_556
Al12 Pd8 2.600081 1_556
Al12 Pd3 2.601829 1_456
Al12 Al15 2.803843 1_556
Al12 Tb0 3.067014 1_555
Al12 Tb2 3.074515 1_455
Al12 Tb3 3.169908 1_556
Al13 Pd3 2.547457 1_555
Al13 Pd8 2.600081 1_555
Al13 Pd2 2.601829 1_655
Al13 Al14 2.803843 1_554
Al13 Tb1 3.067014 1_555
Al13 Tb3 3.074515 1_655
Al13 Tb2 3.169908 1_554
Al14 Pd8 2.570855 1_556
Al14 Pd3 2.622089 1_566
Al14 Pd2 2.622977 1_656
Al14 Al15 2.752751 1_666
Al14 Al19 2.819446 1_565
Al14 Al22 2.821515 1_655
Al14 Tb2 3.126162 1_555
Al14 Tb0 3.126882 1_555
Al15 Pd8 2.570855 1_555
Al15 Pd2 2.622089 1_545
Al15 Pd3 2.622977 1_455
Al15 Al18 2.819446 1_545
Al15 Al23 2.821515 1_455
Al15 Tb3 3.126162 1_555
Al15 Tb1 3.126882 1_555
Al16 Pd0 2.542903 1_555
Al16 Pd4 2.669572 1_555
Al16 Pd1 2.670425 1_555
Al16 Pd7 2.678168 1_455
Al16 Tb3 3.205951 1_555
Al17 Pd1 2.542903 1_555
Al17 Pd5 2.669572 1_555
Al17 Pd0 2.670425 1_555
Al17 Pd6 2.678168 1_655
Al17 Tb2 3.205951 1_555
Al18 Pd4 2.510099 1_555
Al18 Pd2 2.573733 1_555
Al18 Tb1 3.081458 1_565
Al18 Tb3 3.126341 1_555
Al19 Pd5 2.510099 1_555
Al19 Pd3 2.573733 1_556
Al19 Tb0 3.081458 1_545
Al19 Tb2 3.126341 1_555
Al20 Pd0 2.502971 1_555
Al20 Pd8 2.583075 1_556
Al20 Tb0 3.102844 1_555
Al20 Tb2 3.104194 1_555
Al21 Pd1 2.502971 1_555
Al21 Pd8 2.583075 1_555
Al21 Tb1 3.102844 1_555
Al21 Tb3 3.104194 1_555
Al22 Pd6 2.512896 1_555
Al22 Pd2 2.575333 1_556
Al22 Tb2 3.080084 1_455
Al22 Tb0 3.123358 1_555
Al23 Pd7 2.512896 1_555
Al23 Pd3 2.575333 1_555
Al23 Tb3 3.080084 1_655
Al23 Tb1 3.123358 1_555
Pd0 Tb2 3.296784 1_555
Pd0 Tb0 3.297706 1_555
Pd1 Tb3 3.296784 1_555
Pd1 Tb1 3.297706 1_555
Pd2 Tb0 3.484638 1_554
Pd2 Tb3 3.484748 1_555
Pd2 Tb2 3.518023 1_454
Pd2 Tb1 3.518126 1_565
Pd3 Tb1 3.484638 1_555
Pd3 Tb2 3.484748 1_554
Pd3 Tb3 3.518023 1_655
Pd3 Tb0 3.518126 1_544
Pd4 Tb1 3.311962 1_565
Pd4 Tb3 3.322649 1_555
Pd5 Tb0 3.311962 1_545
Pd5 Tb2 3.322649 1_555
Pd6 Tb2 3.313305 1_455
Pd6 Tb0 3.324003 1_555
Pd7 Tb3 3.313305 1_655
Pd7 Tb1 3.324003 1_555
Pd8 Tb2 3.499766 1_554
Pd8 Tb3 3.499766 1_555
Pd8 Tb1 3.499869 1_555
Pd8 Tb0 3.499869 1_554
