# generated using pymatgen
data_Cs2Hg2H2I4Br2O
_symmetry_space_group_name_H-M   'P 1'
_cell_length_a   7.82912800
_cell_length_b   14.02451100
_cell_length_c   9.14384208
_cell_angle_alpha   90.00000000
_cell_angle_beta   93.01692463
_cell_angle_gamma   90.00000000
_symmetry_Int_Tables_number   1
_chemical_formula_structural   Cs2Hg2H2I4Br2O
_chemical_formula_sum   'Cs4 Hg4 H4 I8 Br4 O2'
_cell_volume   1002.59954158
_cell_formula_units_Z   2
loop_
 _symmetry_equiv_pos_site_id
 _symmetry_equiv_pos_as_xyz
  1  'x, y, z'
loop_
 _atom_site_type_symbol
 _atom_site_label
 _atom_site_symmetry_multiplicity
 _atom_site_fract_x
 _atom_site_fract_y
 _atom_site_fract_z
 _atom_site_occupancy
  Cs  Cs0  1  0.36093100  0.19856100  0.68340300  1
  Cs  Cs1  1  0.36093100  0.80143900  0.18340300  1
  Cs  Cs2  1  0.91123500  0.32414200  0.05485500  1
  Cs  Cs3  1  0.91123500  0.67585800  0.55485500  1
  Hg  Hg0  1  0.81166800  0.07097000  0.40895200  1
  Hg  Hg1  1  0.81166800  0.92903000  0.90895200  1
  Hg  Hg2  1  0.81746400  0.35583700  0.54792500  1
  Hg  Hg3  1  0.81746400  0.64416300  0.04792500  1
  H  H0  1  0.37508400  0.37289600  0.01138500  1
  H  H1  1  0.37508400  0.62710400  0.51138500  1
  H  H2  1  0.38527400  0.27897900  0.10006500  1
  H  H3  1  0.38527400  0.72102100  0.60006500  1
  I  I0  1  0.58152300  0.95667200  0.53182000  1
  I  I1  1  0.58152300  0.04332800  0.03182000  1
  I  I2  1  0.11311800  0.09541000  0.28412900  1
  I  I3  1  0.11311800  0.90459000  0.78412900  1
  I  I4  1  0.59751100  0.45999400  0.71325000  1
  I  I5  1  0.59751100  0.54000600  0.21325000  1
  I  I6  1  0.11086800  0.42006400  0.42722000  1
  I  I7  1  0.11086800  0.57993600  0.92722000  1
  Br  Br0  1  0.61751600  0.24404100  0.34359100  1
  Br  Br1  1  0.61751600  0.75595900  0.84359100  1
  Br  Br2  1  0.89054600  0.18904500  0.70913000  1
  Br  Br3  1  0.89054600  0.81095500  0.20913000  1
  O  O0  1  0.33259200  0.30754300  0.01077500  1
  O  O1  1  0.33259200  0.69245700  0.51077500  1
loop_
_geom_bond_atom_site_label_1
_geom_bond_atom_site_label_2
_geom_bond_distance
_geom_bond_site_symmetry_2
Cs0 O0 3.378738 1_556
Cs0 I0 4.082156 1_545
Cs0 I4 4.110350 1_555
Cs0 I1 4.158473 1_556
Cs0 I2 4.294234 1_555
Cs0 I6 4.299721 1_555
Cs1 O1 3.378738 1_555
Cs1 I1 4.082156 1_565
Cs1 I5 4.110350 1_555
Cs1 I0 4.158473 1_555
Cs1 I3 4.294234 1_554
Cs1 I7 4.299721 1_554
Cs2 O0 3.352473 1_655
Cs2 I6 3.909650 1_655
Cs2 I2 4.103025 1_655
Cs2 I7 4.106851 1_654
Cs2 I5 4.203577 1_555
Cs2 I4 4.314167 1_554
Cs3 O1 3.352473 1_655
Cs3 I7 3.909650 1_655
Cs3 I3 4.103025 1_655
Cs3 I6 4.106851 1_655
Cs3 I4 4.203577 1_555
Cs3 I5 4.314167 1_555
Hg0 I2 2.696992 1_655
Hg0 I0 2.700266 1_545
Hg1 I3 2.696992 1_655
Hg1 I1 2.700266 1_566
Hg2 I6 2.751918 1_655
Hg2 I4 2.767398 1_555
Hg3 I7 2.751918 1_654
Hg3 I5 2.767398 1_555
H0 O0 0.974967 1_555
H1 O1 0.974967 1_555
H2 O0 0.980686 1_555
H3 O1 0.980686 1_555
Br0 Hg2 2.844615 1_555
Br0 Hg0 2.909220 1_555
Br0 Cs2 3.762906 1_555
Br0 Cs0 3.841080 1_555
Br1 Hg3 2.844615 1_556
Br1 Hg1 2.909220 1_555
Br1 Cs3 3.762906 1_555
Br1 Cs1 3.841080 1_556
Br2 Hg2 2.807689 1_555
Br2 Hg0 3.237115 1_555
Br2 Cs2 3.681799 1_556
Br2 Cs0 3.704950 1_655
Br2 Cs0 4.142862 1_555
Br3 Hg3 2.807689 1_555
Br3 Hg1 3.237115 1_554
Br3 Cs3 3.681799 1_555
Br3 Cs1 3.704950 1_655
Br3 Cs1 4.142862 1_555
