# generated using pymatgen
data_CaLaGaCuO5
_symmetry_space_group_name_H-M   'P 1'
_cell_length_a   8.94948348
_cell_length_b   8.94948348
_cell_length_c   5.30711110
_cell_angle_alpha   72.69743403
_cell_angle_beta   72.69743403
_cell_angle_gamma   128.85261605
_symmetry_Int_Tables_number   1
_chemical_formula_structural   CaLaGaCuO5
_chemical_formula_sum   'Ca2 La2 Ga2 Cu2 O10'
_cell_volume   239.91612313
_cell_formula_units_Z   2
loop_
 _symmetry_equiv_pos_site_id
 _symmetry_equiv_pos_as_xyz
  1  'x, y, z'
loop_
 _atom_site_type_symbol
 _atom_site_label
 _atom_site_symmetry_multiplicity
 _atom_site_fract_x
 _atom_site_fract_y
 _atom_site_fract_z
 _atom_site_occupancy
  Ca  Ca0  1  0.86348000  0.58325900  0.03533900  1
  Ca  Ca1  1  0.58325900  0.86348000  0.03533900  1
  La  La0  1  0.12749000  0.42173700  0.97890600  1
  La  La1  1  0.42173700  0.12749000  0.97890600  1
  Ga  Ga0  1  0.81252400  0.81252400  0.48296700  1
  Ga  Ga1  1  0.18618400  0.18618400  0.60189900  1
  Cu  Cu0  1  0.99947000  0.50061100  0.49916100  1
  Cu  Cu1  1  0.50061100  0.99947000  0.49916100  1
  O  O0  1  0.77914700  0.57976200  0.53278400  1
  O  O1  1  0.22618200  0.42579500  0.39046400  1
  O  O2  1  0.42579500  0.22618200  0.39046400  1
  O  O3  1  0.57976200  0.77914700  0.53278400  1
  O  O4  1  0.76063400  0.24055200  0.99790000  1
  O  O5  1  0.23622800  0.75543400  0.50678100  1
  O  O6  1  0.75543400  0.23622800  0.50678100  1
  O  O7  1  0.24055200  0.76063400  0.99790000  1
  O  O8  1  0.13074400  0.13074400  0.02097600  1
  O  O9  1  0.87076900  0.87076900  0.78148900  1
loop_
_geom_bond_atom_site_label_1
_geom_bond_atom_site_label_2
_geom_bond_distance
_geom_bond_site_symmetry_2
Ca0 O2 2.329949 1_555
Ca0 O9 2.472865 1_554
Ca0 O0 2.505233 1_555
Ca0 O7 2.576794 1_654
Ca0 O5 2.604765 1_654
Ca0 O6 2.647927 1_555
Ca0 O4 2.687549 1_554
Ca0 O0 2.983540 1_554
Ca1 O1 2.329949 1_555
Ca1 O9 2.472865 1_554
Ca1 O3 2.505233 1_555
Ca1 O4 2.576794 1_564
Ca1 O6 2.604765 1_564
Ca1 O5 2.647927 1_555
Ca1 O7 2.687549 1_554
Ca1 O3 2.983540 1_554
La0 O3 2.402336 1_555
La0 O6 2.537838 1_456
La0 O4 2.538753 1_455
La0 O8 2.566301 1_556
La0 O5 2.568289 1_555
La0 O7 2.573906 1_555
La0 O1 2.589705 1_556
La0 O1 2.964062 1_555
La1 O0 2.402336 1_555
La1 O5 2.537838 1_546
La1 O7 2.538753 1_545
La1 O8 2.566301 1_556
La1 O6 2.568289 1_555
La1 O4 2.573906 1_555
La1 O2 2.589705 1_556
La1 O2 2.964062 1_555
Ga0 O0 1.828434 1_555
Ga0 O3 1.828434 1_555
Ga0 O9 1.922229 1_555
Ga0 O8 1.936444 1_665
Ga1 O2 1.830948 1_555
Ga1 O1 1.830948 1_555
Ga1 O9 1.909682 1_445
Ga1 O8 1.953779 1_556
Cu0 O4 1.928792 1_555
Cu0 O5 1.932690 1_655
Cu0 O7 1.936863 1_654
Cu0 O6 1.943456 1_555
Cu0 O0 2.457602 1_555
Cu0 O1 2.477042 1_655
Cu1 O7 1.928792 1_555
Cu1 O6 1.932690 1_565
Cu1 O4 1.936863 1_564
Cu1 O5 1.943456 1_555
Cu1 O3 2.457602 1_555
Cu1 O2 2.477042 1_565
