# generated using pymatgen
data_BaCaMn4O8
_symmetry_space_group_name_H-M   'P 1'
_cell_length_a   5.59210253
_cell_length_b   5.59210253
_cell_length_c   7.69329300
_cell_angle_alpha   90.00000000
_cell_angle_beta   90.00000000
_cell_angle_gamma   120.00000622
_symmetry_Int_Tables_number   1
_chemical_formula_structural   BaCaMn4O8
_chemical_formula_sum   'Ba1 Ca1 Mn4 O8'
_cell_volume   208.34981913
_cell_formula_units_Z   1
loop_
 _symmetry_equiv_pos_site_id
 _symmetry_equiv_pos_as_xyz
  1  'x, y, z'
loop_
 _atom_site_type_symbol
 _atom_site_label
 _atom_site_symmetry_multiplicity
 _atom_site_fract_x
 _atom_site_fract_y
 _atom_site_fract_z
 _atom_site_occupancy
  Ba  Ba0  1  0.00000000  0.00000000  0.00000000  1
  Ca  Ca0  1  0.00000000  0.00000000  0.50000000  1
  Mn  Mn0  1  0.33333300  0.66666700  0.75594600  1
  Mn  Mn1  1  0.66666700  0.33333300  0.75594600  1
  Mn  Mn2  1  0.33333300  0.66666700  0.24405400  1
  Mn  Mn3  1  0.66666700  0.33333300  0.24405400  1
  O  O0  1  0.32482200  0.32482200  0.70059600  1
  O  O1  1  0.67517800  0.00000000  0.70059600  1
  O  O2  1  0.00000000  0.67517800  0.70059600  1
  O  O3  1  0.67517800  0.67517800  0.29940400  1
  O  O4  1  0.00000000  0.32482200  0.29940400  1
  O  O5  1  0.32482200  0.00000000  0.29940400  1
  O  O6  1  0.33333300  0.66666700  0.00000000  1
  O  O7  1  0.66666700  0.33333300  0.00000000  1
loop_
_geom_bond_atom_site_label_1
_geom_bond_atom_site_label_2
_geom_bond_distance
_geom_bond_site_symmetry_2
Ba0 O0 2.933447 1_554
Ba0 O3 2.933447 1_445
Ba0 O5 2.933447 1_555
Ba0 O1 2.933447 1_454
Ba0 O2 2.933447 1_544
Ba0 O4 2.933447 1_555
Ba0 O7 3.228599 1_455
Ba0 O6 3.228599 1_545
Ba0 O7 3.228603 1_445
Ba0 O6 3.228603 1_555
Ba0 O6 3.228603 1_445
Ba0 O7 3.228603 1_555
Ca0 O0 2.383495 1_555
Ca0 O3 2.383495 1_445
Ca0 O2 2.383495 1_545
Ca0 O1 2.383495 1_455
Ca0 O4 2.383495 1_555
Ca0 O5 2.383495 1_555
Mn0 O6 1.877579 1_556
Mn0 O2 1.935698 1_555
Mn0 O1 1.935700 1_565
Mn0 O0 1.935703 1_555
Mn1 O7 1.877579 1_556
Mn1 O1 1.935698 1_555
Mn1 O2 1.935700 1_655
Mn1 O0 1.935703 1_555
Mn2 O6 1.877579 1_555
Mn2 O5 1.935698 1_565
Mn2 O4 1.935700 1_555
Mn2 O3 1.935703 1_555
Mn3 O7 1.877579 1_555
Mn3 O4 1.935698 1_655
Mn3 O5 1.935700 1_555
Mn3 O3 1.935703 1_555
