# generated using pymatgen
data_Ba2NdGaSe5
_symmetry_space_group_name_H-M   'P 1'
_cell_length_a   7.43830200
_cell_length_b   8.94167080
_cell_length_c   9.65041310
_cell_angle_alpha   103.78905077
_cell_angle_beta   102.89852087
_cell_angle_gamma   107.66866202
_symmetry_Int_Tables_number   1
_chemical_formula_structural   Ba2NdGaSe5
_chemical_formula_sum   'Ba4 Nd2 Ga2 Se10'
_cell_volume   562.84123747
_cell_formula_units_Z   2
loop_
 _symmetry_equiv_pos_site_id
 _symmetry_equiv_pos_as_xyz
  1  'x, y, z'
loop_
 _atom_site_type_symbol
 _atom_site_label
 _atom_site_symmetry_multiplicity
 _atom_site_fract_x
 _atom_site_fract_y
 _atom_site_fract_z
 _atom_site_occupancy
  Ba  Ba0  1  0.63504800  0.97863000  0.29474700  1
  Ba  Ba1  1  0.36495200  0.02137000  0.70525300  1
  Ba  Ba2  1  0.33834400  0.50867400  0.70400400  1
  Ba  Ba3  1  0.66165600  0.49132600  0.29599600  1
  Nd  Nd0  1  0.99704000  0.73151100  0.99717700  1
  Nd  Nd1  1  0.00296000  0.26848900  0.00282300  1
  Ga  Ga0  1  0.80371600  0.87070200  0.68635800  1
  Ga  Ga1  1  0.19628400  0.12929800  0.31364200  1
  Se  Se0  1  0.98820100  0.68689300  0.67881700  1
  Se  Se1  1  0.01179900  0.31310700  0.32118300  1
  Se  Se2  1  0.98181700  0.14707700  0.68317500  1
  Se  Se3  1  0.01818300  0.85292300  0.31682500  1
  Se  Se4  1  0.70399800  0.90472900  0.92014200  1
  Se  Se5  1  0.29600200  0.09527100  0.07985800  1
  Se  Se6  1  0.69812200  0.40822600  0.94467200  1
  Se  Se7  1  0.30187800  0.59177400  0.05532800  1
  Se  Se8  1  0.48821600  0.73946500  0.49180200  1
  Se  Se9  1  0.51178400  0.26053500  0.50819800  1
loop_
_geom_bond_atom_site_label_1
_geom_bond_atom_site_label_2
_geom_bond_distance
_geom_bond_site_symmetry_2
Ba0 Se8 3.290984 1_555
Ba0 Se1 3.330566 1_665
Ba0 Se9 3.347938 1_565
Ba0 Se3 3.349359 1_655
Ba0 Se7 3.446105 1_555
Ba0 Se5 3.470042 1_565
Ba0 Se2 3.688718 1_565
Ba0 Se4 3.696391 1_554
Ba1 Se9 3.290984 1_555
Ba1 Se0 3.330566 1_445
Ba1 Se8 3.347938 1_545
Ba1 Se2 3.349359 1_455
Ba1 Se6 3.446105 1_555
Ba1 Se4 3.470042 1_545
Ba1 Se3 3.688718 1_545
Ba1 Se5 3.696391 1_556
Ba2 Se9 3.314402 1_555
Ba2 Se8 3.366353 1_555
Ba2 Se7 3.384177 1_556
Ba2 Se2 3.431420 1_455
Ba2 Se0 3.435585 1_455
Ba2 Se4 3.519776 1_555
Ba2 Se1 3.597500 1_555
Ba2 Se6 3.611264 1_555
Ba3 Se8 3.314402 1_555
Ba3 Se9 3.366353 1_555
Ba3 Se6 3.384177 1_554
Ba3 Se3 3.431420 1_655
Ba3 Se1 3.435585 1_655
Ba3 Se5 3.519776 1_555
Ba3 Se0 3.597500 1_555
Ba3 Se7 3.611264 1_555
Nd0 Se6 2.907559 1_555
Nd0 Se7 2.916084 1_656
Nd0 Se3 2.966866 1_656
Nd0 Se0 2.985323 1_555
Nd0 Se4 3.094785 1_555
Nd0 Se5 3.121118 1_666
Nd1 Se7 2.907559 1_555
Nd1 Se6 2.916084 1_454
Nd1 Se2 2.966866 1_454
Nd1 Se1 2.985323 1_555
Nd1 Se5 3.094785 1_555
Nd1 Se4 3.121118 1_444
Ga0 Se8 2.391759 1_555
Ga0 Se2 2.435181 1_565
Ga0 Se0 2.438505 1_555
Ga0 Se4 2.507918 1_555
Ga1 Se9 2.391759 1_555
Ga1 Se3 2.435181 1_545
Ga1 Se1 2.438505 1_555
Ga1 Se5 2.507918 1_555
