# generated using pymatgen
data_Na3VIO13
_symmetry_space_group_name_H-M   'P 1'
_cell_length_a   6.43452700
_cell_length_b   8.54092759
_cell_length_c   10.54356759
_cell_angle_alpha   73.04274201
_cell_angle_beta   88.90829155
_cell_angle_gamma   88.35905375
_symmetry_Int_Tables_number   1
_chemical_formula_structural   Na3VIO13
_chemical_formula_sum   'Na6 V2 I2 O26'
_cell_volume   553.98645747
_cell_formula_units_Z   2
loop_
 _symmetry_equiv_pos_site_id
 _symmetry_equiv_pos_as_xyz
  1  'x, y, z'
loop_
 _atom_site_type_symbol
 _atom_site_label
 _atom_site_symmetry_multiplicity
 _atom_site_fract_x
 _atom_site_fract_y
 _atom_site_fract_z
 _atom_site_occupancy
  Na  Na0  1  0.78634600  0.49287200  0.19217900  1
  Na  Na1  1  0.21365400  0.50712800  0.80782100  1
  Na  Na2  1  0.38582200  0.89774900  0.34681100  1
  Na  Na3  1  0.61417800  0.10225100  0.65318900  1
  Na  Na4  1  0.38342200  0.76090700  0.05644400  1
  Na  Na5  1  0.61657800  0.23909300  0.94355600  1
  V  V0  1  0.07644900  0.18578100  0.04771500  1
  V  V1  1  0.92355100  0.81421900  0.95228500  1
  I  I0  1  0.15393100  0.12655500  0.77278500  1
  I  I1  1  0.84606900  0.87344500  0.22721500  1
  O  O0  1  0.28374400  0.99908000  0.68129700  1
  O  O1  1  0.71625600  0.00092000  0.31870300  1
  O  O2  1  0.02630700  0.29488500  0.57561700  1
  O  O3  1  0.97369300  0.70511500  0.42438300  1
  O  O4  1  0.37507800  0.26907300  0.74861700  1
  O  O5  1  0.62492200  0.73092700  0.25138300  1
  O  O6  1  0.29991700  0.28321200  0.04224200  1
  O  O7  1  0.70008300  0.71678800  0.95775800  1
  O  O8  1  0.88646400  0.30364800  0.08758400  1
  O  O9  1  0.11353600  0.69635200  0.91241600  1
  O  O10  1  0.99333800  0.27010900  0.85757300  1
  O  O11  1  0.00666200  0.72989100  0.14242700  1
  O  O12  1  0.89580500  0.99767700  0.79168100  1
  O  O13  1  0.10419500  0.00232300  0.20831900  1
  O  O14  1  0.20645000  0.00599600  0.95015800  1
  O  O15  1  0.79355000  0.99400400  0.04984200  1
  O  O16  1  0.18483800  0.39608000  0.27317500  1
  O  O17  1  0.81516200  0.60392000  0.72682500  1
  O  O18  1  0.34879600  0.47027300  0.25194800  1
  O  O19  1  0.65120400  0.52972700  0.74805200  1
  O  O20  1  0.49146300  0.25467100  0.39526900  1
  O  O21  1  0.50853700  0.74532900  0.60473100  1
  O  O22  1  0.17000600  0.67038700  0.43620900  1
  O  O23  1  0.82999400  0.32961300  0.56379100  1
  O  O24  1  0.31950800  0.19092400  0.40320400  1
  O  O25  1  0.68049200  0.80907600  0.59679600  1
loop_
_geom_bond_atom_site_label_1
_geom_bond_atom_site_label_2
_geom_bond_distance
_geom_bond_site_symmetry_2
Na0 O8 2.279488 1_555
Na0 O11 2.428884 1_655
Na0 O5 2.489406 1_555
Na0 O7 2.703470 1_554
Na0 O16 2.745467 1_655
Na0 O18 2.872904 1_555
Na1 O9 2.279488 1_555
Na1 O10 2.428884 1_455
Na1 O4 2.489406 1_555
Na1 O6 2.703470 1_556
Na1 O17 2.745467 1_455
Na1 O19 2.872904 1_555
Na2 O1 2.305630 1_565
Na2 O13 2.336907 1_565
Na2 O22 2.371634 1_555
Na2 O5 2.461931 1_555
Na2 O24 2.757381 1_565
Na2 O21 2.769702 1_555
Na3 O0 2.305630 1_545
Na3 O12 2.336907 1_545
Na3 O23 2.371634 1_555
Na3 O4 2.461931 1_555
Na3 O25 2.757381 1_545
Na3 O20 2.769702 1_555
Na4 O14 2.340543 1_564
Na4 O7 2.340993 1_554
Na4 O9 2.503900 1_554
Na4 O5 2.548860 1_555
Na4 O11 2.565557 1_555
Na4 O18 2.736761 1_555
Na5 O15 2.340543 1_546
Na5 O6 2.340993 1_556
Na5 O8 2.503900 1_556
Na5 O4 2.548860 1_555
Na5 O10 2.565557 1_555
Na5 O19 2.736761 1_555
I0 O0 1.828493 1_545
I0 O4 1.864380 1_555
I0 O14 1.884881 1_555
I0 O10 1.975311 1_455
I0 O12 1.993525 1_445
I0 O2 2.305865 1_555
I1 O1 1.828493 1_565
I1 O5 1.864380 1_555
I1 O15 1.884881 1_555
I1 O11 1.975311 1_655
I1 O13 1.993525 1_665
I1 O3 2.305865 1_555
O2 O23 1.289233 1_455
O6 V0 1.673544 1_555
O7 V1 1.673544 1_555
O8 V0 1.685626 1_655
O9 V1 1.685626 1_455
O10 V0 2.000098 1_656
O11 V1 2.000098 1_454
O12 V1 1.949933 1_555
O13 V0 1.949933 1_555
O14 V0 2.220486 1_556
O14 V1 2.478859 1_445
O15 V1 2.220486 1_554
O15 V0 2.478859 1_665
O16 O18 1.229312 1_555
O17 O19 1.229312 1_555
O20 O24 1.237767 1_555
O21 O25 1.237767 1_555
O22 O3 1.289233 1_455
