# generated using pymatgen
data_Ta2Mo2O5
_symmetry_space_group_name_H-M   'P 1'
_cell_length_a   3.44676700
_cell_length_b   3.44676700
_cell_length_c   8.55685000
_cell_angle_alpha   90.00000000
_cell_angle_beta   90.00000000
_cell_angle_gamma   90.00000000
_symmetry_Int_Tables_number   1
_chemical_formula_structural   Ta2Mo2O5
_chemical_formula_sum   'Ta2 Mo2 O5'
_cell_volume   101.65711292
_cell_formula_units_Z   1
loop_
 _symmetry_equiv_pos_site_id
 _symmetry_equiv_pos_as_xyz
  1  'x, y, z'
loop_
 _atom_site_type_symbol
 _atom_site_label
 _atom_site_symmetry_multiplicity
 _atom_site_fract_x
 _atom_site_fract_y
 _atom_site_fract_z
 _atom_site_occupancy
  Ta  Ta0  1  0.00000000  0.00000000  0.00000000  1
  Ta  Ta1  1  0.00000000  0.00000000  0.50000000  1
  Mo  Mo0  1  0.50000000  0.50000000  0.18771000  1
  Mo  Mo1  1  0.50000000  0.50000000  0.81229000  1
  O  O0  1  0.50000000  0.00000000  0.32050600  1
  O  O1  1  0.50000000  0.00000000  0.67949400  1
  O  O2  1  0.50000000  0.50000000  0.50000000  1
  O  O3  1  0.00000000  0.50000000  0.32050600  1
  O  O4  1  0.00000000  0.50000000  0.67949400  1
loop_
_geom_bond_atom_site_label_1
_geom_bond_atom_site_label_2
_geom_bond_distance
_geom_bond_site_symmetry_2
Mo0 O0 2.064283 1_565
Mo0 O3 2.064283 1_655
Mo0 O0 2.064283 1_555
Mo0 O3 2.064283 1_555
Mo0 Ta0 2.918904 1_555
Mo0 Ta0 2.918904 1_665
Mo0 Ta0 2.918904 1_655
Mo0 Ta0 2.918904 1_565
Mo1 O1 2.064283 1_565
Mo1 O4 2.064283 1_555
Mo1 O1 2.064283 1_555
Mo1 O4 2.064283 1_655
Mo1 Ta0 2.918904 1_666
Mo1 Ta0 2.918904 1_556
Mo1 Ta0 2.918904 1_566
Mo1 Ta0 2.918904 1_656
O0 Ta1 2.308473 1_555
O0 Ta1 2.308473 1_655
O1 Ta1 2.308473 1_555
O1 Ta1 2.308473 1_655
O2 Ta1 2.437232 1_665
O2 Ta1 2.437232 1_565
O2 Ta1 2.437232 1_655
O2 Ta1 2.437232 1_555
O3 Ta1 2.308473 1_555
O3 Ta1 2.308473 1_565
O4 Ta1 2.308473 1_555
O4 Ta1 2.308473 1_565
