# generated using pymatgen
data_Hf4C3N
_symmetry_space_group_name_H-M   'P 1'
_cell_length_a   10.79351420
_cell_length_b   10.79351420
_cell_length_c   10.79351348
_cell_angle_alpha   17.36970683
_cell_angle_beta   17.36970683
_cell_angle_gamma   17.36971052
_symmetry_Int_Tables_number   1
_chemical_formula_structural   Hf4C3N
_chemical_formula_sum   'Hf4 C3 N1'
_cell_volume   97.79717688
_cell_formula_units_Z   1
loop_
 _symmetry_equiv_pos_site_id
 _symmetry_equiv_pos_as_xyz
  1  'x, y, z'
loop_
 _atom_site_type_symbol
 _atom_site_label
 _atom_site_symmetry_multiplicity
 _atom_site_fract_x
 _atom_site_fract_y
 _atom_site_fract_z
 _atom_site_occupancy
  Hf  Hf0  1  0.87445257  0.87445257  0.87445257  1
  Hf  Hf1  1  0.12554743  0.12554743  0.12554743  1
  Hf  Hf2  1  0.37621186  0.37621186  0.37621186  1
  Hf  Hf3  1  0.62378814  0.62378814  0.62378814  1
  C  C0  1  0.25182872  0.25182872  0.25182872  1
  C  C1  1  0.50000000  0.50000000  0.50000000  1
  C  C2  1  0.74817128  0.74817128  0.74817128  1
  N  N0  1  0.00000000  0.00000000  -0.00000000  1
loop_
_geom_bond_atom_site_label_1
_geom_bond_atom_site_label_2
_geom_bond_distance
_geom_bond_site_symmetry_2
Hf2 N0 2.326126 1_655
Hf2 N0 2.326126 1_565
Hf2 N0 2.326126 1_556
Hf3 N0 2.326126 1_656
Hf3 N0 2.326126 1_566
Hf3 N0 2.326126 1_665
C0 Hf3 2.249113 1_554
C0 Hf3 2.249113 1_545
C0 Hf3 2.249113 1_455
C0 Hf0 2.348137 1_454
C0 Hf0 2.348137 1_544
C0 Hf0 2.348137 1_445
C1 Hf0 2.293606 1_554
C1 Hf1 2.293606 1_556
C1 Hf0 2.293606 1_455
C1 Hf0 2.293606 1_545
C1 Hf1 2.293606 1_565
C1 Hf1 2.293606 1_655
C2 Hf2 2.249113 1_556
C2 Hf2 2.249113 1_565
C2 Hf2 2.249113 1_655
C2 Hf1 2.348137 1_656
C2 Hf1 2.348137 1_566
C2 Hf1 2.348137 1_665
