# generated using pymatgen
data_Sr2LaBiO6
_symmetry_space_group_name_H-M   'P 1'
_cell_length_a   8.73502625
_cell_length_b   8.73502625
_cell_length_c   8.73502625
_cell_angle_alpha   90.00000000
_cell_angle_beta   90.00000000
_cell_angle_gamma   90.00000000
_symmetry_Int_Tables_number   1
_chemical_formula_structural   Sr2LaBiO6
_chemical_formula_sum   'Sr8 La4 Bi4 O24'
_cell_volume   666.48847404
_cell_formula_units_Z   4
loop_
 _symmetry_equiv_pos_site_id
 _symmetry_equiv_pos_as_xyz
  1  'x, y, z'
loop_
 _atom_site_type_symbol
 _atom_site_label
 _atom_site_symmetry_multiplicity
 _atom_site_fract_x
 _atom_site_fract_y
 _atom_site_fract_z
 _atom_site_occupancy
  Sr  Sr0  1  0.50000000  0.50000000  0.50000000  1
  Sr  Sr1  1  -0.00000000  -0.00000000  -0.00000000  1
  Sr  Sr2  1  -0.00000000  -0.00000000  0.50000000  1
  Sr  Sr3  1  -0.00000000  0.50000000  -0.00000000  1
  Sr  Sr4  1  0.50000000  -0.00000000  -0.00000000  1
  Sr  Sr5  1  0.50000000  0.50000000  -0.00000000  1
  Sr  Sr6  1  0.50000000  -0.00000000  0.50000000  1
  Sr  Sr7  1  -0.00000000  0.50000000  0.50000000  1
  La  La0  1  0.25000000  0.25000000  0.25000000  1
  La  La1  1  0.25000000  0.75000000  0.75000000  1
  La  La2  1  0.75000000  0.25000000  0.75000000  1
  La  La3  1  0.75000000  0.75000000  0.25000000  1
  Bi  Bi0  1  0.75000000  0.75000000  0.75000000  1
  Bi  Bi1  1  0.75000000  0.25000000  0.25000000  1
  Bi  Bi2  1  0.25000000  0.75000000  0.25000000  1
  Bi  Bi3  1  0.25000000  0.25000000  0.75000000  1
  O  O0  1  0.21038588  0.30114918  0.51327543  1
  O  O1  1  0.21038588  0.69885082  0.48672457  1
  O  O2  1  0.78961412  0.30114918  0.48672457  1
  O  O3  1  0.78961412  0.69885082  0.51327543  1
  O  O4  1  0.30114918  0.51327543  0.21038588  1
  O  O5  1  0.69885082  0.48672457  0.21038588  1
  O  O6  1  0.30114918  0.48672457  0.78961412  1
  O  O7  1  0.69885082  0.51327543  0.78961412  1
  O  O8  1  0.51327543  0.21038588  0.30114918  1
  O  O9  1  0.48672457  0.21038588  0.69885082  1
  O  O10  1  0.48672457  0.78961412  0.30114918  1
  O  O11  1  0.51327543  0.78961412  0.69885082  1
  O  O12  1  0.28961412  0.19885082  0.98672457  1
  O  O13  1  0.28961412  0.80114918  0.01327543  1
  O  O14  1  0.71038588  0.19885082  0.01327543  1
  O  O15  1  0.71038588  0.80114918  0.98672457  1
  O  O16  1  0.19885082  0.98672457  0.28961412  1
  O  O17  1  0.80114918  0.01327543  0.28961412  1
  O  O18  1  0.19885082  0.01327543  0.71038588  1
  O  O19  1  0.80114918  0.98672457  0.71038588  1
  O  O20  1  0.98672457  0.28961412  0.19885082  1
  O  O21  1  0.01327543  0.28961412  0.80114918  1
  O  O22  1  0.01327543  0.71038588  0.19885082  1
  O  O23  1  0.98672457  0.71038588  0.80114918  1
loop_
_geom_bond_atom_site_label_1
_geom_bond_atom_site_label_2
_geom_bond_distance
_geom_bond_site_symmetry_2
La0 O16 2.368134 1_545
La0 O8 2.368134 1_555
La0 O12 2.368134 1_554
La0 O20 2.368134 1_455
La0 O0 2.368134 1_555
La0 O4 2.368134 1_555
La1 O1 2.368134 1_555
La1 O6 2.368134 1_555
La1 O13 2.368134 1_556
La1 O18 2.368134 1_565
La1 O23 2.368134 1_455
La1 O11 2.368134 1_555
La2 O14 2.368134 1_556
La2 O7 2.368134 1_555
La2 O21 2.368134 1_655
La2 O9 2.368134 1_555
La2 O19 2.368134 1_545
La2 O2 2.368134 1_555
La3 O22 2.368134 1_655
La3 O17 2.368134 1_565
La3 O15 2.368134 1_554
La3 O5 2.368134 1_555
La3 O10 2.368134 1_555
La3 O3 2.368134 1_555
Bi0 O15 2.143627 1_555
Bi0 O7 2.143627 1_555
Bi0 O19 2.143627 1_555
Bi0 O3 2.143627 1_555
Bi0 O23 2.143627 1_555
Bi0 O11 2.143627 1_555
Bi1 O17 2.143627 1_555
Bi1 O14 2.143627 1_555
Bi1 O5 2.143627 1_555
Bi1 O8 2.143627 1_555
Bi1 O2 2.143627 1_555
Bi1 O20 2.143627 1_555
Bi2 O22 2.143627 1_555
Bi2 O13 2.143627 1_555
Bi2 O16 2.143627 1_555
Bi2 O10 2.143627 1_555
Bi2 O4 2.143627 1_555
Bi2 O1 2.143627 1_555
Bi3 O21 2.143627 1_555
Bi3 O18 2.143627 1_555
Bi3 O6 2.143627 1_555
Bi3 O12 2.143627 1_555
Bi3 O0 2.143627 1_555
Bi3 O9 2.143627 1_555
O0 Sr7 2.531351 1_555
O0 Sr0 3.070883 1_555
O1 Sr7 2.531351 1_555
O1 Sr0 3.070883 1_555
O2 Sr7 2.531351 1_655
O2 Sr0 3.070883 1_555
O3 Sr7 2.531351 1_655
O3 Sr0 3.070883 1_555
O4 Sr5 2.531351 1_555
O4 Sr0 3.070883 1_555
O5 Sr5 2.531351 1_555
O5 Sr0 3.070883 1_555
O6 Sr5 2.531351 1_556
O6 Sr0 3.070883 1_555
O7 Sr5 2.531351 1_556
O7 Sr0 3.070883 1_555
O8 Sr6 2.531351 1_555
O8 Sr0 3.070883 1_555
O9 Sr6 2.531351 1_555
O9 Sr0 3.070883 1_555
O10 Sr6 2.531351 1_565
O10 Sr0 3.070883 1_555
O11 Sr6 2.531351 1_565
O11 Sr0 3.070883 1_555
O12 Sr4 2.531351 1_556
O12 Sr1 3.070883 1_556
O13 Sr4 2.531351 1_565
O13 Sr1 3.070883 1_565
O14 Sr4 2.531351 1_555
O14 Sr1 3.070883 1_655
O15 Sr4 2.531351 1_566
O15 Sr1 3.070883 1_666
O16 Sr2 2.531351 1_565
O16 Sr1 3.070883 1_565
O17 Sr2 2.531351 1_655
O17 Sr1 3.070883 1_655
O18 Sr2 2.531351 1_555
O18 Sr1 3.070883 1_556
O19 Sr2 2.531351 1_665
O19 Sr1 3.070883 1_666
O20 Sr3 2.531351 1_655
O20 Sr1 3.070883 1_655
O21 Sr3 2.531351 1_556
O21 Sr1 3.070883 1_556
O22 Sr3 2.531351 1_555
O22 Sr1 3.070883 1_565
O23 Sr3 2.531351 1_656
O23 Sr1 3.070883 1_666
