# generated using pymatgen
data_Y2Cu3
_symmetry_space_group_name_H-M   'P 1'
_cell_length_a   5.41283168
_cell_length_b   5.50222309
_cell_length_c   18.26425200
_cell_angle_alpha   90.00000000
_cell_angle_beta   90.00000000
_cell_angle_gamma   120.73033460
_symmetry_Int_Tables_number   1
_chemical_formula_structural   Y2Cu3
_chemical_formula_sum   'Y8 Cu12'
_cell_volume   467.57560559
_cell_formula_units_Z   4
loop_
 _symmetry_equiv_pos_site_id
 _symmetry_equiv_pos_as_xyz
  1  'x, y, z'
loop_
 _atom_site_type_symbol
 _atom_site_label
 _atom_site_symmetry_multiplicity
 _atom_site_fract_x
 _atom_site_fract_y
 _atom_site_fract_z
 _atom_site_occupancy
  Y  Y0  1  0.99750600  0.99891800  0.59040500  1
  Y  Y1  1  0.00249400  0.00108200  0.40959500  1
  Y  Y2  1  0.00249400  0.00108200  0.09040500  1
  Y  Y3  1  0.99750600  0.99891800  0.90959500  1
  Y  Y4  1  0.66891300  0.33424100  0.63215800  1
  Y  Y5  1  0.33108700  0.66575900  0.36784200  1
  Y  Y6  1  0.33108700  0.66575900  0.13215800  1
  Y  Y7  1  0.66891300  0.33424100  0.86784200  1
  Cu  Cu0  1  0.50000000  0.50000000  0.00000000  1
  Cu  Cu1  1  0.00000000  0.50000000  0.00000000  1
  Cu  Cu2  1  0.50000000  0.00000000  0.00000000  1
  Cu  Cu3  1  0.50000000  0.50000000  0.50000000  1
  Cu  Cu4  1  0.00000000  0.50000000  0.50000000  1
  Cu  Cu5  1  0.50000000  0.00000000  0.50000000  1
  Cu  Cu6  1  0.85230600  0.70813800  0.75000000  1
  Cu  Cu7  1  0.85276400  0.14443200  0.75000000  1
  Cu  Cu8  1  0.29275000  0.14652400  0.75000000  1
  Cu  Cu9  1  0.14769400  0.29186200  0.25000000  1
  Cu  Cu10  1  0.14723600  0.85556800  0.25000000  1
  Cu  Cu11  1  0.70725000  0.85347600  0.25000000  1
loop_
_geom_bond_atom_site_label_1
_geom_bond_atom_site_label_2
_geom_bond_distance
_geom_bond_site_symmetry_2
Y0 Y4 3.215658 1_665
Y0 Y4 3.236093 1_555
Y0 Y4 3.240818 1_565
Y0 Y1 3.302441 1_665
Y1 Y5 3.215658 1_445
Y1 Y5 3.236093 1_555
Y1 Y5 3.240818 1_545
Y2 Y6 3.215658 1_445
Y2 Y6 3.236093 1_555
Y2 Y6 3.240818 1_545
Y2 Y3 3.302441 1_444
Y3 Y7 3.215658 1_665
Y3 Y7 3.236093 1_555
Y3 Y7 3.240818 1_565
Cu0 Cu1 2.706416 1_655
Cu0 Cu1 2.706416 1_555
Cu0 Cu2 2.751112 1_565
Cu0 Cu2 2.751112 1_555
Cu0 Y7 2.888989 1_554
Cu0 Y6 2.888989 1_555
Cu0 Y2 3.155788 1_555
Cu0 Y3 3.155788 1_554
Cu0 Y2 3.172035 1_665
Cu0 Y3 3.172035 1_444
Cu1 Cu2 2.698865 1_455
Cu1 Cu2 2.698865 1_565
Cu1 Y6 2.863449 1_555
Cu1 Y7 2.863449 1_454
Cu1 Y2 3.207795 1_565
Cu1 Y3 3.207795 1_444
Cu1 Y2 3.209415 1_555
Cu1 Y3 3.209415 1_454
Cu2 Y6 2.885471 1_545
Cu2 Y7 2.885471 1_554
Cu2 Y2 3.161426 1_555
Cu2 Y3 3.161426 1_544
Cu2 Y2 3.179280 1_655
Cu2 Y3 3.179280 1_444
Cu3 Cu4 2.706416 1_555
Cu3 Cu4 2.706416 1_655
Cu3 Cu5 2.751112 1_565
Cu3 Cu5 2.751112 1_555
Cu3 Y4 2.888989 1_555
Cu3 Y5 2.888989 1_555
Cu3 Y0 3.155788 1_555
Cu3 Y1 3.155788 1_555
Cu3 Y1 3.172035 1_665
Cu3 Y0 3.172035 1_445
Cu4 Cu5 2.698865 1_455
Cu4 Cu5 2.698865 1_565
Cu4 Y5 2.863449 1_555
Cu4 Y4 2.863449 1_455
Cu4 Y1 3.207795 1_565
Cu4 Y0 3.207795 1_445
Cu4 Y0 3.209415 1_455
Cu4 Y1 3.209415 1_555
Cu5 Y4 2.885471 1_555
Cu5 Y5 2.885471 1_545
Cu5 Y0 3.161426 1_545
Cu5 Y1 3.161426 1_555
Cu5 Y1 3.179280 1_655
Cu5 Y0 3.179280 1_445
Cu6 Cu8 2.371678 1_665
Cu6 Cu7 2.399321 1_565
Cu6 Y4 2.786217 1_555
Cu6 Y7 2.786217 1_555
Cu6 Cu8 3.026089 1_555
Cu6 Cu7 3.102904 1_555
Cu6 Y3 3.223186 1_555
Cu6 Y0 3.223186 1_555
Cu7 Cu8 2.375709 1_655
Cu7 Y4 2.788475 1_555
Cu7 Y7 2.788475 1_555
Cu7 Cu8 3.037160 1_555
Cu7 Y3 3.223737 1_545
Cu7 Y0 3.223737 1_545
Cu8 Y4 2.774101 1_555
Cu8 Y7 2.774101 1_555
Cu8 Y3 3.222363 1_445
Cu8 Y0 3.222363 1_445
Cu9 Y5 2.786217 1_555
Cu9 Y6 2.786217 1_555
Cu9 Y2 3.223186 1_555
Cu9 Y1 3.223186 1_555
Cu10 Cu11 2.375709 1_455
Cu10 Cu9 2.399321 1_565
Cu10 Y5 2.788475 1_555
Cu10 Y6 2.788475 1_555
Cu10 Cu11 3.037160 1_555
Cu10 Cu9 3.102904 1_555
Cu10 Y2 3.223737 1_565
Cu10 Y1 3.223737 1_565
Cu11 Cu9 2.371678 1_665
Cu11 Y5 2.774101 1_555
Cu11 Y6 2.774101 1_555
Cu11 Cu9 3.026089 1_555
Cu11 Y2 3.222363 1_665
Cu11 Y1 3.222363 1_665
