# generated using pymatgen
data_Dy2SnAu2
_symmetry_space_group_name_H-M   'P 1'
_cell_length_a   8.37990000
_cell_length_b   8.37990000
_cell_length_c   3.56802600
_cell_angle_alpha   90.00000000
_cell_angle_beta   90.00000000
_cell_angle_gamma   90.00000000
_symmetry_Int_Tables_number   1
_chemical_formula_structural   Dy2SnAu2
_chemical_formula_sum   'Dy4 Sn2 Au4'
_cell_volume   250.55650506
_cell_formula_units_Z   2
loop_
 _symmetry_equiv_pos_site_id
 _symmetry_equiv_pos_as_xyz
  1  'x, y, z'
loop_
 _atom_site_type_symbol
 _atom_site_label
 _atom_site_symmetry_multiplicity
 _atom_site_fract_x
 _atom_site_fract_y
 _atom_site_fract_z
 _atom_site_occupancy
  Dy  Dy0  1  0.83612700  0.33612700  0.50000000  1
  Dy  Dy1  1  0.16387300  0.66387300  0.50000000  1
  Dy  Dy2  1  0.33612700  0.16387300  0.50000000  1
  Dy  Dy3  1  0.66387300  0.83612700  0.50000000  1
  Sn  Sn0  1  0.00000000  0.00000000  0.50000000  1
  Sn  Sn1  1  0.50000000  0.50000000  0.50000000  1
  Au  Au0  1  0.62808800  0.12808800  0.00000000  1
  Au  Au1  1  0.37191200  0.87191200  0.00000000  1
  Au  Au2  1  0.12808800  0.37191200  0.00000000  1
  Au  Au3  1  0.87191200  0.62808800  0.00000000  1
loop_
_geom_bond_atom_site_label_1
_geom_bond_atom_site_label_2
_geom_bond_distance
_geom_bond_site_symmetry_2
Dy0 Sn1 3.133631 1_555
Dy0 Sn0 3.133631 1_655
Dy1 Sn1 3.133631 1_555
Dy1 Sn0 3.133631 1_565
Dy2 Sn1 3.133631 1_555
Dy2 Sn0 3.133631 1_555
Dy3 Sn1 3.133631 1_555
Dy3 Sn0 3.133631 1_665
Au0 Dy3 3.042778 1_545
Au0 Dy3 3.042778 1_544
Au0 Dy2 3.042778 1_554
Au0 Dy2 3.042778 1_555
Au0 Dy0 3.043224 1_554
Au0 Dy0 3.043224 1_555
Au1 Dy3 3.042778 1_555
Au1 Dy3 3.042778 1_554
Au1 Dy2 3.042778 1_564
Au1 Dy2 3.042778 1_565
Au1 Dy1 3.043224 1_555
Au1 Dy1 3.043224 1_554
Au2 Dy0 3.042778 1_455
Au2 Dy0 3.042778 1_454
Au2 Dy1 3.042778 1_554
Au2 Dy1 3.042778 1_555
Au2 Dy2 3.043224 1_554
Au2 Dy2 3.043224 1_555
Au3 Dy0 3.042778 1_555
Au3 Dy0 3.042778 1_554
Au3 Dy1 3.042778 1_655
Au3 Dy1 3.042778 1_654
Au3 Dy3 3.043224 1_555
Au3 Dy3 3.043224 1_554
