# generated using pymatgen
data_Fe2Si
_symmetry_space_group_name_H-M   'P 1'
_cell_length_a   5.59436800
_cell_length_b   5.59436800
_cell_length_c   16.66332200
_cell_angle_alpha   90.00000000
_cell_angle_beta   90.00000000
_cell_angle_gamma   90.00000000
_symmetry_Int_Tables_number   1
_chemical_formula_structural   Fe2Si
_chemical_formula_sum   'Fe32 Si16'
_cell_volume   521.51121078
_cell_formula_units_Z   16
loop_
 _symmetry_equiv_pos_site_id
 _symmetry_equiv_pos_as_xyz
  1  'x, y, z'
loop_
 _atom_site_type_symbol
 _atom_site_label
 _atom_site_symmetry_multiplicity
 _atom_site_fract_x
 _atom_site_fract_y
 _atom_site_fract_z
 _atom_site_occupancy
  Fe  Fe0_0  1  0.00000000  0.00000000  0.41308300  1
  Fe  Fe0_1  1  0.00000000  0.00000000  0.91308300  1
  Fe  Fe0_2  1  0.00000000  0.50000000  0.41308300  1
  Fe  Fe0_3  1  0.00000000  0.50000000  0.91308300  1
  Fe  Fe0_4  1  0.50000000  0.00000000  0.41308300  1
  Fe  Fe0_5  1  0.50000000  0.00000000  0.91308300  1
  Fe  Fe0_6  1  0.50000000  0.50000000  0.41308300  1
  Fe  Fe0_7  1  0.50000000  0.50000000  0.91308300  1
  Fe  Fe1_0  1  0.00000000  0.00000000  0.08691700  1
  Fe  Fe1_1  1  0.00000000  0.00000000  0.58691700  1
  Fe  Fe1_2  1  0.00000000  0.50000000  0.08691700  1
  Fe  Fe1_3  1  0.00000000  0.50000000  0.58691700  1
  Fe  Fe1_4  1  0.50000000  0.00000000  0.08691700  1
  Fe  Fe1_5  1  0.50000000  0.00000000  0.58691700  1
  Fe  Fe1_6  1  0.50000000  0.50000000  0.08691700  1
  Fe  Fe1_7  1  0.50000000  0.50000000  0.58691700  1
  Fe  Fe2_0  1  0.00000000  0.00000000  0.25000000  1
  Fe  Fe2_1  1  0.00000000  0.00000000  0.75000000  1
  Fe  Fe2_2  1  0.00000000  0.50000000  0.25000000  1
  Fe  Fe2_3  1  0.00000000  0.50000000  0.75000000  1
  Fe  Fe2_4  1  0.50000000  0.00000000  0.25000000  1
  Fe  Fe2_5  1  0.50000000  0.00000000  0.75000000  1
  Fe  Fe2_6  1  0.50000000  0.50000000  0.25000000  1
  Fe  Fe2_7  1  0.50000000  0.50000000  0.75000000  1
  Fe  Fe3_0  1  0.25000000  0.25000000  0.00000000  1
  Fe  Fe3_1  1  0.25000000  0.25000000  0.50000000  1
  Fe  Fe3_2  1  0.25000000  0.75000000  0.00000000  1
  Fe  Fe3_3  1  0.25000000  0.75000000  0.50000000  1
  Fe  Fe3_4  1  0.75000000  0.25000000  0.00000000  1
  Fe  Fe3_5  1  0.75000000  0.25000000  0.50000000  1
  Fe  Fe3_6  1  0.75000000  0.75000000  0.00000000  1
  Fe  Fe3_7  1  0.75000000  0.75000000  0.50000000  1
  Si  Si0_0  1  0.25000000  0.25000000  0.16597450  1
  Si  Si0_1  1  0.25000000  0.25000000  0.66597450  1
  Si  Si0_2  1  0.25000000  0.75000000  0.16597450  1
  Si  Si0_3  1  0.25000000  0.75000000  0.66597450  1
  Si  Si0_4  1  0.75000000  0.25000000  0.16597450  1
  Si  Si0_5  1  0.75000000  0.25000000  0.66597450  1
  Si  Si0_6  1  0.75000000  0.75000000  0.16597450  1
  Si  Si0_7  1  0.75000000  0.75000000  0.66597450  1
  Si  Si1_0  1  0.25000000  0.25000000  0.33402550  1
  Si  Si1_1  1  0.25000000  0.25000000  0.83402550  1
  Si  Si1_2  1  0.25000000  0.75000000  0.33402550  1
  Si  Si1_3  1  0.25000000  0.75000000  0.83402550  1
  Si  Si1_4  1  0.75000000  0.25000000  0.33402550  1
  Si  Si1_5  1  0.75000000  0.25000000  0.83402550  1
  Si  Si1_6  1  0.75000000  0.75000000  0.33402550  1
  Si  Si1_7  1  0.75000000  0.75000000  0.83402550  1
loop_
_geom_bond_atom_site_label_1
_geom_bond_atom_site_label_2
_geom_bond_distance
_geom_bond_site_symmetry_2
Fe0_0 Si1_2 2.376459 1_545
Fe0_0 Si1_6 2.376459 1_445
Fe0_0 Si1_0 2.376459 1_555
Fe0_0 Si1_4 2.376459 1_455
Fe0_0 Fe3_5 2.451483 1_455
Fe0_0 Fe3_3 2.451483 1_545
Fe0_0 Fe3_7 2.451483 1_445
Fe0_0 Fe3_1 2.451483 1_555
Fe0_1 Si1_3 2.376459 1_545
Fe0_1 Si1_5 2.376459 1_455
Fe0_1 Si1_7 2.376459 1_445
Fe0_1 Si1_1 2.376459 1_555
Fe0_1 Fe3_4 2.451483 1_456
Fe0_1 Fe3_2 2.451483 1_546
Fe0_1 Fe3_6 2.451483 1_446
Fe0_1 Fe3_0 2.451483 1_556
Fe0_2 Si1_2 2.376459 1_555
Fe0_2 Si1_6 2.376459 1_455
Fe0_2 Si1_0 2.376459 1_555
Fe0_2 Si1_4 2.376459 1_455
Fe0_2 Fe3_5 2.451483 1_455
Fe0_2 Fe3_1 2.451483 1_555
Fe0_2 Fe3_3 2.451483 1_555
Fe0_2 Fe3_7 2.451483 1_455
Fe0_3 Si1_3 2.376459 1_555
Fe0_3 Si1_5 2.376459 1_455
Fe0_3 Si1_7 2.376459 1_455
Fe0_3 Si1_1 2.376459 1_555
Fe0_3 Fe3_4 2.451483 1_456
Fe0_3 Fe3_2 2.451483 1_556
Fe0_3 Fe3_6 2.451483 1_456
Fe0_3 Fe3_0 2.451483 1_556
Fe0_4 Si1_2 2.376459 1_545
Fe0_4 Si1_6 2.376459 1_545
Fe0_4 Si1_0 2.376459 1_555
Fe0_4 Si1_4 2.376459 1_555
Fe0_4 Fe3_3 2.451483 1_545
Fe0_4 Fe3_1 2.451483 1_555
Fe0_4 Fe3_5 2.451483 1_555
Fe0_4 Fe3_7 2.451483 1_545
Fe0_5 Si1_5 2.376459 1_555
Fe0_5 Si1_3 2.376459 1_545
Fe0_5 Si1_7 2.376459 1_545
Fe0_5 Si1_1 2.376459 1_555
Fe0_5 Fe3_2 2.451483 1_546
Fe0_5 Fe3_4 2.451483 1_556
Fe0_5 Fe3_6 2.451483 1_546
Fe0_5 Fe3_0 2.451483 1_556
Fe0_6 Si1_2 2.376459 1_555
Fe0_6 Si1_6 2.376459 1_555
Fe0_6 Si1_0 2.376459 1_555
Fe0_6 Si1_4 2.376459 1_555
Fe0_6 Fe3_7 2.451483 1_555
Fe0_6 Fe3_1 2.451483 1_555
Fe0_6 Fe3_5 2.451483 1_555
Fe0_6 Fe3_3 2.451483 1_555
Fe0_7 Si1_3 2.376459 1_555
Fe0_7 Si1_5 2.376459 1_555
Fe0_7 Si1_7 2.376459 1_555
Fe0_7 Si1_1 2.376459 1_555
Fe0_7 Fe3_6 2.451483 1_556
Fe0_7 Fe3_4 2.451483 1_556
Fe0_7 Fe3_2 2.451483 1_556
Fe0_7 Fe3_0 2.451483 1_556
Fe1_0 Si0_2 2.376459 1_545
Fe1_0 Si0_6 2.376459 1_445
Fe1_0 Si0_0 2.376459 1_555
Fe1_0 Si0_4 2.376459 1_455
Fe1_0 Fe3_4 2.451483 1_455
Fe1_0 Fe3_0 2.451483 1_555
Fe1_0 Fe3_6 2.451483 1_445
Fe1_0 Fe3_2 2.451483 1_545
Fe1_1 Si0_3 2.376459 1_545
Fe1_1 Si0_7 2.376459 1_445
Fe1_1 Si0_5 2.376459 1_455
Fe1_1 Si0_1 2.376459 1_555
Fe1_1 Fe3_5 2.451483 1_455
Fe1_1 Fe3_3 2.451483 1_545
Fe1_1 Fe3_7 2.451483 1_445
Fe1_1 Fe3_1 2.451483 1_555
Fe1_2 Si0_2 2.376459 1_555
Fe1_2 Si0_6 2.376459 1_455
Fe1_2 Si0_0 2.376459 1_555
Fe1_2 Si0_4 2.376459 1_455
Fe1_2 Fe3_4 2.451483 1_455
Fe1_2 Fe3_0 2.451483 1_555
Fe1_2 Fe3_2 2.451483 1_555
Fe1_2 Fe3_6 2.451483 1_455
Fe1_3 Si0_3 2.376459 1_555
Fe1_3 Si0_5 2.376459 1_455
Fe1_3 Si0_7 2.376459 1_455
Fe1_3 Si0_1 2.376459 1_555
Fe1_3 Fe3_3 2.451483 1_555
Fe1_3 Fe3_7 2.451483 1_455
Fe1_3 Fe3_5 2.451483 1_455
Fe1_3 Fe3_1 2.451483 1_555
Fe1_4 Si0_2 2.376459 1_545
Fe1_4 Si0_6 2.376459 1_545
Fe1_4 Si0_0 2.376459 1_555
Fe1_4 Si0_4 2.376459 1_555
Fe1_4 Fe3_0 2.451483 1_555
Fe1_4 Fe3_2 2.451483 1_545
Fe1_4 Fe3_4 2.451483 1_555
Fe1_4 Fe3_6 2.451483 1_545
Fe1_5 Si0_3 2.376459 1_545
Fe1_5 Si0_7 2.376459 1_545
Fe1_5 Si0_1 2.376459 1_555
Fe1_5 Si0_5 2.376459 1_555
Fe1_5 Fe3_5 2.451483 1_555
Fe1_5 Fe3_3 2.451483 1_545
Fe1_5 Fe3_1 2.451483 1_555
Fe1_5 Fe3_7 2.451483 1_545
Fe1_6 Si0_2 2.376459 1_555
Fe1_6 Si0_6 2.376459 1_555
Fe1_6 Si0_0 2.376459 1_555
Fe1_6 Si0_4 2.376459 1_555
Fe1_6 Fe3_0 2.451483 1_555
Fe1_6 Fe3_4 2.451483 1_555
Fe1_6 Fe3_2 2.451483 1_555
Fe1_6 Fe3_6 2.451483 1_555
Fe1_7 Si0_3 2.376459 1_555
Fe1_7 Si0_7 2.376459 1_555
Fe1_7 Si0_1 2.376459 1_555
Fe1_7 Si0_5 2.376459 1_555
Fe1_7 Fe3_3 2.451483 1_555
Fe1_7 Fe3_7 2.451483 1_555
Fe1_7 Fe3_5 2.451483 1_555
Fe1_7 Fe3_1 2.451483 1_555
Fe2_0 Si1_2 2.423329 1_545
Fe2_0 Si0_4 2.423329 1_455
Fe2_0 Si1_6 2.423329 1_445
Fe2_0 Si1_0 2.423329 1_555
Fe2_0 Si1_4 2.423329 1_455
Fe2_0 Si0_2 2.423329 1_545
Fe2_0 Si0_6 2.423329 1_445
Fe2_0 Si0_0 2.423329 1_555
Fe2_1 Si0_3 2.423329 1_545
Fe2_1 Si0_7 2.423329 1_445
Fe2_1 Si0_5 2.423329 1_455
Fe2_1 Si0_1 2.423329 1_555
Fe2_1 Si1_3 2.423329 1_545
Fe2_1 Si1_7 2.423329 1_445
Fe2_1 Si1_5 2.423329 1_455
Fe2_1 Si1_1 2.423329 1_555
Fe2_2 Si0_4 2.423329 1_455
Fe2_2 Si1_2 2.423329 1_555
Fe2_2 Si1_6 2.423329 1_455
Fe2_2 Si1_0 2.423329 1_555
Fe2_2 Si1_4 2.423329 1_455
Fe2_2 Si0_2 2.423329 1_555
Fe2_2 Si0_6 2.423329 1_455
Fe2_2 Si0_0 2.423329 1_555
Fe2_3 Si0_5 2.423329 1_455
Fe2_3 Si0_7 2.423329 1_455
Fe2_3 Si0_1 2.423329 1_555
Fe2_3 Si0_3 2.423329 1_555
Fe2_3 Si1_1 2.423329 1_555
Fe2_3 Si1_3 2.423329 1_555
Fe2_3 Si1_5 2.423329 1_455
Fe2_3 Si1_7 2.423329 1_455
Fe2_4 Si1_2 2.423329 1_545
Fe2_4 Si1_6 2.423329 1_545
Fe2_4 Si0_4 2.423329 1_555
Fe2_4 Si1_0 2.423329 1_555
Fe2_4 Si1_4 2.423329 1_555
Fe2_4 Si0_2 2.423329 1_545
Fe2_4 Si0_0 2.423329 1_555
Fe2_4 Si0_6 2.423329 1_545
Fe2_5 Si0_3 2.423329 1_545
Fe2_5 Si0_7 2.423329 1_545
Fe2_5 Si0_1 2.423329 1_555
Fe2_5 Si0_5 2.423329 1_555
Fe2_5 Si1_5 2.423329 1_555
Fe2_5 Si1_3 2.423329 1_545
Fe2_5 Si1_7 2.423329 1_545
Fe2_5 Si1_1 2.423329 1_555
Fe2_6 Si0_6 2.423329 1_555
Fe2_6 Si1_2 2.423329 1_555
Fe2_6 Si1_6 2.423329 1_555
Fe2_6 Si0_4 2.423329 1_555
Fe2_6 Si1_0 2.423329 1_555
Fe2_6 Si1_4 2.423329 1_555
Fe2_6 Si0_2 2.423329 1_555
Fe2_6 Si0_0 2.423329 1_555
Fe2_7 Si0_1 2.423329 1_555
Fe2_7 Si0_5 2.423329 1_555
Fe2_7 Si0_3 2.423329 1_555
Fe2_7 Si0_7 2.423329 1_555
Fe2_7 Si1_3 2.423329 1_555
Fe2_7 Si1_1 2.423329 1_555
Fe2_7 Si1_5 2.423329 1_555
Fe2_7 Si1_7 2.423329 1_555
Fe3_0 Si1_1 2.765687 1_554
Fe3_0 Si0_0 2.765687 1_555
Fe3_0 Fe3_4 2.797184 1_455
Fe3_0 Fe3_4 2.797184 1_555
Fe3_0 Fe3_2 2.797184 1_545
Fe3_0 Fe3_2 2.797184 1_555
Fe3_1 Si1_0 2.765687 1_555
Fe3_1 Si0_1 2.765687 1_555
Fe3_1 Fe3_5 2.797184 1_455
Fe3_1 Fe3_3 2.797184 1_545
Fe3_1 Fe3_5 2.797184 1_555
Fe3_1 Fe3_3 2.797184 1_555
Fe3_2 Si1_3 2.765687 1_554
Fe3_2 Si0_2 2.765687 1_555
Fe3_2 Fe3_6 2.797184 1_455
Fe3_2 Fe3_6 2.797184 1_555
Fe3_3 Si0_3 2.765687 1_555
Fe3_3 Si1_2 2.765687 1_555
Fe3_3 Fe3_7 2.797184 1_555
Fe3_3 Fe3_7 2.797184 1_455
Fe3_4 Si1_5 2.765687 1_554
Fe3_4 Si0_4 2.765687 1_555
Fe3_4 Fe3_6 2.797184 1_545
Fe3_4 Fe3_6 2.797184 1_555
Fe3_5 Si0_5 2.765687 1_555
Fe3_5 Si1_4 2.765687 1_555
Fe3_5 Fe3_7 2.797184 1_555
Fe3_5 Fe3_7 2.797184 1_545
Fe3_6 Si1_7 2.765687 1_554
Fe3_6 Si0_6 2.765687 1_555
Fe3_7 Si0_7 2.765687 1_555
Fe3_7 Si1_6 2.765687 1_555
