# generated using pymatgen
data_Tb3Pr
_symmetry_space_group_name_H-M   'P 1'
_cell_length_a   7.34784842
_cell_length_b   7.34784842
_cell_length_c   23.18460534
_cell_angle_alpha   90.00000000
_cell_angle_beta   90.00000000
_cell_angle_gamma   120.00000814
_symmetry_Int_Tables_number   1
_chemical_formula_structural   Tb3Pr
_chemical_formula_sum   'Tb24 Pr8'
_cell_volume   1084.05341350
_cell_formula_units_Z   8
loop_
 _symmetry_equiv_pos_site_id
 _symmetry_equiv_pos_as_xyz
  1  'x, y, z'
loop_
 _atom_site_type_symbol
 _atom_site_label
 _atom_site_symmetry_multiplicity
 _atom_site_fract_x
 _atom_site_fract_y
 _atom_site_fract_z
 _atom_site_occupancy
  Tb  Tb0_0  1  0.16666654  0.33333346  0.25000000  1
  Tb  Tb0_1  1  0.16666654  0.33333346  0.75000000  1
  Tb  Tb0_2  1  0.16666654  0.83333346  0.25000000  1
  Tb  Tb0_3  1  0.16666654  0.83333346  0.75000000  1
  Tb  Tb0_4  1  0.66666653  0.33333346  0.25000000  1
  Tb  Tb0_5  1  0.66666653  0.33333346  0.75000000  1
  Tb  Tb0_6  1  0.66666653  0.83333346  0.25000000  1
  Tb  Tb0_7  1  0.66666653  0.83333346  0.75000000  1
  Tb  Tb1_0  1  0.99999998  0.00000002  0.12788078  1
  Tb  Tb1_1  1  0.99999998  0.00000002  0.62788077  1
  Tb  Tb1_2  1  0.99999998  0.50000002  0.12788078  1
  Tb  Tb1_3  1  0.99999998  0.50000002  0.62788077  1
  Tb  Tb1_4  1  0.49999998  0.00000001  0.12788078  1
  Tb  Tb1_5  1  0.49999998  0.00000001  0.62788077  1
  Tb  Tb1_6  1  0.49999998  0.50000002  0.12788078  1
  Tb  Tb1_7  1  0.49999998  0.50000002  0.62788077  1
  Tb  Tb2_0  1  0.99999998  0.00000002  0.37211922  1
  Tb  Tb2_1  1  0.99999998  0.00000002  0.87211922  1
  Tb  Tb2_2  1  0.99999998  0.50000002  0.37211922  1
  Tb  Tb2_3  1  0.99999998  0.50000002  0.87211922  1
  Tb  Tb2_4  1  0.49999998  0.00000001  0.37211922  1
  Tb  Tb2_5  1  0.49999998  0.00000001  0.87211922  1
  Tb  Tb2_6  1  0.49999998  0.50000002  0.37211922  1
  Tb  Tb2_7  1  0.49999998  0.50000002  0.87211922  1
  Pr  Pr0_0  1  0.16666649  0.33333351  0.00000000  1
  Pr  Pr0_1  1  0.16666649  0.33333351  0.50000000  1
  Pr  Pr0_2  1  0.16666649  0.83333351  0.00000000  1
  Pr  Pr0_3  1  0.16666649  0.83333351  0.50000000  1
  Pr  Pr0_4  1  0.66666649  0.33333351  0.00000000  1
  Pr  Pr0_5  1  0.66666649  0.33333351  0.50000000  1
  Pr  Pr0_6  1  0.66666649  0.83333350  0.00000000  1
  Pr  Pr0_7  1  0.66666649  0.83333350  0.50000000  1
loop_
_geom_bond_atom_site_label_1
_geom_bond_atom_site_label_2
_geom_bond_distance
_geom_bond_site_symmetry_2
Tb0_0 Tb2_2 3.537713 1_455
Tb0_0 Tb1_2 3.537713 1_455
Tb0_0 Tb2_6 3.537714 1_555
Tb0_0 Tb2_0 3.537714 1_455
Tb0_0 Tb1_0 3.537714 1_455
Tb0_0 Tb1_6 3.537714 1_555
Tb0_0 Tb0_6 3.673924 1_555
Tb0_0 Tb0_6 3.673924 1_445
Tb0_0 Tb0_4 3.673924 1_555
Tb0_0 Tb0_2 3.673924 1_555
Tb0_0 Tb0_4 3.673924 1_455
Tb0_0 Tb0_2 3.673924 1_545
Tb0_1 Tb2_3 3.537713 1_455
Tb0_1 Tb1_3 3.537713 1_455
Tb0_1 Tb2_7 3.537714 1_555
Tb0_1 Tb2_1 3.537714 1_455
Tb0_1 Tb1_1 3.537714 1_455
Tb0_1 Tb1_7 3.537714 1_555
Tb0_1 Tb0_7 3.673924 1_555
Tb0_1 Tb0_7 3.673924 1_445
Tb0_1 Tb0_3 3.673924 1_555
Tb0_1 Tb0_5 3.673924 1_555
Tb0_1 Tb0_5 3.673924 1_455
Tb0_1 Tb0_3 3.673924 1_545
Tb0_2 Tb2_0 3.537713 1_465
Tb0_2 Tb1_0 3.537713 1_465
Tb0_2 Tb2_4 3.537714 1_565
Tb0_2 Tb2_2 3.537714 1_455
Tb0_2 Tb1_4 3.537714 1_565
Tb0_2 Tb1_2 3.537714 1_455
Tb0_2 Tb0_4 3.673924 1_565
Tb0_2 Tb0_4 3.673924 1_455
Tb0_2 Tb0_6 3.673924 1_555
Tb0_2 Tb0_6 3.673924 1_455
Tb0_3 Tb2_1 3.537713 1_465
Tb0_3 Tb1_1 3.537713 1_465
Tb0_3 Tb2_5 3.537714 1_565
Tb0_3 Tb2_3 3.537714 1_455
Tb0_3 Tb1_5 3.537714 1_565
Tb0_3 Tb1_3 3.537714 1_455
Tb0_3 Tb0_5 3.673924 1_455
Tb0_3 Tb0_5 3.673924 1_565
Tb0_3 Tb0_7 3.673924 1_555
Tb0_3 Tb0_7 3.673924 1_455
Tb0_4 Tb2_6 3.537713 1_555
Tb0_4 Tb1_6 3.537713 1_555
Tb0_4 Tb2_4 3.537714 1_555
Tb0_4 Tb2_2 3.537714 1_555
Tb0_4 Tb1_4 3.537714 1_555
Tb0_4 Tb1_2 3.537714 1_555
Tb0_4 Tb0_6 3.673924 1_545
Tb0_4 Tb0_6 3.673924 1_555
Tb0_5 Tb2_7 3.537713 1_555
Tb0_5 Tb1_7 3.537713 1_555
Tb0_5 Tb2_5 3.537714 1_555
Tb0_5 Tb2_3 3.537714 1_555
Tb0_5 Tb1_5 3.537714 1_555
Tb0_5 Tb1_3 3.537714 1_555
Tb0_5 Tb0_7 3.673924 1_545
Tb0_5 Tb0_7 3.673924 1_555
Tb0_6 Tb2_4 3.537713 1_565
Tb0_6 Tb1_4 3.537713 1_565
Tb0_6 Tb2_6 3.537714 1_555
Tb0_6 Tb2_0 3.537714 1_565
Tb0_6 Tb1_6 3.537714 1_555
Tb0_6 Tb1_0 3.537714 1_565
Tb0_7 Tb2_5 3.537713 1_565
Tb0_7 Tb1_5 3.537713 1_565
Tb0_7 Tb2_7 3.537714 1_555
Tb0_7 Tb2_1 3.537714 1_565
Tb0_7 Tb1_7 3.537714 1_555
Tb0_7 Tb1_1 3.537714 1_565
Tb1_0 Tb1_6 3.673924 1_545
Tb1_0 Tb1_6 3.673924 1_655
Tb1_0 Tb1_2 3.673924 1_545
Tb1_0 Tb1_4 3.673924 1_555
Tb1_0 Tb1_2 3.673924 1_555
Tb1_0 Tb1_4 3.673924 1_655
Tb1_1 Tb1_7 3.673924 1_545
Tb1_1 Tb1_7 3.673924 1_655
Tb1_1 Tb1_3 3.673924 1_555
Tb1_1 Tb1_3 3.673924 1_545
Tb1_1 Tb1_5 3.673924 1_555
Tb1_1 Tb1_5 3.673924 1_655
Tb1_2 Tb1_4 3.673924 1_555
Tb1_2 Tb1_4 3.673924 1_665
Tb1_2 Tb1_6 3.673924 1_555
Tb1_2 Tb1_6 3.673924 1_655
Tb1_3 Tb1_5 3.673924 1_665
Tb1_3 Tb1_5 3.673924 1_555
Tb1_3 Tb1_7 3.673924 1_555
Tb1_3 Tb1_7 3.673924 1_655
Tb1_4 Tb1_6 3.673924 1_555
Tb1_4 Tb1_6 3.673924 1_545
Tb1_5 Tb1_7 3.673924 1_555
Tb1_5 Tb1_7 3.673924 1_545
Tb2_0 Tb2_6 3.673924 1_545
Tb2_0 Tb2_6 3.673924 1_655
Tb2_0 Tb2_2 3.673924 1_545
Tb2_0 Tb2_2 3.673924 1_555
Tb2_0 Tb2_4 3.673924 1_555
Tb2_0 Tb2_4 3.673924 1_655
Tb2_1 Tb2_7 3.673924 1_545
Tb2_1 Tb2_7 3.673924 1_655
Tb2_1 Tb2_5 3.673924 1_555
Tb2_1 Tb2_3 3.673924 1_545
Tb2_1 Tb2_3 3.673924 1_555
Tb2_1 Tb2_5 3.673924 1_655
Tb2_2 Tb2_4 3.673924 1_665
Tb2_2 Tb2_4 3.673924 1_555
Tb2_2 Tb2_6 3.673924 1_555
Tb2_2 Tb2_6 3.673924 1_655
Tb2_3 Tb2_5 3.673924 1_555
Tb2_3 Tb2_5 3.673924 1_665
Tb2_3 Tb2_7 3.673924 1_555
Tb2_3 Tb2_7 3.673924 1_655
Tb2_4 Tb2_6 3.673924 1_555
Tb2_4 Tb2_6 3.673924 1_545
Tb2_5 Tb2_7 3.673924 1_555
Tb2_5 Tb2_7 3.673924 1_545
Pr0_0 Tb1_2 3.645498 1_455
Pr0_0 Tb2_3 3.645498 1_454
Pr0_0 Tb1_0 3.645500 1_455
Pr0_0 Tb1_6 3.645500 1_555
Pr0_0 Tb2_7 3.645500 1_554
Pr0_0 Tb2_1 3.645500 1_454
Pr0_0 Pr0_6 3.673924 1_555
Pr0_0 Pr0_6 3.673924 1_445
Pr0_0 Pr0_2 3.673924 1_545
Pr0_0 Pr0_4 3.673924 1_555
Pr0_0 Pr0_2 3.673924 1_555
Pr0_0 Pr0_4 3.673924 1_455
Pr0_1 Tb1_3 3.645498 1_455
Pr0_1 Tb2_2 3.645498 1_455
Pr0_1 Tb1_1 3.645500 1_455
Pr0_1 Tb1_7 3.645500 1_555
Pr0_1 Tb2_0 3.645500 1_455
Pr0_1 Tb2_6 3.645500 1_555
Pr0_1 Pr0_7 3.673924 1_555
Pr0_1 Pr0_7 3.673924 1_445
Pr0_1 Pr0_3 3.673924 1_545
Pr0_1 Pr0_3 3.673924 1_555
Pr0_1 Pr0_5 3.673924 1_455
Pr0_1 Pr0_5 3.673924 1_555
Pr0_2 Tb1_0 3.645498 1_465
Pr0_2 Tb2_1 3.645498 1_464
Pr0_2 Tb1_4 3.645500 1_565
Pr0_2 Tb1_2 3.645500 1_455
Pr0_2 Tb2_3 3.645500 1_454
Pr0_2 Tb2_5 3.645500 1_564
Pr0_2 Pr0_4 3.673924 1_455
Pr0_2 Pr0_4 3.673924 1_565
Pr0_2 Pr0_6 3.673924 1_555
Pr0_2 Pr0_6 3.673924 1_455
Pr0_3 Tb1_1 3.645498 1_465
Pr0_3 Tb2_0 3.645498 1_465
Pr0_3 Tb1_3 3.645500 1_455
Pr0_3 Tb1_5 3.645500 1_565
Pr0_3 Tb2_4 3.645500 1_565
Pr0_3 Tb2_2 3.645500 1_455
Pr0_3 Pr0_5 3.673924 1_455
Pr0_3 Pr0_5 3.673924 1_565
Pr0_3 Pr0_7 3.673924 1_555
Pr0_3 Pr0_7 3.673924 1_455
Pr0_4 Tb1_6 3.645498 1_555
Pr0_4 Tb2_7 3.645498 1_554
Pr0_4 Tb1_2 3.645500 1_555
Pr0_4 Tb1_4 3.645500 1_555
Pr0_4 Tb2_3 3.645500 1_554
Pr0_4 Tb2_5 3.645500 1_554
Pr0_4 Pr0_6 3.673924 1_555
Pr0_4 Pr0_6 3.673924 1_545
Pr0_5 Tb1_7 3.645498 1_555
Pr0_5 Tb2_6 3.645498 1_555
Pr0_5 Tb1_3 3.645500 1_555
Pr0_5 Tb1_5 3.645500 1_555
Pr0_5 Tb2_2 3.645500 1_555
Pr0_5 Tb2_4 3.645500 1_555
Pr0_5 Pr0_7 3.673924 1_555
Pr0_5 Pr0_7 3.673924 1_545
Pr0_6 Tb1_4 3.645498 1_565
Pr0_6 Tb2_5 3.645498 1_564
Pr0_6 Tb1_6 3.645500 1_555
Pr0_6 Tb1_0 3.645500 1_565
Pr0_6 Tb2_7 3.645500 1_554
Pr0_6 Tb2_1 3.645500 1_564
Pr0_7 Tb1_5 3.645498 1_565
Pr0_7 Tb2_4 3.645498 1_565
Pr0_7 Tb1_7 3.645500 1_555
Pr0_7 Tb1_1 3.645500 1_565
Pr0_7 Tb2_6 3.645500 1_555
Pr0_7 Tb2_0 3.645500 1_565
