# generated using pymatgen
data_ZrNbRu2
_symmetry_space_group_name_H-M   'P 1'
_cell_length_a   10.51176422
_cell_length_b   10.51176422
_cell_length_c   10.51176422
_cell_angle_alpha   129.39121084
_cell_angle_beta   115.80985158
_cell_angle_gamma   85.98613543
_symmetry_Int_Tables_number   1
_chemical_formula_structural   ZrNbRu2
_chemical_formula_sum   'Zr1 Nb1 Ru2'
_cell_volume   771.76718024
_cell_formula_units_Z   1
loop_
 _symmetry_equiv_pos_site_id
 _symmetry_equiv_pos_as_xyz
  1  'x, y, z'
loop_
 _atom_site_type_symbol
 _atom_site_label
 _atom_site_symmetry_multiplicity
 _atom_site_fract_x
 _atom_site_fract_y
 _atom_site_fract_z
 _atom_site_occupancy
  Zr  Zr0  1  0.00000000  0.00000000  0.00000000  1
  Nb  Nb0  1  0.00000000  0.50000000  0.50000000  1
  Ru  Ru0  1  0.00000000  0.25483700  0.25483700  1
  Ru  Ru1  1  0.00000000  0.74516300  0.74516300  1
loop_
_geom_bond_atom_site_label_1
_geom_bond_atom_site_label_2
_geom_bond_distance
_geom_bond_site_symmetry_2
Nb0 Ru0 2.203042 1_555
Nb0 Ru1 2.203042 1_555
Ru0 Zr0 2.289972 1_555
Ru1 Zr0 2.289972 1_566
