# generated using pymatgen
data_CaTi2Be3(SiO4)3
_symmetry_space_group_name_H-M   'P 1'
_cell_length_a   7.59524600
_cell_length_b   8.21216400
_cell_length_c   16.38848373
_cell_angle_alpha   60.00027801
_cell_angle_beta   90.00000000
_cell_angle_gamma   90.00000000
_symmetry_Int_Tables_number   1
_chemical_formula_structural   CaTi2Be3(SiO4)3
_chemical_formula_sum   'Ca4 Ti8 Be12 Si12 O48'
_cell_volume   885.25845044
_cell_formula_units_Z   4
loop_
 _symmetry_equiv_pos_site_id
 _symmetry_equiv_pos_as_xyz
  1  'x, y, z'
loop_
 _atom_site_type_symbol
 _atom_site_label
 _atom_site_symmetry_multiplicity
 _atom_site_fract_x
 _atom_site_fract_y
 _atom_site_fract_z
 _atom_site_occupancy
  Ca  Ca0  1  0.49614000  0.49901400  0.75105500  1
  Ca  Ca1  1  0.99614000  0.50098600  0.74894500  1
  Ca  Ca2  1  0.50386000  0.50098600  0.24894500  1
  Ca  Ca3  1  0.00386000  0.49901400  0.25105500  1
  Ti  Ti0  1  0.44039900  0.16351300  0.58810900  1
  Ti  Ti1  1  0.05960100  0.16351300  0.08810900  1
  Ti  Ti2  1  0.55960100  0.83648700  0.41189100  1
  Ti  Ti3  1  0.94039900  0.83648700  0.91189100  1
  Ti  Ti4  1  0.56752100  0.82787800  0.92226500  1
  Ti  Ti5  1  0.06752100  0.17212200  0.57773500  1
  Ti  Ti6  1  0.43247900  0.17212200  0.07773500  1
  Ti  Ti7  1  0.93247900  0.82787800  0.42226500  1
  Be  Be0  1  0.84529600  0.81640500  0.26258600  1
  Be  Be1  1  0.65974600  0.15963300  0.90829600  1
  Be  Be2  1  0.15974600  0.84036700  0.59170400  1
  Be  Be3  1  0.34025400  0.84036700  0.09170400  1
  Be  Be4  1  0.84025400  0.15963300  0.40829600  1
  Be  Be5  1  0.15699600  0.47480300  0.92019400  1
  Be  Be6  1  0.65699600  0.52519700  0.57980600  1
  Be  Be7  1  0.84300400  0.52519700  0.07980600  1
  Be  Be8  1  0.34300400  0.47480300  0.42019400  1
  Be  Be9  1  0.65470400  0.81640500  0.76258600  1
  Be  Be10  1  0.15470400  0.18359500  0.73741400  1
  Be  Be11  1  0.34529600  0.18359500  0.23741400  1
  Si  Si0  1  0.23207000  0.81010100  0.26850100  1
  Si  Si1  1  0.73207000  0.18989900  0.23149900  1
  Si  Si2  1  0.76793000  0.18989900  0.73149900  1
  Si  Si3  1  0.26793000  0.81010100  0.76850100  1
  Si  Si4  1  0.73132300  0.46347500  0.42405900  1
  Si  Si5  1  0.23132300  0.53652500  0.07594100  1
  Si  Si6  1  0.26867700  0.53652500  0.57594100  1
  Si  Si7  1  0.76867700  0.46347500  0.92405900  1
  Si  Si8  1  0.23363500  0.15035100  0.40595700  1
  Si  Si9  1  0.73363500  0.84964900  0.09404300  1
  Si  Si10  1  0.76636500  0.84964900  0.59404300  1
  Si  Si11  1  0.26636500  0.15035100  0.90595700  1
  O  O0  1  0.12471100  0.70748300  0.54426000  1
  O  O1  1  0.03683900  0.76191800  0.31726300  1
  O  O2  1  0.53683900  0.23808200  0.18273700  1
  O  O3  1  0.96316100  0.23808200  0.68273700  1
  O  O4  1  0.46316100  0.76191800  0.81726300  1
  O  O5  1  0.53526200  0.36843700  0.44839100  1
  O  O6  1  0.03526200  0.63156300  0.05160900  1
  O  O7  1  0.46473800  0.63156300  0.55160900  1
  O  O8  1  0.96473800  0.36843700  0.94839100  1
  O  O9  1  0.03489200  0.10202000  0.38427300  1
  O  O10  1  0.53489200  0.89798000  0.11572700  1
  O  O11  1  0.96510800  0.89798000  0.61572700  1
  O  O12  1  0.12473100  0.08733600  0.85139000  1
  O  O13  1  0.62473100  0.91266400  0.64861000  1
  O  O14  1  0.87526900  0.91266400  0.14861000  1
  O  O15  1  0.37526900  0.08733600  0.35139000  1
  O  O16  1  0.62471100  0.29251700  0.95574000  1
  O  O17  1  0.46510800  0.10202000  0.88427300  1
  O  O18  1  0.37528900  0.70748300  0.04426000  1
  O  O19  1  0.87528900  0.29251700  0.45574000  1
  O  O20  1  0.76105000  0.95739800  0.97817000  1
  O  O21  1  0.62290000  0.29719500  0.64619400  1
  O  O22  1  0.87710000  0.29719500  0.14619400  1
  O  O23  1  0.37710000  0.70280500  0.35380600  1
  O  O24  1  0.74418300  0.27138900  0.30500500  1
  O  O25  1  0.24418300  0.72861100  0.19499500  1
  O  O26  1  0.25581700  0.72861100  0.69499500  1
  O  O27  1  0.75581700  0.27138900  0.80500500  1
  O  O28  1  0.74498500  0.61193500  0.30967200  1
  O  O29  1  0.24498500  0.38806500  0.19032800  1
  O  O30  1  0.25501500  0.38806500  0.69032800  1
  O  O31  1  0.75501500  0.61193500  0.80967200  1
  O  O32  1  0.24578500  0.37904200  0.36498500  1
  O  O33  1  0.74578500  0.62095800  0.13501500  1
  O  O34  1  0.75421500  0.62095800  0.63501500  1
  O  O35  1  0.25421500  0.37904200  0.86498500  1
  O  O36  1  0.75740000  0.95907200  0.29453200  1
  O  O37  1  0.25740000  0.04092800  0.20546800  1
  O  O38  1  0.24260000  0.04092800  0.70546800  1
  O  O39  1  0.74260000  0.95907200  0.79453200  1
  O  O40  1  0.75602800  0.58568800  0.47878800  1
  O  O41  1  0.25602800  0.41431200  0.02121200  1
  O  O42  1  0.24397200  0.41431200  0.52121200  1
  O  O43  1  0.74397200  0.58568800  0.97878800  1
  O  O44  1  0.73895000  0.95739800  0.47817000  1
  O  O45  1  0.23895000  0.04260200  0.02183000  1
  O  O46  1  0.26105000  0.04260200  0.52183000  1
  O  O47  1  0.12290000  0.70280500  0.85380600  1
loop_
_geom_bond_atom_site_label_1
_geom_bond_atom_site_label_2
_geom_bond_distance
_geom_bond_site_symmetry_2
Ca0 O35 2.448198 1_555
Ca0 O26 2.449215 1_555
Ca0 O30 2.466058 1_555
Ca0 O27 2.552110 1_555
Ca0 O31 2.557266 1_555
Ca0 O34 2.560691 1_555
Ca1 O34 2.448198 1_555
Ca1 O27 2.449215 1_555
Ca1 O31 2.466058 1_555
Ca1 O26 2.552110 1_655
Ca1 O30 2.557266 1_655
Ca1 O35 2.560691 1_655
Ca2 O33 2.448198 1_555
Ca2 O24 2.449215 1_555
Ca2 O28 2.466058 1_555
Ca2 O25 2.552110 1_555
Ca2 O29 2.557266 1_555
Ca2 O32 2.560691 1_555
Ca3 O32 2.448198 1_555
Ca3 O25 2.449215 1_555
Ca3 O29 2.466058 1_555
Ca3 O24 2.552110 1_455
Ca3 O28 2.557266 1_455
Ca3 O33 2.560691 1_455
Be0 O14 1.639874 1_555
Be0 O28 1.643085 1_555
Be0 O36 1.644938 1_555
Be0 O1 1.648849 1_655
Be1 O27 1.639109 1_555
Be1 O16 1.647641 1_555
Be1 O17 1.658481 1_555
Be1 O20 1.661251 1_545
Be2 O26 1.639109 1_555
Be2 O0 1.647641 1_555
Be2 O11 1.658481 1_455
Be2 O46 1.661251 1_565
Be3 O25 1.639109 1_555
Be3 O18 1.647641 1_555
Be3 O10 1.658481 1_555
Be3 O45 1.661251 1_565
Be4 O24 1.639109 1_555
Be4 O19 1.647641 1_555
Be4 O9 1.658481 1_655
Be4 O44 1.661251 1_545
Be5 O35 1.641294 1_555
Be5 O8 1.644753 1_455
Be5 O47 1.649093 1_555
Be5 O41 1.652550 1_556
Be6 O34 1.641294 1_555
Be6 O7 1.644753 1_555
Be6 O21 1.649093 1_555
Be6 O40 1.652550 1_555
Be7 O33 1.641294 1_555
Be7 O6 1.644753 1_655
Be7 O22 1.649093 1_555
Be7 O43 1.652550 1_554
Be8 O32 1.641294 1_555
Be8 O5 1.644753 1_555
Be8 O23 1.649093 1_555
Be8 O42 1.652550 1_555
Be9 O13 1.639874 1_555
Be9 O31 1.643085 1_555
Be9 O39 1.644938 1_555
Be9 O4 1.648849 1_555
Be10 O12 1.639874 1_555
Be10 O30 1.643085 1_555
Be10 O38 1.644938 1_555
Be10 O3 1.648849 1_455
Be11 O15 1.639874 1_555
Be11 O29 1.643085 1_555
Be11 O37 1.644938 1_555
Be11 O2 1.648849 1_555
O0 Si6 1.645397 1_555
O0 Ti7 2.264911 1_455
O1 Si0 1.636386 1_555
O1 Ti7 2.194320 1_455
O2 Si1 1.636386 1_555
O2 Ti6 2.194320 1_555
O3 Si2 1.636386 1_555
O3 Ti5 2.194320 1_655
O4 Si3 1.636386 1_555
O4 Ti4 2.194320 1_555
O5 Si4 1.635370 1_555
O5 Ti0 2.177353 1_555
O6 Si5 1.635370 1_555
O6 Ti3 2.177353 1_454
O7 Si6 1.635370 1_555
O7 Ti2 2.177353 1_555
O8 Si7 1.635370 1_555
O8 Ti1 2.177353 1_656
O9 Si8 1.644220 1_555
O9 Ti7 2.158554 1_445
O10 Si9 1.644220 1_555
O10 Ti6 2.158554 1_565
O11 Si10 1.644220 1_555
O11 Ti5 2.158554 1_665
O12 Si11 1.639364 1_555
O12 Ti3 2.268120 1_445
O13 Si10 1.639364 1_555
O13 Ti0 2.268120 1_565
O14 Si9 1.639364 1_555
O14 Ti1 2.268120 1_665
O15 Si8 1.639364 1_555
O15 Ti2 2.268120 1_545
O16 Si7 1.645397 1_555
O16 Ti6 2.264911 1_556
O17 Si11 1.644220 1_555
O17 Ti4 2.158554 1_545
O18 Si5 1.645397 1_555
O18 Ti4 2.264911 1_554
O19 Si4 1.645397 1_555
O19 Ti5 2.264911 1_655
O20 Si9 1.658961 1_556
O20 Ti3 2.258299 1_555
O20 Ti4 2.259613 1_555
O21 Si2 1.646940 1_555
O21 Ti0 2.253394 1_555
O22 Si1 1.646940 1_555
O22 Ti1 2.253394 1_655
O23 Si0 1.646940 1_555
O23 Ti2 2.253394 1_555
O24 Si1 1.647316 1_555
O25 Si0 1.647316 1_555
O26 Si3 1.647316 1_555
O27 Si2 1.647316 1_555
O28 Si4 1.651033 1_555
O29 Si5 1.651033 1_555
O30 Si6 1.651033 1_555
O31 Si7 1.651033 1_555
O32 Si8 1.650882 1_555
O33 Si9 1.650882 1_555
O34 Si10 1.650882 1_555
O35 Si11 1.650882 1_555
O36 Si1 1.655064 1_565
O36 Ti2 2.243538 1_555
O36 Ti7 2.248518 1_555
O37 Si0 1.655064 1_545
O37 Ti1 2.243538 1_555
O37 Ti6 2.248518 1_555
O38 Si3 1.655064 1_545
O38 Ti0 2.243538 1_555
O38 Ti5 2.248518 1_555
O39 Si2 1.655064 1_565
O39 Ti3 2.243538 1_555
O39 Ti4 2.248518 1_555
O40 Si4 1.657450 1_555
O40 Ti7 2.183476 1_555
O40 Ti2 2.326310 1_555
O41 Si5 1.657450 1_555
O41 Ti6 2.183476 1_555
O41 Ti1 2.326310 1_555
O42 Si6 1.657450 1_555
O42 Ti5 2.183476 1_555
O42 Ti0 2.326310 1_555
O43 Si7 1.657450 1_555
O43 Ti4 2.183476 1_555
O43 Ti3 2.326310 1_555
O44 Si10 1.658961 1_555
O44 Ti2 2.258299 1_555
O44 Ti7 2.259613 1_555
O45 Si11 1.658961 1_554
O45 Ti1 2.258299 1_555
O45 Ti6 2.259613 1_555
O46 Si8 1.658961 1_555
O46 Ti0 2.258299 1_555
O46 Ti5 2.259613 1_555
O47 Si3 1.646940 1_555
O47 Ti3 2.253394 1_455
