# generated using pymatgen
data_Nb4Fe2N
_symmetry_space_group_name_H-M   'P 1'
_cell_length_a   8.28730845
_cell_length_b   8.28730845
_cell_length_c   8.28730845
_cell_angle_alpha   60.00000000
_cell_angle_beta   60.00000000
_cell_angle_gamma   60.00000000
_symmetry_Int_Tables_number   1
_chemical_formula_structural   Nb4Fe2N
_chemical_formula_sum   'Nb16 Fe8 N4'
_cell_volume   402.46258446
_cell_formula_units_Z   4
loop_
 _symmetry_equiv_pos_site_id
 _symmetry_equiv_pos_as_xyz
  1  'x, y, z'
loop_
 _atom_site_type_symbol
 _atom_site_label
 _atom_site_symmetry_multiplicity
 _atom_site_fract_x
 _atom_site_fract_y
 _atom_site_fract_z
 _atom_site_occupancy
  Nb  Nb0  1  0.12500000  0.62500000  0.62500000  1
  Nb  Nb1  1  0.62500000  0.12500000  0.62500000  1
  Nb  Nb2  1  0.62500000  0.62500000  0.12500000  1
  Nb  Nb3  1  0.62500000  0.62500000  0.62500000  1
  Nb  Nb4  1  0.81478000  0.81478000  0.18522000  1
  Nb  Nb5  1  0.18522000  0.18522000  0.81478000  1
  Nb  Nb6  1  0.81478000  0.18522000  0.81478000  1
  Nb  Nb7  1  0.18522000  0.81478000  0.18522000  1
  Nb  Nb8  1  0.18522000  0.81478000  0.81478000  1
  Nb  Nb9  1  0.81478000  0.18522000  0.18522000  1
  Nb  Nb10  1  0.43522000  0.43522000  0.06478000  1
  Nb  Nb11  1  0.06478000  0.06478000  0.43522000  1
  Nb  Nb12  1  0.43522000  0.06478000  0.43522000  1
  Nb  Nb13  1  0.06478000  0.43522000  0.06478000  1
  Nb  Nb14  1  0.06478000  0.43522000  0.43522000  1
  Nb  Nb15  1  0.43522000  0.06478000  0.06478000  1
  Fe  Fe0  1  0.74267100  0.41911000  0.41911000  1
  Fe  Fe1  1  0.41911000  0.74267100  0.41911000  1
  Fe  Fe2  1  0.41911000  0.41911000  0.74267100  1
  Fe  Fe3  1  0.41911000  0.41911000  0.41911000  1
  Fe  Fe4  1  0.50732900  0.83089000  0.83089000  1
  Fe  Fe5  1  0.83089000  0.50732900  0.83089000  1
  Fe  Fe6  1  0.83089000  0.83089000  0.50732900  1
  Fe  Fe7  1  0.83089000  0.83089000  0.83089000  1
  N  N0  1  0.62500000  0.12500000  0.12500000  1
  N  N1  1  0.12500000  0.62500000  0.12500000  1
  N  N2  1  0.12500000  0.12500000  0.62500000  1
  N  N3  1  0.12500000  0.12500000  0.12500000  1
loop_
_geom_bond_atom_site_label_1
_geom_bond_atom_site_label_2
_geom_bond_distance
_geom_bond_site_symmetry_2
Fe0 Nb3 2.521358 1_555
Fe0 Nb1 2.521365 1_555
Fe0 Nb2 2.521365 1_555
Fe0 Fe3 2.681450 1_555
Fe0 Fe2 2.681450 1_555
Fe0 Fe1 2.681450 1_555
Fe0 Nb14 2.809277 1_655
Fe0 Nb11 2.809282 1_655
Fe0 Nb13 2.809282 1_655
Fe0 Nb6 3.051503 1_555
Fe0 Nb4 3.051503 1_555
Fe0 Nb9 3.051510 1_555
Fe1 Nb3 2.521358 1_555
Fe1 Nb0 2.521365 1_555
Fe1 Nb2 2.521365 1_555
Fe1 Fe3 2.681450 1_555
Fe1 Fe2 2.681450 1_555
Fe1 Nb12 2.809277 1_565
Fe1 Nb11 2.809282 1_565
Fe1 Nb15 2.809282 1_565
Fe1 Nb4 3.051503 1_555
Fe1 Nb8 3.051503 1_555
Fe1 Nb7 3.051510 1_555
Fe2 Nb3 2.521358 1_555
Fe2 Nb0 2.521365 1_555
Fe2 Nb1 2.521365 1_555
Fe2 Fe3 2.681450 1_555
Fe2 Nb10 2.809277 1_556
Fe2 Nb13 2.809282 1_556
Fe2 Nb15 2.809282 1_556
Fe2 Nb6 3.051503 1_555
Fe2 Nb8 3.051503 1_555
Fe2 Nb5 3.051510 1_555
Fe3 Nb2 2.521360 1_555
Fe3 Nb0 2.521360 1_555
Fe3 Nb1 2.521360 1_555
Fe3 Nb10 2.809286 1_555
Fe3 Nb14 2.809286 1_555
Fe3 Nb12 2.809286 1_555
Fe3 Nb9 3.051506 1_555
Fe3 Nb5 3.051506 1_555
Fe3 Nb7 3.051506 1_555
Fe4 Nb3 2.521358 1_555
Fe4 Nb1 2.521365 1_565
Fe4 Nb2 2.521365 1_556
Fe4 Fe6 2.681450 1_555
Fe4 Fe7 2.681450 1_555
Fe4 Fe5 2.681450 1_555
Fe4 Nb8 2.809277 1_555
Fe4 Nb7 2.809282 1_556
Fe4 Nb5 2.809282 1_565
Fe4 Nb10 3.051503 1_556
Fe4 Nb12 3.051503 1_565
Fe4 Nb15 3.051510 1_566
Fe5 Nb3 2.521358 1_555
Fe5 Nb0 2.521365 1_655
Fe5 Nb2 2.521365 1_556
Fe5 Fe6 2.681450 1_555
Fe5 Fe7 2.681450 1_555
Fe5 Nb6 2.809277 1_555
Fe5 Nb9 2.809282 1_556
Fe5 Nb5 2.809282 1_655
Fe5 Nb10 3.051503 1_556
Fe5 Nb14 3.051503 1_655
Fe5 Nb13 3.051510 1_656
Fe6 Nb3 2.521358 1_555
Fe6 Nb0 2.521365 1_655
Fe6 Nb1 2.521365 1_565
Fe6 Fe7 2.681450 1_555
Fe6 Nb4 2.809277 1_555
Fe6 Nb7 2.809282 1_655
Fe6 Nb9 2.809282 1_565
Fe6 Nb14 3.051503 1_655
Fe6 Nb12 3.051503 1_565
Fe6 Nb11 3.051510 1_665
Fe7 Nb1 2.521360 1_565
Fe7 Nb2 2.521360 1_556
Fe7 Nb0 2.521360 1_655
Fe7 Nb6 2.809286 1_565
Fe7 Nb8 2.809286 1_655
Fe7 Nb4 2.809286 1_556
Fe7 Nb15 3.051506 1_566
Fe7 Nb13 3.051506 1_656
Fe7 Nb11 3.051506 1_665
N0 Nb9 2.188742 1_555
N0 Nb10 2.188742 1_555
N0 Nb4 2.188742 1_545
N0 Nb6 2.188742 1_554
N0 Nb12 2.188742 1_555
N0 Nb15 2.188742 1_555
N1 Nb7 2.188742 1_555
N1 Nb10 2.188742 1_555
N1 Nb13 2.188742 1_555
N1 Nb14 2.188742 1_555
N1 Nb4 2.188742 1_455
N1 Nb8 2.188742 1_554
N2 Nb5 2.188742 1_555
N2 Nb11 2.188742 1_555
N2 Nb14 2.188742 1_555
N2 Nb6 2.188742 1_455
N2 Nb12 2.188742 1_555
N2 Nb8 2.188742 1_545
N3 Nb13 2.188742 1_555
N3 Nb11 2.188742 1_555
N3 Nb15 2.188742 1_555
N3 Nb5 2.188742 1_554
N3 Nb9 2.188742 1_455
N3 Nb7 2.188742 1_545
