# generated using pymatgen
data_Er4MgZr4O14
_symmetry_space_group_name_H-M   'P 1'
_cell_length_a   4.20148649
_cell_length_b   15.38866619
_cell_length_c   13.73967069
_cell_angle_alpha   26.96233461
_cell_angle_beta   52.29580880
_cell_angle_gamma   56.90357967
_symmetry_Int_Tables_number   1
_chemical_formula_structural   Er4MgZr4O14
_chemical_formula_sum   'Er4 Mg1 Zr4 O14'
_cell_volume   318.66869815
_cell_formula_units_Z   1
loop_
 _symmetry_equiv_pos_site_id
 _symmetry_equiv_pos_as_xyz
  1  'x, y, z'
loop_
 _atom_site_type_symbol
 _atom_site_label
 _atom_site_symmetry_multiplicity
 _atom_site_fract_x
 _atom_site_fract_y
 _atom_site_fract_z
 _atom_site_occupancy
  Er  Er0  1  0.00000000  0.25000000  0.00000000  1
  Er  Er1  1  0.92518741  0.99406659  0.54333920  1
  Er  Er2  1  0.00000000  0.75000000  0.50000000  1
  Er  Er3  1  0.07481259  0.50593341  0.45666080  1
  Mg  Mg0  1  0.50000000  0.25000000  0.00000000  1
  Zr  Zr0  1  0.02678052  0.99325573  0.99335401  1
  Zr  Zr1  1  0.97321948  0.50674427  0.00664599  1
  Zr  Zr2  1  0.00000000  0.25000000  0.50000000  1
  Zr  Zr3  1  0.00000000  0.75000000  0.00000000  1
  O  O0  1  0.23395909  0.00624922  0.12677123  1
  O  O1  1  0.17544806  0.23210741  0.18016906  1
  O  O2  1  0.24205834  0.99779598  0.63117384  1
  O  O3  1  0.26533997  0.50377071  0.11355880  1
  O  O4  1  0.28596316  0.22344276  0.63357516  1
  O  O5  1  0.28566197  0.77356452  0.08360499  1
  O  O6  1  0.71403684  0.27655724  0.36642484  1
  O  O7  1  0.73466003  0.99622929  0.88644120  1
  O  O8  1  0.75794166  0.50220402  0.36882616  1
  O  O9  1  0.82455194  0.26789259  0.81983094  1
  O  O10  1  0.77786628  0.73181433  0.37925303  1
  O  O11  1  0.22213372  0.76818567  0.62074697  1
  O  O12  1  0.76604091  0.49375078  0.87322877  1
  O  O13  1  0.71433803  0.72643548  0.91639501  1
loop_
_geom_bond_atom_site_label_1
_geom_bond_atom_site_label_2
_geom_bond_distance
_geom_bond_site_symmetry_2
Er0 O0 2.119192 1_555
Er0 O12 2.119192 1_454
Er1 O1 2.151312 1_665
Er1 O13 2.195160 1_555
Er1 O11 2.251009 1_655
Er1 O6 2.276556 1_565
Er1 O2 2.324711 1_655
Er1 O2 2.324718 1_555
Er2 O12 2.198469 1_455
Er2 O0 2.198469 1_565
Er2 O10 2.590074 1_455
Er2 O11 2.590074 1_555
Er2 O11 2.590081 1_455
Er2 O10 2.590081 1_555
Er3 O9 2.151312 1_455
Er3 O5 2.195160 1_555
Er3 O10 2.251009 1_455
Er3 O4 2.276556 1_555
Er3 O8 2.324711 1_455
Er3 O8 2.324718 1_555
Mg0 O1 1.768978 1_555
Mg0 O9 1.768978 1_554
O0 Zr0 2.636887 1_644
O0 Zr0 2.636888 1_544
O1 Zr1 2.205002 1_455
O2 Zr3 2.177101 1_556
O2 Zr2 2.192645 1_565
O3 Zr3 2.238367 1_555
O3 Zr2 2.288454 1_555
O3 Zr1 2.385447 1_455
O3 Zr1 2.385454 1_555
O4 Zr0 2.140904 1_545
O4 Zr2 2.408870 1_555
O4 Zr2 2.408877 1_655
O5 Zr0 2.076304 1_554
O5 Zr3 2.407425 1_655
O5 Zr3 2.407433 1_555
O6 Zr1 2.140904 1_555
O6 Zr2 2.408870 1_655
O6 Zr2 2.408877 1_555
O7 Zr3 2.238367 1_656
O7 Zr2 2.288454 1_665
O7 Zr0 2.385447 1_655
O7 Zr0 2.385454 1_555
O8 Zr3 2.177101 1_655
O8 Zr2 2.192645 1_655
O9 Zr0 2.205002 1_645
O10 Zr0 2.275773 1_654
O11 Zr1 2.275773 1_456
O12 Zr1 2.636887 1_456
O12 Zr1 2.636888 1_556
O13 Zr1 2.076304 1_556
O13 Zr3 2.407425 1_556
O13 Zr3 2.407433 1_656
