# generated using pymatgen
data_Mg6CdSi
_symmetry_space_group_name_H-M   'P 1'
_cell_length_a   4.91051500
_cell_length_b   6.46904000
_cell_length_c   10.61872800
_cell_angle_alpha   90.00000000
_cell_angle_beta   90.00000000
_cell_angle_gamma   90.00000000
_symmetry_Int_Tables_number   1
_chemical_formula_structural   Mg6CdSi
_chemical_formula_sum   'Mg12 Cd2 Si2'
_cell_volume   337.31788993
_cell_formula_units_Z   2
loop_
 _symmetry_equiv_pos_site_id
 _symmetry_equiv_pos_as_xyz
  1  'x, y, z'
loop_
 _atom_site_type_symbol
 _atom_site_label
 _atom_site_symmetry_multiplicity
 _atom_site_fract_x
 _atom_site_fract_y
 _atom_site_fract_z
 _atom_site_occupancy
  Mg  Mg0  1  0.50000000  0.25012200  0.08428900  1
  Mg  Mg1  1  0.50000000  0.74987800  0.08428900  1
  Mg  Mg2  1  0.00000000  0.24642100  0.91430300  1
  Mg  Mg3  1  0.00000000  0.75357900  0.91430300  1
  Mg  Mg4  1  0.00000000  0.50000000  0.16914500  1
  Mg  Mg5  1  0.00000000  0.50000000  0.66681700  1
  Mg  Mg6  1  0.50000000  0.75012200  0.58428900  1
  Mg  Mg7  1  0.50000000  0.24987800  0.58428900  1
  Mg  Mg8  1  0.00000000  0.74642100  0.41430300  1
  Mg  Mg9  1  0.00000000  0.25357900  0.41430300  1
  Mg  Mg10  1  0.00000000  0.00000000  0.66914500  1
  Mg  Mg11  1  0.00000000  0.00000000  0.16681700  1
  Cd  Cd0  1  0.50000000  0.50000000  0.83390500  1
  Cd  Cd1  1  0.50000000  0.00000000  0.33390500  1
  Si  Si0  1  0.50000000  0.50000000  0.33295400  1
  Si  Si1  1  0.50000000  0.00000000  0.83295400  1
loop_
_geom_bond_atom_site_label_1
_geom_bond_atom_site_label_2
_geom_bond_distance
_geom_bond_site_symmetry_2
Mg0 Mg2 3.047460 1_554
Mg0 Mg2 3.047460 1_654
Mg0 Mg11 3.068281 1_555
Mg0 Mg11 3.068281 1_655
Mg0 Mg4 3.074603 1_555
Mg0 Mg4 3.074603 1_655
Mg0 Si0 3.096005 1_555
Mg0 Si1 3.121039 1_554
Mg0 Mg1 3.232942 1_555
Mg0 Mg1 3.236098 1_545
Mg1 Mg3 3.047460 1_654
Mg1 Mg3 3.047460 1_554
Mg1 Mg11 3.068281 1_565
Mg1 Mg11 3.068281 1_665
Mg1 Mg4 3.074603 1_655
Mg1 Mg4 3.074603 1_555
Mg1 Si0 3.096005 1_555
Mg1 Si1 3.121039 1_564
Mg2 Si1 3.052156 1_455
Mg2 Si1 3.052156 1_555
Mg2 Mg5 3.097946 1_555
Mg3 Si1 3.052156 1_465
Mg3 Si1 3.052156 1_565
Mg3 Mg5 3.097946 1_555
Mg4 Si0 3.008979 1_555
Mg4 Si0 3.008979 1_455
Mg5 Mg7 3.068281 1_555
Mg5 Mg6 3.068281 1_455
Mg5 Mg6 3.068281 1_555
Mg5 Mg7 3.068281 1_455
Mg5 Mg8 3.119449 1_555
Mg5 Mg9 3.119449 1_555
Mg6 Mg8 3.047460 1_555
Mg6 Mg8 3.047460 1_655
Mg6 Si1 3.096005 1_565
Mg6 Si0 3.121039 1_555
Mg6 Mg7 3.232942 1_565
Mg6 Mg7 3.236098 1_555
Mg7 Mg9 3.047460 1_655
Mg7 Mg9 3.047460 1_555
Mg7 Si1 3.096005 1_555
Mg7 Si0 3.121039 1_555
Mg8 Si0 3.052156 1_555
Mg8 Si0 3.052156 1_455
Mg9 Si0 3.052156 1_555
Mg9 Si0 3.052156 1_455
Mg10 Si1 3.008979 1_455
Mg10 Si1 3.008979 1_555
Mg10 Mg7 3.074603 1_455
Mg10 Mg7 3.074603 1_555
Mg10 Mg6 3.074603 1_545
Mg10 Mg6 3.074603 1_445
Mg10 Mg5 3.234614 1_545
Mg10 Mg5 3.234614 1_555
Mg11 Mg9 3.097946 1_555
Mg11 Mg8 3.097946 1_545
Mg11 Mg3 3.119449 1_544
Mg11 Mg2 3.119449 1_554
Mg11 Mg4 3.234614 1_545
Mg11 Mg4 3.234614 1_555
Cd0 Mg5 3.029240 1_655
Cd0 Mg5 3.029240 1_555
Cd0 Mg2 3.073774 1_555
Cd0 Mg2 3.073774 1_655
Cd0 Mg3 3.073774 1_555
Cd0 Mg3 3.073774 1_655
Cd0 Mg6 3.105445 1_555
Cd0 Mg7 3.105445 1_555
Cd0 Mg1 3.111588 1_556
Cd0 Mg0 3.111588 1_556
Cd0 Si1 3.234536 1_565
Cd0 Si1 3.234536 1_555
Cd1 Mg11 3.029240 1_555
Cd1 Mg11 3.029240 1_655
Cd1 Mg8 3.073774 1_645
Cd1 Mg8 3.073774 1_545
Cd1 Mg9 3.073774 1_555
Cd1 Mg9 3.073774 1_655
Cd1 Mg0 3.105445 1_555
Cd1 Mg1 3.105445 1_545
Cd1 Mg6 3.111588 1_545
Cd1 Mg7 3.111588 1_555
Cd1 Si0 3.234536 1_545
Cd1 Si0 3.234536 1_555
