# generated using pymatgen
data_BaBPO5
_symmetry_space_group_name_H-M   'P 1'
_cell_length_a   7.22862535
_cell_length_b   7.22862535
_cell_length_c   7.06292900
_cell_angle_alpha   90.00000000
_cell_angle_beta   90.00000000
_cell_angle_gamma   119.99999405
_symmetry_Int_Tables_number   1
_chemical_formula_structural   BaBPO5
_chemical_formula_sum   'Ba3 B3 P3 O15'
_cell_volume   319.61483657
_cell_formula_units_Z   3
loop_
 _symmetry_equiv_pos_site_id
 _symmetry_equiv_pos_as_xyz
  1  'x, y, z'
loop_
 _atom_site_type_symbol
 _atom_site_label
 _atom_site_symmetry_multiplicity
 _atom_site_fract_x
 _atom_site_fract_y
 _atom_site_fract_z
 _atom_site_occupancy
  Ba  Ba0  1  0.60677800  0.60677800  0.00000000  1
  Ba  Ba1  1  0.00000000  0.39322200  0.66666700  1
  Ba  Ba2  1  0.39322200  0.00000000  0.33333300  1
  B  B0  1  0.09286600  0.09286600  0.00000000  1
  B  B1  1  0.00000000  0.90713400  0.66666700  1
  B  B2  1  0.90713400  0.00000000  0.33333300  1
  P  P0  1  0.61238900  0.61238900  0.50000000  1
  P  P1  1  0.00000000  0.38761100  0.16666700  1
  P  P2  1  0.38761100  0.00000000  0.83333300  1
  O  O0  1  0.85743400  0.42545600  0.03425800  1
  O  O1  1  0.57454400  0.43197800  0.36759100  1
  O  O2  1  0.56802200  0.14256600  0.70092400  1
  O  O3  1  0.96036300  0.00000000  0.83333300  1
  O  O4  1  0.00000000  0.96036300  0.16666700  1
  O  O5  1  0.03963700  0.03963700  0.50000000  1
  O  O6  1  0.32041400  0.13858600  0.96381900  1
  O  O7  1  0.86141400  0.18182700  0.29715300  1
  O  O8  1  0.81817300  0.67958600  0.63048600  1
  O  O9  1  0.18182700  0.86141400  0.70284700  1
  O  O10  1  0.67958600  0.81817300  0.36951400  1
  O  O11  1  0.13858600  0.32041400  0.03618100  1
  O  O12  1  0.42545600  0.85743400  0.96574200  1
  O  O13  1  0.14256600  0.56802200  0.29907600  1
  O  O14  1  0.43197800  0.57454400  0.63240900  1
loop_
_geom_bond_atom_site_label_1
_geom_bond_atom_site_label_2
_geom_bond_distance
_geom_bond_site_symmetry_2
Ba0 O0 2.726600 1_555
Ba0 O12 2.726600 1_554
Ba0 O14 2.845537 1_554
Ba0 O1 2.845537 1_555
Ba0 O8 2.935839 1_554
Ba0 O10 2.935839 1_555
Ba0 O3 2.955151 1_564
Ba0 O4 2.955151 1_655
Ba0 O6 2.966243 1_554
Ba0 O11 2.966243 1_555
Ba1 O2 2.726600 1_455
Ba1 O14 2.726601 1_555
Ba1 O0 2.845537 1_456
Ba1 O13 2.845537 1_555
Ba1 O11 2.935836 1_556
Ba1 O7 2.935839 1_455
Ba1 O3 2.955148 1_455
Ba1 O5 2.955151 1_555
Ba1 O8 2.966237 1_455
Ba1 O9 2.966244 1_555
Ba2 O13 2.726600 1_545
Ba2 O1 2.726601 1_555
Ba2 O12 2.845537 1_544
Ba2 O2 2.845537 1_555
Ba2 O6 2.935836 1_554
Ba2 O9 2.935839 1_545
Ba2 O4 2.955148 1_545
Ba2 O5 2.955151 1_555
Ba2 O10 2.966237 1_545
Ba2 O7 2.966244 1_555
B0 O4 1.452848 1_545
B0 O3 1.452848 1_454
B0 O11 1.528554 1_555
B0 O6 1.528554 1_554
B1 O3 1.452843 1_465
B1 O5 1.452848 1_565
B1 O9 1.528545 1_555
B1 O8 1.528551 1_455
B2 O4 1.452843 1_645
B2 O5 1.452848 1_655
B2 O7 1.528545 1_555
B2 O10 1.528551 1_545
O0 P1 1.514398 1_655
O1 P0 1.514398 1_555
O2 P2 1.514398 1_555
O6 P2 1.604837 1_555
O7 P1 1.604842 1_655
O8 P0 1.604843 1_555
O9 P2 1.604842 1_565
O10 P0 1.604843 1_555
O11 P1 1.604837 1_555
O12 P2 1.514398 1_565
O13 P1 1.514398 1_555
O14 P0 1.514398 1_555
