# generated using pymatgen
data_SrAs2(XeF6)3
_symmetry_space_group_name_H-M   'P 1'
_cell_length_a   8.93679977
_cell_length_b   8.93679977
_cell_length_c   11.34347826
_cell_angle_alpha   84.00757115
_cell_angle_beta   84.00757115
_cell_angle_gamma   90.23438686
_symmetry_Int_Tables_number   1
_chemical_formula_structural   SrAs2(XeF6)3
_chemical_formula_sum   'Sr2 As4 Xe6 F36'
_cell_volume   895.98589981
_cell_formula_units_Z   2
loop_
 _symmetry_equiv_pos_site_id
 _symmetry_equiv_pos_as_xyz
  1  'x, y, z'
loop_
 _atom_site_type_symbol
 _atom_site_label
 _atom_site_symmetry_multiplicity
 _atom_site_fract_x
 _atom_site_fract_y
 _atom_site_fract_z
 _atom_site_occupancy
  Sr  Sr0  1  0.71428300  0.71428300  0.27699600  1
  Sr  Sr1  1  0.28571700  0.28571700  0.72300400  1
  As  As0  1  0.79974300  0.79974300  0.60087800  1
  As  As1  1  0.20025700  0.20025700  0.39912200  1
  As  As2  1  0.50000000  0.00000000  0.00000000  1
  As  As3  1  0.00000000  0.50000000  0.00000000  1
  Xe  Xe0  1  0.68368900  0.20469700  0.33550100  1
  Xe  Xe1  1  0.31631100  0.79530300  0.66449900  1
  Xe  Xe2  1  0.79530300  0.31631100  0.66449900  1
  Xe  Xe3  1  0.20469700  0.68368900  0.33550100  1
  Xe  Xe4  1  0.50000000  0.50000000  0.00000000  1
  Xe  Xe5  1  0.00000000  0.00000000  0.00000000  1
  F  F0  1  0.69181700  0.69181700  0.50875100  1
  F  F1  1  0.30818300  0.30818300  0.49124900  1
  F  F2  1  0.43035000  0.71704500  0.36133200  1
  F  F3  1  0.56965000  0.28295500  0.63866800  1
  F  F4  1  0.28295500  0.56965000  0.63866800  1
  F  F5  1  0.71704500  0.43035000  0.36133200  1
  F  F6  1  0.90778000  0.90778000  0.16735800  1
  F  F7  1  0.09222000  0.09222000  0.83264200  1
  F  F8  1  0.61271300  0.85693000  0.07111900  1
  F  F9  1  0.38728700  0.14307000  0.92888100  1
  F  F10  1  0.14307000  0.38728700  0.92888100  1
  F  F11  1  0.85693000  0.61271300  0.07111900  1
  F  F12  1  0.88963800  0.88963800  0.46521700  1
  F  F13  1  0.11036200  0.11036200  0.53478300  1
  F  F14  1  0.34155400  0.06216400  0.40169100  1
  F  F15  1  0.65844600  0.93783600  0.59830900  1
  F  F16  1  0.93783600  0.65844600  0.59830900  1
  F  F17  1  0.06216400  0.34155400  0.40169100  1
  F  F18  1  0.35845900  0.96885700  0.12068000  1
  F  F19  1  0.64154100  0.03114300  0.87932000  1
  F  F20  1  0.03114300  0.64154100  0.87932000  1
  F  F21  1  0.96885700  0.35845900  0.12068000  1
  F  F22  1  0.29922200  0.29922200  0.27110500  1
  F  F23  1  0.70077800  0.70077800  0.72889500  1
  F  F24  1  0.54128700  0.54128700  0.17126600  1
  F  F25  1  0.45871300  0.45871300  0.82873400  1
  F  F26  1  0.64693900  0.98083400  0.31442100  1
  F  F27  1  0.35306100  0.01916600  0.68557900  1
  F  F28  1  0.01916600  0.35306100  0.68557900  1
  F  F29  1  0.98083400  0.64693900  0.31442100  1
  F  F30  1  0.90453700  0.90453700  0.68705900  1
  F  F31  1  0.09546300  0.09546300  0.31294100  1
  F  F32  1  0.58573900  0.13821200  0.07264500  1
  F  F33  1  0.41426100  0.86178800  0.92735500  1
  F  F34  1  0.86178800  0.41426100  0.92735500  1
  F  F35  1  0.13821200  0.58573900  0.07264500  1
loop_
_geom_bond_atom_site_label_1
_geom_bond_atom_site_label_2
_geom_bond_distance
_geom_bond_site_symmetry_2
As0 F30 1.756411 1_555
As0 F23 1.769315 1_555
As0 F15 1.769553 1_555
As0 F16 1.769553 1_555
As0 F12 1.771269 1_555
As0 F0 1.834661 1_555
As1 F31 1.756411 1_555
As1 F22 1.769315 1_555
As1 F14 1.769553 1_555
As1 F17 1.769553 1_555
As1 F13 1.771269 1_555
As1 F1 1.834661 1_555
As2 F19 1.762807 1_554
As2 F18 1.762807 1_545
As2 F32 1.768736 1_555
As2 F33 1.768736 1_544
As2 F8 1.806956 1_545
As2 F9 1.806956 1_554
As3 F20 1.762807 1_554
As3 F21 1.762807 1_455
As3 F35 1.768736 1_555
As3 F34 1.768736 1_454
As3 F11 1.806956 1_455
As3 F10 1.806956 1_554
F0 Sr0 2.602122 1_555
F1 Sr1 2.602122 1_555
F2 Xe3 2.092403 1_555
F2 Sr0 2.617838 1_555
F3 Xe2 2.092403 1_555
F3 Sr1 2.617838 1_555
F4 Xe1 2.092403 1_555
F4 Sr1 2.617838 1_555
F5 Xe0 2.092403 1_555
F5 Sr0 2.617838 1_555
F6 Xe5 2.074499 1_665
F6 Sr0 2.569973 1_555
F7 Xe5 2.074499 1_556
F7 Sr1 2.569973 1_555
F8 Sr0 2.780909 1_555
F9 Sr1 2.780909 1_555
F10 Sr1 2.780909 1_555
F11 Sr0 2.780909 1_555
F24 Xe4 2.084417 1_555
F24 Sr0 2.640757 1_555
F25 Xe4 2.084417 1_556
F25 Sr1 2.640757 1_555
F26 Xe0 2.068435 1_565
F26 Sr0 2.527139 1_555
F27 Xe1 2.068435 1_545
F27 Sr1 2.527139 1_555
F28 Xe2 2.068435 1_455
F28 Sr1 2.527139 1_555
F29 Xe3 2.068435 1_655
F29 Sr0 2.527139 1_555
