# generated using pymatgen
data_KBa2Cd2Sb3
_symmetry_space_group_name_H-M   'P 1'
_cell_length_a   5.03329400
_cell_length_b   13.36270700
_cell_length_c   17.03458300
_cell_angle_alpha   90.00000000
_cell_angle_beta   90.00000000
_cell_angle_gamma   90.00000000
_symmetry_Int_Tables_number   1
_chemical_formula_structural   KBa2Cd2Sb3
_chemical_formula_sum   'K4 Ba8 Cd8 Sb12'
_cell_volume   1145.71935882
_cell_formula_units_Z   4
loop_
 _symmetry_equiv_pos_site_id
 _symmetry_equiv_pos_as_xyz
  1  'x, y, z'
loop_
 _atom_site_type_symbol
 _atom_site_label
 _atom_site_symmetry_multiplicity
 _atom_site_fract_x
 _atom_site_fract_y
 _atom_site_fract_z
 _atom_site_occupancy
  K  K0  1  0.25000000  0.39886300  0.44572500  1
  K  K1  1  0.25000000  0.89886300  0.05427500  1
  K  K2  1  0.75000000  0.60113700  0.55427500  1
  K  K3  1  0.75000000  0.10113700  0.94572500  1
  Ba  Ba0  1  0.25000000  0.09965500  0.57234600  1
  Ba  Ba1  1  0.25000000  0.59965500  0.92765400  1
  Ba  Ba2  1  0.75000000  0.90034500  0.42765400  1
  Ba  Ba3  1  0.75000000  0.40034500  0.07234600  1
  Ba  Ba4  1  0.25000000  0.37284600  0.71039400  1
  Ba  Ba5  1  0.25000000  0.87284600  0.78960600  1
  Ba  Ba6  1  0.75000000  0.62715400  0.28960600  1
  Ba  Ba7  1  0.75000000  0.12715400  0.21039400  1
  Cd  Cd0  1  0.25000000  0.30417600  0.91634800  1
  Cd  Cd1  1  0.25000000  0.80417600  0.58365200  1
  Cd  Cd2  1  0.75000000  0.69582400  0.08365200  1
  Cd  Cd3  1  0.75000000  0.19582400  0.41634800  1
  Cd  Cd4  1  0.25000000  0.36519100  0.21649900  1
  Cd  Cd5  1  0.25000000  0.86519100  0.28350100  1
  Cd  Cd6  1  0.75000000  0.63480900  0.78350100  1
  Cd  Cd7  1  0.75000000  0.13480900  0.71649900  1
  Sb  Sb0  1  0.25000000  0.07811300  0.36527200  1
  Sb  Sb1  1  0.25000000  0.57811300  0.13472800  1
  Sb  Sb2  1  0.75000000  0.92188700  0.63472800  1
  Sb  Sb3  1  0.75000000  0.42188700  0.86527200  1
  Sb  Sb4  1  0.25000000  0.13365800  0.80350000  1
  Sb  Sb5  1  0.25000000  0.63365800  0.69650000  1
  Sb  Sb6  1  0.75000000  0.86634200  0.19650000  1
  Sb  Sb7  1  0.75000000  0.36634200  0.30350000  1
  Sb  Sb8  1  0.25000000  0.71307700  0.42430000  1
  Sb  Sb9  1  0.25000000  0.21307700  0.07570000  1
  Sb  Sb10  1  0.75000000  0.28692300  0.57570000  1
  Sb  Sb11  1  0.75000000  0.78692300  0.92430000  1
loop_
_geom_bond_atom_site_label_1
_geom_bond_atom_site_label_2
_geom_bond_distance
_geom_bond_site_symmetry_2
K0 Sb7 3.520234 1_455
K0 Sb7 3.520234 1_555
K0 Sb10 3.670572 1_555
K0 Sb10 3.670572 1_455
K1 Sb6 3.520234 1_455
K1 Sb6 3.520234 1_555
K1 Sb11 3.670572 1_454
K1 Sb11 3.670572 1_554
K2 Sb5 3.520234 1_555
K2 Sb5 3.520234 1_655
K2 Sb8 3.670572 1_655
K2 Sb8 3.670572 1_555
K3 Sb4 3.520234 1_555
K3 Sb4 3.520234 1_655
K3 Sb9 3.670572 1_556
K3 Sb9 3.670572 1_656
Ba0 Sb0 3.539145 1_555
Ba0 Cd7 3.547405 1_455
Ba0 Cd7 3.547405 1_555
Ba0 Sb10 3.549482 1_455
Ba0 Sb10 3.549482 1_555
Ba0 Sb2 3.620160 1_445
Ba0 Sb2 3.620160 1_545
Ba0 Cd3 3.878982 1_555
Ba0 Cd3 3.878982 1_455
Ba0 Cd1 3.953094 1_545
Ba0 Sb4 3.963741 1_555
Ba1 Sb1 3.539145 1_556
Ba1 Cd6 3.547405 1_455
Ba1 Cd6 3.547405 1_555
Ba1 Sb11 3.549482 1_455
Ba1 Sb11 3.549482 1_555
Ba1 Sb3 3.620160 1_455
Ba1 Sb3 3.620160 1_555
Ba1 Cd2 3.878982 1_456
Ba1 Cd2 3.878982 1_556
Ba1 Cd0 3.953094 1_555
Ba1 Sb5 3.963741 1_555
Ba2 Sb2 3.539145 1_555
Ba2 Cd5 3.547405 1_655
Ba2 Cd5 3.547405 1_555
Ba2 Sb8 3.549482 1_555
Ba2 Sb8 3.549482 1_655
Ba2 Sb0 3.620160 1_565
Ba2 Sb0 3.620160 1_665
Ba2 Cd1 3.878982 1_555
Ba2 Cd1 3.878982 1_655
Ba2 Cd3 3.953094 1_565
Ba2 Sb6 3.963741 1_555
Ba3 Sb3 3.539145 1_554
Ba3 Cd4 3.547405 1_655
Ba3 Cd4 3.547405 1_555
Ba3 Sb9 3.549482 1_555
Ba3 Sb9 3.549482 1_655
Ba3 Sb1 3.620160 1_555
Ba3 Sb1 3.620160 1_655
Ba3 Cd0 3.878982 1_554
Ba3 Cd0 3.878982 1_654
Ba3 Cd2 3.953094 1_555
Ba3 Sb7 3.963741 1_555
Ba4 Sb5 3.493182 1_555
Ba4 Sb4 3.568074 1_555
Ba4 Sb10 3.593928 1_455
Ba4 Sb10 3.593928 1_555
Ba4 Cd0 3.626358 1_555
Ba4 Sb3 3.704523 1_555
Ba4 Sb3 3.704523 1_455
Ba4 Cd7 4.057331 1_555
Ba4 Cd7 4.057331 1_455
Ba5 Sb4 3.493182 1_565
Ba5 Sb5 3.568074 1_555
Ba5 Sb11 3.593928 1_555
Ba5 Sb11 3.593928 1_455
Ba5 Cd1 3.626358 1_555
Ba5 Sb2 3.704523 1_455
Ba5 Sb2 3.704523 1_555
Ba5 Cd6 4.057331 1_455
Ba5 Cd6 4.057331 1_555
Ba6 Sb7 3.493182 1_555
Ba6 Sb6 3.568074 1_555
Ba6 Sb8 3.593928 1_555
Ba6 Sb8 3.593928 1_655
Ba6 Cd2 3.626358 1_555
Ba6 Sb1 3.704523 1_555
Ba6 Sb1 3.704523 1_655
Ba6 Cd5 4.057331 1_555
Ba6 Cd5 4.057331 1_655
Ba7 Sb6 3.493182 1_545
Ba7 Sb7 3.568074 1_555
Ba7 Sb9 3.593928 1_555
Ba7 Sb9 3.593928 1_655
Ba7 Cd3 3.626358 1_555
Ba7 Sb0 3.704523 1_555
Ba7 Sb0 3.704523 1_655
Ba7 Cd4 4.057331 1_655
Ba7 Cd4 4.057331 1_555
Cd0 Sb9 2.974958 1_556
Cd0 Sb4 2.981148 1_555
Cd0 Sb3 3.092676 1_555
Cd0 Sb3 3.092676 1_455
Cd0 K3 3.734317 1_555
Cd0 K3 3.734317 1_455
Cd1 Sb8 2.974958 1_555
Cd1 Sb5 2.981148 1_555
Cd1 Sb2 3.092676 1_555
Cd1 Sb2 3.092676 1_455
Cd1 K2 3.734317 1_455
Cd1 K2 3.734317 1_555
Cd2 Sb11 2.974958 1_554
Cd2 Sb6 2.981148 1_555
Cd2 Sb1 3.092676 1_555
Cd2 Sb1 3.092676 1_655
Cd2 K1 3.734317 1_655
Cd2 K1 3.734317 1_555
Cd3 Sb10 2.974958 1_555
Cd3 Sb7 2.981148 1_555
Cd3 Sb0 3.092676 1_555
Cd3 Sb0 3.092676 1_655
Cd3 K0 3.734317 1_555
Cd3 K0 3.734317 1_655
Cd4 Sb7 2.920642 1_455
Cd4 Sb7 2.920642 1_555
Cd4 Sb9 3.143924 1_555
Cd4 Sb1 3.167888 1_555
Cd4 K0 3.930608 1_555
Cd5 Sb6 2.920642 1_455
Cd5 Sb6 2.920642 1_555
Cd5 Sb8 3.143924 1_555
Cd5 Sb0 3.167888 1_565
Cd5 K1 3.930608 1_555
Cd6 Sb5 2.920642 1_555
Cd6 Sb5 2.920642 1_655
Cd6 Sb11 3.143924 1_555
Cd6 Sb3 3.167888 1_555
Cd6 K2 3.930608 1_555
Cd7 Sb4 2.920642 1_655
Cd7 Sb4 2.920642 1_555
Cd7 Sb10 3.143924 1_555
Cd7 Sb2 3.167888 1_545
Cd7 K3 3.930608 1_555
