# generated using pymatgen
data_Y6Zn23
_symmetry_space_group_name_H-M   'P 1'
_cell_length_a   8.89053066
_cell_length_b   8.89053066
_cell_length_c   8.89053066
_cell_angle_alpha   60.00000000
_cell_angle_beta   60.00000000
_cell_angle_gamma   60.00000000
_symmetry_Int_Tables_number   1
_chemical_formula_structural   Y6Zn23
_chemical_formula_sum   'Y6 Zn23'
_cell_volume   496.89892205
_cell_formula_units_Z   1
loop_
 _symmetry_equiv_pos_site_id
 _symmetry_equiv_pos_as_xyz
  1  'x, y, z'
loop_
 _atom_site_type_symbol
 _atom_site_label
 _atom_site_symmetry_multiplicity
 _atom_site_fract_x
 _atom_site_fract_y
 _atom_site_fract_z
 _atom_site_occupancy
  Y  Y0  1  0.70828800  0.70828800  0.29171200  1
  Y  Y1  1  0.29171200  0.70828800  0.29171200  1
  Y  Y2  1  0.70828800  0.29171200  0.29171200  1
  Y  Y3  1  0.29171200  0.29171200  0.70828800  1
  Y  Y4  1  0.70828800  0.29171200  0.70828800  1
  Y  Y5  1  0.29171200  0.70828800  0.70828800  1
  Zn  Zn0  1  0.00000000  -0.00000000  -0.00000000  1
  Zn  Zn1  1  0.00000000  -0.00000000  0.50000000  1
  Zn  Zn2  1  0.50000000  -0.00000000  0.50000000  1
  Zn  Zn3  1  0.00000000  0.50000000  0.50000000  1
  Zn  Zn4  1  0.50000000  0.50000000  -0.00000000  1
  Zn  Zn5  1  0.00000000  0.50000000  -0.00000000  1
  Zn  Zn6  1  0.50000000  -0.00000000  -0.00000000  1
  Zn  Zn7  1  0.87643265  0.87643265  0.37070205  1
  Zn  Zn8  1  0.87643265  0.37070205  0.87643265  1
  Zn  Zn9  1  0.37070205  0.87643265  0.87643265  1
  Zn  Zn10  1  0.87643265  0.87643265  0.87643265  1
  Zn  Zn11  1  0.12356735  0.12356735  0.62929795  1
  Zn  Zn12  1  0.12356735  0.62929795  0.12356735  1
  Zn  Zn13  1  0.62929795  0.12356735  0.12356735  1
  Zn  Zn14  1  0.12356735  0.12356735  0.12356735  1
  Zn  Zn15  1  0.67247275  0.67247275  0.98258275  1
  Zn  Zn16  1  0.67247275  0.98258275  0.67247275  1
  Zn  Zn17  1  0.98258275  0.67247275  0.67247275  1
  Zn  Zn18  1  0.67247275  0.67247275  0.67247275  1
  Zn  Zn19  1  0.32752725  0.32752725  0.01741725  1
  Zn  Zn20  1  0.32752725  0.01741725  0.32752725  1
  Zn  Zn21  1  0.01741725  0.32752725  0.32752725  1
  Zn  Zn22  1  0.32752725  0.32752725  0.32752725  1
loop_
_geom_bond_atom_site_label_1
_geom_bond_atom_site_label_2
_geom_bond_distance
_geom_bond_site_symmetry_2
Y0 Zn10 3.049087 1_554
Y0 Zn13 3.049087 1_565
Y0 Zn12 3.049087 1_655
Y0 Zn7 3.049087 1_555
Y0 Zn15 3.099624 1_554
Y0 Zn21 3.099630 1_655
Y0 Zn20 3.099630 1_565
Y0 Zn18 3.099633 1_555
Y0 Zn5 3.186729 1_655
Y0 Zn6 3.186729 1_565
Y0 Zn3 3.186729 1_655
Y0 Zn2 3.186729 1_565
Y1 Zn12 3.049087 1_555
Y1 Zn7 3.049087 1_455
Y1 Zn9 3.049087 1_554
Y1 Zn14 3.049087 1_565
Y1 Zn20 3.099624 1_565
Y1 Zn17 3.099630 1_455
Y1 Zn15 3.099630 1_554
Y1 Zn22 3.099633 1_555
Y1 Zn3 3.186729 1_555
Y1 Zn4 3.186729 1_555
Y1 Zn1 3.186729 1_565
Y1 Zn6 3.186729 1_565
Y2 Zn13 3.049087 1_555
Y2 Zn7 3.049087 1_545
Y2 Zn8 3.049087 1_554
Y2 Zn14 3.049087 1_655
Y2 Zn21 3.099624 1_655
Y2 Zn16 3.099630 1_545
Y2 Zn15 3.099630 1_554
Y2 Zn22 3.099633 1_555
Y2 Zn2 3.186729 1_555
Y2 Zn4 3.186729 1_555
Y2 Zn1 3.186729 1_655
Y2 Zn5 3.186729 1_655
Y3 Zn11 3.049087 1_555
Y3 Zn9 3.049087 1_545
Y3 Zn8 3.049087 1_455
Y3 Zn14 3.049087 1_556
Y3 Zn19 3.099624 1_556
Y3 Zn16 3.099630 1_545
Y3 Zn17 3.099630 1_455
Y3 Zn22 3.099633 1_555
Y3 Zn2 3.186729 1_555
Y3 Zn3 3.186729 1_555
Y3 Zn6 3.186729 1_556
Y3 Zn5 3.186729 1_556
Y4 Zn10 3.049087 1_545
Y4 Zn13 3.049087 1_556
Y4 Zn11 3.049087 1_655
Y4 Zn8 3.049087 1_555
Y4 Zn16 3.099624 1_545
Y4 Zn21 3.099630 1_655
Y4 Zn19 3.099630 1_556
Y4 Zn18 3.099633 1_555
Y4 Zn1 3.186729 1_655
Y4 Zn6 3.186729 1_556
Y4 Zn3 3.186729 1_655
Y4 Zn4 3.186729 1_556
Y5 Zn10 3.049087 1_455
Y5 Zn12 3.049087 1_556
Y5 Zn11 3.049087 1_565
Y5 Zn9 3.049087 1_555
Y5 Zn17 3.099624 1_455
Y5 Zn20 3.099630 1_565
Y5 Zn19 3.099630 1_556
Y5 Zn18 3.099633 1_555
Y5 Zn5 3.186729 1_556
Y5 Zn1 3.186729 1_565
Y5 Zn2 3.186729 1_565
Y5 Zn4 3.186729 1_556
Zn0 Zn10 2.690959 1_444
Zn0 Zn13 2.690959 1_455
Zn0 Zn11 2.690959 1_554
Zn0 Zn12 2.690959 1_545
Zn0 Zn8 2.690959 1_454
Zn0 Zn14 2.690959 1_555
Zn0 Zn9 2.690959 1_544
Zn0 Zn7 2.690959 1_445
Zn1 Zn17 2.569585 1_445
Zn1 Zn16 2.569585 1_445
Zn1 Zn21 2.569585 1_555
Zn1 Zn20 2.569585 1_555
Zn1 Zn7 2.732716 1_445
Zn1 Zn11 2.732716 1_555
Zn1 Zn14 2.732716 1_555
Zn1 Zn10 2.732716 1_445
Zn2 Zn22 2.569588 1_555
Zn2 Zn20 2.569593 1_555
Zn2 Zn9 2.732716 1_545
Zn2 Zn7 2.732716 1_545
Zn3 Zn7 2.732716 1_455
Zn3 Zn8 2.732716 1_455
Zn4 Zn8 2.732716 1_554
Zn4 Zn9 2.732716 1_554
Zn5 Zn8 2.732716 1_454
Zn6 Zn9 2.732716 1_544
Zn10 Zn15 2.707835 1_555
Zn10 Zn17 2.707835 1_555
Zn10 Zn16 2.707835 1_555
Zn10 Zn5 2.732716 1_656
Zn10 Zn6 2.732716 1_566
Zn11 Zn22 2.707838 1_555
Zn11 Zn20 2.707842 1_555
Zn11 Zn21 2.707842 1_555
Zn11 Zn3 2.732716 1_555
Zn11 Zn2 2.732716 1_555
Zn12 Zn22 2.707838 1_555
Zn12 Zn19 2.707842 1_555
Zn12 Zn21 2.707842 1_555
Zn12 Zn3 2.732716 1_555
Zn12 Zn4 2.732716 1_555
Zn12 Zn5 2.732716 1_555
Zn13 Zn22 2.707838 1_555
Zn13 Zn19 2.707842 1_555
Zn13 Zn20 2.707842 1_555
Zn13 Zn4 2.732716 1_555
Zn13 Zn2 2.732716 1_555
Zn13 Zn6 2.732716 1_555
Zn14 Zn19 2.707835 1_555
Zn14 Zn21 2.707835 1_555
Zn14 Zn20 2.707835 1_555
Zn14 Zn6 2.732716 1_555
Zn14 Zn5 2.732716 1_555
Zn15 Zn6 2.569585 1_566
Zn15 Zn5 2.569585 1_656
Zn15 Zn4 2.569593 1_556
Zn15 Zn8 2.707842 1_555
Zn15 Zn9 2.707842 1_555
Zn15 Zn17 2.757042 1_555
Zn15 Zn16 2.757042 1_555
Zn15 Zn18 2.757042 1_555
Zn16 Zn6 2.569585 1_566
Zn16 Zn2 2.569593 1_565
Zn16 Zn9 2.707842 1_555
Zn16 Zn7 2.707842 1_555
Zn16 Zn17 2.757042 1_555
Zn16 Zn18 2.757042 1_555
Zn17 Zn5 2.569585 1_656
Zn17 Zn3 2.569593 1_655
Zn17 Zn8 2.707842 1_555
Zn17 Zn7 2.707842 1_555
Zn17 Zn18 2.757042 1_555
Zn18 Zn3 2.569588 1_655
Zn18 Zn4 2.569588 1_556
Zn18 Zn2 2.569588 1_565
Zn18 Zn7 2.707838 1_555
Zn18 Zn9 2.707838 1_555
Zn18 Zn8 2.707838 1_555
Zn19 Zn6 2.569585 1_555
Zn19 Zn5 2.569585 1_555
Zn19 Zn4 2.569593 1_555
Zn19 Zn21 2.757042 1_555
Zn19 Zn22 2.757042 1_555
Zn19 Zn20 2.757042 1_555
Zn20 Zn6 2.569585 1_555
Zn20 Zn21 2.757042 1_555
Zn20 Zn22 2.757042 1_555
Zn21 Zn5 2.569585 1_555
Zn21 Zn3 2.569593 1_555
Zn21 Zn22 2.757042 1_555
Zn22 Zn4 2.569588 1_555
Zn22 Zn3 2.569588 1_555
