# generated using pymatgen
data_La5NiGe3
_symmetry_space_group_name_H-M   'P 1'
_cell_length_a   9.10440833
_cell_length_b   9.10440833
_cell_length_c   7.04736500
_cell_angle_alpha   90.00000000
_cell_angle_beta   90.00000000
_cell_angle_gamma   120.00000243
_symmetry_Int_Tables_number   1
_chemical_formula_structural   La5NiGe3
_chemical_formula_sum   'La10 Ni2 Ge6'
_cell_volume   505.89552946
_cell_formula_units_Z   2
loop_
 _symmetry_equiv_pos_site_id
 _symmetry_equiv_pos_as_xyz
  1  'x, y, z'
loop_
 _atom_site_type_symbol
 _atom_site_label
 _atom_site_symmetry_multiplicity
 _atom_site_fract_x
 _atom_site_fract_y
 _atom_site_fract_z
 _atom_site_occupancy
  La  La0  1  0.24999800  0.00000000  0.25000000  1
  La  La1  1  0.75000200  0.00000000  0.75000000  1
  La  La2  1  0.00000000  0.24999800  0.25000000  1
  La  La3  1  0.00000000  0.75000200  0.75000000  1
  La  La4  1  0.75000200  0.75000200  0.25000000  1
  La  La5  1  0.24999800  0.24999800  0.75000000  1
  La  La6  1  0.33333300  0.66666700  0.00000000  1
  La  La7  1  0.66666700  0.33333300  0.00000000  1
  La  La8  1  0.66666700  0.33333300  0.50000000  1
  La  La9  1  0.33333300  0.66666700  0.50000000  1
  Ni  Ni0  1  0.00000000  0.00000000  0.00000000  1
  Ni  Ni1  1  0.00000000  0.00000000  0.50000000  1
  Ge  Ge0  1  0.60180700  0.00000000  0.25000000  1
  Ge  Ge1  1  0.39819300  0.00000000  0.75000000  1
  Ge  Ge2  1  0.00000000  0.60180700  0.25000000  1
  Ge  Ge3  1  0.00000000  0.39819300  0.75000000  1
  Ge  Ge4  1  0.39819300  0.39819300  0.25000000  1
  Ge  Ge5  1  0.60180700  0.60180700  0.75000000  1
loop_
_geom_bond_atom_site_label_1
_geom_bond_atom_site_label_2
_geom_bond_distance
_geom_bond_site_symmetry_2
La0 Ni0 2.878305 1_555
La0 Ni1 2.878305 1_555
La1 Ni1 2.878305 1_655
La1 Ni0 2.878305 1_656
La2 Ni0 2.878305 1_555
La2 Ni1 2.878305 1_555
La3 Ni1 2.878305 1_565
La3 Ni0 2.878305 1_566
La4 Ni0 2.878305 1_665
La4 Ni1 2.878305 1_665
La5 Ni0 2.878305 1_556
La5 Ni1 2.878305 1_555
Ge0 La2 3.173630 1_655
Ge0 La4 3.173630 1_545
Ge0 La0 3.203013 1_555
Ge0 La8 3.297076 1_555
Ge0 La7 3.297076 1_555
Ge0 La6 3.297079 1_545
Ge0 La9 3.297079 1_545
Ge0 La1 3.773162 1_554
Ge0 La1 3.773162 1_555
Ge1 La3 3.173630 1_545
Ge1 La5 3.173630 1_555
Ge1 La1 3.203013 1_555
Ge1 La9 3.297076 1_545
Ge1 La6 3.297076 1_546
Ge1 La8 3.297079 1_555
Ge1 La7 3.297079 1_556
Ge1 La0 3.773162 1_556
Ge1 La0 3.773162 1_555
Ge2 La0 3.173630 1_565
Ge2 La4 3.173630 1_455
Ge2 La2 3.203013 1_555
Ge2 La6 3.297076 1_555
Ge2 La9 3.297076 1_555
Ge2 La8 3.297079 1_455
Ge2 La7 3.297079 1_455
Ge2 La3 3.773162 1_554
Ge2 La3 3.773162 1_555
Ge3 La1 3.173630 1_455
Ge3 La5 3.173630 1_555
Ge3 La3 3.203013 1_555
Ge3 La7 3.297076 1_456
Ge3 La8 3.297076 1_455
Ge3 La9 3.297079 1_555
Ge3 La6 3.297079 1_556
Ge3 La2 3.773162 1_555
Ge3 La2 3.773162 1_556
Ge4 La0 3.173630 1_555
Ge4 La2 3.173630 1_555
Ge4 La4 3.203013 1_555
Ge4 La7 3.297084 1_555
Ge4 La8 3.297084 1_555
Ge4 La6 3.297084 1_555
Ge4 La9 3.297084 1_555
Ge4 La5 3.773162 1_554
Ge4 La5 3.773162 1_555
Ge5 La3 3.173630 1_655
Ge5 La1 3.173630 1_565
Ge5 La5 3.203013 1_555
Ge5 La8 3.297084 1_555
Ge5 La7 3.297084 1_556
Ge5 La9 3.297084 1_555
Ge5 La6 3.297084 1_556
Ge5 La4 3.773162 1_555
Ge5 La4 3.773162 1_556
