# generated using pymatgen
data_Ba2YCu2F11
_symmetry_space_group_name_H-M   'P 1'
_cell_length_a   7.83658862
_cell_length_b   7.83658862
_cell_length_c   14.04772300
_cell_angle_alpha   90.00000000
_cell_angle_beta   90.00000000
_cell_angle_gamma   120.00000521
_symmetry_Int_Tables_number   1
_chemical_formula_structural   Ba2YCu2F11
_chemical_formula_sum   'Ba6 Y3 Cu6 F33'
_cell_volume   747.12048094
_cell_formula_units_Z   3
loop_
 _symmetry_equiv_pos_site_id
 _symmetry_equiv_pos_as_xyz
  1  'x, y, z'
loop_
 _atom_site_type_symbol
 _atom_site_label
 _atom_site_symmetry_multiplicity
 _atom_site_fract_x
 _atom_site_fract_y
 _atom_site_fract_z
 _atom_site_occupancy
  Ba  Ba0  1  0.89365500  0.86827200  0.66883200  1
  Ba  Ba1  1  0.51949000  0.18578400  0.81050300  1
  Ba  Ba2  1  0.97461800  0.10634500  0.00216500  1
  Ba  Ba3  1  0.81421600  0.33370600  0.47717000  1
  Ba  Ba4  1  0.66629400  0.48051000  0.14383700  1
  Ba  Ba5  1  0.13172800  0.02538200  0.33549900  1
  Y  Y0  1  0.47943900  0.66640900  0.88351800  1
  Y  Y1  1  0.18697000  0.52056100  0.21685100  1
  Y  Y2  1  0.33359100  0.81303000  0.55018400  1
  Cu  Cu0  1  0.97642500  0.66171700  0.89030900  1
  Cu  Cu1  1  0.10892200  0.42003900  0.71898600  1
  Cu  Cu2  1  0.57996100  0.68888300  0.38565200  1
  Cu  Cu3  1  0.68529200  0.02357500  0.22364200  1
  Cu  Cu4  1  0.31111700  0.89107800  0.05231900  1
  Cu  Cu5  1  0.33828300  0.31470800  0.55697600  1
  F  F0  1  0.02968200  0.76821400  0.02214400  1
  F  F1  1  0.84497300  0.39327800  0.93069300  1
  F  F2  1  0.73853200  0.97031800  0.35547800  1
  F  F3  1  0.42563500  0.08972700  0.47395200  1
  F  F4  1  0.86729600  0.94614800  0.18040300  1
  F  F5  1  0.25789400  0.28692700  0.18318900  1
  F  F6  1  0.91027300  0.33590800  0.14061800  1
  F  F7  1  0.71307300  0.97096600  0.84985600  1
  F  F8  1  0.07885200  0.13270400  0.51373600  1
  F  F9  1  0.57810000  0.99914700  0.09419300  1
  F  F10  1  0.66409200  0.57436500  0.80728500  1
  F  F11  1  0.23178600  0.26146800  0.68881100  1
  F  F12  1  0.66411200  0.69710500  0.00235800  1
  F  F13  1  0.36453300  0.14904000  0.02054400  1
  F  F14  1  0.03299300  0.33588800  0.33569100  1
  F  F15  1  0.60672200  0.45169400  0.59736000  1
  F  F16  1  0.33172400  0.83529800  0.89762200  1
  F  F17  1  0.42104700  0.42190000  0.42752600  1
  F  F18  1  0.34576000  0.72240600  0.39542300  1
  F  F19  1  0.30289500  0.96700700  0.66902500  1
  F  F20  1  0.37664600  0.65424000  0.72875600  1
  F  F21  1  0.85096000  0.21549300  0.68721100  1
  F  F22  1  0.78450700  0.63546700  0.35387800  1
  F  F23  1  0.50357500  0.66827600  0.23095500  1
  F  F24  1  0.00085300  0.57895300  0.76085900  1
  F  F25  1  0.05385200  0.92114800  0.84707000  1
  F  F26  1  0.54830600  0.15502700  0.26402600  1
  F  F27  1  0.25217200  0.35943100  0.88530000  1
  F  F28  1  0.10725900  0.74782800  0.21863300  1
  F  F29  1  0.27759400  0.62335400  0.06209000  1
  F  F30  1  0.02903400  0.74210600  0.51652200  1
  F  F31  1  0.16470200  0.49642500  0.56428800  1
  F  F32  1  0.64056900  0.89274100  0.55196600  1
loop_
_geom_bond_atom_site_label_1
_geom_bond_atom_site_label_2
_geom_bond_distance
_geom_bond_site_symmetry_2
Ba0 F32 2.654405 1_555
Ba0 F25 2.738016 1_655
Ba0 F30 2.780276 1_655
Ba0 F8 2.853062 1_665
Ba0 F10 2.860169 1_555
Ba0 F19 2.898688 1_655
Ba0 F11 2.903417 1_665
Ba0 F21 2.914277 1_565
Ba0 F15 3.062817 1_555
Ba0 F24 3.069553 1_655
Ba0 F7 3.202481 1_555
Ba1 F19 2.619217 1_545
Ba1 F10 2.666152 1_555
Ba1 F16 2.676807 1_545
Ba1 F1 2.802345 1_555
Ba1 F7 2.827506 1_545
Ba1 F21 3.032600 1_555
Ba1 F11 3.113627 1_555
Ba1 F13 3.148632 1_556
Ba1 F27 3.192951 1_555
Ba1 F25 3.211310 1_545
Ba2 F27 2.654392 1_654
Ba2 F4 2.738017 1_545
Ba2 F7 2.780266 1_544
Ba2 F25 2.853048 1_644
Ba2 F6 2.860173 1_555
Ba2 F12 2.898690 1_545
Ba2 F0 2.903412 1_645
Ba2 F13 2.914269 1_655
Ba2 F1 3.062817 1_554
Ba2 F9 3.069566 1_545
Ba2 F5 3.202481 1_655
Ba3 F14 2.619228 1_655
Ba3 F3 2.666152 1_555
Ba3 F31 2.676800 1_655
Ba3 F15 2.802340 1_555
Ba3 F30 2.827497 1_655
Ba3 F22 3.032600 1_555
Ba3 F2 3.113627 1_545
Ba3 F21 3.148632 1_555
Ba3 F32 3.192946 1_545
Ba3 F8 3.211308 1_655
Ba4 F12 2.619228 1_555
Ba4 F6 2.666153 1_555
Ba4 F23 2.676794 1_555
Ba4 F26 2.802338 1_555
Ba4 F5 2.827497 1_555
Ba4 F13 3.032607 1_555
Ba4 F0 3.113635 1_655
Ba4 F22 3.148632 1_555
Ba4 F28 3.192946 1_655
Ba4 F4 3.211308 1_555
Ba5 F28 2.654399 1_545
Ba5 F8 2.738006 1_555
Ba5 F5 2.780276 1_555
Ba5 F4 2.853063 1_445
Ba5 F3 2.860168 1_555
Ba5 F14 2.898696 1_555
Ba5 F2 2.903420 1_445
Ba5 F22 2.914272 1_445
Ba5 F26 3.062821 1_555
Ba5 F17 3.069558 1_555
Ba5 F30 3.202470 1_545
Cu0 F25 1.907048 1_655
Cu0 F1 1.908219 1_555
Cu0 F24 1.971886 1_655
Cu0 F0 1.988019 1_656
Cu0 F16 2.413700 1_655
Cu0 F10 2.478753 1_555
Cu1 F21 1.901285 1_455
Cu1 F24 1.915407 1_555
Cu1 F11 1.961479 1_555
Cu1 F20 1.984557 1_555
Cu1 F31 2.238379 1_555
Cu2 F22 1.901282 1_555
Cu2 F17 1.915411 1_555
Cu2 F2 1.961475 1_555
Cu2 F18 1.984558 1_555
Cu2 F23 2.238365 1_555
Cu3 F4 1.907049 1_545
Cu3 F26 1.908212 1_555
Cu3 F9 1.971873 1_545
Cu3 F2 1.988032 1_545
Cu3 F23 2.413700 1_545
Cu3 F6 2.478753 1_555
Cu4 F13 1.901285 1_565
Cu4 F9 1.915411 1_555
Cu4 F0 1.961479 1_555
Cu4 F29 1.984558 1_555
Cu4 F16 2.238367 1_554
Cu5 F8 1.907053 1_555
Cu5 F15 1.908218 1_555
Cu5 F17 1.971886 1_555
Cu5 F11 1.988019 1_555
Cu5 F31 2.413693 1_555
Cu5 F3 2.478753 1_555
F3 Y2 2.191988 1_545
F5 Y1 2.214117 1_555
F6 Y1 2.191995 1_655
F7 Y0 2.214111 1_555
F10 Y0 2.191995 1_555
F12 Y0 2.142696 1_554
F14 Y1 2.142696 1_555
F16 Y0 2.159401 1_555
F18 Y2 2.303829 1_555
F19 Y2 2.142707 1_555
F20 Y0 2.303842 1_555
F23 Y1 2.159408 1_555
F27 Y0 2.162245 1_555
F28 Y1 2.162246 1_555
F29 Y1 2.303829 1_555
F30 Y2 2.214109 1_555
F31 Y2 2.159408 1_555
F32 Y2 2.162245 1_555
