# generated using pymatgen
data_BaC10
_symmetry_space_group_name_H-M   'P 1'
_cell_length_a   9.79314863
_cell_length_b   9.79314863
_cell_length_c   9.79314863
_cell_angle_alpha   109.47122063
_cell_angle_beta   109.47122063
_cell_angle_gamma   109.47122063
_symmetry_Int_Tables_number   1
_chemical_formula_structural   BaC10
_chemical_formula_sum   'Ba6 C60'
_cell_volume   723.01140363
_cell_formula_units_Z   6
loop_
 _symmetry_equiv_pos_site_id
 _symmetry_equiv_pos_as_xyz
  1  'x, y, z'
loop_
 _atom_site_type_symbol
 _atom_site_label
 _atom_site_symmetry_multiplicity
 _atom_site_fract_x
 _atom_site_fract_y
 _atom_site_fract_z
 _atom_site_occupancy
  Ba  Ba0  1  0.27754900  0.50000000  0.77754900  1
  Ba  Ba1  1  0.50000000  0.77754900  0.27754900  1
  Ba  Ba2  1  0.22245100  0.72245100  0.50000000  1
  Ba  Ba3  1  0.50000000  0.22245100  0.72245100  1
  Ba  Ba4  1  0.77754900  0.27754900  0.50000000  1
  Ba  Ba5  1  0.72245100  0.50000000  0.22245100  1
  C  C0  1  0.37558500  0.06426200  0.31132300  1
  C  C1  1  0.93573800  0.31132300  0.24706100  1
  C  C2  1  0.68867700  0.62441500  0.93573800  1
  C  C3  1  0.06426200  0.68867700  0.75293900  1
  C  C4  1  0.31132300  0.24706100  0.93573800  1
  C  C5  1  0.93573800  0.68867700  0.62441500  1
  C  C6  1  0.68867700  0.75293900  0.06426200  1
  C  C7  1  0.31132300  0.37558500  0.06426200  1
  C  C8  1  0.06426200  0.31132300  0.37558500  1
  C  C9  1  0.24706100  0.93573800  0.31132300  1
  C  C10  1  0.62441500  0.93573800  0.68867700  1
  C  C11  1  0.75293900  0.06426200  0.68867700  1
  C  C12  1  0.39984000  0.23189200  0.37559100  1
  C  C13  1  0.76810800  0.16794800  0.14369900  1
  C  C14  1  0.83205200  0.60016000  0.97575100  1
  C  C15  1  0.02424900  0.62440900  0.85630100  1
  C  C16  1  0.16794800  0.14369900  0.76810800  1
  C  C17  1  0.97575100  0.83205200  0.60016000  1
  C  C18  1  0.62440900  0.85630100  0.02424900  1
  C  C19  1  0.37559100  0.39984000  0.23189200  1
  C  C20  1  0.23189200  0.37559100  0.39984000  1
  C  C21  1  0.14369900  0.76810800  0.16794800  1
  C  C22  1  0.60016000  0.97575100  0.83205200  1
  C  C23  1  0.85630100  0.02424900  0.62440900  1
  C  C24  1  0.60016000  0.76810800  0.62440900  1
  C  C25  1  0.23189200  0.83205200  0.85630100  1
  C  C26  1  0.16794800  0.39984000  0.02424900  1
  C  C27  1  0.97575100  0.37559100  0.14369900  1
  C  C28  1  0.83205200  0.85630100  0.23189200  1
  C  C29  1  0.02424900  0.16794800  0.39984000  1
  C  C30  1  0.37559100  0.14369900  0.97575100  1
  C  C31  1  0.62440900  0.60016000  0.76810800  1
  C  C32  1  0.76810800  0.62440900  0.60016000  1
  C  C33  1  0.85630100  0.23189200  0.83205200  1
  C  C34  1  0.39984000  0.02424900  0.16794800  1
  C  C35  1  0.14369900  0.97575100  0.37559100  1
  C  C36  1  0.29386200  0.27019300  0.43676900  1
  C  C37  1  0.72980700  0.02366900  0.16657600  1
  C  C38  1  0.97633100  0.70613800  0.14290700  1
  C  C39  1  0.85709300  0.56323100  0.83342400  1
  C  C40  1  0.02366900  0.16657600  0.72980700  1
  C  C41  1  0.14290700  0.97633100  0.70613800  1
  C  C42  1  0.56323100  0.83342400  0.85709300  1
  C  C43  1  0.43676900  0.29386200  0.27019300  1
  C  C44  1  0.27019300  0.43676900  0.29386200  1
  C  C45  1  0.16657600  0.72980700  0.02366900  1
  C  C46  1  0.70613800  0.14290700  0.97633100  1
  C  C47  1  0.83342400  0.85709300  0.56323100  1
  C  C48  1  0.70613800  0.72980700  0.56323100  1
  C  C49  1  0.27019300  0.97633100  0.83342400  1
  C  C50  1  0.02366900  0.29386200  0.85709300  1
  C  C51  1  0.14290700  0.43676900  0.16657600  1
  C  C52  1  0.97633100  0.83342400  0.27019300  1
  C  C53  1  0.85709300  0.02366900  0.29386200  1
  C  C54  1  0.43676900  0.16657600  0.14290700  1
  C  C55  1  0.56323100  0.70613800  0.72980700  1
  C  C56  1  0.72980700  0.56323100  0.70613800  1
  C  C57  1  0.83342400  0.27019300  0.97633100  1
  C  C58  1  0.29386200  0.85709300  0.02366900  1
  C  C59  1  0.16657600  0.14290700  0.43676900  1
loop_
_geom_bond_atom_site_label_1
_geom_bond_atom_site_label_2
_geom_bond_distance
_geom_bond_site_symmetry_2
Ba0 C50 3.139618 1_555
Ba0 C40 3.139618 1_555
Ba0 C55 3.139618 1_555
Ba0 C42 3.139618 1_555
Ba0 C3 3.220152 1_555
Ba0 C8 3.220152 1_555
Ba0 C26 3.249283 1_556
Ba0 C16 3.249283 1_555
Ba0 C18 3.249283 1_556
Ba0 C31 3.249283 1_555
Ba0 C15 3.300972 1_555
Ba0 C25 3.300972 1_555
Ba0 C20 3.300972 1_555
Ba0 C29 3.300972 1_555
Ba0 C7 3.377582 1_556
Ba0 C2 3.377582 1_555
Ba0 C4 3.377582 1_555
Ba0 C6 3.377582 1_556
Ba0 C58 3.437446 1_556
Ba0 C45 3.437446 1_556
Ba0 C36 3.437446 1_555
Ba0 C59 3.437446 1_555
Ba1 C45 3.139618 1_555
Ba1 C58 3.139618 1_555
Ba1 C47 3.139618 1_555
Ba1 C48 3.139618 1_555
Ba1 C6 3.220152 1_555
Ba1 C7 3.220152 1_555
Ba1 C21 3.249283 1_555
Ba1 C34 3.249283 1_565
Ba1 C23 3.249283 1_565
Ba1 C24 3.249283 1_555
Ba1 C18 3.300972 1_555
Ba1 C28 3.300972 1_555
Ba1 C26 3.300972 1_555
Ba1 C19 3.300972 1_555
Ba1 C9 3.377582 1_555
Ba1 C0 3.377582 1_565
Ba1 C10 3.377582 1_555
Ba1 C11 3.377582 1_565
Ba1 C53 3.437446 1_565
Ba1 C37 3.437446 1_565
Ba1 C51 3.437446 1_555
Ba1 C44 3.437446 1_555
Ba2 C44 3.139618 1_555
Ba2 C51 3.139618 1_555
Ba2 C49 3.139618 1_555
Ba2 C41 3.139618 1_555
Ba2 C9 3.220152 1_555
Ba2 C10 3.220152 1_555
Ba2 C20 3.249283 1_555
Ba2 C25 3.249283 1_555
Ba2 C27 3.249283 1_455
Ba2 C17 3.249283 1_455
Ba2 C24 3.300972 1_555
Ba2 C22 3.300972 1_555
Ba2 C21 3.300972 1_555
Ba2 C35 3.300972 1_555
Ba2 C1 3.377582 1_455
Ba2 C8 3.377582 1_555
Ba2 C3 3.377582 1_555
Ba2 C5 3.377582 1_455
Ba2 C42 3.437446 1_555
Ba2 C55 3.437446 1_555
Ba2 C38 3.437446 1_455
Ba2 C52 3.437446 1_455
Ba3 C36 3.139618 1_555
Ba3 C59 3.139618 1_555
Ba3 C57 3.139618 1_555
Ba3 C46 3.139618 1_555
Ba3 C2 3.220152 1_555
Ba3 C4 3.220152 1_555
Ba3 C35 3.249283 1_545
Ba3 C12 3.249283 1_555
Ba3 C33 3.249283 1_555
Ba3 C22 3.249283 1_545
Ba3 C31 3.300972 1_555
Ba3 C30 3.300972 1_555
Ba3 C14 3.300972 1_555
Ba3 C16 3.300972 1_555
Ba3 C0 3.377582 1_555
Ba3 C9 3.377582 1_545
Ba3 C11 3.377582 1_555
Ba3 C10 3.377582 1_545
Ba3 C56 3.437446 1_555
Ba3 C39 3.437446 1_555
Ba3 C41 3.437446 1_545
Ba3 C49 3.437446 1_545
Ba4 C37 3.139618 1_555
Ba4 C53 3.139618 1_555
Ba4 C39 3.139618 1_555
Ba4 C56 3.139618 1_555
Ba4 C11 3.220152 1_555
Ba4 C0 3.220152 1_555
Ba4 C13 3.249283 1_555
Ba4 C29 3.249283 1_655
Ba4 C32 3.249283 1_555
Ba4 C15 3.249283 1_655
Ba4 C23 3.300972 1_555
Ba4 C34 3.300972 1_555
Ba4 C33 3.300972 1_555
Ba4 C12 3.300972 1_555
Ba4 C1 3.377582 1_555
Ba4 C8 3.377582 1_655
Ba4 C5 3.377582 1_555
Ba4 C3 3.377582 1_655
Ba4 C40 3.437446 1_655
Ba4 C50 3.437446 1_655
Ba4 C54 3.437446 1_555
Ba4 C43 3.437446 1_555
Ba5 C43 3.139618 1_555
Ba5 C54 3.139618 1_555
Ba5 C38 3.139618 1_555
Ba5 C52 3.139618 1_555
Ba5 C1 3.220152 1_555
Ba5 C5 3.220152 1_555
Ba5 C19 3.249283 1_555
Ba5 C30 3.249283 1_554
Ba5 C28 3.249283 1_555
Ba5 C14 3.249283 1_554
Ba5 C17 3.300972 1_555
Ba5 C32 3.300972 1_555
Ba5 C27 3.300972 1_555
Ba5 C13 3.300972 1_555
Ba5 C4 3.377582 1_554
Ba5 C7 3.377582 1_555
Ba5 C6 3.377582 1_555
Ba5 C2 3.377582 1_554
Ba5 C47 3.437446 1_555
Ba5 C48 3.437446 1_555
Ba5 C46 3.437446 1_554
Ba5 C57 3.437446 1_554
C0 C34 1.448808 1_555
C0 C12 1.448808 1_555
C0 C9 1.453369 1_545
C1 C13 1.448808 1_555
C1 C27 1.448808 1_555
C1 C8 1.453369 1_655
C2 C31 1.448808 1_555
C2 C6 1.453369 1_556
C3 C5 1.453369 1_455
C4 C7 1.453369 1_556
C10 C24 1.448808 1_555
C10 C22 1.448808 1_555
C10 C11 1.453369 1_565
C11 C23 1.448808 1_555
C11 C33 1.448808 1_555
C12 C43 1.443826 1_555
C12 C36 1.449496 1_555
C13 C46 1.443826 1_554
C13 C37 1.449496 1_555
C14 C39 1.443826 1_555
C14 C2 1.448808 1_555
C14 C38 1.449496 1_556
C15 C45 1.443826 1_556
C15 C3 1.448808 1_555
C15 C39 1.449496 1_455
C16 C41 1.443826 1_545
C16 C4 1.448808 1_555
C16 C40 1.449496 1_555
C17 C47 1.443826 1_555
C17 C5 1.448808 1_555
C17 C41 1.449496 1_655
C18 C37 1.443826 1_565
C18 C6 1.448808 1_555
C18 C42 1.449496 1_554
C19 C44 1.443826 1_555
C19 C7 1.448808 1_555
C19 C43 1.449496 1_555
C20 C36 1.443826 1_555
C20 C8 1.448808 1_555
C20 C44 1.449496 1_555
C21 C38 1.443826 1_455
C21 C9 1.448808 1_555
C21 C45 1.449496 1_555
C22 C42 1.443826 1_555
C22 C46 1.449496 1_565
C23 C40 1.443826 1_655
C23 C47 1.449496 1_545
C24 C55 1.443826 1_555
C24 C48 1.449496 1_555
C25 C58 1.443826 1_556
C25 C3 1.448808 1_555
C25 C49 1.449496 1_555
C26 C51 1.443826 1_555
C26 C7 1.448808 1_555
C26 C50 1.449496 1_554
C27 C57 1.443826 1_554
C27 C51 1.449496 1_655
C28 C53 1.443826 1_565
C28 C6 1.448808 1_555
C28 C52 1.449496 1_555
C29 C59 1.443826 1_555
C29 C8 1.448808 1_555
C29 C53 1.449496 1_455
C30 C49 1.443826 1_545
C30 C4 1.448808 1_555
C30 C54 1.449496 1_556
C31 C56 1.443826 1_555
C31 C55 1.449496 1_555
C32 C48 1.443826 1_555
C32 C5 1.448808 1_555
C32 C56 1.449496 1_555
C33 C50 1.443826 1_655
C33 C57 1.449496 1_555
C34 C54 1.443826 1_555
C34 C58 1.449496 1_545
C35 C52 1.443826 1_455
C35 C9 1.448808 1_555
C35 C59 1.449496 1_565
C36 C59 1.439370 1_555
C37 C53 1.439370 1_555
C38 C52 1.439370 1_555
C39 C56 1.439370 1_555
C40 C50 1.439370 1_555
C41 C49 1.439370 1_555
C42 C55 1.439370 1_555
C43 C54 1.439370 1_555
C44 C51 1.439370 1_555
C45 C58 1.439370 1_555
C46 C57 1.439370 1_555
C47 C48 1.439370 1_555
