# generated using pymatgen
data_Ca(MoO2)4
_symmetry_space_group_name_H-M   'P 1'
_cell_length_a   3.29391200
_cell_length_b   7.20634507
_cell_length_c   7.30908094
_cell_angle_alpha   87.35604899
_cell_angle_beta   78.04313152
_cell_angle_gamma   78.88058398
_symmetry_Int_Tables_number   1
_chemical_formula_structural   Ca(MoO2)4
_chemical_formula_sum   'Ca1 Mo4 O8'
_cell_volume   166.54217895
_cell_formula_units_Z   1
loop_
 _symmetry_equiv_pos_site_id
 _symmetry_equiv_pos_as_xyz
  1  'x, y, z'
loop_
 _atom_site_type_symbol
 _atom_site_label
 _atom_site_symmetry_multiplicity
 _atom_site_fract_x
 _atom_site_fract_y
 _atom_site_fract_z
 _atom_site_occupancy
  Ca  Ca0  1  0.00000000  0.50000000  0.00000000  1
  Mo  Mo0  1  0.13092600  0.67746300  0.53105600  1
  Mo  Mo1  1  0.65094700  0.97251300  0.17731700  1
  Mo  Mo2  1  0.34905300  0.02748700  0.82268300  1
  Mo  Mo3  1  0.86907400  0.32253700  0.46894400  1
  O  O0  1  0.35872400  0.21208100  0.60843400  1
  O  O1  1  0.96014900  0.88685000  0.72153300  1
  O  O2  1  0.03985100  0.11315000  0.27846700  1
  O  O3  1  0.64127600  0.78791900  0.39156600  1
  O  O4  1  0.63268900  0.54082500  0.68620100  1
  O  O5  1  0.29449800  0.81411100  0.04637700  1
  O  O6  1  0.36731100  0.45917500  0.31379900  1
  O  O7  1  0.70550200  0.18588900  0.95362300  1
loop_
_geom_bond_atom_site_label_1
_geom_bond_atom_site_label_2
_geom_bond_distance
_geom_bond_site_symmetry_2
Ca0 O7 2.689559 1_454
Ca0 O5 2.689559 1_555
Ca0 O6 2.785889 1_555
Ca0 O4 2.785889 1_454
Ca0 O4 2.807830 1_554
Ca0 O6 2.807830 1_455
Ca0 O7 2.890423 1_554
Ca0 O5 2.890423 1_455
Mo0 O1 2.018274 1_455
Mo0 O3 2.056713 1_555
Mo0 O3 2.094204 1_455
Mo0 O4 2.167482 1_455
Mo0 O6 2.201834 1_555
Mo0 O4 2.243415 1_555
Mo1 O3 2.006565 1_555
Mo1 O2 2.043779 1_665
Mo1 O2 2.071503 1_565
Mo1 O5 2.163525 1_555
Mo1 O7 2.196088 1_564
Mo1 O5 2.244855 1_655
Mo2 O0 2.006565 1_555
Mo2 O1 2.043779 1_445
Mo2 O1 2.071503 1_545
Mo2 O7 2.163525 1_555
Mo2 O5 2.196088 1_546
Mo2 O7 2.244855 1_455
Mo3 O2 2.018274 1_655
Mo3 O0 2.056713 1_555
Mo3 O0 2.094204 1_655
Mo3 O6 2.167482 1_655
Mo3 O4 2.201834 1_555
Mo3 O6 2.243415 1_555
