# generated using pymatgen
data_Sr(NO5)2
_symmetry_space_group_name_H-M   'P 1'
_cell_length_a   8.72868384
_cell_length_b   8.72868384
_cell_length_c   6.79974424
_cell_angle_alpha   71.86376004
_cell_angle_beta   71.86376004
_cell_angle_gamma   108.58719185
_symmetry_Int_Tables_number   1
_chemical_formula_structural   Sr(NO5)2
_chemical_formula_sum   'Sr2 N4 O20'
_cell_volume   415.37723048
_cell_formula_units_Z   2
loop_
 _symmetry_equiv_pos_site_id
 _symmetry_equiv_pos_as_xyz
  1  'x, y, z'
loop_
 _atom_site_type_symbol
 _atom_site_label
 _atom_site_symmetry_multiplicity
 _atom_site_fract_x
 _atom_site_fract_y
 _atom_site_fract_z
 _atom_site_occupancy
  Sr  Sr0  1  0.20598600  0.79401400  0.25000000  1
  Sr  Sr1  1  0.79401400  0.20598600  0.75000000  1
  N  N0  1  0.82575400  0.65418400  0.65398200  1
  N  N1  1  0.34581600  0.17424600  0.84601800  1
  N  N2  1  0.17424600  0.34581600  0.34601800  1
  N  N3  1  0.65418400  0.82575400  0.15398200  1
  O  O0  1  0.92035300  0.81375800  0.48667800  1
  O  O1  1  0.18624200  0.07964700  0.01332200  1
  O  O2  1  0.07964700  0.18624200  0.51332200  1
  O  O3  1  0.81375800  0.92035300  0.98667800  1
  O  O4  1  0.89927500  0.54387000  0.64694500  1
  O  O5  1  0.45613000  0.10072500  0.85305500  1
  O  O6  1  0.10072500  0.45613000  0.35305500  1
  O  O7  1  0.54387000  0.89927500  0.14694500  1
  O  O8  1  0.67771600  0.60251600  0.81343900  1
  O  O9  1  0.39748400  0.32228400  0.68656100  1
  O  O10  1  0.32228400  0.39748400  0.18656100  1
  O  O11  1  0.60251600  0.67771600  0.31343900  1
  O  O12  1  0.29237900  0.61257200  0.72044100  1
  O  O13  1  0.38742800  0.70762100  0.77955900  1
  O  O14  1  0.70762100  0.38742800  0.27955900  1
  O  O15  1  0.61257200  0.29237900  0.22044100  1
  O  O16  1  0.09053300  0.80762800  0.85448800  1
  O  O17  1  0.19237200  0.90946700  0.64551200  1
  O  O18  1  0.90946700  0.19237200  0.14551200  1
  O  O19  1  0.80762800  0.09053300  0.35448800  1
loop_
_geom_bond_atom_site_label_1
_geom_bond_atom_site_label_2
_geom_bond_distance
_geom_bond_site_symmetry_2
N0 O8 1.224979 1_555
N0 O0 1.269494 1_555
N0 O4 1.320903 1_555
N1 O9 1.224979 1_555
N1 O1 1.269494 1_556
N1 O5 1.320903 1_555
N2 O10 1.224979 1_555
N2 O2 1.269494 1_555
N2 O6 1.320903 1_555
N3 O11 1.224979 1_555
N3 O3 1.269494 1_554
N3 O7 1.320903 1_555
O0 Sr0 2.604684 1_655
O1 Sr0 2.604684 1_545
O2 Sr1 2.604684 1_455
O3 Sr1 2.604684 1_565
O4 Sr1 2.572657 1_555
O4 Sr0 2.706651 1_655
O5 Sr1 2.572657 1_555
O5 Sr0 2.706651 1_546
O6 Sr0 2.572657 1_555
O6 Sr1 2.706651 1_455
O7 Sr0 2.572657 1_555
O7 Sr1 2.706651 1_564
O12 O13 1.230729 1_555
O14 O15 1.230729 1_555
O16 O17 1.234126 1_555
O16 Sr0 3.134821 1_556
O17 Sr0 3.134821 1_555
O18 O19 1.234126 1_555
O18 Sr1 3.134821 1_554
O19 Sr1 3.134821 1_555
