# generated using pymatgen
data_SrLiVF6
_symmetry_space_group_name_H-M   'P 1'
_cell_length_a   5.32998799
_cell_length_b   5.32998799
_cell_length_c   10.49919600
_cell_angle_alpha   90.00000000
_cell_angle_beta   90.00000000
_cell_angle_gamma   119.99999989
_symmetry_Int_Tables_number   1
_chemical_formula_structural   SrLiVF6
_chemical_formula_sum   'Sr2 Li2 V2 F12'
_cell_volume   258.30876114
_cell_formula_units_Z   2
loop_
 _symmetry_equiv_pos_site_id
 _symmetry_equiv_pos_as_xyz
  1  'x, y, z'
loop_
 _atom_site_type_symbol
 _atom_site_label
 _atom_site_symmetry_multiplicity
 _atom_site_fract_x
 _atom_site_fract_y
 _atom_site_fract_z
 _atom_site_occupancy
  Sr  Sr0  1  0.00000000  0.00000000  0.50000000  1
  Sr  Sr1  1  0.00000000  0.00000000  0.00000000  1
  Li  Li0  1  0.33333300  0.66666700  0.75000000  1
  Li  Li1  1  0.66666700  0.33333300  0.25000000  1
  V  V0  1  0.66666700  0.33333300  0.75000000  1
  V  V1  1  0.33333300  0.66666700  0.25000000  1
  F  F0  1  0.64479600  0.01459800  0.64464200  1
  F  F1  1  0.35520400  0.98540200  0.35535800  1
  F  F2  1  0.98540200  0.63019800  0.64464200  1
  F  F3  1  0.64479600  0.63019800  0.85535800  1
  F  F4  1  0.01459800  0.36980200  0.35535800  1
  F  F5  1  0.35520400  0.36980200  0.14464200  1
  F  F6  1  0.36980200  0.35520400  0.64464200  1
  F  F7  1  0.98540200  0.35520400  0.85535800  1
  F  F8  1  0.63019800  0.64479600  0.35535800  1
  F  F9  1  0.01459800  0.64479600  0.14464200  1
  F  F10  1  0.36980200  0.01459800  0.85535800  1
  F  F11  1  0.63019800  0.98540200  0.14464200  1
loop_
_geom_bond_atom_site_label_1
_geom_bond_atom_site_label_2
_geom_bond_distance
_geom_bond_site_symmetry_2
F0 V0 1.981231 1_555
F0 Li0 2.083265 1_545
F0 Sr0 2.458437 1_655
F1 V1 1.981231 1_555
F1 Li1 2.083265 1_565
F1 Sr0 2.458437 1_565
F2 V0 1.981233 1_555
F2 Li0 2.083263 1_655
F2 Sr0 2.458437 1_665
F3 V0 1.981235 1_555
F3 Li0 2.083268 1_555
F3 Sr1 2.458437 1_666
F4 V1 1.981233 1_555
F4 Li1 2.083263 1_455
F4 Sr0 2.458437 1_555
F5 V1 1.981235 1_555
F5 Li1 2.083268 1_555
F5 Sr1 2.458437 1_555
F6 V0 1.981235 1_555
F6 Li0 2.083268 1_555
F6 Sr0 2.458437 1_555
F7 V0 1.981231 1_555
F7 Li0 2.083265 1_655
F7 Sr1 2.458437 1_656
F8 V1 1.981235 1_555
F8 Li1 2.083268 1_555
F8 Sr0 2.458437 1_665
F9 V1 1.981231 1_555
F9 Li1 2.083265 1_455
F9 Sr1 2.458437 1_565
F10 V0 1.981233 1_555
F10 Li0 2.083263 1_545
F10 Sr1 2.458437 1_556
F11 V1 1.981233 1_555
F11 Li1 2.083263 1_565
F11 Sr1 2.458437 1_665
