# generated using pymatgen
data_Sc2Co12P7
_symmetry_space_group_name_H-M   'P 1'
_cell_length_a   8.95679698
_cell_length_b   8.95679698
_cell_length_c   3.53730300
_cell_angle_alpha   90.00000000
_cell_angle_beta   90.00000000
_cell_angle_gamma   120.00000721
_symmetry_Int_Tables_number   1
_chemical_formula_structural   Sc2Co12P7
_chemical_formula_sum   'Sc2 Co12 P7'
_cell_volume   245.75837284
_cell_formula_units_Z   1
loop_
 _symmetry_equiv_pos_site_id
 _symmetry_equiv_pos_as_xyz
  1  'x, y, z'
loop_
 _atom_site_type_symbol
 _atom_site_label
 _atom_site_symmetry_multiplicity
 _atom_site_fract_x
 _atom_site_fract_y
 _atom_site_fract_z
 _atom_site_occupancy
  Sc  Sc0  1  0.66666700  0.33333300  0.00000000  1
  Sc  Sc1  1  0.00000000  0.00000000  0.50000000  1
  Co  Co0  1  0.77164600  0.04220500  0.00000000  1
  Co  Co1  1  0.95779500  0.72944100  0.00000000  1
  Co  Co2  1  0.27055900  0.22835400  0.00000000  1
  Co  Co3  1  0.48822300  0.54594000  0.00000000  1
  Co  Co4  1  0.45406000  0.94228300  0.00000000  1
  Co  Co5  1  0.05771700  0.51177700  0.00000000  1
  Co  Co6  1  0.71528100  0.61129600  0.50000000  1
  Co  Co7  1  0.38870400  0.10398500  0.50000000  1
  Co  Co8  1  0.89601500  0.28471900  0.50000000  1
  Co  Co9  1  0.56687200  0.79872800  0.50000000  1
  Co  Co10  1  0.20127200  0.76814500  0.50000000  1
  Co  Co11  1  0.23185500  0.43312800  0.50000000  1
  P  P0  1  0.74286900  0.78386300  0.00000000  1
  P  P1  1  0.21613700  0.95900600  0.00000000  1
  P  P2  1  0.04099400  0.25713100  0.00000000  1
  P  P3  1  0.44887200  0.37386100  0.50000000  1
  P  P4  1  0.62613900  0.07501100  0.50000000  1
  P  P5  1  0.92498900  0.55112800  0.50000000  1
  P  P6  1  0.33333300  0.66666700  0.00000000  1
loop_
_geom_bond_atom_site_label_1
_geom_bond_atom_site_label_2
_geom_bond_distance
_geom_bond_site_symmetry_2
Co0 P0 2.196414 1_545
Co0 P2 2.209474 1_655
Co0 P4 2.301293 1_555
Co0 P4 2.301293 1_554
Co0 Sc1 2.868369 1_655
Co0 Sc1 2.868369 1_654
Co0 Sc0 3.183615 1_555
Co1 P1 2.196414 1_655
Co1 P0 2.209474 1_555
Co1 P5 2.301293 1_555
Co1 P5 2.301293 1_554
Co1 Sc1 2.868369 1_664
Co1 Sc1 2.868369 1_665
Co1 Sc0 3.183620 1_555
Co2 P2 2.196414 1_555
Co2 P1 2.209474 1_545
Co2 P3 2.301293 1_554
Co2 P3 2.301293 1_555
Co2 Sc1 2.868369 1_554
Co2 Sc1 2.868369 1_555
Co2 Sc0 3.183623 1_555
Co3 P6 2.143377 1_555
Co3 P0 2.209731 1_555
Co3 P3 2.254917 1_555
Co3 P3 2.254917 1_554
Co3 Sc0 3.037166 1_555
Co4 P6 2.143369 1_555
Co4 P1 2.209731 1_555
Co4 P4 2.254917 1_565
Co4 P4 2.254917 1_564
Co4 Sc0 3.037158 1_565
Co5 P6 2.143370 1_555
Co5 P2 2.209731 1_555
Co5 P5 2.254917 1_455
Co5 P5 2.254917 1_454
Co5 Sc0 3.037158 1_455
Co6 P5 2.197892 1_555
Co6 P3 2.267579 1_555
Co6 P0 2.279536 1_556
Co6 P0 2.279536 1_555
Co6 Sc0 2.903801 1_555
Co6 Sc0 2.903801 1_556
Co7 P3 2.197892 1_555
Co7 P4 2.267579 1_555
Co7 P1 2.279536 1_546
Co7 P1 2.279536 1_545
Co7 Sc0 2.903798 1_555
Co7 Sc0 2.903798 1_556
Co8 P4 2.197892 1_555
Co8 P5 2.267579 1_555
Co8 P2 2.279536 1_655
Co8 P2 2.279536 1_656
Co8 Sc0 2.903794 1_555
Co8 Sc0 2.903794 1_556
Co9 P4 2.256516 1_565
Co9 P0 2.416749 1_556
Co9 P0 2.416749 1_555
Co9 P6 2.535446 1_556
Co9 P6 2.535446 1_555
Co10 P5 2.256518 1_455
Co10 P1 2.416743 1_556
Co10 P1 2.416743 1_555
Co10 P6 2.535446 1_555
Co10 P6 2.535446 1_556
Co11 P3 2.256525 1_555
Co11 P2 2.416746 1_555
Co11 P2 2.416746 1_556
Co11 P6 2.535446 1_555
Co11 P6 2.535446 1_556
P0 Sc1 2.778749 1_665
P0 Sc1 2.778749 1_664
P1 Sc1 2.778749 1_565
P1 Sc1 2.778749 1_564
P2 Sc1 2.778749 1_554
P2 Sc1 2.778749 1_555
P3 Sc0 2.788087 1_555
P3 Sc0 2.788087 1_556
P4 Sc0 2.788080 1_555
P4 Sc0 2.788080 1_556
P5 Sc0 2.788083 1_556
P5 Sc0 2.788083 1_555
