# generated using pymatgen
data_Eu(AlSe2)2
_symmetry_space_group_name_H-M   'P 1'
_cell_length_a   6.27890693
_cell_length_b   6.27890500
_cell_length_c   10.94081642
_cell_angle_alpha   90.00000000
_cell_angle_beta   90.00000000
_cell_angle_gamma   120.58796299
_symmetry_Int_Tables_number   1
_chemical_formula_structural   Eu(AlSe2)2
_chemical_formula_sum   'Eu2 Al4 Se8'
_cell_volume   371.31683750
_cell_formula_units_Z   2
loop_
 _symmetry_equiv_pos_site_id
 _symmetry_equiv_pos_as_xyz
  1  'x, y, z'
loop_
 _atom_site_type_symbol
 _atom_site_label
 _atom_site_symmetry_multiplicity
 _atom_site_fract_x
 _atom_site_fract_y
 _atom_site_fract_z
 _atom_site_occupancy
  Eu  Eu0  1  0.50000000  0.50000000  0.25000000  1
  Eu  Eu1  1  0.50000000  0.50000000  0.75000000  1
  Al  Al0  1  0.75845510  0.23950673  0.50000000  1
  Al  Al1  1  0.24154490  0.76049327  0.50000000  1
  Al  Al2  1  0.76049327  0.24154490  0.00000000  1
  Al  Al3  1  0.23950673  0.75845510  0.00000000  1
  Se  Se0  1  0.81820376  0.65148294  0.50000000  1
  Se  Se1  1  0.18179624  0.34851706  0.50000000  1
  Se  Se2  1  0.34851706  0.18179624  0.00000000  1
  Se  Se3  1  0.65148294  0.81820376  0.00000000  1
  Se  Se4  1  -0.00000000  0.50000000  0.16699163  1
  Se  Se5  1  0.50000000  0.00000000  0.33300837  1
  Se  Se6  1  -0.00000000  0.50000000  0.83300837  1
  Se  Se7  1  0.50000000  0.00000000  0.66699163  1
loop_
_geom_bond_atom_site_label_1
_geom_bond_atom_site_label_2
_geom_bond_distance
_geom_bond_site_symmetry_2
Eu0 Se2 3.231698 1_555
Eu0 Se3 3.231698 1_555
Eu0 Se0 3.231698 1_555
Eu0 Se1 3.231698 1_555
Eu0 Se5 3.268173 1_565
Eu0 Se5 3.268173 1_555
Eu0 Se4 3.268173 1_655
Eu0 Se4 3.268173 1_555
Eu1 Se2 3.231698 1_556
Eu1 Se3 3.231698 1_556
Eu1 Se0 3.231698 1_555
Eu1 Se1 3.231698 1_555
Eu1 Se7 3.268173 1_555
Eu1 Se7 3.268173 1_565
Eu1 Se6 3.268173 1_555
Eu1 Se6 3.268173 1_655
Al0 Se1 2.383791 1_655
Al0 Se5 2.397787 1_555
Al0 Se7 2.397787 1_555
Al0 Se0 2.417526 1_555
Al1 Se0 2.383791 1_455
Al1 Se5 2.397787 1_565
Al1 Se7 2.397787 1_565
Al1 Se1 2.417526 1_555
Al2 Se3 2.383790 1_545
Al2 Se6 2.397787 1_654
Al2 Se4 2.397787 1_655
Al2 Se2 2.417527 1_555
Al3 Se2 2.383790 1_565
Al3 Se6 2.397787 1_554
Al3 Se4 2.397787 1_555
Al3 Se3 2.417527 1_555
