# generated using pymatgen
data_Cs2Mg2(MoO4)3
_symmetry_space_group_name_H-M   'P 1'
_cell_length_a   11.07074275
_cell_length_b   11.07074275
_cell_length_c   11.07074275
_cell_angle_alpha   90.00000000
_cell_angle_beta   90.00000000
_cell_angle_gamma   90.00000000
_symmetry_Int_Tables_number   1
_chemical_formula_structural   Cs2Mg2(MoO4)3
_chemical_formula_sum   'Cs8 Mg8 Mo12 O48'
_cell_volume   1356.84512200
_cell_formula_units_Z   4
loop_
 _symmetry_equiv_pos_site_id
 _symmetry_equiv_pos_as_xyz
  1  'x, y, z'
loop_
 _atom_site_type_symbol
 _atom_site_label
 _atom_site_symmetry_multiplicity
 _atom_site_fract_x
 _atom_site_fract_y
 _atom_site_fract_z
 _atom_site_occupancy
  Cs  Cs0  1  0.04956338  0.04956338  0.04956338  1
  Cs  Cs1  1  0.45043662  0.95043662  0.54956338  1
  Cs  Cs2  1  0.95043662  0.54956338  0.45043662  1
  Cs  Cs3  1  0.54956338  0.45043662  0.95043662  1
  Cs  Cs4  1  0.81873965  0.81873965  0.81873965  1
  Cs  Cs5  1  0.68126035  0.18126035  0.31873965  1
  Cs  Cs6  1  0.18126035  0.31873965  0.68126035  1
  Cs  Cs7  1  0.31873965  0.68126035  0.18126035  1
  Mg  Mg0  1  0.33638220  0.33638220  0.33638220  1
  Mg  Mg1  1  0.16361780  0.66361780  0.83638220  1
  Mg  Mg2  1  0.66361780  0.83638220  0.16361780  1
  Mg  Mg3  1  0.83638220  0.16361780  0.66361780  1
  Mg  Mg4  1  0.60328583  0.60328583  0.60328583  1
  Mg  Mg5  1  0.89671417  0.39671417  0.10328583  1
  Mg  Mg6  1  0.39671417  0.10328583  0.89671417  1
  Mg  Mg7  1  0.10328583  0.89671417  0.39671417  1
  Mo  Mo0  1  0.02133114  0.21212433  0.37611577  1
  Mo  Mo1  1  0.47866886  0.78787567  0.87611577  1
  Mo  Mo2  1  0.97866886  0.71212433  0.12388423  1
  Mo  Mo3  1  0.37611577  0.02133114  0.21212433  1
  Mo  Mo4  1  0.52133114  0.28787567  0.62388423  1
  Mo  Mo5  1  0.87611577  0.47866886  0.78787567  1
  Mo  Mo6  1  0.12388423  0.97866886  0.71212433  1
  Mo  Mo7  1  0.62388423  0.52133114  0.28787567  1
  Mo  Mo8  1  0.21212433  0.37611577  0.02133114  1
  Mo  Mo9  1  0.71212433  0.12388423  0.97866886  1
  Mo  Mo10  1  0.28787567  0.62388423  0.52133114  1
  Mo  Mo11  1  0.78787567  0.87611577  0.47866886  1
  O  O0  1  0.01645630  0.05607342  0.33085081  1
  O  O1  1  0.48354370  0.94392658  0.83085081  1
  O  O2  1  0.98354370  0.55607342  0.16914919  1
  O  O3  1  0.33085081  0.01645630  0.05607342  1
  O  O4  1  0.51645630  0.44392658  0.66914919  1
  O  O5  1  0.83085081  0.48354370  0.94392658  1
  O  O6  1  0.16914919  0.98354370  0.55607342  1
  O  O7  1  0.66914919  0.51645630  0.44392658  1
  O  O8  1  0.05607342  0.33085081  0.01645630  1
  O  O9  1  0.55607342  0.16914919  0.98354370  1
  O  O10  1  0.44392658  0.66914919  0.51645630  1
  O  O11  1  0.94392658  0.83085081  0.48354370  1
  O  O12  1  0.26958657  0.48693772  0.43597453  1
  O  O13  1  0.23041343  0.51306228  0.93597453  1
  O  O14  1  0.73041343  0.98693772  0.06402547  1
  O  O15  1  0.43597453  0.26958657  0.48693772  1
  O  O16  1  0.76958657  0.01306228  0.56402547  1
  O  O17  1  0.93597453  0.23041343  0.51306228  1
  O  O18  1  0.06402547  0.73041343  0.98693772  1
  O  O19  1  0.56402547  0.76958657  0.01306228  1
  O  O20  1  0.48693772  0.43597453  0.26958657  1
  O  O21  1  0.98693772  0.06402547  0.73041343  1
  O  O22  1  0.01306228  0.56402547  0.76958657  1
  O  O23  1  0.51306228  0.93597453  0.23041343  1
  O  O24  1  0.04819352  0.80531379  0.23754616  1
  O  O25  1  0.45180648  0.19468621  0.73754616  1
  O  O26  1  0.95180648  0.30531379  0.26245384  1
  O  O27  1  0.23754616  0.04819352  0.80531379  1
  O  O28  1  0.54819352  0.69468621  0.76245384  1
  O  O29  1  0.73754616  0.45180648  0.19468621  1
  O  O30  1  0.26245384  0.95180648  0.30531379  1
  O  O31  1  0.76245384  0.54819352  0.69468621  1
  O  O32  1  0.80531379  0.23754616  0.04819352  1
  O  O33  1  0.30531379  0.26245384  0.95180648  1
  O  O34  1  0.69468621  0.76245384  0.54819352  1
  O  O35  1  0.19468621  0.73754616  0.45180648  1
  O  O36  1  0.17416580  0.25936546  0.40000218  1
  O  O37  1  0.32583420  0.74063454  0.90000218  1
  O  O38  1  0.82583420  0.75936546  0.09999782  1
  O  O39  1  0.40000218  0.17416580  0.25936546  1
  O  O40  1  0.67416580  0.24063454  0.59999782  1
  O  O41  1  0.90000218  0.32583420  0.74063454  1
  O  O42  1  0.09999782  0.82583420  0.75936546  1
  O  O43  1  0.59999782  0.67416580  0.24063454  1
  O  O44  1  0.25936546  0.40000218  0.17416580  1
  O  O45  1  0.75936546  0.09999782  0.82583420  1
  O  O46  1  0.24063454  0.59999782  0.67416580  1
  O  O47  1  0.74063454  0.90000218  0.32583420  1
loop_
_geom_bond_atom_site_label_1
_geom_bond_atom_site_label_2
_geom_bond_distance
_geom_bond_site_symmetry_2
Cs0 O0 3.136384 1_555
Cs0 O8 3.136384 1_555
Cs0 O3 3.136384 1_555
Cs0 O24 3.412183 1_545
Cs0 O32 3.412183 1_455
Cs0 O27 3.412183 1_554
Cs0 O18 3.604166 1_544
Cs0 O21 3.604166 1_454
Cs0 O14 3.604166 1_445
Cs1 O6 3.136384 1_555
Cs1 O1 3.136384 1_555
Cs1 O10 3.136384 1_555
Cs1 O25 3.412183 1_565
Cs1 O34 3.412183 1_555
Cs1 O30 3.412183 1_555
Cs1 O15 3.604166 1_565
Cs1 O16 3.604166 1_565
Cs1 O23 3.604166 1_555
Cs2 O2 3.136384 1_555
Cs2 O11 3.136384 1_555
Cs2 O7 3.136384 1_555
Cs2 O35 3.412183 1_655
Cs2 O31 3.412183 1_555
Cs2 O26 3.412183 1_555
Cs2 O12 3.604166 1_655
Cs2 O22 3.604166 1_655
Cs2 O17 3.604166 1_555
Cs3 O5 3.136384 1_555
Cs3 O9 3.136384 1_555
Cs3 O4 3.136384 1_555
Cs3 O29 3.412183 1_556
Cs3 O28 3.412183 1_555
Cs3 O33 3.412183 1_555
Cs3 O20 3.604166 1_556
Cs3 O19 3.604166 1_556
Cs3 O13 3.604166 1_555
Cs4 O45 3.183330 1_565
Cs4 O42 3.183330 1_655
Cs4 O38 3.183330 1_556
Cs4 O34 3.353404 1_555
Cs4 O31 3.353404 1_555
Cs4 O28 3.353404 1_555
Cs4 O21 3.434737 1_565
Cs4 O18 3.434737 1_655
Cs4 O14 3.434737 1_556
Cs4 O19 3.588298 1_556
Cs4 O16 3.588298 1_565
Cs4 O22 3.588298 1_655
Cs5 O39 3.183330 1_555
Cs5 O47 3.183330 1_545
Cs5 O40 3.183330 1_555
Cs5 O29 3.353404 1_555
Cs5 O32 3.353404 1_555
Cs5 O26 3.353404 1_555
Cs5 O23 3.434737 1_545
Cs5 O15 3.434737 1_555
Cs5 O16 3.434737 1_555
Cs5 O20 3.588298 1_555
Cs5 O17 3.588298 1_555
Cs5 O14 3.588298 1_545
Cs6 O36 3.183330 1_555
Cs6 O46 3.183330 1_555
Cs6 O41 3.183330 1_455
Cs6 O25 3.353404 1_555
Cs6 O27 3.353404 1_555
Cs6 O33 3.353404 1_555
Cs6 O12 3.434737 1_555
Cs6 O22 3.434737 1_555
Cs6 O17 3.434737 1_455
Cs6 O15 3.588298 1_555
Cs6 O13 3.588298 1_555
Cs6 O21 3.588298 1_455
Cs7 O44 3.183330 1_555
Cs7 O37 3.183330 1_554
Cs7 O43 3.183330 1_555
Cs7 O24 3.353404 1_555
Cs7 O35 3.353404 1_555
Cs7 O30 3.353404 1_555
Cs7 O20 3.434737 1_555
Cs7 O13 3.434737 1_554
Cs7 O19 3.434737 1_555
Cs7 O12 3.588298 1_555
Cs7 O23 3.588298 1_555
Cs7 O18 3.588298 1_554
Mg0 O44 2.109063 1_555
Mg0 O39 2.109063 1_555
Mg0 O36 2.109063 1_555
Mg0 O12 2.130859 1_555
Mg0 O15 2.130859 1_555
Mg0 O20 2.130859 1_555
Mg1 O42 2.109063 1_555
Mg1 O37 2.109063 1_555
Mg1 O46 2.109063 1_555
Mg1 O22 2.130859 1_555
Mg1 O13 2.130859 1_555
Mg1 O18 2.130859 1_555
Mg2 O38 2.109063 1_555
Mg2 O47 2.109063 1_555
Mg2 O43 2.109063 1_555
Mg2 O19 2.130859 1_555
Mg2 O23 2.130859 1_555
Mg2 O14 2.130859 1_555
Mg3 O45 2.109063 1_555
Mg3 O41 2.109063 1_555
Mg3 O40 2.109063 1_555
Mg3 O16 2.130859 1_555
Mg3 O17 2.130859 1_555
Mg3 O21 2.130859 1_555
Mg4 O28 2.121532 1_555
Mg4 O34 2.121532 1_555
Mg4 O31 2.121532 1_555
Mg4 O10 2.137334 1_555
Mg4 O7 2.137334 1_555
Mg4 O4 2.137334 1_555
Mg5 O29 2.121532 1_555
Mg5 O26 2.121532 1_555
Mg5 O32 2.121532 1_555
Mg5 O5 2.137334 1_554
Mg5 O2 2.137334 1_555
Mg5 O8 2.137334 1_655
Mg6 O25 2.121532 1_555
Mg6 O33 2.121532 1_555
Mg6 O27 2.121532 1_555
Mg6 O1 2.137334 1_545
Mg6 O9 2.137334 1_555
Mg6 O3 2.137334 1_556
Mg7 O35 2.121532 1_555
Mg7 O30 2.121532 1_555
Mg7 O24 2.121532 1_555
Mg7 O11 2.137334 1_455
Mg7 O6 2.137334 1_555
Mg7 O0 2.137334 1_565
Mo0 O36 1.790612 1_555
Mo0 O17 1.797917 1_455
Mo0 O0 1.799620 1_555
Mo0 O26 1.800042 1_455
Mo1 O37 1.790612 1_555
Mo1 O19 1.797917 1_556
Mo1 O1 1.799620 1_555
Mo1 O28 1.800042 1_555
Mo2 O38 1.790612 1_555
Mo2 O18 1.797917 1_654
Mo2 O2 1.799620 1_555
Mo2 O24 1.800042 1_655
Mo3 O39 1.790612 1_555
Mo3 O23 1.797917 1_545
Mo3 O3 1.799620 1_555
Mo3 O30 1.800042 1_545
Mo4 O40 1.790612 1_555
Mo4 O15 1.797917 1_555
Mo4 O4 1.799620 1_555
Mo4 O25 1.800042 1_555
Mo5 O41 1.790612 1_555
Mo5 O22 1.797917 1_655
Mo5 O5 1.799620 1_555
Mo5 O31 1.800042 1_555
Mo6 O42 1.790612 1_555
Mo6 O21 1.797917 1_465
Mo6 O6 1.799620 1_555
Mo6 O27 1.800042 1_565
Mo7 O43 1.790612 1_555
Mo7 O20 1.797917 1_555
Mo7 O7 1.799620 1_555
Mo7 O29 1.800042 1_555
Mo8 O44 1.790612 1_555
Mo8 O13 1.797917 1_554
Mo8 O8 1.799620 1_555
Mo8 O33 1.800042 1_554
Mo9 O45 1.790612 1_555
Mo9 O14 1.797917 1_546
Mo9 O9 1.799620 1_555
Mo9 O32 1.800042 1_556
Mo10 O46 1.790612 1_555
Mo10 O12 1.797917 1_555
Mo10 O10 1.799620 1_555
Mo10 O35 1.800042 1_555
Mo11 O47 1.790612 1_555
Mo11 O16 1.797917 1_565
Mo11 O11 1.799620 1_555
Mo11 O34 1.800042 1_555
