# generated using pymatgen
data_Pr2Ti2O7
_symmetry_space_group_name_H-M   'P 1'
_cell_length_a   5.51914343
_cell_length_b   7.72039827
_cell_length_c   13.11704388
_cell_angle_alpha   81.47873258
_cell_angle_beta   90.00000000
_cell_angle_gamma   90.00000000
_symmetry_Int_Tables_number   1
_chemical_formula_structural   Pr2Ti2O7
_chemical_formula_sum   'Pr8 Ti8 O28'
_cell_volume   552.74712412
_cell_formula_units_Z   4
loop_
 _symmetry_equiv_pos_site_id
 _symmetry_equiv_pos_as_xyz
  1  'x, y, z'
loop_
 _atom_site_type_symbol
 _atom_site_label
 _atom_site_symmetry_multiplicity
 _atom_site_fract_x
 _atom_site_fract_y
 _atom_site_fract_z
 _atom_site_occupancy
  Pr  Pr0  1  0.64262968  0.14594817  0.42598569  1
  Pr  Pr1  1  0.14262968  0.85405183  0.57401431  1
  Pr  Pr2  1  0.70691961  0.64945441  0.38300298  1
  Pr  Pr3  1  0.20691961  0.35054559  0.61699702  1
  Pr  Pr4  1  0.23813677  0.22839924  0.09257476  1
  Pr  Pr5  1  0.73813677  0.77160076  0.90742524  1
  Pr  Pr6  1  0.24772679  0.71938585  0.11875091  1
  Pr  Pr7  1  0.74772679  0.28061415  0.88124909  1
  Ti  Ti0  1  0.20132152  0.41519966  0.32534374  1
  Ti  Ti1  1  0.70132152  0.58480034  0.67465626  1
  Ti  Ti2  1  0.20787674  0.92543578  0.32047500  1
  Ti  Ti3  1  0.70787674  0.07456422  0.67952500  1
  Ti  Ti4  1  0.73583026  0.47231285  0.12087830  1
  Ti  Ti5  1  0.23583026  0.52768715  0.87912170  1
  Ti  Ti6  1  0.73418377  0.96873776  0.11860894  1
  Ti  Ti7  1  0.23418377  0.03126224  0.88139106  1
  O  O0  1  0.29605940  0.17427028  0.30393366  1
  O  O1  1  0.79605940  0.82572972  0.69606634  1
  O  O2  1  0.14857874  0.67311816  0.30617842  1
  O  O3  1  0.64857874  0.32688184  0.69382158  1
  O  O4  1  0.40934935  0.40885541  0.44078056  1
  O  O5  1  0.90934935  0.59114459  0.55921944  1
  O  O6  1  0.42494392  0.87126786  0.42883595  1
  O  O7  1  0.92494392  0.12873214  0.57116405  1
  O  O8  1  0.92019084  0.37575513  0.38997945  1
  O  O9  1  0.42019084  0.62424487  0.61002055  1
  O  O10  1  0.94177972  0.91988683  0.40639088  1
  O  O11  1  0.44177972  0.08011317  0.59360912  1
  O  O12  1  0.05151346  0.43437842  0.18231283  1
  O  O13  1  0.55151346  0.56562158  0.81768717  1
  O  O14  1  0.04660520  0.97576004  0.18418060  1
  O  O15  1  0.54660520  0.02423996  0.81581940  1
  O  O16  1  0.18606408  0.77673470  0.89238263  1
  O  O17  1  0.68606408  0.22326530  0.10761737  1
  O  O18  1  0.31852750  0.27285942  0.90772464  1
  O  O19  1  0.81852750  0.72714058  0.09227536  1
  O  O20  1  0.97593147  0.03970577  0.98231977  1
  O  O21  1  0.47593147  0.96029423  0.01768023  1
  O  O22  1  0.97619840  0.46961338  0.98032766  1
  O  O23  1  0.47619840  0.53038662  0.01967234  1
  O  O24  1  0.03456149  0.11266637  0.77357064  1
  O  O25  1  0.53456149  0.88733363  0.22642936  1
  O  O26  1  0.03967130  0.50051522  0.77038394  1
  O  O27  1  0.53967130  0.49948478  0.22961606  1
loop_
_geom_bond_atom_site_label_1
_geom_bond_atom_site_label_2
_geom_bond_distance
_geom_bond_site_symmetry_2
O0 Ti2 1.962409 1_545
O0 Ti0 1.991717 1_555
O0 Pr0 2.483111 1_555
O0 Pr4 2.760382 1_555
O1 Ti3 1.962409 1_565
O1 Ti1 1.991717 1_555
O1 Pr1 2.483111 1_655
O1 Pr5 2.760382 1_555
O2 Ti0 1.991130 1_555
O2 Ti2 2.011271 1_555
O2 Pr6 2.492184 1_555
O2 Pr2 2.633647 1_455
O3 Ti1 1.991130 1_555
O3 Ti3 2.011271 1_555
O3 Pr7 2.492184 1_555
O3 Pr3 2.633647 1_555
O4 Ti0 1.895100 1_555
O4 Pr0 2.435560 1_555
O4 Pr2 2.510939 1_555
O4 Pr3 2.546617 1_555
O5 Ti1 1.895100 1_555
O5 Pr1 2.435560 1_655
O5 Pr3 2.510939 1_655
O5 Pr2 2.546617 1_555
O6 Ti2 1.858576 1_555
O6 Pr0 2.432792 1_565
O6 Pr1 2.448843 1_555
O6 Pr2 2.453796 1_555
O7 Ti3 1.858576 1_555
O7 Pr1 2.432792 1_645
O7 Pr0 2.448843 1_555
O7 Pr3 2.453796 1_655
O8 Ti0 1.772710 1_655
O8 Pr0 2.338641 1_555
O8 Pr2 2.408657 1_555
O9 Ti1 1.772710 1_555
O9 Pr1 2.338641 1_555
O9 Pr3 2.408657 1_555
O10 Ti2 1.847820 1_655
O10 Pr0 2.443561 1_565
O10 Pr1 2.447520 1_655
O10 Pr2 2.514604 1_555
O11 Ti3 1.847820 1_555
O11 Pr1 2.443561 1_545
O11 Pr0 2.447520 1_555
O11 Pr3 2.514604 1_555
O12 Ti4 1.923752 1_455
O12 Ti0 2.035468 1_555
O12 Pr4 2.351609 1_555
O12 Pr6 2.483108 1_555
O13 Ti5 1.923752 1_555
O13 Ti1 2.035468 1_555
O13 Pr5 2.351609 1_555
O13 Pr7 2.483108 1_555
O14 Ti6 1.931255 1_455
O14 Ti2 1.983307 1_555
O14 Pr4 2.381401 1_565
O14 Pr6 2.527809 1_555
O15 Ti7 1.931255 1_555
O15 Ti3 1.983307 1_555
O15 Pr5 2.381401 1_545
O15 Pr7 2.527809 1_555
O16 Ti7 1.966925 1_565
O16 Ti5 1.975289 1_555
O16 Pr5 2.479886 1_455
O17 Ti6 1.966925 1_545
O17 Ti4 1.975289 1_555
O17 Pr4 2.479886 1_555
O18 Ti5 2.000221 1_555
O18 Ti7 2.001503 1_555
O18 Pr7 2.393595 1_555
O18 Pr4 2.438676 1_556
O19 Ti4 2.000221 1_555
O19 Ti6 2.001503 1_555
O19 Pr6 2.393595 1_655
O19 Pr5 2.438676 1_554
O20 Ti7 1.952964 1_655
O20 Ti6 2.232942 1_546
O20 Pr7 2.464236 1_555
O20 Pr4 2.632943 1_656
O20 Pr5 2.752192 1_545
O21 Ti6 1.952964 1_555
O21 Ti7 2.232942 1_564
O21 Pr6 2.464236 1_555
O21 Pr5 2.632943 1_554
O21 Pr4 2.752192 1_565
O22 Ti5 1.959664 1_655
O22 Ti4 2.273907 1_556
O22 Pr7 2.443389 1_555
O22 Pr4 2.629309 1_656
O22 Pr5 2.723190 1_555
O23 Ti4 1.959664 1_555
O23 Ti5 2.273907 1_554
O23 Pr6 2.443389 1_555
O23 Pr5 2.629309 1_554
O23 Pr4 2.723190 1_555
O24 Ti7 1.829101 1_555
O24 Ti3 2.228615 1_455
O24 Pr7 2.593271 1_455
O24 Pr3 2.716240 1_555
O25 Ti6 1.829101 1_555
O25 Ti2 2.228615 1_555
O25 Pr6 2.593271 1_555
O25 Pr2 2.716240 1_555
O26 Ti5 1.827334 1_555
O26 Ti1 2.290232 1_455
O26 Pr7 2.619467 1_455
O26 Pr3 2.632689 1_555
O27 Ti4 1.827334 1_555
O27 Ti0 2.290232 1_555
O27 Pr6 2.619467 1_555
O27 Pr2 2.632689 1_555
