# generated using pymatgen
data_Mn3Cr2O8
_symmetry_space_group_name_H-M   'P 1'
_cell_length_a   6.12896541
_cell_length_b   6.12896541
_cell_length_c   5.89326269
_cell_angle_alpha   90.00000000
_cell_angle_beta   58.66790666
_cell_angle_gamma   120.00000000
_symmetry_Int_Tables_number   1
_chemical_formula_structural   Mn3Cr2O8
_chemical_formula_sum   'Mn3 Cr2 O8'
_cell_volume   153.31012489
_cell_formula_units_Z   1
loop_
 _symmetry_equiv_pos_site_id
 _symmetry_equiv_pos_as_xyz
  1  'x, y, z'
loop_
 _atom_site_type_symbol
 _atom_site_label
 _atom_site_symmetry_multiplicity
 _atom_site_fract_x
 _atom_site_fract_y
 _atom_site_fract_z
 _atom_site_occupancy
  Mn  Mn0  1  0.25000000  0.37500000  0.37500000  1
  Mn  Mn1  1  0.25000000  0.87500000  0.37500000  1
  Mn  Mn2  1  0.75000000  0.37500000  0.37500000  1
  Cr  Cr0  1  0.50747300  0.75373700  0.73879000  1
  Cr  Cr1  1  0.99252700  0.99626300  0.01121000  1
  O  O0  1  0.25178600  0.12589300  0.62232000  1
  O  O1  1  0.74701200  0.11370400  0.13928400  1
  O  O2  1  0.74701200  0.63330900  0.13928400  1
  O  O3  1  0.22740700  0.11370400  0.13928400  1
  O  O4  1  0.24821400  0.62410700  0.12768000  1
  O  O5  1  0.75298800  0.63629600  0.61071600  1
  O  O6  1  0.75298800  0.11669100  0.61071600  1
  O  O7  1  0.27259300  0.63629600  0.61071600  1
loop_
_geom_bond_atom_site_label_1
_geom_bond_atom_site_label_2
_geom_bond_distance
_geom_bond_site_symmetry_2
Mn0 O0 2.118683 1_555
Mn0 O4 2.118683 1_555
Mn0 O2 2.119407 1_555
Mn0 O6 2.119407 1_455
Mn0 O3 2.119407 1_555
Mn0 O7 2.119407 1_555
Mn1 O4 2.118683 1_555
Mn1 O0 2.118683 1_565
Mn1 O5 2.119406 1_455
Mn1 O1 2.119406 1_565
Mn1 O7 2.119411 1_555
Mn1 O3 2.119411 1_565
Mn2 O4 2.118687 1_655
Mn2 O0 2.118687 1_555
Mn2 O5 2.119406 1_555
Mn2 O1 2.119406 1_555
Mn2 O2 2.119411 1_555
Mn2 O6 2.119411 1_555
Cr0 O7 1.803875 1_555
Cr0 O6 1.803875 1_565
Cr0 O5 1.803885 1_555
Cr0 O4 1.832705 1_556
Cr1 O3 1.803875 1_665
Cr1 O2 1.803875 1_555
Cr1 O1 1.803885 1_565
Cr1 O0 1.832705 1_664
