# generated using pymatgen
data_Yb11Sb10
_symmetry_space_group_name_H-M   'P 1'
_cell_length_a   12.10231194
_cell_length_b   12.10231194
_cell_length_c   12.10231194
_cell_angle_alpha   120.64809139
_cell_angle_beta   120.64809139
_cell_angle_gamma   88.88109094
_symmetry_Int_Tables_number   1
_chemical_formula_structural   Yb11Sb10
_chemical_formula_sum   'Yb22 Sb20'
_cell_volume   1240.86616097
_cell_formula_units_Z   2
loop_
 _symmetry_equiv_pos_site_id
 _symmetry_equiv_pos_as_xyz
  1  'x, y, z'
loop_
 _atom_site_type_symbol
 _atom_site_label
 _atom_site_symmetry_multiplicity
 _atom_site_fract_x
 _atom_site_fract_y
 _atom_site_fract_z
 _atom_site_occupancy
  Yb  Yb0  1  0.60329300  0.26555400  0.66226100  1
  Yb  Yb1  1  0.93717000  0.18896500  0.74820500  1
  Yb  Yb2  1  0.18896500  0.44076000  0.25179500  1
  Yb  Yb3  1  0.83374400  0.83374400  0.66748700  1
  Yb  Yb4  1  0.60329300  0.94103100  0.33773900  1
  Yb  Yb5  1  0.55924000  0.81103500  0.74820500  1
  Yb  Yb6  1  0.83374400  0.16625600  0.00000000  1
  Yb  Yb7  1  0.39670700  0.73444600  0.33773900  1
  Yb  Yb8  1  0.05896900  0.39670700  0.66226100  1
  Yb  Yb9  1  0.44076000  0.18896500  0.25179500  1
  Yb  Yb10  1  0.81103500  0.55924000  0.74820500  1
  Yb  Yb11  1  0.94103100  0.60329300  0.33773900  1
  Yb  Yb12  1  0.16625600  0.83374400  0.00000000  1
  Yb  Yb13  1  0.06283000  0.81103500  0.25179500  1
  Yb  Yb14  1  0.39670700  0.05896900  0.66226100  1
  Yb  Yb15  1  0.73444600  0.39670700  0.33773900  1
  Yb  Yb16  1  0.81103500  0.06283000  0.25179500  1
  Yb  Yb17  1  0.33690300  0.33690300  0.00000000  1
  Yb  Yb18  1  0.66309700  0.66309700  0.00000000  1
  Yb  Yb19  1  0.18896500  0.93717000  0.74820500  1
  Yb  Yb20  1  0.26555400  0.60329300  0.66226100  1
  Yb  Yb21  1  0.16625600  0.16625600  0.33251300  1
  Sb  Sb0  1  0.11688600  0.11688600  0.58629700  1
  Sb  Sb1  1  0.65009300  0.00000000  0.65009300  1
  Sb  Sb2  1  0.37367100  0.62632900  0.00000000  1
  Sb  Sb3  1  0.46941100  0.46941100  0.58629700  1
  Sb  Sb4  1  0.37367100  0.37367100  0.74734300  1
  Sb  Sb5  1  0.00000000  0.34990700  0.34990700  1
  Sb  Sb6  1  0.88311400  0.88311400  0.41370300  1
  Sb  Sb7  1  0.53058900  0.11688600  0.00000000  1
  Sb  Sb8  1  0.12787300  0.12787300  0.00000000  1
  Sb  Sb9  1  0.62632900  0.62632900  0.25265700  1
  Sb  Sb10  1  0.87212700  0.87212700  0.00000000  1
  Sb  Sb11  1  0.46941100  0.88311400  0.00000000  1
  Sb  Sb12  1  0.53058900  0.53058900  0.41370300  1
  Sb  Sb13  1  0.34990700  0.00000000  0.34990700  1
  Sb  Sb14  1  0.00000000  0.65009300  0.65009300  1
  Sb  Sb15  1  0.88311400  0.46941100  0.00000000  1
  Sb  Sb16  1  0.62632900  0.37367100  0.00000000  1
  Sb  Sb17  1  0.75000000  0.25000000  0.50000000  1
  Sb  Sb18  1  0.11688600  0.53058900  0.00000000  1
  Sb  Sb19  1  0.25000000  0.75000000  0.50000000  1
loop_
_geom_bond_atom_site_label_1
_geom_bond_atom_site_label_2
_geom_bond_distance
_geom_bond_site_symmetry_2
Sb0 Sb6 2.938412 1_445
Sb0 Yb14 3.192944 1_555
Sb0 Yb8 3.192944 1_555
Sb0 Sb4 3.337795 1_555
Sb0 Yb19 3.443722 1_545
Sb0 Yb1 3.443722 1_455
Sb0 Yb17 3.512954 1_556
Sb0 Yb16 3.554531 1_455
Sb0 Yb13 3.554531 1_545
Sb0 Yb21 3.728696 1_555
Sb1 Yb3 2.968654 1_545
Sb1 Yb6 2.968655 1_556
Sb1 Yb4 3.194137 1_545
Sb1 Yb7 3.194141 1_545
Sb1 Yb0 3.194141 1_555
Sb1 Yb14 3.194143 1_555
Sb1 Yb1 3.470813 1_555
Sb1 Yb5 3.470813 1_545
Sb2 Sb4 3.027738 1_554
Sb2 Sb9 3.027738 1_555
Sb2 Yb4 3.449140 1_555
Sb2 Yb8 3.449140 1_554
Sb2 Yb20 3.449146 1_554
Sb2 Yb7 3.449146 1_555
Sb2 Yb12 3.515129 1_555
Sb2 Yb17 3.539485 1_555
Sb2 Yb18 3.539485 1_555
Sb3 Yb0 3.192948 1_555
Sb3 Yb20 3.192948 1_555
Sb3 Sb4 3.337811 1_555
Sb3 Yb10 3.443722 1_555
Sb3 Yb5 3.443722 1_555
Sb3 Yb18 3.512954 1_556
Sb3 Yb2 3.554531 1_555
Sb3 Yb9 3.554531 1_555
Sb3 Yb21 3.728710 1_555
Sb4 Yb14 3.449132 1_555
Sb4 Yb8 3.449132 1_555
Sb4 Yb20 3.449152 1_555
Sb4 Yb0 3.449152 1_555
Sb4 Yb21 3.515129 1_555
Sb4 Yb17 3.539473 1_556
Sb4 Yb18 3.539486 1_556
Sb5 Yb21 2.968654 1_555
Sb5 Yb6 2.968655 1_455
Sb5 Yb8 3.194137 1_555
Sb5 Yb15 3.194141 1_455
Sb5 Yb20 3.194141 1_555
Sb5 Yb11 3.194143 1_455
Sb5 Yb16 3.470813 1_455
Sb5 Yb2 3.470813 1_555
Sb6 Yb11 3.192944 1_555
Sb6 Yb4 3.192944 1_555
Sb6 Sb9 3.337795 1_555
Sb6 Yb16 3.443722 1_565
Sb6 Yb13 3.443722 1_655
Sb6 Yb18 3.512954 1_555
Sb6 Yb1 3.554531 1_565
Sb6 Yb19 3.554531 1_655
Sb6 Yb3 3.728696 1_555
Sb7 Yb15 3.192948 1_555
Sb7 Yb14 3.192953 1_554
Sb7 Yb19 3.443722 1_544
Sb7 Yb9 3.443722 1_555
Sb7 Yb17 3.512954 1_555
Sb7 Yb5 3.554531 1_544
Sb7 Yb16 3.554531 1_555
Sb7 Yb6 3.728708 1_555
Sb8 Yb1 3.196772 1_454
Sb8 Yb19 3.196772 1_544
Sb8 Yb2 3.196772 1_555
Sb8 Yb9 3.196772 1_555
Sb8 Yb12 3.580816 1_545
Sb8 Yb6 3.580816 1_455
Sb8 Yb3 3.580818 1_444
Sb8 Yb21 3.580828 1_555
Sb8 Yb17 3.612363 1_555
Sb9 Yb11 3.449132 1_555
Sb9 Yb4 3.449132 1_555
Sb9 Yb15 3.449152 1_555
Sb9 Yb7 3.449152 1_555
Sb9 Yb3 3.515129 1_555
Sb9 Yb18 3.539473 1_555
Sb9 Yb17 3.539486 1_555
Sb10 Yb10 3.196772 1_554
Sb10 Yb16 3.196772 1_565
Sb10 Yb13 3.196772 1_655
Sb10 Yb5 3.196772 1_554
Sb10 Yb12 3.580816 1_655
Sb10 Yb6 3.580816 1_565
Sb10 Yb21 3.580818 1_665
Sb10 Yb3 3.580828 1_554
Sb10 Yb18 3.612363 1_555
Sb11 Sb7 2.938412 1_565
Sb11 Yb20 3.192948 1_554
Sb11 Yb4 3.192953 1_555
Sb11 Sb2 3.337800 1_555
Sb11 Yb16 3.443722 1_565
Sb11 Yb5 3.443722 1_554
Sb11 Yb18 3.512954 1_555
Sb11 Yb19 3.554531 1_554
Sb11 Yb9 3.554531 1_565
Sb11 Yb12 3.728708 1_555
Sb12 Sb3 2.938412 1_555
Sb12 Yb15 3.192948 1_555
Sb12 Yb7 3.192948 1_555
Sb12 Sb9 3.337811 1_555
Sb12 Yb2 3.443722 1_555
Sb12 Yb9 3.443722 1_555
Sb12 Yb17 3.512954 1_555
Sb12 Yb5 3.554531 1_555
Sb12 Yb10 3.554531 1_555
Sb12 Yb3 3.728710 1_555
Sb13 Yb21 2.968654 1_555
Sb13 Yb12 2.968655 1_545
Sb13 Yb14 3.194137 1_555
Sb13 Yb7 3.194141 1_545
Sb13 Yb0 3.194141 1_555
Sb13 Yb4 3.194143 1_545
Sb13 Yb13 3.470813 1_545
Sb13 Yb9 3.470813 1_555
Sb14 Yb3 2.968654 1_455
Sb14 Yb12 2.968655 1_556
Sb14 Yb11 3.194137 1_455
Sb14 Yb15 3.194141 1_455
Sb14 Yb20 3.194141 1_555
Sb14 Yb8 3.194143 1_555
Sb14 Yb19 3.470813 1_555
Sb14 Yb10 3.470813 1_455
Sb15 Sb18 2.938412 1_655
Sb15 Yb0 3.192948 1_554
Sb15 Yb11 3.192953 1_555
Sb15 Sb16 3.337800 1_555
Sb15 Yb10 3.443722 1_554
Sb15 Yb13 3.443722 1_655
Sb15 Yb18 3.512954 1_555
Sb15 Yb1 3.554531 1_554
Sb15 Yb2 3.554531 1_655
Sb15 Yb6 3.728708 1_555
Sb16 Sb4 3.027738 1_554
Sb16 Sb9 3.027738 1_555
Sb16 Sb7 3.337800 1_555
Sb16 Yb11 3.449140 1_555
Sb16 Yb14 3.449140 1_554
Sb16 Yb15 3.449146 1_555
Sb16 Yb0 3.449146 1_554
Sb16 Yb6 3.515129 1_555
Sb16 Yb17 3.539485 1_555
Sb16 Yb18 3.539485 1_555
Sb17 Yb16 3.155868 1_555
Sb17 Yb9 3.155868 1_555
Sb17 Yb10 3.155868 1_555
Sb17 Yb1 3.155868 1_555
Sb17 Yb15 3.195124 1_555
Sb17 Yb0 3.195124 1_555
Sb17 Yb8 3.195135 1_655
Sb17 Yb4 3.195135 1_545
Sb18 Yb7 3.192948 1_555
Sb18 Yb8 3.192953 1_554
Sb18 Sb2 3.337800 1_555
Sb18 Yb1 3.443722 1_454
Sb18 Yb2 3.443722 1_555
Sb18 Yb17 3.512954 1_555
Sb18 Yb10 3.554531 1_454
Sb18 Yb13 3.554531 1_555
Sb18 Yb12 3.728708 1_555
Sb19 Yb13 3.155868 1_555
Sb19 Yb2 3.155868 1_555
Sb19 Yb19 3.155868 1_555
Sb19 Yb5 3.155868 1_555
Sb19 Yb7 3.195124 1_555
Sb19 Yb20 3.195124 1_555
Sb19 Yb11 3.195135 1_455
Sb19 Yb14 3.195135 1_565
