# generated using pymatgen
data_DyCdNi4
_symmetry_space_group_name_H-M   'P 1'
_cell_length_a   4.91965601
_cell_length_b   4.91966473
_cell_length_c   4.91966207
_cell_angle_alpha   60.00440090
_cell_angle_beta   60.00434847
_cell_angle_gamma   60.00436254
_symmetry_Int_Tables_number   1
_chemical_formula_structural   DyCdNi4
_chemical_formula_sum   'Dy1 Cd1 Ni4'
_cell_volume   84.20416047
_cell_formula_units_Z   1
loop_
 _symmetry_equiv_pos_site_id
 _symmetry_equiv_pos_as_xyz
  1  'x, y, z'
loop_
 _atom_site_type_symbol
 _atom_site_label
 _atom_site_symmetry_multiplicity
 _atom_site_fract_x
 _atom_site_fract_y
 _atom_site_fract_z
 _atom_site_occupancy
  Dy  Dy0  1  0.25000136  0.25000213  0.25000180  1
  Cd  Cd0  1  0.00000535  1.00000125  1.00000433  1
  Ni  Ni0  1  0.62616930  0.62616966  0.12148648  1
  Ni  Ni1  1  0.62616941  0.12148717  0.62616902  1
  Ni  Ni2  1  0.12148695  0.62616939  0.62616861  1
  Ni  Ni3  1  0.62616963  0.62617040  0.62616975  1
loop_
_geom_bond_atom_site_label_1
_geom_bond_atom_site_label_2
_geom_bond_distance
_geom_bond_site_symmetry_2
Dy0 Ni2 2.886837 1_555
Dy0 Ni1 2.886839 1_555
Dy0 Ni0 2.886840 1_555
Dy0 Ni1 2.887023 1_455
Dy0 Ni0 2.887024 1_455
Dy0 Ni1 2.887029 1_554
Dy0 Ni0 2.887030 1_545
Dy0 Ni2 2.887030 1_545
Dy0 Ni2 2.887031 1_554
Dy0 Ni3 2.887070 1_455
Dy0 Ni3 2.887073 1_545
Dy0 Ni3 2.887074 1_554
Cd0 Ni0 2.882007 1_456
Cd0 Ni2 2.882010 1_555
Cd0 Ni1 2.882014 1_465
Cd0 Ni0 2.882055 1_556
Cd0 Ni2 2.882059 1_556
Cd0 Ni1 2.882063 1_565
Cd0 Ni1 2.882068 1_466
Cd0 Ni2 2.882076 1_565
Cd0 Ni0 2.882077 1_466
Cd0 Ni3 2.882165 1_555
Cd0 Ni3 2.882173 1_456
Cd0 Ni3 2.882189 1_465
Cd0 Dy0 3.012543 1_566
Cd0 Dy0 3.012830 1_556
Cd0 Dy0 3.012842 1_565
Cd0 Dy0 3.012843 1_466
Ni0 Ni3 2.436788 1_554
Ni0 Ni2 2.436955 1_654
Ni0 Ni1 2.436957 1_564
Ni0 Ni3 2.482874 1_555
Ni0 Ni2 2.483028 1_555
Ni0 Ni1 2.483033 1_555
Ni1 Ni3 2.436790 1_545
Ni1 Ni2 2.436955 1_645
Ni1 Ni3 2.482875 1_555
Ni1 Ni2 2.483029 1_555
Ni2 Ni3 2.436786 1_455
Ni2 Ni3 2.482870 1_555
