# generated using pymatgen
data_Zn
_symmetry_space_group_name_H-M   'P 1'
_cell_length_a   11.75322960
_cell_length_b   11.77519097
_cell_length_c   11.75334136
_cell_angle_alpha   94.29696365
_cell_angle_beta   87.13302335
_cell_angle_gamma   94.74393575
_symmetry_Int_Tables_number   1
_chemical_formula_structural   Zn
_chemical_formula_sum   Zn100
_cell_volume   1614.92028409
_cell_formula_units_Z   100
loop_
 _symmetry_equiv_pos_site_id
 _symmetry_equiv_pos_as_xyz
  1  'x, y, z'
loop_
 _atom_site_type_symbol
 _atom_site_label
 _atom_site_symmetry_multiplicity
 _atom_site_fract_x
 _atom_site_fract_y
 _atom_site_fract_z
 _atom_site_occupancy
  Zn  Zn0  1  0.91297883  0.67880817  0.57163803  1
  Zn  Zn1  1  0.30180527  0.13135976  0.12077695  1
  Zn  Zn2  1  0.98340332  0.30185474  0.33855445  1
  Zn  Zn3  1  0.26642330  0.51187345  0.20683342  1
  Zn  Zn4  1  0.09546118  0.16022850  0.43471292  1
  Zn  Zn5  1  0.38375333  0.85797823  0.64115451  1
  Zn  Zn6  1  0.58087150  0.94505982  0.17629680  1
  Zn  Zn7  1  0.19362376  0.13517861  0.81118836  1
  Zn  Zn8  1  0.34768530  0.42774109  0.98678032  1
  Zn  Zn9  1  0.55825173  0.75547444  0.37434419  1
  Zn  Zn10  1  0.71998268  0.22998573  0.60292071  1
  Zn  Zn11  1  0.66022093  0.32259732  0.20357149  1
  Zn  Zn12  1  0.28420504  0.64984168  0.00552513  1
  Zn  Zn13  1  0.09642618  0.09744053  0.20896073  1
  Zn  Zn14  1  0.63137769  0.19775400  0.86246157  1
  Zn  Zn15  1  0.68685094  0.73492460  0.54420216  1
  Zn  Zn16  1  0.15053395  0.33060287  0.92082427  1
  Zn  Zn17  1  0.47963499  0.05395696  0.01841023  1
  Zn  Zn18  1  0.25552822  0.96107555  0.27198658  1
  Zn  Zn19  1  0.74858948  0.66661020  0.33357897  1
  Zn  Zn20  1  0.85939513  0.30925132  0.76712839  1
  Zn  Zn21  1  0.59885673  0.55212572  0.95575799  1
  Zn  Zn22  1  0.40730154  0.34970735  0.22141220  1
  Zn  Zn23  1  0.08230475  0.91293113  0.95400560  1
  Zn  Zn24  1  0.13165735  0.79522598  0.55492914  1
  Zn  Zn25  1  0.86612679  0.54051045  0.75488014  1
  Zn  Zn26  1  0.88866112  0.26206145  0.14513440  1
  Zn  Zn27  1  0.46057123  0.65979614  0.59734953  1
  Zn  Zn28  1  0.05323120  0.56535403  0.87018206  1
  Zn  Zn29  1  0.08611336  0.38551161  0.70994851  1
  Zn  Zn30  1  0.55993744  0.46835554  0.58745442  1
  Zn  Zn31  1  0.69173783  0.13231764  0.10261347  1
  Zn  Zn32  1  0.98358782  0.13096390  0.76450469  1
  Zn  Zn33  1  0.19437500  0.81125438  0.77228241  1
  Zn  Zn34  1  0.84229965  0.46276490  0.30468856  1
  Zn  Zn35  1  0.06301554  0.50657452  0.29111052  1
  Zn  Zn36  1  0.65952117  0.62655061  0.72982157  1
  Zn  Zn37  1  0.51850159  0.31488802  0.02986234  1
  Zn  Zn38  1  0.63843650  0.73714205  0.12620263  1
  Zn  Zn39  1  0.75275649  0.25288378  0.38247567  1
  Zn  Zn40  1  0.94436087  0.37824747  0.95967268  1
  Zn  Zn41  1  0.34658094  0.75867643  0.43841027  1
  Zn  Zn42  1  0.50872575  0.26736474  0.68120388  1
  Zn  Zn43  1  0.87476675  0.79937856  0.05317257  1
  Zn  Zn44  1  0.15236014  0.74267842  0.31071271  1
  Zn  Zn45  1  0.89216804  0.02266857  0.09580779  1
  Zn  Zn46  1  0.85583046  0.58201243  0.00837540  1
  Zn  Zn47  1  0.21845338  0.36030895  0.37721339  1
  Zn  Zn48  1  0.40399186  0.19166108  0.87786306  1
  Zn  Zn49  1  0.19898528  0.58645723  0.44575675  1
  Zn  Zn50  1  0.12344705  0.61198082  0.65989217  1
  Zn  Zn51  1  0.97021300  0.74936236  0.80626147  1
  Zn  Zn52  1  0.40180643  0.73526356  0.81436470  1
  Zn  Zn53  1  0.46960651  0.96412571  0.37364000  1
  Zn  Zn54  1  0.62825064  0.46023536  0.38143907  1
  Zn  Zn55  1  0.42453746  0.55097420  0.36480909  1
  Zn  Zn56  1  0.32623662  0.15657048  0.36461689  1
  Zn  Zn57  1  0.25153490  0.85998810  0.07595990  1
  Zn  Zn58  1  0.06462224  0.13693528  0.99598953  1
  Zn  Zn59  1  0.02160271  0.87811647  0.20900075  1
  Zn  Zn60  1  0.94162816  0.65935524  0.22843985  1
  Zn  Zn61  1  0.87899837  0.93617599  0.87463721  1
  Zn  Zn62  1  0.24779176  0.23977307  0.57253864  1
  Zn  Zn63  1  0.07436512  0.71374167  0.04849268  1
  Zn  Zn64  1  0.30362663  0.47097156  0.58506087  1
  Zn  Zn65  1  0.43798139  0.34019345  0.44941433  1
  Zn  Zn66  1  0.39491517  0.79446433  0.21894339  1
  Zn  Zn67  1  0.51271458  0.15269710  0.24091195  1
  Zn  Zn68  1  0.89891182  0.07827114  0.32008910  1
  Zn  Zn69  1  0.77689444  0.87898837  0.24185604  1
  Zn  Zn70  1  0.72271387  0.73981061  0.91264896  1
  Zn  Zn71  1  0.67188945  0.40941015  0.76886872  1
  Zn  Zn72  1  0.50454302  0.97040897  0.79984979  1
  Zn  Zn73  1  0.45269850  0.59621918  0.12588852  1
  Zn  Zn74  1  0.94533246  0.27769284  0.56208143  1
  Zn  Zn75  1  0.67838223  0.84602000  0.74141336  1
  Zn  Zn76  1  0.28117368  0.97146629  0.49258830  1
  Zn  Zn77  1  0.73193882  0.38493045  0.99187234  1
  Zn  Zn78  1  0.77891127  0.49156981  0.54020259  1
  Zn  Zn79  1  0.37345734  0.08129996  0.66806563  1
  Zn  Zn80  1  0.46649009  0.50218898  0.78906737  1
  Zn  Zn81  1  0.06431354  0.93894843  0.42055636  1
  Zn  Zn82  1  0.00060045  0.48099214  0.51063023  1
  Zn  Zn83  1  0.29527982  0.98202456  0.90196636  1
  Zn  Zn84  1  0.86289867  0.84069643  0.43663896  1
  Zn  Zn85  1  0.83857736  0.16366860  0.93449617  1
  Zn  Zn86  1  0.75841503  0.06020597  0.73364944  1
  Zn  Zn87  1  0.30810507  0.33585295  0.76250351  1
  Zn  Zn88  1  0.65094869  0.52979461  0.17278455  1
  Zn  Zn89  1  0.91769572  0.88937459  0.65613052  1
  Zn  Zn90  1  0.54157733  0.16108563  0.48225031  1
  Zn  Zn91  1  0.47872741  0.81449270  0.00298376  1
  Zn  Zn92  1  0.59964193  0.96201159  0.58284401  1
  Zn  Zn93  1  0.88809853  0.06000021  0.54137080  1
  Zn  Zn94  1  0.66977638  0.96191193  0.94818686  1
  Zn  Zn95  1  0.69122165  0.02417931  0.39089710  1
  Zn  Zn96  1  0.26153629  0.55055930  0.80291332  1
  Zn  Zn97  1  0.15584876  0.30570198  0.14833696  1
  Zn  Zn98  1  0.12007333  0.03738188  0.62367565  1
  Zn  Zn99  1  0.09761699  0.50101606  0.07058294  1
loop_
_geom_bond_atom_site_label_1
_geom_bond_atom_site_label_2
_geom_bond_distance
_geom_bond_site_symmetry_2
Zn0 Zn89 2.598225 1_555
Zn0 Zn78 2.615713 1_555
Zn0 Zn82 2.659526 1_655
Zn0 Zn84 2.688894 1_555
Zn0 Zn25 2.802186 1_555
Zn0 Zn24 2.816144 1_655
Zn0 Zn15 2.830601 1_555
Zn0 Zn51 2.914952 1_555
Zn0 Zn50 2.918088 1_655
Zn1 Zn17 2.558496 1_555
Zn1 Zn13 2.590909 1_555
Zn1 Zn97 2.772986 1_555
Zn1 Zn18 2.780611 1_545
Zn1 Zn56 2.885289 1_555
Zn1 Zn67 2.897510 1_555
Zn1 Zn22 2.951371 1_555
Zn1 Zn83 3.005280 1_544
Zn2 Zn4 2.566650 1_655
Zn2 Zn26 2.575819 1_555
Zn2 Zn35 2.602632 1_655
Zn2 Zn74 2.675190 1_555
Zn2 Zn34 2.682848 1_555
Zn2 Zn68 2.732775 1_555
Zn2 Zn39 2.755674 1_555
Zn2 Zn82 2.812788 1_655
Zn2 Zn47 2.841892 1_655
Zn2 Zn97 2.941930 1_655
Zn3 Zn73 2.501658 1_555
Zn3 Zn35 2.539329 1_555
Zn3 Zn99 2.600452 1_555
Zn3 Zn55 2.681135 1_555
Zn3 Zn97 2.715298 1_555
Zn3 Zn47 2.787356 1_555
Zn3 Zn8 2.847513 1_554
Zn3 Zn49 2.967853 1_555
Zn4 Zn62 2.547991 1_555
Zn4 Zn81 2.595050 1_545
Zn4 Zn74 2.663980 1_455
Zn4 Zn47 2.770301 1_555
Zn4 Zn98 2.779148 1_555
Zn4 Zn56 2.797848 1_555
Zn4 Zn68 2.798319 1_455
Zn4 Zn93 2.888689 1_455
Zn5 Zn52 2.610026 1_555
Zn5 Zn72 2.613638 1_555
Zn5 Zn79 2.637033 1_565
Zn5 Zn76 2.667431 1_555
Zn5 Zn92 2.801144 1_555
Zn6 Zn69 2.659114 1_555
Zn6 Zn67 2.679773 1_565
Zn6 Zn91 2.724783 1_555
Zn6 Zn66 2.748662 1_555
Zn6 Zn94 2.843320 1_554
Zn6 Zn95 2.947405 1_565
Zn7 Zn98 2.564409 1_555
Zn7 Zn83 2.567189 1_545
Zn7 Zn87 2.705777 1_555
Zn7 Zn79 2.721363 1_555
Zn8 Zn80 2.810063 1_555
Zn8 Zn87 2.819158 1_555
Zn8 Zn96 2.952340 1_555
Zn10 Zn90 2.628718 1_555
Zn10 Zn39 2.630941 1_555
Zn10 Zn20 2.659757 1_555
Zn10 Zn42 2.663998 1_555
Zn10 Zn74 2.688516 1_555
Zn10 Zn86 2.690860 1_555
Zn10 Zn71 2.838523 1_555
Zn10 Zn93 2.954350 1_555
Zn11 Zn31 2.502064 1_555
Zn11 Zn88 2.505113 1_555
Zn11 Zn54 2.579280 1_555
Zn11 Zn67 2.585042 1_555
Zn11 Zn39 2.629307 1_555
Zn11 Zn37 2.690438 1_555
Zn11 Zn77 2.720621 1_554
Zn11 Zn34 2.844732 1_555
Zn11 Zn26 2.871815 1_555
Zn11 Zn22 3.011132 1_555
Zn12 Zn96 2.589088 1_554
Zn12 Zn57 2.602763 1_555
Zn12 Zn73 2.634894 1_555
Zn12 Zn63 2.651269 1_555
Zn12 Zn8 2.768544 1_554
Zn12 Zn52 2.787158 1_554
Zn12 Zn99 2.804006 1_555
Zn12 Zn91 2.873240 1_555
Zn12 Zn3 2.958305 1_555
Zn13 Zn68 2.607712 1_455
Zn13 Zn58 2.630290 1_554
Zn13 Zn97 2.634029 1_555
Zn13 Zn59 2.658493 1_545
Zn13 Zn4 2.700257 1_555
Zn13 Zn18 2.727142 1_545
Zn13 Zn45 2.846318 1_455
Zn14 Zn86 2.636505 1_555
Zn14 Zn48 2.664977 1_555
Zn14 Zn37 2.677395 1_556
Zn14 Zn85 2.688357 1_555
Zn14 Zn71 2.794717 1_555
Zn14 Zn77 2.795493 1_555
Zn14 Zn42 2.837751 1_555
Zn14 Zn17 3.007651 1_556
Zn14 Zn72 3.014088 1_545
Zn14 Zn20 3.082103 1_555
Zn14 Zn94 3.098895 1_545
Zn14 Zn31 3.111371 1_556
Zn15 Zn75 2.576414 1_555
Zn15 Zn9 2.600653 1_555
Zn15 Zn36 2.602029 1_555
Zn15 Zn19 2.630646 1_555
Zn15 Zn84 2.641744 1_555
Zn15 Zn27 2.788065 1_555
Zn15 Zn92 2.938009 1_555
Zn16 Zn40 2.543801 1_455
Zn16 Zn87 2.559248 1_555
Zn16 Zn58 2.613884 1_555
Zn16 Zn8 2.624299 1_555
Zn16 Zn7 2.625911 1_555
Zn16 Zn99 2.660690 1_556
Zn16 Zn97 2.716168 1_556
Zn16 Zn29 2.764614 1_555
Zn17 Zn94 2.632914 1_544
Zn17 Zn48 2.633470 1_554
Zn17 Zn83 2.665478 1_544
Zn17 Zn72 2.691853 1_544
Zn17 Zn6 2.708031 1_545
Zn17 Zn31 2.788342 1_555
Zn17 Zn91 2.811141 1_545
Zn17 Zn67 2.813049 1_555
Zn17 Zn37 3.062540 1_555
Zn18 Zn57 2.513555 1_555
Zn18 Zn56 2.563908 1_565
Zn18 Zn76 2.617826 1_555
Zn18 Zn66 2.677248 1_555
Zn18 Zn81 2.783268 1_555
Zn18 Zn44 2.809868 1_555
Zn18 Zn53 2.835299 1_555
Zn18 Zn59 2.951674 1_555
Zn19 Zn60 2.533317 1_555
Zn19 Zn9 2.556147 1_555
Zn19 Zn84 2.609502 1_555
Zn19 Zn88 2.634182 1_555
Zn19 Zn34 2.714339 1_555
Zn19 Zn69 2.785201 1_555
Zn19 Zn54 2.789088 1_555
Zn19 Zn38 3.017202 1_555
Zn20 Zn40 2.568075 1_555
Zn20 Zn74 2.578893 1_555
Zn20 Zn71 2.582612 1_555
Zn20 Zn32 2.651713 1_555
Zn20 Zn85 2.693691 1_555
Zn20 Zn25 2.732094 1_555
Zn20 Zn29 2.806066 1_655
Zn20 Zn86 3.075943 1_555
Zn20 Zn77 3.080245 1_555
Zn21 Zn80 2.566200 1_555
Zn21 Zn70 2.611883 1_555
Zn21 Zn73 2.620546 1_556
Zn21 Zn77 2.683973 1_555
Zn21 Zn88 2.689586 1_556
Zn21 Zn71 2.807606 1_555
Zn21 Zn38 2.871842 1_556
Zn21 Zn36 2.895530 1_555
Zn21 Zn37 3.049627 1_556
Zn21 Zn46 3.099479 1_556
Zn22 Zn37 2.569201 1_555
Zn22 Zn3 2.649088 1_555
Zn22 Zn65 2.733526 1_555
Zn22 Zn67 2.748201 1_555
Zn22 Zn55 2.802582 1_555
Zn22 Zn47 2.810752 1_555
Zn22 Zn56 2.994594 1_555
Zn22 Zn8 3.101568 1_554
Zn22 Zn97 3.110367 1_555
Zn22 Zn73 3.184848 1_555
Zn23 Zn83 2.624180 1_555
Zn23 Zn57 2.650192 1_556
Zn23 Zn61 2.650336 1_455
Zn23 Zn63 2.662162 1_556
Zn23 Zn58 2.670107 1_565
Zn23 Zn33 2.706754 1_555
Zn23 Zn51 2.787233 1_455
Zn23 Zn43 2.916487 1_456
Zn23 Zn45 3.037064 1_466
Zn23 Zn59 3.095348 1_556
Zn24 Zn50 2.557276 1_555
Zn24 Zn81 2.594606 1_555
Zn24 Zn33 2.682950 1_555
Zn24 Zn76 2.725350 1_555
Zn24 Zn49 2.839603 1_555
Zn24 Zn41 2.861305 1_555
Zn24 Zn44 2.893081 1_555
Zn24 Zn98 2.917194 1_565
Zn24 Zn89 2.988656 1_455
Zn25 Zn28 2.624950 1_655
Zn25 Zn71 2.653188 1_555
Zn25 Zn51 2.694998 1_555
Zn25 Zn36 2.744620 1_555
Zn25 Zn78 2.773521 1_555
Zn25 Zn46 2.980925 1_556
Zn26 Zn40 2.684735 1_554
Zn26 Zn31 2.712392 1_555
Zn26 Zn85 2.724170 1_554
Zn26 Zn45 2.838296 1_555
Zn26 Zn34 2.974152 1_555
Zn26 Zn58 3.045506 1_654
Zn26 Zn68 3.108261 1_555
Zn26 Zn97 3.141510 1_655
Zn26 Zn77 3.145518 1_554
Zn26 Zn39 3.148904 1_555
Zn27 Zn5 2.578376 1_555
Zn27 Zn30 2.615661 1_555
Zn27 Zn52 2.712598 1_555
Zn27 Zn41 2.733973 1_555
Zn27 Zn64 2.768985 1_555
Zn27 Zn36 2.941441 1_555
Zn27 Zn55 2.965222 1_555
Zn27 Zn80 3.031535 1_555
Zn27 Zn9 3.063467 1_555
Zn28 Zn96 2.550625 1_555
Zn28 Zn99 2.617173 1_556
Zn28 Zn51 2.622625 1_455
Zn28 Zn63 2.634089 1_556
Zn28 Zn50 2.648720 1_555
Zn28 Zn40 2.710002 1_455
Zn28 Zn29 2.765067 1_555
Zn28 Zn46 2.776693 1_456
Zn29 Zn74 2.641896 1_455
Zn29 Zn50 2.768716 1_555
Zn29 Zn87 2.828193 1_555
Zn29 Zn96 2.909685 1_555
Zn29 Zn82 2.929052 1_555
Zn29 Zn62 2.996881 1_555
Zn29 Zn64 3.020476 1_555
Zn30 Zn54 2.510049 1_555
Zn30 Zn65 2.544066 1_555
Zn30 Zn80 2.578892 1_555
Zn30 Zn78 2.601966 1_555
Zn30 Zn36 2.647253 1_555
Zn30 Zn42 2.695647 1_555
Zn30 Zn71 2.722675 1_555
Zn30 Zn64 3.016742 1_555
Zn31 Zn85 2.584943 1_554
Zn31 Zn94 2.608194 1_544
Zn31 Zn67 2.609581 1_555
Zn31 Zn6 2.647252 1_545
Zn31 Zn45 2.773361 1_555
Zn32 Zn98 2.506141 1_655
Zn32 Zn7 2.551208 1_655
Zn32 Zn85 2.587969 1_555
Zn32 Zn86 2.741482 1_555
Zn32 Zn61 2.875220 1_545
Zn32 Zn58 2.921272 1_655
Zn32 Zn93 2.940512 1_555
Zn32 Zn89 3.083207 1_545
Zn33 Zn83 2.664647 1_555
Zn33 Zn5 2.685803 1_555
Zn33 Zn51 2.693076 1_455
Zn33 Zn50 2.695922 1_555
Zn33 Zn52 2.745340 1_555
Zn34 Zn35 2.602046 1_655
Zn34 Zn54 2.628369 1_555
Zn34 Zn60 2.698880 1_555
Zn34 Zn39 2.804168 1_555
Zn34 Zn78 2.833223 1_555
Zn34 Zn88 2.984991 1_555
Zn34 Zn82 3.110166 1_655
Zn35 Zn49 2.555014 1_555
Zn35 Zn60 2.557878 1_455
Zn35 Zn99 2.600258 1_555
Zn35 Zn82 2.678867 1_555
Zn35 Zn47 2.880034 1_555
Zn35 Zn44 2.886248 1_555
Zn35 Zn97 3.041385 1_555
Zn36 Zn70 2.552278 1_555
Zn36 Zn75 2.569393 1_555
Zn36 Zn71 2.648270 1_555
Zn36 Zn80 2.687325 1_555
Zn36 Zn78 2.997909 1_555
Zn37 Zn48 2.576321 1_554
Zn37 Zn8 2.587803 1_554
Zn37 Zn77 2.602590 1_554
Zn38 Zn88 2.559360 1_555
Zn38 Zn69 2.591755 1_555
Zn38 Zn6 2.610856 1_555
Zn38 Zn73 2.630569 1_555
Zn38 Zn70 2.653309 1_554
Zn38 Zn91 2.683816 1_555
Zn38 Zn43 2.916881 1_555
Zn38 Zn9 3.017458 1_555
Zn39 Zn95 2.737872 1_555
Zn39 Zn68 2.819273 1_555
Zn39 Zn90 2.856422 1_555
Zn39 Zn54 2.949607 1_555
Zn40 Zn77 2.513200 1_555
Zn40 Zn99 2.560356 1_656
Zn40 Zn46 2.704603 1_556
Zn40 Zn85 2.724472 1_555
Zn41 Zn49 2.560965 1_555
Zn41 Zn9 2.565445 1_555
Zn41 Zn5 2.615064 1_555
Zn41 Zn66 2.670332 1_555
Zn41 Zn76 2.702819 1_555
Zn41 Zn55 2.746591 1_555
Zn41 Zn44 2.779956 1_555
Zn41 Zn53 2.847826 1_555
Zn42 Zn90 2.595049 1_555
Zn42 Zn79 2.597961 1_555
Zn42 Zn71 2.635469 1_555
Zn42 Zn87 2.664018 1_555
Zn42 Zn48 2.737722 1_555
Zn42 Zn80 3.022943 1_555
Zn42 Zn65 3.089213 1_555
Zn43 Zn70 2.515541 1_554
Zn43 Zn46 2.567779 1_555
Zn43 Zn69 2.594543 1_555
Zn43 Zn63 2.625511 1_655
Zn43 Zn45 2.632476 1_565
Zn43 Zn59 2.643758 1_655
Zn43 Zn61 2.735554 1_554
Zn43 Zn60 2.909435 1_555
Zn43 Zn51 3.091049 1_554
Zn44 Zn49 2.625781 1_555
Zn44 Zn59 2.685001 1_555
Zn44 Zn60 2.779858 1_455
Zn44 Zn81 2.809577 1_555
Zn44 Zn66 3.027495 1_555
Zn45 Zn58 2.615850 1_654
Zn45 Zn68 2.671596 1_555
Zn45 Zn61 2.726911 1_544
Zn45 Zn69 2.732755 1_545
Zn45 Zn85 2.740822 1_554
Zn45 Zn59 2.819854 1_645
Zn46 Zn77 2.635401 1_554
Zn46 Zn70 2.852445 1_554
Zn46 Zn60 2.879628 1_555
Zn46 Zn63 2.928830 1_655
Zn46 Zn88 3.062403 1_555
Zn47 Zn49 2.748360 1_555
Zn47 Zn65 2.789930 1_555
Zn47 Zn56 2.795155 1_555
Zn47 Zn97 2.837578 1_555
Zn47 Zn62 2.837635 1_555
Zn47 Zn64 2.867010 1_555
Zn48 Zn87 2.608752 1_555
Zn48 Zn7 2.648293 1_555
Zn48 Zn83 2.711687 1_545
Zn48 Zn79 2.725624 1_555
Zn48 Zn72 3.011280 1_545
Zn48 Zn8 3.080709 1_555
Zn49 Zn64 2.618063 1_555
Zn49 Zn50 2.630613 1_555
Zn49 Zn82 2.654311 1_555
Zn49 Zn55 2.824660 1_555
Zn50 Zn96 2.575295 1_555
Zn50 Zn82 2.649705 1_555
Zn50 Zn64 2.862094 1_555
Zn50 Zn51 2.928306 1_455
Zn51 Zn61 2.583238 1_555
Zn51 Zn89 2.631716 1_555
Zn51 Zn70 3.105004 1_555
Zn52 Zn91 2.520602 1_556
Zn52 Zn96 2.617564 1_555
Zn52 Zn80 2.898079 1_555
Zn52 Zn72 2.941258 1_555
Zn53 Zn76 2.563334 1_555
Zn53 Zn6 2.609111 1_555
Zn53 Zn95 2.655620 1_565
Zn53 Zn90 2.657784 1_565
Zn53 Zn66 2.718998 1_555
Zn53 Zn9 2.747593 1_555
Zn53 Zn67 2.806186 1_565
Zn53 Zn56 2.944698 1_565
Zn53 Zn92 2.962051 1_555
Zn54 Zn78 2.621631 1_555
Zn54 Zn88 2.637361 1_555
Zn54 Zn65 2.665506 1_555
Zn54 Zn55 2.722810 1_555
Zn55 Zn65 2.761243 1_555
Zn55 Zn9 2.762649 1_555
Zn55 Zn73 2.894987 1_555
Zn55 Zn64 3.063380 1_555
Zn56 Zn67 2.570504 1_555
Zn56 Zn65 2.594539 1_555
Zn56 Zn62 2.710570 1_555
Zn56 Zn76 2.741215 1_545
Zn56 Zn90 2.938851 1_555
Zn57 Zn83 2.593135 1_554
Zn57 Zn63 2.607035 1_555
Zn57 Zn66 2.636662 1_555
Zn57 Zn91 2.844560 1_555
Zn57 Zn59 3.068638 1_555
Zn58 Zn7 2.585727 1_555
Zn58 Zn97 2.758883 1_556
Zn58 Zn85 2.836253 1_455
Zn59 Zn81 2.597342 1_555
Zn59 Zn63 2.687775 1_555
Zn59 Zn60 2.690257 1_455
Zn59 Zn69 2.883476 1_455
Zn59 Zn68 3.041647 1_465
Zn60 Zn63 2.650431 1_655
Zn61 Zn94 2.599485 1_555
Zn61 Zn89 2.611256 1_555
Zn61 Zn85 2.791258 1_565
Zn61 Zn86 2.797755 1_565
Zn61 Zn70 2.879280 1_555
Zn61 Zn75 2.973995 1_555
Zn62 Zn87 2.532720 1_555
Zn62 Zn64 2.741883 1_555
Zn62 Zn98 2.797648 1_555
Zn62 Zn79 2.803555 1_555
Zn62 Zn65 2.825735 1_555
Zn63 Zn99 2.575718 1_555
Zn64 Zn65 2.681275 1_555
Zn64 Zn96 2.696204 1_555
Zn64 Zn87 2.721354 1_555
Zn64 Zn80 3.123954 1_555
Zn65 Zn90 2.583252 1_555
Zn66 Zn73 2.629080 1_555
Zn66 Zn91 2.696262 1_555
Zn66 Zn9 2.802567 1_555
Zn67 Zn90 2.866963 1_555
Zn68 Zn95 2.583790 1_555
Zn68 Zn93 2.621613 1_555
Zn68 Zn69 2.767772 1_545
Zn68 Zn81 2.985357 1_645
Zn69 Zn95 2.581645 1_565
Zn69 Zn84 2.632066 1_555
Zn70 Zn75 2.544790 1_555
Zn70 Zn94 2.735097 1_555
Zn70 Zn91 3.177506 1_556
Zn71 Zn80 2.723571 1_555
Zn71 Zn77 2.789796 1_555
Zn72 Zn75 2.644902 1_555
Zn72 Zn94 2.686651 1_555
Zn72 Zn83 2.691504 1_555
Zn72 Zn79 2.711525 1_565
Zn72 Zn92 2.731237 1_555
Zn72 Zn91 3.107276 1_556
Zn72 Zn86 3.161612 1_565
Zn73 Zn88 2.615222 1_555
Zn73 Zn8 2.728195 1_554
Zn73 Zn91 3.027934 1_555
Zn74 Zn82 2.537473 1_655
Zn74 Zn93 2.592353 1_555
Zn75 Zn86 2.624410 1_565
Zn75 Zn92 2.637887 1_555
Zn75 Zn94 2.698151 1_555
Zn75 Zn89 2.955300 1_555
Zn76 Zn98 2.516634 1_565
Zn76 Zn79 2.587431 1_565
Zn76 Zn81 2.713973 1_555
Zn77 Zn88 2.803515 1_556
Zn77 Zn85 3.001007 1_555
Zn78 Zn82 2.623334 1_655
Zn79 Zn90 3.020827 1_555
Zn79 Zn98 3.044480 1_555
Zn80 Zn96 2.515428 1_555
Zn80 Zn87 2.600477 1_555
Zn81 Zn84 2.552101 1_455
Zn81 Zn98 2.662424 1_565
Zn81 Zn93 2.868511 1_465
Zn84 Zn89 2.698529 1_555
Zn84 Zn93 2.775803 1_565
Zn85 Zn86 2.747018 1_555
Zn85 Zn94 2.975194 1_545
Zn86 Zn93 2.661884 1_555
Zn86 Zn92 2.761840 1_545
Zn86 Zn89 2.925538 1_545
Zn86 Zn94 2.959427 1_545
Zn87 Zn96 2.634375 1_555
Zn89 Zn93 2.558439 1_565
Zn89 Zn98 2.857233 1_665
Zn90 Zn95 2.620265 1_555
Zn90 Zn92 2.849421 1_545
Zn91 Zn94 2.801475 1_554
Zn92 Zn95 2.580364 1_565
Zn93 Zn95 2.965842 1_555
Zn93 Zn98 2.977048 1_655
Zn97 Zn99 2.689017 1_555
