# generated using pymatgen
data_K2VPCO7
_symmetry_space_group_name_H-M   'P 1'
_cell_length_a   6.76424361
_cell_length_b   11.25924263
_cell_length_c   9.78507176
_cell_angle_alpha   89.55301224
_cell_angle_beta   90.05497269
_cell_angle_gamma   89.57355207
_symmetry_Int_Tables_number   1
_chemical_formula_structural   K2VPCO7
_chemical_formula_sum   'K8 V4 P4 C4 O28'
_cell_volume   745.18990469
_cell_formula_units_Z   4
loop_
 _symmetry_equiv_pos_site_id
 _symmetry_equiv_pos_as_xyz
  1  'x, y, z'
loop_
 _atom_site_type_symbol
 _atom_site_label
 _atom_site_symmetry_multiplicity
 _atom_site_fract_x
 _atom_site_fract_y
 _atom_site_fract_z
 _atom_site_occupancy
  K  K0  1  0.47869000  0.12485300  0.23670400  1
  K  K1  1  0.47648600  0.62565300  0.23748100  1
  K  K2  1  0.02493800  0.12089700  0.23668000  1
  K  K3  1  0.02207600  0.62166000  0.23374000  1
  K  K4  1  0.52535800  0.37549200  0.76151900  1
  K  K5  1  0.51949200  0.87418500  0.76544800  1
  K  K6  1  0.97944600  0.37853200  0.76681700  1
  K  K7  1  0.97488700  0.87861600  0.76366600  1
  V  V0  1  0.74948900  0.88776500  0.36126300  1
  V  V1  1  0.25024800  0.11261500  0.64067800  1
  V  V2  1  0.74751900  0.38820500  0.35961000  1
  V  V3  1  0.25214500  0.61133300  0.63894300  1
  P  P0  1  0.24760400  0.36129500  0.43300800  1
  P  P1  1  0.25155300  0.86188700  0.43375700  1
  P  P2  1  0.75006300  0.13874300  0.56637100  1
  P  P3  1  0.75109900  0.63764600  0.56619600  1
  C  C0  1  0.74918100  0.36574500  0.10524800  1
  C  C1  1  0.74938100  0.86613100  0.10633700  1
  C  C2  1  0.25060900  0.13458300  0.89462800  1
  C  C3  1  0.25087000  0.63395600  0.89404200  1
  O  O0  1  0.25040300  0.14626800  0.02125000  1
  O  O1  1  0.25015800  0.64645200  0.02066500  1
  O  O2  1  0.75028900  0.35328900  0.97864500  1
  O  O3  1  0.74912600  0.85393200  0.97968500  1
  O  O4  1  0.74152300  0.46901200  0.16825500  1
  O  O5  1  0.74431200  0.96919800  0.16972800  1
  O  O6  1  0.24868800  0.03141600  0.83081200  1
  O  O7  1  0.25962200  0.53079800  0.83097600  1
  O  O8  1  0.75584200  0.27594700  0.19404100  1
  O  O9  1  0.75484500  0.77620800  0.19483300  1
  O  O10  1  0.25272500  0.22478900  0.80635700  1
  O  O11  1  0.24273800  0.72357000  0.80520200  1
  O  O12  1  0.75308900  0.05531200  0.44000300  1
  O  O13  1  0.75121900  0.55567400  0.43846200  1
  O  O14  1  0.24801400  0.44284900  0.56149200  1
  O  O15  1  0.24889100  0.94465000  0.56082200  1
  O  O16  1  0.24843800  0.22718100  0.47585200  1
  O  O17  1  0.25907000  0.72859900  0.48087500  1
  O  O18  1  0.74294500  0.27182500  0.52033700  1
  O  O19  1  0.74549600  0.77110700  0.51984600  1
  O  O20  1  0.05951200  0.38667100  0.34580600  1
  O  O21  1  0.06241900  0.88337100  0.34679200  1
  O  O22  1  0.43621400  0.38641700  0.34658800  1
  O  O23  1  0.43837800  0.88713800  0.34613000  1
  O  O24  1  0.56195100  0.11318500  0.65326700  1
  O  O25  1  0.56387100  0.61295500  0.65364200  1
  O  O26  1  0.93938000  0.11770300  0.65429800  1
  O  O27  1  0.93970900  0.61469100  0.65320300  1
loop_
_geom_bond_atom_site_label_1
_geom_bond_atom_site_label_2
_geom_bond_distance
_geom_bond_site_symmetry_2
K0 O8 2.573102 1_555
K0 O5 2.588921 1_545
K0 O0 2.620607 1_555
K0 O12 2.821780 1_555
K0 O23 2.889836 1_545
K0 O16 3.041626 1_555
K0 O22 3.154229 1_555
K1 O9 2.575050 1_555
K1 O4 2.599478 1_555
K1 O1 2.623034 1_555
K1 O13 2.808717 1_555
K1 O22 2.904513 1_555
K1 O17 3.033627 1_555
K1 O23 3.146845 1_555
K2 O8 2.544567 1_455
K2 O0 2.618100 1_555
K2 O5 2.648225 1_445
K2 O12 2.808774 1_455
K2 O21 2.884757 1_545
K2 O16 3.042781 1_555
K2 O20 3.195190 1_555
K3 O9 2.526234 1_455
K3 O1 2.609347 1_555
K3 O4 2.651283 1_455
K3 O13 2.815261 1_455
K3 O20 2.865497 1_555
K3 O17 3.151857 1_555
K3 O21 3.169116 1_555
K4 O10 2.551286 1_555
K4 O7 2.593208 1_555
K4 O2 2.621291 1_555
K4 O14 2.806095 1_555
K4 O25 2.880522 1_555
K4 O18 3.020299 1_555
K4 O24 3.153436 1_555
K5 O11 2.563192 1_555
K5 O3 2.615404 1_555
K5 O6 2.621092 1_565
K5 O15 2.817011 1_555
K5 O24 2.914569 1_565
K5 O19 3.079561 1_555
K5 O25 3.158429 1_555
K6 O10 2.550245 1_655
K6 O2 2.604485 1_555
K6 O7 2.643459 1_655
K6 O14 2.804480 1_655
K6 O27 2.884609 1_555
K6 O18 3.144197 1_555
K6 O26 3.157818 1_555
K7 O11 2.536877 1_655
K7 O3 2.623093 1_555
K7 O6 2.623805 1_665
K7 O15 2.816404 1_655
K7 O26 2.897313 1_565
K7 O19 3.103355 1_555
K7 O27 3.180482 1_555
C0 O2 1.247843 1_554
C0 O4 1.320996 1_555
C0 O8 1.328421 1_555
C1 O3 1.247953 1_554
C1 O5 1.320329 1_555
C1 O9 1.327405 1_555
C2 O0 1.246992 1_556
C2 O6 1.323215 1_555
C2 O10 1.328288 1_555
C3 O1 1.248078 1_556
C3 O7 1.320451 1_555
C3 O11 1.327466 1_555
O4 V2 2.075601 1_555
O5 V0 2.080152 1_555
O6 V1 2.066629 1_555
O7 V3 2.080428 1_555
O8 V2 2.063133 1_555
O9 V0 2.064565 1_555
O10 V1 2.062977 1_555
O11 V3 2.068510 1_555
O12 P2 1.558750 1_555
O12 V0 2.043589 1_545
O13 P3 1.559496 1_555
O13 V2 2.043210 1_555
O14 P0 1.562634 1_555
O14 V3 2.048642 1_555
O15 P1 1.559625 1_555
O15 V1 2.051938 1_565
O16 P0 1.563952 1_555
O16 V1 2.057319 1_555
O17 P1 1.566954 1_555
O17 V3 2.026562 1_555
O18 P2 1.561660 1_555
O18 V2 2.039604 1_555
O19 P3 1.566408 1_555
O19 V0 2.025508 1_555
O20 P0 1.554724 1_555
O20 V2 2.114795 1_455
O21 P1 1.552246 1_555
O21 V0 2.121836 1_455
O22 P0 1.557715 1_555
O22 V2 2.109728 1_555
O23 P1 1.554563 1_555
O23 V0 2.109560 1_555
O24 P2 1.558394 1_555
O24 V1 2.111973 1_555
O25 P3 1.554660 1_555
O25 V3 2.113577 1_555
O26 P2 1.557707 1_555
O26 V1 2.107515 1_655
O27 P3 1.552057 1_555
O27 V3 2.118204 1_655
