# generated using pymatgen
data_Er4SiNi3
_symmetry_space_group_name_H-M   'P 1'
_cell_length_a   3.87940200
_cell_length_b   4.01670600
_cell_length_c   10.30004500
_cell_angle_alpha   90.00000000
_cell_angle_beta   90.00000000
_cell_angle_gamma   90.00000000
_symmetry_Int_Tables_number   1
_chemical_formula_structural   Er4SiNi3
_chemical_formula_sum   'Er4 Si1 Ni3'
_cell_volume   160.49959929
_cell_formula_units_Z   1
loop_
 _symmetry_equiv_pos_site_id
 _symmetry_equiv_pos_as_xyz
  1  'x, y, z'
loop_
 _atom_site_type_symbol
 _atom_site_label
 _atom_site_symmetry_multiplicity
 _atom_site_fract_x
 _atom_site_fract_y
 _atom_site_fract_z
 _atom_site_occupancy
  Er  Er0  1  0.50000000  0.50000000  0.36176400  1
  Er  Er1  1  0.00000000  0.50000000  0.85642400  1
  Er  Er2  1  0.00000000  0.00000000  0.14216100  1
  Er  Er3  1  0.50000000  0.00000000  0.64087100  1
  Si  Si0  1  0.50000000  0.50000000  0.06737700  1
  Ni  Ni0  1  0.00000000  0.50000000  0.57039300  1
  Ni  Ni1  1  0.00000000  0.00000000  0.42998500  1
  Ni  Ni2  1  0.50000000  0.00000000  0.93102500  1
loop_
_geom_bond_atom_site_label_1
_geom_bond_atom_site_label_2
_geom_bond_distance
_geom_bond_site_symmetry_2
Er0 Ni1 2.879180 1_655
Er0 Ni1 2.879180 1_555
Er0 Ni1 2.879180 1_565
Er0 Ni1 2.879180 1_665
Er0 Ni0 2.894851 1_655
Er0 Ni0 2.894851 1_555
Er0 Si0 3.032199 1_555
Er1 Ni2 2.895920 1_555
Er1 Ni2 2.895920 1_565
Er1 Ni2 2.895920 1_465
Er1 Ni2 2.895920 1_455
Er1 Si0 2.912664 1_456
Er1 Si0 2.912664 1_556
Er1 Ni0 2.946132 1_555
Er2 Si0 2.896420 1_455
Er2 Si0 2.896420 1_545
Er2 Si0 2.896420 1_555
Er2 Si0 2.896420 1_445
Er2 Ni2 2.914070 1_554
Er2 Ni2 2.914070 1_454
Er2 Ni1 2.964600 1_555
Er3 Ni0 2.884942 1_645
Er3 Ni0 2.884942 1_555
Er3 Ni0 2.884942 1_545
Er3 Ni0 2.884942 1_655
Er3 Ni1 2.912149 1_555
Er3 Ni1 2.912149 1_655
Er3 Ni2 2.988599 1_555
Ni0 Ni1 2.474874 1_555
Ni0 Ni1 2.474874 1_565
Ni2 Si0 2.450696 1_556
Ni2 Si0 2.450696 1_546
