# generated using pymatgen
data_CaMg14B
_symmetry_space_group_name_H-M   'P 1'
_cell_length_a   6.48652322
_cell_length_b   6.14957737
_cell_length_c   10.29354768
_cell_angle_alpha   90.00000000
_cell_angle_beta   90.00000000
_cell_angle_gamma   118.29603782
_symmetry_Int_Tables_number   1
_chemical_formula_structural   CaMg14B
_chemical_formula_sum   'Ca1 Mg14 B1'
_cell_volume   361.54027758
_cell_formula_units_Z   1
loop_
 _symmetry_equiv_pos_site_id
 _symmetry_equiv_pos_as_xyz
  1  'x, y, z'
loop_
 _atom_site_type_symbol
 _atom_site_label
 _atom_site_symmetry_multiplicity
 _atom_site_fract_x
 _atom_site_fract_y
 _atom_site_fract_z
 _atom_site_occupancy
  Ca  Ca0  1  0.12843291  0.31421595  0.12500000  1
  Mg  Mg0  1  0.16903335  0.33451618  0.62500000  1
  Mg  Mg1  1  0.15860127  0.82930014  0.62500000  1
  Mg  Mg2  1  0.61579484  0.29605945  0.12500000  1
  Mg  Mg3  1  0.66257079  0.33612808  0.62500000  1
  Mg  Mg4  1  0.61579484  0.81973439  0.12500000  1
  Mg  Mg5  1  0.66257079  0.82644172  0.62500000  1
  Mg  Mg6  1  0.33645576  0.16308378  0.37411898  1
  Mg  Mg7  1  0.33645576  0.16308378  0.87588102  1
  Mg  Mg8  1  0.33645576  0.67337299  0.37411898  1
  Mg  Mg9  1  0.33645576  0.67337299  0.87588102  1
  Mg  Mg10  1  0.82988622  0.16494361  0.38786164  1
  Mg  Mg11  1  0.82988622  0.16494361  0.86213836  1
  Mg  Mg12  1  0.85718671  0.67859386  0.34554210  1
  Mg  Mg13  1  0.85718671  0.67859386  0.90445790  1
  B  B0  1  0.26723227  0.88361564  0.12500000  1
loop_
_geom_bond_atom_site_label_1
_geom_bond_atom_site_label_2
_geom_bond_distance
_geom_bond_site_symmetry_2
Ca0 Mg11 3.198237 1_454
Ca0 Mg10 3.198237 1_455
Ca0 Mg4 3.215715 1_555
Ca0 Mg2 3.215715 1_555
Ca0 Mg7 3.232519 1_554
Ca0 Mg6 3.232519 1_555
Ca0 Mg8 3.232525 1_555
Ca0 Mg9 3.232525 1_554
Ca0 Mg4 3.273788 1_445
Ca0 Mg2 3.273788 1_455
Mg0 Mg1 3.075366 1_545
Mg0 Mg1 3.075366 1_555
Mg0 Mg10 3.116169 1_455
Mg0 Mg11 3.116169 1_455
Mg0 Mg6 3.169430 1_555
Mg0 Mg7 3.169430 1_555
Mg0 Mg8 3.169436 1_555
Mg0 Mg9 3.169436 1_555
Mg0 Mg5 3.196655 1_555
Mg0 Mg3 3.196655 1_555
Mg0 Mg5 3.289891 1_445
Mg0 Mg3 3.289892 1_455
Mg1 Mg9 3.157250 1_555
Mg1 Mg8 3.157250 1_555
Mg1 Mg6 3.157256 1_565
Mg1 Mg7 3.157256 1_565
Mg1 Mg3 3.209218 1_455
Mg1 Mg5 3.209218 1_455
Mg1 Mg3 3.277379 1_565
Mg1 Mg5 3.277379 1_555
Mg1 Mg13 3.352389 1_455
Mg1 Mg12 3.352389 1_455
Mg2 Mg7 3.020401 1_554
Mg2 Mg6 3.020401 1_555
Mg3 Mg5 3.015222 1_555
Mg3 Mg5 3.134356 1_545
Mg3 Mg6 3.184665 1_555
Mg3 Mg7 3.184665 1_555
Mg4 Mg9 3.020401 1_554
Mg4 Mg8 3.020401 1_555
Mg5 Mg9 3.184665 1_555
Mg5 Mg8 3.184665 1_555
Mg6 Mg8 3.011514 1_545
Mg6 Mg8 3.138063 1_555
Mg7 Mg9 3.011514 1_545
Mg7 Mg9 3.138063 1_555
Mg10 Mg3 3.054125 1_555
Mg10 Mg5 3.054132 1_545
Mg10 Mg12 3.109405 1_545
Mg10 Mg12 3.109405 1_555
Mg10 Mg8 3.198372 1_545
Mg10 Mg6 3.198372 1_555
Mg10 Mg8 3.294350 1_655
Mg10 Mg6 3.294351 1_655
Mg10 Mg2 3.310807 1_555
Mg10 Mg4 3.310812 1_545
Mg11 Mg3 3.054125 1_555
Mg11 Mg5 3.054132 1_545
Mg11 Mg13 3.109405 1_545
Mg11 Mg13 3.109405 1_555
Mg11 Mg9 3.198372 1_545
Mg11 Mg7 3.198372 1_555
Mg11 Mg9 3.294350 1_655
Mg11 Mg7 3.294351 1_655
Mg11 Mg2 3.310807 1_556
Mg11 Mg4 3.310812 1_546
Mg12 Mg6 3.137955 1_665
Mg12 Mg8 3.137955 1_655
Mg12 Mg6 3.375474 1_555
Mg12 Mg8 3.375475 1_555
Mg12 Mg5 3.432680 1_555
Mg12 Mg3 3.432686 1_555
Mg13 Mg7 3.137955 1_665
Mg13 Mg9 3.137955 1_655
Mg13 Mg7 3.375474 1_555
Mg13 Mg9 3.375475 1_555
Mg13 Mg5 3.432680 1_555
Mg13 Mg3 3.432686 1_555
B0 Mg2 2.471502 1_565
B0 Mg4 2.471503 1_555
B0 Mg9 2.999888 1_554
B0 Mg8 2.999888 1_555
B0 Mg6 2.999894 1_565
B0 Mg7 2.999894 1_564
B0 Ca0 3.175338 1_555
B0 Ca0 3.175338 1_565
