# generated using pymatgen
data_Ba3V2Ni6(AsO6)4
_symmetry_space_group_name_H-M   'P 1'
_cell_length_a   5.04464000
_cell_length_b   8.39800456
_cell_length_c   13.34665672
_cell_angle_alpha   103.12110574
_cell_angle_beta   79.10714557
_cell_angle_gamma   107.47589825
_symmetry_Int_Tables_number   1
_chemical_formula_structural   Ba3V2Ni6(AsO6)4
_chemical_formula_sum   'Ba3 V2 Ni6 As4 O24'
_cell_volume   520.79077798
_cell_formula_units_Z   1
loop_
 _symmetry_equiv_pos_site_id
 _symmetry_equiv_pos_as_xyz
  1  'x, y, z'
loop_
 _atom_site_type_symbol
 _atom_site_label
 _atom_site_symmetry_multiplicity
 _atom_site_fract_x
 _atom_site_fract_y
 _atom_site_fract_z
 _atom_site_occupancy
  Ba  Ba0  1  0.00022000  0.00056500  0.00011600  1
  Ba  Ba1  1  0.33350500  0.00026600  0.33370400  1
  Ba  Ba2  1  0.66683300  0.00044200  0.66632200  1
  V  V0  1  0.23525500  0.27940400  0.80889700  1
  V  V1  1  0.56857500  0.27935900  0.14207300  1
  Ni  Ni0  1  0.10636500  0.49199700  0.27704300  1
  Ni  Ni1  1  0.44212900  0.49211900  0.61005600  1
  Ni  Ni2  1  0.77409400  0.49179300  0.94355300  1
  Ni  Ni3  1  0.89084000  0.50680700  0.72275900  1
  Ni  Ni4  1  0.22514500  0.50658500  0.05629900  1
  Ni  Ni5  1  0.55977700  0.50711600  0.38987700  1
  As  As0  1  0.09793300  0.72014600  0.52449400  1
  As  As1  1  0.43101800  0.71981800  0.85773700  1
  As  As2  1  0.76433500  0.71986100  0.19106700  1
  As  As3  1  0.90220700  0.28003100  0.47558000  1
  O  O0  1  0.19317000  0.93474300  0.54850800  1
  O  O1  1  0.52654000  0.93478200  0.88168400  1
  O  O2  1  0.85994500  0.93465800  0.21469700  1
  O  O3  1  0.80686700  0.06555600  0.45176800  1
  O  O4  1  0.13951100  0.06392200  0.78493400  1
  O  O5  1  0.47288700  0.06389600  0.11813100  1
  O  O6  1  0.84221500  0.65362800  0.62498400  1
  O  O7  1  0.17539900  0.65363100  0.95831200  1
  O  O8  1  0.50851100  0.65335900  0.29167900  1
  O  O9  1  0.96743500  0.65366100  0.40574800  1
  O  O10  1  0.30028900  0.65341400  0.73898800  1
  O  O11  1  0.63380800  0.65351200  0.07233900  1
  O  O12  1  0.39545000  0.65339200  0.52047400  1
  O  O13  1  0.72886100  0.65366800  0.85387300  1
  O  O14  1  0.06217700  0.65355400  0.18712800  1
  O  O15  1  0.15841400  0.34658100  0.37507000  1
  O  O16  1  0.49424400  0.34745900  0.70699800  1
  O  O17  1  0.82798600  0.34736100  0.04031300  1
  O  O18  1  0.03381300  0.34660000  0.59421500  1
  O  O19  1  0.36799200  0.34738000  0.92924100  1
  O  O20  1  0.70052700  0.34744800  0.26262000  1
  O  O21  1  0.60436800  0.34663000  0.47967200  1
  O  O22  1  0.93413400  0.34745200  0.81262300  1
  O  O23  1  0.26722300  0.34740300  0.14642500  1
loop_
_geom_bond_atom_site_label_1
_geom_bond_atom_site_label_2
_geom_bond_distance
_geom_bond_site_symmetry_2
Ba0 O5 2.954032 1_455
Ba0 O5 2.954116 1_555
Ba0 O2 2.954275 1_445
Ba0 O4 2.954915 1_554
Ba0 O1 2.958306 1_544
Ba0 O1 2.958353 1_444
Ba0 O17 3.187323 1_455
Ba0 O19 3.187785 1_554
Ba0 O23 3.188548 1_555
Ba0 O7 3.194223 1_544
Ba0 O13 3.194308 1_444
Ba0 O11 3.194824 1_445
Ba1 O3 2.954556 1_555
Ba1 O0 2.956072 1_545
Ba1 O3 2.956709 1_455
Ba1 O5 2.960722 1_555
Ba1 O2 2.960814 1_545
Ba1 O2 2.963050 1_445
Ba1 O21 3.188966 1_555
Ba1 O15 3.189525 1_555
Ba1 O9 3.190407 1_445
Ba1 O20 3.190424 1_555
Ba1 O8 3.193306 1_545
Ba1 O14 3.195423 1_545
Ba2 O3 2.951698 1_555
Ba2 O0 2.953095 1_545
Ba2 O0 2.955494 1_645
Ba2 O4 2.956973 1_555
Ba2 O4 2.959078 1_655
Ba2 O1 2.963658 1_545
Ba2 O18 3.188858 1_655
Ba2 O16 3.189448 1_555
Ba2 O22 3.189828 1_555
Ba2 O12 3.192616 1_545
Ba2 O6 3.194323 1_545
Ba2 O10 3.197186 1_545
Ni0 O20 2.062112 1_455
Ni0 O23 2.065962 1_555
Ni0 O15 2.078423 1_555
Ni0 O9 2.083944 1_455
Ni0 O14 2.086293 1_555
Ni0 O8 2.090098 1_555
Ni1 O16 2.062299 1_555
Ni1 O21 2.070729 1_555
Ni1 O18 2.077589 1_555
Ni1 O6 2.082785 1_555
Ni1 O12 2.086250 1_555
Ni1 O10 2.089610 1_555
Ni2 O19 2.062698 1_555
Ni2 O17 2.062727 1_556
Ni2 O22 2.065840 1_555
Ni2 O11 2.087450 1_556
Ni2 O7 2.088295 1_655
Ni2 O13 2.088309 1_555
Ni3 O16 2.064221 1_555
Ni3 O22 2.068929 1_555
Ni3 O6 2.077638 1_555
Ni3 O13 2.082319 1_555
Ni3 O18 2.083484 1_655
Ni3 O10 2.085613 1_655
Ni4 O19 2.066400 1_554
Ni4 O17 2.066546 1_455
Ni4 O23 2.067862 1_555
Ni4 O14 2.082452 1_555
Ni4 O11 2.082647 1_555
Ni4 O7 2.083670 1_554
Ni5 O20 2.066137 1_555
Ni5 O9 2.077211 1_555
Ni5 O21 2.078631 1_555
Ni5 O12 2.080327 1_555
Ni5 O8 2.083896 1_555
Ni5 O15 2.084935 1_555
As0 O0 1.690367 1_555
As0 O6 1.740242 1_455
As0 O9 1.740321 1_455
As0 O12 1.740978 1_555
As1 O1 1.693257 1_555
As1 O7 1.740033 1_555
As1 O13 1.740068 1_555
As1 O10 1.740886 1_555
As2 O2 1.691944 1_555
As2 O11 1.740168 1_555
As2 O14 1.740611 1_655
As2 O8 1.741618 1_555
As3 O3 1.689404 1_555
As3 O18 1.741519 1_655
As3 O21 1.741583 1_555
As3 O15 1.741736 1_655
O4 V0 1.697337 1_555
O5 V1 1.697187 1_555
O16 V0 1.765247 1_555
O17 V1 1.764880 1_555
O19 V0 1.764855 1_555
O20 V1 1.765526 1_555
O22 V0 1.765355 1_655
O23 V1 1.764727 1_555
