# generated using pymatgen
data_Mg14ZrTi
_symmetry_space_group_name_H-M   'P 1'
_cell_length_a   6.40842164
_cell_length_b   6.40842111
_cell_length_c   10.11183052
_cell_angle_alpha   90.00000000
_cell_angle_beta   90.00000000
_cell_angle_gamma   120.00000272
_symmetry_Int_Tables_number   1
_chemical_formula_structural   Mg14ZrTi
_chemical_formula_sum   'Mg14 Zr1 Ti1'
_cell_volume   359.63547332
_cell_formula_units_Z   1
loop_
 _symmetry_equiv_pos_site_id
 _symmetry_equiv_pos_as_xyz
  1  'x, y, z'
loop_
 _atom_site_type_symbol
 _atom_site_label
 _atom_site_symmetry_multiplicity
 _atom_site_fract_x
 _atom_site_fract_y
 _atom_site_fract_z
 _atom_site_occupancy
  Mg  Mg0  1  0.17117738  0.83558819  0.12500000  1
  Mg  Mg1  1  0.16842596  0.83421248  0.62500000  1
  Mg  Mg2  1  0.66441181  0.32882262  0.12500000  1
  Mg  Mg3  1  0.66578752  0.33157404  0.62500000  1
  Mg  Mg4  1  0.66441181  0.83558819  0.12500000  1
  Mg  Mg5  1  0.66578752  0.83421248  0.62500000  1
  Mg  Mg6  1  0.33051288  0.16948712  0.37666218  1
  Mg  Mg7  1  0.33051288  0.16948712  0.87333782  1
  Mg  Mg8  1  0.33051288  0.66102676  0.37666218  1
  Mg  Mg9  1  0.33051288  0.66102676  0.87333782  1
  Mg  Mg10  1  0.83897324  0.16948712  0.37666218  1
  Mg  Mg11  1  0.83897324  0.16948712  0.87333782  1
  Mg  Mg12  1  0.83333300  0.66666700  0.37389911  1
  Mg  Mg13  1  0.83333300  0.66666700  0.87610089  1
  Zr  Zr0  1  0.16666700  0.33333300  0.12500000  1
  Ti  Ti0  1  0.16666700  0.33333300  0.62500000  1
loop_
_geom_bond_atom_site_label_1
_geom_bond_atom_site_label_2
_geom_bond_distance
_geom_bond_site_symmetry_2
Mg0 Mg13 3.138469 1_454
Mg0 Mg12 3.138469 1_455
Mg0 Mg8 3.148351 1_555
Mg0 Mg9 3.148351 1_554
Mg0 Mg7 3.148358 1_564
Mg0 Mg6 3.148358 1_565
Mg0 Mg2 3.160854 1_565
Mg0 Mg4 3.160854 1_555
Mg0 Zr0 3.204308 1_555
Mg0 Zr0 3.204308 1_565
Mg0 Mg2 3.247567 1_455
Mg0 Mg4 3.247567 1_455
Mg1 Mg8 3.125604 1_555
Mg1 Mg9 3.125604 1_555
Mg1 Mg6 3.125610 1_565
Mg1 Mg7 3.125610 1_565
Mg1 Mg12 3.147305 1_455
Mg1 Mg13 3.147305 1_455
Mg1 Mg3 3.187302 1_565
Mg1 Mg5 3.187303 1_555
Mg1 Ti0 3.204225 1_555
Mg1 Ti0 3.204225 1_565
Mg1 Mg3 3.221119 1_455
Mg1 Mg5 3.221119 1_455
Mg2 Mg7 3.148358 1_554
Mg2 Mg6 3.148358 1_555
Mg2 Mg4 3.160854 1_545
Mg2 Zr0 3.204309 1_655
Mg2 Zr0 3.204309 1_555
Mg2 Mg4 3.247567 1_555
Mg3 Mg6 3.125610 1_555
Mg3 Mg7 3.125610 1_555
Mg3 Mg5 3.187302 1_545
Mg3 Ti0 3.204226 1_655
Mg3 Ti0 3.204226 1_555
Mg3 Mg5 3.221119 1_555
Mg4 Mg9 3.148358 1_554
Mg4 Mg8 3.148358 1_555
Mg4 Zr0 3.204308 1_555
Mg4 Zr0 3.204308 1_665
Mg5 Mg8 3.125610 1_555
Mg5 Mg9 3.125610 1_555
Mg5 Ti0 3.204225 1_555
Mg5 Ti0 3.204225 1_665
Mg6 Ti0 3.100538 1_555
Mg6 Zr0 3.127825 1_555
Mg6 Mg8 3.149993 1_555
Mg6 Mg8 3.258428 1_545
Mg7 Ti0 3.100538 1_555
Mg7 Zr0 3.127825 1_556
Mg7 Mg9 3.149993 1_555
Mg7 Mg9 3.258428 1_545
Mg8 Ti0 3.100544 1_555
Mg8 Zr0 3.127831 1_555
Mg9 Ti0 3.100544 1_555
Mg9 Zr0 3.127831 1_556
Mg10 Ti0 3.100544 1_655
Mg10 Mg3 3.125604 1_555
Mg10 Mg5 3.125610 1_545
Mg10 Zr0 3.127831 1_655
Mg10 Mg2 3.148351 1_555
Mg10 Mg4 3.148358 1_545
Mg10 Mg8 3.149993 1_655
Mg10 Mg6 3.149993 1_655
Mg10 Mg12 3.204485 1_545
Mg10 Mg12 3.204485 1_555
Mg10 Mg8 3.258428 1_545
Mg10 Mg6 3.258428 1_555
Mg11 Ti0 3.100544 1_655
Mg11 Mg3 3.125604 1_555
Mg11 Mg5 3.125610 1_545
Mg11 Zr0 3.127831 1_656
Mg11 Mg2 3.148351 1_556
Mg11 Mg4 3.148358 1_546
Mg11 Mg9 3.149993 1_655
Mg11 Mg7 3.149993 1_655
Mg11 Mg13 3.204485 1_545
Mg11 Mg13 3.204485 1_555
Mg11 Mg9 3.258428 1_545
Mg11 Mg7 3.258428 1_555
Mg12 Mg4 3.138463 1_555
Mg12 Mg2 3.138469 1_555
Mg12 Mg5 3.147298 1_555
Mg12 Mg3 3.147304 1_555
Mg12 Mg6 3.204485 1_665
Mg12 Mg6 3.204485 1_555
Mg12 Mg8 3.204486 1_555
Mg12 Mg8 3.204486 1_655
Mg13 Mg4 3.138463 1_556
Mg13 Mg2 3.138469 1_556
Mg13 Mg5 3.147298 1_555
Mg13 Mg3 3.147304 1_555
Mg13 Mg7 3.204485 1_665
Mg13 Mg7 3.204485 1_555
Mg13 Mg9 3.204486 1_555
Mg13 Mg9 3.204486 1_655
