# generated using pymatgen
data_YbGaCuO4
_symmetry_space_group_name_H-M   'P 1'
_cell_length_a   8.15125660
_cell_length_b   8.15125660
_cell_length_c   8.15125725
_cell_angle_alpha   24.59929464
_cell_angle_beta   24.59929464
_cell_angle_gamma   24.59929573
_symmetry_Int_Tables_number   1
_chemical_formula_structural   YbGaCuO4
_chemical_formula_sum   'Yb1 Ga1 Cu1 O4'
_cell_volume   82.52204728
_cell_formula_units_Z   1
loop_
 _symmetry_equiv_pos_site_id
 _symmetry_equiv_pos_as_xyz
  1  'x, y, z'
loop_
 _atom_site_type_symbol
 _atom_site_label
 _atom_site_symmetry_multiplicity
 _atom_site_fract_x
 _atom_site_fract_y
 _atom_site_fract_z
 _atom_site_occupancy
  Yb  Yb0  1  0.99643320  0.99643320  0.99643320  1
  Ga  Ga0  1  0.78777787  0.78777787  0.78777787  1
  Cu  Cu0  1  0.21197571  0.21197571  0.21197571  1
  O  O0  1  0.29251842  0.29251842  0.29251842  1
  O  O1  1  0.70903432  0.70903432  0.70903432  1
  O  O2  1  0.12537386  0.12537386  0.12537386  1
  O  O3  1  0.86824663  0.86824663  0.86824663  1
loop_
_geom_bond_atom_site_label_1
_geom_bond_atom_site_label_2
_geom_bond_distance
_geom_bond_site_symmetry_2
Ga0 O1 1.866414 1_555
Ga0 O3 1.907305 1_555
Ga0 O2 2.007585 1_665
Ga0 O2 2.007585 1_566
Ga0 O2 2.007585 1_656
Cu0 O0 1.909058 1_555
Cu0 O3 2.020125 1_445
Cu0 O3 2.020125 1_544
Cu0 O3 2.020125 1_454
Cu0 O2 2.052674 1_555
O0 Yb0 2.190810 1_544
O0 Yb0 2.190810 1_454
O0 Yb0 2.190811 1_445
O1 Yb0 2.281575 1_545
O1 Yb0 2.281575 1_455
O1 Yb0 2.281575 1_554
