# generated using pymatgen
data_K2Cu2(MoO4)3
_symmetry_space_group_name_H-M   'P 1'
_cell_length_a   9.10378300
_cell_length_b   7.07622400
_cell_length_c   20.57518758
_cell_angle_alpha   71.06630545
_cell_angle_beta   90.00000000
_cell_angle_gamma   90.00000000
_symmetry_Int_Tables_number   1
_chemical_formula_structural   K2Cu2(MoO4)3
_chemical_formula_sum   'K8 Cu8 Mo12 O48'
_cell_volume   1253.74746334
_cell_formula_units_Z   4
loop_
 _symmetry_equiv_pos_site_id
 _symmetry_equiv_pos_as_xyz
  1  'x, y, z'
loop_
 _atom_site_type_symbol
 _atom_site_label
 _atom_site_symmetry_multiplicity
 _atom_site_fract_x
 _atom_site_fract_y
 _atom_site_fract_z
 _atom_site_occupancy
  K  K0  1  0.03148800  0.80165200  0.90481300  1
  K  K1  1  0.96851200  0.19834800  0.09518700  1
  K  K2  1  0.53148800  0.19834800  0.59518700  1
  K  K3  1  0.46851200  0.80165200  0.40481300  1
  K  K4  1  0.11757400  0.40174600  0.78726800  1
  K  K5  1  0.88242600  0.59825400  0.21273200  1
  K  K6  1  0.61757400  0.59825400  0.71273200  1
  K  K7  1  0.38242600  0.40174600  0.28726800  1
  Cu  Cu0  1  0.41082500  0.93726300  0.94001000  1
  Cu  Cu1  1  0.58917500  0.06273700  0.05999000  1
  Cu  Cu2  1  0.91082500  0.06273700  0.55999000  1
  Cu  Cu3  1  0.08917500  0.93726300  0.44001000  1
  Cu  Cu4  1  0.14272200  0.26770400  0.63464500  1
  Cu  Cu5  1  0.85727800  0.73229600  0.36535500  1
  Cu  Cu6  1  0.64272200  0.73229600  0.86535500  1
  Cu  Cu7  1  0.35727800  0.26770400  0.13464500  1
  Mo  Mo0  1  0.22219900  0.80305400  0.59775900  1
  Mo  Mo1  1  0.77780100  0.19694600  0.40224100  1
  Mo  Mo2  1  0.72219900  0.19694600  0.90224100  1
  Mo  Mo3  1  0.27780100  0.80305400  0.09775900  1
  Mo  Mo4  1  0.32934300  0.94738400  0.77419300  1
  Mo  Mo5  1  0.67065700  0.05261600  0.22580700  1
  Mo  Mo6  1  0.82934300  0.05261600  0.72580700  1
  Mo  Mo7  1  0.17065700  0.94738400  0.27419300  1
  Mo  Mo8  1  0.33879300  0.41533200  0.96562200  1
  Mo  Mo9  1  0.66120700  0.58466800  0.03437800  1
  Mo  Mo10  1  0.83879300  0.58466800  0.53437800  1
  Mo  Mo11  1  0.16120700  0.41533200  0.46562200  1
  O  O0  1  0.78181100  0.97950400  0.65191200  1
  O  O1  1  0.21818900  0.02049600  0.34808800  1
  O  O2  1  0.28181100  0.02049600  0.84808800  1
  O  O3  1  0.71818900  0.97950400  0.15191200  1
  O  O4  1  0.50719100  0.81903900  0.78694100  1
  O  O5  1  0.49280900  0.18096100  0.21305900  1
  O  O6  1  0.00719100  0.18096100  0.71305900  1
  O  O7  1  0.99280900  0.81903900  0.28694100  1
  O  O8  1  0.82640500  0.83240300  0.80199900  1
  O  O9  1  0.17359500  0.16759700  0.19800100  1
  O  O10  1  0.32640500  0.16759700  0.69800100  1
  O  O11  1  0.67359500  0.83240300  0.30199900  1
  O  O12  1  0.19224100  0.78102200  0.76643400  1
  O  O13  1  0.80775900  0.21897800  0.23356600  1
  O  O14  1  0.69224100  0.21897800  0.73356600  1
  O  O15  1  0.30775900  0.78102200  0.26643400  1
  O  O16  1  0.15793500  0.55593300  0.64313100  1
  O  O17  1  0.84206500  0.44406700  0.35686900  1
  O  O18  1  0.65793500  0.44406700  0.85686900  1
  O  O19  1  0.34206500  0.55593300  0.14313100  1
  O  O20  1  0.25713300  0.36319800  0.54719000  1
  O  O21  1  0.74286700  0.63680200  0.45281000  1
  O  O22  1  0.75713300  0.63680200  0.95281000  1
  O  O23  1  0.24286700  0.36319800  0.04719000  1
  O  O24  1  0.19570000  0.46430900  0.90586100  1
  O  O25  1  0.80430000  0.53569100  0.09413900  1
  O  O26  1  0.69570000  0.53569100  0.59413900  1
  O  O27  1  0.30430000  0.46430900  0.40586100  1
  O  O28  1  0.39668300  0.82939500  0.63060100  1
  O  O29  1  0.60331700  0.17060500  0.36939900  1
  O  O30  1  0.89668300  0.17060500  0.86939900  1
  O  O31  1  0.10331700  0.82939500  0.13060100  1
  O  O32  1  0.93650700  0.80042200  0.54256700  1
  O  O33  1  0.06349300  0.19957800  0.45743300  1
  O  O34  1  0.43650700  0.19957800  0.95743300  1
  O  O35  1  0.56349300  0.80042200  0.04256700  1
  O  O36  1  0.10076000  0.99854400  0.61124800  1
  O  O37  1  0.89924000  0.00145600  0.38875200  1
  O  O38  1  0.60076000  0.00145600  0.88875200  1
  O  O39  1  0.39924000  0.99854400  0.11124800  1
  O  O40  1  0.25125300  0.84449200  0.50611800  1
  O  O41  1  0.74874700  0.15550800  0.49388200  1
  O  O42  1  0.75125300  0.15550800  0.99388200  1
  O  O43  1  0.24874700  0.84449200  0.00611800  1
  O  O44  1  0.45273300  0.64682000  0.94064800  1
  O  O45  1  0.54726700  0.35318000  0.05935200  1
  O  O46  1  0.95273300  0.35318000  0.55935200  1
  O  O47  1  0.04726700  0.64682000  0.44064800  1
loop_
_geom_bond_atom_site_label_1
_geom_bond_atom_site_label_2
_geom_bond_distance
_geom_bond_site_symmetry_2
K0 O30 2.760209 1_465
K0 O8 2.776585 1_455
K0 O2 2.789396 1_565
K0 O22 2.797637 1_455
K0 O24 2.810739 1_555
K0 O43 2.959484 1_556
K0 O12 3.246406 1_555
K1 O31 2.760209 1_645
K1 O9 2.776585 1_655
K1 O3 2.789396 1_545
K1 O23 2.797637 1_655
K1 O25 2.810739 1_555
K1 O42 2.959484 1_554
K1 O13 3.246406 1_555
K2 O28 2.760209 1_545
K2 O10 2.776585 1_555
K2 O0 2.789396 1_545
K2 O20 2.797637 1_555
K2 O26 2.810739 1_555
K2 O41 2.959484 1_555
K2 O14 3.246406 1_555
K3 O29 2.760209 1_565
K3 O11 2.776585 1_555
K3 O1 2.789396 1_565
K3 O21 2.797637 1_555
K3 O27 2.810739 1_555
K3 O40 2.959484 1_555
K3 O15 3.246406 1_555
K4 O12 2.665001 1_555
K4 O6 2.707404 1_555
K4 O24 2.712349 1_555
K4 O30 2.789458 1_455
K4 O16 2.832081 1_555
K4 O2 2.981418 1_555
K5 O13 2.665001 1_555
K5 O7 2.707404 1_555
K5 O25 2.712349 1_555
K5 O31 2.789458 1_655
K5 O17 2.832081 1_555
K5 O3 2.981418 1_555
K6 O14 2.665001 1_555
K6 O4 2.707404 1_555
K6 O26 2.712349 1_555
K6 O28 2.789458 1_555
K6 O18 2.832081 1_555
K6 O0 2.981418 1_555
K7 O15 2.665001 1_555
K7 O5 2.707404 1_555
K7 O27 2.712349 1_555
K7 O29 2.789458 1_555
K7 O19 2.832081 1_555
K7 O1 2.981418 1_555
Cu0 O43 1.969458 1_556
Cu0 O38 1.999400 1_565
Cu0 O34 2.015060 1_565
Cu0 O44 2.086201 1_555
Cu0 O2 2.140223 1_565
Cu0 O35 2.448675 1_556
Cu1 O42 1.969458 1_554
Cu1 O39 1.999400 1_545
Cu1 O35 2.015060 1_545
Cu1 O45 2.086201 1_555
Cu1 O3 2.140223 1_545
Cu1 O34 2.448675 1_554
Cu2 O41 1.969458 1_555
Cu2 O36 1.999400 1_645
Cu2 O32 2.015060 1_545
Cu2 O46 2.086201 1_555
Cu2 O0 2.140223 1_545
Cu2 O33 2.448675 1_655
Cu3 O40 1.969458 1_555
Cu3 O37 1.999400 1_465
Cu3 O33 2.015060 1_565
Cu3 O47 2.086201 1_555
Cu3 O1 2.140223 1_565
Cu3 O32 2.448675 1_455
Cu4 O6 1.964556 1_555
Cu4 O20 1.997567 1_555
Cu4 O10 2.097168 1_555
Cu4 O16 2.107278 1_555
Cu4 O36 2.144838 1_545
Cu4 O46 2.269201 1_455
Cu5 O7 1.964556 1_555
Cu5 O21 1.997567 1_555
Cu5 O11 2.097168 1_555
Cu5 O17 2.107278 1_555
Cu5 O37 2.144838 1_565
Cu5 O47 2.269201 1_655
Cu6 O4 1.964556 1_555
Cu6 O22 1.997567 1_555
Cu6 O8 2.097168 1_555
Cu6 O18 2.107278 1_555
Cu6 O38 2.144838 1_565
Cu6 O44 2.269201 1_555
Cu7 O5 1.964556 1_555
Cu7 O23 1.997567 1_555
Cu7 O9 2.097168 1_555
Cu7 O19 2.107278 1_555
Cu7 O39 2.144838 1_545
Cu7 O45 2.269201 1_555
Mo0 O28 1.759634 1_555
Mo0 O16 1.792284 1_555
Mo0 O40 1.830949 1_555
Mo0 O36 1.860654 1_555
Mo1 O29 1.759634 1_555
Mo1 O17 1.792284 1_555
Mo1 O41 1.830949 1_555
Mo1 O37 1.860654 1_555
Mo2 O30 1.759634 1_555
Mo2 O18 1.792284 1_555
Mo2 O42 1.830949 1_555
Mo2 O38 1.860654 1_555
Mo3 O31 1.759634 1_555
Mo3 O19 1.792284 1_555
Mo3 O43 1.830949 1_555
Mo3 O39 1.860654 1_555
Mo4 O12 1.758167 1_555
Mo4 O2 1.810246 1_565
Mo4 O10 1.816928 1_565
Mo4 O4 1.833162 1_555
Mo5 O13 1.758167 1_555
Mo5 O3 1.810246 1_545
Mo5 O11 1.816928 1_545
Mo5 O5 1.833162 1_555
Mo6 O14 1.758167 1_555
Mo6 O0 1.810246 1_545
Mo6 O8 1.816928 1_545
Mo6 O6 1.833162 1_655
Mo7 O15 1.758167 1_555
Mo7 O1 1.810246 1_565
Mo7 O9 1.816928 1_565
Mo7 O7 1.833162 1_455
Mo8 O24 1.747130 1_555
Mo8 O23 1.820318 1_556
Mo8 O34 1.821411 1_555
Mo8 O44 1.864676 1_555
Mo9 O25 1.747130 1_555
Mo9 O22 1.820318 1_554
Mo9 O35 1.821411 1_555
Mo9 O45 1.864676 1_555
Mo10 O26 1.747130 1_555
Mo10 O21 1.820318 1_555
Mo10 O32 1.821411 1_555
Mo10 O46 1.864676 1_555
Mo11 O27 1.747130 1_555
Mo11 O20 1.820318 1_555
Mo11 O33 1.821411 1_555
Mo11 O47 1.864676 1_555
