# generated using pymatgen
data_Rh3W
_symmetry_space_group_name_H-M   'P 1'
_cell_length_a   5.56104727
_cell_length_b   5.56104727
_cell_length_c   17.65837400
_cell_angle_alpha   90.00000000
_cell_angle_beta   90.00000000
_cell_angle_gamma   119.99999135
_symmetry_Int_Tables_number   1
_chemical_formula_structural   Rh3W
_chemical_formula_sum   'Rh24 W8'
_cell_volume   472.92748464
_cell_formula_units_Z   8
loop_
 _symmetry_equiv_pos_site_id
 _symmetry_equiv_pos_as_xyz
  1  'x, y, z'
loop_
 _atom_site_type_symbol
 _atom_site_label
 _atom_site_symmetry_multiplicity
 _atom_site_fract_x
 _atom_site_fract_y
 _atom_site_fract_z
 _atom_site_occupancy
  Rh  Rh0_0  1  0.00000000  0.00000000  0.00000000  1
  Rh  Rh0_1  1  0.00000000  0.00000000  0.50000000  1
  Rh  Rh0_2  1  0.00000000  0.50000000  0.00000000  1
  Rh  Rh0_3  1  0.00000000  0.50000000  0.50000000  1
  Rh  Rh0_4  1  0.50000000  0.00000000  0.00000000  1
  Rh  Rh0_5  1  0.50000000  0.00000000  0.50000000  1
  Rh  Rh0_6  1  0.50000000  0.50000000  0.00000000  1
  Rh  Rh0_7  1  0.50000000  0.50000000  0.50000000  1
  Rh  Rh1_0  1  0.16666650  0.33333350  0.37250550  1
  Rh  Rh1_1  1  0.16666650  0.33333350  0.87250550  1
  Rh  Rh1_2  1  0.16666650  0.83333350  0.37250550  1
  Rh  Rh1_3  1  0.16666650  0.83333350  0.87250550  1
  Rh  Rh1_4  1  0.66666650  0.33333350  0.37250550  1
  Rh  Rh1_5  1  0.66666650  0.33333350  0.87250550  1
  Rh  Rh1_6  1  0.66666650  0.83333350  0.37250550  1
  Rh  Rh1_7  1  0.66666650  0.83333350  0.87250550  1
  Rh  Rh2_0  1  0.16666650  0.33333350  0.12749450  1
  Rh  Rh2_1  1  0.16666650  0.33333350  0.62749450  1
  Rh  Rh2_2  1  0.16666650  0.83333350  0.12749450  1
  Rh  Rh2_3  1  0.16666650  0.83333350  0.62749450  1
  Rh  Rh2_4  1  0.66666650  0.33333350  0.12749450  1
  Rh  Rh2_5  1  0.66666650  0.33333350  0.62749450  1
  Rh  Rh2_6  1  0.66666650  0.83333350  0.12749450  1
  Rh  Rh2_7  1  0.66666650  0.83333350  0.62749450  1
  W  W0_0  1  0.00000000  0.00000000  0.25000000  1
  W  W0_1  1  0.00000000  0.00000000  0.75000000  1
  W  W0_2  1  0.00000000  0.50000000  0.25000000  1
  W  W0_3  1  0.00000000  0.50000000  0.75000000  1
  W  W0_4  1  0.50000000  0.00000000  0.25000000  1
  W  W0_5  1  0.50000000  0.00000000  0.75000000  1
  W  W0_6  1  0.50000000  0.50000000  0.25000000  1
  W  W0_7  1  0.50000000  0.50000000  0.75000000  1
loop_
_geom_bond_atom_site_label_1
_geom_bond_atom_site_label_2
_geom_bond_distance
_geom_bond_site_symmetry_2
Rh0_0 Rh1_3 2.765078 1_544
Rh0_0 Rh2_2 2.765078 1_545
Rh0_0 Rh1_1 2.765079 1_554
Rh0_0 Rh1_7 2.765079 1_444
Rh0_0 Rh2_6 2.765079 1_445
Rh0_0 Rh2_0 2.765079 1_555
Rh0_0 Rh0_4 2.780524 1_455
Rh0_0 Rh0_2 2.780524 1_545
Rh0_0 Rh0_2 2.780524 1_555
Rh0_0 Rh0_4 2.780524 1_555
Rh0_0 Rh0_6 2.780524 1_445
Rh0_0 Rh0_6 2.780524 1_555
Rh0_1 Rh2_3 2.765078 1_545
Rh0_1 Rh1_2 2.765078 1_545
Rh0_1 Rh2_7 2.765079 1_445
Rh0_1 Rh2_1 2.765079 1_555
Rh0_1 Rh1_6 2.765079 1_445
Rh0_1 Rh1_0 2.765079 1_555
Rh0_1 Rh0_5 2.780524 1_555
Rh0_1 Rh0_5 2.780524 1_455
Rh0_1 Rh0_3 2.780524 1_545
Rh0_1 Rh0_3 2.780524 1_555
Rh0_1 Rh0_7 2.780524 1_445
Rh0_1 Rh0_7 2.780524 1_555
Rh0_2 Rh1_1 2.765078 1_554
Rh0_2 Rh2_0 2.765078 1_555
Rh0_2 Rh1_5 2.765079 1_454
Rh0_2 Rh1_3 2.765079 1_554
Rh0_2 Rh2_2 2.765079 1_555
Rh0_2 Rh2_4 2.765079 1_455
Rh0_2 Rh0_6 2.780524 1_555
Rh0_2 Rh0_6 2.780524 1_455
Rh0_2 Rh0_4 2.780524 1_565
Rh0_2 Rh0_4 2.780524 1_455
Rh0_3 Rh2_1 2.765078 1_555
Rh0_3 Rh1_0 2.765078 1_555
Rh0_3 Rh2_3 2.765079 1_555
Rh0_3 Rh2_5 2.765079 1_455
Rh0_3 Rh1_2 2.765079 1_555
Rh0_3 Rh1_4 2.765079 1_455
Rh0_3 Rh0_7 2.780524 1_455
Rh0_3 Rh0_7 2.780524 1_555
Rh0_3 Rh0_5 2.780524 1_455
Rh0_3 Rh0_5 2.780524 1_565
Rh0_4 Rh1_7 2.765078 1_544
Rh0_4 Rh2_6 2.765078 1_545
Rh0_4 Rh1_3 2.765079 1_544
Rh0_4 Rh1_5 2.765079 1_554
Rh0_4 Rh2_4 2.765079 1_555
Rh0_4 Rh2_2 2.765079 1_545
Rh0_4 Rh0_6 2.780524 1_555
Rh0_4 Rh0_6 2.780524 1_545
Rh0_5 Rh2_7 2.765078 1_545
Rh0_5 Rh1_6 2.765078 1_545
Rh0_5 Rh2_3 2.765079 1_545
Rh0_5 Rh2_5 2.765079 1_555
Rh0_5 Rh1_4 2.765079 1_555
Rh0_5 Rh1_2 2.765079 1_545
Rh0_5 Rh0_7 2.780524 1_555
Rh0_5 Rh0_7 2.780524 1_545
Rh0_6 Rh1_5 2.765078 1_554
Rh0_6 Rh2_4 2.765078 1_555
Rh0_6 Rh1_1 2.765079 1_554
Rh0_6 Rh2_0 2.765079 1_555
Rh0_6 Rh1_7 2.765079 1_554
Rh0_6 Rh2_6 2.765079 1_555
Rh0_7 Rh2_5 2.765078 1_555
Rh0_7 Rh1_4 2.765078 1_555
Rh0_7 Rh2_1 2.765079 1_555
Rh0_7 Rh2_7 2.765079 1_555
Rh0_7 Rh1_0 2.765079 1_555
Rh0_7 Rh1_6 2.765079 1_555
Rh1_0 W0_2 2.693834 1_555
Rh1_0 W0_6 2.693835 1_555
Rh1_0 W0_0 2.693835 1_555
Rh1_0 Rh1_4 2.780524 1_455
Rh1_0 Rh1_2 2.780524 1_555
Rh1_0 Rh1_4 2.780524 1_555
Rh1_0 Rh1_2 2.780524 1_545
Rh1_0 Rh1_6 2.780524 1_445
Rh1_0 Rh1_6 2.780524 1_555
Rh1_1 W0_3 2.693834 1_555
Rh1_1 W0_7 2.693835 1_555
Rh1_1 W0_1 2.693835 1_555
Rh1_1 Rh1_5 2.780524 1_455
Rh1_1 Rh1_3 2.780524 1_555
Rh1_1 Rh1_3 2.780524 1_545
Rh1_1 Rh1_5 2.780524 1_555
Rh1_1 Rh1_7 2.780524 1_445
Rh1_1 Rh1_7 2.780524 1_555
Rh1_2 W0_0 2.693834 1_565
Rh1_2 W0_2 2.693835 1_555
Rh1_2 W0_4 2.693835 1_565
Rh1_2 Rh1_6 2.780524 1_555
Rh1_2 Rh1_6 2.780524 1_455
Rh1_2 Rh1_4 2.780524 1_455
Rh1_2 Rh1_4 2.780524 1_565
Rh1_3 W0_1 2.693834 1_565
Rh1_3 W0_3 2.693835 1_555
Rh1_3 W0_5 2.693835 1_565
Rh1_3 Rh1_7 2.780524 1_555
Rh1_3 Rh1_7 2.780524 1_455
Rh1_3 Rh1_5 2.780524 1_455
Rh1_3 Rh1_5 2.780524 1_565
Rh1_4 W0_6 2.693834 1_555
Rh1_4 W0_2 2.693835 1_655
Rh1_4 W0_4 2.693835 1_555
Rh1_4 Rh1_6 2.780524 1_545
Rh1_4 Rh1_6 2.780524 1_555
Rh1_5 W0_7 2.693834 1_555
Rh1_5 W0_3 2.693835 1_655
Rh1_5 W0_5 2.693835 1_555
Rh1_5 Rh1_7 2.780524 1_545
Rh1_5 Rh1_7 2.780524 1_555
Rh1_6 W0_4 2.693834 1_565
Rh1_6 W0_0 2.693835 1_665
Rh1_6 W0_6 2.693835 1_555
Rh1_7 W0_5 2.693834 1_565
Rh1_7 W0_1 2.693835 1_665
Rh1_7 W0_7 2.693835 1_555
Rh2_0 W0_2 2.693834 1_555
Rh2_0 W0_6 2.693835 1_555
Rh2_0 W0_0 2.693835 1_555
Rh2_0 Rh2_4 2.780524 1_455
Rh2_0 Rh2_2 2.780524 1_555
Rh2_0 Rh2_4 2.780524 1_555
Rh2_0 Rh2_2 2.780524 1_545
Rh2_0 Rh2_6 2.780524 1_445
Rh2_0 Rh2_6 2.780524 1_555
Rh2_1 W0_3 2.693834 1_555
Rh2_1 W0_7 2.693835 1_555
Rh2_1 W0_1 2.693835 1_555
Rh2_1 Rh2_5 2.780524 1_455
Rh2_1 Rh2_3 2.780524 1_555
Rh2_1 Rh2_5 2.780524 1_555
Rh2_1 Rh2_3 2.780524 1_545
Rh2_1 Rh2_7 2.780524 1_445
Rh2_1 Rh2_7 2.780524 1_555
Rh2_2 W0_0 2.693834 1_565
Rh2_2 W0_2 2.693835 1_555
Rh2_2 W0_4 2.693835 1_565
Rh2_2 Rh2_6 2.780524 1_555
Rh2_2 Rh2_6 2.780524 1_455
Rh2_2 Rh2_4 2.780524 1_455
Rh2_2 Rh2_4 2.780524 1_565
Rh2_3 W0_1 2.693834 1_565
Rh2_3 W0_3 2.693835 1_555
Rh2_3 W0_5 2.693835 1_565
Rh2_3 Rh2_7 2.780524 1_555
Rh2_3 Rh2_7 2.780524 1_455
Rh2_3 Rh2_5 2.780524 1_455
Rh2_3 Rh2_5 2.780524 1_565
Rh2_4 W0_6 2.693834 1_555
Rh2_4 W0_2 2.693835 1_655
Rh2_4 W0_4 2.693835 1_555
Rh2_4 Rh2_6 2.780524 1_545
Rh2_4 Rh2_6 2.780524 1_555
Rh2_5 W0_7 2.693834 1_555
Rh2_5 W0_3 2.693835 1_655
Rh2_5 W0_5 2.693835 1_555
Rh2_5 Rh2_7 2.780524 1_545
Rh2_5 Rh2_7 2.780524 1_555
Rh2_6 W0_4 2.693834 1_565
Rh2_6 W0_0 2.693835 1_665
Rh2_6 W0_6 2.693835 1_555
Rh2_7 W0_5 2.693834 1_565
Rh2_7 W0_1 2.693835 1_665
Rh2_7 W0_7 2.693835 1_555
W0_0 W0_4 2.780524 1_555
W0_0 W0_2 2.780524 1_555
W0_0 W0_2 2.780524 1_545
W0_0 W0_4 2.780524 1_455
W0_0 W0_6 2.780524 1_445
W0_0 W0_6 2.780524 1_555
W0_1 W0_3 2.780524 1_555
W0_1 W0_3 2.780524 1_545
W0_1 W0_5 2.780524 1_455
W0_1 W0_5 2.780524 1_555
W0_1 W0_7 2.780524 1_445
W0_1 W0_7 2.780524 1_555
W0_2 W0_6 2.780524 1_555
W0_2 W0_6 2.780524 1_455
W0_2 W0_4 2.780524 1_455
W0_2 W0_4 2.780524 1_565
W0_3 W0_7 2.780524 1_555
W0_3 W0_7 2.780524 1_455
W0_3 W0_5 2.780524 1_455
W0_3 W0_5 2.780524 1_565
W0_4 W0_6 2.780524 1_545
W0_4 W0_6 2.780524 1_555
W0_5 W0_7 2.780524 1_555
W0_5 W0_7 2.780524 1_545
