# generated using pymatgen
data_MgAl2
_symmetry_space_group_name_H-M   'P 1'
_cell_length_a   5.54869500
_cell_length_b   5.54869500
_cell_length_c   5.08735900
_cell_angle_alpha   90.00000000
_cell_angle_beta   90.00000000
_cell_angle_gamma   90.00000000
_symmetry_Int_Tables_number   1
_chemical_formula_structural   MgAl2
_chemical_formula_sum   'Mg2 Al4'
_cell_volume   156.62969132
_cell_formula_units_Z   2
loop_
 _symmetry_equiv_pos_site_id
 _symmetry_equiv_pos_as_xyz
  1  'x, y, z'
loop_
 _atom_site_type_symbol
 _atom_site_label
 _atom_site_symmetry_multiplicity
 _atom_site_fract_x
 _atom_site_fract_y
 _atom_site_fract_z
 _atom_site_occupancy
  Mg  Mg0  1  0.00000000  0.00000000  0.00000000  1
  Mg  Mg1  1  0.50000000  0.50000000  0.50000000  1
  Al  Al0  1  0.33584600  0.33584600  0.00000000  1
  Al  Al1  1  0.66415400  0.66415400  0.00000000  1
  Al  Al2  1  0.16415400  0.83584600  0.50000000  1
  Al  Al3  1  0.83584600  0.16415400  0.50000000  1
loop_
_geom_bond_atom_site_label_1
_geom_bond_atom_site_label_2
_geom_bond_distance
_geom_bond_site_symmetry_2
Al0 Al1 2.576246 1_555
Al0 Mg0 2.635397 1_555
Al0 Mg1 2.851239 1_555
Al0 Mg1 2.851239 1_554
Al1 Mg0 2.635397 1_665
Al1 Mg1 2.851239 1_555
Al1 Mg1 2.851239 1_554
Al2 Al3 2.576246 1_465
Al2 Mg1 2.635397 1_555
Al2 Mg0 2.851239 1_565
Al2 Mg0 2.851239 1_566
Al3 Mg1 2.635397 1_555
Al3 Mg0 2.851239 1_655
Al3 Mg0 2.851239 1_656
