# generated using pymatgen
data_Li3Co2(CO3)4
_symmetry_space_group_name_H-M   'P 1'
_cell_length_a   5.40567602
_cell_length_b   11.53035840
_cell_length_c   8.42362461
_cell_angle_alpha   88.53085307
_cell_angle_beta   73.17704414
_cell_angle_gamma   89.51630985
_symmetry_Int_Tables_number   1
_chemical_formula_structural   Li3Co2(CO3)4
_chemical_formula_sum   'Li6 Co4 C8 O24'
_cell_volume   502.40403950
_cell_formula_units_Z   2
loop_
 _symmetry_equiv_pos_site_id
 _symmetry_equiv_pos_as_xyz
  1  'x, y, z'
loop_
 _atom_site_type_symbol
 _atom_site_label
 _atom_site_symmetry_multiplicity
 _atom_site_fract_x
 _atom_site_fract_y
 _atom_site_fract_z
 _atom_site_occupancy
  Li  Li0  1  0.00304800  0.47761100  0.31181700  1
  Li  Li1  1  0.49221000  0.97823400  0.31721600  1
  Li  Li2  1  0.81383300  0.02509300  0.67666300  1
  Li  Li3  1  0.31284600  0.52580600  0.67261400  1
  Li  Li4  1  0.48459000  0.26455700  0.84950400  1
  Li  Li5  1  0.97100600  0.76232600  0.84467100  1
  Co  Co0  1  0.13360000  0.99902200  0.00001700  1
  Co  Co1  1  0.62784300  0.75750200  0.48153300  1
  Co  Co2  1  0.63562400  0.49791600  0.00457200  1
  Co  Co3  1  0.08466500  0.25337000  0.49318500  1
  C  C0  1  0.36591700  0.30386300  0.21216300  1
  C  C1  1  0.86623700  0.80609000  0.20669400  1
  C  C2  1  0.01693200  0.06079900  0.29671500  1
  C  C3  1  0.53380500  0.56206000  0.29995100  1
  C  C4  1  0.81927600  0.44098500  0.69829000  1
  C  C5  1  0.33304700  0.93967500  0.69645800  1
  C  C6  1  0.07298900  0.19738300  0.78742400  1
  C  C7  1  0.54138200  0.69333000  0.79613100  1
  O  O0  1  0.51390500  0.32757100  0.06606100  1
  O  O1  1  0.99289700  0.83119100  0.05783300  1
  O  O2  1  0.11478500  0.31040600  0.24967100  1
  O  O3  1  0.61236700  0.80300300  0.25768900  1
  O  O4  1  0.83293700  0.04166200  0.23450800  1
  O  O5  1  0.34400600  0.54050800  0.24394900  1
  O  O6  1  0.25114400  0.03957100  0.20746400  1
  O  O7  1  0.76575200  0.54403200  0.20253500  1
  O  O8  1  0.97383000  0.09887800  0.44872000  1
  O  O9  1  0.50236900  0.59908300  0.45092200  1
  O  O10  1  0.45130700  0.27289700  0.33593200  1
  O  O11  1  0.96886500  0.78311800  0.32561300  1
  O  O12  1  0.92602800  0.40882800  0.54551600  1
  O  O13  1  0.45336800  0.91164300  0.54441400  1
  O  O14  1  0.85440400  0.19180200  0.75016800  1
  O  O15  1  0.31974500  0.68730200  0.77032800  1
  O  O16  1  0.95907300  0.47198100  0.79059800  1
  O  O17  1  0.46168900  0.96820300  0.79758600  1
  O  O18  1  0.27116700  0.23649700  0.66918500  1
  O  O19  1  0.74055100  0.72803800  0.67050200  1
  O  O20  1  0.57037800  0.44174400  0.76158600  1
  O  O21  1  0.08294100  0.94089200  0.75112700  1
  O  O22  1  0.10447200  0.16696000  0.92698300  1
  O  O23  1  0.59475500  0.66802100  0.93112300  1
loop_
_geom_bond_atom_site_label_1
_geom_bond_atom_site_label_2
_geom_bond_distance
_geom_bond_site_symmetry_2
Li0 O5 1.908201 1_555
Li0 O7 1.926175 1_455
Li0 O12 2.031944 1_455
Li0 O2 2.050579 1_555
Li1 O4 1.914825 1_565
Li1 O6 1.923875 1_565
Li1 O13 1.997787 1_555
Li1 O3 2.144043 1_555
Li2 O21 1.981241 1_645
Li2 O17 1.988950 1_545
Li2 O8 2.031269 1_555
Li2 O14 2.067157 1_555
Li3 O16 1.979492 1_455
Li3 O20 1.995773 1_555
Li3 O9 2.019191 1_555
Li3 O15 2.060066 1_555
Li4 O0 2.029271 1_556
Li4 O14 2.107065 1_555
Li4 O20 2.162664 1_555
Li4 O18 2.188312 1_555
Li4 O22 2.267075 1_555
Li5 O15 2.002812 1_655
Li5 O1 2.016521 1_556
Li5 O21 2.210903 1_655
Li5 O19 2.226366 1_555
Li5 O23 2.233565 1_555
Co0 O22 2.035363 1_564
Co0 O1 2.079090 1_455
Co0 O6 2.089389 1_565
Co0 O17 2.109348 1_554
Co0 O4 2.227778 1_465
Co0 O21 2.308088 1_554
Co1 O19 1.884303 1_555
Co1 O11 1.948959 1_555
Co1 O3 1.969135 1_555
Co1 O9 2.002353 1_555
Co1 O13 2.014872 1_555
Co2 O23 2.070788 1_554
Co2 O7 2.071012 1_555
Co2 O0 2.081211 1_555
Co2 O16 2.142417 1_554
Co2 O5 2.233819 1_555
Co2 O20 2.285404 1_554
Co3 O8 1.963311 1_455
Co3 O12 1.984555 1_455
Co3 O18 2.024671 1_555
Co3 O10 2.050873 1_555
Co3 O2 2.099055 1_555
Co3 O14 2.261814 1_455
C0 O0 1.282923 1_555
C0 O10 1.297775 1_555
C0 O2 1.303706 1_555
C1 O1 1.269930 1_555
C1 O11 1.298839 1_555
C1 O3 1.314505 1_555
C2 O4 1.274304 1_455
C2 O6 1.296659 1_555
C2 O8 1.319465 1_455
C3 O5 1.275704 1_555
C3 O7 1.302871 1_555
C3 O9 1.315262 1_555
C4 O16 1.289324 1_555
C4 O20 1.295928 1_555
C4 O12 1.310580 1_555
C5 O17 1.295597 1_555
C5 O21 1.296062 1_555
C5 O13 1.305127 1_555
C6 O22 1.275808 1_555
C6 O18 1.307892 1_555
C6 O14 1.309874 1_455
C7 O23 1.277855 1_555
C7 O15 1.280792 1_555
C7 O19 1.328637 1_555
