# generated using pymatgen
data_Li3CoPCO7
_symmetry_space_group_name_H-M   'P 1'
_cell_length_a   6.44942800
_cell_length_b   8.45538871
_cell_length_c   9.96561271
_cell_angle_alpha   95.16585975
_cell_angle_beta   90.32431673
_cell_angle_gamma   90.33637470
_symmetry_Int_Tables_number   1
_chemical_formula_structural   Li3CoPCO7
_chemical_formula_sum   'Li12 Co4 P4 C4 O28'
_cell_volume   541.22184014
_cell_formula_units_Z   4
loop_
 _symmetry_equiv_pos_site_id
 _symmetry_equiv_pos_as_xyz
  1  'x, y, z'
loop_
 _atom_site_type_symbol
 _atom_site_label
 _atom_site_symmetry_multiplicity
 _atom_site_fract_x
 _atom_site_fract_y
 _atom_site_fract_z
 _atom_site_occupancy
  Li  Li0  1  0.74429000  0.90858600  0.38394700  1
  Li  Li1  1  0.74406500  0.90105000  0.88194100  1
  Li  Li2  1  0.52203500  0.71855000  0.12416100  1
  Li  Li3  1  0.98158900  0.72558900  0.62681700  1
  Li  Li4  1  0.52555600  0.72305900  0.62493300  1
  Li  Li5  1  0.74972200  0.34095700  0.10672400  1
  Li  Li6  1  0.48643800  0.27599700  0.36526000  1
  Li  Li7  1  0.01366600  0.27802400  0.36477000  1
  Li  Li8  1  0.48836200  0.27591500  0.88702100  1
  Li  Li9  1  0.00636000  0.27408000  0.88511200  1
  Li  Li10  1  0.25053700  0.10889200  0.10906700  1
  Li  Li11  1  0.25096700  0.10158900  0.61544900  1
  Co  Co0  1  0.98640000  0.73202900  0.12840300  1
  Co  Co1  1  0.25035700  0.66392500  0.39674000  1
  Co  Co2  1  0.25573000  0.66175600  0.89143900  1
  Co  Co3  1  0.75086300  0.33214800  0.60508600  1
  P  P0  1  0.75307200  0.58991800  0.36167300  1
  P  P1  1  0.74965100  0.58243400  0.86117600  1
  P  P2  1  0.24647500  0.40974600  0.13919300  1
  P  P3  1  0.25117800  0.41252200  0.63774100  1
  C  C0  1  0.24361800  0.96056600  0.34684900  1
  C  C1  1  0.24718900  0.96155300  0.85073000  1
  C  C2  1  0.75246400  0.03771000  0.14903500  1
  C  C3  1  0.75054100  0.03858400  0.65151900  1
  O  O0  1  0.25131500  0.92815200  0.47036600  1
  O  O1  1  0.76001300  0.88564900  0.18113000  1
  O  O2  1  0.24879400  0.92639600  0.97521400  1
  O  O3  1  0.23727900  0.83780900  0.25352500  1
  O  O4  1  0.74856900  0.89218200  0.68168200  1
  O  O5  1  0.24212600  0.84432600  0.75572200  1
  O  O6  1  0.93861700  0.69371200  0.41979600  1
  O  O7  1  0.56337500  0.69301000  0.41030000  1
  O  O8  1  0.93970700  0.68734100  0.91837900  1
  O  O9  1  0.56582400  0.69105200  0.91283000  1
  O  O10  1  0.24332400  0.58069800  0.08700700  1
  O  O11  1  0.76454200  0.57467100  0.20435200  1
  O  O12  1  0.25415100  0.57988200  0.58683400  1
  O  O13  1  0.75542900  0.56913100  0.70408800  1
  O  O14  1  0.24655800  0.43491300  0.29711900  1
  O  O15  1  0.74786300  0.42222600  0.41076200  1
  O  O16  1  0.24964600  0.43345600  0.79512500  1
  O  O17  1  0.74685400  0.41892900  0.91319100  1
  O  O18  1  0.05844600  0.30790400  0.08871900  1
  O  O19  1  0.43954100  0.31602000  0.08992400  1
  O  O20  1  0.43780000  0.30840300  0.58594800  1
  O  O21  1  0.06299800  0.30886300  0.58382000  1
  O  O22  1  0.74476700  0.14552700  0.24782200  1
  O  O23  1  0.24620500  0.10310300  0.31107100  1
  O  O24  1  0.75489100  0.15486600  0.74651600  1
  O  O25  1  0.75075200  0.06533200  0.02573900  1
  O  O26  1  0.25181100  0.10705000  0.82024000  1
  O  O27  1  0.74768100  0.07421800  0.52799000  1
loop_
_geom_bond_atom_site_label_1
_geom_bond_atom_site_label_2
_geom_bond_distance
_geom_bond_site_symmetry_2
Li0 O27 1.913031 1_565
Li0 O1 2.016207 1_555
Li0 O7 2.194906 1_555
Li0 O6 2.266685 1_555
Li0 O22 2.518611 1_565
Li1 O25 1.903969 1_566
Li1 O4 1.990737 1_555
Li1 O9 2.155807 1_555
Li1 O8 2.264711 1_555
Li2 O9 2.118622 1_554
Li2 O1 2.120017 1_555
Li2 O10 2.148709 1_555
Li2 O11 2.179015 1_555
Li2 O3 2.421998 1_555
Li3 O6 2.073238 1_555
Li3 O4 2.106452 1_555
Li3 O13 2.155020 1_555
Li3 O12 2.170639 1_655
Li3 O5 2.281481 1_655
Li4 O4 2.062637 1_555
Li4 O12 2.135064 1_555
Li4 O7 2.146607 1_555
Li4 O13 2.169898 1_555
Li4 O5 2.428982 1_555
Li5 O19 2.014782 1_555
Li5 O18 2.018985 1_655
Li5 O17 2.093681 1_554
Li5 O11 2.123996 1_555
Li5 O22 2.264304 1_555
Li5 O25 2.396715 1_555
Li6 O15 2.107844 1_555
Li6 O23 2.156627 1_555
Li6 O14 2.199310 1_555
Li6 O20 2.216001 1_555
Li6 O22 2.274567 1_555
Li7 O15 2.137352 1_455
Li7 O23 2.148424 1_555
Li7 O14 2.149294 1_555
Li7 O21 2.196185 1_555
Li7 O22 2.310883 1_455
Li8 O19 2.046415 1_556
Li8 O17 2.055286 1_555
Li8 O26 2.144971 1_555
Li8 O16 2.282808 1_555
Li8 O24 2.398509 1_555
Li9 O18 2.049003 1_556
Li9 O17 2.084979 1_455
Li9 O26 2.189044 1_555
Li9 O24 2.293214 1_455
Li9 O16 2.300186 1_555
Li10 O2 1.946671 1_544
Li10 O23 2.018437 1_555
Li10 O18 2.119098 1_555
Li10 O19 2.151099 1_555
Li11 O0 1.964503 1_545
Li11 O26 2.037205 1_555
Li11 O20 2.160591 1_555
Li11 O21 2.181891 1_555
Co0 O1 2.000782 1_555
Co0 O8 2.112652 1_554
Co0 O10 2.119135 1_655
Co0 O11 2.135828 1_555
Co0 O3 2.175343 1_655
Co1 O7 2.034537 1_555
Co1 O6 2.039429 1_455
Co1 O12 2.082411 1_555
Co1 O14 2.094944 1_555
Co1 O3 2.140960 1_555
Co1 O0 2.287876 1_555
Co2 O9 2.021476 1_555
Co2 O8 2.067345 1_455
Co2 O16 2.077054 1_555
Co2 O10 2.125143 1_556
Co2 O5 2.143875 1_555
Co2 O2 2.317585 1_555
Co3 O20 2.034046 1_555
Co3 O21 2.034253 1_655
Co3 O15 2.143850 1_555
Co3 O24 2.148174 1_555
Co3 O13 2.152300 1_555
Co3 O27 2.246017 1_555
C0 O0 1.285679 1_555
C0 O23 1.287300 1_565
C0 O3 1.330121 1_555
C1 O26 1.293706 1_565
C1 O2 1.301446 1_555
C1 O5 1.307772 1_555
C2 O25 1.271211 1_555
C2 O22 1.281482 1_555
C2 O1 1.353662 1_545
C3 O27 1.293518 1_555
C3 O4 1.299902 1_545
C3 O24 1.302111 1_555
O6 P0 1.557561 1_555
O7 P0 1.560330 1_555
O8 P1 1.581938 1_555
O9 P1 1.564804 1_555
O10 P2 1.579826 1_555
O11 P0 1.563687 1_555
O12 P3 1.545737 1_555
O13 P1 1.560052 1_555
O14 P2 1.569045 1_555
O15 P0 1.541242 1_555
O16 P3 1.562561 1_555
O17 P1 1.519602 1_555
O18 P2 1.538816 1_555
O19 P2 1.538828 1_555
O20 P3 1.558129 1_555
O21 P3 1.557316 1_555
