# generated using pymatgen
data_LaSb3Pd
_symmetry_space_group_name_H-M   'P 1'
_cell_length_a   6.41118279
_cell_length_b   12.55580916
_cell_length_c   13.13921043
_cell_angle_alpha   90.00098618
_cell_angle_beta   89.99925372
_cell_angle_gamma   90.00033080
_symmetry_Int_Tables_number   1
_chemical_formula_structural   LaSb3Pd
_chemical_formula_sum   'La8 Sb24 Pd8'
_cell_volume   1057.67474247
_cell_formula_units_Z   8
loop_
 _symmetry_equiv_pos_site_id
 _symmetry_equiv_pos_as_xyz
  1  'x, y, z'
loop_
 _atom_site_type_symbol
 _atom_site_label
 _atom_site_symmetry_multiplicity
 _atom_site_fract_x
 _atom_site_fract_y
 _atom_site_fract_z
 _atom_site_occupancy
  La  La0  1  0.27555256  0.24999390  0.19064273  1
  La  La1  1  0.72443779  0.75000083  0.80932599  1
  La  La2  1  0.77555174  0.25000324  0.80932657  1
  La  La3  1  0.22443939  0.74999853  0.19065322  1
  La  La4  1  0.24999717  -0.00000301  0.80177927  1
  La  La5  1  0.74999584  0.00000810  0.19818556  1
  La  La6  1  0.74998340  0.50000948  0.19819515  1
  La  La7  1  0.25000440  0.50000803  0.80179032  1
  Sb  Sb0  1  0.26265940  0.25000025  0.71972619  1
  Sb  Sb1  1  0.73728685  0.74998947  0.28029154  1
  Sb  Sb2  1  0.76266501  0.25001756  0.28030594  1
  Sb  Sb3  1  0.23732155  0.75000503  0.71970658  1
  Sb  Sb4  1  0.25000318  0.00001506  0.52535299  1
  Sb  Sb5  1  0.74999747  0.00000951  0.47466884  1
  Sb  Sb6  1  0.75000652  0.49996524  0.47466311  1
  Sb  Sb7  1  0.25000742  0.49999537  0.52536143  1
  Sb  Sb8  1  0.42023498  0.25000023  0.43818618  1
  Sb  Sb9  1  0.57981123  0.74999626  0.56180848  1
  Sb  Sb10  1  0.92021375  0.25000597  0.56184399  1
  Sb  Sb11  1  0.07980495  0.74999452  0.43821731  1
  Sb  Sb12  1  0.24999701  0.00001911  0.26779437  1
  Sb  Sb13  1  0.75000487  0.00004429  0.73221497  1
  Sb  Sb14  1  0.75000053  0.49996028  0.73224006  1
  Sb  Sb15  1  0.24999535  0.49995771  0.26780060  1
  Sb  Sb16  1  0.01156362  0.12117618  0.00274485  1
  Sb  Sb17  1  0.98850438  0.87881537  0.99721044  1
  Sb  Sb18  1  0.98850650  0.62119558  0.99721824  1
  Sb  Sb19  1  0.51150594  0.37880637  0.99721404  1
  Sb  Sb20  1  0.01156739  0.37882992  0.00276570  1
  Sb  Sb21  1  0.48845635  0.62118059  0.00276094  1
  Sb  Sb22  1  0.48850380  0.87880921  0.00274243  1
  Sb  Sb23  1  0.51144928  0.12119412  0.99719149  1
  Pd  Pd0  1  0.04858893  0.13357703  0.39987602  1
  Pd  Pd1  1  0.95141604  0.86647161  0.60015291  1
  Pd  Pd2  1  0.95138763  0.63352551  0.60015371  1
  Pd  Pd3  1  0.54858076  0.36643277  0.60014223  1
  Pd  Pd4  1  0.04859402  0.36643066  0.39987456  1
  Pd  Pd5  1  0.45140238  0.63353584  0.39986259  1
  Pd  Pd6  1  0.45140264  0.86645528  0.39987879  1
  Pd  Pd7  1  0.54859898  0.13356999  0.60013069  1
loop_
_geom_bond_atom_site_label_1
_geom_bond_atom_site_label_2
_geom_bond_distance
_geom_bond_site_symmetry_2
La0 Sb15 3.302224 1_555
La0 Sb12 3.302361 1_555
La0 Sb2 3.337806 1_555
La0 Sb23 3.370918 1_554
La0 Sb19 3.370968 1_554
La0 Sb8 3.382220 1_555
La0 Sb20 3.402237 1_555
La0 Sb16 3.402289 1_555
La0 Pd0 3.436832 1_555
La0 Pd4 3.436876 1_555
La0 Sb2 3.492877 1_455
La1 Sb14 3.302852 1_555
La1 Sb13 3.303020 1_565
La1 Sb3 3.337625 1_555
La1 Sb22 3.370732 1_556
La1 Sb21 3.371157 1_556
La1 Sb9 3.381794 1_555
La1 Sb17 3.402390 1_555
La1 Sb18 3.402465 1_555
La1 Pd2 3.436432 1_555
La1 Pd1 3.436527 1_555
La1 Sb3 3.492660 1_655
La2 Sb14 3.301888 1_555
La2 Sb13 3.301976 1_555
La2 Sb0 3.337457 1_655
La2 Sb16 3.371159 1_656
La2 Sb20 3.371324 1_656
La2 Sb10 3.381392 1_555
La2 Sb19 3.402261 1_555
La2 Sb23 3.402294 1_555
La2 Pd3 3.436442 1_555
La2 Pd7 3.436487 1_555
La2 Sb0 3.492657 1_555
La3 Sb12 3.302834 1_565
La3 Sb15 3.303135 1_555
La3 Sb1 3.337902 1_455
La3 Sb18 3.370902 1_454
La3 Sb17 3.371119 1_454
La3 Sb11 3.382374 1_555
La3 Sb21 3.402304 1_555
La3 Sb22 3.402619 1_555
La3 Pd5 3.436861 1_555
La3 Pd6 3.436953 1_555
La3 Sb1 3.492554 1_555
La4 Sb3 3.319903 1_545
La4 Sb0 3.319986 1_555
La4 Sb13 3.333318 1_455
La4 Sb13 3.333390 1_555
La4 Sb16 3.409383 1_556
La4 Sb22 3.409688 1_546
La4 Sb23 3.423110 1_555
La4 Sb17 3.423345 1_445
La4 Sb4 3.632023 1_555
La4 Pd1 3.673331 1_445
La4 Pd7 3.673890 1_555
La5 Sb2 3.320313 1_555
La5 Sb1 3.320402 1_545
La5 Sb12 3.333496 1_555
La5 Sb12 3.333533 1_655
La5 Sb17 3.409771 1_544
La5 Sb23 3.410107 1_554
La5 Sb22 3.423550 1_545
La5 Sb16 3.423599 1_655
La5 Sb5 3.632772 1_555
La5 Pd6 3.674168 1_545
La5 Pd0 3.674228 1_655
La6 Sb1 3.319866 1_555
La6 Sb2 3.320102 1_555
La6 Sb15 3.333417 1_555
La6 Sb15 3.333587 1_655
La6 Sb19 3.409824 1_554
La6 Sb18 3.409827 1_554
La6 Sb21 3.423465 1_555
La6 Sb20 3.423572 1_655
La6 Sb6 3.632571 1_555
La6 Pd5 3.673700 1_555
La6 Pd4 3.674291 1_655
La7 Sb3 3.320047 1_555
La7 Sb0 3.320051 1_555
La7 Sb14 3.333268 1_555
La7 Sb14 3.333339 1_455
La7 Sb21 3.409473 1_556
La7 Sb20 3.409519 1_556
La7 Sb18 3.423331 1_455
La7 Sb19 3.423452 1_555
La7 Sb7 3.632057 1_555
La7 Pd2 3.673554 1_455
La7 Pd3 3.673781 1_555
Sb0 Sb10 3.020528 1_455
Sb1 Sb11 3.021259 1_655
Sb2 Sb8 3.020398 1_555
Sb3 Sb9 3.020838 1_555
Sb16 Sb17 3.047491 1_444
Sb16 Sb23 3.205688 1_554
Sb16 Sb23 3.207156 1_454
Sb16 Sb20 3.235051 1_555
Sb17 Sb22 3.206413 1_656
Sb17 Sb22 3.206418 1_556
Sb17 Sb18 3.234625 1_555
Sb18 Sb20 3.047560 1_656
Sb18 Sb21 3.206098 1_656
Sb18 Sb21 3.206739 1_556
Sb19 Sb21 3.047661 1_556
Sb19 Sb20 3.206026 1_556
Sb19 Sb20 3.206816 1_656
Sb19 Sb23 3.234530 1_555
Sb21 Sb22 3.234736 1_555
Sb22 Sb23 3.047765 1_564
Pd0 Sb4 2.682910 1_555
Pd0 Sb10 2.709839 1_455
Pd0 Sb5 2.728156 1_455
Pd0 Sb12 2.736987 1_555
Pd0 Sb2 2.822438 1_455
Pd0 Sb8 2.840313 1_555
Pd0 Pd4 2.923666 1_555
Pd1 Sb5 2.682792 1_565
Pd1 Sb11 2.709858 1_655
Pd1 Sb4 2.727984 1_665
Pd1 Sb13 2.736947 1_565
Pd1 Sb3 2.822411 1_655
Pd1 Sb9 2.840508 1_555
Pd1 Pd2 2.924827 1_555
Pd2 Sb6 2.682859 1_555
Pd2 Sb11 2.709901 1_655
Pd2 Sb7 2.727985 1_655
Pd2 Sb14 2.737046 1_555
Pd2 Sb3 2.822568 1_655
Pd2 Sb9 2.840351 1_555
Pd3 Sb6 2.682701 1_555
Pd3 Sb8 2.709695 1_555
Pd3 Sb7 2.728011 1_555
Pd3 Sb14 2.736935 1_555
Pd3 Sb0 2.822439 1_555
Pd3 Sb10 2.840242 1_555
Pd3 Pd7 2.923781 1_555
Pd4 Sb7 2.682964 1_555
Pd4 Sb10 2.709869 1_455
Pd4 Sb6 2.727857 1_455
Pd4 Sb15 2.736692 1_555
Pd4 Sb2 2.822231 1_455
Pd4 Sb8 2.840359 1_555
Pd5 Sb7 2.682828 1_555
Pd5 Sb9 2.709902 1_555
Pd5 Sb6 2.728305 1_555
Pd5 Sb15 2.736988 1_555
Pd5 Sb1 2.822329 1_555
Pd5 Sb11 2.840388 1_555
Pd5 Pd6 2.924492 1_555
Pd6 Sb4 2.682768 1_565
Pd6 Sb9 2.709769 1_555
Pd6 Sb5 2.728053 1_565
Pd6 Sb12 2.737106 1_565
Pd6 Sb1 2.822508 1_555
Pd6 Sb11 2.840360 1_555
Pd7 Sb5 2.682671 1_555
Pd7 Sb8 2.709640 1_555
Pd7 Sb4 2.728004 1_555
Pd7 Sb13 2.736812 1_555
Pd7 Sb0 2.822568 1_555
Pd7 Sb10 2.840171 1_555
