# generated using pymatgen
data_TiInPt2
_symmetry_space_group_name_H-M   'P 1'
_cell_length_a   6.47798800
_cell_length_b   6.47798800
_cell_length_c   13.25637400
_cell_angle_alpha   90.00000000
_cell_angle_beta   90.00000000
_cell_angle_gamma   90.00000000
_symmetry_Int_Tables_number   1
_chemical_formula_structural   TiInPt2
_chemical_formula_sum   'Ti8 In8 Pt16'
_cell_volume   556.29483363
_cell_formula_units_Z   8
loop_
 _symmetry_equiv_pos_site_id
 _symmetry_equiv_pos_as_xyz
  1  'x, y, z'
loop_
 _atom_site_type_symbol
 _atom_site_label
 _atom_site_symmetry_multiplicity
 _atom_site_fract_x
 _atom_site_fract_y
 _atom_site_fract_z
 _atom_site_occupancy
  Ti  Ti0_0  1  0.00000000  0.00000000  0.25000000  1
  Ti  Ti0_1  1  0.00000000  0.00000000  0.75000000  1
  Ti  Ti0_2  1  0.00000000  0.50000000  0.25000000  1
  Ti  Ti0_3  1  0.00000000  0.50000000  0.75000000  1
  Ti  Ti0_4  1  0.50000000  0.00000000  0.25000000  1
  Ti  Ti0_5  1  0.50000000  0.00000000  0.75000000  1
  Ti  Ti0_6  1  0.50000000  0.50000000  0.25000000  1
  Ti  Ti0_7  1  0.50000000  0.50000000  0.75000000  1
  In  In0_0  1  0.00000000  0.00000000  0.00000000  1
  In  In0_1  1  0.00000000  0.00000000  0.50000000  1
  In  In0_2  1  0.00000000  0.50000000  0.00000000  1
  In  In0_3  1  0.00000000  0.50000000  0.50000000  1
  In  In0_4  1  0.50000000  0.00000000  0.00000000  1
  In  In0_5  1  0.50000000  0.00000000  0.50000000  1
  In  In0_6  1  0.50000000  0.50000000  0.00000000  1
  In  In0_7  1  0.50000000  0.50000000  0.50000000  1
  Pt  Pt0_0  1  0.25000000  0.25000000  0.14213150  1
  Pt  Pt0_1  1  0.25000000  0.25000000  0.64213150  1
  Pt  Pt0_2  1  0.25000000  0.75000000  0.14213150  1
  Pt  Pt0_3  1  0.25000000  0.75000000  0.64213150  1
  Pt  Pt0_4  1  0.75000000  0.25000000  0.14213150  1
  Pt  Pt0_5  1  0.75000000  0.25000000  0.64213150  1
  Pt  Pt0_6  1  0.75000000  0.75000000  0.14213150  1
  Pt  Pt0_7  1  0.75000000  0.75000000  0.64213150  1
  Pt  Pt1_0  1  0.25000000  0.25000000  0.35786850  1
  Pt  Pt1_1  1  0.25000000  0.25000000  0.85786850  1
  Pt  Pt1_2  1  0.25000000  0.75000000  0.35786850  1
  Pt  Pt1_3  1  0.25000000  0.75000000  0.85786850  1
  Pt  Pt1_4  1  0.75000000  0.25000000  0.35786850  1
  Pt  Pt1_5  1  0.75000000  0.25000000  0.85786850  1
  Pt  Pt1_6  1  0.75000000  0.75000000  0.35786850  1
  Pt  Pt1_7  1  0.75000000  0.75000000  0.85786850  1
loop_
_geom_bond_atom_site_label_1
_geom_bond_atom_site_label_2
_geom_bond_distance
_geom_bond_site_symmetry_2
In0_0 Pt0_4 2.965730 1_455
In0_0 Pt0_2 2.965730 1_545
In0_0 Pt0_0 2.965730 1_555
In0_0 Pt1_1 2.965730 1_554
In0_0 Pt0_6 2.965730 1_445
In0_0 Pt1_3 2.965730 1_544
In0_0 Pt1_7 2.965730 1_444
In0_0 Pt1_5 2.965730 1_454
In0_0 In0_4 3.238994 1_555
In0_0 In0_2 3.238994 1_555
In0_0 In0_4 3.238994 1_455
In0_0 In0_2 3.238994 1_545
In0_0 Ti0_0 3.314093 1_555
In0_0 Ti0_1 3.314094 1_554
In0_1 Pt0_5 2.965730 1_455
In0_1 Pt0_1 2.965730 1_555
In0_1 Pt0_3 2.965730 1_545
In0_1 Pt0_7 2.965730 1_445
In0_1 Pt1_2 2.965730 1_545
In0_1 Pt1_4 2.965730 1_455
In0_1 Pt1_0 2.965730 1_555
In0_1 Pt1_6 2.965730 1_445
In0_1 In0_5 3.238994 1_555
In0_1 In0_3 3.238994 1_555
In0_1 In0_3 3.238994 1_545
In0_1 In0_5 3.238994 1_455
In0_1 Ti0_1 3.314093 1_555
In0_1 Ti0_0 3.314093 1_555
In0_2 Pt0_4 2.965730 1_455
In0_2 Pt0_0 2.965730 1_555
In0_2 Pt0_2 2.965730 1_555
In0_2 Pt0_6 2.965730 1_455
In0_2 Pt1_1 2.965730 1_554
In0_2 Pt1_5 2.965730 1_454
In0_2 Pt1_3 2.965730 1_554
In0_2 Pt1_7 2.965730 1_454
In0_2 In0_6 3.238994 1_555
In0_2 In0_6 3.238994 1_455
In0_2 Ti0_2 3.314093 1_555
In0_2 Ti0_3 3.314094 1_554
In0_3 Pt0_1 2.965730 1_555
In0_3 Pt0_5 2.965730 1_455
In0_3 Pt0_3 2.965730 1_555
In0_3 Pt0_7 2.965730 1_455
In0_3 Pt1_4 2.965730 1_455
In0_3 Pt1_0 2.965730 1_555
In0_3 Pt1_2 2.965730 1_555
In0_3 Pt1_6 2.965730 1_455
In0_3 In0_7 3.238994 1_555
In0_3 In0_7 3.238994 1_455
In0_3 Ti0_3 3.314093 1_555
In0_3 Ti0_2 3.314093 1_555
In0_4 Pt0_2 2.965730 1_545
In0_4 Pt0_0 2.965730 1_555
In0_4 Pt0_4 2.965730 1_555
In0_4 Pt0_6 2.965730 1_545
In0_4 Pt1_1 2.965730 1_554
In0_4 Pt1_3 2.965730 1_544
In0_4 Pt1_5 2.965730 1_554
In0_4 Pt1_7 2.965730 1_544
In0_4 In0_6 3.238994 1_555
In0_4 In0_6 3.238994 1_545
In0_4 Ti0_4 3.314093 1_555
In0_4 Ti0_5 3.314094 1_554
In0_5 Pt0_1 2.965730 1_555
In0_5 Pt0_3 2.965730 1_545
In0_5 Pt0_5 2.965730 1_555
In0_5 Pt0_7 2.965730 1_545
In0_5 Pt1_2 2.965730 1_545
In0_5 Pt1_6 2.965730 1_545
In0_5 Pt1_0 2.965730 1_555
In0_5 Pt1_4 2.965730 1_555
In0_5 In0_7 3.238994 1_555
In0_5 In0_7 3.238994 1_545
In0_5 Ti0_5 3.314093 1_555
In0_5 Ti0_4 3.314093 1_555
In0_6 Pt0_0 2.965730 1_555
In0_6 Pt0_4 2.965730 1_555
In0_6 Pt0_2 2.965730 1_555
In0_6 Pt0_6 2.965730 1_555
In0_6 Pt1_1 2.965730 1_554
In0_6 Pt1_3 2.965730 1_554
In0_6 Pt1_5 2.965730 1_554
In0_6 Pt1_7 2.965730 1_554
In0_6 Ti0_6 3.314093 1_555
In0_6 Ti0_7 3.314094 1_554
In0_7 Pt0_1 2.965730 1_555
In0_7 Pt0_5 2.965730 1_555
In0_7 Pt0_3 2.965730 1_555
In0_7 Pt0_7 2.965730 1_555
In0_7 Pt1_0 2.965730 1_555
In0_7 Pt1_4 2.965730 1_555
In0_7 Pt1_2 2.965730 1_555
In0_7 Pt1_6 2.965730 1_555
In0_7 Ti0_7 3.314093 1_555
In0_7 Ti0_6 3.314093 1_555
Pt0_0 Ti0_0 2.700053 1_555
Pt0_0 Ti0_6 2.700053 1_555
Pt0_0 Ti0_4 2.700053 1_555
Pt0_0 Ti0_2 2.700053 1_555
Pt0_0 Pt1_0 2.859890 1_555
Pt0_0 Pt0_4 3.238994 1_555
Pt0_0 Pt0_2 3.238994 1_555
Pt0_0 Pt0_4 3.238994 1_455
Pt0_0 Pt0_2 3.238994 1_545
Pt0_1 Ti0_3 2.700053 1_555
Pt0_1 Ti0_7 2.700053 1_555
Pt0_1 Ti0_1 2.700053 1_555
Pt0_1 Ti0_5 2.700053 1_555
Pt0_1 Pt1_1 2.859890 1_555
Pt0_1 Pt0_5 3.238994 1_455
Pt0_1 Pt0_3 3.238994 1_545
Pt0_1 Pt0_5 3.238994 1_555
Pt0_1 Pt0_3 3.238994 1_555
Pt0_2 Ti0_6 2.700053 1_555
Pt0_2 Ti0_0 2.700053 1_565
Pt0_2 Ti0_2 2.700053 1_555
Pt0_2 Ti0_4 2.700053 1_565
Pt0_2 Pt1_2 2.859890 1_555
Pt0_2 Pt0_6 3.238994 1_455
Pt0_2 Pt0_6 3.238994 1_555
Pt0_3 Ti0_5 2.700053 1_565
Pt0_3 Ti0_1 2.700053 1_565
Pt0_3 Ti0_3 2.700053 1_555
Pt0_3 Ti0_7 2.700053 1_555
Pt0_3 Pt1_3 2.859890 1_555
Pt0_3 Pt0_7 3.238994 1_555
Pt0_3 Pt0_7 3.238994 1_455
Pt0_4 Ti0_2 2.700053 1_655
Pt0_4 Ti0_6 2.700053 1_555
Pt0_4 Ti0_4 2.700053 1_555
Pt0_4 Ti0_0 2.700053 1_655
Pt0_4 Pt1_4 2.859890 1_555
Pt0_4 Pt0_6 3.238994 1_545
Pt0_4 Pt0_6 3.238994 1_555
Pt0_5 Ti0_3 2.700053 1_655
Pt0_5 Ti0_1 2.700053 1_655
Pt0_5 Ti0_5 2.700053 1_555
Pt0_5 Ti0_7 2.700053 1_555
Pt0_5 Pt1_5 2.859890 1_555
Pt0_5 Pt0_7 3.238994 1_545
Pt0_5 Pt0_7 3.238994 1_555
Pt0_6 Ti0_0 2.700053 1_665
Pt0_6 Ti0_2 2.700053 1_655
Pt0_6 Ti0_4 2.700053 1_565
Pt0_6 Ti0_6 2.700053 1_555
Pt0_6 Pt1_6 2.859890 1_555
Pt0_7 Ti0_1 2.700053 1_665
Pt0_7 Ti0_5 2.700053 1_565
Pt0_7 Ti0_3 2.700053 1_655
Pt0_7 Ti0_7 2.700053 1_555
Pt0_7 Pt1_7 2.859890 1_555
Pt1_0 Ti0_2 2.700053 1_555
Pt1_0 Ti0_0 2.700053 1_555
Pt1_0 Ti0_4 2.700053 1_555
Pt1_0 Ti0_6 2.700053 1_555
Pt1_0 Pt1_2 3.238994 1_545
Pt1_0 Pt1_4 3.238994 1_455
Pt1_0 Pt1_4 3.238994 1_555
Pt1_0 Pt1_2 3.238994 1_555
Pt1_1 Ti0_3 2.700053 1_555
Pt1_1 Ti0_5 2.700053 1_555
Pt1_1 Ti0_7 2.700053 1_555
Pt1_1 Ti0_1 2.700053 1_555
Pt1_1 Pt1_5 3.238994 1_555
Pt1_1 Pt1_3 3.238994 1_555
Pt1_1 Pt1_5 3.238994 1_455
Pt1_1 Pt1_3 3.238994 1_545
Pt1_2 Ti0_2 2.700053 1_555
Pt1_2 Ti0_4 2.700053 1_565
Pt1_2 Ti0_0 2.700053 1_565
Pt1_2 Ti0_6 2.700053 1_555
Pt1_2 Pt1_6 3.238994 1_555
Pt1_2 Pt1_6 3.238994 1_455
Pt1_3 Ti0_1 2.700053 1_565
Pt1_3 Ti0_5 2.700053 1_565
Pt1_3 Ti0_3 2.700053 1_555
Pt1_3 Ti0_7 2.700053 1_555
Pt1_3 Pt1_7 3.238994 1_455
Pt1_3 Pt1_7 3.238994 1_555
Pt1_4 Ti0_2 2.700053 1_655
Pt1_4 Ti0_4 2.700053 1_555
Pt1_4 Ti0_6 2.700053 1_555
Pt1_4 Ti0_0 2.700053 1_655
Pt1_4 Pt1_6 3.238994 1_545
Pt1_4 Pt1_6 3.238994 1_555
Pt1_5 Ti0_3 2.700053 1_655
Pt1_5 Ti0_1 2.700053 1_655
Pt1_5 Ti0_5 2.700053 1_555
Pt1_5 Ti0_7 2.700053 1_555
Pt1_5 Pt1_7 3.238994 1_555
Pt1_5 Pt1_7 3.238994 1_545
Pt1_6 Ti0_0 2.700053 1_665
Pt1_6 Ti0_6 2.700053 1_555
Pt1_6 Ti0_2 2.700053 1_655
Pt1_6 Ti0_4 2.700053 1_565
Pt1_7 Ti0_1 2.700053 1_665
Pt1_7 Ti0_5 2.700053 1_565
Pt1_7 Ti0_3 2.700053 1_655
Pt1_7 Ti0_7 2.700053 1_555
