# generated using pymatgen
data_CaAl4Tl4O12
_symmetry_space_group_name_H-M   'P 1'
_cell_length_a   5.63387093
_cell_length_b   6.55265716
_cell_length_c   7.39984300
_cell_angle_alpha   90.00000000
_cell_angle_beta   90.00000000
_cell_angle_gamma   90.41102159
_symmetry_Int_Tables_number   1
_chemical_formula_structural   CaAl4Tl4O12
_chemical_formula_sum   'Ca1 Al4 Tl4 O12'
_cell_volume   273.17167763
_cell_formula_units_Z   1
loop_
 _symmetry_equiv_pos_site_id
 _symmetry_equiv_pos_as_xyz
  1  'x, y, z'
loop_
 _atom_site_type_symbol
 _atom_site_label
 _atom_site_symmetry_multiplicity
 _atom_site_fract_x
 _atom_site_fract_y
 _atom_site_fract_z
 _atom_site_occupancy
  Ca  Ca0  1  0.74678100  0.69210400  0.25000000  1
  Al  Al0  1  0.10799800  0.44927700  0.99782600  1
  Al  Al1  1  0.10799800  0.44927700  0.50217400  1
  Al  Al2  1  0.40582200  0.92932400  0.98448900  1
  Al  Al3  1  0.40582200  0.92932400  0.51551100  1
  Tl  Tl0  1  0.83580000  0.10326200  0.75000000  1
  Tl  Tl1  1  0.60682200  0.59526600  0.75000000  1
  Tl  Tl2  1  0.53766500  0.27359700  0.25000000  1
  Tl  Tl3  1  0.99863700  0.08770800  0.25000000  1
  O  O0  1  0.09923900  0.48622900  0.25000000  1
  O  O1  1  0.26963600  0.19822800  0.47186800  1
  O  O2  1  0.26963600  0.19822800  0.02813200  1
  O  O3  1  0.29844200  0.66706100  0.95693600  1
  O  O4  1  0.29844200  0.66706100  0.54306400  1
  O  O5  1  0.42070800  0.91704400  0.25000000  1
  O  O6  1  0.40863200  0.00286100  0.75000000  1
  O  O7  1  0.76286500  0.43641900  0.00937600  1
  O  O8  1  0.76286500  0.43641900  0.49062400  1
  O  O9  1  0.73935700  0.88740900  0.97011200  1
  O  O10  1  0.73935700  0.88740900  0.52988800  1
  O  O11  1  0.05247400  0.38149400  0.75000000  1
loop_
_geom_bond_atom_site_label_1
_geom_bond_atom_site_label_2
_geom_bond_distance
_geom_bond_site_symmetry_2
Ca0 O5 2.363505 1_555
Ca0 O0 2.408594 1_655
Ca0 O9 2.435136 1_554
Ca0 O10 2.435136 1_555
Ca0 O7 2.447013 1_555
Ca0 O8 2.447013 1_555
Al0 O3 1.804797 1_555
Al0 O0 1.882384 1_556
Al0 O2 1.899267 1_556
Al0 O11 1.912127 1_555
Al0 O7 1.947532 1_456
Al1 O4 1.804797 1_555
Al1 O0 1.882384 1_555
Al1 O1 1.899267 1_555
Al1 O11 1.912127 1_555
Al1 O8 1.947532 1_455
Al2 O6 1.800886 1_565
Al2 O3 1.829193 1_555
Al2 O9 1.903982 1_555
Al2 O2 1.953751 1_566
Al2 O5 1.968199 1_556
Al3 O6 1.800886 1_565
Al3 O4 1.829193 1_555
Al3 O10 1.903982 1_555
Al3 O1 1.953751 1_565
Al3 O5 1.968199 1_555
O0 Tl3 2.668195 1_455
O1 Tl2 2.282301 1_555
O1 Tl3 2.352681 1_455
O2 Tl2 2.282301 1_555
O2 Tl3 2.352681 1_455
O3 Tl1 2.365666 1_555
O4 Tl1 2.365666 1_555
O5 Tl2 2.422955 1_565
O5 Tl3 2.634982 1_465
O6 Tl0 2.490357 1_555
O7 Tl1 2.356539 1_554
O7 Tl2 2.428801 1_555
O8 Tl1 2.356539 1_555
O8 Tl2 2.428801 1_555
O9 Tl0 2.222100 1_565
O9 Tl1 2.618128 1_555
O10 Tl0 2.222100 1_565
O10 Tl1 2.618128 1_555
O11 Tl0 2.186806 1_455
