# generated using pymatgen
data_K8Gd3Si12ClO34
_symmetry_space_group_name_H-M   'P 1'
_cell_length_a   6.93394100
_cell_length_b   11.57718260
_cell_length_c   11.76625749
_cell_angle_alpha   88.15273114
_cell_angle_beta   88.95958896
_cell_angle_gamma   80.16690358
_symmetry_Int_Tables_number   1
_chemical_formula_structural   K8Gd3Si12ClO34
_chemical_formula_sum   'K8 Gd3 Si12 Cl1 O34'
_cell_volume   930.10590170
_cell_formula_units_Z   1
loop_
 _symmetry_equiv_pos_site_id
 _symmetry_equiv_pos_as_xyz
  1  'x, y, z'
loop_
 _atom_site_type_symbol
 _atom_site_label
 _atom_site_symmetry_multiplicity
 _atom_site_fract_x
 _atom_site_fract_y
 _atom_site_fract_z
 _atom_site_occupancy
  K  K0  1  0.16478400  0.81123000  0.76218300  1
  K  K1  1  0.83659700  0.18876200  0.23544500  1
  K  K2  1  0.26069500  0.60224800  0.01433600  1
  K  K3  1  0.74387200  0.39108600  0.98633900  1
  K  K4  1  0.01907000  0.33252600  0.50221800  1
  K  K5  1  0.98066900  0.66733200  0.49765600  1
  K  K6  1  0.17196800  0.83822800  0.22899900  1
  K  K7  1  0.82827100  0.16230700  0.77463200  1
  Gd  Gd0  1  0.49155900  0.49021800  0.33494000  1
  Gd  Gd1  1  0.50867100  0.50949700  0.66508100  1
  Gd  Gd2  1  0.99975000  0.00043100  0.50027400  1
  Si  Si0  1  0.99064600  0.48955000  0.24843100  1
  Si  Si1  1  0.00951600  0.51091100  0.75148600  1
  Si  Si2  1  0.68675400  0.69555300  0.15178600  1
  Si  Si3  1  0.31323600  0.30513600  0.84831800  1
  Si  Si4  1  0.65747100  0.86821100  0.68727500  1
  Si  Si5  1  0.34294300  0.13218400  0.31333800  1
  Si  Si6  1  0.69697200  0.67586100  0.87678100  1
  Si  Si7  1  0.30293100  0.32446800  0.12338200  1
  Si  Si8  1  0.66300400  0.90286600  0.30671400  1
  Si  Si9  1  0.33775600  0.09729700  0.69348600  1
  Si  Si10  1  0.44694800  0.76486900  0.49171000  1
  Si  Si11  1  0.55349900  0.23517300  0.50848400  1
  Cl  Cl0  1  0.39231200  0.97387500  0.00416500  1
  O  O0  1  0.46529400  0.00135600  0.28567700  1
  O  O1  1  0.53563800  0.99899500  0.71540200  1
  O  O2  1  0.22860800  0.83240000  0.46544100  1
  O  O3  1  0.77162200  0.16745900  0.53495900  1
  O  O4  1  0.90451900  0.61822700  0.18332500  1
  O  O5  1  0.09578700  0.38267500  0.81688800  1
  O  O6  1  0.70182100  0.82945400  0.18824200  1
  O  O7  1  0.29937100  0.17147000  0.81131500  1
  O  O8  1  0.81985100  0.43128500  0.30975600  1
  O  O9  1  0.18013800  0.56962200  0.69029000  1
  O  O10  1  0.61525700  0.80823300  0.40657400  1
  O  O11  1  0.38478500  0.19136100  0.59309500  1
  O  O12  1  0.85494800  0.87610700  0.61758800  1
  O  O13  1  0.14566400  0.12360300  0.38290700  1
  O  O14  1  0.71081500  0.80218500  0.81207000  1
  O  O15  1  0.28989500  0.19861400  0.18874200  1
  O  O16  1  0.50272400  0.64622000  0.20797200  1
  O  O17  1  0.49593200  0.35523700  0.79163400  1
  O  O18  1  0.91711900  0.59283900  0.86214700  1
  O  O19  1  0.08343100  0.40836600  0.13751600  1
  O  O20  1  0.67183400  0.69870200  0.01298100  1
  O  O21  1  0.32932200  0.30134700  0.98727200  1
  O  O22  1  0.52334600  0.61338000  0.83438500  1
  O  O23  1  0.47480900  0.38852000  0.16581600  1
  O  O24  1  0.22551300  0.89329000  0.99535000  1
  O  O25  1  0.83095900  0.14240300  0.00719500  1
  O  O26  1  0.47302500  0.62243300  0.48780900  1
  O  O27  1  0.52747100  0.37754700  0.51238800  1
  O  O28  1  0.85200800  0.95767200  0.33652000  1
  O  O29  1  0.14942200  0.04140300  0.66426700  1
  O  O30  1  0.15994400  0.50869900  0.33485400  1
  O  O31  1  0.84006400  0.49203800  0.66510300  1
  O  O32  1  0.51081400  0.79161900  0.62431600  1
  O  O33  1  0.48935700  0.20892300  0.37594500  1
loop_
_geom_bond_atom_site_label_1
_geom_bond_atom_site_label_2
_geom_bond_distance
_geom_bond_site_symmetry_2
K0 O12 2.751993 1_455
K0 O32 2.852409 1_555
K0 O29 2.854678 1_565
K0 O9 2.932312 1_555
K0 O24 2.992206 1_555
K0 O22 3.186830 1_555
K0 O14 3.210241 1_455
K1 O25 2.757933 1_555
K1 O13 2.769602 1_655
K1 O33 2.876284 1_555
K1 O28 2.878410 1_545
K1 O8 2.950354 1_555
K1 O15 3.201563 1_655
K1 O23 3.206802 1_555
K2 O22 2.781926 1_554
K2 O16 2.961751 1_555
K2 O18 3.024915 1_454
K2 O19 3.052476 1_555
K2 O4 3.126755 1_455
K2 O23 3.171830 1_555
K2 O20 3.234015 1_555
K2 O24 3.336957 1_554
K3 O23 2.795172 1_556
K3 O25 2.842500 1_556
K3 O17 2.970588 1_555
K3 O19 3.013902 1_656
K3 O5 3.113484 1_655
K3 O18 3.115866 1_555
K3 O21 3.218721 1_555
K3 O22 3.258299 1_555
K4 O8 2.784041 1_455
K4 O3 2.791553 1_455
K4 O31 2.825413 1_455
K4 O13 2.835593 1_555
K4 O11 2.969020 1_555
K4 O30 3.056746 1_555
K5 O9 2.782832 1_655
K5 O2 2.793404 1_655
K5 O30 2.819230 1_655
K5 O12 2.837049 1_555
K5 O10 2.967074 1_555
K5 O31 3.049438 1_555
K6 O28 2.719897 1_455
K6 O2 2.813726 1_555
K6 O24 2.834246 1_554
K6 O16 2.921639 1_555
K6 O0 3.096871 1_565
K7 O25 2.738803 1_556
K7 O29 2.748077 1_655
K7 O3 2.851655 1_555
K7 O17 2.931434 1_555
K7 O1 3.102308 1_545
Gd0 O30 2.272674 1_555
Gd0 O8 2.278854 1_555
Gd0 O16 2.317178 1_555
Gd0 O23 2.359191 1_555
Gd0 O26 2.386779 1_555
Gd0 O27 2.419747 1_555
Gd1 O31 2.272090 1_555
Gd1 O9 2.282343 1_555
Gd1 O17 2.300472 1_555
Gd1 O22 2.372500 1_555
Gd1 O27 2.383037 1_555
Gd1 O26 2.419462 1_555
Gd2 O13 2.297662 1_655
Gd2 O12 2.302238 1_545
Gd2 O28 2.305071 1_545
Gd2 O29 2.307646 1_655
Gd2 O3 2.321779 1_555
Gd2 O2 2.333212 1_645
Cl0 O24 1.611818 1_554
O0 Si8 1.643478 1_545
O0 Si5 1.643960 1_555
O1 Si4 1.643467 1_555
O1 Si9 1.644663 1_565
O2 Si10 1.611203 1_555
O3 Si11 1.611056 1_555
O4 Si2 1.660230 1_555
O4 Si0 1.673892 1_555
O5 Si3 1.659078 1_555
O5 Si1 1.671474 1_555
O6 Si2 1.642509 1_555
O6 Si8 1.650019 1_555
O7 Si3 1.639895 1_555
O7 Si9 1.647921 1_555
O8 Si0 1.608923 1_555
O9 Si1 1.610072 1_555
O10 Si8 1.648411 1_555
O10 Si10 1.656121 1_555
O11 Si9 1.646791 1_555
O11 Si11 1.656737 1_555
O12 Si4 1.597747 1_555
O13 Si5 1.597385 1_555
O14 Si6 1.643561 1_555
O14 Si4 1.651670 1_555
O15 Si7 1.640965 1_555
O15 Si5 1.651146 1_555
O16 Si2 1.607952 1_555
O17 Si3 1.606675 1_555
O18 Si6 1.668422 1_555
O18 Si1 1.687381 1_655
O19 Si7 1.668490 1_555
O19 Si0 1.685977 1_455
O20 Si6 1.633999 1_554
O20 Si2 1.637203 1_555
O21 Si7 1.634081 1_556
O21 Si3 1.639456 1_555
O22 Si6 1.601253 1_555
O23 Si7 1.602148 1_555
O26 Si10 1.629958 1_555
O27 Si11 1.629268 1_555
O28 Si8 1.599425 1_555
O29 Si9 1.600491 1_555
O30 Si0 1.614931 1_455
O31 Si1 1.614543 1_655
O32 Si4 1.657361 1_555
O32 Si10 1.682132 1_555
O33 Si5 1.655309 1_555
O33 Si11 1.680499 1_555
