# generated using pymatgen
data_Ce2In3Cu
_symmetry_space_group_name_H-M   'P 1'
_cell_length_a   7.37776600
_cell_length_b   9.68872161
_cell_length_c   16.82692836
_cell_angle_alpha   90.03604046
_cell_angle_beta   90.00000000
_cell_angle_gamma   90.00000000
_symmetry_Int_Tables_number   1
_chemical_formula_structural   Ce2In3Cu
_chemical_formula_sum   'Ce16 In24 Cu8'
_cell_volume   1202.80746176
_cell_formula_units_Z   8
loop_
 _symmetry_equiv_pos_site_id
 _symmetry_equiv_pos_as_xyz
  1  'x, y, z'
loop_
 _atom_site_type_symbol
 _atom_site_label
 _atom_site_symmetry_multiplicity
 _atom_site_fract_x
 _atom_site_fract_y
 _atom_site_fract_z
 _atom_site_occupancy
  Ce  Ce0_0  1  0.00000000  0.00000850  0.00663350  1
  Ce  Ce0_1  1  0.00000000  0.00000850  0.50663350  1
  Ce  Ce0_2  1  0.00000000  0.50000850  0.00663350  1
  Ce  Ce0_3  1  0.00000000  0.50000850  0.50663350  1
  Ce  Ce0_4  1  0.50000000  0.00000850  0.00663350  1
  Ce  Ce0_5  1  0.50000000  0.00000850  0.50663350  1
  Ce  Ce0_6  1  0.50000000  0.50000850  0.00663350  1
  Ce  Ce0_7  1  0.50000000  0.50000850  0.50663350  1
  Ce  Ce1_0  1  0.00000000  0.25008250  0.24617500  1
  Ce  Ce1_1  1  0.00000000  0.25008250  0.74617500  1
  Ce  Ce1_2  1  0.00000000  0.75008250  0.24617500  1
  Ce  Ce1_3  1  0.00000000  0.75008250  0.74617500  1
  Ce  Ce1_4  1  0.50000000  0.25008250  0.24617500  1
  Ce  Ce1_5  1  0.50000000  0.25008250  0.74617500  1
  Ce  Ce1_6  1  0.50000000  0.75008250  0.24617500  1
  Ce  Ce1_7  1  0.50000000  0.75008250  0.74617500  1
  In  In0_0  1  0.25000000  0.24995900  0.41800100  1
  In  In0_1  1  0.25000000  0.24995900  0.91800100  1
  In  In0_2  1  0.25000000  0.74995900  0.41800100  1
  In  In0_3  1  0.25000000  0.74995900  0.91800100  1
  In  In0_4  1  0.75000000  0.24995900  0.41800100  1
  In  In0_5  1  0.75000000  0.24995900  0.91800100  1
  In  In0_6  1  0.75000000  0.74995900  0.41800100  1
  In  In0_7  1  0.75000000  0.74995900  0.91800100  1
  In  In1_0  1  0.25000000  0.24982050  0.09021200  1
  In  In1_1  1  0.25000000  0.24982050  0.59021200  1
  In  In1_2  1  0.25000000  0.74982050  0.09021200  1
  In  In1_3  1  0.25000000  0.74982050  0.59021200  1
  In  In1_4  1  0.75000000  0.24982050  0.09021200  1
  In  In1_5  1  0.75000000  0.24982050  0.59021200  1
  In  In1_6  1  0.75000000  0.74982050  0.09021200  1
  In  In1_7  1  0.75000000  0.74982050  0.59021200  1
  In  In2_0  1  0.25000000  0.00008950  0.32459250  1
  In  In2_1  1  0.25000000  0.00008950  0.82459250  1
  In  In2_2  1  0.25000000  0.50008950  0.32459250  1
  In  In2_3  1  0.25000000  0.50008950  0.82459250  1
  In  In2_4  1  0.75000000  0.00008950  0.32459250  1
  In  In2_5  1  0.75000000  0.00008950  0.82459250  1
  In  In2_6  1  0.75000000  0.50008950  0.32459250  1
  In  In2_7  1  0.75000000  0.50008950  0.82459250  1
  Cu  Cu0_0  1  0.25000000  0.49994050  0.16438600  1
  Cu  Cu0_1  1  0.25000000  0.49994050  0.66438600  1
  Cu  Cu0_2  1  0.25000000  0.99994050  0.16438600  1
  Cu  Cu0_3  1  0.25000000  0.99994050  0.66438600  1
  Cu  Cu0_4  1  0.75000000  0.49994050  0.16438600  1
  Cu  Cu0_5  1  0.75000000  0.49994050  0.66438600  1
  Cu  Cu0_6  1  0.75000000  0.99994050  0.16438600  1
  Cu  Cu0_7  1  0.75000000  0.99994050  0.66438600  1
loop_
_geom_bond_atom_site_label_1
_geom_bond_atom_site_label_2
_geom_bond_distance
_geom_bond_site_symmetry_2
Ce0_0 Cu0_2 3.232381 1_545
Ce0_0 Cu0_6 3.232381 1_445
Ce0_0 In1_0 3.351670 1_555
Ce0_0 In1_4 3.351670 1_455
Ce0_0 In1_2 3.355579 1_545
Ce0_0 In1_6 3.355579 1_445
Ce0_0 In0_3 3.389840 1_544
Ce0_0 In0_7 3.389840 1_444
Ce0_0 In0_1 3.390495 1_554
Ce0_0 In0_5 3.390495 1_454
Ce0_0 In2_1 3.575627 1_554
Ce0_0 In2_5 3.575627 1_454
Ce0_0 Ce0_4 3.688883 1_455
Ce0_0 Ce0_4 3.688883 1_555
Ce0_1 Cu0_3 3.232381 1_545
Ce0_1 Cu0_7 3.232381 1_445
Ce0_1 In1_1 3.351670 1_555
Ce0_1 In1_5 3.351670 1_455
Ce0_1 In1_3 3.355579 1_545
Ce0_1 In1_7 3.355579 1_445
Ce0_1 In0_2 3.389840 1_545
Ce0_1 In0_6 3.389840 1_445
Ce0_1 In0_0 3.390495 1_555
Ce0_1 In0_4 3.390495 1_455
Ce0_1 In2_0 3.575627 1_555
Ce0_1 In2_4 3.575627 1_455
Ce0_1 Ce0_5 3.688883 1_455
Ce0_1 Ce0_5 3.688883 1_555
Ce0_2 Cu0_0 3.232381 1_555
Ce0_2 Cu0_4 3.232381 1_455
Ce0_2 In1_2 3.351670 1_555
Ce0_2 In1_6 3.351670 1_455
Ce0_2 In1_0 3.355579 1_555
Ce0_2 In1_4 3.355579 1_455
Ce0_2 In0_1 3.389840 1_554
Ce0_2 In0_5 3.389840 1_454
Ce0_2 In0_3 3.390495 1_554
Ce0_2 In0_7 3.390495 1_454
Ce0_2 In2_3 3.575627 1_554
Ce0_2 In2_7 3.575627 1_454
Ce0_2 Ce0_6 3.688883 1_555
Ce0_2 Ce0_6 3.688883 1_455
Ce0_3 Cu0_1 3.232381 1_555
Ce0_3 Cu0_5 3.232381 1_455
Ce0_3 In1_3 3.351670 1_555
Ce0_3 In1_7 3.351670 1_455
Ce0_3 In1_1 3.355579 1_555
Ce0_3 In1_5 3.355579 1_455
Ce0_3 In0_0 3.389840 1_555
Ce0_3 In0_4 3.389840 1_455
Ce0_3 In0_2 3.390495 1_555
Ce0_3 In0_6 3.390495 1_455
Ce0_3 In2_2 3.575627 1_555
Ce0_3 In2_6 3.575627 1_455
Ce0_3 Ce0_7 3.688883 1_455
Ce0_3 Ce0_7 3.688883 1_555
Ce0_4 Cu0_6 3.232381 1_545
Ce0_4 Cu0_2 3.232381 1_545
Ce0_4 In1_4 3.351670 1_555
Ce0_4 In1_0 3.351670 1_555
Ce0_4 In1_6 3.355579 1_545
Ce0_4 In1_2 3.355579 1_545
Ce0_4 In0_7 3.389840 1_544
Ce0_4 In0_3 3.389840 1_544
Ce0_4 In0_5 3.390495 1_554
Ce0_4 In0_1 3.390495 1_554
Ce0_4 In2_5 3.575627 1_554
Ce0_4 In2_1 3.575627 1_554
Ce0_5 Cu0_7 3.232381 1_545
Ce0_5 Cu0_3 3.232381 1_545
Ce0_5 In1_5 3.351670 1_555
Ce0_5 In1_1 3.351670 1_555
Ce0_5 In1_7 3.355579 1_545
Ce0_5 In1_3 3.355579 1_545
Ce0_5 In0_6 3.389840 1_545
Ce0_5 In0_2 3.389840 1_545
Ce0_5 In0_4 3.390495 1_555
Ce0_5 In0_0 3.390495 1_555
Ce0_5 In2_4 3.575627 1_555
Ce0_5 In2_0 3.575627 1_555
Ce0_6 Cu0_4 3.232381 1_555
Ce0_6 Cu0_0 3.232381 1_555
Ce0_6 In1_6 3.351670 1_555
Ce0_6 In1_2 3.351670 1_555
Ce0_6 In1_4 3.355579 1_555
Ce0_6 In1_0 3.355579 1_555
Ce0_6 In0_5 3.389840 1_554
Ce0_6 In0_1 3.389840 1_554
Ce0_6 In0_7 3.390495 1_554
Ce0_6 In0_3 3.390495 1_554
Ce0_6 In2_7 3.575627 1_554
Ce0_6 In2_3 3.575627 1_554
Ce0_7 Cu0_5 3.232381 1_555
Ce0_7 Cu0_1 3.232381 1_555
Ce0_7 In1_7 3.351670 1_555
Ce0_7 In1_3 3.351670 1_555
Ce0_7 In1_5 3.355579 1_555
Ce0_7 In1_1 3.355579 1_555
Ce0_7 In0_4 3.389840 1_555
Ce0_7 In0_0 3.389840 1_555
Ce0_7 In0_6 3.390495 1_555
Ce0_7 In0_2 3.390495 1_555
Ce0_7 In2_6 3.575627 1_555
Ce0_7 In2_2 3.575627 1_555
Ce1_0 In1_0 3.207698 1_555
Ce1_0 In1_4 3.207698 1_455
Ce1_0 In2_2 3.317586 1_555
Ce1_0 In2_6 3.317586 1_455
Ce1_0 In2_0 3.318699 1_555
Ce1_0 In2_4 3.318699 1_455
Ce1_0 Cu0_0 3.340739 1_555
Ce1_0 Cu0_4 3.340739 1_455
Ce1_0 Cu0_2 3.341478 1_545
Ce1_0 Cu0_6 3.341478 1_445
Ce1_0 In0_0 3.429520 1_555
Ce1_0 In0_4 3.429520 1_455
Ce1_0 Ce1_4 3.688883 1_455
Ce1_0 Ce1_4 3.688883 1_555
Ce1_1 In1_1 3.207698 1_555
Ce1_1 In1_5 3.207698 1_455
Ce1_1 In2_3 3.317586 1_555
Ce1_1 In2_7 3.317586 1_455
Ce1_1 In2_1 3.318699 1_555
Ce1_1 In2_5 3.318699 1_455
Ce1_1 Cu0_1 3.340739 1_555
Ce1_1 Cu0_5 3.340739 1_455
Ce1_1 Cu0_3 3.341478 1_545
Ce1_1 Cu0_7 3.341478 1_445
Ce1_1 In0_1 3.429520 1_555
Ce1_1 In0_5 3.429520 1_455
Ce1_1 Ce1_5 3.688883 1_455
Ce1_1 Ce1_5 3.688883 1_555
Ce1_2 In1_2 3.207698 1_555
Ce1_2 In1_6 3.207698 1_455
Ce1_2 In2_0 3.317586 1_565
Ce1_2 In2_4 3.317586 1_465
Ce1_2 In2_2 3.318699 1_555
Ce1_2 In2_6 3.318699 1_455
Ce1_2 Cu0_2 3.340739 1_555
Ce1_2 Cu0_6 3.340739 1_455
Ce1_2 Cu0_0 3.341478 1_555
Ce1_2 Cu0_4 3.341478 1_455
Ce1_2 In0_2 3.429520 1_555
Ce1_2 In0_6 3.429520 1_455
Ce1_2 Ce1_6 3.688883 1_555
Ce1_2 Ce1_6 3.688883 1_455
Ce1_3 In1_3 3.207698 1_555
Ce1_3 In1_7 3.207698 1_455
Ce1_3 In2_1 3.317586 1_565
Ce1_3 In2_5 3.317586 1_465
Ce1_3 In2_3 3.318699 1_555
Ce1_3 In2_7 3.318699 1_455
Ce1_3 Cu0_3 3.340739 1_555
Ce1_3 Cu0_7 3.340739 1_455
Ce1_3 Cu0_1 3.341478 1_555
Ce1_3 Cu0_5 3.341478 1_455
Ce1_3 In0_3 3.429520 1_555
Ce1_3 In0_7 3.429520 1_455
Ce1_3 Ce1_7 3.688883 1_555
Ce1_3 Ce1_7 3.688883 1_455
Ce1_4 In1_4 3.207698 1_555
Ce1_4 In1_0 3.207698 1_555
Ce1_4 In2_6 3.317586 1_555
Ce1_4 In2_2 3.317586 1_555
Ce1_4 In2_4 3.318699 1_555
Ce1_4 In2_0 3.318699 1_555
Ce1_4 Cu0_4 3.340739 1_555
Ce1_4 Cu0_0 3.340739 1_555
Ce1_4 Cu0_6 3.341478 1_545
Ce1_4 Cu0_2 3.341478 1_545
Ce1_4 In0_4 3.429520 1_555
Ce1_4 In0_0 3.429520 1_555
Ce1_5 In1_5 3.207698 1_555
Ce1_5 In1_1 3.207698 1_555
Ce1_5 In2_7 3.317586 1_555
Ce1_5 In2_3 3.317586 1_555
Ce1_5 In2_5 3.318699 1_555
Ce1_5 In2_1 3.318699 1_555
Ce1_5 Cu0_5 3.340739 1_555
Ce1_5 Cu0_1 3.340739 1_555
Ce1_5 Cu0_7 3.341478 1_545
Ce1_5 Cu0_3 3.341478 1_545
Ce1_5 In0_5 3.429520 1_555
Ce1_5 In0_1 3.429520 1_555
Ce1_6 In1_6 3.207698 1_555
Ce1_6 In1_2 3.207698 1_555
Ce1_6 In2_4 3.317586 1_565
Ce1_6 In2_0 3.317586 1_565
Ce1_6 In2_6 3.318699 1_555
Ce1_6 In2_2 3.318699 1_555
Ce1_6 Cu0_6 3.340739 1_555
Ce1_6 Cu0_2 3.340739 1_555
Ce1_6 Cu0_4 3.341478 1_555
Ce1_6 Cu0_0 3.341478 1_555
Ce1_6 In0_6 3.429520 1_555
Ce1_6 In0_2 3.429520 1_555
Ce1_7 In1_7 3.207698 1_555
Ce1_7 In1_3 3.207698 1_555
Ce1_7 In2_5 3.317586 1_565
Ce1_7 In2_1 3.317586 1_565
Ce1_7 In2_7 3.318699 1_555
Ce1_7 In2_3 3.318699 1_555
Ce1_7 Cu0_7 3.340739 1_555
Ce1_7 Cu0_3 3.340739 1_555
Ce1_7 Cu0_5 3.341478 1_555
Ce1_7 Cu0_1 3.341478 1_555
Ce1_7 In0_7 3.429520 1_555
Ce1_7 In0_3 3.429520 1_555
In0_0 In2_0 2.885573 1_555
In0_0 In2_2 2.889353 1_555
In0_0 In1_1 2.897783 1_555
In0_1 In2_1 2.885573 1_555
In0_1 In2_3 2.889353 1_555
In0_1 In1_0 2.897783 1_556
In0_2 In2_2 2.885573 1_555
In0_2 In2_0 2.889353 1_565
In0_2 In1_3 2.897783 1_555
In0_3 In2_3 2.885573 1_555
In0_3 In2_1 2.889353 1_565
In0_3 In1_2 2.897783 1_556
In0_4 In2_4 2.885573 1_555
In0_4 In2_6 2.889353 1_555
In0_4 In1_5 2.897783 1_555
In0_5 In2_5 2.885573 1_555
In0_5 In2_7 2.889353 1_555
In0_5 In1_4 2.897783 1_556
In0_6 In2_6 2.885573 1_555
In0_6 In2_4 2.889353 1_565
In0_6 In1_7 2.897783 1_555
In0_7 In2_7 2.885573 1_555
In0_7 In2_5 2.889353 1_565
In0_7 In1_6 2.897783 1_556
Cu0_0 In2_2 2.695783 1_555
Cu0_0 In1_2 2.724506 1_555
Cu0_0 In1_0 2.725177 1_555
Cu0_1 In2_3 2.695783 1_555
Cu0_1 In1_3 2.724506 1_555
Cu0_1 In1_1 2.725177 1_555
Cu0_2 In2_0 2.695783 1_565
Cu0_2 In1_0 2.724506 1_565
Cu0_2 In1_2 2.725177 1_555
Cu0_3 In2_1 2.695783 1_565
Cu0_3 In1_1 2.724506 1_565
Cu0_3 In1_3 2.725177 1_555
Cu0_4 In2_6 2.695783 1_555
Cu0_4 In1_6 2.724506 1_555
Cu0_4 In1_4 2.725177 1_555
Cu0_5 In2_7 2.695783 1_555
Cu0_5 In1_7 2.724506 1_555
Cu0_5 In1_5 2.725177 1_555
Cu0_6 In2_4 2.695783 1_565
Cu0_6 In1_4 2.724506 1_565
Cu0_6 In1_6 2.725177 1_555
Cu0_7 In2_5 2.695783 1_565
Cu0_7 In1_5 2.724506 1_565
Cu0_7 In1_7 2.725177 1_555
