# generated using pymatgen
data_VP3(HO)6
_symmetry_space_group_name_H-M   'P 1'
_cell_length_a   12.00821700
_cell_length_b   11.69814100
_cell_length_c   15.23776654
_cell_angle_alpha   50.01291562
_cell_angle_beta   90.00000000
_cell_angle_gamma   90.00000000
_symmetry_Int_Tables_number   1
_chemical_formula_structural   VP3(HO)6
_chemical_formula_sum   'V8 P24 H48 O48'
_cell_volume   1640.03376405
_cell_formula_units_Z   8
loop_
 _symmetry_equiv_pos_site_id
 _symmetry_equiv_pos_as_xyz
  1  'x, y, z'
loop_
 _atom_site_type_symbol
 _atom_site_label
 _atom_site_symmetry_multiplicity
 _atom_site_fract_x
 _atom_site_fract_y
 _atom_site_fract_z
 _atom_site_occupancy
  V  V0  1  0.68679800  0.44937100  0.80348700  1
  V  V1  1  0.81320200  0.44937100  0.30348700  1
  V  V2  1  0.31320200  0.55062900  0.19651300  1
  V  V3  1  0.18679800  0.55062900  0.69651300  1
  V  V4  1  0.70335700  0.96177900  0.31024300  1
  V  V5  1  0.79664300  0.96177900  0.81024300  1
  V  V6  1  0.29664300  0.03822100  0.68975700  1
  V  V7  1  0.20335700  0.03822100  0.18975700  1
  P  P0  1  0.47340100  0.95585000  0.19177300  1
  P  P1  1  0.02659900  0.95585000  0.69177300  1
  P  P2  1  0.52659900  0.04415000  0.80822700  1
  P  P3  1  0.97340100  0.04415000  0.30822700  1
  P  P4  1  0.72380700  0.10555200  0.43469100  1
  P  P5  1  0.77619300  0.10555200  0.93469100  1
  P  P6  1  0.27619300  0.89444800  0.56530900  1
  P  P7  1  0.22380700  0.89444800  0.06530900  1
  P  P8  1  0.84068200  0.76225100  0.26140700  1
  P  P9  1  0.65931800  0.76225100  0.76140700  1
  P  P10  1  0.15931800  0.23774900  0.73859300  1
  P  P11  1  0.34068200  0.23774900  0.23859300  1
  P  P12  1  0.58210800  0.65810700  0.54569600  1
  P  P13  1  0.91789200  0.65810700  0.04569600  1
  P  P14  1  0.41789200  0.34189300  0.45430400  1
  P  P15  1  0.08210800  0.34189300  0.95430400  1
  P  P16  1  0.91323700  0.61435900  0.65583700  1
  P  P17  1  0.58676300  0.61435900  0.15583700  1
  P  P18  1  0.08676300  0.38564100  0.34416300  1
  P  P19  1  0.41323700  0.38564100  0.84416300  1
  P  P20  1  0.70675200  0.31443900  0.07280300  1
  P  P21  1  0.79324800  0.31443900  0.57280300  1
  P  P22  1  0.29324800  0.68556100  0.92719700  1
  P  P23  1  0.20675200  0.68556100  0.42719700  1
  H  H0  1  0.53923800  0.00190600  0.09668400  1
  H  H1  1  0.96076200  0.00190600  0.59668400  1
  H  H2  1  0.46076200  0.99809400  0.90331600  1
  H  H3  1  0.03923800  0.99809400  0.40331600  1
  H  H4  1  0.45184100  0.80282700  0.25129400  1
  H  H5  1  0.04815900  0.80282700  0.75129400  1
  H  H6  1  0.54815900  0.19717300  0.74870600  1
  H  H7  1  0.95184100  0.19717300  0.24870600  1
  H  H8  1  0.64257500  0.12769100  0.48985700  1
  H  H9  1  0.85742500  0.12769100  0.98985700  1
  H  H10  1  0.35742500  0.87230900  0.51014300  1
  H  H11  1  0.14257500  0.87230900  0.01014300  1
  H  H12  1  0.77796500  0.97174600  0.52514900  1
  H  H13  1  0.72203500  0.97174600  0.02514900  1
  H  H14  1  0.22203500  0.02825400  0.47485100  1
  H  H15  1  0.27796500  0.02825400  0.97485100  1
  H  H16  1  0.92592500  0.86538300  0.19036500  1
  H  H17  1  0.57407500  0.86538300  0.69036500  1
  H  H18  1  0.07407500  0.13461700  0.80963500  1
  H  H19  1  0.42592500  0.13461700  0.30963500  1
  H  H20  1  0.88722000  0.66825000  0.37304200  1
  H  H21  1  0.61278000  0.66825000  0.87304200  1
  H  H22  1  0.11278000  0.33175000  0.62695800  1
  H  H23  1  0.38722000  0.33175000  0.12695800  1
  H  H24  1  0.50796400  0.72904200  0.56951700  1
  H  H25  1  0.99203600  0.72904200  0.06951700  1
  H  H26  1  0.49203600  0.27095800  0.43048300  1
  H  H27  1  0.00796400  0.27095800  0.93048300  1
  H  H28  1  0.51680000  0.62557200  0.48678800  1
  H  H29  1  0.98320000  0.62557200  0.98678800  1
  H  H30  1  0.48320000  0.37442800  0.51321200  1
  H  H31  1  0.01680000  0.37442800  0.01321200  1
  H  H32  1  0.85595100  0.70579700  0.55010500  1
  H  H33  1  0.64404900  0.70579700  0.05010500  1
  H  H34  1  0.14404900  0.29420300  0.44989500  1
  H  H35  1  0.35595100  0.29420300  0.94989500  1
  H  H36  1  0.92295000  0.70192800  0.68975800  1
  H  H37  1  0.57705000  0.70192800  0.18975800  1
  H  H38  1  0.07705000  0.29807200  0.31024200  1
  H  H39  1  0.42295000  0.29807200  0.81024200  1
  H  H40  1  0.59000900  0.32718900  0.07807900  1
  H  H41  1  0.90999100  0.32718900  0.57807900  1
  H  H42  1  0.40999100  0.67281100  0.92192100  1
  H  H43  1  0.09000900  0.67281100  0.42192100  1
  H  H44  1  0.75457300  0.37916200  0.11659200  1
  H  H45  1  0.74542700  0.37916200  0.61659200  1
  H  H46  1  0.24542700  0.62083800  0.88340800  1
  H  H47  1  0.25457300  0.62083800  0.38340800  1
  O  O0  1  0.02855000  0.58170300  0.63408300  1
  O  O1  1  0.47145000  0.58170300  0.13408300  1
  O  O2  1  0.97145000  0.41829700  0.36591700  1
  O  O3  1  0.52855000  0.41829700  0.86591700  1
  O  O4  1  0.36551800  0.04544100  0.14172000  1
  O  O5  1  0.13448200  0.04544100  0.64172000  1
  O  O6  1  0.63448200  0.95455900  0.85828000  1
  O  O7  1  0.86551800  0.95455900  0.35828000  1
  O  O8  1  0.81090200  0.22930200  0.37714100  1
  O  O9  1  0.68909800  0.22930200  0.87714100  1
  O  O10  1  0.18909800  0.77069800  0.62285900  1
  O  O11  1  0.31090200  0.77069800  0.12285900  1
  O  O12  1  0.67584600  0.76478000  0.46841500  1
  O  O13  1  0.82415400  0.76478000  0.96841500  1
  O  O14  1  0.32415400  0.23522000  0.53158500  1
  O  O15  1  0.17584600  0.23522000  0.03158500  1
  O  O16  1  0.61830400  0.50633400  0.65707600  1
  O  O17  1  0.88169600  0.50633400  0.15707600  1
  O  O18  1  0.38169600  0.49366600  0.34292400  1
  O  O19  1  0.11830400  0.49366600  0.84292400  1
  O  O20  1  0.81713600  0.67248900  0.22262100  1
  O  O21  1  0.68286400  0.67248900  0.72262100  1
  O  O22  1  0.18286400  0.32751100  0.77737900  1
  O  O23  1  0.31713600  0.32751100  0.27737900  1
  O  O24  1  0.84395700  0.47486200  0.74608600  1
  O  O25  1  0.65604300  0.47486200  0.24608600  1
  O  O26  1  0.15604300  0.52513800  0.25391400  1
  O  O27  1  0.34395700  0.52513800  0.75391400  1
  O  O28  1  0.53868400  0.97101300  0.26961900  1
  O  O29  1  0.96131600  0.97101300  0.76961900  1
  O  O30  1  0.46131600  0.02898700  0.73038100  1
  O  O31  1  0.03868400  0.02898700  0.23038100  1
  O  O32  1  0.74294300  0.40923800  0.94744900  1
  O  O33  1  0.75705700  0.40923800  0.44744900  1
  O  O34  1  0.25705700  0.59076200  0.05255100  1
  O  O35  1  0.24294300  0.59076200  0.55255100  1
  O  O36  1  0.66143800  0.08336900  0.35878600  1
  O  O37  1  0.83856200  0.08336900  0.85878600  1
  O  O38  1  0.33856200  0.91663100  0.64121400  1
  O  O39  1  0.16143800  0.91663100  0.14121400  1
  O  O40  1  0.73995700  0.14995400  0.14948400  1
  O  O41  1  0.76004300  0.14995400  0.64948400  1
  O  O42  1  0.26004300  0.85004600  0.85051600  1
  O  O43  1  0.23995700  0.85004600  0.35051600  1
  O  O44  1  0.73973800  0.84498100  0.25724900  1
  O  O45  1  0.76026200  0.84498100  0.75724900  1
  O  O46  1  0.26026200  0.15501900  0.74275100  1
  O  O47  1  0.23973800  0.15501900  0.24275100  1
loop_
_geom_bond_atom_site_label_1
_geom_bond_atom_site_label_2
_geom_bond_distance
_geom_bond_site_symmetry_2
H0 P0 1.418247 1_545
H1 P1 1.418247 1_645
H2 P2 1.418247 1_565
H3 P3 1.418247 1_465
H4 P0 1.416823 1_555
H5 P1 1.416823 1_555
H6 P2 1.416823 1_555
H7 P3 1.416823 1_555
H8 P4 1.415980 1_555
H9 P5 1.415980 1_555
H10 P6 1.415980 1_555
H11 P7 1.415980 1_555
H12 P4 1.414224 1_565
H13 P5 1.414224 1_564
H14 P6 1.414224 1_545
H15 P7 1.414224 1_546
H16 P8 1.413028 1_555
H17 P9 1.413028 1_555
H18 P10 1.413028 1_555
H19 P11 1.413028 1_555
H20 P8 1.418111 1_555
H21 P9 1.418111 1_555
H22 P10 1.418111 1_555
H23 P11 1.418111 1_555
H24 P12 1.414266 1_555
H25 P13 1.414266 1_555
H26 P14 1.414266 1_555
H27 P15 1.414266 1_555
H28 P12 1.415871 1_555
H29 P13 1.415871 1_556
H30 P14 1.415871 1_555
H31 P15 1.415871 1_554
H32 P16 1.413573 1_555
H33 P17 1.413573 1_555
H34 P18 1.413573 1_555
H35 P19 1.413573 1_555
H36 P16 1.417981 1_555
H37 P17 1.417981 1_555
H38 P18 1.417981 1_555
H39 P19 1.417981 1_555
H40 P20 1.417524 1_555
H41 P21 1.417524 1_555
H42 P22 1.417524 1_555
H43 P23 1.417524 1_555
H44 P20 1.413340 1_555
H45 P21 1.413340 1_555
H46 P22 1.413340 1_555
H47 P23 1.413340 1_555
O0 P16 1.528388 1_455
O0 V3 2.050296 1_555
O1 P17 1.528388 1_555
O1 V2 2.050296 1_555
O2 P18 1.528388 1_655
O2 V1 2.050296 1_555
O3 P19 1.528388 1_555
O3 V0 2.050296 1_555
O4 P0 1.526777 1_545
O4 V7 2.062839 1_555
O5 P1 1.526777 1_545
O5 V6 2.062839 1_555
O6 P2 1.526777 1_565
O6 V5 2.062839 1_555
O7 P3 1.526777 1_565
O7 V4 2.062839 1_555
O8 P4 1.525424 1_555
O8 V1 2.043153 1_555
O9 P5 1.525424 1_555
O9 V0 2.043153 1_555
O10 P6 1.525424 1_555
O10 V3 2.043153 1_555
O11 P7 1.525424 1_555
O11 V2 2.043153 1_555
O12 P12 1.523916 1_555
O12 V4 2.022467 1_555
O13 P13 1.523916 1_556
O13 V5 2.022467 1_555
O14 P14 1.523916 1_555
O14 V6 2.022467 1_555
O15 P15 1.523916 1_554
O15 V7 2.022467 1_555
O16 P12 1.532597 1_555
O16 V0 2.046244 1_555
O17 P13 1.532597 1_555
O17 V1 2.046244 1_555
O18 P14 1.532597 1_555
O18 V2 2.046244 1_555
O19 P15 1.532597 1_555
O19 V3 2.046244 1_555
O20 P8 1.526252 1_555
O20 V1 2.049273 1_555
O21 P9 1.526252 1_555
O21 V0 2.049273 1_555
O22 P10 1.526252 1_555
O22 V3 2.049273 1_555
O23 P11 1.526252 1_555
O23 V2 2.049273 1_555
O24 P16 1.536883 1_555
O24 V0 2.019966 1_555
O25 P17 1.536883 1_555
O25 V1 2.019966 1_555
O26 P18 1.536883 1_555
O26 V2 2.019966 1_555
O27 P19 1.536883 1_555
O27 V3 2.019966 1_555
O28 P0 1.524304 1_555
O28 V4 2.054054 1_555
O29 P1 1.524304 1_655
O29 V5 2.054054 1_555
O30 P2 1.524304 1_555
O30 V6 2.054054 1_555
O31 P3 1.524304 1_455
O31 V7 2.054054 1_555
O32 P20 1.531264 1_556
O32 V0 2.040457 1_555
O33 P21 1.531264 1_555
O33 V1 2.040457 1_555
O34 P22 1.531264 1_554
O34 V2 2.040457 1_555
O35 P23 1.531264 1_555
O35 V3 2.040457 1_555
O36 P4 1.533552 1_555
O36 V4 2.043498 1_545
O37 P5 1.533552 1_555
O37 V5 2.043498 1_545
O38 P6 1.533552 1_555
O38 V6 2.043498 1_565
O39 P7 1.533552 1_555
O39 V7 2.043498 1_565
O40 P20 1.528762 1_555
O40 V4 2.027088 1_545
O41 P21 1.528762 1_555
O41 V5 2.027088 1_545
O42 P22 1.528762 1_555
O42 V6 2.027088 1_565
O43 P23 1.528762 1_555
O43 V7 2.027088 1_565
O44 P8 1.526809 1_555
O44 V4 2.031692 1_555
O45 P9 1.526809 1_555
O45 V5 2.031692 1_555
O46 P10 1.526809 1_555
O46 V6 2.031692 1_555
O47 P11 1.526809 1_555
O47 V7 2.031692 1_555
