# generated using pymatgen
data_Cs2Na2Sr(B3O5)6
_symmetry_space_group_name_H-M   'P 1'
_cell_length_a   8.65495600
_cell_length_b   8.59957300
_cell_length_c   17.46180164
_cell_angle_alpha   87.19431997
_cell_angle_beta   90.00000000
_cell_angle_gamma   90.00000000
_symmetry_Int_Tables_number   1
_chemical_formula_structural   Cs2Na2Sr(B3O5)6
_chemical_formula_sum   'Cs4 Na4 Sr2 B36 O60'
_cell_volume   1298.10522145
_cell_formula_units_Z   2
loop_
 _symmetry_equiv_pos_site_id
 _symmetry_equiv_pos_as_xyz
  1  'x, y, z'
loop_
 _atom_site_type_symbol
 _atom_site_label
 _atom_site_symmetry_multiplicity
 _atom_site_fract_x
 _atom_site_fract_y
 _atom_site_fract_z
 _atom_site_occupancy
  Cs  Cs0  1  0.46061300  0.50140200  0.80462900  1
  Cs  Cs1  1  0.96061300  0.49859800  0.69537100  1
  Cs  Cs2  1  0.53938700  0.49859800  0.19537100  1
  Cs  Cs3  1  0.03938700  0.50140200  0.30462900  1
  Na  Na0  1  0.26106200  0.22573700  0.61851300  1
  Na  Na1  1  0.76106200  0.77426300  0.88148700  1
  Na  Na2  1  0.73893800  0.77426300  0.38148700  1
  Na  Na3  1  0.23893800  0.22573700  0.11851300  1
  Sr  Sr0  1  0.00000000  0.00000000  0.00000000  1
  Sr  Sr1  1  0.50000000  0.00000000  0.50000000  1
  B  B0  1  0.65097100  0.17151300  0.91773600  1
  B  B1  1  0.15097100  0.82848700  0.58226400  1
  B  B2  1  0.34902900  0.82848700  0.08226400  1
  B  B3  1  0.84902900  0.17151300  0.41773600  1
  B  B4  1  0.62101200  0.17766800  0.05787000  1
  B  B5  1  0.12101200  0.82233200  0.44213000  1
  B  B6  1  0.37898800  0.82233200  0.94213000  1
  B  B7  1  0.87898800  0.17766800  0.55787000  1
  B  B8  1  0.39663100  0.22269700  0.97450800  1
  B  B9  1  0.89663100  0.77730300  0.52549200  1
  B  B10  1  0.60336900  0.77730300  0.02549200  1
  B  B11  1  0.10336900  0.22269700  0.47450800  1
  B  B12  1  0.14205200  0.33026900  0.91458800  1
  B  B13  1  0.64205200  0.66973100  0.58541200  1
  B  B14  1  0.85794800  0.66973100  0.08541200  1
  B  B15  1  0.35794800  0.33026900  0.41458800  1
  B  B16  1  0.86081500  0.37559500  0.90757900  1
  B  B17  1  0.36081500  0.62440500  0.59242100  1
  B  B18  1  0.13918500  0.62440500  0.09242100  1
  B  B19  1  0.63918500  0.37559500  0.40757900  1
  B  B20  1  0.03978100  0.59616300  0.89525800  1
  B  B21  1  0.53978100  0.40383700  0.60474200  1
  B  B22  1  0.96021900  0.40383700  0.10474200  1
  B  B23  1  0.46021900  0.59616300  0.39525800  1
  B  B24  1  0.19024600  0.95370200  0.71104800  1
  B  B25  1  0.69024600  0.04629800  0.78895200  1
  B  B26  1  0.80975400  0.04629800  0.28895200  1
  B  B27  1  0.30975400  0.95370200  0.21104800  1
  B  B28  1  0.16579700  0.85102100  0.84425900  1
  B  B29  1  0.66579700  0.14897900  0.65574100  1
  B  B30  1  0.83420300  0.14897900  0.15574100  1
  B  B31  1  0.33420300  0.85102100  0.34425900  1
  B  B32  1  0.17295400  0.13438000  0.81460400  1
  B  B33  1  0.67295400  0.86562000  0.68539600  1
  B  B34  1  0.82704600  0.86562000  0.18539600  1
  B  B35  1  0.32704600  0.13438000  0.31460400  1
  O  O0  1  0.71396200  0.32827400  0.89807000  1
  O  O1  1  0.21396200  0.67172600  0.60193000  1
  O  O2  1  0.28603800  0.67172600  0.10193000  1
  O  O3  1  0.78603800  0.32827400  0.39807000  1
  O  O4  1  0.70716900  0.05228600  0.86680100  1
  O  O5  1  0.20716900  0.94771400  0.63319900  1
  O  O6  1  0.29283100  0.94771400  0.13319900  1
  O  O7  1  0.79283100  0.05228600  0.36680100  1
  O  O8  1  0.70176500  0.12156400  0.99700500  1
  O  O9  1  0.20176500  0.87843600  0.50299500  1
  O  O10  1  0.29823500  0.87843600  0.00299500  1
  O  O11  1  0.79823500  0.12156400  0.49700500  1
  O  O12  1  0.48067200  0.18723800  0.91212400  1
  O  O13  1  0.98067200  0.81276200  0.58787600  1
  O  O14  1  0.51932800  0.81276200  0.08787600  1
  O  O15  1  0.01932800  0.18723800  0.41212400  1
  O  O16  1  0.67776900  0.18998800  0.12961900  1
  O  O17  1  0.17776900  0.81001200  0.37038100  1
  O  O18  1  0.32223100  0.81001200  0.87038100  1
  O  O19  1  0.82223100  0.18998800  0.62961900  1
  O  O20  1  0.46800200  0.23057500  0.04661200  1
  O  O21  1  0.96800200  0.76942500  0.45338800  1
  O  O22  1  0.53199800  0.76942500  0.95338800  1
  O  O23  1  0.03199800  0.23057500  0.54661200  1
  O  O24  1  0.24018600  0.25348500  0.97445400  1
  O  O25  1  0.74018600  0.74651500  0.52554600  1
  O  O26  1  0.75981400  0.74651500  0.02554600  1
  O  O27  1  0.25981400  0.25348500  0.47445400  1
  O  O28  1  0.98066400  0.28301300  0.93426200  1
  O  O29  1  0.48066400  0.71698700  0.56573800  1
  O  O30  1  0.01933600  0.71698700  0.06573800  1
  O  O31  1  0.51933600  0.28301300  0.43426200  1
  O  O32  1  0.16151500  0.50182300  0.91384300  1
  O  O33  1  0.66151500  0.49817700  0.58615700  1
  O  O34  1  0.83848500  0.49817700  0.08615700  1
  O  O35  1  0.33848500  0.50182300  0.41384300  1
  O  O36  1  0.17754000  0.28493200  0.83547200  1
  O  O37  1  0.67754000  0.71506800  0.66452800  1
  O  O38  1  0.82246000  0.71506800  0.16452800  1
  O  O39  1  0.32246000  0.28493200  0.33547200  1
  O  O40  1  0.89148800  0.53214400  0.88494600  1
  O  O41  1  0.39148800  0.46785600  0.61505400  1
  O  O42  1  0.10851200  0.46785600  0.11505400  1
  O  O43  1  0.60851200  0.53214400  0.38494600  1
  O  O44  1  0.04370600  0.75493600  0.88306500  1
  O  O45  1  0.54370600  0.24506400  0.61693500  1
  O  O46  1  0.95629400  0.24506400  0.11693500  1
  O  O47  1  0.45629400  0.75493600  0.38306500  1
  O  O48  1  0.20956400  0.10534200  0.73844200  1
  O  O49  1  0.70956400  0.89465800  0.76155800  1
  O  O50  1  0.79043600  0.89465800  0.26155800  1
  O  O51  1  0.29043600  0.10534200  0.23844200  1
  O  O52  1  0.15948300  0.83084800  0.76067800  1
  O  O53  1  0.65948300  0.16915200  0.73932200  1
  O  O54  1  0.84051700  0.16915200  0.23932200  1
  O  O55  1  0.34051700  0.83084800  0.26067800  1
  O  O56  1  0.12831900  0.01333500  0.86371900  1
  O  O57  1  0.62831900  0.98666500  0.63628100  1
  O  O58  1  0.87168100  0.98666500  0.13628100  1
  O  O59  1  0.37168100  0.01333500  0.36371900  1
loop_
_geom_bond_atom_site_label_1
_geom_bond_atom_site_label_2
_geom_bond_distance
_geom_bond_site_symmetry_2
Cs0 O0 3.073940 1_555
Cs0 O36 3.108006 1_555
Cs0 O18 3.177148 1_555
Cs0 O32 3.215413 1_555
Cs0 O12 3.218086 1_555
Cs0 O41 3.390113 1_555
Cs0 O37 3.527895 1_555
Cs0 O53 3.570105 1_555
Cs0 O22 3.609413 1_555
Cs1 O1 3.073940 1_655
Cs1 O37 3.108006 1_555
Cs1 O19 3.177148 1_555
Cs1 O33 3.215413 1_555
Cs1 O13 3.218086 1_555
Cs1 O40 3.390113 1_555
Cs1 O36 3.527895 1_655
Cs1 O52 3.570105 1_655
Cs1 O23 3.609413 1_655
Cs2 O2 3.073940 1_555
Cs2 O38 3.108006 1_555
Cs2 O16 3.177148 1_555
Cs2 O34 3.215413 1_555
Cs2 O14 3.218086 1_555
Cs2 O43 3.390113 1_555
Cs2 O39 3.527895 1_555
Cs2 O55 3.570105 1_555
Cs2 O20 3.609413 1_555
Cs3 O3 3.073940 1_455
Cs3 O39 3.108006 1_555
Cs3 O17 3.177148 1_555
Cs3 O35 3.215413 1_555
Cs3 O15 3.218086 1_555
Cs3 O42 3.390113 1_555
Cs3 O38 3.527895 1_455
Cs3 O54 3.570105 1_455
Cs3 O21 3.609413 1_455
Na0 O48 2.333220 1_555
Na0 O23 2.345935 1_555
Na0 O41 2.366605 1_555
Na0 O5 2.437132 1_545
Na0 O45 2.451974 1_555
Na0 O27 2.515190 1_555
Na1 O49 2.333220 1_555
Na1 O22 2.345935 1_555
Na1 O40 2.366605 1_555
Na1 O4 2.437132 1_565
Na1 O44 2.451974 1_655
Na1 O26 2.515190 1_556
Na2 O50 2.333220 1_555
Na2 O21 2.345935 1_555
Na2 O43 2.366605 1_555
Na2 O7 2.437132 1_565
Na2 O47 2.451974 1_555
Na2 O25 2.515190 1_555
Na3 O51 2.333220 1_555
Na3 O20 2.345935 1_555
Na3 O42 2.366605 1_555
Na3 O6 2.437132 1_545
Na3 O46 2.451974 1_455
Na3 O24 2.515190 1_554
B0 O4 1.472466 1_555
B0 O0 1.478900 1_555
B0 O12 1.482924 1_555
B0 O8 1.495165 1_555
B1 O5 1.472466 1_555
B1 O1 1.478900 1_555
B1 O13 1.482924 1_455
B1 O9 1.495165 1_555
B2 O6 1.472466 1_555
B2 O2 1.478900 1_555
B2 O14 1.482924 1_555
B2 O10 1.495165 1_555
B3 O7 1.472466 1_555
B3 O3 1.478900 1_555
B3 O15 1.482924 1_655
B3 O11 1.495165 1_555
B4 O16 1.354696 1_555
B4 O8 1.378778 1_554
B4 O20 1.410904 1_555
B5 O17 1.354696 1_555
B5 O9 1.378778 1_555
B5 O21 1.410904 1_455
B6 O18 1.354696 1_555
B6 O10 1.378778 1_556
B6 O22 1.410904 1_555
B7 O19 1.354696 1_555
B7 O11 1.378778 1_555
B7 O23 1.410904 1_655
B8 O12 1.356918 1_555
B8 O24 1.379659 1_555
B8 O20 1.407038 1_556
B9 O13 1.356918 1_555
B9 O25 1.379659 1_555
B9 O21 1.407038 1_555
B10 O14 1.356918 1_555
B10 O26 1.379659 1_555
B10 O22 1.407038 1_554
B11 O15 1.356918 1_555
B11 O27 1.379659 1_555
B11 O23 1.407038 1_555
B12 O24 1.477368 1_555
B12 O32 1.484301 1_555
B12 O36 1.485812 1_555
B12 O28 1.490157 1_455
B13 O25 1.477368 1_555
B13 O33 1.484301 1_555
B13 O37 1.485812 1_555
B13 O29 1.490157 1_555
B14 O26 1.477368 1_555
B14 O34 1.484301 1_555
B14 O38 1.485812 1_555
B14 O30 1.490157 1_655
B15 O27 1.477368 1_555
B15 O35 1.484301 1_555
B15 O39 1.485812 1_555
B15 O31 1.490157 1_555
B16 O0 1.347310 1_555
B16 O28 1.374999 1_555
B16 O40 1.409604 1_555
B17 O1 1.347310 1_555
B17 O29 1.374999 1_555
B17 O41 1.409604 1_555
B18 O2 1.347310 1_555
B18 O30 1.374999 1_555
B18 O42 1.409604 1_555
B19 O3 1.347310 1_555
B19 O31 1.374999 1_555
B19 O43 1.409604 1_555
B20 O32 1.359339 1_555
B20 O44 1.371965 1_555
B20 O40 1.411564 1_455
B21 O33 1.359339 1_555
B21 O45 1.371965 1_555
B21 O41 1.411564 1_555
B22 O34 1.359339 1_555
B22 O46 1.371965 1_555
B22 O42 1.411564 1_655
B23 O35 1.359339 1_555
B23 O47 1.371965 1_555
B23 O43 1.411564 1_555
B24 O52 1.359587 1_555
B24 O5 1.370723 1_555
B24 O48 1.420689 1_565
B25 O53 1.359587 1_555
B25 O4 1.370723 1_555
B25 O49 1.420689 1_545
B26 O54 1.359587 1_555
B26 O7 1.370723 1_555
B26 O50 1.420689 1_545
B27 O55 1.359587 1_555
B27 O6 1.370723 1_555
B27 O51 1.420689 1_565
B28 O18 1.466222 1_555
B28 O52 1.479167 1_555
B28 O44 1.484490 1_555
B28 O56 1.488443 1_565
B29 O19 1.466222 1_555
B29 O53 1.479167 1_555
B29 O45 1.484490 1_555
B29 O57 1.488443 1_545
B30 O16 1.466222 1_555
B30 O54 1.479167 1_555
B30 O46 1.484490 1_555
B30 O58 1.488443 1_545
B31 O17 1.466222 1_555
B31 O55 1.479167 1_555
B31 O47 1.484490 1_555
B31 O59 1.488443 1_565
B32 O36 1.362625 1_555
B32 O56 1.371469 1_555
B32 O48 1.401417 1_555
B33 O37 1.362625 1_555
B33 O57 1.371469 1_555
B33 O49 1.401417 1_555
B34 O38 1.362625 1_555
B34 O58 1.371469 1_555
B34 O50 1.401417 1_555
B35 O39 1.362625 1_555
B35 O59 1.371469 1_555
B35 O51 1.401417 1_555
O8 Sr0 2.784401 1_656
O9 Sr1 2.784401 1_565
O10 Sr0 2.784401 1_565
O11 Sr1 2.784401 1_555
O24 Sr0 3.029356 1_556
O25 Sr1 3.029356 1_565
O26 Sr0 3.029356 1_665
O27 Sr1 3.029356 1_555
O28 Sr0 2.644906 1_656
O29 Sr1 2.644906 1_565
O30 Sr0 2.644906 1_565
O31 Sr1 2.644906 1_555
O44 Sr0 3.029031 1_566
O45 Sr1 3.029031 1_555
O46 Sr0 3.029031 1_655
O47 Sr1 3.029031 1_565
O56 Sr0 2.623525 1_556
O57 Sr1 2.623525 1_565
O58 Sr0 2.623525 1_665
O59 Sr1 2.623525 1_555
