# generated using pymatgen
data_MgAg(PO3)3
_symmetry_space_group_name_H-M   'P 1'
_cell_length_a   10.18529800
_cell_length_b   10.88677000
_cell_length_c   14.12282100
_cell_angle_alpha   90.00000000
_cell_angle_beta   90.00000000
_cell_angle_gamma   90.00000000
_symmetry_Int_Tables_number   1
_chemical_formula_structural   MgAg(PO3)3
_chemical_formula_sum   'Mg8 Ag8 P24 O72'
_cell_volume   1566.00896009
_cell_formula_units_Z   8
loop_
 _symmetry_equiv_pos_site_id
 _symmetry_equiv_pos_as_xyz
  1  'x, y, z'
loop_
 _atom_site_type_symbol
 _atom_site_label
 _atom_site_symmetry_multiplicity
 _atom_site_fract_x
 _atom_site_fract_y
 _atom_site_fract_z
 _atom_site_occupancy
  Mg  Mg0  1  0.96882400  0.50000000  0.25000000  1
  Mg  Mg1  1  0.46882400  0.50000000  0.25000000  1
  Mg  Mg2  1  0.03117600  0.50000000  0.75000000  1
  Mg  Mg3  1  0.00000000  0.00000000  0.00000000  1
  Mg  Mg4  1  0.00000000  0.00000000  0.50000000  1
  Mg  Mg5  1  0.50000000  0.00000000  0.00000000  1
  Mg  Mg6  1  0.50000000  0.00000000  0.50000000  1
  Mg  Mg7  1  0.53117600  0.50000000  0.75000000  1
  Ag  Ag0  1  0.47974400  0.75272900  0.87573500  1
  Ag  Ag1  1  0.47974400  0.24727100  0.62426500  1
  Ag  Ag2  1  0.02025600  0.75272900  0.12426500  1
  Ag  Ag3  1  0.02025600  0.24727100  0.37573500  1
  Ag  Ag4  1  0.52025600  0.24727100  0.12426500  1
  Ag  Ag5  1  0.52025600  0.75272900  0.37573500  1
  Ag  Ag6  1  0.97974400  0.24727100  0.87573500  1
  Ag  Ag7  1  0.97974400  0.75272900  0.62426500  1
  P  P0  1  0.94563800  0.74771300  0.87438000  1
  P  P1  1  0.44563800  0.25228700  0.87438000  1
  P  P2  1  0.05436200  0.74771300  0.37438000  1
  P  P3  1  0.05436200  0.25228700  0.12562000  1
  P  P4  1  0.55436200  0.25228700  0.37438000  1
  P  P5  1  0.55436200  0.74771300  0.12562000  1
  P  P6  1  0.94563800  0.25228700  0.62562000  1
  P  P7  1  0.44563800  0.74771300  0.62562000  1
  P  P8  1  0.26116800  0.95425900  0.64829200  1
  P  P9  1  0.26116800  0.04574100  0.85170800  1
  P  P10  1  0.23883200  0.95425900  0.35170800  1
  P  P11  1  0.23883200  0.04574100  0.14829200  1
  P  P12  1  0.78603900  0.52698400  0.89918800  1
  P  P13  1  0.73883200  0.95425900  0.14829200  1
  P  P14  1  0.76116800  0.04574100  0.64829200  1
  P  P15  1  0.76116800  0.95425900  0.85170800  1
  P  P16  1  0.78603900  0.47301600  0.60081200  1
  P  P17  1  0.71396100  0.52698400  0.10081200  1
  P  P18  1  0.71396100  0.47301600  0.39918800  1
  P  P19  1  0.21396100  0.47301600  0.10081200  1
  P  P20  1  0.21396100  0.52698400  0.39918800  1
  P  P21  1  0.28603900  0.47301600  0.89918800  1
  P  P22  1  0.28603900  0.52698400  0.60081200  1
  P  P23  1  0.73883200  0.04574100  0.35170800  1
  O  O0  1  0.16333300  0.56126500  0.65224800  1
  O  O1  1  0.16333300  0.43873500  0.84775200  1
  O  O2  1  0.33666700  0.56126500  0.34775200  1
  O  O3  1  0.33666700  0.43873500  0.15224800  1
  O  O4  1  0.83666700  0.43873500  0.34775200  1
  O  O5  1  0.83666700  0.56126500  0.15224800  1
  O  O6  1  0.66333300  0.43873500  0.65224800  1
  O  O7  1  0.66333300  0.56126500  0.84775200  1
  O  O8  1  0.38419000  0.55508400  0.85064400  1
  O  O9  1  0.38419000  0.44491600  0.64935600  1
  O  O10  1  0.11581000  0.55508400  0.14935600  1
  O  O11  1  0.11581000  0.44491600  0.35064400  1
  O  O12  1  0.61581000  0.44491600  0.14935600  1
  O  O13  1  0.61581000  0.55508400  0.35064400  1
  O  O14  1  0.88419000  0.44491600  0.85064400  1
  O  O15  1  0.88419000  0.55508400  0.64935600  1
  O  O16  1  0.51871000  0.82467800  0.55504800  1
  O  O17  1  0.51871000  0.17532200  0.94495200  1
  O  O18  1  0.98129000  0.82467800  0.44495200  1
  O  O19  1  0.98129000  0.17532200  0.05504800  1
  O  O20  1  0.48129000  0.17532200  0.44495200  1
  O  O21  1  0.48129000  0.82467800  0.05504800  1
  O  O22  1  0.01871000  0.17532200  0.55504800  1
  O  O23  1  0.01871000  0.82467800  0.94495200  1
  O  O24  1  0.01941100  0.68068100  0.79839700  1
  O  O25  1  0.01941100  0.31931900  0.70160300  1
  O  O26  1  0.48058900  0.68068100  0.20160300  1
  O  O27  1  0.13993900  0.92217000  0.59278300  1
  O  O28  1  0.48058900  0.31931900  0.29839700  1
  O  O29  1  0.98058900  0.68068100  0.29839700  1
  O  O30  1  0.51941100  0.31931900  0.79839700  1
  O  O31  1  0.51941100  0.68068100  0.70160300  1
  O  O32  1  0.35915000  0.95867800  0.89456600  1
  O  O33  1  0.35915000  0.04132200  0.60543400  1
  O  O34  1  0.14085000  0.95867800  0.10543400  1
  O  O35  1  0.14085000  0.04132200  0.39456600  1
  O  O36  1  0.64085000  0.04132200  0.10543400  1
  O  O37  1  0.64085000  0.95867800  0.39456600  1
  O  O38  1  0.85915000  0.04132200  0.89456600  1
  O  O39  1  0.85915000  0.95867800  0.60543400  1
  O  O40  1  0.71019300  0.00000000  0.75000000  1
  O  O41  1  0.78980700  0.00000000  0.25000000  1
  O  O42  1  0.28980700  0.00000000  0.25000000  1
  O  O43  1  0.21019300  0.00000000  0.75000000  1
  O  O44  1  0.83511600  0.82866500  0.82041600  1
  O  O45  1  0.83511600  0.17133500  0.67958400  1
  O  O46  1  0.66488400  0.82866500  0.17958400  1
  O  O47  1  0.66488400  0.17133500  0.32041600  1
  O  O48  1  0.16488400  0.17133500  0.17958400  1
  O  O49  1  0.16488400  0.82866500  0.32041600  1
  O  O50  1  0.33511600  0.17133500  0.82041600  1
  O  O51  1  0.33511600  0.82866500  0.67958400  1
  O  O52  1  0.85969200  0.65095300  0.93507200  1
  O  O53  1  0.85969200  0.34904700  0.56492800  1
  O  O54  1  0.64030800  0.65095300  0.06492800  1
  O  O55  1  0.64030800  0.34904700  0.43507200  1
  O  O56  1  0.14030800  0.34904700  0.06492800  1
  O  O57  1  0.14030800  0.65095300  0.43507200  1
  O  O58  1  0.35969200  0.34904700  0.93507200  1
  O  O59  1  0.35969200  0.65095300  0.56492800  1
  O  O60  1  0.75000000  0.53415700  0.50000000  1
  O  O61  1  0.75000000  0.46584300  0.00000000  1
  O  O62  1  0.25000000  0.46584300  0.50000000  1
  O  O63  1  0.25000000  0.53415700  0.00000000  1
  O  O64  1  0.63993900  0.92217000  0.90721700  1
  O  O65  1  0.63993900  0.07783000  0.59278300  1
  O  O66  1  0.86006100  0.92217000  0.09278300  1
  O  O67  1  0.86006100  0.07783000  0.40721700  1
  O  O68  1  0.36006100  0.07783000  0.09278300  1
  O  O69  1  0.36006100  0.92217000  0.40721700  1
  O  O70  1  0.13993900  0.07783000  0.90721700  1
  O  O71  1  0.98058900  0.31931900  0.20160300  1
loop_
_geom_bond_atom_site_label_1
_geom_bond_atom_site_label_2
_geom_bond_distance
_geom_bond_site_symmetry_2
Mg0 O4 2.040247 1_555
Mg0 O5 2.040247 1_555
Mg0 O29 2.085845 1_555
Mg0 O71 2.085845 1_555
Mg0 O10 2.149706 1_655
Mg0 O11 2.149706 1_655
Mg1 O3 2.040247 1_555
Mg1 O2 2.040247 1_555
Mg1 O26 2.085845 1_555
Mg1 O28 2.085845 1_555
Mg1 O13 2.149706 1_555
Mg1 O12 2.149706 1_555
Mg2 O1 2.040247 1_555
Mg2 O0 2.040247 1_555
Mg2 O24 2.085845 1_555
Mg2 O25 2.085845 1_555
Mg2 O14 2.149706 1_455
Mg2 O15 2.149706 1_455
Mg3 O19 2.069738 1_455
Mg3 O23 2.069738 1_544
Mg3 O66 2.113415 1_445
Mg3 O70 2.113415 1_554
Mg3 O38 2.116046 1_454
Mg3 O34 2.116046 1_545
Mg4 O22 2.069738 1_555
Mg4 O18 2.069738 1_445
Mg4 O27 2.113415 1_545
Mg4 O67 2.113415 1_455
Mg4 O35 2.116046 1_555
Mg4 O39 2.116046 1_445
Mg5 O17 2.069738 1_554
Mg5 O21 2.069738 1_545
Mg5 O68 2.113415 1_555
Mg5 O64 2.113415 1_544
Mg5 O36 2.116046 1_555
Mg5 O32 2.116046 1_544
Mg6 O20 2.069738 1_555
Mg6 O16 2.069738 1_545
Mg6 O65 2.113415 1_555
Mg6 O69 2.113415 1_545
Mg6 O33 2.116046 1_555
Mg6 O37 2.116046 1_545
Mg7 O7 2.040247 1_555
Mg7 O6 2.040247 1_555
Mg7 O31 2.085845 1_555
Mg7 O30 2.085845 1_555
Mg7 O8 2.149706 1_555
Mg7 O9 2.149706 1_555
Ag0 O8 2.388023 1_555
Ag0 O64 2.502539 1_555
Ag0 O32 2.570314 1_555
Ag0 O31 2.612720 1_555
Ag0 O21 2.650825 1_556
Ag0 O7 2.827997 1_555
Ag1 O9 2.388023 1_555
Ag1 O65 2.502539 1_555
Ag1 O33 2.570314 1_555
Ag1 O30 2.612720 1_555
Ag1 O20 2.650825 1_555
Ag1 O6 2.827997 1_555
Ag2 O10 2.388023 1_555
Ag2 O66 2.502539 1_455
Ag2 O34 2.570314 1_555
Ag2 O29 2.612720 1_455
Ag2 O23 2.650825 1_554
Ag2 O5 2.827997 1_455
Ag3 O11 2.388023 1_555
Ag3 O67 2.502539 1_455
Ag3 O35 2.570314 1_555
Ag3 O71 2.612720 1_455
Ag3 O22 2.650825 1_555
Ag3 O4 2.827997 1_455
Ag4 O12 2.388023 1_555
Ag4 O68 2.502539 1_555
Ag4 O36 2.570314 1_555
Ag4 O28 2.612720 1_555
Ag4 O17 2.650825 1_554
Ag4 O3 2.827997 1_555
Ag5 O13 2.388023 1_555
Ag5 O69 2.502539 1_555
Ag5 O37 2.570314 1_555
Ag5 O26 2.612720 1_555
Ag5 O16 2.650825 1_555
Ag5 O2 2.827997 1_555
Ag6 O14 2.388023 1_555
Ag6 O70 2.502539 1_655
Ag6 O38 2.570314 1_555
Ag6 O25 2.612720 1_655
Ag6 O19 2.650825 1_556
Ag6 O1 2.827997 1_655
Ag7 O15 2.388023 1_555
Ag7 O27 2.502539 1_655
Ag7 O39 2.570314 1_555
Ag7 O24 2.612720 1_655
Ag7 O18 2.650825 1_555
Ag7 O0 2.827997 1_655
O0 P22 1.492972 1_555
O1 P21 1.492972 1_555
O2 P20 1.492972 1_555
O3 P19 1.492972 1_555
O4 P18 1.492972 1_555
O5 P17 1.492972 1_555
O6 P16 1.492972 1_555
O7 P12 1.492972 1_555
O8 P21 1.505880 1_555
O9 P22 1.505880 1_555
O10 P19 1.505880 1_555
O11 P20 1.505880 1_555
O12 P17 1.505880 1_555
O13 P18 1.505880 1_555
O14 P12 1.505880 1_555
O15 P16 1.505880 1_555
O16 P7 1.499787 1_555
O17 P1 1.499787 1_555
O18 P2 1.499787 1_655
O19 P3 1.499787 1_655
O20 P4 1.499787 1_555
O21 P5 1.499787 1_555
O22 P6 1.499787 1_455
O23 P0 1.499787 1_455
O24 P0 1.499562 1_455
O25 P6 1.499562 1_455
O26 P5 1.499562 1_555
O27 P8 1.503737 1_555
O28 P4 1.499562 1_555
O29 P2 1.499562 1_655
O30 P1 1.499562 1_555
O31 P7 1.499562 1_555
O32 P9 1.503564 1_565
O33 P8 1.503564 1_545
O34 P11 1.503564 1_565
O35 P10 1.503564 1_545
O36 P13 1.503564 1_545
O37 P23 1.503564 1_565
O38 P15 1.503564 1_545
O39 P14 1.503564 1_565
O40 P15 1.606486 1_545
O40 P14 1.606486 1_555
O41 P23 1.606486 1_555
O41 P13 1.606486 1_545
O42 P10 1.606486 1_545
O42 P11 1.606486 1_555
O43 P9 1.606486 1_555
O43 P8 1.606486 1_545
O44 P0 1.620103 1_555
O44 P15 1.622385 1_555
O45 P6 1.620103 1_555
O45 P14 1.622385 1_555
O46 P5 1.620103 1_555
O46 P13 1.622385 1_555
O47 P4 1.620103 1_555
O47 P23 1.622385 1_555
O48 P3 1.620103 1_555
O48 P11 1.622385 1_555
O49 P2 1.620103 1_555
O49 P10 1.622385 1_555
O50 P1 1.620103 1_555
O50 P9 1.622385 1_555
O51 P7 1.620103 1_555
O51 P8 1.622385 1_555
O52 P0 1.615751 1_555
O52 P12 1.625139 1_555
O53 P6 1.615751 1_555
O53 P16 1.625139 1_555
O54 P5 1.615751 1_555
O54 P17 1.625139 1_555
O55 P4 1.615751 1_555
O55 P18 1.625139 1_555
O56 P3 1.615751 1_555
O56 P19 1.625139 1_555
O57 P2 1.615751 1_555
O57 P20 1.625139 1_555
O58 P1 1.615751 1_555
O58 P21 1.625139 1_555
O59 P7 1.615751 1_555
O59 P22 1.625139 1_555
O60 P16 1.613959 1_555
O60 P18 1.613959 1_555
O61 P12 1.613959 1_554
O61 P17 1.613959 1_555
O62 P22 1.613959 1_555
O62 P20 1.613959 1_555
O63 P21 1.613959 1_554
O63 P19 1.613959 1_555
O64 P15 1.503737 1_555
O65 P14 1.503737 1_555
O66 P13 1.503737 1_555
O67 P23 1.503737 1_555
O68 P11 1.503737 1_555
O69 P10 1.503737 1_555
O70 P9 1.503737 1_555
O71 P3 1.499562 1_655
