# generated using pymatgen
data_Mg5Si6
_symmetry_space_group_name_H-M   'P 1'
_cell_length_a   15.02571258
_cell_length_b   15.02571258
_cell_length_c   6.95302553
_cell_angle_alpha   76.66149122
_cell_angle_beta   76.66149122
_cell_angle_gamma   15.25662545
_symmetry_Int_Tables_number   1
_chemical_formula_structural   Mg5Si6
_chemical_formula_sum   'Mg10 Si12'
_cell_volume   401.73523233
_cell_formula_units_Z   2
loop_
 _symmetry_equiv_pos_site_id
 _symmetry_equiv_pos_as_xyz
  1  'x, y, z'
loop_
 _atom_site_type_symbol
 _atom_site_label
 _atom_site_symmetry_multiplicity
 _atom_site_fract_x
 _atom_site_fract_y
 _atom_site_fract_z
 _atom_site_occupancy
  Mg  Mg0  1  0.70058000  0.70058000  0.23005300  1
  Mg  Mg1  1  0.43991400  0.43991400  0.36323000  1
  Mg  Mg2  1  0.02042900  0.02042900  0.45116600  1
  Mg  Mg3  1  0.86551500  0.86551500  0.25275900  1
  Mg  Mg4  1  0.27385400  0.27385400  0.34754400  1
  Mg  Mg5  1  0.08316800  0.08316800  0.94134900  1
  Mg  Mg6  1  0.98119400  0.98119400  0.99808500  1
  Mg  Mg7  1  0.90522800  0.90522800  0.71285600  1
  Mg  Mg8  1  0.22981100  0.22981100  0.87739100  1
  Mg  Mg9  1  0.15383700  0.15383700  0.57355400  1
  Si  Si0  1  0.65641800  0.65641800  0.89468200  1
  Si  Si1  1  0.71896000  0.71896000  0.59539700  1
  Si  Si2  1  0.41524600  0.41524600  0.00767300  1
  Si  Si3  1  0.47411300  0.47411300  0.69919500  1
  Si  Si4  1  0.13985700  0.13985700  0.19178800  1
  Si  Si5  1  0.78994500  0.78994500  0.01764600  1
  Si  Si6  1  0.34643700  0.34643700  0.57327800  1
  Si  Si7  1  0.52853300  0.52853300  0.14711400  1
  Si  Si8  1  0.58897600  0.58897600  0.32847400  1
  Si  Si9  1  0.79565800  0.79565800  0.65009200  1
  Si  Si10  1  0.34004900  0.34004900  0.94417800  1
  Si  Si11  1  0.55657500  0.55657500  0.69886400  1
loop_
_geom_bond_atom_site_label_1
_geom_bond_atom_site_label_2
_geom_bond_distance
_geom_bond_site_symmetry_2
Mg0 Si1 2.720286 1_555
Mg0 Si5 2.726936 1_555
Mg0 Si4 2.746729 1_655
Mg0 Si4 2.746729 1_565
Mg0 Si0 2.931831 1_554
Mg1 Si7 2.716396 1_555
Mg1 Si2 2.738104 1_555
Mg1 Si3 2.757192 1_555
Mg1 Si6 2.827025 1_555
Mg2 Si3 2.783548 1_455
Mg2 Si3 2.783548 1_545
Mg2 Si8 2.839706 1_545
Mg2 Si8 2.839706 1_455
Mg2 Si7 2.875500 1_545
Mg2 Si7 2.875500 1_455
Mg2 Si11 2.994480 1_455
Mg2 Si11 2.994480 1_545
Mg3 Si2 2.810947 1_565
Mg3 Si2 2.810947 1_655
Mg3 Si6 2.945908 1_565
Mg3 Si6 2.945908 1_655
Mg3 Si9 3.047249 1_555
Mg3 Si5 3.074388 1_555
Mg3 Si10 3.148794 1_564
Mg3 Si10 3.148794 1_654
Mg4 Si1 2.882700 1_545
Mg4 Si1 2.882700 1_455
Mg4 Si6 2.952450 1_555
Mg4 Si5 2.992966 1_455
Mg4 Si5 2.992966 1_545
Mg4 Si10 3.029691 1_554
Mg4 Si9 3.075948 1_455
Mg4 Si9 3.075948 1_545
Mg5 Si4 2.692948 1_556
Mg5 Si7 2.754938 1_456
Mg5 Si7 2.754938 1_546
Mg5 Si11 2.840802 1_455
Mg5 Si11 2.840802 1_545
Mg5 Si0 2.917938 1_455
Mg5 Si0 2.917938 1_545
Mg6 Si7 2.778574 1_656
Mg6 Si7 2.778574 1_566
Mg6 Si2 2.789333 1_566
Mg6 Si2 2.789333 1_656
Mg6 Si3 2.923330 1_565
Mg6 Si3 2.923330 1_655
Mg7 Si3 2.847195 1_655
Mg7 Si3 2.847195 1_565
Mg7 Si2 2.924757 1_566
Mg7 Si2 2.924757 1_656
Mg7 Si6 2.962744 1_565
Mg7 Si6 2.962744 1_655
Mg7 Si10 2.980057 1_565
Mg7 Si10 2.980057 1_655
Mg8 Si1 2.867457 1_455
Mg8 Si1 2.867457 1_545
Mg8 Si0 2.940978 1_545
Mg8 Si0 2.940978 1_455
Mg8 Si9 2.979905 1_455
Mg8 Si9 2.979905 1_545
Mg8 Si5 2.991773 1_456
Mg8 Si5 2.991773 1_546
Mg8 Si4 3.038224 1_556
Mg9 Si4 2.780995 1_555
Mg9 Si1 2.810902 1_455
Mg9 Si1 2.810902 1_545
Mg9 Si0 3.008275 1_545
Mg9 Si0 3.008275 1_455
Si0 Si1 2.448649 1_555
Si0 Si4 2.831055 1_656
Si0 Si4 2.831055 1_566
Si1 Si9 2.401654 1_555
Si2 Si3 2.433931 1_554
Si4 Si8 2.551069 1_455
Si4 Si8 2.551069 1_545
Si5 Si9 2.521441 1_554
Si6 Si9 2.485003 1_455
Si6 Si9 2.485003 1_545
Si7 Si8 2.426547 1_555
Si10 Si2 2.381562 1_556
Si10 Si5 2.472181 1_456
Si10 Si5 2.472181 1_546
Si10 Si6 2.541335 1_555
Si11 Si3 2.455635 1_555
Si11 Si8 2.531143 1_555
