# generated using pymatgen
data_YbMn2BiSb
_symmetry_space_group_name_H-M   'P 1'
_cell_length_a   4.46015015
_cell_length_b   4.46015015
_cell_length_c   7.37671167
_cell_angle_alpha   90.00000000
_cell_angle_beta   90.00000000
_cell_angle_gamma   119.99999140
_symmetry_Int_Tables_number   1
_chemical_formula_structural   YbMn2BiSb
_chemical_formula_sum   'Yb1 Mn2 Bi1 Sb1'
_cell_volume   127.08445704
_cell_formula_units_Z   1
loop_
 _symmetry_equiv_pos_site_id
 _symmetry_equiv_pos_as_xyz
  1  'x, y, z'
loop_
 _atom_site_type_symbol
 _atom_site_label
 _atom_site_symmetry_multiplicity
 _atom_site_fract_x
 _atom_site_fract_y
 _atom_site_fract_z
 _atom_site_occupancy
  Yb  Yb0  1  0.66666700  0.33333300  0.01208718  1
  Mn  Mn0  1  0.00000000  0.00000000  0.61350678  1
  Mn  Mn1  1  0.33333300  0.66666700  0.37067917  1
  Bi  Bi0  1  0.33333300  0.66666700  0.76703162  1
  Sb  Sb0  1  0.00000000  0.00000000  0.23669524  1
loop_
_geom_bond_atom_site_label_1
_geom_bond_atom_site_label_2
_geom_bond_distance
_geom_bond_site_symmetry_2
Mn0 Sb0 2.779630 1_555
Mn1 Sb0 2.758228 1_565
Mn1 Sb0 2.758232 1_555
Mn1 Sb0 2.758232 1_665
Bi0 Mn0 2.813102 1_565
Bi0 Mn0 2.813106 1_555
Bi0 Mn0 2.813106 1_665
Bi0 Mn1 2.923778 1_555
Bi0 Yb0 3.146230 1_566
Bi0 Yb0 3.146230 1_456
Bi0 Yb0 3.146236 1_556
Sb0 Yb0 3.062055 1_455
Sb0 Yb0 3.062058 1_555
Sb0 Yb0 3.062058 1_445
