# generated using pymatgen
data_BaCrCdF7
_symmetry_space_group_name_H-M   'P 1'
_cell_length_a   7.61718469
_cell_length_b   7.61718469
_cell_length_c   15.29790767
_cell_angle_alpha   88.56476292
_cell_angle_beta   88.56476292
_cell_angle_gamma   42.16255742
_symmetry_Int_Tables_number   1
_chemical_formula_structural   BaCrCdF7
_chemical_formula_sum   'Ba4 Cr4 Cd4 F28'
_cell_volume   595.57976639
_cell_formula_units_Z   4
loop_
 _symmetry_equiv_pos_site_id
 _symmetry_equiv_pos_as_xyz
  1  'x, y, z'
loop_
 _atom_site_type_symbol
 _atom_site_label
 _atom_site_symmetry_multiplicity
 _atom_site_fract_x
 _atom_site_fract_y
 _atom_site_fract_z
 _atom_site_occupancy
  Ba  Ba0  1  0.64796700  0.73005100  0.87648000  1
  Ba  Ba1  1  0.35203300  0.26994900  0.12352000  1
  Ba  Ba2  1  0.26994900  0.35203300  0.62352000  1
  Ba  Ba3  1  0.73005100  0.64796700  0.37648000  1
  Cr  Cr0  1  0.38588000  0.36942300  0.87529900  1
  Cr  Cr1  1  0.61412000  0.63057700  0.12470100  1
  Cr  Cr2  1  0.63057700  0.61412000  0.62470100  1
  Cr  Cr3  1  0.36942300  0.38588000  0.37529900  1
  Cd  Cd0  1  0.00000000  0.00000000  0.50000000  1
  Cd  Cd1  1  0.00000000  0.00000000  0.00000000  1
  Cd  Cd2  1  0.95294700  0.04705300  0.75000000  1
  Cd  Cd3  1  0.04705300  0.95294700  0.25000000  1
  F  F0  1  0.42444500  0.74800200  0.51881900  1
  F  F1  1  0.57555500  0.25199800  0.48118100  1
  F  F2  1  0.25199800  0.57555500  0.98118100  1
  F  F3  1  0.74800200  0.42444500  0.01881900  1
  F  F4  1  0.68708500  0.81366100  0.59128800  1
  F  F5  1  0.31291500  0.18633900  0.40871200  1
  F  F6  1  0.18633900  0.31291500  0.90871200  1
  F  F7  1  0.81366100  0.68708500  0.09128800  1
  F  F8  1  0.54534800  0.12416100  0.77837100  1
  F  F9  1  0.45465200  0.87583900  0.22162900  1
  F  F10  1  0.87583900  0.45465200  0.72162900  1
  F  F11  1  0.12416100  0.54534800  0.27837100  1
  F  F12  1  0.60360900  0.38395400  0.65646900  1
  F  F13  1  0.39639100  0.61604600  0.34353100  1
  F  F14  1  0.61604600  0.39639100  0.84353100  1
  F  F15  1  0.38395400  0.60360900  0.15646900  1
  F  F16  1  0.34726600  0.89663800  0.70120300  1
  F  F17  1  0.65273400  0.10336200  0.29879700  1
  F  F18  1  0.10336200  0.65273400  0.79879700  1
  F  F19  1  0.89663800  0.34726600  0.20120300  1
  F  F20  1  0.66237300  0.06825700  0.95150100  1
  F  F21  1  0.33762700  0.93174300  0.04849900  1
  F  F22  1  0.93174300  0.33762700  0.54849900  1
  F  F23  1  0.06825700  0.66237300  0.45150100  1
  F  F24  1  0.84245200  0.03202900  0.12865100  1
  F  F25  1  0.15754800  0.96797100  0.87134900  1
  F  F26  1  0.96797100  0.15754800  0.37134900  1
  F  F27  1  0.03202900  0.84245200  0.62865100  1
loop_
_geom_bond_atom_site_label_1
_geom_bond_atom_site_label_2
_geom_bond_distance
_geom_bond_site_symmetry_2
Ba0 F25 2.686351 1_555
Ba0 F10 2.769485 1_555
Ba0 F14 2.785519 1_555
Ba0 F6 2.803929 1_655
Ba0 F3 2.817902 1_556
Ba0 F8 2.868789 1_565
Ba0 F20 2.922220 1_565
Ba0 F6 3.032817 1_565
Ba0 F21 3.062718 1_556
Ba0 F16 3.142405 1_555
Ba0 F18 3.254509 1_655
Ba1 F24 2.686351 1_555
Ba1 F11 2.769485 1_555
Ba1 F15 2.785519 1_555
Ba1 F7 2.803929 1_455
Ba1 F2 2.817902 1_554
Ba1 F9 2.868789 1_545
Ba1 F21 2.922220 1_545
Ba1 F7 3.032817 1_545
Ba1 F20 3.062718 1_554
Ba1 F17 3.142405 1_555
Ba1 F19 3.254509 1_455
Ba2 F27 2.686351 1_555
Ba2 F8 2.769485 1_555
Ba2 F12 2.785519 1_555
Ba2 F4 2.803929 1_545
Ba2 F1 2.817902 1_555
Ba2 F10 2.868789 1_455
Ba2 F22 2.922220 1_455
Ba2 F4 3.032817 1_455
Ba2 F23 3.062718 1_555
Ba2 F18 3.142405 1_555
Ba2 F16 3.254509 1_545
Ba3 F26 2.686351 1_555
Ba3 F9 2.769485 1_555
Ba3 F13 2.785519 1_555
Ba3 F5 2.803929 1_565
Ba3 F0 2.817902 1_555
Ba3 F11 2.868789 1_655
Ba3 F23 2.922220 1_655
Ba3 F5 3.032817 1_655
Ba3 F22 3.062718 1_555
Ba3 F19 3.142405 1_555
Ba3 F17 3.254509 1_565
Cr0 F6 1.917476 1_555
Cr0 F18 1.942344 1_555
Cr0 F2 1.949323 1_555
Cr0 F14 1.959178 1_555
Cr0 F8 1.961809 1_555
Cr0 F20 1.970691 1_555
Cr1 F7 1.917476 1_555
Cr1 F19 1.942344 1_555
Cr1 F3 1.949323 1_555
Cr1 F15 1.959178 1_555
Cr1 F9 1.961809 1_555
Cr1 F21 1.970691 1_555
Cr2 F4 1.917476 1_555
Cr2 F16 1.942344 1_555
Cr2 F0 1.949323 1_555
Cr2 F12 1.959178 1_555
Cr2 F10 1.961809 1_555
Cr2 F22 1.970691 1_555
Cr3 F5 1.917476 1_555
Cr3 F17 1.942344 1_555
Cr3 F1 1.949323 1_555
Cr3 F13 1.959178 1_555
Cr3 F11 1.961809 1_555
Cr3 F23 1.970691 1_555
Cd0 F26 2.201084 1_455
Cd0 F27 2.201084 1_545
Cd0 F0 2.244754 1_545
Cd0 F1 2.244754 1_455
Cd0 F22 2.351331 1_455
Cd0 F23 2.351331 1_545
Cd1 F24 2.201084 1_455
Cd1 F25 2.201084 1_544
Cd1 F3 2.244754 1_455
Cd1 F2 2.244754 1_544
Cd1 F21 2.351331 1_545
Cd1 F20 2.351331 1_454
Cd2 F25 2.221498 1_645
Cd2 F27 2.221498 1_645
Cd2 F14 2.365792 1_555
Cd2 F12 2.365792 1_555
Cd2 F16 2.391729 1_645
Cd2 F18 2.391729 1_645
Cd3 F26 2.221498 1_465
Cd3 F24 2.221498 1_465
Cd3 F15 2.365792 1_555
Cd3 F13 2.365792 1_555
Cd3 F19 2.391729 1_465
Cd3 F17 2.391729 1_465
