# generated using pymatgen
data_BiSeO6
_symmetry_space_group_name_H-M   'P 1'
_cell_length_a   6.18918504
_cell_length_b   6.57290313
_cell_length_c   15.36028000
_cell_angle_alpha   90.00000000
_cell_angle_beta   90.00000000
_cell_angle_gamma   113.06851499
_symmetry_Int_Tables_number   1
_chemical_formula_structural   BiSeO6
_chemical_formula_sum   'Bi4 Se4 O24'
_cell_volume   574.90369924
_cell_formula_units_Z   4
loop_
 _symmetry_equiv_pos_site_id
 _symmetry_equiv_pos_as_xyz
  1  'x, y, z'
loop_
 _atom_site_type_symbol
 _atom_site_label
 _atom_site_symmetry_multiplicity
 _atom_site_fract_x
 _atom_site_fract_y
 _atom_site_fract_z
 _atom_site_occupancy
  Bi  Bi0  1  0.25005000  0.86078100  0.66428400  1
  Bi  Bi1  1  0.75005000  0.36078100  0.83571600  1
  Bi  Bi2  1  0.74995000  0.13921900  0.33571600  1
  Bi  Bi3  1  0.24995000  0.63921900  0.16428400  1
  Se  Se0  1  0.32545600  0.40705500  0.66005500  1
  Se  Se1  1  0.82545600  0.90705500  0.83994500  1
  Se  Se2  1  0.67454400  0.59294500  0.33994500  1
  Se  Se3  1  0.17454400  0.09294500  0.16005500  1
  O  O0  1  0.16158300  0.16924000  0.60970400  1
  O  O1  1  0.66158300  0.66924000  0.89029600  1
  O  O2  1  0.83841700  0.83076000  0.39029600  1
  O  O3  1  0.33841700  0.33076000  0.10970400  1
  O  O4  1  0.44421000  0.62706400  0.59558600  1
  O  O5  1  0.94421000  0.12706400  0.90441400  1
  O  O6  1  0.55579000  0.37293600  0.40441400  1
  O  O7  1  0.05579000  0.87293600  0.09558600  1
  O  O8  1  0.16616400  0.48811300  0.73143700  1
  O  O9  1  0.66616400  0.98811300  0.76856300  1
  O  O10  1  0.83383600  0.51188700  0.26856300  1
  O  O11  1  0.33383600  0.01188700  0.23143700  1
  O  O12  1  0.53430300  0.34463200  0.71107900  1
  O  O13  1  0.03430300  0.84463200  0.78892100  1
  O  O14  1  0.46569700  0.65536800  0.28892100  1
  O  O15  1  0.96569700  0.15536800  0.21107900  1
  O  O16  1  0.97574500  0.66915200  0.57866100  1
  O  O17  1  0.47574500  0.16915200  0.92133900  1
  O  O18  1  0.02425500  0.33084800  0.42133900  1
  O  O19  1  0.52425500  0.83084800  0.07866100  1
  O  O20  1  0.40558000  0.95540300  0.47966200  1
  O  O21  1  0.90558000  0.45540300  0.02033800  1
  O  O22  1  0.59442000  0.04459700  0.52033800  1
  O  O23  1  0.09442000  0.54459700  0.97966200  1
loop_
_geom_bond_atom_site_label_1
_geom_bond_atom_site_label_2
_geom_bond_distance
_geom_bond_site_symmetry_2
Bi0 O16 2.126668 1_455
Bi0 O13 2.312654 1_555
Bi0 O0 2.446069 1_565
Bi0 O8 2.517340 1_555
Bi0 O4 2.522724 1_555
Bi1 O17 2.126668 1_555
Bi1 O12 2.312654 1_555
Bi1 O1 2.446069 1_555
Bi1 O9 2.517340 1_545
Bi1 O5 2.522724 1_555
Bi2 O18 2.126668 1_655
Bi2 O15 2.312654 1_555
Bi2 O2 2.446069 1_545
Bi2 O10 2.517340 1_555
Bi2 O6 2.522724 1_555
Bi3 O19 2.126668 1_555
Bi3 O14 2.312654 1_555
Bi3 O3 2.446069 1_555
Bi3 O11 2.517340 1_565
Bi3 O7 2.522724 1_555
O0 Se0 1.681611 1_555
O1 Se1 1.681611 1_555
O2 Se2 1.681611 1_555
O3 Se3 1.681611 1_555
O4 Se0 1.667063 1_555
O5 Se1 1.667063 1_545
O6 Se2 1.667063 1_555
O7 Se3 1.667063 1_565
O8 Se0 1.694009 1_555
O9 Se1 1.694009 1_555
O10 Se2 1.694009 1_555
O11 Se3 1.694009 1_555
O12 Se0 1.693816 1_555
O13 Se1 1.693816 1_455
O14 Se2 1.693816 1_555
O15 Se3 1.693816 1_655
O20 O22 1.250247 1_565
O21 O23 1.250247 1_654
