# generated using pymatgen
data_Ca11(RuN5)2
_symmetry_space_group_name_H-M   'P 1'
_cell_length_a   15.19214100
_cell_length_b   15.19214100
_cell_length_c   3.59841200
_cell_angle_alpha   90.00000000
_cell_angle_beta   90.00000000
_cell_angle_gamma   90.00000000
_symmetry_Int_Tables_number   1
_chemical_formula_structural   Ca11(RuN5)2
_chemical_formula_sum   'Ca22 Ru4 N20'
_cell_volume   830.51762117
_cell_formula_units_Z   2
loop_
 _symmetry_equiv_pos_site_id
 _symmetry_equiv_pos_as_xyz
  1  'x, y, z'
loop_
 _atom_site_type_symbol
 _atom_site_label
 _atom_site_symmetry_multiplicity
 _atom_site_fract_x
 _atom_site_fract_y
 _atom_site_fract_z
 _atom_site_occupancy
  Ca  Ca0  1  0.50000000  0.50000000  0.50000000  1
  Ca  Ca1  1  0.00000000  0.00000000  0.00000000  1
  Ca  Ca2  1  0.98482900  0.78283100  0.50000000  1
  Ca  Ca3  1  0.01517100  0.21716900  0.50000000  1
  Ca  Ca4  1  0.51517100  0.28283100  0.00000000  1
  Ca  Ca5  1  0.48482900  0.71716900  0.00000000  1
  Ca  Ca6  1  0.78283100  0.98482900  0.50000000  1
  Ca  Ca7  1  0.21716900  0.01517100  0.50000000  1
  Ca  Ca8  1  0.28283100  0.51517100  0.00000000  1
  Ca  Ca9  1  0.71716900  0.48482900  0.00000000  1
  Ca  Ca10  1  0.69851600  0.69851600  0.50000000  1
  Ca  Ca11  1  0.30148400  0.30148400  0.50000000  1
  Ca  Ca12  1  0.80148400  0.19851600  0.00000000  1
  Ca  Ca13  1  0.19851600  0.80148400  0.00000000  1
  Ca  Ca14  1  0.39076900  0.89029000  0.50000000  1
  Ca  Ca15  1  0.60923100  0.10971000  0.50000000  1
  Ca  Ca16  1  0.10923100  0.39029000  0.00000000  1
  Ca  Ca17  1  0.89076900  0.60971000  0.00000000  1
  Ca  Ca18  1  0.89029000  0.39076900  0.50000000  1
  Ca  Ca19  1  0.10971000  0.60923100  0.50000000  1
  Ca  Ca20  1  0.39029000  0.10923100  0.00000000  1
  Ca  Ca21  1  0.60971000  0.89076900  0.00000000  1
  Ru  Ru0  1  0.30945900  0.69054100  0.50000000  1
  Ru  Ru1  1  0.69054100  0.30945900  0.50000000  1
  Ru  Ru2  1  0.19054100  0.19054100  0.00000000  1
  Ru  Ru3  1  0.80945900  0.80945900  0.00000000  1
  N  N0  1  0.13278400  0.86721600  0.50000000  1
  N  N1  1  0.86721600  0.13278400  0.50000000  1
  N  N2  1  0.36721600  0.36721600  0.00000000  1
  N  N3  1  0.63278400  0.63278400  0.00000000  1
  N  N4  1  0.46430600  0.18457200  0.50000000  1
  N  N5  1  0.53569400  0.81542800  0.50000000  1
  N  N6  1  0.03569400  0.68457200  0.00000000  1
  N  N7  1  0.96430600  0.31542800  0.00000000  1
  N  N8  1  0.18457200  0.46430600  0.50000000  1
  N  N9  1  0.81542800  0.53569400  0.50000000  1
  N  N10  1  0.68457200  0.03569400  0.00000000  1
  N  N11  1  0.31542800  0.96430600  0.00000000  1
  N  N12  1  0.07366600  0.92633400  0.50000000  1
  N  N13  1  0.92633400  0.07366600  0.50000000  1
  N  N14  1  0.42633300  0.42633300  0.00000000  1
  N  N15  1  0.57366600  0.57366600  0.00000000  1
  N  N16  1  0.60936900  0.39063100  0.50000000  1
  N  N17  1  0.39063100  0.60936900  0.50000000  1
  N  N18  1  0.89063100  0.89063100  0.00000000  1
  N  N19  1  0.10936900  0.10936900  0.00000000  1
loop_
_geom_bond_atom_site_label_1
_geom_bond_atom_site_label_2
_geom_bond_distance
_geom_bond_site_symmetry_2
Ca0 N16 2.349786 1_555
Ca0 N17 2.349786 1_555
Ca0 N15 2.396270 1_556
Ca0 N15 2.396270 1_555
Ca0 N14 2.396284 1_555
Ca0 N14 2.396284 1_556
Ca1 N19 2.349786 1_555
Ca1 N18 2.349786 1_445
Ca1 N13 2.396270 1_455
Ca1 N13 2.396270 1_454
Ca1 N12 2.396270 1_544
Ca1 N12 2.396270 1_545
Ca2 N6 2.462240 1_655
Ca2 N6 2.462240 1_656
Ca2 N12 2.564059 1_655
Ca2 N0 2.587642 1_655
Ca2 N18 2.822624 1_555
Ca2 N18 2.822624 1_556
Ca3 N7 2.462240 1_455
Ca3 N7 2.462240 1_456
Ca3 N13 2.564059 1_455
Ca3 N1 2.587642 1_455
Ca3 N19 2.822624 1_555
Ca3 N19 2.822624 1_556
Ca4 N4 2.462240 1_555
Ca4 N4 2.462240 1_554
Ca4 N14 2.564054 1_555
Ca4 N2 2.587642 1_555
Ca4 N16 2.822624 1_554
Ca4 N16 2.822624 1_555
Ca5 N5 2.462240 1_554
Ca5 N5 2.462240 1_555
Ca5 N15 2.564059 1_555
Ca5 N3 2.587642 1_555
Ca5 N17 2.822624 1_555
Ca5 N17 2.822624 1_554
Ca6 N10 2.462240 1_565
Ca6 N10 2.462240 1_566
Ca6 N13 2.564059 1_565
Ca6 N1 2.587642 1_565
Ca6 N18 2.822624 1_556
Ca6 N18 2.822624 1_555
Ca7 N11 2.462240 1_545
Ca7 N11 2.462240 1_546
Ca7 N12 2.564059 1_545
Ca7 N0 2.587642 1_545
Ca7 N19 2.822624 1_555
Ca7 N19 2.822624 1_556
Ca8 N8 2.462240 1_555
Ca8 N8 2.462240 1_554
Ca8 N14 2.564054 1_555
Ca8 N2 2.587642 1_555
Ca8 N17 2.822624 1_555
Ca8 N17 2.822624 1_554
Ca9 N9 2.462240 1_554
Ca9 N9 2.462240 1_555
Ca9 N15 2.564059 1_555
Ca9 N3 2.587642 1_555
Ca9 N16 2.822624 1_554
Ca9 N16 2.822624 1_555
Ca10 N3 2.287266 1_555
Ca10 N3 2.287266 1_556
Ca10 Ru3 2.986420 1_555
Ca10 Ru3 2.986420 1_556
Ca10 N5 3.045235 1_555
Ca10 N9 3.045235 1_555
Ca11 N2 2.287266 1_556
Ca11 N2 2.287266 1_555
Ca11 Ru2 2.986420 1_555
Ca11 Ru2 2.986420 1_556
Ca11 N4 3.045235 1_555
Ca11 N8 3.045235 1_555
Ca12 N1 2.287266 1_555
Ca12 N1 2.287266 1_554
Ca12 Ru1 2.986420 1_555
Ca12 Ru1 2.986420 1_554
Ca12 N10 3.045235 1_555
Ca12 N7 3.045235 1_555
Ca13 N0 2.287266 1_554
Ca13 N0 2.287266 1_555
Ca13 Ru0 2.986420 1_555
Ca13 Ru0 2.986420 1_554
Ca13 N6 3.045235 1_555
Ca13 N11 3.045235 1_555
Ca14 N11 2.410735 1_555
Ca14 N11 2.410735 1_556
Ca14 N5 2.478116 1_555
Ca15 N10 2.410735 1_555
Ca15 N10 2.410735 1_556
Ca15 N4 2.478116 1_555
Ca16 N8 2.410735 1_554
Ca16 N8 2.410735 1_555
Ca16 N7 2.478116 1_455
Ca17 N9 2.410735 1_555
Ca17 N9 2.410735 1_554
Ca17 N6 2.478116 1_655
Ca18 N7 2.410735 1_556
Ca18 N7 2.410735 1_555
Ca18 N9 2.478116 1_555
Ca19 N6 2.410735 1_555
Ca19 N6 2.410735 1_556
Ca19 N8 2.478116 1_555
Ca20 N4 2.410735 1_555
Ca20 N4 2.410735 1_554
Ca20 N11 2.478116 1_545
Ca21 N5 2.410735 1_554
Ca21 N5 2.410735 1_555
Ca21 N10 2.478116 1_565
N0 N12 1.270146 1_555
N1 N13 1.270146 1_555
N14 N2 1.270125 1_555
N15 N3 1.270146 1_555
N16 Ru1 1.743975 1_555
N17 Ru0 1.743975 1_555
N18 Ru3 1.743975 1_555
N19 Ru2 1.743975 1_555
