# generated using pymatgen
data_In4Se3N2
_symmetry_space_group_name_H-M   'P 1'
_cell_length_a   6.60507517
_cell_length_b   11.92275652
_cell_length_c   11.00935081
_cell_angle_alpha   90.00000000
_cell_angle_beta   90.00000000
_cell_angle_gamma   90.00000000
_symmetry_Int_Tables_number   1
_chemical_formula_structural   In4Se3N2
_chemical_formula_sum   'In16 Se12 N8'
_cell_volume   866.99411639
_cell_formula_units_Z   4
loop_
 _symmetry_equiv_pos_site_id
 _symmetry_equiv_pos_as_xyz
  1  'x, y, z'
loop_
 _atom_site_type_symbol
 _atom_site_label
 _atom_site_symmetry_multiplicity
 _atom_site_fract_x
 _atom_site_fract_y
 _atom_site_fract_z
 _atom_site_occupancy
  In  In0  1  0.76708007  0.25000000  0.95010644  1
  In  In1  1  0.26708007  0.25000000  0.54989356  1
  In  In2  1  0.23291993  0.75000000  0.04989356  1
  In  In3  1  0.73291993  0.75000000  0.45010644  1
  In  In4  1  0.88411211  0.25000000  0.37888978  1
  In  In5  1  0.38411211  0.25000000  0.12111022  1
  In  In6  1  0.11588789  0.75000000  0.62111022  1
  In  In7  1  0.61588789  0.75000000  0.87888978  1
  In  In8  1  0.63724346  0.52960318  0.11344451  1
  In  In9  1  0.13724346  0.97039682  0.38655549  1
  In  In10  1  0.36275654  0.02960318  0.88655549  1
  In  In11  1  0.86275654  0.47039682  0.61344451  1
  In  In12  1  0.36275654  0.47039682  0.88655549  1
  In  In13  1  0.86275654  0.02960318  0.61344451  1
  In  In14  1  0.63724346  0.97039682  0.11344451  1
  In  In15  1  0.13724346  0.52960318  0.38655549  1
  Se  Se0  1  0.99935109  0.25000000  0.15025583  1
  Se  Se1  1  0.49935109  0.25000000  0.34974417  1
  Se  Se2  1  0.00064891  0.75000000  0.84974417  1
  Se  Se3  1  0.50064891  0.75000000  0.65025583  1
  Se  Se4  1  0.53139292  0.56719021  0.34515352  1
  Se  Se5  1  0.03139292  0.93280979  0.15484648  1
  Se  Se6  1  0.46860708  0.06719021  0.65484648  1
  Se  Se7  1  0.96860708  0.43280979  0.84515352  1
  Se  Se8  1  0.46860708  0.43280979  0.65484648  1
  Se  Se9  1  0.96860708  0.06719021  0.84515352  1
  Se  Se10  1  0.53139292  0.93280979  0.34515352  1
  Se  Se11  1  0.03139292  0.56719021  0.15484648  1
  N  N0  1  0.45894599  0.62350613  0.98092612  1
  N  N1  1  0.95894599  0.87649387  0.51907388  1
  N  N2  1  0.54105401  0.12350613  0.01907388  1
  N  N3  1  0.04105401  0.37649387  0.48092612  1
  N  N4  1  0.54105401  0.37649387  0.01907388  1
  N  N5  1  0.04105401  0.12350613  0.48092612  1
  N  N6  1  0.45894599  0.87649387  0.98092612  1
  N  N7  1  0.95894599  0.62350613  0.51907388  1
loop_
_geom_bond_atom_site_label_1
_geom_bond_atom_site_label_2
_geom_bond_distance
_geom_bond_site_symmetry_2
In0 N2 2.253854 1_556
In0 N4 2.253854 1_556
In0 Se0 2.684986 1_556
In0 Se9 2.803135 1_555
In0 Se7 2.803135 1_555
In1 N5 2.253854 1_555
In1 N3 2.253854 1_555
In1 Se1 2.684986 1_555
In1 Se8 2.803135 1_555
In1 Se6 2.803135 1_555
In2 N6 2.253854 1_554
In2 N0 2.253854 1_554
In2 Se2 2.684986 1_554
In2 Se5 2.803135 1_555
In2 Se11 2.803135 1_555
In3 N7 2.253854 1_555
In3 N1 2.253854 1_555
In3 Se3 2.684986 1_555
In3 Se4 2.803135 1_555
In3 Se10 2.803135 1_555
In4 N3 2.147329 1_655
In4 N5 2.147329 1_655
In4 Se1 2.561552 1_555
In4 Se0 2.629680 1_555
In5 N4 2.147329 1_555
In5 N2 2.147329 1_555
In5 Se0 2.561552 1_455
In5 Se1 2.629680 1_555
In6 N1 2.147329 1_455
In6 N7 2.147329 1_455
In6 Se3 2.561552 1_555
In6 Se2 2.629680 1_555
In7 N6 2.147329 1_555
In7 N0 2.147329 1_555
In7 Se2 2.561552 1_655
In7 Se3 2.629680 1_555
In8 N0 2.183776 1_554
In8 N4 2.194422 1_555
In8 Se11 2.680712 1_655
In8 Se4 2.682735 1_555
In9 N1 2.183776 1_455
In9 N5 2.194422 1_565
In9 Se10 2.680712 1_555
In9 Se5 2.682735 1_555
In10 N2 2.183776 1_556
In10 N6 2.194422 1_545
In10 Se9 2.680712 1_455
In10 Se6 2.682735 1_555
In11 N3 2.183776 1_655
In11 N7 2.194422 1_555
In11 Se8 2.680712 1_555
In11 Se7 2.682735 1_555
In12 N4 2.183776 1_556
In12 N0 2.194422 1_555
In12 Se7 2.680712 1_455
In12 Se8 2.682735 1_555
In13 N5 2.183776 1_655
In13 N1 2.194422 1_545
In13 Se6 2.680712 1_555
In13 Se9 2.682735 1_555
In14 N6 2.183776 1_554
In14 N2 2.194422 1_565
In14 Se5 2.680712 1_655
In14 Se10 2.682735 1_555
In15 N7 2.183776 1_455
In15 N3 2.194422 1_555
In15 Se4 2.680712 1_555
In15 Se11 2.682735 1_555
