# generated using pymatgen
data_CeNi2
_symmetry_space_group_name_H-M   'P 1'
_cell_length_a   5.03572647
_cell_length_b   5.03574946
_cell_length_c   5.03573746
_cell_angle_alpha   59.99971597
_cell_angle_beta   59.99966502
_cell_angle_gamma   59.99972315
_symmetry_Int_Tables_number   1
_chemical_formula_structural   CeNi2
_chemical_formula_sum   'Ce2 Ni4'
_cell_volume   90.29659800
_cell_formula_units_Z   2
loop_
 _symmetry_equiv_pos_site_id
 _symmetry_equiv_pos_as_xyz
  1  'x, y, z'
loop_
 _atom_site_type_symbol
 _atom_site_label
 _atom_site_symmetry_multiplicity
 _atom_site_fract_x
 _atom_site_fract_y
 _atom_site_fract_z
 _atom_site_occupancy
  Ce  Ce0  1  0.12500000  0.12499900  0.12500000  1
  Ce  Ce1  1  0.87499900  0.87500100  0.87500000  1
  Ni  Ni0  1  0.50000025  -0.00000174  0.50000025  1
  Ni  Ni1  1  -0.00000174  0.50000025  0.50000025  1
  Ni  Ni2  1  0.50000025  0.50000025  0.50000025  1
  Ni  Ni3  1  0.50000025  0.50000025  -0.00000174  1
loop_
_geom_bond_atom_site_label_1
_geom_bond_atom_site_label_2
_geom_bond_distance
_geom_bond_site_symmetry_2
Ce0 Ni0 2.952449 1_455
Ce0 Ni2 2.952451 1_455
Ce0 Ni2 2.952452 1_545
Ce0 Ni2 2.952452 1_554
Ce0 Ni3 2.952453 1_455
Ce0 Ni0 2.952455 1_554
Ce0 Ni1 2.952458 1_554
Ce0 Ni1 2.952459 1_545
Ce0 Ni3 2.952460 1_545
Ce0 Ni0 2.952462 1_555
Ce0 Ni3 2.952467 1_555
Ce0 Ni1 2.952471 1_555
Ce1 Ni0 2.952448 1_665
Ce1 Ni2 2.952448 1_565
Ce1 Ni2 2.952449 1_556
Ce1 Ni0 2.952450 1_566
Ce1 Ni3 2.952452 1_656
Ce1 Ni2 2.952452 1_655
Ce1 Ni3 2.952455 1_566
Ce1 Ni1 2.952455 1_656
Ce1 Ni1 2.952456 1_665
Ce1 Ni0 2.952461 1_565
Ce1 Ni3 2.952466 1_556
Ce1 Ni1 2.952472 1_655
Ni0 Ni1 2.517848 1_645
Ni0 Ni3 2.517851 1_546
Ni0 Ni2 2.517865 1_545
Ni0 Ni1 2.517868 1_555
Ni0 Ni3 2.517871 1_555
Ni0 Ni2 2.517885 1_555
Ni1 Ni3 2.517843 1_456
Ni1 Ni2 2.517853 1_455
Ni1 Ni3 2.517863 1_555
Ni1 Ni2 2.517873 1_555
Ni2 Ni3 2.517859 1_556
Ni2 Ni3 2.517879 1_555
