# generated using pymatgen
data_Li10Ni4O9
_symmetry_space_group_name_H-M   'P 1'
_cell_length_a   9.81297952
_cell_length_b   9.81297952
_cell_length_c   4.68061366
_cell_angle_alpha   90.00000000
_cell_angle_beta   90.00000000
_cell_angle_gamma   90.00000000
_symmetry_Int_Tables_number   1
_chemical_formula_structural   Li10Ni4O9
_chemical_formula_sum   'Li20 Ni8 O18'
_cell_volume   450.71766596
_cell_formula_units_Z   2
loop_
 _symmetry_equiv_pos_site_id
 _symmetry_equiv_pos_as_xyz
  1  'x, y, z'
loop_
 _atom_site_type_symbol
 _atom_site_label
 _atom_site_symmetry_multiplicity
 _atom_site_fract_x
 _atom_site_fract_y
 _atom_site_fract_z
 _atom_site_occupancy
  Li  Li0  1  0.75000100  0.75000100  0.09463762  1
  Li  Li1  1  0.25000100  0.25000100  0.90536438  1
  Li  Li2  1  0.25000100  0.25000100  0.40536338  1
  Li  Li3  1  0.75000100  0.75000100  0.59463662  1
  Li  Li4  1  0.89419529  0.93726398  0.04409509  1
  Li  Li5  1  0.60580271  0.56273602  0.04409509  1
  Li  Li6  1  0.39419629  0.06273502  0.95590691  1
  Li  Li7  1  0.10580371  0.43726398  0.95590691  1
  Li  Li8  1  0.06273502  0.10580371  0.45590791  1
  Li  Li9  1  0.43726398  0.39419629  0.45590791  1
  Li  Li10  1  0.93726398  0.60580271  0.54409409  1
  Li  Li11  1  0.56273602  0.89419529  0.54409409  1
  Li  Li12  1  0.10580371  0.06273502  0.95590691  1
  Li  Li13  1  0.39419629  0.43726398  0.95590691  1
  Li  Li14  1  0.60580271  0.93726398  0.04409509  1
  Li  Li15  1  0.89419529  0.56273602  0.04409509  1
  Li  Li16  1  0.93726398  0.89419529  0.54409409  1
  Li  Li17  1  0.56273602  0.60580271  0.54409409  1
  Li  Li18  1  0.06273502  0.39419629  0.45590791  1
  Li  Li19  1  0.43726398  0.10580371  0.45590791  1
  Ni  Ni0  1  0.08904655  0.75000100  0.02382660  1
  Ni  Ni1  1  0.41095345  0.75000100  0.02382660  1
  Ni  Ni2  1  0.58904655  0.25000100  0.97617140  1
  Ni  Ni3  1  0.91095345  0.25000100  0.97617140  1
  Ni  Ni4  1  0.25000100  0.91095345  0.47617240  1
  Ni  Ni5  1  0.25000100  0.58904655  0.47617240  1
  Ni  Ni6  1  0.75000100  0.41095345  0.52382760  1
  Ni  Ni7  1  0.75000100  0.08904655  0.52382760  1
  O  O0  1  0.07626822  0.92373078  0.24999800  1
  O  O1  1  0.42372978  0.57626822  0.24999800  1
  O  O2  1  0.57626822  0.07626822  0.75000200  1
  O  O3  1  0.92373078  0.42372978  0.75000200  1
  O  O4  1  0.92373078  0.07626822  0.75000200  1
  O  O5  1  0.57626822  0.42372978  0.75000200  1
  O  O6  1  0.42372978  0.92373078  0.24999800  1
  O  O7  1  0.07626822  0.57626822  0.24999800  1
  O  O8  1  0.75000100  0.25000100  0.24999800  1
  O  O9  1  0.25000100  0.75000100  0.75000200  1
  O  O10  1  0.09203392  0.25000100  0.16758368  1
  O  O11  1  0.40796508  0.25000100  0.16758368  1
  O  O12  1  0.59203392  0.75000100  0.83241632  1
  O  O13  1  0.90796608  0.75000100  0.83241632  1
  O  O14  1  0.75000100  0.90796608  0.33241732  1
  O  O15  1  0.75000100  0.59203392  0.33241732  1
  O  O16  1  0.25000100  0.40796508  0.66758268  1
  O  O17  1  0.25000100  0.09203392  0.66758268  1
loop_
_geom_bond_atom_site_label_1
_geom_bond_atom_site_label_2
_geom_bond_distance
_geom_bond_site_symmetry_2
Li0 O14 1.908272 1_555
Li0 O15 1.908288 1_555
Li0 O13 1.977180 1_554
Li0 O12 1.977195 1_554
Li1 O16 1.908270 1_555
Li1 O17 1.908294 1_555
Li1 O11 1.977166 1_556
Li1 O10 1.977189 1_556
Li2 O11 1.908264 1_555
Li2 O10 1.908288 1_555
Li2 O16 1.977166 1_555
Li2 O17 1.977189 1_555
Li3 O13 1.908272 1_555
Li3 O12 1.908288 1_555
Li3 O14 1.977174 1_555
Li3 O15 1.977189 1_555
Li4 O4 1.959458 1_564
Li4 O14 1.976368 1_555
Li4 O0 2.034373 1_655
Li4 O13 2.092061 1_554
Li5 O5 1.959470 1_554
Li5 O15 1.976396 1_555
Li5 O1 2.034372 1_555
Li5 O12 2.092077 1_554
Li6 O6 1.959448 1_546
Li6 O17 1.976383 1_555
Li6 O2 2.034368 1_555
Li6 O11 2.092082 1_556
Li7 O7 1.959451 1_556
Li7 O16 1.976397 1_555
Li7 O3 2.034378 1_455
Li7 O10 2.092056 1_556
Li8 O4 1.959461 1_455
Li8 O10 1.976397 1_555
Li8 O0 2.034388 1_545
Li8 O17 2.092078 1_555
Li9 O5 1.959458 1_555
Li9 O11 1.976383 1_555
Li9 O1 2.034380 1_555
Li9 O16 2.092051 1_555
Li10 O7 1.959466 1_655
Li10 O13 1.976396 1_555
Li10 O3 2.034384 1_555
Li10 O15 2.092056 1_555
Li11 O6 1.959481 1_555
Li11 O12 1.976368 1_555
Li11 O2 2.034383 1_565
Li11 O14 2.092074 1_555
Li12 O0 1.959451 1_546
Li12 O17 1.976397 1_555
Li12 O4 2.034377 1_455
Li12 O10 2.092082 1_556
Li13 O1 1.959448 1_556
Li13 O16 1.976383 1_555
Li13 O5 2.034369 1_555
Li13 O11 2.092056 1_556
Li14 O2 1.959456 1_564
Li14 O14 1.976396 1_555
Li14 O6 2.034373 1_555
Li14 O12 2.092060 1_554
Li15 O3 1.959471 1_554
Li15 O15 1.976368 1_555
Li15 O7 2.034372 1_655
Li15 O13 2.092079 1_554
Li16 O0 1.959468 1_655
Li16 O13 1.976368 1_555
Li16 O4 2.034384 1_565
Li16 O14 2.092057 1_555
Li17 O1 1.959480 1_555
Li17 O12 1.976396 1_555
Li17 O5 2.034383 1_555
Li17 O15 2.092073 1_555
Li18 O3 1.959458 1_455
Li18 O10 1.976383 1_555
Li18 O7 2.034380 1_555
Li18 O16 2.092077 1_555
Li19 O2 1.959461 1_555
Li19 O11 1.976397 1_555
Li19 O6 2.034389 1_545
Li19 O17 2.092052 1_555
Ni0 O13 1.990020 1_454
Ni0 O0 2.010664 1_555
Ni0 O7 2.010689 1_555
Ni0 O9 2.034038 1_554
Ni1 O12 1.990020 1_554
Ni1 O6 2.010662 1_555
Ni1 O1 2.010687 1_555
Ni1 O9 2.034023 1_554
Ni2 O11 1.990033 1_556
Ni2 O5 2.010650 1_555
Ni2 O2 2.010684 1_555
Ni2 O8 2.034044 1_556
Ni3 O10 1.990024 1_656
Ni3 O3 2.010650 1_555
Ni3 O4 2.010683 1_555
Ni3 O8 2.034029 1_556
Ni4 O17 1.990020 1_565
Ni4 O6 2.010662 1_555
Ni4 O0 2.010695 1_555
Ni4 O9 2.034037 1_555
Ni5 O16 1.990029 1_555
Ni5 O1 2.010663 1_555
Ni5 O7 2.010696 1_555
Ni5 O9 2.034053 1_555
Ni6 O15 1.990020 1_555
Ni6 O3 2.010670 1_555
Ni6 O5 2.010695 1_555
Ni6 O8 2.034037 1_555
Ni7 O14 1.990020 1_545
Ni7 O4 2.010671 1_555
Ni7 O2 2.010696 1_555
Ni7 O8 2.034053 1_555
