# generated using pymatgen
data_Ba5In4Te4S7
_symmetry_space_group_name_H-M   'P 1'
_cell_length_a   20.39703509
_cell_length_b   20.39703509
_cell_length_c   20.39703509
_cell_angle_alpha   167.48533087
_cell_angle_beta   158.89842676
_cell_angle_gamma   24.60714215
_symmetry_Int_Tables_number   1
_chemical_formula_structural   Ba5In4Te4S7
_chemical_formula_sum   'Ba5 In4 Te4 S7'
_cell_volume   661.87821756
_cell_formula_units_Z   1
loop_
 _symmetry_equiv_pos_site_id
 _symmetry_equiv_pos_as_xyz
  1  'x, y, z'
loop_
 _atom_site_type_symbol
 _atom_site_label
 _atom_site_symmetry_multiplicity
 _atom_site_fract_x
 _atom_site_fract_y
 _atom_site_fract_z
 _atom_site_occupancy
  Ba  Ba0  1  0.34357700  0.50000000  0.84357700  1
  Ba  Ba1  1  0.17943900  0.68476800  0.49467100  1
  Ba  Ba2  1  0.80990300  0.31523200  0.49467100  1
  Ba  Ba3  1  0.60849400  0.61379400  0.99470100  1
  Ba  Ba4  1  0.38090700  0.38620600  0.99470100  1
  In  In0  1  0.90642200  0.05401500  0.85240700  1
  In  In1  1  0.79839100  0.94598500  0.85240700  1
  In  In2  1  0.67324200  0.19823700  0.47500500  1
  In  In3  1  0.27676800  0.80176300  0.47500500  1
  Te  Te0  1  0.08479200  0.58918600  0.49560600  1
  Te  Te1  1  0.90642000  0.41081400  0.49560600  1
  Te  Te2  1  0.65424200  0.74064700  0.91359500  1
  Te  Te3  1  0.17294900  0.25935300  0.91359500  1
  S  S0  1  0.02643700  0.00000000  0.02643700  1
  S  S1  1  0.57223000  0.05265700  0.51957300  1
  S  S2  1  0.46691600  0.94734300  0.51957300  1
  S  S3  1  0.39549700  0.15339100  0.24210500  1
  S  S4  1  0.08871400  0.84660900  0.24210500  1
  S  S5  1  0.88655600  0.15849100  0.72806500  1
  S  S6  1  0.56957300  0.84150900  0.72806500  1
loop_
_geom_bond_atom_site_label_1
_geom_bond_atom_site_label_2
_geom_bond_distance
_geom_bond_site_symmetry_2
Ba0 S0 3.248735 1_566
Ba0 S0 3.248735 1_555
Ba0 S2 3.327983 1_556
Ba0 S2 3.327983 1_545
Ba0 S1 3.327983 1_555
Ba0 S1 3.327983 1_566
Ba1 S3 3.149986 1_566
Ba1 S3 3.149989 1_555
Ba1 S5 3.163106 1_465
Ba1 S5 3.163106 1_454
Ba1 Te3 3.761183 1_565
Ba1 Te3 3.761186 1_554
Ba1 Te0 3.809630 1_555
Ba1 Te2 3.840883 1_555
Ba2 S4 3.149993 1_645
Ba2 S4 3.149993 1_656
Ba2 S6 3.163100 1_544
Ba2 S6 3.163103 1_555
Ba2 Te2 3.761170 1_544
Ba2 Te2 3.761170 1_555
Ba2 Te1 3.809630 1_555
Ba2 Te3 3.840875 1_655
Ba3 S1 3.303720 1_566
Ba3 S1 3.303723 1_555
Ba3 S3 3.315622 1_566
Ba3 S3 3.315628 1_555
Ba3 S5 3.339882 1_566
Ba3 S5 3.339885 1_555
Ba3 Te0 3.854931 1_555
Ba3 Te0 3.868015 1_656
Ba4 S2 3.303736 1_545
Ba4 S2 3.303736 1_556
Ba4 S4 3.315610 1_556
Ba4 S4 3.315610 1_545
Ba4 S6 3.339878 1_545
Ba4 S6 3.339881 1_556
Ba4 Te1 3.854939 1_455
Ba4 Te1 3.868016 1_556
In0 S1 2.486753 1_555
In0 S0 2.514909 1_656
In0 Te0 2.837546 1_656
In0 Te0 2.837546 1_645
In1 S2 2.486749 1_555
In1 S0 2.514928 1_666
In1 Te1 2.837535 1_566
In1 Te1 2.837539 1_555
In2 S5 2.466316 1_555
In2 S3 2.494263 1_555
In2 Te2 2.830211 1_544
In2 Te2 2.830211 1_555
In3 S6 2.466300 1_555
In3 S4 2.494280 1_555
In3 Te3 2.830197 1_565
In3 Te3 2.830201 1_554
