# generated using pymatgen
data_LiMg
_symmetry_space_group_name_H-M   'P 1'
_cell_length_a   11.80523231
_cell_length_b   11.80523231
_cell_length_c   10.71041339
_cell_angle_alpha   63.83838951
_cell_angle_beta   63.83838951
_cell_angle_gamma   30.32935172
_symmetry_Int_Tables_number   1
_chemical_formula_structural   LiMg
_chemical_formula_sum   'Li16 Mg16'
_cell_volume   670.49830647
_cell_formula_units_Z   16
loop_
 _symmetry_equiv_pos_site_id
 _symmetry_equiv_pos_as_xyz
  1  'x, y, z'
loop_
 _atom_site_type_symbol
 _atom_site_label
 _atom_site_symmetry_multiplicity
 _atom_site_fract_x
 _atom_site_fract_y
 _atom_site_fract_z
 _atom_site_occupancy
  Li  Li0_0  1  0.31259050  0.31259050  0.35420250  1
  Li  Li0_1  1  0.31259050  0.31259050  0.85420250  1
  Li  Li0_2  1  0.31259050  0.81259050  0.35420250  1
  Li  Li0_3  1  0.31259050  0.81259050  0.85420250  1
  Li  Li0_4  1  0.81259050  0.31259050  0.35420250  1
  Li  Li0_5  1  0.81259050  0.31259050  0.85420250  1
  Li  Li0_6  1  0.81259050  0.81259050  0.35420250  1
  Li  Li0_7  1  0.81259050  0.81259050  0.85420250  1
  Li  Li1_0  1  0.18740950  0.18740950  0.14579750  1
  Li  Li1_1  1  0.18740950  0.18740950  0.64579750  1
  Li  Li1_2  1  0.18740950  0.68740950  0.14579750  1
  Li  Li1_3  1  0.18740950  0.68740950  0.64579750  1
  Li  Li1_4  1  0.68740950  0.18740950  0.14579750  1
  Li  Li1_5  1  0.68740950  0.18740950  0.64579750  1
  Li  Li1_6  1  0.68740950  0.68740950  0.14579750  1
  Li  Li1_7  1  0.68740950  0.68740950  0.64579750  1
  Mg  Mg0_0  1  0.43816150  0.43816150  0.39674150  1
  Mg  Mg0_1  1  0.43816150  0.43816150  0.89674150  1
  Mg  Mg0_2  1  0.43816150  0.93816150  0.39674150  1
  Mg  Mg0_3  1  0.43816150  0.93816150  0.89674150  1
  Mg  Mg0_4  1  0.93816150  0.43816150  0.39674150  1
  Mg  Mg0_5  1  0.93816150  0.43816150  0.89674150  1
  Mg  Mg0_6  1  0.93816150  0.93816150  0.39674150  1
  Mg  Mg0_7  1  0.93816150  0.93816150  0.89674150  1
  Mg  Mg1_0  1  0.06183850  0.06183850  0.10325850  1
  Mg  Mg1_1  1  0.06183850  0.06183850  0.60325850  1
  Mg  Mg1_2  1  0.06183850  0.56183850  0.10325850  1
  Mg  Mg1_3  1  0.06183850  0.56183850  0.60325850  1
  Mg  Mg1_4  1  0.56183850  0.06183850  0.10325850  1
  Mg  Mg1_5  1  0.56183850  0.06183850  0.60325850  1
  Mg  Mg1_6  1  0.56183850  0.56183850  0.10325850  1
  Mg  Mg1_7  1  0.56183850  0.56183850  0.60325850  1
loop_
_geom_bond_atom_site_label_1
_geom_bond_atom_site_label_2
_geom_bond_distance
_geom_bond_site_symmetry_2
Li0_0 Mg0_2 3.074361 1_545
Li0_0 Mg0_4 3.074361 1_455
Li0_0 Mg1_5 3.075429 1_555
Li0_0 Mg1_3 3.075429 1_555
Li0_0 Li0_6 3.088180 1_455
Li0_0 Li0_6 3.088180 1_545
Li0_0 Mg0_0 3.096318 1_555
Li0_0 Mg1_2 3.106508 1_555
Li0_0 Mg1_4 3.106508 1_555
Li0_0 Li1_2 3.107502 1_555
Li0_0 Li1_4 3.107502 1_555
Li0_0 Li1_1 3.122793 1_555
Li0_1 Mg0_3 3.074361 1_545
Li0_1 Mg0_5 3.074361 1_455
Li0_1 Mg1_2 3.075429 1_556
Li0_1 Mg1_4 3.075429 1_556
Li0_1 Li0_7 3.088180 1_455
Li0_1 Li0_7 3.088180 1_545
Li0_1 Mg0_1 3.096318 1_555
Li0_1 Mg1_3 3.106508 1_555
Li0_1 Mg1_5 3.106508 1_555
Li0_1 Li1_5 3.107502 1_555
Li0_1 Li1_3 3.107502 1_555
Li0_1 Li1_0 3.122793 1_556
Li0_2 Mg0_0 3.074361 1_555
Li0_2 Mg0_6 3.074361 1_455
Li0_2 Mg1_1 3.075429 1_565
Li0_2 Mg1_7 3.075429 1_555
Li0_2 Li0_4 3.088180 1_465
Li0_2 Li0_4 3.088180 1_555
Li0_2 Mg0_2 3.096318 1_555
Li0_2 Mg1_6 3.106508 1_555
Li0_2 Mg1_0 3.106508 1_565
Li0_2 Li1_6 3.107502 1_555
Li0_2 Li1_0 3.107502 1_565
Li0_2 Li1_3 3.122793 1_555
Li0_3 Mg0_1 3.074361 1_555
Li0_3 Mg0_7 3.074361 1_455
Li0_3 Mg1_0 3.075429 1_566
Li0_3 Mg1_6 3.075429 1_556
Li0_3 Li0_5 3.088180 1_555
Li0_3 Li0_5 3.088180 1_465
Li0_3 Mg0_3 3.096318 1_555
Li0_3 Mg1_7 3.106508 1_555
Li0_3 Mg1_1 3.106508 1_565
Li0_3 Li1_1 3.107502 1_565
Li0_3 Li1_7 3.107502 1_555
Li0_3 Li1_2 3.122793 1_556
Li0_4 Mg0_0 3.074361 1_555
Li0_4 Mg0_6 3.074361 1_545
Li0_4 Mg1_1 3.075429 1_655
Li0_4 Mg1_7 3.075429 1_555
Li0_4 Mg0_4 3.096318 1_555
Li0_4 Mg1_0 3.106508 1_655
Li0_4 Mg1_6 3.106508 1_555
Li0_4 Li1_6 3.107502 1_555
Li0_4 Li1_0 3.107502 1_655
Li0_4 Li1_5 3.122793 1_555
Li0_5 Mg0_1 3.074361 1_555
Li0_5 Mg0_7 3.074361 1_545
Li0_5 Mg1_0 3.075429 1_656
Li0_5 Mg1_6 3.075429 1_556
Li0_5 Mg0_5 3.096318 1_555
Li0_5 Mg1_7 3.106508 1_555
Li0_5 Mg1_1 3.106508 1_655
Li0_5 Li1_1 3.107502 1_655
Li0_5 Li1_7 3.107502 1_555
Li0_5 Li1_4 3.122793 1_556
Li0_6 Mg0_2 3.074361 1_555
Li0_6 Mg0_4 3.074361 1_555
Li0_6 Mg1_5 3.075429 1_565
Li0_6 Mg1_3 3.075429 1_655
Li0_6 Mg0_6 3.096318 1_555
Li0_6 Mg1_4 3.106508 1_565
Li0_6 Mg1_2 3.106508 1_655
Li0_6 Li1_4 3.107502 1_565
Li0_6 Li1_2 3.107502 1_655
Li0_6 Li1_7 3.122793 1_555
Li0_7 Mg0_5 3.074361 1_555
Li0_7 Mg0_3 3.074361 1_555
Li0_7 Mg1_4 3.075429 1_566
Li0_7 Mg1_2 3.075429 1_656
Li0_7 Mg0_7 3.096318 1_555
Li0_7 Mg1_3 3.106508 1_655
Li0_7 Mg1_5 3.106508 1_565
Li0_7 Li1_5 3.107502 1_565
Li0_7 Li1_3 3.107502 1_655
Li0_7 Li1_6 3.122793 1_556
Li1_0 Mg1_2 3.074361 1_555
Li1_0 Mg1_4 3.074361 1_555
Li1_0 Mg0_3 3.075429 1_544
Li1_0 Mg0_5 3.075429 1_454
Li1_0 Li1_6 3.088180 1_455
Li1_0 Li1_6 3.088180 1_545
Li1_0 Mg1_0 3.096318 1_555
Li1_0 Mg0_4 3.106508 1_455
Li1_0 Mg0_2 3.106508 1_545
Li1_1 Mg1_5 3.074361 1_555
Li1_1 Mg1_3 3.074361 1_555
Li1_1 Mg0_2 3.075429 1_545
Li1_1 Mg0_4 3.075429 1_455
Li1_1 Li1_7 3.088180 1_455
Li1_1 Li1_7 3.088180 1_545
Li1_1 Mg1_1 3.096318 1_555
Li1_1 Mg0_5 3.106508 1_455
Li1_1 Mg0_3 3.106508 1_545
Li1_2 Mg1_0 3.074361 1_565
Li1_2 Mg1_6 3.074361 1_555
Li1_2 Mg0_1 3.075429 1_554
Li1_2 Mg0_7 3.075429 1_454
Li1_2 Li1_4 3.088180 1_555
Li1_2 Li1_4 3.088180 1_465
Li1_2 Mg1_2 3.096318 1_555
Li1_2 Mg0_6 3.106508 1_455
Li1_2 Mg0_0 3.106508 1_555
Li1_3 Mg1_1 3.074361 1_565
Li1_3 Mg1_7 3.074361 1_555
Li1_3 Mg0_0 3.075429 1_555
Li1_3 Mg0_6 3.075429 1_455
Li1_3 Li1_5 3.088180 1_555
Li1_3 Li1_5 3.088180 1_465
Li1_3 Mg1_3 3.096318 1_555
Li1_3 Mg0_7 3.106508 1_455
Li1_3 Mg0_1 3.106508 1_555
Li1_4 Mg1_0 3.074361 1_655
Li1_4 Mg1_6 3.074361 1_555
Li1_4 Mg0_1 3.075429 1_554
Li1_4 Mg0_7 3.075429 1_544
Li1_4 Mg1_4 3.096318 1_555
Li1_4 Mg0_6 3.106508 1_545
Li1_4 Mg0_0 3.106508 1_555
Li1_5 Mg1_1 3.074361 1_655
Li1_5 Mg1_7 3.074361 1_555
Li1_5 Mg0_0 3.075429 1_555
Li1_5 Mg0_6 3.075429 1_545
Li1_5 Mg1_5 3.096318 1_555
Li1_5 Mg0_7 3.106508 1_545
Li1_5 Mg0_1 3.106508 1_555
Li1_6 Mg1_4 3.074361 1_565
Li1_6 Mg1_2 3.074361 1_655
Li1_6 Mg0_5 3.075429 1_554
Li1_6 Mg0_3 3.075429 1_554
Li1_6 Mg1_6 3.096318 1_555
Li1_6 Mg0_2 3.106508 1_555
Li1_6 Mg0_4 3.106508 1_555
Li1_7 Mg1_3 3.074361 1_655
Li1_7 Mg1_5 3.074361 1_565
Li1_7 Mg0_2 3.075429 1_555
Li1_7 Mg0_4 3.075429 1_555
Li1_7 Mg1_7 3.096318 1_555
Li1_7 Mg0_3 3.106508 1_555
Li1_7 Mg0_5 3.106508 1_555
Mg0_0 Mg0_6 3.088180 1_545
Mg0_0 Mg0_6 3.088180 1_455
Mg0_0 Mg1_6 3.119281 1_555
Mg0_0 Mg1_3 3.121882 1_555
Mg0_0 Mg1_5 3.121882 1_555
Mg0_1 Mg0_7 3.088180 1_545
Mg0_1 Mg0_7 3.088180 1_455
Mg0_1 Mg1_7 3.119281 1_555
Mg0_1 Mg1_4 3.121882 1_556
Mg0_1 Mg1_2 3.121882 1_556
Mg0_2 Mg0_4 3.088180 1_555
Mg0_2 Mg0_4 3.088180 1_465
Mg0_2 Mg1_4 3.119281 1_565
Mg0_2 Mg1_7 3.121882 1_555
Mg0_2 Mg1_1 3.121882 1_565
Mg0_3 Mg0_5 3.088180 1_555
Mg0_3 Mg0_5 3.088180 1_465
Mg0_3 Mg1_5 3.119281 1_565
Mg0_3 Mg1_0 3.121882 1_566
Mg0_3 Mg1_6 3.121882 1_556
Mg0_4 Mg1_2 3.119281 1_655
Mg0_4 Mg1_7 3.121882 1_555
Mg0_4 Mg1_1 3.121882 1_655
Mg0_5 Mg1_3 3.119281 1_655
Mg0_5 Mg1_6 3.121882 1_556
Mg0_5 Mg1_0 3.121882 1_656
Mg0_6 Mg1_0 3.119281 1_665
Mg0_6 Mg1_3 3.121882 1_655
Mg0_6 Mg1_5 3.121882 1_565
Mg0_7 Mg1_1 3.119281 1_665
Mg0_7 Mg1_4 3.121882 1_566
Mg0_7 Mg1_2 3.121882 1_656
Mg1_0 Mg1_6 3.088180 1_545
Mg1_0 Mg1_6 3.088180 1_455
Mg1_1 Mg1_7 3.088180 1_545
Mg1_1 Mg1_7 3.088180 1_455
Mg1_2 Mg1_4 3.088180 1_465
Mg1_2 Mg1_4 3.088180 1_555
Mg1_3 Mg1_5 3.088180 1_465
Mg1_3 Mg1_5 3.088180 1_555
