# generated using pymatgen
data_TbGe2Ir
_symmetry_space_group_name_H-M   'P 1'
_cell_length_a   9.42050272
_cell_length_b   9.42048826
_cell_length_c   9.42051078
_cell_angle_alpha   153.79781310
_cell_angle_beta   123.97018639
_cell_angle_gamma   62.87816978
_symmetry_Int_Tables_number   1
_chemical_formula_structural   TbGe2Ir
_chemical_formula_sum   'Tb4 Ge8 Ir4'
_cell_volume   303.77069991
_cell_formula_units_Z   4
loop_
 _symmetry_equiv_pos_site_id
 _symmetry_equiv_pos_as_xyz
  1  'x, y, z'
loop_
 _atom_site_type_symbol
 _atom_site_label
 _atom_site_symmetry_multiplicity
 _atom_site_fract_x
 _atom_site_fract_y
 _atom_site_fract_z
 _atom_site_occupancy
  Tb  Tb0  1  0.70555333  0.20546837  0.49972593  1
  Tb  Tb1  1  0.26181131  0.99988295  0.26172020  1
  Tb  Tb2  1  0.29444719  0.79453238  0.50027432  1
  Tb  Tb3  1  0.73818749  0.00011578  0.73827971  1
  Ge  Ge0  1  0.04731863  0.20077371  0.84628915  1
  Ge  Ge1  1  0.95267989  0.79922541  0.15371087  1
  Ge  Ge2  1  0.64551613  0.79897534  0.84635128  1
  Ge  Ge3  1  0.35448321  0.20102391  0.15364812  1
  Ge  Ge4  1  0.57681831  0.57649104  0.99966173  1
  Ge  Ge5  1  0.92255435  0.42294503  0.50026704  1
  Ge  Ge6  1  0.07744510  0.57705575  0.49973207  1
  Ge  Ge7  1  0.42318411  0.42351043  0.00033987  1
  Ir  Ir0  1  0.60617842  0.35433526  0.25144629  1
  Ir  Ir1  1  0.39382159  0.64566432  0.74855325  1
  Ir  Ir2  1  0.89706585  0.64530390  0.25146857  1
  Ir  Ir3  1  0.10293409  0.35469642  0.74853159  1
loop_
_geom_bond_atom_site_label_1
_geom_bond_atom_site_label_2
_geom_bond_distance
_geom_bond_site_symmetry_2
Ge0 Ir2 2.461045 1_445
Ge0 Ir2 2.461553 1_456
Ge0 Ir3 2.617891 1_555
Ge0 Ge3 2.718051 1_556
Ge0 Tb2 2.943242 1_545
Ge0 Tb2 2.944257 1_556
Ge0 Tb0 3.067460 1_455
Ge0 Tb3 3.368318 1_455
Ge1 Ir3 2.461052 1_665
Ge1 Ir3 2.461561 1_654
Ge1 Ir2 2.617873 1_555
Ge1 Ge2 2.718051 1_554
Ge1 Tb0 2.943226 1_565
Ge1 Tb0 2.944242 1_554
Ge1 Tb2 3.067462 1_655
Ge1 Tb1 3.368319 1_655
Ge2 Ir0 2.461111 1_566
Ge2 Ir0 2.461722 1_555
Ge2 Ir1 2.617272 1_555
Ge2 Tb0 2.942362 1_566
Ge2 Tb0 2.943087 1_555
Ge2 Tb2 3.066021 1_555
Ge2 Tb3 3.369327 1_565
Ge3 Ir1 2.461109 1_544
Ge3 Ir1 2.461719 1_555
Ge3 Ir0 2.617279 1_555
Ge3 Tb2 2.942367 1_544
Ge3 Tb2 2.943096 1_555
Ge3 Tb0 3.066024 1_555
Ge3 Tb1 3.369340 1_545
Ge4 Ge7 2.469876 1_556
Ge4 Ir2 2.484970 1_556
Ge4 Ir1 2.485377 1_555
Ge4 Tb0 2.974345 1_555
Ge4 Tb0 2.974814 1_566
Ge4 Tb1 3.243441 1_545
Ge4 Tb3 3.243655 1_555
Ge4 Tb3 3.245601 1_566
Ge4 Tb1 3.245752 1_556
Ge5 Ir0 2.454707 1_555
Ge5 Ir3 2.455952 1_655
Ge5 Tb1 3.386141 1_656
Ge5 Tb3 3.387033 1_565
Ge5 Tb3 3.387685 1_554
Ge5 Tb1 3.389528 1_645
Ge5 Tb0 3.487775 1_555
Ge6 Ir1 2.454712 1_555
Ge6 Ir2 2.455941 1_455
Ge6 Tb3 3.386146 1_454
Ge6 Tb1 3.387051 1_545
Ge6 Tb1 3.387701 1_556
Ge6 Tb3 3.389531 1_465
Ge6 Tb2 3.487774 1_555
Ge7 Ir3 2.484988 1_554
Ge7 Ir0 2.485375 1_555
Ge7 Tb2 2.974352 1_555
Ge7 Tb2 2.974821 1_544
Ge7 Tb3 3.243419 1_565
Ge7 Tb1 3.243647 1_555
Ge7 Tb1 3.245595 1_544
Ge7 Tb3 3.245731 1_554
Ir0 Tb3 3.168400 1_554
Ir0 Tb3 3.169686 1_565
Ir0 Tb2 3.231213 1_544
Ir0 Tb2 3.234363 1_555
Ir0 Tb0 3.248967 1_555
Ir1 Tb1 3.168416 1_556
Ir1 Tb1 3.169699 1_545
Ir1 Tb0 3.231218 1_566
Ir1 Tb0 3.234363 1_555
Ir1 Tb2 3.248972 1_555
Ir2 Tb3 3.167561 1_554
Ir2 Tb3 3.169548 1_565
Ir2 Tb0 3.233725 1_554
Ir2 Tb0 3.234151 1_565
Ir2 Tb2 3.250226 1_655
Ir3 Tb1 3.167546 1_556
Ir3 Tb1 3.169534 1_545
Ir3 Tb2 3.233724 1_556
Ir3 Tb2 3.234150 1_545
Ir3 Tb0 3.250220 1_455
