# generated using pymatgen
data_HPb3Cl4OF
_symmetry_space_group_name_H-M   'P 1'
_cell_length_a   7.27326200
_cell_length_b   7.88949051
_cell_length_c   8.68505042
_cell_angle_alpha   103.29261595
_cell_angle_beta   101.15080217
_cell_angle_gamma   89.75947946
_symmetry_Int_Tables_number   1
_chemical_formula_structural   HPb3Cl4OF
_chemical_formula_sum   'H2 Pb6 Cl8 O2 F2'
_cell_volume   475.43671733
_cell_formula_units_Z   2
loop_
 _symmetry_equiv_pos_site_id
 _symmetry_equiv_pos_as_xyz
  1  'x, y, z'
loop_
 _atom_site_type_symbol
 _atom_site_label
 _atom_site_symmetry_multiplicity
 _atom_site_fract_x
 _atom_site_fract_y
 _atom_site_fract_z
 _atom_site_occupancy
  H  H0  1  0.99318600  0.75341000  0.00516400  1
  H  H1  1  0.00681400  0.24659000  0.99483600  1
  Pb  Pb0  1  0.25063800  0.83991000  0.41086200  1
  Pb  Pb1  1  0.74936200  0.16009000  0.58913800  1
  Pb  Pb2  1  0.66100200  0.78552000  0.13038100  1
  Pb  Pb3  1  0.33899800  0.21448000  0.86961900  1
  Pb  Pb4  1  0.71273700  0.63991800  0.59577400  1
  Pb  Pb5  1  0.28726300  0.36008200  0.40422600  1
  Cl  Cl0  1  0.91924900  0.07638500  0.30279500  1
  Cl  Cl1  1  0.08075100  0.92361500  0.69720500  1
  Cl  Cl2  1  0.65099600  0.98012400  0.85656300  1
  Cl  Cl3  1  0.34900400  0.01987600  0.14343700  1
  Cl  Cl4  1  0.92334100  0.58104800  0.30840500  1
  Cl  Cl5  1  0.07665900  0.41895200  0.69159500  1
  Cl  Cl6  1  0.35405300  0.53968600  0.14407700  1
  Cl  Cl7  1  0.64594700  0.46031400  0.85592300  1
  O  O0  1  0.60551900  0.36510100  0.46163300  1
  O  O1  1  0.39448100  0.63489900  0.53836700  1
  F  F0  1  0.61516800  0.86187000  0.42299100  1
  F  F1  1  0.38483200  0.13813000  0.57700900  1
loop_
_geom_bond_atom_site_label_1
_geom_bond_atom_site_label_2
_geom_bond_distance
_geom_bond_site_symmetry_2
Cl0 Pb2 2.899042 1_545
Cl0 Pb1 2.928151 1_555
Cl0 Pb0 3.172310 1_645
Cl1 Pb3 2.899042 1_565
Cl1 Pb0 2.928151 1_555
Cl1 Pb1 3.172310 1_465
Cl2 Pb3 2.923837 1_565
Cl2 Pb2 3.103081 1_556
Cl2 Pb1 3.176471 1_565
Cl2 Pb4 3.181758 1_555
Cl3 Pb2 2.923837 1_545
Cl3 Pb3 3.103081 1_554
Cl3 Pb0 3.176471 1_545
Cl3 Pb5 3.181758 1_555
Cl4 Pb2 2.934905 1_555
Cl4 Pb0 3.002571 1_655
Cl4 Pb4 3.119425 1_555
Cl4 Pb5 3.242559 1_655
Cl5 Pb3 2.934905 1_555
Cl5 Pb1 3.002571 1_455
Cl5 Pb5 3.119425 1_555
Cl5 Pb4 3.242559 1_455
Cl6 Pb2 3.000855 1_555
Cl6 Pb5 3.041591 1_555
Cl6 Pb3 3.060366 1_554
Cl6 Pb0 3.111296 1_555
Cl7 Pb3 3.000855 1_555
Cl7 Pb4 3.041591 1_555
Cl7 Pb2 3.060366 1_556
Cl7 Pb1 3.111296 1_555
O0 Pb5 2.270147 1_555
O0 Pb4 2.273232 1_555
O0 Pb1 2.301798 1_555
O1 Pb4 2.270147 1_555
O1 Pb5 2.273232 1_555
O1 Pb0 2.301798 1_555
F0 Pb1 2.546342 1_565
F0 Pb2 2.560156 1_555
F0 Pb4 2.570570 1_555
F0 Pb0 2.637814 1_555
F1 Pb0 2.546342 1_545
F1 Pb3 2.560156 1_555
F1 Pb5 2.570570 1_555
F1 Pb1 2.637814 1_555
