# generated using pymatgen
data_Tb6Co2Sn
_symmetry_space_group_name_H-M   'P 1'
_cell_length_a   8.41675138
_cell_length_b   8.41675138
_cell_length_c   8.41675138
_cell_angle_alpha   112.19451996
_cell_angle_beta   109.35335010
_cell_angle_gamma   106.90913345
_symmetry_Int_Tables_number   1
_chemical_formula_structural   Tb6Co2Sn
_chemical_formula_sum   'Tb12 Co4 Sn2'
_cell_volume   458.01871189
_cell_formula_units_Z   2
loop_
 _symmetry_equiv_pos_site_id
 _symmetry_equiv_pos_as_xyz
  1  'x, y, z'
loop_
 _atom_site_type_symbol
 _atom_site_label
 _atom_site_symmetry_multiplicity
 _atom_site_fract_x
 _atom_site_fract_y
 _atom_site_fract_z
 _atom_site_occupancy
  Tb  Tb0  1  0.44248000  0.23320700  0.20927300  1
  Tb  Tb1  1  0.55752000  0.76679300  0.79072700  1
  Tb  Tb2  1  0.02393400  0.23320700  0.79072700  1
  Tb  Tb3  1  0.97606600  0.76679300  0.20927300  1
  Tb  Tb4  1  0.18578700  0.28611300  0.47190000  1
  Tb  Tb5  1  0.81421300  0.71388700  0.52810000  1
  Tb  Tb6  1  0.18578700  0.71388700  0.89967400  1
  Tb  Tb7  1  0.81421300  0.28611300  0.10032600  1
  Tb  Tb8  1  0.32281800  0.63426500  0.31144700  1
  Tb  Tb9  1  0.67718200  0.36573500  0.68855300  1
  Tb  Tb10  1  0.32281800  0.01137100  0.68855300  1
  Tb  Tb11  1  0.67718200  0.98862900  0.31144700  1
  Co  Co0  1  0.35177500  0.00000000  0.35177500  1
  Co  Co1  1  0.64822500  0.00000000  0.64822500  1
  Co  Co2  1  0.11149100  0.61149100  0.50000000  1
  Co  Co3  1  0.88850900  0.38850900  0.50000000  1
  Sn  Sn0  1  0.50000000  0.50000000  0.00000000  1
  Sn  Sn1  1  0.00000000  0.00000000  0.00000000  1
loop_
_geom_bond_atom_site_label_1
_geom_bond_atom_site_label_2
_geom_bond_distance
_geom_bond_site_symmetry_2
Co0 Tb0 2.718090 1_555
Co0 Tb3 2.718090 1_445
Co0 Tb11 2.893075 1_545
Co0 Tb9 2.893075 1_555
Co0 Tb10 2.893075 1_555
Co0 Tb8 2.893075 1_545
Co0 Tb6 3.134809 1_544
Co0 Tb4 3.134809 1_555
Co1 Tb2 2.718090 1_655
Co1 Tb1 2.718090 1_545
Co1 Tb10 2.893075 1_555
Co1 Tb11 2.893075 1_545
Co1 Tb8 2.893075 1_545
Co1 Tb9 2.893075 1_555
Co1 Tb7 3.134809 1_556
Co1 Tb5 3.134809 1_545
Co2 Co3 2.235100 1_455
Co2 Tb10 2.760697 1_565
Co2 Tb8 2.760697 1_555
Co2 Tb5 2.924368 1_455
Co2 Tb7 2.924368 1_455
Co2 Tb4 2.924368 1_555
Co2 Tb6 2.924368 1_555
Co2 Tb3 3.229572 1_455
Co2 Tb1 3.229572 1_555
Co3 Tb9 2.760697 1_555
Co3 Tb11 2.760697 1_545
Co3 Tb5 2.924368 1_555
Co3 Tb4 2.924368 1_655
Co3 Tb6 2.924368 1_655
Co3 Tb7 2.924368 1_555
Co3 Tb2 3.229572 1_655
Co3 Tb0 3.229572 1_555
Sn0 Tb1 3.361598 1_554
Sn0 Tb0 3.361598 1_555
Sn0 Tb3 3.361598 1_555
Sn0 Tb2 3.361598 1_554
Sn0 Tb10 3.421388 1_554
Sn0 Tb11 3.421388 1_555
Sn0 Tb8 3.421388 1_555
Sn0 Tb9 3.421388 1_554
Sn0 Tb7 3.658680 1_555
Sn0 Tb6 3.658680 1_554
Sn0 Tb5 3.658680 1_555
Sn0 Tb4 3.658680 1_554
Sn1 Tb3 3.100496 1_445
Sn1 Tb2 3.100496 1_554
Sn1 Tb0 3.100496 1_555
Sn1 Tb1 3.100496 1_444
Sn1 Tb6 3.238334 1_544
Sn1 Tb7 3.238334 1_455
Sn1 Tb5 3.238334 1_444
Sn1 Tb4 3.238334 1_555
