# generated using pymatgen
data_BaTb2SmO6
_symmetry_space_group_name_H-M   'P 1'
_cell_length_a   8.65729050
_cell_length_b   8.65729050
_cell_length_c   8.80688689
_cell_angle_alpha   90.00000000
_cell_angle_beta   90.00000000
_cell_angle_gamma   90.00000000
_symmetry_Int_Tables_number   1
_chemical_formula_structural   BaTb2SmO6
_chemical_formula_sum   'Ba4 Tb8 Sm4 O24'
_cell_volume   660.06453676
_cell_formula_units_Z   4
loop_
 _symmetry_equiv_pos_site_id
 _symmetry_equiv_pos_as_xyz
  1  'x, y, z'
loop_
 _atom_site_type_symbol
 _atom_site_label
 _atom_site_symmetry_multiplicity
 _atom_site_fract_x
 _atom_site_fract_y
 _atom_site_fract_z
 _atom_site_occupancy
  Ba  Ba0  1  0.50000000  -0.00000000  0.50000000  1
  Ba  Ba1  1  0.00000000  0.50000000  -0.00000000  1
  Ba  Ba2  1  0.50000000  0.50000000  -0.00000000  1
  Ba  Ba3  1  0.50000000  0.50000000  0.50000000  1
  Tb  Tb0  1  0.75516479  0.75516479  0.75000000  1
  Tb  Tb1  1  0.24483521  0.75516479  0.75000000  1
  Tb  Tb2  1  0.75516479  0.75516479  0.25000000  1
  Tb  Tb3  1  0.24483521  0.75516479  0.25000000  1
  Tb  Tb4  1  0.75516479  0.24483521  0.75000000  1
  Tb  Tb5  1  0.24483521  0.24483521  0.75000000  1
  Tb  Tb6  1  0.75516479  0.24483521  0.25000000  1
  Tb  Tb7  1  0.24483521  0.24483521  0.25000000  1
  Sm  Sm0  1  0.00000000  -0.00000000  -0.00000000  1
  Sm  Sm1  1  0.50000000  -0.00000000  -0.00000000  1
  Sm  Sm2  1  0.00000000  -0.00000000  0.50000000  1
  Sm  Sm3  1  0.00000000  0.50000000  0.50000000  1
  O  O0  1  0.00000000  0.78930411  0.83156077  1
  O  O1  1  0.50000000  0.76188667  0.71187651  1
  O  O2  1  0.00000000  0.78930411  0.16843923  1
  O  O3  1  0.50000000  0.76188667  0.28812349  1
  O  O4  1  0.00000000  0.21069589  0.83156077  1
  O  O5  1  0.50000000  0.23811333  0.71187651  1
  O  O6  1  0.00000000  0.21069589  0.16843923  1
  O  O7  1  0.50000000  0.23811333  0.28812349  1
  O  O8  1  0.78930411  -0.00000000  0.66843923  1
  O  O9  1  0.21069589  -0.00000000  0.66843923  1
  O  O10  1  0.78930411  -0.00000000  0.33156077  1
  O  O11  1  0.21069589  -0.00000000  0.33156077  1
  O  O12  1  0.76188667  0.50000000  0.78812349  1
  O  O13  1  0.23811333  0.50000000  0.78812349  1
  O  O14  1  0.76188667  0.50000000  0.21187651  1
  O  O15  1  0.23811333  0.50000000  0.21187651  1
  O  O16  1  0.70078539  0.82336655  -0.00000000  1
  O  O17  1  0.29921461  0.82336655  -0.00000000  1
  O  O18  1  0.82336655  0.70078539  0.50000000  1
  O  O19  1  0.17663345  0.70078539  0.50000000  1
  O  O20  1  0.70078539  0.17663345  -0.00000000  1
  O  O21  1  0.29921461  0.17663345  -0.00000000  1
  O  O22  1  0.82336655  0.29921461  0.50000000  1
  O  O23  1  0.17663345  0.29921461  0.50000000  1
loop_
_geom_bond_atom_site_label_1
_geom_bond_atom_site_label_2
_geom_bond_distance
_geom_bond_site_symmetry_2
Ba0 O5 2.780520 1_555
Ba0 O1 2.780520 1_545
Ba0 O3 2.780520 1_545
Ba0 O7 2.780520 1_555
Ba0 O10 2.910931 1_555
Ba0 O11 2.910931 1_555
Ba0 O8 2.910931 1_555
Ba0 O9 2.910931 1_555
Ba1 O13 2.780520 1_554
Ba1 O12 2.780520 1_454
Ba1 O14 2.780520 1_455
Ba1 O15 2.780520 1_555
Ba1 O2 2.910931 1_555
Ba1 O6 2.910931 1_555
Ba1 O0 2.910931 1_554
Ba1 O4 2.910931 1_554
Ba2 O14 2.936355 1_555
Ba2 O15 2.936355 1_555
Ba2 O12 2.936355 1_554
Ba2 O13 2.936355 1_554
Ba2 O20 3.295242 1_555
Ba2 O16 3.295242 1_555
Ba2 O17 3.295242 1_555
Ba2 O21 3.295242 1_555
Ba2 O5 3.402806 1_554
Ba2 O7 3.402806 1_555
Ba2 O3 3.402806 1_555
Ba2 O1 3.402806 1_554
Ba3 O5 2.936355 1_555
Ba3 O1 2.936355 1_555
Ba3 O3 2.936355 1_555
Ba3 O7 2.936355 1_555
Ba3 O19 3.295242 1_555
Ba3 O18 3.295242 1_555
Ba3 O22 3.295242 1_555
Ba3 O23 3.295242 1_555
Ba3 O15 3.402806 1_555
Ba3 O14 3.402806 1_555
Ba3 O13 3.402806 1_555
Ba3 O12 3.402806 1_555
O0 Tb1 2.257442 1_555
O0 Tb0 2.257442 1_455
O0 Sm0 2.351112 1_566
O1 Tb0 2.235163 1_555
O1 Tb1 2.235163 1_555
O2 Tb3 2.257442 1_555
O2 Tb2 2.257442 1_455
O2 Sm0 2.351112 1_565
O3 Tb2 2.235163 1_555
O3 Tb3 2.235163 1_555
O4 Tb4 2.257442 1_455
O4 Tb5 2.257442 1_555
O4 Sm0 2.351112 1_556
O5 Tb5 2.235163 1_555
O5 Tb4 2.235163 1_555
O6 Tb7 2.257442 1_555
O6 Tb6 2.257442 1_455
O6 Sm0 2.351112 1_555
O7 Tb6 2.235163 1_555
O7 Tb7 2.235163 1_555
O8 Tb4 2.257442 1_555
O8 Tb0 2.257442 1_545
O8 Sm2 2.351112 1_655
O9 Tb1 2.257442 1_545
O9 Tb5 2.257442 1_555
O9 Sm2 2.351112 1_555
O10 Tb6 2.257442 1_555
O10 Tb2 2.257442 1_545
O10 Sm2 2.351112 1_655
O11 Tb7 2.257442 1_555
O11 Tb3 2.257442 1_545
O11 Sm2 2.351112 1_555
O12 Tb0 2.235163 1_555
O12 Tb4 2.235163 1_555
O13 Tb5 2.235163 1_555
O13 Tb1 2.235163 1_555
O14 Tb2 2.235163 1_555
O14 Tb6 2.235163 1_555
O15 Tb3 2.235163 1_555
O15 Tb7 2.235163 1_555
O16 Sm1 2.315144 1_565
O16 Tb2 2.327624 1_555
O16 Tb0 2.327624 1_554
O17 Sm1 2.315144 1_565
O17 Tb3 2.327624 1_555
O17 Tb1 2.327624 1_554
O18 Sm3 2.315144 1_655
O18 Tb2 2.327624 1_555
O18 Tb0 2.327624 1_555
O19 Sm3 2.315144 1_555
O19 Tb1 2.327624 1_555
O19 Tb3 2.327624 1_555
O20 Sm1 2.315144 1_555
O20 Tb4 2.327624 1_554
O20 Tb6 2.327624 1_555
O21 Sm1 2.315144 1_555
O21 Tb5 2.327624 1_554
O21 Tb7 2.327624 1_555
O22 Sm3 2.315144 1_655
O22 Tb6 2.327624 1_555
O22 Tb4 2.327624 1_555
O23 Sm3 2.315144 1_555
O23 Tb5 2.327624 1_555
O23 Tb7 2.327624 1_555
