# generated using pymatgen
data_NiH12SO9
_symmetry_space_group_name_H-M   'P 1'
_cell_length_a   8.25573780
_cell_length_b   5.80535110
_cell_length_c   10.13562736
_cell_angle_alpha   86.30279969
_cell_angle_beta   114.41504624
_cell_angle_gamma   84.43546770
_symmetry_Int_Tables_number   1
_chemical_formula_structural   NiH12SO9
_chemical_formula_sum   'Ni1 H12 S1 O9'
_cell_volume   437.30996750
_cell_formula_units_Z   1
loop_
 _symmetry_equiv_pos_site_id
 _symmetry_equiv_pos_as_xyz
  1  'x, y, z'
loop_
 _atom_site_type_symbol
 _atom_site_label
 _atom_site_symmetry_multiplicity
 _atom_site_fract_x
 _atom_site_fract_y
 _atom_site_fract_z
 _atom_site_occupancy
  Ni  Ni0  1  0.84939400  0.99454900  0.89916400  1
  H  H0  1  0.57993800  0.55999000  0.52400500  1
  H  H1  1  0.65159900  0.43033200  0.03798400  1
  H  H2  1  0.09220600  0.56079700  0.53610900  1
  H  H3  1  0.31754900  0.08316600  0.44289000  1
  H  H4  1  0.78637300  0.23954500  0.43438200  1
  H  H5  1  0.79261800  0.21553800  0.10791700  1
  H  H6  1  0.35402300  0.66136400  0.85285900  1
  H  H7  1  0.70091200  0.20885200  0.37709400  1
  H  H8  1  0.42676100  0.83084800  0.77173200  1
  H  H9  1  0.00077600  0.68007400  0.76476200  1
  H  H10  1  0.64164000  0.01707500  0.62224000  1
  H  H11  1  0.15744300  0.62614800  0.59141700  1
  S  S0  1  0.96999300  0.47010600  0.93879900  1
  O  O0  1  0.83005300  0.67692800  0.92258600  1
  O  O1  1  0.05762100  0.35168200  0.30987400  1
  O  O2  1  0.86238700  0.30086700  0.83873100  1
  O  O3  1  0.53838700  0.92909900  0.59066300  1
  O  O4  1  0.66373600  0.26450200  0.06793300  1
  O  O5  1  0.06444200  0.55372200  0.26745100  1
  O  O6  1  0.08118400  0.57451500  0.85331800  1
  O  O7  1  0.43441600  0.04391100  0.44070000  1
  O  O8  1  0.33454800  0.82039100  0.80738800  1
loop_
_geom_bond_atom_site_label_1
_geom_bond_atom_site_label_2
_geom_bond_distance
_geom_bond_site_symmetry_2
Ni0 O2 1.870780 1_565
Ni0 O0 1.874515 1_555
H1 O4 0.973364 1_555
H3 O7 0.979299 1_555
H4 H7 0.752162 1_555
H5 O4 0.973234 1_555
H6 O8 0.972447 1_555
H8 O8 0.973358 1_555
H9 O6 0.989665 1_555
H10 O3 0.984830 1_545
H11 H2 0.752141 1_555
O0 S0 1.533607 1_555
O1 O5 1.237565 1_555
O2 S0 1.528433 1_555
O6 S0 1.630452 1_455
