# generated using pymatgen
data_Ce4CoSi6Au
_symmetry_space_group_name_H-M   'P 1'
_cell_length_a   8.14658340
_cell_length_b   8.14658340
_cell_length_c   4.18910400
_cell_angle_alpha   90.00000000
_cell_angle_beta   90.00000000
_cell_angle_gamma   119.99999509
_symmetry_Int_Tables_number   1
_chemical_formula_structural   Ce4CoSi6Au
_chemical_formula_sum   'Ce4 Co1 Si6 Au1'
_cell_volume   240.77024294
_cell_formula_units_Z   1
loop_
 _symmetry_equiv_pos_site_id
 _symmetry_equiv_pos_as_xyz
  1  'x, y, z'
loop_
 _atom_site_type_symbol
 _atom_site_label
 _atom_site_symmetry_multiplicity
 _atom_site_fract_x
 _atom_site_fract_y
 _atom_site_fract_z
 _atom_site_occupancy
  Ce  Ce0  1  0.66666700  0.33333300  0.00000000  1
  Ce  Ce1  1  0.68423400  0.84211700  0.00000000  1
  Ce  Ce2  1  0.15788300  0.84211700  0.00000000  1
  Ce  Ce3  1  0.15788300  0.31576600  0.00000000  1
  Co  Co0  1  0.00000000  0.00000000  0.50000000  1
  Si  Si0  1  0.32265000  0.16132500  0.50000000  1
  Si  Si1  1  0.83867500  0.16132500  0.50000000  1
  Si  Si2  1  0.83867500  0.67735000  0.50000000  1
  Si  Si3  1  0.98926300  0.49463200  0.50000000  1
  Si  Si4  1  0.50536800  0.01073700  0.50000000  1
  Si  Si5  1  0.50536800  0.49463200  0.50000000  1
  Au  Au0  1  0.33333300  0.66666700  0.50000000  1
loop_
_geom_bond_atom_site_label_1
_geom_bond_atom_site_label_2
_geom_bond_distance
_geom_bond_site_symmetry_2
Ce0 Si3 3.093082 1_554
Ce0 Si4 3.093082 1_555
Ce0 Si4 3.093082 1_554
Ce0 Si3 3.093082 1_555
Ce0 Si5 3.093092 1_555
Ce0 Si5 3.093092 1_554
Ce0 Si1 3.205914 1_555
Ce0 Si1 3.205914 1_554
Ce0 Si0 3.205919 1_555
Ce0 Si0 3.205919 1_554
Ce0 Si2 3.205919 1_555
Ce0 Si2 3.205919 1_554
Ce1 Co0 3.057799 1_664
Ce1 Co0 3.057799 1_665
Ce1 Si2 3.075823 1_555
Ce1 Si2 3.075823 1_554
Ce1 Si1 3.075824 1_565
Ce1 Si1 3.075824 1_564
Ce1 Si5 3.224752 1_555
Ce1 Si5 3.224752 1_554
Ce1 Si4 3.224758 1_565
Ce1 Si4 3.224758 1_564
Ce2 Co0 3.057799 1_565
Ce2 Co0 3.057799 1_564
Ce2 Si0 3.075824 1_565
Ce2 Si0 3.075824 1_564
Ce2 Si2 3.075824 1_455
Ce2 Si2 3.075824 1_454
Ce2 Si4 3.224752 1_565
Ce2 Si4 3.224752 1_564
Ce2 Si3 3.224752 1_455
Ce2 Si3 3.224752 1_454
Ce3 Co0 3.057799 1_555
Ce3 Co0 3.057799 1_554
Ce3 Si0 3.075823 1_555
Ce3 Si0 3.075823 1_554
Ce3 Si1 3.075824 1_455
Ce3 Si1 3.075824 1_454
Ce3 Si5 3.224752 1_555
Ce3 Si5 3.224752 1_554
Ce3 Si3 3.224758 1_455
Ce3 Si3 3.224758 1_454
Co0 Si1 2.276344 1_455
Co0 Si2 2.276344 1_445
Co0 Si0 2.276344 1_555
Si0 Si4 2.355162 1_555
Si0 Si5 2.355169 1_555
Si1 Si3 2.355170 1_555
Si1 Si4 2.355170 1_555
Si2 Si3 2.355162 1_555
Si2 Si5 2.355169 1_555
Au0 Si5 2.427465 1_555
Au0 Si3 2.427465 1_455
Au0 Si4 2.427465 1_565
Au0 Ce2 3.242838 1_555
Au0 Ce2 3.242838 1_556
Au0 Ce3 3.242843 1_555
Au0 Ce3 3.242843 1_556
Au0 Ce1 3.242843 1_555
Au0 Ce1 3.242843 1_556
