# generated using pymatgen
data_Dy3Sc2Al3O12
_symmetry_space_group_name_H-M   'P 1'
_cell_length_a   10.77507768
_cell_length_b   10.77507768
_cell_length_c   10.77507768
_cell_angle_alpha   109.47122063
_cell_angle_beta   109.47122063
_cell_angle_gamma   109.47122063
_symmetry_Int_Tables_number   1
_chemical_formula_structural   Dy3Sc2Al3O12
_chemical_formula_sum   'Dy12 Sc8 Al12 O48'
_cell_volume   963.02894099
_cell_formula_units_Z   4
loop_
 _symmetry_equiv_pos_site_id
 _symmetry_equiv_pos_as_xyz
  1  'x, y, z'
loop_
 _atom_site_type_symbol
 _atom_site_label
 _atom_site_symmetry_multiplicity
 _atom_site_fract_x
 _atom_site_fract_y
 _atom_site_fract_z
 _atom_site_occupancy
  Dy  Dy0  1  0.25000000  0.37500000  0.12500000  1
  Dy  Dy1  1  0.75000000  0.62500000  0.87500000  1
  Dy  Dy2  1  0.75000000  0.12500000  0.37500000  1
  Dy  Dy3  1  0.12500000  0.25000000  0.37500000  1
  Dy  Dy4  1  0.37500000  0.75000000  0.12500000  1
  Dy  Dy5  1  0.25000000  0.87500000  0.62500000  1
  Dy  Dy6  1  0.87500000  0.75000000  0.62500000  1
  Dy  Dy7  1  0.62500000  0.25000000  0.87500000  1
  Dy  Dy8  1  0.37500000  0.12500000  0.25000000  1
  Dy  Dy9  1  0.62500000  0.87500000  0.75000000  1
  Dy  Dy10  1  0.12500000  0.37500000  0.75000000  1
  Dy  Dy11  1  0.87500000  0.62500000  0.25000000  1
  Sc  Sc0  1  0.00000000  0.00000000  0.00000000  1
  Sc  Sc1  1  0.50000000  0.00000000  0.50000000  1
  Sc  Sc2  1  0.00000000  0.50000000  0.50000000  1
  Sc  Sc3  1  0.50000000  0.00000000  0.00000000  1
  Sc  Sc4  1  0.50000000  0.50000000  0.00000000  1
  Sc  Sc5  1  0.50000000  0.50000000  0.50000000  1
  Sc  Sc6  1  0.00000000  0.00000000  0.50000000  1
  Sc  Sc7  1  0.00000000  0.50000000  0.00000000  1
  Al  Al0  1  0.25000000  0.62500000  0.37500000  1
  Al  Al1  1  0.75000000  0.37500000  0.62500000  1
  Al  Al2  1  0.75000000  0.87500000  0.12500000  1
  Al  Al3  1  0.37500000  0.25000000  0.62500000  1
  Al  Al4  1  0.62500000  0.75000000  0.37500000  1
  Al  Al5  1  0.25000000  0.12500000  0.87500000  1
  Al  Al6  1  0.12500000  0.75000000  0.87500000  1
  Al  Al7  1  0.87500000  0.25000000  0.12500000  1
  Al  Al8  1  0.62500000  0.37500000  0.25000000  1
  Al  Al9  1  0.37500000  0.62500000  0.75000000  1
  Al  Al10  1  0.87500000  0.12500000  0.75000000  1
  Al  Al11  1  0.12500000  0.87500000  0.25000000  1
  O  O0  1  0.47461300  0.37443900  0.28666900  1
  O  O1  1  0.52538700  0.62556100  0.71333100  1
  O  O2  1  0.58777000  0.18794300  0.21333100  1
  O  O3  1  0.91223000  0.12556100  0.60017300  1
  O  O4  1  0.28666900  0.47461300  0.37443900  1
  O  O5  1  0.31205700  0.91223000  0.28666900  1
  O  O6  1  0.41223000  0.81205700  0.78666900  1
  O  O7  1  0.08777000  0.87443900  0.39982700  1
  O  O8  1  0.71333100  0.52538700  0.62556100  1
  O  O9  1  0.68794300  0.08777000  0.71333100  1
  O  O10  1  0.02538700  0.31205700  0.89982700  1
  O  O11  1  0.21333100  0.58777000  0.18794300  1
  O  O12  1  0.12556100  0.02538700  0.21333100  1
  O  O13  1  0.97461300  0.68794300  0.10017300  1
  O  O14  1  0.78666900  0.41223000  0.81205700  1
  O  O15  1  0.87443900  0.97461300  0.78666900  1
  O  O16  1  0.60017300  0.91223000  0.12556100  1
  O  O17  1  0.18794300  0.47461300  0.60017300  1
  O  O18  1  0.39982700  0.08777000  0.87443900  1
  O  O19  1  0.81205700  0.52538700  0.39982700  1
  O  O20  1  0.89982700  0.02538700  0.31205700  1
  O  O21  1  0.37443900  0.58777000  0.89982700  1
  O  O22  1  0.10017300  0.97461300  0.68794300  1
  O  O23  1  0.62556100  0.41223000  0.10017300  1
  O  O24  1  0.37443900  0.28666900  0.47461300  1
  O  O25  1  0.58777000  0.89982700  0.37443900  1
  O  O26  1  0.62556100  0.71333100  0.52538700  1
  O  O27  1  0.41223000  0.10017300  0.62556100  1
  O  O28  1  0.12556100  0.60017300  0.91223000  1
  O  O29  1  0.02538700  0.21333100  0.12556100  1
  O  O30  1  0.87443900  0.39982700  0.08777000  1
  O  O31  1  0.97461300  0.78666900  0.87443900  1
  O  O32  1  0.31205700  0.89982700  0.02538700  1
  O  O33  1  0.91223000  0.28666900  0.31205700  1
  O  O34  1  0.68794300  0.10017300  0.97461300  1
  O  O35  1  0.08777000  0.71333100  0.68794300  1
  O  O36  1  0.18794300  0.21333100  0.58777000  1
  O  O37  1  0.47461300  0.60017300  0.18794300  1
  O  O38  1  0.81205700  0.78666900  0.41223000  1
  O  O39  1  0.52538700  0.39982700  0.81205700  1
  O  O40  1  0.28666900  0.31205700  0.91223000  1
  O  O41  1  0.71333100  0.68794300  0.08777000  1
  O  O42  1  0.21333100  0.12556100  0.02538700  1
  O  O43  1  0.78666900  0.87443900  0.97461300  1
  O  O44  1  0.89982700  0.37443900  0.58777000  1
  O  O45  1  0.10017300  0.62556100  0.41223000  1
  O  O46  1  0.60017300  0.18794300  0.47461300  1
  O  O47  1  0.39982700  0.81205700  0.52538700  1
loop_
_geom_bond_atom_site_label_1
_geom_bond_atom_site_label_2
_geom_bond_distance
_geom_bond_site_symmetry_2
Dy0 O40 2.370256 1_554
Dy0 O11 2.370256 1_555
Dy0 O42 2.370256 1_555
Dy0 O4 2.370256 1_555
Dy0 O10 2.469443 1_554
Dy0 O37 2.469443 1_555
Dy0 O0 2.469445 1_555
Dy0 O29 2.469445 1_555
Dy1 O41 2.370256 1_556
Dy1 O14 2.370256 1_555
Dy1 O43 2.370256 1_555
Dy1 O8 2.370256 1_555
Dy1 O39 2.469443 1_555
Dy1 O13 2.469443 1_556
Dy1 O1 2.469445 1_555
Dy1 O31 2.469445 1_555
Dy2 O44 2.370256 1_555
Dy2 O16 2.370256 1_545
Dy2 O46 2.370262 1_555
Dy2 O20 2.370262 1_555
Dy2 O25 2.469437 1_545
Dy2 O3 2.469437 1_555
Dy2 O2 2.469437 1_555
Dy2 O33 2.469437 1_555
Dy3 O33 2.370256 1_455
Dy3 O36 2.370256 1_555
Dy3 O29 2.370256 1_555
Dy3 O24 2.370256 1_555
Dy3 O20 2.469443 1_455
Dy3 O17 2.469443 1_555
Dy3 O4 2.469445 1_555
Dy3 O12 2.469445 1_555
Dy4 O25 2.370256 1_555
Dy4 O28 2.370256 1_554
Dy4 O37 2.370262 1_555
Dy4 O32 2.370262 1_555
Dy4 O21 2.469437 1_554
Dy4 O16 2.469437 1_555
Dy4 O11 2.469437 1_555
Dy4 O5 2.469437 1_555
Dy5 O18 2.370256 1_565
Dy5 O45 2.370256 1_555
Dy5 O47 2.370262 1_555
Dy5 O22 2.370262 1_555
Dy5 O6 2.469437 1_555
Dy5 O35 2.469437 1_555
Dy5 O7 2.469437 1_555
Dy5 O27 2.469437 1_565
Dy6 O35 2.370256 1_655
Dy6 O38 2.370256 1_555
Dy6 O31 2.370256 1_555
Dy6 O26 2.370256 1_555
Dy6 O19 2.469443 1_555
Dy6 O22 2.469443 1_655
Dy6 O8 2.469445 1_555
Dy6 O15 2.469445 1_555
Dy7 O30 2.370256 1_556
Dy7 O27 2.370256 1_555
Dy7 O39 2.370262 1_555
Dy7 O34 2.370262 1_555
Dy7 O14 2.469437 1_555
Dy7 O9 2.469437 1_555
Dy7 O18 2.469437 1_555
Dy7 O23 2.469437 1_556
Dy8 O5 2.370256 1_545
Dy8 O2 2.370256 1_555
Dy8 O12 2.370256 1_555
Dy8 O0 2.370256 1_555
Dy8 O32 2.469443 1_545
Dy8 O46 2.469443 1_555
Dy8 O24 2.469445 1_555
Dy8 O42 2.469445 1_555
Dy9 O9 2.370256 1_565
Dy9 O6 2.370256 1_555
Dy9 O15 2.370256 1_555
Dy9 O1 2.370256 1_555
Dy9 O47 2.469443 1_555
Dy9 O34 2.469443 1_565
Dy9 O43 2.469445 1_555
Dy9 O26 2.469445 1_555
Dy10 O21 2.370256 1_555
Dy10 O3 2.370256 1_455
Dy10 O10 2.370262 1_555
Dy10 O17 2.370262 1_555
Dy10 O28 2.469437 1_555
Dy10 O36 2.469437 1_555
Dy10 O44 2.469437 1_455
Dy10 O40 2.469437 1_555
Dy11 O7 2.370256 1_655
Dy11 O23 2.370256 1_555
Dy11 O19 2.370262 1_555
Dy11 O13 2.370262 1_555
Dy11 O38 2.469437 1_555
Dy11 O41 2.469437 1_555
Dy11 O30 2.469437 1_555
Dy11 O45 2.469437 1_655
Al0 O4 1.789929 1_555
Al0 O47 1.789937 1_555
Al0 O45 1.789939 1_555
Al0 O11 1.789939 1_555
Al1 O8 1.789929 1_555
Al1 O46 1.789937 1_555
Al1 O44 1.789939 1_555
Al1 O14 1.789939 1_555
Al2 O43 1.789929 1_554
Al2 O20 1.789937 1_565
Al2 O41 1.789939 1_555
Al2 O16 1.789939 1_555
Al3 O24 1.789929 1_555
Al3 O39 1.789937 1_555
Al3 O27 1.789939 1_555
Al3 O36 1.789939 1_555
Al4 O26 1.789929 1_555
Al4 O37 1.789937 1_555
Al4 O25 1.789939 1_555
Al4 O38 1.789939 1_555
Al5 O42 1.789929 1_556
Al5 O22 1.789937 1_545
Al5 O40 1.789939 1_555
Al5 O18 1.789939 1_555
Al6 O31 1.789929 1_455
Al6 O32 1.789937 1_556
Al6 O28 1.789939 1_555
Al6 O35 1.789939 1_555
Al7 O29 1.789929 1_655
Al7 O34 1.789937 1_554
Al7 O33 1.789939 1_555
Al7 O30 1.789939 1_555
Al8 O0 1.789929 1_555
Al8 O19 1.789937 1_555
Al8 O23 1.789939 1_555
Al8 O2 1.789939 1_555
Al9 O1 1.789929 1_555
Al9 O17 1.789937 1_555
Al9 O21 1.789939 1_555
Al9 O6 1.789939 1_555
Al10 O15 1.789929 1_545
Al10 O10 1.789937 1_655
Al10 O9 1.789939 1_555
Al10 O3 1.789939 1_555
Al11 O12 1.789929 1_565
Al11 O13 1.789937 1_455
Al11 O5 1.789939 1_555
Al11 O7 1.789939 1_555
O0 Sc5 2.109472 1_555
O1 Sc5 2.109472 1_555
O2 Sc3 2.109467 1_555
O3 Sc6 2.109467 1_655
O4 Sc5 2.109472 1_555
O5 Sc1 2.109467 1_565
O6 Sc3 2.109467 1_566
O7 Sc6 2.109467 1_565
O8 Sc5 2.109472 1_555
O9 Sc1 2.109467 1_555
O10 Sc7 2.109461 1_556
O11 Sc7 2.109467 1_555
O12 Sc0 2.109472 1_555
O13 Sc7 2.109461 1_655
O14 Sc7 2.109467 1_656
O15 Sc0 2.109472 1_666
O16 Sc3 2.109467 1_565
O17 Sc2 2.109461 1_555
O18 Sc3 2.109467 1_556
O19 Sc2 2.109461 1_655
O20 Sc6 2.109461 1_655
O21 Sc4 2.109467 1_556
O22 Sc6 2.109461 1_565
O23 Sc4 2.109467 1_555
O24 Sc5 2.109472 1_555
O25 Sc1 2.109467 1_565
O26 Sc5 2.109472 1_555
O27 Sc1 2.109467 1_555
O28 Sc7 2.109467 1_556
O29 Sc0 2.109472 1_555
O30 Sc7 2.109467 1_655
O31 Sc0 2.109472 1_666
O32 Sc3 2.109461 1_565
O33 Sc2 2.109467 1_655
O34 Sc3 2.109461 1_556
O35 Sc2 2.109467 1_555
O36 Sc6 2.109467 1_555
O37 Sc4 2.109461 1_555
O38 Sc6 2.109467 1_665
O39 Sc4 2.109461 1_556
O40 Sc4 2.109467 1_556
O41 Sc4 2.109467 1_555
O42 Sc0 2.109472 1_555
O43 Sc0 2.109472 1_666
O44 Sc2 2.109467 1_655
O45 Sc2 2.109467 1_555
O46 Sc1 2.109461 1_555
O47 Sc1 2.109461 1_565
