# generated using pymatgen
data_Rb3Os
_symmetry_space_group_name_H-M   'P 1'
_cell_length_a   5.69571400
_cell_length_b   5.69571400
_cell_length_c   5.69571400
_cell_angle_alpha   90.00000000
_cell_angle_beta   90.00000000
_cell_angle_gamma   90.00000000
_symmetry_Int_Tables_number   1
_chemical_formula_structural   Rb3Os
_chemical_formula_sum   'Rb3 Os1'
_cell_volume   184.77555762
_cell_formula_units_Z   1
loop_
 _symmetry_equiv_pos_site_id
 _symmetry_equiv_pos_as_xyz
  1  'x, y, z'
loop_
 _atom_site_type_symbol
 _atom_site_label
 _atom_site_symmetry_multiplicity
 _atom_site_fract_x
 _atom_site_fract_y
 _atom_site_fract_z
 _atom_site_occupancy
  Rb  Rb0  1  0.00000000  0.50000000  0.50000000  1
  Rb  Rb1  1  0.50000000  0.50000000  0.00000000  1
  Rb  Rb2  1  0.50000000  0.00000000  0.50000000  1
  Os  Os0  1  0.00000000  0.00000000  0.00000000  1
loop_
_geom_bond_atom_site_label_1
_geom_bond_atom_site_label_2
_geom_bond_distance
_geom_bond_site_symmetry_2
Rb0 Rb2 4.027478 1_455
Rb0 Rb1 4.027478 1_556
Rb0 Rb2 4.027478 1_465
Rb0 Rb2 4.027478 1_565
Rb0 Rb1 4.027478 1_555
Rb0 Rb2 4.027478 1_555
Rb0 Rb1 4.027478 1_456
Rb0 Rb1 4.027478 1_455
Rb1 Rb2 4.027478 1_554
Rb1 Rb2 4.027478 1_565
Rb1 Rb2 4.027478 1_555
Rb1 Rb2 4.027478 1_564
Os0 Rb0 4.027478 1_544
Os0 Rb0 4.027478 1_545
Os0 Rb2 4.027478 1_455
Os0 Rb2 4.027478 1_454
Os0 Rb2 4.027478 1_554
Os0 Rb1 4.027478 1_545
Os0 Rb1 4.027478 1_445
Os0 Rb0 4.027478 1_555
Os0 Rb0 4.027478 1_554
Os0 Rb1 4.027478 1_555
Os0 Rb2 4.027478 1_555
Os0 Rb1 4.027478 1_455
