# generated using pymatgen
data_HfMg14BO15
_symmetry_space_group_name_H-M   'P 1'
_cell_length_a   8.47949947
_cell_length_b   8.91561784
_cell_length_c   4.33302795
_cell_angle_alpha   90.00000000
_cell_angle_beta   90.00000000
_cell_angle_gamma   90.00000000
_symmetry_Int_Tables_number   1
_chemical_formula_structural   HfMg14BO15
_chemical_formula_sum   'Hf1 Mg14 B1 O15'
_cell_volume   327.57681227
_cell_formula_units_Z   1
loop_
 _symmetry_equiv_pos_site_id
 _symmetry_equiv_pos_as_xyz
  1  'x, y, z'
loop_
 _atom_site_type_symbol
 _atom_site_label
 _atom_site_symmetry_multiplicity
 _atom_site_fract_x
 _atom_site_fract_y
 _atom_site_fract_z
 _atom_site_occupancy
  Hf  Hf0  1  0.01968054  0.50000000  -0.00000000  1
  Mg  Mg0  1  0.50731885  -0.00000000  -0.00000000  1
  Mg  Mg1  1  0.49152665  0.50000000  -0.00000000  1
  Mg  Mg2  1  0.00026308  0.23018793  0.50000000  1
  Mg  Mg3  1  0.00026308  0.76981207  0.50000000  1
  Mg  Mg4  1  0.49915372  0.24498235  0.50000000  1
  Mg  Mg5  1  0.49915372  0.75501765  0.50000000  1
  Mg  Mg6  1  0.24004078  -0.00000000  0.50000000  1
  Mg  Mg7  1  0.25517340  0.50000000  0.50000000  1
  Mg  Mg8  1  0.75451985  -0.00000000  0.50000000  1
  Mg  Mg9  1  0.74632334  0.50000000  0.50000000  1
  Mg  Mg10  1  0.24862200  0.22366104  -0.00000000  1
  Mg  Mg11  1  0.24862200  0.77633896  -0.00000000  1
  Mg  Mg12  1  0.74899007  0.26363988  -0.00000000  1
  Mg  Mg13  1  0.74899007  0.73636012  0.00000000  1
  B  B0  1  -0.06425391  -0.00000000  -0.00000000  1
  O  O0  1  0.27935103  -0.00000000  -0.00000000  1
  O  O1  1  0.76825654  -0.00000000  -0.00000000  1
  O  O2  1  0.74412685  0.50000000  -0.00000000  1
  O  O3  1  0.24913931  0.23643271  0.50000000  1
  O  O4  1  0.24913931  0.76356729  0.50000000  1
  O  O5  1  0.75157558  0.25250725  0.50000000  1
  O  O6  1  0.75157558  0.74749275  0.50000000  1
  O  O7  1  0.98760285  -0.00000000  0.50000000  1
  O  O8  1  0.00145963  0.50000000  0.50000000  1
  O  O9  1  0.51757798  -0.00000000  0.50000000  1
  O  O10  1  0.49935481  0.50000000  0.50000000  1
  O  O11  1  0.99665998  0.27398164  -0.00000000  1
  O  O12  1  0.99665998  0.72601836  -0.00000000  1
  O  O13  1  0.50656665  0.24843571  -0.00000000  1
  O  O14  1  0.50656665  0.75156429  -0.00000000  1
loop_
_geom_bond_atom_site_label_1
_geom_bond_atom_site_label_2
_geom_bond_distance
_geom_bond_site_symmetry_2
Hf0 O12 2.024526 1_455
Hf0 O11 2.024526 1_455
Hf0 O8 2.172016 1_555
Hf0 O8 2.172016 1_554
Hf0 O2 2.336557 1_455
Mg0 O0 1.933053 1_555
Mg0 O9 2.168260 1_555
Mg0 O9 2.168260 1_554
Mg0 O1 2.212621 1_555
Mg0 O14 2.214967 1_545
Mg0 O13 2.214967 1_555
Mg1 O2 2.141923 1_555
Mg1 O10 2.167531 1_555
Mg1 O10 2.167531 1_554
Mg1 O13 2.246474 1_555
Mg1 O14 2.246474 1_555
Mg2 O7 2.055073 1_455
Mg2 O3 2.111080 1_555
Mg2 O5 2.118114 1_455
Mg2 O11 2.201628 1_455
Mg2 O11 2.201628 1_456
Mg2 O8 2.405563 1_555
Mg3 O7 2.055073 1_465
Mg3 O4 2.111080 1_555
Mg3 O6 2.118114 1_455
Mg3 O12 2.201628 1_455
Mg3 O12 2.201628 1_456
Mg3 O8 2.405563 1_555
Mg4 O3 2.121367 1_555
Mg4 O5 2.141462 1_555
Mg4 O13 2.167644 1_555
Mg4 O13 2.167644 1_556
Mg4 O9 2.189749 1_555
Mg4 O10 2.273641 1_555
Mg5 O4 2.121367 1_555
Mg5 O6 2.141462 1_555
Mg5 O14 2.167644 1_556
Mg5 O14 2.167644 1_555
Mg5 O9 2.189749 1_565
Mg5 O10 2.273641 1_555
Mg6 O4 2.109355 1_545
Mg6 O3 2.109355 1_555
Mg6 O7 2.140547 1_455
Mg6 O0 2.192007 1_555
Mg6 O0 2.192007 1_556
Mg6 O9 2.353377 1_555
Mg7 O10 2.070536 1_555
Mg7 O8 2.151366 1_555
Mg7 O4 2.350422 1_555
Mg7 O3 2.350422 1_555
Mg8 O7 1.976427 1_555
Mg8 O9 2.009148 1_555
Mg8 O1 2.169643 1_555
Mg8 O1 2.169643 1_556
Mg8 O6 2.251397 1_545
Mg8 O5 2.251397 1_555
Mg9 O10 2.094170 1_555
Mg9 O8 2.163428 1_655
Mg9 O2 2.166594 1_555
Mg9 O2 2.166594 1_556
Mg9 O5 2.207000 1_555
Mg9 O6 2.207000 1_555
Mg10 O0 2.011028 1_555
Mg10 O3 2.169509 1_554
Mg10 O3 2.169509 1_555
Mg10 O11 2.183108 1_455
Mg10 O13 2.198366 1_555
Mg11 O0 2.011028 1_565
Mg11 O4 2.169509 1_554
Mg11 O4 2.169509 1_555
Mg11 O12 2.183108 1_455
Mg11 O14 2.198366 1_555
Mg12 O13 2.060094 1_555
Mg12 O11 2.102140 1_555
Mg12 O2 2.107700 1_555
Mg12 O5 2.168897 1_554
Mg12 O5 2.168897 1_555
Mg12 O1 2.356183 1_555
Mg13 O14 2.060094 1_555
Mg13 O12 2.102140 1_555
Mg13 O2 2.107700 1_555
Mg13 O6 2.168897 1_555
Mg13 O6 2.168897 1_554
Mg13 O1 2.356183 1_565
B0 O1 1.420228 1_455
B0 O7 2.210687 1_455
B0 O7 2.210687 1_454
