# generated using pymatgen
data_KEuZrGeO6
_symmetry_space_group_name_H-M   'P 1'
_cell_length_a   5.58574852
_cell_length_b   5.58574671
_cell_length_c   5.58574530
_cell_angle_alpha   60.00000833
_cell_angle_beta   60.00001905
_cell_angle_gamma   60.00002521
_symmetry_Int_Tables_number   1
_chemical_formula_structural   KEuZrGeO6
_chemical_formula_sum   'K1 Eu1 Zr1 Ge1 O6'
_cell_volume   123.23353903
_cell_formula_units_Z   1
loop_
 _symmetry_equiv_pos_site_id
 _symmetry_equiv_pos_as_xyz
  1  'x, y, z'
loop_
 _atom_site_type_symbol
 _atom_site_label
 _atom_site_symmetry_multiplicity
 _atom_site_fract_x
 _atom_site_fract_y
 _atom_site_fract_z
 _atom_site_occupancy
  K  K0  1  0.24999995  0.25000006  0.24999999  1
  Eu  Eu0  1  0.75000034  0.74999959  0.75000004  1
  Zr  Zr0  1  0.50000104  0.50000031  0.49999932  1
  Ge  Ge0  1  0.99999920  0.00000029  0.00000026  1
  O  O0  1  0.76152527  0.23847437  0.23847475  1
  O  O1  1  0.23847453  0.76152544  0.76152538  1
  O  O2  1  0.76152527  0.23847437  0.76152561  1
  O  O3  1  0.23847453  0.76152544  0.23847464  1
  O  O4  1  0.76152561  0.76152580  0.23847430  1
  O  O5  1  0.23847426  0.23847431  0.76152572  1
loop_
_geom_bond_atom_site_label_1
_geom_bond_atom_site_label_2
_geom_bond_distance
_geom_bond_site_symmetry_2
K0 O5 2.794356 1_554
K0 O5 2.794356 1_555
K0 O3 2.794357 1_545
K0 O1 2.794357 1_545
K0 O3 2.794357 1_555
K0 O1 2.794357 1_554
K0 O2 2.794357 1_554
K0 O0 2.794357 1_555
K0 O4 2.794358 1_545
K0 O0 2.794359 1_455
K0 O2 2.794359 1_455
K0 O4 2.794359 1_455
Eu0 O5 2.794356 1_655
Eu0 O4 2.794356 1_556
Eu0 O4 2.794356 1_555
Eu0 O1 2.794357 1_655
Eu0 O3 2.794357 1_655
Eu0 O0 2.794357 1_556
Eu0 O2 2.794357 1_555
Eu0 O2 2.794357 1_565
Eu0 O0 2.794357 1_565
Eu0 O3 2.794359 1_556
Eu0 O1 2.794359 1_555
Eu0 O5 2.794361 1_565
Ge0 O4 1.883811 1_545
Ge0 O0 1.883813 1_555
Ge0 O2 1.883813 1_554
Ge0 O5 1.883815 1_654
Ge0 O3 1.883818 1_645
Ge0 O1 1.883818 1_644
O0 Zr0 2.065903 1_555
O1 Zr0 2.065906 1_555
O2 Zr0 2.065903 1_555
O3 Zr0 2.065906 1_555
O4 Zr0 2.065901 1_555
O5 Zr0 2.065912 1_555
