# generated using pymatgen
data_La2MoO6
_symmetry_space_group_name_H-M   'P 1'
_cell_length_a   16.71375152
_cell_length_b   16.71375152
_cell_length_c   16.71375152
_cell_angle_alpha   159.89823349
_cell_angle_beta   159.89823349
_cell_angle_gamma   28.57792849
_symmetry_Int_Tables_number   1
_chemical_formula_structural   La2MoO6
_chemical_formula_sum   'La8 Mo4 O24'
_cell_volume   551.23627602
_cell_formula_units_Z   4
loop_
 _symmetry_equiv_pos_site_id
 _symmetry_equiv_pos_as_xyz
  1  'x, y, z'
loop_
 _atom_site_type_symbol
 _atom_site_label
 _atom_site_symmetry_multiplicity
 _atom_site_fract_x
 _atom_site_fract_y
 _atom_site_fract_z
 _atom_site_occupancy
  La  La0  1  0.33688500  0.33688500  0.00000000  1
  La  La1  1  0.08688500  0.58688500  0.50000000  1
  La  La2  1  0.91311500  0.41311500  0.50000000  1
  La  La3  1  0.16311500  0.16311500  0.00000000  1
  La  La4  1  0.41311500  0.91311500  0.50000000  1
  La  La5  1  0.66311500  0.66311500  0.00000000  1
  La  La6  1  0.83688500  0.83688500  0.00000000  1
  La  La7  1  0.58688500  0.08688500  0.50000000  1
  Mo  Mo0  1  0.50000000  0.50000000  0.00000000  1
  Mo  Mo1  1  0.25000000  0.75000000  0.50000000  1
  Mo  Mo2  1  0.75000000  0.25000000  0.50000000  1
  Mo  Mo3  1  0.00000000  0.00000000  0.00000000  1
  O  O0  1  0.36869200  0.87500000  0.99369200  1
  O  O1  1  0.62500000  0.13130800  0.00630800  1
  O  O2  1  0.12500000  0.61869200  0.99369200  1
  O  O3  1  0.88130800  0.37500000  0.00630800  1
  O  O4  1  0.38130800  0.37500000  0.50630800  1
  O  O5  1  0.12500000  0.11869200  0.49369200  1
  O  O6  1  0.62500000  0.63130800  0.50630800  1
  O  O7  1  0.86869200  0.87500000  0.49369200  1
  O  O8  1  0.61570600  0.45380800  0.49810400  1
  O  O9  1  0.38239800  0.54429700  0.49810400  1
  O  O10  1  0.04619200  0.88429400  0.50189600  1
  O  O11  1  0.63429400  0.63239800  0.33810100  1
  O  O12  1  0.79429700  0.13239800  0.99810400  1
  O  O13  1  0.88239800  0.38429400  0.83810100  1
  O  O14  1  0.54619200  0.04429700  0.16189900  1
  O  O15  1  0.45570300  0.95380800  0.83810100  1
  O  O16  1  0.11570600  0.61760200  0.16189900  1
  O  O17  1  0.70380800  0.36570600  0.99810400  1
  O  O18  1  0.36760200  0.70570300  0.00189600  1
  O  O19  1  0.13429400  0.79619200  0.00189600  1
  O  O20  1  0.95570300  0.11760200  0.50189600  1
  O  O21  1  0.86760200  0.86570600  0.66189900  1
  O  O22  1  0.20380800  0.20570300  0.33810100  1
  O  O23  1  0.29429700  0.29619200  0.66189900  1
loop_
_geom_bond_atom_site_label_1
_geom_bond_atom_site_label_2
_geom_bond_distance
_geom_bond_site_symmetry_2
La0 O1 2.381736 1_555
La0 O2 2.381736 1_554
La0 O6 2.426387 1_555
La0 O5 2.426387 1_554
La0 O8 2.723357 1_555
La0 O20 2.723368 1_454
La0 O15 2.735176 1_544
La0 O16 2.735189 1_555
La1 O3 2.381736 1_455
La1 O0 2.381736 1_555
La1 O7 2.426387 1_455
La1 O4 2.426387 1_555
La1 O22 2.723361 1_555
La1 O21 2.723368 1_455
La1 O17 2.735178 1_454
La1 O18 2.735189 1_556
La2 O2 2.381736 1_655
La2 O1 2.381736 1_555
La2 O6 2.426387 1_555
La2 O5 2.426387 1_655
La2 O23 2.723361 1_655
La2 O11 2.723368 1_555
La2 O19 2.735178 1_656
La2 O12 2.735189 1_554
La3 O3 2.381736 1_455
La3 O0 2.381736 1_544
La3 O4 2.426387 1_555
La3 O7 2.426387 1_444
La3 O10 2.723357 1_544
La3 O9 2.723368 1_555
La3 O14 2.735176 1_555
La3 O13 2.735189 1_454
La4 O5 2.381736 1_565
La4 O6 2.381736 1_555
La4 O2 2.426387 1_554
La4 O1 2.426387 1_566
La4 O19 2.723357 1_555
La4 O12 2.723368 1_565
La4 O23 2.735176 1_565
La4 O11 2.735189 1_555
La5 O7 2.381736 1_555
La5 O4 2.381736 1_554
La5 O3 2.426387 1_555
La5 O0 2.426387 1_554
La5 O14 2.723361 1_565
La5 O13 2.723368 1_554
La5 O10 2.735178 1_655
La5 O9 2.735189 1_554
La6 O6 2.381736 1_554
La6 O5 2.381736 1_665
La6 O2 2.426387 1_654
La6 O1 2.426387 1_565
La6 O15 2.723361 1_554
La6 O16 2.723368 1_655
La6 O8 2.735178 1_554
La6 O20 2.735189 1_565
La7 O7 2.381736 1_545
La7 O4 2.381736 1_555
La7 O3 2.426387 1_556
La7 O0 2.426387 1_544
La7 O17 2.723357 1_555
La7 O18 2.723368 1_545
La7 O22 2.735176 1_555
La7 O21 2.735189 1_545
Mo0 O11 1.811907 1_555
Mo0 O18 1.811907 1_555
Mo0 O23 1.811917 1_554
Mo0 O17 1.811920 1_554
Mo1 O9 1.811907 1_555
Mo1 O16 1.811907 1_555
Mo1 O15 1.811917 1_555
Mo1 O10 1.811920 1_555
Mo2 O13 1.811907 1_555
Mo2 O20 1.811907 1_555
Mo2 O14 1.811917 1_555
Mo2 O8 1.811920 1_555
Mo3 O21 1.811907 1_444
Mo3 O12 1.811907 1_454
Mo3 O22 1.811917 1_555
Mo3 O19 1.811920 1_545
