# generated using pymatgen
data_Th3Fe33C4
_symmetry_space_group_name_H-M   'P 1'
_cell_length_a   6.51170974
_cell_length_b   7.87533138
_cell_length_c   21.76555526
_cell_angle_alpha   93.05526192
_cell_angle_beta   81.54102452
_cell_angle_gamma   114.46990793
_symmetry_Int_Tables_number   1
_chemical_formula_structural   Th3Fe33C4
_chemical_formula_sum   'Th6 Fe66 C8'
_cell_volume   1004.83421724
_cell_formula_units_Z   2
loop_
 _symmetry_equiv_pos_site_id
 _symmetry_equiv_pos_as_xyz
  1  'x, y, z'
loop_
 _atom_site_type_symbol
 _atom_site_label
 _atom_site_symmetry_multiplicity
 _atom_site_fract_x
 _atom_site_fract_y
 _atom_site_fract_z
 _atom_site_occupancy
  Th  Th0  1  0.95491400  0.74262800  0.08348000  1
  Th  Th1  1  0.29335000  0.74770400  0.41604100  1
  Th  Th2  1  0.62641800  0.74759800  0.74918700  1
  Th  Th3  1  0.37841900  0.25737200  0.24985300  1
  Th  Th4  1  0.70691500  0.25240200  0.58414600  1
  Th  Th5  1  0.03998400  0.25229600  0.91729300  1
  Fe  Fe0  1  0.50073300  0.50007300  0.00011700  1
  Fe  Fe1  1  0.83260000  0.49992700  0.33321600  1
  Fe  Fe2  1  0.16666700  0.50000000  0.66666700  1
  Fe  Fe3  1  0.16666700  0.50000000  0.16666700  1
  Fe  Fe4  1  0.49994100  0.50003400  0.49990500  1
  Fe  Fe5  1  0.83339200  0.49996600  0.83342800  1
  Fe  Fe6  1  0.50106600  0.00108500  0.00025000  1
  Fe  Fe7  1  0.83226700  0.99891500  0.33308300  1
  Fe  Fe8  1  0.16666700  0.00000000  0.66666700  1
  Fe  Fe9  1  0.66666700  0.00000000  0.16666700  1
  Fe  Fe10  1  0.99989300  0.00008900  0.49988300  1
  Fe  Fe11  1  0.33344000  0.99991100  0.83345000  1
  Fe  Fe12  1  0.21089400  0.57461900  0.27622600  1
  Fe  Fe13  1  0.54647400  0.57785100  0.60977600  1
  Fe  Fe14  1  0.87998600  0.57843000  0.94306900  1
  Fe  Fe15  1  0.71838600  0.33311800  0.02690900  1
  Fe  Fe16  1  0.04803500  0.32894700  0.35930000  1
  Fe  Fe17  1  0.38014600  0.32936500  0.69257900  1
  Fe  Fe18  1  0.46826800  0.42473700  0.10916300  1
  Fe  Fe19  1  0.79455100  0.42236500  0.44151000  1
  Fe  Fe20  1  0.12774900  0.42248200  0.77490000  1
  Fe  Fe21  1  0.06281600  0.82362900  0.30668600  1
  Fe  Fe22  1  0.39603900  0.82413500  0.64069700  1
  Fe  Fe23  1  0.72961600  0.82366700  0.97413400  1
  Fe  Fe24  1  0.07363700  0.17804500  0.13987300  1
  Fe  Fe25  1  0.40959800  0.17666300  0.47304600  1
  Fe  Fe26  1  0.74261600  0.17648000  0.80645700  1
  Fe  Fe27  1  0.90496100  0.91567800  0.22442200  1
  Fe  Fe28  1  0.23795400  0.91969000  0.55884200  1
  Fe  Fe29  1  0.57125600  0.91908300  0.89236600  1
  Fe  Fe30  1  0.55212700  0.66752000  0.19340000  1
  Fe  Fe31  1  0.88169000  0.67220400  0.52822100  1
  Fe  Fe32  1  0.21513000  0.67223600  0.86137900  1
  Fe  Fe33  1  0.82229200  0.08416100  0.05795100  1
  Fe  Fe34  1  0.15641000  0.08351800  0.39072500  1
  Fe  Fe35  1  0.48965000  0.08388100  0.72423500  1
  Fe  Fe36  1  0.12243900  0.42538100  0.05710700  1
  Fe  Fe37  1  0.45334800  0.42157000  0.39026500  1
  Fe  Fe38  1  0.78685900  0.42214900  0.72355700  1
  Fe  Fe39  1  0.61494800  0.66688200  0.30642500  1
  Fe  Fe40  1  0.95318700  0.67063500  0.64075400  1
  Fe  Fe41  1  0.28529800  0.67105300  0.97403300  1
  Fe  Fe42  1  0.86506500  0.57526300  0.22417000  1
  Fe  Fe43  1  0.20558400  0.57751800  0.55843300  1
  Fe  Fe44  1  0.53878300  0.57763500  0.89182400  1
  Fe  Fe45  1  0.27051800  0.17637100  0.02664800  1
  Fe  Fe46  1  0.60371700  0.17633300  0.35919900  1
  Fe  Fe47  1  0.93729400  0.17586500  0.69263600  1
  Fe  Fe48  1  0.25969600  0.82195500  0.19346000  1
  Fe  Fe49  1  0.59071800  0.82352000  0.52687700  1
  Fe  Fe50  1  0.92373500  0.82333700  0.86028700  1
  Fe  Fe51  1  0.42837200  0.08432200  0.10891100  1
  Fe  Fe52  1  0.76207800  0.08091700  0.44096800  1
  Fe  Fe53  1  0.09537900  0.08031000  0.77449100  1
  Fe  Fe54  1  0.78120500  0.33248000  0.13993300  1
  Fe  Fe55  1  0.11820300  0.32776400  0.47195400  1
  Fe  Fe56  1  0.45164400  0.32779600  0.80511300  1
  Fe  Fe57  1  0.51104100  0.91583900  0.27538200  1
  Fe  Fe58  1  0.84368300  0.91611900  0.60909800  1
  Fe  Fe59  1  0.17692400  0.91648200  0.94260900  1
  Fe  Fe60  1  0.87691600  0.25322900  0.24995600  1
  Fe  Fe61  1  0.21178500  0.25166700  0.58388500  1
  Fe  Fe62  1  0.54437400  0.25140200  0.91726400  1
  Fe  Fe63  1  0.45641700  0.74677100  0.08337700  1
  Fe  Fe64  1  0.78896000  0.74859800  0.41607000  1
  Fe  Fe65  1  0.12154800  0.74833300  0.74944800  1
  C  C0  1  0.99959300  0.49973300  0.49995200  1
  C  C1  1  0.33374000  0.50026700  0.83338100  1
  C  C2  1  0.99949800  0.99943100  0.00038100  1
  C  C3  1  0.33383500  0.00056900  0.33295200  1
  C  C4  1  0.66666700  0.00000000  0.66666700  1
  C  C5  1  0.16666700  0.00000000  0.16666700  1
  C  C6  1  0.50014400  0.99997300  0.49993200  1
  C  C7  1  0.83318900  0.00002700  0.83340100  1
loop_
_geom_bond_atom_site_label_1
_geom_bond_atom_site_label_2
_geom_bond_distance
_geom_bond_site_symmetry_2
Fe0 Fe23 2.407214 1_554
Fe0 Fe45 2.411597 1_555
Fe0 Fe44 2.417953 1_554
Fe0 Fe18 2.434856 1_555
Fe0 Fe36 2.435390 1_555
Fe0 Fe14 2.436896 1_554
Fe0 Fe15 2.438484 1_555
Fe0 Fe41 2.446247 1_554
Fe0 Fe63 2.660304 1_555
Fe0 Fe62 2.664921 1_554
Fe1 Fe46 2.407214 1_555
Fe1 Fe21 2.411594 1_655
Fe1 Fe19 2.417975 1_555
Fe1 Fe42 2.434856 1_555
Fe1 Fe12 2.435390 1_655
Fe1 Fe37 2.436898 1_555
Fe1 Fe39 2.438471 1_555
Fe1 Fe16 2.446247 1_655
Fe1 Fe60 2.660304 1_555
Fe1 Fe64 2.664933 1_555
Fe2 Fe47 2.411091 1_455
Fe2 Fe22 2.411094 1_555
Fe2 Fe20 2.415775 1_555
Fe2 Fe43 2.415798 1_555
Fe2 Fe40 2.432154 1_455
Fe2 Fe38 2.439188 1_455
Fe2 Fe65 2.664983 1_555
Fe2 Fe61 2.664994 1_555
Fe3 Fe48 2.410333 1_555
Fe3 Fe42 2.436590 1_455
Fe3 Fe30 2.446172 1_555
Fe3 Fe54 2.446191 1_455
Fe3 Fe36 2.455040 1_555
Fe3 Fe60 2.637175 1_455
Fe3 Fe63 2.637187 1_555
Fe4 Fe43 2.415965 1_555
Fe4 Fe49 2.424717 1_555
Fe4 Fe55 2.439851 1_555
Fe4 Fe61 2.649408 1_555
Fe4 Fe64 2.649881 1_555
Fe5 Fe50 2.423766 1_555
Fe5 Fe56 2.442749 1_555
Fe5 Fe65 2.649408 1_655
Fe5 Fe62 2.649893 1_555
Fe6 Fe62 2.645243 1_554
Fe6 Fe63 2.668047 1_545
Fe10 Fe49 2.436223 1_545
Fe10 Fe52 2.436286 1_555
Fe10 Fe28 2.436344 1_645
Fe10 Fe25 2.438690 1_655
Fe10 Fe55 2.450460 1_655
Fe10 Fe34 2.452451 1_655
Fe10 Fe58 2.453905 1_545
Fe10 Fe31 2.454429 1_545
Fe10 Fe64 2.689886 1_545
Fe10 Fe61 2.695071 1_655
Fe11 Fe26 2.436226 1_565
Fe11 Fe29 2.436305 1_555
Fe11 Fe53 2.436344 1_565
Fe11 Fe50 2.438690 1_455
Fe11 Fe32 2.450460 1_555
Fe11 Fe59 2.452470 1_555
Fe11 Fe35 2.453905 1_565
Fe11 Fe56 2.454423 1_565
Fe11 Fe62 2.689903 1_565
Fe11 Fe65 2.695071 1_555
Fe12 Fe3 2.455018 1_555
Fe12 Fe16 2.499264 1_555
Fe12 Fe30 2.517511 1_555
Fe12 Fe21 2.540627 1_555
Fe12 Fe57 2.585566 1_555
Fe12 Fe39 2.599369 1_555
Fe12 Fe48 2.614032 1_555
Fe12 Fe60 2.667262 1_455
Fe12 Fe42 2.667534 1_455
Fe12 Th3 3.111655 1_555
Fe12 Th1 3.292312 1_555
Fe13 Fe2 2.439191 1_555
Fe13 Fe4 2.467654 1_555
Fe13 Fe31 2.474830 1_555
Fe13 Fe17 2.509283 1_555
Fe13 Fe22 2.532856 1_555
Fe13 Fe58 2.562647 1_555
Fe13 Fe49 2.615193 1_555
Fe13 Fe40 2.621491 1_555
Fe13 Fe43 2.626959 1_555
Fe13 Fe61 2.689833 1_555
Fe13 Th4 3.141046 1_555
Fe13 Th2 3.274325 1_555
Fe14 Fe5 2.463593 1_555
Fe14 Fe32 2.476418 1_655
Fe14 Fe15 2.509244 1_556
Fe14 Fe23 2.525589 1_555
Fe14 Fe59 2.561080 1_655
Fe14 Fe50 2.609952 1_555
Fe14 Fe41 2.613059 1_655
Fe14 Fe44 2.626286 1_555
Fe14 Fe62 2.696035 1_555
Fe14 Th5 3.144555 1_655
Fe14 Th0 3.277931 1_556
Fe15 Fe33 2.476487 1_555
Fe15 Fe6 2.488202 1_555
Fe15 Fe18 2.521195 1_555
Fe15 Fe54 2.553072 1_555
Fe15 Fe36 2.599354 1_655
Fe15 Fe51 2.628078 1_555
Fe15 Fe45 2.655348 1_555
Fe15 Fe62 2.724181 1_554
Fe15 Th5 3.155206 1_654
Fe15 Th0 3.210730 1_555
Fe16 Fe7 2.471353 1_445
Fe16 Fe34 2.472778 1_555
Fe16 Fe19 2.542496 1_455
Fe16 Fe55 2.560589 1_555
Fe16 Fe52 2.612583 1_455
Fe16 Fe37 2.613073 1_555
Fe16 Fe46 2.633698 1_455
Fe16 Fe60 2.709196 1_455
Fe16 Th3 3.158254 1_555
Fe16 Th1 3.276404 1_555
Fe17 Fe2 2.432141 1_555
Fe17 Fe8 2.462965 1_555
Fe17 Fe35 2.479772 1_555
Fe17 Fe20 2.537995 1_555
Fe17 Fe56 2.561209 1_555
Fe17 Fe53 2.617487 1_555
Fe17 Fe38 2.621491 1_555
Fe17 Fe47 2.624574 1_455
Fe17 Fe61 2.688174 1_555
Fe17 Th4 3.146996 1_555
Fe17 Th2 3.272819 1_555
Fe18 Fe3 2.436593 1_555
Fe18 Fe24 2.514336 1_555
Fe18 Fe30 2.524170 1_555
Fe18 Fe51 2.583896 1_555
Fe18 Fe54 2.609361 1_555
Fe18 Fe45 2.632277 1_555
Fe18 Fe63 2.660731 1_555
Fe18 Fe36 2.667534 1_555
Fe18 Th0 3.110901 1_555
Fe18 Th3 3.274282 1_555
Fe19 Fe4 2.416977 1_555
Fe19 Fe37 2.626286 1_555
Fe19 Fe64 2.672779 1_555
Fe20 Fe5 2.415965 1_455
Fe20 Fe38 2.626959 1_455
Fe20 Fe65 2.671664 1_555
Fe21 Fe7 2.422405 1_455
Fe21 Fe42 2.632295 1_455
Fe21 Fe39 2.655348 1_455
Fe21 Fe64 2.688009 1_455
Fe22 Fe8 2.418772 1_565
Fe22 Fe40 2.624574 1_455
Fe22 Fe65 2.678797 1_555
Fe23 Fe6 2.424738 1_566
Fe23 Fe41 2.633698 1_555
Fe23 Fe63 2.683598 1_556
Fe24 Fe3 2.410337 1_555
Fe24 Fe9 2.425534 1_455
Fe24 Fe36 2.614032 1_555
Fe24 Fe54 2.650101 1_455
Fe24 Fe60 2.703062 1_455
Fe25 Fe4 2.423766 1_555
Fe25 Fe37 2.609934 1_555
Fe25 Fe61 2.718880 1_555
Fe26 Fe5 2.424713 1_555
Fe26 Fe38 2.615210 1_555
Fe26 Fe62 2.719294 1_555
Fe27 Fe9 2.438335 1_565
Fe27 Fe7 2.451478 1_555
Fe27 Fe30 2.479919 1_555
Fe27 Fe42 2.583896 1_555
Fe27 Fe39 2.628089 1_555
Fe27 Fe60 2.761113 1_565
Fe28 Fe8 2.426476 1_565
Fe28 Fe40 2.617487 1_455
Fe28 Fe61 2.711314 1_565
Fe29 Fe6 2.430413 1_566
Fe29 Fe41 2.612572 1_555
Fe29 Fe62 2.715525 1_565
Fe30 Fe9 2.483482 1_565
Fe30 Fe39 2.553098 1_555
Fe30 Fe42 2.609367 1_555
Fe30 Fe57 2.645933 1_555
Fe30 Fe48 2.650095 1_555
Fe30 Fe63 2.726400 1_555
Fe30 Th0 3.157929 1_555
Fe30 Th3 3.195290 1_555
Fe31 Fe4 2.442762 1_555
Fe31 Fe40 2.561185 1_555
Fe31 Fe64 2.752515 1_555
Fe32 Fe5 2.439851 1_455
Fe32 Fe41 2.560589 1_555
Fe32 Fe65 2.749673 1_555
Fe33 Fe6 2.435613 1_555
Fe33 Fe9 2.443507 1_555
Fe33 Fe36 2.585566 1_655
Fe33 Fe54 2.645935 1_555
Fe33 Fe63 2.750813 1_545
Fe34 Fe7 2.449095 1_445
Fe34 Fe37 2.561080 1_555
Fe34 Fe64 2.743158 1_445
Fe35 Fe8 2.442503 1_555
Fe35 Fe38 2.562647 1_555
Fe35 Fe65 2.747712 1_545
Fe36 Fe41 2.499264 1_554
Fe36 Fe54 2.517516 1_455
Fe36 Fe45 2.540628 1_555
Fe36 Fe63 2.667262 1_555
Fe36 Th0 3.111655 1_455
Fe36 Th5 3.292291 1_554
Fe37 Fe4 2.463571 1_555
Fe37 Fe55 2.476409 1_555
Fe37 Fe39 2.509244 1_555
Fe37 Fe46 2.525588 1_555
Fe37 Fe64 2.696035 1_555
Fe37 Th1 3.144555 1_555
Fe37 Th3 3.277953 1_555
Fe38 Fe5 2.467654 1_555
Fe38 Fe56 2.474839 1_555
Fe38 Fe40 2.509283 1_555
Fe38 Fe47 2.532856 1_555
Fe38 Fe65 2.689833 1_655
Fe38 Th2 3.141046 1_555
Fe38 Th4 3.274325 1_555
Fe39 Fe57 2.476499 1_555
Fe39 Fe7 2.488196 1_555
Fe39 Fe42 2.521204 1_555
Fe39 Fe64 2.724181 1_555
Fe39 Th1 3.155206 1_555
Fe39 Th3 3.210739 1_555
Fe40 Fe8 2.462971 1_665
Fe40 Fe58 2.479772 1_555
Fe40 Fe43 2.537995 1_655
Fe40 Fe65 2.688174 1_655
Fe40 Th2 3.146996 1_555
Fe40 Th4 3.272819 1_555
Fe41 Fe6 2.471353 1_566
Fe41 Fe59 2.472766 1_555
Fe41 Fe44 2.542487 1_555
Fe41 Fe63 2.709196 1_556
Fe41 Th0 3.158254 1_456
Fe41 Th5 3.276395 1_555
Fe42 Fe48 2.514336 1_655
Fe42 Fe54 2.524170 1_555
Fe42 Fe60 2.660731 1_555
Fe42 Th3 3.110901 1_555
Fe42 Th0 3.274282 1_555
Fe43 Fe61 2.671664 1_555
Fe44 Fe5 2.416980 1_555
Fe44 Fe62 2.672779 1_555
Fe45 Fe6 2.422402 1_555
Fe45 Fe62 2.688009 1_554
Fe46 Fe7 2.424738 1_545
Fe46 Fe60 2.683598 1_555
Fe47 Fe8 2.418775 1_655
Fe47 Fe61 2.678797 1_655
Fe48 Fe9 2.425537 1_565
Fe48 Fe63 2.703062 1_555
Fe49 Fe64 2.719294 1_555
Fe50 Fe65 2.718880 1_655
Fe51 Fe9 2.438354 1_555
Fe51 Fe6 2.451478 1_555
Fe51 Fe54 2.479915 1_555
Fe51 Fe63 2.761113 1_545
Fe52 Fe7 2.430432 1_545
Fe52 Fe64 2.715525 1_545
Fe53 Fe8 2.426457 1_555
Fe53 Fe65 2.711314 1_545
Fe54 Fe9 2.483489 1_555
Fe54 Fe60 2.726403 1_555
Fe54 Th3 3.157925 1_555
Fe54 Th0 3.195289 1_555
Fe55 Fe61 2.749673 1_555
Fe56 Fe62 2.752515 1_555
Fe57 Fe7 2.435613 1_555
Fe57 Fe9 2.443488 1_565
Fe57 Fe60 2.750813 1_565
Fe58 Fe8 2.442522 1_665
Fe58 Fe61 2.747712 1_665
Fe59 Fe6 2.449077 1_566
Fe59 Fe62 2.743158 1_565
Fe60 Fe7 2.668047 1_545
Fe60 Fe9 2.687147 1_555
Fe60 Th3 3.251934 1_655
Fe60 Th3 3.260048 1_555
Fe61 Fe8 2.646413 1_555
Fe61 Th4 3.222590 1_555
Fe61 Th4 3.289138 1_455
Fe62 Th5 3.224451 1_655
Fe62 Th5 3.287271 1_555
Fe63 Fe9 2.687164 1_565
Fe63 Th0 3.251934 1_455
Fe63 Th0 3.260048 1_555
Fe64 Fe7 2.645260 1_555
Fe64 Th1 3.224451 1_555
Fe64 Th1 3.287271 1_655
Fe65 Fe8 2.646395 1_565
Fe65 Th2 3.222590 1_455
Fe65 Th2 3.289138 1_555
C0 Fe55 1.855303 1_655
C0 Fe31 1.857078 1_555
C0 Fe19 1.874854 1_555
C0 Fe43 1.879673 1_655
C0 Th4 2.657448 1_555
C0 Th1 2.658202 1_655
C1 Fe32 1.855303 1_555
C1 Fe56 1.857078 1_555
C1 Fe44 1.874875 1_555
C1 Fe20 1.879673 1_555
C1 Th2 2.657448 1_555
C1 Th5 2.658214 1_555
C2 Fe59 1.858221 1_654
C2 Fe33 1.862861 1_565
C2 Fe23 1.877938 1_554
C2 Fe45 1.886207 1_665
C2 Th5 2.667280 1_664
C2 Th0 2.682320 1_555
C3 Fe34 1.858229 1_555
C3 Fe57 1.862861 1_545
C3 Fe46 1.877938 1_555
C3 Fe21 1.886194 1_545
C3 Th1 2.667297 1_545
C3 Th3 2.682320 1_555
C4 Fe35 1.858150 1_555
C4 Fe58 1.858158 1_545
C4 Fe47 1.879055 1_555
C4 Fe22 1.879068 1_545
C4 Th2 2.656367 1_545
C4 Th4 2.656385 1_555
C5 Fe27 1.856494 1_445
C5 Fe51 1.856502 1_555
C5 Fe48 1.888882 1_545
C5 Fe24 1.888895 1_555
C5 Th3 2.704769 1_555
C5 Th0 2.704787 1_445
C6 Fe49 1.868282 1_555
C6 Fe25 1.869310 1_565
C6 Fe52 1.872192 1_565
C6 Fe28 1.872650 1_555
C6 Th1 2.686023 1_555
C6 Th4 2.691628 1_565
C7 Fe26 1.868269 1_555
C7 Fe50 1.869310 1_545
C7 Fe29 1.872200 1_545
C7 Fe53 1.872650 1_655
C7 Th5 2.686041 1_655
C7 Th2 2.691628 1_545
