# generated using pymatgen
data_Yb5Sn4
_symmetry_space_group_name_H-M   'P 1'
_cell_length_a   7.97394500
_cell_length_b   8.42037600
_cell_length_c   16.42755400
_cell_angle_alpha   90.00000000
_cell_angle_beta   90.00000000
_cell_angle_gamma   90.00000000
_symmetry_Int_Tables_number   1
_chemical_formula_structural   Yb5Sn4
_chemical_formula_sum   'Yb20 Sn16'
_cell_volume   1103.00536287
_cell_formula_units_Z   4
loop_
 _symmetry_equiv_pos_site_id
 _symmetry_equiv_pos_as_xyz
  1  'x, y, z'
loop_
 _atom_site_type_symbol
 _atom_site_label
 _atom_site_symmetry_multiplicity
 _atom_site_fract_x
 _atom_site_fract_y
 _atom_site_fract_z
 _atom_site_occupancy
  Yb  Yb0  1  0.64623000  0.17887800  0.62403300  1
  Yb  Yb1  1  0.14623000  0.32112200  0.87596700  1
  Yb  Yb2  1  0.35377000  0.82112200  0.12403300  1
  Yb  Yb3  1  0.85377000  0.67887800  0.37596700  1
  Yb  Yb4  1  0.35377000  0.82112200  0.37596700  1
  Yb  Yb5  1  0.85377000  0.67887800  0.12403300  1
  Yb  Yb6  1  0.64623000  0.17887800  0.87596700  1
  Yb  Yb7  1  0.14623000  0.32112200  0.62403300  1
  Yb  Yb8  1  0.48278200  0.68224500  0.59868200  1
  Yb  Yb9  1  0.98278200  0.81775500  0.90131800  1
  Yb  Yb10  1  0.51721800  0.31775500  0.09868200  1
  Yb  Yb11  1  0.01721800  0.18224500  0.40131800  1
  Yb  Yb12  1  0.51721800  0.31775500  0.40131800  1
  Yb  Yb13  1  0.01721800  0.18224500  0.09868200  1
  Yb  Yb14  1  0.48278200  0.68224500  0.90131800  1
  Yb  Yb15  1  0.98278200  0.81775500  0.59868200  1
  Yb  Yb16  1  0.81665400  0.49897900  0.75000000  1
  Yb  Yb17  1  0.31665400  0.00102100  0.75000000  1
  Yb  Yb18  1  0.18334600  0.50102100  0.25000000  1
  Yb  Yb19  1  0.68334600  0.99897900  0.25000000  1
  Sn  Sn0  1  0.67830800  0.97362700  0.46420200  1
  Sn  Sn1  1  0.17830800  0.52637300  0.03579800  1
  Sn  Sn2  1  0.32169200  0.02637300  0.96420200  1
  Sn  Sn3  1  0.82169200  0.47362700  0.53579800  1
  Sn  Sn4  1  0.32169200  0.02637300  0.53579800  1
  Sn  Sn5  1  0.82169200  0.47362700  0.96420200  1
  Sn  Sn6  1  0.67830800  0.97362700  0.03579800  1
  Sn  Sn7  1  0.17830800  0.52637300  0.46420200  1
  Sn  Sn8  1  0.44105400  0.39100300  0.75000000  1
  Sn  Sn9  1  0.94105400  0.10899700  0.75000000  1
  Sn  Sn10  1  0.55894600  0.60899700  0.25000000  1
  Sn  Sn11  1  0.05894600  0.89100300  0.25000000  1
  Sn  Sn12  1  0.69077400  0.86148900  0.75000000  1
  Sn  Sn13  1  0.19077400  0.63851100  0.75000000  1
  Sn  Sn14  1  0.30922600  0.13851100  0.25000000  1
  Sn  Sn15  1  0.80922600  0.36148900  0.25000000  1
loop_
_geom_bond_atom_site_label_1
_geom_bond_atom_site_label_2
_geom_bond_distance
_geom_bond_site_symmetry_2
Sn0 Sn4 3.109156 1_565
Sn0 Yb0 3.153785 1_565
Sn0 Yb3 3.196619 1_555
Sn0 Yb4 3.232183 1_555
Sn0 Yb12 3.333728 1_565
Sn0 Yb11 3.384697 1_665
Sn0 Yb19 3.525513 1_555
Sn0 Yb15 3.535198 1_555
Sn0 Yb8 3.651190 1_555
Sn1 Sn5 3.109156 1_454
Sn1 Yb1 3.153785 1_554
Sn1 Yb2 3.196619 1_555
Sn1 Yb5 3.232183 1_455
Sn1 Yb13 3.333728 1_555
Sn1 Yb10 3.384697 1_555
Sn1 Yb18 3.525513 1_555
Sn1 Yb14 3.535198 1_554
Sn1 Yb9 3.651190 1_454
Sn2 Sn6 3.109156 1_546
Sn2 Yb2 3.153785 1_546
Sn2 Yb1 3.196619 1_555
Sn2 Yb6 3.232183 1_555
Sn2 Yb14 3.333728 1_545
Sn2 Yb9 3.384697 1_445
Sn2 Yb17 3.525513 1_555
Sn2 Yb13 3.535198 1_556
Sn2 Yb10 3.651190 1_556
Sn3 Sn7 3.109156 1_655
Sn3 Yb3 3.153785 1_555
Sn3 Yb0 3.196619 1_555
Sn3 Yb7 3.232183 1_655
Sn3 Yb15 3.333728 1_555
Sn3 Yb8 3.384697 1_555
Sn3 Yb16 3.525513 1_555
Sn3 Yb12 3.535198 1_555
Sn3 Yb11 3.651190 1_655
Sn4 Yb4 3.153785 1_545
Sn4 Yb7 3.196619 1_555
Sn4 Yb0 3.232183 1_555
Sn4 Yb8 3.333728 1_545
Sn4 Yb15 3.384697 1_445
Sn4 Yb17 3.525513 1_555
Sn4 Yb11 3.535198 1_555
Sn4 Yb12 3.651190 1_555
Sn5 Yb5 3.153785 1_556
Sn5 Yb6 3.196619 1_555
Sn5 Yb1 3.232183 1_655
Sn5 Yb9 3.333728 1_555
Sn5 Yb14 3.384697 1_555
Sn5 Yb16 3.525513 1_555
Sn5 Yb10 3.535198 1_556
Sn5 Yb13 3.651190 1_656
Sn6 Yb6 3.153785 1_564
Sn6 Yb5 3.196619 1_555
Sn6 Yb2 3.232183 1_555
Sn6 Yb10 3.333728 1_565
Sn6 Yb13 3.384697 1_665
Sn6 Yb19 3.525513 1_555
Sn6 Yb9 3.535198 1_554
Sn6 Yb14 3.651190 1_554
Sn7 Yb7 3.153785 1_555
Sn7 Yb4 3.196619 1_555
Sn7 Yb3 3.232183 1_455
Sn7 Yb11 3.333728 1_555
Sn7 Yb12 3.384697 1_555
Sn7 Yb18 3.525513 1_555
Sn7 Yb8 3.535198 1_555
Sn7 Yb15 3.651190 1_455
Sn8 Yb16 3.129976 1_555
Sn8 Yb6 3.185787 1_555
Sn8 Yb0 3.185787 1_555
Sn8 Yb7 3.186714 1_555
Sn8 Yb1 3.186714 1_555
Sn8 Yb17 3.430349 1_555
Sn8 Yb14 3.507698 1_555
Sn8 Yb8 3.507698 1_555
Sn9 Yb17 3.129976 1_655
Sn9 Yb1 3.185787 1_655
Sn9 Yb7 3.185787 1_655
Sn9 Yb6 3.186714 1_555
Sn9 Yb0 3.186714 1_555
Sn9 Yb16 3.430349 1_555
Sn9 Yb15 3.507698 1_545
Sn9 Yb9 3.507698 1_545
Sn10 Sn15 2.885552 1_555
Sn10 Yb18 3.129976 1_555
Sn10 Yb2 3.185787 1_555
Sn10 Yb4 3.185787 1_555
Sn10 Yb5 3.186714 1_555
Sn10 Yb3 3.186714 1_555
Sn10 Yb19 3.430349 1_555
Sn10 Yb10 3.507698 1_555
Sn10 Yb12 3.507698 1_555
Sn11 Sn14 2.885552 1_565
Sn11 Yb19 3.129976 1_455
Sn11 Yb5 3.185787 1_455
Sn11 Yb3 3.185787 1_455
Sn11 Yb2 3.186714 1_555
Sn11 Yb4 3.186714 1_555
Sn11 Yb18 3.430349 1_555
Sn11 Yb13 3.507698 1_565
Sn11 Yb11 3.507698 1_565
Sn12 Sn9 2.885552 1_565
Sn12 Yb17 3.206240 1_565
Sn12 Yb16 3.213271 1_555
Sn12 Yb8 3.347805 1_555
Sn12 Yb14 3.347805 1_555
Sn12 Yb6 3.398636 1_565
Sn12 Yb0 3.398636 1_565
Sn12 Yb9 3.425849 1_555
Sn12 Yb15 3.425849 1_555
Sn13 Sn8 2.885552 1_555
Sn13 Yb16 3.206240 1_455
Sn13 Yb17 3.213271 1_565
Sn13 Yb15 3.347805 1_455
Sn13 Yb9 3.347805 1_455
Sn13 Yb7 3.398636 1_555
Sn13 Yb1 3.398636 1_555
Sn13 Yb8 3.425849 1_555
Sn13 Yb14 3.425849 1_555
Sn14 Yb19 3.206240 1_545
Sn14 Yb18 3.213271 1_555
Sn14 Yb12 3.347805 1_555
Sn14 Yb10 3.347805 1_555
Sn14 Yb2 3.398636 1_545
Sn14 Yb4 3.398636 1_545
Sn14 Yb11 3.425849 1_555
Sn14 Yb13 3.425849 1_555
Sn15 Yb18 3.206240 1_655
Sn15 Yb19 3.213271 1_545
Sn15 Yb13 3.347805 1_655
Sn15 Yb11 3.347805 1_655
Sn15 Yb3 3.398636 1_555
Sn15 Yb5 3.398636 1_555
Sn15 Yb10 3.425849 1_555
Sn15 Yb12 3.425849 1_555
