# generated using pymatgen
data_YTa(WO4)2
_symmetry_space_group_name_H-M   'P 1'
_cell_length_a   5.84250000
_cell_length_b   5.47366000
_cell_length_c   10.98148337
_cell_angle_alpha   61.98132043
_cell_angle_beta   90.00000000
_cell_angle_gamma   90.00000000
_symmetry_Int_Tables_number   1
_chemical_formula_structural   YTa(WO4)2
_chemical_formula_sum   'Y2 Ta2 W4 O16'
_cell_volume   310.02531687
_cell_formula_units_Z   2
loop_
 _symmetry_equiv_pos_site_id
 _symmetry_equiv_pos_as_xyz
  1  'x, y, z'
loop_
 _atom_site_type_symbol
 _atom_site_label
 _atom_site_symmetry_multiplicity
 _atom_site_fract_x
 _atom_site_fract_y
 _atom_site_fract_z
 _atom_site_occupancy
  Y  Y0  1  0.66466900  0.50000000  0.75000000  1
  Y  Y1  1  0.33533100  0.50000000  0.25000000  1
  Ta  Ta0  1  0.33773600  0.00000000  0.75000000  1
  Ta  Ta1  1  0.66226400  0.00000000  0.25000000  1
  W  W0  1  0.15130900  0.75544600  0.49977700  1
  W  W1  1  0.15130900  0.24455400  0.00022300  1
  W  W2  1  0.84869100  0.24455400  0.50022300  1
  W  W3  1  0.84869100  0.75544600  0.99977700  1
  O  O0  1  0.35825500  0.20365500  0.85942100  1
  O  O1  1  0.35825500  0.79634500  0.64057900  1
  O  O2  1  0.64174500  0.79634500  0.14057900  1
  O  O3  1  0.64174500  0.20365500  0.35942100  1
  O  O4  1  0.88667000  0.70649300  0.38140200  1
  O  O5  1  0.88667000  0.29350700  0.11859800  1
  O  O6  1  0.11333000  0.29350700  0.61859800  1
  O  O7  1  0.11333000  0.70649300  0.88140200  1
  O  O8  1  0.59772800  0.75029300  0.86654700  1
  O  O9  1  0.59772800  0.24970700  0.63345300  1
  O  O10  1  0.40227200  0.24970700  0.13345300  1
  O  O11  1  0.40227200  0.75029300  0.36654700  1
  O  O12  1  0.88684900  0.18550600  0.89728300  1
  O  O13  1  0.11315100  0.81449400  0.10271700  1
  O  O14  1  0.88684900  0.81449400  0.60271700  1
  O  O15  1  0.11315100  0.18550600  0.39728300  1
loop_
_geom_bond_atom_site_label_1
_geom_bond_atom_site_label_2
_geom_bond_distance
_geom_bond_site_symmetry_2
O0 Ta0 1.989806 1_555
O0 W1 2.056207 1_556
O0 Y0 2.334247 1_555
O1 Ta0 1.989806 1_565
O1 W0 2.056207 1_555
O1 Y0 2.334247 1_555
O2 Ta1 1.989806 1_565
O2 W3 2.056207 1_554
O2 Y1 2.334247 1_555
O3 Ta1 1.989806 1_555
O3 W2 2.056207 1_555
O3 Y1 2.334247 1_555
O4 Ta1 2.050408 1_565
O4 W0 2.116475 1_655
O4 W2 2.246197 1_555
O5 Ta1 2.050408 1_555
O5 W1 2.116475 1_655
O5 W3 2.246197 1_554
O6 Ta0 2.050408 1_555
O6 W2 2.116475 1_455
O6 W0 2.246197 1_555
O7 Ta0 2.050408 1_565
O7 W3 2.116475 1_455
O7 W1 2.246197 1_556
O8 Ta0 2.042072 1_565
O8 W3 2.080868 1_555
O8 Y0 2.305501 1_555
O9 Ta0 2.042072 1_555
O9 W2 2.080868 1_555
O9 Y0 2.305501 1_555
O10 Ta1 2.042072 1_555
O10 W1 2.080868 1_555
O10 Y1 2.305501 1_555
O11 Ta1 2.042072 1_565
O11 W0 2.080868 1_555
O11 Y1 2.305501 1_555
O12 W1 2.028046 1_656
O12 W3 2.090117 1_545
O12 Y0 2.156031 1_555
O13 W3 2.028046 1_454
O13 W1 2.090117 1_565
O13 Y1 2.156031 1_555
O14 W0 2.028046 1_655
O14 W2 2.090117 1_565
O14 Y0 2.156031 1_555
O15 W2 2.028046 1_455
O15 W0 2.090117 1_545
O15 Y1 2.156031 1_555
