# generated using pymatgen
data_Sr3Sm2(BO3)4
_symmetry_space_group_name_H-M   'P 1'
_cell_length_a   7.42272000
_cell_length_b   8.80107300
_cell_length_c   16.56943600
_cell_angle_alpha   90.00000000
_cell_angle_beta   90.00000000
_cell_angle_gamma   90.00000000
_symmetry_Int_Tables_number   1
_chemical_formula_structural   Sr3Sm2(BO3)4
_chemical_formula_sum   'Sr12 Sm8 B16 O48'
_cell_volume   1082.44646765
_cell_formula_units_Z   4
loop_
 _symmetry_equiv_pos_site_id
 _symmetry_equiv_pos_as_xyz
  1  'x, y, z'
loop_
 _atom_site_type_symbol
 _atom_site_label
 _atom_site_symmetry_multiplicity
 _atom_site_fract_x
 _atom_site_fract_y
 _atom_site_fract_z
 _atom_site_occupancy
  Sr  Sr0  1  0.02855100  0.32951000  0.45829200  1
  Sr  Sr1  1  0.97144900  0.67049000  0.95829200  1
  Sr  Sr2  1  0.52855100  0.17049000  0.45829200  1
  Sr  Sr3  1  0.47144900  0.82951000  0.95829200  1
  Sr  Sr4  1  0.17959700  0.84802800  0.41363600  1
  Sr  Sr5  1  0.82040300  0.15197200  0.91363600  1
  Sr  Sr6  1  0.67959700  0.65197200  0.41363600  1
  Sr  Sr7  1  0.32040300  0.34802800  0.91363600  1
  Sr  Sr8  1  0.31294700  0.35078200  0.66436700  1
  Sr  Sr9  1  0.68705300  0.64921800  0.16436700  1
  Sr  Sr10  1  0.81294700  0.14921800  0.66436700  1
  Sr  Sr11  1  0.18705300  0.85078200  0.16436700  1
  Sm  Sm0  1  0.31814400  0.46518200  0.29021900  1
  Sm  Sm1  1  0.68185600  0.53481800  0.79021900  1
  Sm  Sm2  1  0.81814400  0.03481800  0.29021900  1
  Sm  Sm3  1  0.18185600  0.96518200  0.79021900  1
  Sm  Sm4  1  0.03075200  0.32952300  0.11987800  1
  Sm  Sm5  1  0.96924800  0.67047700  0.61987800  1
  Sm  Sm6  1  0.53075200  0.17047700  0.11987800  1
  Sm  Sm7  1  0.46924800  0.82952300  0.61987800  1
  B  B0  1  0.17054900  0.06106700  0.99785800  1
  B  B1  1  0.82945100  0.93893300  0.49785800  1
  B  B2  1  0.67054900  0.43893300  0.99785800  1
  B  B3  1  0.32945100  0.56106700  0.49785800  1
  B  B4  1  0.00815300  0.37263900  0.78688000  1
  B  B5  1  0.99184700  0.62736100  0.28688000  1
  B  B6  1  0.50815300  0.12736100  0.78688000  1
  B  B7  1  0.49184700  0.87263900  0.28688000  1
  B  B8  1  0.16082500  0.04471300  0.58462500  1
  B  B9  1  0.83917500  0.95528700  0.08462500  1
  B  B10  1  0.66082500  0.45528700  0.58462500  1
  B  B11  1  0.33917500  0.54471300  0.08462500  1
  B  B12  1  0.21689000  0.14610500  0.28741600  1
  B  B13  1  0.78311000  0.85389500  0.78741600  1
  B  B14  1  0.71689000  0.35389500  0.28741600  1
  B  B15  1  0.28311000  0.64610500  0.78741600  1
  O  O0  1  0.24562500  0.22028300  0.21396200  1
  O  O1  1  0.75437500  0.77971700  0.71396200  1
  O  O2  1  0.74562500  0.27971700  0.21396200  1
  O  O3  1  0.25437500  0.72028300  0.71396200  1
  O  O4  1  0.09293700  0.19035300  0.58443900  1
  O  O5  1  0.90706300  0.80964700  0.08443900  1
  O  O6  1  0.59293700  0.30964700  0.58443900  1
  O  O7  1  0.40706300  0.69035300  0.08443900  1
  O  O8  1  0.09271700  0.20551400  0.00051800  1
  O  O9  1  0.90728300  0.79448600  0.50051800  1
  O  O10  1  0.59271700  0.29448600  0.00051800  1
  O  O11  1  0.40728300  0.70551400  0.50051800  1
  O  O12  1  0.13179000  0.00843900  0.29070300  1
  O  O13  1  0.86821000  0.99156100  0.79070300  1
  O  O14  1  0.63179000  0.49156100  0.29070300  1
  O  O15  1  0.36821000  0.50843900  0.79070300  1
  O  O16  1  0.19865200  0.50297700  0.03393400  1
  O  O17  1  0.80134800  0.49702300  0.53393400  1
  O  O18  1  0.69865200  0.99702300  0.03393400  1
  O  O19  1  0.30134800  0.00297700  0.53393400  1
  O  O20  1  0.11092500  0.24113000  0.78416600  1
  O  O21  1  0.88907500  0.75887000  0.28416600  1
  O  O22  1  0.61092500  0.25887000  0.78416600  1
  O  O23  1  0.38907500  0.74113000  0.28416600  1
  O  O24  1  0.04710800  0.55197900  0.21578800  1
  O  O25  1  0.95289200  0.44802100  0.71578800  1
  O  O26  1  0.54710800  0.94802100  0.21578800  1
  O  O27  1  0.45289200  0.05197900  0.71578800  1
  O  O28  1  0.26792200  0.22424500  0.35589700  1
  O  O29  1  0.73207800  0.77575500  0.85589700  1
  O  O30  1  0.76792200  0.27575500  0.35589700  1
  O  O31  1  0.23207800  0.72424500  0.85589700  1
  O  O32  1  0.38373300  0.46220100  0.43801600  1
  O  O33  1  0.61626700  0.53779900  0.93801600  1
  O  O34  1  0.88373300  0.03779900  0.43801600  1
  O  O35  1  0.11626700  0.96220100  0.93801600  1
  O  O36  1  0.40456900  0.43744400  0.13984900  1
  O  O37  1  0.59543100  0.56255600  0.63984900  1
  O  O38  1  0.90456900  0.06255600  0.13984900  1
  O  O39  1  0.09543100  0.93744400  0.63984900  1
  O  O40  1  0.30537400  0.02622000  0.05314200  1
  O  O41  1  0.69462600  0.97378000  0.55314200  1
  O  O42  1  0.80537400  0.47378000  0.05314200  1
  O  O43  1  0.19462600  0.52622000  0.55314200  1
  O  O44  1  0.05741100  0.57089000  0.35941500  1
  O  O45  1  0.94258900  0.42911000  0.85941500  1
  O  O46  1  0.55741100  0.92911000  0.35941500  1
  O  O47  1  0.44258900  0.07089000  0.85941500  1
loop_
_geom_bond_atom_site_label_1
_geom_bond_atom_site_label_2
_geom_bond_distance
_geom_bond_site_symmetry_2
B0 O35 1.379360 1_545
B0 O40 1.390934 1_556
B0 O8 1.397098 1_556
B1 O34 1.379360 1_565
B1 O41 1.390934 1_555
B1 O9 1.397098 1_555
B2 O33 1.379360 1_555
B2 O42 1.390934 1_556
B2 O10 1.397098 1_556
B3 O32 1.379360 1_555
B3 O43 1.390934 1_555
B3 O11 1.397098 1_555
B4 O20 1.386932 1_555
B4 O45 1.388644 1_455
B4 O25 1.412794 1_455
B5 O21 1.386932 1_555
B5 O44 1.388644 1_655
B5 O24 1.412794 1_655
B6 O22 1.386932 1_555
B6 O47 1.388644 1_555
B6 O27 1.412794 1_555
B7 O23 1.386932 1_555
B7 O46 1.388644 1_555
B7 O26 1.412794 1_555
B8 O4 1.377287 1_555
B8 O19 1.388659 1_555
B8 O39 1.401494 1_545
B9 O5 1.377287 1_555
B9 O18 1.388659 1_555
B9 O38 1.401494 1_565
B10 O6 1.377287 1_555
B10 O17 1.388659 1_555
B10 O37 1.401494 1_555
B11 O7 1.377287 1_555
B11 O16 1.388659 1_555
B11 O36 1.401494 1_555
B12 O12 1.367470 1_555
B12 O28 1.379842 1_555
B12 O0 1.397502 1_555
B13 O13 1.367470 1_555
B13 O29 1.379842 1_555
B13 O1 1.397502 1_555
B14 O14 1.367470 1_555
B14 O30 1.379842 1_555
B14 O2 1.397502 1_555
B15 O15 1.367470 1_555
B15 O31 1.379842 1_555
B15 O3 1.397502 1_555
O0 Sm4 2.428665 1_555
O0 Sm0 2.555761 1_555
O0 Sm6 2.664883 1_555
O1 Sm5 2.428665 1_555
O1 Sm1 2.555761 1_555
O1 Sm7 2.664883 1_555
O2 Sm6 2.428665 1_555
O2 Sm2 2.555761 1_555
O2 Sm4 2.664883 1_655
O3 Sm7 2.428665 1_555
O3 Sm3 2.555761 1_555
O3 Sm5 2.664883 1_455
O4 Sr0 2.469260 1_555
O4 Sr10 2.490839 1_455
O4 Sr8 2.532678 1_555
O5 Sr1 2.469260 1_554
O5 Sr11 2.490839 1_655
O5 Sr9 2.532678 1_555
O6 Sr2 2.469260 1_555
O6 Sr8 2.490839 1_555
O6 Sr10 2.532678 1_555
O7 Sr3 2.469260 1_554
O7 Sr9 2.490839 1_555
O7 Sr11 2.532678 1_555
O8 Sm4 2.305242 1_555
O8 Sr5 2.525898 1_454
O8 Sr7 2.549879 1_554
O9 Sm5 2.305242 1_555
O9 Sr4 2.525898 1_655
O9 Sr6 2.549879 1_555
O10 Sm6 2.305242 1_555
O10 Sr7 2.525898 1_554
O10 Sr5 2.549879 1_554
O11 Sm7 2.305242 1_555
O11 Sr6 2.525898 1_555
O11 Sr4 2.549879 1_555
O12 Sm2 2.339667 1_455
O12 Sr4 2.503629 1_545
O12 Sr11 2.544707 1_545
O13 Sm3 2.339667 1_655
O13 Sr5 2.503629 1_565
O13 Sr10 2.544707 1_565
O14 Sm0 2.339667 1_555
O14 Sr6 2.503629 1_555
O14 Sr9 2.544707 1_555
O15 Sm1 2.339667 1_555
O15 Sr7 2.503629 1_555
O15 Sr8 2.544707 1_555
O16 Sm4 2.431368 1_555
O16 Sr1 2.566823 1_454
O16 Sr7 2.578675 1_554
O17 Sm5 2.431368 1_555
O17 Sr0 2.566823 1_655
O17 Sr6 2.578675 1_555
O18 Sm6 2.431368 1_565
O18 Sr3 2.566823 1_554
O18 Sr5 2.578675 1_564
O19 Sm7 2.431368 1_545
O19 Sr2 2.566823 1_555
O19 Sr4 2.578675 1_545
O20 Sm3 2.487076 1_545
O20 Sr8 2.668374 1_555
O20 Sr7 2.811568 1_555
O20 Sr10 3.080046 1_455
O20 Sr5 3.141360 1_455
O21 Sm2 2.487076 1_565
O21 Sr9 2.668374 1_555
O21 Sr6 2.811568 1_555
O21 Sr11 3.080046 1_655
O21 Sr4 3.141360 1_655
O22 Sm1 2.487076 1_555
O22 Sr10 2.668374 1_555
O22 Sr5 2.811568 1_555
O22 Sr8 3.080046 1_555
O22 Sr7 3.141360 1_555
O23 Sm0 2.487076 1_555
O23 Sr11 2.668374 1_555
O23 Sr4 2.811568 1_555
O23 Sr9 3.080046 1_555
O23 Sr6 3.141360 1_555
O24 Sm0 2.480316 1_555
O24 Sm4 2.524559 1_555
O24 Sr9 2.932757 1_455
O24 Sr11 2.953093 1_555
O25 Sm1 2.480316 1_555
O25 Sm5 2.524559 1_555
O25 Sr8 2.932757 1_655
O25 Sr10 2.953093 1_555
O26 Sm2 2.480316 1_565
O26 Sm6 2.524559 1_565
O26 Sr11 2.932757 1_555
O26 Sr9 2.953093 1_555
O27 Sm3 2.480316 1_545
O27 Sm7 2.524559 1_545
O27 Sr10 2.932757 1_555
O27 Sr8 2.953093 1_555
O28 Sm0 2.412424 1_555
O28 Sr2 2.616286 1_555
O28 Sr0 2.625606 1_555
O29 Sm1 2.412424 1_555
O29 Sr3 2.616286 1_555
O29 Sr1 2.625606 1_555
O30 Sm2 2.412424 1_555
O30 Sr0 2.616286 1_655
O30 Sr2 2.625606 1_555
O31 Sm3 2.412424 1_555
O31 Sr1 2.616286 1_455
O31 Sr3 2.625606 1_555
O32 Sm0 2.496975 1_555
O32 Sr6 2.788483 1_555
O32 Sr2 2.803527 1_555
O32 Sr0 2.902994 1_555
O33 Sm1 2.496975 1_555
O33 Sr7 2.788483 1_555
O33 Sr3 2.803527 1_555
O33 Sr1 2.902994 1_555
O34 Sm2 2.496975 1_555
O34 Sr4 2.788483 1_645
O34 Sr0 2.803527 1_655
O34 Sr2 2.902994 1_555
O35 Sm3 2.496975 1_555
O35 Sr5 2.788483 1_465
O35 Sr1 2.803527 1_455
O35 Sr3 2.902994 1_555
O36 Sm6 2.550953 1_555
O36 Sm0 2.584363 1_555
O36 Sr9 2.834696 1_555
O37 Sm7 2.550953 1_555
O37 Sm1 2.584363 1_555
O37 Sr8 2.834696 1_555
O38 Sm4 2.550953 1_655
O38 Sm2 2.584363 1_555
O38 Sr11 2.834696 1_645
O39 Sm5 2.550953 1_455
O39 Sm3 2.584363 1_555
O39 Sr10 2.834696 1_465
O40 Sm6 2.373463 1_555
O40 Sr11 2.559654 1_545
O40 Sr3 2.643263 1_544
O41 Sm7 2.373463 1_555
O41 Sr10 2.559654 1_565
O41 Sr2 2.643263 1_565
O42 Sm4 2.373463 1_655
O42 Sr9 2.559654 1_555
O42 Sr1 2.643263 1_554
O43 Sm5 2.373463 1_455
O43 Sr8 2.559654 1_555
O43 Sr0 2.643263 1_555
O44 Sm0 2.434268 1_555
O44 Sr0 2.691305 1_555
O44 Sr4 2.752993 1_555
O44 Sr6 3.030030 1_455
O45 Sm1 2.434268 1_555
O45 Sr1 2.691305 1_555
O45 Sr5 2.752993 1_555
O45 Sr7 3.030030 1_655
O46 Sm2 2.434268 1_565
O46 Sr2 2.691305 1_565
O46 Sr6 2.752993 1_555
O46 Sr4 3.030030 1_555
O47 Sm3 2.434268 1_545
O47 Sr3 2.691305 1_545
O47 Sr7 2.752993 1_555
O47 Sr5 3.030030 1_555
