# generated using pymatgen
data_Ho3Co11B4
_symmetry_space_group_name_H-M   'P 1'
_cell_length_a   5.03443559
_cell_length_b   5.03694517
_cell_length_c   9.77995800
_cell_angle_alpha   89.99988619
_cell_angle_beta   90.00022935
_cell_angle_gamma   119.98351943
_symmetry_Int_Tables_number   1
_chemical_formula_structural   Ho3Co11B4
_chemical_formula_sum   'Ho3 Co11 B4'
_cell_volume   214.81160157
_cell_formula_units_Z   1
loop_
 _symmetry_equiv_pos_site_id
 _symmetry_equiv_pos_as_xyz
  1  'x, y, z'
loop_
 _atom_site_type_symbol
 _atom_site_label
 _atom_site_symmetry_multiplicity
 _atom_site_fract_x
 _atom_site_fract_y
 _atom_site_fract_z
 _atom_site_occupancy
  Ho  Ho0  1  0.99998200  0.00000000  0.99997500  1
  Ho  Ho1  1  0.99999600  0.00000000  0.34177600  1
  Ho  Ho2  1  0.00000400  0.00000000  0.65827400  1
  Co  Co0  1  0.33329300  0.66664200  0.99989400  1
  Co  Co1  1  0.66665200  0.33335800  0.99989400  1
  Co  Co2  1  0.50000000  0.00000000  0.50001700  1
  Co  Co3  1  0.50000000  0.49999900  0.50004600  1
  Co  Co4  1  0.00000100  0.50000100  0.50004600  1
  Co  Co5  1  0.49999800  0.00000000  0.20248700  1
  Co  Co6  1  0.49999100  0.50000600  0.20247800  1
  Co  Co7  1  0.99998500  0.49999400  0.20247800  1
  Co  Co8  1  0.50000200  0.00000000  0.79753100  1
  Co  Co9  1  0.50000500  0.49999700  0.79754800  1
  Co  Co10  1  0.00000800  0.50000300  0.79754800  1
  B  B0  1  0.33328900  0.66661000  0.34970600  1
  B  B1  1  0.66667900  0.33339000  0.34970600  1
  B  B2  1  0.66671600  0.33341600  0.65029800  1
  B  B3  1  0.33329900  0.66658400  0.65029800  1
loop_
_geom_bond_atom_site_label_1
_geom_bond_atom_site_label_2
_geom_bond_distance
_geom_bond_site_symmetry_2
Co0 Co10 2.455277 1_555
Co0 Co9 2.455471 1_555
Co0 Co8 2.456032 1_565
Co0 Co7 2.457220 1_456
Co0 Co6 2.457279 1_556
Co0 Co5 2.457845 1_566
Co0 Ho0 2.907126 1_465
Co0 Ho0 2.907213 1_565
Co0 Ho0 2.908457 1_455
Co1 Co9 2.455279 1_555
Co1 Co10 2.455468 1_655
Co1 Co8 2.456032 1_555
Co1 Co6 2.457223 1_556
Co1 Co7 2.457277 1_556
Co1 Co5 2.457845 1_556
Co1 Ho0 2.907131 1_455
Co1 Ho0 2.907209 1_555
Co1 Ho0 2.908457 1_565
Co2 Ho1 2.954886 1_555
Co2 Ho1 2.954910 1_455
Co2 Ho2 2.954968 1_555
Co2 Ho2 2.954992 1_655
Co3 Ho2 2.955892 1_555
Co3 Ho2 2.955908 1_665
Co3 Ho1 2.956112 1_565
Co3 Ho1 2.956119 1_455
Co4 Ho2 2.955892 1_565
Co4 Ho2 2.955908 1_555
Co4 Ho1 2.956112 1_455
Co4 Ho1 2.956119 1_465
Co5 Ho1 2.862168 1_555
Co5 Ho1 2.862195 1_455
Co6 Ho1 2.863323 1_565
Co6 Ho1 2.863332 1_455
Co7 Ho1 2.863323 1_555
Co7 Ho1 2.863332 1_565
Co8 Ho2 2.862019 1_555
Co8 Ho2 2.862047 1_655
Co9 Ho2 2.863209 1_555
Co9 Ho2 2.863223 1_665
Co10 Ho2 2.863209 1_565
Co10 Ho2 2.863222 1_555
B0 Co7 2.045901 1_455
B0 Co6 2.045914 1_555
B0 Co5 2.046623 1_565
B0 Co4 2.067392 1_555
B0 Co3 2.067489 1_555
B0 Co2 2.068009 1_565
B0 Ho1 2.908221 1_465
B0 Ho1 2.908326 1_565
B0 Ho1 2.909351 1_455
B1 Co6 2.045901 1_555
B1 Co7 2.045914 1_555
B1 Co5 2.046623 1_555
B1 Co3 2.067392 1_555
B1 Co4 2.067489 1_655
B1 Co2 2.068009 1_555
B1 Ho1 2.908221 1_455
B1 Ho1 2.908326 1_555
B1 Ho1 2.909351 1_565
B2 Co10 2.046015 1_655
B2 Co9 2.046022 1_555
B2 Co8 2.046800 1_555
B2 Co4 2.066770 1_655
B2 Co3 2.066806 1_555
B2 Co2 2.067880 1_555
B2 Ho2 2.908325 1_655
B2 Ho2 2.908360 1_555
B2 Ho2 2.909250 1_665
B3 Co9 2.046018 1_555
B3 Co10 2.046019 1_555
B3 Co8 2.046800 1_565
B3 Co3 2.066773 1_555
B3 Co4 2.066803 1_555
B3 Co2 2.067880 1_565
B3 Ho2 2.908329 1_665
B3 Ho2 2.908356 1_565
B3 Ho2 2.909250 1_555
