# generated using pymatgen
data_K4Mo5H4Se2O23
_symmetry_space_group_name_H-M   'P 1'
_cell_length_a   10.28606600
_cell_length_b   11.13870607
_cell_length_c   12.18601567
_cell_angle_alpha   104.29226565
_cell_angle_beta   90.00000000
_cell_angle_gamma   117.49855556
_symmetry_Int_Tables_number   1
_chemical_formula_structural   K4Mo5H4Se2O23
_chemical_formula_sum   'K8 Mo10 H8 Se4 O46'
_cell_volume   1189.52534137
_cell_formula_units_Z   2
loop_
 _symmetry_equiv_pos_site_id
 _symmetry_equiv_pos_as_xyz
  1  'x, y, z'
loop_
 _atom_site_type_symbol
 _atom_site_label
 _atom_site_symmetry_multiplicity
 _atom_site_fract_x
 _atom_site_fract_y
 _atom_site_fract_z
 _atom_site_occupancy
  K  K0  1  0.98660000  0.64880200  0.22750200  1
  K  K1  1  0.33779800  0.35119800  0.77249800  1
  K  K2  1  0.33714800  0.98180100  0.75310900  1
  K  K3  1  0.35534700  0.01819900  0.24689100  1
  K  K4  1  0.74517400  0.35871800  0.90745200  1
  K  K5  1  0.38645600  0.64128200  0.09254800  1
  K  K6  1  0.92224500  0.62880500  0.59152600  1
  K  K7  1  0.29344000  0.37119500  0.40847400  1
  Mo  Mo0  1  0.69063100  0.00000000  0.00000000  1
  Mo  Mo1  1  0.73904100  0.70647300  0.89689600  1
  Mo  Mo2  1  0.03256800  0.29352700  0.10310400  1
  Mo  Mo3  1  0.10141400  0.80232800  0.96114100  1
  Mo  Mo4  1  0.29908500  0.19767200  0.03885900  1
  Mo  Mo5  1  0.64233600  0.71078300  0.38076900  1
  Mo  Mo6  1  0.93155300  0.28921700  0.61923100  1
  Mo  Mo7  1  0.36953100  0.80193600  0.44567300  1
  Mo  Mo8  1  0.56759400  0.19806400  0.55432700  1
  Mo  Mo9  1  0.98116200  0.00000000  0.50000000  1
  H  H0  1  0.95680200  0.42646100  0.36642200  1
  H  H1  1  0.53034100  0.57353900  0.63357800  1
  H  H2  1  0.79231500  0.39252800  0.36102200  1
  H  H3  1  0.39978700  0.60747200  0.63897800  1
  H  H4  1  0.71563600  0.33356600  0.15693900  1
  H  H5  1  0.38207000  0.66643400  0.84306100  1
  H  H6  1  0.63313500  0.42193300  0.16609000  1
  H  H7  1  0.21120200  0.57806700  0.83391000  1
  Se  Se0  1  0.98073900  0.01926000  0.83015200  1
  Se  Se1  1  0.96147900  0.98074000  0.16984800  1
  Se  Se2  1  0.67972200  0.96060100  0.66385100  1
  Se  Se3  1  0.71912000  0.03939900  0.33614900  1
  O  O0  1  0.89281200  0.47033300  0.37174700  1
  O  O1  1  0.42247900  0.52966700  0.62825300  1
  O  O2  1  0.16710800  0.11738800  0.85581000  1
  O  O3  1  0.04972000  0.88261200  0.14419000  1
  O  O4  1  0.72158200  0.41771600  0.14126700  1
  O  O5  1  0.30386600  0.58228400  0.85873300  1
  O  O6  1  0.91849900  0.11325500  0.93372000  1
  O  O7  1  0.80524400  0.88674500  0.06628000  1
  O  O8  1  0.95880300  0.87991200  0.88521800  1
  O  O9  1  0.07889200  0.12008800  0.11478200  1
  O  O10  1  0.49419800  0.86057300  0.62798400  1
  O  O11  1  0.63362500  0.13942700  0.37201600  1
  O  O12  1  0.74969400  0.88058300  0.55623800  1
  O  O13  1  0.86911100  0.11941700  0.44376200  1
  O  O14  1  0.71005600  0.11334900  0.62616800  1
  O  O15  1  0.59670700  0.88665100  0.37383200  1
  O  O16  1  0.89168800  0.66742700  0.95159800  1
  O  O17  1  0.22426200  0.33257300  0.04840200  1
  O  O18  1  0.66377700  0.83623300  0.87754600  1
  O  O19  1  0.82754400  0.16376700  0.12245400  1
  O  O20  1  0.18105500  0.73748700  0.04116300  1
  O  O21  1  0.44356800  0.26251300  0.95883700  1
  O  O22  1  0.59016100  0.58976200  0.95079400  1
  O  O23  1  0.00040000  0.41023800  0.04920600  1
  O  O24  1  0.84938300  0.84504000  0.36879200  1
  O  O25  1  0.00434400  0.15496000  0.63120800  1
  O  O26  1  0.66874600  0.59547400  0.44057300  1
  O  O27  1  0.07327200  0.40452600  0.55942700  1
  O  O28  1  0.13801400  0.74737900  0.82195500  1
  O  O29  1  0.39063500  0.25262100  0.17804500  1
  O  O30  1  0.44229600  0.66559600  0.42326200  1
  O  O31  1  0.77670000  0.33440400  0.57673800  1
  O  O32  1  0.42347200  0.00000000  0.50000000  1
  O  O33  1  0.28752700  0.76744600  0.30614700  1
  O  O34  1  0.52008100  0.23255400  0.69385300  1
  O  O35  1  0.04311400  0.91519500  0.57344800  1
  O  O36  1  0.12792000  0.08480500  0.42655200  1
  O  O37  1  0.54897500  0.92649200  0.08120000  1
  O  O38  1  0.62248300  0.07350800  0.91880000  1
  O  O39  1  0.71339200  0.62038400  0.75126700  1
  O  O40  1  0.09300800  0.37961600  0.24873300  1
  O  O41  1  0.59269000  0.62458000  0.23484000  1
  O  O42  1  0.96811000  0.37542000  0.76516000  1
  O  O43  1  0.21686400  0.72737800  0.51545500  1
  O  O44  1  0.48948600  0.27262200  0.48454500  1
  O  O45  1  0.25025500  0.00000000  0.00000000  1
loop_
_geom_bond_atom_site_label_1
_geom_bond_atom_site_label_2
_geom_bond_distance
_geom_bond_site_symmetry_2
K0 O4 2.710297 1_555
K0 O33 2.800594 1_655
K0 O0 2.815409 1_555
K0 O3 2.824685 1_655
K0 O23 3.049553 1_655
K0 O20 3.068493 1_655
K0 O24 3.274946 1_555
K1 O5 2.710297 1_555
K1 O34 2.800594 1_555
K1 O1 2.815409 1_555
K1 O2 2.824685 1_555
K1 O22 3.049549 1_555
K1 O21 3.068493 1_555
K1 O25 3.274939 1_555
K2 O10 2.784908 1_555
K2 O28 2.803590 1_555
K2 O34 2.829448 1_565
K2 O2 2.900419 1_565
K2 O45 3.123767 1_566
K2 O38 3.153956 1_565
K2 O21 3.198279 1_565
K2 O32 3.238128 1_565
K2 O43 3.264818 1_555
K2 O35 3.408362 1_555
K3 O11 2.784908 1_555
K3 O29 2.803590 1_555
K3 O33 2.829448 1_545
K3 O3 2.900419 1_545
K3 O45 3.123767 1_555
K3 O37 3.153956 1_545
K3 O20 3.198279 1_545
K3 O32 3.238128 1_555
K3 O44 3.264818 1_555
K3 O36 3.408354 1_555
K4 O4 2.798550 1_556
K4 O42 2.839904 1_555
K4 O38 2.866856 1_555
K4 O23 2.885250 1_656
K4 O21 2.902801 1_555
K4 O16 2.947181 1_555
K4 O34 3.049605 1_555
K5 O5 2.798550 1_554
K5 O41 2.839904 1_555
K5 O37 2.866856 1_555
K5 O22 2.885241 1_554
K5 O20 2.902801 1_555
K5 O17 2.947181 1_555
K5 O33 3.049605 1_555
K6 O0 2.748227 1_555
K6 O31 2.863898 1_555
K6 O39 2.883961 1_555
K6 O35 2.907742 1_655
K6 O43 2.945928 1_655
K6 O26 3.014894 1_555
K6 O28 3.164977 1_655
K7 O1 2.748227 1_555
K7 O30 2.863898 1_555
K7 O40 2.883961 1_555
K7 O36 2.907741 1_555
K7 O44 2.945928 1_555
K7 O27 3.014894 1_555
K7 O29 3.164977 1_555
Mo0 O37 1.752406 1_545
Mo0 O38 1.752406 1_554
Mo0 O18 1.954813 1_544
Mo0 O19 1.954813 1_555
Mo0 O7 2.347355 1_545
Mo0 O6 2.347355 1_554
Mo1 O22 1.746343 1_555
Mo1 O39 1.750611 1_555
Mo1 O16 1.967892 1_555
Mo1 O18 1.986347 1_555
Mo1 O8 2.228285 1_555
Mo1 O7 2.333929 1_556
Mo2 O23 1.746338 1_555
Mo2 O40 1.750611 1_555
Mo2 O17 1.967901 1_555
Mo2 O19 1.986347 1_455
Mo2 O9 2.228291 1_555
Mo2 O6 2.333929 1_454
Mo3 O20 1.742910 1_556
Mo3 O28 1.758807 1_555
Mo3 O45 1.946390 1_566
Mo3 O16 1.960986 1_455
Mo3 O8 2.306519 1_455
Mo3 O3 2.347849 1_556
Mo4 O21 1.742917 1_554
Mo4 O29 1.758811 1_555
Mo4 O45 1.946393 1_555
Mo4 O17 1.960970 1_555
Mo4 O9 2.306502 1_555
Mo4 O2 2.347845 1_554
Mo5 O26 1.743252 1_555
Mo5 O41 1.746200 1_555
Mo5 O30 1.981817 1_555
Mo5 O24 1.989972 1_555
Mo5 O15 2.235102 1_555
Mo5 O12 2.333101 1_555
Mo6 O27 1.743252 1_655
Mo6 O42 1.746200 1_555
Mo6 O31 1.981817 1_555
Mo6 O25 1.989980 1_655
Mo6 O14 2.235102 1_555
Mo6 O13 2.333101 1_555
Mo7 O43 1.738725 1_555
Mo7 O33 1.768681 1_555
Mo7 O32 1.939547 1_565
Mo7 O30 1.945755 1_555
Mo7 O15 2.342838 1_555
Mo7 O10 2.348789 1_555
Mo8 O44 1.738718 1_555
Mo8 O34 1.768677 1_555
Mo8 O32 1.939544 1_555
Mo8 O31 1.945762 1_555
Mo8 O14 2.342846 1_555
Mo8 O11 2.348793 1_555
Mo9 O35 1.752937 1_645
Mo9 O36 1.752943 1_655
Mo9 O25 1.962123 1_655
Mo9 O24 1.962126 1_545
Mo9 O12 2.330917 1_545
Mo9 O13 2.330917 1_555
H0 O0 0.978582 1_555
H1 O1 0.978582 1_555
H2 O0 0.976482 1_555
H3 O1 0.976482 1_555
H4 O4 0.976847 1_555
H5 O5 0.976847 1_555
H6 O4 0.976648 1_555
H7 O5 0.976648 1_555
O2 Se0 1.692244 1_455
O3 Se1 1.692244 1_455
O6 Se0 1.750842 1_555
O7 Se1 1.750842 1_555
O8 Se0 1.761030 1_565
O9 Se1 1.761033 1_445
O10 Se2 1.694166 1_555
O11 Se3 1.694158 1_555
O12 Se2 1.745691 1_555
O13 Se3 1.745697 1_555
O14 Se2 1.760273 1_545
O15 Se3 1.760270 1_565
