# generated using pymatgen
data_V2Ni(H4O5)2
_symmetry_space_group_name_H-M   'P 1'
_cell_length_a   8.38398507
_cell_length_b   8.38398507
_cell_length_c   6.92232090
_cell_angle_alpha   72.84192909
_cell_angle_beta   107.15807091
_cell_angle_gamma   108.27818893
_symmetry_Int_Tables_number   1
_chemical_formula_structural   V2Ni(H4O5)2
_chemical_formula_sum   'V4 Ni2 H16 O20'
_cell_volume   430.33052029
_cell_formula_units_Z   2
loop_
 _symmetry_equiv_pos_site_id
 _symmetry_equiv_pos_as_xyz
  1  'x, y, z'
loop_
 _atom_site_type_symbol
 _atom_site_label
 _atom_site_symmetry_multiplicity
 _atom_site_fract_x
 _atom_site_fract_y
 _atom_site_fract_z
 _atom_site_occupancy
  V  V0  1  0.13433500  0.92524300  0.69387600  1
  V  V1  1  0.92524300  0.13433500  0.80612400  1
  V  V2  1  0.86566500  0.07475700  0.30612400  1
  V  V3  1  0.07475700  0.86566500  0.19387600  1
  Ni  Ni0  1  0.00000000  0.50000000  0.00000000  1
  Ni  Ni1  1  0.50000000  0.00000000  0.50000000  1
  H  H0  1  0.62060600  0.22889200  0.96651400  1
  H  H1  1  0.22889200  0.62060600  0.53348600  1
  H  H2  1  0.37939400  0.77110800  0.03348600  1
  H  H3  1  0.77110800  0.37939400  0.46651400  1
  H  H4  1  0.43641100  0.19353700  0.82447500  1
  H  H5  1  0.19353700  0.43641100  0.67552500  1
  H  H6  1  0.56358900  0.80646300  0.17552500  1
  H  H7  1  0.80646300  0.56358900  0.32447500  1
  H  H8  1  0.46559400  0.23215400  0.15063700  1
  H  H9  1  0.23215400  0.46559400  0.34936300  1
  H  H10  1  0.53440600  0.76784600  0.84936300  1
  H  H11  1  0.76784600  0.53440600  0.65063700  1
  H  H12  1  0.51566700  0.32495000  0.33604500  1
  H  H13  1  0.32495000  0.51566700  0.16395500  1
  H  H14  1  0.48433300  0.67505000  0.66395500  1
  H  H15  1  0.67505000  0.48433300  0.83604500  1
  O  O0  1  0.10564700  0.98853700  0.92433400  1
  O  O1  1  0.98853700  0.10564700  0.57566600  1
  O  O2  1  0.89435300  0.01146300  0.07566600  1
  O  O3  1  0.01146300  0.89435300  0.42433400  1
  O  O4  1  0.02798800  0.33800100  0.82988800  1
  O  O5  1  0.33800100  0.02798800  0.67011200  1
  O  O6  1  0.97201200  0.66199900  0.17011200  1
  O  O7  1  0.66199900  0.97201200  0.32988800  1
  O  O8  1  0.86333900  0.28140300  0.17930000  1
  O  O9  1  0.28140300  0.86333900  0.32070000  1
  O  O10  1  0.13666100  0.71859700  0.82070000  1
  O  O11  1  0.71859700  0.13666100  0.67930000  1
  O  O12  1  0.44894700  0.21681800  0.29329100  1
  O  O13  1  0.21681800  0.44894700  0.20670900  1
  O  O14  1  0.55105300  0.78318200  0.70670900  1
  O  O15  1  0.78318200  0.55105300  0.79329100  1
  O  O16  1  0.51326600  0.26701900  0.92093300  1
  O  O17  1  0.26701900  0.51326600  0.57906700  1
  O  O18  1  0.48673400  0.73298100  0.07906700  1
  O  O19  1  0.73298100  0.48673400  0.42093300  1
loop_
_geom_bond_atom_site_label_1
_geom_bond_atom_site_label_2
_geom_bond_distance
_geom_bond_site_symmetry_2
Ni0 O15 2.031522 1_454
Ni0 O13 2.031522 1_555
Ni0 O8 2.095686 1_455
Ni0 O10 2.095686 1_554
Ni0 O6 2.143136 1_455
Ni0 O4 2.143136 1_554
Ni1 O14 2.031522 1_545
Ni1 O12 2.031522 1_555
Ni1 O11 2.095686 1_555
Ni1 O9 2.095686 1_545
Ni1 O7 2.143136 1_545
Ni1 O5 2.143136 1_555
H0 O16 0.982355 1_555
H1 O17 0.982355 1_555
H2 O18 0.982355 1_555
H3 O19 0.982355 1_555
H4 O16 0.990167 1_555
H5 O17 0.990167 1_555
H6 O18 0.990167 1_555
H7 O19 0.990167 1_555
H8 O12 1.003149 1_555
H9 O13 1.003149 1_555
H10 O14 1.003149 1_555
H11 O15 1.003149 1_555
H12 O12 0.982297 1_555
H13 O13 0.982297 1_555
H14 O14 0.982297 1_555
H15 O15 0.982297 1_555
O0 V3 1.895623 1_556
O0 V0 1.921035 1_555
O0 V1 2.071412 1_465
O1 V2 1.895623 1_555
O1 V1 1.921035 1_555
O1 V0 2.071412 1_645
O2 V1 1.895623 1_554
O2 V2 1.921035 1_555
O2 V3 2.071412 1_645
O3 V0 1.895623 1_555
O3 V3 1.921035 1_555
O3 V2 2.071412 1_465
O4 V1 1.686491 1_455
O5 V0 1.686491 1_545
O6 V3 1.686491 1_655
O7 V2 1.686491 1_565
O8 V2 1.698942 1_555
O9 V3 1.698942 1_555
O10 V0 1.698942 1_555
O11 V1 1.698942 1_555
