# generated using pymatgen
data_EuFe4(CuO4)3
_symmetry_space_group_name_H-M   'P 1'
_cell_length_a   6.49060233
_cell_length_b   6.49060233
_cell_length_c   6.49060233
_cell_angle_alpha   109.47122063
_cell_angle_beta   109.47122063
_cell_angle_gamma   109.47122063
_symmetry_Int_Tables_number   1
_chemical_formula_structural   EuFe4(CuO4)3
_chemical_formula_sum   'Eu1 Fe4 Cu3 O12'
_cell_volume   210.49079695
_cell_formula_units_Z   1
loop_
 _symmetry_equiv_pos_site_id
 _symmetry_equiv_pos_as_xyz
  1  'x, y, z'
loop_
 _atom_site_type_symbol
 _atom_site_label
 _atom_site_symmetry_multiplicity
 _atom_site_fract_x
 _atom_site_fract_y
 _atom_site_fract_z
 _atom_site_occupancy
  Eu  Eu0  1  0.00000000  0.00000000  0.00000000  1
  Fe  Fe0  1  0.50000000  0.50000000  0.50000000  1
  Fe  Fe1  1  0.00000000  0.00000000  0.50000000  1
  Fe  Fe2  1  0.00000000  0.50000000  0.00000000  1
  Fe  Fe3  1  0.50000000  0.00000000  0.00000000  1
  Cu  Cu0  1  0.50000000  0.50000000  0.00000000  1
  Cu  Cu1  1  0.50000000  0.00000000  0.50000000  1
  Cu  Cu2  1  0.00000000  0.50000000  0.50000000  1
  O  O0  1  0.31154200  0.16653200  0.47807500  1
  O  O1  1  0.68845800  0.83346800  0.52192500  1
  O  O2  1  0.31154200  0.83346800  0.14501000  1
  O  O3  1  0.68845800  0.16653200  0.85499000  1
  O  O4  1  0.83346800  0.52192500  0.68845800  1
  O  O5  1  0.16653200  0.47807500  0.31154200  1
  O  O6  1  0.16653200  0.85499000  0.68845800  1
  O  O7  1  0.83346800  0.14501000  0.31154200  1
  O  O8  1  0.14501000  0.31154200  0.83346800  1
  O  O9  1  0.85499000  0.68845800  0.16653200  1
  O  O10  1  0.47807500  0.31154200  0.16653200  1
  O  O11  1  0.52192500  0.68845800  0.83346800  1
loop_
_geom_bond_atom_site_label_1
_geom_bond_atom_site_label_2
_geom_bond_distance
_geom_bond_site_symmetry_2
Eu0 O9 2.647565 1_445
Eu0 O3 2.647565 1_454
Eu0 O6 2.647565 1_544
Eu0 O2 2.647565 1_545
Eu0 O7 2.647565 1_455
Eu0 O8 2.647565 1_554
Eu0 O5 2.647570 1_555
Eu0 O10 2.647570 1_555
Eu0 O0 2.647570 1_555
Eu0 O4 2.647570 1_444
Eu0 O1 2.647570 1_444
Eu0 O11 2.647570 1_444
Fe0 O1 2.028484 1_555
Fe0 O4 2.028484 1_555
Fe0 O11 2.028484 1_555
Fe0 O5 2.028484 1_555
Fe0 O10 2.028484 1_555
Fe0 O0 2.028484 1_555
Fe1 O1 2.028478 1_445
Fe1 O0 2.028478 1_555
Fe1 O6 2.028481 1_545
Fe1 O8 2.028481 1_555
Fe1 O7 2.028481 1_455
Fe1 O9 2.028481 1_445
Fe2 O4 2.028478 1_454
Fe2 O5 2.028478 1_555
Fe2 O9 2.028481 1_455
Fe2 O8 2.028481 1_554
Fe2 O2 2.028481 1_555
Fe2 O3 2.028481 1_454
Fe3 O11 2.028478 1_544
Fe3 O10 2.028478 1_555
Fe3 O3 2.028481 1_554
Fe3 O2 2.028481 1_545
Fe3 O7 2.028481 1_555
Fe3 O6 2.028481 1_544
Cu0 O10 1.884874 1_555
Cu0 O11 1.884874 1_554
Cu0 O8 1.884874 1_554
Cu0 O9 1.884874 1_555
Cu1 O0 1.884874 1_555
Cu1 O1 1.884874 1_545
Cu1 O2 1.884874 1_545
Cu1 O3 1.884874 1_555
Cu2 O5 1.884874 1_555
Cu2 O4 1.884874 1_455
Cu2 O7 1.884874 1_455
Cu2 O6 1.884874 1_555
