# generated using pymatgen
data_SrSi6
_symmetry_space_group_name_H-M   'P 1'
_cell_length_a   5.63236495
_cell_length_b   5.63236495
_cell_length_c   11.70916500
_cell_angle_alpha   90.00000000
_cell_angle_beta   90.00000000
_cell_angle_gamma   133.03077529
_symmetry_Int_Tables_number   1
_chemical_formula_structural   SrSi6
_chemical_formula_sum   'Sr2 Si12'
_cell_volume   271.52968518
_cell_formula_units_Z   2
loop_
 _symmetry_equiv_pos_site_id
 _symmetry_equiv_pos_as_xyz
  1  'x, y, z'
loop_
 _atom_site_type_symbol
 _atom_site_label
 _atom_site_symmetry_multiplicity
 _atom_site_fract_x
 _atom_site_fract_y
 _atom_site_fract_z
 _atom_site_occupancy
  Sr  Sr0  1  0.27562900  0.72437100  0.25000000  1
  Sr  Sr1  1  0.72437100  0.27562900  0.75000000  1
  Si  Si0  1  0.97753000  0.02247000  0.10070800  1
  Si  Si1  1  0.02247000  0.97753000  0.89929200  1
  Si  Si2  1  0.75393400  0.24606600  0.46224100  1
  Si  Si3  1  0.24606600  0.75393400  0.53775900  1
  Si  Si4  1  0.24606600  0.75393400  0.96224100  1
  Si  Si5  1  0.75393400  0.24606600  0.03775900  1
  Si  Si6  1  0.44060700  0.55939300  0.64732400  1
  Si  Si7  1  0.55939300  0.44060700  0.35267600  1
  Si  Si8  1  0.55939300  0.44060700  0.14732400  1
  Si  Si9  1  0.44060700  0.55939300  0.85267600  1
  Si  Si10  1  0.97753000  0.02247000  0.39929200  1
  Si  Si11  1  0.02247000  0.97753000  0.60070800  1
loop_
_geom_bond_atom_site_label_1
_geom_bond_atom_site_label_2
_geom_bond_distance
_geom_bond_site_symmetry_2
Si0 Si1 2.403683 1_644
Si0 Si5 2.424853 1_555
Si0 Si8 2.459902 1_655
Si0 Si8 2.459902 1_545
Si0 Sr0 3.527733 1_655
Si0 Sr0 3.527733 1_545
Si0 Sr0 3.541368 1_645
Si1 Si4 2.424853 1_555
Si1 Si9 2.459902 1_565
Si1 Si9 2.459902 1_455
Si1 Sr1 3.527733 1_565
Si1 Sr1 3.527733 1_455
Si1 Sr1 3.541368 1_465
Si2 Si7 2.384466 1_555
Si2 Si3 2.413783 1_545
Si2 Si3 2.413783 1_655
Si2 Sr0 3.356207 1_545
Si2 Sr0 3.356207 1_655
Si2 Sr1 3.383233 1_555
Si3 Si6 2.384466 1_555
Si3 Sr1 3.356207 1_455
Si3 Sr1 3.356207 1_565
Si3 Sr0 3.383233 1_555
Si4 Si9 2.384466 1_555
Si4 Si5 2.413783 1_566
Si4 Si5 2.413783 1_456
Si4 Sr1 3.356207 1_455
Si4 Sr1 3.356207 1_565
Si4 Sr0 3.383233 1_556
Si5 Si8 2.384466 1_555
Si5 Sr0 3.356207 1_545
Si5 Sr0 3.356207 1_655
Si5 Sr1 3.383233 1_554
Si6 Si9 2.404500 1_555
Si6 Sr1 3.168683 1_555
Si6 Sr1 3.387377 1_455
Si6 Sr1 3.387377 1_565
Si7 Si8 2.404500 1_555
Si7 Sr0 3.168683 1_555
Si7 Sr0 3.387377 1_545
Si7 Sr0 3.387377 1_655
Si8 Sr0 3.168683 1_555
Si8 Sr0 3.387377 1_545
Si8 Sr0 3.387377 1_655
Si9 Sr1 3.168683 1_555
Si9 Sr1 3.387377 1_455
Si9 Sr1 3.387377 1_565
Si10 Si11 2.403683 1_645
Si10 Si2 2.424853 1_555
Si10 Si7 2.459902 1_655
Si10 Si7 2.459902 1_545
Si10 Sr0 3.527733 1_655
Si10 Sr0 3.527733 1_545
Si10 Sr0 3.541368 1_645
Si11 Si3 2.424853 1_555
Si11 Si6 2.459902 1_565
Si11 Si6 2.459902 1_455
Si11 Sr1 3.527733 1_565
Si11 Sr1 3.527733 1_455
Si11 Sr1 3.541368 1_465
