# generated using pymatgen
data_Cu(Mo3Se4)2
_symmetry_space_group_name_H-M   'P 1'
_cell_length_a   6.74989068
_cell_length_b   6.74989068
_cell_length_c   6.74989023
_cell_angle_alpha   93.07823762
_cell_angle_beta   93.07823762
_cell_angle_gamma   93.07824141
_symmetry_Int_Tables_number   1
_chemical_formula_structural   Cu(Mo3Se4)2
_chemical_formula_sum   'Cu1 Mo6 Se8'
_cell_volume   306.15097156
_cell_formula_units_Z   1
loop_
 _symmetry_equiv_pos_site_id
 _symmetry_equiv_pos_as_xyz
  1  'x, y, z'
loop_
 _atom_site_type_symbol
 _atom_site_label
 _atom_site_symmetry_multiplicity
 _atom_site_fract_x
 _atom_site_fract_y
 _atom_site_fract_z
 _atom_site_occupancy
  Cu  Cu0  1  0.00000000  0.00000000  0.00000000  1
  Mo  Mo0  1  0.77376100  0.58793700  0.45393800  1
  Mo  Mo1  1  0.45393800  0.77376100  0.58793700  1
  Mo  Mo2  1  0.58793700  0.45393800  0.77376100  1
  Mo  Mo3  1  0.22623900  0.41206300  0.54606200  1
  Mo  Mo4  1  0.54606200  0.22623900  0.41206300  1
  Mo  Mo5  1  0.41206300  0.54606200  0.22623900  1
  Se  Se0  1  0.78844700  0.78844700  0.78844700  1
  Se  Se1  1  0.21155300  0.21155300  0.21155300  1
  Se  Se2  1  0.26244700  0.62229400  0.87098400  1
  Se  Se3  1  0.87098400  0.26244700  0.62229400  1
  Se  Se4  1  0.62229400  0.87098400  0.26244700  1
  Se  Se5  1  0.73755300  0.37770600  0.12901600  1
  Se  Se6  1  0.12901600  0.73755300  0.37770600  1
  Se  Se7  1  0.37770600  0.12901600  0.73755300  1
loop_
_geom_bond_atom_site_label_1
_geom_bond_atom_site_label_2
_geom_bond_distance
_geom_bond_site_symmetry_2
Cu0 Se0 2.336712 1_444
Cu0 Se1 2.336712 1_555
Mo0 Se5 2.540552 1_555
Mo0 Se0 2.563793 1_555
Mo0 Se4 2.588274 1_555
Mo0 Se3 2.625229 1_555
Mo0 Se6 2.638745 1_655
Mo1 Se6 2.540552 1_555
Mo1 Se0 2.563793 1_555
Mo1 Se2 2.588274 1_555
Mo1 Se4 2.625228 1_555
Mo1 Se7 2.638745 1_565
Mo2 Se7 2.540552 1_555
Mo2 Se0 2.563793 1_555
Mo2 Se3 2.588274 1_555
Mo2 Se2 2.625229 1_555
Mo2 Se5 2.638745 1_556
Mo3 Se2 2.540552 1_555
Mo3 Se1 2.563793 1_555
Mo3 Se7 2.588274 1_555
Mo3 Se6 2.625229 1_555
Mo3 Se3 2.638745 1_455
Mo4 Se3 2.540552 1_555
Mo4 Se1 2.563793 1_555
Mo4 Se5 2.588274 1_555
Mo4 Se7 2.625228 1_555
Mo4 Se4 2.638745 1_545
Mo5 Se4 2.540552 1_555
Mo5 Se1 2.563793 1_555
Mo5 Se6 2.588274 1_555
Mo5 Se5 2.625229 1_555
Mo5 Se2 2.638745 1_554
