# generated using pymatgen
data_SnF4
_symmetry_space_group_name_H-M   'P 1'
_cell_length_a   6.34255808
_cell_length_b   6.34255808
_cell_length_c   5.04577617
_cell_angle_alpha   69.20260043
_cell_angle_beta   69.20260043
_cell_angle_gamma   46.86832846
_symmetry_Int_Tables_number   1
_chemical_formula_structural   SnF4
_chemical_formula_sum   'Sn2 F8'
_cell_volume   136.59133833
_cell_formula_units_Z   2
loop_
 _symmetry_equiv_pos_site_id
 _symmetry_equiv_pos_as_xyz
  1  'x, y, z'
loop_
 _atom_site_type_symbol
 _atom_site_label
 _atom_site_symmetry_multiplicity
 _atom_site_fract_x
 _atom_site_fract_y
 _atom_site_fract_z
 _atom_site_occupancy
  Sn  Sn0  1  0.00000000  0.50000000  0.00000000  1
  Sn  Sn1  1  0.50000000  0.00000000  0.50000000  1
  F  F0  1  0.66019800  0.62440100  0.35966900  1
  F  F1  1  0.86210500  0.86310400  0.11917100  1
  F  F2  1  0.33980200  0.37559900  0.64033100  1
  F  F3  1  0.37559900  0.33980200  0.14033100  1
  F  F4  1  0.13789500  0.13689600  0.88082900  1
  F  F5  1  0.13689600  0.13789500  0.38082900  1
  F  F6  1  0.62440100  0.66019800  0.85966900  1
  F  F7  1  0.86310400  0.86210500  0.61917100  1
loop_
_geom_bond_atom_site_label_1
_geom_bond_atom_site_label_2
_geom_bond_distance
_geom_bond_site_symmetry_2
F0 Sn0 2.115456 1_655
F0 Sn1 2.141531 1_565
F1 Sn0 2.070298 1_655
F1 Sn1 2.246157 1_565
F2 Sn0 2.115456 1_556
F2 Sn1 2.141531 1_555
F3 Sn1 2.115456 1_555
F3 Sn0 2.141531 1_555
F4 Sn0 2.070298 1_556
F4 Sn1 2.246157 1_555
F5 Sn1 2.070298 1_555
F5 Sn0 2.246157 1_555
F6 Sn1 2.115456 1_565
F6 Sn0 2.141531 1_656
F7 Sn1 2.070298 1_565
F7 Sn0 2.246157 1_656
