# generated using pymatgen
data_PmS2
_symmetry_space_group_name_H-M   'P 1'
_cell_length_a   4.01685066
_cell_length_b   8.01506533
_cell_length_c   8.06869607
_cell_angle_alpha   89.89100325
_cell_angle_beta   89.99993430
_cell_angle_gamma   90.00039042
_symmetry_Int_Tables_number   1
_chemical_formula_structural   PmS2
_chemical_formula_sum   'Pm4 S8'
_cell_volume   259.77378548
_cell_formula_units_Z   4
loop_
 _symmetry_equiv_pos_site_id
 _symmetry_equiv_pos_as_xyz
  1  'x, y, z'
loop_
 _atom_site_type_symbol
 _atom_site_label
 _atom_site_symmetry_multiplicity
 _atom_site_fract_x
 _atom_site_fract_y
 _atom_site_fract_z
 _atom_site_occupancy
  Pm  Pm0  1  0.28925170  0.37066127  0.27570878  1
  Pm  Pm1  1  0.78925110  0.12933905  0.72429053  1
  Pm  Pm2  1  0.71074890  0.62933805  0.72429053  1
  Pm  Pm3  1  0.21074930  0.87066127  0.27570878  1
  S  S0  1  0.84479744  0.39237722  0.00293934  1
  S  S1  1  0.34479330  0.10762449  0.99706100  1
  S  S2  1  0.15520170  0.60762249  0.99706000  1
  S  S3  1  0.65520556  0.89237522  0.00293834  1
  S  S4  1  0.26141384  0.37435952  0.63255046  1
  S  S5  1  0.76141373  0.12564043  0.36744888  1
  S  S6  1  0.73858627  0.62564043  0.36744888  1
  S  S7  1  0.23858616  0.87435952  0.63255046  1
loop_
_geom_bond_atom_site_label_1
_geom_bond_atom_site_label_2
_geom_bond_distance
_geom_bond_site_symmetry_2
Pm0 S6 2.826295 1_555
Pm0 S5 2.827773 1_555
Pm0 S0 2.839032 1_455
Pm0 S4 2.881626 1_555
Pm0 S5 2.982368 1_455
Pm0 S2 2.989296 1_554
Pm0 S1 3.093141 1_554
Pm0 S6 3.102101 1_455
Pm0 S0 3.138876 1_555
Pm1 S7 2.826315 1_645
Pm1 S4 2.827754 1_655
Pm1 S1 2.839042 1_555
Pm1 S5 2.881626 1_555
Pm1 S4 2.982385 1_555
Pm1 S3 2.989295 1_546
Pm1 S0 3.093155 1_556
Pm1 S7 3.102083 1_545
Pm1 S1 3.138877 1_655
Pm2 S4 2.826293 1_555
Pm2 S7 2.827778 1_555
Pm2 S2 2.839028 1_655
Pm2 S6 2.881626 1_555
Pm2 S7 2.982370 1_655
Pm2 S0 2.989294 1_556
Pm2 S3 3.093144 1_556
Pm2 S4 3.102096 1_655
Pm2 S2 3.138880 1_555
Pm3 S5 2.826314 1_465
Pm3 S6 2.827757 1_455
Pm3 S3 2.839038 1_555
Pm3 S7 2.881626 1_555
Pm3 S6 2.982386 1_555
Pm3 S1 2.989291 1_564
Pm3 S2 3.093158 1_554
Pm3 S5 3.102080 1_565
Pm3 S3 3.138881 1_455
S0 S2 2.129054 1_654
S1 S3 2.129112 1_546
