# generated using pymatgen
data_Ba5As2(SO6)2
_symmetry_space_group_name_H-M   'P 1'
_cell_length_a   7.84953900
_cell_length_b   10.70101300
_cell_length_c   10.70552599
_cell_angle_alpha   60.08670371
_cell_angle_beta   90.00000000
_cell_angle_gamma   90.00000000
_symmetry_Int_Tables_number   1
_chemical_formula_structural   Ba5As2(SO6)2
_chemical_formula_sum   'Ba10 As4 S4 O24'
_cell_volume   779.44676453
_cell_formula_units_Z   2
loop_
 _symmetry_equiv_pos_site_id
 _symmetry_equiv_pos_as_xyz
  1  'x, y, z'
loop_
 _atom_site_type_symbol
 _atom_site_label
 _atom_site_symmetry_multiplicity
 _atom_site_fract_x
 _atom_site_fract_y
 _atom_site_fract_z
 _atom_site_occupancy
  Ba  Ba0  1  0.00000000  0.00637600  0.22879500  1
  Ba  Ba1  1  0.00000000  0.23310600  0.76969300  1
  Ba  Ba2  1  0.00000000  0.75548000  0.01550300  1
  Ba  Ba3  1  0.50000000  0.98918100  0.77171500  1
  Ba  Ba4  1  0.50000000  0.77198500  0.23611100  1
  Ba  Ba5  1  0.50000000  0.23460000  0.99899000  1
  Ba  Ba6  1  0.75037900  0.33340400  0.32581700  1
  Ba  Ba7  1  0.25060400  0.66272200  0.66620400  1
  Ba  Ba8  1  0.74939600  0.66272200  0.66620400  1
  Ba  Ba9  1  0.24962100  0.33340400  0.32581700  1
  As  As0  1  0.00000000  0.61879500  0.41549800  1
  As  As1  1  0.00000000  0.41699500  0.96367700  1
  As  As2  1  0.50000000  0.03378900  0.38274000  1
  As  As3  1  0.50000000  0.58561100  0.03445800  1
  S  S0  1  0.74985400  0.00186500  0.99223300  1
  S  S1  1  0.25014600  0.00186500  0.99223300  1
  S  S2  1  0.00000000  0.96405400  0.62066500  1
  S  S3  1  0.50000000  0.37904400  0.58354100  1
  O  O0  1  0.15549200  0.91856400  0.71316800  1
  O  O1  1  0.17727700  0.72859100  0.36542500  1
  O  O2  1  0.17803200  0.36515300  0.90639300  1
  O  O3  1  0.67805700  0.09141600  0.27379100  1
  O  O4  1  0.65535500  0.28616100  0.63112800  1
  O  O5  1  0.67743900  0.63504600  0.09421000  1
  O  O6  1  0.32194300  0.09141600  0.27379100  1
  O  O7  1  0.34464500  0.28616100  0.63112800  1
  O  O8  1  0.32256100  0.63504600  0.09421000  1
  O  O9  1  0.84450800  0.91856400  0.71316800  1
  O  O10  1  0.82272300  0.72859100  0.36542500  1
  O  O11  1  0.82196800  0.36515300  0.90639300  1
  O  O12  1  0.00000000  0.12450500  0.52348300  1
  O  O13  1  0.00000000  0.50555100  0.34383200  1
  O  O14  1  0.00000000  0.34186800  0.14877000  1
  O  O15  1  0.50000000  0.84890300  0.49417100  1
  O  O16  1  0.50000000  0.47673100  0.64648200  1
  O  O17  1  0.50000000  0.66071000  0.84903100  1
  O  O18  1  0.00000000  0.52309400  0.60226500  1
  O  O19  1  0.00000000  0.60400000  0.87318300  1
  O  O20  1  0.00000000  0.88933700  0.53328000  1
  O  O21  1  0.50000000  0.46667000  0.42205100  1
  O  O22  1  0.50000000  0.39884200  0.12614300  1
  O  O23  1  0.50000000  0.12492900  0.47918500  1
loop_
_geom_bond_atom_site_label_1
_geom_bond_atom_site_label_2
_geom_bond_distance
_geom_bond_site_symmetry_2
Ba0 O3 2.807780 1_455
Ba0 O6 2.807780 1_555
Ba0 O20 2.849953 1_545
Ba0 O10 2.928400 1_445
Ba0 O1 2.928400 1_545
Ba0 S1 3.223876 1_554
Ba0 S0 3.223876 1_454
Ba0 O14 3.248875 1_555
Ba1 O18 2.700890 1_555
Ba1 O2 2.855476 1_555
Ba1 O11 2.855476 1_455
Ba1 O4 3.000254 1_455
Ba1 O7 3.000254 1_555
Ba1 S0 3.126451 1_455
Ba1 S1 3.126451 1_555
Ba1 O12 3.369451 1_555
Ba2 O19 2.722550 1_554
Ba2 O8 2.774639 1_555
Ba2 O5 2.774639 1_455
Ba2 O0 3.062282 1_554
Ba2 O9 3.062282 1_454
Ba2 O13 3.183027 1_555
Ba2 S0 3.195922 1_464
Ba2 S1 3.195922 1_564
Ba3 O23 2.716679 1_565
Ba3 O9 2.957895 1_555
Ba3 O0 2.957895 1_555
Ba3 O7 3.013533 1_565
Ba3 O4 3.013533 1_565
Ba3 S0 3.123726 1_565
Ba3 S1 3.123726 1_565
Ba3 O17 3.184084 1_555
Ba4 O10 2.812152 1_555
Ba4 O1 2.812152 1_555
Ba4 O21 2.854881 1_555
Ba4 O5 2.935182 1_555
Ba4 O8 2.935182 1_555
Ba4 S1 3.210702 1_564
Ba4 S0 3.210702 1_564
Ba4 O15 3.252356 1_555
Ba5 O22 2.707057 1_556
Ba5 O11 2.817873 1_555
Ba5 O2 2.817873 1_555
Ba5 O6 2.908621 1_556
Ba5 O3 2.908621 1_556
Ba5 S1 3.199057 1_555
Ba5 S0 3.199057 1_555
Ba5 O16 3.347022 1_555
Ba6 O14 2.696060 1_655
Ba6 O22 2.725701 1_555
Ba6 O13 2.761220 1_655
Ba6 O23 2.807498 1_555
Ba6 O21 2.902254 1_555
Ba6 O12 2.931955 1_655
Ba6 O3 2.962528 1_555
Ba6 O5 2.985353 1_555
Ba6 O4 3.138004 1_555
Ba7 O15 2.744804 1_555
Ba7 O18 2.755125 1_555
Ba7 O17 2.760736 1_555
Ba7 O19 2.790263 1_555
Ba7 O16 2.873556 1_555
Ba7 O20 2.886772 1_555
Ba7 O2 2.984895 1_555
Ba7 O1 2.988779 1_555
Ba7 O0 3.111016 1_555
Ba8 O15 2.744804 1_555
Ba8 O18 2.755125 1_655
Ba8 O17 2.760736 1_555
Ba8 O19 2.790263 1_655
Ba8 O16 2.873556 1_555
Ba8 O20 2.886772 1_655
Ba8 O11 2.984895 1_555
Ba8 O10 2.988779 1_555
Ba8 O9 3.111016 1_555
Ba9 O14 2.696060 1_555
Ba9 O22 2.725701 1_555
Ba9 O13 2.761220 1_555
Ba9 O23 2.807498 1_555
Ba9 O21 2.902254 1_555
Ba9 O12 2.931955 1_555
Ba9 O6 2.962528 1_555
Ba9 O8 2.985353 1_555
Ba9 O7 3.138004 1_555
As0 O1 1.725117 1_555
As0 O10 1.725117 1_455
As0 O13 1.727557 1_555
As0 O18 1.733286 1_555
As1 O2 1.725132 1_555
As1 O11 1.725132 1_455
As1 O14 1.727394 1_556
As1 O19 1.734798 1_555
As2 O6 1.725331 1_555
As2 O3 1.725331 1_555
As2 O15 1.727261 1_545
As2 O23 1.738268 1_555
As3 O5 1.722344 1_555
As3 O8 1.722344 1_555
As3 O17 1.730699 1_554
As3 O22 1.732430 1_555
O0 S2 1.492167 1_555
O4 S3 1.493158 1_555
O7 S3 1.493158 1_555
O9 S2 1.492167 1_655
O12 S2 1.499601 1_545
O16 S3 1.499771 1_555
O20 S2 1.503482 1_555
O21 S3 1.500424 1_555
