# generated using pymatgen
data_Mg2Si3
_symmetry_space_group_name_H-M   'P 1'
_cell_length_a   4.07929100
_cell_length_b   6.22100231
_cell_length_c   16.45375134
_cell_angle_alpha   80.56209738
_cell_angle_beta   87.52867723
_cell_angle_gamma   78.90785190
_symmetry_Int_Tables_number   1
_chemical_formula_structural   Mg2Si3
_chemical_formula_sum   'Mg8 Si12'
_cell_volume   404.17585787
_cell_formula_units_Z   4
loop_
 _symmetry_equiv_pos_site_id
 _symmetry_equiv_pos_as_xyz
  1  'x, y, z'
loop_
 _atom_site_type_symbol
 _atom_site_label
 _atom_site_symmetry_multiplicity
 _atom_site_fract_x
 _atom_site_fract_y
 _atom_site_fract_z
 _atom_site_occupancy
  Mg  Mg0  1  0.81924800  0.26672900  0.95744900  1
  Mg  Mg1  1  0.04200500  0.73078800  0.52740300  1
  Mg  Mg2  1  0.39240400  0.30596500  0.79767300  1
  Mg  Mg3  1  0.65196500  0.75756600  0.72208700  1
  Mg  Mg4  1  0.95799500  0.26921200  0.47259700  1
  Mg  Mg5  1  0.18075200  0.73327100  0.04255100  1
  Mg  Mg6  1  0.34803500  0.24243400  0.27791300  1
  Mg  Mg7  1  0.60759600  0.69403500  0.20232700  1
  Si  Si0  1  0.05429000  0.99870000  0.77813300  1
  Si  Si1  1  0.86450700  0.34973000  0.67967500  1
  Si  Si2  1  0.34978800  0.64432800  0.88268200  1
  Si  Si3  1  0.37439800  0.34312000  0.60420500  1
  Si  Si4  1  0.55047700  0.01780800  0.42725400  1
  Si  Si5  1  0.22401800  0.13974600  0.09697600  1
  Si  Si6  1  0.13549300  0.65027000  0.32032500  1
  Si  Si7  1  0.94571000  0.00130000  0.22186700  1
  Si  Si8  1  0.62560200  0.65688000  0.39579500  1
  Si  Si9  1  0.65021200  0.35567200  0.11731800  1
  Si  Si10  1  0.77598200  0.86025400  0.90302400  1
  Si  Si11  1  0.44952300  0.98219200  0.57274600  1
loop_
_geom_bond_atom_site_label_1
_geom_bond_atom_site_label_2
_geom_bond_distance
_geom_bond_site_symmetry_2
Mg0 Si5 2.801982 1_656
Mg0 Si9 2.806239 1_556
Mg0 Si10 2.855746 1_545
Mg0 Si2 2.867642 1_555
Mg1 Si3 2.672394 1_555
Mg1 Si11 2.693734 1_555
Mg1 Si11 2.759857 1_455
Mg1 Si4 2.804697 1_465
Mg1 Si8 2.954681 1_455
Mg1 Si8 3.166841 1_555
Mg2 Si0 2.629409 1_545
Mg2 Si2 2.687245 1_555
Mg2 Si1 2.694144 1_555
Mg2 Si1 2.905602 1_455
Mg2 Si0 3.031196 1_645
Mg2 Si3 3.156641 1_555
Mg3 Si11 2.697682 1_555
Mg3 Si0 2.706605 1_655
Mg3 Si1 2.712542 1_555
Mg3 Si0 2.810246 1_555
Mg3 Si2 2.905289 1_555
Mg4 Si8 2.672394 1_555
Mg4 Si4 2.693734 1_555
Mg4 Si4 2.759857 1_655
Mg4 Si11 2.804697 1_645
Mg4 Si3 2.954681 1_655
Mg4 Si3 3.166841 1_555
Mg5 Si10 2.801982 1_454
Mg5 Si2 2.806239 1_554
Mg5 Si5 2.855746 1_565
Mg5 Si9 2.867642 1_555
Mg6 Si4 2.697682 1_555
Mg6 Si7 2.706605 1_455
Mg6 Si6 2.712542 1_555
Mg6 Si7 2.810246 1_555
Mg6 Si9 2.905289 1_555
Mg7 Si7 2.629409 1_565
Mg7 Si9 2.687245 1_555
Mg7 Si6 2.694144 1_555
Mg7 Si6 2.905602 1_655
Mg7 Si7 3.031196 1_465
Mg7 Si8 3.156641 1_555
Si0 Si10 2.418268 1_455
Si0 Si1 2.507988 1_465
Si0 Si2 2.680457 1_555
Si1 Si3 2.373002 1_655
Si1 Si3 2.409012 1_555
Si4 Si8 2.346505 1_545
Si5 Si7 2.418268 1_455
Si5 Si9 2.456678 1_555
Si5 Si9 2.503089 1_455
Si6 Si8 2.373002 1_455
Si6 Si8 2.409012 1_555
Si6 Si7 2.507988 1_465
Si7 Si9 2.680457 1_555
Si10 Si2 2.456678 1_555
Si10 Si2 2.503089 1_655
Si11 Si3 2.346505 1_565
Si11 Si4 2.392809 1_565
