# generated using pymatgen
data_Li9Mn2Co5O16
_symmetry_space_group_name_H-M   'P 1'
_cell_length_a   2.86912800
_cell_length_b   5.22645700
_cell_length_c   19.56468634
_cell_angle_alpha   82.52814884
_cell_angle_beta   90.00000000
_cell_angle_gamma   90.00000000
_symmetry_Int_Tables_number   1
_chemical_formula_structural   Li9Mn2Co5O16
_chemical_formula_sum   'Li9 Mn2 Co5 O16'
_cell_volume   290.88866458
_cell_formula_units_Z   1
loop_
 _symmetry_equiv_pos_site_id
 _symmetry_equiv_pos_as_xyz
  1  'x, y, z'
loop_
 _atom_site_type_symbol
 _atom_site_label
 _atom_site_symmetry_multiplicity
 _atom_site_fract_x
 _atom_site_fract_y
 _atom_site_fract_z
 _atom_site_occupancy
  Li  Li0  1  0.50000000  0.50422200  0.99873800  1
  Li  Li1  1  0.00000000  0.75345600  0.87103400  1
  Li  Li2  1  0.50000000  0.00584000  0.74640500  1
  Li  Li3  1  0.00000000  0.25751100  0.62386400  1
  Li  Li4  1  0.50000000  0.49992800  0.50062600  1
  Li  Li5  1  0.00000000  0.24614300  0.12620800  1
  Li  Li6  1  0.50000000  0.99044800  0.25417500  1
  Li  Li7  1  0.00000000  0.73910100  0.37825700  1
  Li  Li8  1  0.00000000  0.99649800  0.50117200  1
  Mn  Mn0  1  0.00000000  0.00562800  0.99733700  1
  Mn  Mn1  1  0.50000000  0.74125500  0.12795400  1
  Co  Co0  1  0.50000000  0.26888300  0.87110100  1
  Co  Co1  1  0.00000000  0.51278200  0.74570900  1
  Co  Co2  1  0.50000000  0.77920800  0.61635300  1
  Co  Co3  1  0.50000000  0.21200700  0.38452300  1
  Co  Co4  1  0.00000000  0.48477100  0.25420600  1
  O  O0  1  0.50000000  0.11712700  0.05616500  1
  O  O1  1  0.00000000  0.36907300  0.92830200  1
  O  O2  1  0.50000000  0.62813100  0.80685600  1
  O  O3  1  0.00000000  0.85436200  0.68311500  1
  O  O4  1  0.50000000  0.09470400  0.56882300  1
  O  O5  1  0.00000000  0.86331300  0.18356800  1
  O  O6  1  0.50000000  0.60132200  0.30772400  1
  O  O7  1  0.00000000  0.36580500  0.43129500  1
  O  O8  1  0.50000000  0.88351000  0.94222200  1
  O  O9  1  0.00000000  0.15806700  0.81536500  1
  O  O10  1  0.50000000  0.39260200  0.69100800  1
  O  O11  1  0.00000000  0.62908000  0.56793000  1
  O  O12  1  0.50000000  0.89839800  0.43245200  1
  O  O13  1  0.00000000  0.62586300  0.07076200  1
  O  O14  1  0.50000000  0.37969600  0.19744600  1
  O  O15  1  0.00000000  0.14126500  0.31930500  1
loop_
_geom_bond_atom_site_label_1
_geom_bond_atom_site_label_2
_geom_bond_distance
_geom_bond_site_symmetry_2
Li0 O8 2.140605 1_555
Li0 O13 2.163512 1_656
Li0 O13 2.163512 1_556
Li0 O1 2.170048 1_555
Li0 O1 2.170048 1_655
Li0 O0 2.182715 1_556
Li1 O2 2.068210 1_555
Li1 O2 2.068210 1_455
Li1 O1 2.169304 1_555
Li1 O8 2.169337 1_455
Li1 O8 2.169337 1_555
Li1 O9 2.249246 1_565
Li2 O3 2.114940 1_545
Li2 O3 2.114940 1_645
Li2 O2 2.165309 1_545
Li2 O10 2.165854 1_555
Li2 O9 2.188704 1_555
Li2 O9 2.188704 1_655
Li3 O4 2.044492 1_555
Li3 O4 2.044492 1_455
Li3 O11 2.101469 1_555
Li3 O10 2.126824 1_455
Li3 O10 2.126824 1_555
Li3 O3 2.268960 1_545
Li4 O11 2.116292 1_555
Li4 O11 2.116292 1_655
Li4 O7 2.153272 1_655
Li4 O7 2.153272 1_555
Li4 O12 2.322447 1_555
Li4 O4 2.351753 1_555
Li5 O13 2.134349 1_555
Li5 O0 2.151949 1_555
Li5 O0 2.151949 1_455
Li5 O5 2.163053 1_545
Li5 O14 2.177325 1_555
Li5 O14 2.177325 1_455
Li6 O15 2.136405 1_665
Li6 O15 2.136405 1_565
Li6 O5 2.155572 1_555
Li6 O5 2.155572 1_655
Li6 O6 2.163239 1_555
Li6 O14 2.187085 1_565
Li7 O12 2.026073 1_555
Li7 O12 2.026073 1_455
Li7 O7 2.087269 1_555
Li7 O6 2.176977 1_455
Li7 O6 2.176977 1_555
Li7 O15 2.262240 1_565
Li8 O4 2.061539 1_565
Li8 O4 2.061539 1_465
Li8 O12 2.075518 1_555
Li8 O12 2.075518 1_455
Li8 O11 2.177412 1_555
Li8 O7 2.215464 1_565
Mn0 O8 1.951171 1_445
Mn0 O8 1.951171 1_545
Mn0 O0 1.974004 1_456
Mn0 O0 1.974004 1_556
Mn0 O1 2.182936 1_555
Mn0 O13 2.293821 1_546
Mn1 O5 1.956873 1_655
Mn1 O5 1.956873 1_555
Mn1 O13 1.961947 1_555
Mn1 O13 1.961947 1_655
Mn1 O14 2.179715 1_555
Mn1 O0 2.261477 1_565
Co0 O1 1.933135 1_655
Co0 O1 1.933135 1_555
Co0 O9 1.935658 1_555
Co0 O9 1.935658 1_655
Co0 O2 2.119305 1_555
Co0 O8 2.294343 1_545
Co1 O10 1.942338 1_555
Co1 O10 1.942338 1_455
Co1 O2 2.010020 1_555
Co1 O2 2.010020 1_455
Co1 O3 2.029347 1_555
Co1 O9 2.153390 1_555
Co2 O4 1.784628 1_565
Co2 O11 1.940229 1_655
Co2 O11 1.940229 1_555
Co2 O3 2.012906 1_655
Co2 O3 2.012906 1_555
Co2 O10 2.334211 1_555
Co3 O12 1.779356 1_545
Co3 O7 1.932038 1_655
Co3 O7 1.932038 1_555
Co3 O15 1.986320 1_655
Co3 O15 1.986320 1_555
Co3 O6 2.366997 1_555
Co4 O6 1.921265 1_455
Co4 O6 1.921265 1_555
Co4 O14 1.936843 1_555
Co4 O14 1.936843 1_455
Co4 O15 2.061708 1_555
Co4 O5 2.261204 1_555
