# generated using pymatgen
data_LaMnZnCrO6
_symmetry_space_group_name_H-M   'P 1'
_cell_length_a   5.33465879
_cell_length_b   5.45356800
_cell_length_c   7.66388944
_cell_angle_alpha   90.00000000
_cell_angle_beta   90.23489491
_cell_angle_gamma   90.00000000
_symmetry_Int_Tables_number   1
_chemical_formula_structural   LaMnZnCrO6
_chemical_formula_sum   'La2 Mn2 Zn2 Cr2 O12'
_cell_volume   222.96308277
_cell_formula_units_Z   2
loop_
 _symmetry_equiv_pos_site_id
 _symmetry_equiv_pos_as_xyz
  1  'x, y, z'
loop_
 _atom_site_type_symbol
 _atom_site_label
 _atom_site_symmetry_multiplicity
 _atom_site_fract_x
 _atom_site_fract_y
 _atom_site_fract_z
 _atom_site_occupancy
  La  La0  1  0.00812700  0.96807200  0.74978600  1
  La  La1  1  0.50812700  0.53192800  0.24978600  1
  Mn  Mn0  1  0.49942800  0.00473400  0.99993300  1
  Mn  Mn1  1  0.99942800  0.49526600  0.49993300  1
  Zn  Zn0  1  0.48288200  0.45938600  0.74744000  1
  Zn  Zn1  1  0.98288200  0.04061400  0.24744000  1
  Cr  Cr0  1  0.49827300  0.00141000  0.49871500  1
  Cr  Cr1  1  0.99827300  0.49859000  0.99871500  1
  O  O0  1  0.07632900  0.45198800  0.25526200  1
  O  O1  1  0.22716500  0.22082400  0.95035900  1
  O  O2  1  0.21923700  0.22971300  0.55477800  1
  O  O3  1  0.31311500  0.70145100  0.94240100  1
  O  O4  1  0.30149200  0.69352000  0.55645700  1
  O  O5  1  0.37394900  0.98034200  0.24486800  1
  O  O6  1  0.57632900  0.04801200  0.75526200  1
  O  O7  1  0.72716500  0.27917600  0.45036000  1
  O  O8  1  0.71923700  0.27028700  0.05477800  1
  O  O9  1  0.81311500  0.79854900  0.44240100  1
  O  O10  1  0.80149200  0.80648000  0.05645700  1
  O  O11  1  0.87394900  0.51965800  0.74486800  1
loop_
_geom_bond_atom_site_label_1
_geom_bond_atom_site_label_2
_geom_bond_distance
_geom_bond_site_symmetry_2
La0 O6 2.344931 1_465
La0 O2 2.356203 1_565
La0 O1 2.369288 1_565
La0 O11 2.548297 1_455
La0 O4 2.627814 1_555
La0 O3 2.630739 1_555
La0 O9 2.732492 1_455
La0 O10 2.745332 1_456
La1 O0 2.344931 1_555
La1 O8 2.356203 1_555
La1 O7 2.369293 1_555
La1 O5 2.548297 1_555
La1 O10 2.627814 1_555
La1 O9 2.630739 1_555
La1 O3 2.732492 1_554
La1 O4 2.745332 1_555
Mn0 O1 1.907393 1_555
Mn0 O8 1.909176 1_556
Mn0 O6 1.935569 1_555
Mn0 O3 1.978463 1_545
Mn0 O10 1.986843 1_546
Mn0 O5 1.999947 1_546
Mn1 O7 1.907391 1_555
Mn1 O2 1.909176 1_655
Mn1 O0 1.935569 1_655
Mn1 O9 1.978463 1_555
Mn1 O4 1.986843 1_655
Mn1 O11 1.999947 1_555
Cr0 O7 1.981591 1_555
Cr0 O2 1.988934 1_555
Cr0 O6 2.024106 1_555
Cr0 O4 2.030027 1_545
Cr0 O5 2.056037 1_545
Cr0 O9 2.058425 1_545
Cr1 O1 1.981592 1_655
Cr1 O8 1.988934 1_556
Cr1 O0 2.024106 1_656
Cr1 O10 2.030027 1_556
Cr1 O11 2.056037 1_555
Cr1 O3 2.058425 1_655
O0 Zn1 2.298903 1_455
O1 Zn0 2.447337 1_555
O2 Zn0 2.389584 1_555
O3 Zn0 2.192378 1_555
O4 Zn0 2.167363 1_555
O5 Zn1 2.112116 1_465
O6 Zn0 2.298903 1_555
O7 Zn1 2.447342 1_555
O8 Zn1 2.389584 1_555
O9 Zn1 2.192378 1_565
O10 Zn1 2.167363 1_565
O11 Zn0 2.112116 1_555
