# generated using pymatgen
data_Na2ZrSi6(HO3)6
_symmetry_space_group_name_H-M   'P 1'
_cell_length_a   7.20704822
_cell_length_b   14.84859969
_cell_length_c   14.86344445
_cell_angle_alpha   90.00000000
_cell_angle_beta   90.00000000
_cell_angle_gamma   90.00000000
_symmetry_Int_Tables_number   1
_chemical_formula_structural   Na2ZrSi6(HO3)6
_chemical_formula_sum   'Na8 Zr4 Si24 H24 O72'
_cell_volume   1590.60517547
_cell_formula_units_Z   4
loop_
 _symmetry_equiv_pos_site_id
 _symmetry_equiv_pos_as_xyz
  1  'x, y, z'
loop_
 _atom_site_type_symbol
 _atom_site_label
 _atom_site_symmetry_multiplicity
 _atom_site_fract_x
 _atom_site_fract_y
 _atom_site_fract_z
 _atom_site_occupancy
  Na  Na0  1  0.56089363  0.75000000  0.73104779  1
  Na  Na1  1  0.43910637  0.25000000  0.26895221  1
  Na  Na2  1  0.56089363  0.25000000  0.76895221  1
  Na  Na3  1  0.43910637  0.75000000  0.23104779  1
  Na  Na4  1  0.00450483  -0.00000000  0.75000000  1
  Na  Na5  1  0.99549517  0.50000000  0.25000000  1
  Na  Na6  1  0.99549517  -0.00000000  0.25000000  1
  Na  Na7  1  0.00450483  0.50000000  0.75000000  1
  Zr  Zr0  1  0.50404636  -0.00000000  0.75000000  1
  Zr  Zr1  1  0.49595364  0.50000000  0.25000000  1
  Zr  Zr2  1  0.49595364  -0.00000000  0.25000000  1
  Zr  Zr3  1  0.50404636  0.50000000  0.75000000  1
  Si  Si0  1  0.22729073  0.85363305  0.88604462  1
  Si  Si1  1  0.77270927  0.35363305  0.11395538  1
  Si  Si2  1  0.22729073  0.14636695  0.61395538  1
  Si  Si3  1  0.77270927  0.64636695  0.38604462  1
  Si  Si4  1  0.77270927  0.14636695  0.11395538  1
  Si  Si5  1  0.22729073  0.64636695  0.88604462  1
  Si  Si6  1  0.77270927  0.85363305  0.38604462  1
  Si  Si7  1  0.22729073  0.35363305  0.61395538  1
  Si  Si8  1  0.49257770  0.85772540  0.54735817  1
  Si  Si9  1  0.50742230  0.35772540  0.45264183  1
  Si  Si10  1  0.49257770  0.14227460  0.95264183  1
  Si  Si11  1  0.50742230  0.64227460  0.04735817  1
  Si  Si12  1  0.50742230  0.14227460  0.45264183  1
  Si  Si13  1  0.49257770  0.64227460  0.54735817  1
  Si  Si14  1  0.50742230  0.85772540  0.04735817  1
  Si  Si15  1  0.49257770  0.35772540  0.95264183  1
  Si  Si16  1  0.78163817  0.85549304  0.89196979  1
  Si  Si17  1  0.21836183  0.35549304  0.10803021  1
  Si  Si18  1  0.78163817  0.14450696  0.60803021  1
  Si  Si19  1  0.21836183  0.64450696  0.39196979  1
  Si  Si20  1  0.21836183  0.14450696  0.10803021  1
  Si  Si21  1  0.78163817  0.64450696  0.89196979  1
  Si  Si22  1  0.21836183  0.85549304  0.39196979  1
  Si  Si23  1  0.78163817  0.35549304  0.60803021  1
  H  H0  1  0.09948994  0.91777580  0.57412966  1
  H  H1  1  0.90051006  0.41777580  0.42587034  1
  H  H2  1  0.09948994  0.08222420  0.92587034  1
  H  H3  1  0.90051006  0.58222420  0.07412966  1
  H  H4  1  0.90051006  0.08222420  0.42587034  1
  H  H5  1  0.09948994  0.58222420  0.57412966  1
  H  H6  1  0.90051006  0.91777580  0.07412966  1
  H  H7  1  0.09948994  0.41777580  0.92587034  1
  H  H8  1  0.94259753  0.69647296  0.66585635  1
  H  H9  1  0.05740247  0.19647296  0.33414365  1
  H  H10  1  0.94259753  0.30352704  0.83414365  1
  H  H11  1  0.05740247  0.80352704  0.16585635  1
  H  H12  1  0.05740247  0.30352704  0.33414365  1
  H  H13  1  0.94259753  0.80352704  0.66585635  1
  H  H14  1  0.05740247  0.69647296  0.16585635  1
  H  H15  1  0.94259753  0.19647296  0.83414365  1
  H  H16  1  0.88273238  0.91784650  0.57621126  1
  H  H17  1  0.11726762  0.41784650  0.42378874  1
  H  H18  1  0.88273238  0.08215350  0.92378874  1
  H  H19  1  0.11726762  0.58215350  0.07621126  1
  H  H20  1  0.11726762  0.08215350  0.42378874  1
  H  H21  1  0.88273238  0.58215350  0.57621126  1
  H  H22  1  0.11726762  0.91784650  0.07621126  1
  H  H23  1  0.88273238  0.41784650  0.92378874  1
  O  O0  1  0.00508831  0.86174244  0.90397577  1
  O  O1  1  0.99491169  0.36174244  0.09602423  1
  O  O2  1  0.00508831  0.13825756  0.59602423  1
  O  O3  1  0.99491169  0.63825756  0.40397577  1
  O  O4  1  0.99491169  0.13825756  0.09602423  1
  O  O5  1  0.00508831  0.63825756  0.90397577  1
  O  O6  1  0.99491169  0.86174244  0.40397577  1
  O  O7  1  0.00508831  0.36174244  0.59602423  1
  O  O8  1  0.28009499  0.75000000  0.85478285  1
  O  O9  1  0.71990501  0.25000000  0.14521715  1
  O  O10  1  0.28009499  0.25000000  0.64521715  1
  O  O11  1  0.71990501  0.75000000  0.35478285  1
  O  O12  1  0.29259086  0.92252822  0.80935860  1
  O  O13  1  0.70740914  0.42252822  0.19064140  1
  O  O14  1  0.29259086  0.07747178  0.69064140  1
  O  O15  1  0.70740914  0.57747178  0.30935860  1
  O  O16  1  0.70740914  0.07747178  0.19064140  1
  O  O17  1  0.29259086  0.57747178  0.80935860  1
  O  O18  1  0.70740914  0.92252822  0.30935860  1
  O  O19  1  0.29259086  0.42252822  0.69064140  1
  O  O20  1  0.32191675  0.87432674  0.98494274  1
  O  O21  1  0.67808325  0.37432674  0.01505726  1
  O  O22  1  0.32191675  0.12567326  0.51505726  1
  O  O23  1  0.67808325  0.62567326  0.48494274  1
  O  O24  1  0.67808325  0.12567326  0.01505726  1
  O  O25  1  0.32191675  0.62567326  0.98494274  1
  O  O26  1  0.67808325  0.87432674  0.48494274  1
  O  O27  1  0.32191675  0.37432674  0.51505726  1
  O  O28  1  0.47673357  0.75000000  0.57179816  1
  O  O29  1  0.52326643  0.25000000  0.42820184  1
  O  O30  1  0.47673357  0.25000000  0.92820184  1
  O  O31  1  0.52326643  0.75000000  0.07179816  1
  O  O32  1  0.50800768  0.91130009  0.64023364  1
  O  O33  1  0.49199232  0.41130009  0.35976636  1
  O  O34  1  0.50800768  0.08869991  0.85976636  1
  O  O35  1  0.49199232  0.58869991  0.14023364  1
  O  O36  1  0.49199232  0.08869991  0.35976636  1
  O  O37  1  0.50800768  0.58869991  0.64023364  1
  O  O38  1  0.49199232  0.91130009  0.14023364  1
  O  O39  1  0.50800768  0.41130009  0.85976636  1
  O  O40  1  0.69568769  0.88661138  0.99066341  1
  O  O41  1  0.30431231  0.38661138  0.00933659  1
  O  O42  1  0.69568769  0.11338862  0.50933659  1
  O  O43  1  0.30431231  0.61338862  0.49066341  1
  O  O44  1  0.30431231  0.11338862  0.00933659  1
  O  O45  1  0.69568769  0.61338862  0.99066341  1
  O  O46  1  0.30431231  0.88661138  0.49066341  1
  O  O47  1  0.69568769  0.38661138  0.50933659  1
  O  O48  1  0.71787671  0.75000000  0.87531753  1
  O  O49  1  0.28212329  0.25000000  0.12468247  1
  O  O50  1  0.71787671  0.25000000  0.62468247  1
  O  O51  1  0.28212329  0.75000000  0.37531753  1
  O  O52  1  0.70875607  0.91723324  0.81057934  1
  O  O53  1  0.29124393  0.41723324  0.18942066  1
  O  O54  1  0.70875607  0.08276676  0.68942066  1
  O  O55  1  0.29124393  0.58276676  0.31057934  1
  O  O56  1  0.29124393  0.08276676  0.18942066  1
  O  O57  1  0.70875607  0.58276676  0.81057934  1
  O  O58  1  0.29124393  0.91723324  0.31057934  1
  O  O59  1  0.70875607  0.41723324  0.68942066  1
  O  O60  1  0.99240383  0.91831059  0.61520520  1
  O  O61  1  0.00759617  0.41831059  0.38479480  1
  O  O62  1  0.99240383  0.08168941  0.88479480  1
  O  O63  1  0.00759617  0.58168941  0.11520520  1
  O  O64  1  0.00759617  0.08168941  0.38479480  1
  O  O65  1  0.99240383  0.58168941  0.61520520  1
  O  O66  1  0.00759617  0.91831059  0.11520520  1
  O  O67  1  0.99240383  0.41831059  0.88479480  1
  O  O68  1  0.87934259  0.75000000  0.69009214  1
  O  O69  1  0.12065741  0.25000000  0.30990786  1
  O  O70  1  0.87934259  0.25000000  0.80990786  1
  O  O71  1  0.12065741  0.75000000  0.19009214  1
loop_
_geom_bond_atom_site_label_1
_geom_bond_atom_site_label_2
_geom_bond_distance
_geom_bond_site_symmetry_2
Na0 O68 2.374436 1_555
Na0 O48 2.424510 1_555
Na0 O28 2.443476 1_555
Na0 O8 2.734571 1_555
Na0 O37 2.775550 1_555
Na0 O32 2.775550 1_555
Na0 O57 2.949438 1_555
Na0 O52 2.949438 1_555
Na1 O69 2.374436 1_555
Na1 O49 2.424510 1_555
Na1 O29 2.443476 1_555
Na1 O9 2.734571 1_555
Na1 O36 2.775550 1_555
Na1 O33 2.775550 1_555
Na1 O53 2.949438 1_555
Na1 O56 2.949438 1_555
Na2 O70 2.374436 1_555
Na2 O50 2.424510 1_555
Na2 O30 2.443476 1_555
Na2 O10 2.734571 1_555
Na2 O34 2.775550 1_555
Na2 O39 2.775550 1_555
Na2 O59 2.949438 1_555
Na2 O54 2.949438 1_555
Na3 O71 2.374436 1_555
Na3 O51 2.424510 1_555
Na3 O31 2.443476 1_555
Na3 O11 2.734571 1_555
Na3 O35 2.775550 1_555
Na3 O38 2.775550 1_555
Na3 O55 2.949438 1_555
Na3 O58 2.949438 1_555
Na4 O60 2.343711 1_445
Na4 O62 2.343711 1_455
Na4 O12 2.532295 1_545
Na4 O14 2.532295 1_555
Na4 O52 2.619983 1_445
Na4 O54 2.619983 1_455
Na5 O63 2.343711 1_655
Na5 O61 2.343711 1_655
Na5 O15 2.532295 1_555
Na5 O13 2.532295 1_555
Na5 O55 2.619983 1_655
Na5 O53 2.619983 1_655
Na6 O66 2.343711 1_645
Na6 O64 2.343711 1_655
Na6 O16 2.532295 1_555
Na6 O18 2.532295 1_545
Na6 O58 2.619983 1_645
Na6 O56 2.619983 1_655
Na7 O65 2.343711 1_455
Na7 O67 2.343711 1_455
Na7 O17 2.532295 1_555
Na7 O19 2.532295 1_555
Na7 O59 2.619983 1_455
Na7 O57 2.619983 1_455
H0 O60 0.984093 1_455
H1 O61 0.984093 1_655
H2 O62 0.984093 1_455
H3 O63 0.984093 1_655
H4 O64 0.984093 1_655
H5 O65 0.984093 1_455
H6 O66 0.984093 1_655
H7 O67 0.984093 1_455
H8 O68 0.984531 1_555
H9 O69 0.984531 1_555
H10 O70 0.984531 1_555
H11 O71 0.984531 1_555
H12 O69 0.984531 1_555
H13 O68 0.984531 1_555
H14 O71 0.984531 1_555
H15 O70 0.984531 1_555
H16 O60 0.980158 1_555
H17 O61 0.980158 1_555
H18 O62 0.980158 1_555
H19 O63 0.980158 1_555
H20 O64 0.980158 1_555
H21 O65 0.980158 1_555
H22 O66 0.980158 1_555
H23 O67 0.980158 1_555
O0 Si16 1.622928 1_455
O0 Si0 1.627909 1_555
O1 Si17 1.622928 1_655
O1 Si1 1.627909 1_555
O2 Si18 1.622928 1_455
O2 Si2 1.627909 1_555
O3 Si19 1.622928 1_655
O3 Si3 1.627909 1_555
O4 Si20 1.622928 1_655
O4 Si4 1.627909 1_555
O5 Si21 1.622928 1_455
O5 Si5 1.627909 1_555
O6 Si22 1.622928 1_655
O6 Si6 1.627909 1_555
O7 Si23 1.622928 1_455
O7 Si7 1.627909 1_555
O8 Si5 1.651865 1_555
O8 Si0 1.651865 1_555
O9 Si4 1.651865 1_555
O9 Si1 1.651865 1_555
O10 Si2 1.651865 1_555
O10 Si7 1.651865 1_555
O11 Si6 1.651865 1_555
O11 Si3 1.651865 1_555
O12 Si0 1.602246 1_555
O12 Zr0 2.103376 1_565
O13 Si1 1.602246 1_555
O13 Zr1 2.103376 1_555
O14 Si2 1.602246 1_555
O14 Zr0 2.103376 1_555
O15 Si3 1.602246 1_555
O15 Zr1 2.103376 1_555
O16 Si4 1.602246 1_555
O16 Zr2 2.103376 1_555
O17 Si5 1.602246 1_555
O17 Zr3 2.103376 1_555
O18 Si6 1.602246 1_555
O18 Zr2 2.103376 1_565
O19 Si7 1.602246 1_555
O19 Zr3 2.103376 1_555
O20 Si14 1.645854 1_556
O20 Si0 1.649335 1_555
O21 Si15 1.645854 1_554
O21 Si1 1.649335 1_555
O22 Si12 1.645854 1_555
O22 Si2 1.649335 1_555
O23 Si13 1.645854 1_555
O23 Si3 1.649335 1_555
O24 Si10 1.645854 1_554
O24 Si4 1.649335 1_555
O25 Si11 1.645854 1_556
O25 Si5 1.649335 1_555
O26 Si8 1.645854 1_555
O26 Si6 1.649335 1_555
O27 Si9 1.645854 1_555
O27 Si7 1.649335 1_555
O28 Si8 1.644271 1_555
O28 Si13 1.644271 1_555
O29 Si9 1.644271 1_555
O29 Si12 1.644271 1_555
O30 Si15 1.644271 1_555
O30 Si10 1.644271 1_555
O31 Si14 1.644271 1_555
O31 Si11 1.644271 1_555
O32 Si8 1.597135 1_555
O32 Zr0 2.096974 1_565
O33 Si9 1.597135 1_555
O33 Zr1 2.096974 1_555
O34 Si10 1.597135 1_555
O34 Zr0 2.096974 1_555
O35 Si11 1.597135 1_555
O35 Zr1 2.096974 1_555
O36 Si12 1.597135 1_555
O36 Zr2 2.096974 1_555
O37 Si13 1.597135 1_555
O37 Zr3 2.096974 1_555
O38 Si14 1.597135 1_555
O38 Zr2 2.096974 1_565
O39 Si15 1.597135 1_555
O39 Zr3 2.096974 1_555
O40 Si14 1.653810 1_556
O40 Si16 1.658040 1_555
O41 Si15 1.653810 1_554
O41 Si17 1.658040 1_555
O42 Si12 1.653810 1_555
O42 Si18 1.658040 1_555
O43 Si13 1.653810 1_555
O43 Si19 1.658040 1_555
O44 Si10 1.653810 1_554
O44 Si20 1.658040 1_555
O45 Si11 1.653810 1_556
O45 Si21 1.658040 1_555
O46 Si8 1.653810 1_555
O46 Si22 1.658040 1_555
O47 Si9 1.653810 1_555
O47 Si23 1.658040 1_555
O48 Si21 1.651095 1_555
O48 Si16 1.651095 1_555
O49 Si17 1.651095 1_555
O49 Si20 1.651095 1_555
O50 Si23 1.651095 1_555
O50 Si18 1.651095 1_555
O51 Si19 1.651095 1_555
O51 Si22 1.651095 1_555
O52 Si16 1.606182 1_555
O52 Zr0 2.120798 1_565
O53 Si17 1.606182 1_555
O53 Zr1 2.120798 1_555
O54 Si18 1.606182 1_555
O54 Zr0 2.120798 1_555
O55 Si19 1.606182 1_555
O55 Zr1 2.120798 1_555
O56 Si20 1.606182 1_555
O56 Zr2 2.120798 1_555
O57 Si21 1.606182 1_555
O57 Zr3 2.120798 1_555
O58 Si22 1.606182 1_555
O58 Zr2 2.120798 1_565
O59 Si23 1.606182 1_555
O59 Zr3 2.120798 1_555
