# generated using pymatgen
data_Dy(SiAg)2
_symmetry_space_group_name_H-M   'P 1'
_cell_length_a   6.10190055
_cell_length_b   6.10190055
_cell_length_c   6.10190055
_cell_angle_alpha   140.44395935
_cell_angle_beta   140.44395935
_cell_angle_gamma   57.17982615
_symmetry_Int_Tables_number   1
_chemical_formula_structural   Dy(SiAg)2
_chemical_formula_sum   'Dy1 Si2 Ag2'
_cell_volume   91.36601854
_cell_formula_units_Z   1
loop_
 _symmetry_equiv_pos_site_id
 _symmetry_equiv_pos_as_xyz
  1  'x, y, z'
loop_
 _atom_site_type_symbol
 _atom_site_label
 _atom_site_symmetry_multiplicity
 _atom_site_fract_x
 _atom_site_fract_y
 _atom_site_fract_z
 _atom_site_occupancy
  Dy  Dy0  1  -0.00000000  -0.00000000  -0.00000000  1
  Si  Si0  1  0.39374949  0.39374949  -0.00000000  1
  Si  Si1  1  0.60625051  0.60625051  0.00000000  1
  Ag  Ag0  1  0.75000000  0.25000000  0.50000000  1
  Ag  Ag1  1  0.25000000  0.75000000  0.50000000  1
loop_
_geom_bond_atom_site_label_1
_geom_bond_atom_site_label_2
_geom_bond_distance
_geom_bond_site_symmetry_2
Dy0 Si1 3.134108 1_455
Dy0 Si1 3.134108 1_545
Dy0 Si1 3.134108 1_556
Dy0 Si0 3.134108 1_455
Dy0 Si0 3.134108 1_545
Dy0 Si0 3.134108 1_556
Dy0 Si1 3.134108 1_444
Dy0 Si0 3.134108 1_444
Si0 Si1 2.277109 1_555
Ag0 Si0 2.576033 1_555
Ag0 Si0 2.576033 1_656
Ag0 Si1 2.576033 1_545
Ag0 Si1 2.576033 1_556
Ag0 Ag1 2.919987 1_555
Ag0 Ag1 2.919987 1_656
Ag0 Ag1 2.919987 1_544
Ag0 Ag1 2.919987 1_645
Ag0 Dy0 3.382289 1_555
Ag0 Dy0 3.382289 1_655
Ag0 Dy0 3.382289 1_666
Ag0 Dy0 3.382289 1_656
Ag1 Si1 2.576033 1_455
Ag1 Si0 2.576033 1_555
Ag1 Si0 2.576033 1_566
Ag1 Si1 2.576033 1_556
Ag1 Dy0 3.382289 1_555
Ag1 Dy0 3.382289 1_566
Ag1 Dy0 3.382289 1_666
Ag1 Dy0 3.382289 1_565
