# generated using pymatgen
data_Ho2(Al3Ir)3
_symmetry_space_group_name_H-M   'P 1'
_cell_length_a   7.49251749
_cell_length_b   7.49251749
_cell_length_c   9.41002447
_cell_angle_alpha   90.00000000
_cell_angle_beta   90.00000000
_cell_angle_gamma   119.45108483
_symmetry_Int_Tables_number   1
_chemical_formula_structural   Ho2(Al3Ir)3
_chemical_formula_sum   'Ho4 Al18 Ir6'
_cell_volume   459.99448202
_cell_formula_units_Z   2
loop_
 _symmetry_equiv_pos_site_id
 _symmetry_equiv_pos_as_xyz
  1  'x, y, z'
loop_
 _atom_site_type_symbol
 _atom_site_label
 _atom_site_symmetry_multiplicity
 _atom_site_fract_x
 _atom_site_fract_y
 _atom_site_fract_z
 _atom_site_occupancy
  Ho  Ho0  1  0.99480827  0.67208095  0.25000000  1
  Ho  Ho1  1  0.00519173  0.32791905  0.75000000  1
  Ho  Ho2  1  0.67208095  0.99480827  0.25000000  1
  Ho  Ho3  1  0.32791905  0.00519173  0.75000000  1
  Al  Al0  1  0.13023417  0.13023417  0.25000000  1
  Al  Al1  1  0.86976583  0.86976583  0.75000000  1
  Al  Al2  1  0.00146412  0.33551370  0.07386973  1
  Al  Al3  1  0.99853588  0.66448630  0.92613027  1
  Al  Al4  1  0.99853588  0.66448630  0.57386973  1
  Al  Al5  1  0.33551370  0.00146412  0.42613027  1
  Al  Al6  1  0.00146412  0.33551370  0.42613027  1
  Al  Al7  1  0.66448630  0.99853588  0.57386973  1
  Al  Al8  1  0.66448630  0.99853588  0.92613027  1
  Al  Al9  1  0.33551370  0.00146412  0.07386973  1
  Al  Al10  1  0.33353617  0.33353617  0.55051006  1
  Al  Al11  1  0.66646383  0.66646383  0.44948994  1
  Al  Al12  1  0.66646383  0.66646383  0.05051006  1
  Al  Al13  1  0.33353617  0.33353617  0.94948994  1
  Al  Al14  1  0.33974881  0.54864166  0.25000000  1
  Al  Al15  1  0.66025119  0.45135834  0.75000000  1
  Al  Al16  1  0.54864166  0.33974881  0.25000000  1
  Al  Al17  1  0.45135834  0.66025119  0.75000000  1
  Ir  Ir0  1  0.67212085  0.32787915  0.00000000  1
  Ir  Ir1  1  0.32787915  0.67212085  0.00000000  1
  Ir  Ir2  1  0.32787915  0.67212085  0.50000000  1
  Ir  Ir3  1  0.67212085  0.32787915  0.50000000  1
  Ir  Ir4  1  -0.00000000  -0.00000000  0.00000000  1
  Ir  Ir5  1  -0.00000000  -0.00000000  0.50000000  1
loop_
_geom_bond_atom_site_label_1
_geom_bond_atom_site_label_2
_geom_bond_distance
_geom_bond_site_symmetry_2
Ho0 Ir4 3.387974 1_665
Ho0 Ir5 3.387974 1_665
Ho0 Ir1 3.429471 1_655
Ho0 Ir2 3.429471 1_655
Ho0 Ir0 3.449525 1_555
Ho0 Ir3 3.449525 1_555
Ho1 Ir5 3.387974 1_555
Ho1 Ir4 3.387974 1_556
Ho1 Ir3 3.429471 1_455
Ho1 Ir0 3.429471 1_456
Ho1 Ir2 3.449525 1_555
Ho1 Ir1 3.449525 1_556
Ho2 Ir4 3.387974 1_665
Ho2 Ir5 3.387974 1_665
Ho2 Ir3 3.429471 1_565
Ho2 Ir0 3.429471 1_565
Ho2 Ir2 3.449525 1_555
Ho2 Ir1 3.449525 1_555
Ho3 Ir5 3.387974 1_555
Ho3 Ir4 3.387974 1_556
Ho3 Ir2 3.429471 1_545
Ho3 Ir1 3.429471 1_546
Ho3 Ir0 3.449525 1_556
Ho3 Ir3 3.449525 1_555
Al0 Ir4 2.549957 1_555
Al0 Ir5 2.549957 1_555
Al0 Ho2 3.063983 1_445
Al0 Ho0 3.063983 1_445
Al1 Ir5 2.549957 1_665
Al1 Ir4 2.549957 1_666
Al1 Ho3 3.063983 1_665
Al1 Ho1 3.063983 1_665
Al2 Ir0 2.537076 1_455
Al2 Ir1 2.599945 1_555
Al2 Ir4 2.602997 1_555
Al2 Ho2 3.026367 1_445
Al2 Ho0 3.038461 1_455
Al2 Ho1 3.048538 1_554
Al3 Ir1 2.537076 1_656
Al3 Ir0 2.599945 1_556
Al3 Ir4 2.602997 1_666
Al3 Ho3 3.026367 1_665
Al3 Ho1 3.038461 1_655
Al3 Ho0 3.048538 1_556
Al4 Ir2 2.537076 1_655
Al4 Ir3 2.599945 1_555
Al4 Ir5 2.602997 1_665
Al4 Ho3 3.026367 1_665
Al4 Ho1 3.038461 1_655
Al4 Ho0 3.048538 1_555
Al5 Ir2 2.537076 1_545
Al5 Ir3 2.599945 1_555
Al5 Ir5 2.602997 1_555
Al5 Ho0 3.026367 1_445
Al5 Ho2 3.038461 1_545
Al5 Ho3 3.048538 1_555
Al6 Ir3 2.537076 1_455
Al6 Ir2 2.599945 1_555
Al6 Ir5 2.602997 1_555
Al6 Ho2 3.026367 1_445
Al6 Ho0 3.038461 1_455
Al6 Ho1 3.048538 1_555
Al7 Ir3 2.537076 1_565
Al7 Ir2 2.599945 1_555
Al7 Ir5 2.602997 1_665
Al7 Ho1 3.026367 1_665
Al7 Ho3 3.038461 1_565
Al7 Ho2 3.048538 1_555
Al8 Ir0 2.537076 1_566
Al8 Ir1 2.599945 1_556
Al8 Ir4 2.602997 1_666
Al8 Ho1 3.026367 1_665
Al8 Ho3 3.038461 1_565
Al8 Ho2 3.048538 1_556
Al9 Ir1 2.537076 1_545
Al9 Ir0 2.599945 1_555
Al9 Ir4 2.602997 1_555
Al9 Ho0 3.026367 1_445
Al9 Ho2 3.038461 1_545
Al9 Ho3 3.048538 1_554
Al10 Ir5 2.564167 1_555
Al10 Ir3 2.601742 1_555
Al10 Ir2 2.601742 1_555
Al10 Ho1 3.078324 1_555
Al10 Ho3 3.078324 1_555
Al11 Ir5 2.564167 1_665
Al11 Ir2 2.601742 1_555
Al11 Ir3 2.601742 1_555
Al11 Ho0 3.078324 1_555
Al11 Ho2 3.078324 1_555
Al12 Ir4 2.564167 1_665
Al12 Ir1 2.601742 1_555
Al12 Ir0 2.601742 1_555
Al12 Ho0 3.078324 1_555
Al12 Ho2 3.078324 1_555
Al13 Ir4 2.564167 1_556
Al13 Ir0 2.601742 1_556
Al13 Ir1 2.601742 1_556
Al13 Ho1 3.078324 1_555
Al13 Ho3 3.078324 1_555
Al14 Ir1 2.545397 1_555
Al14 Ir2 2.545397 1_555
Al14 Ho2 3.031471 1_555
Al14 Ho0 3.144109 1_455
Al15 Ir0 2.545397 1_556
Al15 Ir3 2.545397 1_555
Al15 Ho3 3.031471 1_555
Al15 Ho1 3.144109 1_655
Al16 Ir3 2.545397 1_555
Al16 Ir0 2.545397 1_555
Al16 Ho0 3.031471 1_555
Al16 Ho2 3.144109 1_545
Al17 Ir2 2.545397 1_555
Al17 Ir1 2.545397 1_556
Al17 Ho1 3.031471 1_555
Al17 Ho3 3.144109 1_565
