# generated using pymatgen
data_TlCuPS3
_symmetry_space_group_name_H-M   'P 1'
_cell_length_a   7.36067700
_cell_length_b   9.16704100
_cell_length_c   10.90091760
_cell_angle_alpha   90.00000000
_cell_angle_beta   129.87860972
_cell_angle_gamma   90.00000000
_symmetry_Int_Tables_number   1
_chemical_formula_structural   TlCuPS3
_chemical_formula_sum   'Tl4 Cu4 P4 S12'
_cell_volume   564.46156185
_cell_formula_units_Z   4
loop_
 _symmetry_equiv_pos_site_id
 _symmetry_equiv_pos_as_xyz
  1  'x, y, z'
loop_
 _atom_site_type_symbol
 _atom_site_label
 _atom_site_symmetry_multiplicity
 _atom_site_fract_x
 _atom_site_fract_y
 _atom_site_fract_z
 _atom_site_occupancy
  Tl  Tl0  1  0.19960000  0.48137200  0.76276900  1
  Tl  Tl1  1  0.80040000  0.98137200  0.73723100  1
  Tl  Tl2  1  0.80040000  0.51862800  0.23723100  1
  Tl  Tl3  1  0.19960000  0.01862800  0.26276900  1
  Cu  Cu0  1  0.41463100  0.16671900  0.73749200  1
  Cu  Cu1  1  0.58536900  0.66671900  0.76250800  1
  Cu  Cu2  1  0.58536900  0.83328100  0.26250800  1
  Cu  Cu3  1  0.41463100  0.33328100  0.23749200  1
  P  P0  1  0.57123700  0.39838000  0.57483200  1
  P  P1  1  0.42876300  0.89838000  0.92516800  1
  P  P2  1  0.42876300  0.60162000  0.42516800  1
  P  P3  1  0.57123700  0.10162000  0.07483200  1
  S  S0  1  0.72113300  0.28283900  0.49853400  1
  S  S1  1  0.27886700  0.78283900  0.00146600  1
  S  S2  1  0.27886700  0.71716100  0.50146600  1
  S  S3  1  0.72113300  0.21716100  0.99853400  1
  S  S4  1  0.19448800  0.97109200  0.69654300  1
  S  S5  1  0.80551200  0.47109200  0.80345700  1
  S  S6  1  0.80551200  0.02890800  0.30345700  1
  S  S7  1  0.19448800  0.52890800  0.19654300  1
  S  S8  1  0.28136900  0.28716200  0.51758800  1
  S  S9  1  0.71863100  0.78716200  0.98241200  1
  S  S10  1  0.71863100  0.71283800  0.48241200  1
  S  S11  1  0.28136900  0.21283800  0.01758800  1
loop_
_geom_bond_atom_site_label_1
_geom_bond_atom_site_label_2
_geom_bond_distance
_geom_bond_site_symmetry_2
Cu0 S8 2.216381 1_555
Cu0 S4 2.261289 1_545
Cu0 S3 2.273482 1_555
Cu0 Tl1 3.310609 1_545
Cu0 Tl0 3.385310 1_555
Cu1 S9 2.216381 1_555
Cu1 S5 2.261289 1_555
Cu1 S2 2.273482 1_555
Cu1 Tl0 3.310609 1_555
Cu1 Tl1 3.385310 1_555
Cu2 S10 2.216381 1_555
Cu2 S6 2.261289 1_565
Cu2 S1 2.273482 1_555
Cu2 Tl3 3.310609 1_565
Cu2 Tl2 3.385310 1_555
Cu3 S11 2.216381 1_555
Cu3 S7 2.261289 1_555
Cu3 S0 2.273482 1_555
Cu3 Tl2 3.310609 1_555
Cu3 Tl3 3.385310 1_555
P0 S5 2.029314 1_555
P0 S0 2.051266 1_555
P0 S8 2.067343 1_555
P1 S4 2.029314 1_555
P1 S1 2.051266 1_556
P1 S9 2.067343 1_555
P2 S7 2.029314 1_555
P2 S2 2.051266 1_555
P2 S10 2.067343 1_555
P3 S6 2.029314 1_555
P3 S3 2.051266 1_554
P3 S11 2.067343 1_555
S0 Tl0 3.317229 1_655
S1 Tl1 3.317229 1_454
S2 Tl2 3.317229 1_455
S3 Tl3 3.317229 1_656
S4 Tl1 3.204655 1_455
S5 Tl0 3.204655 1_655
S6 Tl3 3.204655 1_655
S7 Tl2 3.204655 1_455
