# generated using pymatgen
data_NaTi8(Bi3O10)3
_symmetry_space_group_name_H-M   'P 1'
_cell_length_a   5.50699711
_cell_length_b   5.50901095
_cell_length_c   20.48178808
_cell_angle_alpha   90.00000000
_cell_angle_beta   82.27396912
_cell_angle_gamma   90.00000000
_symmetry_Int_Tables_number   1
_chemical_formula_structural   NaTi8(Bi3O10)3
_chemical_formula_sum   'Na1 Ti8 Bi9 O30'
_cell_volume   615.73794959
_cell_formula_units_Z   1
loop_
 _symmetry_equiv_pos_site_id
 _symmetry_equiv_pos_as_xyz
  1  'x, y, z'
loop_
 _atom_site_type_symbol
 _atom_site_label
 _atom_site_symmetry_multiplicity
 _atom_site_fract_x
 _atom_site_fract_y
 _atom_site_fract_z
 _atom_site_occupancy
  Na  Na0  1  0.00000000  0.00000000  0.00000000  1
  Ti  Ti0  1  0.35007400  0.00000000  0.29985300  1
  Ti  Ti1  1  0.85005200  0.50000000  0.29989700  1
  Ti  Ti2  1  0.14994800  0.50000000  0.70010300  1
  Ti  Ti3  1  0.64992600  0.00000000  0.70014700  1
  Ti  Ti4  1  0.45176400  0.00000000  0.09647100  1
  Ti  Ti5  1  0.95177300  0.50000000  0.09645500  1
  Ti  Ti6  1  0.04822700  0.50000000  0.90354500  1
  Ti  Ti7  1  0.54823600  0.00000000  0.90352900  1
  Bi  Bi0  1  0.10655300  0.00000000  0.78689400  1
  Bi  Bi1  1  0.59360000  0.50000000  0.81280000  1
  Bi  Bi2  1  0.40640000  0.50000000  0.18720000  1
  Bi  Bi3  1  0.89344700  0.00000000  0.21310600  1
  Bi  Bi4  1  0.21880100  0.00000000  0.56239700  1
  Bi  Bi5  1  0.71892500  0.50000000  0.56215100  1
  Bi  Bi6  1  0.28107500  0.50000000  0.43784900  1
  Bi  Bi7  1  0.78119900  0.00000000  0.43760300  1
  Bi  Bi8  1  0.50000000  0.50000000  0.00000000  1
  O  O0  1  0.40476200  0.00000000  0.19047500  1
  O  O1  1  0.90480900  0.50000000  0.19038300  1
  O  O2  1  0.09519100  0.50000000  0.80961700  1
  O  O3  1  0.59523800  0.00000000  0.80952500  1
  O  O4  1  0.38595200  0.24530400  0.71863300  1
  O  O5  1  0.89541500  0.75469600  0.71863300  1
  O  O6  1  0.89541500  0.24530400  0.71863300  1
  O  O7  1  0.38595200  0.75469600  0.71863300  1
  O  O8  1  0.10458500  0.24530400  0.28136700  1
  O  O9  1  0.61404800  0.75469600  0.28136700  1
  O  O10  1  0.61404800  0.24530400  0.28136700  1
  O  O11  1  0.10458500  0.75469600  0.28136700  1
  O  O12  1  0.30590400  0.00000000  0.38819200  1
  O  O13  1  0.80588300  0.50000000  0.38823400  1
  O  O14  1  0.19411700  0.50000000  0.61176600  1
  O  O15  1  0.69409600  0.00000000  0.61180800  1
  O  O16  1  0.50000000  0.00000000  0.00000000  1
  O  O17  1  0.00000000  0.50000000  0.00000000  1
  O  O18  1  0.31054100  0.26262800  0.90424200  1
  O  O19  1  0.78521600  0.73737200  0.90424200  1
  O  O20  1  0.78521600  0.26262800  0.90424200  1
  O  O21  1  0.31054100  0.73737200  0.90424200  1
  O  O22  1  0.21478400  0.26262800  0.09575800  1
  O  O23  1  0.68945900  0.73737200  0.09575800  1
  O  O24  1  0.68945900  0.26262800  0.09575800  1
  O  O25  1  0.21478400  0.73737200  0.09575800  1
  O  O26  1  0.50000000  0.25005100  0.50000000  1
  O  O27  1  0.00000000  0.74994900  0.50000000  1
  O  O28  1  0.00000000  0.25005100  0.50000000  1
  O  O29  1  0.50000000  0.74994900  0.50000000  1
loop_
_geom_bond_atom_site_label_1
_geom_bond_atom_site_label_2
_geom_bond_distance
_geom_bond_site_symmetry_2
Na0 O16 2.753499 1_455
Na0 O16 2.753499 1_555
Na0 O17 2.754505 1_545
Na0 O17 2.754505 1_555
Na0 O18 2.821834 1_554
Na0 O24 2.821834 1_455
Na0 O21 2.821834 1_544
Na0 O23 2.821834 1_445
Na0 O22 2.821837 1_555
Na0 O25 2.821837 1_545
Na0 O20 2.821837 1_454
Na0 O19 2.821837 1_444
Bi0 O6 2.360081 1_455
Bi0 O5 2.360081 1_445
Bi0 O4 2.360081 1_555
Bi0 O7 2.360081 1_545
Bi0 O3 2.791543 1_455
Bi0 O3 2.791548 1_555
Bi0 O2 2.792846 1_545
Bi0 O2 2.792846 1_555
Bi1 O19 2.619669 1_555
Bi1 O20 2.619669 1_555
Bi1 O21 2.619672 1_555
Bi1 O18 2.619672 1_555
Bi1 O2 2.754254 1_655
Bi1 O2 2.754259 1_555
Bi1 O7 2.754869 1_555
Bi1 O4 2.754869 1_555
Bi1 O5 2.754869 1_555
Bi1 O6 2.754869 1_555
Bi1 O3 2.755307 1_565
Bi1 O3 2.755307 1_555
Bi2 O25 2.619669 1_555
Bi2 O22 2.619669 1_555
Bi2 O23 2.619672 1_555
Bi2 O24 2.619672 1_555
Bi2 O1 2.754254 1_455
Bi2 O1 2.754259 1_555
Bi2 O9 2.754869 1_555
Bi2 O10 2.754869 1_555
Bi2 O11 2.754869 1_555
Bi2 O8 2.754869 1_555
Bi2 O0 2.755307 1_565
Bi2 O0 2.755307 1_555
Bi3 O8 2.360081 1_655
Bi3 O11 2.360081 1_645
Bi3 O10 2.360081 1_555
Bi3 O9 2.360081 1_545
Bi3 O0 2.791543 1_655
Bi3 O0 2.791548 1_555
Bi3 O1 2.792846 1_555
Bi3 O1 2.792846 1_545
Bi4 O28 2.323102 1_555
Bi4 O27 2.323102 1_545
Bi4 O26 2.323105 1_555
Bi4 O29 2.323105 1_545
Bi5 O27 2.320050 1_655
Bi5 O28 2.320050 1_655
Bi5 O29 2.320053 1_555
Bi5 O26 2.320053 1_555
Bi6 O27 2.320050 1_555
Bi6 O28 2.320050 1_555
Bi6 O29 2.320053 1_555
Bi6 O26 2.320053 1_555
Bi7 O28 2.323102 1_655
Bi7 O27 2.323102 1_645
Bi7 O26 2.323105 1_555
Bi7 O29 2.323105 1_545
Bi8 O19 2.682440 1_554
Bi8 O20 2.682440 1_554
Bi8 O25 2.682440 1_555
Bi8 O22 2.682440 1_555
Bi8 O23 2.682442 1_555
Bi8 O24 2.682442 1_555
Bi8 O21 2.682442 1_554
Bi8 O18 2.682442 1_554
Bi8 O17 2.753499 1_655
Bi8 O17 2.753499 1_555
Bi8 O16 2.754505 1_555
Bi8 O16 2.754505 1_565
O0 Ti4 1.907892 1_555
O0 Ti0 2.219920 1_555
O1 Ti5 1.906349 1_555
O1 Ti1 2.222681 1_555
O2 Ti6 1.906349 1_555
O2 Ti2 2.222681 1_555
O3 Ti7 1.907892 1_555
O3 Ti3 2.219920 1_555
O4 Ti2 1.983575 1_555
O4 Ti3 1.983647 1_555
O5 Ti2 1.983572 1_655
O5 Ti3 1.983651 1_565
O6 Ti2 1.983572 1_655
O6 Ti3 1.983651 1_555
O7 Ti2 1.983575 1_555
O7 Ti3 1.983647 1_565
O8 Ti1 1.983572 1_455
O8 Ti0 1.983651 1_555
O9 Ti1 1.983575 1_555
O9 Ti0 1.983647 1_565
O10 Ti1 1.983575 1_555
O10 Ti0 1.983647 1_555
O11 Ti1 1.983572 1_455
O11 Ti0 1.983651 1_565
O12 Ti0 1.792916 1_555
O13 Ti1 1.792875 1_555
O14 Ti2 1.792875 1_555
O15 Ti3 1.792916 1_555
O16 Ti4 1.957962 1_555
O16 Ti7 1.957962 1_554
O17 Ti5 1.957637 1_455
O17 Ti6 1.957637 1_554
O18 Ti7 1.949822 1_555
O18 Ti6 1.950013 1_555
O19 Ti7 1.949815 1_565
O19 Ti6 1.950013 1_655
O20 Ti7 1.949815 1_555
O20 Ti6 1.950013 1_655
O21 Ti7 1.949822 1_565
O21 Ti6 1.950013 1_555
O22 Ti4 1.949815 1_555
O22 Ti5 1.950013 1_455
O23 Ti4 1.949822 1_565
O23 Ti5 1.950013 1_555
O24 Ti4 1.949822 1_555
O24 Ti5 1.950013 1_555
O25 Ti4 1.949815 1_565
O25 Ti5 1.950013 1_455
