# generated using pymatgen
data_Li5Co3O8
_symmetry_space_group_name_H-M   'P 1'
_cell_length_a   6.30588021
_cell_length_b   6.30588021
_cell_length_c   9.80613069
_cell_angle_alpha   52.91980041
_cell_angle_beta   52.91980041
_cell_angle_gamma   27.42802031
_symmetry_Int_Tables_number   1
_chemical_formula_structural   Li5Co3O8
_chemical_formula_sum   'Li5 Co3 O8'
_cell_volume   140.83816753
_cell_formula_units_Z   1
loop_
 _symmetry_equiv_pos_site_id
 _symmetry_equiv_pos_as_xyz
  1  'x, y, z'
loop_
 _atom_site_type_symbol
 _atom_site_label
 _atom_site_symmetry_multiplicity
 _atom_site_fract_x
 _atom_site_fract_y
 _atom_site_fract_z
 _atom_site_occupancy
  Li  Li0  1  0.25450800  0.25450800  0.37336200  1
  Li  Li1  1  0.74549200  0.74549200  0.62663800  1
  Li  Li2  1  0.24581000  0.24581000  0.87782600  1
  Li  Li3  1  0.75419000  0.75419000  0.12217400  1
  Li  Li4  1  0.50000000  0.50000000  0.00000000  1
  Co  Co0  1  0.99652600  0.99652600  0.76168900  1
  Co  Co1  1  0.00347400  0.00347400  0.23831100  1
  Co  Co2  1  0.50000000  0.50000000  0.50000000  1
  O  O0  1  0.88698300  0.88698300  0.68481900  1
  O  O1  1  0.38453700  0.38453700  0.92116600  1
  O  O2  1  0.88502200  0.88502200  0.19670500  1
  O  O3  1  0.38575400  0.38575400  0.43123600  1
  O  O4  1  0.61546300  0.61546300  0.07883400  1
  O  O5  1  0.11301700  0.11301700  0.31518100  1
  O  O6  1  0.61424600  0.61424600  0.56876400  1
  O  O7  1  0.11497800  0.11497800  0.80329500  1
loop_
_geom_bond_atom_site_label_1
_geom_bond_atom_site_label_2
_geom_bond_distance
_geom_bond_site_symmetry_2
Li0 O3 2.010146 1_555
Li0 O2 2.086749 1_545
Li0 O2 2.086749 1_455
Li0 O5 2.135057 1_555
Li0 O6 2.184603 1_455
Li0 O6 2.184603 1_545
Li1 O6 2.010146 1_555
Li1 O7 2.086749 1_655
Li1 O7 2.086749 1_565
Li1 O0 2.135057 1_555
Li1 O3 2.184603 1_655
Li1 O3 2.184603 1_565
Li2 O1 1.991556 1_555
Li2 O7 2.134925 1_555
Li2 O0 2.178394 1_545
Li2 O0 2.178394 1_455
Li2 O4 2.182513 1_546
Li2 O4 2.182513 1_456
Li3 O4 1.991556 1_555
Li3 O2 2.134925 1_555
Li3 O5 2.178394 1_655
Li3 O5 2.178394 1_565
Li3 O1 2.182513 1_564
Li3 O1 2.182513 1_654
Li4 O1 1.989068 1_554
Li4 O4 1.989068 1_555
Li4 O2 2.137123 1_545
Li4 O2 2.137123 1_455
Li4 O7 2.137123 1_564
Li4 O7 2.137123 1_654
Co0 O7 1.734272 1_665
Co0 O0 1.904033 1_555
Co0 O1 1.974794 1_655
Co0 O1 1.974794 1_565
Co0 O6 2.123059 1_655
Co0 O6 2.123059 1_565
Co1 O2 1.734272 1_445
Co1 O5 1.904033 1_555
Co1 O4 1.974794 1_545
Co1 O4 1.974794 1_455
Co1 O3 2.123059 1_545
Co1 O3 2.123059 1_455
Co2 O3 1.893574 1_555
Co2 O6 1.893574 1_555
Co2 O0 2.078935 1_545
Co2 O5 2.078935 1_655
Co2 O5 2.078935 1_565
Co2 O0 2.078935 1_455
