# generated using pymatgen
data_NdMgPt
_symmetry_space_group_name_H-M   'P 1'
_cell_length_a   7.53398066
_cell_length_b   7.53398096
_cell_length_c   4.12956699
_cell_angle_alpha   90.00000000
_cell_angle_beta   90.00000000
_cell_angle_gamma   120.00000326
_symmetry_Int_Tables_number   1
_chemical_formula_structural   NdMgPt
_chemical_formula_sum   'Nd3 Mg3 Pt3'
_cell_volume   202.99444438
_cell_formula_units_Z   3
loop_
 _symmetry_equiv_pos_site_id
 _symmetry_equiv_pos_as_xyz
  1  'x, y, z'
loop_
 _atom_site_type_symbol
 _atom_site_label
 _atom_site_symmetry_multiplicity
 _atom_site_fract_x
 _atom_site_fract_y
 _atom_site_fract_z
 _atom_site_occupancy
  Nd  Nd0  1  0.41273177  0.41273177  0.00000000  1
  Nd  Nd1  1  0.58726823  0.00000000  0.00000000  1
  Nd  Nd2  1  0.00000000  0.58726823  0.00000000  1
  Mg  Mg0  1  0.00000000  0.23851179  0.50000000  1
  Mg  Mg1  1  0.76148821  0.76148821  0.50000000  1
  Mg  Mg2  1  0.23851179  0.00000000  0.50000000  1
  Pt  Pt0  1  0.66666700  0.33333300  0.50000000  1
  Pt  Pt1  1  -0.00000000  -0.00000000  0.00000000  1
  Pt  Pt2  1  0.33333300  0.66666700  0.50000000  1
loop_
_geom_bond_atom_site_label_1
_geom_bond_atom_site_label_2
_geom_bond_distance
_geom_bond_site_symmetry_2
Nd0 Pt0 3.070130 1_554
Nd0 Pt0 3.070130 1_555
Nd0 Pt2 3.070130 1_554
Nd0 Pt2 3.070130 1_555
Nd0 Pt1 3.109513 1_555
Nd1 Pt0 3.070125 1_554
Nd1 Pt0 3.070125 1_555
Nd1 Pt2 3.070126 1_544
Nd1 Pt2 3.070126 1_545
Nd1 Pt1 3.109513 1_655
Nd2 Pt2 3.070125 1_555
Nd2 Pt2 3.070125 1_554
Nd2 Pt0 3.070126 1_455
Nd2 Pt0 3.070126 1_454
Nd2 Pt1 3.109513 1_565
Mg0 Pt1 2.737213 1_556
Mg0 Pt1 2.737213 1_555
Mg0 Pt0 2.934473 1_455
Mg0 Pt2 2.934478 1_555
Mg1 Pt1 2.737213 1_666
Mg1 Pt1 2.737213 1_665
Mg1 Pt2 2.934481 1_555
Mg1 Pt0 2.934481 1_555
Mg2 Pt1 2.737213 1_555
Mg2 Pt1 2.737213 1_556
Mg2 Pt2 2.934473 1_545
Mg2 Pt0 2.934478 1_555
