# generated using pymatgen
data_EuAl2Ge
_symmetry_space_group_name_H-M   'P 1'
_cell_length_a   4.27851562
_cell_length_b   7.22907098
_cell_length_c   11.19202813
_cell_angle_alpha   90.00000000
_cell_angle_beta   90.00000000
_cell_angle_gamma   90.00000000
_symmetry_Int_Tables_number   1
_chemical_formula_structural   EuAl2Ge
_chemical_formula_sum   'Eu4 Al8 Ge4'
_cell_volume   346.16599529
_cell_formula_units_Z   4
loop_
 _symmetry_equiv_pos_site_id
 _symmetry_equiv_pos_as_xyz
  1  'x, y, z'
loop_
 _atom_site_type_symbol
 _atom_site_label
 _atom_site_symmetry_multiplicity
 _atom_site_fract_x
 _atom_site_fract_y
 _atom_site_fract_z
 _atom_site_occupancy
  Eu  Eu0  1  0.25000000  0.35479217  0.63953174  1
  Eu  Eu1  1  0.25000000  0.85479217  0.86046826  1
  Eu  Eu2  1  0.75000000  0.64520783  0.36046826  1
  Eu  Eu3  1  0.75000000  0.14520783  0.13953174  1
  Al  Al0  1  0.25000000  0.97239742  0.34366164  1
  Al  Al1  1  0.25000000  0.47239742  0.15633836  1
  Al  Al2  1  0.75000000  0.02760258  0.65633836  1
  Al  Al3  1  0.75000000  0.52760258  0.84366164  1
  Al  Al4  1  0.25000000  0.35013093  0.93685834  1
  Al  Al5  1  0.25000000  0.85013093  0.56314166  1
  Al  Al6  1  0.75000000  0.64986907  0.06314166  1
  Al  Al7  1  0.75000000  0.14986907  0.43685834  1
  Ge  Ge0  1  0.25000000  0.32672475  0.35844370  1
  Ge  Ge1  1  0.25000000  0.82672475  0.14155630  1
  Ge  Ge2  1  0.75000000  0.67327525  0.64155630  1
  Ge  Ge3  1  0.75000000  0.17327525  0.85844370  1
loop_
_geom_bond_atom_site_label_1
_geom_bond_atom_site_label_2
_geom_bond_distance
_geom_bond_site_symmetry_2
Eu0 Ge2 3.142880 1_455
Eu0 Ge2 3.142880 1_555
Eu0 Ge0 3.152482 1_555
Eu0 Ge3 3.507296 1_555
Eu0 Ge3 3.507296 1_455
Eu1 Ge3 3.142880 1_565
Eu1 Ge3 3.142880 1_465
Eu1 Ge1 3.152482 1_556
Eu1 Ge2 3.507296 1_455
Eu1 Ge2 3.507296 1_555
Eu2 Ge0 3.142880 1_655
Eu2 Ge0 3.142880 1_555
Eu2 Ge2 3.152482 1_555
Eu2 Ge1 3.507296 1_655
Eu2 Ge1 3.507296 1_555
Eu3 Ge1 3.142880 1_645
Eu3 Ge1 3.142880 1_545
Eu3 Ge3 3.152482 1_554
Eu3 Ge0 3.507296 1_655
Eu3 Ge0 3.507296 1_555
Al0 Ge1 2.495090 1_555
Al0 Ge0 2.566795 1_565
Al0 Al5 2.610606 1_555
Al0 Al7 2.703770 1_465
Al0 Al7 2.703770 1_565
Al0 Eu2 3.194736 1_555
Al0 Eu2 3.194736 1_455
Al0 Eu3 3.369955 1_465
Al0 Eu3 3.369955 1_565
Al1 Ge0 2.495090 1_555
Al1 Ge1 2.566795 1_555
Al1 Al4 2.610606 1_554
Al1 Al6 2.703770 1_555
Al1 Al6 2.703770 1_455
Al1 Eu3 3.194736 1_555
Al1 Eu3 3.194736 1_455
Al1 Eu2 3.369955 1_455
Al1 Eu2 3.369955 1_555
Al2 Ge3 2.495090 1_555
Al2 Ge2 2.566795 1_545
Al2 Al7 2.610606 1_555
Al2 Al5 2.703770 1_545
Al2 Al5 2.703770 1_645
Al2 Eu0 3.194736 1_555
Al2 Eu0 3.194736 1_655
Al2 Eu1 3.369955 1_645
Al2 Eu1 3.369955 1_545
Al3 Ge2 2.495090 1_555
Al3 Ge3 2.566795 1_555
Al3 Al6 2.610606 1_556
Al3 Al4 2.703770 1_555
Al3 Al4 2.703770 1_655
Al3 Eu1 3.194736 1_655
Al3 Eu1 3.194736 1_555
Al3 Eu0 3.369955 1_555
Al3 Eu0 3.369955 1_655
Al4 Ge3 2.642197 1_555
Al4 Ge3 2.642197 1_455
Al4 Eu0 3.327858 1_555
Al4 Eu3 3.451997 1_456
Al4 Eu3 3.451997 1_556
Al4 Eu1 3.681489 1_545
Al4 Eu1 3.747073 1_555
Al5 Ge2 2.642197 1_455
Al5 Ge2 2.642197 1_555
Al5 Eu1 3.327858 1_555
Al5 Eu2 3.451997 1_555
Al5 Eu2 3.451997 1_455
Al5 Eu0 3.681489 1_555
Al5 Eu0 3.747073 1_565
Al6 Ge1 2.642197 1_555
Al6 Ge1 2.642197 1_655
Al6 Eu2 3.327858 1_555
Al6 Eu1 3.451997 1_554
Al6 Eu1 3.451997 1_654
Al6 Eu3 3.681489 1_565
Al6 Eu3 3.747073 1_555
Al7 Ge0 2.642197 1_655
Al7 Ge0 2.642197 1_555
Al7 Eu3 3.327858 1_555
Al7 Eu0 3.451997 1_555
Al7 Eu0 3.451997 1_655
Al7 Eu2 3.681489 1_555
Al7 Eu2 3.747073 1_545
