# generated using pymatgen
data_Sm4Mg7Ge6
_symmetry_space_group_name_H-M   'P 1'
_cell_length_a   4.41314400
_cell_length_b   8.56170173
_cell_length_c   10.88966590
_cell_angle_alpha   78.74273009
_cell_angle_beta   78.30920881
_cell_angle_gamma   75.06483418
_symmetry_Int_Tables_number   1
_chemical_formula_structural   Sm4Mg7Ge6
_chemical_formula_sum   'Sm4 Mg7 Ge6'
_cell_volume   384.83707697
_cell_formula_units_Z   1
loop_
 _symmetry_equiv_pos_site_id
 _symmetry_equiv_pos_as_xyz
  1  'x, y, z'
loop_
 _atom_site_type_symbol
 _atom_site_label
 _atom_site_symmetry_multiplicity
 _atom_site_fract_x
 _atom_site_fract_y
 _atom_site_fract_z
 _atom_site_occupancy
  Sm  Sm0  1  0.73335100  0.14658900  0.38670900  1
  Sm  Sm1  1  0.26664900  0.85341100  0.61329100  1
  Sm  Sm2  1  0.63009400  0.57860500  0.16120800  1
  Sm  Sm3  1  0.36990600  0.42139500  0.83879200  1
  Mg  Mg0  1  0.95950600  0.94153800  0.13945100  1
  Mg  Mg1  1  0.04049400  0.05846200  0.86054900  1
  Mg  Mg2  1  0.93693400  0.72871100  0.39742000  1
  Mg  Mg3  1  0.06306600  0.27128900  0.60258000  1
  Mg  Mg4  1  0.30977500  0.22779100  0.15265900  1
  Mg  Mg5  1  0.69022500  0.77220900  0.84734100  1
  Mg  Mg6  1  0.50000000  0.50000000  0.50000000  1
  Ge  Ge0  1  0.87895100  0.58890800  0.65319000  1
  Ge  Ge1  1  0.12104900  0.41109200  0.34681000  1
  Ge  Ge2  1  0.85028100  0.27869300  0.02074600  1
  Ge  Ge3  1  0.14971900  0.72130700  0.97925400  1
  Ge  Ge4  1  0.38902400  0.90834400  0.31360800  1
  Ge  Ge5  1  0.61097600  0.09165600  0.68639200  1
loop_
_geom_bond_atom_site_label_1
_geom_bond_atom_site_label_2
_geom_bond_distance
_geom_bond_site_symmetry_2
Ge0 Mg5 2.744941 1_555
Ge0 Mg3 2.761087 1_655
Ge0 Mg2 2.797001 1_555
Ge0 Mg6 2.905451 1_555
Ge0 Mg6 2.905451 1_655
Ge0 Sm1 3.091335 1_555
Ge0 Sm1 3.091335 1_655
Ge0 Sm3 3.142858 1_655
Ge0 Sm3 3.142861 1_555
Ge1 Mg4 2.744941 1_555
Ge1 Mg2 2.761087 1_455
Ge1 Mg3 2.797001 1_555
Ge1 Mg6 2.905451 1_455
Ge1 Mg6 2.905451 1_555
Ge1 Sm0 3.091335 1_455
Ge1 Sm0 3.091335 1_555
Ge1 Sm2 3.142858 1_455
Ge1 Sm2 3.142861 1_555
Ge2 Mg4 2.616487 1_655
Ge2 Mg4 2.616490 1_555
Ge2 Mg1 2.679207 1_654
Ge2 Mg0 2.883460 1_545
Ge2 Sm3 3.055326 1_654
Ge2 Sm3 3.055332 1_554
Ge2 Sm2 3.085810 1_555
Ge3 Mg5 2.616487 1_455
Ge3 Mg5 2.616490 1_555
Ge3 Mg0 2.679207 1_456
Ge3 Mg1 2.883460 1_565
Ge3 Sm2 3.055326 1_456
Ge3 Sm2 3.055332 1_556
Ge3 Sm3 3.085810 1_555
Ge4 Mg2 2.733960 1_555
Ge4 Mg2 2.733963 1_455
Ge4 Mg0 2.870416 1_455
Ge4 Mg0 2.870420 1_555
Ge4 Mg4 2.925456 1_565
Ge4 Sm0 3.134541 1_465
Ge4 Sm0 3.134541 1_565
Ge4 Sm1 3.159173 1_555
Ge4 Sm2 3.379599 1_555
Ge5 Mg3 2.733960 1_555
Ge5 Mg3 2.733963 1_655
Ge5 Mg1 2.870416 1_655
Ge5 Mg1 2.870420 1_555
Ge5 Mg5 2.925456 1_545
Ge5 Sm1 3.134541 1_545
Ge5 Sm1 3.134541 1_645
Ge5 Sm0 3.159173 1_555
Ge5 Sm3 3.379599 1_555
