# generated using pymatgen
data_MgCuMo2O7
_symmetry_space_group_name_H-M   'P 1'
_cell_length_a   8.86676900
_cell_length_b   9.40350329
_cell_length_c   11.16692586
_cell_angle_alpha   102.40826916
_cell_angle_beta   90.00000000
_cell_angle_gamma   90.00000000
_symmetry_Int_Tables_number   1
_chemical_formula_structural   MgCuMo2O7
_chemical_formula_sum   'Mg6 Cu6 Mo12 O42'
_cell_volume   909.33474063
_cell_formula_units_Z   6
loop_
 _symmetry_equiv_pos_site_id
 _symmetry_equiv_pos_as_xyz
  1  'x, y, z'
loop_
 _atom_site_type_symbol
 _atom_site_label
 _atom_site_symmetry_multiplicity
 _atom_site_fract_x
 _atom_site_fract_y
 _atom_site_fract_z
 _atom_site_occupancy
  Mg  Mg0  1  0.42497000  0.15428700  0.57870300  1
  Mg  Mg1  1  0.92531700  0.50000000  0.75000000  1
  Mg  Mg2  1  0.42497000  0.84571300  0.92129700  1
  Mg  Mg3  1  0.07468300  0.50000000  0.25000000  1
  Mg  Mg4  1  0.57503000  0.84571300  0.42129700  1
  Mg  Mg5  1  0.57503000  0.15428700  0.07870300  1
  Cu  Cu0  1  0.92953400  0.81558200  0.40945300  1
  Cu  Cu1  1  0.07046600  0.18441800  0.59054700  1
  Cu  Cu2  1  0.43670900  0.50000000  0.25000000  1
  Cu  Cu3  1  0.92953400  0.18441800  0.09054700  1
  Cu  Cu4  1  0.56329100  0.50000000  0.75000000  1
  Cu  Cu5  1  0.07046600  0.81558200  0.90945300  1
  Mo  Mo0  1  0.24220200  0.20158800  0.29321500  1
  Mo  Mo1  1  0.75557800  0.12311600  0.37252300  1
  Mo  Mo2  1  0.24442200  0.12311600  0.87252300  1
  Mo  Mo3  1  0.75779800  0.20158800  0.79321500  1
  Mo  Mo4  1  0.26384000  0.53473200  0.95929300  1
  Mo  Mo5  1  0.75557800  0.87688400  0.12747700  1
  Mo  Mo6  1  0.73616000  0.53473200  0.45929300  1
  Mo  Mo7  1  0.24442200  0.87688400  0.62747700  1
  Mo  Mo8  1  0.26384000  0.46526800  0.54070700  1
  Mo  Mo9  1  0.73616000  0.46526800  0.04070700  1
  Mo  Mo10  1  0.75779800  0.79841200  0.70678500  1
  Mo  Mo11  1  0.24220200  0.79841200  0.20678500  1
  O  O0  1  0.75334400  0.21997200  0.97126500  1
  O  O1  1  0.76020000  0.89152600  0.31045300  1
  O  O2  1  0.81190100  0.00000000  0.75000000  1
  O  O3  1  0.91517900  0.45239100  0.11010000  1
  O  O4  1  0.42270400  0.91786200  0.55584200  1
  O  O5  1  0.92256100  0.27303100  0.71829900  1
  O  O6  1  0.29370600  0.33893200  0.91377800  1
  O  O7  1  0.08482100  0.45239100  0.61010000  1
  O  O8  1  0.73628200  0.44524400  0.86568800  1
  O  O9  1  0.42270400  0.08213800  0.94415800  1
  O  O10  1  0.73628200  0.55475600  0.63431200  1
  O  O11  1  0.42070100  0.59958400  0.88024900  1
  O  O12  1  0.92917000  0.86455800  0.04748600  1
  O  O13  1  0.07743900  0.27303100  0.21829900  1
  O  O14  1  0.70629400  0.66106800  0.08622200  1
  O  O15  1  0.29370600  0.66106800  0.58622200  1
  O  O16  1  0.92256100  0.72696900  0.78170100  1
  O  O17  1  0.57729600  0.08213800  0.44415800  1
  O  O18  1  0.24665600  0.21997200  0.47126500  1
  O  O19  1  0.57929900  0.40041600  0.11975100  1
  O  O20  1  0.41702100  0.80288500  0.28594600  1
  O  O21  1  0.26371800  0.55475600  0.13431200  1
  O  O22  1  0.07083000  0.86455800  0.54748600  1
  O  O23  1  0.26371800  0.44524400  0.36568800  1
  O  O24  1  0.91517900  0.54760900  0.38990000  1
  O  O25  1  0.57929900  0.59958400  0.38024900  1
  O  O26  1  0.08482100  0.54760900  0.88990000  1
  O  O27  1  0.58297900  0.80288500  0.78594600  1
  O  O28  1  0.58297900  0.19711500  0.71405400  1
  O  O29  1  0.07083000  0.13544200  0.95251400  1
  O  O30  1  0.07743900  0.72696900  0.28170100  1
  O  O31  1  0.75334400  0.78002700  0.52873500  1
  O  O32  1  0.18809900  0.00000000  0.25000000  1
  O  O33  1  0.23980000  0.89152600  0.81045300  1
  O  O34  1  0.57729600  0.91786200  0.05584200  1
  O  O35  1  0.92917000  0.13544200  0.45251400  1
  O  O36  1  0.24665600  0.78002700  0.02873500  1
  O  O37  1  0.76020000  0.10847400  0.18954700  1
  O  O38  1  0.42070100  0.40041600  0.61975100  1
  O  O39  1  0.70629400  0.33893200  0.41377800  1
  O  O40  1  0.23980000  0.10847400  0.68954700  1
  O  O41  1  0.41702100  0.19711500  0.21405400  1
loop_
_geom_bond_atom_site_label_1
_geom_bond_atom_site_label_2
_geom_bond_distance
_geom_bond_site_symmetry_2
Mg0 O17 2.025791 1_555
Mg0 O28 2.036658 1_555
Mg0 O18 2.153873 1_555
Mg0 O40 2.154663 1_555
Mg0 O4 2.182747 1_545
Mg0 O38 2.261064 1_555
Mg1 O7 2.083433 1_655
Mg1 O26 2.083433 1_655
Mg1 O16 2.087215 1_555
Mg1 O5 2.087215 1_555
Mg1 O10 2.242621 1_555
Mg1 O8 2.242621 1_555
Mg2 O34 2.025791 1_556
Mg2 O27 2.036658 1_555
Mg2 O36 2.153877 1_556
Mg2 O33 2.154663 1_555
Mg2 O9 2.182747 1_565
Mg2 O11 2.261064 1_555
Mg3 O3 2.083433 1_455
Mg3 O24 2.083433 1_455
Mg3 O30 2.087215 1_555
Mg3 O13 2.087215 1_555
Mg3 O23 2.242621 1_555
Mg3 O21 2.242621 1_555
Mg4 O4 2.025791 1_555
Mg4 O20 2.036658 1_555
Mg4 O31 2.153877 1_555
Mg4 O1 2.154663 1_555
Mg4 O17 2.182747 1_565
Mg4 O25 2.261064 1_555
Mg5 O9 2.025791 1_554
Mg5 O41 2.036658 1_555
Mg5 O0 2.153873 1_554
Mg5 O37 2.154663 1_555
Mg5 O34 2.182747 1_545
Mg5 O19 2.261064 1_555
Cu0 O22 1.962794 1_655
Cu0 O30 1.984573 1_655
Cu0 O1 2.079858 1_555
Cu0 O31 2.125562 1_555
Cu0 O24 2.485406 1_555
Cu1 O35 1.962794 1_455
Cu1 O5 1.984573 1_455
Cu1 O40 2.079858 1_555
Cu1 O18 2.125559 1_555
Cu1 O7 2.485406 1_555
Cu2 O19 2.001395 1_555
Cu2 O25 2.001395 1_555
Cu2 O23 2.138387 1_555
Cu2 O21 2.138387 1_555
Cu3 O29 1.962794 1_654
Cu3 O13 1.984573 1_655
Cu3 O37 2.079858 1_555
Cu3 O0 2.125559 1_554
Cu3 O3 2.485406 1_555
Cu4 O11 2.001395 1_555
Cu4 O38 2.001395 1_555
Cu4 O8 2.138387 1_555
Cu4 O10 2.138387 1_555
Cu5 O12 1.962794 1_456
Cu5 O16 1.984573 1_455
Cu5 O33 2.079858 1_555
Cu5 O36 2.125562 1_556
Cu5 O26 2.485406 1_555
Mo0 O41 1.780440 1_555
Mo0 O13 1.878034 1_555
Mo0 O32 1.913976 1_555
Mo0 O18 1.958814 1_555
Mo0 O23 2.268076 1_555
Mo1 O35 1.770870 1_555
Mo1 O17 1.849255 1_555
Mo1 O37 2.018595 1_555
Mo1 O39 2.029772 1_555
Mo1 O1 2.139168 1_545
Mo2 O29 1.770870 1_555
Mo2 O9 1.849255 1_555
Mo2 O40 2.018595 1_555
Mo2 O6 2.029772 1_555
Mo2 O33 2.139168 1_545
Mo3 O28 1.780440 1_555
Mo3 O5 1.878034 1_555
Mo3 O2 1.913976 1_555
Mo3 O0 1.958814 1_555
Mo3 O8 2.268076 1_555
Mo4 O26 1.781868 1_555
Mo4 O6 1.821079 1_555
Mo4 O11 1.821213 1_555
Mo4 O21 1.922779 1_556
Mo4 O36 2.275171 1_556
Mo5 O12 1.770870 1_555
Mo5 O34 1.849255 1_555
Mo5 O1 2.018595 1_555
Mo5 O14 2.029772 1_555
Mo5 O37 2.139168 1_565
Mo6 O24 1.781868 1_555
Mo6 O39 1.821079 1_555
Mo6 O25 1.821213 1_555
Mo6 O10 1.922779 1_555
Mo6 O31 2.275171 1_555
Mo7 O22 1.770870 1_555
Mo7 O4 1.849255 1_555
Mo7 O33 2.018595 1_555
Mo7 O15 2.029772 1_555
Mo7 O40 2.139168 1_565
Mo8 O7 1.781868 1_555
Mo8 O15 1.821079 1_555
Mo8 O38 1.821213 1_555
Mo8 O23 1.922779 1_555
Mo8 O18 2.275180 1_555
Mo9 O3 1.781868 1_555
Mo9 O14 1.821079 1_555
Mo9 O19 1.821213 1_555
Mo9 O8 1.922779 1_554
Mo9 O0 2.275180 1_554
Mo10 O27 1.780440 1_555
Mo10 O16 1.878034 1_555
Mo10 O2 1.913976 1_565
Mo10 O31 1.958813 1_555
Mo10 O10 2.268076 1_555
Mo11 O20 1.780440 1_555
Mo11 O30 1.878034 1_555
Mo11 O32 1.913976 1_565
Mo11 O36 1.958813 1_555
Mo11 O21 2.268076 1_555
