# generated using pymatgen
data_MgCr4Hg4(H2O9)2
_symmetry_space_group_name_H-M   'P 1'
_cell_length_a   6.65997844
_cell_length_b   6.39398891
_cell_length_c   16.31341277
_cell_angle_alpha   63.02798589
_cell_angle_beta   117.55232940
_cell_angle_gamma   131.35179616
_symmetry_Int_Tables_number   1
_chemical_formula_structural   MgCr4Hg4(H2O9)2
_chemical_formula_sum   'Mg1 Cr4 Hg4 H4 O18'
_cell_volume   450.76847880
_cell_formula_units_Z   1
loop_
 _symmetry_equiv_pos_site_id
 _symmetry_equiv_pos_as_xyz
  1  'x, y, z'
loop_
 _atom_site_type_symbol
 _atom_site_label
 _atom_site_symmetry_multiplicity
 _atom_site_fract_x
 _atom_site_fract_y
 _atom_site_fract_z
 _atom_site_occupancy
  Mg  Mg0  1  0.68126100  0.75718600  0.45324000  1
  Cr  Cr0  1  0.76242500  0.35726100  0.61719500  1
  Cr  Cr1  1  0.35697800  0.75620200  0.90654400  1
  Cr  Cr2  1  0.13835000  0.54351800  0.39177900  1
  Cr  Cr3  1  0.65102400  0.25877400  0.08943000  1
  Hg  Hg0  1  0.00555500  0.00608900  0.65142400  1
  Hg  Hg1  1  0.95834800  0.95502600  0.88292000  1
  Hg  Hg2  1  0.24285400  0.13679000  0.37816900  1
  Hg  Hg3  1  0.04764900  0.05386700  0.11315300  1
  H  H0  1  0.57973000  0.43199400  0.79817800  1
  H  H1  1  0.41462100  0.56040600  0.72691800  1
  H  H2  1  0.40930800  0.57423500  0.21373200  1
  H  H3  1  0.64928300  0.53656300  0.26420500  1
  O  O0  1  0.03666900  0.31628300  0.67501400  1
  O  O1  1  0.23264400  0.97007300  0.84535200  1
  O  O2  1  0.98695300  0.73291000  0.32931500  1
  O  O3  1  0.78523300  0.05806800  0.14730100  1
  O  O4  1  0.52367100  0.17565000  0.67289400  1
  O  O5  1  0.21094800  0.52572200  0.84598000  1
  O  O6  1  0.36240100  0.64346600  0.33469900  1
  O  O7  1  0.79455400  0.48728900  0.15035400  1
  O  O8  1  0.91856400  0.73499300  0.58842600  1
  O  O9  1  0.71051200  0.96926600  0.92355800  1
  O  O10  1  0.92259800  0.17169100  0.40891200  1
  O  O11  1  0.29681800  0.03532100  0.07637700  1
  O  O12  1  0.62523600  0.36450500  0.49349300  1
  O  O13  1  0.28500600  0.58774600  0.00921700  1
  O  O14  1  0.35843200  0.63780200  0.49532000  1
  O  O15  1  0.71194800  0.42933500  0.98466600  1
  O  O16  1  0.60582700  0.61444100  0.75876500  1
  O  O17  1  0.44460300  0.42752800  0.23805200  1
loop_
_geom_bond_atom_site_label_1
_geom_bond_atom_site_label_2
_geom_bond_distance
_geom_bond_site_symmetry_2
Mg0 O10 1.959215 1_565
Mg0 O8 2.041938 1_555
Mg0 O6 2.052815 1_555
Mg0 O12 2.089905 1_555
Mg0 O14 2.097146 1_555
Cr0 O4 1.625469 1_555
Cr0 O0 1.763146 1_655
Cr0 O12 1.781764 1_555
Cr0 O8 1.799861 1_555
Cr1 O13 1.618449 1_556
Cr1 O5 1.622272 1_555
Cr1 O9 1.725326 1_555
Cr1 O1 1.745128 1_555
Cr2 O14 1.682444 1_555
Cr2 O6 1.728478 1_555
Cr2 O10 1.746391 1_455
Cr2 O2 1.750719 1_455
Cr3 O7 1.621500 1_555
Cr3 O15 1.625105 1_554
Cr3 O3 1.724275 1_555
Cr3 O11 1.734730 1_555
Hg0 O8 2.033375 1_445
Hg0 O0 2.049475 1_555
Hg1 O9 2.106620 1_555
Hg1 O1 2.114732 1_655
Hg2 O2 2.236833 1_445
Hg2 O12 2.301679 1_555
Hg2 O17 2.484406 1_555
Hg2 O10 2.563323 1_455
Hg2 O6 2.581157 1_555
Hg3 O3 2.083683 1_455
Hg3 O11 2.091264 1_555
H0 O16 0.979574 1_555
H1 O16 0.990113 1_555
H2 O17 0.979835 1_555
H3 O17 1.001150 1_555
H3 O2 1.740960 1_555
