# generated using pymatgen
data_MoRhN5ClO4
_symmetry_space_group_name_H-M   'P 1'
_cell_length_a   5.47736300
_cell_length_b   11.49864900
_cell_length_c   13.53225800
_cell_angle_alpha   90.00000000
_cell_angle_beta   90.00000000
_cell_angle_gamma   90.00000000
_symmetry_Int_Tables_number   1
_chemical_formula_structural   MoRhN5ClO4
_chemical_formula_sum   'Mo4 Rh4 N20 Cl4 O16'
_cell_volume   852.29238908
_cell_formula_units_Z   4
loop_
 _symmetry_equiv_pos_site_id
 _symmetry_equiv_pos_as_xyz
  1  'x, y, z'
loop_
 _atom_site_type_symbol
 _atom_site_label
 _atom_site_symmetry_multiplicity
 _atom_site_fract_x
 _atom_site_fract_y
 _atom_site_fract_z
 _atom_site_occupancy
  Mo  Mo0  1  0.25000000  0.41368600  0.58836200  1
  Mo  Mo1  1  0.25000000  0.08631400  0.08836200  1
  Mo  Mo2  1  0.75000000  0.58631400  0.41163800  1
  Mo  Mo3  1  0.75000000  0.91368600  0.91163800  1
  Rh  Rh0  1  0.75000000  0.36190400  0.84344200  1
  Rh  Rh1  1  0.75000000  0.13809600  0.34344200  1
  Rh  Rh2  1  0.25000000  0.63809600  0.15655800  1
  Rh  Rh3  1  0.25000000  0.86190400  0.65655800  1
  N  N0  1  0.49154800  0.51838800  0.83442600  1
  N  N1  1  0.00845200  0.98161200  0.33442600  1
  N  N2  1  0.99154800  0.48161200  0.16557400  1
  N  N3  1  0.50845200  0.01838800  0.66557400  1
  N  N4  1  0.50845200  0.48161200  0.16557400  1
  N  N5  1  0.99154800  0.01838800  0.66557400  1
  N  N6  1  0.00845200  0.51838800  0.83442600  1
  N  N7  1  0.49154800  0.98161200  0.33442600  1
  N  N8  1  0.75000000  0.30121400  0.67989100  1
  N  N9  1  0.75000000  0.19878600  0.17989100  1
  N  N10  1  0.25000000  0.69878600  0.32010900  1
  N  N11  1  0.25000000  0.80121400  0.82010900  1
  N  N12  1  0.48983300  0.28106700  0.86767700  1
  N  N13  1  0.01016700  0.21893300  0.36767700  1
  N  N14  1  0.98983300  0.71893300  0.13232300  1
  N  N15  1  0.51016700  0.78106700  0.63232300  1
  N  N16  1  0.51016700  0.71893300  0.13232300  1
  N  N17  1  0.98983300  0.78106700  0.63232300  1
  N  N18  1  0.01016700  0.28106700  0.86767700  1
  N  N19  1  0.48983300  0.21893300  0.36767700  1
  Cl  Cl0  1  0.75000000  0.52465200  0.12433700  1
  Cl  Cl1  1  0.75000000  0.97534800  0.62433700  1
  Cl  Cl2  1  0.25000000  0.47534800  0.87566300  1
  Cl  Cl3  1  0.25000000  0.02465200  0.37566300  1
  O  O0  1  0.95191800  0.33401100  0.62918300  1
  O  O1  1  0.54808200  0.16598900  0.12918300  1
  O  O2  1  0.45191800  0.66598900  0.37081700  1
  O  O3  1  0.04808200  0.83401100  0.87081700  1
  O  O4  1  0.04808200  0.66598900  0.37081700  1
  O  O5  1  0.45191800  0.83401100  0.87081700  1
  O  O6  1  0.54808200  0.33401100  0.62918300  1
  O  O7  1  0.95191800  0.16598900  0.12918300  1
  O  O8  1  0.25000000  0.55367200  0.62947000  1
  O  O9  1  0.25000000  0.94632800  0.12947000  1
  O  O10  1  0.75000000  0.44632800  0.37053000  1
  O  O11  1  0.75000000  0.05367200  0.87053000  1
  O  O12  1  0.25000000  0.42290500  0.46157700  1
  O  O13  1  0.25000000  0.07709500  0.96157700  1
  O  O14  1  0.75000000  0.57709500  0.53842300  1
  O  O15  1  0.75000000  0.92290500  0.03842300  1
loop_
_geom_bond_atom_site_label_1
_geom_bond_atom_site_label_2
_geom_bond_distance
_geom_bond_site_symmetry_2
Mo0 O8 1.703063 1_555
Mo0 O12 1.718959 1_555
Mo0 O0 1.951975 1_455
Mo0 O6 1.951975 1_555
Mo1 O9 1.703063 1_545
Mo1 O13 1.718959 1_554
Mo1 O1 1.951975 1_555
Mo1 O7 1.951975 1_455
Mo2 O10 1.703063 1_555
Mo2 O14 1.718959 1_555
Mo2 O4 1.951975 1_655
Mo2 O2 1.951975 1_555
Mo3 O11 1.703063 1_565
Mo3 O15 1.718959 1_556
Mo3 O3 1.951975 1_655
Mo3 O5 1.951975 1_555
N0 Rh0 2.292725 1_555
N1 Rh1 2.292725 1_465
N2 Rh2 2.292725 1_655
N3 Rh3 2.292725 1_545
N4 Rh2 2.292725 1_555
N5 Rh3 2.292725 1_645
N6 Rh0 2.292725 1_455
N7 Rh1 2.292725 1_565
N8 O6 1.355090 1_555
N8 O0 1.355090 1_555
N8 Rh0 2.320628 1_555
N9 O1 1.355090 1_555
N9 O7 1.355090 1_555
N9 Rh1 2.320628 1_555
N10 O2 1.355090 1_555
N10 O4 1.355090 1_555
N10 Rh2 2.320628 1_555
N11 O5 1.355090 1_555
N11 O3 1.355090 1_555
N11 Rh3 2.320628 1_555
N12 Rh0 1.732704 1_555
N13 Rh1 1.732704 1_455
N14 Rh2 1.732704 1_655
N15 Rh3 1.732704 1_555
N16 Rh2 1.732704 1_555
N17 Rh3 1.732704 1_655
N18 Rh0 1.732704 1_455
N19 Rh1 1.732704 1_555
Cl0 N2 1.518807 1_555
Cl0 N4 1.518807 1_555
Cl1 N5 1.518807 1_565
Cl1 N3 1.518807 1_565
Cl2 N0 1.518807 1_555
Cl2 N6 1.518807 1_555
Cl3 N7 1.518807 1_545
Cl3 N1 1.518807 1_545
