# generated using pymatgen
data_LiEu3
_symmetry_space_group_name_H-M   'P 1'
_cell_length_a   7.59723568
_cell_length_b   7.59723568
_cell_length_c   6.22309700
_cell_angle_alpha   90.00000000
_cell_angle_beta   90.00000000
_cell_angle_gamma   119.99999718
_symmetry_Int_Tables_number   1
_chemical_formula_structural   LiEu3
_chemical_formula_sum   'Li2 Eu6'
_cell_volume   311.06304028
_cell_formula_units_Z   2
loop_
 _symmetry_equiv_pos_site_id
 _symmetry_equiv_pos_as_xyz
  1  'x, y, z'
loop_
 _atom_site_type_symbol
 _atom_site_label
 _atom_site_symmetry_multiplicity
 _atom_site_fract_x
 _atom_site_fract_y
 _atom_site_fract_z
 _atom_site_occupancy
  Li  Li0  1  0.66666700  0.33333300  0.25000000  1
  Li  Li1  1  0.33333300  0.66666700  0.75000000  1
  Eu  Eu0  1  0.83080100  0.16919900  0.75000000  1
  Eu  Eu1  1  0.33839800  0.16919900  0.75000000  1
  Eu  Eu2  1  0.83080100  0.66160200  0.75000000  1
  Eu  Eu3  1  0.16919900  0.83080100  0.25000000  1
  Eu  Eu4  1  0.66160200  0.83080100  0.25000000  1
  Eu  Eu5  1  0.16919900  0.33839800  0.25000000  1
loop_
_geom_bond_atom_site_label_1
_geom_bond_atom_site_label_2
_geom_bond_distance
_geom_bond_site_symmetry_2
Eu0 Eu1 3.740902 1_555
Eu0 Eu2 3.740902 1_555
Eu0 Li0 3.787677 1_556
Eu0 Li0 3.787677 1_555
Eu0 Li1 3.798764 1_545
Eu0 Li1 3.798764 1_655
Eu0 Eu5 3.826073 1_656
Eu0 Eu5 3.826073 1_655
Eu0 Eu4 3.826073 1_545
Eu0 Eu4 3.826073 1_546
Eu0 Eu2 3.856334 1_545
Eu0 Eu1 3.856334 1_655
Eu1 Eu2 3.740902 1_555
Eu1 Li0 3.787681 1_556
Eu1 Li0 3.787681 1_555
Eu1 Li1 3.798760 1_545
Eu1 Li1 3.798768 1_555
Eu1 Eu5 3.826073 1_556
Eu1 Eu5 3.826073 1_555
Eu1 Eu3 3.826073 1_545
Eu1 Eu3 3.826073 1_546
Eu1 Eu2 3.856334 1_445
Eu2 Li0 3.787681 1_556
Eu2 Li0 3.787681 1_555
Eu2 Li1 3.798760 1_655
Eu2 Li1 3.798768 1_555
Eu2 Eu4 3.826073 1_556
Eu2 Eu4 3.826073 1_555
Eu2 Eu3 3.826073 1_656
Eu2 Eu3 3.826073 1_655
Eu3 Eu4 3.740902 1_555
Eu3 Eu5 3.740902 1_555
Eu3 Li1 3.787677 1_555
Eu3 Li1 3.787677 1_554
Eu3 Li0 3.798764 1_455
Eu3 Li0 3.798764 1_565
Eu3 Eu4 3.856334 1_455
Eu3 Eu5 3.856334 1_565
Eu4 Eu5 3.740902 1_555
Eu4 Li1 3.787681 1_555
Eu4 Li1 3.787681 1_554
Eu4 Li0 3.798760 1_565
Eu4 Li0 3.798768 1_555
Eu4 Eu5 3.856334 1_665
Eu5 Li1 3.787681 1_554
Eu5 Li1 3.787681 1_555
Eu5 Li0 3.798760 1_455
Eu5 Li0 3.798768 1_555
