# generated using pymatgen
data_Zr3Ti2(PbO3)5
_symmetry_space_group_name_H-M   'P 1'
_cell_length_a   12.60306047
_cell_length_b   12.60306047
_cell_length_c   12.60306065
_cell_angle_alpha   26.78191724
_cell_angle_beta   26.78191724
_cell_angle_gamma   26.78191573
_symmetry_Int_Tables_number   1
_chemical_formula_structural   Zr3Ti2(PbO3)5
_chemical_formula_sum   'Zr3 Ti2 Pb5 O15'
_cell_volume   358.39529299
_cell_formula_units_Z   1
loop_
 _symmetry_equiv_pos_site_id
 _symmetry_equiv_pos_as_xyz
  1  'x, y, z'
loop_
 _atom_site_type_symbol
 _atom_site_label
 _atom_site_symmetry_multiplicity
 _atom_site_fract_x
 _atom_site_fract_y
 _atom_site_fract_z
 _atom_site_occupancy
  Zr  Zr0  1  0.39667000  0.39667000  0.39667000  1
  Zr  Zr1  1  0.99463600  0.99463600  0.99463600  1
  Zr  Zr2  1  0.59200000  0.59200000  0.59200000  1
  Ti  Ti0  1  0.19180100  0.19180100  0.19180100  1
  Ti  Ti1  1  0.79442600  0.79442600  0.79442600  1
  Pb  Pb0  1  0.28180700  0.28180700  0.28180700  1
  Pb  Pb1  1  0.88366800  0.88366800  0.88366800  1
  Pb  Pb2  1  0.48991100  0.48991100  0.48991100  1
  Pb  Pb3  1  0.08837900  0.08837900  0.08837900  1
  Pb  Pb4  1  0.68468600  0.68468600  0.68468600  1
  O  O0  1  0.91880000  0.38723900  0.38723900  1
  O  O1  1  0.50410700  0.99948200  0.99948200  1
  O  O2  1  0.10146700  0.60553000  0.60553000  1
  O  O3  1  0.71782600  0.19509200  0.19509200  1
  O  O4  1  0.31707500  0.79173800  0.79173800  1
  O  O5  1  0.38723900  0.38723900  0.91880000  1
  O  O6  1  0.99948200  0.99948200  0.50410700  1
  O  O7  1  0.60553000  0.60553000  0.10146700  1
  O  O8  1  0.19509200  0.19509200  0.71782600  1
  O  O9  1  0.79173800  0.79173800  0.31707500  1
  O  O10  1  0.38723900  0.91880000  0.38723900  1
  O  O11  1  0.99948200  0.50410700  0.99948200  1
  O  O12  1  0.60553000  0.10146700  0.60553000  1
  O  O13  1  0.19509200  0.71782600  0.19509200  1
  O  O14  1  0.79173800  0.31707500  0.79173800  1
loop_
_geom_bond_atom_site_label_1
_geom_bond_atom_site_label_2
_geom_bond_distance
_geom_bond_site_symmetry_2
O0 Zr2 2.053971 1_555
O0 Ti0 2.131135 1_655
O0 Pb0 2.430298 1_655
O1 Ti0 1.914201 1_566
O1 Ti1 2.214467 1_555
O1 Pb1 2.452536 1_555
O2 Ti1 1.879378 1_455
O2 Zr0 2.258282 1_555
O2 Pb2 2.555555 1_555
O3 Zr0 2.023746 1_555
O3 Zr1 2.204264 1_544
O3 Pb3 2.495695 1_655
O4 Zr1 2.039517 1_455
O4 Zr2 2.201612 1_555
O4 Pb4 2.456524 1_555
O5 Zr2 2.053971 1_555
O5 Ti0 2.131135 1_556
O5 Pb0 2.430298 1_556
O6 Ti0 1.914201 1_665
O6 Ti1 2.214467 1_555
O6 Pb1 2.452536 1_555
O7 Ti1 1.879378 1_554
O7 Zr0 2.258282 1_555
O7 Pb2 2.555556 1_555
O8 Zr0 2.023746 1_555
O8 Zr1 2.204264 1_445
O8 Pb3 2.495695 1_556
O9 Zr1 2.039517 1_554
O9 Zr2 2.201612 1_555
O9 Pb4 2.456524 1_555
O10 Zr2 2.053971 1_555
O10 Ti0 2.131135 1_565
O10 Pb0 2.430298 1_565
O11 Ti0 1.914201 1_656
O11 Ti1 2.214467 1_555
O11 Pb1 2.452536 1_555
O12 Ti1 1.879378 1_545
O12 Zr0 2.258282 1_555
O12 Pb2 2.555555 1_555
O13 Zr0 2.023746 1_555
O13 Zr1 2.204264 1_454
O13 Pb3 2.495695 1_565
O14 Zr1 2.039517 1_545
O14 Zr2 2.201612 1_555
O14 Pb4 2.456524 1_555
