# generated using pymatgen
data_SrCa7Fe2(CoO4)6
_symmetry_space_group_name_H-M   'P 1'
_cell_length_a   7.60028476
_cell_length_b   7.60028476
_cell_length_c   7.64712000
_cell_angle_alpha   90.00000000
_cell_angle_beta   90.00000000
_cell_angle_gamma   90.09622837
_symmetry_Int_Tables_number   1
_chemical_formula_structural   SrCa7Fe2(CoO4)6
_chemical_formula_sum   'Sr1 Ca7 Fe2 Co6 O24'
_cell_volume   441.73012860
_cell_formula_units_Z   1
loop_
 _symmetry_equiv_pos_site_id
 _symmetry_equiv_pos_as_xyz
  1  'x, y, z'
loop_
 _atom_site_type_symbol
 _atom_site_label
 _atom_site_symmetry_multiplicity
 _atom_site_fract_x
 _atom_site_fract_y
 _atom_site_fract_z
 _atom_site_occupancy
  Sr  Sr0  1  0.75214100  0.75214100  0.00000000  1
  Ca  Ca0  1  0.75483200  0.24536400  0.50000000  1
  Ca  Ca1  1  0.75474100  0.24556600  0.00000000  1
  Ca  Ca2  1  0.24524800  0.24524800  0.50000000  1
  Ca  Ca3  1  0.24544700  0.24544700  0.00000000  1
  Ca  Ca4  1  0.75472500  0.75472500  0.50000000  1
  Ca  Ca5  1  0.24536400  0.75483200  0.50000000  1
  Ca  Ca6  1  0.24556600  0.75474100  0.00000000  1
  Fe  Fe0  1  0.00079500  0.00079500  0.74935600  1
  Fe  Fe1  1  0.00079500  0.00079500  0.25064400  1
  Co  Co0  1  0.49931500  0.00095900  0.74906900  1
  Co  Co1  1  0.49931500  0.00095900  0.25093100  1
  Co  Co2  1  0.00095900  0.49931500  0.74906900  1
  Co  Co3  1  0.00095900  0.49931500  0.25093100  1
  Co  Co4  1  0.49904900  0.49904900  0.74903700  1
  Co  Co5  1  0.49904900  0.49904900  0.25096300  1
  O  O0  1  0.00112300  0.25127900  0.74902300  1
  O  O1  1  0.00112300  0.25127900  0.25097700  1
  O  O2  1  0.49921100  0.24325600  0.74920900  1
  O  O3  1  0.49921100  0.24325600  0.25079100  1
  O  O4  1  0.00336300  0.74887100  0.74619100  1
  O  O5  1  0.00336300  0.74887100  0.25380900  1
  O  O6  1  0.49665600  0.75719000  0.74670900  1
  O  O7  1  0.49665600  0.75719000  0.25329100  1
  O  O8  1  0.74887100  0.00336300  0.74619100  1
  O  O9  1  0.74887100  0.00336300  0.25380900  1
  O  O10  1  0.25127900  0.00112300  0.74902300  1
  O  O11  1  0.25127900  0.00112300  0.25097700  1
  O  O12  1  0.75719000  0.49665600  0.74670900  1
  O  O13  1  0.75719000  0.49665600  0.25329100  1
  O  O14  1  0.24325600  0.49921100  0.74920900  1
  O  O15  1  0.24325600  0.49921100  0.25079100  1
  O  O16  1  0.00113400  0.00113400  0.50000000  1
  O  O17  1  0.00327100  0.00327100  0.00000000  1
  O  O18  1  0.49910100  0.00105100  0.50000000  1
  O  O19  1  0.49538500  0.00376200  0.00000000  1
  O  O20  1  0.00105100  0.49910100  0.50000000  1
  O  O21  1  0.00376200  0.49538500  0.00000000  1
  O  O22  1  0.49933500  0.49933500  0.50000000  1
  O  O23  1  0.49675900  0.49675900  0.00000000  1
loop_
_geom_bond_atom_site_label_1
_geom_bond_atom_site_label_2
_geom_bond_distance
_geom_bond_site_symmetry_2
Ca0 O9 2.632316 1_555
Ca0 O8 2.632316 1_555
Ca0 O16 2.638460 1_655
Ca0 O0 2.670594 1_655
Ca0 O1 2.670594 1_655
Ca0 O12 2.684623 1_555
Ca0 O13 2.684623 1_555
Ca0 O20 2.684917 1_655
Ca0 O18 2.685788 1_555
Ca0 O2 2.721471 1_555
Ca0 O3 2.721471 1_555
Ca0 O22 2.740300 1_555
Ca1 O17 2.640224 1_655
Ca1 O8 2.675337 1_554
Ca1 O9 2.675337 1_555
Ca1 O21 2.678624 1_655
Ca1 O0 2.681729 1_654
Ca1 O1 2.681729 1_655
Ca1 O19 2.692733 1_555
Ca1 O12 2.719156 1_554
Ca1 O13 2.719156 1_555
Ca1 O3 2.729472 1_555
Ca1 O2 2.729472 1_554
Ca1 O23 2.738954 1_555
Ca2 O16 2.621637 1_555
Ca2 O11 2.659203 1_555
Ca2 O1 2.659203 1_555
Ca2 O10 2.659203 1_555
Ca2 O0 2.659203 1_555
Ca2 O18 2.679375 1_555
Ca2 O20 2.679375 1_555
Ca2 O2 2.712522 1_555
Ca2 O3 2.712522 1_555
Ca2 O15 2.712522 1_555
Ca2 O14 2.712522 1_555
Ca2 O22 2.728741 1_555
Ca3 O17 2.600824 1_555
Ca3 O21 2.644676 1_555
Ca3 O19 2.644676 1_555
Ca3 O1 2.670948 1_555
Ca3 O11 2.670948 1_555
Ca3 O10 2.670948 1_554
Ca3 O0 2.670948 1_554
Ca3 O23 2.698939 1_555
Ca3 O15 2.719973 1_555
Ca3 O3 2.719973 1_555
Ca3 O14 2.719973 1_554
Ca3 O2 2.719973 1_554
Ca4 O16 2.646284 1_665
Ca4 O5 2.667898 1_655
Ca4 O9 2.667898 1_565
Ca4 O4 2.667898 1_655
Ca4 O8 2.667898 1_565
Ca4 O18 2.700312 1_565
Ca4 O20 2.700312 1_655
Ca4 O6 2.721556 1_555
Ca4 O12 2.721556 1_555
Ca4 O13 2.721556 1_555
Ca4 O7 2.721556 1_555
Ca4 O22 2.742734 1_555
Ca5 O5 2.632316 1_555
Ca5 O4 2.632316 1_555
Ca5 O16 2.638460 1_565
Ca5 O10 2.670594 1_565
Ca5 O11 2.670594 1_565
Ca5 O6 2.684623 1_555
Ca5 O7 2.684623 1_555
Ca5 O18 2.684917 1_565
Ca5 O20 2.685788 1_555
Ca5 O14 2.721471 1_555
Ca5 O15 2.721471 1_555
Ca5 O22 2.740300 1_555
Ca6 O17 2.640224 1_565
Ca6 O4 2.675337 1_554
Ca6 O5 2.675337 1_555
Ca6 O19 2.678624 1_565
Ca6 O11 2.681729 1_565
Ca6 O10 2.681729 1_564
Ca6 O21 2.692733 1_555
Ca6 O7 2.719156 1_555
Ca6 O6 2.719156 1_554
Ca6 O15 2.729472 1_555
Ca6 O14 2.729472 1_554
Ca6 O23 2.738954 1_555
Fe0 O10 1.903749 1_555
Fe0 O0 1.903749 1_555
Fe0 O16 1.906859 1_555
Fe0 O4 1.914979 1_545
Fe0 O8 1.914979 1_455
Fe0 O17 1.916889 1_556
Fe1 O11 1.903749 1_555
Fe1 O1 1.903749 1_555
Fe1 O16 1.906859 1_555
Fe1 O9 1.914979 1_455
Fe1 O5 1.914979 1_545
Fe1 O17 1.916889 1_555
Co0 O2 1.841528 1_555
Co0 O6 1.852878 1_545
Co0 O10 1.885147 1_555
Co0 O8 1.896882 1_555
Co0 O18 1.904661 1_555
Co0 O19 1.919251 1_556
Co1 O3 1.841528 1_555
Co1 O7 1.852878 1_545
Co1 O11 1.885147 1_555
Co1 O9 1.896882 1_555
Co1 O18 1.904661 1_555
Co1 O19 1.919251 1_555
Co2 O14 1.841528 1_555
Co2 O12 1.852878 1_455
Co2 O0 1.885147 1_555
Co2 O4 1.896882 1_555
Co2 O20 1.904661 1_555
Co2 O21 1.919251 1_556
Co3 O15 1.841528 1_555
Co3 O13 1.852878 1_455
Co3 O1 1.885147 1_555
Co3 O5 1.896882 1_555
Co3 O20 1.904661 1_555
Co3 O21 1.919251 1_555
Co4 O22 1.904418 1_555
Co4 O23 1.919302 1_556
Co4 O14 1.944103 1_555
Co4 O2 1.944103 1_555
Co4 O6 1.962141 1_555
Co4 O12 1.962141 1_555
Co5 O22 1.904418 1_555
Co5 O23 1.919302 1_555
Co5 O15 1.944103 1_555
Co5 O3 1.944103 1_555
Co5 O7 1.962141 1_555
Co5 O13 1.962141 1_555
O4 Sr0 2.722784 1_456
O5 Sr0 2.722784 1_455
O6 Sr0 2.742975 1_556
O7 Sr0 2.742975 1_555
O8 Sr0 2.722784 1_546
O9 Sr0 2.722784 1_545
O12 Sr0 2.742975 1_556
O13 Sr0 2.742975 1_555
O17 Sr0 2.696985 1_445
O19 Sr0 2.734559 1_545
O21 Sr0 2.734559 1_455
O23 Sr0 2.742648 1_555
