# generated using pymatgen
data_LiNd(PN2)4
_symmetry_space_group_name_H-M   'P 1'
_cell_length_a   7.93194400
_cell_length_b   8.78569300
_cell_length_c   9.16530800
_cell_angle_alpha   90.00000000
_cell_angle_beta   90.00000000
_cell_angle_gamma   90.00000000
_symmetry_Int_Tables_number   1
_chemical_formula_structural   LiNd(PN2)4
_chemical_formula_sum   'Li4 Nd4 P16 N32'
_cell_volume   638.70854579
_cell_formula_units_Z   4
loop_
 _symmetry_equiv_pos_site_id
 _symmetry_equiv_pos_as_xyz
  1  'x, y, z'
loop_
 _atom_site_type_symbol
 _atom_site_label
 _atom_site_symmetry_multiplicity
 _atom_site_fract_x
 _atom_site_fract_y
 _atom_site_fract_z
 _atom_site_occupancy
  Li  Li0  1  0.25000000  0.05460900  0.93327500  1
  Li  Li1  1  0.25000000  0.55460900  0.56672500  1
  Li  Li2  1  0.75000000  0.94539100  0.06672500  1
  Li  Li3  1  0.75000000  0.44539100  0.43327500  1
  Nd  Nd0  1  0.25000000  0.41244400  0.91458000  1
  Nd  Nd1  1  0.25000000  0.91244400  0.58542000  1
  Nd  Nd2  1  0.75000000  0.58755600  0.08542000  1
  Nd  Nd3  1  0.75000000  0.08755600  0.41458000  1
  P  P0  1  0.56315500  0.06944900  0.80864300  1
  P  P1  1  0.93684500  0.56944900  0.69135700  1
  P  P2  1  0.06315500  0.93055100  0.19135700  1
  P  P3  1  0.43684500  0.43055100  0.30864300  1
  P  P4  1  0.43684500  0.93055100  0.19135700  1
  P  P5  1  0.06315500  0.43055100  0.30864300  1
  P  P6  1  0.93684500  0.06944900  0.80864300  1
  P  P7  1  0.56315500  0.56944900  0.69135700  1
  P  P8  1  0.05936200  0.27081200  0.58223800  1
  P  P9  1  0.44063800  0.77081200  0.91776200  1
  P  P10  1  0.55936200  0.72918800  0.41776200  1
  P  P11  1  0.94063800  0.22918800  0.08223800  1
  P  P12  1  0.94063800  0.72918800  0.41776200  1
  P  P13  1  0.55936200  0.22918800  0.08223800  1
  P  P14  1  0.44063800  0.27081200  0.58223800  1
  P  P15  1  0.05936200  0.77081200  0.91776200  1
  N  N0  1  0.55806200  0.12940400  0.63969800  1
  N  N1  1  0.94193800  0.62940400  0.86030200  1
  N  N2  1  0.05806200  0.87059600  0.36030200  1
  N  N3  1  0.44193800  0.37059600  0.13969800  1
  N  N4  1  0.44193800  0.87059600  0.36030200  1
  N  N5  1  0.05806200  0.37059600  0.13969800  1
  N  N6  1  0.94193800  0.12940400  0.63969800  1
  N  N7  1  0.55806200  0.62940400  0.86030200  1
  N  N8  1  0.02421500  0.19652400  0.92105100  1
  N  N9  1  0.47578500  0.69652400  0.57894900  1
  N  N10  1  0.52421500  0.80347600  0.07894900  1
  N  N11  1  0.97578500  0.30347600  0.42105100  1
  N  N12  1  0.97578500  0.80347600  0.07894900  1
  N  N13  1  0.52421500  0.30347600  0.42105100  1
  N  N14  1  0.47578500  0.19652400  0.92105100  1
  N  N15  1  0.02421500  0.69652400  0.57894900  1
  N  N16  1  0.06622900  0.42291900  0.68446900  1
  N  N17  1  0.43377100  0.92291900  0.81553100  1
  N  N18  1  0.56622900  0.57708100  0.31553100  1
  N  N19  1  0.93377100  0.07708100  0.18446900  1
  N  N20  1  0.93377100  0.57708100  0.31553100  1
  N  N21  1  0.56622900  0.07708100  0.18446900  1
  N  N22  1  0.43377100  0.42291900  0.68446900  1
  N  N23  1  0.06622900  0.92291900  0.81553100  1
  N  N24  1  0.25000000  0.19755900  0.58177000  1
  N  N25  1  0.25000000  0.69755900  0.91823000  1
  N  N26  1  0.75000000  0.80244100  0.41823000  1
  N  N27  1  0.75000000  0.30244100  0.08177000  1
  N  N28  1  0.25000000  0.47901000  0.36035800  1
  N  N29  1  0.25000000  0.97901000  0.13964200  1
  N  N30  1  0.75000000  0.52099000  0.63964200  1
  N  N31  1  0.75000000  0.02099000  0.86035800  1
loop_
_geom_bond_atom_site_label_1
_geom_bond_atom_site_label_2
_geom_bond_distance
_geom_bond_site_symmetry_2
Li0 N29 2.004646 1_546
Li0 N17 2.151275 1_545
Li0 N23 2.151275 1_545
Li0 N14 2.185060 1_555
Li0 N8 2.185060 1_555
Li1 N28 2.004646 1_555
Li1 N16 2.151275 1_555
Li1 N22 2.151275 1_555
Li1 N9 2.185060 1_555
Li1 N15 2.185060 1_555
Li2 N31 2.004646 1_564
Li2 N19 2.151275 1_565
Li2 N21 2.151275 1_565
Li2 N12 2.185060 1_555
Li2 N10 2.185060 1_555
Li3 N30 2.004646 1_555
Li3 N18 2.151275 1_555
Li3 N20 2.151275 1_555
Li3 N11 2.185060 1_555
Li3 N13 2.185060 1_555
N0 P0 1.636074 1_555
N0 P14 1.639613 1_555
N0 Nd3 2.590388 1_555
N1 P1 1.636074 1_555
N1 P15 1.639613 1_655
N1 Nd2 2.590388 1_556
N2 P2 1.636074 1_555
N2 P12 1.639613 1_455
N2 Nd1 2.590388 1_555
N3 P3 1.636074 1_555
N3 P13 1.639613 1_555
N3 Nd0 2.590388 1_554
N4 P4 1.636074 1_555
N4 P10 1.639613 1_555
N4 Nd1 2.590388 1_555
N5 P5 1.636074 1_555
N5 P11 1.639613 1_455
N5 Nd0 2.590388 1_554
N6 P6 1.636074 1_555
N6 P8 1.639613 1_655
N6 Nd3 2.590388 1_555
N7 P7 1.636074 1_555
N7 P9 1.639613 1_555
N7 Nd2 2.590388 1_556
N8 P11 1.644484 1_456
N8 P6 1.669771 1_455
N8 Nd0 2.609507 1_555
N9 P10 1.644484 1_555
N9 P7 1.669771 1_555
N9 Nd1 2.609507 1_555
N10 P9 1.644484 1_554
N10 P4 1.669771 1_555
N10 Nd2 2.609507 1_555
N11 P8 1.644484 1_655
N11 P5 1.669771 1_655
N11 Nd3 2.609507 1_555
N12 P15 1.644484 1_654
N12 P2 1.669771 1_655
N12 Nd2 2.609507 1_555
N13 P14 1.644484 1_555
N13 P3 1.669771 1_555
N13 Nd3 2.609507 1_555
N14 P13 1.644484 1_556
N14 P0 1.669771 1_555
N14 Nd0 2.609507 1_555
N15 P12 1.644484 1_455
N15 P1 1.669771 1_455
N15 Nd1 2.609507 1_555
N16 P8 1.633024 1_555
N16 P1 1.647581 1_455
N16 Nd0 2.565402 1_555
N17 P9 1.633024 1_555
N17 P0 1.647581 1_565
N17 Nd1 2.565402 1_555
N18 P10 1.633024 1_555
N18 P3 1.647581 1_555
N18 Nd2 2.565402 1_555
N19 P11 1.633024 1_555
N19 P2 1.647581 1_645
N19 Nd3 2.565402 1_555
N20 P12 1.633024 1_555
N20 P5 1.647581 1_655
N20 Nd2 2.565402 1_555
N21 P13 1.633024 1_555
N21 P4 1.647581 1_545
N21 Nd3 2.565402 1_555
N22 P14 1.633024 1_555
N22 P7 1.647581 1_555
N22 Nd0 2.565402 1_555
N23 P15 1.633024 1_555
N23 P6 1.647581 1_465
N23 Nd1 2.565402 1_555
N24 P14 1.643395 1_555
N24 P8 1.643395 1_555
N24 Nd1 2.505156 1_545
N25 P9 1.643395 1_555
N25 P15 1.643395 1_555
N25 Nd0 2.505156 1_555
N26 P12 1.643395 1_555
N26 P10 1.643395 1_555
N26 Nd3 2.505156 1_565
N27 P13 1.643395 1_555
N27 P11 1.643395 1_555
N27 Nd2 2.505156 1_555
N28 P5 1.613188 1_555
N28 P3 1.613188 1_555
N29 P2 1.613188 1_555
N29 P4 1.613188 1_555
N30 P1 1.613188 1_555
N30 P7 1.613188 1_555
N31 P0 1.613188 1_555
N31 P6 1.613188 1_555
