# generated using pymatgen
data_Sr2NiIrO6
_symmetry_space_group_name_H-M   'P 1'
_cell_length_a   5.64343295
_cell_length_b   5.64343295
_cell_length_c   5.64343295
_cell_angle_alpha   120.41399779
_cell_angle_beta   120.41399779
_cell_angle_gamma   89.28441813
_symmetry_Int_Tables_number   1
_chemical_formula_structural   Sr2NiIrO6
_chemical_formula_sum   'Sr2 Ni1 Ir1 O6'
_cell_volume   126.28513279
_cell_formula_units_Z   1
loop_
 _symmetry_equiv_pos_site_id
 _symmetry_equiv_pos_as_xyz
  1  'x, y, z'
loop_
 _atom_site_type_symbol
 _atom_site_label
 _atom_site_symmetry_multiplicity
 _atom_site_fract_x
 _atom_site_fract_y
 _atom_site_fract_z
 _atom_site_occupancy
  Sr  Sr0  1  0.25000000  0.75000000  0.50000000  1
  Sr  Sr1  1  0.75000000  0.25000000  0.50000000  1
  Ni  Ni0  1  0.00000000  0.00000000  0.00000000  1
  Ir  Ir0  1  0.50000000  0.50000000  0.00000000  1
  O  O0  1  0.25646600  0.25646600  0.00000000  1
  O  O1  1  0.74353400  0.74353400  0.00000000  1
  O  O2  1  0.22278000  0.28961100  0.51239200  1
  O  O3  1  0.77722000  0.71038900  0.48760800  1
  O  O4  1  0.28961100  0.77722000  0.06683100  1
  O  O5  1  0.71038900  0.22278000  0.93316900  1
loop_
_geom_bond_atom_site_label_1
_geom_bond_atom_site_label_2
_geom_bond_distance
_geom_bond_site_symmetry_2
Ni0 O4 2.049103 1_545
Ni0 O5 2.049103 1_454
Ni0 O2 2.049107 1_555
Ni0 O3 2.049107 1_444
Ni0 O1 2.059602 1_445
Ni0 O0 2.059602 1_555
Ir0 O3 1.951693 1_555
Ir0 O2 1.951693 1_554
Ir0 O4 1.951697 1_555
Ir0 O5 1.951697 1_554
Ir0 O0 1.955749 1_555
Ir0 O1 1.955749 1_555
O0 Sr1 2.804522 1_555
O0 Sr0 2.804522 1_544
O0 Sr1 2.804522 1_454
O0 Sr0 2.804522 1_555
O1 Sr1 2.804522 1_554
O1 Sr1 2.804522 1_565
O1 Sr0 2.804522 1_655
O1 Sr0 2.804522 1_554
O2 Sr1 2.642684 1_455
O2 Sr0 2.642690 1_555
O2 Sr0 3.014242 1_545
O2 Sr1 3.014247 1_555
O3 Sr0 2.642684 1_655
O3 Sr1 2.642690 1_555
O3 Sr1 3.014242 1_565
O3 Sr0 3.014247 1_555
O4 Sr1 2.642687 1_565
O4 Sr0 2.642687 1_555
O4 Sr0 3.014245 1_554
O4 Sr1 3.014245 1_454
O5 Sr1 2.642687 1_555
O5 Sr0 2.642687 1_545
O5 Sr0 3.014245 1_656
O5 Sr1 3.014245 1_556
