# generated using pymatgen
data_HoZnSn
_symmetry_space_group_name_H-M   'P 1'
_cell_length_a   4.43935267
_cell_length_b   4.43935267
_cell_length_c   15.97949872
_cell_angle_alpha   90.00000000
_cell_angle_beta   90.00000000
_cell_angle_gamma   119.99998671
_symmetry_Int_Tables_number   1
_chemical_formula_structural   HoZnSn
_chemical_formula_sum   'Ho4 Zn4 Sn4'
_cell_volume   272.73014028
_cell_formula_units_Z   4
loop_
 _symmetry_equiv_pos_site_id
 _symmetry_equiv_pos_as_xyz
  1  'x, y, z'
loop_
 _atom_site_type_symbol
 _atom_site_label
 _atom_site_symmetry_multiplicity
 _atom_site_fract_x
 _atom_site_fract_y
 _atom_site_fract_z
 _atom_site_occupancy
  Ho  Ho0  1  -0.00000000  0.00000000  0.25000000  1
  Ho  Ho1  1  -0.00000000  0.00000000  0.75000000  1
  Ho  Ho2  1  -0.00000000  0.00000000  0.00000000  1
  Ho  Ho3  1  -0.00000000  0.00000000  0.50000000  1
  Zn  Zn0  1  0.33333300  0.66666700  0.16270783  1
  Zn  Zn1  1  0.66666700  0.33333300  0.83729217  1
  Zn  Zn2  1  0.66666700  0.33333300  0.66270783  1
  Zn  Zn3  1  0.33333300  0.66666700  0.33729217  1
  Sn  Sn0  1  0.33333300  0.66666700  0.61383640  1
  Sn  Sn1  1  0.66666700  0.33333300  0.38616360  1
  Sn  Sn2  1  0.66666700  0.33333300  0.11383640  1
  Sn  Sn3  1  0.33333300  0.66666700  0.88616360  1
loop_
_geom_bond_atom_site_label_1
_geom_bond_atom_site_label_2
_geom_bond_distance
_geom_bond_site_symmetry_2
Ho0 Zn0 2.918043 1_545
Ho0 Zn3 2.918043 1_545
Ho0 Zn3 2.918047 1_445
Ho0 Zn0 2.918047 1_445
Ho0 Zn3 2.918047 1_555
Ho0 Zn0 2.918047 1_555
Ho0 Sn2 3.362066 1_455
Ho0 Sn1 3.362066 1_455
Ho0 Sn1 3.362070 1_445
Ho0 Sn1 3.362070 1_555
Ho0 Sn2 3.362070 1_555
Ho0 Sn2 3.362070 1_445
Ho1 Zn2 2.918043 1_455
Ho1 Zn1 2.918043 1_455
Ho1 Zn1 2.918047 1_445
Ho1 Zn1 2.918047 1_555
Ho1 Zn2 2.918047 1_445
Ho1 Zn2 2.918047 1_555
Ho1 Sn0 3.362066 1_545
Ho1 Sn3 3.362066 1_545
Ho1 Sn0 3.362070 1_555
Ho1 Sn3 3.362070 1_445
Ho1 Sn0 3.362070 1_445
Ho1 Sn3 3.362070 1_555
Ho2 Sn3 3.142962 1_544
Ho2 Sn2 3.142962 1_455
Ho2 Sn3 3.142965 1_444
Ho2 Sn3 3.142965 1_554
Ho2 Sn2 3.142965 1_445
Ho2 Sn2 3.142965 1_555
Ho3 Sn0 3.142962 1_545
Ho3 Sn1 3.142962 1_455
Ho3 Sn0 3.142965 1_555
Ho3 Sn0 3.142965 1_445
Ho3 Sn1 3.142965 1_445
Ho3 Sn1 3.142965 1_555
Sn0 Zn2 2.679392 1_455
Sn0 Zn2 2.679392 1_565
Sn0 Zn2 2.679399 1_555
Sn1 Zn3 2.679392 1_545
Sn1 Zn3 2.679392 1_655
Sn1 Zn3 2.679399 1_555
Sn2 Zn0 2.679392 1_545
Sn2 Zn0 2.679392 1_655
Sn2 Zn0 2.679399 1_555
Sn3 Zn1 2.679392 1_455
Sn3 Zn1 2.679392 1_565
Sn3 Zn1 2.679399 1_555
