# generated using pymatgen
data_PmSe3
_symmetry_space_group_name_H-M   'P 1'
_cell_length_a   6.13184335
_cell_length_b   6.13184335
_cell_length_c   6.13184335
_cell_angle_alpha   140.32453193
_cell_angle_beta   140.32453193
_cell_angle_gamma   57.36087323
_symmetry_Int_Tables_number   1
_chemical_formula_structural   PmSe3
_chemical_formula_sum   'Pm1 Se3'
_cell_volume   93.17537680
_cell_formula_units_Z   1
loop_
 _symmetry_equiv_pos_site_id
 _symmetry_equiv_pos_as_xyz
  1  'x, y, z'
loop_
 _atom_site_type_symbol
 _atom_site_label
 _atom_site_symmetry_multiplicity
 _atom_site_fract_x
 _atom_site_fract_y
 _atom_site_fract_z
 _atom_site_occupancy
  Pm  Pm0  1  0.00000000  0.00000000  0.00000000  1
  Se  Se0  1  0.75000000  0.25000000  0.50000000  1
  Se  Se1  1  0.25000000  0.75000000  0.50000000  1
  Se  Se2  1  0.50000000  0.50000000  0.00000000  1
loop_
_geom_bond_atom_site_label_1
_geom_bond_atom_site_label_2
_geom_bond_distance
_geom_bond_site_symmetry_2
Pm0 Se2 2.942819 1_545
Pm0 Se2 2.942819 1_444
Pm0 Se2 2.942819 1_455
Pm0 Se2 2.942819 1_556
Pm0 Se1 3.400724 1_444
Pm0 Se0 3.400724 1_555
Pm0 Se0 3.400724 1_444
Pm0 Se0 3.400724 1_455
Pm0 Se0 3.400724 1_454
Pm0 Se1 3.400724 1_544
Pm0 Se1 3.400724 1_545
Pm0 Se1 3.400724 1_555
Se0 Se1 2.942819 1_645
Se0 Se1 2.942819 1_656
Se0 Se1 2.942819 1_544
Se0 Se1 2.942819 1_555
