# generated using pymatgen
data_YbMnCuP2
_symmetry_space_group_name_H-M   'P 1'
_cell_length_a   3.94347524
_cell_length_b   3.94347524
_cell_length_c   6.43698780
_cell_angle_alpha   90.00000000
_cell_angle_beta   90.00000000
_cell_angle_gamma   119.99999315
_symmetry_Int_Tables_number   1
_chemical_formula_structural   YbMnCuP2
_chemical_formula_sum   'Yb1 Mn1 Cu1 P2'
_cell_volume   86.69051530
_cell_formula_units_Z   1
loop_
 _symmetry_equiv_pos_site_id
 _symmetry_equiv_pos_as_xyz
  1  'x, y, z'
loop_
 _atom_site_type_symbol
 _atom_site_label
 _atom_site_symmetry_multiplicity
 _atom_site_fract_x
 _atom_site_fract_y
 _atom_site_fract_z
 _atom_site_occupancy
  Yb  Yb0  1  0.33333300  0.66666700  0.98772429  1
  Mn  Mn0  1  0.00000000  0.00000000  0.37779749  1
  Cu  Cu0  1  0.66666700  0.33333300  0.64042156  1
  P  P0  1  0.66666700  0.33333300  0.24853687  1
  P  P1  1  0.00000000  0.00000000  0.74551878  1
loop_
_geom_bond_atom_site_label_1
_geom_bond_atom_site_label_2
_geom_bond_distance
_geom_bond_site_symmetry_2
Mn0 P1 2.367017 1_555
Mn0 P0 2.424038 1_455
Mn0 P0 2.424041 1_555
Mn0 P0 2.424041 1_445
Cu0 P1 2.375146 1_655
Cu0 P1 2.375150 1_555
Cu0 P1 2.375150 1_665
Cu0 P0 2.522557 1_555
Cu0 Mn0 2.835749 1_655
Cu0 Mn0 2.835752 1_555
Cu0 Mn0 2.835752 1_665
Cu0 Yb0 3.190845 1_655
Cu0 Yb0 3.190845 1_545
Cu0 Yb0 3.190849 1_555
P0 Yb0 2.828813 1_544
P0 Yb0 2.828813 1_654
P0 Yb0 2.828819 1_554
P1 Yb0 2.759414 1_545
P1 Yb0 2.759417 1_555
P1 Yb0 2.759417 1_445
