# generated using pymatgen
data_C6N7Cl3
_symmetry_space_group_name_H-M   'P 1'
_cell_length_a   13.84853034
_cell_length_b   13.84853034
_cell_length_c   19.83295737
_cell_angle_alpha   95.43568802
_cell_angle_beta   104.93722558
_cell_angle_gamma   119.68217121
_symmetry_Int_Tables_number   1
_chemical_formula_structural   C6N7Cl3
_chemical_formula_sum   'C72 N84 Cl36'
_cell_volume   3078.78398478
_cell_formula_units_Z   12
loop_
 _symmetry_equiv_pos_site_id
 _symmetry_equiv_pos_as_xyz
  1  'x, y, z'
loop_
 _atom_site_type_symbol
 _atom_site_label
 _atom_site_symmetry_multiplicity
 _atom_site_fract_x
 _atom_site_fract_y
 _atom_site_fract_z
 _atom_site_occupancy
  C  C0  1  0.38647461  0.09799605  0.61920389  1
  C  C1  1  0.61352539  0.90200395  0.38079611  1
  C  C2  1  0.97879216  0.76727072  0.88079611  1
  C  C3  1  0.02120784  0.23272928  0.11920389  1
  C  C4  1  0.59142425  0.46094079  0.13653926  1
  C  C5  1  0.40857575  0.53905921  0.86346074  1
  C  C6  1  0.82440152  0.45488499  0.36346074  1
  C  C7  1  0.17559848  0.54511501  0.63653926  1
  C  C8  1  0.69945266  0.17967005  0.02417487  1
  C  C9  1  0.30054734  0.82032995  0.97582513  1
  C  C10  1  0.65549519  0.67527779  0.47582513  1
  C  C11  1  0.34450481  0.32472221  0.52417487  1
  C  C12  1  0.91881973  0.84682982  0.37149384  1
  C  C13  1  0.08118027  0.15317018  0.62850616  1
  C  C14  1  0.97533598  0.54732589  0.12850616  1
  C  C15  1  0.02466402  0.45267411  0.87149384  1
  C  C16  1  0.91376287  0.21583314  0.42358871  1
  C  C17  1  0.08623713  0.78416686  0.57641129  1
  C  C18  1  0.29224443  0.49017415  0.07641129  1
  C  C19  1  0.70775557  0.50982585  0.92358871  1
  C  C20  1  0.84491377  0.18872302  0.12820247  1
  C  C21  1  0.15508623  0.81127698  0.87179753  1
  C  C22  1  0.56052055  0.71671131  0.37179753  1
  C  C23  1  0.43947945  0.28328869  0.62820247  1
  C  C24  1  0.29097623  0.12839175  0.52039092  1
  C  C25  1  0.70902377  0.87160825  0.47960908  1
  C  C26  1  0.10800083  0.77058531  0.97960908  1
  C  C27  1  0.89199917  0.22941469  0.02039092  1
  C  C28  1  0.58181076  0.81788234  0.07177583  1
  C  C29  1  0.41818924  0.18211766  0.92822417  1
  C  C30  1  0.24610650  0.51003492  0.42822417  1
  C  C31  1  0.75389350  0.48996508  0.57177583  1
  C  C32  1  0.35725314  0.13209401  0.02186451  1
  C  C33  1  0.64274686  0.86790599  0.97813549  1
  C  C34  1  0.61022950  0.33538863  0.47813549  1
  C  C35  1  0.38977050  0.66461137  0.52186451  1
  C  C36  1  0.88440093  0.81805679  0.11521474  1
  C  C37  1  0.11559907  0.18194321  0.88478526  1
  C  C38  1  0.20284205  0.76918619  0.38478526  1
  C  C39  1  0.79715795  0.23081381  0.61521474  1
  C  C40  1  0.14310912  0.76633621  0.48114386  1
  C  C41  1  0.85689088  0.23366379  0.51885614  1
  C  C42  1  0.78519236  0.66196526  0.01885614  1
  C  C43  1  0.21480764  0.33803474  0.98114386  1
  C  C44  1  0.44367037  0.28378182  0.13176691  1
  C  C45  1  0.55632963  0.71621818  0.86823309  1
  C  C46  1  0.65201491  0.31190346  0.36823309  1
  C  C47  1  0.34798509  0.68809654  0.63176691  1
  C  C48  1  0.99888181  0.81861175  0.47664535  1
  C  C49  1  0.00111819  0.18138825  0.52335465  1
  C  C50  1  0.84196640  0.52223646  0.02335465  1
  C  C51  1  0.15803360  0.47776354  0.97664535  1
  C  C52  1  0.66641858  0.15112192  0.12884362  1
  C  C53  1  0.33358142  0.84887808  0.87115638  1
  C  C54  1  0.52227830  0.53757496  0.37115638  1
  C  C55  1  0.47772170  0.46242504  0.62884362  1
  C  C56  1  0.21279246  0.17629077  0.42447154  1
  C  C57  1  0.78720754  0.82370923  0.57552846  1
  C  C58  1  0.25181923  0.78832091  0.07552846  1
  C  C59  1  0.74818077  0.21167909  0.92447154  1
  C  C60  1  0.50742194  0.32792457  0.02945443  1
  C  C61  1  0.49257806  0.67207543  0.97054557  1
  C  C62  1  0.79847014  0.47796751  0.47054557  1
  C  C63  1  0.20152986  0.52203249  0.52945443  1
  C  C64  1  0.29615263  0.10027867  0.11775975  1
  C  C65  1  0.70384737  0.89972133  0.88224025  1
  C  C66  1  0.48251892  0.17839288  0.38224025  1
  C  C67  1  0.51748108  0.82160712  0.61775975  1
  C  C68  1  0.06228472  0.81157801  0.37380017  1
  C  C69  1  0.93771528  0.18842199  0.62619983  1
  C  C70  1  0.93777784  0.68848455  0.12619983  1
  C  C71  1  0.06222216  0.31151545  0.87380017  1
  N  N0  1  0.52505691  0.39274978  0.17028819  1
  N  N1  1  0.47494309  0.60725022  0.82971181  1
  N  N2  1  0.72246160  0.35476873  0.32971181  1
  N  N3  1  0.27753840  0.64523127  0.67028819  1
  N  N4  1  0.30508233  0.05307632  0.55287588  1
  N  N5  1  0.69491767  0.94692368  0.44712412  1
  N  N6  1  0.00020044  0.75220645  0.94712412  1
  N  N7  1  0.99979956  0.24779355  0.05287588  1
  N  N8  1  0.98839431  0.18543430  0.45508927  1
  N  N9  1  0.01160569  0.81456570  0.54491073  1
  N  N10  1  0.23034503  0.53330504  0.04491073  1
  N  N11  1  0.76965497  0.46669496  0.95508927  1
  N  N12  1  0.50562698  0.70585209  0.03927336  1
  N  N13  1  0.49437302  0.29414791  0.96072664  1
  N  N14  1  0.16657874  0.46635362  0.46072664  1
  N  N15  1  0.83342126  0.53364638  0.53927336  1
  N  N16  1  0.43582585  0.24793375  0.06104252  1
  N  N17  1  0.56417415  0.75206625  0.93895748  1
  N  N18  1  0.68689123  0.37478333  0.43895748  1
  N  N19  1  0.31310877  0.62521667  0.56104252  1
  N  N20  1  0.95157665  0.20444282  0.15880229  1
  N  N21  1  0.04842335  0.79555718  0.84119771  1
  N  N22  1  0.54564053  0.79277436  0.34119771  1
  N  N23  1  0.45435947  0.20722564  0.65880229  1
  N  N24  1  0.79873581  0.76019620  0.05048708  1
  N  N25  1  0.20126419  0.23980380  0.94951292  1
  N  N26  1  0.20970913  0.74824874  0.44951292  1
  N  N27  1  0.79029087  0.25175126  0.55048708  1
  N  N28  1  0.81216324  0.19889606  0.05763159  1
  N  N29  1  0.18783676  0.80110394  0.94236841  1
  N  N30  1  0.64126447  0.75453164  0.44236841  1
  N  N31  1  0.35873553  0.24546836  0.55763159  1
  N  N32  1  0.77001693  0.16470382  0.16418932  1
  N  N33  1  0.22998307  0.83529618  0.83581068  1
  N  N34  1  0.50051449  0.60582761  0.33581068  1
  N  N35  1  0.49948551  0.39417239  0.66418932  1
  N  N36  1  0.33329973  0.81673249  0.04437536  1
  N  N37  1  0.66670027  0.18326751  0.95562464  1
  N  N38  1  0.27235713  0.28892437  0.45562464  1
  N  N39  1  0.72764287  0.71107563  0.54437536  1
  N  N40  1  0.21413721  0.09338474  0.45329457  1
  N  N41  1  0.78586279  0.90661526  0.54670543  1
  N  N42  1  0.14009017  0.76084265  0.04670543  1
  N  N43  1  0.85990983  0.23915735  0.95329457  1
  N  N44  1  0.28716508  0.05655010  0.05190991  1
  N  N45  1  0.71283492  0.94344990  0.94809009  1
  N  N46  1  0.50464019  0.23525517  0.44809009  1
  N  N47  1  0.49535981  0.76474483  0.55190991  1
  N  N48  1  0.98351802  0.83399748  0.33680402  1
  N  N49  1  0.01648198  0.16600252  0.66319598  1
  N  N50  1  0.99719347  0.64671401  0.16319598  1
  N  N51  1  0.00280653  0.35328599  0.83680402  1
  N  N52  1  0.06818477  0.79908808  0.44375390  1
  N  N53  1  0.93181523  0.20091192  0.55624610  1
  N  N54  1  0.85533417  0.62443087  0.05624610  1
  N  N55  1  0.14466583  0.37556913  0.94375390  1
  N  N56  1  0.29276155  0.39919770  0.04780632  1
  N  N57  1  0.70723845  0.60080230  0.95219368  1
  N  N58  1  0.85139138  0.24495524  0.45219368  1
  N  N59  1  0.14860862  0.75504476  0.54780632  1
  N  N60  1  0.13454765  0.79997601  0.34526751  1
  N  N61  1  0.86545235  0.20002399  0.65473249  1
  N  N62  1  0.95470851  0.78928015  0.15473249  1
  N  N63  1  0.04529149  0.21071985  0.84526751  1
  N  N64  1  0.92067582  0.84160480  0.43840717  1
  N  N65  1  0.07932418  0.15839520  0.56159283  1
  N  N66  1  0.90319763  0.48226865  0.06159283  1
  N  N67  1  0.09680237  0.51773135  0.93840717  1
  N  N68  1  0.64775367  0.90155323  0.04493488  1
  N  N69  1  0.35224633  0.09844677  0.95506512  1
  N  N70  1  0.35661835  0.60281879  0.45506512  1
  N  N71  1  0.64338165  0.39718121  0.54493488  1
  N  N72  1  0.62629501  0.15765036  0.06183150  1
  N  N73  1  0.37370499  0.84234964  0.93816850  1
  N  N74  1  0.59581886  0.56446351  0.43816850  1
  N  N75  1  0.40418114  0.43553649  0.56183150  1
  N  N76  1  0.58834320  0.43720569  0.06907662  1
  N  N77  1  0.41165680  0.56279431  0.93092338  1
  N  N78  1  0.86812907  0.51926658  0.43092338  1
  N  N79  1  0.13187093  0.48073342  0.56907662  1
  N  N80  1  0.36978936  0.20791196  0.15959794  1
  N  N81  1  0.63021064  0.79208804  0.84040206  1
  N  N82  1  0.54831402  0.21019142  0.34040206  1
  N  N83  1  0.45168598  0.78980858  0.65959794  1
  Cl  Cl0  1  0.20037246  0.00505832  0.15374522  1
  Cl  Cl1  1  0.79962754  0.99494168  0.84625478  1
  Cl  Cl2  1  0.35131310  0.04662724  0.34625478  1
  Cl  Cl3  1  0.64868690  0.95337276  0.65374522  1
  Cl  Cl4  1  0.81691602  0.87435775  0.32196718  1
  Cl  Cl5  1  0.18308398  0.12564225  0.67803282  1
  Cl  Cl6  1  0.05239058  0.49494884  0.17803282  1
  Cl  Cl7  1  0.94760942  0.50505116  0.82196718  1
  Cl  Cl8  1  0.89202452  0.21364566  0.33456600  1
  Cl  Cl9  1  0.10797548  0.78635434  0.66543400  1
  Cl  Cl10  1  0.37907966  0.55745852  0.16543400  1
  Cl  Cl11  1  0.62092034  0.44254148  0.83456600  1
  Cl  Cl12  1  0.59339429  0.99789981  0.33992339  1
  Cl  Cl13  1  0.40660571  0.00210019  0.66007661  1
  Cl  Cl14  1  0.15797642  0.25347090  0.16007661  1
  Cl  Cl15  1  0.84202358  0.74652910  0.83992339  1
  Cl  Cl16  1  0.57256158  0.12220607  0.17683139  1
  Cl  Cl17  1  0.42743842  0.87779393  0.82316861  1
  Cl  Cl18  1  0.44537468  0.39573020  0.32316861  1
  Cl  Cl19  1  0.55462532  0.60426980  0.67683139  1
  Cl  Cl20  1  0.12483466  0.13228020  0.33551663  1
  Cl  Cl21  1  0.87516534  0.86771980  0.66448337  1
  Cl  Cl22  1  0.29676357  0.78931803  0.16448337  1
  Cl  Cl23  1  0.70323643  0.21068197  0.83551663  1
  Cl  Cl24  1  0.69733886  0.60086428  0.18778847  1
  Cl  Cl25  1  0.30266114  0.39913572  0.81221153  1
  Cl  Cl26  1  0.91307581  0.50955039  0.31221153  1
  Cl  Cl27  1  0.08692419  0.49044961  0.68778847  1
  Cl  Cl28  1  0.59820543  0.85971900  0.16015403  1
  Cl  Cl29  1  0.40179457  0.14028100  0.83984597  1
  Cl  Cl30  1  0.19956497  0.43805139  0.33984597  1
  Cl  Cl31  1  0.80043503  0.56194861  0.66015403  1
  Cl  Cl32  1  0.90731900  0.94804742  0.15307790  1
  Cl  Cl33  1  0.09268100  0.05195258  0.84692210  1
  Cl  Cl34  1  0.29496952  0.75424110  0.34692210  1
  Cl  Cl35  1  0.70503048  0.24575890  0.65307790  1
loop_
_geom_bond_atom_site_label_1
_geom_bond_atom_site_label_2
_geom_bond_distance
_geom_bond_site_symmetry_2
C0 N4 1.331953 1_555
C0 N23 1.332169 1_555
C0 Cl13 1.718310 1_555
C1 N5 1.331953 1_555
C1 N22 1.332169 1_555
C1 Cl12 1.718310 1_555
C2 N6 1.331953 1_655
C2 N21 1.332169 1_655
C2 Cl15 1.718310 1_555
C3 N7 1.331953 1_455
C3 N20 1.332169 1_455
C3 Cl14 1.718310 1_555
C4 N0 1.327343 1_555
C4 N76 1.331698 1_555
C4 Cl24 1.727069 1_555
C5 N1 1.327343 1_555
C5 N77 1.331698 1_555
C5 Cl25 1.727069 1_555
C6 N2 1.327343 1_555
C6 N78 1.331698 1_555
C6 Cl26 1.727069 1_555
C7 N3 1.327343 1_555
C7 N79 1.331698 1_555
C7 Cl27 1.727069 1_555
C8 N37 1.331882 1_554
C8 N72 1.343291 1_555
C8 N28 1.403042 1_555
C9 N36 1.331882 1_556
C9 N73 1.343291 1_555
C9 N29 1.403042 1_555
C10 N39 1.331882 1_555
C10 N74 1.343291 1_555
C10 N30 1.403042 1_555
C11 N38 1.331882 1_555
C11 N75 1.343291 1_555
C11 N31 1.403042 1_555
C12 N48 1.326654 1_555
C12 N64 1.330230 1_555
C12 Cl4 1.729406 1_555
C13 N49 1.326654 1_555
C13 N65 1.330230 1_555
C13 Cl5 1.729406 1_555
C14 N50 1.326654 1_555
C14 N66 1.330230 1_555
C14 Cl6 1.729406 1_655
C15 N51 1.326654 1_555
C15 N67 1.330230 1_555
C15 Cl7 1.729406 1_455
C16 N8 1.335514 1_555
C16 N58 1.335980 1_555
C16 Cl8 1.707529 1_555
C17 N9 1.335514 1_555
C17 N59 1.335980 1_555
C17 Cl9 1.707529 1_555
C18 N10 1.335514 1_555
C18 N56 1.335980 1_555
C18 Cl10 1.707529 1_555
C19 N11 1.335514 1_555
C19 N57 1.335980 1_555
C19 Cl11 1.707529 1_555
C20 N32 1.334458 1_555
C20 N20 1.338641 1_555
C20 N28 1.399250 1_555
C21 N33 1.334458 1_555
C21 N21 1.338641 1_555
C21 N29 1.399250 1_555
C22 N34 1.334458 1_555
C22 N22 1.338641 1_555
C22 N30 1.399251 1_555
C23 N35 1.334458 1_555
C23 N23 1.338641 1_555
C23 N31 1.399251 1_555
C24 N40 1.332306 1_555
C24 N4 1.343627 1_555
C24 N31 1.401375 1_555
C25 N41 1.332306 1_555
C25 N5 1.343627 1_555
C25 N30 1.401375 1_555
C26 N42 1.332306 1_556
C26 N6 1.343627 1_555
C26 N29 1.401375 1_555
C27 N43 1.332306 1_554
C27 N7 1.343627 1_555
C27 N28 1.401375 1_555
C28 N12 1.332095 1_555
C28 N68 1.333967 1_555
C28 Cl28 1.712222 1_555
C29 N13 1.332095 1_555
C29 N69 1.333967 1_555
C29 Cl29 1.712222 1_555
C30 N14 1.332095 1_555
C30 N70 1.333967 1_555
C30 Cl30 1.712222 1_555
C31 N15 1.332095 1_555
C31 N71 1.333967 1_555
C31 Cl31 1.712222 1_555
C32 N69 1.334464 1_554
C32 N44 1.342487 1_555
C32 N16 1.400161 1_555
C33 N68 1.334464 1_556
C33 N45 1.342487 1_555
C33 N17 1.400161 1_555
C34 N71 1.334464 1_555
C34 N46 1.342487 1_555
C34 N18 1.400161 1_555
C35 N70 1.334464 1_555
C35 N47 1.342487 1_555
C35 N19 1.400161 1_555
C36 N62 1.330845 1_555
C36 N24 1.332667 1_555
C36 Cl32 1.720599 1_555
C37 N63 1.330845 1_555
C37 N25 1.332667 1_555
C37 Cl33 1.720599 1_555
C38 N60 1.330845 1_555
C38 N26 1.332667 1_555
C38 Cl34 1.720599 1_555
C39 N61 1.330845 1_555
C39 N27 1.332667 1_555
C39 Cl35 1.720599 1_555
C40 N59 1.333151 1_555
C40 N26 1.343229 1_555
C40 N52 1.401917 1_555
C41 N58 1.333151 1_555
C41 N27 1.343229 1_555
C41 N53 1.401917 1_555
C42 N57 1.333151 1_554
C42 N24 1.343229 1_555
C42 N54 1.401917 1_555
C43 N56 1.333151 1_556
C43 N25 1.343229 1_555
C43 N55 1.401917 1_555
C44 N0 1.335828 1_555
C44 N80 1.338579 1_555
C44 N16 1.400663 1_555
C45 N1 1.335828 1_555
C45 N81 1.338579 1_555
C45 N17 1.400663 1_555
C46 N2 1.335828 1_555
C46 N82 1.338579 1_555
C46 N18 1.400663 1_555
C47 N3 1.335828 1_555
C47 N83 1.338579 1_555
C47 N19 1.400663 1_555
C48 N9 1.329816 1_655
C48 N64 1.346613 1_555
C48 N52 1.402171 1_655
C49 N8 1.329816 1_455
C49 N65 1.346613 1_555
C49 N53 1.402171 1_455
C50 N11 1.329816 1_554
C50 N66 1.346613 1_555
C50 N54 1.402171 1_555
C51 N10 1.329816 1_556
C51 N67 1.346613 1_555
C51 N55 1.402171 1_555
C52 N32 1.332068 1_555
C52 N72 1.332330 1_555
C52 Cl16 1.717570 1_555
C53 N33 1.332068 1_555
C53 N73 1.332330 1_555
C53 Cl17 1.717570 1_555
C54 N34 1.332069 1_555
C54 N74 1.332330 1_555
C54 Cl18 1.717570 1_555
C55 N35 1.332069 1_555
C55 N75 1.332330 1_555
C55 Cl19 1.717570 1_555
C56 N38 1.332509 1_555
C56 N40 1.336171 1_555
C56 Cl20 1.709068 1_555
C57 N39 1.332509 1_555
C57 N41 1.336171 1_555
C57 Cl21 1.709068 1_555
C58 N36 1.332509 1_555
C58 N42 1.336171 1_555
C58 Cl22 1.709068 1_555
C59 N37 1.332509 1_555
C59 N43 1.336171 1_555
C59 Cl23 1.709068 1_555
C60 N13 1.333392 1_554
C60 N76 1.343411 1_555
C60 N16 1.402359 1_555
C61 N12 1.333392 1_556
C61 N77 1.343411 1_555
C61 N17 1.402359 1_555
C62 N15 1.333392 1_555
C62 N78 1.343411 1_555
C62 N18 1.402359 1_555
C63 N14 1.333392 1_555
C63 N79 1.343411 1_555
C63 N19 1.402359 1_555
C64 N80 1.332021 1_555
C64 N44 1.334001 1_555
C64 Cl0 1.715131 1_555
C65 N81 1.332021 1_555
C65 N45 1.334001 1_555
C65 Cl1 1.715131 1_555
C66 N82 1.332021 1_555
C66 N46 1.334001 1_555
C66 Cl2 1.715131 1_555
C67 N83 1.332021 1_555
C67 N47 1.334001 1_555
C67 Cl3 1.715131 1_555
C68 N60 1.334718 1_555
C68 N48 1.338129 1_455
C68 N52 1.400880 1_555
C69 N61 1.334718 1_555
C69 N49 1.338129 1_655
C69 N53 1.400880 1_555
C70 N62 1.334718 1_555
C70 N50 1.338129 1_555
C70 N54 1.400880 1_555
C71 N63 1.334718 1_555
C71 N51 1.338129 1_555
C71 N55 1.400880 1_555
