# generated using pymatgen
data_MgMn6O5F7
_symmetry_space_group_name_H-M   'P 1'
_cell_length_a   6.62131857
_cell_length_b   6.26350170
_cell_length_c   6.26533990
_cell_angle_alpha   63.09599230
_cell_angle_beta   79.71748781
_cell_angle_gamma   79.71357661
_symmetry_Int_Tables_number   1
_chemical_formula_structural   MgMn6O5F7
_chemical_formula_sum   'Mg1 Mn6 O5 F7'
_cell_volume   226.57455795
_cell_formula_units_Z   1
loop_
 _symmetry_equiv_pos_site_id
 _symmetry_equiv_pos_as_xyz
  1  'x, y, z'
loop_
 _atom_site_type_symbol
 _atom_site_label
 _atom_site_symmetry_multiplicity
 _atom_site_fract_x
 _atom_site_fract_y
 _atom_site_fract_z
 _atom_site_occupancy
  Mg  Mg0  1  0.83335300  0.41408500  0.91918500  1
  Mn  Mn0  1  0.83339500  0.89257000  0.44073800  1
  Mn  Mn1  1  0.71879000  0.40771000  0.44216800  1
  Mn  Mn2  1  0.33326700  0.67967100  0.65395600  1
  Mn  Mn3  1  0.19339200  0.28597700  0.34833000  1
  Mn  Mn4  1  0.47301700  0.98518700  0.04736200  1
  Mn  Mn5  1  0.94768000  0.89113900  0.92564000  1
  O  O0  1  0.64910000  0.62677900  0.61755900  1
  O  O1  1  0.93615400  0.21200700  0.28921700  1
  O  O2  1  0.73078100  0.04422700  0.12139700  1
  O  O3  1  0.01749200  0.71566400  0.70661500  1
  O  O4  1  0.33327300  0.96885200  0.36488500  1
  F  F0  1  0.65487400  0.05594500  0.70565400  1
  F  F1  1  0.33329100  0.37404400  0.95935300  1
  F  F2  1  0.28244700  0.87728200  0.90078100  1
  F  F3  1  0.38417400  0.43226700  0.45584300  1
  F  F4  1  0.67494000  0.62356000  0.07273400  1
  F  F5  1  0.99177800  0.26055700  0.70961400  1
  F  F6  1  0.01213500  0.62747800  0.27730000  1
loop_
_geom_bond_atom_site_label_1
_geom_bond_atom_site_label_2
_geom_bond_distance
_geom_bond_site_symmetry_2
Mg0 O3 2.189631 1_655
Mg0 O0 2.190594 1_555
Mg0 O2 2.243127 1_556
Mg0 O1 2.245060 1_556
Mn0 O2 1.975325 1_565
Mn0 O1 1.975849 1_565
Mn0 O3 2.015112 1_655
Mn0 O0 2.015364 1_555
Mn1 O0 2.064136 1_555
Mn1 O1 2.105443 1_555
Mn2 O4 1.895293 1_555
Mn2 O3 2.045487 1_555
Mn2 O0 2.045897 1_555
Mn3 O1 1.978694 1_455
Mn3 O4 2.001212 1_545
Mn4 O2 1.981953 1_565
Mn4 O4 2.004182 1_555
Mn5 O3 2.064420 1_655
Mn5 O2 2.104732 1_566
F0 Mn1 2.133237 1_555
F0 Mn4 2.154400 1_546
F0 Mn0 2.367268 1_545
F0 Mn5 2.382370 1_545
F1 Mn2 2.002707 1_555
F1 Mn4 2.292187 1_546
F1 Mn3 2.293821 1_556
F2 Mn4 2.042652 1_556
F2 Mn5 2.182974 1_455
F2 Mn2 2.331185 1_555
F3 Mn3 2.040787 1_555
F3 Mn1 2.182276 1_555
F3 Mn2 2.336754 1_555
F4 Mg0 2.009416 1_554
F4 Mn1 2.130108 1_555
F4 Mn4 2.368916 1_555
F4 Mn5 2.451216 1_554
F5 Mg0 2.009938 1_555
F5 Mn5 2.130035 1_545
F5 Mn3 2.366886 1_655
F5 Mn1 2.452161 1_555
F6 Mn5 2.134219 1_454
F6 Mn3 2.150838 1_555
F6 Mn0 2.368633 1_455
F6 Mn1 2.384584 1_455
