# generated using pymatgen
data_Ba2Fe2O5
_symmetry_space_group_name_H-M   'P 1'
_cell_length_a   7.09392994
_cell_length_b   11.92667178
_cell_length_c   23.79988309
_cell_angle_alpha   90.00000000
_cell_angle_beta   98.20584674
_cell_angle_gamma   90.00000000
_symmetry_Int_Tables_number   1
_chemical_formula_structural   Ba2Fe2O5
_chemical_formula_sum   'Ba28 Fe28 O70'
_cell_volume   1993.01982263
_cell_formula_units_Z   14
loop_
 _symmetry_equiv_pos_site_id
 _symmetry_equiv_pos_as_xyz
  1  'x, y, z'
loop_
 _atom_site_type_symbol
 _atom_site_label
 _atom_site_symmetry_multiplicity
 _atom_site_fract_x
 _atom_site_fract_y
 _atom_site_fract_z
 _atom_site_occupancy
  Ba  Ba0  1  0.55773217  0.85076009  0.61364455  1
  Ba  Ba1  1  0.94226783  0.35076009  0.88635545  1
  Ba  Ba2  1  0.44226783  0.14923991  0.38635545  1
  Ba  Ba3  1  0.05773217  0.64923991  0.11364455  1
  Ba  Ba4  1  0.57931739  0.11289017  0.82883934  1
  Ba  Ba5  1  0.92068261  0.61289017  0.67116066  1
  Ba  Ba6  1  0.42068261  0.88710983  0.17116066  1
  Ba  Ba7  1  0.07931739  0.38710983  0.32883934  1
  Ba  Ba8  1  0.67811976  0.63219419  0.82206422  1
  Ba  Ba9  1  0.82188024  0.13219419  0.67793578  1
  Ba  Ba10  1  0.32188024  0.36780581  0.17793578  1
  Ba  Ba11  1  0.17811976  0.86780581  0.32206422  1
  Ba  Ba12  1  0.21362423  0.13198851  0.53871200  1
  Ba  Ba13  1  0.28637577  0.63198851  0.96128800  1
  Ba  Ba14  1  0.78637577  0.86801149  0.46128800  1
  Ba  Ba15  1  0.71362423  0.36801149  0.03871200  1
  Ba  Ba16  1  0.04386369  0.11628308  0.10049511  1
  Ba  Ba17  1  0.45613631  0.61628308  0.39950489  1
  Ba  Ba18  1  0.95613631  0.88371692  0.89950489  1
  Ba  Ba19  1  0.54386369  0.38371692  0.60049511  1
  Ba  Ba20  1  0.19650979  0.85246329  0.75796694  1
  Ba  Ba21  1  0.30349021  0.35246329  0.74203306  1
  Ba  Ba22  1  0.80349021  0.14753671  0.24203306  1
  Ba  Ba23  1  0.69650979  0.64753671  0.25796694  1
  Ba  Ba24  1  0.18322775  0.60991065  0.53531115  1
  Ba  Ba25  1  0.31677225  0.10991065  0.96468885  1
  Ba  Ba26  1  0.81677225  0.39008935  0.46468885  1
  Ba  Ba27  1  0.68322775  0.89008935  0.03531115  1
  Fe  Fe0  1  0.07850208  0.85118643  0.60249479  1
  Fe  Fe1  1  0.42149792  0.35118643  0.89750521  1
  Fe  Fe2  1  0.92149792  0.14881357  0.39750521  1
  Fe  Fe3  1  0.57850208  0.64881357  0.10249479  1
  Fe  Fe4  1  0.30141939  0.08374678  0.68536670  1
  Fe  Fe5  1  0.19858061  0.58374678  0.81463330  1
  Fe  Fe6  1  0.69858061  0.91625322  0.31463330  1
  Fe  Fe7  1  0.80141939  0.41625322  0.18536670  1
  Fe  Fe8  1  0.69673748  0.89935848  0.76008548  1
  Fe  Fe9  1  0.80326252  0.39935848  0.73991452  1
  Fe  Fe10  1  0.30326252  0.10064152  0.23991452  1
  Fe  Fe11  1  0.19673748  0.60064152  0.26008548  1
  Fe  Fe12  1  0.79750153  0.65247952  0.97163934  1
  Fe  Fe13  1  0.70249847  0.15247952  0.52836066  1
  Fe  Fe14  1  0.20249847  0.34752048  0.02836066  1
  Fe  Fe15  1  0.29750153  0.84752048  0.47163934  1
  Fe  Fe16  1  0.46385328  0.87920151  0.89930816  1
  Fe  Fe17  1  0.03614672  0.37920151  0.60069184  1
  Fe  Fe18  1  0.53614672  0.12079849  0.10069184  1
  Fe  Fe19  1  0.96385328  0.62079849  0.39930816  1
  Fe  Fe20  1  0.40139144  0.60257707  0.67401349  1
  Fe  Fe21  1  0.09860856  0.10257707  0.82598651  1
  Fe  Fe22  1  0.59860856  0.39742293  0.32598651  1
  Fe  Fe23  1  0.90139144  0.89742293  0.17401349  1
  Fe  Fe24  1  0.82156216  0.12269879  0.96482695  1
  Fe  Fe25  1  0.67843784  0.62269879  0.53517305  1
  Fe  Fe26  1  0.17843784  0.87730121  0.03517305  1
  Fe  Fe27  1  0.32156216  0.37730121  0.46482695  1
  O  O0  1  0.50000000  0.50000000  0.50000000  1
  O  O1  1  0.00000000  0.00000000  0.00000000  1
  O  O2  1  0.35459407  0.21354165  0.64804758  1
  O  O3  1  0.14540593  0.71354165  0.85195242  1
  O  O4  1  0.64540593  0.78645835  0.35195242  1
  O  O5  1  0.85459407  0.28645835  0.14804758  1
  O  O6  1  0.79152101  0.77700128  0.72626949  1
  O  O7  1  0.70847899  0.27700128  0.77373051  1
  O  O8  1  0.20847899  0.22299872  0.27373051  1
  O  O9  1  0.29152101  0.72299872  0.22626949  1
  O  O10  1  0.88716981  0.54592677  0.92672497  1
  O  O11  1  0.61283019  0.04592677  0.57327503  1
  O  O12  1  0.11283019  0.45407323  0.07327503  1
  O  O13  1  0.38716981  0.95407323  0.42672497  1
  O  O14  1  0.49738404  0.74770956  0.50237219  1
  O  O15  1  0.00261596  0.24770956  0.99762781  1
  O  O16  1  0.50261596  0.25229044  0.49762781  1
  O  O17  1  0.99738404  0.75229044  0.00237219  1
  O  O18  1  0.63246018  -0.00001278  0.93023433  1
  O  O19  1  0.86753982  0.49998722  0.56976567  1
  O  O20  1  0.36753982  0.00001278  0.06976567  1
  O  O21  1  0.13246018  0.50001278  0.43023433  1
  O  O22  1  0.86443155  0.76088167  0.57690983  1
  O  O23  1  0.63556845  0.26088167  0.92309017  1
  O  O24  1  0.13556845  0.23911833  0.42309017  1
  O  O25  1  0.36443155  0.73911833  0.07690983  1
  O  O26  1  0.55118077  0.62013611  0.61025480  1
  O  O27  1  0.94881923  0.12013611  0.88974520  1
  O  O28  1  0.44881923  0.37986389  0.38974520  1
  O  O29  1  0.05118077  0.87986389  0.11025480  1
  O  O30  1  0.23388685  0.48387869  0.64288282  1
  O  O31  1  0.26611315  0.98387869  0.85711718  1
  O  O32  1  0.76611315  0.51612131  0.35711718  1
  O  O33  1  0.73388685  0.01612131  0.14288282  1
  O  O34  1  0.24285088  0.74612721  0.64676441  1
  O  O35  1  0.25714912  0.24612721  0.85323559  1
  O  O36  1  0.75714912  0.25387279  0.35323559  1
  O  O37  1  0.74285088  0.75387279  0.14676441  1
  O  O38  1  0.60363771  0.50274256  0.71616107  1
  O  O39  1  0.89636229  0.00274256  0.78383893  1
  O  O40  1  0.39636229  0.49725744  0.28383893  1
  O  O41  1  0.10363771  0.99725744  0.21616107  1
  O  O42  1  0.30162721  0.63038586  0.74859814  1
  O  O43  1  0.19837279  0.13038586  0.75140186  1
  O  O44  1  0.69837279  0.36961414  0.25140186  1
  O  O45  1  0.80162721  0.86961414  0.24859814  1
  O  O46  1  0.51923768  0.98891722  0.70944613  1
  O  O47  1  0.98076232  0.48891722  0.79055387  1
  O  O48  1  0.48076232  0.01108278  0.29055387  1
  O  O49  1  0.01923768  0.51108278  0.20944613  1
  O  O50  1  0.09867789  0.98932755  0.64612546  1
  O  O51  1  0.40132211  0.48932755  0.85387454  1
  O  O52  1  0.90132211  0.01067245  0.35387454  1
  O  O53  1  0.59867789  0.51067245  0.14612546  1
  O  O54  1  0.61246629  0.74265484  0.92498930  1
  O  O55  1  0.88753371  0.24265484  0.57501070  1
  O  O56  1  0.38753371  0.25734516  0.07501070  1
  O  O57  1  0.11246629  0.75734516  0.42498930  1
  O  O58  1  0.17770809  0.89624678  0.53553308  1
  O  O59  1  0.32229191  0.39624678  0.96446692  1
  O  O60  1  0.82229191  0.10375322  0.46446692  1
  O  O61  1  0.67770809  0.60375322  0.03553308  1
  O  O62  1  0.57169305  0.85765659  0.82267800  1
  O  O63  1  0.92830695  0.35765659  0.67732200  1
  O  O64  1  0.42830695  0.14234341  0.17732200  1
  O  O65  1  0.07169305  0.64234341  0.32267800  1
  O  O66  1  0.31420706  0.86897778  0.96470303  1
  O  O67  1  0.18579294  0.36897778  0.53529697  1
  O  O68  1  0.68579294  0.13102222  0.03529697  1
  O  O69  1  0.81420706  0.63102222  0.46470303  1
loop_
_geom_bond_atom_site_label_1
_geom_bond_atom_site_label_2
_geom_bond_distance
_geom_bond_site_symmetry_2
Ba0 O11 2.569285 1_565
Ba0 O22 2.681442 1_555
Ba0 O26 2.751957 1_555
Ba0 O34 2.769637 1_555
Ba0 O46 2.857640 1_555
Ba0 O14 2.895433 1_555
Ba0 O6 3.072505 1_555
Ba0 O58 3.096351 1_555
Ba1 O10 2.569285 1_555
Ba1 O23 2.681442 1_555
Ba1 O27 2.751957 1_555
Ba1 O35 2.769637 1_655
Ba1 O47 2.857640 1_555
Ba1 O15 2.895433 1_655
Ba1 O7 3.072505 1_555
Ba1 O59 3.096351 1_655
Ba2 O13 2.569285 1_545
Ba2 O24 2.681442 1_555
Ba2 O28 2.751957 1_555
Ba2 O36 2.769637 1_555
Ba2 O48 2.857640 1_555
Ba2 O16 2.895433 1_555
Ba2 O8 3.072505 1_555
Ba2 O60 3.096351 1_555
Ba3 O12 2.569285 1_555
Ba3 O25 2.681442 1_555
Ba3 O29 2.751957 1_555
Ba3 O37 2.769637 1_455
Ba3 O49 2.857640 1_555
Ba3 O17 2.895433 1_455
Ba3 O9 3.072505 1_555
Ba3 O61 3.096351 1_455
Ba4 O7 2.594969 1_555
Ba4 O18 2.742101 1_555
Ba4 O27 2.809775 1_555
Ba4 O23 2.837404 1_555
Ba4 O31 2.860758 1_545
Ba4 O35 2.909351 1_555
Ba4 O39 2.935793 1_555
Ba4 O62 3.047726 1_545
Ba4 O43 3.053096 1_555
Ba4 O46 3.177503 1_545
Ba5 O6 2.594969 1_555
Ba5 O19 2.742101 1_555
Ba5 O26 2.809775 1_555
Ba5 O22 2.837404 1_555
Ba5 O30 2.860758 1_655
Ba5 O34 2.909351 1_655
Ba5 O38 2.935793 1_555
Ba5 O63 3.047726 1_555
Ba5 O42 3.053096 1_655
Ba5 O47 3.177503 1_555
Ba6 O9 2.594969 1_555
Ba6 O20 2.742101 1_565
Ba6 O29 2.809775 1_555
Ba6 O25 2.837404 1_555
Ba6 O33 2.860758 1_565
Ba6 O37 2.909351 1_555
Ba6 O41 2.935793 1_555
Ba6 O64 3.047726 1_565
Ba6 O45 3.053096 1_555
Ba6 O48 3.177503 1_565
Ba7 O8 2.594969 1_555
Ba7 O21 2.742101 1_555
Ba7 O28 2.809775 1_555
Ba7 O24 2.837404 1_555
Ba7 O32 2.860758 1_455
Ba7 O36 2.909351 1_455
Ba7 O40 2.935793 1_555
Ba7 O65 3.047726 1_555
Ba7 O44 3.053096 1_455
Ba7 O49 3.177503 1_555
Ba8 O51 2.785058 1_555
Ba8 O62 2.793594 1_555
Ba8 O54 2.877285 1_555
Ba8 O10 2.899658 1_555
Ba8 O47 2.924272 1_555
Ba8 O38 2.938632 1_555
Ba8 O42 2.976212 1_555
Ba8 O6 3.058012 1_555
Ba8 O3 3.429681 1_655
Ba9 O50 2.785058 1_645
Ba9 O63 2.793594 1_555
Ba9 O55 2.877285 1_555
Ba9 O11 2.899658 1_555
Ba9 O46 2.924272 1_545
Ba9 O39 2.938632 1_555
Ba9 O43 2.976212 1_655
Ba9 O7 3.058012 1_555
Ba9 O2 3.429681 1_555
Ba10 O53 2.785058 1_555
Ba10 O64 2.793594 1_555
Ba10 O56 2.877285 1_555
Ba10 O12 2.899658 1_555
Ba10 O49 2.924272 1_555
Ba10 O40 2.938632 1_555
Ba10 O44 2.976212 1_555
Ba10 O8 3.058012 1_555
Ba10 O5 3.429681 1_455
Ba11 O52 2.785058 1_465
Ba11 O65 2.793594 1_555
Ba11 O57 2.877285 1_555
Ba11 O13 2.899658 1_555
Ba11 O48 2.924272 1_565
Ba11 O41 2.938632 1_555
Ba11 O45 2.976212 1_455
Ba11 O9 3.058012 1_555
Ba11 O4 3.429681 1_555
Ba12 O16 2.791026 1_555
Ba12 O58 2.823174 1_545
Ba12 O2 2.823932 1_555
Ba12 O67 2.833738 1_555
Ba12 O55 2.900014 1_455
Ba12 O24 3.012722 1_555
Ba12 O11 3.014152 1_555
Ba12 O60 3.089033 1_455
Ba12 O50 3.269602 1_545
Ba13 O17 2.791026 1_456
Ba13 O59 2.823174 1_555
Ba13 O3 2.823932 1_555
Ba13 O66 2.833738 1_555
Ba13 O54 2.900014 1_555
Ba13 O25 3.012722 1_556
Ba13 O10 3.014152 1_455
Ba13 O61 3.089033 1_556
Ba13 O51 3.269602 1_555
Ba14 O14 2.791026 1_555
Ba14 O60 2.823174 1_565
Ba14 O4 2.823932 1_555
Ba14 O69 2.833738 1_555
Ba14 O57 2.900014 1_655
Ba14 O22 3.012722 1_555
Ba14 O13 3.014152 1_555
Ba14 O58 3.089033 1_655
Ba14 O52 3.269602 1_565
Ba15 O15 2.791026 1_654
Ba15 O61 2.823174 1_555
Ba15 O5 2.823932 1_555
Ba15 O68 2.833738 1_555
Ba15 O56 2.900014 1_555
Ba15 O23 3.012722 1_554
Ba15 O12 3.014152 1_655
Ba15 O59 3.089033 1_554
Ba15 O53 3.269602 1_555
Ba16 O1 2.743785 1_555
Ba16 O5 2.763465 1_455
Ba16 O68 2.786719 1_455
Ba16 O33 2.813083 1_455
Ba16 O29 2.829113 1_545
Ba16 O20 2.865219 1_555
Ba16 O15 2.886511 1_554
Ba16 O41 3.072443 1_545
Ba16 O64 3.074756 1_555
Ba16 O56 3.092597 1_555
Ba17 O0 2.743785 1_555
Ba17 O4 2.763465 1_555
Ba17 O69 2.786719 1_555
Ba17 O32 2.813083 1_555
Ba17 O28 2.829113 1_555
Ba17 O21 2.865219 1_555
Ba17 O14 2.886511 1_555
Ba17 O40 3.072443 1_555
Ba17 O65 3.074756 1_555
Ba17 O57 3.092597 1_555
Ba18 O1 2.743785 1_666
Ba18 O3 2.763465 1_655
Ba18 O66 2.786719 1_655
Ba18 O31 2.813083 1_655
Ba18 O27 2.829113 1_565
Ba18 O18 2.865219 1_565
Ba18 O17 2.886511 1_556
Ba18 O39 3.072443 1_565
Ba18 O62 3.074756 1_555
Ba18 O54 3.092597 1_555
Ba19 O0 2.743785 1_555
Ba19 O2 2.763465 1_555
Ba19 O67 2.786719 1_555
Ba19 O30 2.813083 1_555
Ba19 O26 2.829113 1_555
Ba19 O19 2.865219 1_555
Ba19 O16 2.886511 1_555
Ba19 O38 3.072443 1_555
Ba19 O63 3.074756 1_555
Ba19 O55 3.092597 1_555
Ba20 O42 2.769217 1_555
Ba20 O31 2.817137 1_555
Ba20 O3 2.848088 1_555
Ba20 O62 2.879129 1_555
Ba20 O39 2.915383 1_465
Ba20 O34 2.994893 1_555
Ba20 O6 3.002391 1_455
Ba20 O50 3.115138 1_555
Ba20 O46 3.158828 1_555
Ba20 O43 3.318487 1_565
Ba21 O43 2.769217 1_555
Ba21 O30 2.817137 1_555
Ba21 O2 2.848088 1_555
Ba21 O63 2.879129 1_455
Ba21 O38 2.915383 1_555
Ba21 O35 2.994893 1_555
Ba21 O7 3.002391 1_555
Ba21 O51 3.115138 1_555
Ba21 O47 3.158828 1_455
Ba21 O42 3.318487 1_555
Ba22 O44 2.769217 1_555
Ba22 O33 2.817137 1_555
Ba22 O5 2.848088 1_555
Ba22 O64 2.879129 1_555
Ba22 O41 2.915383 1_645
Ba22 O36 2.994893 1_555
Ba22 O8 3.002391 1_655
Ba22 O52 3.115138 1_555
Ba22 O48 3.158828 1_555
Ba22 O45 3.318487 1_545
Ba23 O45 2.769217 1_555
Ba23 O32 2.817137 1_555
Ba23 O4 2.848088 1_555
Ba23 O65 2.879129 1_655
Ba23 O40 2.915383 1_555
Ba23 O37 2.994893 1_555
Ba23 O9 3.002391 1_555
Ba23 O53 3.115138 1_555
Ba23 O49 3.158828 1_655
Ba23 O44 3.318487 1_555
Ba24 O21 2.800832 1_555
Ba24 O19 2.816138 1_455
Ba24 O0 2.830808 1_555
Ba24 O67 2.873585 1_555
Ba24 O69 2.912816 1_455
Ba24 O30 2.946274 1_555
Ba24 O26 2.946281 1_555
Ba24 O14 2.963275 1_555
Ba24 O34 3.087740 1_555
Ba24 O57 3.140341 1_555
Ba24 O22 3.158463 1_455
Ba25 O20 2.800832 1_556
Ba25 O18 2.816138 1_555
Ba25 O1 2.830808 1_556
Ba25 O66 2.873585 1_545
Ba25 O68 2.912816 1_556
Ba25 O31 2.946274 1_545
Ba25 O27 2.946281 1_455
Ba25 O15 2.963275 1_555
Ba25 O35 3.087740 1_555
Ba25 O56 3.140341 1_556
Ba25 O23 3.158463 1_555
Ba26 O19 2.800832 1_555
Ba26 O21 2.816138 1_655
Ba26 O0 2.830808 1_555
Ba26 O69 2.873585 1_555
Ba26 O67 2.912816 1_655
Ba26 O32 2.946274 1_555
Ba26 O28 2.946281 1_555
Ba26 O16 2.963275 1_555
Ba26 O36 3.087740 1_555
Ba26 O55 3.140341 1_555
Ba26 O24 3.158463 1_655
Ba27 O18 2.800832 1_564
Ba27 O20 2.816138 1_565
Ba27 O1 2.830808 1_665
Ba27 O68 2.873585 1_565
Ba27 O66 2.912816 1_554
Ba27 O33 2.946274 1_565
Ba27 O29 2.946281 1_655
Ba27 O17 2.963275 1_555
Ba27 O37 3.087740 1_555
Ba27 O54 3.140341 1_554
Ba27 O25 3.158463 1_555
Fe0 O22 1.890230 1_455
Fe0 O58 1.908948 1_555
Fe0 O34 1.920610 1_555
Fe0 O50 1.941857 1_555
Fe1 O23 1.890230 1_555
Fe1 O59 1.908948 1_555
Fe1 O35 1.920610 1_555
Fe1 O51 1.941857 1_555
Fe2 O24 1.890230 1_655
Fe2 O60 1.908948 1_555
Fe2 O36 1.920610 1_555
Fe2 O52 1.941857 1_555
Fe3 O25 1.890230 1_555
Fe3 O61 1.908948 1_555
Fe3 O37 1.920610 1_555
Fe3 O53 1.941857 1_555
Fe4 O2 1.850185 1_555
Fe4 O43 1.908339 1_555
Fe4 O46 1.934532 1_545
Fe4 O50 1.955872 1_545
Fe5 O3 1.850185 1_555
Fe5 O42 1.908339 1_555
Fe5 O47 1.934532 1_455
Fe5 O51 1.955872 1_555
Fe6 O4 1.850185 1_555
Fe6 O45 1.908339 1_555
Fe6 O48 1.934532 1_565
Fe6 O52 1.955872 1_565
Fe7 O5 1.850185 1_555
Fe7 O44 1.908339 1_555
Fe7 O49 1.934532 1_655
Fe7 O53 1.955872 1_555
Fe8 O6 1.839540 1_555
Fe8 O39 1.901797 1_565
Fe8 O62 1.905426 1_555
Fe8 O46 1.935396 1_555
Fe9 O7 1.839540 1_555
Fe9 O38 1.901797 1_555
Fe9 O63 1.905426 1_555
Fe9 O47 1.935396 1_555
Fe10 O8 1.839540 1_555
Fe10 O41 1.901797 1_545
Fe10 O64 1.905426 1_555
Fe10 O48 1.935396 1_555
Fe11 O9 1.839540 1_555
Fe11 O40 1.901797 1_555
Fe11 O65 1.905426 1_555
Fe11 O49 1.935396 1_555
Fe12 O10 1.832042 1_555
Fe12 O17 1.914839 1_556
Fe12 O54 1.922587 1_555
Fe12 O61 1.934220 1_556
Fe13 O11 1.832042 1_555
Fe13 O16 1.914839 1_555
Fe13 O55 1.922587 1_555
Fe13 O60 1.934220 1_555
Fe14 O12 1.832042 1_555
Fe14 O15 1.914839 1_554
Fe14 O56 1.922587 1_555
Fe14 O59 1.934220 1_554
Fe15 O13 1.832042 1_555
Fe15 O14 1.914839 1_555
Fe15 O57 1.922587 1_555
Fe15 O58 1.934220 1_555
Fe16 O18 1.948413 1_565
Fe16 O54 1.988277 1_555
Fe16 O66 2.008934 1_555
Fe16 O31 2.032870 1_555
Fe16 O62 2.091829 1_555
Fe17 O19 1.948413 1_455
Fe17 O55 1.988277 1_455
Fe17 O67 2.008934 1_555
Fe17 O30 2.032870 1_555
Fe17 O63 2.091829 1_455
Fe18 O20 1.948413 1_555
Fe18 O56 1.988277 1_555
Fe18 O68 2.008934 1_555
Fe18 O33 2.032870 1_555
Fe18 O64 2.091829 1_555
Fe19 O21 1.948413 1_655
Fe19 O57 1.988277 1_655
Fe19 O69 2.008934 1_555
Fe19 O32 2.032870 1_555
Fe19 O65 2.091829 1_655
Fe20 O30 1.927107 1_555
Fe20 O26 1.983911 1_555
Fe20 O38 2.017814 1_555
Fe20 O42 2.029899 1_555
Fe20 O34 2.099636 1_555
Fe21 O31 1.927107 1_545
Fe21 O27 1.983911 1_455
Fe21 O39 2.017814 1_455
Fe21 O43 2.029899 1_555
Fe21 O35 2.099636 1_555
Fe22 O32 1.927107 1_555
Fe22 O28 1.983911 1_555
Fe22 O40 2.017814 1_555
Fe22 O44 2.029899 1_555
Fe22 O36 2.099636 1_555
Fe23 O33 1.927107 1_565
Fe23 O29 1.983911 1_655
Fe23 O41 2.017814 1_655
Fe23 O45 2.029899 1_555
Fe23 O37 2.099636 1_555
Fe24 O1 2.035214 1_656
Fe24 O15 2.048369 1_655
Fe24 O68 2.052202 1_556
Fe24 O18 2.074623 1_555
Fe24 O27 2.114127 1_555
Fe24 O23 2.251570 1_555
Fe25 O0 2.035214 1_555
Fe25 O14 2.048369 1_555
Fe25 O69 2.052202 1_555
Fe25 O19 2.074623 1_555
Fe25 O26 2.114127 1_555
Fe25 O22 2.251570 1_555
Fe26 O1 2.035214 1_565
Fe26 O17 2.048369 1_455
Fe26 O66 2.052202 1_554
Fe26 O20 2.074623 1_565
Fe26 O29 2.114127 1_555
Fe26 O25 2.251570 1_555
Fe27 O0 2.035214 1_555
Fe27 O16 2.048369 1_555
Fe27 O67 2.052202 1_555
Fe27 O21 2.074623 1_555
Fe27 O28 2.114127 1_555
Fe27 O24 2.251570 1_555
