# generated using pymatgen
data_CdCuN
_symmetry_space_group_name_H-M   'P 1'
_cell_length_a   3.97478600
_cell_length_b   3.97501667
_cell_length_c   3.68738600
_cell_angle_alpha   90.00000000
_cell_angle_beta   90.00000000
_cell_angle_gamma   119.99808042
_symmetry_Int_Tables_number   1
_chemical_formula_structural   CdCuN
_chemical_formula_sum   'Cd1 Cu1 N1'
_cell_volume   50.45571209
_cell_formula_units_Z   1
loop_
 _symmetry_equiv_pos_site_id
 _symmetry_equiv_pos_as_xyz
  1  'x, y, z'
loop_
 _atom_site_type_symbol
 _atom_site_label
 _atom_site_symmetry_multiplicity
 _atom_site_fract_x
 _atom_site_fract_y
 _atom_site_fract_z
 _atom_site_occupancy
  Cd  Cd0  1  0.00001000  0.00002100  0.50000000  1
  Cu  Cu0  1  0.66669400  0.33338900  0.00000000  1
  N  N0  1  0.66669500  0.33339100  0.50000000  1
loop_
_geom_bond_atom_site_label_1
_geom_bond_atom_site_label_2
_geom_bond_distance
_geom_bond_site_symmetry_2
Cd0 N0 2.294895 1_445
Cd0 N0 2.294951 1_455
Cd0 N0 2.294951 1_555
Cu0 N0 1.843693 1_554
Cu0 N0 1.843693 1_555
