# generated using pymatgen
data_UF3
_symmetry_space_group_name_H-M   'P 1'
_cell_length_a   4.11522146
_cell_length_b   4.11522146
_cell_length_c   4.11522146
_cell_angle_alpha   60.00000000
_cell_angle_beta   60.00000000
_cell_angle_gamma   60.00000000
_symmetry_Int_Tables_number   1
_chemical_formula_structural   UF3
_chemical_formula_sum   'U1 F3'
_cell_volume   49.27931212
_cell_formula_units_Z   1
loop_
 _symmetry_equiv_pos_site_id
 _symmetry_equiv_pos_as_xyz
  1  'x, y, z'
loop_
 _atom_site_type_symbol
 _atom_site_label
 _atom_site_symmetry_multiplicity
 _atom_site_fract_x
 _atom_site_fract_y
 _atom_site_fract_z
 _atom_site_occupancy
  U  U0  1  0.00000000  0.00000000  0.00000000  1
  F  F0  1  0.25000000  0.25000000  0.25000000  1
  F  F1  1  0.75000000  0.75000000  0.75000000  1
  F  F2  1  0.50000000  0.50000000  0.50000000  1
loop_
_geom_bond_atom_site_label_1
_geom_bond_atom_site_label_2
_geom_bond_distance
_geom_bond_site_symmetry_2
F0 U0 2.520048 1_565
F0 U0 2.520048 1_555
F0 U0 2.520048 1_556
F0 U0 2.520048 1_655
F1 U0 2.520048 1_656
F1 U0 2.520048 1_665
F1 U0 2.520048 1_666
F1 U0 2.520048 1_566
F2 U0 2.909901 1_556
F2 U0 2.909901 1_655
F2 U0 2.909901 1_565
F2 U0 2.909901 1_566
F2 U0 2.909901 1_656
F2 U0 2.909901 1_665
