# generated using pymatgen
data_SrEu(CoO3)2
_symmetry_space_group_name_H-M   'P 1'
_cell_length_a   8.61849854
_cell_length_b   8.61849854
_cell_length_c   8.61849854
_cell_angle_alpha   90.00000000
_cell_angle_beta   90.00000000
_cell_angle_gamma   90.00000000
_symmetry_Int_Tables_number   1
_chemical_formula_structural   SrEu(CoO3)2
_chemical_formula_sum   'Sr4 Eu4 Co8 O24'
_cell_volume   640.16929104
_cell_formula_units_Z   4
loop_
 _symmetry_equiv_pos_site_id
 _symmetry_equiv_pos_as_xyz
  1  'x, y, z'
loop_
 _atom_site_type_symbol
 _atom_site_label
 _atom_site_symmetry_multiplicity
 _atom_site_fract_x
 _atom_site_fract_y
 _atom_site_fract_z
 _atom_site_occupancy
  Sr  Sr0  1  0.50000000  -0.00000000  -0.00000000  1
  Sr  Sr1  1  0.00000000  -0.00000000  -0.00000000  1
  Sr  Sr2  1  0.00000000  -0.00000000  0.50000000  1
  Sr  Sr3  1  0.00000000  0.50000000  -0.00000000  1
  Eu  Eu0  1  0.50000000  -0.00000000  0.50000000  1
  Eu  Eu1  1  0.50000000  0.50000000  -0.00000000  1
  Eu  Eu2  1  0.50000000  0.50000000  0.50000000  1
  Eu  Eu3  1  0.00000000  0.50000000  0.50000000  1
  Co  Co0  1  0.24924682  0.75075318  0.75075318  1
  Co  Co1  1  0.24924682  0.75075318  0.24924682  1
  Co  Co2  1  0.24924682  0.24924682  0.75075318  1
  Co  Co3  1  0.24924682  0.24924682  0.24924682  1
  Co  Co4  1  0.75075318  0.75075318  0.75075318  1
  Co  Co5  1  0.75075318  0.75075318  0.24924682  1
  Co  Co6  1  0.75075318  0.24924682  0.75075318  1
  Co  Co7  1  0.75075318  0.24924682  0.24924682  1
  O  O0  1  0.25076784  0.74923216  -0.00000000  1
  O  O1  1  0.25111995  0.74888005  0.50000000  1
  O  O2  1  0.25076784  0.25076784  -0.00000000  1
  O  O3  1  0.25111995  0.25111995  0.50000000  1
  O  O4  1  0.74923216  0.74923216  -0.00000000  1
  O  O5  1  0.74888005  0.74888005  0.50000000  1
  O  O6  1  0.74923216  0.25076784  -0.00000000  1
  O  O7  1  0.74888005  0.25111995  0.50000000  1
  O  O8  1  0.50000000  0.74888005  0.74888005  1
  O  O9  1  0.50000000  0.74888005  0.25111995  1
  O  O10  1  0.50000000  0.25111995  0.74888005  1
  O  O11  1  0.50000000  0.25111995  0.25111995  1
  O  O12  1  0.00000000  0.74923216  0.74923216  1
  O  O13  1  0.00000000  0.74923216  0.25076784  1
  O  O14  1  0.00000000  0.25076784  0.74923216  1
  O  O15  1  0.00000000  0.25076784  0.25076784  1
  O  O16  1  0.25076784  -0.00000000  0.74923216  1
  O  O17  1  0.25076784  -0.00000000  0.25076784  1
  O  O18  1  0.25111995  0.50000000  0.74888005  1
  O  O19  1  0.25111995  0.50000000  0.25111995  1
  O  O20  1  0.74923216  -0.00000000  0.74923216  1
  O  O21  1  0.74923216  -0.00000000  0.25076784  1
  O  O22  1  0.74888005  0.50000000  0.74888005  1
  O  O23  1  0.74888005  0.50000000  0.25111995  1
loop_
_geom_bond_atom_site_label_1
_geom_bond_atom_site_label_2
_geom_bond_distance
_geom_bond_site_symmetry_2
Eu0 O17 3.037741 1_555
Eu0 O21 3.037741 1_555
Eu0 O16 3.037741 1_555
Eu0 O20 3.037741 1_555
Eu0 O7 3.047130 1_555
Eu0 O10 3.047130 1_555
Eu0 O1 3.047130 1_545
Eu0 O5 3.047130 1_545
Eu0 O9 3.047130 1_545
Eu0 O3 3.047130 1_555
Eu0 O8 3.047130 1_545
Eu0 O11 3.047130 1_555
Eu1 O2 3.037741 1_555
Eu1 O6 3.037741 1_555
Eu1 O0 3.037741 1_555
Eu1 O4 3.037741 1_555
Eu1 O18 3.047130 1_554
Eu1 O10 3.047130 1_554
Eu1 O22 3.047130 1_554
Eu1 O19 3.047130 1_555
Eu1 O9 3.047130 1_555
Eu1 O23 3.047130 1_555
Eu1 O8 3.047130 1_554
Eu1 O11 3.047130 1_555
Eu2 O5 3.033449 1_555
Eu2 O7 3.033449 1_555
Eu2 O22 3.033449 1_555
Eu2 O10 3.033449 1_555
Eu2 O19 3.033449 1_555
Eu2 O3 3.033449 1_555
Eu2 O9 3.033449 1_555
Eu2 O23 3.033449 1_555
Eu2 O1 3.033449 1_555
Eu2 O11 3.033449 1_555
Eu2 O18 3.033449 1_555
Eu2 O8 3.033449 1_555
Eu3 O15 3.037741 1_555
Eu3 O14 3.037741 1_555
Eu3 O13 3.037741 1_555
Eu3 O12 3.037741 1_555
Eu3 O5 3.047130 1_455
Eu3 O18 3.047130 1_555
Eu3 O22 3.047130 1_455
Eu3 O19 3.047130 1_555
Eu3 O7 3.047130 1_455
Eu3 O23 3.047130 1_455
Eu3 O3 3.047130 1_555
Eu3 O1 3.047130 1_555
Co0 O12 2.148213 1_555
Co0 O0 2.148213 1_556
Co0 O16 2.148213 1_565
Co0 O1 2.161237 1_555
Co0 O18 2.161237 1_555
Co0 O8 2.161237 1_555
Co1 O0 2.148213 1_555
Co1 O13 2.148213 1_555
Co1 O17 2.148213 1_565
Co1 O19 2.161237 1_555
Co1 O1 2.161237 1_555
Co1 O9 2.161237 1_555
Co2 O14 2.148213 1_555
Co2 O16 2.148213 1_555
Co2 O2 2.148213 1_556
Co2 O10 2.161237 1_555
Co2 O3 2.161237 1_555
Co2 O18 2.161237 1_555
Co3 O15 2.148213 1_555
Co3 O2 2.148213 1_555
Co3 O17 2.148213 1_555
Co3 O19 2.161237 1_555
Co3 O3 2.161237 1_555
Co3 O11 2.161237 1_555
Co4 O12 2.148213 1_655
Co4 O4 2.148213 1_556
Co4 O20 2.148213 1_565
Co4 O22 2.161237 1_555
Co4 O8 2.161237 1_555
Co4 O5 2.161237 1_555
Co5 O21 2.148213 1_565
Co5 O4 2.148213 1_555
Co5 O13 2.148213 1_655
Co5 O23 2.161237 1_555
Co5 O5 2.161237 1_555
Co5 O9 2.161237 1_555
Co6 O6 2.148213 1_556
Co6 O14 2.148213 1_655
Co6 O20 2.148213 1_555
Co6 O10 2.161237 1_555
Co6 O22 2.161237 1_555
Co6 O7 2.161237 1_555
Co7 O6 2.148213 1_555
Co7 O15 2.148213 1_655
Co7 O21 2.148213 1_555
Co7 O23 2.161237 1_555
Co7 O11 2.161237 1_555
Co7 O7 2.161237 1_555
O0 Sr0 3.047114 1_565
O0 Sr3 3.047114 1_555
O0 Sr1 3.056458 1_565
O1 Sr2 3.060750 1_565
O2 Sr3 3.047114 1_555
O2 Sr0 3.047114 1_555
O2 Sr1 3.056458 1_555
O3 Sr2 3.060750 1_555
O4 Sr3 3.047114 1_655
O4 Sr0 3.047114 1_565
O4 Sr1 3.056458 1_665
O5 Sr2 3.060750 1_665
O6 Sr3 3.047114 1_655
O6 Sr0 3.047114 1_555
O6 Sr1 3.056458 1_655
O7 Sr2 3.060750 1_655
O8 Sr0 3.060750 1_566
O9 Sr0 3.060750 1_565
O10 Sr0 3.060750 1_556
O11 Sr0 3.060750 1_555
O12 Sr2 3.047114 1_565
O12 Sr3 3.047114 1_556
O12 Sr1 3.056458 1_566
O13 Sr2 3.047114 1_565
O13 Sr3 3.047114 1_555
O13 Sr1 3.056458 1_565
O14 Sr3 3.047114 1_556
O14 Sr2 3.047114 1_555
O14 Sr1 3.056458 1_556
O15 Sr2 3.047114 1_555
O15 Sr3 3.047114 1_555
O15 Sr1 3.056458 1_555
O16 Sr0 3.047114 1_556
O16 Sr2 3.047114 1_555
O16 Sr1 3.056458 1_556
O17 Sr2 3.047114 1_555
O17 Sr0 3.047114 1_555
O17 Sr1 3.056458 1_555
O18 Sr3 3.060750 1_556
O19 Sr3 3.060750 1_555
O20 Sr2 3.047114 1_655
O20 Sr0 3.047114 1_556
O20 Sr1 3.056458 1_656
O21 Sr2 3.047114 1_655
O21 Sr0 3.047114 1_555
O21 Sr1 3.056458 1_655
O22 Sr3 3.060750 1_656
O23 Sr3 3.060750 1_655
