# generated using pymatgen
data_HoMn2
_symmetry_space_group_name_H-M   'P 1'
_cell_length_a   5.08516777
_cell_length_b   5.08516777
_cell_length_c   8.41416900
_cell_angle_alpha   90.00000000
_cell_angle_beta   90.00000000
_cell_angle_gamma   120.26710081
_symmetry_Int_Tables_number   1
_chemical_formula_structural   HoMn2
_chemical_formula_sum   'Ho4 Mn8'
_cell_volume   187.92183042
_cell_formula_units_Z   4
loop_
 _symmetry_equiv_pos_site_id
 _symmetry_equiv_pos_as_xyz
  1  'x, y, z'
loop_
 _atom_site_type_symbol
 _atom_site_label
 _atom_site_symmetry_multiplicity
 _atom_site_fract_x
 _atom_site_fract_y
 _atom_site_fract_z
 _atom_site_occupancy
  Ho  Ho0  1  0.66660100  0.33339900  0.56297200  1
  Ho  Ho1  1  0.33339900  0.66660100  0.43702800  1
  Ho  Ho2  1  0.33339900  0.66660100  0.06297200  1
  Ho  Ho3  1  0.66660100  0.33339900  0.93702800  1
  Mn  Mn0  1  0.00000000  0.00000000  0.50000000  1
  Mn  Mn1  1  0.00000000  0.00000000  0.00000000  1
  Mn  Mn2  1  0.16865700  0.33699700  0.75000000  1
  Mn  Mn3  1  0.16838700  0.83161300  0.75000000  1
  Mn  Mn4  1  0.66300300  0.83134300  0.75000000  1
  Mn  Mn5  1  0.83134300  0.66300300  0.25000000  1
  Mn  Mn6  1  0.83161300  0.16838700  0.25000000  1
  Mn  Mn7  1  0.33699700  0.16865700  0.25000000  1
loop_
_geom_bond_atom_site_label_1
_geom_bond_atom_site_label_2
_geom_bond_distance
_geom_bond_site_symmetry_2
Ho0 Mn0 2.975290 1_555
Ho0 Mn0 2.975290 1_665
Ho0 Mn3 2.981499 1_655
Ho0 Mn3 2.981499 1_545
Ho0 Mn0 2.987803 1_655
Ho0 Mn4 2.989180 1_555
Ho0 Mn2 2.989180 1_555
Ho0 Mn2 2.991277 1_655
Ho0 Mn4 2.991277 1_545
Ho0 Mn7 3.005068 1_555
Ho0 Mn5 3.005068 1_555
Ho0 Mn6 3.008788 1_555
Ho0 Ho1 3.114435 1_655
Ho0 Ho1 3.114435 1_545
Ho0 Ho1 3.123939 1_555
Ho0 Ho3 3.147370 1_555
Ho1 Mn0 2.975290 1_665
Ho1 Mn0 2.975290 1_555
Ho1 Mn6 2.981499 1_565
Ho1 Mn6 2.981499 1_455
Ho1 Mn0 2.987803 1_565
Ho1 Mn5 2.989180 1_555
Ho1 Mn7 2.989180 1_555
Ho1 Mn7 2.991277 1_565
Ho1 Mn5 2.991277 1_455
Ho1 Mn4 3.005068 1_555
Ho1 Mn2 3.005068 1_555
Ho1 Mn3 3.008788 1_555
Ho1 Ho2 3.147370 1_555
Ho2 Mn1 2.975290 1_665
Ho2 Mn1 2.975290 1_555
Ho2 Mn6 2.981499 1_565
Ho2 Mn6 2.981499 1_455
Ho2 Mn1 2.987803 1_565
Ho2 Mn5 2.989180 1_555
Ho2 Mn7 2.989180 1_555
Ho2 Mn7 2.991277 1_565
Ho2 Mn5 2.991277 1_455
Ho2 Mn4 3.005068 1_554
Ho2 Mn2 3.005068 1_554
Ho2 Mn3 3.008788 1_554
Ho2 Ho3 3.114435 1_454
Ho2 Ho3 3.114435 1_564
Ho2 Ho3 3.123939 1_554
Ho3 Mn1 2.975290 1_666
Ho3 Mn1 2.975290 1_556
Ho3 Mn3 2.981499 1_655
Ho3 Mn3 2.981499 1_545
Ho3 Mn1 2.987803 1_656
Ho3 Mn4 2.989180 1_555
Ho3 Mn2 2.989180 1_555
Ho3 Mn2 2.991277 1_655
Ho3 Mn4 2.991277 1_545
Ho3 Mn7 3.005068 1_556
Ho3 Mn5 3.005068 1_556
Ho3 Mn6 3.008788 1_556
Mn0 Mn7 2.572077 1_555
Mn0 Mn4 2.572077 1_445
Mn0 Mn2 2.572077 1_555
Mn0 Mn5 2.572077 1_445
Mn0 Mn6 2.574962 1_455
Mn0 Mn3 2.574962 1_545
Mn1 Mn2 2.572077 1_554
Mn1 Mn7 2.572077 1_555
Mn1 Mn5 2.572077 1_445
Mn1 Mn4 2.572077 1_444
Mn1 Mn3 2.574962 1_544
Mn1 Mn6 2.574962 1_455
Mn2 Mn4 2.503677 1_555
Mn2 Mn3 2.515898 1_555
Mn2 Mn4 2.560947 1_445
Mn2 Mn3 2.569271 1_545
Mn3 Mn4 2.515898 1_555
Mn3 Mn4 2.569271 1_455
Mn5 Mn7 2.503677 1_555
Mn5 Mn6 2.515898 1_555
Mn5 Mn7 2.560947 1_665
Mn5 Mn6 2.569271 1_565
Mn6 Mn7 2.515898 1_555
Mn6 Mn7 2.569271 1_655
