# generated using pymatgen
data_SnCNCl3
_symmetry_space_group_name_H-M   'P 1'
_cell_length_a   6.42552900
_cell_length_b   7.19000236
_cell_length_c   7.31201877
_cell_angle_alpha   90.04649613
_cell_angle_beta   90.65892213
_cell_angle_gamma   92.45875069
_symmetry_Int_Tables_number   1
_chemical_formula_structural   SnCNCl3
_chemical_formula_sum   'Sn2 C2 N2 Cl6'
_cell_volume   337.47850569
_cell_formula_units_Z   2
loop_
 _symmetry_equiv_pos_site_id
 _symmetry_equiv_pos_as_xyz
  1  'x, y, z'
loop_
 _atom_site_type_symbol
 _atom_site_label
 _atom_site_symmetry_multiplicity
 _atom_site_fract_x
 _atom_site_fract_y
 _atom_site_fract_z
 _atom_site_occupancy
  Sn  Sn0  1  0.59423300  0.49352800  0.99464900  1
  Sn  Sn1  1  0.48096700  0.98432600  0.49471000  1
  C  C0  1  0.06225800  0.95801300  0.05756500  1
  C  C1  1  0.95593700  0.38400400  0.51083700  1
  N  N0  1  0.89731900  0.01770500  0.02628200  1
  N  N1  1  0.95895400  0.54682200  0.50808200  1
  Cl  Cl0  1  0.45670800  0.24943000  0.20665700  1
  Cl  Cl1  1  0.95449400  0.15829300  0.51386800  1
  Cl  Cl2  1  0.95854800  0.49079800  0.98681600  1
  Cl  Cl3  1  0.49072300  0.72644200  0.24075600  1
  Cl  Cl4  1  0.45082300  0.29391700  0.73704500  1
  Cl  Cl5  1  0.49803700  0.77372100  0.78373400  1
loop_
_geom_bond_atom_site_label_1
_geom_bond_atom_site_label_2
_geom_bond_distance
_geom_bond_site_symmetry_2
C0 N0 1.180404 1_465
C1 N1 1.170184 1_555
C1 Cl1 1.622662 1_555
Cl0 Sn0 2.483369 1_554
Cl0 Sn1 2.849254 1_545
Cl2 Sn0 2.343199 1_555
Cl3 Sn0 2.569703 1_554
Cl3 Sn1 2.626240 1_555
Cl4 Sn0 2.509807 1_555
Cl4 Sn1 2.858450 1_545
Cl5 Sn1 2.604869 1_555
Cl5 Sn0 2.628500 1_555
