# generated using pymatgen
data_Ce3Al3Pd2Pt
_symmetry_space_group_name_H-M   'P 1'
_cell_length_a   4.44434699
_cell_length_b   7.21127198
_cell_length_c   23.37502999
_cell_angle_alpha   89.56541544
_cell_angle_beta   90.00000000
_cell_angle_gamma   90.00000000
_symmetry_Int_Tables_number   1
_chemical_formula_structural   Ce3Al3Pd2Pt
_chemical_formula_sum   'Ce12 Al12 Pd8 Pt4'
_cell_volume   749.13401773
_cell_formula_units_Z   4
loop_
 _symmetry_equiv_pos_site_id
 _symmetry_equiv_pos_as_xyz
  1  'x, y, z'
loop_
 _atom_site_type_symbol
 _atom_site_label
 _atom_site_symmetry_multiplicity
 _atom_site_fract_x
 _atom_site_fract_y
 _atom_site_fract_z
 _atom_site_occupancy
  Ce  Ce0  1  0.75000000  0.46953270  0.06026559  1
  Ce  Ce1  1  0.75000000  0.46844786  0.39328039  1
  Ce  Ce2  1  0.75000000  0.46917230  0.72663646  1
  Ce  Ce3  1  0.75000000  0.96856409  0.10669604  1
  Ce  Ce4  1  0.75000000  0.96689218  0.44001195  1
  Ce  Ce5  1  0.75000000  0.96772211  0.77375464  1
  Ce  Ce6  1  0.25000000  0.52803957  0.27436131  1
  Ce  Ce7  1  0.25000000  0.52763288  0.60772554  1
  Ce  Ce8  1  0.25000000  0.52745707  0.94088051  1
  Ce  Ce9  1  0.25000000  0.02858363  0.22603369  1
  Ce  Ce10  1  0.25000000  0.03222100  0.55956328  1
  Ce  Ce11  1  0.25000000  0.03187708  0.89260259  1
  Al  Al0  1  0.75000000  0.35239183  0.19039472  1
  Al  Al1  1  0.75000000  0.34992180  0.52315300  1
  Al  Al2  1  0.75000000  0.34947858  0.85641249  1
  Al  Al3  1  0.75000000  0.85264856  0.30960904  1
  Al  Al4  1  0.75000000  0.85436866  0.64359835  1
  Al  Al5  1  0.75000000  0.85428668  0.97654290  1
  Al  Al6  1  0.25000000  0.64915059  0.14491148  1
  Al  Al7  1  0.25000000  0.64747744  0.47775845  1
  Al  Al8  1  0.25000000  0.64839021  0.81098780  1
  Al  Al9  1  0.25000000  0.14972268  0.02194413  1
  Al  Al10  1  0.25000000  0.14916855  0.35524520  1
  Al  Al11  1  0.25000000  0.14918819  0.68897456  1
  Pd  Pd0  1  0.75000000  0.71325476  0.53700456  1
  Pd  Pd1  1  0.75000000  0.71331929  0.87022388  1
  Pd  Pd2  1  0.25000000  0.78504291  0.03700678  1
  Pd  Pd3  1  0.25000000  0.78471959  0.37027956  1
  Pd  Pd4  1  0.25000000  0.78531792  0.70375797  1
  Pd  Pd5  1  0.25000000  0.28546181  0.12945809  1
  Pd  Pd6  1  0.25000000  0.28534099  0.46264609  1
  Pd  Pd7  1  0.25000000  0.28527377  0.79599237  1
  Pt  Pt0  1  0.75000000  0.21683800  0.29641190  1
  Pt  Pt1  1  0.75000000  0.21821010  0.62943699  1
  Pt  Pt2  1  0.75000000  0.21852939  0.96253560  1
  Pt  Pt3  1  0.75000000  0.71635523  0.20390213  1
loop_
_geom_bond_atom_site_label_1
_geom_bond_atom_site_label_2
_geom_bond_distance
_geom_bond_site_symmetry_2
Ce0 Pt2 2.925353 1_554
Ce0 Pd5 3.046858 1_655
Ce0 Pd5 3.046858 1_555
Ce0 Pd2 3.223592 1_655
Ce0 Pd2 3.223592 1_555
Ce1 Pt0 2.912309 1_555
Ce1 Pd6 3.046004 1_655
Ce1 Pd6 3.046004 1_555
Ce1 Pd3 3.226485 1_655
Ce1 Pd3 3.226485 1_555
Ce2 Pt1 2.915435 1_555
Ce2 Pd7 3.048339 1_555
Ce2 Pd7 3.048339 1_655
Ce2 Pd4 3.225383 1_655
Ce2 Pd4 3.225383 1_555
Ce3 Pt3 2.899659 1_555
Ce3 Pd2 3.061994 1_655
Ce3 Pd2 3.061994 1_555
Ce3 Pd5 3.234485 1_665
Ce3 Pd5 3.234485 1_565
Ce4 Pd0 2.902194 1_555
Ce4 Pd3 3.058304 1_555
Ce4 Pd3 3.058304 1_655
Ce4 Pd6 3.241906 1_565
Ce4 Pd6 3.241906 1_665
Ce5 Pd1 2.896166 1_555
Ce5 Pd4 3.062345 1_555
Ce5 Pd4 3.062345 1_655
Ce5 Pd7 3.235767 1_665
Ce5 Pd7 3.235767 1_565
Ce6 Pd3 2.918235 1_555
Ce6 Pt3 3.075848 1_555
Ce6 Pt3 3.075848 1_455
Ce6 Pt0 3.197253 1_555
Ce6 Pt0 3.197253 1_455
Ce7 Pd4 2.924940 1_555
Ce7 Pd0 3.070670 1_455
Ce7 Pd0 3.070670 1_555
Ce7 Pt1 3.187049 1_555
Ce7 Pt1 3.187049 1_455
Ce8 Pd2 2.926176 1_556
Ce8 Pd1 3.070614 1_455
Ce8 Pd1 3.070614 1_555
Ce8 Pt2 3.184352 1_555
Ce8 Pt2 3.184352 1_455
Ce9 Pd5 2.909318 1_555
Ce9 Pt0 3.085647 1_555
Ce9 Pt0 3.085647 1_455
Ce9 Pt3 3.208254 1_545
Ce9 Pt3 3.208254 1_445
Ce10 Pd6 2.898496 1_555
Ce10 Pt1 3.072104 1_555
Ce10 Pt1 3.072104 1_455
Ce10 Pd0 3.244258 1_445
Ce10 Pd0 3.244258 1_545
Ce11 Pd7 2.894174 1_555
Ce11 Pt2 3.074955 1_455
Ce11 Pt2 3.074955 1_555
Ce11 Pd1 3.241463 1_545
Ce11 Pd1 3.241463 1_445
Al0 Pt3 2.645939 1_555
Al0 Pt0 2.657074 1_555
Al0 Pd5 2.685207 1_555
Al0 Pd5 2.685207 1_655
Al0 Ce0 3.150711 1_555
Al0 Ce6 3.229927 1_555
Al0 Ce6 3.229927 1_655
Al0 Ce9 3.324919 1_655
Al0 Ce9 3.324919 1_555
Al0 Ce3 3.401628 1_545
Al1 Pd0 2.642459 1_555
Al1 Pt1 2.653025 1_555
Al1 Pd6 2.676812 1_555
Al1 Pd6 2.676812 1_655
Al1 Ce1 3.147559 1_555
Al1 Ce7 3.244513 1_655
Al1 Ce7 3.244513 1_555
Al1 Ce10 3.298733 1_655
Al1 Ce10 3.298733 1_555
Al1 Ce4 3.389350 1_545
Al2 Pd1 2.645971 1_555
Al2 Pt2 2.647587 1_555
Al2 Pd7 2.675256 1_555
Al2 Pd7 2.675256 1_655
Al2 Ce2 3.147623 1_555
Al2 Ce8 3.243789 1_655
Al2 Ce8 3.243789 1_555
Al2 Ce11 3.296939 1_655
Al2 Ce11 3.296939 1_555
Al2 Ce5 3.375285 1_545
Al3 Pt0 2.642000 1_565
Al3 Pt3 2.666119 1_555
Al3 Pd3 2.679309 1_655
Al3 Pd3 2.679309 1_555
Al3 Ce4 3.163568 1_555
Al3 Ce9 3.213496 1_565
Al3 Ce9 3.213496 1_665
Al3 Ce6 3.335521 1_555
Al3 Ce6 3.335521 1_655
Al3 Ce1 3.379219 1_555
Al4 Pt1 2.642066 1_565
Al4 Pd4 2.674485 1_655
Al4 Pd4 2.674485 1_555
Al4 Pd0 2.698561 1_555
Al4 Ce5 3.156287 1_555
Al4 Ce10 3.225417 1_565
Al4 Ce10 3.225417 1_665
Al4 Ce7 3.350036 1_555
Al4 Ce7 3.350036 1_655
Al4 Ce2 3.376639 1_555
Al5 Pt2 2.644516 1_565
Al5 Pd2 2.678475 1_556
Al5 Pd2 2.678475 1_656
Al5 Pd1 2.692207 1_555
Al5 Ce3 3.157997 1_556
Al5 Ce11 3.223333 1_565
Al5 Ce11 3.223333 1_665
Al5 Ce8 3.349260 1_555
Al5 Ce8 3.349260 1_655
Al5 Ce0 3.383160 1_556
Al6 Pd5 2.650131 1_555
Al6 Pt3 2.661663 1_455
Al6 Pt3 2.661663 1_555
Al6 Pd2 2.699017 1_555
Al6 Ce6 3.143041 1_555
Al6 Ce0 3.251081 1_455
Al6 Ce0 3.251081 1_555
Al6 Ce3 3.318185 1_555
Al6 Ce3 3.318185 1_455
Al6 Ce9 3.340834 1_565
Al7 Pd6 2.637902 1_555
Al7 Pd0 2.662876 1_555
Al7 Pd0 2.662876 1_455
Al7 Pd3 2.693238 1_555
Al7 Ce7 3.152209 1_555
Al7 Ce1 3.246974 1_455
Al7 Ce1 3.246974 1_555
Al7 Ce4 3.315315 1_455
Al7 Ce4 3.315315 1_555
Al7 Ce10 3.381531 1_565
Al8 Pd7 2.644521 1_555
Al8 Pd1 2.661647 1_455
Al8 Pd1 2.661647 1_555
Al8 Pd4 2.687007 1_555
Al8 Ce8 3.152642 1_555
Al8 Ce2 3.245711 1_455
Al8 Ce2 3.245711 1_555
Al8 Ce5 3.311791 1_555
Al8 Ce5 3.311791 1_455
Al8 Ce11 3.371517 1_565
Al9 Pd2 2.650622 1_545
Al9 Pt2 2.665000 1_454
Al9 Pt2 2.665000 1_554
Al9 Pd5 2.703951 1_555
Al9 Ce11 3.146726 1_554
Al9 Ce3 3.245012 1_445
Al9 Ce3 3.245012 1_545
Al9 Ce8 3.306371 1_554
Al9 Ce0 3.330243 1_555
Al9 Ce0 3.330243 1_455
Al10 Pd3 2.648889 1_545
Al10 Pt0 2.656550 1_455
Al10 Pt0 2.656550 1_555
Al10 Pd6 2.702643 1_555
Al10 Ce9 3.149340 1_555
Al10 Ce4 3.248439 1_545
Al10 Ce4 3.248439 1_445
Al10 Ce6 3.310717 1_555
Al10 Ce1 3.325756 1_455
Al10 Ce1 3.325756 1_555
Al11 Pd4 2.644024 1_545
Al11 Pt1 2.666851 1_555
Al11 Pt1 2.666851 1_455
Al11 Pd7 2.694070 1_555
Al11 Ce10 3.146545 1_555
Al11 Ce5 3.246295 1_445
Al11 Ce5 3.246295 1_545
Al11 Ce7 3.313026 1_555
Al11 Ce2 3.326921 1_455
Al11 Ce2 3.326921 1_555
