# generated using pymatgen
data_Mg6MnFe
_symmetry_space_group_name_H-M   'P 1'
_cell_length_a   4.80979000
_cell_length_b   6.05823400
_cell_length_c   10.63492900
_cell_angle_alpha   90.00000000
_cell_angle_beta   90.00000000
_cell_angle_gamma   90.00000000
_symmetry_Int_Tables_number   1
_chemical_formula_structural   Mg6MnFe
_chemical_formula_sum   'Mg12 Mn2 Fe2'
_cell_volume   309.88942340
_cell_formula_units_Z   2
loop_
 _symmetry_equiv_pos_site_id
 _symmetry_equiv_pos_as_xyz
  1  'x, y, z'
loop_
 _atom_site_type_symbol
 _atom_site_label
 _atom_site_symmetry_multiplicity
 _atom_site_fract_x
 _atom_site_fract_y
 _atom_site_fract_z
 _atom_site_occupancy
  Mg  Mg0  1  0.00000000  0.26244900  0.08858300  1
  Mg  Mg1  1  0.00000000  0.73755100  0.08858300  1
  Mg  Mg2  1  0.00000000  0.00000000  0.33364100  1
  Mg  Mg3  1  0.50000000  0.73917800  0.41126600  1
  Mg  Mg4  1  0.50000000  0.26082200  0.41126600  1
  Mg  Mg5  1  0.50000000  0.00000000  0.16650300  1
  Mg  Mg6  1  0.00000000  0.76244900  0.58858300  1
  Mg  Mg7  1  0.00000000  0.23755100  0.58858300  1
  Mg  Mg8  1  0.00000000  0.50000000  0.83364100  1
  Mg  Mg9  1  0.50000000  0.23917800  0.91126600  1
  Mg  Mg10  1  0.50000000  0.76082200  0.91126600  1
  Mg  Mg11  1  0.50000000  0.50000000  0.66650300  1
  Mn  Mn0  1  0.00000000  0.50000000  0.32101900  1
  Mn  Mn1  1  0.00000000  0.00000000  0.82101900  1
  Fe  Fe0  1  0.50000000  0.50000000  0.17914100  1
  Fe  Fe1  1  0.50000000  0.00000000  0.67914100  1
loop_
_geom_bond_atom_site_label_1
_geom_bond_atom_site_label_2
_geom_bond_distance
_geom_bond_site_symmetry_2
Mg0 Mn0 2.860352 1_555
Mg0 Mg1 2.878279 1_555
Mg0 Mg5 2.999708 1_455
Mg0 Mg5 2.999708 1_555
Mg0 Mg2 3.052896 1_555
Mg0 Mg9 3.059324 1_554
Mg0 Mg9 3.059324 1_454
Mg0 Mg8 3.069563 1_554
Mg0 Mg1 3.179955 1_545
Mg0 Mn1 3.259607 1_554
Mg1 Mn0 2.860352 1_555
Mg1 Mg5 2.999708 1_565
Mg1 Mg5 2.999708 1_465
Mg1 Mg2 3.052896 1_565
Mg1 Mg10 3.059324 1_454
Mg1 Mg10 3.059324 1_554
Mg1 Mg8 3.069563 1_554
Mg1 Mn1 3.259607 1_564
Mg2 Mg5 2.990490 1_555
Mg2 Mg5 2.990490 1_455
Mg2 Mg3 2.993629 1_445
Mg2 Mg4 2.993629 1_555
Mg2 Mg3 2.993629 1_545
Mg2 Mg4 2.993629 1_455
Mg2 Mn0 3.032090 1_545
Mg2 Mn0 3.032090 1_555
Mg2 Mg7 3.069563 1_555
Mg2 Mg6 3.069563 1_545
Mg3 Mg4 2.897993 1_555
Mg3 Mn0 2.967199 1_655
Mg3 Mn0 2.967199 1_555
Mg3 Mg5 3.045092 1_565
Mg3 Mg6 3.059324 1_655
Mg3 Mg6 3.059324 1_555
Mg3 Mg4 3.160241 1_565
Mg4 Mn0 2.967199 1_655
Mg4 Mn0 2.967199 1_555
Mg4 Mg5 3.045092 1_555
Mg4 Mg7 3.059324 1_555
Mg4 Mg7 3.059324 1_655
Mg5 Mg9 3.076964 1_554
Mg6 Mn1 2.860352 1_565
Mg6 Mg7 2.878279 1_565
Mg6 Mg8 3.052896 1_555
Mg6 Mg7 3.179955 1_555
Mg6 Mn0 3.259607 1_555
Mg7 Mn1 2.860352 1_555
Mg7 Mg8 3.052896 1_555
Mg7 Mn0 3.259607 1_555
Mg8 Mg9 2.993629 1_455
Mg8 Mg9 2.993629 1_555
Mg8 Mn1 3.032090 1_565
Mg8 Mn1 3.032090 1_555
Mg9 Mn1 2.967199 1_555
Mg9 Mn1 2.967199 1_655
Mg10 Mg9 2.897993 1_565
Mg10 Mn1 2.967199 1_665
Mg10 Mn1 2.967199 1_565
Mg10 Mg8 2.993629 1_655
Mg10 Mg8 2.993629 1_555
Mg10 Mg11 3.045092 1_555
Mg10 Mg5 3.076964 1_566
Mg10 Mg9 3.160241 1_555
Mg11 Mg8 2.990490 1_655
Mg11 Mg8 2.990490 1_555
Mg11 Mg6 2.999708 1_655
Mg11 Mg6 2.999708 1_555
Mg11 Mg7 2.999708 1_555
Mg11 Mg7 2.999708 1_655
Mg11 Mg9 3.045092 1_555
Mg11 Mg4 3.076964 1_555
Mg11 Mg3 3.076964 1_555
Fe0 Mn0 2.839047 1_655
Fe0 Mn0 2.839047 1_555
Fe0 Mg4 2.862471 1_555
Fe0 Mg3 2.862471 1_555
Fe0 Mg0 2.963471 1_655
Fe0 Mg1 2.963471 1_655
Fe0 Mg1 2.963471 1_555
Fe0 Mg0 2.963471 1_555
Fe0 Mg5 3.032097 1_555
Fe0 Mg5 3.032097 1_565
Fe0 Mg9 3.257702 1_554
Fe0 Mg10 3.257702 1_554
Fe1 Mn1 2.839047 1_655
Fe1 Mn1 2.839047 1_555
Fe1 Mg10 2.862471 1_545
Fe1 Mg9 2.862471 1_555
Fe1 Mg7 2.963471 1_655
Fe1 Mg7 2.963471 1_555
Fe1 Mg6 2.963471 1_645
Fe1 Mg6 2.963471 1_545
Fe1 Mg11 3.032097 1_555
Fe1 Mg11 3.032097 1_545
Fe1 Mg4 3.257702 1_555
Fe1 Mg3 3.257702 1_545
