# generated using pymatgen
data_CrFeO3
_symmetry_space_group_name_H-M   'P 1'
_cell_length_a   10.35272736
_cell_length_b   10.12698983
_cell_length_c   9.95655345
_cell_angle_alpha   85.03185830
_cell_angle_beta   86.49238464
_cell_angle_gamma   88.16394058
_symmetry_Int_Tables_number   1
_chemical_formula_structural   CrFeO3
_chemical_formula_sum   'Cr16 Fe16 O48'
_cell_volume   1037.61926808
_cell_formula_units_Z   16
loop_
 _symmetry_equiv_pos_site_id
 _symmetry_equiv_pos_as_xyz
  1  'x, y, z'
loop_
 _atom_site_type_symbol
 _atom_site_label
 _atom_site_symmetry_multiplicity
 _atom_site_fract_x
 _atom_site_fract_y
 _atom_site_fract_z
 _atom_site_occupancy
  Cr  Cr0  1  0.98724000  0.00284000  0.38478400  1
  Cr  Cr1  1  0.46237000  0.08293500  0.97954100  1
  Cr  Cr2  1  0.67074100  0.05373200  0.38488700  1
  Cr  Cr3  1  0.56942400  0.44575700  0.52152500  1
  Cr  Cr4  1  0.72274700  0.21264700  0.81251800  1
  Cr  Cr5  1  0.25222800  0.63557200  0.53659800  1
  Cr  Cr6  1  0.87383600  0.70074700  0.78096100  1
  Cr  Cr7  1  0.28415900  0.31336700  0.47606000  1
  Cr  Cr8  1  0.20255800  0.18230700  0.85800800  1
  Cr  Cr9  1  0.77881300  0.80052600  0.42488500  1
  Cr  Cr10  1  0.13936000  0.46026500  0.75066600  1
  Cr  Cr11  1  0.79560000  0.43817800  0.31180900  1
  Cr  Cr12  1  0.48712700  0.72248400  0.59737100  1
  Cr  Cr13  1  0.11594800  0.69566800  0.98038600  1
  Cr  Cr14  1  0.51064600  0.70839000  0.28818300  1
  Cr  Cr15  1  0.45596700  0.14390100  0.63535900  1
  Fe  Fe0  1  0.64981700  0.52719500  0.04686000  1
  Fe  Fe1  1  0.23132600  0.35482900  0.04451400  1
  Fe  Fe2  1  0.25260500  0.99597100  0.47906500  1
  Fe  Fe3  1  0.71066000  0.00133800  0.06961300  1
  Fe  Fe4  1  0.73583000  0.49181100  0.74740500  1
  Fe  Fe5  1  0.98822400  0.06315900  0.04549900  1
  Fe  Fe6  1  0.52239500  0.28545000  0.23220100  1
  Fe  Fe7  1  0.55691100  0.76790500  0.93454700  1
  Fe  Fe8  1  0.69885500  0.93363300  0.70118700  1
  Fe  Fe9  1  0.24875200  0.56365400  0.25930100  1
  Fe  Fe10  1  0.99935000  0.10714000  0.70946400  1
  Fe  Fe11  1  0.30366200  0.86139500  0.77021300  1
  Fe  Fe12  1  0.90570700  0.68213200  0.18926600  1
  Fe  Fe13  1  0.14562000  0.81310900  0.24571600  1
  Fe  Fe14  1  0.94304500  0.39939500  0.98074200  1
  Fe  Fe15  1  0.47507300  0.43164200  0.83993800  1
  O  O0  1  0.33775400  0.72525000  0.22350400  1
  O  O1  1  0.21483400  0.63859600  0.71205400  1
  O  O2  1  0.08115900  0.26982700  0.73220200  1
  O  O3  1  0.71008200  0.35280400  0.63048400  1
  O  O4  1  0.77791900  0.77043500  0.62863900  1
  O  O5  1  0.51077900  0.82346700  0.74590700  1
  O  O6  1  0.71341300  0.92975100  0.26088200  1
  O  O7  1  0.47089200  0.55225500  0.96799000  1
  O  O8  1  0.15141400  0.66509400  0.39746200  1
  O  O9  1  0.59094300  0.04638800  0.57028800  1
  O  O10  1  0.09973000  0.62416800  0.16366600  1
  O  O11  1  0.96411200  0.82888800  0.36383400  1
  O  O12  1  0.53663800  0.16911700  0.81335700  1
  O  O13  1  0.31334800  0.06903300  0.72589700  1
  O  O14  1  0.07387100  0.04784500  0.54049300  1
  O  O15  1  0.91565900  0.35296800  0.37597900  1
  O  O16  1  0.55457500  0.54746700  0.68258100  1
  O  O17  1  0.65829100  0.37564400  0.89869200  1
  O  O18  1  0.00207400  0.76456600  0.86449800  1
  O  O19  1  0.37355300  0.13387900  0.45627400  1
  O  O20  1  0.31994000  0.82984600  0.55385500  1
  O  O21  1  0.43851900  0.91593600  0.99543500  1
  O  O22  1  0.26591200  0.75963900  0.93924300  1
  O  O23  1  0.58271300  0.78846600  0.43909000  1
  O  O24  1  0.82739400  0.14425000  0.97246100  1
  O  O25  1  0.81957000  0.08100700  0.71372700  1
  O  O26  1  0.30385700  0.38831200  0.21839400  1
  O  O27  1  0.12129700  0.50457900  0.94912000  1
  O  O28  1  0.68955200  0.91003900  0.89716200  1
  O  O29  1  0.69116400  0.21187700  0.31833800  1
  O  O30  1  0.79151700  0.62135300  0.35004200  1
  O  O31  1  0.29813700  0.36465600  0.83776500  1
  O  O32  1  0.92323400  0.50953800  0.77642100  1
  O  O33  1  0.19025400  0.45944900  0.55305200  1
  O  O34  1  0.31166500  0.17099600  0.01949500  1
  O  O35  1  0.07911900  0.25146200  0.01223400  1
  O  O36  1  0.82979200  0.49702600  0.11945600  1
  O  O37  1  0.43901500  0.32286900  0.58735200  1
  O  O38  1  0.71241600  0.64255800  0.86851100  1
  O  O39  1  0.95175900  0.09372600  0.23220200  1
  O  O40  1  0.03127400  0.85776500  0.09715300  1
  O  O41  1  0.55576200  0.13993100  0.11182500  1
  O  O42  1  0.08307700  0.03453700  0.86886900  1
  O  O43  1  0.60198100  0.71248700  0.12253100  1
  O  O44  1  0.81198000  0.98585200  0.47454600  1
  O  O45  1  0.17487800  0.97774500  0.31465100  1
  O  O46  1  0.42225600  0.59441700  0.46448900  1
  O  O47  1  0.59815200  0.43759500  0.32160900  1
loop_
_geom_bond_atom_site_label_1
_geom_bond_atom_site_label_2
_geom_bond_distance
_geom_bond_site_symmetry_2
Cr0 O39 1.759102 1_555
Cr0 O11 1.816836 1_545
Cr0 O14 1.932437 1_655
Cr0 O44 1.978737 1_545
Cr0 O45 2.039330 1_645
Cr1 O21 1.709323 1_545
Cr1 O34 1.812217 1_556
Cr1 O41 1.823724 1_556
Cr1 O12 1.930768 1_555
Cr2 O29 1.693932 1_555
Cr2 O44 1.842967 1_545
Cr2 O6 1.860694 1_545
Cr2 O9 1.972086 1_555
Cr3 O37 1.912894 1_555
Cr3 O16 1.975284 1_555
Cr3 O47 2.002937 1_555
Cr3 O3 2.027834 1_555
Cr3 O46 2.172808 1_555
Cr4 O25 1.941731 1_555
Cr4 O12 1.989605 1_555
Cr4 O17 2.002701 1_555
Cr4 O24 2.039964 1_555
Cr4 O3 2.210948 1_555
Cr5 O1 1.768714 1_555
Cr5 O8 1.784090 1_555
Cr5 O33 1.905141 1_555
Cr5 O46 1.907311 1_555
Cr5 O20 2.133846 1_555
Cr6 O18 1.776302 1_655
Cr6 O38 1.922418 1_555
Cr6 O4 1.933437 1_555
Cr6 O32 1.990474 1_555
Cr7 O33 1.932451 1_555
Cr7 O37 2.013214 1_555
Cr7 O19 2.032526 1_555
Cr7 O26 2.609193 1_555
Cr8 O42 1.963511 1_555
Cr8 O2 1.965472 1_555
Cr8 O34 2.014013 1_556
Cr8 O13 2.086643 1_555
Cr8 O35 2.090529 1_556
Cr8 O31 2.111413 1_555
Cr9 O11 1.998609 1_555
Cr9 O30 2.017881 1_555
Cr9 O4 2.024680 1_555
Cr9 O44 2.026707 1_555
Cr9 O23 2.033291 1_555
Cr9 O6 2.132082 1_555
Cr10 O1 1.988269 1_555
Cr10 O33 2.006150 1_555
Cr10 O27 2.060002 1_555
Cr10 O2 2.065341 1_555
Cr10 O31 2.078106 1_555
Cr10 O32 2.280687 1_455
Cr11 O15 1.621939 1_555
Cr11 O30 1.924338 1_555
Cr11 O36 1.970083 1_555
Cr11 O47 2.040655 1_555
Cr11 O29 2.559238 1_555
Cr12 O23 1.891685 1_555
Cr12 O5 1.901382 1_555
Cr12 O16 2.020268 1_555
Cr12 O20 2.062823 1_555
Cr12 O46 2.084530 1_555
Cr13 O22 1.714214 1_555
Cr13 O18 1.783901 1_555
Cr13 O10 1.903668 1_556
Cr13 O27 1.984986 1_555
Cr13 O40 2.220003 1_556
Cr14 O43 1.848220 1_555
Cr14 O0 1.936500 1_555
Cr14 O23 1.964378 1_555
Cr14 O46 2.184304 1_555
Cr15 O9 1.805322 1_555
Cr15 O13 1.832481 1_555
Cr15 O37 1.839545 1_555
Cr15 O19 2.034859 1_555
Cr15 O12 2.043705 1_555
Fe0 O36 2.043891 1_555
Fe0 O7 2.055639 1_554
Fe0 O43 2.115096 1_555
Fe0 O38 2.118138 1_554
Fe0 O17 2.215221 1_554
Fe1 O35 1.976874 1_555
Fe1 O26 1.988238 1_555
Fe1 O34 2.043381 1_555
Fe1 O27 2.066808 1_554
Fe1 O31 2.126142 1_554
Fe2 O45 1.893246 1_555
Fe2 O19 1.895316 1_565
Fe2 O20 1.908436 1_555
Fe2 O14 1.982130 1_565
Fe3 O6 1.979706 1_545
Fe3 O28 2.045625 1_544
Fe3 O24 2.053613 1_554
Fe3 O41 2.143268 1_555
Fe4 O3 1.937471 1_555
Fe4 O17 1.975582 1_555
Fe4 O32 1.994926 1_555
Fe4 O38 2.025490 1_555
Fe4 O16 2.067088 1_555
Fe5 O39 1.923597 1_555
Fe5 O24 1.983088 1_554
Fe5 O42 1.999954 1_654
Fe5 O40 2.138455 1_645
Fe5 O35 2.144548 1_655
Fe6 O41 1.987496 1_555
Fe6 O47 2.044985 1_555
Fe6 O29 2.081513 1_555
Fe6 O26 2.466775 1_555
Fe7 O43 1.985946 1_556
Fe7 O5 1.995456 1_555
Fe7 O21 2.016404 1_555
Fe7 O28 2.016774 1_555
Fe7 O38 2.125913 1_555
Fe7 O7 2.373955 1_555
Fe8 O28 1.942013 1_555
Fe8 O4 1.992716 1_555
Fe8 O25 1.993921 1_565
Fe8 O9 2.022182 1_565
Fe8 O5 2.276225 1_555
Fe8 O44 2.500590 1_555
Fe9 O0 1.899874 1_555
Fe9 O26 1.917375 1_555
Fe9 O10 1.918466 1_555
Fe9 O8 1.992961 1_555
Fe10 O25 1.885711 1_555
Fe10 O2 1.913218 1_655
Fe10 O42 1.932947 1_655
Fe10 O14 1.942322 1_655
Fe11 O22 1.921436 1_555
Fe11 O13 2.115110 1_565
Fe11 O5 2.168785 1_555
Fe11 O20 2.200524 1_555
Fe11 O1 2.587707 1_555
Fe12 O30 1.995818 1_555
Fe12 O10 2.081344 1_655
Fe12 O36 2.236454 1_555
Fe12 O40 2.326865 1_655
Fe12 O11 2.495786 1_555
Fe13 O45 1.897001 1_555
Fe13 O40 1.964162 1_555
Fe13 O8 2.036229 1_555
Fe13 O0 2.159622 1_555
Fe13 O11 2.163920 1_455
Fe13 O10 2.220514 1_555
Fe14 O35 2.040749 1_656
Fe14 O36 2.055190 1_556
Fe14 O27 2.153145 1_655
Fe14 O32 2.251245 1_555
Fe15 O7 1.838181 1_555
Fe15 O31 1.975614 1_555
Fe15 O16 2.023288 1_555
Fe15 O17 2.066655 1_555
