# generated using pymatgen
data_KMo2P3O13
_symmetry_space_group_name_H-M   'P 1'
_cell_length_a   19.19996700
_cell_length_b   6.50743700
_cell_length_c   9.90894947
_cell_angle_alpha   73.10583975
_cell_angle_beta   90.00000000
_cell_angle_gamma   90.00000000
_symmetry_Int_Tables_number   1
_chemical_formula_structural   KMo2P3O13
_chemical_formula_sum   'K4 Mo8 P12 O52'
_cell_volume   1184.61941692
_cell_formula_units_Z   4
loop_
 _symmetry_equiv_pos_site_id
 _symmetry_equiv_pos_as_xyz
  1  'x, y, z'
loop_
 _atom_site_type_symbol
 _atom_site_label
 _atom_site_symmetry_multiplicity
 _atom_site_fract_x
 _atom_site_fract_y
 _atom_site_fract_z
 _atom_site_occupancy
  K  K0  1  0.66449100  0.45858600  0.36048300  1
  K  K1  1  0.16449100  0.04141400  0.63951700  1
  K  K2  1  0.33550900  0.54141400  0.63951700  1
  K  K3  1  0.83550900  0.95858600  0.36048300  1
  Mo  Mo0  1  0.66107000  0.12002600  0.06003600  1
  Mo  Mo1  1  0.16107000  0.37997400  0.93996400  1
  Mo  Mo2  1  0.33893000  0.87997400  0.93996400  1
  Mo  Mo3  1  0.83893000  0.62002600  0.06003600  1
  Mo  Mo4  1  0.87561400  0.31128900  0.62009400  1
  Mo  Mo5  1  0.37561400  0.18871100  0.37990600  1
  Mo  Mo6  1  0.12438600  0.68871100  0.37990600  1
  Mo  Mo7  1  0.62438600  0.81128900  0.62009400  1
  P  P0  1  0.82628700  0.15968900  0.96615900  1
  P  P1  1  0.32628700  0.34031100  0.03384100  1
  P  P2  1  0.17371300  0.84031100  0.03384100  1
  P  P3  1  0.67371300  0.65968900  0.96615900  1
  P  P4  1  0.09009700  0.23302800  0.29486400  1
  P  P5  1  0.59009700  0.26697200  0.70513600  1
  P  P6  1  0.90990300  0.76697200  0.70513600  1
  P  P7  1  0.40990300  0.73302900  0.29486400  1
  P  P8  1  0.96517600  0.49158000  0.30440700  1
  P  P9  1  0.46517600  0.00842000  0.69559300  1
  P  P10  1  0.03482400  0.50842000  0.69559300  1
  P  P11  1  0.53482400  0.99158000  0.30440700  1
  O  O0  1  0.90533200  0.41465300  0.40880500  1
  O  O1  1  0.40533200  0.08534700  0.59119500  1
  O  O2  1  0.09466800  0.58534700  0.59119500  1
  O  O3  1  0.59466800  0.91465300  0.40880500  1
  O  O4  1  0.56443100  0.08130300  0.15582400  1
  O  O5  1  0.06443100  0.41869700  0.84417600  1
  O  O6  1  0.43556900  0.91869700  0.84417600  1
  O  O7  1  0.93556900  0.58130300  0.15582400  1
  O  O8  1  0.00766900  0.27441200  0.30801900  1
  O  O9  1  0.50766900  0.22558800  0.69198100  1
  O  O10  1  0.99233100  0.72558800  0.69198100  1
  O  O11  1  0.49233100  0.77441200  0.30801900  1
  O  O12  1  0.86873400  0.21180800  0.82929500  1
  O  O13  1  0.36873400  0.28819200  0.17070500  1
  O  O14  1  0.13126600  0.78819200  0.17070500  1
  O  O15  1  0.63126600  0.71180800  0.82929500  1
  O  O16  1  0.65161600  0.81185900  0.05265000  1
  O  O17  1  0.15161600  0.68814100  0.94735000  1
  O  O18  1  0.34838400  0.18814100  0.94735000  1
  O  O19  1  0.84838400  0.31185900  0.05265000  1
  O  O20  1  0.78935000  0.30852000  0.57535900  1
  O  O21  1  0.28935000  0.19148000  0.42464100  1
  O  O22  1  0.21065000  0.69148000  0.42464100  1
  O  O23  1  0.71065000  0.80852000  0.57535900  1
  O  O24  1  0.90008300  0.00264100  0.61744900  1
  O  O25  1  0.40008300  0.49735900  0.38255100  1
  O  O26  1  0.09991700  0.99735900  0.38255100  1
  O  O27  1  0.59991700  0.50264100  0.61744900  1
  O  O28  1  0.71023100  0.05245400  0.21258100  1
  O  O29  1  0.21023100  0.44754600  0.78741900  1
  O  O30  1  0.28976900  0.94754600  0.78741900  1
  O  O31  1  0.78976900  0.55245400  0.21258100  1
  O  O32  1  0.60782000  0.21723800  0.86020200  1
  O  O33  1  0.10782000  0.28276200  0.13979800  1
  O  O34  1  0.39218000  0.78276200  0.13979800  1
  O  O35  1  0.89218000  0.71723800  0.86020200  1
  O  O36  1  0.98506700  0.35274600  0.65663100  1
  O  O37  1  0.48506700  0.14725400  0.34336900  1
  O  O38  1  0.01493300  0.64725400  0.34336900  1
  O  O39  1  0.51493300  0.85274600  0.65663100  1
  O  O40  1  0.87217500  0.62980000  0.62444100  1
  O  O41  1  0.37217500  0.87020000  0.37555900  1
  O  O42  1  0.12782500  0.37020000  0.37555900  1
  O  O43  1  0.62782500  0.12980000  0.62444100  1
  O  O44  1  0.74778400  0.17636500  0.93111400  1
  O  O45  1  0.24778400  0.32363500  0.06888600  1
  O  O46  1  0.25221600  0.82363500  0.06888600  1
  O  O47  1  0.75221600  0.67636500  0.93111400  1
  O  O48  1  0.65299600  0.43370300  0.05996700  1
  O  O49  1  0.15299600  0.06629700  0.94003300  1
  O  O50  1  0.34700400  0.56629700  0.94003300  1
  O  O51  1  0.84700400  0.93370300  0.05996700  1
loop_
_geom_bond_atom_site_label_1
_geom_bond_atom_site_label_2
_geom_bond_distance
_geom_bond_site_symmetry_2
K0 O31 2.790393 1_555
K0 O27 2.920114 1_555
K0 O43 2.943105 1_555
K0 O48 3.036850 1_555
K0 O20 3.166327 1_555
K0 O16 3.251885 1_555
K1 O30 2.790393 1_545
K1 O26 2.920114 1_545
K1 O42 2.943105 1_555
K1 O49 3.036850 1_555
K1 O21 3.166327 1_555
K1 O17 3.251885 1_545
K2 O29 2.790393 1_555
K2 O25 2.920114 1_555
K2 O41 2.943105 1_555
K2 O50 3.036850 1_555
K2 O22 3.166327 1_555
K2 O18 3.251885 1_555
K3 O28 2.790393 1_565
K3 O24 2.920114 1_565
K3 O40 2.943105 1_555
K3 O51 3.036850 1_555
K3 O23 3.166327 1_555
K3 O19 3.251885 1_565
Mo0 O28 1.727075 1_555
Mo0 O16 2.035963 1_545
Mo0 O48 2.046913 1_555
Mo0 O44 2.065447 1_554
Mo0 O4 2.065948 1_555
Mo0 O32 2.153697 1_554
Mo1 O29 1.727075 1_555
Mo1 O17 2.035963 1_555
Mo1 O49 2.046913 1_555
Mo1 O45 2.065447 1_556
Mo1 O5 2.065948 1_555
Mo1 O33 2.153697 1_556
Mo2 O30 1.727075 1_555
Mo2 O18 2.035963 1_565
Mo2 O50 2.046913 1_555
Mo2 O46 2.065447 1_556
Mo2 O6 2.065948 1_555
Mo2 O34 2.153697 1_556
Mo3 O31 1.727075 1_555
Mo3 O19 2.035963 1_555
Mo3 O51 2.046913 1_555
Mo3 O47 2.065447 1_554
Mo3 O7 2.065948 1_555
Mo3 O35 2.153697 1_554
Mo4 O20 1.716007 1_555
Mo4 O12 1.988402 1_555
Mo4 O24 2.070290 1_555
Mo4 O0 2.083960 1_555
Mo4 O40 2.086660 1_555
Mo4 O36 2.162614 1_555
Mo5 O21 1.716007 1_555
Mo5 O13 1.988402 1_555
Mo5 O25 2.070290 1_555
Mo5 O1 2.083960 1_555
Mo5 O41 2.086660 1_545
Mo5 O37 2.162614 1_555
Mo6 O22 1.716007 1_555
Mo6 O14 1.988402 1_555
Mo6 O26 2.070290 1_555
Mo6 O2 2.083960 1_555
Mo6 O42 2.086660 1_555
Mo6 O38 2.162614 1_555
Mo7 O23 1.716007 1_555
Mo7 O15 1.988402 1_555
Mo7 O27 2.070290 1_555
Mo7 O3 2.083960 1_555
Mo7 O43 2.086660 1_565
Mo7 O39 2.162614 1_555
O0 P8 1.529693 1_555
O1 P9 1.529693 1_555
O2 P10 1.529693 1_555
O3 P11 1.529693 1_555
O4 P11 1.527117 1_545
O5 P10 1.527117 1_555
O6 P9 1.527117 1_565
O7 P8 1.527117 1_555
O8 P4 1.616969 1_555
O8 P8 1.623167 1_455
O9 P5 1.616969 1_555
O9 P9 1.623167 1_555
O10 P6 1.616969 1_555
O10 P10 1.623167 1_655
O11 P7 1.616968 1_555
O11 P11 1.623167 1_555
O12 P0 1.533333 1_555
O13 P1 1.533333 1_555
O14 P2 1.533333 1_555
O15 P3 1.533333 1_555
O16 P3 1.545422 1_554
O17 P2 1.545422 1_556
O18 P1 1.545422 1_556
O19 P0 1.545422 1_554
O24 P6 1.538820 1_545
O25 P7 1.538826 1_555
O26 P4 1.538820 1_565
O27 P5 1.538820 1_555
O32 P5 1.514089 1_555
O33 P4 1.514089 1_555
O34 P7 1.514089 1_555
O35 P6 1.514089 1_555
O36 P10 1.521603 1_655
O37 P11 1.521603 1_545
O38 P8 1.521603 1_455
O39 P9 1.521603 1_565
O40 P6 1.541340 1_555
O41 P7 1.541336 1_555
O42 P4 1.541340 1_555
O43 P5 1.541340 1_555
O44 P0 1.543464 1_555
O45 P1 1.543464 1_555
O46 P2 1.543464 1_555
O47 P3 1.543464 1_555
O48 P3 1.546091 1_554
O49 P2 1.546091 1_546
O50 P1 1.546091 1_556
O51 P0 1.546091 1_564
