# generated using pymatgen
data_Ti2HC
_symmetry_space_group_name_H-M   'P 1'
_cell_length_a   5.11733393
_cell_length_b   5.11733393
_cell_length_c   5.11733325
_cell_angle_alpha   35.22237200
_cell_angle_beta   35.22237200
_cell_angle_gamma   35.22236361
_symmetry_Int_Tables_number   1
_chemical_formula_structural   Ti2HC
_chemical_formula_sum   'Ti2 H1 C1'
_cell_volume   39.81688520
_cell_formula_units_Z   1
loop_
 _symmetry_equiv_pos_site_id
 _symmetry_equiv_pos_as_xyz
  1  'x, y, z'
loop_
 _atom_site_type_symbol
 _atom_site_label
 _atom_site_symmetry_multiplicity
 _atom_site_fract_x
 _atom_site_fract_y
 _atom_site_fract_z
 _atom_site_occupancy
  Ti  Ti0  1  0.24394595  0.24394595  0.24394595  1
  Ti  Ti1  1  0.75605405  0.75605405  0.75605405  1
  H  H0  1  -0.00000000  -0.00000000  0.00000000  1
  C  C0  1  0.50000000  0.50000000  0.50000000  1
loop_
_geom_bond_atom_site_label_1
_geom_bond_atom_site_label_2
_geom_bond_distance
_geom_bond_site_symmetry_2
H0 Ti1 2.202163 1_445
H0 Ti0 2.202163 1_554
H0 Ti0 2.202163 1_545
H0 Ti1 2.202163 1_544
H0 Ti1 2.202163 1_454
H0 Ti0 2.202163 1_455
C0 Ti1 2.105222 1_554
C0 Ti0 2.105222 1_556
C0 Ti1 2.105222 1_545
C0 Ti1 2.105222 1_455
C0 Ti0 2.105222 1_655
C0 Ti0 2.105222 1_565
