# generated using pymatgen
data_Li9Mn2Co5O16
_symmetry_space_group_name_H-M   'P 1'
_cell_length_a   2.97061800
_cell_length_b   5.96116209
_cell_length_c   16.17324649
_cell_angle_alpha   90.68183897
_cell_angle_beta   90.98079230
_cell_angle_gamma   94.14029126
_symmetry_Int_Tables_number   1
_chemical_formula_structural   Li9Mn2Co5O16
_chemical_formula_sum   'Li9 Mn2 Co5 O16'
_cell_volume   285.58721008
_cell_formula_units_Z   1
loop_
 _symmetry_equiv_pos_site_id
 _symmetry_equiv_pos_as_xyz
  1  'x, y, z'
loop_
 _atom_site_type_symbol
 _atom_site_label
 _atom_site_symmetry_multiplicity
 _atom_site_fract_x
 _atom_site_fract_y
 _atom_site_fract_z
 _atom_site_occupancy
  Li  Li0  1  0.99664200  0.49517400  0.00448300  1
  Li  Li1  1  0.49472500  0.76031000  0.12937900  1
  Li  Li2  1  0.00211900  0.00733000  0.24329100  1
  Li  Li3  1  0.50206000  0.24920400  0.87310800  1
  Li  Li4  1  0.99894800  0.00035200  0.74983600  1
  Li  Li5  1  0.50069000  0.75006500  0.62421300  1
  Li  Li6  1  0.00031600  0.49805900  0.50124700  1
  Li  Li7  1  0.50184100  0.24978600  0.37361800  1
  Li  Li8  1  0.50837600  0.23932000  0.12771000  1
  Mn  Mn0  1  0.99544400  0.00571000  0.00346600  1
  Mn  Mn1  1  0.50179900  0.75020400  0.37423000  1
  Co  Co0  1  0.00745800  0.48853900  0.24378900  1
  Co  Co1  1  0.99739500  0.00194600  0.50095000  1
  Co  Co2  1  0.50025600  0.25023100  0.62552100  1
  Co  Co3  1  0.00031700  0.49980400  0.75006500  1
  Co  Co4  1  0.49007300  0.75213000  0.87375100  1
  O  O0  1  0.47236800  0.77697500  0.99437800  1
  O  O1  1  0.00468300  0.99647600  0.11553400  1
  O  O2  1  0.52639500  0.26865400  0.25023900  1
  O  O3  1  0.02577500  0.51316200  0.87028700  1
  O  O4  1  0.52669200  0.26225200  0.74474100  1
  O  O5  1  0.02588400  0.01281100  0.61986000  1
  O  O6  1  0.52690800  0.75966500  0.49647400  1
  O  O7  1  0.02432800  0.50760000  0.36597100  1
  O  O8  1  0.52316800  0.21975800  0.99912200  1
  O  O9  1  0.99682400  0.50275700  0.13599500  1
  O  O10  1  0.47769500  0.73865800  0.25412200  1
  O  O11  1  0.96821100  0.98484100  0.87913000  1
  O  O12  1  0.47610900  0.73612800  0.75530700  1
  O  O13  1  0.97571700  0.48784500  0.63138800  1
  O  O14  1  0.47386900  0.23925300  0.50673900  1
  O  O15  1  0.97691200  0.99500200  0.38205600  1
loop_
_geom_bond_atom_site_label_1
_geom_bond_atom_site_label_2
_geom_bond_distance
_geom_bond_site_symmetry_2
Li0 O8 2.083336 1_554
Li0 O0 2.125423 1_654
Li0 O9 2.126908 1_555
Li0 O3 2.177197 1_654
Li0 O8 2.349791 1_654
Li0 O0 2.376930 1_554
Li1 O1 2.009517 1_655
Li1 O10 2.024419 1_555
Li1 O9 2.058573 1_455
Li1 O1 2.107967 1_555
Li1 O0 2.186935 1_554
Li1 O9 2.218662 1_555
Li2 O1 2.066650 1_545
Li2 O2 2.122365 1_555
Li2 O10 2.162978 1_445
Li2 O2 2.180740 1_455
Li2 O10 2.217342 1_545
Li2 O15 2.248708 1_445
Li3 O8 2.047961 1_555
Li3 O4 2.080832 1_555
Li3 O3 2.132841 1_655
Li3 O11 2.157777 1_445
Li3 O11 2.173633 1_545
Li3 O3 2.191066 1_555
Li4 O11 2.097503 1_545
Li4 O5 2.107012 1_655
Li4 O12 2.134427 1_545
Li4 O4 2.134490 1_655
Li4 O4 2.174327 1_555
Li4 O12 2.195296 1_645
Li5 O6 2.070069 1_555
Li5 O12 2.125127 1_555
Li5 O5 2.132080 1_665
Li5 O13 2.132462 1_455
Li5 O13 2.182968 1_555
Li5 O5 2.183072 1_565
Li6 O13 2.108771 1_455
Li6 O14 2.119764 1_455
Li6 O6 2.130660 1_555
Li6 O14 2.163187 1_555
Li6 O6 2.175195 1_455
Li6 O7 2.191515 1_555
Li7 O2 2.002221 1_555
Li7 O15 2.104103 1_445
Li7 O7 2.110204 1_655
Li7 O15 2.150555 1_545
Li7 O14 2.157508 1_555
Li7 O7 2.168582 1_555
Li8 O2 1.986785 1_555
Li8 O1 2.010877 1_545
Li8 O9 2.061254 1_555
Li8 O8 2.082959 1_554
Li8 O1 2.149287 1_645
Li8 O9 2.267134 1_455
Mn0 O1 1.813792 1_645
Mn0 O8 1.951331 1_654
Mn0 O8 1.964325 1_554
Mn0 O0 1.994181 1_544
Mn0 O11 2.013164 1_544
Mn0 O0 2.041891 1_644
Mn1 O10 1.942847 1_555
Mn1 O7 1.952914 1_555
Mn1 O15 1.956936 1_555
Mn1 O6 1.977192 1_555
Mn1 O7 2.201232 1_655
Mn1 O15 2.215325 1_455
Co0 O9 1.746302 1_455
Co0 O2 1.873252 1_455
Co0 O10 1.971713 1_555
Co0 O7 1.977563 1_555
Co0 O2 2.096412 1_555
Co0 O10 2.251556 1_455
Co1 O15 1.922682 1_545
Co1 O5 1.923688 1_655
Co1 O14 1.927832 1_655
Co1 O6 1.935752 1_545
Co1 O14 2.179008 1_555
Co1 O6 2.212442 1_645
Co2 O14 1.921491 1_555
Co2 O5 1.923993 1_555
Co2 O13 1.927067 1_555
Co2 O4 1.928697 1_555
Co2 O13 2.182641 1_455
Co2 O5 2.184139 1_655
Co3 O13 1.919812 1_455
Co3 O12 1.922248 1_555
Co3 O4 1.922889 1_455
Co3 O3 1.945015 1_555
Co3 O12 2.176051 1_455
Co3 O4 2.186135 1_555
Co4 O3 1.909580 1_555
Co4 O11 1.912534 1_555
Co4 O12 1.916454 1_555
Co4 O0 1.956678 1_555
Co4 O11 2.155814 1_455
Co4 O3 2.212093 1_655
