# generated using pymatgen
data_TaFeO4
_symmetry_space_group_name_H-M   'P 1'
_cell_length_a   4.73995855
_cell_length_b   4.73995855
_cell_length_c   9.23303000
_cell_angle_alpha   90.00000000
_cell_angle_beta   90.00000000
_cell_angle_gamma   90.54086322
_symmetry_Int_Tables_number   1
_chemical_formula_structural   TaFeO4
_chemical_formula_sum   'Ta3 Fe3 O12'
_cell_volume   207.43115428
_cell_formula_units_Z   3
loop_
 _symmetry_equiv_pos_site_id
 _symmetry_equiv_pos_as_xyz
  1  'x, y, z'
loop_
 _atom_site_type_symbol
 _atom_site_label
 _atom_site_symmetry_multiplicity
 _atom_site_fract_x
 _atom_site_fract_y
 _atom_site_fract_z
 _atom_site_occupancy
  Ta  Ta0  1  0.00000000  0.00000000  0.33739000  1
  Ta  Ta1  1  0.50000000  0.50000000  0.15748100  1
  Ta  Ta2  1  0.00000000  0.00000000  0.67848200  1
  Fe  Fe0  1  0.50000000  0.50000000  0.50372600  1
  Fe  Fe1  1  0.00000000  0.00000000  0.00026500  1
  Fe  Fe2  1  0.50000000  0.50000000  0.82729100  1
  O  O0  1  0.80333900  0.19666100  0.83022500  1
  O  O1  1  0.19666100  0.80333900  0.83022500  1
  O  O2  1  0.30185600  0.30185600  0.32919400  1
  O  O3  1  0.69814400  0.69814400  0.32919400  1
  O  O4  1  0.19860500  0.80139500  0.17134900  1
  O  O5  1  0.80139500  0.19860500  0.17134900  1
  O  O6  1  0.70065200  0.70065200  0.66455400  1
  O  O7  1  0.29934800  0.29934800  0.66455400  1
  O  O8  1  0.80745100  0.19254900  0.49736700  1
  O  O9  1  0.19254900  0.80745100  0.49736700  1
  O  O10  1  0.30262000  0.30262000  0.00499400  1
  O  O11  1  0.69738000  0.69738000  0.00499400  1
loop_
_geom_bond_atom_site_label_1
_geom_bond_atom_site_label_2
_geom_bond_distance
_geom_bond_site_symmetry_2
Fe0 O6 1.999263 1_555
Fe0 O7 1.999263 1_555
Fe0 O9 2.071477 1_555
Fe0 O8 2.071477 1_555
Fe0 O2 2.084303 1_555
Fe0 O3 2.084303 1_555
Fe1 O11 2.019432 1_445
Fe1 O10 2.019432 1_555
Fe1 O1 2.054049 1_544
Fe1 O0 2.054049 1_454
Fe1 O4 2.069863 1_545
Fe1 O5 2.069863 1_455
Fe2 O6 2.012389 1_555
Fe2 O7 2.012389 1_555
Fe2 O0 2.043131 1_555
Fe2 O1 2.043131 1_555
Fe2 O10 2.103827 1_556
Fe2 O11 2.103827 1_556
O0 Ta2 1.928005 1_655
O1 Ta2 1.928005 1_565
O2 Ta0 2.015284 1_555
O2 Ta1 2.064246 1_555
O3 Ta0 2.015284 1_665
O3 Ta1 2.064246 1_555
O4 Ta1 2.033893 1_555
O4 Ta0 2.034551 1_565
O5 Ta1 2.033893 1_555
O5 Ta0 2.034551 1_655
O6 Ta2 2.001266 1_665
O7 Ta2 2.001266 1_555
O8 Ta0 1.965558 1_655
O8 Ta2 2.116143 1_655
O9 Ta0 1.965558 1_565
O9 Ta2 2.116143 1_565
O10 Ta1 1.927770 1_555
O11 Ta1 1.927770 1_555
