# generated using pymatgen
data_BaGdFeCuO5
_symmetry_space_group_name_H-M   'P 1'
_cell_length_a   3.90637500
_cell_length_b   3.90637500
_cell_length_c   7.98996000
_cell_angle_alpha   90.00000000
_cell_angle_beta   90.00000000
_cell_angle_gamma   90.00000000
_symmetry_Int_Tables_number   1
_chemical_formula_structural   BaGdFeCuO5
_chemical_formula_sum   'Ba1 Gd1 Fe1 Cu1 O5'
_cell_volume   121.92491708
_cell_formula_units_Z   1
loop_
 _symmetry_equiv_pos_site_id
 _symmetry_equiv_pos_as_xyz
  1  'x, y, z'
loop_
 _atom_site_type_symbol
 _atom_site_label
 _atom_site_symmetry_multiplicity
 _atom_site_fract_x
 _atom_site_fract_y
 _atom_site_fract_z
 _atom_site_occupancy
  Ba  Ba0  1  0.50000000  0.50000000  0.74438500  1
  Gd  Gd0  1  0.50000000  0.50000000  0.20902200  1
  Fe  Fe0  1  0.00000000  0.00000000  0.45130800  1
  Cu  Cu0  1  0.00000000  0.00000000  0.99763500  1
  O  O0  1  0.50000000  0.00000000  0.01816900  1
  O  O1  1  0.00000000  0.50000000  0.01816900  1
  O  O2  1  0.50000000  0.00000000  0.38220700  1
  O  O3  1  0.00000000  0.50000000  0.38220700  1
  O  O4  1  0.00000000  0.00000000  0.68490000  1
loop_
_geom_bond_atom_site_label_1
_geom_bond_atom_site_label_2
_geom_bond_distance
_geom_bond_site_symmetry_2
Ba0 O4 2.802816 1_565
Ba0 O4 2.802816 1_665
Ba0 O4 2.802816 1_555
Ba0 O4 2.802816 1_655
Ba0 O1 2.932610 1_556
Ba0 O0 2.932610 1_566
Ba0 O1 2.932610 1_656
Ba0 O0 2.932610 1_556
Gd0 O3 2.393675 1_555
Gd0 O2 2.393675 1_555
Gd0 O2 2.393675 1_565
Gd0 O3 2.393675 1_655
Gd0 O0 2.477960 1_565
Gd0 O1 2.477960 1_655
Gd0 O0 2.477960 1_555
Gd0 O1 2.477960 1_555
Fe0 O4 1.866391 1_555
Fe0 O2 2.029722 1_455
Fe0 O3 2.029722 1_545
Fe0 O3 2.029722 1_555
Fe0 O2 2.029722 1_555
Cu0 O0 1.960066 1_556
Cu0 O1 1.960066 1_556
Cu0 O1 1.960066 1_546
Cu0 O0 1.960066 1_456
Cu0 O4 2.498740 1_555
