# generated using pymatgen
data_Li9Mn5O12
_symmetry_space_group_name_H-M   'P 1'
_cell_length_a   6.52817237
_cell_length_b   6.52814334
_cell_length_c   12.57544140
_cell_angle_alpha   101.81128197
_cell_angle_beta   78.19119390
_cell_angle_gamma   78.25868026
_symmetry_Int_Tables_number   1
_chemical_formula_structural   Li9Mn5O12
_chemical_formula_sum   'Li18 Mn10 O24'
_cell_volume   496.35062530
_cell_formula_units_Z   2
loop_
 _symmetry_equiv_pos_site_id
 _symmetry_equiv_pos_as_xyz
  1  'x, y, z'
loop_
 _atom_site_type_symbol
 _atom_site_label
 _atom_site_symmetry_multiplicity
 _atom_site_fract_x
 _atom_site_fract_y
 _atom_site_fract_z
 _atom_site_occupancy
  Li  Li0  1  0.54174500  0.20841800  0.91663800  1
  Li  Li1  1  0.74100400  0.00116000  0.57274900  1
  Li  Li2  1  0.91270800  0.41352900  0.75439700  1
  Li  Li3  1  0.33456300  0.40758500  0.76059800  1
  Li  Li4  1  0.65720700  0.32380800  0.66666400  1
  Li  Li5  1  0.54165000  0.20829800  0.41668100  1
  Li  Li6  1  0.42616400  0.09269800  0.16666300  1
  Li  Li7  1  0.74894000  0.00948900  0.07280400  1
  Li  Li8  1  0.17059800  0.00326100  0.07888600  1
  Li  Li9  1  0.08242700  0.34010700  0.89781500  1
  Li  Li10  1  0.74671500  0.57936600  0.57888700  1
  Li  Li11  1  0.34269900  0.41547500  0.26055700  1
  Li  Li12  1  0.04173800  0.70840600  0.91670700  1
  Li  Li13  1  0.00082600  0.07660000  0.93538200  1
  Li  Li14  1  0.40986200  0.66760500  0.39791700  1
  Li  Li15  1  0.04159100  0.70812000  0.41663700  1
  Li  Li16  1  0.67335200  0.74924200  0.43545700  1
  Li  Li17  1  0.33647100  0.83727800  0.25446200  1
  Mn  Mn0  1  0.22637100  0.06344600  0.58457900  1
  Mn  Mn1  1  0.04176500  0.20839400  0.41665100  1
  Mn  Mn2  1  0.85694800  0.35327600  0.24877500  1
  Mn  Mn3  1  0.21058300  0.53763900  0.58223100  1
  Mn  Mn4  1  0.54168400  0.70836700  0.91667800  1
  Mn  Mn5  1  0.68651200  0.52358800  0.08458200  1
  Mn  Mn6  1  0.21235800  0.53948700  0.08224700  1
  Mn  Mn7  1  0.87094900  0.87717100  0.75110500  1
  Mn  Mn8  1  0.39674800  0.89301800  0.74876200  1
  Mn  Mn9  1  0.87288700  0.87909000  0.25109900  1
  O  O0  1  0.63392200  0.09602400  0.74209300  1
  O  O1  1  0.14430300  0.12139000  0.75176000  1
  O  O2  1  0.65390600  0.11611600  0.24213500  1
  O  O3  1  0.12147600  0.13839200  0.25009700  1
  O  O4  1  0.96184100  0.27823500  0.58322600  1
  O  O5  1  0.42941500  0.30059400  0.59124300  1
  O  O6  1  0.78093700  0.47861900  0.92241800  1
  O  O7  1  0.29539900  0.47429600  0.92152100  1
  O  O8  1  0.81213600  0.44779100  0.41091000  1
  O  O9  1  0.27569400  0.45455400  0.42153000  1
  O  O10  1  0.93879400  0.29508300  0.08158900  1
  O  O11  1  0.61158900  0.62847200  0.75009400  1
  O  O12  1  0.10131600  0.62633000  0.74663300  1
  O  O13  1  0.44935500  0.32049500  0.09121900  1
  O  O14  1  0.78783300  0.94227200  0.91181600  1
  O  O15  1  0.30225000  0.93788000  0.91089400  1
  O  O16  1  0.62845900  0.60561400  0.25176700  1
  O  O17  1  0.12364700  0.64865300  0.24662200  1
  O  O18  1  0.95967800  0.76791600  0.58671300  1
  O  O19  1  0.45474400  0.81099900  0.58157200  1
  O  O20  1  0.98209400  0.79041300  0.08673000  1
  O  O21  1  0.47168600  0.78807400  0.08323600  1
  O  O22  1  0.80769600  0.96214800  0.41182800  1
  O  O23  1  0.27136200  0.96905100  0.42242300  1
loop_
_geom_bond_atom_site_label_1
_geom_bond_atom_site_label_2
_geom_bond_distance
_geom_bond_site_symmetry_2
Li0 O0 2.082976 1_555
Li0 O13 2.083236 1_556
Li0 O7 2.093462 1_555
Li0 O14 2.093859 1_545
Li0 O6 2.582604 1_555
Li0 O15 2.585842 1_545
Li1 O18 1.927328 1_545
Li1 O22 1.932062 1_545
Li1 O0 2.020368 1_555
Li1 O19 2.441578 1_545
Li1 O5 2.452496 1_555
Li1 O4 2.531584 1_555
Li2 O6 2.030961 1_555
Li2 O12 2.039086 1_655
Li2 O4 2.083327 1_555
Li2 O1 2.168903 1_655
Li2 O11 2.188164 1_555
Li3 O12 1.927623 1_555
Li3 O7 1.931950 1_555
Li3 O5 2.020450 1_555
Li3 O1 2.441638 1_555
Li3 O0 2.452046 1_555
Li3 O11 2.531575 1_555
Li4 O5 1.934952 1_555
Li4 O0 1.935060 1_555
Li4 O4 1.980344 1_555
Li4 O11 1.980391 1_555
Li5 O2 2.082924 1_555
Li5 O5 2.083100 1_555
Li5 O22 2.093548 1_545
Li5 O9 2.093581 1_555
Li5 O23 2.583327 1_545
Li5 O8 2.585569 1_555
Li6 O13 1.935171 1_555
Li6 O2 1.935247 1_555
Li6 O21 1.980256 1_545
Li6 O3 1.980506 1_555
Li7 O20 1.928321 1_545
Li7 O14 1.932924 1_544
Li7 O2 2.020038 1_555
Li7 O10 2.436485 1_555
Li7 O13 2.450869 1_555
Li7 O21 2.535276 1_545
Li8 O15 2.030329 1_544
Li8 O20 2.038903 1_445
Li8 O3 2.083605 1_555
Li8 O10 2.167833 1_455
Li8 O21 2.188948 1_545
Li9 O7 1.829659 1_555
Li9 O6 1.923280 1_455
Li9 O1 1.990814 1_555
Li9 O10 2.410356 1_456
Li10 O8 2.030030 1_555
Li10 O18 2.039715 1_555
Li10 O11 2.083593 1_555
Li10 O19 2.168043 1_555
Li10 O4 2.188930 1_555
Li11 O17 1.928375 1_555
Li11 O9 1.932612 1_555
Li11 O13 2.020128 1_555
Li11 O16 2.438679 1_555
Li11 O2 2.450799 1_555
Li11 O3 2.533451 1_555
Li12 O20 2.028688 1_456
Li12 O12 2.029341 1_555
Li12 O7 2.032347 1_555
Li12 O14 2.032808 1_455
Li12 O15 2.484461 1_555
Li12 O6 2.487486 1_455
Li13 O14 1.829939 1_445
Li13 O15 1.923416 1_545
Li13 O10 1.991341 1_456
Li13 O1 2.407800 1_555
Li14 O9 1.829791 1_555
Li14 O23 1.923168 1_555
Li14 O16 1.991254 1_555
Li14 O19 2.408245 1_555
Li15 O17 2.028690 1_555
Li15 O18 2.029252 1_455
Li15 O9 2.032253 1_555
Li15 O22 2.033095 1_455
Li15 O8 2.483393 1_455
Li15 O23 2.488094 1_555
Li16 O22 1.829682 1_555
Li16 O8 1.923548 1_555
Li16 O19 1.991168 1_555
Li16 O16 2.409004 1_555
Li17 O23 2.030245 1_555
Li17 O17 2.039346 1_555
Li17 O21 2.083825 1_555
Li17 O16 2.168190 1_555
Li17 O3 2.188558 1_565
Mn0 O23 1.947061 1_545
Mn0 O19 1.972687 1_545
Mn0 O1 1.995257 1_555
Mn0 O4 1.996213 1_455
Mn0 O5 2.233435 1_555
Mn1 O23 1.957281 1_545
Mn1 O8 1.957499 1_455
Mn1 O3 1.982876 1_555
Mn1 O4 1.983170 1_455
Mn1 O9 2.432074 1_555
Mn1 O22 2.433202 1_445
Mn2 O8 1.947016 1_555
Mn2 O16 1.972703 1_555
Mn2 O10 1.995166 1_555
Mn2 O3 1.996403 1_655
Mn2 O2 2.233483 1_555
Mn3 O9 1.914343 1_555
Mn3 O5 1.920067 1_555
Mn3 O12 1.963820 1_555
Mn3 O18 1.967567 1_455
Mn3 O4 2.573749 1_455
Mn3 O19 2.623645 1_555
Mn4 O6 1.957358 1_555
Mn4 O15 1.957387 1_555
Mn4 O21 1.982923 1_556
Mn4 O11 1.983258 1_555
Mn4 O14 2.431897 1_555
Mn4 O7 2.433420 1_555
Mn5 O6 1.947204 1_554
Mn5 O10 1.972514 1_555
Mn5 O16 1.995236 1_555
Mn5 O21 1.996101 1_555
Mn5 O13 2.233720 1_555
Mn6 O7 1.914615 1_554
Mn6 O13 1.920288 1_555
Mn6 O17 1.963445 1_555
Mn6 O20 1.967604 1_455
Mn6 O21 2.572584 1_555
Mn6 O10 2.625899 1_455
Mn7 O14 1.914476 1_555
Mn7 O0 1.920070 1_565
Mn7 O18 1.963693 1_555
Mn7 O12 1.967669 1_655
Mn7 O11 2.573310 1_555
Mn7 O1 2.623895 1_665
Mn8 O15 1.946945 1_555
Mn8 O1 1.972710 1_565
Mn8 O19 1.995326 1_555
Mn8 O11 1.996379 1_555
Mn8 O0 2.233394 1_565
Mn9 O22 1.914648 1_555
Mn9 O2 1.920333 1_565
Mn9 O20 1.963404 1_555
Mn9 O17 1.967566 1_655
Mn9 O3 2.572462 1_665
Mn9 O16 2.625555 1_555
