# generated using pymatgen
data_Mg14NiSb
_symmetry_space_group_name_H-M   'P 1'
_cell_length_a   6.24696543
_cell_length_b   6.30145820
_cell_length_c   10.26358269
_cell_angle_alpha   90.00000000
_cell_angle_beta   90.00000000
_cell_angle_gamma   120.28898437
_symmetry_Int_Tables_number   1
_chemical_formula_structural   Mg14NiSb
_chemical_formula_sum   'Mg14 Ni1 Sb1'
_cell_volume   348.87330153
_cell_formula_units_Z   1
loop_
 _symmetry_equiv_pos_site_id
 _symmetry_equiv_pos_as_xyz
  1  'x, y, z'
loop_
 _atom_site_type_symbol
 _atom_site_label
 _atom_site_symmetry_multiplicity
 _atom_site_fract_x
 _atom_site_fract_y
 _atom_site_fract_z
 _atom_site_occupancy
  Mg  Mg0  1  0.16842530  0.33421215  0.62500000  1
  Mg  Mg1  1  0.16927639  0.83463769  0.62500000  1
  Mg  Mg2  1  0.67287699  0.33734136  0.12500000  1
  Mg  Mg3  1  0.66504229  0.33111922  0.62500000  1
  Mg  Mg4  1  0.67287699  0.83553463  0.12500000  1
  Mg  Mg5  1  0.66504229  0.83392207  0.62500000  1
  Mg  Mg6  1  0.32899111  0.17319037  0.36313015  1
  Mg  Mg7  1  0.32899111  0.17319037  0.88686985  1
  Mg  Mg8  1  0.32899111  0.65580174  0.36313015  1
  Mg  Mg9  1  0.32899111  0.65580174  0.88686985  1
  Mg  Mg10  1  0.84181802  0.17090951  0.36547161  1
  Mg  Mg11  1  0.84181802  0.17090951  0.88452839  1
  Mg  Mg12  1  0.83087551  0.66543825  0.38006043  1
  Mg  Mg13  1  0.83087551  0.66543825  0.86993957  1
  Ni  Ni0  1  0.16437290  0.33218595  0.12500000  1
  Sb  Sb0  1  0.16073537  0.83036719  0.12500000  1
loop_
_geom_bond_atom_site_label_1
_geom_bond_atom_site_label_2
_geom_bond_distance
_geom_bond_site_symmetry_2
Mg0 Mg5 3.112224 1_555
Mg0 Mg3 3.112225 1_555
Mg0 Mg5 3.134831 1_445
Mg0 Mg3 3.134831 1_455
Mg0 Mg1 3.150732 1_555
Mg0 Mg1 3.150732 1_545
Mg0 Mg10 3.193610 1_455
Mg0 Mg11 3.193610 1_455
Mg0 Mg7 3.207205 1_555
Mg0 Mg6 3.207205 1_555
Mg0 Mg9 3.207211 1_555
Mg0 Mg8 3.207211 1_555
Mg1 Mg3 3.099309 1_565
Mg1 Mg5 3.099309 1_555
Mg1 Mg13 3.106780 1_455
Mg1 Mg12 3.106780 1_455
Mg1 Mg3 3.147661 1_455
Mg1 Mg5 3.147661 1_455
Mg1 Mg9 3.259366 1_555
Mg1 Mg8 3.259366 1_555
Mg1 Mg7 3.259373 1_565
Mg1 Mg6 3.259373 1_565
Mg2 Sb0 3.064186 1_655
Mg2 Mg6 3.068693 1_555
Mg2 Mg7 3.068693 1_554
Mg2 Ni0 3.086870 1_655
Mg2 Mg4 3.139344 1_555
Mg2 Ni0 3.160347 1_555
Mg2 Mg4 3.162114 1_545
Mg2 Sb0 3.183032 1_545
Mg3 Mg5 3.133067 1_545
Mg3 Mg5 3.168391 1_555
Mg3 Mg7 3.242513 1_555
Mg3 Mg6 3.242513 1_555
Mg4 Sb0 3.064187 1_655
Mg4 Mg8 3.068693 1_555
Mg4 Mg9 3.068693 1_554
Mg4 Ni0 3.086870 1_665
Mg4 Ni0 3.160347 1_555
Mg4 Sb0 3.183032 1_555
Mg5 Mg9 3.242513 1_555
Mg5 Mg8 3.242513 1_555
Mg6 Ni0 3.012329 1_555
Mg6 Sb0 3.074839 1_545
Mg7 Ni0 3.012329 1_556
Mg7 Sb0 3.074839 1_546
Mg8 Ni0 3.012335 1_555
Mg8 Sb0 3.074832 1_555
Mg9 Ni0 3.012335 1_556
Mg9 Sb0 3.074832 1_556
Mg10 Ni0 3.019746 1_655
Mg10 Mg2 3.069481 1_555
Mg10 Mg4 3.069487 1_545
Mg10 Mg12 3.154837 1_555
Mg10 Mg12 3.154837 1_545
Mg10 Mg3 3.233967 1_555
Mg10 Mg5 3.233973 1_545
Mg11 Ni0 3.019746 1_656
Mg11 Mg2 3.069481 1_556
Mg11 Mg4 3.069487 1_546
Mg11 Mg13 3.154837 1_555
Mg11 Mg13 3.154837 1_545
Mg11 Mg3 3.233967 1_555
Mg11 Mg5 3.233973 1_545
Mg12 Mg5 3.103198 1_555
Mg12 Mg3 3.103204 1_555
Mg12 Mg6 3.109928 1_555
Mg12 Mg8 3.109929 1_555
Mg12 Mg6 3.147575 1_665
Mg12 Mg8 3.147575 1_655
Mg12 Sb0 3.165293 1_655
Mg12 Mg4 3.169114 1_555
Mg12 Mg2 3.169120 1_555
Mg13 Mg5 3.103198 1_555
Mg13 Mg3 3.103204 1_555
Mg13 Mg7 3.109928 1_555
Mg13 Mg9 3.109929 1_555
Mg13 Mg7 3.147575 1_665
Mg13 Mg9 3.147575 1_655
Mg13 Sb0 3.165293 1_656
Mg13 Mg4 3.169114 1_556
Mg13 Mg2 3.169120 1_556
Ni0 Sb0 3.150790 1_545
Ni0 Sb0 3.150790 1_555
