# generated using pymatgen
data_Pr2CrS4
_symmetry_space_group_name_H-M   'P 1'
_cell_length_a   7.16323042
_cell_length_b   7.16323042
_cell_length_c   7.18201076
_cell_angle_alpha   60.73957832
_cell_angle_beta   60.73957832
_cell_angle_gamma   32.92397137
_symmetry_Int_Tables_number   1
_chemical_formula_structural   Pr2CrS4
_chemical_formula_sum   'Pr2 Cr1 S4'
_cell_volume   172.33301169
_cell_formula_units_Z   1
loop_
 _symmetry_equiv_pos_site_id
 _symmetry_equiv_pos_as_xyz
  1  'x, y, z'
loop_
 _atom_site_type_symbol
 _atom_site_label
 _atom_site_symmetry_multiplicity
 _atom_site_fract_x
 _atom_site_fract_y
 _atom_site_fract_z
 _atom_site_occupancy
  Pr  Pr0  1  0.71148200  0.71148200  0.29222600  1
  Pr  Pr1  1  0.28851800  0.28851800  0.70777400  1
  Cr  Cr0  1  0.00000000  0.00000000  0.00000000  1
  S  S0  1  0.89138900  0.89138900  0.39325900  1
  S  S1  1  0.10861100  0.10861100  0.60674100  1
  S  S2  1  0.63155600  0.63155600  0.99293600  1
  S  S3  1  0.36844400  0.36844400  0.00706400  1
loop_
_geom_bond_atom_site_label_1
_geom_bond_atom_site_label_2
_geom_bond_distance
_geom_bond_site_symmetry_2
Pr0 S1 2.822446 1_565
Pr0 S1 2.822446 1_655
Pr0 S2 2.869199 1_554
Pr0 S3 2.909213 1_565
Pr0 S3 2.909213 1_655
Pr0 S0 2.909376 1_555
Pr1 S0 2.822446 1_455
Pr1 S0 2.822446 1_545
Pr1 S3 2.869199 1_556
Pr1 S2 2.909213 1_455
Pr1 S2 2.909213 1_545
Pr1 S1 2.909376 1_555
Cr0 S1 2.430588 1_554
Cr0 S0 2.430588 1_445
Cr0 S3 2.701221 1_455
Cr0 S3 2.701221 1_545
Cr0 S2 2.701221 1_454
Cr0 S2 2.701221 1_544
