# generated using pymatgen
data_Cs2FeOF5
_symmetry_space_group_name_H-M   'P 1'
_cell_length_a   6.52865845
_cell_length_b   6.52865845
_cell_length_c   9.46977700
_cell_angle_alpha   90.00000000
_cell_angle_beta   90.00000000
_cell_angle_gamma   99.53289963
_symmetry_Int_Tables_number   1
_chemical_formula_structural   Cs2FeOF5
_chemical_formula_sum   'Cs4 Fe2 O2 F10'
_cell_volume   398.05999915
_cell_formula_units_Z   2
loop_
 _symmetry_equiv_pos_site_id
 _symmetry_equiv_pos_as_xyz
  1  'x, y, z'
loop_
 _atom_site_type_symbol
 _atom_site_label
 _atom_site_symmetry_multiplicity
 _atom_site_fract_x
 _atom_site_fract_y
 _atom_site_fract_z
 _atom_site_occupancy
  Cs  Cs0  1  0.21349600  0.78650400  0.50000000  1
  Cs  Cs1  1  0.21349600  0.78650400  0.00000000  1
  Cs  Cs2  1  0.78650400  0.21349600  0.50000000  1
  Cs  Cs3  1  0.78650400  0.21349600  0.00000000  1
  Fe  Fe0  1  0.27095500  0.27095500  0.25000000  1
  Fe  Fe1  1  0.72904500  0.72904500  0.75000000  1
  O  O0  1  0.51987200  0.51987200  0.25000000  1
  O  O1  1  0.48012800  0.48012800  0.75000000  1
  F  F0  1  0.49509400  0.10690500  0.25000000  1
  F  F1  1  0.89309500  0.50490600  0.75000000  1
  F  F2  1  0.50490600  0.89309500  0.75000000  1
  F  F3  1  0.10690500  0.49509400  0.25000000  1
  F  F4  1  0.04391100  0.04391100  0.25000000  1
  F  F5  1  0.95608900  0.95608900  0.75000000  1
  F  F6  1  0.29805000  0.29805000  0.45414400  1
  F  F7  1  0.70195000  0.70195000  0.54585600  1
  F  F8  1  0.29805000  0.29805000  0.04585600  1
  F  F9  1  0.70195000  0.70195000  0.95414400  1
loop_
_geom_bond_atom_site_label_1
_geom_bond_atom_site_label_2
_geom_bond_distance
_geom_bond_site_symmetry_2
Cs0 F2 3.044684 1_555
Cs0 F3 3.044684 1_555
Cs0 F4 3.204847 1_565
Cs0 F5 3.204847 1_455
Cs0 F6 3.322094 1_565
Cs0 F7 3.322094 1_455
Cs0 F7 3.353473 1_555
Cs0 F6 3.353473 1_555
Cs0 F1 3.476565 1_455
Cs0 F0 3.476565 1_565
Cs1 F2 3.044684 1_554
Cs1 F3 3.044684 1_555
Cs1 F4 3.204847 1_565
Cs1 F5 3.204847 1_454
Cs1 F8 3.322094 1_565
Cs1 F9 3.322094 1_454
Cs1 F9 3.353473 1_554
Cs1 F8 3.353473 1_555
Cs1 F1 3.476565 1_454
Cs1 F0 3.476565 1_565
Cs2 F1 3.044684 1_555
Cs2 F0 3.044684 1_555
Cs2 F4 3.204847 1_655
Cs2 F5 3.204847 1_545
Cs2 F6 3.322094 1_655
Cs2 F7 3.322094 1_545
Cs2 F7 3.353473 1_555
Cs2 F6 3.353473 1_555
Cs2 F3 3.476565 1_655
Cs2 F2 3.476565 1_545
Cs3 F1 3.044684 1_554
Cs3 F0 3.044684 1_555
Cs3 F4 3.204847 1_655
Cs3 F5 3.204847 1_544
Cs3 F8 3.322094 1_655
Cs3 F9 3.322094 1_544
Cs3 F9 3.353473 1_554
Cs3 F8 3.353473 1_555
Cs3 F3 3.476565 1_655
Cs3 F2 3.476565 1_544
Fe0 O0 2.099312 1_555
Fe1 O1 2.099312 1_555
F0 Fe0 1.951293 1_555
F1 Fe1 1.951293 1_555
F2 Fe1 1.951293 1_555
F3 Fe0 1.951293 1_555
F4 Fe0 1.914840 1_555
F5 Fe1 1.914840 1_555
F6 Fe0 1.946657 1_555
F7 Fe1 1.946657 1_555
F8 Fe0 1.946657 1_555
F9 Fe1 1.946657 1_555
