# generated using pymatgen
data_LaMg
_symmetry_space_group_name_H-M   'P 1'
_cell_length_a   13.05698676
_cell_length_b   13.05698676
_cell_length_c   16.77219179
_cell_angle_alpha   73.63800625
_cell_angle_beta   73.63800625
_cell_angle_gamma   32.45261594
_symmetry_Int_Tables_number   1
_chemical_formula_structural   LaMg
_chemical_formula_sum   'La24 Mg24'
_cell_volume   1466.83855044
_cell_formula_units_Z   24
loop_
 _symmetry_equiv_pos_site_id
 _symmetry_equiv_pos_as_xyz
  1  'x, y, z'
loop_
 _atom_site_type_symbol
 _atom_site_label
 _atom_site_symmetry_multiplicity
 _atom_site_fract_x
 _atom_site_fract_y
 _atom_site_fract_z
 _atom_site_occupancy
  La  La0_0  1  0.30821600  0.30821600  0.12399700  1
  La  La0_1  1  0.30821600  0.30821600  0.62399700  1
  La  La0_2  1  0.30821600  0.80821600  0.12399700  1
  La  La0_3  1  0.30821600  0.80821600  0.62399700  1
  La  La0_4  1  0.80821600  0.30821600  0.12399700  1
  La  La0_5  1  0.80821600  0.30821600  0.62399700  1
  La  La0_6  1  0.80821600  0.80821600  0.12399700  1
  La  La0_7  1  0.80821600  0.80821600  0.62399700  1
  La  La1_0  1  0.16060900  0.16060900  0.17587400  1
  La  La1_1  1  0.16060900  0.16060900  0.67587400  1
  La  La1_2  1  0.16060900  0.66060900  0.17587400  1
  La  La1_3  1  0.16060900  0.66060900  0.67587400  1
  La  La1_4  1  0.66060900  0.16060900  0.17587400  1
  La  La1_5  1  0.66060900  0.16060900  0.67587400  1
  La  La1_6  1  0.66060900  0.66060900  0.17587400  1
  La  La1_7  1  0.66060900  0.66060900  0.67587400  1
  La  La2_0  1  0.47887050  0.47887050  0.30136350  1
  La  La2_1  1  0.47887050  0.47887050  0.80136350  1
  La  La2_2  1  0.47887050  0.97887050  0.30136350  1
  La  La2_3  1  0.47887050  0.97887050  0.80136350  1
  La  La2_4  1  0.97887050  0.47887050  0.30136350  1
  La  La2_5  1  0.97887050  0.47887050  0.80136350  1
  La  La2_6  1  0.97887050  0.97887050  0.30136350  1
  La  La2_7  1  0.97887050  0.97887050  0.80136350  1
  Mg  Mg0_0  1  0.49650150  0.49650150  0.49682150  1
  Mg  Mg0_1  1  0.49650150  0.49650150  0.99682150  1
  Mg  Mg0_2  1  0.49650150  0.99650150  0.49682150  1
  Mg  Mg0_3  1  0.49650150  0.99650150  0.99682150  1
  Mg  Mg0_4  1  0.99650150  0.49650150  0.49682150  1
  Mg  Mg0_5  1  0.99650150  0.49650150  0.99682150  1
  Mg  Mg0_6  1  0.99650150  0.99650150  0.49682150  1
  Mg  Mg0_7  1  0.99650150  0.99650150  0.99682150  1
  Mg  Mg1_0  1  0.33245900  0.33245900  0.35472700  1
  Mg  Mg1_1  1  0.33245900  0.33245900  0.85472700  1
  Mg  Mg1_2  1  0.33245900  0.83245900  0.35472700  1
  Mg  Mg1_3  1  0.33245900  0.83245900  0.85472700  1
  Mg  Mg1_4  1  0.83245900  0.33245900  0.35472700  1
  Mg  Mg1_5  1  0.83245900  0.33245900  0.85472700  1
  Mg  Mg1_6  1  0.83245900  0.83245900  0.35472700  1
  Mg  Mg1_7  1  0.83245900  0.83245900  0.85472700  1
  Mg  Mg2_0  1  0.14001050  0.14001050  0.46388300  1
  Mg  Mg2_1  1  0.14001050  0.14001050  0.96388300  1
  Mg  Mg2_2  1  0.14001050  0.64001050  0.46388300  1
  Mg  Mg2_3  1  0.14001050  0.64001050  0.96388300  1
  Mg  Mg2_4  1  0.64001050  0.14001050  0.46388300  1
  Mg  Mg2_5  1  0.64001050  0.14001050  0.96388300  1
  Mg  Mg2_6  1  0.64001050  0.64001050  0.46388300  1
  Mg  Mg2_7  1  0.64001050  0.64001050  0.96388300  1
loop_
_geom_bond_atom_site_label_1
_geom_bond_atom_site_label_2
_geom_bond_distance
_geom_bond_site_symmetry_2
La0_0 Mg2_5 3.393238 1_554
La0_0 Mg2_3 3.393238 1_554
La0_0 La1_4 3.462257 1_555
La0_0 La1_2 3.462257 1_555
La0_0 Mg0_3 3.494132 1_544
La0_0 Mg0_5 3.494132 1_454
La0_0 La1_0 3.544756 1_555
La0_0 La2_4 3.558482 1_455
La0_0 La2_2 3.558482 1_545
La0_0 La0_6 3.648540 1_545
La0_0 La0_6 3.648540 1_455
La0_0 Mg1_0 4.089686 1_555
La0_1 Mg2_4 3.393238 1_555
La0_1 Mg2_2 3.393238 1_555
La0_1 La1_5 3.462257 1_555
La0_1 La1_3 3.462257 1_555
La0_1 Mg0_4 3.494132 1_455
La0_1 Mg0_2 3.494132 1_545
La0_1 La1_1 3.544756 1_555
La0_1 La2_5 3.558482 1_455
La0_1 La2_3 3.558482 1_545
La0_1 La0_7 3.648540 1_545
La0_1 La0_7 3.648540 1_455
La0_1 Mg1_1 4.089686 1_555
La0_2 Mg2_1 3.393238 1_564
La0_2 Mg2_7 3.393238 1_554
La0_2 La1_6 3.462257 1_555
La0_2 La1_0 3.462257 1_565
La0_2 Mg0_1 3.494132 1_554
La0_2 Mg0_7 3.494132 1_454
La0_2 La1_2 3.544756 1_555
La0_2 La2_0 3.558482 1_555
La0_2 La2_6 3.558482 1_455
La0_2 La0_4 3.648540 1_465
La0_2 La0_4 3.648540 1_555
La0_2 Mg1_2 4.089686 1_555
La0_3 Mg2_6 3.393238 1_555
La0_3 Mg2_0 3.393238 1_565
La0_3 La1_7 3.462257 1_555
La0_3 La1_1 3.462257 1_565
La0_3 Mg0_6 3.494132 1_455
La0_3 Mg0_0 3.494132 1_555
La0_3 La1_3 3.544756 1_555
La0_3 La2_1 3.558482 1_555
La0_3 La2_7 3.558482 1_455
La0_3 La0_5 3.648540 1_555
La0_3 La0_5 3.648540 1_465
La0_3 Mg1_3 4.089686 1_555
La0_4 Mg2_1 3.393238 1_654
La0_4 Mg2_7 3.393238 1_554
La0_4 La1_6 3.462257 1_555
La0_4 La1_0 3.462257 1_655
La0_4 Mg0_1 3.494132 1_554
La0_4 Mg0_7 3.494132 1_544
La0_4 La1_4 3.544756 1_555
La0_4 La2_0 3.558482 1_555
La0_4 La2_6 3.558482 1_545
La0_4 Mg1_4 4.089686 1_555
La0_5 Mg2_6 3.393238 1_555
La0_5 Mg2_0 3.393238 1_655
La0_5 La1_7 3.462257 1_555
La0_5 La1_1 3.462257 1_655
La0_5 Mg0_6 3.494132 1_545
La0_5 Mg0_0 3.494132 1_555
La0_5 La1_5 3.544756 1_555
La0_5 La2_1 3.558482 1_555
La0_5 La2_7 3.558482 1_545
La0_5 Mg1_5 4.089686 1_555
La0_6 Mg2_5 3.393238 1_564
La0_6 Mg2_3 3.393238 1_654
La0_6 La1_4 3.462257 1_565
La0_6 La1_2 3.462257 1_655
La0_6 Mg0_3 3.494132 1_554
La0_6 Mg0_5 3.494132 1_554
La0_6 La1_6 3.544756 1_555
La0_6 La2_2 3.558482 1_555
La0_6 La2_4 3.558482 1_555
La0_6 Mg1_6 4.089686 1_555
La0_7 Mg2_2 3.393238 1_655
La0_7 Mg2_4 3.393238 1_565
La0_7 La1_5 3.462257 1_565
La0_7 La1_3 3.462257 1_655
La0_7 Mg0_2 3.494132 1_555
La0_7 Mg0_4 3.494132 1_555
La0_7 La1_7 3.544756 1_555
La0_7 La2_3 3.558482 1_555
La0_7 La2_5 3.558482 1_555
La0_7 Mg1_7 4.089686 1_555
La1_0 Mg1_4 3.566095 1_455
La1_0 Mg1_2 3.566095 1_545
La1_0 La2_2 3.577873 1_545
La1_0 La2_4 3.577873 1_455
La1_0 Mg0_3 3.631760 1_544
La1_0 Mg0_5 3.631760 1_454
La1_0 La1_6 3.648540 1_545
La1_0 La1_6 3.648540 1_455
La1_0 Mg2_1 3.739823 1_554
La1_1 Mg1_5 3.566095 1_455
La1_1 Mg1_3 3.566095 1_545
La1_1 La2_5 3.577873 1_455
La1_1 La2_3 3.577873 1_545
La1_1 Mg0_2 3.631760 1_545
La1_1 Mg0_4 3.631760 1_455
La1_1 La1_7 3.648540 1_455
La1_1 La1_7 3.648540 1_545
La1_1 Mg2_0 3.739823 1_555
La1_2 Mg1_0 3.566095 1_555
La1_2 Mg1_6 3.566095 1_455
La1_2 La2_6 3.577873 1_455
La1_2 La2_0 3.577873 1_555
La1_2 Mg0_1 3.631760 1_554
La1_2 Mg0_7 3.631760 1_454
La1_2 La1_4 3.648540 1_555
La1_2 La1_4 3.648540 1_465
La1_2 Mg2_3 3.739823 1_554
La1_3 Mg1_1 3.566095 1_555
La1_3 Mg1_7 3.566095 1_455
La1_3 La2_7 3.577873 1_455
La1_3 La2_1 3.577873 1_555
La1_3 Mg0_0 3.631760 1_555
La1_3 Mg0_6 3.631760 1_455
La1_3 La1_5 3.648540 1_555
La1_3 La1_5 3.648540 1_465
La1_3 Mg2_2 3.739823 1_555
La1_4 Mg1_0 3.566095 1_555
La1_4 Mg1_6 3.566095 1_545
La1_4 La2_6 3.577873 1_545
La1_4 La2_0 3.577873 1_555
La1_4 Mg0_1 3.631760 1_554
La1_4 Mg0_7 3.631760 1_544
La1_4 Mg2_5 3.739823 1_554
La1_5 Mg1_1 3.566095 1_555
La1_5 Mg1_7 3.566095 1_545
La1_5 La2_7 3.577873 1_545
La1_5 La2_1 3.577873 1_555
La1_5 Mg0_0 3.631760 1_555
La1_5 Mg0_6 3.631760 1_545
La1_5 Mg2_4 3.739823 1_555
La1_6 Mg1_4 3.566095 1_555
La1_6 Mg1_2 3.566095 1_555
La1_6 La2_4 3.577873 1_555
La1_6 La2_2 3.577873 1_555
La1_6 Mg0_3 3.631760 1_554
La1_6 Mg0_5 3.631760 1_554
La1_6 Mg2_7 3.739823 1_554
La1_7 Mg1_3 3.566095 1_555
La1_7 Mg1_5 3.566095 1_555
La1_7 La2_5 3.577873 1_555
La1_7 La2_3 3.577873 1_555
La1_7 Mg0_4 3.631760 1_555
La1_7 Mg0_2 3.631760 1_555
La1_7 Mg2_6 3.739823 1_555
La2_0 Mg0_0 3.434065 1_555
La2_0 Mg2_2 3.486908 1_555
La2_0 Mg2_4 3.486908 1_555
La2_0 Mg1_4 3.498478 1_555
La2_0 Mg1_2 3.498478 1_555
La2_0 Mg1_0 3.514245 1_555
La2_0 La2_6 3.648540 1_545
La2_0 La2_6 3.648540 1_455
La2_1 Mg0_1 3.434065 1_555
La2_1 Mg2_5 3.486908 1_555
La2_1 Mg2_3 3.486908 1_555
La2_1 Mg1_3 3.498478 1_555
La2_1 Mg1_5 3.498478 1_555
La2_1 Mg1_1 3.514245 1_555
La2_1 La2_7 3.648540 1_455
La2_1 La2_7 3.648540 1_545
La2_2 Mg0_2 3.434065 1_555
La2_2 Mg2_0 3.486908 1_565
La2_2 Mg2_6 3.486908 1_555
La2_2 Mg1_6 3.498478 1_555
La2_2 Mg1_0 3.498478 1_565
La2_2 Mg1_2 3.514245 1_555
La2_2 La2_4 3.648540 1_465
La2_2 La2_4 3.648540 1_555
La2_3 Mg0_3 3.434065 1_555
La2_3 Mg2_7 3.486908 1_555
La2_3 Mg2_1 3.486908 1_565
La2_3 Mg1_7 3.498478 1_555
La2_3 Mg1_1 3.498478 1_565
La2_3 Mg1_3 3.514245 1_555
La2_3 La2_5 3.648540 1_555
La2_3 La2_5 3.648540 1_465
La2_4 Mg0_4 3.434065 1_555
La2_4 Mg2_6 3.486908 1_555
La2_4 Mg2_0 3.486908 1_655
La2_4 Mg1_6 3.498478 1_555
La2_4 Mg1_0 3.498478 1_655
La2_4 Mg1_4 3.514245 1_555
La2_5 Mg0_5 3.434065 1_555
La2_5 Mg2_7 3.486908 1_555
La2_5 Mg2_1 3.486908 1_655
La2_5 Mg1_7 3.498478 1_555
La2_5 Mg1_1 3.498478 1_655
La2_5 Mg1_5 3.514245 1_555
La2_6 Mg0_6 3.434065 1_555
La2_6 Mg2_4 3.486908 1_565
La2_6 Mg2_2 3.486908 1_655
La2_6 Mg1_2 3.498478 1_655
La2_6 Mg1_4 3.498478 1_565
La2_6 Mg1_6 3.514245 1_555
La2_7 Mg0_7 3.434065 1_555
La2_7 Mg2_3 3.486908 1_655
La2_7 Mg2_5 3.486908 1_565
La2_7 Mg1_3 3.498478 1_655
La2_7 Mg1_5 3.498478 1_565
La2_7 Mg1_7 3.514245 1_555
Mg0_0 Mg1_4 3.261741 1_555
Mg0_0 Mg1_2 3.261741 1_555
Mg0_0 Mg2_4 3.410032 1_555
Mg0_0 Mg2_2 3.410032 1_555
Mg0_0 Mg2_6 3.476572 1_555
Mg0_1 Mg1_3 3.261741 1_555
Mg0_1 Mg1_5 3.261741 1_555
Mg0_1 Mg2_5 3.410032 1_555
Mg0_1 Mg2_3 3.410032 1_555
Mg0_1 Mg2_7 3.476572 1_555
Mg0_2 Mg1_6 3.261741 1_555
Mg0_2 Mg1_0 3.261741 1_565
Mg0_2 Mg2_6 3.410032 1_555
Mg0_2 Mg2_0 3.410032 1_565
Mg0_2 Mg2_4 3.476572 1_565
Mg0_3 Mg1_7 3.261741 1_555
Mg0_3 Mg1_1 3.261741 1_565
Mg0_3 Mg2_7 3.410032 1_555
Mg0_3 Mg2_1 3.410032 1_565
Mg0_3 Mg2_5 3.476572 1_565
Mg0_4 Mg1_6 3.261741 1_555
Mg0_4 Mg1_0 3.261741 1_655
Mg0_4 Mg2_6 3.410032 1_555
Mg0_4 Mg2_0 3.410032 1_655
Mg0_4 Mg2_2 3.476572 1_655
Mg0_5 Mg1_7 3.261741 1_555
Mg0_5 Mg1_1 3.261741 1_655
Mg0_5 Mg2_7 3.410032 1_555
Mg0_5 Mg2_1 3.410032 1_655
Mg0_5 Mg2_3 3.476572 1_655
Mg0_6 Mg1_2 3.261741 1_655
Mg0_6 Mg1_4 3.261741 1_565
Mg0_6 Mg2_2 3.410032 1_655
Mg0_6 Mg2_4 3.410032 1_565
Mg0_6 Mg2_0 3.476572 1_665
Mg0_7 Mg1_3 3.261741 1_655
Mg0_7 Mg1_5 3.261741 1_565
Mg0_7 Mg2_3 3.410032 1_655
Mg0_7 Mg2_5 3.410032 1_565
Mg0_7 Mg2_1 3.476572 1_665
Mg1_0 Mg2_2 3.211275 1_555
Mg1_0 Mg2_4 3.211275 1_555
Mg1_1 Mg2_3 3.211275 1_555
Mg1_1 Mg2_5 3.211275 1_555
Mg1_2 Mg2_0 3.211275 1_565
Mg1_2 Mg2_6 3.211275 1_555
Mg1_3 Mg2_1 3.211275 1_565
Mg1_3 Mg2_7 3.211275 1_555
Mg1_4 Mg2_6 3.211275 1_555
Mg1_4 Mg2_0 3.211275 1_655
Mg1_5 Mg2_1 3.211275 1_655
Mg1_5 Mg2_7 3.211275 1_555
Mg1_6 Mg2_4 3.211275 1_565
Mg1_6 Mg2_2 3.211275 1_655
Mg1_7 Mg2_5 3.211275 1_565
Mg1_7 Mg2_3 3.211275 1_655
