# generated using pymatgen
data_Zr(WO4)2
_symmetry_space_group_name_H-M   'P 1'
_cell_length_a   9.36435300
_cell_length_b   9.36435300
_cell_length_c   9.36435300
_cell_angle_alpha   90.00000000
_cell_angle_beta   90.00000000
_cell_angle_gamma   90.00000000
_symmetry_Int_Tables_number   1
_chemical_formula_structural   Zr(WO4)2
_chemical_formula_sum   'Zr4 W8 O32'
_cell_volume   821.17048193
_cell_formula_units_Z   4
loop_
 _symmetry_equiv_pos_site_id
 _symmetry_equiv_pos_as_xyz
  1  'x, y, z'
loop_
 _atom_site_type_symbol
 _atom_site_label
 _atom_site_symmetry_multiplicity
 _atom_site_fract_x
 _atom_site_fract_y
 _atom_site_fract_z
 _atom_site_occupancy
  Zr  Zr0  1  0.00157200  0.00157200  0.00157200  1
  Zr  Zr1  1  0.49842800  0.99842800  0.50157200  1
  Zr  Zr2  1  0.50157200  0.49842800  0.99842800  1
  Zr  Zr3  1  0.99842800  0.50157200  0.49842800  1
  W  W0  1  0.65491000  0.84509000  0.15491000  1
  W  W1  1  0.84509000  0.15491000  0.65491000  1
  W  W2  1  0.15491000  0.65491000  0.84509000  1
  W  W3  1  0.34509000  0.34509000  0.34509000  1
  W  W4  1  0.59910400  0.59910400  0.59910400  1
  W  W5  1  0.90089600  0.40089600  0.09910400  1
  W  W6  1  0.09910400  0.90089600  0.40089600  1
  W  W7  1  0.40089600  0.09910400  0.90089600  1
  O  O0  1  0.76290900  0.73709100  0.26290900  1
  O  O1  1  0.73709100  0.26290900  0.76290900  1
  O  O2  1  0.26290900  0.76290900  0.73709100  1
  O  O3  1  0.23709100  0.23709100  0.23709100  1
  O  O4  1  0.51072700  0.98927300  0.01072700  1
  O  O5  1  0.98927300  0.01072700  0.51072700  1
  O  O6  1  0.01072700  0.51072700  0.98927300  1
  O  O7  1  0.48927300  0.48927300  0.48927300  1
  O  O8  1  0.71400500  0.43255500  0.05461100  1
  O  O9  1  0.21400500  0.06744500  0.94538900  1
  O  O10  1  0.28599500  0.93255500  0.44538900  1
  O  O11  1  0.06744500  0.94538900  0.21400500  1
  O  O12  1  0.20486800  0.44125500  0.44697600  1
  O  O13  1  0.44697600  0.20486800  0.44125500  1
  O  O14  1  0.44125500  0.44697600  0.20486800  1
  O  O15  1  0.05874500  0.55302400  0.70486800  1
  O  O16  1  0.94697600  0.29513200  0.55874500  1
  O  O17  1  0.55874500  0.94697600  0.29513200  1
  O  O18  1  0.05302400  0.79513200  0.94125500  1
  O  O19  1  0.55302400  0.70486800  0.05874500  1
  O  O20  1  0.94125500  0.05302400  0.79513200  1
  O  O21  1  0.70486800  0.05874500  0.55302400  1
  O  O22  1  0.79513200  0.94125500  0.05302400  1
  O  O23  1  0.29513200  0.55874500  0.94697600  1
  O  O24  1  0.78599500  0.56744500  0.55461100  1
  O  O25  1  0.55461100  0.78599500  0.56744500  1
  O  O26  1  0.56744500  0.55461100  0.78599500  1
  O  O27  1  0.93255500  0.44538900  0.28599500  1
  O  O28  1  0.05461100  0.71400500  0.43255500  1
  O  O29  1  0.43255500  0.05461100  0.71400500  1
  O  O30  1  0.94538900  0.21400500  0.06744500  1
  O  O31  1  0.44538900  0.28599500  0.93255500  1
loop_
_geom_bond_atom_site_label_1
_geom_bond_atom_site_label_2
_geom_bond_distance
_geom_bond_site_symmetry_2
O0 W0 1.751694 1_555
O1 W1 1.751694 1_555
O2 W2 1.751694 1_555
O3 W3 1.751694 1_555
O4 W7 1.781408 1_564
O4 W0 2.338581 1_555
O5 W6 1.781408 1_645
O5 W1 2.338581 1_555
O6 W5 1.781408 1_456
O6 W2 2.338581 1_555
O7 W4 1.781408 1_555
O7 W3 2.338581 1_555
O8 W5 1.823289 1_555
O8 Zr2 2.148166 1_554
O9 W7 1.823289 1_555
O9 Zr0 2.148166 1_556
O10 W6 1.823289 1_555
O10 Zr1 2.148166 1_555
O11 W6 1.823289 1_555
O11 Zr0 2.148166 1_565
O12 W3 1.856190 1_555
O12 Zr3 2.070834 1_455
O13 W3 1.856190 1_555
O13 Zr1 2.070834 1_545
O14 W3 1.856190 1_555
O14 Zr2 2.070834 1_554
O15 W2 1.856190 1_555
O15 Zr3 2.070834 1_455
O16 W1 1.856190 1_555
O16 Zr3 2.070834 1_555
O17 W0 1.856190 1_555
O17 Zr1 2.070834 1_555
O18 W2 1.856190 1_555
O18 Zr0 2.070834 1_566
O19 W0 1.856190 1_555
O19 Zr2 2.070834 1_554
O20 W1 1.856190 1_555
O20 Zr0 2.070834 1_656
O21 W1 1.856190 1_555
O21 Zr1 2.070834 1_545
O22 W0 1.856190 1_555
O22 Zr0 2.070834 1_665
O23 W2 1.856190 1_555
O23 Zr2 2.070834 1_555
O24 W4 1.823289 1_555
O24 Zr3 2.148166 1_555
O25 W4 1.823289 1_555
O25 Zr1 2.148166 1_555
O26 W4 1.823289 1_555
O26 Zr2 2.148166 1_555
O27 W5 1.823289 1_555
O27 Zr3 2.148166 1_555
O28 W6 1.823289 1_555
O28 Zr3 2.148166 1_455
O29 W7 1.823289 1_555
O29 Zr1 2.148166 1_545
O30 W5 1.823289 1_555
O30 Zr0 2.148166 1_655
O31 W7 1.823289 1_555
O31 Zr2 2.148166 1_555
