# generated using pymatgen
data_LiTbF2
_symmetry_space_group_name_H-M   'P 1'
_cell_length_a   7.91604460
_cell_length_b   7.91604460
_cell_length_c   7.91604460
_cell_angle_alpha   131.76349408
_cell_angle_beta   131.76349408
_cell_angle_gamma   70.60281972
_symmetry_Int_Tables_number   1
_chemical_formula_structural   LiTbF2
_chemical_formula_sum   'Li4 Tb4 F8'
_cell_volume   270.38487151
_cell_formula_units_Z   4
loop_
 _symmetry_equiv_pos_site_id
 _symmetry_equiv_pos_as_xyz
  1  'x, y, z'
loop_
 _atom_site_type_symbol
 _atom_site_label
 _atom_site_symmetry_multiplicity
 _atom_site_fract_x
 _atom_site_fract_y
 _atom_site_fract_z
 _atom_site_occupancy
  Li  Li0  1  0.37500000  0.12500000  0.25000000  1
  Li  Li1  1  0.87500000  0.12500000  0.75000000  1
  Li  Li2  1  0.87500000  0.12500000  0.25000000  1
  Li  Li3  1  0.87500000  0.62500000  0.75000000  1
  Tb  Tb0  1  0.87500000  0.62500000  0.25000000  1
  Tb  Tb1  1  0.37500000  0.62500000  0.75000000  1
  Tb  Tb2  1  0.37500000  0.62500000  0.25000000  1
  Tb  Tb3  1  0.37500000  0.12500000  0.75000000  1
  F  F0  1  0.19150300  0.45515600  0.26365300  1
  F  F1  1  0.19150300  0.92785000  0.73634700  1
  F  F2  1  0.20515600  0.44150300  0.76365300  1
  F  F3  1  0.55849700  0.79484400  0.23634700  1
  F  F4  1  0.67785000  0.44150300  0.23634700  1
  F  F5  1  0.55849700  0.32215000  0.76365300  1
  F  F6  1  0.54484400  0.80849700  0.73634700  1
  F  F7  1  0.07215000  0.80849700  0.26365300  1
loop_
_geom_bond_atom_site_label_1
_geom_bond_atom_site_label_2
_geom_bond_distance
_geom_bond_site_symmetry_2
F0 Tb2 2.372598 1_555
F0 Tb0 2.385789 1_455
F0 Tb1 2.385789 1_555
F0 Li1 2.502678 1_454
F0 Li0 2.502678 1_555
F1 Tb3 2.372598 1_565
F1 Tb0 2.385789 1_455
F1 Tb1 2.385789 1_555
F1 Li1 2.502678 1_465
F1 Li0 2.502678 1_566
F2 Tb1 2.372598 1_555
F2 Tb3 2.385789 1_555
F2 Tb2 2.385789 1_556
F2 Li2 2.502678 1_455
F2 Li3 2.502678 1_455
F3 Tb2 2.372598 1_555
F3 Tb1 2.385789 1_554
F3 Tb0 2.385789 1_555
F3 Li0 2.502678 1_565
F3 Li1 2.502678 1_565
F4 Tb0 2.372598 1_555
F4 Tb2 2.385789 1_555
F4 Tb3 2.385789 1_554
F4 Li2 2.502678 1_555
F4 Li3 2.502678 1_555
F5 Tb3 2.372598 1_555
F5 Tb1 2.385789 1_555
F5 Tb0 2.385789 1_556
F5 Li0 2.502678 1_555
F5 Li1 2.502678 1_555
F6 Tb1 2.372598 1_555
F6 Tb2 2.385789 1_555
F6 Tb3 2.385789 1_565
F6 Li3 2.502678 1_555
F6 Li2 2.502678 1_566
F7 Tb0 2.372598 1_455
F7 Tb2 2.385789 1_555
F7 Tb3 2.385789 1_565
F7 Li3 2.502678 1_454
F7 Li2 2.502678 1_465
