# generated using pymatgen
data_Na3MnN2
_symmetry_space_group_name_H-M   'P 1'
_cell_length_a   9.50226100
_cell_length_b   10.97226503
_cell_length_c   10.97226475
_cell_angle_alpha   90.00000061
_cell_angle_beta   125.26438965
_cell_angle_gamma   54.73561139
_symmetry_Int_Tables_number   1
_chemical_formula_structural   Na3MnN2
_chemical_formula_sum   'Na24 Mn8 N16'
_cell_volume   660.47884451
_cell_formula_units_Z   8
loop_
 _symmetry_equiv_pos_site_id
 _symmetry_equiv_pos_as_xyz
  1  'x, y, z'
loop_
 _atom_site_type_symbol
 _atom_site_label
 _atom_site_symmetry_multiplicity
 _atom_site_fract_x
 _atom_site_fract_y
 _atom_site_fract_z
 _atom_site_occupancy
  Na  Na0  1  0.18660600  0.06699000  0.95272100  1
  Na  Na1  1  0.81339400  0.75359600  0.54727900  1
  Na  Na2  1  0.81339400  0.43301000  0.76611500  1
  Na  Na3  1  0.18660600  0.74640400  0.73388500  1
  Na  Na4  1  0.28116200  0.76611500  0.30087500  1
  Na  Na5  1  0.71883800  0.73388500  0.01971100  1
  Na  Na6  1  0.28116200  0.95272100  0.48028900  1
  Na  Na7  1  0.71883800  0.54727900  0.19912500  1
  Na  Na8  1  0.67941400  0.01971100  0.74640400  1
  Na  Na9  1  0.67941400  0.30087500  0.43301000  1
  Na  Na10  1  0.32058600  0.19912500  0.75359600  1
  Na  Na11  1  0.32058600  0.48028900  0.06699000  1
  Na  Na12  1  0.81339400  0.93301000  0.04727900  1
  Na  Na13  1  0.18660600  0.24640400  0.45272100  1
  Na  Na14  1  0.18660600  0.56699000  0.23388500  1
  Na  Na15  1  0.81339400  0.25359600  0.26611500  1
  Na  Na16  1  0.71883800  0.23388500  0.69912500  1
  Na  Na17  1  0.28116200  0.26611500  0.98028900  1
  Na  Na18  1  0.71883800  0.04727900  0.51971100  1
  Na  Na19  1  0.28116200  0.45272100  0.80087500  1
  Na  Na20  1  0.32058600  0.98028900  0.25359600  1
  Na  Na21  1  0.32058600  0.69912500  0.56699000  1
  Na  Na22  1  0.67941400  0.80087500  0.24640400  1
  Na  Na23  1  0.67941400  0.51971100  0.93301000  1
  Mn  Mn0  1  0.21063900  0.00000000  0.71063900  1
  Mn  Mn1  1  0.78936100  0.71063900  0.78936100  1
  Mn  Mn2  1  0.78936100  0.50000000  0.50000000  1
  Mn  Mn3  1  0.21063900  0.78936100  0.00000000  1
  Mn  Mn4  1  0.78936100  0.00000000  0.28936100  1
  Mn  Mn5  1  0.21063900  0.28936100  0.21063900  1
  Mn  Mn6  1  0.21063900  0.50000000  0.50000000  1
  Mn  Mn7  1  0.78936100  0.21063900  0.00000000  1
  N  N0  1  0.00000000  0.00000000  0.50000000  1
  N  N1  1  0.00000000  0.50000000  0.00000000  1
  N  N2  1  0.00000000  0.50000000  0.50000000  1
  N  N3  1  0.00000000  0.00000000  0.00000000  1
  N  N4  1  0.50000000  0.92742700  0.75000000  1
  N  N5  1  0.50000000  0.57257300  0.25000000  1
  N  N6  1  0.00000000  0.25000000  0.67742700  1
  N  N7  1  0.00000000  0.75000000  0.82257300  1
  N  N8  1  0.64514400  0.67742700  0.57257300  1
  N  N9  1  0.35485600  0.82257300  0.92742700  1
  N  N10  1  0.50000000  0.07257300  0.25000000  1
  N  N11  1  0.50000000  0.42742700  0.75000000  1
  N  N12  1  0.00000000  0.75000000  0.32257300  1
  N  N13  1  0.00000000  0.25000000  0.17742700  1
  N  N14  1  0.35485600  0.32257300  0.42742700  1
  N  N15  1  0.64514400  0.17742700  0.07257300  1
loop_
_geom_bond_atom_site_label_1
_geom_bond_atom_site_label_2
_geom_bond_distance
_geom_bond_site_symmetry_2
Mn0 N0 2.001547 1_555
Mn0 N9 2.116930 1_545
Mn0 N6 2.116940 1_555
Mn0 N4 2.116940 1_545
Mn1 N1 2.001547 1_656
Mn1 N7 2.116940 1_655
Mn1 N4 2.116940 1_555
Mn1 N8 2.116942 1_555
Mn2 N2 2.001547 1_655
Mn2 N6 2.116940 1_655
Mn2 N5 2.116940 1_555
Mn2 N8 2.116947 1_555
Mn3 N3 2.001547 1_565
Mn3 N5 2.116940 1_555
Mn3 N7 2.116940 1_554
Mn3 N9 2.116959 1_554
Mn4 N0 2.001547 1_655
Mn4 N15 2.116930 1_555
Mn4 N12 2.116940 1_645
Mn4 N10 2.116940 1_555
Mn5 N1 2.001547 1_555
Mn5 N13 2.116940 1_555
Mn5 N10 2.116940 1_555
Mn5 N14 2.116942 1_555
Mn6 N2 2.001547 1_555
Mn6 N12 2.116940 1_555
Mn6 N11 2.116940 1_555
Mn6 N14 2.116947 1_555
Mn7 N3 2.001547 1_655
Mn7 N11 2.116940 1_554
Mn7 N13 2.116940 1_655
Mn7 N15 2.116959 1_555
N0 Na6 2.553541 1_545
N0 Na18 2.553541 1_455
N0 Na15 2.553560 1_455
N0 Na3 2.553560 1_545
N0 Na21 2.553560 1_545
N0 Na9 2.553560 1_455
N1 Na5 2.553550 1_455
N1 Na17 2.553550 1_554
N1 Na14 2.553560 1_555
N1 Na2 2.553560 1_454
N1 Na11 2.553560 1_555
N1 Na23 2.553560 1_454
N2 Na7 2.553556 1_455
N2 Na19 2.553556 1_555
N2 Na22 2.553560 1_455
N2 Na10 2.553560 1_555
N2 Na1 2.553560 1_455
N2 Na13 2.553560 1_555
N3 Na20 2.553560 1_545
N3 Na8 2.553560 1_454
N3 Na0 2.553560 1_554
N3 Na12 2.553560 1_445
N3 Na4 2.553565 1_545
N3 Na16 2.553565 1_454
N4 Na5 2.320906 1_556
N4 Na6 2.320914 1_555
N4 Na10 2.450368 1_565
N4 Na8 2.450368 1_565
N5 Na4 2.320922 1_555
N5 Na7 2.320931 1_555
N5 Na9 2.450368 1_555
N5 Na11 2.450368 1_555
N6 Na9 2.320913 1_455
N6 Na10 2.320913 1_555
N6 Na0 2.450368 1_555
N6 Na2 2.450368 1_455
N7 Na11 2.320913 1_556
N7 Na8 2.320913 1_465
N7 Na1 2.450368 1_455
N7 Na3 2.450368 1_555
N8 Na2 2.320903 1_555
N8 Na1 2.320931 1_555
N8 Na4 2.450368 1_555
N8 Na6 2.450368 1_555
N9 Na0 2.320914 1_565
N9 Na3 2.320920 1_555
N9 Na7 2.450368 1_556
N9 Na5 2.450368 1_556
N10 Na17 2.320906 1_554
N10 Na18 2.320914 1_555
N10 Na22 2.450368 1_545
N10 Na20 2.450368 1_545
N11 Na16 2.320922 1_555
N11 Na19 2.320931 1_555
N11 Na21 2.450368 1_555
N11 Na23 2.450368 1_555
N12 Na21 2.320913 1_555
N12 Na22 2.320913 1_455
N12 Na12 2.450368 1_455
N12 Na14 2.450368 1_555
N13 Na23 2.320913 1_454
N13 Na20 2.320913 1_545
N13 Na13 2.450368 1_555
N13 Na15 2.450368 1_455
N14 Na14 2.320903 1_555
N14 Na13 2.320931 1_555
N14 Na16 2.450368 1_555
N14 Na18 2.450368 1_555
N15 Na12 2.320914 1_545
N15 Na15 2.320920 1_555
N15 Na19 2.450368 1_554
N15 Na17 2.450368 1_554
