# generated using pymatgen
data_Li9Mn2Co5O16
_symmetry_space_group_name_H-M   'P 1'
_cell_length_a   2.88452900
_cell_length_b   8.40660000
_cell_length_c   11.82026144
_cell_angle_alpha   89.68605649
_cell_angle_beta   90.00000000
_cell_angle_gamma   90.00000000
_symmetry_Int_Tables_number   1
_chemical_formula_structural   Li9Mn2Co5O16
_chemical_formula_sum   'Li9 Mn2 Co5 O16'
_cell_volume   286.62618015
_cell_formula_units_Z   1
loop_
 _symmetry_equiv_pos_site_id
 _symmetry_equiv_pos_as_xyz
  1  'x, y, z'
loop_
 _atom_site_type_symbol
 _atom_site_label
 _atom_site_symmetry_multiplicity
 _atom_site_fract_x
 _atom_site_fract_y
 _atom_site_fract_z
 _atom_site_occupancy
  Li  Li0  1  0.50000000  0.74941300  0.88071300  1
  Li  Li1  1  0.50000000  0.25227700  0.62823100  1
  Li  Li2  1  0.50000000  0.74848600  0.37362900  1
  Li  Li3  1  0.00000000  0.50929000  0.00409300  1
  Li  Li4  1  0.00000000  0.99710800  0.75169100  1
  Li  Li5  1  0.00000000  0.50467300  0.49970200  1
  Li  Li6  1  0.50000000  0.25390800  0.12208200  1
  Li  Li7  1  0.00000000  0.98580500  0.24457900  1
  Li  Li8  1  0.50000000  0.74965900  0.12154200  1
  Mn  Mn0  1  0.00000000  0.99030100  0.00208200  1
  Mn  Mn1  1  0.50000000  0.25369400  0.37426400  1
  Co  Co0  1  0.00000000  0.50090500  0.75130300  1
  Co  Co1  1  0.00000000  0.99744800  0.50093200  1
  Co  Co2  1  0.00000000  0.52792800  0.24249800  1
  Co  Co3  1  0.50000000  0.25129300  0.87548600  1
  Co  Co4  1  0.50000000  0.74646300  0.62380000  1
  O  O0  1  0.50000000  0.00424500  0.88724500  1
  O  O1  1  0.50000000  0.50357700  0.63374300  1
  O  O2  1  0.50000000  0.01621800  0.39022200  1
  O  O3  1  0.00000000  0.77244600  0.99944500  1
  O  O4  1  0.00000000  0.25259700  0.75450700  1
  O  O5  1  0.00000000  0.75065500  0.50497800  1
  O  O6  1  0.50000000  0.49481300  0.13310500  1
  O  O7  1  0.00000000  0.24182200  0.26594100  1
  O  O8  1  0.50000000  0.49394100  0.86781600  1
  O  O9  1  0.50000000  0.99542100  0.61077100  1
  O  O10  1  0.50000000  0.47795600  0.36634900  1
  O  O11  1  0.00000000  0.23329700  0.99420700  1
  O  O12  1  0.00000000  0.74668200  0.74198700  1
  O  O13  1  0.00000000  0.25365400  0.48600800  1
  O  O14  1  0.50000000  0.00286000  0.11191100  1
  O  O15  1  0.00000000  0.74116800  0.25513900  1
loop_
_geom_bond_atom_site_label_1
_geom_bond_atom_site_label_2
_geom_bond_distance
_geom_bond_site_symmetry_2
Li0 O3 2.022437 1_555
Li0 O3 2.022437 1_655
Li0 O0 2.144084 1_565
Li0 O8 2.153888 1_555
Li0 O12 2.184019 1_655
Li0 O12 2.184019 1_555
Li1 O4 2.075591 1_555
Li1 O4 2.075591 1_655
Li1 O1 2.113940 1_555
Li1 O9 2.170251 1_545
Li1 O13 2.214992 1_655
Li1 O13 2.214992 1_555
Li2 O15 2.011588 1_655
Li2 O15 2.011588 1_555
Li2 O5 2.119262 1_555
Li2 O5 2.119262 1_655
Li2 O2 2.260316 1_565
Li2 O10 2.276336 1_555
Li3 O6 2.101998 1_455
Li3 O6 2.101998 1_555
Li3 O8 2.166524 1_554
Li3 O8 2.166524 1_454
Li3 O3 2.212628 1_554
Li3 O11 2.323743 1_554
Li4 O12 2.108981 1_555
Li4 O4 2.148234 1_565
Li4 O0 2.156871 1_565
Li4 O0 2.156871 1_465
Li4 O9 2.203447 1_555
Li4 O9 2.203447 1_455
Li5 O5 2.069154 1_555
Li5 O13 2.117299 1_555
Li5 O1 2.142516 1_455
Li5 O1 2.142516 1_555
Li5 O10 2.149202 1_555
Li5 O10 2.149202 1_455
Li6 O6 2.030091 1_555
Li6 O11 2.097069 1_554
Li6 O11 2.097069 1_654
Li6 O14 2.114539 1_555
Li6 O7 2.231612 1_655
Li6 O7 2.231612 1_555
Li7 O15 2.059667 1_555
Li7 O14 2.134802 1_565
Li7 O14 2.134802 1_465
Li7 O7 2.168368 1_565
Li7 O2 2.261418 1_465
Li7 O2 2.261418 1_565
Li8 O3 2.048578 1_654
Li8 O3 2.048578 1_554
Li8 O14 2.130979 1_565
Li8 O15 2.139557 1_555
Li8 O15 2.139557 1_655
Li8 O6 2.145996 1_555
Mn0 O3 1.831856 1_554
Mn0 O14 1.943738 1_565
Mn0 O14 1.943738 1_465
Mn0 O0 1.983600 1_464
Mn0 O0 1.983600 1_564
Mn0 O11 2.044380 1_564
Mn1 O10 1.887089 1_555
Mn1 O7 1.931561 1_655
Mn1 O7 1.931561 1_555
Mn1 O13 1.955697 1_655
Mn1 O13 1.955697 1_555
Mn1 O2 2.004228 1_555
Co0 O8 1.994841 1_555
Co0 O8 1.994841 1_455
Co0 O1 2.002810 1_455
Co0 O1 2.002810 1_555
Co0 O12 2.068479 1_555
Co0 O4 2.087562 1_555
Co1 O9 1.940573 1_455
Co1 O9 1.940573 1_555
Co1 O2 1.953267 1_565
Co1 O2 1.953267 1_465
Co1 O5 2.074979 1_555
Co1 O13 2.160070 1_565
Co2 O15 1.799656 1_555
Co2 O6 1.957947 1_455
Co2 O6 1.957947 1_555
Co2 O10 2.095953 1_555
Co2 O10 2.095953 1_455
Co2 O7 2.419580 1_555
Co3 O11 2.017418 1_655
Co3 O11 2.017418 1_555
Co3 O4 2.031006 1_555
Co3 O4 2.031006 1_655
Co3 O8 2.041362 1_555
Co3 O0 2.080720 1_555
Co4 O12 2.007927 1_655
Co4 O12 2.007927 1_555
Co4 O5 2.013322 1_555
Co4 O5 2.013322 1_655
Co4 O1 2.044582 1_555
Co4 O9 2.097707 1_555
