# generated using pymatgen
data_Ba3AlO4
_symmetry_space_group_name_H-M   'P 1'
_cell_length_a   10.56528774
_cell_length_b   8.25199242
_cell_length_c   7.30677798
_cell_angle_alpha   89.99999514
_cell_angle_beta   89.99999813
_cell_angle_gamma   90.00000000
_symmetry_Int_Tables_number   1
_chemical_formula_structural   Ba3AlO4
_chemical_formula_sum   'Ba12 Al4 O16'
_cell_volume   637.03905870
_cell_formula_units_Z   4
loop_
 _symmetry_equiv_pos_site_id
 _symmetry_equiv_pos_as_xyz
  1  'x, y, z'
loop_
 _atom_site_type_symbol
 _atom_site_label
 _atom_site_symmetry_multiplicity
 _atom_site_fract_x
 _atom_site_fract_y
 _atom_site_fract_z
 _atom_site_occupancy
  Ba  Ba0  1  0.33619172  0.52641937  0.89746538  1
  Ba  Ba1  1  0.83619224  0.97358056  0.60253508  1
  Ba  Ba2  1  0.66380728  0.02641907  0.10253606  1
  Ba  Ba3  1  0.16380840  0.47358030  0.39746573  1
  Ba  Ba4  1  0.66380734  0.47358100  0.10253593  1
  Ba  Ba5  1  0.16380843  0.02641982  0.39746587  1
  Ba  Ba6  1  0.33619177  0.97358072  0.89746546  1
  Ba  Ba7  1  0.83619221  0.52641946  0.60253498  1
  Ba  Ba8  1  0.46378881  0.75000001  0.40407960  1
  Ba  Ba9  1  0.96378958  0.74999994  0.09591999  1
  Ba  Ba10  1  0.53621009  0.25000010  0.59592065  1
  Ba  Ba11  1  0.03621124  0.25000003  0.90408025  1
  Al  Al0  1  0.10441177  0.74999993  0.68789747  1
  Al  Al1  1  0.60441006  0.75000008  0.81209837  1
  Al  Al2  1  0.89558910  0.25000005  0.31209915  1
  Al  Al3  1  0.39558806  0.25000002  0.18790138  1
  O  O0  1  0.07232177  0.56722693  0.80309212  1
  O  O1  1  0.57231989  0.93277336  0.69690680  1
  O  O2  1  0.92767929  0.06722663  0.19690739  1
  O  O3  1  0.42767852  0.43277345  0.30309347  1
  O  O4  1  0.92767929  0.43277334  0.19690747  1
  O  O5  1  0.42767847  0.06722697  0.30309343  1
  O  O6  1  0.07232178  0.93277307  0.80309214  1
  O  O7  1  0.57231983  0.56722656  0.69690675  1
  O  O8  1  0.01306629  0.75000000  0.48271216  1
  O  O9  1  0.51306176  0.74999999  0.01728395  1
  O  O10  1  0.98693774  0.25000000  0.51728417  1
  O  O11  1  0.48693747  0.25000010  0.98271686  1
  O  O12  1  0.26746513  0.74999995  0.62807892  1
  O  O13  1  0.76746305  0.75000004  0.87192001  1
  O  O14  1  0.73253610  0.25000006  0.37192142  1
  O  O15  1  0.23253550  0.25000009  0.12807957  1
loop_
_geom_bond_atom_site_label_1
_geom_bond_atom_site_label_2
_geom_bond_distance
_geom_bond_site_symmetry_2
Ba0 O9 2.768109 1_556
Ba0 O12 2.793851 1_555
Ba0 O11 2.850900 1_555
Ba0 O0 2.891551 1_555
Ba0 O7 2.912857 1_555
Ba0 O15 3.040026 1_556
Ba0 O3 3.211817 1_556
Ba1 O8 2.768147 1_655
Ba1 O13 2.793850 1_555
Ba1 O10 2.850899 1_565
Ba1 O1 2.891573 1_555
Ba1 O6 2.912864 1_655
Ba1 O14 3.040025 1_565
Ba1 O2 3.211815 1_565
Ba2 O11 2.768111 1_554
Ba2 O14 2.793854 1_555
Ba2 O9 2.850899 1_545
Ba2 O2 2.891569 1_555
Ba2 O5 2.912859 1_555
Ba2 O13 3.040030 1_544
Ba2 O1 3.211826 1_544
Ba3 O10 2.768111 1_455
Ba3 O15 2.793849 1_555
Ba3 O8 2.850873 1_555
Ba3 O3 2.891551 1_555
Ba3 O4 2.912864 1_455
Ba3 O12 3.040026 1_555
Ba3 O0 3.211806 1_555
Ba4 O11 2.768110 1_554
Ba4 O14 2.793854 1_555
Ba4 O9 2.850898 1_555
Ba4 O4 2.891569 1_555
Ba4 O3 2.912860 1_555
Ba4 O13 3.040030 1_554
Ba4 O7 3.211825 1_554
Ba5 O10 2.768110 1_455
Ba5 O15 2.793850 1_555
Ba5 O8 2.850874 1_545
Ba5 O5 2.891550 1_555
Ba5 O2 2.912865 1_455
Ba5 O12 3.040027 1_545
Ba5 O6 3.211805 1_545
Ba6 O9 2.768109 1_556
Ba6 O12 2.793853 1_555
Ba6 O11 2.850900 1_565
Ba6 O6 2.891552 1_555
Ba6 O1 2.912857 1_555
Ba6 O15 3.040027 1_566
Ba6 O5 3.211816 1_566
Ba7 O8 2.768147 1_655
Ba7 O13 2.793851 1_555
Ba7 O10 2.850899 1_555
Ba7 O7 2.891573 1_555
Ba7 O0 2.912865 1_655
Ba7 O14 3.040024 1_555
Ba7 O4 3.211814 1_555
Ba8 O12 2.642197 1_555
Ba8 O3 2.746388 1_555
Ba8 O5 2.746391 1_565
Ba8 O7 2.857905 1_555
Ba8 O1 2.857905 1_555
Ba8 O9 2.873775 1_555
Ba9 O13 2.642223 1_554
Ba9 O4 2.746391 1_555
Ba9 O2 2.746392 1_565
Ba9 O0 2.857912 1_654
Ba9 O6 2.857913 1_654
Ba9 O8 2.873757 1_655
Ba10 O14 2.642216 1_555
Ba10 O7 2.746386 1_555
Ba10 O1 2.746389 1_545
Ba10 O5 2.857907 1_555
Ba10 O3 2.857907 1_555
Ba10 O11 2.873778 1_555
Ba11 O15 2.642202 1_556
Ba11 O0 2.746395 1_555
Ba11 O6 2.746395 1_545
Ba11 O2 2.857909 1_456
Ba11 O4 2.857909 1_456
Ba11 O10 2.873779 1_455
Al0 O0 1.760171 1_555
Al0 O6 1.760172 1_555
Al0 O12 1.777289 1_555
Al0 O8 1.783012 1_555
Al1 O1 1.760163 1_555
Al1 O7 1.760165 1_555
Al1 O13 1.777290 1_555
Al1 O9 1.783030 1_556
Al2 O4 1.760163 1_555
Al2 O2 1.760164 1_555
Al2 O14 1.777292 1_555
Al2 O10 1.783028 1_555
Al3 O5 1.760163 1_555
Al3 O3 1.760166 1_555
Al3 O15 1.777286 1_555
Al3 O11 1.783030 1_554
