# generated using pymatgen
data_NaSrPrWO6
_symmetry_space_group_name_H-M   'P 1'
_cell_length_a   8.44491849
_cell_length_b   8.45405176
_cell_length_c   8.46674679
_cell_angle_alpha   90.00000000
_cell_angle_beta   90.00000000
_cell_angle_gamma   90.00000000
_symmetry_Int_Tables_number   1
_chemical_formula_structural   NaSrPrWO6
_chemical_formula_sum   'Na4 Sr4 Pr4 W4 O24'
_cell_volume   604.47304091
_cell_formula_units_Z   4
loop_
 _symmetry_equiv_pos_site_id
 _symmetry_equiv_pos_as_xyz
  1  'x, y, z'
loop_
 _atom_site_type_symbol
 _atom_site_label
 _atom_site_symmetry_multiplicity
 _atom_site_fract_x
 _atom_site_fract_y
 _atom_site_fract_z
 _atom_site_occupancy
  Na  Na0  1  0.00000000  0.00000000  -0.00000000  1
  Na  Na1  1  0.50000000  0.50000000  0.50000000  1
  Na  Na2  1  0.00000000  0.50000000  0.50000000  1
  Na  Na3  1  0.50000000  0.00000000  -0.00000000  1
  Sr  Sr0  1  0.50000000  0.00000000  0.50000000  1
  Sr  Sr1  1  0.50000000  0.50000000  -0.00000000  1
  Sr  Sr2  1  0.00000000  0.50000000  -0.00000000  1
  Sr  Sr3  1  0.00000000  0.00000000  0.50000000  1
  Pr  Pr0  1  0.75000000  0.75000000  0.75000000  1
  Pr  Pr1  1  0.25000000  0.25000000  0.75000000  1
  Pr  Pr2  1  0.25000000  0.75000000  0.25000000  1
  Pr  Pr3  1  0.75000000  0.25000000  0.25000000  1
  W  W0  1  0.25000000  0.25000000  0.25000000  1
  W  W1  1  0.75000000  0.75000000  0.25000000  1
  W  W2  1  0.75000000  0.25000000  0.75000000  1
  W  W3  1  0.25000000  0.75000000  0.75000000  1
  O  O0  1  0.02458122  0.20233870  0.27920926  1
  O  O1  1  0.97541878  0.79766130  0.27920926  1
  O  O2  1  0.97541878  0.20233870  0.72079074  1
  O  O3  1  0.02458122  0.79766130  0.72079074  1
  O  O4  1  0.29349872  0.02556882  0.21334554  1
  O  O5  1  0.29349872  0.97443118  0.78665446  1
  O  O6  1  0.70650128  0.97443118  0.21334554  1
  O  O7  1  0.70650128  0.02556882  0.78665446  1
  O  O8  1  0.21504446  0.29139845  0.02335896  1
  O  O9  1  0.78495554  0.29139845  0.97664104  1
  O  O10  1  0.21504446  0.70860155  0.97664104  1
  O  O11  1  0.78495554  0.70860155  0.02335896  1
  O  O12  1  0.47541878  0.29766130  0.22079074  1
  O  O13  1  0.52458122  0.70233870  0.22079074  1
  O  O14  1  0.52458122  0.29766130  0.77920926  1
  O  O15  1  0.47541878  0.70233870  0.77920926  1
  O  O16  1  0.20650128  0.47443118  0.28665446  1
  O  O17  1  0.20650128  0.52556882  0.71334554  1
  O  O18  1  0.79349872  0.52556882  0.28665446  1
  O  O19  1  0.79349872  0.47443118  0.71334554  1
  O  O20  1  0.28495554  0.20860155  0.47664104  1
  O  O21  1  0.71504446  0.20860155  0.52335896  1
  O  O22  1  0.28495554  0.79139845  0.52335896  1
  O  O23  1  0.71504446  0.79139845  0.47664104  1
loop_
_geom_bond_atom_site_label_1
_geom_bond_atom_site_label_2
_geom_bond_distance
_geom_bond_site_symmetry_2
Na0 O0 2.925346 1_555
Na0 O2 2.925346 1_454
Na0 O3 2.925346 1_544
Na0 O1 2.925346 1_445
Na0 O10 3.066906 1_544
Na0 O9 3.066906 1_454
Na0 O11 3.066906 1_445
Na0 O8 3.066906 1_555
Na0 O5 3.074560 1_544
Na0 O7 3.074560 1_454
Na0 O4 3.074560 1_555
Na0 O6 3.074560 1_445
Na1 O15 2.925346 1_555
Na1 O13 2.925346 1_555
Na1 O12 2.925346 1_555
Na1 O14 2.925346 1_555
Na1 O22 3.066906 1_555
Na1 O20 3.066906 1_555
Na1 O23 3.066906 1_555
Na1 O21 3.066906 1_555
Na1 O18 3.074560 1_555
Na1 O16 3.074560 1_555
Na1 O19 3.074560 1_555
Na1 O17 3.074560 1_555
Na2 O19 2.520067 1_455
Na2 O17 2.520067 1_555
Na2 O16 2.520067 1_555
Na2 O18 2.520067 1_455
Na3 O5 2.520067 1_544
Na3 O7 2.520067 1_554
Na3 O4 2.520067 1_555
Na3 O6 2.520067 1_545
O0 W0 1.961472 1_555
O0 Pr3 2.366521 1_455
O0 Sr3 2.542393 1_555
O1 W1 1.961472 1_555
O1 Pr2 2.366521 1_655
O1 Sr3 2.542393 1_665
O2 W2 1.961472 1_555
O2 Pr1 2.366521 1_655
O2 Sr3 2.542393 1_655
O3 W3 1.961472 1_555
O3 Pr0 2.366521 1_455
O3 Sr3 2.542393 1_565
O4 W0 1.957346 1_555
O4 Pr2 2.378788 1_545
O4 Sr0 2.996388 1_555
O5 W3 1.957346 1_555
O5 Pr1 2.378788 1_565
O5 Sr0 2.996388 1_565
O6 W1 1.957346 1_555
O6 Pr3 2.378788 1_565
O6 Sr0 2.996388 1_565
O7 W2 1.957346 1_555
O7 Pr0 2.378788 1_545
O7 Sr0 2.996388 1_555
O8 W0 1.972778 1_555
O8 Pr1 2.359314 1_554
O8 Sr2 2.539118 1_555
O8 Sr1 2.989989 1_555
O9 W2 1.972778 1_555
O9 Pr3 2.359314 1_556
O9 Sr2 2.539118 1_656
O9 Sr1 2.989989 1_556
O10 W3 1.972778 1_555
O10 Pr2 2.359314 1_556
O10 Sr2 2.539118 1_556
O10 Sr1 2.989989 1_556
O11 W1 1.972778 1_555
O11 Pr0 2.359314 1_554
O11 Sr2 2.539118 1_655
O11 Sr1 2.989989 1_555
O12 W0 1.961472 1_555
O12 Pr3 2.366521 1_555
O12 Sr1 2.542393 1_555
O13 W1 1.961472 1_555
O13 Pr2 2.366521 1_555
O13 Sr1 2.542393 1_555
O14 W2 1.961472 1_555
O14 Pr1 2.366521 1_555
O14 Sr1 2.542393 1_556
O15 W3 1.961472 1_555
O15 Pr0 2.366521 1_555
O15 Sr1 2.542393 1_556
O16 W0 1.957346 1_555
O16 Pr2 2.378788 1_555
O16 Sr2 2.996388 1_555
O17 W3 1.957346 1_555
O17 Pr1 2.378788 1_555
O17 Sr2 2.996388 1_556
O18 W1 1.957346 1_555
O18 Pr3 2.378788 1_555
O18 Sr2 2.996388 1_655
O19 W2 1.957346 1_555
O19 Pr0 2.378788 1_555
O19 Sr2 2.996388 1_656
O20 W0 1.972778 1_555
O20 Pr1 2.359314 1_555
O20 Sr0 2.539118 1_555
O20 Sr3 2.989989 1_555
O21 W2 1.972778 1_555
O21 Pr3 2.359314 1_555
O21 Sr0 2.539118 1_555
O21 Sr3 2.989989 1_655
O22 W3 1.972778 1_555
O22 Pr2 2.359314 1_555
O22 Sr0 2.539118 1_565
O22 Sr3 2.989989 1_565
O23 W1 1.972778 1_555
O23 Pr0 2.359314 1_555
O23 Sr0 2.539118 1_565
O23 Sr3 2.989989 1_665
