# generated using pymatgen
data_Be17Os3
_symmetry_space_group_name_H-M   'P 1'
_cell_length_a   9.76637598
_cell_length_b   9.76637598
_cell_length_c   9.76637598
_cell_angle_alpha   109.47122063
_cell_angle_beta   109.47122063
_cell_angle_gamma   109.47122063
_symmetry_Int_Tables_number   1
_chemical_formula_structural   Be17Os3
_chemical_formula_sum   'Be68 Os12'
_cell_volume   717.09786160
_cell_formula_units_Z   4
loop_
 _symmetry_equiv_pos_site_id
 _symmetry_equiv_pos_as_xyz
  1  'x, y, z'
loop_
 _atom_site_type_symbol
 _atom_site_label
 _atom_site_symmetry_multiplicity
 _atom_site_fract_x
 _atom_site_fract_y
 _atom_site_fract_z
 _atom_site_occupancy
  Be  Be0  1  0.59715298  -0.00000000  0.59715298  1
  Be  Be1  1  0.40284702  0.00000000  0.40284702  1
  Be  Be2  1  0.00000000  0.59715298  0.59715298  1
  Be  Be3  1  0.00000000  0.40284702  0.40284702  1
  Be  Be4  1  0.59715298  0.59715298  -0.00000000  1
  Be  Be5  1  0.40284702  0.40284702  -0.00000000  1
  Be  Be6  1  0.30480578  0.50000000  0.80480578  1
  Be  Be7  1  0.69519422  0.50000000  0.19519422  1
  Be  Be8  1  0.50000000  0.80480578  0.30480578  1
  Be  Be9  1  0.50000000  0.19519422  0.69519422  1
  Be  Be10  1  0.80480578  0.30480578  0.50000000  1
  Be  Be11  1  0.19519422  0.69519422  0.50000000  1
  Be  Be12  1  -0.00000000  -0.00000000  0.67165801  1
  Be  Be13  1  0.67165801  -0.00000000  0.00000000  1
  Be  Be14  1  -0.00000000  0.67165801  0.00000000  1
  Be  Be15  1  0.32834199  0.32834199  0.32834199  1
  Be  Be16  1  0.00000000  -0.00000000  0.32834199  1
  Be  Be17  1  0.32834199  0.00000000  -0.00000000  1
  Be  Be18  1  -0.00000000  0.32834199  -0.00000000  1
  Be  Be19  1  0.67165801  0.67165801  0.67165801  1
  Be  Be20  1  0.09289499  0.86005774  0.76716276  1
  Be  Be21  1  0.90710501  0.13994226  0.23283724  1
  Be  Be22  1  0.90710501  0.67426777  0.76716276  1
  Be  Be23  1  0.09289499  0.32573223  0.23283724  1
  Be  Be24  1  0.86005774  0.76716276  0.09289499  1
  Be  Be25  1  0.13994226  0.23283724  0.90710501  1
  Be  Be26  1  0.67426777  0.76716276  0.90710501  1
  Be  Be27  1  0.32573223  0.23283724  0.09289499  1
  Be  Be28  1  0.76716276  0.09289499  0.86005774  1
  Be  Be29  1  0.23283724  0.90710501  0.13994226  1
  Be  Be30  1  0.76716276  0.90710501  0.67426777  1
  Be  Be31  1  0.23283724  0.09289499  0.32573223  1
  Be  Be32  1  0.34933937  0.94476735  0.59542698  1
  Be  Be33  1  0.65066063  0.05523265  0.40457302  1
  Be  Be34  1  0.65066063  0.24608761  0.59542698  1
  Be  Be35  1  0.34933937  0.75391239  0.40457302  1
  Be  Be36  1  0.94476735  0.59542698  0.34933937  1
  Be  Be37  1  0.05523265  0.40457302  0.65066063  1
  Be  Be38  1  0.24608761  0.59542698  0.65066063  1
  Be  Be39  1  0.75391239  0.40457302  0.34933937  1
  Be  Be40  1  0.59542698  0.34933937  0.94476735  1
  Be  Be41  1  0.40457302  0.65066063  0.05523265  1
  Be  Be42  1  0.59542698  0.65066063  0.24608761  1
  Be  Be43  1  0.40457302  0.34933937  0.75391239  1
  Be  Be44  1  0.13970364  0.22601916  0.68420344  1
  Be  Be45  1  0.45818428  0.77398084  0.91368548  1
  Be  Be46  1  0.86029636  0.54449881  0.08631452  1
  Be  Be47  1  0.54181572  0.45550119  0.31579656  1
  Be  Be48  1  0.22601916  0.68420344  0.13970364  1
  Be  Be49  1  0.77398084  0.91368548  0.45818428  1
  Be  Be50  1  0.54449881  0.08631452  0.86029636  1
  Be  Be51  1  0.45550119  0.31579656  0.54181572  1
  Be  Be52  1  0.68420344  0.13970364  0.22601916  1
  Be  Be53  1  0.91368548  0.45818428  0.77398084  1
  Be  Be54  1  0.08631452  0.86029636  0.54449881  1
  Be  Be55  1  0.31579656  0.54181572  0.45550119  1
  Be  Be56  1  0.86029636  0.77398084  0.31579656  1
  Be  Be57  1  0.54181572  0.22601916  0.08631452  1
  Be  Be58  1  0.13970364  0.45550119  0.91368548  1
  Be  Be59  1  0.45818428  0.54449881  0.68420344  1
  Be  Be60  1  0.77398084  0.31579656  0.86029636  1
  Be  Be61  1  0.22601916  0.08631452  0.54181572  1
  Be  Be62  1  0.45550119  0.91368548  0.13970364  1
  Be  Be63  1  0.54449881  0.68420344  0.45818428  1
  Be  Be64  1  0.31579656  0.86029636  0.77398084  1
  Be  Be65  1  0.08631452  0.54181572  0.22601916  1
  Be  Be66  1  0.91368548  0.13970364  0.45550119  1
  Be  Be67  1  0.68420344  0.45818428  0.54449881  1
  Os  Os0  1  0.30109542  0.11245612  0.81136070  1
  Os  Os1  1  0.69890458  0.88754388  0.18863930  1
  Os  Os2  1  0.69890458  0.51026528  0.81136070  1
  Os  Os3  1  0.30109542  0.48973472  0.18863930  1
  Os  Os4  1  0.11245612  0.81136070  0.30109542  1
  Os  Os5  1  0.88754388  0.18863930  0.69890458  1
  Os  Os6  1  0.51026528  0.81136070  0.69890458  1
  Os  Os7  1  0.48973472  0.18863930  0.30109542  1
  Os  Os8  1  0.81136070  0.30109542  0.11245612  1
  Os  Os9  1  0.18863930  0.69890458  0.88754388  1
  Os  Os10  1  0.81136070  0.69890458  0.51026528  1
  Os  Os11  1  0.18863930  0.30109542  0.48973472  1
loop_
_geom_bond_atom_site_label_1
_geom_bond_atom_site_label_2
_geom_bond_distance
_geom_bond_site_symmetry_2
Be0 Be28 2.184783 1_555
Be0 Be30 2.184783 1_545
Be0 Be1 2.191235 1_555
Be0 Be33 2.290237 1_555
Be0 Be34 2.290241 1_555
Be0 Be35 2.290241 1_545
Be0 Be32 2.290243 1_545
Be0 Os5 2.417072 1_555
Be0 Os6 2.417072 1_545
Be0 Be8 2.458839 1_545
Be0 Be9 2.458839 1_555
Be1 Be29 2.184783 1_545
Be1 Be31 2.184783 1_555
Be1 Be32 2.290237 1_545
Be1 Be34 2.290241 1_555
Be1 Be35 2.290241 1_545
Be1 Be33 2.290243 1_555
Be1 Os7 2.417072 1_555
Be1 Os4 2.417072 1_545
Be1 Be8 2.458839 1_545
Be1 Be9 2.458839 1_555
Be2 Be20 2.184783 1_555
Be2 Be22 2.184783 1_455
Be2 Be3 2.191235 1_555
Be2 Be37 2.290237 1_555
Be2 Be39 2.290241 1_455
Be2 Be38 2.290241 1_555
Be2 Be36 2.290243 1_455
Be2 Os9 2.417072 1_555
Be2 Os10 2.417072 1_455
Be3 Be36 2.290237 1_455
Be3 Be38 2.290241 1_555
Be3 Be39 2.290241 1_455
Be3 Be37 2.290243 1_555
Be3 Os11 2.417072 1_555
Be3 Os8 2.417072 1_455
Be4 Be5 2.191235 1_555
Be4 Be41 2.290237 1_555
Be4 Be42 2.290241 1_555
Be4 Be43 2.290241 1_554
Be4 Be40 2.290243 1_554
Be4 Os1 2.417072 1_555
Be4 Os2 2.417072 1_554
Be4 Be6 2.458839 1_554
Be4 Be7 2.458839 1_555
Be5 Os3 2.417072 1_555
Be5 Os0 2.417072 1_554
Be5 Be7 2.458839 1_555
Be5 Be6 2.458839 1_554
Be6 Os11 2.597628 1_555
Be6 Os9 2.597628 1_555
Be7 Os8 2.597628 1_555
Be7 Os10 2.597628 1_555
Be8 Os3 2.597628 1_555
Be8 Os1 2.597628 1_555
Be9 Os0 2.597628 1_555
Be9 Os2 2.597628 1_555
Be10 Be37 2.037778 1_655
Be10 Be39 2.037786 1_555
Be10 Be34 2.044481 1_555
Be10 Be33 2.044489 1_555
Be10 Be53 2.214397 1_555
Be10 Be67 2.214397 1_555
Be10 Be52 2.214398 1_555
Be10 Be66 2.214405 1_555
Be10 Be3 2.458839 1_655
Be10 Be2 2.458839 1_655
Be10 Os7 2.597628 1_555
Be10 Os5 2.597628 1_555
Be11 Be36 2.037778 1_455
Be11 Be38 2.037786 1_555
Be11 Be35 2.044481 1_555
Be11 Be32 2.044489 1_555
Be11 Be65 2.214397 1_555
Be11 Be55 2.214397 1_555
Be11 Be64 2.214398 1_555
Be11 Be54 2.214405 1_555
Be11 Be3 2.458839 1_555
Be11 Be2 2.458839 1_555
Be11 Os4 2.597628 1_555
Be11 Os6 2.597628 1_555
Be12 Be54 2.109397 1_545
Be12 Be44 2.109400 1_555
Be12 Be49 2.109403 1_445
Be12 Be25 2.161804 1_555
Be12 Be30 2.161804 1_445
Be12 Be20 2.161804 1_545
Be12 Os5 2.426549 1_455
Be12 Os0 2.426549 1_555
Be12 Os10 2.426549 1_445
Be13 Be50 2.109397 1_554
Be13 Be52 2.109400 1_555
Be13 Be45 2.109403 1_544
Be13 Be21 2.161804 1_555
Be13 Be26 2.161804 1_544
Be13 Be28 2.161804 1_554
Be13 Os1 2.426549 1_545
Be13 Os8 2.426549 1_555
Be13 Os6 2.426549 1_544
Be14 Be46 2.109397 1_455
Be14 Be48 2.109400 1_555
Be14 Be53 2.109403 1_454
Be14 Be29 2.161804 1_555
Be14 Be22 2.161804 1_454
Be14 Be24 2.161804 1_455
Be14 Os9 2.426549 1_554
Be14 Os4 2.426549 1_555
Be14 Os2 2.426549 1_454
Be15 Be51 2.109403 1_555
Be15 Be55 2.109403 1_555
Be15 Be47 2.109403 1_555
Be15 Be23 2.161804 1_555
Be15 Be27 2.161804 1_555
Be15 Be31 2.161804 1_555
Be15 Os11 2.426549 1_555
Be15 Os3 2.426549 1_555
Be15 Os7 2.426549 1_555
Be16 Be66 2.109397 1_455
Be16 Be56 2.109400 1_445
Be16 Be61 2.109403 1_555
Be16 Be24 2.161804 1_445
Be16 Be31 2.161804 1_555
Be16 Be21 2.161804 1_455
Be16 Os11 2.426549 1_555
Be16 Os1 2.426549 1_445
Be16 Os4 2.426549 1_545
Be17 Be62 2.109397 1_545
Be17 Be64 2.109400 1_544
Be17 Be57 2.109403 1_555
Be17 Be20 2.161804 1_544
Be17 Be27 2.161804 1_555
Be17 Be29 2.161804 1_545
Be17 Os7 2.426549 1_555
Be17 Os9 2.426549 1_544
Be17 Os0 2.426549 1_554
Be18 Be58 2.109397 1_554
Be18 Be60 2.109400 1_454
Be18 Be65 2.109403 1_555
Be18 Be28 2.161804 1_454
Be18 Be23 2.161804 1_555
Be18 Be25 2.161804 1_554
Be18 Os3 2.426549 1_555
Be18 Os5 2.426549 1_454
Be18 Os8 2.426549 1_455
Be19 Be63 2.109403 1_555
Be19 Be67 2.109403 1_555
Be19 Be59 2.109403 1_555
Be19 Be30 2.161804 1_555
Be19 Be22 2.161804 1_555
Be19 Be26 2.161804 1_555
Be19 Os6 2.426549 1_555
Be19 Os10 2.426549 1_555
Be19 Os2 2.426549 1_555
Be20 Be22 2.095198 1_455
Be20 Be64 2.154852 1_555
Be20 Be54 2.154858 1_555
Be20 Os0 2.400248 1_565
Be20 Os9 2.493098 1_555
Be20 Os10 2.493098 1_455
Be21 Be23 2.095198 1_655
Be21 Be52 2.154852 1_555
Be21 Be66 2.154858 1_555
Be21 Be3 2.184783 1_655
Be21 Os1 2.400248 1_545
Be21 Os8 2.493098 1_555
Be21 Os11 2.493098 1_655
Be22 Be67 2.154855 1_555
Be22 Be53 2.154855 1_555
Be22 Os2 2.400248 1_555
Be22 Os9 2.493098 1_655
Be22 Os10 2.493098 1_555
Be23 Be55 2.154855 1_555
Be23 Be65 2.154855 1_555
Be23 Be3 2.184783 1_555
Be23 Os3 2.400248 1_555
Be23 Os11 2.493098 1_555
Be23 Os8 2.493098 1_455
Be24 Be26 2.095198 1_554
Be24 Be56 2.154852 1_555
Be24 Be46 2.154858 1_555
Be24 Be4 2.184783 1_555
Be24 Os4 2.400248 1_655
Be24 Os1 2.493098 1_555
Be24 Os2 2.493098 1_554
Be25 Be27 2.095198 1_556
Be25 Be44 2.154852 1_555
Be25 Be58 2.154858 1_555
Be25 Be5 2.184783 1_556
Be25 Os5 2.400248 1_455
Be25 Os0 2.493098 1_555
Be25 Os3 2.493098 1_556
Be26 Be59 2.154855 1_555
Be26 Be45 2.154855 1_555
Be26 Be4 2.184783 1_556
Be26 Os6 2.400248 1_555
Be26 Os1 2.493098 1_556
Be26 Os2 2.493098 1_555
Be27 Be47 2.154855 1_555
Be27 Be57 2.154855 1_555
Be27 Be5 2.184783 1_555
Be27 Os7 2.400248 1_555
Be27 Os3 2.493098 1_555
Be27 Os0 2.493098 1_554
Be28 Be30 2.095198 1_545
Be28 Be60 2.154852 1_555
Be28 Be50 2.154858 1_555
Be28 Os8 2.400248 1_556
Be28 Os5 2.493098 1_555
Be28 Os6 2.493098 1_545
Be29 Be31 2.095198 1_565
Be29 Be48 2.154852 1_555
Be29 Be62 2.154858 1_555
Be29 Os9 2.400248 1_554
Be29 Os4 2.493098 1_555
Be29 Os7 2.493098 1_565
Be30 Be63 2.154855 1_555
Be30 Be49 2.154855 1_555
Be30 Os10 2.400248 1_555
Be30 Os5 2.493098 1_565
Be30 Os6 2.493098 1_555
Be31 Be51 2.154855 1_555
Be31 Be61 2.154855 1_555
Be31 Os11 2.400248 1_555
Be31 Os7 2.493098 1_555
Be31 Os4 2.493098 1_545
Be32 Be9 2.037778 1_565
Be32 Be35 2.152311 1_555
Be32 Be61 2.192680 1_565
Be32 Be50 2.192696 1_565
Be32 Be64 2.233511 1_555
Be32 Be54 2.233511 1_555
Be32 Os0 2.495169 1_565
Be32 Os4 2.524481 1_555
Be32 Os6 2.524491 1_555
Be33 Be8 2.037778 1_545
Be33 Be34 2.152311 1_555
Be33 Be49 2.192680 1_545
Be33 Be62 2.192696 1_545
Be33 Be52 2.233511 1_555
Be33 Be66 2.233511 1_555
Be33 Os1 2.495169 1_545
Be33 Os5 2.524481 1_555
Be33 Os7 2.524491 1_555
Be34 Be9 2.037786 1_555
Be34 Be51 2.192689 1_555
Be34 Be60 2.192698 1_555
Be34 Be67 2.233511 1_555
Be34 Be53 2.233511 1_555
Be34 Os2 2.495173 1_555
Be34 Os7 2.524483 1_555
Be34 Os5 2.524483 1_555
Be35 Be8 2.037786 1_555
Be35 Be63 2.192689 1_555
Be35 Be48 2.192698 1_555
Be35 Be55 2.233511 1_555
Be35 Be65 2.233511 1_555
Be35 Os3 2.495173 1_555
Be35 Os4 2.524483 1_555
Be35 Os6 2.524483 1_555
Be36 Be7 2.044489 1_555
Be36 Be39 2.152311 1_555
Be36 Be65 2.192680 1_655
Be36 Be54 2.192696 1_655
Be36 Be56 2.233511 1_555
Be36 Be46 2.233511 1_555
Be36 Os4 2.495169 1_655
Be36 Os8 2.524481 1_555
Be36 Os10 2.524491 1_555
Be37 Be6 2.044489 1_555
Be37 Be38 2.152311 1_555
Be37 Be53 2.192680 1_455
Be37 Be66 2.192696 1_455
Be37 Be44 2.233511 1_555
Be37 Be58 2.233511 1_555
Be37 Os5 2.495169 1_455
Be37 Os9 2.524481 1_555
Be37 Os11 2.524491 1_555
Be38 Be6 2.044481 1_555
Be38 Be55 2.192689 1_555
Be38 Be64 2.192698 1_555
Be38 Be59 2.233511 1_555
Be38 Be45 2.233511 1_555
Be38 Os6 2.495173 1_555
Be38 Os11 2.524483 1_555
Be38 Os9 2.524483 1_555
Be39 Be7 2.044481 1_555
Be39 Be67 2.192689 1_555
Be39 Be52 2.192698 1_555
Be39 Be47 2.233511 1_555
Be39 Be57 2.233511 1_555
Be39 Os7 2.495173 1_555
Be39 Os8 2.524483 1_555
Be39 Os10 2.524483 1_555
Be40 Be7 2.037778 1_556
Be40 Be9 2.044489 1_555
Be40 Be43 2.152311 1_555
Be40 Be57 2.192680 1_556
Be40 Be46 2.192696 1_556
Be40 Be60 2.233511 1_555
Be40 Be50 2.233511 1_555
Be40 Be5 2.290237 1_556
Be40 Os8 2.495169 1_556
Be40 Os0 2.524481 1_555
Be40 Os2 2.524491 1_555
Be41 Be6 2.037778 1_554
Be41 Be8 2.044489 1_555
Be41 Be42 2.152311 1_555
Be41 Be45 2.192680 1_554
Be41 Be58 2.192696 1_554
Be41 Be48 2.233511 1_555
Be41 Be62 2.233511 1_555
Be41 Be5 2.290243 1_555
Be41 Os9 2.495169 1_554
Be41 Os1 2.524481 1_555
Be41 Os3 2.524491 1_555
Be42 Be7 2.037786 1_555
Be42 Be8 2.044481 1_555
Be42 Be47 2.192689 1_555
Be42 Be56 2.192698 1_555
Be42 Be63 2.233511 1_555
Be42 Be49 2.233511 1_555
Be42 Be5 2.290241 1_555
Be42 Os10 2.495173 1_555
Be42 Os3 2.524483 1_555
Be42 Os1 2.524483 1_555
Be43 Be6 2.037786 1_555
Be43 Be9 2.044481 1_555
Be43 Be59 2.192689 1_555
Be43 Be44 2.192698 1_555
Be43 Be51 2.233511 1_555
Be43 Be61 2.233511 1_555
Be43 Be5 2.290241 1_556
Be43 Os11 2.495173 1_555
Be43 Os0 2.524483 1_555
Be43 Os2 2.524483 1_555
Be44 Be66 2.188462 1_455
Be44 Be61 2.188478 1_555
Be44 Be6 2.214398 1_555
Be44 Os11 2.381826 1_555
Be44 Os5 2.426936 1_455
Be44 Os0 2.456726 1_555
Be45 Be62 2.188463 1_556
Be45 Be64 2.188478 1_555
Be45 Be6 2.214397 1_555
Be45 Os9 2.381823 1_555
Be45 Os6 2.426946 1_555
Be45 Os1 2.456720 1_556
Be46 Be60 2.188462 1_554
Be46 Be65 2.188463 1_655
Be46 Be7 2.214405 1_555
Be46 Os8 2.381822 1_555
Be46 Os4 2.426942 1_655
Be46 Os2 2.456722 1_554
Be47 Be63 2.188470 1_555
Be47 Be67 2.188470 1_555
Be47 Be7 2.214397 1_555
Be47 Os10 2.381823 1_555
Be47 Os7 2.426946 1_555
Be47 Os3 2.456720 1_555
Be48 Be58 2.188462 1_554
Be48 Be65 2.188478 1_555
Be48 Be8 2.214398 1_555
Be48 Os3 2.381826 1_555
Be48 Os9 2.426936 1_554
Be48 Os4 2.456726 1_555
Be49 Be66 2.188463 1_565
Be49 Be56 2.188478 1_555
Be49 Be8 2.214397 1_555
Be49 Os1 2.381823 1_555
Be49 Os10 2.426946 1_555
Be49 Os5 2.456720 1_565
Be50 Be64 2.188462 1_545
Be50 Be57 2.188463 1_556
Be50 Be9 2.214405 1_555
Be50 Os0 2.381822 1_555
Be50 Os8 2.426942 1_556
Be50 Os6 2.456722 1_545
Be51 Be59 2.188470 1_555
Be51 Be67 2.188470 1_555
Be51 Be9 2.214397 1_555
Be51 Os2 2.381823 1_555
Be51 Os11 2.426946 1_555
Be51 Os7 2.456720 1_555
Be52 Be62 2.188462 1_545
Be52 Be57 2.188478 1_555
Be52 Os7 2.381826 1_555
Be52 Os1 2.426936 1_545
Be52 Os8 2.456726 1_555
Be53 Be58 2.188463 1_655
Be53 Be60 2.188478 1_555
Be53 Os5 2.381823 1_555
Be53 Os2 2.426946 1_555
Be53 Os9 2.456720 1_655
Be54 Be56 2.188462 1_455
Be54 Be61 2.188463 1_565
Be54 Os4 2.381822 1_555
Be54 Os0 2.426942 1_565
Be54 Os10 2.456722 1_455
Be55 Be59 2.188470 1_555
Be55 Be63 2.188470 1_555
Be55 Os6 2.381823 1_555
Be55 Os3 2.426946 1_555
Be55 Os11 2.456720 1_555
Be56 Be7 2.214398 1_555
Be56 Os10 2.381826 1_555
Be56 Os4 2.426936 1_655
Be56 Os1 2.456726 1_555
Be57 Be7 2.214397 1_555
Be57 Os8 2.381823 1_555
Be57 Os7 2.426946 1_555
Be57 Os0 2.456720 1_554
Be58 Be6 2.214405 1_555
Be58 Os9 2.381822 1_555
Be58 Os5 2.426942 1_455
Be58 Os3 2.456722 1_556
Be59 Be6 2.214397 1_555
Be59 Os11 2.381823 1_555
Be59 Os6 2.426946 1_555
Be59 Os2 2.456720 1_555
Be60 Be9 2.214398 1_555
Be60 Os2 2.381826 1_555
Be60 Os8 2.426936 1_556
Be60 Os5 2.456726 1_555
Be61 Be9 2.214397 1_555
Be61 Os0 2.381823 1_555
Be61 Os11 2.426946 1_555
Be61 Os4 2.456720 1_545
Be62 Be8 2.214405 1_555
Be62 Os1 2.381822 1_555
Be62 Os9 2.426942 1_554
Be62 Os7 2.456722 1_565
Be63 Be8 2.214397 1_555
Be63 Os3 2.381823 1_555
Be63 Os10 2.426946 1_555
Be63 Os6 2.456720 1_555
Be64 Os6 2.381826 1_555
Be64 Os0 2.426936 1_565
Be64 Os9 2.456726 1_555
Be65 Os4 2.381823 1_555
Be65 Os3 2.426946 1_555
Be65 Os8 2.456720 1_455
Be66 Os5 2.381822 1_555
Be66 Os1 2.426942 1_545
Be66 Os11 2.456722 1_655
Be67 Os7 2.381823 1_555
Be67 Os2 2.426946 1_555
Be67 Os10 2.456720 1_555
