# generated using pymatgen
data_Nd3Fe29
_symmetry_space_group_name_H-M   'P 1'
_cell_length_a   6.47937181
_cell_length_b   6.47937146
_cell_length_c   10.50996188
_cell_angle_alpha   85.39888516
_cell_angle_beta   85.39888917
_cell_angle_gamma   82.94232024
_symmetry_Int_Tables_number   1
_chemical_formula_structural   Nd3Fe29
_chemical_formula_sum   'Nd3 Fe29'
_cell_volume   435.37198825
_cell_formula_units_Z   1
loop_
 _symmetry_equiv_pos_site_id
 _symmetry_equiv_pos_as_xyz
  1  'x, y, z'
loop_
 _atom_site_type_symbol
 _atom_site_label
 _atom_site_symmetry_multiplicity
 _atom_site_fract_x
 _atom_site_fract_y
 _atom_site_fract_z
 _atom_site_occupancy
  Nd  Nd0  1  0.81335900  0.81335900  0.59925800  1
  Nd  Nd1  1  0.18664100  0.18664100  0.40074200  1
  Nd  Nd2  1  0.00000000  0.00000000  0.00000000  1
  Fe  Fe0  1  0.50000000  0.00000000  0.00000000  1
  Fe  Fe1  1  0.00000000  0.50000000  0.00000000  1
  Fe  Fe2  1  0.81109500  0.31616500  0.59624900  1
  Fe  Fe3  1  0.50000000  0.50000000  0.50000000  1
  Fe  Fe4  1  0.29184200  0.29184200  0.85996100  1
  Fe  Fe5  1  0.70815800  0.70815800  0.14003900  1
  Fe  Fe6  1  0.52097600  0.52097600  0.74718400  1
  Fe  Fe7  1  0.47902400  0.47902400  0.25281600  1
  Fe  Fe8  1  0.31626500  0.86570900  0.19609300  1
  Fe  Fe9  1  0.13429100  0.68373500  0.80390700  1
  Fe  Fe10  1  0.68373500  0.13429100  0.80390700  1
  Fe  Fe11  1  0.86570900  0.31626500  0.19609300  1
  Fe  Fe12  1  0.53974500  0.83044700  0.37509200  1
  Fe  Fe13  1  0.16955300  0.46025500  0.62490800  1
  Fe  Fe14  1  0.46025500  0.16955300  0.62490800  1
  Fe  Fe15  1  0.83044700  0.53974500  0.37509200  1
  Fe  Fe16  1  0.63992600  0.36007400  0.00000000  1
  Fe  Fe17  1  0.36007400  0.63992600  0.00000000  1
  Fe  Fe18  1  0.28021300  0.28021300  0.10626100  1
  Fe  Fe19  1  0.71978700  0.71978700  0.89373900  1
  Fe  Fe20  1  0.09711800  0.59112100  0.19764700  1
  Fe  Fe21  1  0.40887900  0.90288200  0.80235300  1
  Fe  Fe22  1  0.90288200  0.40887900  0.80235300  1
  Fe  Fe23  1  0.59112100  0.09711800  0.19764700  1
  Fe  Fe24  1  0.90447000  0.90447000  0.29096000  1
  Fe  Fe25  1  0.09553000  0.09553000  0.70904000  1
  Fe  Fe26  1  0.31616500  0.81109500  0.59624900  1
  Fe  Fe27  1  0.18890500  0.68383500  0.40375100  1
  Fe  Fe28  1  0.68383500  0.18890500  0.40375100  1
loop_
_geom_bond_atom_site_label_1
_geom_bond_atom_site_label_2
_geom_bond_distance
_geom_bond_site_symmetry_2
Fe0 Fe23 2.357403 1_555
Fe0 Fe21 2.357403 1_544
Fe0 Fe8 2.448472 1_545
Fe0 Fe10 2.448472 1_554
Fe0 Fe18 2.450806 1_555
Fe0 Fe19 2.450806 1_544
Fe0 Fe17 2.604786 1_545
Fe0 Fe16 2.604786 1_555
Fe0 Fe5 2.608875 1_545
Fe0 Fe4 2.608875 1_554
Fe0 Nd2 3.239686 1_555
Fe0 Nd2 3.239686 1_655
Fe1 Fe20 2.357403 1_555
Fe1 Fe22 2.357403 1_454
Fe1 Fe11 2.448472 1_455
Fe1 Fe9 2.448472 1_554
Fe1 Fe18 2.450806 1_555
Fe1 Fe19 2.450806 1_454
Fe1 Fe17 2.604786 1_555
Fe1 Fe16 2.604786 1_455
Fe1 Fe5 2.608876 1_455
Fe1 Fe4 2.608876 1_554
Fe1 Nd2 3.239686 1_565
Fe1 Nd2 3.239686 1_555
Fe2 Fe22 2.431049 1_555
Fe2 Fe3 2.459460 1_555
Fe2 Fe28 2.480988 1_555
Fe2 Fe25 2.505318 1_655
Fe2 Fe6 2.656575 1_555
Fe2 Nd1 3.133694 1_655
Fe2 Nd0 3.226041 1_555
Fe2 Nd0 3.253723 1_545
Fe3 Fe6 2.627515 1_555
Fe3 Fe7 2.627515 1_555
Fe3 Nd0 3.320500 1_555
Fe3 Nd1 3.320500 1_555
Fe4 Fe6 2.406289 1_555
Fe4 Fe9 2.656372 1_555
Fe4 Nd2 3.050126 1_556
Fe5 Fe7 2.406289 1_555
Fe5 Fe8 2.656372 1_555
Fe5 Nd2 3.050126 1_665
Fe6 Fe9 2.637590 1_555
Fe6 Nd0 3.087377 1_555
Fe7 Fe8 2.637590 1_555
Fe7 Nd1 3.087377 1_555
Fe8 Nd2 3.025798 1_565
Fe8 Nd1 3.107120 1_565
Fe9 Nd2 3.025798 1_566
Fe9 Nd0 3.107120 1_455
Fe10 Fe22 2.407136 1_555
Fe10 Fe14 2.444363 1_555
Fe10 Fe21 2.466735 1_545
Fe10 Fe2 2.523940 1_555
Fe10 Fe16 2.599229 1_556
Fe10 Fe6 2.637590 1_555
Fe10 Fe4 2.656372 1_555
Fe10 Fe25 2.761345 1_655
Fe10 Fe19 2.762874 1_545
Fe10 Nd2 3.025798 1_656
Fe10 Nd0 3.107120 1_545
Fe11 Fe23 2.407136 1_555
Fe11 Fe15 2.444363 1_555
Fe11 Fe20 2.466735 1_655
Fe11 Fe28 2.523940 1_555
Fe11 Fe16 2.599229 1_555
Fe11 Fe7 2.637590 1_555
Fe11 Fe5 2.656372 1_555
Fe11 Fe24 2.761344 1_545
Fe11 Fe18 2.762874 1_655
Fe11 Nd2 3.025798 1_655
Fe11 Nd1 3.107120 1_655
Fe12 Fe8 2.444363 1_555
Fe12 Fe3 2.450361 1_555
Fe12 Fe23 2.469630 1_565
Fe12 Fe15 2.494757 1_555
Fe12 Fe24 2.543972 1_555
Fe12 Fe27 2.556478 1_555
Fe12 Fe26 2.640947 1_555
Fe12 Fe28 2.654610 1_565
Fe12 Fe5 2.755089 1_555
Fe12 Fe7 2.785996 1_555
Fe12 Nd0 3.047276 1_555
Fe12 Nd1 3.055634 1_565
Fe13 Fe9 2.444363 1_555
Fe13 Fe3 2.450361 1_555
Fe13 Fe22 2.469630 1_455
Fe13 Fe14 2.494757 1_555
Fe13 Fe25 2.543972 1_555
Fe13 Fe26 2.556478 1_555
Fe13 Fe27 2.640947 1_555
Fe13 Fe2 2.654610 1_455
Fe13 Fe4 2.755089 1_555
Fe13 Fe6 2.785996 1_555
Fe13 Nd1 3.047276 1_555
Fe13 Nd0 3.055634 1_455
Fe14 Fe3 2.450361 1_555
Fe14 Fe21 2.469630 1_545
Fe14 Fe25 2.543972 1_555
Fe14 Fe2 2.556478 1_555
Fe14 Fe28 2.640947 1_555
Fe14 Fe26 2.654610 1_545
Fe14 Fe4 2.755089 1_555
Fe14 Fe6 2.785996 1_555
Fe14 Nd1 3.047276 1_555
Fe14 Nd0 3.055634 1_545
Fe15 Fe3 2.450361 1_555
Fe15 Fe20 2.469630 1_655
Fe15 Fe24 2.543972 1_555
Fe15 Fe28 2.556478 1_555
Fe15 Fe2 2.640947 1_555
Fe15 Fe27 2.654610 1_655
Fe15 Fe5 2.755089 1_555
Fe15 Fe7 2.785996 1_555
Fe15 Nd0 3.047276 1_555
Fe15 Nd1 3.055634 1_655
Fe16 Fe17 2.401644 1_555
Fe16 Fe19 2.594854 1_554
Fe16 Fe18 2.594854 1_555
Fe16 Fe23 2.603288 1_555
Fe16 Fe22 2.603288 1_554
Fe16 Fe5 2.886229 1_555
Fe16 Fe4 2.886229 1_554
Fe16 Fe6 2.903048 1_554
Fe16 Fe7 2.903048 1_555
Fe16 Nd2 3.090096 1_655
Fe17 Fe18 2.594854 1_555
Fe17 Fe19 2.594854 1_554
Fe17 Fe9 2.599229 1_554
Fe17 Fe8 2.599229 1_555
Fe17 Fe21 2.603288 1_554
Fe17 Fe20 2.603288 1_555
Fe17 Fe4 2.886229 1_554
Fe17 Fe5 2.886229 1_555
Fe17 Fe7 2.903048 1_555
Fe17 Fe6 2.903048 1_554
Fe17 Nd2 3.090096 1_565
Fe18 Fe23 2.434829 1_555
Fe18 Fe20 2.434829 1_555
Fe18 Fe4 2.578960 1_554
Fe18 Fe7 2.595320 1_555
Fe18 Fe8 2.762874 1_545
Fe18 Nd2 3.049713 1_555
Fe18 Nd1 3.130866 1_555
Fe19 Fe21 2.434829 1_555
Fe19 Fe22 2.434829 1_555
Fe19 Fe5 2.578960 1_556
Fe19 Fe6 2.595320 1_555
Fe19 Fe9 2.762874 1_655
Fe19 Nd2 3.049713 1_666
Fe19 Nd0 3.130866 1_555
Fe20 Fe8 2.407136 1_555
Fe20 Fe27 2.431049 1_555
Fe20 Fe24 2.478370 1_455
Fe20 Fe7 2.589962 1_555
Fe20 Fe5 2.644737 1_455
Fe20 Nd2 3.262943 1_565
Fe20 Nd1 3.269355 1_555
Fe21 Fe9 2.407136 1_555
Fe21 Fe26 2.431049 1_555
Fe21 Fe25 2.478370 1_565
Fe21 Fe6 2.589962 1_555
Fe21 Fe4 2.644737 1_565
Fe21 Nd2 3.262943 1_566
Fe21 Nd0 3.269356 1_555
Fe22 Fe9 2.466735 1_655
Fe22 Fe25 2.478370 1_655
Fe22 Fe6 2.589962 1_555
Fe22 Fe4 2.644737 1_655
Fe22 Nd2 3.262943 1_656
Fe22 Nd0 3.269355 1_555
Fe23 Fe28 2.431049 1_555
Fe23 Fe8 2.466735 1_545
Fe23 Fe24 2.478370 1_545
Fe23 Fe7 2.589962 1_555
Fe23 Fe5 2.644737 1_545
Fe23 Nd2 3.262943 1_655
Fe23 Nd1 3.269356 1_555
Fe24 Fe27 2.505318 1_655
Fe24 Fe28 2.505318 1_565
Fe24 Fe5 2.607063 1_555
Fe24 Fe8 2.761345 1_655
Fe24 Nd1 3.084615 1_665
Fe24 Nd2 3.099079 1_665
Fe24 Nd0 3.266155 1_555
Fe25 Fe26 2.505318 1_545
Fe25 Fe4 2.607063 1_555
Fe25 Fe9 2.761344 1_545
Fe25 Nd0 3.084615 1_445
Fe25 Nd2 3.099079 1_556
Fe25 Nd1 3.266155 1_555
Fe26 Fe3 2.459460 1_555
Fe26 Fe27 2.480988 1_555
Fe26 Fe9 2.523940 1_555
Fe26 Fe6 2.656575 1_555
Fe26 Nd1 3.133693 1_565
Fe26 Nd0 3.226041 1_555
Fe26 Nd0 3.253723 1_455
Fe27 Fe3 2.459460 1_555
Fe27 Fe8 2.523940 1_555
Fe27 Fe7 2.656575 1_555
Fe27 Nd0 3.133694 1_455
Fe27 Nd1 3.226041 1_555
Fe27 Nd1 3.253723 1_565
Fe28 Fe3 2.459460 1_555
Fe28 Fe7 2.656575 1_555
Fe28 Nd0 3.133693 1_545
Fe28 Nd1 3.226041 1_555
Fe28 Nd1 3.253723 1_655
