# generated using pymatgen
data_DySiRu
_symmetry_space_group_name_H-M   'P 1'
_cell_length_a   4.34407646
_cell_length_b   6.98785418
_cell_length_c   7.00979702
_cell_angle_alpha   90.00000000
_cell_angle_beta   90.00000000
_cell_angle_gamma   90.00000000
_symmetry_Int_Tables_number   1
_chemical_formula_structural   DySiRu
_chemical_formula_sum   'Dy4 Si4 Ru4'
_cell_volume   212.78780606
_cell_formula_units_Z   4
loop_
 _symmetry_equiv_pos_site_id
 _symmetry_equiv_pos_as_xyz
  1  'x, y, z'
loop_
 _atom_site_type_symbol
 _atom_site_label
 _atom_site_symmetry_multiplicity
 _atom_site_fract_x
 _atom_site_fract_y
 _atom_site_fract_z
 _atom_site_occupancy
  Dy  Dy0  1  0.25000000  0.98288447  0.18641221  1
  Dy  Dy1  1  0.75000000  0.01711553  0.81358779  1
  Dy  Dy2  1  0.25000000  0.48288447  0.31358779  1
  Dy  Dy3  1  0.75000000  0.51711553  0.68641221  1
  Si  Si0  1  0.25000000  0.30576455  0.89314705  1
  Si  Si1  1  0.75000000  0.69423545  0.10685295  1
  Si  Si2  1  0.25000000  0.80576455  0.60685295  1
  Si  Si3  1  0.75000000  0.19423545  0.39314705  1
  Ru  Ru0  1  0.75000000  0.84832677  0.43231950  1
  Ru  Ru1  1  0.25000000  0.15167323  0.56768050  1
  Ru  Ru2  1  0.75000000  0.34832677  0.06768050  1
  Ru  Ru3  1  0.25000000  0.65167323  0.93231950  1
loop_
_geom_bond_atom_site_label_1
_geom_bond_atom_site_label_2
_geom_bond_distance
_geom_bond_site_symmetry_2
Dy0 Ru3 2.920472 1_554
Dy0 Ru1 2.921304 1_565
Dy0 Ru0 2.928004 1_455
Dy0 Ru0 2.928004 1_555
Dy0 Si3 2.999841 1_565
Dy0 Si3 2.999841 1_465
Dy0 Si1 3.016159 1_455
Dy0 Si1 3.016159 1_555
Dy0 Si0 3.052317 1_564
Dy0 Si2 3.196543 1_555
Dy1 Ru2 2.920472 1_556
Dy1 Ru0 2.921304 1_545
Dy1 Ru1 2.928004 1_655
Dy1 Ru1 2.928004 1_555
Dy1 Si2 2.999841 1_545
Dy1 Si2 2.999841 1_645
Dy1 Si0 3.016159 1_555
Dy1 Si0 3.016159 1_655
Dy1 Si1 3.052317 1_546
Dy1 Si3 3.196543 1_555
Dy2 Ru1 2.920472 1_555
Dy2 Ru3 2.921304 1_554
Dy2 Ru2 2.928004 1_455
Dy2 Ru2 2.928004 1_555
Dy2 Si1 2.999841 1_555
Dy2 Si1 2.999841 1_455
Dy2 Si3 3.016159 1_555
Dy2 Si3 3.016159 1_455
Dy2 Si2 3.052317 1_555
Dy2 Si0 3.196543 1_554
Dy3 Ru0 2.920472 1_555
Dy3 Ru2 2.921304 1_556
Dy3 Ru3 2.928004 1_655
Dy3 Ru3 2.928004 1_555
Dy3 Si0 2.999841 1_555
Dy3 Si0 2.999841 1_655
Dy3 Si2 3.016159 1_655
Dy3 Si2 3.016159 1_555
Dy3 Si3 3.052317 1_555
Dy3 Si1 3.196543 1_556
Ru0 Si3 2.432706 1_565
Ru0 Si2 2.510582 1_555
Ru0 Si2 2.510582 1_655
Ru0 Si1 2.522789 1_555
Ru1 Si2 2.432706 1_545
Ru1 Si3 2.510582 1_555
Ru1 Si3 2.510582 1_455
Ru1 Si0 2.522789 1_555
Ru2 Si1 2.432706 1_555
Ru2 Si0 2.510582 1_654
Ru2 Si0 2.510582 1_554
Ru2 Si3 2.522789 1_555
Ru3 Si0 2.432706 1_555
Ru3 Si1 2.510582 1_456
Ru3 Si1 2.510582 1_556
Ru3 Si2 2.522789 1_555
