# generated using pymatgen
data_MoWSeS3
_symmetry_space_group_name_H-M   'P 1'
_cell_length_a   3.22026226
_cell_length_b   3.22026226
_cell_length_c   36.37122100
_cell_angle_alpha   90.00000000
_cell_angle_beta   90.00000000
_cell_angle_gamma   120.00000536
_symmetry_Int_Tables_number   1
_chemical_formula_structural   MoWSeS3
_chemical_formula_sum   'Mo2 W2 Se2 S6'
_cell_volume   326.64120864
_cell_formula_units_Z   2
loop_
 _symmetry_equiv_pos_site_id
 _symmetry_equiv_pos_as_xyz
  1  'x, y, z'
loop_
 _atom_site_type_symbol
 _atom_site_label
 _atom_site_symmetry_multiplicity
 _atom_site_fract_x
 _atom_site_fract_y
 _atom_site_fract_z
 _atom_site_occupancy
  Mo  Mo0  1  0.00000000  0.00000000  0.09391000  1
  Mo  Mo1  1  0.33333300  0.66666700  0.28179400  1
  W  W0  1  0.00000000  0.00000000  0.46965100  1
  W  W1  1  0.33333300  0.66666700  0.65754300  1
  Se  Se0  1  0.33333300  0.66666700  0.04686400  1
  Se  Se1  1  0.33333300  0.66666700  0.14096400  1
  S  S0  1  0.00000000  0.00000000  0.32458400  1
  S  S1  1  0.00000000  0.00000000  0.70050000  1
  S  S2  1  0.33333300  0.66666700  0.42672300  1
  S  S3  1  0.33333300  0.66666700  0.51260600  1
  S  S4  1  0.00000000  0.00000000  0.23901900  1
  S  S5  1  0.00000000  0.00000000  0.61459000  1
loop_
_geom_bond_atom_site_label_1
_geom_bond_atom_site_label_2
_geom_bond_distance
_geom_bond_site_symmetry_2
Mo0 Se0 2.526781 1_545
Mo0 Se0 2.526783 1_445
Mo0 Se0 2.526783 1_555
Mo0 Se1 2.526978 1_545
Mo0 Se1 2.526980 1_445
Mo0 Se1 2.526980 1_555
Mo1 S4 2.424281 1_565
Mo1 S4 2.424283 1_665
Mo1 S4 2.424283 1_555
Mo1 S0 2.424631 1_565
Mo1 S0 2.424633 1_555
Mo1 S0 2.424633 1_665
S1 W1 2.428534 1_545
S1 W1 2.428536 1_555
S1 W1 2.428536 1_445
S2 W0 2.427856 1_565
S2 W0 2.427858 1_555
S2 W0 2.427858 1_665
S3 W0 2.428487 1_565
S3 W0 2.428490 1_665
S3 W0 2.428490 1_555
S5 W1 2.428441 1_545
S5 W1 2.428443 1_445
S5 W1 2.428443 1_555
