# generated using pymatgen
data_Te2MoW3(SeS2)2
_symmetry_space_group_name_H-M   'P 1'
_cell_length_a   3.30715231
_cell_length_b   3.30715231
_cell_length_c   37.66044200
_cell_angle_alpha   90.00000000
_cell_angle_beta   90.00000000
_cell_angle_gamma   120.00000613
_symmetry_Int_Tables_number   1
_chemical_formula_structural   Te2MoW3(SeS2)2
_chemical_formula_sum   'Te2 Mo1 W3 Se2 S4'
_cell_volume   356.71749542
_cell_formula_units_Z   1
loop_
 _symmetry_equiv_pos_site_id
 _symmetry_equiv_pos_as_xyz
  1  'x, y, z'
loop_
 _atom_site_type_symbol
 _atom_site_label
 _atom_site_symmetry_multiplicity
 _atom_site_fract_x
 _atom_site_fract_y
 _atom_site_fract_z
 _atom_site_occupancy
  Te  Te0  1  0.33333300  0.66666700  0.70863800  1
  Te  Te1  1  0.33333300  0.66666700  0.60646500  1
  Mo  Mo0  1  0.66666700  0.33333300  0.28180600  1
  W  W0  1  0.33333300  0.66666700  0.09391400  1
  W  W1  1  0.33333300  0.66666700  0.46964500  1
  W  W2  1  0.66666700  0.33333300  0.65758100  1
  Se  Se0  1  0.33333300  0.66666700  0.32643500  1
  Se  Se1  1  0.33333300  0.66666700  0.23715400  1
  S  S0  1  0.66666700  0.33333300  0.05319400  1
  S  S1  1  0.66666700  0.33333300  0.42892900  1
  S  S2  1  0.66666700  0.33333300  0.13462500  1
  S  S3  1  0.66666700  0.33333300  0.51036200  1
loop_
_geom_bond_atom_site_label_1
_geom_bond_atom_site_label_2
_geom_bond_distance
_geom_bond_site_symmetry_2
Te0 W2 2.709800 1_455
Te0 W2 2.709800 1_565
Te0 W2 2.709804 1_555
Te1 W2 2.711377 1_455
Te1 W2 2.711377 1_565
Te1 W2 2.711381 1_555
Mo0 Se0 2.543749 1_545
Mo0 Se0 2.543749 1_655
Mo0 Se0 2.543753 1_555
Mo0 Se1 2.544321 1_545
Mo0 Se1 2.544321 1_655
Mo0 Se1 2.544326 1_555
S0 W0 2.448973 1_545
S0 W0 2.448973 1_655
S0 W0 2.448978 1_555
S1 W1 2.448879 1_545
S1 W1 2.448879 1_655
S1 W1 2.448883 1_555
S2 W0 2.448761 1_545
S2 W0 2.448761 1_655
S2 W0 2.448765 1_555
S3 W1 2.448902 1_545
S3 W1 2.448902 1_655
S3 W1 2.448907 1_555
