# generated using pymatgen
data_CsMg6CoO8
_symmetry_space_group_name_H-M   'P 1'
_cell_length_a   9.36871618
_cell_length_b   4.46035629
_cell_length_c   4.46035629
_cell_angle_alpha   90.00000000
_cell_angle_beta   90.00000000
_cell_angle_gamma   90.00000000
_symmetry_Int_Tables_number   1
_chemical_formula_structural   CsMg6CoO8
_chemical_formula_sum   'Cs1 Mg6 Co1 O8'
_cell_volume   186.38853074
_cell_formula_units_Z   1
loop_
 _symmetry_equiv_pos_site_id
 _symmetry_equiv_pos_as_xyz
  1  'x, y, z'
loop_
 _atom_site_type_symbol
 _atom_site_label
 _atom_site_symmetry_multiplicity
 _atom_site_fract_x
 _atom_site_fract_y
 _atom_site_fract_z
 _atom_site_occupancy
  Cs  Cs0  1  0.00000000  0.50000000  0.50000000  1
  Mg  Mg0  1  0.50000000  0.00000000  0.00000000  1
  Mg  Mg1  1  0.50000000  0.50000000  0.50000000  1
  Mg  Mg2  1  0.27719742  0.00000000  0.50000000  1
  Mg  Mg3  1  0.72280258  0.00000000  0.50000000  1
  Mg  Mg4  1  0.27719742  0.50000000  0.00000000  1
  Mg  Mg5  1  0.72280258  0.50000000  0.00000000  1
  Co  Co0  1  0.00000000  0.00000000  0.00000000  1
  O  O0  1  0.26495849  0.00000000  0.00000000  1
  O  O1  1  0.73504151  0.00000000  0.00000000  1
  O  O2  1  0.28816049  0.50000000  0.50000000  1
  O  O3  1  0.71183951  0.50000000  0.50000000  1
  O  O4  1  0.00000000  0.00000000  0.50000000  1
  O  O5  1  0.50000000  0.00000000  0.50000000  1
  O  O6  1  0.00000000  0.50000000  0.00000000  1
  O  O7  1  0.50000000  0.50000000  0.00000000  1
loop_
_geom_bond_atom_site_label_1
_geom_bond_atom_site_label_2
_geom_bond_distance
_geom_bond_site_symmetry_2
Cs0 O4 2.230178 1_555
Cs0 O4 2.230178 1_565
Cs0 O6 2.230178 1_556
Cs0 O6 2.230178 1_555
Cs0 O2 2.699694 1_555
Cs0 O3 2.699694 1_455
Mg0 O0 2.202037 1_555
Mg0 O1 2.202037 1_555
Mg0 O5 2.230178 1_554
Mg0 O5 2.230178 1_555
Mg0 O7 2.230178 1_545
Mg0 O7 2.230178 1_555
Mg1 O2 1.984664 1_555
Mg1 O3 1.984664 1_555
Mg1 O7 2.230178 1_556
Mg1 O5 2.230178 1_555
Mg1 O5 2.230178 1_565
Mg1 O7 2.230178 1_555
Mg2 O5 2.087374 1_555
Mg2 O2 2.232542 1_555
Mg2 O2 2.232542 1_545
Mg2 O0 2.233124 1_555
Mg2 O0 2.233124 1_556
Mg2 O4 2.596984 1_555
Mg3 O5 2.087374 1_555
Mg3 O3 2.232542 1_545
Mg3 O3 2.232542 1_555
Mg3 O1 2.233124 1_555
Mg3 O1 2.233124 1_556
Mg3 O4 2.596984 1_655
Mg4 O7 2.087374 1_555
Mg4 O2 2.232542 1_554
Mg4 O2 2.232542 1_555
Mg4 O0 2.233124 1_555
Mg4 O0 2.233124 1_565
Mg4 O6 2.596984 1_555
Mg5 O7 2.087374 1_555
Mg5 O3 2.232542 1_555
Mg5 O3 2.232542 1_554
Mg5 O1 2.233124 1_555
Mg5 O1 2.233124 1_565
Mg5 O6 2.596984 1_655
Co0 O4 2.230178 1_555
Co0 O4 2.230178 1_554
Co0 O6 2.230178 1_545
Co0 O6 2.230178 1_555
Co0 O1 2.482321 1_455
Co0 O0 2.482321 1_555
