# generated using pymatgen
data_KTaGeO5
_symmetry_space_group_name_H-M   'P 1'
_cell_length_a   6.75399300
_cell_length_b   11.16286600
_cell_length_c   13.60658800
_cell_angle_alpha   90.00000000
_cell_angle_beta   90.00000000
_cell_angle_gamma   90.00000000
_symmetry_Int_Tables_number   1
_chemical_formula_structural   KTaGeO5
_chemical_formula_sum   'K8 Ta8 Ge8 O40'
_cell_volume   1025.85399114
_cell_formula_units_Z   8
loop_
 _symmetry_equiv_pos_site_id
 _symmetry_equiv_pos_as_xyz
  1  'x, y, z'
loop_
 _atom_site_type_symbol
 _atom_site_label
 _atom_site_symmetry_multiplicity
 _atom_site_fract_x
 _atom_site_fract_y
 _atom_site_fract_z
 _atom_site_occupancy
  K  K0  1  0.77358600  0.70055100  0.37289500  1
  K  K1  1  0.28965900  0.43747200  0.88996500  1
  K  K2  1  0.21034100  0.43747200  0.38996500  1
  K  K3  1  0.71034100  0.93747200  0.11003500  1
  K  K4  1  0.27358600  0.20055100  0.12710500  1
  K  K5  1  0.72641400  0.70055100  0.87289500  1
  K  K6  1  0.22641400  0.20055100  0.62710500  1
  K  K7  1  0.78965900  0.93747200  0.61003500  1
  Ta  Ta0  1  0.25972700  0.75333100  0.24411600  1
  Ta  Ta1  1  0.74027300  0.25333100  0.75588400  1
  Ta  Ta2  1  0.24027300  0.75333100  0.74411600  1
  Ta  Ta3  1  0.50414800  0.00004400  0.38331200  1
  Ta  Ta4  1  0.49585200  0.50004400  0.61668800  1
  Ta  Ta5  1  0.99585200  0.00004400  0.88331200  1
  Ta  Ta6  1  0.00414800  0.50004400  0.11668800  1
  Ta  Ta7  1  0.75972700  0.25333100  0.25588400  1
  Ge  Ge0  1  0.67592000  0.24782600  0.50424900  1
  Ge  Ge1  1  0.17592000  0.74782600  0.99575100  1
  Ge  Ge2  1  0.82408000  0.24782600  0.00424900  1
  Ge  Ge3  1  0.50599600  0.49745900  0.18209400  1
  Ge  Ge4  1  0.49400400  0.99745900  0.81790600  1
  Ge  Ge5  1  0.99400400  0.49745900  0.68209400  1
  Ge  Ge6  1  0.32408000  0.74782600  0.49575100  1
  Ge  Ge7  1  0.00599600  0.99745900  0.31790600  1
  O  O0  1  0.93812000  0.12232200  0.78664100  1
  O  O1  1  0.06188000  0.62232200  0.21335900  1
  O  O2  1  0.56188000  0.12232200  0.28664100  1
  O  O3  1  0.43812000  0.62232200  0.71335900  1
  O  O4  1  0.45570400  0.87334500  0.28057100  1
  O  O5  1  0.54429600  0.37334500  0.71942900  1
  O  O6  1  0.04429600  0.87334500  0.78057100  1
  O  O7  1  0.95570400  0.37334500  0.21942900  1
  O  O8  1  0.53607300  0.12330700  0.74183500  1
  O  O9  1  0.46392700  0.62330700  0.25816500  1
  O  O10  1  0.96392700  0.12330700  0.24183500  1
  O  O11  1  0.03607300  0.62330700  0.75816500  1
  O  O12  1  0.04206600  0.87415100  0.23700800  1
  O  O13  1  0.95793400  0.37415100  0.76299200  1
  O  O14  1  0.45793400  0.87415100  0.73700800  1
  O  O15  1  0.17654100  0.77071100  0.60161900  1
  O  O16  1  0.54206600  0.37415100  0.26299200  1
  O  O17  1  0.71518700  0.52611000  0.10867800  1
  O  O18  1  0.21518700  0.02611000  0.39132200  1
  O  O19  1  0.78481300  0.52611000  0.60867800  1
  O  O20  1  0.79948200  0.96014200  0.39044700  1
  O  O21  1  0.20051800  0.46014200  0.60955300  1
  O  O22  1  0.70051800  0.96014200  0.89044700  1
  O  O23  1  0.29948200  0.46014200  0.10955300  1
  O  O24  1  0.49659200  0.86460100  0.48391700  1
  O  O25  1  0.50340800  0.36460100  0.51608300  1
  O  O26  1  0.00340800  0.86460100  0.98391700  1
  O  O27  1  0.99659200  0.36460100  0.01608300  1
  O  O28  1  0.96354200  0.11360100  0.99449700  1
  O  O29  1  0.03645800  0.61360100  0.00550300  1
  O  O30  1  0.53645800  0.11360100  0.49449700  1
  O  O31  1  0.46354200  0.61360100  0.50550300  1
  O  O32  1  0.18021200  0.72887500  0.38828800  1
  O  O33  1  0.81978800  0.22887500  0.61171200  1
  O  O34  1  0.31978800  0.72887500  0.88828800  1
  O  O35  1  0.68021200  0.22887500  0.11171200  1
  O  O36  1  0.67654100  0.27071100  0.89838100  1
  O  O37  1  0.32345900  0.77071100  0.10161900  1
  O  O38  1  0.82345900  0.27071100  0.39838100  1
  O  O39  1  0.28481300  0.02611000  0.89132200  1
loop_
_geom_bond_atom_site_label_1
_geom_bond_atom_site_label_2
_geom_bond_distance
_geom_bond_site_symmetry_2
K0 O9 2.748560 1_555
K0 O32 2.772412 1_655
K0 O20 2.912860 1_555
K0 O31 2.929628 1_555
K0 O24 3.022499 1_555
K0 O1 3.044016 1_655
K0 O4 3.147718 1_555
K0 O12 3.234517 1_655
K1 O27 2.743063 1_456
K1 O13 2.916191 1_455
K1 O5 2.975654 1_555
K1 O23 2.999275 1_556
K1 O29 3.043271 1_556
K1 O36 3.210322 1_555
K1 O11 3.233087 1_555
K1 O34 3.259331 1_555
K1 O3 3.322303 1_555
K2 O25 2.743063 1_555
K2 O16 2.916191 1_555
K2 O7 2.975654 1_455
K2 O21 2.999275 1_555
K2 O31 3.043271 1_555
K2 O38 3.210322 1_455
K2 O9 3.233087 1_555
K2 O32 3.259331 1_555
K2 O1 3.322303 1_555
K3 O26 2.743063 1_654
K3 O12 2.916191 1_655
K3 O4 2.975654 1_555
K3 O22 2.999275 1_554
K3 O28 3.043271 1_564
K3 O37 3.210322 1_555
K3 O10 3.233087 1_565
K3 O35 3.259331 1_565
K3 O2 3.322303 1_565
K4 O10 2.748560 1_455
K4 O35 2.772412 1_555
K4 O23 2.912860 1_555
K4 O28 2.929628 1_454
K4 O27 3.022499 1_455
K4 O2 3.044016 1_555
K4 O7 3.147718 1_455
K4 O16 3.234517 1_555
K5 O11 2.748560 1_655
K5 O34 2.772412 1_555
K5 O22 2.912860 1_555
K5 O29 2.929628 1_656
K5 O26 3.022499 1_655
K5 O3 3.044016 1_555
K5 O6 3.147718 1_655
K5 O14 3.234517 1_555
K6 O8 2.748560 1_555
K6 O33 2.772412 1_455
K6 O21 2.912860 1_555
K6 O30 2.929628 1_555
K6 O25 3.022499 1_555
K6 O0 3.044016 1_455
K6 O5 3.147718 1_555
K6 O13 3.234517 1_455
K7 O24 2.743063 1_555
K7 O14 2.916191 1_555
K7 O6 2.975654 1_655
K7 O20 2.999275 1_555
K7 O30 3.043271 1_565
K7 O15 3.210322 1_655
K7 O8 3.233087 1_565
K7 O33 3.259331 1_565
K7 O0 3.322303 1_565
Ge0 O25 1.755767 1_555
Ge0 O33 1.768322 1_555
Ge0 O38 1.770106 1_555
Ge0 O30 1.774779 1_555
Ge1 O26 1.755767 1_555
Ge1 O34 1.768322 1_555
Ge1 O37 1.770106 1_556
Ge1 O29 1.774779 1_556
Ge2 O27 1.755767 1_555
Ge2 O35 1.768322 1_555
Ge2 O36 1.770106 1_554
Ge2 O28 1.774779 1_554
Ge3 O23 1.758754 1_555
Ge3 O17 1.759656 1_555
Ge3 O9 1.767944 1_555
Ge3 O16 1.779231 1_555
Ge4 O22 1.758754 1_555
Ge4 O39 1.759656 1_565
Ge4 O8 1.767944 1_565
Ge4 O14 1.779231 1_555
Ge5 O21 1.758754 1_655
Ge5 O19 1.759656 1_555
Ge5 O11 1.767944 1_655
Ge5 O13 1.779231 1_555
Ge6 O24 1.755767 1_555
Ge6 O32 1.768322 1_555
Ge6 O15 1.770106 1_555
Ge6 O31 1.774779 1_555
Ge7 O20 1.758754 1_455
Ge7 O18 1.759656 1_565
Ge7 O10 1.767944 1_465
Ge7 O12 1.779231 1_555
O0 Ta5 1.935295 1_555
O0 Ta1 2.024708 1_555
O1 Ta6 1.935295 1_555
O1 Ta0 2.024708 1_555
O2 Ta3 1.935295 1_555
O2 Ta7 2.024708 1_555
O3 Ta4 1.935295 1_555
O3 Ta2 2.024708 1_555
O4 Ta0 1.947519 1_555
O4 Ta3 2.015352 1_565
O5 Ta1 1.947519 1_555
O5 Ta4 2.015352 1_555
O6 Ta2 1.947519 1_555
O6 Ta5 2.015352 1_465
O7 Ta7 1.947519 1_555
O7 Ta6 2.015352 1_655
O8 Ta1 2.011298 1_555
O9 Ta0 2.011298 1_555
O10 Ta7 2.011298 1_555
O11 Ta2 2.011298 1_555
O12 Ta0 1.997367 1_555
O13 Ta1 1.997367 1_555
O14 Ta2 1.997367 1_555
O15 Ta2 1.995557 1_555
O16 Ta7 1.997367 1_555
O17 Ta6 1.976220 1_655
O18 Ta3 1.976220 1_555
O19 Ta4 1.976220 1_555
O20 Ta3 2.046115 1_565
O21 Ta4 2.046115 1_555
O22 Ta5 2.046115 1_565
O23 Ta6 2.046115 1_555
O24 Ta3 2.040197 1_565
O25 Ta4 2.040197 1_555
O26 Ta5 2.040197 1_465
O27 Ta6 2.040197 1_655
O28 Ta5 1.985748 1_555
O29 Ta6 1.985748 1_555
O30 Ta3 1.985748 1_555
O31 Ta4 1.985748 1_555
O32 Ta0 2.052113 1_555
O33 Ta1 2.052113 1_555
O34 Ta2 2.052113 1_555
O35 Ta7 2.052113 1_555
O36 Ta1 1.995557 1_555
O37 Ta0 1.995557 1_555
O38 Ta7 1.995557 1_555
O39 Ta5 1.976220 1_455
