# generated using pymatgen
data_Na2Al2Si3(HO3)4
_symmetry_space_group_name_H-M   'P 1'
_cell_length_a   9.20650756
_cell_length_b   8.17791575
_cell_length_c   8.43279026
_cell_angle_alpha   95.82545337
_cell_angle_beta   73.83552941
_cell_angle_gamma   78.55550428
_symmetry_Int_Tables_number   1
_chemical_formula_structural   Na2Al2Si3(HO3)4
_chemical_formula_sum   'Na4 Al4 Si6 H8 O24'
_cell_volume   589.33795339
_cell_formula_units_Z   2
loop_
 _symmetry_equiv_pos_site_id
 _symmetry_equiv_pos_as_xyz
  1  'x, y, z'
loop_
 _atom_site_type_symbol
 _atom_site_label
 _atom_site_symmetry_multiplicity
 _atom_site_fract_x
 _atom_site_fract_y
 _atom_site_fract_z
 _atom_site_occupancy
  Na  Na0  1  0.29646300  0.98875300  0.25257400  1
  Na  Na1  1  0.58589500  0.41362500  0.78426000  1
  Na  Na2  1  0.66736300  0.77137600  0.04749300  1
  Na  Na3  1  0.78432300  0.01317200  0.67890300  1
  Al  Al0  1  0.41470500  0.94343900  0.86274800  1
  Al  Al1  1  0.42539900  0.14532600  0.55832800  1
  Al  Al2  1  0.56565100  0.15333400  0.13501900  1
  Al  Al3  1  0.24258700  0.38269400  0.42377200  1
  Si  Si0  1  0.22748500  0.67252500  0.05286000  1
  Si  Si1  1  0.84947600  0.58742300  0.51023200  1
  Si  Si2  1  0.22485100  0.34814100  0.82943000  1
  Si  Si3  1  0.98194200  0.29003600  0.27815700  1
  Si  Si4  1  0.35061500  0.57939000  0.24962800  1
  Si  Si5  1  0.89600200  0.07879100  0.99872500  1
  H  H0  1  0.05920500  0.37351800  0.92229700  1
  H  H1  1  0.90719500  0.79369000  0.35518500  1
  H  H2  1  0.04874000  0.66641900  0.58636100  1
  H  H3  1  0.67955700  0.19323500  0.49581700  1
  H  H4  1  0.46689800  0.43723100  0.11592100  1
  H  H5  1  0.13148000  0.92279100  0.79313900  1
  H  H6  1  0.43691800  0.78829700  0.39335200  1
  H  H7  1  0.99062100  0.62006000  0.16575100  1
  O  O0  1  0.15161700  0.26702200  0.30416000  1
  O  O1  1  0.01427900  0.94086300  0.83741300  1
  O  O2  1  0.02524500  0.55745600  0.55949100  1
  O  O3  1  0.37978900  0.94113400  0.53587800  1
  O  O4  1  0.98922500  0.16941800  0.11043700  1
  O  O5  1  0.33321000  0.86712100  0.69294400  1
  O  O6  1  0.29085000  0.50682000  0.89501400  1
  O  O7  1  0.48177500  0.03103500  0.02564600  1
  O  O8  1  0.59660900  0.17930500  0.59211500  1
  O  O9  1  0.81004400  0.21424500  0.89664700  1
  O  O10  1  0.34010700  0.16366700  0.81340400  1
  O  O11  1  0.28351900  0.83799800  0.99717900  1
  O  O12  1  0.45982900  0.71746000  0.27730600  1
  O  O13  1  0.25460200  0.33800500  0.62479300  1
  O  O14  1  0.03316700  0.71371700  0.11929200  1
  O  O15  1  0.62761800  0.81520200  0.78127800  1
  O  O16  1  0.64435100  0.31709900  0.02322500  1
  O  O17  1  0.89959700  0.49418100  0.30189800  1
  O  O18  1  0.75287600  0.01787300  0.12052600  1
  O  O19  1  0.86257000  0.23217900  0.43984400  1
  O  O20  1  0.43607300  0.20071400  0.34762000  1
  O  O21  1  0.67551600  0.64352700  0.67002500  1
  O  O22  1  0.82690800  0.38272200  0.57428900  1
  O  O23  1  0.84725300  0.78796500  0.46962800  1
loop_
_geom_bond_atom_site_label_1
_geom_bond_atom_site_label_2
_geom_bond_distance
_geom_bond_site_symmetry_2
Na0 O7 2.289732 1_565
Na0 O0 2.327648 1_565
Na0 O11 2.415522 1_554
Na0 O12 2.484398 1_555
Na0 O20 2.544571 1_565
Na0 O3 2.745622 1_555
Na1 O8 2.347953 1_555
Na1 O22 2.370988 1_555
Na1 O21 2.384182 1_555
Na1 O16 2.394100 1_556
Na1 O6 2.540280 1_555
Na2 O18 2.389647 1_565
Na2 O15 2.422962 1_554
Na2 O12 2.459033 1_555
Na2 O7 2.505457 1_565
Na3 O23 2.278052 1_545
Na3 O8 2.311372 1_555
Na3 O9 2.432135 1_555
Na3 O15 2.442323 1_545
Na3 O1 2.803172 1_645
Na3 O19 2.868282 1_555
Al0 O7 1.797085 1_566
Al0 O11 1.826672 1_555
Al0 O5 1.898803 1_555
Al0 O15 1.924129 1_555
Al0 O10 1.925835 1_565
Al1 O8 1.746639 1_555
Al1 O3 1.805259 1_545
Al1 O20 1.858997 1_555
Al1 O13 1.901669 1_555
Al1 O10 2.052615 1_555
Al2 O7 1.721355 1_555
Al2 O20 1.808922 1_555
Al2 O18 1.819533 1_555
Al2 O16 1.862359 1_555
Al3 O0 1.790177 1_555
Al3 O13 1.798198 1_555
Al3 O20 1.979234 1_555
Al3 O2 2.148090 1_555
H0 Si2 1.469181 1_555
H1 O23 0.980303 1_555
H2 O2 0.977223 1_555
H3 O8 0.981638 1_555
H3 Na3 2.491873 1_555
H4 Si4 1.528685 1_555
H4 O16 1.655709 1_555
H5 O1 1.013268 1_555
H5 O5 1.755879 1_555
H6 O12 1.029185 1_555
H6 O3 1.538051 1_555
H6 Na0 2.485428 1_555
H7 O14 0.994020 1_655
O0 Si3 1.614353 1_455
O1 Si5 1.638548 1_465
O2 Si1 1.757498 1_455
O3 O5 1.501351 1_555
O4 Si3 1.617286 1_555
O4 Si5 1.653545 1_554
O6 Si2 1.647218 1_555
O6 Si0 1.684109 1_556
O9 Si5 1.679078 1_555
O10 Si2 1.632064 1_555
O11 Si0 1.609026 1_556
O12 Si4 1.693545 1_555
O13 Si2 1.660897 1_555
O14 Si0 1.671022 1_555
O15 O21 1.517326 1_555
O16 O9 1.604935 1_554
O17 Si3 1.657518 1_555
O17 Si1 1.737210 1_555
O18 Si5 1.627966 1_554
O19 O22 1.502615 1_555
O19 Si3 1.671440 1_555
O21 Si1 1.724109 1_555
O22 Si1 1.842941 1_555
O23 Si1 1.706425 1_555
