# generated using pymatgen
data_Na2Zr(Si2O5)3
_symmetry_space_group_name_H-M   'P 1'
_cell_length_a   10.26020200
_cell_length_b   10.26020200
_cell_length_c   14.56812831
_cell_angle_alpha   90.00000000
_cell_angle_beta   90.00000000
_cell_angle_gamma   91.68244234
_symmetry_Int_Tables_number   1
_chemical_formula_structural   Na2Zr(Si2O5)3
_chemical_formula_sum   'Na8 Zr4 Si24 O60'
_cell_volume   1532.95115707
_cell_formula_units_Z   4
loop_
 _symmetry_equiv_pos_site_id
 _symmetry_equiv_pos_as_xyz
  1  'x, y, z'
loop_
 _atom_site_type_symbol
 _atom_site_label
 _atom_site_symmetry_multiplicity
 _atom_site_fract_x
 _atom_site_fract_y
 _atom_site_fract_z
 _atom_site_occupancy
  Na  Na0  1  0.98909209  0.51090791  0.75000000  1
  Na  Na1  1  0.51090791  0.98909209  0.25000000  1
  Na  Na2  1  0.01090791  0.48909209  0.25000000  1
  Na  Na3  1  0.48909209  0.01090791  0.75000000  1
  Na  Na4  1  0.74757210  0.25242790  0.01524031  1
  Na  Na5  1  0.25242790  0.74757210  0.98475969  1
  Na  Na6  1  0.75242790  0.24757210  0.51524031  1
  Na  Na7  1  0.24757210  0.75242790  0.48475969  1
  Zr  Zr0  1  0.00000000  0.50000000  -0.00000000  1
  Zr  Zr1  1  0.50000000  -0.00000000  0.00000000  1
  Zr  Zr2  1  0.00000000  0.50000000  0.50000000  1
  Zr  Zr3  1  0.50000000  -0.00000000  0.50000000  1
  Si  Si0  1  0.27013940  0.50765699  0.83811011  1
  Si  Si1  1  0.50765699  0.27013940  0.16188989  1
  Si  Si2  1  0.00765699  0.77013940  0.33811011  1
  Si  Si3  1  0.77013940  0.00765699  0.66188989  1
  Si  Si4  1  0.72986060  0.49234301  0.16188989  1
  Si  Si5  1  0.49234301  0.72986060  0.83811011  1
  Si  Si6  1  0.99234301  0.22986060  0.66188989  1
  Si  Si7  1  0.22986060  0.99234301  0.33811011  1
  Si  Si8  1  0.99027573  0.79130564  0.12313726  1
  Si  Si9  1  0.79130564  0.99027573  0.87686274  1
  Si  Si10  1  0.29130564  0.49027573  0.62313726  1
  Si  Si11  1  0.49027573  0.29130564  0.37686274  1
  Si  Si12  1  0.00972427  0.20869436  0.87686274  1
  Si  Si13  1  0.20869436  0.00972427  0.12313726  1
  Si  Si14  1  0.70869436  0.50972427  0.37686274  1
  Si  Si15  1  0.50972427  0.70869436  0.62313726  1
  Si  Si16  1  0.78408643  0.68601141  0.85831200  1
  Si  Si17  1  0.68601141  0.78408643  0.14168800  1
  Si  Si18  1  0.18601141  0.28408643  0.35831200  1
  Si  Si19  1  0.28408643  0.18601141  0.64168800  1
  Si  Si20  1  0.21591357  0.31398859  0.14168800  1
  Si  Si21  1  0.31398859  0.21591357  0.85831200  1
  Si  Si22  1  0.81398859  0.71591357  0.64168800  1
  Si  Si23  1  0.71591357  0.81398859  0.35831200  1
  O  O0  1  0.81760648  0.83569208  0.89167179  1
  O  O1  1  0.83569208  0.81760648  0.10832821  1
  O  O2  1  0.33569208  0.31760648  0.39167179  1
  O  O3  1  0.31760648  0.33569208  0.60832821  1
  O  O4  1  0.18239352  0.16430792  0.10832821  1
  O  O5  1  0.16430792  0.18239352  0.89167179  1
  O  O6  1  0.66430792  0.68239352  0.60832821  1
  O  O7  1  0.68239352  0.66430792  0.39167179  1
  O  O8  1  0.23064973  0.50896734  0.72827440  1
  O  O9  1  0.50896734  0.23064973  0.27172560  1
  O  O10  1  0.00896734  0.73064973  0.22827440  1
  O  O11  1  0.73064973  0.00896734  0.77172560  1
  O  O12  1  0.76935027  0.49103266  0.27172560  1
  O  O13  1  0.49103266  0.76935027  0.72827440  1
  O  O14  1  0.99103266  0.26935027  0.77172560  1
  O  O15  1  0.26935027  0.99103266  0.22827440  1
  O  O16  1  0.82934617  0.67065383  0.75000000  1
  O  O17  1  0.67065383  0.82934617  0.25000000  1
  O  O18  1  0.17065383  0.32934617  0.25000000  1
  O  O19  1  0.32934617  0.17065383  0.75000000  1
  O  O20  1  0.86139822  0.57860217  0.91389086  1
  O  O21  1  0.57860217  0.86139822  0.08610914  1
  O  O22  1  0.07860217  0.36139822  0.41389086  1
  O  O23  1  0.36139822  0.07860217  0.58610914  1
  O  O24  1  0.13860178  0.42139783  0.08610914  1
  O  O25  1  0.42139783  0.13860178  0.91389086  1
  O  O26  1  0.92139783  0.63860178  0.58610914  1
  O  O27  1  0.63860178  0.92139783  0.41389086  1
  O  O28  1  0.06671235  0.93328765  0.11765620  1
  O  O29  1  0.93328765  0.06671235  0.88234380  1
  O  O30  1  0.43328765  0.56671235  0.61765620  1
  O  O31  1  0.56671235  0.43328765  0.38234380  1
  O  O32  1  0.86286751  0.46918031  0.10631637  1
  O  O33  1  0.46918031  0.86286751  0.89368363  1
  O  O34  1  0.96918031  0.36286751  0.60631637  1
  O  O35  1  0.36286751  0.96918031  0.39368363  1
  O  O36  1  0.13713249  0.53081969  0.89368363  1
  O  O37  1  0.53081969  0.13713249  0.10631637  1
  O  O38  1  0.03081969  0.63713249  0.39368363  1
  O  O39  1  0.63713249  0.03081969  0.60631637  1
  O  O40  1  0.65710340  0.62596090  0.13583750  1
  O  O41  1  0.62596090  0.65710340  0.86416250  1
  O  O42  1  0.12596090  0.15710340  0.63583750  1
  O  O43  1  0.15710340  0.12596090  0.36416250  1
  O  O44  1  0.34289660  0.37403910  0.86416250  1
  O  O45  1  0.37403910  0.34289660  0.13583750  1
  O  O46  1  0.87403910  0.84289660  0.36416250  1
  O  O47  1  0.84289660  0.87403910  0.63583750  1
  O  O48  1  0.63058878  0.36941122  0.13701452  1
  O  O49  1  0.36941122  0.63058878  0.86298548  1
  O  O50  1  0.86941122  0.13058878  0.63701452  1
  O  O51  1  0.13058878  0.86941122  0.36298548  1
  O  O52  1  0.05065044  0.68966520  0.05158625  1
  O  O53  1  0.68966520  0.05065044  0.94841375  1
  O  O54  1  0.18966520  0.55065044  0.55158625  1
  O  O55  1  0.55065044  0.18966520  0.44841375  1
  O  O56  1  0.94934956  0.31033480  0.94841375  1
  O  O57  1  0.31033480  0.94934956  0.05158625  1
  O  O58  1  0.81033480  0.44934956  0.44841375  1
  O  O59  1  0.44934956  0.81033480  0.55158625  1
loop_
_geom_bond_atom_site_label_1
_geom_bond_atom_site_label_2
_geom_bond_distance
_geom_bond_site_symmetry_2
Na0 O16 2.351713 1_555
Na0 O14 2.499217 1_555
Na0 O8 2.499217 1_655
Na0 O34 2.590780 1_555
Na0 O36 2.590780 1_655
Na0 O26 2.820094 1_555
Na0 O20 2.820094 1_555
Na1 O17 2.351713 1_555
Na1 O15 2.499217 1_555
Na1 O9 2.499217 1_565
Na1 O37 2.590780 1_565
Na1 O35 2.590780 1_555
Na1 O21 2.820094 1_555
Na1 O27 2.820094 1_555
Na2 O18 2.351713 1_555
Na2 O12 2.499217 1_455
Na2 O10 2.499217 1_555
Na2 O32 2.590780 1_455
Na2 O38 2.590780 1_555
Na2 O24 2.820094 1_555
Na2 O22 2.820094 1_555
Na3 O19 2.351713 1_555
Na3 O11 2.499217 1_555
Na3 O13 2.499217 1_545
Na3 O39 2.590780 1_555
Na3 O33 2.590780 1_545
Na3 O25 2.820094 1_555
Na3 O23 2.820094 1_555
Na4 O56 2.348318 1_554
Na4 O53 2.348318 1_554
Na4 O48 2.472460 1_555
Na4 O37 2.819779 1_555
Na4 O32 2.819779 1_555
Na5 O57 2.348318 1_556
Na5 O52 2.348318 1_556
Na5 O49 2.472460 1_555
Na5 O36 2.819779 1_555
Na5 O33 2.819779 1_555
Na6 O55 2.348318 1_555
Na6 O58 2.348318 1_555
Na6 O50 2.472460 1_555
Na6 O39 2.819779 1_555
Na6 O34 2.819779 1_555
Na7 O54 2.348318 1_555
Na7 O59 2.348318 1_555
Na7 O51 2.472460 1_555
Na7 O38 2.819779 1_555
Na7 O35 2.819779 1_555
O0 Si9 1.630975 1_555
O0 Si16 1.637679 1_555
O1 Si8 1.630975 1_555
O1 Si17 1.637679 1_555
O2 Si11 1.630975 1_555
O2 Si18 1.637679 1_555
O3 Si10 1.630975 1_555
O3 Si19 1.637679 1_555
O4 Si13 1.630975 1_555
O4 Si20 1.637679 1_555
O5 Si12 1.630975 1_555
O5 Si21 1.637679 1_555
O6 Si15 1.630975 1_555
O6 Si22 1.637679 1_555
O7 Si14 1.630975 1_555
O7 Si23 1.637679 1_555
O8 Si0 1.650754 1_555
O8 Si10 1.666449 1_555
O9 Si1 1.650754 1_555
O9 Si11 1.666449 1_555
O10 Si2 1.650754 1_555
O10 Si8 1.666449 1_455
O11 Si3 1.650754 1_555
O11 Si9 1.666449 1_545
O12 Si4 1.650754 1_555
O12 Si14 1.666449 1_555
O13 Si5 1.650754 1_555
O13 Si15 1.666449 1_555
O14 Si6 1.650754 1_555
O14 Si12 1.666449 1_655
O15 Si7 1.650754 1_555
O15 Si13 1.666449 1_565
O16 Si16 1.653647 1_555
O16 Si22 1.653647 1_555
O17 Si23 1.653647 1_555
O17 Si17 1.653647 1_555
O18 Si18 1.653647 1_555
O18 Si20 1.653647 1_555
O19 Si21 1.653647 1_555
O19 Si19 1.653647 1_555
O20 Si16 1.597068 1_555
O20 Zr0 2.076946 1_656
O21 Si17 1.597068 1_555
O21 Zr1 2.076946 1_565
O22 Si18 1.597068 1_555
O22 Zr2 2.076946 1_555
O23 Si19 1.597068 1_555
O23 Zr3 2.076946 1_555
O24 Si20 1.597068 1_555
O24 Zr0 2.076946 1_555
O25 Si21 1.597068 1_555
O25 Zr1 2.076946 1_556
O26 Si22 1.597068 1_555
O26 Zr2 2.076946 1_655
O27 Si23 1.597068 1_555
O27 Zr3 2.076946 1_565
O28 Si13 1.636004 1_565
O28 Si8 1.636004 1_455
O29 Si12 1.636004 1_655
O29 Si9 1.636004 1_545
O30 Si10 1.636004 1_555
O30 Si15 1.636004 1_555
O31 Si14 1.636004 1_555
O31 Si11 1.636004 1_555
O32 Si4 1.610380 1_555
O32 Zr0 2.110074 1_655
O33 Si5 1.610380 1_555
O33 Zr1 2.110074 1_566
O34 Si6 1.610380 1_555
O34 Zr2 2.110074 1_655
O35 Si7 1.610380 1_555
O35 Zr3 2.110074 1_565
O36 Si0 1.610380 1_555
O36 Zr0 2.110074 1_556
O37 Si1 1.610380 1_555
O37 Zr1 2.110074 1_555
O38 Si2 1.610380 1_555
O38 Zr2 2.110074 1_555
O39 Si3 1.610380 1_555
O39 Zr3 2.110074 1_555
O40 Si4 1.625086 1_555
O40 Si17 1.642913 1_555
O41 Si5 1.625086 1_555
O41 Si16 1.642913 1_555
O42 Si6 1.625086 1_455
O42 Si19 1.642913 1_555
O43 Si7 1.625086 1_545
O43 Si18 1.642913 1_555
O44 Si0 1.625086 1_555
O44 Si21 1.642913 1_555
O45 Si1 1.625086 1_555
O45 Si20 1.642913 1_555
O46 Si2 1.625086 1_655
O46 Si23 1.642913 1_555
O47 Si3 1.625086 1_565
O47 Si22 1.642913 1_555
O48 Si1 1.638359 1_555
O48 Si4 1.638359 1_555
O49 Si0 1.638359 1_555
O49 Si5 1.638359 1_555
O50 Si6 1.638359 1_555
O50 Si3 1.638359 1_555
O51 Si7 1.638359 1_555
O51 Si2 1.638359 1_555
O52 Si8 1.611125 1_455
O52 Zr0 2.135975 1_555
O53 Si9 1.611125 1_545
O53 Zr1 2.135975 1_556
O54 Si10 1.611125 1_555
O54 Zr2 2.135975 1_555
O55 Si11 1.611125 1_555
O55 Zr3 2.135975 1_555
O56 Si12 1.611125 1_655
O56 Zr0 2.135975 1_656
O57 Si13 1.611125 1_565
O57 Zr1 2.135975 1_565
O58 Si14 1.611125 1_555
O58 Zr2 2.135975 1_655
O59 Si15 1.611125 1_555
O59 Zr3 2.135975 1_565
