# generated using pymatgen
data_Dy2MgSe4
_symmetry_space_group_name_H-M   'P 1'
_cell_length_a   7.47875800
_cell_length_b   8.67258569
_cell_length_c   13.85538975
_cell_angle_alpha   99.18519291
_cell_angle_beta   95.42957360
_cell_angle_gamma   89.97711495
_symmetry_Int_Tables_number   1
_chemical_formula_structural   Dy2MgSe4
_chemical_formula_sum   'Dy8 Mg4 Se16'
_cell_volume   883.06063163
_cell_formula_units_Z   4
loop_
 _symmetry_equiv_pos_site_id
 _symmetry_equiv_pos_as_xyz
  1  'x, y, z'
loop_
 _atom_site_type_symbol
 _atom_site_label
 _atom_site_symmetry_multiplicity
 _atom_site_fract_x
 _atom_site_fract_y
 _atom_site_fract_z
 _atom_site_occupancy
  Dy  Dy0  1  0.86425400  0.30022100  0.69887800  1
  Dy  Dy1  1  0.13574600  0.69977900  0.30112200  1
  Dy  Dy2  1  0.75865200  0.12648800  0.00065100  1
  Dy  Dy3  1  0.24134800  0.87351200  0.99934900  1
  Dy  Dy4  1  0.63151900  0.44432700  0.29966600  1
  Dy  Dy5  1  0.36848100  0.55567300  0.70033400  1
  Dy  Dy6  1  0.63234400  0.95583800  0.30284600  1
  Dy  Dy7  1  0.36765600  0.04416200  0.69715400  1
  Mg  Mg0  1  0.86720200  0.80064600  0.70280200  1
  Mg  Mg1  1  0.13279800  0.19935400  0.29719800  1
  Mg  Mg2  1  0.75113700  0.62321200  0.99663800  1
  Mg  Mg3  1  0.24886300  0.37678800  0.00336200  1
  Se  Se0  1  0.90583100  0.35496300  0.89741500  1
  Se  Se1  1  0.09416900  0.64503700  0.10258500  1
  Se  Se2  1  0.89246100  0.84392900  0.89165900  1
  Se  Se3  1  0.10753900  0.15607100  0.10834100  1
  Se  Se4  1  0.82846900  0.21930100  0.37458100  1
  Se  Se5  1  0.17153100  0.78069900  0.62541900  1
  Se  Se6  1  0.81013500  0.71892900  0.37754600  1
  Se  Se7  1  0.18986500  0.28107100  0.62245400  1
  Se  Se8  1  0.69533400  0.02105800  0.62622400  1
  Se  Se9  1  0.30466600  0.97894200  0.37377600  1
  Se  Se10  1  0.69400400  0.54205400  0.62683600  1
  Se  Se11  1  0.30599600  0.45794600  0.37316400  1
  Se  Se12  1  0.60519000  0.89608900  0.10379000  1
  Se  Se13  1  0.39481000  0.10391100  0.89621000  1
  Se  Se14  1  0.59585500  0.40680600  0.10137800  1
  Se  Se15  1  0.40414500  0.59319400  0.89862200  1
loop_
_geom_bond_atom_site_label_1
_geom_bond_atom_site_label_2
_geom_bond_distance
_geom_bond_site_symmetry_2
Dy0 Se0 2.703764 1_555
Dy0 Se10 2.727997 1_555
Dy0 Se8 2.730305 1_555
Dy0 Se7 2.740504 1_655
Dy1 Se1 2.703764 1_555
Dy1 Se11 2.727997 1_555
Dy1 Se9 2.730305 1_555
Dy1 Se6 2.740504 1_455
Dy2 Se3 2.870861 1_655
Dy2 Se0 2.896257 1_554
Dy2 Se2 2.896477 1_544
Dy2 Se12 2.928446 1_545
Dy2 Se14 2.928527 1_555
Dy2 Se13 2.949824 1_554
Dy3 Se2 2.870861 1_455
Dy3 Se1 2.896257 1_556
Dy3 Se3 2.896477 1_566
Dy3 Se13 2.928446 1_565
Dy3 Se15 2.928527 1_555
Dy3 Se12 2.949824 1_556
Dy4 Se14 2.702033 1_555
Dy4 Se11 2.721827 1_555
Dy4 Se4 2.722242 1_555
Dy4 Se6 2.744036 1_555
Dy5 Se15 2.702033 1_555
Dy5 Se10 2.721827 1_555
Dy5 Se5 2.722242 1_555
Dy5 Se7 2.744036 1_555
Dy6 Se12 2.711852 1_555
Dy6 Se4 2.713272 1_565
Dy6 Se9 2.721038 1_555
Dy6 Se6 2.734396 1_555
Dy7 Se13 2.711852 1_555
Dy7 Se5 2.713272 1_545
Dy7 Se8 2.721038 1_555
Dy7 Se7 2.734396 1_555
Mg0 Se2 2.572270 1_555
Mg0 Se5 2.600374 1_655
Mg0 Se10 2.608813 1_555
Mg0 Se8 2.611388 1_565
Mg1 Se3 2.572270 1_555
Mg1 Se4 2.600374 1_455
Mg1 Se11 2.608813 1_555
Mg1 Se9 2.611388 1_545
Mg2 Se15 2.804850 1_555
Mg2 Se0 2.813972 1_555
Mg2 Se1 2.823335 1_656
Mg2 Se2 2.842230 1_555
Mg2 Se14 2.857842 1_556
Mg2 Se12 2.859894 1_556
Mg3 Se14 2.804850 1_555
Mg3 Se1 2.813972 1_555
Mg3 Se0 2.823335 1_454
Mg3 Se3 2.842230 1_555
Mg3 Se15 2.857842 1_554
Mg3 Se13 2.859894 1_554
