# generated using pymatgen
data_GdTiClO3
_symmetry_space_group_name_H-M   'P 1'
_cell_length_a   5.26079883
_cell_length_b   5.26079883
_cell_length_c   10.00018497
_cell_angle_alpha   74.47252882
_cell_angle_beta   74.47252882
_cell_angle_gamma   43.73306799
_symmetry_Int_Tables_number   1
_chemical_formula_structural   GdTiClO3
_chemical_formula_sum   'Gd2 Ti2 Cl2 O6'
_cell_volume   183.19504540
_cell_formula_units_Z   2
loop_
 _symmetry_equiv_pos_site_id
 _symmetry_equiv_pos_as_xyz
  1  'x, y, z'
loop_
 _atom_site_type_symbol
 _atom_site_label
 _atom_site_symmetry_multiplicity
 _atom_site_fract_x
 _atom_site_fract_y
 _atom_site_fract_z
 _atom_site_occupancy
  Gd  Gd0  1  0.27982895  0.27982895  0.20368712  1
  Gd  Gd1  1  0.72017105  0.72017105  0.79631288  1
  Ti  Ti0  1  0.87983360  0.87983360  0.43325758  1
  Ti  Ti1  1  0.12016640  0.12016640  0.56674242  1
  Cl  Cl0  1  0.61222765  0.61222765  0.09711665  1
  Cl  Cl1  1  0.38777235  0.38777235  0.90288335  1
  O  O0  1  0.85088812  0.85088812  0.25601105  1
  O  O1  1  0.14911188  0.14911188  0.74398895  1
  O  O2  1  0.66773536  0.66773536  0.56224527  1
  O  O3  1  0.33226464  0.33226464  0.43775473  1
  O  O4  1  0.92208156  0.92208156  0.62216173  1
  O  O5  1  0.07791844  0.07791844  0.37783827  1
loop_
_geom_bond_atom_site_label_1
_geom_bond_atom_site_label_2
_geom_bond_distance
_geom_bond_site_symmetry_2
Gd0 O0 2.191756 1_545
Gd0 O0 2.191756 1_455
Gd0 O5 2.222438 1_555
Gd0 O3 2.536245 1_555
Gd1 O1 2.191756 1_565
Gd1 O1 2.191756 1_655
Gd1 O4 2.222438 1_555
Gd1 O2 2.536245 1_555
Cl0 Gd1 2.886252 1_554
Cl0 Gd0 2.942686 1_655
Cl0 Gd0 2.942686 1_565
Cl0 Gd0 3.110476 1_555
Cl1 Gd0 2.886252 1_556
Cl1 Gd1 2.942686 1_455
Cl1 Gd1 2.942686 1_545
Cl1 Gd1 3.110476 1_555
O0 Ti0 1.873674 1_555
O1 Ti1 1.873674 1_555
O2 Ti1 2.011175 1_565
O2 Ti1 2.011175 1_655
O2 Ti0 2.100461 1_555
O3 Ti0 2.011175 1_545
O3 Ti0 2.011175 1_455
O3 Ti1 2.100461 1_555
O4 Ti1 1.852009 1_665
O4 Ti0 2.046554 1_555
O5 Ti0 1.852009 1_445
O5 Ti1 2.046554 1_555
