# generated using pymatgen
data_CaAgBi
_symmetry_space_group_name_H-M   'P 1'
_cell_length_a   4.91725410
_cell_length_b   4.91725410
_cell_length_c   8.05803400
_cell_angle_alpha   90.00000000
_cell_angle_beta   90.00000000
_cell_angle_gamma   120.00000139
_symmetry_Int_Tables_number   1
_chemical_formula_structural   CaAgBi
_chemical_formula_sum   'Ca2 Ag2 Bi2'
_cell_volume   168.73494098
_cell_formula_units_Z   2
loop_
 _symmetry_equiv_pos_site_id
 _symmetry_equiv_pos_as_xyz
  1  'x, y, z'
loop_
 _atom_site_type_symbol
 _atom_site_label
 _atom_site_symmetry_multiplicity
 _atom_site_fract_x
 _atom_site_fract_y
 _atom_site_fract_z
 _atom_site_occupancy
  Ca  Ca0  1  0.00000000  0.00000000  0.50000000  1
  Ca  Ca1  1  0.00000000  0.00000000  0.00000000  1
  Ag  Ag0  1  0.33333300  0.66666700  0.75000000  1
  Ag  Ag1  1  0.66666700  0.33333300  0.25000000  1
  Bi  Bi0  1  0.33333300  0.66666700  0.25000000  1
  Bi  Bi1  1  0.66666700  0.33333300  0.75000000  1
loop_
_geom_bond_atom_site_label_1
_geom_bond_atom_site_label_2
_geom_bond_distance
_geom_bond_site_symmetry_2
Ag0 Bi1 2.838975 1_455
Ag0 Bi1 2.838975 1_565
Ag0 Bi1 2.838984 1_555
Ag0 Ca1 3.481095 1_566
Ag0 Ca0 3.481095 1_565
Ag0 Ca0 3.481099 1_665
Ag0 Ca0 3.481099 1_555
Ag0 Ca1 3.481099 1_666
Ag0 Ca1 3.481099 1_556
Ag1 Bi0 2.838975 1_655
Ag1 Bi0 2.838975 1_545
Ag1 Bi0 2.838984 1_555
Ag1 Ca1 3.481095 1_655
Ag1 Ca0 3.481095 1_655
Ag1 Ca0 3.481099 1_665
Ag1 Ca1 3.481099 1_665
Ag1 Ca0 3.481099 1_555
Ag1 Ca1 3.481099 1_555
Bi0 Ca1 3.481095 1_565
Bi0 Ca0 3.481095 1_565
Bi0 Ca0 3.481099 1_665
Bi0 Ca1 3.481099 1_665
Bi0 Ca1 3.481099 1_555
Bi0 Ca0 3.481099 1_555
Bi1 Ca1 3.481095 1_656
Bi1 Ca0 3.481095 1_655
Bi1 Ca0 3.481099 1_665
Bi1 Ca1 3.481099 1_666
Bi1 Ca0 3.481099 1_555
Bi1 Ca1 3.481099 1_556
