# generated using pymatgen
data_U8MnSe17
_symmetry_space_group_name_H-M   'P 1'
_cell_length_a   8.31151705
_cell_length_b   8.31165667
_cell_length_c   11.00556118
_cell_angle_alpha   80.32919919
_cell_angle_beta   80.27644325
_cell_angle_gamma   64.41573434
_symmetry_Int_Tables_number   1
_chemical_formula_structural   U8MnSe17
_chemical_formula_sum   'U8 Mn1 Se17'
_cell_volume   672.01983999
_cell_formula_units_Z   1
loop_
 _symmetry_equiv_pos_site_id
 _symmetry_equiv_pos_as_xyz
  1  'x, y, z'
loop_
 _atom_site_type_symbol
 _atom_site_label
 _atom_site_symmetry_multiplicity
 _atom_site_fract_x
 _atom_site_fract_y
 _atom_site_fract_z
 _atom_site_occupancy
  U  U0  1  0.81551372  0.30219940  0.29678555  1
  U  U1  1  0.30284139  0.81490633  0.29647636  1
  U  U2  1  0.18448628  0.69780060  0.70321445  1
  U  U3  1  0.69715861  0.18509367  0.70352364  1
  U  U4  1  0.20364391  0.20353913  0.54246354  1
  U  U5  1  0.79635609  0.79646087  0.45753646  1
  U  U6  1  0.68108019  0.68130431  0.98272367  1
  U  U7  1  0.31891981  0.31869569  0.01727633  1
  Mn  Mn0  1  -0.00000000  0.00000000  -0.00000000  1
  Se  Se0  1  0.82256354  0.43310765  0.53374078  1
  Se  Se1  1  0.43307670  0.82249468  0.53390128  1
  Se  Se2  1  0.17743646  0.56689235  0.46625922  1
  Se  Se3  1  0.56692330  0.17750532  0.46609872  1
  Se  Se4  1  0.94208332  0.32894246  0.03132185  1
  Se  Se5  1  0.32888327  0.94179285  0.03125383  1
  Se  Se6  1  0.05791668  0.67105754  0.96867815  1
  Se  Se7  1  0.67111673  0.05820715  0.96874617  1
  Se  Se8  1  0.20904731  0.20828917  0.27942618  1
  Se  Se9  1  0.79095269  0.79171083  0.72057382  1
  Se  Se10  1  0.05677812  0.05722896  0.76997565  1
  Se  Se11  1  0.94322188  0.94277104  0.23002435  1
  Se  Se12  1  0.30074343  0.30116359  0.75401331  1
  Se  Se13  1  0.69925657  0.69883641  0.24598669  1
  Se  Se14  1  0.52114468  0.52130826  0.82806336  1
  Se  Se15  1  0.47885532  0.47869174  0.17193664  1
  Se  Se16  1  -0.00000000  0.00000000  0.50000000  1
loop_
_geom_bond_atom_site_label_1
_geom_bond_atom_site_label_2
_geom_bond_distance
_geom_bond_site_symmetry_2
Mn0 Se10 2.498689 1_554
Mn0 Se11 2.498689 1_445
Mn0 Se7 2.635148 1_454
Mn0 Se5 2.635148 1_545
Mn0 Se4 2.636194 1_455
Mn0 Se6 2.636194 1_544
Se0 U4 2.916098 1_655
Se0 U5 2.917910 1_555
Se0 U3 2.954827 1_555
Se0 U0 3.008001 1_555
Se1 U4 2.915354 1_565
Se1 U5 2.917120 1_555
Se1 U2 2.952205 1_555
Se1 U1 3.012171 1_555
Se2 U5 2.916098 1_455
Se2 U4 2.917910 1_555
Se2 U1 2.954827 1_555
Se2 U2 3.008001 1_555
Se3 U5 2.915354 1_545
Se3 U4 2.917120 1_555
Se3 U0 2.952205 1_555
Se3 U3 3.012171 1_555
Se4 U6 2.819189 1_554
Se4 U0 2.938926 1_555
Se4 U7 3.074343 1_655
Se5 U6 2.815751 1_554
Se5 U1 2.937464 1_555
Se5 U7 3.076132 1_565
Se6 U7 2.819189 1_556
Se6 U2 2.938926 1_555
Se6 U6 3.074343 1_455
Se7 U7 2.815751 1_556
Se7 U3 2.937464 1_555
Se7 U6 3.076132 1_545
Se8 U4 2.881508 1_555
Se8 U7 2.990682 1_555
Se8 U1 2.995908 1_545
Se8 U0 2.996378 1_455
Se9 U5 2.881508 1_555
Se9 U6 2.990682 1_555
Se9 U3 2.995908 1_565
Se9 U2 2.996378 1_655
Se10 U2 2.885592 1_545
Se10 U3 2.886533 1_455
Se10 U4 2.909472 1_555
Se11 U0 2.885592 1_565
Se11 U1 2.886533 1_655
Se11 U5 2.909472 1_555
Se12 U4 2.926661 1_555
Se12 U7 2.957610 1_556
Se12 U3 2.985237 1_555
Se12 U2 2.987730 1_555
Se13 U5 2.926661 1_555
Se13 U6 2.957610 1_554
Se13 U1 2.985237 1_555
Se13 U0 2.987730 1_555
Se14 U3 2.984413 1_555
Se14 U2 2.990962 1_555
Se14 U6 3.079657 1_555
Se14 U7 3.175157 1_556
Se15 U1 2.984413 1_555
Se15 U0 2.990962 1_555
Se15 U7 3.079657 1_555
Se15 U6 3.175157 1_554
Se16 U4 2.991851 1_555
Se16 U5 2.991851 1_445
Se16 U2 3.099473 1_545
Se16 U0 3.099473 1_455
Se16 U3 3.102964 1_455
Se16 U1 3.102964 1_545
