# generated using pymatgen
data_TaCrCo
_symmetry_space_group_name_H-M   'P 1'
_cell_length_a   4.73362209
_cell_length_b   4.73362209
_cell_length_c   7.95494482
_cell_angle_alpha   90.00000000
_cell_angle_beta   90.00000000
_cell_angle_gamma   119.17867463
_symmetry_Int_Tables_number   1
_chemical_formula_structural   TaCrCo
_chemical_formula_sum   'Ta4 Cr4 Co4'
_cell_volume   155.62885235
_cell_formula_units_Z   4
loop_
 _symmetry_equiv_pos_site_id
 _symmetry_equiv_pos_as_xyz
  1  'x, y, z'
loop_
 _atom_site_type_symbol
 _atom_site_label
 _atom_site_symmetry_multiplicity
 _atom_site_fract_x
 _atom_site_fract_y
 _atom_site_fract_z
 _atom_site_occupancy
  Ta  Ta0  1  0.66980335  0.33019665  0.31648944  1
  Ta  Ta1  1  0.33740842  0.66259158  0.18918100  1
  Ta  Ta2  1  0.33740842  0.66259158  0.81081900  1
  Ta  Ta3  1  0.66980335  0.33019665  0.68351056  1
  Cr  Cr0  1  0.16499057  0.83500943  0.50000000  1
  Cr  Cr1  1  0.34245781  0.16753659  0.00000000  1
  Cr  Cr2  1  0.83246341  0.65754219  0.00000000  1
  Cr  Cr3  1  0.83017775  0.16982225  0.00000000  1
  Co  Co0  1  0.00019120  0.99980880  0.25710355  1
  Co  Co1  1  0.00019120  0.99980880  0.74289645  1
  Co  Co2  1  0.65453559  0.83923906  0.50000000  1
  Co  Co3  1  0.16076094  0.34546441  0.50000000  1
loop_
_geom_bond_atom_site_label_1
_geom_bond_atom_site_label_2
_geom_bond_distance
_geom_bond_site_symmetry_2
Ta0 Ta1 2.896717 1_555
Ta0 Ta3 2.919633 1_555
Ta0 Ta1 2.939342 1_545
Ta0 Ta1 2.939342 1_655
Ta1 Ta2 3.009849 1_554
Ta2 Ta3 2.896717 1_555
Ta2 Ta3 2.939342 1_565
Ta2 Ta3 2.939342 1_455
Cr0 Ta3 2.806075 1_565
Cr0 Ta0 2.806075 1_565
Cr0 Ta0 2.806075 1_455
Cr0 Ta3 2.806075 1_455
Cr0 Ta2 2.845214 1_555
Cr0 Ta1 2.845214 1_555
Cr1 Cr3 2.303426 1_555
Cr1 Cr2 2.348237 1_555
Cr1 Cr3 2.430233 1_455
Cr1 Cr2 2.444028 1_445
Cr1 Ta1 2.794910 1_555
Cr1 Ta2 2.794910 1_554
Cr1 Ta2 2.814748 1_544
Cr1 Ta1 2.814748 1_545
Cr1 Ta3 2.858171 1_554
Cr1 Ta0 2.858171 1_555
Cr2 Cr3 2.303426 1_555
Cr2 Cr3 2.430233 1_565
Cr2 Ta1 2.794910 1_555
Cr2 Ta2 2.794910 1_554
Cr2 Ta1 2.814748 1_655
Cr2 Ta2 2.814748 1_654
Cr2 Ta0 2.858171 1_555
Cr2 Ta3 2.858171 1_554
Cr3 Ta1 2.830147 1_545
Cr3 Ta1 2.830147 1_655
Cr3 Ta2 2.830147 1_654
Cr3 Ta2 2.830147 1_544
Cr3 Ta3 2.837809 1_554
Cr3 Ta0 2.837809 1_555
Co0 Cr0 2.354568 1_555
Co0 Co2 2.403278 1_455
Co0 Co3 2.403278 1_565
Co0 Cr3 2.471819 1_465
Co0 Cr2 2.486774 1_455
Co0 Cr1 2.486774 1_565
Co0 Ta0 2.738583 1_465
Co0 Ta1 2.792820 1_455
Co0 Ta1 2.792820 1_565
Co0 Ta1 2.805806 1_555
Co0 Ta0 2.807561 1_455
Co0 Ta0 2.807561 1_565
Co1 Cr0 2.354568 1_555
Co1 Co2 2.403278 1_455
Co1 Co3 2.403278 1_565
Co1 Cr3 2.471819 1_466
Co1 Cr2 2.486774 1_456
Co1 Cr1 2.486774 1_566
Co1 Ta3 2.738583 1_465
Co1 Ta2 2.792820 1_455
Co1 Ta2 2.792820 1_565
Co1 Ta2 2.805806 1_555
Co1 Ta3 2.807561 1_455
Co1 Ta3 2.807561 1_565
Co2 Cr0 2.307626 1_555
Co2 Co3 2.366299 1_555
Co2 Co3 2.425966 1_665
Co2 Cr0 2.426125 1_655
Co2 Ta3 2.715424 1_565
Co2 Ta0 2.715424 1_565
Co2 Ta2 2.800398 1_555
Co2 Ta1 2.800398 1_555
Co2 Ta3 2.848216 1_555
Co2 Ta0 2.848216 1_555
Co3 Cr0 2.307626 1_555
Co3 Cr0 2.426125 1_545
Co3 Ta3 2.715424 1_455
Co3 Ta0 2.715424 1_455
Co3 Ta2 2.800398 1_555
Co3 Ta1 2.800398 1_555
Co3 Ta3 2.848216 1_555
Co3 Ta0 2.848216 1_555
