# generated using pymatgen
data_C5Cl4
_symmetry_space_group_name_H-M   'P 1'
_cell_length_a   7.77797900
_cell_length_b   9.92924100
_cell_length_c   19.86442853
_cell_angle_alpha   68.15756771
_cell_angle_beta   90.00000000
_cell_angle_gamma   90.00000000
_symmetry_Int_Tables_number   1
_chemical_formula_structural   C5Cl4
_chemical_formula_sum   'C40 Cl32'
_cell_volume   1423.98492252
_cell_formula_units_Z   8
loop_
 _symmetry_equiv_pos_site_id
 _symmetry_equiv_pos_as_xyz
  1  'x, y, z'
loop_
 _atom_site_type_symbol
 _atom_site_label
 _atom_site_symmetry_multiplicity
 _atom_site_fract_x
 _atom_site_fract_y
 _atom_site_fract_z
 _atom_site_occupancy
  C  C0  1  0.88813100  0.74229800  0.34578100  1
  C  C1  1  0.11186900  0.25770200  0.65421900  1
  C  C2  1  0.38813100  0.25770200  0.15421900  1
  C  C3  1  0.61186900  0.74229800  0.84578100  1
  C  C4  1  0.86977300  0.87689000  0.19274100  1
  C  C5  1  0.13022700  0.12311000  0.80725900  1
  C  C6  1  0.36977300  0.12311000  0.30725900  1
  C  C7  1  0.63022700  0.87689000  0.69274100  1
  C  C8  1  0.86478100  0.89216000  0.31399600  1
  C  C9  1  0.13521900  0.10784000  0.68600400  1
  C  C10  1  0.36478100  0.10784000  0.18600400  1
  C  C11  1  0.63521900  0.89216000  0.81399600  1
  C  C12  1  0.35785600  0.81755400  0.37655600  1
  C  C13  1  0.64214400  0.18244600  0.62344400  1
  C  C14  1  0.85785600  0.18244600  0.12344400  1
  C  C15  1  0.14214400  0.81755400  0.87655600  1
  C  C16  1  0.31737300  0.90567700  0.41636200  1
  C  C17  1  0.68262700  0.09432300  0.58363800  1
  C  C18  1  0.81737300  0.09432300  0.08363800  1
  C  C19  1  0.18262700  0.90567700  0.91636200  1
  C  C20  1  0.92576300  0.66107600  0.30225300  1
  C  C21  1  0.07423700  0.33892400  0.69774700  1
  C  C22  1  0.42576300  0.33892400  0.19774700  1
  C  C23  1  0.57423700  0.66107600  0.80225300  1
  C  C24  1  0.82133300  0.94373400  0.11782200  1
  C  C25  1  0.17866700  0.05626600  0.88217800  1
  C  C26  1  0.32133300  0.05626600  0.38217800  1
  C  C27  1  0.67866700  0.94373400  0.61782200  1
  C  C28  1  0.91822200  0.72705300  0.22714900  1
  C  C29  1  0.08177800  0.27294700  0.77285100  1
  C  C30  1  0.41822200  0.27294700  0.27285100  1
  C  C31  1  0.58177800  0.72705300  0.72714900  1
  C  C32  1  0.37855800  0.87893400  0.30148300  1
  C  C33  1  0.62144200  0.12106600  0.69851700  1
  C  C34  1  0.87855800  0.12106600  0.19851700  1
  C  C35  1  0.12144200  0.87893400  0.80148300  1
  C  C36  1  0.87085000  0.96605000  0.23639400  1
  C  C37  1  0.12915000  0.03395000  0.76360600  1
  C  C38  1  0.37085000  0.03395000  0.26360600  1
  C  C39  1  0.62915000  0.96605000  0.73639400  1
  Cl  Cl0  1  0.87696000  0.36656200  0.07813600  1
  Cl  Cl1  1  0.12304000  0.63343800  0.92186400  1
  Cl  Cl2  1  0.37696000  0.63343800  0.42186400  1
  Cl  Cl3  1  0.62304000  0.36656200  0.57813600  1
  Cl  Cl4  1  0.98309100  0.48178700  0.34310400  1
  Cl  Cl5  1  0.01690900  0.51821300  0.65689600  1
  Cl  Cl6  1  0.48309100  0.51821300  0.15689600  1
  Cl  Cl7  1  0.51690900  0.48178700  0.84310400  1
  Cl  Cl8  1  0.74786400  0.84405000  0.06895000  1
  Cl  Cl9  1  0.25213600  0.15595000  0.93105000  1
  Cl  Cl10  1  0.24786400  0.15595000  0.43105000  1
  Cl  Cl11  1  0.75213600  0.84405000  0.56895000  1
  Cl  Cl12  1  0.42621100  0.76081800  0.25897400  1
  Cl  Cl13  1  0.57378900  0.23918200  0.74102600  1
  Cl  Cl14  1  0.92621100  0.23918200  0.24102600  1
  Cl  Cl15  1  0.07378900  0.76081800  0.75897400  1
  Cl  Cl16  1  0.81416300  0.97895700  0.37201800  1
  Cl  Cl17  1  0.18583700  0.02104300  0.62798200  1
  Cl  Cl18  1  0.31416300  0.02104300  0.12798200  1
  Cl  Cl19  1  0.68583700  0.97895700  0.87201800  1
  Cl  Cl20  1  0.98988300  0.62799900  0.17776500  1
  Cl  Cl21  1  0.01011700  0.37200100  0.82223500  1
  Cl  Cl22  1  0.48988300  0.37200100  0.32223500  1
  Cl  Cl23  1  0.51011700  0.62799900  0.67776500  1
  Cl  Cl24  1  0.23488800  0.82554700  0.00640200  1
  Cl  Cl25  1  0.76511200  0.17445300  0.99359800  1
  Cl  Cl26  1  0.73488800  0.17445300  0.49359800  1
  Cl  Cl27  1  0.26511200  0.82554700  0.50640200  1
  Cl  Cl28  1  0.87680400  0.65400200  0.43816100  1
  Cl  Cl29  1  0.12319600  0.34599800  0.56183900  1
  Cl  Cl30  1  0.37680400  0.34599800  0.06183900  1
  Cl  Cl31  1  0.62319600  0.65400200  0.93816100  1
loop_
_geom_bond_atom_site_label_1
_geom_bond_atom_site_label_2
_geom_bond_distance
_geom_bond_site_symmetry_2
C0 C8 1.395250 1_555
C0 C20 1.415130 1_555
C0 Cl28 1.716607 1_555
C1 C9 1.395250 1_555
C1 C21 1.415130 1_555
C1 Cl29 1.716607 1_555
C2 C22 1.415130 1_555
C2 Cl30 1.716607 1_555
C3 Cl31 1.716607 1_555
C8 Cl16 1.722010 1_555
C9 Cl17 1.722010 1_555
C10 C2 1.395250 1_555
C10 C38 1.440562 1_555
C10 Cl18 1.722010 1_555
C11 C3 1.395250 1_555
C11 C39 1.440562 1_555
C11 Cl19 1.722010 1_555
C12 C32 1.394628 1_555
C12 C16 1.415924 1_555
C12 Cl2 1.717514 1_555
C13 C33 1.394628 1_555
C13 C17 1.415924 1_555
C13 Cl3 1.717514 1_555
C14 C34 1.394628 1_555
C14 C18 1.415924 1_555
C14 Cl0 1.717514 1_555
C15 C35 1.394628 1_555
C15 C19 1.415924 1_555
C15 Cl1 1.717514 1_555
C16 C26 1.393649 1_565
C16 Cl27 1.714179 1_555
C17 C27 1.393649 1_545
C17 Cl26 1.714179 1_555
C18 C24 1.393649 1_545
C18 Cl25 1.714179 1_554
C19 C25 1.393649 1_565
C19 Cl24 1.714179 1_556
C20 C28 1.389642 1_555
C20 Cl4 1.717995 1_555
C21 C29 1.389642 1_555
C21 Cl5 1.717995 1_555
C22 C30 1.389642 1_555
C22 Cl6 1.717995 1_555
C23 C31 1.389642 1_555
C23 C3 1.415130 1_555
C23 Cl7 1.717995 1_555
C24 C4 1.436063 1_555
C24 Cl8 1.721545 1_555
C25 C5 1.436063 1_555
C25 Cl9 1.721545 1_555
C26 C6 1.436063 1_555
C26 Cl10 1.721545 1_555
C27 C7 1.436063 1_555
C27 Cl11 1.721545 1_555
C28 C4 1.437341 1_555
C28 Cl20 1.719963 1_555
C29 C5 1.437341 1_555
C29 Cl21 1.719963 1_555
C30 C6 1.437341 1_555
C30 Cl22 1.719963 1_555
C31 C7 1.437341 1_555
C31 Cl23 1.719963 1_555
C32 C38 1.441203 1_565
C32 Cl12 1.721279 1_555
C33 C39 1.441203 1_545
C33 Cl13 1.721279 1_555
C34 C36 1.441203 1_545
C34 Cl14 1.721279 1_555
C35 C37 1.441203 1_565
C35 Cl15 1.721279 1_555
C36 C8 1.440562 1_555
C36 C4 1.451544 1_555
C37 C9 1.440562 1_555
C37 C5 1.451544 1_555
C38 C6 1.451544 1_555
C39 C7 1.451544 1_555
