# generated using pymatgen
data_Mg2Co3O8
_symmetry_space_group_name_H-M   'P 1'
_cell_length_a   5.64859673
_cell_length_b   5.64860221
_cell_length_c   9.22836317
_cell_angle_alpha   90.00002568
_cell_angle_beta   89.99993882
_cell_angle_gamma   120.00014491
_symmetry_Int_Tables_number   1
_chemical_formula_structural   Mg2Co3O8
_chemical_formula_sum   'Mg4 Co6 O16'
_cell_volume   254.99768459
_cell_formula_units_Z   2
loop_
 _symmetry_equiv_pos_site_id
 _symmetry_equiv_pos_as_xyz
  1  'x, y, z'
loop_
 _atom_site_type_symbol
 _atom_site_label
 _atom_site_symmetry_multiplicity
 _atom_site_fract_x
 _atom_site_fract_y
 _atom_site_fract_z
 _atom_site_occupancy
  Mg  Mg0  1  0.66666331  0.33333624  0.02001687  1
  Mg  Mg1  1  0.33333798  0.66666439  0.52002091  1
  Mg  Mg2  1  0.66666914  0.33333131  0.42571871  1
  Mg  Mg3  1  0.33333254  0.66666990  0.92571919  1
  Co  Co0  1  0.67167371  0.83583368  0.24523495  1
  Co  Co1  1  0.83583682  0.16416084  0.74523078  1
  Co  Co2  1  0.16416888  0.32832720  0.24523413  1
  Co  Co3  1  0.83583657  0.67167706  0.74523001  1
  Co  Co4  1  0.32832814  0.16416777  0.74523311  1
  Co  Co5  1  0.16416619  0.83583376  0.24523516  1
  O  O0  1  0.84180304  0.15820147  0.14722514  1
  O  O1  1  0.68359640  0.84179867  0.64721895  1
  O  O2  1  0.15820260  0.31639656  0.64721963  1
  O  O3  1  0.84180281  0.68359921  0.14722348  1
  O  O4  1  0.31640095  0.15819706  0.14722353  1
  O  O5  1  0.15820451  0.84181018  0.64722190  1
  O  O6  1  0.51874538  0.48123665  0.86009493  1
  O  O7  1  0.03752300  0.51875983  0.36010338  1
  O  O8  1  0.48124149  0.96247891  0.36010301  1
  O  O9  1  0.51874539  0.03751643  0.86009942  1
  O  O10  1  0.00000239  -0.00000066  0.35227490  1
  O  O11  1  0.00000896  0.00000462  0.85227106  1
  O  O12  1  0.33333444  0.66666601  0.13782292  1
  O  O13  1  0.96248164  0.48124449  0.86010242  1
  O  O14  1  0.48124185  0.51875682  0.36010014  1
  O  O15  1  0.66665187  0.33332861  0.63781838  1
loop_
_geom_bond_atom_site_label_1
_geom_bond_atom_site_label_2
_geom_bond_distance
_geom_bond_site_symmetry_2
Mg0 O13 2.066858 1_554
Mg0 O9 2.066885 1_554
Mg0 O6 2.066912 1_554
Mg0 O4 2.076986 1_555
Mg0 O3 2.076990 1_555
Mg0 O0 2.077049 1_555
Mg1 O7 2.066868 1_555
Mg1 O8 2.066869 1_555
Mg1 O14 2.066878 1_555
Mg1 O1 2.076927 1_555
Mg1 O2 2.076969 1_555
Mg1 O5 2.077028 1_555
Mg2 O8 1.912534 1_545
Mg2 O7 1.912537 1_655
Mg2 O14 1.912547 1_555
Mg2 O15 1.957333 1_555
Mg3 O9 1.912518 1_565
Mg3 O13 1.912529 1_455
Mg3 O6 1.912532 1_555
Mg3 O12 1.957370 1_556
Co0 O3 1.818630 1_555
Co0 O0 1.818638 1_565
Co0 O10 1.885576 1_665
Co0 O14 1.887314 1_555
Co0 O8 1.887333 1_555
Co0 O12 1.929221 1_555
Co1 O1 1.818623 1_545
Co1 O2 1.818634 1_655
Co1 O11 1.885580 1_655
Co1 O13 1.887378 1_555
Co1 O9 1.887394 1_555
Co1 O15 1.929283 1_555
Co2 O4 1.818620 1_555
Co2 O0 1.818625 1_455
Co2 O10 1.885577 1_555
Co2 O14 1.887302 1_555
Co2 O7 1.887344 1_555
Co2 O12 1.929216 1_555
Co3 O1 1.818621 1_555
Co3 O5 1.818629 1_655
Co3 O11 1.885577 1_665
Co3 O13 1.887358 1_555
Co3 O6 1.887369 1_555
Co3 O15 1.929258 1_555
Co4 O5 1.818601 1_545
Co4 O2 1.818601 1_555
Co4 O11 1.885525 1_555
Co4 O6 1.887259 1_555
Co4 O9 1.887284 1_555
Co4 O15 1.929167 1_555
Co5 O4 1.818628 1_565
Co5 O3 1.818628 1_455
Co5 O10 1.885580 1_565
Co5 O7 1.887319 1_555
Co5 O8 1.887322 1_555
Co5 O12 1.929211 1_555
