# generated using pymatgen
data_MgZn3
_symmetry_space_group_name_H-M   'P 1'
_cell_length_a   5.95441915
_cell_length_b   5.95441915
_cell_length_c   17.55720600
_cell_angle_alpha   90.00000000
_cell_angle_beta   90.00000000
_cell_angle_gamma   119.99999052
_symmetry_Int_Tables_number   1
_chemical_formula_structural   MgZn3
_chemical_formula_sum   'Mg8 Zn24'
_cell_volume   539.09447755
_cell_formula_units_Z   8
loop_
 _symmetry_equiv_pos_site_id
 _symmetry_equiv_pos_as_xyz
  1  'x, y, z'
loop_
 _atom_site_type_symbol
 _atom_site_label
 _atom_site_symmetry_multiplicity
 _atom_site_fract_x
 _atom_site_fract_y
 _atom_site_fract_z
 _atom_site_occupancy
  Mg  Mg0_0  1  0.33333350  0.16666650  0.25000000  1
  Mg  Mg0_1  1  0.33333350  0.16666650  0.75000000  1
  Mg  Mg0_2  1  0.33333350  0.66666650  0.25000000  1
  Mg  Mg0_3  1  0.33333350  0.66666650  0.75000000  1
  Mg  Mg0_4  1  0.83333350  0.16666650  0.25000000  1
  Mg  Mg0_5  1  0.83333350  0.16666650  0.75000000  1
  Mg  Mg0_6  1  0.83333350  0.66666650  0.25000000  1
  Mg  Mg0_7  1  0.83333350  0.66666650  0.75000000  1
  Zn  Zn0_0  1  0.33333350  0.16666650  0.00000000  1
  Zn  Zn0_1  1  0.33333350  0.16666650  0.50000000  1
  Zn  Zn0_2  1  0.33333350  0.66666650  0.00000000  1
  Zn  Zn0_3  1  0.33333350  0.66666650  0.50000000  1
  Zn  Zn0_4  1  0.83333350  0.16666650  0.00000000  1
  Zn  Zn0_5  1  0.83333350  0.16666650  0.50000000  1
  Zn  Zn0_6  1  0.83333350  0.66666650  0.00000000  1
  Zn  Zn0_7  1  0.83333350  0.66666650  0.50000000  1
  Zn  Zn1_0  1  0.00000000  0.00000000  0.37991650  1
  Zn  Zn1_1  1  0.00000000  0.00000000  0.87991650  1
  Zn  Zn1_2  1  0.00000000  0.50000000  0.37991650  1
  Zn  Zn1_3  1  0.00000000  0.50000000  0.87991650  1
  Zn  Zn1_4  1  0.50000000  0.00000000  0.37991650  1
  Zn  Zn1_5  1  0.50000000  0.00000000  0.87991650  1
  Zn  Zn1_6  1  0.50000000  0.50000000  0.37991650  1
  Zn  Zn1_7  1  0.50000000  0.50000000  0.87991650  1
  Zn  Zn2_0  1  0.00000000  0.00000000  0.12008350  1
  Zn  Zn2_1  1  0.00000000  0.00000000  0.62008350  1
  Zn  Zn2_2  1  0.00000000  0.50000000  0.12008350  1
  Zn  Zn2_3  1  0.00000000  0.50000000  0.62008350  1
  Zn  Zn2_4  1  0.50000000  0.00000000  0.12008350  1
  Zn  Zn2_5  1  0.50000000  0.00000000  0.62008350  1
  Zn  Zn2_6  1  0.50000000  0.50000000  0.12008350  1
  Zn  Zn2_7  1  0.50000000  0.50000000  0.62008350  1
loop_
_geom_bond_atom_site_label_1
_geom_bond_atom_site_label_2
_geom_bond_distance
_geom_bond_site_symmetry_2
Mg0_0 Zn2_4 2.856119 1_555
Mg0_0 Zn1_4 2.856119 1_555
Mg0_0 Zn1_0 2.856120 1_555
Mg0_0 Zn1_6 2.856120 1_555
Mg0_0 Zn2_0 2.856120 1_555
Mg0_0 Zn2_6 2.856120 1_555
Mg0_0 Mg0_2 2.977210 1_545
Mg0_0 Mg0_4 2.977210 1_555
Mg0_0 Mg0_2 2.977210 1_555
Mg0_0 Mg0_4 2.977210 1_455
Mg0_0 Mg0_6 2.977210 1_555
Mg0_0 Mg0_6 2.977210 1_445
Mg0_1 Zn1_5 2.856119 1_555
Mg0_1 Zn2_5 2.856119 1_555
Mg0_1 Zn2_1 2.856120 1_555
Mg0_1 Zn1_7 2.856120 1_555
Mg0_1 Zn1_1 2.856120 1_555
Mg0_1 Zn2_7 2.856120 1_555
Mg0_1 Mg0_5 2.977210 1_555
Mg0_1 Mg0_3 2.977210 1_545
Mg0_1 Mg0_5 2.977210 1_455
Mg0_1 Mg0_3 2.977210 1_555
Mg0_1 Mg0_7 2.977210 1_555
Mg0_1 Mg0_7 2.977210 1_445
Mg0_2 Zn1_6 2.856119 1_555
Mg0_2 Zn2_6 2.856119 1_555
Mg0_2 Zn1_4 2.856120 1_565
Mg0_2 Zn2_4 2.856120 1_565
Mg0_2 Zn2_2 2.856120 1_555
Mg0_2 Zn1_2 2.856120 1_555
Mg0_2 Mg0_6 2.977210 1_555
Mg0_2 Mg0_6 2.977210 1_455
Mg0_2 Mg0_4 2.977210 1_565
Mg0_2 Mg0_4 2.977210 1_455
Mg0_3 Zn2_7 2.856119 1_555
Mg0_3 Zn1_7 2.856119 1_555
Mg0_3 Zn2_5 2.856120 1_565
Mg0_3 Zn1_5 2.856120 1_565
Mg0_3 Zn1_3 2.856120 1_555
Mg0_3 Zn2_3 2.856120 1_555
Mg0_3 Mg0_7 2.977210 1_555
Mg0_3 Mg0_7 2.977210 1_455
Mg0_3 Mg0_5 2.977210 1_565
Mg0_3 Mg0_5 2.977210 1_455
Mg0_4 Zn2_0 2.856119 1_655
Mg0_4 Zn1_0 2.856119 1_655
Mg0_4 Zn2_2 2.856120 1_655
Mg0_4 Zn2_4 2.856120 1_555
Mg0_4 Zn1_2 2.856120 1_655
Mg0_4 Zn1_4 2.856120 1_555
Mg0_4 Mg0_6 2.977210 1_555
Mg0_4 Mg0_6 2.977210 1_545
Mg0_5 Zn2_1 2.856119 1_655
Mg0_5 Zn1_1 2.856119 1_655
Mg0_5 Zn1_3 2.856120 1_655
Mg0_5 Zn1_5 2.856120 1_555
Mg0_5 Zn2_3 2.856120 1_655
Mg0_5 Zn2_5 2.856120 1_555
Mg0_5 Mg0_7 2.977210 1_545
Mg0_5 Mg0_7 2.977210 1_555
Mg0_6 Zn1_2 2.856119 1_655
Mg0_6 Zn2_2 2.856119 1_655
Mg0_6 Zn2_6 2.856120 1_555
Mg0_6 Zn2_0 2.856120 1_665
Mg0_6 Zn1_0 2.856120 1_665
Mg0_6 Zn1_6 2.856120 1_555
Mg0_7 Zn1_3 2.856119 1_655
Mg0_7 Zn2_3 2.856119 1_655
Mg0_7 Zn2_1 2.856120 1_665
Mg0_7 Zn1_1 2.856120 1_665
Mg0_7 Zn2_7 2.856120 1_555
Mg0_7 Zn1_7 2.856120 1_555
Zn0_0 Zn1_5 2.720229 1_554
Zn0_0 Zn2_4 2.720229 1_555
Zn0_0 Zn2_0 2.720231 1_555
Zn0_0 Zn2_6 2.720231 1_555
Zn0_0 Zn1_1 2.720231 1_554
Zn0_0 Zn1_7 2.720231 1_554
Zn0_0 Zn0_2 2.977210 1_545
Zn0_0 Zn0_4 2.977210 1_555
Zn0_0 Zn0_2 2.977210 1_555
Zn0_0 Zn0_4 2.977210 1_455
Zn0_0 Zn0_6 2.977210 1_555
Zn0_0 Zn0_6 2.977210 1_445
Zn0_1 Zn1_4 2.720229 1_555
Zn0_1 Zn2_5 2.720229 1_555
Zn0_1 Zn2_1 2.720231 1_555
Zn0_1 Zn2_7 2.720231 1_555
Zn0_1 Zn1_0 2.720231 1_555
Zn0_1 Zn1_6 2.720231 1_555
Zn0_1 Zn0_3 2.977210 1_545
Zn0_1 Zn0_5 2.977210 1_555
Zn0_1 Zn0_3 2.977210 1_555
Zn0_1 Zn0_5 2.977210 1_455
Zn0_1 Zn0_7 2.977210 1_555
Zn0_1 Zn0_7 2.977210 1_445
Zn0_2 Zn2_6 2.720229 1_555
Zn0_2 Zn1_7 2.720229 1_554
Zn0_2 Zn1_5 2.720231 1_564
Zn0_2 Zn2_4 2.720231 1_565
Zn0_2 Zn1_3 2.720231 1_554
Zn0_2 Zn2_2 2.720231 1_555
Zn0_2 Zn0_6 2.977210 1_555
Zn0_2 Zn0_6 2.977210 1_455
Zn0_2 Zn0_4 2.977210 1_565
Zn0_2 Zn0_4 2.977210 1_455
Zn0_3 Zn2_7 2.720229 1_555
Zn0_3 Zn1_6 2.720229 1_555
Zn0_3 Zn1_4 2.720231 1_565
Zn0_3 Zn2_5 2.720231 1_565
Zn0_3 Zn1_2 2.720231 1_555
Zn0_3 Zn2_3 2.720231 1_555
Zn0_3 Zn0_7 2.977210 1_555
Zn0_3 Zn0_7 2.977210 1_455
Zn0_3 Zn0_5 2.977210 1_565
Zn0_3 Zn0_5 2.977210 1_455
Zn0_4 Zn1_1 2.720229 1_654
Zn0_4 Zn2_0 2.720229 1_655
Zn0_4 Zn2_2 2.720231 1_655
Zn0_4 Zn2_4 2.720231 1_555
Zn0_4 Zn1_3 2.720231 1_654
Zn0_4 Zn1_5 2.720231 1_554
Zn0_4 Zn0_6 2.977210 1_545
Zn0_4 Zn0_6 2.977210 1_555
Zn0_5 Zn2_1 2.720229 1_655
Zn0_5 Zn1_0 2.720229 1_655
Zn0_5 Zn2_5 2.720231 1_555
Zn0_5 Zn1_2 2.720231 1_655
Zn0_5 Zn1_4 2.720231 1_555
Zn0_5 Zn2_3 2.720231 1_655
Zn0_5 Zn0_7 2.977210 1_555
Zn0_5 Zn0_7 2.977210 1_545
Zn0_6 Zn2_2 2.720229 1_655
Zn0_6 Zn1_3 2.720229 1_654
Zn0_6 Zn1_1 2.720231 1_664
Zn0_6 Zn1_7 2.720231 1_554
Zn0_6 Zn2_0 2.720231 1_665
Zn0_6 Zn2_6 2.720231 1_555
Zn0_7 Zn2_3 2.720229 1_655
Zn0_7 Zn1_2 2.720229 1_655
Zn0_7 Zn2_7 2.720231 1_555
Zn0_7 Zn1_0 2.720231 1_665
Zn0_7 Zn1_6 2.720231 1_555
Zn0_7 Zn2_1 2.720231 1_665
Zn1_0 Zn1_2 2.977210 1_545
Zn1_0 Zn1_4 2.977210 1_455
Zn1_0 Zn1_4 2.977210 1_555
Zn1_0 Zn1_2 2.977210 1_555
Zn1_0 Zn1_6 2.977210 1_445
Zn1_0 Zn1_6 2.977210 1_555
Zn1_1 Zn1_5 2.977210 1_455
Zn1_1 Zn1_3 2.977210 1_545
Zn1_1 Zn1_3 2.977210 1_555
Zn1_1 Zn1_5 2.977210 1_555
Zn1_1 Zn1_7 2.977210 1_555
Zn1_1 Zn1_7 2.977210 1_445
Zn1_2 Zn1_6 2.977210 1_555
Zn1_2 Zn1_6 2.977210 1_455
Zn1_2 Zn1_4 2.977210 1_565
Zn1_2 Zn1_4 2.977210 1_455
Zn1_3 Zn1_7 2.977210 1_455
Zn1_3 Zn1_7 2.977210 1_555
Zn1_3 Zn1_5 2.977210 1_455
Zn1_3 Zn1_5 2.977210 1_565
Zn1_4 Zn1_6 2.977210 1_545
Zn1_4 Zn1_6 2.977210 1_555
Zn1_5 Zn1_7 2.977210 1_545
Zn1_5 Zn1_7 2.977210 1_555
Zn2_0 Zn2_4 2.977210 1_555
Zn2_0 Zn2_2 2.977210 1_555
Zn2_0 Zn2_2 2.977210 1_545
Zn2_0 Zn2_4 2.977210 1_455
Zn2_0 Zn2_6 2.977210 1_555
Zn2_0 Zn2_6 2.977210 1_445
Zn2_1 Zn2_5 2.977210 1_455
Zn2_1 Zn2_5 2.977210 1_555
Zn2_1 Zn2_3 2.977210 1_555
Zn2_1 Zn2_3 2.977210 1_545
Zn2_1 Zn2_7 2.977210 1_445
Zn2_1 Zn2_7 2.977210 1_555
Zn2_2 Zn2_6 2.977210 1_455
Zn2_2 Zn2_6 2.977210 1_555
Zn2_2 Zn2_4 2.977210 1_455
Zn2_2 Zn2_4 2.977210 1_565
Zn2_3 Zn2_7 2.977210 1_555
Zn2_3 Zn2_7 2.977210 1_455
Zn2_3 Zn2_5 2.977210 1_455
Zn2_3 Zn2_5 2.977210 1_565
Zn2_4 Zn2_6 2.977210 1_545
Zn2_4 Zn2_6 2.977210 1_555
Zn2_5 Zn2_7 2.977210 1_555
Zn2_5 Zn2_7 2.977210 1_545
