# generated using pymatgen
data_Mg3BeAl8O16
_symmetry_space_group_name_H-M   'P 1'
_cell_length_a   5.74035949
_cell_length_b   5.74035949
_cell_length_c   18.50777400
_cell_angle_alpha   90.00000000
_cell_angle_beta   90.00000000
_cell_angle_gamma   119.99999414
_symmetry_Int_Tables_number   1
_chemical_formula_structural   Mg3BeAl8O16
_chemical_formula_sum   'Mg6 Be2 Al16 O32'
_cell_volume   528.15698417
_cell_formula_units_Z   2
loop_
 _symmetry_equiv_pos_site_id
 _symmetry_equiv_pos_as_xyz
  1  'x, y, z'
loop_
 _atom_site_type_symbol
 _atom_site_label
 _atom_site_symmetry_multiplicity
 _atom_site_fract_x
 _atom_site_fract_y
 _atom_site_fract_z
 _atom_site_occupancy
  Mg  Mg0  1  0.00000000  0.00000000  0.00008700  1
  Mg  Mg1  1  0.00000000  0.00000000  0.50008700  1
  Mg  Mg2  1  0.00000000  0.00000000  0.20060000  1
  Mg  Mg3  1  0.00000000  0.00000000  0.70060000  1
  Mg  Mg4  1  0.66666700  0.33333300  0.26657100  1
  Mg  Mg5  1  0.33333300  0.66666700  0.76657100  1
  Be  Be0  1  0.66666700  0.33333300  0.00371700  1
  Be  Be1  1  0.33333300  0.66666700  0.50371700  1
  Al  Al0  1  0.49829500  0.99659000  0.60638200  1
  Al  Al1  1  0.99659000  0.49829500  0.10638200  1
  Al  Al2  1  0.66588500  0.83294300  0.36077200  1
  Al  Al3  1  0.83294300  0.66588500  0.86077200  1
  Al  Al4  1  0.83294300  0.16705700  0.86077200  1
  Al  Al5  1  0.16705700  0.83294300  0.36077200  1
  Al  Al6  1  0.16705700  0.33411500  0.36077200  1
  Al  Al7  1  0.33411500  0.16705700  0.86077200  1
  Al  Al8  1  0.66666700  0.33333300  0.45024200  1
  Al  Al9  1  0.33333300  0.66666700  0.95024200  1
  Al  Al10  1  0.49829500  0.50170500  0.60638200  1
  Al  Al11  1  0.50170500  0.49829500  0.10638200  1
  Al  Al12  1  0.50170500  0.00341000  0.10638200  1
  Al  Al13  1  0.00341000  0.50170500  0.60638200  1
  Al  Al14  1  0.33333300  0.66666700  0.23279700  1
  Al  Al15  1  0.66666700  0.33333300  0.73279700  1
  O  O0  1  0.62849100  0.81424500  0.16541400  1
  O  O1  1  0.37150900  0.18575500  0.66541400  1
  O  O2  1  0.81424500  0.18575500  0.66541400  1
  O  O3  1  0.18575500  0.37150900  0.16541400  1
  O  O4  1  0.81424500  0.62849100  0.66541400  1
  O  O5  1  0.18575500  0.81424500  0.16541400  1
  O  O6  1  0.33333300  0.66666700  0.66145300  1
  O  O7  1  0.66666700  0.33333300  0.16145300  1
  O  O8  1  0.62898500  0.81449300  0.54740800  1
  O  O9  1  0.81449300  0.62898500  0.04740800  1
  O  O10  1  0.81449300  0.18550700  0.04740800  1
  O  O11  1  0.18550700  0.81449300  0.54740800  1
  O  O12  1  0.18550700  0.37101500  0.54740800  1
  O  O13  1  0.37101500  0.18550700  0.04740800  1
  O  O14  1  0.66666700  0.33333300  0.54793800  1
  O  O15  1  0.33333300  0.66666700  0.04793800  1
  O  O16  1  0.83807000  0.67613900  0.41724300  1
  O  O17  1  0.16193000  0.83807000  0.91724300  1
  O  O18  1  0.67613900  0.83807000  0.91724300  1
  O  O19  1  0.32386100  0.16193000  0.41724300  1
  O  O20  1  0.83807000  0.16193000  0.41724300  1
  O  O21  1  0.16193000  0.32386100  0.91724300  1
  O  O22  1  0.00000000  0.00000000  0.80875700  1
  O  O23  1  0.00000000  0.00000000  0.30875700  1
  O  O24  1  0.51951600  0.03903200  0.80017500  1
  O  O25  1  0.48048400  0.51951600  0.30017500  1
  O  O26  1  0.03903200  0.51951600  0.30017500  1
  O  O27  1  0.96096800  0.48048400  0.80017500  1
  O  O28  1  0.51951600  0.48048400  0.80017500  1
  O  O29  1  0.48048400  0.96096800  0.30017500  1
  O  O30  1  0.66666700  0.33333300  0.91655600  1
  O  O31  1  0.33333300  0.66666700  0.41655600  1
loop_
_geom_bond_atom_site_label_1
_geom_bond_atom_site_label_2
_geom_bond_distance
_geom_bond_site_symmetry_2
Mg0 O10 2.041795 1_455
Mg0 O13 2.041799 1_555
Mg0 O9 2.041799 1_445
Mg0 O17 2.223284 1_544
Mg0 O18 2.223288 1_444
Mg0 O21 2.223288 1_554
Mg1 O11 2.041795 1_545
Mg1 O12 2.041799 1_555
Mg1 O8 2.041799 1_445
Mg1 O20 2.223284 1_455
Mg1 O16 2.223288 1_445
Mg1 O19 2.223288 1_555
Mg2 O3 1.958329 1_555
Mg2 O0 1.958329 1_445
Mg2 O5 1.958334 1_545
Mg2 O23 2.001745 1_555
Mg3 O4 1.958329 1_445
Mg3 O1 1.958329 1_555
Mg3 O2 1.958334 1_455
Mg3 O22 2.001745 1_555
Mg4 O7 1.945500 1_555
Mg4 O29 1.952822 1_545
Mg4 O26 1.952822 1_655
Mg4 O25 1.952826 1_555
Mg5 O6 1.945500 1_555
Mg5 O27 1.952822 1_455
Mg5 O24 1.952822 1_565
Mg5 O28 1.952826 1_555
Be0 O30 1.613156 1_554
Be0 O10 1.677530 1_555
Be0 O13 1.677530 1_555
Be0 O9 1.677530 1_555
Be1 O31 1.613156 1_555
Be1 O11 1.677530 1_555
Be1 O12 1.677530 1_555
Be1 O8 1.677530 1_555
Al0 O8 1.905514 1_555
Al0 O11 1.905518 1_555
Al0 O2 1.921656 1_565
Al0 O1 1.921660 1_565
Al0 O6 1.931044 1_555
Al0 O14 1.993100 1_565
Al1 O9 1.905514 1_555
Al1 O10 1.905518 1_555
Al1 O5 1.921656 1_655
Al1 O3 1.921660 1_655
Al1 O7 1.931044 1_555
Al1 O15 1.993100 1_655
Al2 O23 1.919799 1_665
Al2 O29 1.926836 1_555
Al2 O25 1.926840 1_555
Al2 O20 1.941424 1_565
Al2 O16 1.941432 1_555
Al2 O31 1.949114 1_555
Al3 O22 1.919799 1_665
Al3 O27 1.926836 1_555
Al3 O28 1.926840 1_555
Al3 O17 1.941424 1_655
Al3 O18 1.941432 1_555
Al3 O30 1.949114 1_555
Al4 O22 1.919794 1_655
Al4 O24 1.926840 1_555
Al4 O27 1.926840 1_555
Al4 O21 1.941424 1_655
Al4 O18 1.941424 1_545
Al4 O30 1.949114 1_555
Al5 O23 1.919794 1_565
Al5 O26 1.926840 1_555
Al5 O29 1.926840 1_555
Al5 O19 1.941424 1_565
Al5 O16 1.941424 1_455
Al5 O31 1.949114 1_555
Al6 O23 1.919799 1_555
Al6 O26 1.926836 1_555
Al6 O25 1.926840 1_555
Al6 O20 1.941424 1_455
Al6 O19 1.941432 1_555
Al6 O31 1.949114 1_555
Al7 O22 1.919799 1_555
Al7 O24 1.926836 1_555
Al7 O28 1.926840 1_555
Al7 O17 1.941424 1_545
Al7 O21 1.941432 1_555
Al7 O30 1.949114 1_555
Al8 O14 1.808135 1_555
Al8 O20 1.810322 1_555
Al8 O16 1.810322 1_555
Al8 O19 1.810322 1_555
Al9 O15 1.808135 1_556
Al9 O17 1.810322 1_555
Al9 O21 1.810322 1_555
Al9 O18 1.810322 1_555
Al10 O12 1.905519 1_555
Al10 O8 1.905519 1_555
Al10 O1 1.921656 1_555
Al10 O4 1.921656 1_555
Al10 O6 1.931048 1_555
Al10 O14 1.993104 1_555
Al11 O13 1.905519 1_555
Al11 O9 1.905519 1_555
Al11 O3 1.921656 1_555
Al11 O0 1.921656 1_555
Al11 O7 1.931048 1_555
Al11 O15 1.993104 1_555
Al12 O13 1.905514 1_555
Al12 O10 1.905518 1_555
Al12 O5 1.921656 1_545
Al12 O0 1.921660 1_545
Al12 O7 1.931044 1_555
Al12 O15 1.993100 1_545
Al13 O12 1.905514 1_555
Al13 O11 1.905518 1_555
Al13 O2 1.921656 1_455
Al13 O4 1.921660 1_455
Al13 O6 1.931044 1_555
Al13 O14 1.993100 1_455
Al14 O26 1.922391 1_555
Al14 O29 1.922391 1_555
Al14 O25 1.922395 1_555
Al14 O5 1.925688 1_555
Al14 O3 1.925696 1_555
Al14 O0 1.925696 1_555
Al15 O24 1.922391 1_555
Al15 O27 1.922391 1_555
Al15 O28 1.922395 1_555
Al15 O2 1.925688 1_555
Al15 O4 1.925696 1_555
Al15 O1 1.925696 1_555
