# generated using pymatgen
data_Th(PO3)4
_symmetry_space_group_name_H-M   'P 1'
_cell_length_a   6.87662759
_cell_length_b   12.68480989
_cell_length_c   14.85017500
_cell_angle_alpha   90.00000000
_cell_angle_beta   90.00000000
_cell_angle_gamma   110.31522980
_symmetry_Int_Tables_number   1
_chemical_formula_structural   Th(PO3)4
_chemical_formula_sum   'Th4 P16 O48'
_cell_volume   1214.78587020
_cell_formula_units_Z   4
loop_
 _symmetry_equiv_pos_site_id
 _symmetry_equiv_pos_as_xyz
  1  'x, y, z'
loop_
 _atom_site_type_symbol
 _atom_site_label
 _atom_site_symmetry_multiplicity
 _atom_site_fract_x
 _atom_site_fract_y
 _atom_site_fract_z
 _atom_site_occupancy
  Th  Th0  1  0.14683200  0.68786200  0.85387600  1
  Th  Th1  1  0.64683200  0.18786200  0.64612400  1
  Th  Th2  1  0.85316800  0.31213800  0.14612400  1
  Th  Th3  1  0.35316800  0.81213800  0.35387600  1
  P  P0  1  0.72915900  0.77803500  0.86346500  1
  P  P1  1  0.22915900  0.27803500  0.63653500  1
  P  P2  1  0.27084100  0.22196500  0.13653500  1
  P  P3  1  0.77084100  0.72196500  0.36346500  1
  P  P4  1  0.68355400  0.52291000  0.00620500  1
  P  P5  1  0.18355400  0.02291000  0.49379500  1
  P  P6  1  0.31644600  0.47709000  0.99379500  1
  P  P7  1  0.81644600  0.97709000  0.50620500  1
  P  P8  1  0.35522100  0.82069900  0.09915100  1
  P  P9  1  0.85522100  0.32069900  0.40084900  1
  P  P10  1  0.64477900  0.17930100  0.90084900  1
  P  P11  1  0.14477900  0.67930100  0.59915100  1
  P  P12  1  0.29803100  0.99566000  0.80921700  1
  P  P13  1  0.79803100  0.49566000  0.69078300  1
  P  P14  1  0.70196900  0.00434000  0.19078300  1
  P  P15  1  0.20196900  0.50434000  0.30921700  1
  O  O0  1  0.50693700  0.56485400  0.05422200  1
  O  O1  1  0.00693700  0.06485400  0.44577800  1
  O  O2  1  0.49306300  0.43514600  0.94577800  1
  O  O3  1  0.99306300  0.93514600  0.55422200  1
  O  O4  1  0.79541900  0.84837000  0.94398600  1
  O  O5  1  0.29541900  0.34837000  0.55601400  1
  O  O6  1  0.20458100  0.15163000  0.05601400  1
  O  O7  1  0.70458100  0.65163000  0.44398600  1
  O  O8  1  0.87609700  0.75135600  0.79994900  1
  O  O9  1  0.37609700  0.25135600  0.70005100  1
  O  O10  1  0.12390300  0.24864400  0.20005100  1
  O  O11  1  0.62390300  0.74864400  0.29994900  1
  O  O12  1  0.83279000  0.61494200  0.95112600  1
  O  O13  1  0.33279000  0.11494200  0.54887400  1
  O  O14  1  0.16721000  0.38505800  0.04887400  1
  O  O15  1  0.66721000  0.88505800  0.45112600  1
  O  O16  1  0.95632200  0.53632100  0.76812200  1
  O  O17  1  0.45632200  0.03632100  0.73187800  1
  O  O18  1  0.04367800  0.46367900  0.23187800  1
  O  O19  1  0.54367800  0.96367900  0.26812200  1
  O  O20  1  0.99537300  0.77467200  0.33802900  1
  O  O21  1  0.49537300  0.27467200  0.16197100  1
  O  O22  1  0.00462700  0.22532800  0.66197100  1
  O  O23  1  0.50462700  0.72532800  0.83802900  1
  O  O24  1  0.95144500  0.57414500  0.59726200  1
  O  O25  1  0.45144500  0.07414500  0.90273800  1
  O  O26  1  0.04855500  0.42585500  0.40273800  1
  O  O27  1  0.54855500  0.92585500  0.09726200  1
  O  O28  1  0.10928600  0.02546500  0.80713900  1
  O  O29  1  0.60928600  0.52546500  0.69286100  1
  O  O30  1  0.89071400  0.97453500  0.19286100  1
  O  O31  1  0.39071300  0.47453500  0.30713900  1
  O  O32  1  0.26993100  0.76943000  0.01240200  1
  O  O33  1  0.76993100  0.26943000  0.48759800  1
  O  O34  1  0.73006900  0.23057000  0.98759800  1
  O  O35  1  0.23006900  0.73057000  0.51240200  1
  O  O36  1  0.26295300  0.77319100  0.18683900  1
  O  O37  1  0.76295300  0.27319100  0.31316100  1
  O  O38  1  0.73704700  0.22680900  0.81316100  1
  O  O39  1  0.23704700  0.72680900  0.68683900  1
  O  O40  1  0.22214200  0.53914100  0.93189800  1
  O  O41  1  0.72214200  0.03914100  0.56810200  1
  O  O42  1  0.77785800  0.46085900  0.06810200  1
  O  O43  1  0.27785800  0.96085900  0.43189800  1
  O  O44  1  0.28500000  0.87891700  0.84126700  1
  O  O45  1  0.78500000  0.37891700  0.65873300  1
  O  O46  1  0.71500000  0.12108300  0.15873300  1
  O  O47  1  0.21500000  0.62108300  0.34126700  1
loop_
_geom_bond_atom_site_label_1
_geom_bond_atom_site_label_2
_geom_bond_distance
_geom_bond_site_symmetry_2
O0 P4 1.647821 1_555
O0 P6 1.657689 1_554
O1 P5 1.647821 1_555
O1 P7 1.657689 1_445
O2 P6 1.647821 1_555
O2 P4 1.657689 1_556
O3 P7 1.647821 1_555
O3 P5 1.657689 1_665
O4 P0 1.466681 1_555
O5 P1 1.466681 1_555
O6 P2 1.466681 1_555
O7 P3 1.466681 1_555
O8 P0 1.504202 1_555
O8 Th0 2.407754 1_655
O9 P1 1.504202 1_555
O9 Th1 2.407754 1_555
O10 P2 1.504202 1_555
O10 Th2 2.407754 1_455
O11 P3 1.504202 1_555
O11 Th3 2.407754 1_555
O12 P4 1.501047 1_556
O12 Th0 2.493565 1_655
O13 P5 1.501047 1_555
O13 Th1 2.493565 1_555
O14 P6 1.501047 1_554
O14 Th2 2.493565 1_455
O15 P7 1.501047 1_555
O15 Th3 2.493565 1_555
O16 P13 1.542752 1_555
O16 Th0 2.298796 1_655
O17 P12 1.542752 1_545
O17 Th1 2.298796 1_555
O18 P15 1.542752 1_555
O18 Th2 2.298796 1_455
O19 P14 1.542752 1_565
O19 Th3 2.298796 1_555
O20 P3 1.502293 1_555
O20 Th3 2.350104 1_655
O21 P2 1.502293 1_555
O21 Th2 2.350104 1_555
O22 P1 1.502293 1_555
O22 Th1 2.350104 1_455
O23 P0 1.502293 1_555
O23 Th0 2.350104 1_555
O24 P11 1.521902 1_655
O24 P13 1.817581 1_555
O25 P10 1.521902 1_555
O25 P12 1.817581 1_545
O26 P9 1.521902 1_455
O26 P15 1.817581 1_555
O27 P8 1.521902 1_555
O27 P14 1.817581 1_565
O28 P12 1.472835 1_545
O29 P13 1.472835 1_555
O30 P14 1.472835 1_565
O31 P15 1.472828 1_555
O32 P8 1.470250 1_555
O32 Th0 2.592474 1_554
O33 P9 1.470250 1_555
O33 Th1 2.592474 1_555
O34 P10 1.470250 1_555
O34 Th2 2.592474 1_556
O35 P11 1.470250 1_555
O35 Th3 2.592474 1_555
O36 P8 1.481864 1_555
O36 Th3 2.563034 1_555
O37 P9 1.481864 1_555
O37 Th2 2.563034 1_555
O38 P10 1.481864 1_555
O38 Th1 2.563034 1_555
O39 P11 1.481864 1_555
O39 Th0 2.563034 1_555
O40 P6 1.496463 1_555
O40 Th0 2.418244 1_555
O41 P7 1.496463 1_545
O41 Th1 2.418244 1_555
O42 P4 1.496463 1_555
O42 Th2 2.418244 1_555
O43 P5 1.496463 1_565
O43 Th3 2.418244 1_555
O44 P12 1.528191 1_555
O44 Th0 2.283038 1_555
O45 P13 1.528191 1_555
O45 Th1 2.283038 1_555
O46 P14 1.528191 1_555
O46 Th2 2.283038 1_555
O47 P15 1.528191 1_555
O47 Th3 2.283038 1_555
