# generated using pymatgen
data_Fe4W2N
_symmetry_space_group_name_H-M   'P 1'
_cell_length_a   7.74525802
_cell_length_b   7.69646840
_cell_length_c   7.70498305
_cell_angle_alpha   90.00000000
_cell_angle_beta   59.72620822
_cell_angle_gamma   119.79183905
_symmetry_Int_Tables_number   1
_chemical_formula_structural   Fe4W2N
_chemical_formula_sum   'Fe16 W8 N4'
_cell_volume   324.44791938
_cell_formula_units_Z   4
loop_
 _symmetry_equiv_pos_site_id
 _symmetry_equiv_pos_as_xyz
  1  'x, y, z'
loop_
 _atom_site_type_symbol
 _atom_site_label
 _atom_site_symmetry_multiplicity
 _atom_site_fract_x
 _atom_site_fract_y
 _atom_site_fract_z
 _atom_site_occupancy
  Fe  Fe0  1  0.75193400  0.37596700  0.87798900  1
  Fe  Fe1  1  0.25071100  0.37257400  0.37820200  1
  Fe  Fe2  1  0.25071100  0.87813700  0.37820200  1
  Fe  Fe3  1  0.74448500  0.37224300  0.37620400  1
  Fe  Fe4  1  0.34713600  0.17356800  0.48307100  1
  Fe  Fe5  1  0.66113500  0.17015200  0.16977400  1
  Fe  Fe6  1  0.66113500  0.49098300  0.16977400  1
  Fe  Fe7  1  0.33682900  0.16841400  0.16505900  1
  Fe  Fe8  1  0.15730200  0.57865100  0.26141700  1
  Fe  Fe9  1  0.84097900  0.57903000  0.57635200  1
  Fe  Fe10  1  0.84097900  0.26194900  0.57635200  1
  Fe  Fe11  1  0.15919700  0.57959900  0.58151600  1
  Fe  Fe12  1  0.89532100  0.94766100  0.54792400  1
  Fe  Fe13  1  0.50271900  0.55435700  0.54937000  1
  Fe  Fe14  1  0.50271900  0.94836300  0.54937000  1
  Fe  Fe15  1  0.09901900  0.54950900  0.94947700  1
  W  W0  1  0.50041000  0.94864000  0.94374100  1
  W  W1  1  0.50041000  0.55177000  0.94374100  1
  W  W2  1  0.59457500  0.79728800  0.21403300  1
  W  W3  1  0.98859400  0.19708900  0.20939900  1
  W  W4  1  0.98859400  0.79150600  0.20939900  1
  W  W5  1  0.40367700  0.20183800  0.78762300  1
  W  W6  1  0.00943200  0.80454700  0.79705800  1
  W  W7  1  0.00943200  0.20488600  0.79705800  1
  N  N0  1  0.74164300  0.87082200  0.39293100  1
  N  N1  1  0.25303000  0.87019500  0.87260600  1
  N  N2  1  0.25303000  0.38283500  0.87260600  1
  N  N3  1  0.75486100  0.87743100  0.86975100  1
loop_
_geom_bond_atom_site_label_1
_geom_bond_atom_site_label_2
_geom_bond_distance
_geom_bond_site_symmetry_2
Fe0 Fe5 2.314532 1_556
Fe0 Fe6 2.314532 1_556
Fe0 Fe11 2.333820 1_655
Fe0 Fe7 2.346764 1_556
Fe0 Fe10 2.373283 1_555
Fe0 Fe9 2.373283 1_555
Fe0 Fe15 2.690562 1_655
Fe0 W7 2.730524 1_655
Fe0 W6 2.730531 1_655
Fe0 W0 2.739857 1_545
Fe0 W1 2.739857 1_555
Fe0 W5 2.803206 1_555
Fe1 Fe4 2.302543 1_555
Fe1 Fe6 2.342785 1_555
Fe1 Fe11 2.344769 1_555
Fe1 Fe7 2.355411 1_555
Fe1 Fe10 2.357277 1_455
Fe1 Fe8 2.375994 1_555
Fe1 W7 2.663785 1_555
Fe1 W2 2.707506 1_555
Fe1 Fe13 2.718170 1_555
Fe1 Fe12 2.721654 1_445
Fe1 W3 2.752264 1_455
Fe1 W1 2.769517 1_554
Fe2 Fe4 2.302543 1_565
Fe2 Fe5 2.342785 1_565
Fe2 Fe7 2.355405 1_565
Fe2 Fe9 2.357277 1_455
Fe2 Fe8 2.375994 1_555
Fe2 W6 2.663786 1_555
Fe2 W2 2.707500 1_555
Fe2 W4 2.752265 1_455
Fe2 W0 2.769517 1_554
Fe3 Fe4 2.292657 1_555
Fe3 Fe6 2.324497 1_555
Fe3 Fe5 2.324502 1_555
Fe3 Fe9 2.334485 1_555
Fe3 Fe8 2.372865 1_655
Fe3 W5 2.619093 1_555
Fe3 W4 2.669544 1_555
Fe3 W3 2.669544 1_555
Fe4 Fe5 2.426265 1_555
Fe4 Fe6 2.426265 1_555
Fe4 Fe7 2.491161 1_555
Fe4 W5 2.585910 1_555
Fe4 W6 2.645497 1_545
Fe4 W7 2.645501 1_555
Fe5 Fe6 2.469266 1_555
Fe5 Fe7 2.523772 1_555
Fe5 W3 2.612857 1_555
Fe5 W2 2.640092 1_545
Fe5 W7 2.658602 1_654
Fe5 W0 2.750694 1_544
Fe6 Fe7 2.523776 1_555
Fe6 W4 2.612860 1_555
Fe6 W2 2.640100 1_555
Fe6 W6 2.658605 1_654
Fe6 W1 2.750694 1_554
Fe7 W4 2.665058 1_445
Fe7 W3 2.665067 1_455
Fe7 W5 2.672267 1_554
Fe7 W0 2.706553 1_544
Fe7 W1 2.706560 1_554
Fe8 Fe9 2.429737 1_455
Fe8 W0 2.661581 1_554
Fe8 W1 2.661581 1_554
Fe8 W3 2.684596 1_455
Fe8 W4 2.684603 1_455
Fe8 W2 2.743240 1_555
Fe9 W4 2.618823 1_555
Fe9 W1 2.633716 1_555
Fe9 W5 2.686932 1_555
Fe9 W6 2.755620 1_655
Fe10 Fe3 2.334489 1_555
Fe10 Fe8 2.429737 1_655
Fe10 Fe9 2.440404 1_555
Fe10 Fe11 2.482825 1_655
Fe10 W3 2.618820 1_555
Fe10 W0 2.633716 1_545
Fe10 Fe12 2.644802 1_545
Fe10 Fe14 2.645372 1_545
Fe10 W5 2.686929 1_555
Fe10 W7 2.755617 1_655
Fe11 Fe2 2.344763 1_555
Fe11 Fe8 2.473778 1_555
Fe11 Fe9 2.482822 1_455
Fe11 Fe15 2.620922 1_555
Fe11 W2 2.637099 1_555
Fe11 Fe14 2.650929 1_555
Fe11 Fe13 2.650929 1_555
Fe11 W6 2.674752 1_555
Fe11 W7 2.674752 1_555
Fe12 N0 1.981507 1_555
Fe12 N3 2.078509 1_555
Fe12 Fe9 2.644809 1_555
Fe12 Fe7 2.708906 1_665
Fe12 Fe2 2.721659 1_655
Fe12 Fe4 2.776604 1_665
Fe13 N0 2.020382 1_555
Fe13 N2 2.071780 1_555
Fe13 Fe9 2.645375 1_555
Fe13 Fe6 2.697057 1_555
Fe13 Fe3 2.709280 1_555
Fe13 Fe4 2.722777 1_555
Fe14 N0 2.020382 1_555
Fe14 N1 2.071779 1_555
Fe14 Fe5 2.697054 1_565
Fe14 Fe3 2.709280 1_565
Fe14 Fe2 2.718168 1_555
Fe14 Fe4 2.722770 1_565
Fe15 N2 2.056086 1_555
Fe15 N1 2.056093 1_555
Fe15 Fe8 2.650319 1_556
Fe15 Fe5 2.695193 1_456
Fe15 Fe6 2.695196 1_456
Fe15 Fe3 2.717758 1_456
N0 W2 2.111941 1_555
N0 W3 2.112798 1_565
N0 W4 2.112798 1_555
N1 W0 2.060434 1_555
N1 W6 2.076999 1_555
N1 W5 2.139049 1_565
N1 W4 2.168911 1_456
N2 W1 2.060434 1_555
N2 W7 2.076997 1_555
N2 W5 2.139056 1_555
N2 W3 2.168910 1_456
N3 W0 2.109470 1_555
N3 W1 2.109476 1_555
N3 W7 2.121704 1_665
N3 W6 2.121704 1_655
N3 W2 2.208412 1_556
