# generated using pymatgen
data_Li2FePCO7
_symmetry_space_group_name_H-M   'P 1'
_cell_length_a   6.47416000
_cell_length_b   8.31782852
_cell_length_c   10.18718965
_cell_angle_alpha   95.25178037
_cell_angle_beta   90.14090565
_cell_angle_gamma   90.63418519
_symmetry_Int_Tables_number   1
_chemical_formula_structural   Li2FePCO7
_chemical_formula_sum   'Li8 Fe4 P4 C4 O28'
_cell_volume   546.25014864
_cell_formula_units_Z   4
loop_
 _symmetry_equiv_pos_site_id
 _symmetry_equiv_pos_as_xyz
  1  'x, y, z'
loop_
 _atom_site_type_symbol
 _atom_site_label
 _atom_site_symmetry_multiplicity
 _atom_site_fract_x
 _atom_site_fract_y
 _atom_site_fract_z
 _atom_site_occupancy
  Li  Li0  1  0.74777600  0.90124600  0.38100400  1
  Li  Li1  1  0.74210300  0.90070900  0.88298600  1
  Li  Li2  1  0.96524300  0.72197700  0.12715500  1
  Li  Li3  1  0.53836100  0.72187300  0.62742600  1
  Li  Li4  1  0.03307200  0.27805500  0.37453800  1
  Li  Li5  1  0.03177000  0.27502600  0.87541100  1
  Li  Li6  1  0.26083100  0.09853600  0.11887500  1
  Li  Li7  1  0.25854800  0.09769100  0.61847300  1
  Fe  Fe0  1  0.24708600  0.67142600  0.39987500  1
  Fe  Fe1  1  0.25231300  0.67176800  0.89917900  1
  Fe  Fe2  1  0.73761100  0.32851300  0.09982000  1
  Fe  Fe3  1  0.74534100  0.32815400  0.60004300  1
  P  P0  1  0.75631100  0.58018600  0.36179900  1
  P  P1  1  0.75294600  0.57932800  0.86180700  1
  P  P2  1  0.23676500  0.42001700  0.13758700  1
  P  P3  1  0.25174400  0.41939200  0.63789000  1
  C  C0  1  0.23986300  0.96002500  0.35002300  1
  C  C1  1  0.24344900  0.96040500  0.84987700  1
  C  C2  1  0.76730300  0.04067500  0.14990300  1
  C  C3  1  0.75160800  0.04019300  0.65024500  1
  O  O0  1  0.25935300  0.92494300  0.47269600  1
  O  O1  1  0.78767200  0.89921200  0.18406200  1
  O  O2  1  0.23999200  0.92503800  0.97312300  1
  O  O3  1  0.24482700  0.83473100  0.26175500  1
  O  O4  1  0.72123900  0.90014100  0.68598800  1
  O  O5  1  0.27447200  0.83647200  0.76285700  1
  O  O6  1  0.93832200  0.69774100  0.40123000  1
  O  O7  1  0.56483600  0.68292400  0.40517600  1
  O  O8  1  0.93380100  0.69857000  0.90444600  1
  O  O9  1  0.55992900  0.67910000  0.90316100  1
  O  O10  1  0.22344000  0.57912200  0.07137400  1
  O  O11  1  0.76303700  0.53829900  0.20971500  1
  O  O12  1  0.28298900  0.57801400  0.57214100  1
  O  O13  1  0.74535600  0.53837400  0.70964200  1
  O  O14  1  0.21466200  0.46083300  0.28923500  1
  O  O15  1  0.76809300  0.42158000  0.42858700  1
  O  O16  1  0.21628100  0.46199300  0.78818400  1
  O  O17  1  0.77368400  0.42102900  0.92840800  1
  O  O18  1  0.43270400  0.32008600  0.10515500  1
  O  O19  1  0.06034800  0.30082600  0.08689100  1
  O  O20  1  0.43830900  0.30549800  0.61344300  1
  O  O21  1  0.06692500  0.31500600  0.57990200  1
  O  O22  1  0.76413300  0.16653700  0.23783500  1
  O  O23  1  0.21678500  0.10195300  0.31609600  1
  O  O24  1  0.78376000  0.16532100  0.73675000  1
  O  O25  1  0.74566100  0.07536600  0.02712000  1
  O  O26  1  0.21644000  0.10097200  0.81436500  1
  O  O27  1  0.74688100  0.07512100  0.52674900  1
loop_
_geom_bond_atom_site_label_1
_geom_bond_atom_site_label_2
_geom_bond_distance
_geom_bond_site_symmetry_2
Li0 O27 1.975669 1_565
Li0 O1 2.022032 1_555
Li0 O6 2.130355 1_555
Li0 O7 2.190163 1_555
Li1 O25 1.968659 1_566
Li1 O4 2.010636 1_555
Li1 O8 2.127720 1_555
Li1 O9 2.203061 1_555
Li2 O1 1.927524 1_555
Li2 O10 2.110483 1_655
Li2 O11 2.225242 1_555
Li2 O8 2.267750 1_554
Li2 O3 2.398109 1_655
Li3 O4 1.937046 1_555
Li3 O12 2.076235 1_555
Li3 O13 2.258500 1_555
Li3 O7 2.264808 1_555
Li3 O5 2.353255 1_555
Li4 O23 1.948614 1_555
Li4 O21 2.097105 1_555
Li4 O15 2.144997 1_455
Li4 O14 2.157770 1_555
Li4 O22 2.355264 1_455
Li5 O26 1.946612 1_555
Li5 O17 2.118376 1_455
Li5 O19 2.152717 1_556
Li5 O16 2.202763 1_555
Li5 O24 2.264197 1_455
Li6 O2 1.976840 1_544
Li6 O23 2.027625 1_555
Li6 O18 2.157823 1_555
Li6 O19 2.183730 1_555
Li7 O0 1.969680 1_545
Li7 O26 2.012538 1_555
Li7 O20 2.077681 1_555
Li7 O21 2.266743 1_555
Fe0 O12 1.997258 1_555
Fe0 O14 2.003018 1_555
Fe0 O6 2.013286 1_455
Fe0 O3 2.043364 1_555
Fe0 O7 2.058675 1_555
Fe0 O0 2.170928 1_555
Fe1 O10 1.987923 1_556
Fe1 O9 1.992014 1_555
Fe1 O16 2.001512 1_555
Fe1 O5 2.042287 1_555
Fe1 O8 2.076862 1_455
Fe1 O2 2.173777 1_555
Fe2 O18 1.975543 1_555
Fe2 O17 1.984939 1_554
Fe2 O11 1.990085 1_555
Fe2 O22 2.042589 1_555
Fe2 O19 2.107758 1_655
Fe2 O25 2.168420 1_555
Fe3 O15 1.980807 1_555
Fe3 O13 1.986629 1_555
Fe3 O20 2.000786 1_555
Fe3 O24 2.046185 1_555
Fe3 O21 2.095653 1_655
Fe3 O27 2.167975 1_555
C0 O23 1.270346 1_565
C0 O3 1.313413 1_555
C0 O0 1.315144 1_555
C1 O26 1.268920 1_565
C1 O5 1.314165 1_555
C1 O2 1.315676 1_555
C2 O1 1.265382 1_545
C2 O22 1.314431 1_555
C2 O25 1.316638 1_555
C3 O4 1.265398 1_545
C3 O24 1.315129 1_555
C3 O27 1.317201 1_555
O6 P0 1.551215 1_555
O7 P0 1.555396 1_555
O8 P1 1.560867 1_555
O9 P1 1.545733 1_555
O10 P2 1.542560 1_555
O11 P0 1.557399 1_555
O12 P3 1.544952 1_555
O13 P1 1.556906 1_555
O14 P2 1.558364 1_555
O15 P0 1.541256 1_555
O16 P3 1.557778 1_555
O17 P1 1.542425 1_555
O18 P2 1.544147 1_555
O19 P2 1.559624 1_555
O20 P3 1.549846 1_555
O21 P3 1.553772 1_555
