# generated using pymatgen
data_Y10Mn13C18
_symmetry_space_group_name_H-M   'P 1'
_cell_length_a   8.74528388
_cell_length_b   8.74528388
_cell_length_c   8.74528388
_cell_angle_alpha   109.47122063
_cell_angle_beta   109.47122063
_cell_angle_gamma   109.47122063
_symmetry_Int_Tables_number   1
_chemical_formula_structural   Y10Mn13C18
_chemical_formula_sum   'Y10 Mn13 C18'
_cell_volume   514.87267472
_cell_formula_units_Z   1
loop_
 _symmetry_equiv_pos_site_id
 _symmetry_equiv_pos_as_xyz
  1  'x, y, z'
loop_
 _atom_site_type_symbol
 _atom_site_label
 _atom_site_symmetry_multiplicity
 _atom_site_fract_x
 _atom_site_fract_y
 _atom_site_fract_z
 _atom_site_occupancy
  Y  Y0  1  0.50000000  0.75000000  0.25000000  1
  Y  Y1  1  0.75000000  0.50000000  0.25000000  1
  Y  Y2  1  0.25000000  0.75000000  0.50000000  1
  Y  Y3  1  0.25000000  0.50000000  0.75000000  1
  Y  Y4  1  0.50000000  0.25000000  0.75000000  1
  Y  Y5  1  0.75000000  0.25000000  0.50000000  1
  Y  Y6  1  0.40861300  0.00000000  0.00000000  1
  Y  Y7  1  0.00000000  0.40861300  0.00000000  1
  Y  Y8  1  0.00000000  0.00000000  0.40861300  1
  Y  Y9  1  0.59138700  0.59138700  0.59138700  1
  Mn  Mn0  1  0.00000000  0.00000000  0.00000000  1
  Mn  Mn1  1  0.66625400  0.81980900  0.00000000  1
  Mn  Mn2  1  0.84644500  0.18019100  0.18019100  1
  Mn  Mn3  1  0.66625400  0.00000000  0.81980900  1
  Mn  Mn4  1  0.81980900  0.66625400  0.00000000  1
  Mn  Mn5  1  0.00000000  0.66625400  0.81980900  1
  Mn  Mn6  1  0.18019100  0.84644500  0.18019100  1
  Mn  Mn7  1  0.18019100  0.18019100  0.84644500  1
  Mn  Mn8  1  0.00000000  0.81980900  0.66625400  1
  Mn  Mn9  1  0.81980900  0.00000000  0.66625400  1
  Mn  Mn10  1  0.33374600  0.33374600  0.15355500  1
  Mn  Mn11  1  0.15355500  0.33374600  0.33374600  1
  Mn  Mn12  1  0.33374600  0.15355500  0.33374600  1
  C  C0  1  0.70331600  0.21799100  0.00000000  1
  C  C1  1  0.48532400  0.78200900  0.78200900  1
  C  C2  1  0.70331600  0.00000000  0.21799100  1
  C  C3  1  0.21799100  0.70331600  0.00000000  1
  C  C4  1  0.00000000  0.70331600  0.21799100  1
  C  C5  1  0.78200900  0.48532400  0.78200900  1
  C  C6  1  0.78200900  0.78200900  0.48532400  1
  C  C7  1  0.00000000  0.21799100  0.70331600  1
  C  C8  1  0.21799100  0.00000000  0.70331600  1
  C  C9  1  0.29668400  0.29668400  0.51467600  1
  C  C10  1  0.51467600  0.29668400  0.29668400  1
  C  C11  1  0.29668400  0.51467600  0.29668400  1
  C  C12  1  0.56881700  0.56881700  0.00000000  1
  C  C13  1  0.00000000  0.43118300  0.43118300  1
  C  C14  1  0.56881700  0.00000000  0.56881700  1
  C  C15  1  0.00000000  0.56881700  0.56881700  1
  C  C16  1  0.43118300  0.00000000  0.43118300  1
  C  C17  1  0.43118300  0.43118300  0.00000000  1
loop_
_geom_bond_atom_site_label_1
_geom_bond_atom_site_label_2
_geom_bond_distance
_geom_bond_site_symmetry_2
Mn0 Mn10 2.817056 1_555
Mn0 Mn11 2.817056 1_555
Mn0 Mn2 2.817056 1_455
Mn0 Mn1 2.817056 1_445
Mn0 Mn8 2.817056 1_544
Mn0 Mn9 2.817056 1_454
Mn0 Mn7 2.817056 1_554
Mn0 Mn3 2.817056 1_454
Mn0 Mn12 2.817056 1_555
Mn0 Mn5 2.817056 1_544
Mn0 Mn4 2.817056 1_445
Mn0 Mn6 2.817056 1_545
Mn0 Y7 3.573437 1_555
Mn0 Y8 3.573437 1_555
Mn0 Y9 3.573437 1_444
Mn0 Y6 3.573437 1_555
C0 Mn3 1.862099 1_554
C0 Mn2 1.862099 1_555
C0 Y1 2.483560 1_555
C0 Y4 2.483560 1_554
C0 Y7 2.574371 1_655
C0 Y6 2.645958 1_555
C1 Mn1 1.862103 1_556
C1 Mn3 1.862103 1_565
C1 Y2 2.483555 1_555
C1 Y3 2.483555 1_555
C1 Y9 2.574378 1_555
C1 Y6 2.645952 1_566
C2 Mn1 1.862099 1_545
C2 Mn2 1.862099 1_555
C2 Y0 2.483560 1_545
C2 Y5 2.483560 1_555
C2 Y8 2.574371 1_655
C2 Y6 2.645958 1_555
C3 Mn5 1.862099 1_554
C3 Mn6 1.862099 1_555
C3 Y3 2.483560 1_554
C3 Y0 2.483560 1_555
C3 Y6 2.574371 1_565
C3 Y7 2.645958 1_555
C4 Mn4 1.862099 1_455
C4 Mn6 1.862099 1_555
C4 Y2 2.483560 1_555
C4 Y1 2.483560 1_455
C4 Y8 2.574371 1_565
C4 Y7 2.645958 1_555
C5 Mn4 1.862103 1_556
C5 Mn5 1.862103 1_655
C5 Y4 2.483555 1_555
C5 Y5 2.483555 1_555
C5 Y9 2.574378 1_555
C5 Y7 2.645952 1_656
C6 Mn8 1.862103 1_655
C6 Mn9 1.862103 1_565
C6 Y1 2.483555 1_555
C6 Y0 2.483555 1_555
C6 Y9 2.574378 1_555
C6 Y8 2.645952 1_665
C7 Mn7 1.862099 1_555
C7 Mn9 1.862099 1_455
C7 Y3 2.483560 1_555
C7 Y5 2.483560 1_455
C7 Y7 2.574371 1_556
C7 Y8 2.645958 1_555
C8 Mn8 1.862099 1_545
C8 Mn7 1.862099 1_555
C8 Y2 2.483560 1_545
C8 Y4 2.483560 1_555
C8 Y6 2.574371 1_556
C8 Y8 2.645958 1_555
C9 Mn11 1.862105 1_555
C9 Mn12 1.862105 1_555
C9 Y3 2.483554 1_555
C9 Y4 2.483554 1_555
C9 Y8 2.574368 1_555
C9 Y9 2.645962 1_555
C10 Mn10 1.862105 1_555
C10 Mn12 1.862105 1_555
C10 Y5 2.483554 1_555
C10 Y1 2.483554 1_555
C10 Y6 2.574368 1_555
C10 Y9 2.645962 1_555
C11 Mn10 1.862105 1_555
C11 Mn11 1.862105 1_555
C11 Y0 2.483554 1_555
C11 Y2 2.483554 1_555
C11 Y7 2.574368 1_555
C11 Y9 2.645962 1_555
C12 C17 1.389853 1_555
C12 Mn1 2.072965 1_555
C12 Mn4 2.072965 1_555
C12 Y0 2.618445 1_555
C12 Y4 2.618445 1_554
C12 Y1 2.618445 1_555
C12 Y3 2.618445 1_554
C13 C15 1.389853 1_555
C13 Mn2 2.072965 1_455
C13 Mn11 2.072965 1_555
C13 Y2 2.618445 1_555
C13 Y3 2.618445 1_555
C13 Y1 2.618445 1_455
C13 Y5 2.618445 1_455
C14 C16 1.389853 1_555
C14 Mn9 2.072965 1_555
C14 Mn3 2.072965 1_555
C14 Y2 2.618445 1_545
C14 Y5 2.618445 1_555
C14 Y4 2.618445 1_555
C14 Y0 2.618445 1_545
C15 Mn8 2.072965 1_555
C15 Mn5 2.072965 1_555
C15 Y2 2.618445 1_555
C15 Y3 2.618445 1_555
C15 Y1 2.618445 1_455
C15 Y5 2.618445 1_455
C16 Mn12 2.072965 1_555
C16 Mn6 2.072965 1_545
C16 Y2 2.618445 1_545
C16 Y5 2.618445 1_555
C16 Y4 2.618445 1_555
C16 Y0 2.618445 1_545
C17 Mn10 2.072965 1_555
C17 Mn7 2.072965 1_554
C17 Y0 2.618445 1_555
C17 Y4 2.618445 1_554
C17 Y3 2.618445 1_554
C17 Y1 2.618445 1_555
