# generated using pymatgen
data_Na4Ti6O13
_symmetry_space_group_name_H-M   'P 1'
_cell_length_a   3.97615900
_cell_length_b   7.43852050
_cell_length_c   9.33986911
_cell_angle_alpha   92.82198727
_cell_angle_beta   90.00000000
_cell_angle_gamma   105.50176542
_symmetry_Int_Tables_number   1
_chemical_formula_structural   Na4Ti6O13
_chemical_formula_sum   'Na4 Ti6 O13'
_cell_volume   265.84612171
_cell_formula_units_Z   1
loop_
 _symmetry_equiv_pos_site_id
 _symmetry_equiv_pos_as_xyz
  1  'x, y, z'
loop_
 _atom_site_type_symbol
 _atom_site_label
 _atom_site_symmetry_multiplicity
 _atom_site_fract_x
 _atom_site_fract_y
 _atom_site_fract_z
 _atom_site_occupancy
  Na  Na0  1  0.40107300  0.80214600  0.10023600  1
  Na  Na1  1  0.59892700  0.19785400  0.89976400  1
  Na  Na2  1  0.48801800  0.97603600  0.35132900  1
  Na  Na3  1  0.51198200  0.02396400  0.64867100  1
  Ti  Ti0  1  0.11210900  0.22421900  0.12893000  1
  Ti  Ti1  1  0.88789100  0.77578100  0.87107000  1
  Ti  Ti2  1  0.17152400  0.34304700  0.45756300  1
  Ti  Ti3  1  0.82847600  0.65695300  0.54243700  1
  Ti  Ti4  1  0.24423000  0.48846000  0.78051900  1
  Ti  Ti5  1  0.75577000  0.51154000  0.21948100  1
  O  O0  1  0.24342500  0.48684900  0.24601200  1
  O  O1  1  0.75657500  0.51315100  0.75398800  1
  O  O2  1  0.06814100  0.13628200  0.32731300  1
  O  O3  1  0.93185900  0.86371800  0.67268700  1
  O  O4  1  0.30754500  0.61509000  0.55928900  1
  O  O5  1  0.69245500  0.38491000  0.44071100  1
  O  O6  1  0.12909700  0.25819400  0.63778800  1
  O  O7  1  0.87090300  0.74180600  0.36221200  1
  O  O8  1  0.38163900  0.76327900  0.85621300  1
  O  O9  1  0.61836100  0.23672100  0.14378700  1
  O  O10  1  0.18056400  0.36112800  0.94008200  1
  O  O11  1  0.81943600  0.63887200  0.05991800  1
  O  O12  1  0.00000000  0.00000000  0.00000000  1
loop_
_geom_bond_atom_site_label_1
_geom_bond_atom_site_label_2
_geom_bond_distance
_geom_bond_site_symmetry_2
Na0 O8 2.281935 1_554
Na0 O11 2.327856 1_555
Na0 O11 2.327856 1_455
Na0 O12 2.641189 1_565
Na0 O12 2.641189 1_665
Na0 O0 2.697388 1_555
Na1 O9 2.281935 1_556
Na1 O10 2.327856 1_555
Na1 O10 2.327856 1_655
Na1 O12 2.641189 1_656
Na1 O12 2.641189 1_556
Na1 O1 2.697388 1_555
Na2 O2 2.312672 1_565
Na2 O2 2.312673 1_665
Na2 O7 2.607504 1_555
Na2 O7 2.607504 1_455
Na2 O9 2.760276 1_565
Na3 O3 2.312672 1_545
Na3 O3 2.312673 1_445
Na3 O6 2.607504 1_555
Na3 O6 2.607504 1_655
Na3 O8 2.760276 1_545
O0 Ti5 2.012377 1_555
O0 Ti5 2.012380 1_455
O0 Ti0 2.128217 1_555
O0 Ti2 2.274774 1_555
O1 Ti4 2.012377 1_555
O1 Ti4 2.012380 1_655
O1 Ti1 2.128217 1_555
O1 Ti3 2.274774 1_555
O2 Ti2 1.868751 1_555
O2 Ti0 1.987406 1_555
O3 Ti3 1.868751 1_555
O3 Ti1 1.987406 1_555
O4 Ti3 2.017943 1_555
O4 Ti3 2.017947 1_455
O4 Ti2 2.125047 1_555
O4 Ti4 2.298900 1_555
O5 Ti2 2.017943 1_555
O5 Ti2 2.017947 1_655
O5 Ti3 2.125047 1_555
O5 Ti5 2.298900 1_555
O6 Ti2 1.818783 1_555
O6 Ti4 2.067979 1_555
O7 Ti3 1.818783 1_555
O7 Ti5 2.067979 1_555
O8 Ti1 1.994608 1_455
O8 Ti1 1.994615 1_555
O8 Ti4 2.058625 1_555
O9 Ti0 1.994608 1_655
O9 Ti0 1.994615 1_555
O9 Ti5 2.058625 1_555
O10 Ti4 1.786899 1_555
O10 Ti0 2.061788 1_556
O11 Ti5 1.786899 1_555
O11 Ti1 2.061788 1_554
O12 Ti1 1.958406 1_444
O12 Ti0 1.958406 1_555
