# generated using pymatgen
data_La4CdNi
_symmetry_space_group_name_H-M   'P 1'
_cell_length_a   10.00861122
_cell_length_b   10.00859422
_cell_length_c   10.00863525
_cell_angle_alpha   60.00128647
_cell_angle_beta   60.00113747
_cell_angle_gamma   60.00136418
_symmetry_Int_Tables_number   1
_chemical_formula_structural   La4CdNi
_chemical_formula_sum   'La16 Cd4 Ni4'
_cell_volume   708.95586387
_cell_formula_units_Z   4
loop_
 _symmetry_equiv_pos_site_id
 _symmetry_equiv_pos_as_xyz
  1  'x, y, z'
loop_
 _atom_site_type_symbol
 _atom_site_label
 _atom_site_symmetry_multiplicity
 _atom_site_fract_x
 _atom_site_fract_y
 _atom_site_fract_z
 _atom_site_occupancy
  La  La0  1  0.59688881  0.59689081  0.59689085  1
  La  La1  1  0.59688800  0.59689529  0.20932002  1
  La  La2  1  0.59689039  0.20931868  0.59689312  1
  La  La3  1  0.20933247  0.59688927  0.59688598  1
  La  La4  1  0.05724710  0.44275048  0.44275040  1
  La  La5  1  0.44274617  0.05725496  0.05725684  1
  La  La6  1  0.44274783  0.05725265  0.44274612  1
  La  La7  1  0.05724711  0.44275288  0.05725824  1
  La  La8  1  0.44274437  0.44274756  0.05725787  1
  La  La9  1  0.05724907  0.05725674  0.44274677  1
  La  La10  1  0.18861152  0.81139353  0.81139859  1
  La  La11  1  0.81138432  0.18860994  0.18860734  1
  La  La12  1  0.81137929  0.18861531  0.81140090  1
  La  La13  1  0.18860431  0.81139846  0.18860306  1
  La  La14  1  0.81138462  0.81139966  0.18861370  1
  La  La15  1  0.18860246  0.18860423  0.81140280  1
  Cd  Cd0  1  0.82799329  0.82798806  0.82799309  1
  Cd  Cd1  1  0.82799706  0.82799203  0.51602026  1
  Cd  Cd2  1  0.82799911  0.51602218  0.82799032  1
  Cd  Cd3  1  0.51601927  0.82799386  0.82799504  1
  Ni  Ni0  1  0.39186713  0.39183585  0.39182822  1
  Ni  Ni1  1  0.39186712  0.39183287  0.82446282  1
  Ni  Ni2  1  0.39185308  0.82446374  0.39183769  1
  Ni  Ni3  1  0.82445810  0.39184296  0.39184196  1
loop_
_geom_bond_atom_site_label_1
_geom_bond_atom_site_label_2
_geom_bond_distance
_geom_bond_site_symmetry_2
La0 Ni1 2.910974 1_555
La0 Ni2 2.911051 1_555
La0 Ni3 2.911092 1_555
La0 La12 3.602751 1_555
La0 La14 3.602766 1_555
La0 La10 3.602787 1_555
La1 Ni0 2.910966 1_555
La1 Ni2 2.911015 1_555
La1 Ni3 2.911064 1_555
La1 La14 3.602757 1_555
La1 La11 3.602764 1_555
La1 La13 3.602770 1_555
La2 Ni1 2.911002 1_555
La2 Ni0 2.911033 1_555
La2 Ni3 2.911047 1_555
La3 Ni2 2.911073 1_555
La3 Ni0 2.911182 1_555
La3 Ni1 2.911200 1_555
La4 Ni3 2.929400 1_455
La4 Ni0 2.929518 1_555
La5 Ni1 2.929309 1_554
La5 Ni2 2.929322 1_545
La6 Ni0 2.929276 1_555
La6 Ni2 2.929311 1_545
La7 Ni3 2.929331 1_455
La7 Ni1 2.929588 1_554
La8 Ni0 2.929193 1_555
La8 Ni1 2.929305 1_554
La9 Ni3 2.929355 1_455
La9 Ni2 2.929479 1_545
La10 Ni2 3.600506 1_555
La10 Ni1 3.600513 1_555
La10 La3 3.602822 1_555
La10 La8 3.732773 1_556
La10 La7 3.732782 1_556
La10 La6 3.732796 1_565
La10 La9 3.732885 1_565
La10 La13 3.775291 1_556
La10 La15 3.775325 1_565
La10 La14 3.775528 1_456
La10 La12 3.775593 1_465
La11 Ni0 3.600143 1_555
La11 Ni3 3.600252 1_555
La11 La2 3.602761 1_555
La11 La6 3.732713 1_555
La11 La8 3.732718 1_555
La11 La9 3.732792 1_655
La11 La7 3.732799 1_655
La11 La14 3.775311 1_545
La11 La12 3.775320 1_554
La11 La15 3.775431 1_654
La11 La13 3.775480 1_645
La12 Ni1 3.600104 1_555
La12 Ni3 3.600471 1_555
La12 La2 3.602748 1_555
La12 La5 3.732699 1_556
La12 La8 3.732714 1_556
La12 La4 3.732828 1_655
La12 La9 3.732874 1_655
La12 La15 3.775434 1_655
La12 La14 3.775465 1_546
La13 Ni2 3.600343 1_555
La13 Ni0 3.600530 1_555
La13 La3 3.602806 1_555
La13 La5 3.732747 1_565
La13 La9 3.732758 1_565
La13 La8 3.732777 1_555
La13 La4 3.732808 1_555
La13 La15 3.775353 1_564
La13 La14 3.775386 1_455
La14 Ni2 3.600259 1_555
La14 Ni3 3.600451 1_555
La14 La6 3.732700 1_565
La14 La5 3.732741 1_565
La14 La7 3.732793 1_655
La14 La4 3.732820 1_655
La15 Ni1 3.600387 1_555
La15 Ni0 3.600620 1_555
La15 La2 3.602789 1_555
La15 La3 3.602815 1_555
La15 La5 3.732752 1_556
La15 La7 3.732775 1_556
La15 La4 3.732855 1_555
La15 La6 3.732862 1_555
Cd0 Cd2 3.122325 1_555
Cd0 Cd1 3.122384 1_555
Cd0 Cd3 3.122388 1_555
Cd0 La14 3.451204 1_556
Cd0 La10 3.451208 1_655
Cd0 La12 3.451215 1_565
Cd0 La1 3.600129 1_556
Cd0 La2 3.600176 1_565
Cd0 La3 3.600217 1_655
Cd0 La7 3.601063 1_656
Cd0 La9 3.601124 1_665
Cd0 La5 3.601156 1_566
Cd1 Cd2 3.122448 1_555
Cd1 Cd3 3.122507 1_555
Cd1 La14 3.451064 1_555
Cd1 La13 3.451151 1_655
Cd1 La11 3.451194 1_565
Cd1 La2 3.600111 1_565
Cd1 La0 3.600151 1_555
Cd1 La3 3.600163 1_655
Cd1 La9 3.600998 1_665
Cd1 La4 3.601024 1_655
Cd1 La6 3.601116 1_565
Cd2 Cd3 3.122506 1_555
Cd2 La12 3.451078 1_555
Cd2 La15 3.451138 1_655
Cd2 La11 3.451187 1_556
Cd2 La3 3.600139 1_655
Cd2 La1 3.600143 1_556
Cd2 La0 3.600178 1_555
Cd2 La4 3.601023 1_655
Cd2 La7 3.601025 1_656
Cd2 La8 3.601153 1_556
Cd3 La10 3.451024 1_555
Cd3 La13 3.451145 1_556
Cd3 La15 3.451171 1_565
Cd3 La2 3.600083 1_565
Cd3 La1 3.600092 1_556
Cd3 La0 3.600145 1_555
Cd3 La5 3.601060 1_566
Cd3 La8 3.601081 1_556
Cd3 La6 3.601107 1_565
