# generated using pymatgen
data_EuS2
_symmetry_space_group_name_H-M   'P 1'
_cell_length_a   5.62051153
_cell_length_b   5.62540015
_cell_length_c   5.62680691
_cell_angle_alpha   60.02947132
_cell_angle_beta   60.00061292
_cell_angle_gamma   59.99055594
_symmetry_Int_Tables_number   1
_chemical_formula_structural   EuS2
_chemical_formula_sum   'Eu2 S4'
_cell_volume   125.81832712
_cell_formula_units_Z   2
loop_
 _symmetry_equiv_pos_site_id
 _symmetry_equiv_pos_as_xyz
  1  'x, y, z'
loop_
 _atom_site_type_symbol
 _atom_site_label
 _atom_site_symmetry_multiplicity
 _atom_site_fract_x
 _atom_site_fract_y
 _atom_site_fract_z
 _atom_site_occupancy
  Eu  Eu0  1  0.75000000  0.74999700  0.74999900  1
  Eu  Eu1  1  0.00000000  0.00000300  0.00000100  1
  S  S0  1  0.87500000  0.37500000  0.37500000  1
  S  S1  1  0.37500000  0.87500000  0.37500000  1
  S  S2  1  0.37500000  0.37500000  0.87500000  1
  S  S3  1  0.37500000  0.37500000  0.37500000  1
loop_
_geom_bond_atom_site_label_1
_geom_bond_atom_site_label_2
_geom_bond_distance
_geom_bond_site_symmetry_2
Eu0 S2 3.295528 1_655
Eu0 S1 3.295914 1_655
Eu0 S3 3.296196 1_655
Eu0 S2 3.296925 1_555
Eu0 S1 3.297182 1_555
Eu0 S2 3.297625 1_565
Eu0 S0 3.298213 1_555
Eu0 S3 3.298301 1_565
Eu0 S1 3.298568 1_556
Eu0 S3 3.298988 1_556
Eu0 S0 3.299050 1_565
Eu0 S0 3.299608 1_556
Eu1 S2 3.295528 1_454
Eu1 S1 3.295914 1_445
Eu1 S3 3.296196 1_455
Eu1 S2 3.296925 1_554
Eu1 S1 3.297182 1_545
Eu1 S2 3.297625 1_544
Eu1 S0 3.298213 1_455
Eu1 S3 3.298301 1_545
Eu1 S1 3.298568 1_544
Eu1 S3 3.298988 1_554
Eu1 S0 3.299050 1_445
Eu1 S0 3.299608 1_454
