# generated using pymatgen
data_MnZn13
_symmetry_space_group_name_H-M   'P 1'
_cell_length_a   6.52901541
_cell_length_b   6.52901541
_cell_length_c   5.45379072
_cell_angle_alpha   80.26220476
_cell_angle_beta   80.26220476
_cell_angle_gamma   71.24181978
_symmetry_Int_Tables_number   1
_chemical_formula_structural   MnZn13
_chemical_formula_sum   'Mn1 Zn13'
_cell_volume   215.31781551
_cell_formula_units_Z   1
loop_
 _symmetry_equiv_pos_site_id
 _symmetry_equiv_pos_as_xyz
  1  'x, y, z'
loop_
 _atom_site_type_symbol
 _atom_site_label
 _atom_site_symmetry_multiplicity
 _atom_site_fract_x
 _atom_site_fract_y
 _atom_site_fract_z
 _atom_site_occupancy
  Mn  Mn0  1  0.00000000  0.00000000  0.00000000  1
  Zn  Zn0  1  0.61289700  0.61289700  0.06562500  1
  Zn  Zn1  1  0.38710300  0.38710300  0.93437500  1
  Zn  Zn2  1  0.76849100  0.76849100  0.37150400  1
  Zn  Zn3  1  0.23150900  0.23150900  0.62849600  1
  Zn  Zn4  1  0.61811100  0.21543000  0.31145000  1
  Zn  Zn5  1  0.38188900  0.78457000  0.68855000  1
  Zn  Zn6  1  0.78457000  0.38188900  0.68855000  1
  Zn  Zn7  1  0.21543000  0.61811100  0.31145000  1
  Zn  Zn8  1  0.35958900  0.99256300  0.19703400  1
  Zn  Zn9  1  0.64041100  0.00743700  0.80296600  1
  Zn  Zn10  1  0.00743700  0.64041100  0.80296600  1
  Zn  Zn11  1  0.99256300  0.35958900  0.19703400  1
  Zn  Zn12  1  0.00000000  0.00000000  0.50000000  1
loop_
_geom_bond_atom_site_label_1
_geom_bond_atom_site_label_2
_geom_bond_distance
_geom_bond_site_symmetry_2
Mn0 Zn11 2.726084 1_455
Mn0 Zn8 2.726084 1_545
Mn0 Zn10 2.726084 1_544
Mn0 Zn9 2.726084 1_454
Mn0 Zn12 2.726895 1_554
Mn0 Zn12 2.726895 1_555
Mn0 Zn3 2.841121 1_554
Mn0 Zn2 2.841121 1_445
Mn0 Zn6 2.863630 1_454
Mn0 Zn5 2.863630 1_544
Mn0 Zn4 2.863630 1_455
Mn0 Zn7 2.863630 1_545
Zn0 Zn2 2.580152 1_555
Zn0 Zn5 2.634868 1_554
Zn0 Zn6 2.634868 1_554
Zn0 Zn11 2.637584 1_555
Zn0 Zn8 2.637584 1_555
Zn0 Zn1 2.640206 1_554
Zn0 Zn4 2.704562 1_555
Zn0 Zn7 2.704562 1_555
Zn0 Zn10 2.771670 1_654
Zn0 Zn9 2.771670 1_564
Zn1 Zn3 2.580152 1_555
Zn1 Zn4 2.634868 1_556
Zn1 Zn7 2.634868 1_556
Zn1 Zn9 2.637584 1_555
Zn1 Zn10 2.637584 1_555
Zn1 Zn6 2.704562 1_555
Zn1 Zn5 2.704562 1_555
Zn1 Zn8 2.771670 1_546
Zn1 Zn11 2.771670 1_456
Zn2 Zn7 2.743943 1_655
Zn2 Zn4 2.743943 1_565
Zn2 Zn5 2.790451 1_555
Zn2 Zn6 2.790451 1_555
Zn2 Zn8 2.837179 1_555
Zn2 Zn9 2.899548 1_565
Zn3 Zn5 2.743943 1_545
Zn3 Zn6 2.743943 1_455
Zn3 Zn7 2.790451 1_555
Zn3 Zn4 2.790451 1_555
Zn3 Zn9 2.837179 1_555
Zn3 Zn8 2.899548 1_545
Zn4 Zn8 2.756582 1_545
Zn4 Zn9 2.797236 1_555
Zn4 Zn6 2.977233 1_555
Zn4 Zn7 3.062491 1_555
Zn5 Zn9 2.756582 1_565
Zn5 Zn8 2.797236 1_555
Zn5 Zn7 2.977233 1_555
Zn5 Zn6 3.062491 1_555
Zn6 Zn9 2.831524 1_555
Zn7 Zn8 2.831524 1_555
Zn8 Zn9 2.588622 1_564
Zn10 Zn11 2.588622 1_456
Zn10 Zn12 2.624127 1_565
Zn10 Zn6 2.756582 1_455
Zn10 Zn9 2.791326 1_465
Zn10 Zn7 2.797236 1_555
Zn10 Zn5 2.831524 1_555
Zn10 Zn3 2.837179 1_555
Zn10 Zn2 2.899548 1_455
Zn11 Zn12 2.624127 1_655
Zn11 Zn7 2.756582 1_655
Zn11 Zn8 2.791326 1_645
Zn11 Zn6 2.797236 1_555
Zn11 Zn4 2.831524 1_555
Zn11 Zn2 2.837179 1_555
Zn11 Zn3 2.899548 1_655
Zn12 Zn8 2.624127 1_545
Zn12 Zn9 2.624127 1_455
Zn12 Zn3 2.691949 1_555
Zn12 Zn2 2.691949 1_445
Zn12 Zn6 2.715723 1_455
Zn12 Zn4 2.715723 1_455
Zn12 Zn7 2.715723 1_545
Zn12 Zn5 2.715723 1_545
