# generated using pymatgen
data_Mg2Sn
_symmetry_space_group_name_H-M   'P 1'
_cell_length_a   7.85386771
_cell_length_b   7.85386771
_cell_length_c   5.46137866
_cell_angle_alpha   90.00000000
_cell_angle_beta   90.00000000
_cell_angle_gamma   154.82156822
_symmetry_Int_Tables_number   1
_chemical_formula_structural   Mg2Sn
_chemical_formula_sum   'Mg4 Sn2'
_cell_volume   143.31986697
_cell_formula_units_Z   2
loop_
 _symmetry_equiv_pos_site_id
 _symmetry_equiv_pos_as_xyz
  1  'x, y, z'
loop_
 _atom_site_type_symbol
 _atom_site_label
 _atom_site_symmetry_multiplicity
 _atom_site_fract_x
 _atom_site_fract_y
 _atom_site_fract_z
 _atom_site_occupancy
  Mg  Mg0  1  0.11378825  0.88621175  0.25000000  1
  Mg  Mg1  1  0.44451231  0.55548769  0.25000000  1
  Mg  Mg2  1  0.55548769  0.44451231  0.75000000  1
  Mg  Mg3  1  0.88621175  0.11378825  0.75000000  1
  Sn  Sn0  1  0.77858470  0.22141530  0.25000000  1
  Sn  Sn1  1  0.22141530  0.77858470  0.75000000  1
loop_
_geom_bond_atom_site_label_1
_geom_bond_atom_site_label_2
_geom_bond_distance
_geom_bond_site_symmetry_2
Mg0 Sn0 3.051682 1_565
Mg0 Sn0 3.051682 1_455
Mg0 Sn1 3.190445 1_554
Mg0 Sn1 3.190445 1_555
Mg1 Sn0 3.066053 1_455
Mg1 Sn0 3.066053 1_565
Mg2 Sn1 3.066053 1_545
Mg2 Sn1 3.066053 1_655
Mg3 Sn1 3.051682 1_655
Mg3 Sn1 3.051682 1_545
Mg3 Sn0 3.190445 1_555
Mg3 Sn0 3.190445 1_556
