# generated using pymatgen
data_Tb5Mg
_symmetry_space_group_name_H-M   'P 1'
_cell_length_a   18.63618568
_cell_length_b   18.63618568
_cell_length_c   11.28161400
_cell_angle_alpha   90.00000000
_cell_angle_beta   90.00000000
_cell_angle_gamma   157.76660774
_symmetry_Int_Tables_number   1
_chemical_formula_structural   Tb5Mg
_chemical_formula_sum   'Tb40 Mg8'
_cell_volume   1482.56532783
_cell_formula_units_Z   8
loop_
 _symmetry_equiv_pos_site_id
 _symmetry_equiv_pos_as_xyz
  1  'x, y, z'
loop_
 _atom_site_type_symbol
 _atom_site_label
 _atom_site_symmetry_multiplicity
 _atom_site_fract_x
 _atom_site_fract_y
 _atom_site_fract_z
 _atom_site_occupancy
  Tb  Tb0_0  1  0.00074200  0.49925800  0.00000000  1
  Tb  Tb0_1  1  0.00074200  0.49925800  0.50000000  1
  Tb  Tb0_2  1  0.00074200  0.99925800  0.00000000  1
  Tb  Tb0_3  1  0.00074200  0.99925800  0.50000000  1
  Tb  Tb0_4  1  0.50074200  0.49925800  0.00000000  1
  Tb  Tb0_5  1  0.50074200  0.49925800  0.50000000  1
  Tb  Tb0_6  1  0.50074200  0.99925800  0.00000000  1
  Tb  Tb0_7  1  0.50074200  0.99925800  0.50000000  1
  Tb  Tb1_0  1  0.33554700  0.16445300  0.00000000  1
  Tb  Tb1_1  1  0.33554700  0.16445300  0.50000000  1
  Tb  Tb1_2  1  0.33554700  0.66445300  0.00000000  1
  Tb  Tb1_3  1  0.33554700  0.66445300  0.50000000  1
  Tb  Tb1_4  1  0.83554700  0.16445300  0.00000000  1
  Tb  Tb1_5  1  0.83554700  0.16445300  0.50000000  1
  Tb  Tb1_6  1  0.83554700  0.66445300  0.00000000  1
  Tb  Tb1_7  1  0.83554700  0.66445300  0.50000000  1
  Tb  Tb2_0  1  0.16614300  0.33385700  0.00000000  1
  Tb  Tb2_1  1  0.16614300  0.33385700  0.50000000  1
  Tb  Tb2_2  1  0.16614300  0.83385700  0.00000000  1
  Tb  Tb2_3  1  0.16614300  0.83385700  0.50000000  1
  Tb  Tb2_4  1  0.66614300  0.33385700  0.00000000  1
  Tb  Tb2_5  1  0.66614300  0.33385700  0.50000000  1
  Tb  Tb2_6  1  0.66614300  0.83385700  0.00000000  1
  Tb  Tb2_7  1  0.66614300  0.83385700  0.50000000  1
  Tb  Tb3_0  1  0.27729100  0.22270900  0.25000000  1
  Tb  Tb3_1  1  0.27729100  0.22270900  0.75000000  1
  Tb  Tb3_2  1  0.27729100  0.72270900  0.25000000  1
  Tb  Tb3_3  1  0.27729100  0.72270900  0.75000000  1
  Tb  Tb3_4  1  0.77729100  0.22270900  0.25000000  1
  Tb  Tb3_5  1  0.77729100  0.22270900  0.75000000  1
  Tb  Tb3_6  1  0.77729100  0.72270900  0.25000000  1
  Tb  Tb3_7  1  0.77729100  0.72270900  0.75000000  1
  Tb  Tb4_0  1  0.44249250  0.05750750  0.25000000  1
  Tb  Tb4_1  1  0.44249250  0.05750750  0.75000000  1
  Tb  Tb4_2  1  0.44249250  0.55750750  0.25000000  1
  Tb  Tb4_3  1  0.44249250  0.55750750  0.75000000  1
  Tb  Tb4_4  1  0.94249250  0.05750750  0.25000000  1
  Tb  Tb4_5  1  0.94249250  0.05750750  0.75000000  1
  Tb  Tb4_6  1  0.94249250  0.55750750  0.25000000  1
  Tb  Tb4_7  1  0.94249250  0.55750750  0.75000000  1
  Mg  Mg0_0  1  0.11111950  0.38888050  0.25000000  1
  Mg  Mg0_1  1  0.11111950  0.38888050  0.75000000  1
  Mg  Mg0_2  1  0.11111950  0.88888050  0.25000000  1
  Mg  Mg0_3  1  0.11111950  0.88888050  0.75000000  1
  Mg  Mg0_4  1  0.61111950  0.38888050  0.25000000  1
  Mg  Mg0_5  1  0.61111950  0.38888050  0.75000000  1
  Mg  Mg0_6  1  0.61111950  0.88888050  0.25000000  1
  Mg  Mg0_7  1  0.61111950  0.88888050  0.75000000  1
loop_
_geom_bond_atom_site_label_1
_geom_bond_atom_site_label_2
_geom_bond_distance
_geom_bond_site_symmetry_2
Tb0_0 Tb3_5 3.482133 1_454
Tb0_0 Tb3_3 3.482133 1_554
Tb0_0 Tb3_4 3.482133 1_455
Tb0_0 Tb3_2 3.482133 1_555
Tb0_0 Tb4_7 3.534559 1_454
Tb0_0 Tb4_6 3.534559 1_455
Tb0_0 Tb2_2 3.577829 1_555
Tb0_0 Tb2_4 3.577829 1_455
Tb0_0 Tb1_2 3.584347 1_555
Tb0_0 Tb1_4 3.584347 1_455
Tb0_0 Tb0_6 3.593204 1_555
Tb0_0 Tb0_6 3.593204 1_445
Tb0_1 Tb3_4 3.482133 1_455
Tb0_1 Tb3_2 3.482133 1_555
Tb0_1 Tb3_3 3.482133 1_555
Tb0_1 Tb3_5 3.482133 1_455
Tb0_1 Tb4_6 3.534559 1_455
Tb0_1 Tb4_7 3.534559 1_455
Tb0_1 Tb2_3 3.577829 1_555
Tb0_1 Tb2_5 3.577829 1_455
Tb0_1 Tb1_3 3.584347 1_555
Tb0_1 Tb1_5 3.584347 1_455
Tb0_1 Tb0_7 3.593204 1_555
Tb0_1 Tb0_7 3.593204 1_445
Tb0_2 Tb3_1 3.482133 1_564
Tb0_2 Tb3_7 3.482133 1_454
Tb0_2 Tb3_0 3.482133 1_565
Tb0_2 Tb3_6 3.482133 1_455
Tb0_2 Tb4_5 3.534559 1_464
Tb0_2 Tb4_4 3.534559 1_465
Tb0_2 Tb2_6 3.577829 1_455
Tb0_2 Tb2_0 3.577829 1_565
Tb0_2 Tb1_0 3.584347 1_565
Tb0_2 Tb1_6 3.584347 1_455
Tb0_2 Tb0_4 3.593204 1_565
Tb0_2 Tb0_4 3.593204 1_455
Tb0_3 Tb3_0 3.482133 1_565
Tb0_3 Tb3_1 3.482133 1_565
Tb0_3 Tb3_6 3.482133 1_455
Tb0_3 Tb3_7 3.482133 1_455
Tb0_3 Tb4_4 3.534559 1_465
Tb0_3 Tb4_5 3.534559 1_465
Tb0_3 Tb2_7 3.577829 1_455
Tb0_3 Tb2_1 3.577829 1_565
Tb0_3 Tb1_1 3.584347 1_565
Tb0_3 Tb1_7 3.584347 1_455
Tb0_3 Tb0_5 3.593204 1_565
Tb0_3 Tb0_5 3.593204 1_455
Tb0_4 Tb3_1 3.482133 1_554
Tb0_4 Tb3_7 3.482133 1_554
Tb0_4 Tb3_0 3.482133 1_555
Tb0_4 Tb3_6 3.482133 1_555
Tb0_4 Tb4_3 3.534559 1_554
Tb0_4 Tb4_2 3.534559 1_555
Tb0_4 Tb2_6 3.577829 1_555
Tb0_4 Tb2_0 3.577829 1_555
Tb0_4 Tb1_0 3.584347 1_555
Tb0_4 Tb1_6 3.584347 1_555
Tb0_5 Tb3_0 3.482133 1_555
Tb0_5 Tb3_6 3.482133 1_555
Tb0_5 Tb3_1 3.482133 1_555
Tb0_5 Tb3_7 3.482133 1_555
Tb0_5 Tb4_2 3.534559 1_555
Tb0_5 Tb4_3 3.534559 1_555
Tb0_5 Tb2_7 3.577829 1_555
Tb0_5 Tb2_1 3.577829 1_555
Tb0_5 Tb1_1 3.584347 1_555
Tb0_5 Tb1_7 3.584347 1_555
Tb0_6 Tb3_3 3.482133 1_554
Tb0_6 Tb3_5 3.482133 1_564
Tb0_6 Tb3_2 3.482133 1_555
Tb0_6 Tb3_4 3.482133 1_565
Tb0_6 Tb4_1 3.534559 1_564
Tb0_6 Tb4_0 3.534559 1_565
Tb0_6 Tb2_2 3.577829 1_555
Tb0_6 Tb2_4 3.577829 1_565
Tb0_6 Tb1_4 3.584347 1_565
Tb0_6 Tb1_2 3.584347 1_555
Tb0_7 Tb3_2 3.482133 1_555
Tb0_7 Tb3_4 3.482133 1_565
Tb0_7 Tb3_3 3.482133 1_555
Tb0_7 Tb3_5 3.482133 1_565
Tb0_7 Tb4_0 3.534559 1_565
Tb0_7 Tb4_1 3.534559 1_565
Tb0_7 Tb2_3 3.577829 1_555
Tb0_7 Tb2_5 3.577829 1_565
Tb0_7 Tb1_5 3.584347 1_565
Tb0_7 Tb1_3 3.584347 1_555
Tb1_0 Tb2_4 3.452007 1_555
Tb1_0 Tb2_2 3.452007 1_545
Tb1_0 Tb3_1 3.534702 1_554
Tb1_0 Tb3_0 3.534702 1_555
Tb1_0 Tb1_6 3.593204 1_555
Tb1_0 Tb1_6 3.593204 1_445
Tb1_1 Tb2_5 3.452007 1_555
Tb1_1 Tb2_3 3.452007 1_545
Tb1_1 Tb3_0 3.534702 1_555
Tb1_1 Tb3_1 3.534702 1_555
Tb1_1 Tb1_7 3.593204 1_555
Tb1_1 Tb1_7 3.593204 1_445
Tb1_2 Tb2_0 3.452007 1_555
Tb1_2 Tb2_6 3.452007 1_555
Tb1_2 Tb3_3 3.534702 1_554
Tb1_2 Tb3_2 3.534702 1_555
Tb1_2 Tb1_4 3.593204 1_565
Tb1_2 Tb1_4 3.593204 1_455
Tb1_3 Tb2_1 3.452007 1_555
Tb1_3 Tb2_7 3.452007 1_555
Tb1_3 Tb3_2 3.534702 1_555
Tb1_3 Tb3_3 3.534702 1_555
Tb1_3 Tb1_5 3.593204 1_565
Tb1_3 Tb1_5 3.593204 1_455
Tb1_4 Tb2_0 3.452007 1_655
Tb1_4 Tb2_6 3.452007 1_545
Tb1_4 Tb3_5 3.534702 1_554
Tb1_4 Tb3_4 3.534702 1_555
Tb1_5 Tb2_1 3.452007 1_655
Tb1_5 Tb2_7 3.452007 1_545
Tb1_5 Tb3_4 3.534702 1_555
Tb1_5 Tb3_5 3.534702 1_555
Tb1_6 Tb2_4 3.452007 1_555
Tb1_6 Tb2_2 3.452007 1_655
Tb1_6 Tb3_7 3.534702 1_554
Tb1_6 Tb3_6 3.534702 1_555
Tb1_7 Tb2_3 3.452007 1_655
Tb1_7 Tb2_5 3.452007 1_555
Tb1_7 Tb3_6 3.534702 1_555
Tb1_7 Tb3_7 3.534702 1_555
Tb2_0 Tb4_3 3.480106 1_554
Tb2_0 Tb4_5 3.480106 1_454
Tb2_0 Tb4_2 3.480106 1_555
Tb2_0 Tb4_4 3.480106 1_455
Tb2_0 Tb2_6 3.593204 1_555
Tb2_0 Tb2_6 3.593204 1_445
Tb2_1 Tb4_2 3.480106 1_555
Tb2_1 Tb4_4 3.480106 1_455
Tb2_1 Tb4_3 3.480106 1_555
Tb2_1 Tb4_5 3.480106 1_455
Tb2_1 Tb2_7 3.593204 1_555
Tb2_1 Tb2_7 3.593204 1_445
Tb2_2 Tb4_1 3.480106 1_564
Tb2_2 Tb4_7 3.480106 1_454
Tb2_2 Tb4_0 3.480106 1_565
Tb2_2 Tb4_6 3.480106 1_455
Tb2_2 Tb2_4 3.593204 1_455
Tb2_2 Tb2_4 3.593204 1_565
Tb2_3 Tb4_0 3.480106 1_565
Tb2_3 Tb4_6 3.480106 1_455
Tb2_3 Tb4_1 3.480106 1_565
Tb2_3 Tb4_7 3.480106 1_455
Tb2_3 Tb2_5 3.593204 1_455
Tb2_3 Tb2_5 3.593204 1_565
Tb2_4 Tb4_7 3.480106 1_554
Tb2_4 Tb4_1 3.480106 1_554
Tb2_4 Tb4_6 3.480106 1_555
Tb2_4 Tb4_0 3.480106 1_555
Tb2_5 Tb4_6 3.480106 1_555
Tb2_5 Tb4_0 3.480106 1_555
Tb2_5 Tb4_7 3.480106 1_555
Tb2_5 Tb4_1 3.480106 1_555
Tb2_6 Tb4_3 3.480106 1_554
Tb2_6 Tb4_5 3.480106 1_564
Tb2_6 Tb4_2 3.480106 1_555
Tb2_6 Tb4_4 3.480106 1_565
Tb2_7 Tb4_2 3.480106 1_555
Tb2_7 Tb4_4 3.480106 1_565
Tb2_7 Tb4_3 3.480106 1_555
Tb2_7 Tb4_5 3.480106 1_565
Tb3_0 Tb4_4 3.584141 1_455
Tb3_0 Tb4_2 3.584141 1_555
Tb3_0 Tb3_6 3.593204 1_555
Tb3_0 Tb3_6 3.593204 1_445
Tb3_1 Tb4_5 3.584141 1_455
Tb3_1 Tb4_3 3.584141 1_555
Tb3_1 Tb3_7 3.593204 1_555
Tb3_1 Tb3_7 3.593204 1_445
Tb3_2 Tb4_6 3.584141 1_455
Tb3_2 Tb4_0 3.584141 1_565
Tb3_2 Tb3_4 3.593204 1_565
Tb3_2 Tb3_4 3.593204 1_455
Tb3_3 Tb4_7 3.584141 1_455
Tb3_3 Tb4_1 3.584141 1_565
Tb3_3 Tb3_5 3.593204 1_565
Tb3_3 Tb3_5 3.593204 1_455
Tb3_4 Tb4_6 3.584141 1_555
Tb3_4 Tb4_0 3.584141 1_555
Tb3_5 Tb4_7 3.584141 1_555
Tb3_5 Tb4_1 3.584141 1_555
Tb3_6 Tb4_4 3.584141 1_565
Tb3_6 Tb4_2 3.584141 1_555
Tb3_7 Tb4_5 3.584141 1_565
Tb3_7 Tb4_3 3.584141 1_555
Tb4_0 Tb4_6 3.593204 1_555
Tb4_0 Tb4_6 3.593204 1_445
Tb4_1 Tb4_7 3.593204 1_555
Tb4_1 Tb4_7 3.593204 1_445
Tb4_2 Tb4_4 3.593204 1_565
Tb4_2 Tb4_4 3.593204 1_455
Tb4_3 Tb4_5 3.593204 1_565
Tb4_3 Tb4_5 3.593204 1_455
Mg0_0 Tb2_0 3.464726 1_555
Mg0_0 Tb2_1 3.464726 1_555
Mg0_0 Tb1_2 3.472344 1_555
Mg0_0 Tb1_3 3.472344 1_555
Mg0_0 Tb1_5 3.472344 1_455
Mg0_0 Tb1_4 3.472344 1_455
Mg0_0 Tb4_2 3.476304 1_555
Mg0_0 Tb4_4 3.476304 1_455
Mg0_0 Tb3_2 3.553489 1_555
Mg0_0 Tb3_4 3.553489 1_455
Mg0_1 Tb2_0 3.464726 1_556
Mg0_1 Tb2_1 3.464726 1_555
Mg0_1 Tb1_2 3.472344 1_556
Mg0_1 Tb1_4 3.472344 1_456
Mg0_1 Tb1_3 3.472344 1_555
Mg0_1 Tb1_5 3.472344 1_455
Mg0_1 Tb4_3 3.476304 1_555
Mg0_1 Tb4_5 3.476304 1_455
Mg0_1 Tb3_3 3.553489 1_555
Mg0_1 Tb3_5 3.553489 1_455
Mg0_2 Tb2_3 3.464726 1_555
Mg0_2 Tb2_2 3.464726 1_555
Mg0_2 Tb1_0 3.472344 1_565
Mg0_2 Tb1_7 3.472344 1_455
Mg0_2 Tb1_6 3.472344 1_455
Mg0_2 Tb1_1 3.472344 1_565
Mg0_2 Tb4_0 3.476304 1_565
Mg0_2 Tb4_6 3.476304 1_455
Mg0_2 Tb3_6 3.553489 1_455
Mg0_2 Tb3_0 3.553489 1_565
Mg0_3 Tb2_2 3.464726 1_556
Mg0_3 Tb2_3 3.464726 1_555
Mg0_3 Tb1_6 3.472344 1_456
Mg0_3 Tb1_0 3.472344 1_566
Mg0_3 Tb1_7 3.472344 1_455
Mg0_3 Tb1_1 3.472344 1_565
Mg0_3 Tb4_1 3.476304 1_565
Mg0_3 Tb4_7 3.476304 1_455
Mg0_3 Tb3_7 3.553489 1_455
Mg0_3 Tb3_1 3.553489 1_565
Mg0_4 Tb2_4 3.464726 1_555
Mg0_4 Tb2_5 3.464726 1_555
Mg0_4 Tb1_6 3.472344 1_555
Mg0_4 Tb1_7 3.472344 1_555
Mg0_4 Tb1_0 3.472344 1_555
Mg0_4 Tb1_1 3.472344 1_555
Mg0_4 Tb4_6 3.476304 1_555
Mg0_4 Tb4_0 3.476304 1_555
Mg0_4 Tb3_6 3.553489 1_555
Mg0_4 Tb3_0 3.553489 1_555
Mg0_5 Tb2_4 3.464726 1_556
Mg0_5 Tb2_5 3.464726 1_555
Mg0_5 Tb1_6 3.472344 1_556
Mg0_5 Tb1_0 3.472344 1_556
Mg0_5 Tb1_7 3.472344 1_555
Mg0_5 Tb1_1 3.472344 1_555
Mg0_5 Tb4_7 3.476304 1_555
Mg0_5 Tb4_1 3.476304 1_555
Mg0_5 Tb3_7 3.553489 1_555
Mg0_5 Tb3_1 3.553489 1_555
Mg0_6 Tb2_7 3.464726 1_555
Mg0_6 Tb2_6 3.464726 1_555
Mg0_6 Tb1_2 3.472344 1_555
Mg0_6 Tb1_3 3.472344 1_555
Mg0_6 Tb1_5 3.472344 1_565
Mg0_6 Tb1_4 3.472344 1_565
Mg0_6 Tb4_2 3.476304 1_555
Mg0_6 Tb4_4 3.476304 1_565
Mg0_6 Tb3_4 3.553489 1_565
Mg0_6 Tb3_2 3.553489 1_555
Mg0_7 Tb2_6 3.464726 1_556
Mg0_7 Tb2_7 3.464726 1_555
Mg0_7 Tb1_2 3.472344 1_556
Mg0_7 Tb1_4 3.472344 1_566
Mg0_7 Tb1_3 3.472344 1_555
Mg0_7 Tb1_5 3.472344 1_565
Mg0_7 Tb4_3 3.476304 1_555
Mg0_7 Tb4_5 3.476304 1_565
Mg0_7 Tb3_5 3.553489 1_565
Mg0_7 Tb3_3 3.553489 1_555
