# generated using pymatgen
data_Sc3Ni11Ge4
_symmetry_space_group_name_H-M   'P 1'
_cell_length_a   8.21669387
_cell_length_b   8.21553200
_cell_length_c   8.43109800
_cell_angle_alpha   90.00000000
_cell_angle_beta   90.00000000
_cell_angle_gamma   60.00467749
_symmetry_Int_Tables_number   1
_chemical_formula_structural   Sc3Ni11Ge4
_chemical_formula_sum   'Sc6 Ni22 Ge8'
_cell_volume   492.91046118
_cell_formula_units_Z   2
loop_
 _symmetry_equiv_pos_site_id
 _symmetry_equiv_pos_as_xyz
  1  'x, y, z'
loop_
 _atom_site_type_symbol
 _atom_site_label
 _atom_site_symmetry_multiplicity
 _atom_site_fract_x
 _atom_site_fract_y
 _atom_site_fract_z
 _atom_site_occupancy
  Sc  Sc0  1  0.18554600  0.62899300  0.75000000  1
  Sc  Sc1  1  0.62889600  0.18555200  0.75000000  1
  Sc  Sc2  1  0.18554600  0.18546100  0.75000000  1
  Sc  Sc3  1  0.81445400  0.37100700  0.25000000  1
  Sc  Sc4  1  0.37110400  0.81444800  0.25000000  1
  Sc  Sc5  1  0.81445400  0.81453900  0.25000000  1
  Ni  Ni0  1  0.16087900  0.67816300  0.08989000  1
  Ni  Ni1  1  0.67823700  0.16088200  0.08999800  1
  Ni  Ni2  1  0.16087900  0.16095800  0.08989000  1
  Ni  Ni3  1  0.83912100  0.32183700  0.91011000  1
  Ni  Ni4  1  0.32176300  0.83911800  0.91000200  1
  Ni  Ni5  1  0.83912100  0.83904200  0.91011000  1
  Ni  Ni6  1  0.83912100  0.32183700  0.58989000  1
  Ni  Ni7  1  0.32176300  0.83911800  0.58999800  1
  Ni  Ni8  1  0.83912100  0.83904200  0.58989000  1
  Ni  Ni9  1  0.16087900  0.67816300  0.41011000  1
  Ni  Ni10  1  0.67823700  0.16088200  0.41000200  1
  Ni  Ni11  1  0.16087900  0.16095800  0.41011000  1
  Ni  Ni12  1  0.33334100  0.33332900  0.51185600  1
  Ni  Ni13  1  0.66665900  0.66667100  0.48814400  1
  Ni  Ni14  1  0.66665900  0.66667100  0.01185600  1
  Ni  Ni15  1  0.33334100  0.33332900  0.98814400  1
  Ni  Ni16  1  0.56597800  0.86808000  0.75000000  1
  Ni  Ni17  1  0.86818900  0.56590600  0.75000000  1
  Ni  Ni18  1  0.56597800  0.56594100  0.75000000  1
  Ni  Ni19  1  0.43402200  0.13192000  0.25000000  1
  Ni  Ni20  1  0.13181100  0.43409400  0.25000000  1
  Ni  Ni21  1  0.43402200  0.43405900  0.25000000  1
  Ge  Ge0  1  0.50000000  0.00000000  0.50000000  1
  Ge  Ge1  1  0.00000000  0.50000000  0.50000000  1
  Ge  Ge2  1  0.50000000  0.50000000  0.50000000  1
  Ge  Ge3  1  0.50000000  0.00000000  0.00000000  1
  Ge  Ge4  1  0.00000000  0.50000000  0.00000000  1
  Ge  Ge5  1  0.50000000  0.50000000  0.00000000  1
  Ge  Ge6  1  0.00000000  0.00000000  0.50000000  1
  Ge  Ge7  1  0.00000000  0.00000000  0.00000000  1
loop_
_geom_bond_atom_site_label_1
_geom_bond_atom_site_label_2
_geom_bond_distance
_geom_bond_site_symmetry_2
Ni0 Ni20 2.525626 1_555
Ni0 Ni21 2.526030 1_555
Ni0 Ni15 2.599199 1_554
Ni0 Ni9 2.699806 1_555
Ni0 Ni5 2.745938 1_454
Ni0 Ni4 2.746652 1_554
Ni0 Sc5 2.826868 1_455
Ni0 Sc4 2.827257 1_555
Ni0 Sc0 2.886923 1_554
Ni1 Ni19 2.525943 1_555
Ni1 Ni21 2.525943 1_555
Ni1 Ni15 2.600244 1_554
Ni1 Ni10 2.697985 1_555
Ni1 Ni3 2.746652 1_554
Ni1 Ni5 2.746658 1_544
Ni1 Sc3 2.825679 1_555
Ni1 Sc5 2.825686 1_545
Ni1 Sc1 2.887981 1_554
Ni2 Ni20 2.525619 1_555
Ni2 Ni3 2.745938 1_454
Ni2 Ni4 2.746658 1_544
Ni2 Sc3 2.826868 1_455
Ni2 Sc4 2.827257 1_545
Ni2 Sc2 2.886923 1_554
Ni3 Ni6 2.699806 1_555
Ni3 Sc2 2.826868 1_655
Ni3 Sc1 2.827257 1_555
Ni3 Sc3 2.886923 1_556
Ni4 Ni7 2.697985 1_555
Ni4 Sc0 2.825679 1_555
Ni4 Sc2 2.825686 1_565
Ni4 Sc4 2.887981 1_556
Ni5 Ni8 2.699806 1_555
Ni5 Sc0 2.826868 1_655
Ni5 Sc1 2.827257 1_565
Ni5 Sc5 2.886923 1_556
Ni6 Sc2 2.826868 1_655
Ni6 Sc1 2.827257 1_555
Ni6 Sc3 2.886923 1_555
Ni7 Ni9 2.746652 1_555
Ni7 Sc0 2.825679 1_555
Ni7 Sc2 2.825686 1_565
Ni7 Sc4 2.887981 1_555
Ni8 Ni9 2.745938 1_655
Ni8 Sc0 2.826868 1_655
Ni8 Sc1 2.827257 1_565
Ni8 Sc5 2.886923 1_555
Ni9 Sc5 2.826868 1_455
Ni9 Sc4 2.827257 1_555
Ni9 Sc0 2.886923 1_555
Ni10 Ni19 2.525943 1_555
Ni10 Ni21 2.525943 1_555
Ni10 Ni12 2.600244 1_555
Ni10 Ni6 2.746652 1_555
Ni10 Ni8 2.746658 1_545
Ni10 Sc3 2.825679 1_555
Ni10 Sc5 2.825686 1_545
Ni10 Sc1 2.887981 1_555
Ni11 Ni20 2.525619 1_555
Ni11 Ni19 2.526033 1_555
Ni11 Ni12 2.599192 1_555
Ni11 Ni2 2.699806 1_555
Ni11 Ni6 2.745938 1_455
Ni11 Ni7 2.746658 1_545
Ni11 Sc3 2.826868 1_455
Ni11 Sc4 2.827257 1_545
Ni11 Sc2 2.886923 1_555
Ni12 Ni9 2.599199 1_555
Ni12 Ni19 2.632064 1_555
Ni12 Ni21 2.632072 1_555
Ni12 Ni20 2.632643 1_555
Ni12 Sc1 2.907730 1_555
Ni12 Sc2 2.908071 1_555
Ni12 Sc0 2.908076 1_555
Ni13 Ni8 2.599192 1_555
Ni13 Ni6 2.599199 1_555
Ni13 Ni7 2.600244 1_555
Ni13 Ni16 2.632064 1_555
Ni13 Ni18 2.632072 1_555
Ni13 Ni17 2.632643 1_555
Ni13 Sc4 2.907730 1_555
Ni13 Sc5 2.908071 1_555
Ni13 Sc3 2.908076 1_555
Ni14 Ni5 2.599192 1_554
Ni14 Ni3 2.599199 1_554
Ni14 Ni4 2.600244 1_554
Ni14 Ni16 2.632064 1_554
Ni14 Ni18 2.632072 1_554
Ni14 Ni17 2.632643 1_554
Ni14 Sc4 2.907730 1_555
Ni14 Sc5 2.908071 1_555
Ni14 Sc3 2.908076 1_555
Ni15 Ni2 2.599192 1_556
Ni15 Ni19 2.632064 1_556
Ni15 Ni21 2.632072 1_556
Ni15 Ni20 2.632643 1_556
Ni15 Sc1 2.907730 1_555
Ni15 Sc2 2.908071 1_555
Ni15 Sc0 2.908076 1_555
Ni16 Ni18 2.482233 1_555
Ni16 Ni17 2.483023 1_555
Ni16 Ni4 2.525943 1_555
Ni16 Ni7 2.525943 1_555
Ni16 Ni5 2.526033 1_555
Ni16 Ni8 2.526033 1_555
Ni16 Sc1 2.901409 1_565
Ni16 Sc2 2.901819 1_565
Ni17 Ni18 2.483032 1_555
Ni17 Ni5 2.525619 1_555
Ni17 Ni8 2.525619 1_555
Ni17 Ni3 2.525626 1_555
Ni17 Ni6 2.525626 1_555
Ni17 Sc0 2.901665 1_655
Ni17 Sc2 2.901670 1_655
Ni18 Ni7 2.525943 1_555
Ni18 Ni4 2.525943 1_555
Ni18 Ni6 2.526030 1_555
Ni18 Ni3 2.526030 1_555
Ni18 Sc1 2.901401 1_555
Ni18 Sc0 2.901816 1_555
Ni19 Ni21 2.482233 1_555
Ni19 Ni20 2.483023 1_555
Ni19 Ni2 2.526033 1_555
Ni19 Sc4 2.901409 1_545
Ni19 Sc5 2.901819 1_545
Ni20 Ni21 2.483032 1_555
Ni20 Ni9 2.525626 1_555
Ni20 Sc3 2.901665 1_455
Ni20 Sc5 2.901670 1_455
Ni21 Ni9 2.526030 1_555
Ni21 Sc4 2.901401 1_555
Ni21 Sc3 2.901816 1_555
Ge0 Ni16 2.307326 1_545
Ge0 Ni19 2.307326 1_555
Ge0 Ni13 2.373806 1_545
Ge0 Ni12 2.373806 1_555
Ge0 Ni10 2.530408 1_555
Ge0 Ni7 2.530408 1_545
Ge0 Ni8 2.530446 1_545
Ge0 Ni11 2.530446 1_555
Ge0 Sc4 3.082612 1_545
Ge0 Sc1 3.082612 1_555
Ge0 Sc2 3.082839 1_555
Ge0 Sc5 3.082839 1_545
Ge1 Ni20 2.307064 1_555
Ge1 Ni17 2.307064 1_455
Ge1 Ni12 2.374227 1_555
Ge1 Ni13 2.374227 1_455
Ge1 Ni9 2.529582 1_555
Ge1 Ni8 2.529582 1_455
Ge1 Ni11 2.529582 1_555
Ge1 Ni6 2.529582 1_455
Ge1 Sc5 3.083105 1_455
Ge1 Sc3 3.083105 1_455
Ge1 Sc0 3.083105 1_555
Ge1 Sc2 3.083105 1_555
Ge2 Ni18 2.307323 1_555
Ge2 Ni21 2.307323 1_555
Ge2 Ni13 2.373813 1_555
Ge2 Ni12 2.373813 1_555
Ge2 Ni10 2.530402 1_555
Ge2 Ni7 2.530402 1_555
Ge2 Ni9 2.530446 1_555
Ge2 Ni6 2.530446 1_555
Ge2 Sc4 3.082612 1_555
Ge2 Sc1 3.082612 1_555
Ge2 Sc3 3.082839 1_555
Ge2 Sc0 3.082839 1_555
Ge3 Ni16 2.307326 1_544
Ge3 Ni19 2.307326 1_555
Ge3 Ni15 2.373806 1_554
Ge3 Ni14 2.373806 1_545
Ge3 Ni4 2.530408 1_544
Ge3 Ni1 2.530408 1_555
Ge3 Ni5 2.530446 1_544
Ge3 Ni2 2.530446 1_555
Ge3 Sc4 3.082612 1_545
Ge3 Sc1 3.082612 1_554
Ge3 Sc2 3.082839 1_554
Ge3 Sc5 3.082839 1_545
Ge4 Ni20 2.307064 1_555
Ge4 Ni17 2.307064 1_454
Ge4 Ni15 2.374227 1_554
Ge4 Ni14 2.374227 1_455
Ge4 Ni0 2.529582 1_555
Ge4 Ni5 2.529582 1_454
Ge4 Ni3 2.529582 1_454
Ge4 Ni2 2.529582 1_555
Ge4 Sc5 3.083105 1_455
Ge4 Sc3 3.083105 1_455
Ge4 Sc2 3.083105 1_554
Ge4 Sc0 3.083105 1_554
Ge5 Ni21 2.307323 1_555
Ge5 Ni18 2.307323 1_554
Ge5 Ni15 2.373813 1_554
Ge5 Ni14 2.373813 1_555
Ge5 Ni1 2.530402 1_555
Ge5 Ni4 2.530402 1_554
Ge5 Ni0 2.530446 1_555
Ge5 Ni3 2.530446 1_554
Ge5 Sc4 3.082612 1_555
Ge5 Sc1 3.082612 1_554
Ge5 Sc3 3.082839 1_555
Ge5 Sc0 3.082839 1_554
Ge6 Ni6 2.412087 1_455
Ge6 Ni11 2.412087 1_555
Ge6 Ni8 2.412087 1_445
Ge6 Ni9 2.412087 1_545
Ge6 Ni10 2.412180 1_455
Ge6 Ni7 2.412180 1_545
Ge7 Ni3 2.412087 1_454
Ge7 Ni2 2.412087 1_555
Ge7 Ni5 2.412087 1_444
Ge7 Ni0 2.412087 1_545
Ge7 Ni1 2.412180 1_455
Ge7 Ni4 2.412180 1_544
