# generated using pymatgen
data_K3AlBr6
_symmetry_space_group_name_H-M   'P 1'
_cell_length_a   7.96525525
_cell_length_b   7.96525525
_cell_length_c   7.96525525
_cell_angle_alpha   60.00000000
_cell_angle_beta   60.00000000
_cell_angle_gamma   60.00000000
_symmetry_Int_Tables_number   1
_chemical_formula_structural   K3AlBr6
_chemical_formula_sum   'K3 Al1 Br6'
_cell_volume   357.34202523
_cell_formula_units_Z   1
loop_
 _symmetry_equiv_pos_site_id
 _symmetry_equiv_pos_as_xyz
  1  'x, y, z'
loop_
 _atom_site_type_symbol
 _atom_site_label
 _atom_site_symmetry_multiplicity
 _atom_site_fract_x
 _atom_site_fract_y
 _atom_site_fract_z
 _atom_site_occupancy
  K  K0  1  0.75000000  0.75000000  0.75000000  1
  K  K1  1  0.25000000  0.25000000  0.25000000  1
  K  K2  1  0.50000000  0.50000000  0.50000000  1
  Al  Al0  1  0.00000000  0.00000000  0.00000000  1
  Br  Br0  1  0.77627800  0.22372200  0.22372200  1
  Br  Br1  1  0.22372200  0.22372200  0.77627800  1
  Br  Br2  1  0.22372200  0.77627800  0.77627800  1
  Br  Br3  1  0.22372200  0.77627800  0.22372200  1
  Br  Br4  1  0.77627800  0.22372200  0.77627800  1
  Br  Br5  1  0.77627800  0.77627800  0.22372200  1
loop_
_geom_bond_atom_site_label_1
_geom_bond_atom_site_label_2
_geom_bond_distance
_geom_bond_site_symmetry_2
Al0 Br5 2.520133 1_445
Al0 Br4 2.520133 1_454
Al0 Br2 2.520133 1_544
Al0 Br1 2.520133 1_554
Al0 Br0 2.520133 1_455
Al0 Br3 2.520133 1_545
Br0 K2 3.112153 1_555
Br0 K1 3.993613 1_555
Br0 K0 3.993613 1_545
Br0 K1 3.993613 1_655
Br0 K0 3.993613 1_554
Br1 K2 3.112153 1_555
Br1 K0 3.993613 1_455
Br1 K1 3.993613 1_555
Br1 K0 3.993613 1_545
Br1 K1 3.993613 1_556
Br2 K2 3.112153 1_555
Br2 K0 3.993613 1_455
Br2 K0 3.993613 1_555
Br2 K1 3.993613 1_556
Br2 K1 3.993613 1_565
Br3 K2 3.112153 1_555
Br3 K0 3.993613 1_455
Br3 K1 3.993613 1_555
Br3 K0 3.993613 1_554
Br3 K1 3.993613 1_565
Br4 K2 3.112153 1_555
Br4 K0 3.993613 1_555
Br4 K0 3.993613 1_545
Br4 K1 3.993613 1_655
Br4 K1 3.993613 1_556
Br5 K2 3.112153 1_555
Br5 K0 3.993613 1_555
Br5 K1 3.993613 1_655
Br5 K0 3.993613 1_554
Br5 K1 3.993613 1_565
