# generated using pymatgen
data_TeP6H34(N3O13)2
_symmetry_space_group_name_H-M   'P 1'
_cell_length_a   7.65534200
_cell_length_b   10.02396826
_cell_length_c   11.11458592
_cell_angle_alpha   101.61797955
_cell_angle_beta   109.37880448
_cell_angle_gamma   106.22684639
_symmetry_Int_Tables_number   1
_chemical_formula_structural   TeP6H34(N3O13)2
_chemical_formula_sum   'Te1 P6 H34 N6 O26'
_cell_volume   730.66695480
_cell_formula_units_Z   1
loop_
 _symmetry_equiv_pos_site_id
 _symmetry_equiv_pos_as_xyz
  1  'x, y, z'
loop_
 _atom_site_type_symbol
 _atom_site_label
 _atom_site_symmetry_multiplicity
 _atom_site_fract_x
 _atom_site_fract_y
 _atom_site_fract_z
 _atom_site_occupancy
  Te  Te0  1  0.00000000  0.00000000  0.00000000  1
  P  P0  1  0.77856400  0.33134200  0.24546600  1
  P  P1  1  0.22143600  0.66865800  0.75453400  1
  P  P2  1  0.10072600  0.34889700  0.72140700  1
  P  P3  1  0.89927400  0.65110300  0.27859300  1
  P  P4  1  0.72503300  0.24764200  0.47100100  1
  P  P5  1  0.27496700  0.75235800  0.52899900  1
  H  H0  1  0.33228600  0.09678700  0.86203700  1
  H  H1  1  0.66771400  0.90321300  0.13796300  1
  H  H2  1  0.68722400  0.83638300  0.58310500  1
  H  H3  1  0.31277600  0.16361700  0.41689500  1
  H  H4  1  0.92653500  0.95496000  0.67836700  1
  H  H5  1  0.07346500  0.04504000  0.32163300  1
  H  H6  1  0.15016000  0.61837400  0.11069500  1
  H  H7  1  0.84984000  0.38162600  0.88930500  1
  H  H8  1  0.52205200  0.21832300  0.84553900  1
  H  H9  1  0.47794800  0.78167700  0.15446100  1
  H  H10  1  0.65420300  0.82443400  0.84805600  1
  H  H11  1  0.34579700  0.17556600  0.15194400  1
  H  H12  1  0.79299100  0.58555700  0.72303700  1
  H  H13  1  0.20700900  0.41444300  0.27696300  1
  H  H14  1  0.91257200  0.82083200  0.12115900  1
  H  H15  1  0.08742800  0.17916800  0.87884100  1
  H  H16  1  0.20593700  0.52018100  0.01052800  1
  H  H17  1  0.79406300  0.47981900  0.98947200  1
  H  H18  1  0.40479900  0.56329800  0.39638200  1
  H  H19  1  0.59520100  0.43670200  0.60361800  1
  H  H20  1  0.55837400  0.07894700  0.89482300  1
  H  H21  1  0.44162600  0.92105300  0.10517700  1
  H  H22  1  0.60112300  0.95798700  0.26567400  1
  H  H23  1  0.39887700  0.04201300  0.73432600  1
  H  H24  1  0.62307800  0.48821700  0.76561300  1
  H  H25  1  0.37692200  0.51178300  0.23438700  1
  H  H26  1  0.56142000  0.59297700  0.66490100  1
  H  H27  1  0.43858000  0.40702300  0.33509900  1
  H  H28  1  0.78020400  0.98738900  0.54303800  1
  H  H29  1  0.21979600  0.01261100  0.45696200  1
  H  H30  1  0.85552800  0.84773300  0.51343700  1
  H  H31  1  0.14447200  0.15226700  0.48656300  1
  H  H32  1  0.88511500  0.19932200  0.07349100  1
  H  H33  1  0.11488500  0.80067800  0.92650900  1
  N  N0  1  0.45109200  0.10874900  0.83364100  1
  N  N1  1  0.54890800  0.89125100  0.16635900  1
  N  N2  1  0.81538900  0.90674500  0.58139400  1
  N  N3  1  0.18461100  0.09325500  0.41860600  1
  N  N4  1  0.63969700  0.52628300  0.68853500  1
  N  N5  1  0.36030300  0.47371700  0.31146500  1
  O  O0  1  0.10042800  0.35599600  0.85848900  1
  O  O1  1  0.89957200  0.64400400  0.14151100  1
  O  O2  1  0.94507700  0.33472200  0.20140500  1
  O  O3  1  0.05492300  0.66527800  0.79859500  1
  O  O4  1  0.31452700  0.91367800  0.56485200  1
  O  O5  1  0.68547300  0.08632200  0.43514800  1
  O  O6  1  0.42587800  0.78261400  0.83960100  1
  O  O7  1  0.57412200  0.21738600  0.16039900  1
  O  O8  1  0.85873600  0.32238600  0.39796000  1
  O  O9  1  0.14126400  0.67761400  0.60204000  1
  O  O10  1  0.44812400  0.70187200  0.54789400  1
  O  O11  1  0.55187600  0.29812800  0.45210600  1
  O  O12  1  0.23831600  0.50816200  0.72631600  1
  O  O13  1  0.76168400  0.49183800  0.27368400  1
  O  O14  1  0.21172400  0.15894800  0.15555900  1
  O  O15  1  0.78827600  0.84105200  0.84444100  1
  O  O16  1  0.16246700  0.23765700  0.65323700  1
  O  O17  1  0.83753300  0.76234300  0.34676300  1
  O  O18  1  0.12393100  0.66701300  0.37266400  1
  O  O19  1  0.87606900  0.33298700  0.62733600  1
  O  O20  1  0.90569600  0.92014400  0.12697700  1
  O  O21  1  0.09430400  0.07985600  0.87302300  1
  O  O22  1  0.17168300  0.88918900  0.01086700  1
  O  O23  1  0.82831700  0.11081100  0.98913300  1
  O  O24  1  0.26275100  0.59663600  0.09980500  1
  O  O25  1  0.73724900  0.40336400  0.90019500  1
loop_
_geom_bond_atom_site_label_1
_geom_bond_atom_site_label_2
_geom_bond_distance
_geom_bond_site_symmetry_2
H0 N0 1.042096 1_555
H1 N1 1.042096 1_555
H2 N2 1.044749 1_555
H3 N3 1.044749 1_555
H4 N2 1.034895 1_555
H5 N3 1.034895 1_555
H6 O24 0.984184 1_555
H7 O25 0.984184 1_555
H8 N0 1.038918 1_555
H9 N1 1.038918 1_555
H10 O15 1.008622 1_555
H10 O6 1.644797 1_555
H11 O14 1.008622 1_555
H11 O7 1.644797 1_555
H12 N4 1.047439 1_555
H13 N5 1.047439 1_555
H14 O20 1.001794 1_555
H15 O21 1.001794 1_555
H16 O24 0.991029 1_555
H17 O25 0.991029 1_555
H18 N5 1.042832 1_555
H19 N4 1.042832 1_555
H20 N0 1.036570 1_555
H21 N1 1.036570 1_555
H22 N1 1.042154 1_555
H23 N0 1.042154 1_555
H24 N4 1.035645 1_555
H25 N5 1.035645 1_555
H26 N4 1.032084 1_555
H27 N5 1.032084 1_555
H28 N2 1.045011 1_555
H29 N3 1.045011 1_555
H30 N2 1.044262 1_555
H31 N3 1.044262 1_555
H32 O23 1.016926 1_554
H32 O2 1.586070 1_555
H33 O22 1.016926 1_556
H33 O3 1.586070 1_555
O0 P2 1.511683 1_555
O1 P3 1.511683 1_555
O2 P0 1.504222 1_555
O3 P1 1.504222 1_555
O4 P5 1.500697 1_555
O5 P4 1.500697 1_555
O6 P1 1.494012 1_555
O7 P0 1.494012 1_555
O8 P4 1.623533 1_555
O8 P0 1.630707 1_555
O9 P5 1.623533 1_555
O9 P1 1.630707 1_555
O10 P5 1.513388 1_555
O11 P4 1.513388 1_555
O12 P1 1.625786 1_555
O12 P2 1.627301 1_555
O13 P0 1.625786 1_555
O13 P3 1.627301 1_555
O14 Te0 1.934543 1_555
O15 Te0 1.934543 1_666
O16 P2 1.494245 1_555
O17 P3 1.494245 1_555
O18 P5 1.613440 1_555
O18 P3 1.631767 1_455
O19 P4 1.613440 1_555
O19 P2 1.631767 1_655
O20 Te0 1.990447 1_665
O21 Te0 1.990447 1_556
O22 Te0 1.933996 1_565
O23 Te0 1.933996 1_656
