# generated using pymatgen
data_ZrCu3
_symmetry_space_group_name_H-M   'P 1'
_cell_length_a   5.65586768
_cell_length_b   5.65586768
_cell_length_c   4.24363400
_cell_angle_alpha   90.00000000
_cell_angle_beta   90.00000000
_cell_angle_gamma   119.99999627
_symmetry_Int_Tables_number   1
_chemical_formula_structural   ZrCu3
_chemical_formula_sum   'Zr2 Cu6'
_cell_volume   117.56202266
_cell_formula_units_Z   2
loop_
 _symmetry_equiv_pos_site_id
 _symmetry_equiv_pos_as_xyz
  1  'x, y, z'
loop_
 _atom_site_type_symbol
 _atom_site_label
 _atom_site_symmetry_multiplicity
 _atom_site_fract_x
 _atom_site_fract_y
 _atom_site_fract_z
 _atom_site_occupancy
  Zr  Zr0  1  0.33333300  0.66666700  0.75000000  1
  Zr  Zr1  1  0.66666700  0.33333300  0.25000000  1
  Cu  Cu0  1  0.15126800  0.30253600  0.25000000  1
  Cu  Cu1  1  0.69746400  0.84873200  0.25000000  1
  Cu  Cu2  1  0.15126800  0.84873200  0.25000000  1
  Cu  Cu3  1  0.84873200  0.69746400  0.75000000  1
  Cu  Cu4  1  0.30253600  0.15126800  0.75000000  1
  Cu  Cu5  1  0.84873200  0.15126800  0.75000000  1
loop_
_geom_bond_atom_site_label_1
_geom_bond_atom_site_label_2
_geom_bond_distance
_geom_bond_site_symmetry_2
Cu0 Cu2 2.566655 1_545
Cu0 Cu1 2.566656 1_445
Cu0 Cu4 2.588052 1_555
Cu0 Cu4 2.588052 1_554
Cu0 Cu5 2.588052 1_454
Cu0 Cu5 2.588052 1_455
Cu0 Zr0 2.771857 1_554
Cu0 Zr0 2.771857 1_555
Cu0 Zr1 2.831951 1_455
Cu0 Zr1 2.831957 1_555
Cu0 Cu2 3.089212 1_555
Cu0 Cu1 3.089212 1_555
Cu1 Cu2 2.566655 1_655
Cu1 Cu3 2.588052 1_554
Cu1 Cu3 2.588052 1_555
Cu1 Cu5 2.588052 1_564
Cu1 Cu5 2.588052 1_565
Cu1 Zr0 2.771857 1_555
Cu1 Zr0 2.771857 1_554
Cu1 Zr1 2.831951 1_565
Cu1 Zr1 2.831957 1_555
Cu1 Cu2 3.089212 1_555
Cu2 Cu4 2.588052 1_565
Cu2 Cu4 2.588052 1_564
Cu2 Cu3 2.588052 1_454
Cu2 Cu3 2.588052 1_455
Cu2 Zr0 2.771854 1_555
Cu2 Zr0 2.771854 1_554
Cu2 Zr1 2.831955 1_455
Cu2 Zr1 2.831955 1_565
Cu3 Cu5 2.566655 1_565
Cu3 Cu4 2.566656 1_665
Cu3 Zr1 2.771857 1_556
Cu3 Zr1 2.771857 1_555
Cu3 Zr0 2.831951 1_655
Cu3 Zr0 2.831957 1_555
Cu3 Cu5 3.089212 1_555
Cu3 Cu4 3.089212 1_555
Cu4 Cu5 2.566655 1_455
Cu4 Zr1 2.771857 1_556
Cu4 Zr1 2.771857 1_555
Cu4 Zr0 2.831951 1_545
Cu4 Zr0 2.831957 1_555
Cu4 Cu5 3.089212 1_555
Cu5 Zr1 2.771854 1_555
Cu5 Zr1 2.771854 1_556
Cu5 Zr0 2.831955 1_655
Cu5 Zr0 2.831955 1_545
