# generated using pymatgen
data_NaZnPH2(CO3)2
_symmetry_space_group_name_H-M   'P 1'
_cell_length_a   9.80476700
_cell_length_b   10.28092100
_cell_length_c   11.00601500
_cell_angle_alpha   90.00000000
_cell_angle_beta   90.00000000
_cell_angle_gamma   90.00000000
_symmetry_Int_Tables_number   1
_chemical_formula_structural   NaZnPH2(CO3)2
_chemical_formula_sum   'Na8 Zn8 P8 H16 C16 O48'
_cell_volume   1109.42870869
_cell_formula_units_Z   8
loop_
 _symmetry_equiv_pos_site_id
 _symmetry_equiv_pos_as_xyz
  1  'x, y, z'
loop_
 _atom_site_type_symbol
 _atom_site_label
 _atom_site_symmetry_multiplicity
 _atom_site_fract_x
 _atom_site_fract_y
 _atom_site_fract_z
 _atom_site_occupancy
  Na  Na0  1  0.08326800  0.12322400  0.92554300  1
  Na  Na1  1  0.41673200  0.62322400  0.07445700  1
  Na  Na2  1  0.58326800  0.87677600  0.57445700  1
  Na  Na3  1  0.91673200  0.37677600  0.42554300  1
  Na  Na4  1  0.91673200  0.87677600  0.07445700  1
  Na  Na5  1  0.58326800  0.37677600  0.92554300  1
  Na  Na6  1  0.41673200  0.12322400  0.42554300  1
  Na  Na7  1  0.08326800  0.62322400  0.57445700  1
  Zn  Zn0  1  0.91656700  0.32218400  0.10544800  1
  Zn  Zn1  1  0.58343300  0.82218400  0.89455200  1
  Zn  Zn2  1  0.41656700  0.67781600  0.39455200  1
  Zn  Zn3  1  0.08343300  0.17781600  0.60544800  1
  Zn  Zn4  1  0.08343300  0.67781600  0.89455200  1
  Zn  Zn5  1  0.41656700  0.17781600  0.10544800  1
  Zn  Zn6  1  0.58343300  0.32218400  0.60544800  1
  Zn  Zn7  1  0.91656700  0.82218400  0.39455200  1
  P  P0  1  0.21773200  0.40368100  0.96110700  1
  P  P1  1  0.28226800  0.90368100  0.03889300  1
  P  P2  1  0.71773200  0.59631900  0.53889300  1
  P  P3  1  0.78226800  0.09631900  0.46110700  1
  P  P4  1  0.78226800  0.59631900  0.03889300  1
  P  P5  1  0.71773200  0.09631900  0.96110700  1
  P  P6  1  0.28226800  0.40368100  0.46110700  1
  P  P7  1  0.21773200  0.90368100  0.53889300  1
  H  H0  1  0.31749300  0.21682900  0.75390600  1
  H  H1  1  0.18250700  0.71682900  0.24609400  1
  H  H2  1  0.81749300  0.78317100  0.74609400  1
  H  H3  1  0.68250700  0.28317100  0.25390600  1
  H  H4  1  0.68250700  0.78317100  0.24609400  1
  H  H5  1  0.81749300  0.28317100  0.75390600  1
  H  H6  1  0.18250700  0.21682900  0.25390600  1
  H  H7  1  0.31749300  0.71682900  0.74609400  1
  H  H8  1  0.27325500  0.43270700  0.74578400  1
  H  H9  1  0.22674500  0.93270700  0.25421600  1
  H  H10  1  0.77325500  0.56729300  0.75421600  1
  H  H11  1  0.72674500  0.06729300  0.24578400  1
  H  H12  1  0.72674500  0.56729300  0.25421600  1
  H  H13  1  0.77325500  0.06729300  0.74578400  1
  H  H14  1  0.22674500  0.43270700  0.24578400  1
  H  H15  1  0.27325500  0.93270700  0.75421600  1
  C  C0  1  0.94578900  0.59119500  0.24098500  1
  C  C1  1  0.55421100  0.09119500  0.75901500  1
  C  C2  1  0.44578800  0.40880500  0.25901500  1
  C  C3  1  0.05421100  0.90880500  0.74098500  1
  C  C4  1  0.05421100  0.40880500  0.75901500  1
  C  C5  1  0.44578800  0.90880500  0.24098500  1
  C  C6  1  0.55421100  0.59119500  0.74098500  1
  C  C7  1  0.94578900  0.09119500  0.25901500  1
  C  C8  1  0.19900100  0.37194100  0.79470700  1
  C  C9  1  0.30099900  0.87194100  0.20529300  1
  C  C10  1  0.69900100  0.62805900  0.70529300  1
  C  C11  1  0.80099900  0.12805900  0.29470700  1
  C  C12  1  0.80099900  0.62805900  0.20529300  1
  C  C13  1  0.69900100  0.12805900  0.79470700  1
  C  C14  1  0.30099900  0.37194100  0.29470700  1
  C  C15  1  0.19900100  0.87194100  0.70529300  1
  O  O0  1  0.35758800  0.35136700  0.00298000  1
  O  O1  1  0.14241200  0.85136700  0.99702000  1
  O  O2  1  0.85758800  0.64863300  0.49702000  1
  O  O3  1  0.64241200  0.14863300  0.50298000  1
  O  O4  1  0.64241200  0.64863300  0.99702000  1
  O  O5  1  0.85758800  0.14863300  0.00298000  1
  O  O6  1  0.14241200  0.35136700  0.50298000  1
  O  O7  1  0.35758800  0.85136700  0.49702000  1
  O  O8  1  0.21357400  0.55279900  0.97718100  1
  O  O9  1  0.28642600  0.05279900  0.02281900  1
  O  O10  1  0.71357400  0.44720100  0.52281900  1
  O  O11  1  0.78642600  0.94720100  0.47718100  1
  O  O12  1  0.78642600  0.44720100  0.02281900  1
  O  O13  1  0.71357400  0.94720100  0.97718100  1
  O  O14  1  0.28642600  0.55279900  0.47718100  1
  O  O15  1  0.21357400  0.05279900  0.52281900  1
  O  O16  1  0.09799400  0.32901100  0.01668300  1
  O  O17  1  0.40200600  0.82901100  0.98331700  1
  O  O18  1  0.59799400  0.67098900  0.48331700  1
  O  O19  1  0.90200600  0.17098900  0.51668300  1
  O  O20  1  0.90200600  0.67098900  0.98331700  1
  O  O21  1  0.59799400  0.17098900  0.01668300  1
  O  O22  1  0.40200600  0.32901100  0.51668300  1
  O  O23  1  0.09799400  0.82901100  0.48331700  1
  O  O24  1  0.21817300  0.23657500  0.76681900  1
  O  O25  1  0.28182700  0.73657500  0.23318100  1
  O  O26  1  0.71817300  0.76342500  0.73318100  1
  O  O27  1  0.78182700  0.26342500  0.26681900  1
  O  O28  1  0.78182700  0.76342500  0.23318100  1
  O  O29  1  0.71817300  0.26342500  0.76681900  1
  O  O30  1  0.28182700  0.23657500  0.26681900  1
  O  O31  1  0.21817300  0.73657500  0.73318100  1
  O  O32  1  0.98334300  0.47360400  0.23257200  1
  O  O33  1  0.51665700  0.97360400  0.76742800  1
  O  O34  1  0.48334300  0.52639600  0.26742800  1
  O  O35  1  0.01665700  0.02639600  0.73257200  1
  O  O36  1  0.01665700  0.52639600  0.76742800  1
  O  O37  1  0.48334300  0.02639600  0.23257200  1
  O  O38  1  0.51665700  0.47360400  0.73257200  1
  O  O39  1  0.98334300  0.97360400  0.26742800  1
  O  O40  1  0.02281800  0.18310800  0.22168400  1
  O  O41  1  0.47718200  0.68310800  0.77831600  1
  O  O42  1  0.52281800  0.81689200  0.27831600  1
  O  O43  1  0.97718200  0.31689200  0.72168400  1
  O  O44  1  0.97718200  0.81689200  0.77831600  1
  O  O45  1  0.52281800  0.31689200  0.22168400  1
  O  O46  1  0.47718200  0.18310800  0.72168400  1
  O  O47  1  0.02281800  0.68310800  0.27831600  1
loop_
_geom_bond_atom_site_label_1
_geom_bond_atom_site_label_2
_geom_bond_distance
_geom_bond_site_symmetry_2
Na0 O16 2.345876 1_556
Na0 O9 2.374487 1_556
Na0 O5 2.385545 1_456
Na0 O35 2.434796 1_555
Na0 O24 2.481802 1_555
Na1 O17 2.345876 1_554
Na1 O8 2.374487 1_554
Na1 O4 2.385545 1_554
Na1 O34 2.434796 1_555
Na1 O25 2.481802 1_555
Na2 O18 2.345876 1_555
Na2 O11 2.374487 1_555
Na2 O7 2.385545 1_555
Na2 O33 2.434796 1_555
Na2 O26 2.481802 1_555
Na3 O19 2.345876 1_555
Na3 O10 2.374487 1_555
Na3 O6 2.385545 1_655
Na3 O32 2.434796 1_555
Na3 O27 2.481802 1_555
Na4 O20 2.345876 1_554
Na4 O13 2.374487 1_554
Na4 O1 2.385545 1_654
Na4 O39 2.434796 1_555
Na4 O28 2.481802 1_555
Na5 O21 2.345876 1_556
Na5 O12 2.374487 1_556
Na5 O0 2.385545 1_556
Na5 O38 2.434796 1_555
Na5 O29 2.481802 1_555
Na6 O22 2.345876 1_555
Na6 O15 2.374487 1_555
Na6 O3 2.385545 1_555
Na6 O37 2.434796 1_555
Na6 O30 2.481802 1_555
Na7 O23 2.345876 1_555
Na7 O14 2.374487 1_555
Na7 O2 2.385545 1_455
Na7 O36 2.434796 1_555
Na7 O31 2.481802 1_555
H0 O24 1.004846 1_555
H0 O46 1.642381 1_555
H1 O25 1.004846 1_555
H1 O47 1.642381 1_555
H2 O26 1.004846 1_555
H2 O44 1.642381 1_555
H3 O27 1.004846 1_555
H3 O45 1.642381 1_555
H4 O28 1.004846 1_555
H4 O42 1.642381 1_555
H5 O29 1.004846 1_555
H5 O43 1.642381 1_555
H6 O30 1.004846 1_555
H6 O40 1.642381 1_555
H7 O31 1.004846 1_555
H7 O41 1.642381 1_555
C0 O32 1.267161 1_555
C0 O47 1.277555 1_655
C0 C12 1.520956 1_555
C1 O33 1.267161 1_545
C1 O46 1.277555 1_555
C1 C13 1.520956 1_555
C2 O34 1.267163 1_555
C2 O45 1.277561 1_555
C3 O35 1.267161 1_565
C3 O44 1.277555 1_455
C4 O36 1.267161 1_555
C4 O43 1.277555 1_455
C4 C8 1.520956 1_555
C5 O37 1.267163 1_565
C5 O42 1.277561 1_555
C5 C9 1.520947 1_555
C6 O38 1.267161 1_555
C6 O41 1.277555 1_555
C7 O39 1.267161 1_545
C7 O40 1.277555 1_655
C8 H8 1.100118 1_555
C8 O24 1.437476 1_555
C8 P0 1.869289 1_555
C9 H9 1.100118 1_555
C9 O25 1.437476 1_555
C9 P1 1.869289 1_555
C10 H10 1.100118 1_555
C10 O26 1.437476 1_555
C10 C6 1.520956 1_555
C10 P2 1.869289 1_555
C11 H11 1.100118 1_555
C11 O27 1.437476 1_555
C11 C7 1.520956 1_555
C11 P3 1.869289 1_555
C12 H12 1.100118 1_555
C12 O28 1.437476 1_555
C12 P4 1.869289 1_555
C13 H13 1.100118 1_555
C13 O29 1.437476 1_555
C13 P5 1.869289 1_555
C14 H14 1.100118 1_555
C14 O30 1.437476 1_555
C14 C2 1.520947 1_555
C14 P6 1.869289 1_555
C15 H15 1.100118 1_555
C15 O31 1.437476 1_555
C15 C3 1.520956 1_555
C15 P7 1.869289 1_555
O0 P0 1.543372 1_554
O0 Zn5 2.188573 1_555
O1 P1 1.543372 1_556
O1 Zn4 2.188573 1_555
O2 P2 1.543372 1_555
O2 Zn7 2.188573 1_555
O3 P3 1.543372 1_555
O3 Zn6 2.188573 1_555
O4 P4 1.543372 1_556
O4 Zn1 2.188573 1_555
O5 P5 1.543372 1_554
O5 Zn0 2.188573 1_555
O6 P6 1.543372 1_555
O6 Zn3 2.188573 1_555
O7 P7 1.543372 1_555
O7 Zn2 2.188573 1_555
O8 P0 1.543782 1_555
O8 Zn4 2.026620 1_555
O9 P1 1.543782 1_545
O9 Zn5 2.026620 1_555
O10 P2 1.543782 1_555
O10 Zn6 2.026620 1_555
O11 P3 1.543782 1_565
O11 Zn7 2.026620 1_555
O12 P4 1.543782 1_555
O12 Zn0 2.026620 1_555
O13 P5 1.543782 1_565
O13 Zn1 2.026620 1_555
O14 P6 1.543782 1_555
O14 Zn2 2.026620 1_555
O15 P7 1.543782 1_545
O15 Zn3 2.026620 1_555
O16 P0 1.530278 1_554
O16 Zn0 2.030680 1_455
O17 P1 1.530278 1_556
O17 Zn1 2.030680 1_555
O18 P2 1.530278 1_555
O18 Zn2 2.030680 1_555
O19 P3 1.530278 1_555
O19 Zn3 2.030680 1_655
O20 P4 1.530278 1_556
O20 Zn4 2.030680 1_655
O21 P5 1.530278 1_554
O21 Zn5 2.030680 1_555
O22 P6 1.530278 1_555
O22 Zn6 2.030680 1_555
O23 P7 1.530278 1_555
O23 Zn7 2.030680 1_455
O24 Zn3 2.294468 1_555
O25 Zn2 2.294468 1_555
O26 Zn1 2.294468 1_555
O27 Zn0 2.294468 1_555
O28 Zn7 2.294468 1_555
O29 Zn6 2.294468 1_555
O30 Zn5 2.294468 1_555
O31 Zn4 2.294468 1_555
O32 Zn0 2.193092 1_555
O33 Zn1 2.193092 1_555
O34 Zn2 2.193092 1_555
O35 Zn3 2.193092 1_555
O36 Zn4 2.193092 1_555
O37 Zn5 2.193092 1_555
O38 Zn6 2.193092 1_555
O39 Zn7 2.193092 1_555
O40 Zn0 2.183182 1_455
O41 Zn1 2.183182 1_555
O42 Zn2 2.183182 1_555
O43 Zn3 2.183182 1_655
O44 Zn4 2.183182 1_655
O45 Zn5 2.183182 1_555
O46 Zn6 2.183182 1_555
O47 Zn7 2.183182 1_455
