# generated using pymatgen
data_Dy2CdPd2
_symmetry_space_group_name_H-M   'P 1'
_cell_length_a   3.68459968
_cell_length_b   7.67864117
_cell_length_c   7.67864117
_cell_angle_alpha   90.00000000
_cell_angle_beta   90.00000000
_cell_angle_gamma   90.00000000
_symmetry_Int_Tables_number   1
_chemical_formula_structural   Dy2CdPd2
_chemical_formula_sum   'Dy4 Cd2 Pd4'
_cell_volume   217.24963537
_cell_formula_units_Z   2
loop_
 _symmetry_equiv_pos_site_id
 _symmetry_equiv_pos_as_xyz
  1  'x, y, z'
loop_
 _atom_site_type_symbol
 _atom_site_label
 _atom_site_symmetry_multiplicity
 _atom_site_fract_x
 _atom_site_fract_y
 _atom_site_fract_z
 _atom_site_occupancy
  Dy  Dy0  1  0.50000000  0.82774360  0.32774360  1
  Dy  Dy1  1  0.50000000  0.67225640  0.82774360  1
  Dy  Dy2  1  0.50000000  0.32774360  0.17225640  1
  Dy  Dy3  1  0.50000000  0.17225640  0.67225640  1
  Cd  Cd0  1  -0.00000000  -0.00000000  -0.00000000  1
  Cd  Cd1  1  -0.00000000  0.50000000  0.50000000  1
  Pd  Pd0  1  0.00000000  0.12861938  0.37138062  1
  Pd  Pd1  1  0.00000000  0.37138062  0.87138062  1
  Pd  Pd2  1  -0.00000000  0.62861938  0.12861938  1
  Pd  Pd3  1  -0.00000000  0.87138062  0.62861938  1
loop_
_geom_bond_atom_site_label_1
_geom_bond_atom_site_label_2
_geom_bond_distance
_geom_bond_site_symmetry_2
Dy0 Pd2 2.840734 1_555
Dy0 Pd2 2.840734 1_655
Dy0 Pd3 2.973871 1_555
Dy0 Pd0 2.973871 1_565
Dy0 Pd3 2.973871 1_655
Dy0 Pd0 2.973871 1_665
Dy1 Pd3 2.840734 1_655
Dy1 Pd3 2.840734 1_555
Dy1 Pd2 2.973871 1_556
Dy1 Pd1 2.973871 1_655
Dy1 Pd2 2.973871 1_656
Dy1 Pd1 2.973871 1_555
Dy2 Pd0 2.840734 1_555
Dy2 Pd0 2.840734 1_655
Dy2 Pd2 2.973871 1_555
Dy2 Pd2 2.973871 1_655
Dy2 Pd1 2.973871 1_654
Dy2 Pd1 2.973871 1_554
Dy3 Pd1 2.840734 1_555
Dy3 Pd1 2.840734 1_655
Dy3 Pd3 2.973871 1_645
Dy3 Pd0 2.973871 1_555
Dy3 Pd0 2.973871 1_655
Dy3 Pd3 2.973871 1_545
Cd0 Pd3 3.017877 1_544
Cd0 Pd2 3.017877 1_545
Cd0 Pd1 3.017877 1_554
Cd0 Pd0 3.017877 1_555
Cd0 Dy3 3.387771 1_554
Cd0 Dy2 3.387771 1_455
Cd0 Dy1 3.387771 1_444
Cd0 Dy1 3.387771 1_544
Cd0 Dy3 3.387771 1_454
Cd0 Dy2 3.387771 1_555
Cd0 Dy0 3.387771 1_445
Cd0 Dy0 3.387771 1_545
Cd1 Pd2 3.017877 1_555
Cd1 Pd3 3.017877 1_555
Cd1 Pd0 3.017877 1_555
Cd1 Pd1 3.017877 1_555
Cd1 Dy3 3.387771 1_455
Cd1 Dy1 3.387771 1_455
Cd1 Dy2 3.387771 1_455
Cd1 Dy1 3.387771 1_555
Cd1 Dy0 3.387771 1_455
Cd1 Dy2 3.387771 1_555
Cd1 Dy3 3.387771 1_555
Cd1 Dy0 3.387771 1_555
Pd0 Pd3 2.793417 1_545
Pd1 Pd2 2.793417 1_556
