# generated using pymatgen
data_BaCd(ClO)4
_symmetry_space_group_name_H-M   'P 1'
_cell_length_a   7.17162400
_cell_length_b   8.76112117
_cell_length_c   8.80672390
_cell_angle_alpha   104.02975832
_cell_angle_beta   102.80289921
_cell_angle_gamma   100.71976937
_symmetry_Int_Tables_number   1
_chemical_formula_structural   BaCd(ClO)4
_chemical_formula_sum   'Ba2 Cd2 Cl8 O8'
_cell_volume   506.40113065
_cell_formula_units_Z   2
loop_
 _symmetry_equiv_pos_site_id
 _symmetry_equiv_pos_as_xyz
  1  'x, y, z'
loop_
 _atom_site_type_symbol
 _atom_site_label
 _atom_site_symmetry_multiplicity
 _atom_site_fract_x
 _atom_site_fract_y
 _atom_site_fract_z
 _atom_site_occupancy
  Ba  Ba0  1  0.75905100  0.23929000  0.23879200  1
  Ba  Ba1  1  0.24094900  0.76071000  0.76120800  1
  Cd  Cd0  1  0.25485400  0.42788400  0.07666000  1
  Cd  Cd1  1  0.74514600  0.57211600  0.92334000  1
  Cl  Cl0  1  0.85919200  0.30013300  0.93558500  1
  Cl  Cl1  1  0.14080800  0.69986700  0.06441500  1
  Cl  Cl2  1  0.64964500  0.55284100  0.19848300  1
  Cl  Cl3  1  0.35035500  0.44715900  0.80151700  1
  Cl  Cl4  1  0.18484400  0.44778900  0.36246700  1
  Cl  Cl5  1  0.81515600  0.55221100  0.63753300  1
  Cl  Cl6  1  0.31805400  0.13097300  0.03573600  1
  Cl  Cl7  1  0.68194600  0.86902700  0.96426400  1
  O  O0  1  0.92496200  0.13388700  0.58189100  1
  O  O1  1  0.07503800  0.86611300  0.41810900  1
  O  O2  1  0.08492700  0.96234300  0.33740100  1
  O  O3  1  0.91507300  0.03765700  0.66259900  1
  O  O4  1  0.48064900  0.20689400  0.49523900  1
  O  O5  1  0.51935100  0.79310600  0.50476100  1
  O  O6  1  0.53789900  0.85303600  0.39453800  1
  O  O7  1  0.46210100  0.14696400  0.60546200  1
loop_
_geom_bond_atom_site_label_1
_geom_bond_atom_site_label_2
_geom_bond_distance
_geom_bond_site_symmetry_2
Ba0 Cl0 3.054153 1_554
Ba0 Cl4 3.055151 1_655
Ba0 Cl2 3.072324 1_555
Ba0 Cl6 3.107248 1_555
Ba0 O4 3.356490 1_555
Ba0 O0 3.400981 1_555
Ba0 Cl7 3.407581 1_544
Ba0 Cl5 3.782188 1_555
Ba1 Cl1 3.054153 1_556
Ba1 Cl5 3.055151 1_455
Ba1 Cl3 3.072324 1_555
Ba1 Cl7 3.107248 1_555
Ba1 O5 3.356490 1_555
Ba1 O1 3.400981 1_555
Ba1 Cl6 3.407581 1_566
Ba1 Cl4 3.782188 1_555
Cd0 Cl4 2.645326 1_555
Cd0 Cl6 2.675518 1_555
Cd0 Cl1 2.677538 1_555
Cd0 Cl3 2.694429 1_554
Cd0 Cl2 2.701288 1_555
Cd0 Cl0 2.725765 1_454
Cd1 Cl5 2.645326 1_555
Cd1 Cl7 2.675518 1_555
Cd1 Cl0 2.677538 1_555
Cd1 Cl2 2.694429 1_556
Cd1 Cl3 2.701288 1_555
Cd1 Cl1 2.725765 1_656
O0 O3 1.229494 1_555
O1 O2 1.229494 1_555
O4 O7 1.230447 1_555
O5 O6 1.230447 1_555
