# generated using pymatgen
data_Na26Ge14Au41
_symmetry_space_group_name_H-M   'P 1'
_cell_length_a   12.88852291
_cell_length_b   12.88852291
_cell_length_c   12.88852291
_cell_angle_alpha   70.75669303
_cell_angle_beta   70.44523341
_cell_angle_gamma   109.61583425
_symmetry_Int_Tables_number   1
_chemical_formula_structural   Na26Ge14Au41
_chemical_formula_sum   'Na26 Ge14 Au41'
_cell_volume   1648.09513479
_cell_formula_units_Z   1
loop_
 _symmetry_equiv_pos_site_id
 _symmetry_equiv_pos_as_xyz
  1  'x, y, z'
loop_
 _atom_site_type_symbol
 _atom_site_label
 _atom_site_symmetry_multiplicity
 _atom_site_fract_x
 _atom_site_fract_y
 _atom_site_fract_z
 _atom_site_occupancy
  Na  Na0  1  0.00003941  0.61994142  0.99989684  1
  Na  Na1  1  0.38016174  0.38005858  0.61990201  1
  Na  Na2  1  0.61983826  0.99993625  0.00010316  1
  Na  Na3  1  0.99996059  0.00006375  0.38009799  1
  Na  Na4  1  0.99996059  0.38005858  0.00010316  1
  Na  Na5  1  0.61983826  0.61994142  0.38009799  1
  Na  Na6  1  0.38016174  0.00006375  0.99989684  1
  Na  Na7  1  0.00003941  0.99993625  0.61990201  1
  Na  Na8  1  0.50000000  0.19493907  0.30506093  1
  Na  Na9  1  0.50000000  0.80506093  0.69493907  1
  Na  Na10  1  0.69423825  0.50000000  0.80576175  1
  Na  Na11  1  0.30576175  0.50000000  0.19423825  1
  Na  Na12  1  0.80226672  0.30226672  0.50000000  1
  Na  Na13  1  0.19773328  0.69773328  0.50000000  1
  Na  Na14  1  0.88788385  0.57902569  0.30885816  1
  Na  Na15  1  0.11211615  0.42097431  0.69114184  1
  Na  Na16  1  0.88788385  0.19674201  0.69114184  1
  Na  Na17  1  0.11211615  0.80325799  0.30885816  1
  Na  Na18  1  0.68923857  0.11091904  0.19984239  1
  Na  Na19  1  0.31076143  0.88908096  0.80015761  1
  Na  Na20  1  0.31076143  0.11091904  0.57831953  1
  Na  Na21  1  0.68923857  0.88908096  0.42168047  1
  Na  Na22  1  0.42187030  0.31073921  0.88886891  1
  Na  Na23  1  0.57812970  0.68926079  0.11113109  1
  Na  Na24  1  0.80039188  0.68926079  0.88886891  1
  Na  Na25  1  0.19960812  0.31073921  0.11113109  1
  Ge  Ge0  1  0.69204584  0.49294165  0.19910419  1
  Ge  Ge1  1  0.30795416  0.50705835  0.80089581  1
  Ge  Ge2  1  0.69204584  0.89115004  0.80089581  1
  Ge  Ge3  1  0.30795416  0.10884996  0.19910419  1
  Ge  Ge4  1  0.79980699  0.30550815  0.89468486  1
  Ge  Ge5  1  0.20019301  0.69449185  0.10531514  1
  Ge  Ge6  1  0.20019301  0.30550815  0.49429884  1
  Ge  Ge7  1  0.79980699  0.69449185  0.50570116  1
  Ge  Ge8  1  0.50688012  0.19929681  0.69241669  1
  Ge  Ge9  1  0.49311988  0.80070319  0.30758331  1
  Ge  Ge10  1  0.10828649  0.80070319  0.69241669  1
  Ge  Ge11  1  0.89171351  0.19929681  0.30758331  1
  Ge  Ge12  1  0.09008490  0.50000000  0.40991510  1
  Ge  Ge13  1  0.90991510  0.50000000  0.59008490  1
  Au  Au0  1  0.74429314  0.40855654  0.04265456  1
  Au  Au1  1  0.54878890  0.59144346  0.66426340  1
  Au  Au2  1  0.45121110  0.78694771  0.95734544  1
  Au  Au3  1  0.25570686  0.21305229  0.33573660  1
  Au  Au4  1  0.66784957  0.25931258  0.78436029  1
  Au  Au5  1  0.04367287  0.45220986  0.21563971  1
  Au  Au6  1  0.33215043  0.54779014  0.40853699  1
  Au  Au7  1  0.95632713  0.74068742  0.59146301  1
  Au  Au8  1  0.59172792  0.33611380  0.45130454  1
  Au  Au9  1  0.40827208  0.95696754  0.25561412  1
  Au  Au10  1  0.21258166  0.66388620  0.74438588  1
  Au  Au11  1  0.78741834  0.04303246  0.54869546  1
  Au  Au12  1  0.25570686  0.59144346  0.95734544  1
  Au  Au13  1  0.45121110  0.40855654  0.33573660  1
  Au  Au14  1  0.54878890  0.21305229  0.04265456  1
  Au  Au15  1  0.74429314  0.78694771  0.66426340  1
  Au  Au16  1  0.33215043  0.74068742  0.21563971  1
  Au  Au17  1  0.95632713  0.54779014  0.78436029  1
  Au  Au18  1  0.66784957  0.45220986  0.59146301  1
  Au  Au19  1  0.04367287  0.25931258  0.40853699  1
  Au  Au20  1  0.40827208  0.66388620  0.54869546  1
  Au  Au21  1  0.59172792  0.04303246  0.74438588  1
  Au  Au22  1  0.78741834  0.33611380  0.25561412  1
  Au  Au23  1  0.21258166  0.95696754  0.45130454  1
  Au  Au24  1  0.83468237  0.73127474  0.10340763  1
  Au  Au25  1  0.16531763  0.26872526  0.89659237  1
  Au  Au26  1  0.83468237  0.93809000  0.89659237  1
  Au  Au27  1  0.16531763  0.06191000  0.10340763  1
  Au  Au28  1  0.89695798  0.16498218  0.93805985  1
  Au  Au29  1  0.10304202  0.83501782  0.06194015  1
  Au  Au30  1  0.10304202  0.16498218  0.73197580  1
  Au  Au31  1  0.89695798  0.83501782  0.26802420  1
  Au  Au32  1  0.26881738  0.10358778  0.83477040  1
  Au  Au33  1  0.73118262  0.89641222  0.16522960  1
  Au  Au34  1  0.06164182  0.89641222  0.83477040  1
  Au  Au35  1  0.93835818  0.10358778  0.16522960  1
  Au  Au36  1  -0.00000000  -0.00000000  -0.00000000  1
  Au  Au37  1  0.40746639  0.90746639  0.50000000  1
  Au  Au38  1  0.59253361  0.09253361  0.50000000  1
  Au  Au39  1  0.50000000  0.59220463  0.90779537  1
  Au  Au40  1  0.50000000  0.40779537  0.09220463  1
loop_
_geom_bond_atom_site_label_1
_geom_bond_atom_site_label_2
_geom_bond_distance
_geom_bond_site_symmetry_2
Na0 Na4 3.090519 1_456
Na0 Na14 3.532016 1_456
Na1 Na5 3.090519 1_555
Na1 Na15 3.532016 1_555
Na2 Na6 3.090519 1_564
Na3 Na7 3.090519 1_645
Na10 Na24 3.071127 1_555
Na10 Na22 3.071127 1_555
Na11 Na25 3.071127 1_555
Na11 Na23 3.071127 1_555
Na12 Na14 3.123352 1_555
Na12 Na16 3.123352 1_555
Na13 Na15 3.123352 1_555
Na13 Na17 3.123352 1_555
Na14 Na17 3.331153 1_655
Na14 Na5 3.532016 1_555
Na15 Na16 3.331153 1_455
Na15 Na4 3.532016 1_456
Na16 Na7 3.532016 1_645
Na16 Na2 3.532016 1_546
Na17 Na3 3.532016 1_465
Na17 Na6 3.532016 1_564
Na18 Na8 3.080205 1_555
Na19 Na9 3.080205 1_555
Na20 Na8 3.080205 1_555
Na21 Na9 3.080205 1_555
Ge0 Na8 3.261927 1_555
Ge0 Na5 3.327679 1_555
Ge0 Na0 3.327679 1_654
Ge0 Na14 3.338747 1_555
Ge1 Na9 3.261927 1_555
Ge1 Na1 3.327679 1_555
Ge1 Na4 3.327679 1_456
Ge1 Na15 3.338747 1_555
Ge2 Na9 3.261927 1_555
Ge2 Na2 3.327679 1_556
Ge2 Na7 3.327679 1_655
Ge2 Na16 3.338747 1_565
Ge3 Na8 3.261927 1_555
Ge3 Na6 3.327679 1_554
Ge3 Na3 3.327679 1_455
Ge3 Na17 3.338747 1_545
Ge4 Na10 3.299791 1_555
Ge4 Na2 3.311585 1_546
Ge4 Na4 3.311585 1_556
Ge4 Na16 3.410992 1_555
Ge4 Na15 3.410992 1_655
Ge5 Na11 3.299791 1_555
Ge5 Na6 3.311585 1_564
Ge5 Na0 3.311585 1_554
Ge5 Na17 3.410992 1_555
Ge5 Na14 3.410992 1_455
Ge6 Na11 3.299791 1_555
Ge6 Na1 3.311585 1_555
Ge6 Na7 3.311585 1_545
Ge6 Na16 3.410992 1_455
Ge6 Na15 3.410992 1_555
Ge7 Na10 3.299791 1_555
Ge7 Na5 3.311585 1_555
Ge7 Na3 3.311585 1_565
Ge7 Na14 3.410992 1_555
Ge7 Na17 3.410992 1_655
Ge8 Na12 3.243978 1_555
Ge8 Na6 3.333155 1_555
Ge8 Na1 3.333155 1_555
Ge9 Na13 3.243978 1_555
Ge9 Na5 3.333155 1_555
Ge9 Na2 3.333155 1_555
Ge10 Na13 3.243978 1_555
Ge10 Na7 3.333155 1_555
Ge10 Na0 3.333155 1_555
Ge11 Na12 3.243978 1_555
Ge11 Na3 3.333155 1_555
Ge11 Na4 3.333155 1_555
Ge12 Ge13 2.678591 1_455
Ge12 Na11 3.206475 1_555
Ge12 Na13 3.228397 1_555
Ge12 Na12 3.228397 1_455
Ge12 Na14 3.564467 1_455
Ge12 Na17 3.564467 1_555
Ge12 Na15 3.564467 1_555
Ge12 Na16 3.564467 1_455
Ge13 Na10 3.206475 1_555
Ge13 Na12 3.228397 1_555
Ge13 Na13 3.228397 1_655
Ge13 Na17 3.564467 1_655
Ge13 Na16 3.564467 1_555
Ge13 Na14 3.564467 1_555
Ge13 Na15 3.564467 1_655
Au0 Ge0 2.594334 1_555
Au0 Ge4 2.703176 1_554
Au0 Au22 2.897363 1_555
Au0 Au14 2.904374 1_555
Au0 Au17 2.906951 1_554
Au0 Au40 2.991751 1_555
Au0 Na8 3.137739 1_555
Au0 Na24 3.177719 1_554
Au0 Na0 3.218063 1_654
Au0 Na10 3.253365 1_554
Au0 Na4 3.321073 1_555
Au0 Na18 3.377999 1_555
Au1 Ge1 2.594334 1_555
Au1 Ge7 2.703176 1_555
Au1 Au20 2.897363 1_555
Au1 Au15 2.904374 1_555
Au1 Au18 2.906951 1_555
Au1 Au39 2.991751 1_555
Au1 Na9 3.137739 1_555
Au1 Na22 3.177719 1_555
Au1 Na1 3.218063 1_555
Au1 Na10 3.253365 1_555
Au1 Na5 3.321073 1_555
Au1 Na21 3.377999 1_555
Au2 Ge2 2.594334 1_555
Au2 Ge5 2.703176 1_556
Au2 Au21 2.897363 1_565
Au2 Au39 2.991751 1_555
Au2 Na9 3.137740 1_555
Au2 Na23 3.177719 1_556
Au2 Na2 3.218063 1_556
Au2 Na11 3.253365 1_556
Au2 Na6 3.321073 1_565
Au2 Na19 3.377999 1_555
Au3 Ge3 2.594334 1_555
Au3 Ge6 2.703176 1_555
Au3 Au40 2.991751 1_555
Au3 Na8 3.137739 1_555
Au3 Na25 3.177719 1_555
Au3 Na3 3.218063 1_455
Au3 Na11 3.253365 1_555
Au3 Na7 3.321073 1_545
Au3 Na20 3.377999 1_555
Au4 Ge4 2.601128 1_555
Au4 Ge8 2.734827 1_555
Au4 Ge13 2.962890 1_555
Au4 Na10 3.119815 1_555
Au4 Na16 3.166958 1_555
Au4 Na12 3.241633 1_555
Au4 Na2 3.259174 1_546
Au4 Na6 3.361229 1_555
Au4 Na22 3.383085 1_555
Au5 Ge5 2.601128 1_555
Au5 Ge11 2.734827 1_455
Au5 Ge12 2.962890 1_555
Au5 Na11 3.119815 1_555
Au5 Na14 3.166958 1_455
Au5 Na12 3.241633 1_455
Au5 Na0 3.259174 1_554
Au5 Na4 3.361229 1_455
Au5 Na25 3.383085 1_555
Au6 Ge6 2.601128 1_555
Au6 Ge9 2.734827 1_555
Au6 Ge12 2.962890 1_555
Au6 Na11 3.119815 1_555
Au6 Na15 3.166958 1_555
Au6 Na13 3.241633 1_555
Au6 Na1 3.259174 1_555
Au6 Na5 3.361229 1_555
Au6 Na23 3.383085 1_555
Au7 Ge7 2.601128 1_555
Au7 Ge10 2.734827 1_655
Au7 Ge13 2.962890 1_555
Au7 Na10 3.119815 1_555
Au7 Na17 3.166958 1_655
Au7 Na13 3.241633 1_655
Au7 Na3 3.259174 1_565
Au7 Na7 3.361229 1_655
Au7 Na24 3.383085 1_555
Au8 Ge8 2.603975 1_555
Au8 Ge0 2.724723 1_555
Au8 Na12 3.114778 1_555
Au8 Na20 3.171775 1_555
Au8 Na1 3.218645 1_555
Au8 Na8 3.251019 1_555
Au8 Na5 3.321138 1_555
Au8 Na14 3.352379 1_555
Au9 Ge9 2.603975 1_555
Au9 Ge3 2.724723 1_565
Au9 Na13 3.114778 1_555
Au9 Na18 3.171775 1_565
Au9 Na2 3.218645 1_555
Au9 Na8 3.251019 1_565
Au9 Na6 3.321138 1_564
Au9 Na17 3.352379 1_555
Au10 Ge10 2.603975 1_555
Au10 Ge1 2.724723 1_555
Au10 Au12 2.897363 1_555
Au10 Au17 2.906394 1_455
Au10 Au20 2.909336 1_555
Au10 Au37 2.996208 1_555
Au10 Na13 3.114778 1_555
Au10 Na19 3.171775 1_555
Au10 Na0 3.218645 1_555
Au10 Na9 3.251019 1_555
Au10 Na4 3.321138 1_456
Au10 Na15 3.352379 1_555
Au11 Ge11 2.603975 1_555
Au11 Ge2 2.724723 1_545
Au11 Au15 2.897363 1_545
Au11 Au19 2.906394 1_655
Au11 Au21 2.909336 1_555
Au11 Au38 2.996208 1_555
Au11 Na12 3.114778 1_555
Au11 Na21 3.171775 1_545
Au11 Na3 3.218645 1_555
Au11 Na9 3.251019 1_545
Au11 Na7 3.321138 1_645
Au11 Na16 3.352379 1_555
Au12 Ge1 2.594334 1_555
Au12 Ge5 2.703176 1_556
Au12 Au2 2.904374 1_555
Au12 Au5 2.906951 1_556
Au12 Au39 2.991751 1_555
Au12 Na9 3.137739 1_555
Au12 Na25 3.177719 1_556
Au12 Na4 3.218063 1_456
Au12 Na11 3.253365 1_556
Au12 Na0 3.321073 1_555
Au12 Na19 3.377999 1_555
Au13 Ge0 2.594334 1_555
Au13 Ge6 2.703176 1_555
Au13 Au8 2.897363 1_555
Au13 Au3 2.904374 1_555
Au13 Au6 2.906951 1_555
Au13 Au40 2.991751 1_555
Au13 Na8 3.137739 1_555
Au13 Na23 3.177719 1_555
Au13 Na5 3.218063 1_555
Au13 Na11 3.253365 1_555
Au13 Na1 3.321073 1_555
Au13 Na20 3.377999 1_555
Au14 Ge3 2.594334 1_555
Au14 Ge4 2.703176 1_554
Au14 Au9 2.897363 1_545
Au14 Au4 2.906950 1_554
Au14 Au40 2.991751 1_555
Au14 Na8 3.137740 1_555
Au14 Na22 3.177719 1_554
Au14 Na6 3.218063 1_554
Au14 Na10 3.253365 1_554
Au14 Na2 3.321073 1_545
Au14 Na18 3.377999 1_555
Au15 Ge2 2.594334 1_555
Au15 Ge7 2.703176 1_555
Au15 Au7 2.906951 1_555
Au15 Au39 2.991751 1_555
Au15 Na9 3.137739 1_555
Au15 Na24 3.177719 1_555
Au15 Na7 3.218063 1_655
Au15 Na10 3.253365 1_555
Au15 Na3 3.321073 1_565
Au15 Na21 3.377999 1_555
Au16 Ge5 2.601128 1_555
Au16 Ge9 2.734827 1_555
Au16 Au6 2.878841 1_555
Au16 Au9 2.906394 1_555
Au16 Au2 2.906950 1_554
Au16 Ge12 2.962890 1_555
Au16 Na11 3.119815 1_555
Au16 Na17 3.166958 1_555
Au16 Na13 3.241633 1_555
Au16 Na6 3.259174 1_564
Au16 Na2 3.361229 1_555
Au16 Na23 3.383085 1_555
Au17 Ge4 2.601128 1_555
Au17 Ge10 2.734827 1_655
Au17 Au7 2.878841 1_555
Au17 Ge13 2.962890 1_555
Au17 Na10 3.119815 1_555
Au17 Na15 3.166958 1_655
Au17 Na13 3.241633 1_655
Au17 Na4 3.259174 1_556
Au17 Na0 3.361229 1_655
Au17 Na24 3.383085 1_555
Au18 Ge7 2.601128 1_555
Au18 Ge8 2.734827 1_555
Au18 Au4 2.878841 1_555
Au18 Au8 2.906394 1_555
Au18 Ge13 2.962890 1_555
Au18 Na10 3.119815 1_555
Au18 Na14 3.166958 1_555
Au18 Na12 3.241633 1_555
Au18 Na5 3.259174 1_555
Au18 Na1 3.361229 1_555
Au18 Na22 3.383085 1_555
Au19 Ge6 2.601128 1_555
Au19 Ge11 2.734827 1_455
Au19 Au5 2.878841 1_555
Au19 Au3 2.906951 1_555
Au19 Ge12 2.962890 1_555
Au19 Na11 3.119815 1_555
Au19 Na16 3.166958 1_455
Au19 Na12 3.241633 1_455
Au19 Na7 3.259174 1_545
Au19 Na3 3.361229 1_455
Au19 Na25 3.383085 1_555
Au20 Ge9 2.603975 1_555
Au20 Ge1 2.724723 1_555
Au20 Au6 2.906394 1_555
Au20 Au37 2.996208 1_555
Au20 Na13 3.114778 1_555
Au20 Na21 3.171775 1_555
Au20 Na5 3.218645 1_555
Au20 Na9 3.251019 1_555
Au20 Na1 3.321138 1_555
Au20 Na15 3.352379 1_555
Au21 Ge8 2.603975 1_555
Au21 Ge2 2.724723 1_545
Au21 Au4 2.906394 1_555
Au21 Au38 2.996208 1_555
Au21 Na12 3.114778 1_555
Au21 Na19 3.171775 1_545
Au21 Na6 3.218645 1_555
Au21 Na9 3.251019 1_545
Au21 Na2 3.321138 1_546
Au21 Na16 3.352379 1_555
Au22 Ge11 2.603975 1_555
Au22 Ge0 2.724723 1_555
Au22 Au5 2.906394 1_655
Au22 Au8 2.909336 1_555
Au22 Au38 2.996208 1_555
Au22 Na12 3.114778 1_555
Au22 Na18 3.171775 1_555
Au22 Na4 3.218645 1_555
Au22 Na8 3.251019 1_555
Au22 Na0 3.321138 1_654
Au22 Na14 3.352379 1_555
Au23 Ge10 2.603975 1_555
Au23 Ge3 2.724723 1_565
Au23 Au3 2.897363 1_565
Au23 Au7 2.906394 1_455
Au23 Au9 2.909336 1_555
Au23 Au37 2.996208 1_555
Au23 Na13 3.114778 1_555
Au23 Na20 3.171775 1_565
Au23 Na7 3.218645 1_555
Au23 Na8 3.251019 1_565
Au23 Na3 3.321138 1_465
Au23 Na17 3.352379 1_555
Au24 Ge0 2.555352 1_555
Au24 Au36 2.900567 1_665
Au24 Na24 3.127071 1_554
Au24 Na23 3.127071 1_555
Au24 Na5 3.129330 1_555
Au24 Na0 3.129330 1_654
Au24 Na14 3.166412 1_555
Au25 Ge1 2.555352 1_555
Au25 Au36 2.900567 1_556
Au25 Na22 3.127071 1_555
Au25 Na25 3.127071 1_556
Au25 Na4 3.129330 1_456
Au25 Na1 3.129330 1_555
Au25 Na15 3.166412 1_555
Au26 Ge2 2.555352 1_555
Au26 Au36 2.900567 1_666
Au26 Na23 3.127071 1_556
Au26 Na24 3.127071 1_555
Au26 Na2 3.129330 1_556
Au26 Na7 3.129330 1_655
Au26 Na16 3.166412 1_565
Au27 Ge3 2.555352 1_555
Au27 Au36 2.900567 1_555
Au27 Na25 3.127071 1_555
Au27 Na22 3.127071 1_554
Au27 Na3 3.129330 1_455
Au27 Na6 3.129330 1_554
Au27 Na17 3.166412 1_545
Au28 Ge4 2.546479 1_555
Au28 Au36 2.899893 1_656
Au28 Na15 3.119547 1_655
Au28 Na16 3.119547 1_555
Au28 Na4 3.128390 1_556
Au28 Na2 3.128390 1_546
Au28 Na18 3.191835 1_556
Au29 Ge5 2.546479 1_555
Au29 Au36 2.899893 1_565
Au29 Na14 3.119547 1_455
Au29 Na17 3.119547 1_555
Au29 Na0 3.128390 1_554
Au29 Na6 3.128390 1_564
Au29 Na19 3.191835 1_554
Au30 Ge6 2.546479 1_555
Au30 Au36 2.899893 1_556
Au30 Na16 3.119547 1_455
Au30 Na15 3.119547 1_555
Au30 Na7 3.128390 1_545
Au30 Na1 3.128390 1_555
Au30 Na20 3.191835 1_555
Au31 Ge7 2.546479 1_555
Au31 Au36 2.899893 1_665
Au31 Na14 3.119547 1_555
Au31 Na17 3.119547 1_655
Au31 Na3 3.128390 1_565
Au31 Na5 3.128390 1_555
Au31 Na21 3.191835 1_555
Au32 Ge8 2.549641 1_555
Au32 Au36 2.898693 1_556
Au32 Na20 3.128852 1_555
Au32 Na19 3.128852 1_545
Au32 Na1 3.134871 1_555
Au32 Na6 3.134871 1_555
Au32 Na22 3.180767 1_555
Au33 Ge9 2.549641 1_555
Au33 Au36 2.898693 1_665
Au33 Na18 3.128852 1_565
Au33 Na21 3.128852 1_555
Au33 Na5 3.134871 1_555
Au33 Na2 3.134871 1_555
Au33 Na23 3.180767 1_555
Au34 Ge10 2.549641 1_555
Au34 Au36 2.898693 1_566
Au34 Na20 3.128852 1_565
Au34 Na19 3.128852 1_555
Au34 Na7 3.134871 1_555
Au34 Na0 3.134871 1_555
Au34 Na24 3.180767 1_455
Au35 Ge11 2.549641 1_555
Au35 Au36 2.898693 1_655
Au35 Na18 3.128852 1_555
Au35 Na21 3.128852 1_545
Au35 Na3 3.134871 1_555
Au35 Na4 3.134871 1_555
Au35 Na25 3.180767 1_655
Au37 Au38 2.749324 1_565
Au37 Au9 2.996208 1_555
Au37 Na13 3.115756 1_555
Au37 Na8 3.217731 1_565
Au37 Na9 3.217731 1_555
Au37 Ge9 3.270929 1_555
Au37 Ge10 3.270929 1_555
Au37 Na20 3.541933 1_565
Au37 Na18 3.541933 1_565
Au37 Na19 3.541933 1_555
Au37 Na21 3.541933 1_555
Au38 Au8 2.996208 1_555
Au38 Na12 3.115756 1_555
Au38 Na9 3.217731 1_545
Au38 Na8 3.217731 1_555
Au38 Ge8 3.270929 1_555
Au38 Ge11 3.270929 1_555
Au38 Na21 3.541933 1_545
Au38 Na18 3.541933 1_555
Au38 Na19 3.541933 1_545
Au38 Na20 3.541933 1_555
Au39 Au40 2.752164 1_556
Au39 Na9 3.176713 1_555
Au39 Na11 3.198857 1_556
Au39 Na10 3.198857 1_555
Au39 Ge1 3.268771 1_555
Au39 Ge2 3.268772 1_555
Au39 Na22 3.539570 1_555
Au39 Na25 3.539570 1_556
Au39 Na23 3.539570 1_556
Au39 Na24 3.539570 1_555
Au40 Na8 3.176713 1_555
Au40 Na10 3.198857 1_554
Au40 Na11 3.198857 1_555
Au40 Ge0 3.268771 1_555
Au40 Ge3 3.268772 1_555
Au40 Na22 3.539570 1_554
Au40 Na25 3.539570 1_555
Au40 Na24 3.539570 1_554
Au40 Na23 3.539570 1_555
