# generated using pymatgen
data_Mg6ZrSn
_symmetry_space_group_name_H-M   'P 1'
_cell_length_a   4.98698400
_cell_length_b   6.54098500
_cell_length_c   11.10261200
_cell_angle_alpha   90.00000000
_cell_angle_beta   90.00000000
_cell_angle_gamma   90.00000000
_symmetry_Int_Tables_number   1
_chemical_formula_structural   Mg6ZrSn
_chemical_formula_sum   'Mg12 Zr2 Sn2'
_cell_volume   362.16484457
_cell_formula_units_Z   2
loop_
 _symmetry_equiv_pos_site_id
 _symmetry_equiv_pos_as_xyz
  1  'x, y, z'
loop_
 _atom_site_type_symbol
 _atom_site_label
 _atom_site_symmetry_multiplicity
 _atom_site_fract_x
 _atom_site_fract_y
 _atom_site_fract_z
 _atom_site_occupancy
  Mg  Mg0  1  0.00000000  0.24562000  0.08116900  1
  Mg  Mg1  1  0.00000000  0.75438000  0.08116900  1
  Mg  Mg2  1  0.00000000  0.50000000  0.83456600  1
  Mg  Mg3  1  0.50000000  0.25167300  0.91699200  1
  Mg  Mg4  1  0.50000000  0.74832700  0.91699200  1
  Mg  Mg5  1  0.50000000  0.50000000  0.66698200  1
  Mg  Mg6  1  0.00000000  0.74562000  0.58116900  1
  Mg  Mg7  1  0.00000000  0.25438000  0.58116900  1
  Mg  Mg8  1  0.00000000  0.00000000  0.33456600  1
  Mg  Mg9  1  0.50000000  0.75167300  0.41699200  1
  Mg  Mg10  1  0.50000000  0.24832700  0.41699200  1
  Mg  Mg11  1  0.50000000  0.00000000  0.16698200  1
  Zr  Zr0  1  0.00000000  0.50000000  0.33124000  1
  Zr  Zr1  1  0.00000000  0.00000000  0.83124000  1
  Sn  Sn0  1  0.50000000  0.50000000  0.17088900  1
  Sn  Sn1  1  0.50000000  0.00000000  0.67088900  1
loop_
_geom_bond_atom_site_label_1
_geom_bond_atom_site_label_2
_geom_bond_distance
_geom_bond_site_symmetry_2
Mg0 Mg3 3.088956 1_554
Mg0 Mg3 3.088956 1_454
Mg0 Mg11 3.115507 1_455
Mg0 Mg11 3.115507 1_555
Mg0 Sn0 3.158848 1_555
Mg0 Sn0 3.158848 1_455
Mg0 Mg2 3.203881 1_554
Mg0 Zr1 3.206404 1_554
Mg0 Mg1 3.213193 1_545
Mg0 Zr0 3.236847 1_555
Mg0 Mg8 3.239783 1_555
Mg0 Mg1 3.327792 1_555
Mg1 Mg4 3.088956 1_454
Mg1 Mg4 3.088956 1_554
Mg1 Mg11 3.115507 1_565
Mg1 Mg11 3.115507 1_465
Mg1 Sn0 3.158848 1_555
Mg1 Sn0 3.158848 1_455
Mg1 Mg2 3.203881 1_554
Mg1 Zr1 3.206404 1_564
Mg1 Zr0 3.236847 1_555
Mg1 Mg8 3.239783 1_565
Mg2 Mg5 3.111175 1_555
Mg2 Mg5 3.111175 1_455
Mg2 Mg4 3.113415 1_455
Mg2 Mg4 3.113415 1_555
Mg2 Mg3 3.113415 1_455
Mg2 Mg3 3.113415 1_555
Mg2 Mg7 3.239783 1_555
Mg2 Mg6 3.239783 1_555
Mg2 Zr1 3.270701 1_555
Mg2 Zr1 3.270701 1_565
Mg3 Zr1 3.135902 1_555
Mg3 Zr1 3.135902 1_655
Mg3 Sn1 3.189964 1_555
Mg3 Mg5 3.216089 1_555
Mg3 Mg4 3.248606 1_555
Mg3 Sn0 3.253409 1_556
Mg3 Mg4 3.292379 1_545
Mg4 Zr1 3.135902 1_565
Mg4 Zr1 3.135902 1_665
Mg4 Sn1 3.189964 1_565
Mg4 Mg5 3.216089 1_555
Mg4 Sn0 3.253409 1_556
Mg5 Mg7 3.115507 1_555
Mg5 Mg6 3.115507 1_655
Mg5 Mg7 3.115507 1_655
Mg5 Mg6 3.115507 1_555
Mg5 Mg9 3.227007 1_555
Mg5 Sn1 3.270780 1_555
Mg5 Sn1 3.270780 1_565
Mg6 Mg9 3.088956 1_455
Mg6 Mg9 3.088956 1_555
Mg6 Sn1 3.158848 1_565
Mg6 Sn1 3.158848 1_465
Mg6 Mg8 3.203881 1_565
Mg6 Zr0 3.206404 1_555
Mg6 Mg7 3.213193 1_555
Mg6 Zr1 3.236847 1_565
Mg6 Mg7 3.327792 1_565
Mg7 Sn1 3.158848 1_555
Mg7 Sn1 3.158848 1_455
Mg7 Mg8 3.203881 1_555
Mg7 Zr0 3.206404 1_555
Mg7 Zr1 3.236847 1_555
Mg8 Mg9 3.113415 1_445
Mg8 Mg9 3.113415 1_545
Mg8 Zr0 3.270701 1_545
Mg8 Zr0 3.270701 1_555
Mg9 Zr0 3.135902 1_555
Mg9 Zr0 3.135902 1_655
Mg9 Sn0 3.189964 1_555
Mg9 Sn1 3.253409 1_565
Mg10 Mg7 3.088956 1_655
Mg10 Mg7 3.088956 1_555
Mg10 Mg8 3.113415 1_655
Mg10 Mg8 3.113415 1_555
Mg10 Zr0 3.135902 1_555
Mg10 Zr0 3.135902 1_655
Mg10 Sn0 3.189964 1_555
Mg10 Mg11 3.216089 1_555
Mg10 Mg5 3.227007 1_555
Mg10 Mg9 3.248606 1_545
Mg10 Sn1 3.253409 1_555
Mg10 Mg9 3.292379 1_555
Mg11 Mg8 3.111175 1_555
Mg11 Mg8 3.111175 1_655
Mg11 Mg9 3.216089 1_545
Mg11 Mg3 3.227007 1_554
Mg11 Mg4 3.227007 1_544
Mg11 Sn0 3.270780 1_555
Mg11 Sn0 3.270780 1_545
Sn0 Zr0 3.063825 1_655
Sn0 Zr0 3.063825 1_555
Sn1 Zr1 3.063825 1_555
Sn1 Zr1 3.063825 1_655
