# generated using pymatgen
data_Tb3Th
_symmetry_space_group_name_H-M   'P 1'
_cell_length_a   7.22155642
_cell_length_b   7.22155642
_cell_length_c   5.78155840
_cell_angle_alpha   90.00000000
_cell_angle_beta   90.00000000
_cell_angle_gamma   119.99998646
_symmetry_Int_Tables_number   1
_chemical_formula_structural   Tb3Th
_chemical_formula_sum   'Tb6 Th2'
_cell_volume   261.11824930
_cell_formula_units_Z   2
loop_
 _symmetry_equiv_pos_site_id
 _symmetry_equiv_pos_as_xyz
  1  'x, y, z'
loop_
 _atom_site_type_symbol
 _atom_site_label
 _atom_site_symmetry_multiplicity
 _atom_site_fract_x
 _atom_site_fract_y
 _atom_site_fract_z
 _atom_site_occupancy
  Tb  Tb0  1  0.16790382  0.33580664  0.25000000  1
  Tb  Tb1  1  0.66419336  0.83209618  0.25000000  1
  Tb  Tb2  1  0.16790382  0.83209618  0.25000000  1
  Tb  Tb3  1  0.83209618  0.66419336  0.75000000  1
  Tb  Tb4  1  0.33580664  0.16790382  0.75000000  1
  Tb  Tb5  1  0.83209618  0.16790382  0.75000000  1
  Th  Th0  1  0.33333300  0.66666700  0.75000000  1
  Th  Th1  1  0.66666700  0.33333300  0.25000000  1
loop_
_geom_bond_atom_site_label_1
_geom_bond_atom_site_label_2
_geom_bond_distance
_geom_bond_site_symmetry_2
Tb0 Th0 3.555034 1_554
Tb0 Th0 3.555034 1_555
Tb0 Tb4 3.573124 1_555
Tb0 Tb4 3.573124 1_554
Tb0 Tb5 3.573132 1_454
Tb0 Tb5 3.573132 1_455
Tb0 Tb2 3.583983 1_555
Tb0 Tb1 3.583984 1_555
Tb0 Th1 3.610811 1_555
Tb0 Th1 3.610811 1_455
Tb0 Tb2 3.637574 1_545
Tb0 Tb1 3.637574 1_445
Tb1 Th0 3.555034 1_555
Tb1 Th0 3.555034 1_554
Tb1 Tb3 3.573124 1_554
Tb1 Tb3 3.573124 1_555
Tb1 Tb5 3.573132 1_564
Tb1 Tb5 3.573132 1_565
Tb1 Tb2 3.583983 1_555
Tb1 Th1 3.610811 1_555
Tb1 Th1 3.610811 1_565
Tb1 Tb2 3.637574 1_655
Tb2 Th0 3.555027 1_555
Tb2 Th0 3.555027 1_554
Tb2 Tb3 3.573132 1_455
Tb2 Tb3 3.573132 1_454
Tb2 Tb4 3.573132 1_565
Tb2 Tb4 3.573132 1_564
Tb2 Th1 3.610812 1_455
Tb2 Th1 3.610812 1_565
Tb3 Th1 3.555034 1_556
Tb3 Th1 3.555034 1_555
Tb3 Tb5 3.583983 1_555
Tb3 Tb4 3.583984 1_555
Tb3 Th0 3.610811 1_555
Tb3 Th0 3.610811 1_655
Tb3 Tb5 3.637574 1_565
Tb3 Tb4 3.637574 1_665
Tb4 Th1 3.555034 1_555
Tb4 Th1 3.555034 1_556
Tb4 Tb5 3.583983 1_555
Tb4 Th0 3.610811 1_555
Tb4 Th0 3.610811 1_545
Tb4 Tb5 3.637574 1_455
Tb5 Th1 3.555027 1_555
Tb5 Th1 3.555027 1_556
Tb5 Th0 3.610812 1_545
Tb5 Th0 3.610812 1_655
