# generated using pymatgen
data_RbMg6B
_symmetry_space_group_name_H-M   'P 1'
_cell_length_a   16.66741450
_cell_length_b   16.66741450
_cell_length_c   6.84848200
_cell_angle_alpha   90.00000000
_cell_angle_beta   90.00000000
_cell_angle_gamma   119.00183738
_symmetry_Int_Tables_number   1
_chemical_formula_structural   RbMg6B
_chemical_formula_sum   'Rb8 Mg48 B8'
_cell_volume   1663.95788149
_cell_formula_units_Z   8
loop_
 _symmetry_equiv_pos_site_id
 _symmetry_equiv_pos_as_xyz
  1  'x, y, z'
loop_
 _atom_site_type_symbol
 _atom_site_label
 _atom_site_symmetry_multiplicity
 _atom_site_fract_x
 _atom_site_fract_y
 _atom_site_fract_z
 _atom_site_occupancy
  Rb  Rb0_0  1  0.16978300  0.33021700  0.25000000  1
  Rb  Rb0_1  1  0.16978300  0.33021700  0.75000000  1
  Rb  Rb0_2  1  0.16978300  0.83021700  0.25000000  1
  Rb  Rb0_3  1  0.16978300  0.83021700  0.75000000  1
  Rb  Rb0_4  1  0.66978300  0.33021700  0.25000000  1
  Rb  Rb0_5  1  0.66978300  0.33021700  0.75000000  1
  Rb  Rb0_6  1  0.66978300  0.83021700  0.25000000  1
  Rb  Rb0_7  1  0.66978300  0.83021700  0.75000000  1
  Mg  Mg0_0  1  0.47191650  0.34385700  0.25000000  1
  Mg  Mg0_1  1  0.47191650  0.34385700  0.75000000  1
  Mg  Mg0_2  1  0.47191650  0.84385700  0.25000000  1
  Mg  Mg0_3  1  0.47191650  0.84385700  0.75000000  1
  Mg  Mg0_4  1  0.97191650  0.34385700  0.25000000  1
  Mg  Mg0_5  1  0.97191650  0.34385700  0.75000000  1
  Mg  Mg0_6  1  0.97191650  0.84385700  0.25000000  1
  Mg  Mg0_7  1  0.97191650  0.84385700  0.75000000  1
  Mg  Mg1_0  1  0.15614300  0.02808350  0.25000000  1
  Mg  Mg1_1  1  0.15614300  0.02808350  0.75000000  1
  Mg  Mg1_2  1  0.15614300  0.52808350  0.25000000  1
  Mg  Mg1_3  1  0.15614300  0.52808350  0.75000000  1
  Mg  Mg1_4  1  0.65614300  0.02808350  0.25000000  1
  Mg  Mg1_5  1  0.65614300  0.02808350  0.75000000  1
  Mg  Mg1_6  1  0.65614300  0.52808350  0.25000000  1
  Mg  Mg1_7  1  0.65614300  0.52808350  0.75000000  1
  Mg  Mg2_0  1  0.39583000  0.10417000  0.25000000  1
  Mg  Mg2_1  1  0.39583000  0.10417000  0.75000000  1
  Mg  Mg2_2  1  0.39583000  0.60417000  0.25000000  1
  Mg  Mg2_3  1  0.39583000  0.60417000  0.75000000  1
  Mg  Mg2_4  1  0.89583000  0.10417000  0.25000000  1
  Mg  Mg2_5  1  0.89583000  0.10417000  0.75000000  1
  Mg  Mg2_6  1  0.89583000  0.60417000  0.25000000  1
  Mg  Mg2_7  1  0.89583000  0.60417000  0.75000000  1
  Mg  Mg3_0  1  0.39626150  0.43598150  0.00000000  1
  Mg  Mg3_1  1  0.39626150  0.43598150  0.50000000  1
  Mg  Mg3_2  1  0.39626150  0.93598150  0.00000000  1
  Mg  Mg3_3  1  0.39626150  0.93598150  0.50000000  1
  Mg  Mg3_4  1  0.89626150  0.43598150  0.00000000  1
  Mg  Mg3_5  1  0.89626150  0.43598150  0.50000000  1
  Mg  Mg3_6  1  0.89626150  0.93598150  0.00000000  1
  Mg  Mg3_7  1  0.89626150  0.93598150  0.50000000  1
  Mg  Mg4_0  1  0.06401850  0.10373850  0.00000000  1
  Mg  Mg4_1  1  0.06401850  0.10373850  0.50000000  1
  Mg  Mg4_2  1  0.06401850  0.60373850  0.00000000  1
  Mg  Mg4_3  1  0.06401850  0.60373850  0.50000000  1
  Mg  Mg4_4  1  0.56401850  0.10373850  0.00000000  1
  Mg  Mg4_5  1  0.56401850  0.10373850  0.50000000  1
  Mg  Mg4_6  1  0.56401850  0.60373850  0.00000000  1
  Mg  Mg4_7  1  0.56401850  0.60373850  0.50000000  1
  Mg  Mg5_0  1  0.29752550  0.20247450  0.00000000  1
  Mg  Mg5_1  1  0.29752550  0.20247450  0.50000000  1
  Mg  Mg5_2  1  0.29752550  0.70247450  0.00000000  1
  Mg  Mg5_3  1  0.29752550  0.70247450  0.50000000  1
  Mg  Mg5_4  1  0.79752550  0.20247450  0.00000000  1
  Mg  Mg5_5  1  0.79752550  0.20247450  0.50000000  1
  Mg  Mg5_6  1  0.79752550  0.70247450  0.00000000  1
  Mg  Mg5_7  1  0.79752550  0.70247450  0.50000000  1
  B  B0_0  1  0.04852250  0.45147750  0.00000000  1
  B  B0_1  1  0.04852250  0.45147750  0.50000000  1
  B  B0_2  1  0.04852250  0.95147750  0.00000000  1
  B  B0_3  1  0.04852250  0.95147750  0.50000000  1
  B  B0_4  1  0.54852250  0.45147750  0.00000000  1
  B  B0_5  1  0.54852250  0.45147750  0.50000000  1
  B  B0_6  1  0.54852250  0.95147750  0.00000000  1
  B  B0_7  1  0.54852250  0.95147750  0.50000000  1
loop_
_geom_bond_atom_site_label_1
_geom_bond_atom_site_label_2
_geom_bond_distance
_geom_bond_site_symmetry_2
Rb0_0 Rb0_1 3.424241 1_555
Rb0_0 Rb0_1 3.424241 1_554
Rb0_2 Rb0_3 3.424241 1_554
Rb0_2 Rb0_3 3.424241 1_555
Rb0_4 Rb0_5 3.424241 1_554
Rb0_4 Rb0_5 3.424241 1_555
Rb0_6 Rb0_7 3.424241 1_555
Rb0_6 Rb0_7 3.424241 1_554
Mg0_0 Mg5_0 3.207991 1_555
Mg0_0 Mg5_1 3.207991 1_555
Mg0_0 Rb0_4 3.413943 1_555
Mg0_0 Mg2_0 3.557433 1_555
Mg0_1 Mg5_0 3.207991 1_556
Mg0_1 Mg5_1 3.207991 1_555
Mg0_1 Rb0_5 3.413943 1_555
Mg0_1 Mg2_1 3.557433 1_555
Mg0_2 Mg5_3 3.207991 1_555
Mg0_2 Mg5_2 3.207991 1_555
Mg0_2 Rb0_6 3.413943 1_555
Mg0_2 Mg2_2 3.557433 1_555
Mg0_3 Mg5_3 3.207991 1_555
Mg0_3 Mg5_2 3.207991 1_556
Mg0_3 Rb0_7 3.413943 1_555
Mg0_3 Mg2_3 3.557433 1_555
Mg0_4 Mg5_4 3.207991 1_555
Mg0_4 Mg5_5 3.207991 1_555
Mg0_4 Rb0_0 3.413943 1_655
Mg0_4 Mg2_4 3.557433 1_555
Mg0_5 Mg5_4 3.207991 1_556
Mg0_5 Mg5_5 3.207991 1_555
Mg0_5 Rb0_1 3.413943 1_655
Mg0_5 Mg2_5 3.557433 1_555
Mg0_6 Mg5_7 3.207991 1_555
Mg0_6 Mg5_6 3.207991 1_555
Mg0_6 Rb0_2 3.413943 1_655
Mg0_6 Mg2_6 3.557433 1_555
Mg0_7 Mg5_6 3.207991 1_556
Mg0_7 Mg5_7 3.207991 1_555
Mg0_7 Rb0_3 3.413943 1_655
Mg0_7 Mg2_7 3.557433 1_555
Mg1_0 Mg5_0 3.207991 1_555
Mg1_0 Mg5_1 3.207991 1_555
Mg1_0 Rb0_2 3.413943 1_545
Mg1_0 Mg2_0 3.557433 1_555
Mg1_1 Mg5_0 3.207991 1_556
Mg1_1 Mg5_1 3.207991 1_555
Mg1_1 Rb0_3 3.413943 1_545
Mg1_1 Mg2_1 3.557433 1_555
Mg1_2 Mg5_2 3.207991 1_555
Mg1_2 Mg5_3 3.207991 1_555
Mg1_2 Rb0_0 3.413943 1_555
Mg1_2 Mg2_2 3.557433 1_555
Mg1_3 Mg5_2 3.207991 1_556
Mg1_3 Mg5_3 3.207991 1_555
Mg1_3 Rb0_1 3.413943 1_555
Mg1_3 Mg2_3 3.557433 1_555
Mg1_4 Mg5_4 3.207991 1_555
Mg1_4 Mg5_5 3.207991 1_555
Mg1_4 Rb0_6 3.413943 1_545
Mg1_4 Mg2_4 3.557433 1_555
Mg1_5 Mg5_4 3.207991 1_556
Mg1_5 Mg5_5 3.207991 1_555
Mg1_5 Rb0_7 3.413943 1_545
Mg1_5 Mg2_5 3.557433 1_555
Mg1_6 Mg5_7 3.207991 1_555
Mg1_6 Mg5_6 3.207991 1_555
Mg1_6 Rb0_4 3.413943 1_555
Mg1_6 Mg2_6 3.557433 1_555
Mg1_7 Mg5_6 3.207991 1_556
Mg1_7 Mg5_7 3.207991 1_555
Mg1_7 Rb0_5 3.413943 1_555
Mg1_7 Mg2_7 3.557433 1_555
Mg2_0 Mg3_3 3.287745 1_545
Mg2_0 Mg3_2 3.287745 1_545
Mg2_0 Mg4_4 3.287745 1_555
Mg2_0 Mg4_5 3.287745 1_555
Mg2_0 Mg5_0 3.302092 1_555
Mg2_0 Mg5_1 3.302092 1_555
Mg2_0 Mg2_1 3.424241 1_555
Mg2_0 Mg2_1 3.424241 1_554
Mg2_0 Rb0_2 4.285151 1_545
Mg2_0 Rb0_4 4.285151 1_555
Mg2_1 Mg3_3 3.287745 1_545
Mg2_1 Mg3_2 3.287745 1_546
Mg2_1 Mg4_5 3.287745 1_555
Mg2_1 Mg4_4 3.287745 1_556
Mg2_1 Mg5_1 3.302092 1_555
Mg2_1 Mg5_0 3.302092 1_556
Mg2_1 Rb0_3 4.285151 1_545
Mg2_1 Rb0_5 4.285151 1_555
Mg2_2 Mg3_0 3.287745 1_555
Mg2_2 Mg3_1 3.287745 1_555
Mg2_2 Mg4_6 3.287745 1_555
Mg2_2 Mg4_7 3.287745 1_555
Mg2_2 Mg5_3 3.302092 1_555
Mg2_2 Mg5_2 3.302092 1_555
Mg2_2 Mg2_3 3.424241 1_554
Mg2_2 Mg2_3 3.424241 1_555
Mg2_2 Rb0_6 4.285151 1_555
Mg2_2 Rb0_0 4.285151 1_555
Mg2_3 Mg3_1 3.287745 1_555
Mg2_3 Mg3_0 3.287745 1_556
Mg2_3 Mg4_6 3.287745 1_556
Mg2_3 Mg4_7 3.287745 1_555
Mg2_3 Mg5_2 3.302092 1_556
Mg2_3 Mg5_3 3.302092 1_555
Mg2_3 Rb0_7 4.285151 1_555
Mg2_3 Rb0_1 4.285151 1_555
Mg2_4 Mg4_1 3.287745 1_655
Mg2_4 Mg4_0 3.287745 1_655
Mg2_4 Mg3_7 3.287745 1_545
Mg2_4 Mg3_6 3.287745 1_545
Mg2_4 Mg5_4 3.302092 1_555
Mg2_4 Mg5_5 3.302092 1_555
Mg2_4 Mg2_5 3.424241 1_554
Mg2_4 Mg2_5 3.424241 1_555
Mg2_4 Rb0_6 4.285151 1_545
Mg2_4 Rb0_0 4.285151 1_655
Mg2_5 Mg4_0 3.287745 1_656
Mg2_5 Mg4_1 3.287745 1_655
Mg2_5 Mg3_7 3.287745 1_545
Mg2_5 Mg3_6 3.287745 1_546
Mg2_5 Mg5_5 3.302092 1_555
Mg2_5 Mg5_4 3.302092 1_556
Mg2_5 Rb0_1 4.285151 1_655
Mg2_5 Rb0_7 4.285151 1_545
Mg2_6 Mg4_3 3.287745 1_655
Mg2_6 Mg4_2 3.287745 1_655
Mg2_6 Mg3_4 3.287745 1_555
Mg2_6 Mg3_5 3.287745 1_555
Mg2_6 Mg5_6 3.302092 1_555
Mg2_6 Mg5_7 3.302092 1_555
Mg2_6 Mg2_7 3.424241 1_555
Mg2_6 Mg2_7 3.424241 1_554
Mg2_6 Rb0_2 4.285151 1_655
Mg2_6 Rb0_4 4.285151 1_555
Mg2_7 Mg4_2 3.287745 1_656
Mg2_7 Mg4_3 3.287745 1_655
Mg2_7 Mg3_5 3.287745 1_555
Mg2_7 Mg3_4 3.287745 1_556
Mg2_7 Mg5_6 3.302092 1_556
Mg2_7 Mg5_7 3.302092 1_555
Mg2_7 Rb0_3 4.285151 1_655
Mg2_7 Rb0_5 4.285151 1_555
Mg3_0 Mg5_0 3.412464 1_555
Mg3_0 Rb0_1 3.719619 1_554
Mg3_0 Rb0_0 3.719619 1_555
Mg3_1 Mg5_1 3.412464 1_555
Mg3_1 Rb0_0 3.719619 1_555
Mg3_1 Rb0_1 3.719619 1_555
Mg3_2 Mg5_2 3.412464 1_555
Mg3_2 Rb0_3 3.719619 1_554
Mg3_2 Rb0_2 3.719619 1_555
Mg3_3 Mg5_3 3.412464 1_555
Mg3_3 Rb0_2 3.719619 1_555
Mg3_3 Rb0_3 3.719619 1_555
Mg3_4 Mg5_4 3.412464 1_555
Mg3_4 Rb0_4 3.719619 1_555
Mg3_4 Rb0_5 3.719619 1_554
Mg3_5 Mg5_5 3.412464 1_555
Mg3_5 Rb0_4 3.719619 1_555
Mg3_5 Rb0_5 3.719619 1_555
Mg3_6 Mg5_6 3.412464 1_555
Mg3_6 Rb0_7 3.719619 1_554
Mg3_6 Rb0_6 3.719619 1_555
Mg3_7 Mg5_7 3.412464 1_555
Mg3_7 Rb0_7 3.719619 1_555
Mg3_7 Rb0_6 3.719619 1_555
Mg4_0 Mg5_0 3.412464 1_555
Mg4_0 Rb0_0 3.719619 1_555
Mg4_0 Rb0_1 3.719619 1_554
Mg4_1 Mg5_1 3.412464 1_555
Mg4_1 Rb0_0 3.719619 1_555
Mg4_1 Rb0_1 3.719619 1_555
Mg4_2 Mg5_2 3.412464 1_555
Mg4_2 Rb0_2 3.719619 1_555
Mg4_2 Rb0_3 3.719619 1_554
Mg4_3 Mg5_3 3.412464 1_555
Mg4_3 Rb0_2 3.719619 1_555
Mg4_3 Rb0_3 3.719619 1_555
Mg4_4 Mg5_4 3.412464 1_555
Mg4_4 Rb0_4 3.719619 1_555
Mg4_4 Rb0_5 3.719619 1_554
Mg4_5 Mg5_5 3.412464 1_555
Mg4_5 Rb0_4 3.719619 1_555
Mg4_5 Rb0_5 3.719619 1_555
Mg4_6 Mg5_6 3.412464 1_555
Mg4_6 Rb0_7 3.719619 1_554
Mg4_6 Rb0_6 3.719619 1_555
Mg4_7 Mg5_7 3.412464 1_555
Mg4_7 Rb0_6 3.719619 1_555
Mg4_7 Rb0_7 3.719619 1_555
Mg5_0 Mg5_1 3.424241 1_554
Mg5_0 Mg5_1 3.424241 1_555
Mg5_0 Rb0_0 4.048897 1_555
Mg5_0 Rb0_1 4.048897 1_554
Mg5_1 Rb0_0 4.048897 1_555
Mg5_1 Rb0_1 4.048897 1_555
Mg5_2 Mg5_3 3.424241 1_555
Mg5_2 Mg5_3 3.424241 1_554
Mg5_2 Rb0_3 4.048897 1_554
Mg5_2 Rb0_2 4.048897 1_555
Mg5_3 Rb0_2 4.048897 1_555
Mg5_3 Rb0_3 4.048897 1_555
Mg5_4 Mg5_5 3.424241 1_555
Mg5_4 Mg5_5 3.424241 1_554
Mg5_4 Rb0_4 4.048897 1_555
Mg5_4 Rb0_5 4.048897 1_554
Mg5_5 Rb0_5 4.048897 1_555
Mg5_5 Rb0_4 4.048897 1_555
Mg5_6 Mg5_7 3.424241 1_555
Mg5_6 Mg5_7 3.424241 1_554
Mg5_6 Rb0_7 4.048897 1_554
Mg5_6 Rb0_6 4.048897 1_555
Mg5_7 Rb0_7 4.048897 1_555
Mg5_7 Rb0_6 4.048897 1_555
B0_0 Mg0_5 2.357613 1_454
B0_0 Mg0_4 2.357613 1_455
B0_0 Mg1_2 2.357613 1_555
B0_0 Mg1_3 2.357613 1_554
B0_0 Mg3_4 2.423126 1_455
B0_0 Mg4_2 2.423126 1_555
B0_1 Mg0_5 2.357613 1_455
B0_1 Mg0_4 2.357613 1_455
B0_1 Mg1_3 2.357613 1_555
B0_1 Mg1_2 2.357613 1_555
B0_1 Mg3_5 2.423126 1_455
B0_1 Mg4_3 2.423126 1_555
B0_2 Mg0_7 2.357613 1_454
B0_2 Mg0_6 2.357613 1_455
B0_2 Mg1_1 2.357613 1_564
B0_2 Mg1_0 2.357613 1_565
B0_2 Mg4_0 2.423126 1_565
B0_2 Mg3_6 2.423126 1_455
B0_3 Mg0_6 2.357613 1_455
B0_3 Mg0_7 2.357613 1_455
B0_3 Mg1_0 2.357613 1_565
B0_3 Mg1_1 2.357613 1_565
B0_3 Mg4_1 2.423126 1_565
B0_3 Mg3_7 2.423126 1_455
B0_4 Mg0_0 2.357613 1_555
B0_4 Mg0_1 2.357613 1_554
B0_4 Mg1_7 2.357613 1_554
B0_4 Mg1_6 2.357613 1_555
B0_4 Mg4_6 2.423126 1_555
B0_4 Mg3_0 2.423126 1_555
B0_5 Mg0_0 2.357613 1_555
B0_5 Mg0_1 2.357613 1_555
B0_5 Mg1_6 2.357613 1_555
B0_5 Mg1_7 2.357613 1_555
B0_5 Mg4_7 2.423126 1_555
B0_5 Mg3_1 2.423126 1_555
B0_6 Mg0_2 2.357613 1_555
B0_6 Mg0_3 2.357613 1_554
B0_6 Mg1_5 2.357613 1_564
B0_6 Mg1_4 2.357613 1_565
B0_6 Mg4_4 2.423126 1_565
B0_6 Mg3_2 2.423126 1_555
B0_7 Mg0_3 2.357613 1_555
B0_7 Mg0_2 2.357613 1_555
B0_7 Mg1_4 2.357613 1_565
B0_7 Mg1_5 2.357613 1_565
B0_7 Mg4_5 2.423126 1_565
B0_7 Mg3_3 2.423126 1_555
