# generated using pymatgen
data_Li4GeS4
_symmetry_space_group_name_H-M   'P 1'
_cell_length_a   6.45861000
_cell_length_b   7.86855800
_cell_length_c   13.44115300
_cell_angle_alpha   90.00000000
_cell_angle_beta   90.00000000
_cell_angle_gamma   90.00000000
_symmetry_Int_Tables_number   1
_chemical_formula_structural   Li4GeS4
_chemical_formula_sum   'Li16 Ge4 S16'
_cell_volume   683.07868825
_cell_formula_units_Z   4
loop_
 _symmetry_equiv_pos_site_id
 _symmetry_equiv_pos_as_xyz
  1  'x, y, z'
loop_
 _atom_site_type_symbol
 _atom_site_label
 _atom_site_symmetry_multiplicity
 _atom_site_fract_x
 _atom_site_fract_y
 _atom_site_fract_z
 _atom_site_occupancy
  Li  Li0  1  0.83102400  0.00364700  0.65611100  1
  Li  Li1  1  0.64594200  0.50703700  0.15811400  1
  Li  Li2  1  0.16897600  0.50364700  0.34388900  1
  Li  Li3  1  0.35405800  0.00703700  0.84188600  1
  Li  Li4  1  0.14594200  0.00703700  0.34188600  1
  Li  Li5  1  0.33102400  0.50364700  0.84388900  1
  Li  Li6  1  0.85405800  0.50703700  0.65811400  1
  Li  Li7  1  0.66897600  0.00364700  0.15611100  1
  Li  Li8  1  0.64963200  0.74707800  0.93278200  1
  Li  Li9  1  0.85036800  0.74707800  0.43278200  1
  Li  Li10  1  0.35036800  0.24707800  0.06721800  1
  Li  Li11  1  0.14963200  0.24707800  0.56721800  1
  Li  Li12  1  0.51278400  0.28929600  0.70217200  1
  Li  Li13  1  0.48721600  0.78929600  0.29782800  1
  Li  Li14  1  0.01278400  0.78929600  0.79782800  1
  Li  Li15  1  0.98721600  0.28929600  0.20217200  1
  Ge  Ge0  1  0.84927700  0.25033400  0.91013000  1
  Ge  Ge1  1  0.65072300  0.25033400  0.41013000  1
  Ge  Ge2  1  0.15072300  0.75033400  0.08987000  1
  Ge  Ge3  1  0.34927700  0.75033400  0.58987000  1
  S  S0  1  0.71559700  0.47570100  0.82758900  1
  S  S1  1  0.77203200  0.01665000  0.33090900  1
  S  S2  1  0.28440300  0.97570100  0.17241100  1
  S  S3  1  0.22796800  0.51665000  0.66909100  1
  S  S4  1  0.27203200  0.51665000  0.16909100  1
  S  S5  1  0.21559700  0.97570100  0.67241100  1
  S  S6  1  0.72796800  0.01665000  0.83090900  1
  S  S7  1  0.78440300  0.47570100  0.32758900  1
  S  S8  1  0.69245000  0.75164400  0.59318300  1
  S  S9  1  0.80755000  0.75164400  0.09318300  1
  S  S10  1  0.30755000  0.25164400  0.40681700  1
  S  S11  1  0.19245000  0.25164400  0.90681700  1
  S  S12  1  0.76658800  0.25561500  0.56727700  1
  S  S13  1  0.73341200  0.25561500  0.06727700  1
  S  S14  1  0.23341200  0.75561500  0.43272300  1
  S  S15  1  0.26658800  0.75561500  0.93272300  1
loop_
_geom_bond_atom_site_label_1
_geom_bond_atom_site_label_2
_geom_bond_distance
_geom_bond_site_symmetry_2
Li0 S8 2.334166 1_545
Li0 S12 2.351533 1_555
Li0 S6 2.444090 1_555
Li0 S5 2.503128 1_645
Li1 S9 2.357036 1_555
Li1 S13 2.392418 1_555
Li1 S4 2.420624 1_555
Li1 S7 2.459576 1_555
Li2 S10 2.334166 1_555
Li2 S14 2.351533 1_555
Li2 S4 2.444090 1_555
Li2 S7 2.503128 1_455
Li3 S11 2.357036 1_555
Li3 S15 2.392418 1_545
Li3 S6 2.420624 1_555
Li3 S5 2.459576 1_545
Li4 S10 2.357036 1_555
Li4 S14 2.392418 1_545
Li4 S1 2.420624 1_455
Li4 S2 2.459576 1_545
Li5 S11 2.334166 1_555
Li5 S15 2.351533 1_555
Li5 S3 2.444090 1_555
Li5 S0 2.503128 1_555
Li6 S8 2.357036 1_555
Li6 S12 2.392418 1_555
Li6 S3 2.420624 1_655
Li6 S0 2.459576 1_555
Li7 S9 2.334166 1_545
Li7 S13 2.351533 1_555
Li7 S1 2.444090 1_555
Li7 S2 2.503128 1_545
Li8 S9 2.385325 1_556
Li8 S15 2.474844 1_555
Li8 S6 2.574914 1_565
Li8 S0 2.596222 1_555
Li9 S8 2.385325 1_555
Li9 S14 2.474844 1_655
Li9 S1 2.574914 1_565
Li9 S7 2.596222 1_555
Li10 S11 2.385325 1_554
Li10 S13 2.474844 1_555
Li10 S4 2.574914 1_555
Li10 S2 2.596222 1_545
Li11 S10 2.385325 1_555
Li11 S12 2.474844 1_455
Li11 S3 2.574914 1_555
Li11 S5 2.596222 1_545
Li12 S12 2.458612 1_555
Li12 S0 2.590151 1_555
Li12 S3 2.604201 1_555
Li13 S14 2.458612 1_555
Li13 S2 2.590151 1_555
Li13 S1 2.604201 1_565
Li14 S15 2.458612 1_555
Li14 S5 2.590151 1_555
Li14 S6 2.604201 1_465
Li15 S13 2.458612 1_555
Li15 S7 2.590151 1_555
Li15 S4 2.604201 1_655
Ge0 S11 2.216892 1_655
Ge0 S13 2.241264 1_556
Ge0 S0 2.262951 1_555
Ge0 S6 2.264668 1_555
Ge1 S10 2.216892 1_555
Ge1 S12 2.241264 1_555
Ge1 S7 2.262951 1_555
Ge1 S1 2.264668 1_555
Ge2 S9 2.216892 1_455
Ge2 S15 2.241264 1_554
Ge2 S2 2.262951 1_555
Ge2 S4 2.264668 1_555
Ge3 S8 2.216892 1_555
Ge3 S14 2.241264 1_555
Ge3 S5 2.262951 1_555
Ge3 S3 2.264668 1_555
