# generated using pymatgen
data_LiZn13
_symmetry_space_group_name_H-M   'P 1'
_cell_length_a   8.50813542
_cell_length_b   8.50813542
_cell_length_c   8.50813542
_cell_angle_alpha   60.00000000
_cell_angle_beta   60.00000000
_cell_angle_gamma   60.00000000
_symmetry_Int_Tables_number   1
_chemical_formula_structural   LiZn13
_chemical_formula_sum   'Li2 Zn26'
_cell_volume   435.50002397
_cell_formula_units_Z   2
loop_
 _symmetry_equiv_pos_site_id
 _symmetry_equiv_pos_as_xyz
  1  'x, y, z'
loop_
 _atom_site_type_symbol
 _atom_site_label
 _atom_site_symmetry_multiplicity
 _atom_site_fract_x
 _atom_site_fract_y
 _atom_site_fract_z
 _atom_site_occupancy
  Li  Li0  1  0.25000000  0.25000000  0.25000000  1
  Li  Li1  1  0.75000000  0.75000000  0.75000000  1
  Zn  Zn0  1  0.50000000  0.50000000  0.50000000  1
  Zn  Zn1  1  0.00000000  -0.00000000  -0.00000000  1
  Zn  Zn2  1  0.93868966  0.06131034  0.30015274  1
  Zn  Zn3  1  0.30015274  0.69984726  0.93868966  1
  Zn  Zn4  1  0.06131034  0.93868966  0.69984726  1
  Zn  Zn5  1  0.69984726  0.30015274  0.06131034  1
  Zn  Zn6  1  0.43868966  0.19984726  0.80015274  1
  Zn  Zn7  1  0.80015274  0.56131034  0.43868966  1
  Zn  Zn8  1  0.19984726  0.43868966  0.56131034  1
  Zn  Zn9  1  0.56131034  0.80015274  0.19984726  1
  Zn  Zn10  1  0.30015274  0.93868966  0.06131034  1
  Zn  Zn11  1  0.93868966  0.30015274  0.69984726  1
  Zn  Zn12  1  0.69984726  0.06131034  0.93868966  1
  Zn  Zn13  1  0.06131034  0.69984726  0.30015274  1
  Zn  Zn14  1  0.80015274  0.43868966  0.19984726  1
  Zn  Zn15  1  0.43868966  0.80015274  0.56131034  1
  Zn  Zn16  1  0.56131034  0.19984726  0.43868966  1
  Zn  Zn17  1  0.19984726  0.56131034  0.80015274  1
  Zn  Zn18  1  0.06131034  0.30015274  0.93868966  1
  Zn  Zn19  1  0.69984726  0.93868966  0.30015274  1
  Zn  Zn20  1  0.93868966  0.69984726  0.06131034  1
  Zn  Zn21  1  0.30015274  0.06131034  0.69984726  1
  Zn  Zn22  1  0.19984726  0.80015274  0.43868966  1
  Zn  Zn23  1  0.56131034  0.43868966  0.80015274  1
  Zn  Zn24  1  0.43868966  0.56131034  0.19984726  1
  Zn  Zn25  1  0.80015274  0.19984726  0.56131034  1
loop_
_geom_bond_atom_site_label_1
_geom_bond_atom_site_label_2
_geom_bond_distance
_geom_bond_site_symmetry_2
Zn0 Zn24 2.606471 1_555
Zn0 Zn8 2.606471 1_555
Zn0 Zn22 2.606471 1_555
Zn0 Zn16 2.606471 1_555
Zn0 Zn6 2.606471 1_555
Zn0 Zn14 2.606471 1_555
Zn0 Zn15 2.606471 1_555
Zn0 Zn7 2.606471 1_555
Zn0 Zn9 2.606471 1_555
Zn0 Zn17 2.606471 1_555
Zn0 Zn23 2.606471 1_555
Zn0 Zn25 2.606471 1_555
Zn1 Zn10 2.606471 1_545
Zn1 Zn2 2.606471 1_455
Zn1 Zn18 2.606471 1_554
Zn1 Zn13 2.606471 1_545
Zn1 Zn21 2.606471 1_554
Zn1 Zn5 2.606471 1_455
Zn1 Zn19 2.606471 1_445
Zn1 Zn11 2.606471 1_454
Zn1 Zn20 2.606471 1_445
Zn1 Zn4 2.606471 1_544
Zn1 Zn12 2.606471 1_454
Zn1 Zn3 2.606471 1_544
Zn2 Zn25 2.515241 1_555
Zn2 Zn22 2.515241 1_645
Zn2 Zn5 2.873828 1_555
Zn3 Zn4 2.873828 1_555
Zn6 Zn8 2.873828 1_555
Zn7 Zn9 2.873828 1_555
Zn10 Zn6 2.515241 1_564
Zn10 Zn9 2.515241 1_555
Zn10 Zn24 2.628321 1_555
Zn10 Zn22 2.628321 1_555
Zn10 Zn3 2.708856 1_554
Zn10 Zn2 2.708856 1_465
Zn10 Zn21 2.708856 1_564
Zn10 Zn18 2.708856 1_564
Zn10 Zn13 2.873828 1_555
Zn11 Zn7 2.515241 1_555
Zn11 Zn8 2.515241 1_655
Zn11 Zn25 2.628321 1_555
Zn11 Zn23 2.628321 1_555
Zn11 Zn5 2.708856 1_556
Zn11 Zn18 2.708856 1_655
Zn11 Zn4 2.708856 1_645
Zn11 Zn21 2.708856 1_655
Zn11 Zn12 2.873828 1_555
Zn12 Zn6 2.515241 1_555
Zn12 Zn9 2.515241 1_546
Zn12 Zn25 2.628321 1_555
Zn12 Zn23 2.628321 1_555
Zn12 Zn4 2.708856 1_645
Zn12 Zn5 2.708856 1_556
Zn12 Zn20 2.708856 1_546
Zn12 Zn19 2.708856 1_546
Zn13 Zn8 2.515241 1_555
Zn13 Zn7 2.515241 1_455
Zn13 Zn24 2.628321 1_555
Zn13 Zn22 2.628321 1_555
Zn13 Zn2 2.708856 1_465
Zn13 Zn20 2.708856 1_455
Zn13 Zn3 2.708856 1_554
Zn13 Zn19 2.708856 1_455
Zn14 Zn20 2.515241 1_555
Zn14 Zn18 2.515241 1_654
Zn14 Zn2 2.628321 1_555
Zn14 Zn5 2.628321 1_555
Zn14 Zn24 2.708856 1_555
Zn14 Zn7 2.708856 1_555
Zn14 Zn9 2.708856 1_555
Zn14 Zn25 2.708856 1_555
Zn14 Zn16 2.873828 1_555
Zn15 Zn21 2.515241 1_565
Zn15 Zn19 2.515241 1_555
Zn15 Zn3 2.628321 1_555
Zn15 Zn4 2.628321 1_555
Zn15 Zn23 2.708856 1_555
Zn15 Zn22 2.708856 1_555
Zn15 Zn7 2.708856 1_555
Zn15 Zn9 2.708856 1_555
Zn15 Zn17 2.873828 1_555
Zn16 Zn21 2.515241 1_555
Zn16 Zn19 2.515241 1_545
Zn16 Zn5 2.628321 1_555
Zn16 Zn2 2.628321 1_555
Zn16 Zn24 2.708856 1_555
Zn16 Zn8 2.708856 1_555
Zn16 Zn25 2.708856 1_555
Zn16 Zn6 2.708856 1_555
Zn17 Zn20 2.515241 1_456
Zn17 Zn18 2.515241 1_555
Zn17 Zn3 2.628321 1_555
Zn17 Zn4 2.628321 1_555
Zn17 Zn8 2.708856 1_555
Zn17 Zn22 2.708856 1_555
Zn17 Zn6 2.708856 1_555
Zn17 Zn23 2.708856 1_555
Zn18 Zn8 2.628321 1_555
Zn18 Zn6 2.628321 1_555
Zn18 Zn5 2.708856 1_456
Zn18 Zn2 2.708856 1_456
Zn18 Zn21 2.873828 1_555
Zn19 Zn9 2.628321 1_555
Zn19 Zn7 2.628321 1_555
Zn19 Zn2 2.708856 1_565
Zn19 Zn5 2.708856 1_565
Zn19 Zn20 2.873828 1_555
Zn20 Zn7 2.628321 1_555
Zn20 Zn9 2.628321 1_555
Zn20 Zn4 2.708856 1_654
Zn20 Zn3 2.708856 1_654
Zn21 Zn8 2.628321 1_555
Zn21 Zn6 2.628321 1_555
Zn21 Zn3 2.708856 1_545
Zn21 Zn4 2.708856 1_545
Zn22 Zn4 2.515241 1_555
Zn22 Zn8 2.708856 1_555
Zn22 Zn9 2.708856 1_555
Zn22 Zn24 2.873828 1_555
Zn23 Zn5 2.515241 1_556
Zn23 Zn3 2.515241 1_555
Zn23 Zn7 2.708856 1_555
Zn23 Zn6 2.708856 1_555
Zn23 Zn25 2.873828 1_555
Zn24 Zn3 2.515241 1_554
Zn24 Zn5 2.515241 1_555
Zn24 Zn8 2.708856 1_555
Zn24 Zn9 2.708856 1_555
Zn25 Zn4 2.515241 1_645
Zn25 Zn6 2.708856 1_555
Zn25 Zn7 2.708856 1_555
