# generated using pymatgen
data_CaMg6Ni
_symmetry_space_group_name_H-M   'P 1'
_cell_length_a   4.89185200
_cell_length_b   6.25237600
_cell_length_c   11.78144300
_cell_angle_alpha   90.00000000
_cell_angle_beta   90.00000000
_cell_angle_gamma   90.00000000
_symmetry_Int_Tables_number   1
_chemical_formula_structural   CaMg6Ni
_chemical_formula_sum   'Ca2 Mg12 Ni2'
_cell_volume   360.34365808
_cell_formula_units_Z   2
loop_
 _symmetry_equiv_pos_site_id
 _symmetry_equiv_pos_as_xyz
  1  'x, y, z'
loop_
 _atom_site_type_symbol
 _atom_site_label
 _atom_site_symmetry_multiplicity
 _atom_site_fract_x
 _atom_site_fract_y
 _atom_site_fract_z
 _atom_site_occupancy
  Ca  Ca0  1  0.00000000  0.50000000  0.30665600  1
  Ca  Ca1  1  0.00000000  0.00000000  0.80665600  1
  Mg  Mg0  1  0.00000000  0.25744800  0.07829700  1
  Mg  Mg1  1  0.00000000  0.74255200  0.07829700  1
  Mg  Mg2  1  0.00000000  0.00000000  0.34114500  1
  Mg  Mg3  1  0.50000000  0.75950200  0.44038100  1
  Mg  Mg4  1  0.50000000  0.24049800  0.44038100  1
  Mg  Mg5  1  0.50000000  0.00000000  0.18136400  1
  Mg  Mg6  1  0.00000000  0.75744800  0.57829700  1
  Mg  Mg7  1  0.00000000  0.24255200  0.57829700  1
  Mg  Mg8  1  0.00000000  0.50000000  0.84114500  1
  Mg  Mg9  1  0.50000000  0.25950200  0.94038100  1
  Mg  Mg10  1  0.50000000  0.74049800  0.94038100  1
  Mg  Mg11  1  0.50000000  0.50000000  0.68136400  1
  Ni  Ni0  1  0.50000000  0.50000000  0.13347800  1
  Ni  Ni1  1  0.50000000  0.00000000  0.63347800  1
loop_
_geom_bond_atom_site_label_1
_geom_bond_atom_site_label_2
_geom_bond_distance
_geom_bond_site_symmetry_2
Ca0 Mg0 3.088381 1_555
Ca0 Mg1 3.088381 1_555
Ca0 Mg2 3.152484 1_565
Ca0 Mg2 3.152484 1_555
Ca0 Ni0 3.185173 1_455
Ca0 Ni0 3.185173 1_555
Ca0 Mg3 3.331245 1_555
Ca0 Mg3 3.331245 1_455
Ca0 Mg4 3.331245 1_455
Ca0 Mg4 3.331245 1_555
Ca0 Mg6 3.582329 1_555
Ca0 Mg7 3.582329 1_555
Ca1 Mg6 3.088381 1_545
Ca1 Mg7 3.088381 1_555
Ca1 Mg8 3.152484 1_545
Ca1 Mg8 3.152484 1_555
Ca1 Ni1 3.185173 1_455
Ca1 Ni1 3.185173 1_555
Ca1 Mg10 3.331245 1_545
Ca1 Mg9 3.331245 1_455
Ca1 Mg9 3.331245 1_555
Ca1 Mg10 3.331245 1_445
Ca1 Mg0 3.582329 1_556
Ca1 Mg1 3.582329 1_546
Mg0 Mg9 2.936470 1_554
Mg0 Mg9 2.936470 1_454
Mg0 Ni0 2.950432 1_555
Mg0 Ni0 2.950432 1_455
Mg0 Mg1 3.033053 1_555
Mg0 Mg5 3.169864 1_455
Mg0 Mg5 3.169864 1_555
Mg0 Mg8 3.179032 1_554
Mg0 Mg1 3.219323 1_545
Mg0 Mg2 3.490092 1_555
Mg1 Mg10 2.936470 1_454
Mg1 Mg10 2.936470 1_554
Mg1 Ni0 2.950432 1_555
Mg1 Ni0 2.950432 1_455
Mg1 Mg5 3.169864 1_465
Mg1 Mg5 3.169864 1_565
Mg1 Mg8 3.179032 1_554
Mg1 Mg2 3.490092 1_565
Mg2 Mg5 3.086450 1_555
Mg2 Mg5 3.086450 1_455
Mg2 Mg3 3.100083 1_545
Mg2 Mg4 3.100083 1_455
Mg2 Mg3 3.100083 1_445
Mg2 Mg4 3.100083 1_555
Mg2 Mg6 3.179032 1_545
Mg2 Mg7 3.179032 1_555
Mg3 Ni1 2.726997 1_565
Mg3 Mg6 2.936470 1_655
Mg3 Mg6 2.936470 1_555
Mg3 Mg4 3.007368 1_565
Mg3 Mg4 3.245008 1_555
Mg3 Mg5 3.401954 1_565
Mg4 Ni1 2.726997 1_555
Mg4 Mg7 2.936470 1_555
Mg4 Mg7 2.936470 1_655
Mg4 Mg5 3.401954 1_555
Mg5 Ni0 3.176686 1_545
Mg5 Ni0 3.176686 1_555
Mg5 Mg9 3.270040 1_554
Mg6 Ni1 2.950432 1_465
Mg6 Ni1 2.950432 1_565
Mg6 Mg7 3.033053 1_565
Mg6 Mg7 3.219323 1_555
Mg6 Mg8 3.490092 1_555
Mg7 Ni1 2.950432 1_455
Mg7 Ni1 2.950432 1_555
Mg7 Mg8 3.490092 1_555
Mg8 Mg9 3.100083 1_455
Mg8 Mg9 3.100083 1_555
Mg9 Ni0 2.726997 1_556
Mg10 Ni0 2.726997 1_556
Mg10 Mg9 3.007368 1_555
Mg10 Mg8 3.100083 1_555
Mg10 Mg8 3.100083 1_655
Mg10 Mg9 3.245008 1_565
Mg10 Mg5 3.270040 1_566
Mg10 Mg11 3.401954 1_555
Mg11 Mg8 3.086450 1_555
Mg11 Mg8 3.086450 1_655
Mg11 Mg6 3.169864 1_655
Mg11 Mg7 3.169864 1_655
Mg11 Mg6 3.169864 1_555
Mg11 Mg7 3.169864 1_555
Mg11 Ni1 3.176686 1_565
Mg11 Ni1 3.176686 1_555
Mg11 Mg3 3.270040 1_555
Mg11 Mg4 3.270040 1_555
Mg11 Mg9 3.401954 1_555
