# generated using pymatgen
data_ErH2C2SNO9
_symmetry_space_group_name_H-M   'P 1'
_cell_length_a   8.68496600
_cell_length_b   6.59797000
_cell_length_c   15.31655383
_cell_angle_alpha   66.51932361
_cell_angle_beta   90.00000000
_cell_angle_gamma   90.00000000
_symmetry_Int_Tables_number   1
_chemical_formula_structural   ErH2C2SNO9
_chemical_formula_sum   'Er4 H8 C8 S4 N4 O36'
_cell_volume   805.00942415
_cell_formula_units_Z   4
loop_
 _symmetry_equiv_pos_site_id
 _symmetry_equiv_pos_as_xyz
  1  'x, y, z'
loop_
 _atom_site_type_symbol
 _atom_site_label
 _atom_site_symmetry_multiplicity
 _atom_site_fract_x
 _atom_site_fract_y
 _atom_site_fract_z
 _atom_site_occupancy
  Er  Er0  1  0.73201500  0.33016000  0.41585600  1
  Er  Er1  1  0.76798500  0.33016000  0.91585600  1
  Er  Er2  1  0.26798500  0.66984000  0.58414400  1
  Er  Er3  1  0.23201500  0.66984000  0.08414400  1
  H  H0  1  0.88783200  0.20458200  0.59422000  1
  H  H1  1  0.61216800  0.20458200  0.09422000  1
  H  H2  1  0.11216800  0.79541800  0.40578000  1
  H  H3  1  0.38783200  0.79541800  0.90578000  1
  H  H4  1  0.02995800  0.25815400  0.52707500  1
  H  H5  1  0.47004200  0.25815400  0.02707500  1
  H  H6  1  0.97004200  0.74184600  0.47292500  1
  H  H7  1  0.52995800  0.74184600  0.97292500  1
  C  C0  1  0.02520400  0.61133200  0.27386200  1
  C  C1  1  0.47479600  0.61133200  0.77386200  1
  C  C2  1  0.97479600  0.38866800  0.72613800  1
  C  C3  1  0.52520400  0.38866800  0.22613800  1
  C  C4  1  0.02102200  0.34237100  0.26429600  1
  C  C5  1  0.47897800  0.34237100  0.76429600  1
  C  C6  1  0.97897800  0.65762900  0.73570400  1
  C  C7  1  0.52102200  0.65762900  0.23570400  1
  S  S0  1  0.33482400  0.26628700  0.47437300  1
  S  S1  1  0.16517600  0.26628700  0.97437300  1
  S  S2  1  0.66517600  0.73371300  0.52562700  1
  S  S3  1  0.83482400  0.73371300  0.02562700  1
  N  N0  1  0.83249400  0.04918900  0.18426100  1
  N  N1  1  0.66750600  0.04918900  0.68426100  1
  N  N2  1  0.16750600  0.95081100  0.81573900  1
  N  N3  1  0.33249400  0.95081100  0.31573900  1
  O  O0  1  0.50600400  0.27088100  0.48533300  1
  O  O1  1  0.99399600  0.27088100  0.98533300  1
  O  O2  1  0.49399600  0.72911900  0.51466700  1
  O  O3  1  0.00600400  0.72911900  0.01466700  1
  O  O4  1  0.26173400  0.41923800  0.51308500  1
  O  O5  1  0.23826600  0.41923800  0.01308500  1
  O  O6  1  0.73826600  0.58076200  0.48691500  1
  O  O7  1  0.76173400  0.58076200  0.98691500  1
  O  O8  1  0.29384500  0.33247200  0.37407600  1
  O  O9  1  0.20615500  0.33247200  0.87407600  1
  O  O10  1  0.70615500  0.66752800  0.62592400  1
  O  O11  1  0.79384500  0.66752800  0.12592400  1
  O  O12  1  0.27786000  0.04019900  0.53403900  1
  O  O13  1  0.22214000  0.04019900  0.03403900  1
  O  O14  1  0.72214000  0.95980100  0.46596100  1
  O  O15  1  0.77786000  0.95980100  0.96596100  1
  O  O16  1  0.93904500  0.60820700  0.33797700  1
  O  O17  1  0.56095500  0.60820700  0.83797700  1
  O  O18  1  0.06095500  0.39179300  0.66202300  1
  O  O19  1  0.43904500  0.39179300  0.16202300  1
  O  O20  1  0.93392500  0.21930600  0.32530000  1
  O  O21  1  0.56607500  0.21930600  0.82530000  1
  O  O22  1  0.06607500  0.78069400  0.67470000  1
  O  O23  1  0.43392500  0.78069400  0.17470000  1
  O  O24  1  0.10556700  0.34743300  0.19932600  1
  O  O25  1  0.39443300  0.34743300  0.69932600  1
  O  O26  1  0.89443300  0.65256700  0.80067400  1
  O  O27  1  0.60556700  0.65256700  0.30067400  1
  O  O28  1  0.11521200  0.73580800  0.21512600  1
  O  O29  1  0.38478800  0.73580800  0.71512600  1
  O  O30  1  0.88478800  0.26419200  0.78487400  1
  O  O31  1  0.61521200  0.26419200  0.28487400  1
  O  O32  1  0.92209000  0.21088300  0.53250100  1
  O  O33  1  0.57791000  0.21088300  0.03250100  1
  O  O34  1  0.07791000  0.78911700  0.46749900  1
  O  O35  1  0.42209000  0.78911700  0.96749900  1
loop_
_geom_bond_atom_site_label_1
_geom_bond_atom_site_label_2
_geom_bond_distance
_geom_bond_site_symmetry_2
Er0 O0 2.192415 1_555
Er0 O14 2.252371 1_545
Er0 O6 2.314200 1_555
Er0 O32 2.327224 1_555
Er0 O27 2.419289 1_555
Er0 O31 2.437040 1_555
Er0 O16 2.505509 1_555
Er0 O20 2.518374 1_555
Er1 O1 2.192415 1_555
Er1 O15 2.252371 1_545
Er1 O7 2.314200 1_555
Er1 O33 2.327224 1_556
Er1 O26 2.419289 1_555
Er1 O30 2.437040 1_555
Er1 O17 2.505509 1_555
Er1 O21 2.518374 1_555
Er2 O2 2.192415 1_555
Er2 O12 2.252371 1_565
Er2 O4 2.314200 1_555
Er2 O34 2.327224 1_555
Er2 O25 2.419289 1_555
Er2 O29 2.437040 1_555
Er2 O18 2.505509 1_555
Er2 O22 2.518374 1_555
Er3 O3 2.192415 1_555
Er3 O13 2.252371 1_565
Er3 O5 2.314200 1_555
Er3 O35 2.327224 1_554
Er3 O24 2.419289 1_555
Er3 O28 2.437040 1_555
Er3 O19 2.505509 1_555
Er3 O23 2.518374 1_555
H0 O32 0.975996 1_555
H1 O33 0.975996 1_555
H2 O34 0.975996 1_555
H3 O35 0.975996 1_555
H4 O32 0.980397 1_455
H5 O33 0.980397 1_555
H6 O34 0.980397 1_655
H7 O35 0.980397 1_555
C0 O28 1.227255 1_555
C0 O16 1.228247 1_455
C1 O29 1.227255 1_555
C1 O17 1.228247 1_555
C2 O30 1.227255 1_555
C2 O18 1.228247 1_655
C3 O31 1.227255 1_555
C3 O19 1.228247 1_555
C4 O20 1.224732 1_455
C4 O24 1.226393 1_555
C5 O21 1.224732 1_555
C5 O25 1.226393 1_555
C6 O22 1.224732 1_655
C6 O26 1.226393 1_555
C7 O23 1.224732 1_555
C7 O27 1.226393 1_555
O0 S0 1.497801 1_555
O1 S1 1.497801 1_655
O2 S2 1.497801 1_555
O3 S3 1.497801 1_455
O4 S0 1.499922 1_555
O5 S1 1.499922 1_554
O6 S2 1.499922 1_555
O7 S3 1.499922 1_556
O8 S0 1.463799 1_555
O9 S1 1.463799 1_555
O10 S2 1.463799 1_555
O11 S3 1.463799 1_555
O12 S0 1.489570 1_555
O13 S1 1.489570 1_554
O14 S2 1.489570 1_555
O15 S3 1.489570 1_556
