# generated using pymatgen
data_PuMn3
_symmetry_space_group_name_H-M   'P 1'
_cell_length_a   5.22627119
_cell_length_b   5.23252749
_cell_length_c   4.24284800
_cell_angle_alpha   90.00000000
_cell_angle_beta   90.00000000
_cell_angle_gamma   120.06523922
_symmetry_Int_Tables_number   1
_chemical_formula_structural   PuMn3
_chemical_formula_sum   'Pu2 Mn6'
_cell_volume   100.41664033
_cell_formula_units_Z   2
loop_
 _symmetry_equiv_pos_site_id
 _symmetry_equiv_pos_as_xyz
  1  'x, y, z'
loop_
 _atom_site_type_symbol
 _atom_site_label
 _atom_site_symmetry_multiplicity
 _atom_site_fract_x
 _atom_site_fract_y
 _atom_site_fract_z
 _atom_site_occupancy
  Pu  Pu0  1  0.33380800  0.66641900  0.75000100  1
  Pu  Pu1  1  0.66767400  0.33345800  0.25000000  1
  Mn  Mn0  1  0.16452400  0.32966400  0.25000000  1
  Mn  Mn1  1  0.67032300  0.83533000  0.25000000  1
  Mn  Mn2  1  0.16449300  0.83506500  0.25000000  1
  Mn  Mn3  1  0.83513400  0.67065900  0.75000100  1
  Mn  Mn4  1  0.32903300  0.16463800  0.75000100  1
  Mn  Mn5  1  0.83501000  0.16476500  0.75000100  1
loop_
_geom_bond_atom_site_label_1
_geom_bond_atom_site_label_2
_geom_bond_distance
_geom_bond_site_symmetry_2
Mn0 Mn1 2.582175 1_445
Mn0 Mn2 2.587922 1_545
Mn0 Mn5 2.592642 1_454
Mn0 Mn5 2.592649 1_455
Mn0 Mn4 2.594058 1_554
Mn0 Mn4 2.594065 1_555
Mn0 Pu1 2.606675 1_455
Mn0 Pu0 2.612672 1_554
Mn0 Pu0 2.612679 1_555
Mn0 Pu1 2.619709 1_555
Mn0 Mn1 2.642070 1_555
Mn0 Mn2 2.644606 1_555
Mn1 Mn2 2.583361 1_655
Mn1 Mn5 2.593464 1_564
Mn1 Mn5 2.593471 1_565
Mn1 Mn3 2.593918 1_554
Mn1 Mn3 2.593925 1_555
Mn1 Pu0 2.610976 1_554
Mn1 Pu0 2.610983 1_555
Mn1 Pu1 2.613432 1_565
Mn1 Pu1 2.619151 1_555
Mn1 Mn2 2.642910 1_555
Mn2 Mn3 2.592240 1_454
Mn2 Mn3 2.592247 1_455
Mn2 Mn4 2.593825 1_564
Mn2 Mn4 2.593832 1_565
Mn2 Pu1 2.608131 1_455
Mn2 Pu0 2.616210 1_554
Mn2 Pu0 2.616217 1_555
Mn2 Pu1 2.616294 1_565
Mn3 Mn4 2.580459 1_665
Mn3 Mn5 2.585748 1_565
Mn3 Pu0 2.609021 1_555
Mn3 Pu1 2.613865 1_556
Mn3 Pu1 2.613872 1_555
Mn3 Pu0 2.617391 1_655
Mn3 Mn4 2.643786 1_555
Mn3 Mn5 2.646780 1_555
Mn4 Mn5 2.582231 1_455
Mn4 Pu0 2.613170 1_555
Mn4 Pu1 2.616594 1_556
Mn4 Pu1 2.616601 1_555
Mn4 Pu0 2.619536 1_545
Mn4 Mn5 2.644040 1_555
Mn5 Pu0 2.610956 1_545
Mn5 Pu1 2.611104 1_556
Mn5 Pu1 2.611111 1_555
Mn5 Pu0 2.613353 1_655
