# generated using pymatgen
data_Cs2EuCuCl6
_symmetry_space_group_name_H-M   'P 1'
_cell_length_a   7.50042200
_cell_length_b   7.50042201
_cell_length_c   7.50042197
_cell_angle_alpha   60.00000241
_cell_angle_beta   59.99999987
_cell_angle_gamma   60.00000003
_symmetry_Int_Tables_number   1
_chemical_formula_structural   Cs2EuCuCl6
_chemical_formula_sum   'Cs2 Eu1 Cu1 Cl6'
_cell_volume   298.36103537
_cell_formula_units_Z   1
loop_
 _symmetry_equiv_pos_site_id
 _symmetry_equiv_pos_as_xyz
  1  'x, y, z'
loop_
 _atom_site_type_symbol
 _atom_site_label
 _atom_site_symmetry_multiplicity
 _atom_site_fract_x
 _atom_site_fract_y
 _atom_site_fract_z
 _atom_site_occupancy
  Cs  Cs0  1  0.25000000  0.25000000  0.25000000  1
  Cs  Cs1  1  0.75000000  0.75000000  0.75000000  1
  Eu  Eu0  1  0.00000000  0.00000000  0.00000000  1
  Cu  Cu0  1  0.50000000  0.50000000  0.50000000  1
  Cl  Cl0  1  0.26155100  0.73844900  0.26155100  1
  Cl  Cl1  1  0.73844900  0.73844900  0.26155100  1
  Cl  Cl2  1  0.73844900  0.26155100  0.73844900  1
  Cl  Cl3  1  0.73844900  0.26155100  0.26155100  1
  Cl  Cl4  1  0.26155100  0.73844900  0.73844900  1
  Cl  Cl5  1  0.26155100  0.26155100  0.73844900  1
loop_
_geom_bond_atom_site_label_1
_geom_bond_atom_site_label_2
_geom_bond_distance
_geom_bond_site_symmetry_2
Cl0 Cu0 2.529276 1_555
Cl0 Eu0 2.774323 1_565
Cl0 Cs1 3.752212 1_455
Cl0 Cs1 3.752212 1_554
Cl0 Cs0 3.752212 1_555
Cl0 Cs0 3.752212 1_565
Cl1 Cu0 2.529276 1_555
Cl1 Eu0 2.774323 1_665
Cl1 Cs1 3.752212 1_555
Cl1 Cs1 3.752212 1_554
Cl1 Cs0 3.752212 1_655
Cl1 Cs0 3.752212 1_565
Cl2 Cu0 2.529276 1_555
Cl2 Eu0 2.774323 1_656
Cl2 Cs0 3.752212 1_655
Cl2 Cs0 3.752212 1_556
Cl2 Cs1 3.752212 1_555
Cl2 Cs1 3.752212 1_545
Cl3 Cu0 2.529276 1_555
Cl3 Eu0 2.774323 1_655
Cl3 Cs0 3.752212 1_555
Cl3 Cs0 3.752212 1_655
Cl3 Cs1 3.752212 1_554
Cl3 Cs1 3.752212 1_545
Cl4 Cu0 2.529276 1_555
Cl4 Eu0 2.774323 1_566
Cl4 Cs1 3.752212 1_455
Cl4 Cs1 3.752212 1_555
Cl4 Cs0 3.752212 1_556
Cl4 Cs0 3.752212 1_565
Cl5 Cu0 2.529276 1_555
Cl5 Eu0 2.774323 1_556
Cl5 Cs0 3.752212 1_555
Cl5 Cs0 3.752212 1_556
Cl5 Cs1 3.752212 1_455
Cl5 Cs1 3.752212 1_545
