# generated using pymatgen
data_LiB(SO4)2
_symmetry_space_group_name_H-M   'P 1'
_cell_length_a   9.55410200
_cell_length_b   7.79267100
_cell_length_c   8.58042475
_cell_angle_alpha   87.67545240
_cell_angle_beta   90.00000000
_cell_angle_gamma   90.00000000
_symmetry_Int_Tables_number   1
_chemical_formula_structural   LiB(SO4)2
_chemical_formula_sum   'Li4 B4 S8 O32'
_cell_volume   638.30387007
_cell_formula_units_Z   4
loop_
 _symmetry_equiv_pos_site_id
 _symmetry_equiv_pos_as_xyz
  1  'x, y, z'
loop_
 _atom_site_type_symbol
 _atom_site_label
 _atom_site_symmetry_multiplicity
 _atom_site_fract_x
 _atom_site_fract_y
 _atom_site_fract_z
 _atom_site_occupancy
  Li  Li0  1  0.87639100  0.23758700  0.46585500  1
  Li  Li1  1  0.12360900  0.23758700  0.96585500  1
  Li  Li2  1  0.33182900  0.72191400  0.13112200  1
  Li  Li3  1  0.66817100  0.72191400  0.63112200  1
  B  B0  1  0.60236100  0.21855500  0.98262200  1
  B  B1  1  0.39763900  0.21855500  0.48262200  1
  B  B2  1  0.14662100  0.73325000  0.60304400  1
  B  B3  1  0.85337900  0.73325000  0.10304400  1
  S  S0  1  0.62374300  0.57227500  0.98595100  1
  S  S1  1  0.37625700  0.57227500  0.48595100  1
  S  S2  1  0.61203800  0.12089200  0.67871500  1
  S  S3  1  0.38796200  0.12089200  0.17871500  1
  S  S4  1  0.94157000  0.64571000  0.40262500  1
  S  S5  1  0.05843000  0.64571000  0.90262500  1
  S  S6  1  0.16180800  0.08437700  0.62113200  1
  S  S7  1  0.83819200  0.08437700  0.12113200  1
  O  O0  1  0.67670900  0.57457100  0.82825000  1
  O  O1  1  0.32329100  0.57457100  0.32825000  1
  O  O2  1  0.51065300  0.68725700  0.01898700  1
  O  O3  1  0.48934700  0.68725700  0.51898700  1
  O  O4  1  0.70836200  0.23412900  0.59554500  1
  O  O5  1  0.29163800  0.23412900  0.09554500  1
  O  O6  1  0.66106200  0.95119700  0.72406800  1
  O  O7  1  0.33893800  0.95119700  0.22406800  1
  O  O8  1  0.96588700  0.46505900  0.43565300  1
  O  O9  1  0.03411300  0.46505900  0.93565300  1
  O  O10  1  0.81350600  0.71778000  0.46102800  1
  O  O11  1  0.18649400  0.71778000  0.96102800  1
  O  O12  1  0.01762400  0.08993400  0.57157700  1
  O  O13  1  0.98237600  0.08993400  0.07157700  1
  O  O14  1  0.19631600  0.16034400  0.76634700  1
  O  O15  1  0.80368400  0.16034400  0.26634700  1
  O  O16  1  0.57502800  0.39131100  0.03975500  1
  O  O17  1  0.42497200  0.39131100  0.53975500  1
  O  O18  1  0.74555200  0.59731400  0.10344300  1
  O  O19  1  0.25444800  0.59731400  0.60344300  1
  O  O20  1  0.55307300  0.21337200  0.82026000  1
  O  O21  1  0.44692700  0.21337200  0.32026000  1
  O  O22  1  0.47758000  0.09572100  0.58285000  1
  O  O23  1  0.52242000  0.09572100  0.08285000  1
  O  O24  1  0.04363800  0.68481700  0.72563900  1
  O  O25  1  0.95636200  0.68481700  0.22563900  1
  O  O26  1  0.06961200  0.75075100  0.45435300  1
  O  O27  1  0.93038800  0.75075100  0.95435300  1
  O  O28  1  0.75200600  0.17095800  0.98713900  1
  O  O29  1  0.24799400  0.17095800  0.48713900  1
  O  O30  1  0.21759000  0.89778600  0.62910900  1
  O  O31  1  0.78241000  0.89778600  0.12910900  1
loop_
_geom_bond_atom_site_label_1
_geom_bond_atom_site_label_2
_geom_bond_distance
_geom_bond_site_symmetry_2
Li0 O4 1.952897 1_555
Li0 O15 1.964414 1_555
Li0 O12 1.970507 1_655
Li0 O8 1.975645 1_555
Li1 O5 1.952897 1_556
Li1 O14 1.964414 1_555
Li1 O13 1.970507 1_456
Li1 O9 1.975645 1_555
Li2 O2 1.984632 1_555
Li2 O7 1.987116 1_555
Li2 O1 2.007097 1_555
Li2 O11 2.015686 1_554
Li3 O3 1.984632 1_555
Li3 O6 1.987116 1_555
Li3 O0 2.007097 1_555
Li3 O10 2.015686 1_555
B0 O20 1.472674 1_555
B0 O23 1.473906 1_556
B0 O16 1.474581 1_556
B0 O28 1.477166 1_555
B1 O21 1.472674 1_555
B1 O22 1.473906 1_555
B1 O17 1.474581 1_555
B1 O29 1.477166 1_555
B2 O26 1.474301 1_555
B2 O30 1.475465 1_555
B2 O19 1.477544 1_555
B2 O24 1.478124 1_555
B3 O27 1.474301 1_554
B3 O31 1.475465 1_555
B3 O18 1.477544 1_555
B3 O25 1.478124 1_555
O0 S0 1.444101 1_555
O1 S1 1.444101 1_555
O2 S0 1.439175 1_554
O3 S1 1.439175 1_555
O4 S2 1.443532 1_555
O5 S3 1.443532 1_555
O6 S2 1.441442 1_565
O7 S3 1.441442 1_565
O8 S4 1.443501 1_555
O9 S5 1.443501 1_555
O10 S4 1.444441 1_555
O11 S5 1.444441 1_555
O12 S6 1.441811 1_555
O13 S7 1.441811 1_555
O14 S6 1.439275 1_555
O15 S7 1.439275 1_555
O16 S0 1.538046 1_554
O17 S1 1.538046 1_555
O18 S0 1.557155 1_554
O19 S1 1.557155 1_555
O20 S2 1.543626 1_555
O21 S3 1.543626 1_555
O22 S2 1.542217 1_555
O23 S3 1.542217 1_555
O24 S5 1.543209 1_555
O25 S4 1.543209 1_555
O26 S4 1.546940 1_455
O27 S5 1.546940 1_655
O28 S7 1.546666 1_556
O29 S6 1.546666 1_555
O30 S6 1.547541 1_565
O31 S7 1.547541 1_565
