# generated using pymatgen
data_Cu2(ReS2)3
_symmetry_space_group_name_H-M   'P 1'
_cell_length_a   9.33777720
_cell_length_b   9.33777720
_cell_length_c   11.77320421
_cell_angle_alpha   87.80687583
_cell_angle_beta   87.80687583
_cell_angle_gamma   61.69441367
_symmetry_Int_Tables_number   1
_chemical_formula_structural   Cu2(ReS2)3
_chemical_formula_sum   'Cu8 Re12 S24'
_cell_volume   902.91158657
_cell_formula_units_Z   4
loop_
 _symmetry_equiv_pos_site_id
 _symmetry_equiv_pos_as_xyz
  1  'x, y, z'
loop_
 _atom_site_type_symbol
 _atom_site_label
 _atom_site_symmetry_multiplicity
 _atom_site_fract_x
 _atom_site_fract_y
 _atom_site_fract_z
 _atom_site_occupancy
  Cu  Cu0  1  0.60417400  0.39582600  0.25000000  1
  Cu  Cu1  1  0.39582600  0.60417400  0.75000000  1
  Cu  Cu2  1  0.90656400  0.09343600  0.25000000  1
  Cu  Cu3  1  0.09343600  0.90656400  0.75000000  1
  Cu  Cu4  1  0.86945100  0.31594500  0.09930000  1
  Cu  Cu5  1  0.68405500  0.13054900  0.40070000  1
  Cu  Cu6  1  0.13054900  0.68405500  0.90070000  1
  Cu  Cu7  1  0.31594500  0.86945100  0.59930000  1
  Re  Re0  1  0.98104800  0.70191800  0.46638000  1
  Re  Re1  1  0.29808200  0.01895200  0.03362000  1
  Re  Re2  1  0.01895200  0.29808200  0.53362000  1
  Re  Re3  1  0.70191800  0.98104800  0.96638000  1
  Re  Re4  1  0.88251800  0.51821700  0.37179100  1
  Re  Re5  1  0.48178300  0.11748200  0.12820900  1
  Re  Re6  1  0.11748200  0.48178300  0.62820900  1
  Re  Re7  1  0.51821700  0.88251800  0.87179100  1
  Re  Re8  1  0.19379300  0.40413500  0.41357400  1
  Re  Re9  1  0.59586500  0.80620800  0.08642600  1
  Re  Re10  1  0.80620800  0.59586500  0.58642600  1
  Re  Re11  1  0.40413500  0.19379200  0.91357400  1
  S  S0  1  0.97347400  0.94465400  0.92617600  1
  S  S1  1  0.05534600  0.02652600  0.57382400  1
  S  S2  1  0.02652600  0.05534600  0.07382400  1
  S  S3  1  0.94465400  0.97347400  0.42617600  1
  S  S4  1  0.91925300  0.75709200  0.66556400  1
  S  S5  1  0.24290800  0.08074700  0.83443600  1
  S  S6  1  0.08074700  0.24290800  0.33443600  1
  S  S7  1  0.75709200  0.91925300  0.16556400  1
  S  S8  1  0.20875700  0.30377600  0.06899800  1
  S  S9  1  0.69622400  0.79124300  0.43100200  1
  S  S10  1  0.79124300  0.69622400  0.93100200  1
  S  S11  1  0.30377600  0.20875700  0.56899800  1
  S  S12  1  0.94486900  0.38734600  0.72722700  1
  S  S13  1  0.61265400  0.05513100  0.77277300  1
  S  S14  1  0.05513100  0.61265400  0.27277300  1
  S  S15  1  0.38734600  0.94486900  0.22722700  1
  S  S16  1  0.73288800  0.41443300  0.49316700  1
  S  S17  1  0.58556700  0.26711200  0.00683300  1
  S  S18  1  0.26711200  0.58556700  0.50683300  1
  S  S19  1  0.41443300  0.73288800  0.99316700  1
  S  S20  1  0.72775300  0.53812900  0.19723500  1
  S  S21  1  0.46187100  0.27224700  0.30276500  1
  S  S22  1  0.27224700  0.46187100  0.80276500  1
  S  S23  1  0.53812900  0.72775300  0.69723500  1
loop_
_geom_bond_atom_site_label_1
_geom_bond_atom_site_label_2
_geom_bond_distance
_geom_bond_site_symmetry_2
Cu0 S20 2.195297 1_555
Cu0 S21 2.195297 1_555
Cu1 S23 2.195297 1_555
Cu1 S22 2.195297 1_555
Cu2 S3 2.276889 1_545
Cu2 S2 2.276889 1_655
Cu2 S6 2.822153 1_655
Cu2 S7 2.822153 1_545
Cu3 S0 2.276889 1_455
Cu3 S1 2.276889 1_565
Cu3 S5 2.822153 1_565
Cu3 S4 2.822153 1_455
Cu4 S2 2.190925 1_655
Cu4 S20 2.201708 1_555
Cu5 S3 2.190925 1_545
Cu5 S21 2.201708 1_555
Cu6 S0 2.190925 1_455
Cu6 S22 2.201708 1_555
Cu7 S1 2.190925 1_565
Cu7 S23 2.201708 1_555
Re0 S4 2.409264 1_555
Re0 S14 2.418009 1_655
Re0 S18 2.418275 1_655
Re0 S3 2.423361 1_555
Re0 S9 2.428413 1_555
Re1 S5 2.409264 1_554
Re1 S15 2.418009 1_545
Re1 S19 2.418275 1_544
Re1 S2 2.423361 1_555
Re1 S8 2.428413 1_555
Re2 S6 2.409264 1_555
Re2 S12 2.418009 1_455
Re2 S16 2.418275 1_455
Re2 S1 2.423361 1_555
Re2 S11 2.428413 1_555
Re3 S7 2.409264 1_556
Re3 S13 2.418009 1_565
Re3 S17 2.418275 1_566
Re3 S0 2.423361 1_555
Re3 S10 2.428413 1_555
Re4 S6 2.395835 1_655
Re4 S9 2.418494 1_555
Re4 S14 2.420752 1_655
Re4 S16 2.441042 1_555
Re4 S20 2.507921 1_555
Re5 S7 2.395835 1_545
Re5 S8 2.418494 1_555
Re5 S15 2.420752 1_545
Re5 S17 2.441042 1_555
Re5 S21 2.507921 1_555
Re6 S4 2.395835 1_455
Re6 S11 2.418494 1_555
Re6 S12 2.420752 1_455
Re6 S18 2.441042 1_555
Re6 S22 2.507921 1_555
Re7 S5 2.395835 1_565
Re7 S10 2.418494 1_555
Re7 S13 2.420752 1_565
Re7 S19 2.441042 1_555
Re7 S23 2.507921 1_555
Re8 S14 2.396240 1_555
Re8 S11 2.417211 1_555
Re8 S18 2.417506 1_555
Re8 S6 2.436935 1_555
Re8 S21 2.536590 1_555
Re9 S15 2.396238 1_555
Re9 S10 2.417211 1_554
Re9 S19 2.417512 1_554
Re9 S7 2.436928 1_555
Re9 S20 2.536597 1_555
Re10 S12 2.396238 1_555
Re10 S9 2.417211 1_555
Re10 S16 2.417512 1_555
Re10 S4 2.436928 1_555
Re10 S23 2.536597 1_555
Re11 S13 2.396238 1_555
Re11 S8 2.417211 1_556
Re11 S17 2.417512 1_556
Re11 S5 2.436928 1_555
Re11 S22 2.536597 1_555
S0 S2 2.241526 1_666
S1 S3 2.241526 1_445
