# generated using pymatgen
data_ZnH12C2S2N4(ClO2)2
_symmetry_space_group_name_H-M   'P 1'
_cell_length_a   14.47210800
_cell_length_b   4.93624800
_cell_length_c   9.39123100
_cell_angle_alpha   90.00000000
_cell_angle_beta   90.00000000
_cell_angle_gamma   90.00000000
_symmetry_Int_Tables_number   1
_chemical_formula_structural   ZnH12C2S2N4(ClO2)2
_chemical_formula_sum   'Zn2 H24 C4 S4 N8 Cl4 O8'
_cell_volume   670.88995414
_cell_formula_units_Z   2
loop_
 _symmetry_equiv_pos_site_id
 _symmetry_equiv_pos_as_xyz
  1  'x, y, z'
loop_
 _atom_site_type_symbol
 _atom_site_label
 _atom_site_symmetry_multiplicity
 _atom_site_fract_x
 _atom_site_fract_y
 _atom_site_fract_z
 _atom_site_occupancy
  Zn  Zn0  1  0.00000000  0.41001900  0.33705600  1
  Zn  Zn1  1  0.50000000  0.58998100  0.83705600  1
  H  H0  1  0.63026000  0.24392100  0.26814500  1
  H  H1  1  0.36974000  0.24392100  0.26814500  1
  H  H2  1  0.86974000  0.75607900  0.76814500  1
  H  H3  1  0.13026000  0.75607900  0.76814500  1
  H  H4  1  0.58740400  0.01040000  0.40185500  1
  H  H5  1  0.41259600  0.01040000  0.40185500  1
  H  H6  1  0.91259600  0.98960000  0.90185500  1
  H  H7  1  0.08740400  0.98960000  0.90185500  1
  H  H8  1  0.66927000  0.26465000  0.45136200  1
  H  H9  1  0.33073000  0.26465000  0.45136200  1
  H  H10  1  0.83073000  0.73535000  0.95136200  1
  H  H11  1  0.16927000  0.73535000  0.95136200  1
  H  H12  1  0.83382700  0.15353000  0.19342000  1
  H  H13  1  0.16617300  0.15353000  0.19342000  1
  H  H14  1  0.66617300  0.84647000  0.69342000  1
  H  H15  1  0.33382700  0.84647000  0.69342000  1
  H  H16  1  0.83322800  0.36303300  0.43720100  1
  H  H17  1  0.16677200  0.36303300  0.43720100  1
  H  H18  1  0.66677200  0.63696700  0.93720100  1
  H  H19  1  0.33322800  0.63696700  0.93720100  1
  H  H20  1  0.89233300  0.08199900  0.48049000  1
  H  H21  1  0.10766700  0.08199900  0.48049000  1
  H  H22  1  0.60766700  0.91800100  0.98049000  1
  H  H23  1  0.39233300  0.91800100  0.98049000  1
  C  C0  1  0.64668600  0.13027300  0.36518100  1
  C  C1  1  0.35331400  0.13027300  0.36518100  1
  C  C2  1  0.85331400  0.86972700  0.86518100  1
  C  C3  1  0.14668600  0.86972700  0.86518100  1
  S  S0  1  0.73532800  0.89223600  0.32736700  1
  S  S1  1  0.26467200  0.89223600  0.32736700  1
  S  S2  1  0.76467200  0.10776400  0.82736700  1
  S  S3  1  0.23532800  0.10776400  0.82736700  1
  N  N0  1  0.83355200  0.05607600  0.28980300  1
  N  N1  1  0.16644800  0.05607600  0.28980300  1
  N  N2  1  0.66644800  0.94392400  0.78980300  1
  N  N3  1  0.33355200  0.94392400  0.78980300  1
  N  N4  1  0.87609500  0.21289800  0.39877800  1
  N  N5  1  0.12390500  0.21289800  0.39877800  1
  N  N6  1  0.62390500  0.78710200  0.89877800  1
  N  N7  1  0.37609500  0.78710200  0.89877800  1
  Cl  Cl0  1  0.00000000  0.71778400  0.51672400  1
  Cl  Cl1  1  0.50000000  0.28221600  0.01672400  1
  Cl  Cl2  1  0.00000000  0.41885900  0.10078400  1
  Cl  Cl3  1  0.50000000  0.58114100  0.60078400  1
  O  O0  1  0.71349000  0.74710500  0.19826600  1
  O  O1  1  0.28651000  0.74710500  0.19826600  1
  O  O2  1  0.78651000  0.25289500  0.69826600  1
  O  O3  1  0.21349000  0.25289500  0.69826600  1
  O  O4  1  0.75380600  0.74302800  0.45785500  1
  O  O5  1  0.24619400  0.74302800  0.45785500  1
  O  O6  1  0.74619400  0.25697200  0.95785500  1
  O  O7  1  0.25380600  0.25697200  0.95785500  1
loop_
_geom_bond_atom_site_label_1
_geom_bond_atom_site_label_2
_geom_bond_distance
_geom_bond_site_symmetry_2
H12 N0 1.025055 1_555
H13 N1 1.025055 1_555
H14 N2 1.025055 1_555
H15 N3 1.025055 1_555
H16 N4 1.031652 1_555
H17 N5 1.031652 1_555
H18 N6 1.031652 1_555
H19 N7 1.031652 1_555
H20 N4 1.030340 1_555
H21 N5 1.030340 1_555
H22 N6 1.030340 1_555
H23 N7 1.030340 1_555
C0 H0 1.096207 1_555
C0 H8 1.096291 1_555
C0 H4 1.097639 1_555
C0 S0 1.775508 1_545
C1 H1 1.096207 1_555
C1 H9 1.096291 1_555
C1 H5 1.097639 1_555
C1 S1 1.775508 1_545
C2 H2 1.096207 1_555
C2 H10 1.096291 1_555
C2 H6 1.097639 1_555
C2 S2 1.775508 1_565
C3 H3 1.096207 1_555
C3 H11 1.096291 1_555
C3 H7 1.097639 1_555
C3 S3 1.775508 1_565
N0 N4 1.423266 1_555
N0 S0 1.673087 1_545
N1 N5 1.423266 1_555
N1 S1 1.673087 1_545
N2 N6 1.423266 1_555
N2 S2 1.673087 1_565
N3 N7 1.423266 1_555
N3 S3 1.673087 1_565
N4 Zn0 2.120905 1_655
N5 Zn0 2.120905 1_555
N6 Zn1 2.120905 1_555
N7 Zn1 2.120905 1_555
Cl0 Zn0 2.270457 1_555
Cl1 Zn1 2.270457 1_554
Cl2 Zn0 2.219314 1_555
Cl3 Zn1 2.219314 1_555
O0 S0 1.443285 1_555
O1 S1 1.443285 1_555
O2 S2 1.443285 1_555
O3 S3 1.443285 1_555
O4 S0 1.454543 1_555
O5 S1 1.454543 1_555
O6 S2 1.454543 1_555
O7 S3 1.454543 1_555
