# generated using pymatgen
data_La5Pb3C
_symmetry_space_group_name_H-M   'P 1'
_cell_length_a   9.72270206
_cell_length_b   9.72270206
_cell_length_c   6.86330000
_cell_angle_alpha   90.00000000
_cell_angle_beta   90.00000000
_cell_angle_gamma   120.00000044
_symmetry_Int_Tables_number   1
_chemical_formula_structural   La5Pb3C
_chemical_formula_sum   'La10 Pb6 C2'
_cell_volume   561.87222985
_cell_formula_units_Z   2
loop_
 _symmetry_equiv_pos_site_id
 _symmetry_equiv_pos_as_xyz
  1  'x, y, z'
loop_
 _atom_site_type_symbol
 _atom_site_label
 _atom_site_symmetry_multiplicity
 _atom_site_fract_x
 _atom_site_fract_y
 _atom_site_fract_z
 _atom_site_occupancy
  La  La0  1  0.21022400  0.00000000  0.25000000  1
  La  La1  1  0.78977600  0.00000000  0.75000000  1
  La  La2  1  0.00000000  0.21022400  0.25000000  1
  La  La3  1  0.00000000  0.78977600  0.75000000  1
  La  La4  1  0.78977600  0.78977600  0.25000000  1
  La  La5  1  0.21022400  0.21022400  0.75000000  1
  La  La6  1  0.33333300  0.66666700  0.00000000  1
  La  La7  1  0.66666700  0.33333300  0.00000000  1
  La  La8  1  0.66666700  0.33333300  0.50000000  1
  La  La9  1  0.33333300  0.66666700  0.50000000  1
  Pb  Pb0  1  0.59510100  0.00000000  0.25000000  1
  Pb  Pb1  1  0.40489900  0.00000000  0.75000000  1
  Pb  Pb2  1  0.00000000  0.59510100  0.25000000  1
  Pb  Pb3  1  0.00000000  0.40489900  0.75000000  1
  Pb  Pb4  1  0.40489900  0.40489900  0.25000000  1
  Pb  Pb5  1  0.59510100  0.59510100  0.75000000  1
  C  C0  1  0.00000000  0.00000000  0.00000000  1
  C  C1  1  0.00000000  0.00000000  0.50000000  1
loop_
_geom_bond_atom_site_label_1
_geom_bond_atom_site_label_2
_geom_bond_distance
_geom_bond_site_symmetry_2
La0 Pb2 3.410131 1_545
La0 Pb4 3.410131 1_555
La0 Pb0 3.742044 1_555
La0 Pb1 3.919029 1_554
La0 Pb1 3.919029 1_555
La1 Pb3 3.410131 1_655
La1 Pb5 3.410131 1_545
La1 Pb1 3.742044 1_555
La1 Pb0 3.919029 1_555
La1 Pb0 3.919029 1_556
La2 Pb0 3.410131 1_455
La2 Pb4 3.410131 1_555
La2 Pb2 3.742044 1_555
La2 Pb3 3.919029 1_555
La2 Pb3 3.919029 1_554
La3 Pb1 3.410131 1_565
La3 Pb5 3.410131 1_455
La3 Pb3 3.742044 1_555
La3 Pb2 3.919029 1_556
La3 Pb2 3.919029 1_555
La4 Pb0 3.410131 1_565
La4 Pb2 3.410131 1_655
La4 Pb4 3.742044 1_555
La4 Pb5 3.919029 1_555
La4 Pb5 3.919029 1_554
La5 Pb1 3.410131 1_555
La5 Pb3 3.410131 1_555
La5 Pb5 3.742044 1_555
La5 Pb4 3.919029 1_555
La5 Pb4 3.919029 1_556
La6 Pb1 3.417099 1_564
La6 Pb2 3.417099 1_555
La6 Pb0 3.417102 1_565
La6 Pb3 3.417102 1_554
La6 Pb5 3.417107 1_554
La6 Pb4 3.417107 1_555
La7 Pb3 3.417099 1_654
La7 Pb0 3.417099 1_555
La7 Pb2 3.417102 1_655
La7 Pb1 3.417102 1_554
La7 Pb4 3.417107 1_555
La7 Pb5 3.417107 1_554
La8 Pb3 3.417099 1_655
La8 Pb0 3.417099 1_555
La8 Pb1 3.417102 1_555
La8 Pb2 3.417102 1_655
La8 Pb4 3.417107 1_555
La8 Pb5 3.417107 1_555
La9 Pb1 3.417099 1_565
La9 Pb2 3.417099 1_555
La9 Pb0 3.417102 1_565
La9 Pb3 3.417102 1_555
La9 Pb5 3.417107 1_555
La9 Pb4 3.417107 1_555
C0 La4 2.668664 1_445
C0 La5 2.668664 1_554
C0 La3 2.668664 1_544
C0 La1 2.668664 1_454
C0 La2 2.668664 1_555
C0 La0 2.668664 1_555
C1 La4 2.668664 1_445
C1 La5 2.668664 1_555
C1 La1 2.668664 1_455
C1 La3 2.668664 1_545
C1 La2 2.668664 1_555
C1 La0 2.668664 1_555
