# generated using pymatgen
data_Cs4O3
_symmetry_space_group_name_H-M   'P 1'
_cell_length_a   8.06851100
_cell_length_b   8.06851100
_cell_length_c   8.06851100
_cell_angle_alpha   109.47122063
_cell_angle_beta   109.47122063
_cell_angle_gamma   109.47122063
_symmetry_Int_Tables_number   1
_chemical_formula_structural   Cs4O3
_chemical_formula_sum   'Cs8 O6'
_cell_volume   404.35079017
_cell_formula_units_Z   2
loop_
 _symmetry_equiv_pos_site_id
 _symmetry_equiv_pos_as_xyz
  1  'x, y, z'
loop_
 _atom_site_type_symbol
 _atom_site_label
 _atom_site_symmetry_multiplicity
 _atom_site_fract_x
 _atom_site_fract_y
 _atom_site_fract_z
 _atom_site_occupancy
  Cs  Cs0  1  0.09889600  0.00000000  0.50000000  1
  Cs  Cs1  1  0.00000000  0.50000000  0.09889600  1
  Cs  Cs2  1  0.50000000  0.09889600  0.00000000  1
  Cs  Cs3  1  0.40110400  0.40110400  0.40110400  1
  Cs  Cs4  1  0.00000000  0.50000000  0.59889600  1
  Cs  Cs5  1  0.59889600  0.00000000  0.50000000  1
  Cs  Cs6  1  0.50000000  0.59889600  0.00000000  1
  Cs  Cs7  1  0.90110400  0.90110400  0.90110400  1
  O  O0  1  0.37500000  0.75000000  0.62500000  1
  O  O1  1  0.12500000  0.25000000  0.87500000  1
  O  O2  1  0.75000000  0.62500000  0.37500000  1
  O  O3  1  0.25000000  0.87500000  0.12500000  1
  O  O4  1  0.62500000  0.37500000  0.75000000  1
  O  O5  1  0.87500000  0.12500000  0.25000000  1
loop_
_geom_bond_atom_site_label_1
_geom_bond_atom_site_label_2
_geom_bond_distance
_geom_bond_site_symmetry_2
Cs0 O1 2.913948 1_555
Cs0 O2 2.913948 1_445
Cs0 O5 2.913948 1_455
Cs0 O4 3.592077 1_555
Cs0 O3 3.592077 1_545
Cs0 O0 3.592077 1_545
Cs1 O4 2.913948 1_454
Cs1 O3 2.913948 1_555
Cs1 O1 2.913948 1_554
Cs1 O0 3.592077 1_555
Cs1 O5 3.592077 1_455
Cs1 O2 3.592077 1_455
Cs2 O0 2.913948 1_544
Cs2 O3 2.913948 1_545
Cs2 O5 2.913948 1_555
Cs2 O4 3.592077 1_554
Cs2 O1 3.592077 1_554
Cs2 O2 3.592077 1_555
Cs3 O4 2.913948 1_555
Cs3 O2 2.913948 1_555
Cs3 O0 2.913948 1_555
Cs3 O5 3.592077 1_455
Cs3 O1 3.592077 1_554
Cs3 O3 3.592077 1_545
Cs4 O2 2.913948 1_455
Cs4 O0 2.913948 1_555
Cs4 O5 2.913948 1_455
Cs4 O4 3.592077 1_455
Cs4 O1 3.592077 1_555
Cs4 O3 3.592077 1_556
Cs5 O0 2.913948 1_545
Cs5 O4 2.913948 1_555
Cs5 O3 2.913948 1_545
Cs5 O5 3.592077 1_555
Cs5 O1 3.592077 1_655
Cs5 O2 3.592077 1_545
Cs6 O4 2.913948 1_554
Cs6 O2 2.913948 1_555
Cs6 O1 2.913948 1_554
Cs6 O3 3.592077 1_555
Cs6 O5 3.592077 1_565
Cs6 O0 3.592077 1_554
Cs7 O1 2.913948 1_665
Cs7 O3 2.913948 1_656
Cs7 O5 2.913948 1_566
Cs7 O0 3.592077 1_555
Cs7 O4 3.592077 1_555
Cs7 O2 3.592077 1_555
