# generated using pymatgen
data_BaZnSnS4
_symmetry_space_group_name_H-M   'P 1'
_cell_length_a   15.59672473
_cell_length_b   12.91352939
_cell_length_c   12.61563225
_cell_angle_alpha   75.30454567
_cell_angle_beta   53.21419146
_cell_angle_gamma   51.48126287
_symmetry_Int_Tables_number   1
_chemical_formula_structural   BaZnSnS4
_chemical_formula_sum   'Ba8 Zn8 Sn8 S32'
_cell_volume   1563.05983804
_cell_formula_units_Z   8
loop_
 _symmetry_equiv_pos_site_id
 _symmetry_equiv_pos_as_xyz
  1  'x, y, z'
loop_
 _atom_site_type_symbol
 _atom_site_label
 _atom_site_symmetry_multiplicity
 _atom_site_fract_x
 _atom_site_fract_y
 _atom_site_fract_z
 _atom_site_occupancy
  Ba  Ba0  1  0.24604400  0.75070100  0.25243200  1
  Ba  Ba1  1  0.75082300  0.25243200  0.75070100  1
  Ba  Ba2  1  0.99756800  0.49917700  0.00395600  1
  Ba  Ba3  1  0.49929900  0.00395600  0.49917700  1
  Ba  Ba4  1  0.24976700  0.75023300  0.75023300  1
  Ba  Ba5  1  0.49976700  0.00023300  0.00023300  1
  Ba  Ba6  1  0.74732200  0.25267800  0.25267800  1
  Ba  Ba7  1  0.99732200  0.50267800  0.50267800  1
  Zn  Zn0  1  0.33671900  0.41276100  0.51736000  1
  Zn  Zn1  1  0.83723900  0.91328100  0.51684000  1
  Zn  Zn2  1  0.73264000  0.51684000  0.91328100  1
  Zn  Zn3  1  0.73316000  0.51736000  0.41276100  1
  Zn  Zn4  1  0.26504300  0.48442500  0.01425700  1
  Zn  Zn5  1  0.23627500  0.01425700  0.48442500  1
  Zn  Zn6  1  0.23574300  0.01372500  0.98495700  1
  Zn  Zn7  1  0.76557500  0.98495700  0.01372500  1
  Sn  Sn0  1  0.90482000  0.84501200  0.23611800  1
  Sn  Sn1  1  0.98412600  0.76440700  0.73983700  1
  Sn  Sn2  1  0.48559300  0.26587400  0.73837000  1
  Sn  Sn3  1  0.51016300  0.73837000  0.26587400  1
  Sn  Sn4  1  0.01405000  0.23611800  0.84501200  1
  Sn  Sn5  1  0.40498800  0.34518000  0.23595000  1
  Sn  Sn6  1  0.01388200  0.23595000  0.34518000  1
  Sn  Sn7  1  0.51163000  0.73983700  0.76440700  1
  S  S0  1  0.45194100  0.45933100  0.29770800  1
  S  S1  1  0.79102100  0.29770800  0.45933100  1
  S  S2  1  0.95229200  0.45897900  0.79805900  1
  S  S3  1  0.79066900  0.79805900  0.45897900  1
  S  S4  1  0.45405600  0.95670300  0.29557600  1
  S  S5  1  0.29366600  0.29557600  0.95670300  1
  S  S6  1  0.95442400  0.95633400  0.79594400  1
  S  S7  1  0.29329700  0.79594400  0.95633400  1
  S  S8  1  0.18684100  0.56121500  0.71867000  1
  S  S9  1  0.53327400  0.71867000  0.56121500  1
  S  S10  1  0.53133000  0.71672600  0.06315900  1
  S  S11  1  0.68878500  0.06315900  0.71672600  1
  S  S12  1  0.22208000  0.52632300  0.21503800  1
  S  S13  1  0.03655900  0.21503800  0.52632300  1
  S  S14  1  0.03496200  0.21344100  0.02792000  1
  S  S15  1  0.72367700  0.02792000  0.21344100  1
  S  S16  1  0.06654700  0.68189200  0.03238200  1
  S  S17  1  0.21917900  0.03238200  0.68189200  1
  S  S18  1  0.21761800  0.03082100  0.18345300  1
  S  S19  1  0.56810800  0.18345300  0.03082100  1
  S  S20  1  0.01698700  0.73119600  0.53599100  1
  S  S21  1  0.71582600  0.53599100  0.73119600  1
  S  S22  1  0.71400900  0.53417400  0.23301300  1
  S  S23  1  0.51880400  0.23301300  0.53417400  1
  S  S24  1  0.45327700  0.45823400  0.79843200  1
  S  S25  1  0.29005700  0.79843200  0.45823400  1
  S  S26  1  0.45156800  0.95994300  0.79672300  1
  S  S27  1  0.79176600  0.79672300  0.95994300  1
  S  S28  1  0.29190600  0.29625400  0.45743600  1
  S  S29  1  0.95440400  0.45743600  0.29625400  1
  S  S30  1  0.79256400  0.29559600  0.95809400  1
  S  S31  1  0.95374600  0.95809400  0.29559600  1
loop_
_geom_bond_atom_site_label_1
_geom_bond_atom_site_label_2
_geom_bond_distance
_geom_bond_site_symmetry_2
Ba0 S31 3.288152 1_455
Ba0 S0 3.294340 1_555
Ba0 S18 3.302482 1_565
Ba0 S7 3.312111 1_554
Ba0 S20 3.313774 1_555
Ba0 S12 3.318342 1_555
Ba0 S25 3.326487 1_555
Ba0 S10 3.326837 1_555
Ba1 S30 3.288152 1_555
Ba1 S1 3.294334 1_555
Ba1 S19 3.302482 1_556
Ba1 S6 3.312105 1_545
Ba1 S21 3.313774 1_555
Ba1 S13 3.318342 1_655
Ba1 S24 3.326487 1_555
Ba1 S11 3.326837 1_555
Ba2 S29 3.288152 1_555
Ba2 S2 3.294346 1_554
Ba2 S16 3.302482 1_655
Ba2 S5 3.312111 1_654
Ba2 S22 3.313774 1_555
Ba2 S14 3.318342 1_655
Ba2 S27 3.326487 1_554
Ba2 S8 3.326837 1_654
Ba3 S28 3.288152 1_555
Ba3 S3 3.294334 1_545
Ba3 S17 3.302482 1_555
Ba3 S4 3.312099 1_545
Ba3 S23 3.313774 1_555
Ba3 S15 3.318342 1_555
Ba3 S26 3.326487 1_545
Ba3 S9 3.326837 1_545
Ba4 S25 3.302090 1_555
Ba4 S24 3.302090 1_555
Ba4 S7 3.310879 1_555
Ba4 S6 3.310892 1_455
Ba4 S16 3.313621 1_556
Ba4 S17 3.313621 1_565
Ba4 S8 3.320343 1_555
Ba4 S9 3.320343 1_555
Ba5 S26 3.302090 1_544
Ba5 S27 3.302090 1_544
Ba5 S5 3.310886 1_554
Ba5 S4 3.310891 1_545
Ba5 S19 3.313621 1_555
Ba5 S18 3.313621 1_555
Ba5 S10 3.320343 1_545
Ba5 S11 3.320343 1_554
Ba6 S22 3.299980 1_555
Ba6 S23 3.299980 1_555
Ba6 S31 3.304215 1_545
Ba6 S30 3.304215 1_554
Ba6 S0 3.315147 1_555
Ba6 S1 3.315160 1_555
Ba6 S15 3.329535 1_555
Ba6 S14 3.329535 1_655
Ba7 S21 3.299980 1_555
Ba7 S20 3.299980 1_655
Ba7 S28 3.304215 1_655
Ba7 S29 3.304215 1_555
Ba7 S2 3.315148 1_555
Ba7 S3 3.315153 1_555
Ba7 S13 3.329535 1_655
Ba7 S12 3.329535 1_655
S0 Zn0 2.409651 1_555
S0 Sn5 2.434510 1_555
S1 Zn3 2.409648 1_555
S1 Sn6 2.434496 1_655
S2 Zn2 2.409646 1_555
S2 Sn4 2.434499 1_655
S3 Zn1 2.409659 1_555
S3 Sn0 2.434502 1_555
S4 Zn5 2.414122 1_565
S4 Sn3 2.434278 1_555
S5 Zn4 2.414112 1_556
S5 Sn2 2.434271 1_555
S6 Zn7 2.414118 1_556
S6 Sn1 2.434265 1_555
S7 Zn6 2.414125 1_565
S7 Sn7 2.434275 1_555
S8 Zn0 2.316844 1_555
S8 Sn1 2.442102 1_455
S9 Zn3 2.316844 1_555
S9 Sn7 2.442102 1_555
S10 Zn2 2.316844 1_554
S10 Sn3 2.442102 1_555
S11 Zn1 2.316844 1_545
S11 Sn2 2.442102 1_555
S12 Zn4 2.317048 1_555
S12 Sn5 2.440544 1_555
S13 Zn5 2.317048 1_555
S13 Sn6 2.440544 1_555
S14 Zn6 2.317048 1_554
S14 Sn4 2.440544 1_554
S15 Zn7 2.317048 1_545
S15 Sn0 2.440544 1_545
S16 Zn4 2.398827 1_555
S16 Sn0 2.402126 1_455
S17 Zn5 2.398827 1_555
S17 Sn4 2.402126 1_555
S18 Zn6 2.398827 1_554
S18 Sn6 2.402126 1_555
S19 Zn7 2.398827 1_545
S19 Sn5 2.402126 1_555
S20 Zn1 2.399821 1_455
S20 Sn1 2.401506 1_455
S21 Zn2 2.399821 1_555
S21 Sn7 2.401506 1_555
S22 Zn3 2.399821 1_555
S22 Sn3 2.401506 1_555
S23 Zn0 2.399821 1_555
S23 Sn2 2.401506 1_555
S24 Zn4 2.409130 1_556
S24 Sn2 2.436554 1_555
S25 Zn5 2.409130 1_565
S25 Sn3 2.436554 1_555
S26 Zn6 2.409130 1_565
S26 Sn7 2.436554 1_555
S27 Zn7 2.409130 1_556
S27 Sn1 2.436554 1_555
S28 Zn0 2.417277 1_555
S28 Sn5 2.430513 1_555
S29 Zn3 2.417277 1_555
S29 Sn6 2.430513 1_655
S30 Zn2 2.417277 1_555
S30 Sn4 2.430513 1_655
S31 Zn1 2.417277 1_555
S31 Sn0 2.430513 1_555
