# generated using pymatgen
data_HfMg14W
_symmetry_space_group_name_H-M   'P 1'
_cell_length_a   6.30725726
_cell_length_b   6.30725676
_cell_length_c   10.00693939
_cell_angle_alpha   90.00000000
_cell_angle_beta   90.00000000
_cell_angle_gamma   120.00000261
_symmetry_Int_Tables_number   1
_chemical_formula_structural   HfMg14W
_chemical_formula_sum   'Hf1 Mg14 W1'
_cell_volume   344.75688334
_cell_formula_units_Z   1
loop_
 _symmetry_equiv_pos_site_id
 _symmetry_equiv_pos_as_xyz
  1  'x, y, z'
loop_
 _atom_site_type_symbol
 _atom_site_label
 _atom_site_symmetry_multiplicity
 _atom_site_fract_x
 _atom_site_fract_y
 _atom_site_fract_z
 _atom_site_occupancy
  Hf  Hf0  1  0.16666700  0.33333300  0.62500000  1
  Mg  Mg0  1  0.16580304  0.83290102  0.12500000  1
  Mg  Mg1  1  0.17287850  0.83643875  0.62500000  1
  Mg  Mg2  1  0.66709898  0.33419696  0.12500000  1
  Mg  Mg3  1  0.66356125  0.32712150  0.62500000  1
  Mg  Mg4  1  0.66709898  0.83290102  0.12500000  1
  Mg  Mg5  1  0.66356125  0.83643875  0.62500000  1
  Mg  Mg6  1  0.32632997  0.17367003  0.36560166  1
  Mg  Mg7  1  0.32632997  0.17367003  0.88439834  1
  Mg  Mg8  1  0.32632997  0.65266095  0.36560166  1
  Mg  Mg9  1  0.32632997  0.65266095  0.88439834  1
  Mg  Mg10  1  0.84733905  0.17367003  0.36560166  1
  Mg  Mg11  1  0.84733905  0.17367003  0.88439834  1
  Mg  Mg12  1  0.83333300  0.66666700  0.37858622  1
  Mg  Mg13  1  0.83333300  0.66666700  0.87141378  1
  W  W0  1  0.16666700  0.33333300  0.12500000  1
loop_
_geom_bond_atom_site_label_1
_geom_bond_atom_site_label_2
_geom_bond_distance
_geom_bond_site_symmetry_2
Hf0 Mg6 3.127372 1_555
Hf0 Mg7 3.127372 1_555
Hf0 Mg8 3.127378 1_555
Hf0 Mg9 3.127378 1_555
Hf0 Mg10 3.127378 1_455
Hf0 Mg11 3.127378 1_455
Hf0 Mg1 3.153811 1_555
Hf0 Mg5 3.153811 1_555
Hf0 Mg5 3.153811 1_445
Hf0 Mg1 3.153811 1_545
Hf0 Mg3 3.153811 1_455
Hf0 Mg3 3.153811 1_555
Mg0 Mg9 3.043921 1_554
Mg0 Mg8 3.043921 1_555
Mg0 Mg7 3.043927 1_564
Mg0 Mg6 3.043927 1_565
Mg0 Mg13 3.120497 1_454
Mg0 Mg12 3.120497 1_455
Mg0 Mg2 3.145455 1_455
Mg0 Mg4 3.145455 1_455
Mg0 W0 3.153632 1_565
Mg0 W0 3.153632 1_555
Mg0 Mg2 3.161802 1_565
Mg0 Mg4 3.161802 1_555
Mg1 Mg12 3.085490 1_455
Mg1 Mg13 3.085490 1_455
Mg1 Mg3 3.094862 1_565
Mg1 Mg5 3.094862 1_555
Mg1 Mg8 3.184385 1_555
Mg1 Mg9 3.184385 1_555
Mg1 Mg6 3.184392 1_565
Mg1 Mg7 3.184392 1_565
Mg1 Mg3 3.212395 1_455
Mg1 Mg5 3.212395 1_455
Mg2 Mg7 3.043927 1_554
Mg2 Mg6 3.043927 1_555
Mg2 Mg4 3.145455 1_555
Mg2 W0 3.153632 1_655
Mg2 W0 3.153632 1_555
Mg2 Mg4 3.161802 1_545
Mg3 Mg5 3.094862 1_545
Mg3 Mg6 3.184392 1_555
Mg3 Mg7 3.184392 1_555
Mg3 Mg5 3.212395 1_555
Mg4 Mg9 3.043927 1_554
Mg4 Mg8 3.043927 1_555
Mg4 W0 3.153632 1_665
Mg4 W0 3.153632 1_555
Mg5 Mg8 3.184391 1_555
Mg5 Mg9 3.184391 1_555
Mg6 W0 2.973098 1_555
Mg7 W0 2.973098 1_556
Mg8 W0 2.973105 1_555
Mg9 W0 2.973105 1_556
Mg10 W0 2.973105 1_655
Mg10 Mg2 3.043921 1_555
Mg10 Mg4 3.043927 1_545
Mg10 Mg12 3.157231 1_555
Mg10 Mg12 3.157231 1_545
Mg10 Mg3 3.184385 1_555
Mg10 Mg5 3.184391 1_545
Mg11 W0 2.973105 1_656
Mg11 Mg2 3.043921 1_556
Mg11 Mg4 3.043927 1_546
Mg11 Mg13 3.157231 1_555
Mg11 Mg13 3.157231 1_545
Mg11 Mg3 3.184385 1_555
Mg11 Mg5 3.184391 1_545
Mg12 Mg5 3.085483 1_555
Mg12 Mg3 3.085489 1_555
Mg12 Mg4 3.120490 1_555
Mg12 Mg2 3.120497 1_555
Mg12 Mg6 3.157231 1_665
Mg12 Mg6 3.157231 1_555
Mg12 Mg8 3.157231 1_655
Mg12 Mg8 3.157231 1_555
Mg13 Mg5 3.085483 1_555
Mg13 Mg3 3.085489 1_555
Mg13 Mg4 3.120490 1_556
Mg13 Mg2 3.120497 1_556
Mg13 Mg7 3.157231 1_665
Mg13 Mg7 3.157231 1_555
Mg13 Mg9 3.157231 1_655
Mg13 Mg9 3.157231 1_555
