# generated using pymatgen
data_Dy(CrFe5)2
_symmetry_space_group_name_H-M   'P 1'
_cell_length_a   4.67584400
_cell_length_b   6.39946970
_cell_length_c   6.39946970
_cell_angle_alpha   97.19599534
_cell_angle_beta   111.42792879
_cell_angle_gamma   68.57207121
_symmetry_Int_Tables_number   1
_chemical_formula_structural   Dy(CrFe5)2
_chemical_formula_sum   'Dy1 Cr2 Fe10'
_cell_volume   165.92579958
_cell_formula_units_Z   1
loop_
 _symmetry_equiv_pos_site_id
 _symmetry_equiv_pos_as_xyz
  1  'x, y, z'
loop_
 _atom_site_type_symbol
 _atom_site_label
 _atom_site_symmetry_multiplicity
 _atom_site_fract_x
 _atom_site_fract_y
 _atom_site_fract_z
 _atom_site_occupancy
  Dy  Dy0  1  0.00000000  0.00000000  0.00000000  1
  Cr  Cr0  1  0.00000000  0.36774500  0.36774500  1
  Cr  Cr1  1  0.00000000  0.63225500  0.63225500  1
  Fe  Fe0  1  0.72588400  0.77411600  0.22588400  1
  Fe  Fe1  1  0.27411600  0.22588400  0.77411600  1
  Fe  Fe2  1  0.50000000  0.77178600  0.77178600  1
  Fe  Fe3  1  0.50000000  0.22821400  0.22821400  1
  Fe  Fe4  1  0.50000000  0.00000000  0.50000000  1
  Fe  Fe5  1  0.00000000  0.00000000  0.50000000  1
  Fe  Fe6  1  0.50000000  0.50000000  0.00000000  1
  Fe  Fe7  1  0.00000000  0.50000000  0.00000000  1
  Fe  Fe8  1  0.64069600  0.35930400  0.64069600  1
  Fe  Fe9  1  0.35930400  0.64069600  0.35930400  1
loop_
_geom_bond_atom_site_label_1
_geom_bond_atom_site_label_2
_geom_bond_distance
_geom_bond_site_symmetry_2
Dy0 Fe0 3.008817 1_545
Dy0 Fe1 3.008817 1_554
Dy0 Fe1 3.008817 1_454
Dy0 Fe0 3.008817 1_445
Dy0 Fe8 3.012648 1_454
Dy0 Fe9 3.012648 1_545
Dy0 Fe2 3.032713 1_444
Dy0 Fe3 3.032713 1_555
Dy0 Fe2 3.032713 1_544
Dy0 Fe3 3.032713 1_455
Dy0 Fe5 3.199735 1_555
Dy0 Fe7 3.199735 1_545
Dy0 Fe7 3.199735 1_555
Dy0 Fe6 3.199735 1_545
Dy0 Fe4 3.199735 1_555
Dy0 Fe4 3.199735 1_454
Dy0 Fe6 3.199735 1_455
Dy0 Fe5 3.199735 1_554
Cr0 Cr1 2.238925 1_555
Cr0 Fe1 2.556506 1_555
Cr0 Fe0 2.556506 1_455
Cr0 Fe6 2.598787 1_455
Cr0 Fe4 2.598787 1_555
Cr0 Fe7 2.598787 1_555
Cr0 Fe5 2.598787 1_555
Cr0 Fe3 2.619305 1_455
Cr0 Fe3 2.619305 1_555
Cr0 Fe8 2.847937 1_555
Cr0 Fe9 2.847937 1_555
Cr0 Fe8 2.847937 1_455
Cr0 Fe9 2.847937 1_455
Cr0 Dy0 3.112750 1_555
Cr1 Fe0 2.556506 1_455
Cr1 Fe1 2.556506 1_555
Cr1 Fe6 2.598787 1_556
Cr1 Fe4 2.598787 1_465
Cr1 Fe5 2.598787 1_565
Cr1 Fe7 2.598787 1_556
Cr1 Fe2 2.619305 1_555
Cr1 Fe2 2.619305 1_455
Cr1 Fe9 2.847937 1_555
Cr1 Fe8 2.847937 1_555
Cr1 Fe9 2.847937 1_455
Cr1 Fe8 2.847937 1_455
Cr1 Dy0 3.112750 1_566
Fe0 Fe6 2.425956 1_555
Fe0 Fe7 2.425956 1_655
Fe0 Fe4 2.425956 1_565
Fe0 Fe5 2.425956 1_665
Fe0 Fe9 2.591782 1_655
Fe0 Fe9 2.591782 1_555
Fe0 Fe2 2.705285 1_554
Fe0 Fe3 2.705285 1_565
Fe1 Fe5 2.425956 1_555
Fe1 Fe4 2.425956 1_555
Fe1 Fe7 2.425956 1_556
Fe1 Fe6 2.425956 1_556
Fe1 Fe8 2.591782 1_555
Fe1 Fe8 2.591782 1_455
Fe1 Fe2 2.705285 1_545
Fe1 Fe3 2.705285 1_556
Fe2 Fe7 2.407156 1_656
Fe2 Fe4 2.407156 1_565
Fe2 Fe5 2.407156 1_565
Fe2 Fe6 2.407156 1_556
Fe2 Fe8 2.585349 1_555
Fe2 Fe9 2.585349 1_555
Fe3 Fe4 2.407156 1_555
Fe3 Fe5 2.407156 1_655
Fe3 Fe6 2.407156 1_555
Fe3 Fe7 2.407156 1_555
Fe3 Fe9 2.585349 1_555
Fe3 Fe8 2.585349 1_555
Fe4 Fe5 2.337922 1_555
Fe4 Fe5 2.337922 1_655
Fe4 Fe8 2.585403 1_555
Fe4 Fe9 2.585403 1_545
Fe5 Fe8 2.585403 1_455
Fe5 Fe9 2.585403 1_545
Fe6 Fe7 2.337922 1_655
Fe6 Fe7 2.337922 1_555
Fe6 Fe9 2.585403 1_555
Fe6 Fe8 2.585403 1_554
Fe7 Fe9 2.585403 1_555
Fe7 Fe8 2.585403 1_454
Fe8 Fe9 2.359381 1_555
