# generated using pymatgen
data_UPb2
_symmetry_space_group_name_H-M   'P 1'
_cell_length_a   8.66725500
_cell_length_b   8.66725500
_cell_length_c   8.72119834
_cell_angle_alpha   119.79560536
_cell_angle_beta   119.79560536
_cell_angle_gamma   90.00000000
_symmetry_Int_Tables_number   1
_chemical_formula_structural   UPb2
_chemical_formula_sum   'U4 Pb8'
_cell_volume   466.10721569
_cell_formula_units_Z   4
loop_
 _symmetry_equiv_pos_site_id
 _symmetry_equiv_pos_as_xyz
  1  'x, y, z'
loop_
 _atom_site_type_symbol
 _atom_site_label
 _atom_site_symmetry_multiplicity
 _atom_site_fract_x
 _atom_site_fract_y
 _atom_site_fract_z
 _atom_site_occupancy
  U  U0  1  0.12500000  0.87500000  0.25000000  1
  U  U1  1  0.12500000  0.37500000  0.25000000  1
  U  U2  1  0.62500000  0.87500000  0.75000000  1
  U  U3  1  0.12500000  0.87500000  0.75000000  1
  Pb  Pb0  1  0.40234600  0.59622100  0.80469200  1
  Pb  Pb1  1  0.40234600  0.20847100  0.80469200  1
  Pb  Pb2  1  0.45847100  0.15234600  0.30469200  1
  Pb  Pb3  1  0.84765400  0.54152900  0.69530800  1
  Pb  Pb4  1  0.84765400  0.15377900  0.69530800  1
  Pb  Pb5  1  0.84622100  0.15234600  0.30469200  1
  Pb  Pb6  1  0.79152900  0.59765400  0.19530800  1
  Pb  Pb7  1  0.40377900  0.59765400  0.19530800  1
loop_
_geom_bond_atom_site_label_1
_geom_bond_atom_site_label_2
_geom_bond_distance
_geom_bond_site_symmetry_2
Pb0 Pb1 3.360728 1_555
Pb0 Pb6 3.394319 1_556
Pb0 Pb7 3.394319 1_556
Pb0 U3 3.442390 1_555
Pb0 U2 3.442390 1_555
Pb0 U1 3.475920 1_555
Pb1 Pb6 3.394319 1_556
Pb1 Pb7 3.394319 1_556
Pb1 U3 3.442390 1_545
Pb1 U2 3.442390 1_545
Pb1 U0 3.475920 1_545
Pb2 Pb5 3.360728 1_555
Pb2 Pb3 3.394319 1_555
Pb2 Pb4 3.394319 1_555
Pb2 U0 3.442390 1_545
Pb2 U1 3.442390 1_555
Pb2 U3 3.475920 1_544
Pb3 Pb4 3.360728 1_555
Pb3 Pb5 3.394319 1_555
Pb3 U3 3.442390 1_655
Pb3 U2 3.442390 1_555
Pb3 U0 3.475920 1_656
Pb4 Pb5 3.394319 1_555
Pb4 U3 3.442390 1_645
Pb4 U2 3.442390 1_545
Pb4 U1 3.475920 1_656
Pb5 U0 3.442390 1_645
Pb5 U1 3.442390 1_655
Pb5 U2 3.475920 1_544
Pb6 Pb7 3.360728 1_555
Pb6 U0 3.442390 1_655
Pb6 U1 3.442390 1_655
Pb6 U3 3.475920 1_655
Pb7 U0 3.442390 1_555
Pb7 U1 3.442390 1_555
Pb7 U2 3.475920 1_555
