# generated using pymatgen
data_LiV3O4
_symmetry_space_group_name_H-M   'P 1'
_cell_length_a   5.35123083
_cell_length_b   5.96844633
_cell_length_c   6.05826488
_cell_angle_alpha   119.51069000
_cell_angle_beta   73.34144626
_cell_angle_gamma   90.00022485
_symmetry_Int_Tables_number   1
_chemical_formula_structural   LiV3O4
_chemical_formula_sum   'Li2 V6 O8'
_cell_volume   158.99139897
_cell_formula_units_Z   2
loop_
 _symmetry_equiv_pos_site_id
 _symmetry_equiv_pos_as_xyz
  1  'x, y, z'
loop_
 _atom_site_type_symbol
 _atom_site_label
 _atom_site_symmetry_multiplicity
 _atom_site_fract_x
 _atom_site_fract_y
 _atom_site_fract_z
 _atom_site_occupancy
  Li  Li0  1  0.00001000  0.99998200  0.50002400  1
  Li  Li1  1  0.00001200  0.49997700  0.50002000  1
  V  V0  1  0.00001400  0.99996500  0.00002000  1
  V  V1  1  0.49908900  0.25324700  0.50634300  1
  V  V2  1  0.50094000  0.74670800  0.49369900  1
  V  V3  1  0.49998800  0.76305100  0.00007500  1
  V  V4  1  0.50004100  0.23690200  0.99996900  1
  V  V5  1  0.00001200  0.49997200  0.00002200  1
  O  O0  1  0.73073600  0.38488900  0.76985200  1
  O  O1  1  0.74732600  0.87343400  0.74702800  1
  O  O2  1  0.26929500  0.61506100  0.23019700  1
  O  O3  1  0.25269600  0.12652100  0.25300900  1
  O  O4  1  0.25874600  0.11967800  0.74441600  1
  O  O5  1  0.25866400  0.62472700  0.74451500  1
  O  O6  1  0.74127800  0.88026700  0.25563100  1
  O  O7  1  0.74136600  0.37522800  0.25552100  1
loop_
_geom_bond_atom_site_label_1
_geom_bond_atom_site_label_2
_geom_bond_distance
_geom_bond_site_symmetry_2
Li0 O1 2.142772 1_455
Li0 O3 2.142785 1_565
Li0 O6 2.180071 1_455
Li0 O4 2.180085 1_565
Li0 O0 2.230687 1_465
Li0 O2 2.230768 1_555
Li1 O3 2.142383 1_555
Li1 O1 2.142392 1_455
Li1 O7 2.180137 1_455
Li1 O5 2.180147 1_555
Li1 O2 2.230696 1_555
Li1 O0 2.230734 1_455
O0 V4 2.115190 1_555
O0 V3 2.115547 1_556
O0 V1 2.145066 1_555
O0 V5 2.168179 1_656
O1 V3 2.089902 1_556
O1 V4 2.089919 1_565
O1 V2 2.163882 1_555
O1 V0 2.189931 1_656
O2 V3 2.115220 1_555
O2 V4 2.115528 1_554
O2 V2 2.145027 1_555
O2 V5 2.168232 1_555
O3 V4 2.089880 1_554
O3 V3 2.089941 1_545
O3 V1 2.163934 1_555
O3 V0 2.189892 1_545
O4 V1 2.106924 1_555
O4 V2 2.117178 1_545
O4 V4 2.152375 1_555
O4 V0 2.164749 1_546
O4 V5 2.185143 1_556
O5 V1 2.106419 1_555
O5 V2 2.116641 1_555
O5 V3 2.152529 1_556
O5 V0 2.164233 1_556
O5 V5 2.184803 1_556
O6 V2 2.106850 1_555
O6 V1 2.117208 1_565
O6 V3 2.152368 1_555
O6 V0 2.164726 1_655
O6 V5 2.185147 1_655
O7 V2 2.106421 1_555
O7 V1 2.116669 1_555
O7 V4 2.152499 1_554
O7 V0 2.164330 1_645
O7 V5 2.184710 1_655
