# generated using pymatgen
data_Ba10Gd3Y2(Cu3O7)5
_symmetry_space_group_name_H-M   'P 1'
_cell_length_a   3.85692026
_cell_length_b   19.62160803
_cell_length_c   11.87861246
_cell_angle_alpha   90.00000000
_cell_angle_beta   90.00000000
_cell_angle_gamma   90.00000000
_symmetry_Int_Tables_number   1
_chemical_formula_structural   Ba10Gd3Y2(Cu3O7)5
_chemical_formula_sum   'Ba10 Gd3 Y2 Cu15 O35'
_cell_volume   898.96124562
_cell_formula_units_Z   1
loop_
 _symmetry_equiv_pos_site_id
 _symmetry_equiv_pos_as_xyz
  1  'x, y, z'
loop_
 _atom_site_type_symbol
 _atom_site_label
 _atom_site_symmetry_multiplicity
 _atom_site_fract_x
 _atom_site_fract_y
 _atom_site_fract_z
 _atom_site_occupancy
  Ba  Ba0  1  0.50000000  0.09991748  0.17925385  1
  Ba  Ba1  1  0.50000000  0.30007063  0.17977789  1
  Ba  Ba2  1  0.50000000  0.49992937  0.17977789  1
  Ba  Ba3  1  0.50000000  0.70008252  0.17925385  1
  Ba  Ba4  1  0.50000000  0.90000000  0.17897959  1
  Ba  Ba5  1  0.50000000  0.09991748  0.82074615  1
  Ba  Ba6  1  0.50000000  0.30007063  0.82022211  1
  Ba  Ba7  1  0.50000000  0.49992937  0.82022211  1
  Ba  Ba8  1  0.50000000  0.70008252  0.82074615  1
  Ba  Ba9  1  0.50000000  0.90000000  0.82102041  1
  Gd  Gd0  1  0.50000000  0.10040369  0.50000000  1
  Gd  Gd1  1  0.50000000  0.69959631  0.50000000  1
  Gd  Gd2  1  0.50000000  0.90000000  0.50000000  1
  Y  Y0  1  0.50000000  0.30025783  0.50000000  1
  Y  Y1  1  0.50000000  0.49974217  0.50000000  1
  Cu  Cu0  1  0.00000000  0.00016933  0.35070698  1
  Cu  Cu1  1  0.00000000  0.20061327  0.35110386  1
  Cu  Cu2  1  0.00000000  0.40000000  0.35211286  1
  Cu  Cu3  1  0.00000000  0.59938673  0.35110386  1
  Cu  Cu4  1  0.00000000  0.79983067  0.35070698  1
  Cu  Cu5  1  0.00000000  0.00016933  0.64929302  1
  Cu  Cu6  1  0.00000000  0.20061327  0.64889614  1
  Cu  Cu7  1  0.00000000  0.40000000  0.64788714  1
  Cu  Cu8  1  0.00000000  0.59938673  0.64889614  1
  Cu  Cu9  1  0.00000000  0.79983067  0.64929302  1
  Cu  Cu10  1  0.00000000  0.00006968  0.00000000  1
  Cu  Cu11  1  0.00000000  0.20012981  0.00000000  1
  Cu  Cu12  1  0.00000000  0.40000000  0.00000000  1
  Cu  Cu13  1  0.00000000  0.59987019  0.00000000  1
  Cu  Cu14  1  0.00000000  0.79993032  0.00000000  1
  O  O0  1  0.00000000  0.99997229  0.15877320  1
  O  O1  1  0.00000000  0.20012518  0.15886992  1
  O  O2  1  0.00000000  0.40000000  0.15895923  1
  O  O3  1  0.00000000  0.59987482  0.15886992  1
  O  O4  1  0.00000000  0.80002771  0.15877320  1
  O  O5  1  0.00000000  0.99997229  0.84122680  1
  O  O6  1  0.00000000  0.20012518  0.84113008  1
  O  O7  1  0.00000000  0.40000000  0.84104077  1
  O  O8  1  0.00000000  0.59987482  0.84113008  1
  O  O9  1  0.00000000  0.80002771  0.84122680  1
  O  O10  1  0.00000000  0.10044960  0.37577453  1
  O  O11  1  0.00000000  0.30039860  0.37850408  1
  O  O12  1  0.00000000  0.49960140  0.37850408  1
  O  O13  1  0.00000000  0.69955040  0.37577453  1
  O  O14  1  0.00000000  0.90000000  0.37579062  1
  O  O15  1  0.00000000  0.10044960  0.62422547  1
  O  O16  1  0.00000000  0.30039860  0.62149592  1
  O  O17  1  0.00000000  0.49960140  0.62149592  1
  O  O18  1  0.00000000  0.69955040  0.62422547  1
  O  O19  1  0.00000000  0.90000000  0.62420938  1
  O  O20  1  0.00000000  0.10006773  0.00000000  1
  O  O21  1  0.00000000  0.30008818  0.00000000  1
  O  O22  1  0.00000000  0.49991182  0.00000000  1
  O  O23  1  0.00000000  0.69993227  0.00000000  1
  O  O24  1  0.00000000  0.90000000  0.00000000  1
  O  O25  1  0.50000000  0.00025089  0.37730075  1
  O  O26  1  0.50000000  0.20138861  0.37853390  1
  O  O27  1  0.50000000  0.40000000  0.37978730  1
  O  O28  1  0.50000000  0.59861139  0.37853390  1
  O  O29  1  0.50000000  0.79974911  0.37730075  1
  O  O30  1  0.50000000  0.00025089  0.62269925  1
  O  O31  1  0.50000000  0.20138861  0.62146610  1
  O  O32  1  0.50000000  0.40000000  0.62021270  1
  O  O33  1  0.50000000  0.59861139  0.62146610  1
  O  O34  1  0.50000000  0.79974911  0.62269925  1
loop_
_geom_bond_atom_site_label_1
_geom_bond_atom_site_label_2
_geom_bond_distance
_geom_bond_site_symmetry_2
Ba0 O0 2.761159 1_545
Ba0 O0 2.761159 1_645
Ba0 O1 2.764719 1_555
Ba0 O1 2.764719 1_655
Ba0 O20 2.872774 1_555
Ba0 O20 2.872774 1_655
Ba0 O10 3.027946 1_655
Ba0 O10 3.027946 1_555
Ba0 O25 3.059217 1_555
Ba0 O26 3.093167 1_555
Ba1 O2 2.761295 1_655
Ba1 O2 2.761295 1_555
Ba1 O1 2.761615 1_555
Ba1 O1 2.761615 1_655
Ba1 O21 2.877389 1_555
Ba1 O21 2.877389 1_655
Ba1 O11 3.048178 1_555
Ba1 O11 3.048178 1_655
Ba1 O26 3.053411 1_555
Ba1 O27 3.080459 1_555
Ba2 O2 2.761295 1_655
Ba2 O2 2.761295 1_555
Ba2 O3 2.761615 1_655
Ba2 O3 2.761615 1_555
Ba2 O22 2.877389 1_555
Ba2 O22 2.877389 1_655
Ba2 O12 3.048178 1_655
Ba2 O12 3.048178 1_555
Ba2 O28 3.053411 1_555
Ba2 O27 3.080459 1_555
Ba3 O4 2.761159 1_555
Ba3 O4 2.761159 1_655
Ba3 O3 2.764719 1_655
Ba3 O3 2.764719 1_555
Ba3 O23 2.872774 1_655
Ba3 O23 2.872774 1_555
Ba3 O13 3.027946 1_655
Ba3 O13 3.027946 1_555
Ba3 O29 3.059217 1_555
Ba3 O28 3.093167 1_555
Ba4 O0 2.761252 1_655
Ba4 O4 2.761252 1_655
Ba4 O0 2.761252 1_555
Ba4 O4 2.761252 1_555
Ba4 O24 2.870359 1_555
Ba4 O24 2.870359 1_655
Ba4 O14 3.030588 1_655
Ba4 O14 3.030588 1_555
Ba4 O29 3.069058 1_555
Ba4 O25 3.069058 1_565
Ba5 O5 2.761159 1_645
Ba5 O5 2.761159 1_545
Ba5 O6 2.764719 1_655
Ba5 O6 2.764719 1_555
Ba5 O20 2.872774 1_656
Ba5 O20 2.872774 1_556
Ba5 O15 3.027946 1_555
Ba5 O15 3.027946 1_655
Ba5 O30 3.059217 1_555
Ba5 O31 3.093167 1_555
Ba6 O7 2.761295 1_655
Ba6 O7 2.761295 1_555
Ba6 O6 2.761615 1_655
Ba6 O6 2.761615 1_555
Ba6 O21 2.877389 1_556
Ba6 O21 2.877389 1_656
Ba6 O16 3.048178 1_555
Ba6 O16 3.048178 1_655
Ba6 O31 3.053411 1_555
Ba6 O32 3.080459 1_555
Ba7 O7 2.761295 1_555
Ba7 O7 2.761295 1_655
Ba7 O8 2.761615 1_555
Ba7 O8 2.761615 1_655
Ba7 O22 2.877389 1_656
Ba7 O22 2.877389 1_556
Ba7 O17 3.048178 1_655
Ba7 O17 3.048178 1_555
Ba7 O33 3.053411 1_555
Ba7 O32 3.080459 1_555
Ba8 O9 2.761159 1_555
Ba8 O9 2.761159 1_655
Ba8 O8 2.764719 1_655
Ba8 O8 2.764719 1_555
Ba8 O23 2.872774 1_656
Ba8 O23 2.872774 1_556
Ba8 O18 3.027946 1_555
Ba8 O18 3.027946 1_655
Ba8 O34 3.059217 1_555
Ba8 O33 3.093167 1_555
Ba9 O9 2.761252 1_555
Ba9 O9 2.761252 1_655
Ba9 O5 2.761252 1_555
Ba9 O5 2.761252 1_655
Ba9 O24 2.870359 1_656
Ba9 O24 2.870359 1_556
Ba9 O19 3.030588 1_555
Ba9 O19 3.030588 1_655
Ba9 O34 3.069058 1_555
Ba9 O30 3.069058 1_565
Gd0 O10 2.428257 1_655
Gd0 O10 2.428257 1_555
Gd0 O15 2.428257 1_655
Gd0 O15 2.428257 1_555
Gd0 O25 2.446660 1_555
Gd0 O30 2.446660 1_555
Gd0 O31 2.451143 1_555
Gd0 O26 2.451143 1_555
Gd1 O13 2.428257 1_655
Gd1 O13 2.428257 1_555
Gd1 O18 2.428257 1_555
Gd1 O18 2.428257 1_655
Gd1 O29 2.446660 1_555
Gd1 O34 2.446660 1_555
Gd1 O33 2.451143 1_555
Gd1 O28 2.451143 1_555
Gd2 O14 2.428141 1_655
Gd2 O14 2.428141 1_555
Gd2 O19 2.428141 1_655
Gd2 O19 2.428141 1_555
Gd2 O29 2.448207 1_555
Gd2 O25 2.448207 1_565
Gd2 O34 2.448207 1_555
Gd2 O30 2.448207 1_565
Cu0 O25 1.954163 1_455
Cu0 O25 1.954163 1_555
Cu0 O14 1.987940 1_545
Cu0 O10 1.990063 1_555
Cu0 O0 2.279910 1_545
Cu1 O26 1.955852 1_455
Cu1 O26 1.955852 1_555
Cu1 O11 1.984817 1_555
Cu1 O10 1.987101 1_555
Cu1 O1 2.283493 1_555
Cu2 O27 1.956278 1_455
Cu2 O27 1.956278 1_555
Cu2 O12 1.979323 1_555
Cu2 O11 1.979323 1_555
Cu2 O2 2.294397 1_555
Cu3 O28 1.955852 1_555
Cu3 O28 1.955852 1_455
Cu3 O12 1.984817 1_555
Cu3 O13 1.987101 1_555
Cu3 O3 2.283493 1_555
Cu4 O29 1.954163 1_455
Cu4 O29 1.954163 1_555
Cu4 O14 1.987940 1_555
Cu4 O13 1.990063 1_555
Cu4 O4 2.279910 1_555
Cu5 O30 1.954163 1_555
Cu5 O30 1.954163 1_455
Cu5 O19 1.987940 1_545
Cu5 O15 1.990063 1_555
Cu5 O5 2.279910 1_545
Cu6 O31 1.955852 1_555
Cu6 O31 1.955852 1_455
Cu6 O16 1.984817 1_555
Cu6 O15 1.987101 1_555
Cu6 O6 2.283493 1_555
Cu7 O32 1.956278 1_455
Cu7 O32 1.956278 1_555
Cu7 O17 1.979323 1_555
Cu7 O16 1.979323 1_555
Cu7 O7 2.294397 1_555
Cu8 O33 1.955852 1_455
Cu8 O33 1.955852 1_555
Cu8 O17 1.984817 1_555
Cu8 O18 1.987101 1_555
Cu8 O8 2.283493 1_555
Cu9 O34 1.954163 1_555
Cu9 O34 1.954163 1_455
Cu9 O19 1.987940 1_555
Cu9 O18 1.990063 1_555
Cu9 O9 2.279910 1_555
Cu10 O0 1.886006 1_545
Cu10 O5 1.886006 1_544
Cu10 O20 1.962123 1_555
Cu10 O24 1.963528 1_545
Cu11 O6 1.887154 1_554
Cu11 O1 1.887154 1_555
Cu11 O21 1.961344 1_555
Cu11 O20 1.963379 1_555
Cu12 O2 1.888215 1_555
Cu12 O7 1.888215 1_554
Cu12 O22 1.960431 1_555
Cu12 O21 1.960431 1_555
Cu13 O3 1.887154 1_555
Cu13 O8 1.887154 1_554
Cu13 O22 1.961344 1_555
Cu13 O23 1.963379 1_555
Cu14 O4 1.886006 1_555
Cu14 O9 1.886006 1_554
Cu14 O23 1.962123 1_555
Cu14 O24 1.963528 1_555
O11 Y0 2.408693 1_455
O11 Y0 2.408693 1_555
O12 Y1 2.408693 1_555
O12 Y1 2.408693 1_455
O16 Y0 2.408693 1_455
O16 Y0 2.408693 1_555
O17 Y1 2.408693 1_555
O17 Y1 2.408693 1_455
O26 Y0 2.417707 1_555
O27 Y1 2.422667 1_555
O27 Y0 2.422667 1_555
O28 Y1 2.417707 1_555
O31 Y0 2.417707 1_555
O32 Y1 2.422667 1_555
O32 Y0 2.422667 1_555
O33 Y1 2.417707 1_555
