# generated using pymatgen
data_Er2Co3Si5
_symmetry_space_group_name_H-M   'P 1'
_cell_length_a   5.47220423
_cell_length_b   7.80313815
_cell_length_c   7.80313815
_cell_angle_alpha   73.94961439
_cell_angle_beta   69.47345813
_cell_angle_gamma   69.47345813
_symmetry_Int_Tables_number   1
_chemical_formula_structural   Er2Co3Si5
_chemical_formula_sum   'Er4 Co6 Si10'
_cell_volume   287.71803467
_cell_formula_units_Z   2
loop_
 _symmetry_equiv_pos_site_id
 _symmetry_equiv_pos_as_xyz
  1  'x, y, z'
loop_
 _atom_site_type_symbol
 _atom_site_label
 _atom_site_symmetry_multiplicity
 _atom_site_fract_x
 _atom_site_fract_y
 _atom_site_fract_z
 _atom_site_occupancy
  Er  Er0  1  0.36519795  0.86790300  0.40170109  1
  Er  Er1  1  0.63480205  0.13209700  0.59829891  1
  Er  Er2  1  0.86519795  0.40170109  0.86790300  1
  Er  Er3  1  0.13480205  0.59829891  0.13209700  1
  Co  Co0  1  0.75000000  -0.00000000  0.00000000  1
  Co  Co1  1  0.25000000  -0.00000000  0.00000000  1
  Co  Co2  1  0.13890887  0.25405174  0.46812952  1
  Co  Co3  1  0.86109113  0.74594826  0.53187048  1
  Co  Co4  1  0.63890887  0.46812952  0.25405174  1
  Co  Co5  1  0.36109113  0.53187048  0.74594826  1
  Si  Si0  1  0.75000000  0.50000000  0.50000000  1
  Si  Si1  1  0.25000000  0.50000000  0.50000000  1
  Si  Si2  1  0.52516978  0.22483022  0.22483022  1
  Si  Si3  1  0.97483022  0.77516978  0.77516978  1
  Si  Si4  1  0.47483022  0.77516978  0.77516978  1
  Si  Si5  1  0.02516978  0.22483022  0.22483022  1
  Si  Si6  1  0.09961056  0.05965005  0.74112882  1
  Si  Si7  1  0.90038944  0.94034995  0.25887118  1
  Si  Si8  1  0.59961056  0.74112882  0.05965005  1
  Si  Si9  1  0.40038944  0.25887118  0.94034995  1
loop_
_geom_bond_atom_site_label_1
_geom_bond_atom_site_label_2
_geom_bond_distance
_geom_bond_site_symmetry_2
Er0 Si8 2.813733 1_555
Er0 Si7 2.943214 1_455
Er0 Si7 2.943214 1_555
Er0 Si1 2.989918 1_555
Er0 Si0 2.989918 1_555
Er0 Si3 3.021889 1_455
Er0 Si4 3.021889 1_555
Er0 Si5 3.027406 1_565
Er0 Si2 3.027406 1_565
Er0 Si6 3.054983 1_565
Er1 Si9 2.813733 1_555
Er1 Si6 2.943214 1_655
Er1 Si6 2.943214 1_555
Er1 Si0 2.989918 1_555
Er1 Si1 2.989918 1_555
Er1 Si5 3.021889 1_655
Er1 Si2 3.021889 1_555
Er1 Si3 3.027406 1_545
Er1 Si4 3.027406 1_545
Er1 Si7 3.054983 1_545
Er2 Si6 2.813733 1_655
Er2 Si9 2.943214 1_555
Er2 Si9 2.943214 1_655
Er2 Si0 2.989918 1_555
Er2 Si1 2.989918 1_655
Er2 Si4 3.021889 1_555
Er2 Si3 3.021889 1_555
Er2 Si2 3.027406 1_556
Er2 Si5 3.027406 1_656
Er2 Si8 3.054983 1_556
Er3 Si7 2.813733 1_455
Er3 Si8 2.943214 1_555
Er3 Si8 2.943214 1_455
Er3 Si1 2.989918 1_555
Er3 Si0 2.989918 1_455
Er3 Si2 3.021889 1_555
Er3 Si5 3.021889 1_555
Er3 Si4 3.027406 1_554
Er3 Si3 3.027406 1_454
Er3 Si9 3.054983 1_554
Co0 Si6 2.313355 1_654
Co0 Si9 2.313355 1_554
Co0 Si8 2.313355 1_545
Co0 Si7 2.313355 1_545
Co0 Si3 2.518725 1_544
Co0 Si2 2.518725 1_555
Co0 Co1 2.736102 1_555
Co0 Co1 2.736102 1_655
Co0 Er1 3.229328 1_554
Co0 Er2 3.229328 1_554
Co0 Er0 3.229328 1_545
Co0 Er3 3.229328 1_645
Co1 Si8 2.313355 1_545
Co1 Si7 2.313355 1_445
Co1 Si6 2.313355 1_554
Co1 Si9 2.313355 1_554
Co1 Si4 2.518725 1_544
Co1 Si5 2.518725 1_555
Co1 Er0 3.229328 1_545
Co1 Er3 3.229328 1_545
Co1 Er2 3.229328 1_454
Co1 Er1 3.229328 1_554
Co2 Si6 2.237398 1_555
Co2 Si5 2.282813 1_555
Co2 Si2 2.282816 1_555
Co2 Si0 2.302762 1_455
Co2 Si1 2.302765 1_555
Co2 Er0 2.945874 1_545
Co2 Er1 2.981366 1_455
Co2 Er1 2.981371 1_555
Co3 Si7 2.237398 1_555
Co3 Si3 2.282813 1_555
Co3 Si4 2.282816 1_555
Co3 Si1 2.302762 1_655
Co3 Si0 2.302765 1_555
Co3 Er1 2.945874 1_565
Co3 Er0 2.981366 1_655
Co3 Er0 2.981371 1_555
Co4 Si8 2.237398 1_555
Co4 Si2 2.282813 1_555
Co4 Si5 2.282816 1_655
Co4 Si1 2.302762 1_555
Co4 Si0 2.302765 1_555
Co4 Er2 2.945874 1_554
Co4 Er3 2.981366 1_555
Co4 Er3 2.981371 1_655
Co5 Si9 2.237398 1_555
Co5 Si4 2.282813 1_555
Co5 Si3 2.282816 1_455
Co5 Si0 2.302762 1_555
Co5 Si1 2.302765 1_555
Co5 Er3 2.945874 1_556
Co5 Er2 2.981366 1_555
Co5 Er2 2.981371 1_455
Si2 Si9 2.464592 1_554
Si2 Si7 2.464592 1_545
Si2 Si5 2.736102 1_655
Si2 Si5 2.736102 1_555
Si3 Si6 2.464592 1_665
Si3 Si8 2.464592 1_556
Si3 Si4 2.736102 1_555
Si3 Si4 2.736102 1_655
Si4 Si8 2.464592 1_556
Si4 Si6 2.464592 1_565
Si5 Si7 2.464592 1_445
Si5 Si9 2.464592 1_554
