# generated using pymatgen
data_Ba2TlF7
_symmetry_space_group_name_H-M   'P 1'
_cell_length_a   5.74415582
_cell_length_b   8.83977686
_cell_length_c   13.10196474
_cell_angle_alpha   90.00000000
_cell_angle_beta   90.00000000
_cell_angle_gamma   89.43437671
_symmetry_Int_Tables_number   1
_chemical_formula_structural   Ba2TlF7
_chemical_formula_sum   'Ba8 Tl4 F28'
_cell_volume   665.24677625
_cell_formula_units_Z   4
loop_
 _symmetry_equiv_pos_site_id
 _symmetry_equiv_pos_as_xyz
  1  'x, y, z'
loop_
 _atom_site_type_symbol
 _atom_site_label
 _atom_site_symmetry_multiplicity
 _atom_site_fract_x
 _atom_site_fract_y
 _atom_site_fract_z
 _atom_site_occupancy
  Ba  Ba0  1  0.25939176  0.94561945  0.72074539  1
  Ba  Ba1  1  0.74060824  0.05438055  0.27925461  1
  Ba  Ba2  1  0.74060824  0.55438055  0.22074539  1
  Ba  Ba3  1  0.25939176  0.44561945  0.77925461  1
  Ba  Ba4  1  0.74258023  0.67509615  0.56247212  1
  Ba  Ba5  1  0.25741977  0.32490385  0.43752788  1
  Ba  Ba6  1  0.25741977  0.82490385  0.06247212  1
  Ba  Ba7  1  0.74258023  0.17509615  0.93752788  1
  Tl  Tl0  1  0.77720406  0.71214900  0.87607313  1
  Tl  Tl1  1  0.22279594  0.28785100  0.12392687  1
  Tl  Tl2  1  0.22279594  0.78785100  0.37607313  1
  Tl  Tl3  1  0.77720406  0.21214900  0.62392687  1
  F  F0  1  0.00620007  0.80120904  0.23300962  1
  F  F1  1  0.99379993  0.19879096  0.76699038  1
  F  F2  1  0.99379993  0.69879096  0.73300962  1
  F  F3  1  0.00620007  0.30120904  0.26699038  1
  F  F4  1  0.71168647  0.96848446  0.64125472  1
  F  F5  1  0.28831353  0.03151554  0.35874528  1
  F  F6  1  0.28831353  0.53151554  0.14125472  1
  F  F7  1  0.71168647  0.46848446  0.85874528  1
  F  F8  1  0.51954331  0.69396602  0.74695532  1
  F  F9  1  0.48045669  0.30603398  0.25304468  1
  F  F10  1  0.48045669  0.80603398  0.24695532  1
  F  F11  1  0.51954331  0.19396602  0.75304468  1
  F  F12  1  0.51895736  0.90480827  0.89582690  1
  F  F13  1  0.48104264  0.09519173  0.10417310  1
  F  F14  1  0.48104264  0.59519173  0.39582690  1
  F  F15  1  0.51895736  0.40480827  0.60417310  1
  F  F16  1  0.87557628  0.87351649  0.42719232  1
  F  F17  1  0.12442372  0.12648351  0.57280768  1
  F  F18  1  0.12442372  0.62648351  0.92719232  1
  F  F19  1  0.87557628  0.37351649  0.07280768  1
  F  F20  1  0.28727219  0.78026057  0.54219209  1
  F  F21  1  0.71272781  0.21973943  0.45780791  1
  F  F22  1  0.71272781  0.71973943  0.04219209  1
  F  F23  1  0.28727219  0.28026057  0.95780791  1
  F  F24  1  0.99351470  0.92173130  0.89528926  1
  F  F25  1  0.00648530  0.07826870  0.10471074  1
  F  F26  1  0.00648530  0.57826870  0.39528926  1
  F  F27  1  0.99351470  0.42173130  0.60471074  1
loop_
_geom_bond_atom_site_label_1
_geom_bond_atom_site_label_2
_geom_bond_distance
_geom_bond_site_symmetry_2
Ba0 F17 2.624814 1_565
Ba0 F2 2.679501 1_455
Ba0 F8 2.689618 1_555
Ba0 F11 2.701186 1_565
Ba0 F12 2.757643 1_555
Ba0 F24 2.759199 1_455
Ba0 F20 2.762333 1_555
Ba0 F1 2.763280 1_465
Ba0 F4 2.808163 1_555
Ba1 F16 2.624814 1_545
Ba1 F3 2.679501 1_655
Ba1 F9 2.689618 1_555
Ba1 F10 2.701186 1_545
Ba1 F13 2.757643 1_555
Ba1 F25 2.759199 1_655
Ba1 F21 2.762333 1_555
Ba1 F0 2.763280 1_645
Ba1 F5 2.808163 1_555
Ba2 F19 2.624814 1_555
Ba2 F0 2.679501 1_655
Ba2 F10 2.689618 1_555
Ba2 F9 2.701186 1_555
Ba2 F14 2.757643 1_555
Ba2 F26 2.759199 1_655
Ba2 F22 2.762333 1_555
Ba2 F3 2.763280 1_655
Ba2 F6 2.808163 1_555
Ba3 F18 2.624814 1_555
Ba3 F1 2.679501 1_455
Ba3 F11 2.689618 1_555
Ba3 F8 2.701186 1_555
Ba3 F15 2.757643 1_555
Ba3 F27 2.759199 1_455
Ba3 F23 2.762333 1_555
Ba3 F2 2.763280 1_455
Ba3 F7 2.808163 1_555
Ba4 F16 2.613058 1_555
Ba4 F2 2.669205 1_555
Ba4 F27 2.708576 1_555
Ba4 F8 2.739947 1_555
Ba4 F14 2.746626 1_555
Ba4 F15 2.778092 1_555
Ba4 F20 2.779734 1_555
Ba4 F26 2.793376 1_655
Ba4 F4 2.795359 1_555
Ba5 F17 2.613058 1_555
Ba5 F3 2.669205 1_555
Ba5 F26 2.708576 1_555
Ba5 F9 2.739947 1_555
Ba5 F15 2.746626 1_555
Ba5 F14 2.778092 1_555
Ba5 F21 2.779734 1_555
Ba5 F27 2.793376 1_455
Ba5 F5 2.795359 1_555
Ba6 F18 2.613058 1_554
Ba6 F0 2.669205 1_555
Ba6 F25 2.708576 1_565
Ba6 F10 2.739947 1_555
Ba6 F12 2.746626 1_554
Ba6 F13 2.778092 1_565
Ba6 F22 2.779734 1_555
Ba6 F24 2.793376 1_454
Ba6 F6 2.795359 1_555
Ba7 F19 2.613058 1_556
Ba7 F1 2.669205 1_555
Ba7 F24 2.708576 1_545
Ba7 F11 2.739947 1_555
Ba7 F13 2.746626 1_556
Ba7 F12 2.778092 1_545
Ba7 F23 2.779734 1_555
Ba7 F25 2.793376 1_656
Ba7 F7 2.795359 1_555
F0 Tl2 2.252199 1_555
F1 Tl3 2.252199 1_555
F2 Tl0 2.252199 1_555
F3 Tl1 2.252199 1_555
F4 Tl3 2.201963 1_565
F5 Tl2 2.201963 1_545
F6 Tl1 2.201963 1_555
F7 Tl0 2.201963 1_555
F8 Tl0 2.254529 1_555
F9 Tl1 2.254529 1_555
F10 Tl2 2.254529 1_555
F11 Tl3 2.254529 1_555
F12 Tl0 2.262308 1_555
F13 Tl1 2.262308 1_555
F14 Tl2 2.262308 1_555
F15 Tl3 2.262308 1_555
F16 Tl2 2.229389 1_655
F17 Tl3 2.229389 1_455
F18 Tl0 2.229389 1_455
F19 Tl1 2.229389 1_655
F20 Tl2 2.208679 1_555
F21 Tl3 2.208679 1_555
F22 Tl0 2.208679 1_554
F23 Tl1 2.208679 1_556
F24 Tl0 2.255006 1_555
F25 Tl1 2.255006 1_555
F26 Tl2 2.255006 1_555
F27 Tl3 2.255006 1_555
