# generated using pymatgen
data_Li2Cr3NiO8
_symmetry_space_group_name_H-M   'P 1'
_cell_length_a   8.33167305
_cell_length_b   8.35698606
_cell_length_c   8.33588501
_cell_angle_alpha   89.99454239
_cell_angle_beta   90.00318348
_cell_angle_gamma   90.01238025
_symmetry_Int_Tables_number   1
_chemical_formula_structural   Li2Cr3NiO8
_chemical_formula_sum   'Li8 Cr12 Ni4 O32'
_cell_volume   580.40827989
_cell_formula_units_Z   4
loop_
 _symmetry_equiv_pos_site_id
 _symmetry_equiv_pos_as_xyz
  1  'x, y, z'
loop_
 _atom_site_type_symbol
 _atom_site_label
 _atom_site_symmetry_multiplicity
 _atom_site_fract_x
 _atom_site_fract_y
 _atom_site_fract_z
 _atom_site_occupancy
  Li  Li0  1  0.99748100  0.99982400  0.00178700  1
  Li  Li1  1  0.25018900  0.25150800  0.25140000  1
  Li  Li2  1  0.24827000  0.75094200  0.74987500  1
  Li  Li3  1  0.49947400  0.00059500  0.49770000  1
  Li  Li4  1  0.49717200  0.50014600  0.99816600  1
  Li  Li5  1  0.74978300  0.24863400  0.74854600  1
  Li  Li6  1  0.74813100  0.74879300  0.24970800  1
  Li  Li7  1  0.99921200  0.49909100  0.50203900  1
  Cr  Cr0  1  0.12831200  0.12743500  0.63135100  1
  Cr  Cr1  1  0.12676100  0.37778400  0.87911500  1
  Cr  Cr2  1  0.12831600  0.63213200  0.12711000  1
  Cr  Cr3  1  0.37781200  0.38154300  0.62234600  1
  Cr  Cr4  1  0.37807100  0.62857100  0.37279000  1
  Cr  Cr5  1  0.37797500  0.87654200  0.11857500  1
  Cr  Cr6  1  0.62785400  0.37248200  0.36880400  1
  Cr  Cr7  1  0.62679800  0.12231700  0.12130400  1
  Cr  Cr8  1  0.62824800  0.86792900  0.87313800  1
  Cr  Cr9  1  0.87773400  0.11879000  0.37760500  1
  Cr  Cr10  1  0.87814900  0.87079500  0.62719800  1
  Cr  Cr11  1  0.87811400  0.62358500  0.88167000  1
  Ni  Ni0  1  0.12367100  0.87541900  0.37461400  1
  Ni  Ni1  1  0.37371000  0.12438800  0.87514400  1
  Ni  Ni2  1  0.62374000  0.62424100  0.62509300  1
  Ni  Ni3  1  0.87400500  0.37568300  0.12498300  1
  O  O0  1  0.10158300  0.12810700  0.39341200  1
  O  O1  1  0.10844700  0.88915400  0.61560800  1
  O  O2  1  0.11533800  0.61589000  0.89353800  1
  O  O3  1  0.12389500  0.14022200  0.85762200  1
  O  O4  1  0.12163400  0.39298400  0.10386200  1
  O  O5  1  0.14049200  0.36549500  0.64202100  1
  O  O6  1  0.14490000  0.61801600  0.35293600  1
  O  O7  1  0.13919000  0.85684200  0.12970000  1
  O  O8  1  0.35162500  0.14335800  0.62209000  1
  O  O9  1  0.35808800  0.36579400  0.86089500  1
  O  O10  1  0.36565000  0.64399200  0.13419000  1
  O  O11  1  0.37500200  0.60660400  0.61046300  1
  O  O12  1  0.37102200  0.85302800  0.35723400  1
  O  O13  1  0.39035300  0.39259100  0.38395100  1
  O  O14  1  0.39461400  0.10177600  0.13264400  1
  O  O15  1  0.38912700  0.87997600  0.89252900  1
  O  O16  1  0.60142400  0.37181000  0.60657500  1
  O  O17  1  0.60849800  0.61070900  0.38422000  1
  O  O18  1  0.61534200  0.88439800  0.10616100  1
  O  O19  1  0.62390300  0.35990800  0.14248000  1
  O  O20  1  0.62103700  0.10711200  0.89611600  1
  O  O21  1  0.64046900  0.13453100  0.35793600  1
  O  O22  1  0.64490100  0.88199900  0.64719000  1
  O  O23  1  0.63917000  0.64349600  0.87048100  1
  O  O24  1  0.85156500  0.35653300  0.37798700  1
  O  O25  1  0.85828600  0.13441200  0.13898800  1
  O  O26  1  0.86547600  0.85626000  0.86578900  1
  O  O27  1  0.87438800  0.89351100  0.38948700  1
  O  O28  1  0.87094200  0.64681900  0.64278200  1
  O  O29  1  0.89064300  0.10737800  0.61602600  1
  O  O30  1  0.89467900  0.39842600  0.86758800  1
  O  O31  1  0.88933300  0.61984200  0.10757800  1
loop_
_geom_bond_atom_site_label_1
_geom_bond_atom_site_label_2
_geom_bond_distance
_geom_bond_site_symmetry_2
Li0 O25 1.979651 1_565
Li0 O3 1.982292 1_664
Li0 O26 1.983377 1_554
Li0 O7 1.989705 1_655
Li1 O13 1.993551 1_555
Li1 O14 1.998675 1_555
Li1 O0 1.999308 1_555
Li1 O4 2.014386 1_555
Li2 O11 1.980247 1_555
Li2 O2 1.983420 1_555
Li2 O1 1.985979 1_555
Li2 O15 1.988391 1_555
Li3 O21 1.997374 1_555
Li3 O22 2.000836 1_545
Li3 O8 2.004244 1_555
Li3 O12 2.009175 1_545
Li4 O9 1.977967 1_555
Li4 O10 1.983057 1_556
Li4 O19 1.983857 1_556
Li4 O23 1.991729 1_555
Li5 O16 1.997056 1_555
Li5 O29 1.998035 1_555
Li5 O30 2.002142 1_555
Li5 O20 2.015422 1_555
Li6 O27 1.981529 1_555
Li6 O18 1.985004 1_555
Li6 O17 1.985362 1_555
Li6 O31 1.987459 1_555
Li7 O5 1.998451 1_655
Li7 O24 2.000344 1_555
Li7 O6 2.001335 1_655
Li7 O28 2.010894 1_555
Cr0 O8 1.866895 1_555
Cr0 O3 1.889565 1_555
Cr0 O29 1.991322 1_455
Cr0 O5 1.994022 1_555
Cr0 O0 1.995890 1_555
Cr0 O1 2.002458 1_545
Cr1 O4 1.878267 1_556
Cr1 O9 1.935942 1_555
Cr1 O30 1.943718 1_455
Cr1 O5 1.982376 1_555
Cr1 O3 1.993525 1_555
Cr1 O2 1.995780 1_555
Cr2 O7 1.880189 1_555
Cr2 O6 1.891190 1_555
Cr2 O2 1.954753 1_554
Cr2 O10 1.980727 1_555
Cr2 O31 2.000382 1_455
Cr2 O4 2.008708 1_555
Cr3 O16 1.869490 1_555
Cr3 O11 1.883579 1_555
Cr3 O5 1.988570 1_555
Cr3 O13 1.992115 1_555
Cr3 O9 1.999626 1_555
Cr3 O8 2.002385 1_555
Cr4 O12 1.881178 1_555
Cr4 O17 1.928019 1_555
Cr4 O6 1.951708 1_555
Cr4 O13 1.976938 1_555
Cr4 O11 1.989850 1_555
Cr4 O10 1.995781 1_555
Cr5 O15 1.886803 1_554
Cr5 O14 1.890997 1_565
Cr5 O10 1.950442 1_555
Cr5 O18 1.981449 1_555
Cr5 O7 1.998401 1_555
Cr5 O12 1.999938 1_555
Cr6 O24 1.870238 1_555
Cr6 O19 1.889829 1_555
Cr6 O13 1.989958 1_555
Cr6 O21 1.993420 1_555
Cr6 O16 1.994246 1_555
Cr6 O17 2.001558 1_555
Cr7 O20 1.882058 1_554
Cr7 O25 1.936918 1_555
Cr7 O14 1.944349 1_555
Cr7 O21 1.978460 1_555
Cr7 O19 1.993544 1_555
Cr7 O18 1.994565 1_545
Cr8 O23 1.877942 1_555
Cr8 O22 1.892232 1_555
Cr8 O18 1.950310 1_556
Cr8 O26 1.979883 1_555
Cr8 O15 2.001390 1_555
Cr8 O20 2.008935 1_565
Cr9 O0 1.871283 1_655
Cr9 O27 1.885448 1_545
Cr9 O21 1.987978 1_555
Cr9 O29 1.992628 1_555
Cr9 O24 1.998792 1_555
Cr9 O25 1.999919 1_555
Cr10 O28 1.877202 1_555
Cr10 O1 1.927287 1_655
Cr10 O22 1.952755 1_555
Cr10 O29 1.982017 1_565
Cr10 O27 1.990832 1_555
Cr10 O26 1.995362 1_555
Cr11 O31 1.885713 1_556
Cr11 O30 1.890395 1_555
Cr11 O26 1.951815 1_555
Cr11 O2 1.980000 1_655
Cr11 O23 1.999951 1_555
Cr11 O28 2.001658 1_555
Ni0 O1 2.016188 1_555
Ni0 O7 2.051572 1_555
Ni0 O12 2.074440 1_555
Ni0 O27 2.086168 1_455
Ni0 O0 2.125553 1_565
Ni0 O6 2.165980 1_555
Ni1 O9 2.025124 1_555
Ni1 O15 2.051720 1_545
Ni1 O20 2.073104 1_555
Ni1 O3 2.090707 1_555
Ni1 O8 2.123343 1_555
Ni1 O14 2.161795 1_556
Ni2 O17 2.015079 1_555
Ni2 O23 2.055875 1_555
Ni2 O28 2.073433 1_555
Ni2 O11 2.081177 1_555
Ni2 O16 2.123332 1_555
Ni2 O22 2.169097 1_555
Ni3 O25 2.023878 1_555
Ni3 O31 2.049527 1_555
Ni3 O4 2.075682 1_655
Ni3 O19 2.093001 1_555
Ni3 O24 2.123315 1_555
Ni3 O30 2.160881 1_554
