# generated using pymatgen
data_Er6GaNi2
_symmetry_space_group_name_H-M   'P 1'
_cell_length_a   8.21255569
_cell_length_b   8.21255569
_cell_length_c   8.21255569
_cell_angle_alpha   112.21265419
_cell_angle_beta   109.64066034
_cell_angle_gamma   106.60874993
_symmetry_Int_Tables_number   1
_chemical_formula_structural   Er6GaNi2
_chemical_formula_sum   'Er12 Ga2 Ni4'
_cell_volume   425.37652934
_cell_formula_units_Z   2
loop_
 _symmetry_equiv_pos_site_id
 _symmetry_equiv_pos_as_xyz
  1  'x, y, z'
loop_
 _atom_site_type_symbol
 _atom_site_label
 _atom_site_symmetry_multiplicity
 _atom_site_fract_x
 _atom_site_fract_y
 _atom_site_fract_z
 _atom_site_occupancy
  Er  Er0  1  0.03729600  0.73537700  0.30191900  1
  Er  Er1  1  0.96270400  0.26462300  0.69808100  1
  Er  Er2  1  0.56654200  0.26462300  0.30191900  1
  Er  Er3  1  0.43345800  0.73537700  0.69808100  1
  Er  Er4  1  0.67787700  0.87483400  0.19695600  1
  Er  Er5  1  0.32212300  0.51907900  0.19695600  1
  Er  Er6  1  0.32212300  0.12516600  0.80304400  1
  Er  Er7  1  0.67787700  0.48092100  0.80304400  1
  Er  Er8  1  0.18235700  0.21748300  0.39984100  1
  Er  Er9  1  0.81764300  0.21748300  0.03512600  1
  Er  Er10  1  0.18235700  0.78251700  0.96487400  1
  Er  Er11  1  0.81764300  0.78251700  0.60015900  1
  Ga  Ga0  1  0.00000000  0.50000000  0.50000000  1
  Ga  Ga1  1  0.50000000  0.00000000  0.50000000  1
  Ni  Ni0  1  0.64133900  0.50000000  0.14133900  1
  Ni  Ni1  1  0.35866100  0.50000000  0.85866100  1
  Ni  Ni2  1  0.87867600  0.87867600  0.00000000  1
  Ni  Ni3  1  0.12132400  0.12132400  0.00000000  1
loop_
_geom_bond_atom_site_label_1
_geom_bond_atom_site_label_2
_geom_bond_distance
_geom_bond_site_symmetry_2
Er0 Ni0 2.765210 1_455
Er0 Ga0 2.975042 1_555
Er0 Ni2 3.184548 1_455
Er0 Ga1 3.203059 1_565
Er1 Ni1 2.765210 1_655
Er1 Ga0 2.975042 1_655
Er1 Ni3 3.184548 1_656
Er1 Ga1 3.203059 1_555
Er2 Ni0 2.765210 1_555
Er2 Ga0 2.975042 1_655
Er2 Ni3 3.184548 1_555
Er2 Ga1 3.203059 1_555
Er3 Ni1 2.765210 1_555
Er3 Ga0 2.975042 1_555
Er3 Ni2 3.184548 1_556
Er3 Ga1 3.203059 1_565
Er4 Ni2 2.671845 1_555
Er4 Ni1 2.844564 1_554
Er4 Ni0 2.844569 1_555
Er4 Ga1 3.279143 1_565
Er5 Ni3 2.671846 1_555
Er5 Ni0 2.844561 1_555
Er5 Ni1 2.844561 1_554
Er5 Ga1 3.279145 1_565
Er6 Ni3 2.671845 1_556
Er6 Ni0 2.844564 1_556
Er6 Ni1 2.844569 1_555
Er6 Ga1 3.279143 1_555
Er7 Ni2 2.671846 1_556
Er7 Ni0 2.844561 1_556
Er7 Ni1 2.844561 1_555
Er7 Ga1 3.279145 1_555
Er8 Ni2 2.892098 1_445
Er8 Ni3 2.892102 1_555
Er8 Ni1 3.078931 1_555
Er8 Ga0 3.110348 1_555
Er8 Ga1 3.606074 1_555
Er9 Ni2 2.892094 1_545
Er9 Ni3 2.892094 1_655
Er9 Ni0 3.078937 1_555
Er9 Ga0 3.110349 1_655
Er9 Ga1 3.606075 1_554
Er10 Ni3 2.892094 1_566
Er10 Ni2 2.892094 1_456
Er10 Ni1 3.078937 1_555
Er10 Ga0 3.110349 1_555
Er10 Ga1 3.606075 1_566
Er11 Ni3 2.892098 1_666
Er11 Ni2 2.892102 1_556
Er11 Ni0 3.078931 1_555
Er11 Ga0 3.110348 1_655
Er11 Ga1 3.606074 1_565
Ni0 Ni1 2.675039 1_554
Ni2 Ni3 2.381603 1_665
