# generated using pymatgen
data_KIn(MoSe)6
_symmetry_space_group_name_H-M   'P 1'
_cell_length_a   9.59751182
_cell_length_b   9.59751182
_cell_length_c   4.52223400
_cell_angle_alpha   90.00000000
_cell_angle_beta   90.00000000
_cell_angle_gamma   119.99999878
_symmetry_Int_Tables_number   1
_chemical_formula_structural   KIn(MoSe)6
_chemical_formula_sum   'K1 In1 Mo6 Se6'
_cell_volume   360.74554744
_cell_formula_units_Z   1
loop_
 _symmetry_equiv_pos_site_id
 _symmetry_equiv_pos_as_xyz
  1  'x, y, z'
loop_
 _atom_site_type_symbol
 _atom_site_label
 _atom_site_symmetry_multiplicity
 _atom_site_fract_x
 _atom_site_fract_y
 _atom_site_fract_z
 _atom_site_occupancy
  K  K0  1  0.00000000  0.00000000  0.50000000  1
  In  In0  1  0.66666700  0.33333300  0.00000000  1
  Mo  Mo0  1  0.49041500  0.83058700  0.50000000  1
  Mo  Mo1  1  0.16941300  0.65982700  0.50000000  1
  Mo  Mo2  1  0.34017300  0.50958500  0.50000000  1
  Mo  Mo3  1  0.17754300  0.50275300  0.00000000  1
  Mo  Mo4  1  0.49724700  0.67479000  0.00000000  1
  Mo  Mo5  1  0.32521000  0.82245700  0.00000000  1
  Se  Se0  1  0.65632900  0.67656900  0.50000000  1
  Se  Se1  1  0.32343100  0.97976000  0.50000000  1
  Se  Se2  1  0.02024000  0.34367100  0.50000000  1
  Se  Se3  1  0.00760700  0.65076900  0.00000000  1
  Se  Se4  1  0.34923100  0.35683900  0.00000000  1
  Se  Se5  1  0.64316100  0.99239300  0.00000000  1
loop_
_geom_bond_atom_site_label_1
_geom_bond_atom_site_label_2
_geom_bond_distance
_geom_bond_site_symmetry_2
K0 Se1 3.205677 1_545
K0 Se2 3.205677 1_555
K0 Se0 3.205677 1_445
In0 Se5 3.165411 1_545
In0 Se3 3.165420 1_655
In0 Se4 3.165430 1_555
Mo0 Se1 2.629188 1_555
Mo0 Se0 2.659788 1_555
Mo0 Mo2 2.669885 1_555
Mo0 Mo1 2.669885 1_555
Mo0 Se5 2.719703 1_556
Mo0 Se5 2.719703 1_555
Mo0 Mo4 2.729617 1_556
Mo0 Mo4 2.729617 1_555
Mo0 Mo5 2.740258 1_556
Mo0 Mo5 2.740258 1_555
Mo1 Se2 2.629180 1_555
Mo1 Se1 2.659796 1_555
Mo1 Mo2 2.669885 1_555
Mo1 Se3 2.719708 1_555
Mo1 Se3 2.719708 1_556
Mo1 Mo5 2.729620 1_555
Mo1 Mo5 2.729620 1_556
Mo1 Mo3 2.740252 1_556
Mo1 Mo3 2.740252 1_555
Mo2 Se0 2.629180 1_555
Mo2 Se2 2.659796 1_555
Mo2 Se4 2.719697 1_556
Mo2 Se4 2.719697 1_555
Mo2 Mo3 2.729622 1_555
Mo2 Mo3 2.729622 1_556
Mo2 Mo4 2.740255 1_556
Mo2 Mo4 2.740255 1_555
Mo3 Se4 2.642705 1_555
Mo3 Se3 2.644811 1_555
Mo3 Mo5 2.659852 1_555
Mo3 Mo4 2.659852 1_555
Mo3 Se2 2.723594 1_554
Mo3 Se2 2.723594 1_555
Mo4 Se5 2.642714 1_555
Mo4 Se4 2.644802 1_555
Mo4 Mo5 2.659852 1_555
Mo4 Se0 2.723594 1_555
Mo4 Se0 2.723594 1_554
Mo5 Se3 2.642713 1_555
Mo5 Se5 2.644803 1_555
Mo5 Se1 2.723594 1_554
Mo5 Se1 2.723594 1_555
