# generated using pymatgen
data_Yb7Ni4Sn13
_symmetry_space_group_name_H-M   'P 1'
_cell_length_a   11.20912200
_cell_length_b   11.20912200
_cell_length_c   4.58424800
_cell_angle_alpha   90.00000000
_cell_angle_beta   90.00000000
_cell_angle_gamma   90.00000000
_symmetry_Int_Tables_number   1
_chemical_formula_structural   Yb7Ni4Sn13
_chemical_formula_sum   'Yb7 Ni4 Sn13'
_cell_volume   575.98516281
_cell_formula_units_Z   1
loop_
 _symmetry_equiv_pos_site_id
 _symmetry_equiv_pos_as_xyz
  1  'x, y, z'
loop_
 _atom_site_type_symbol
 _atom_site_label
 _atom_site_symmetry_multiplicity
 _atom_site_fract_x
 _atom_site_fract_y
 _atom_site_fract_z
 _atom_site_occupancy
  Yb  Yb0  1  0.00000000  0.00000000  0.00000000  1
  Yb  Yb1  1  0.33833100  0.67098300  0.50000000  1
  Yb  Yb2  1  0.66166900  0.32901700  0.50000000  1
  Yb  Yb3  1  0.32901700  0.33833100  0.50000000  1
  Yb  Yb4  1  0.67098300  0.66166900  0.50000000  1
  Yb  Yb5  1  0.50000000  0.00000000  0.50000000  1
  Yb  Yb6  1  0.00000000  0.50000000  0.50000000  1
  Ni  Ni0  1  0.12011200  0.72384200  0.00000000  1
  Ni  Ni1  1  0.87988800  0.27615800  0.00000000  1
  Ni  Ni2  1  0.27615800  0.12011200  0.00000000  1
  Ni  Ni3  1  0.72384200  0.87988800  0.00000000  1
  Sn  Sn0  1  0.28417000  0.88936500  0.00000000  1
  Sn  Sn1  1  0.71583000  0.11063500  0.00000000  1
  Sn  Sn2  1  0.11063500  0.28417000  0.00000000  1
  Sn  Sn3  1  0.88936500  0.71583000  0.00000000  1
  Sn  Sn4  1  0.07689300  0.80960000  0.50000000  1
  Sn  Sn5  1  0.92310700  0.19040000  0.50000000  1
  Sn  Sn6  1  0.19040000  0.07689300  0.50000000  1
  Sn  Sn7  1  0.80960000  0.92310700  0.50000000  1
  Sn  Sn8  1  0.51879300  0.78461100  0.00000000  1
  Sn  Sn9  1  0.48120700  0.21538900  0.00000000  1
  Sn  Sn10  1  0.21538900  0.51879300  0.00000000  1
  Sn  Sn11  1  0.78461100  0.48120700  0.00000000  1
  Sn  Sn12  1  0.50000000  0.50000000  0.00000000  1
loop_
_geom_bond_atom_site_label_1
_geom_bond_atom_site_label_2
_geom_bond_distance
_geom_bond_site_symmetry_2
Ni0 Sn4 2.532304 1_555
Ni0 Sn4 2.532304 1_554
Ni0 Sn10 2.534422 1_555
Ni0 Sn3 2.588030 1_455
Ni0 Sn0 2.612300 1_555
Ni0 Yb0 3.375605 1_565
Ni0 Yb1 3.404118 1_555
Ni0 Yb1 3.404118 1_554
Ni0 Yb6 3.655398 1_554
Ni0 Yb6 3.655398 1_555
Ni1 Sn5 2.532304 1_554
Ni1 Sn5 2.532304 1_555
Ni1 Sn11 2.534422 1_555
Ni1 Sn2 2.588030 1_655
Ni1 Sn1 2.612300 1_555
Ni1 Yb0 3.375605 1_655
Ni1 Yb2 3.404118 1_555
Ni1 Yb2 3.404118 1_554
Ni1 Yb6 3.655398 1_654
Ni1 Yb6 3.655398 1_655
Ni2 Sn6 2.532304 1_554
Ni2 Sn6 2.532304 1_555
Ni2 Sn9 2.534422 1_555
Ni2 Sn0 2.588030 1_545
Ni2 Sn2 2.612300 1_555
Ni2 Yb0 3.375605 1_555
Ni2 Yb3 3.404118 1_555
Ni2 Yb3 3.404118 1_554
Ni2 Yb5 3.655398 1_555
Ni2 Yb5 3.655398 1_554
Ni3 Sn7 2.532304 1_555
Ni3 Sn7 2.532304 1_554
Ni3 Sn8 2.534422 1_555
Ni3 Sn1 2.588030 1_565
Ni3 Sn3 2.612300 1_555
Ni3 Yb0 3.375605 1_665
Ni3 Yb4 3.404118 1_554
Ni3 Yb4 3.404118 1_555
Ni3 Yb5 3.655398 1_564
Ni3 Yb5 3.655398 1_565
Sn0 Sn8 2.880141 1_555
Sn0 Yb1 3.408001 1_554
Sn0 Yb1 3.408001 1_555
Sn0 Yb0 3.418188 1_565
Sn0 Yb5 3.555921 1_564
Sn0 Yb5 3.555921 1_565
Sn1 Sn9 2.880141 1_555
Sn1 Yb2 3.408001 1_555
Sn1 Yb2 3.408001 1_554
Sn1 Yb0 3.418188 1_655
Sn1 Yb5 3.555921 1_554
Sn1 Yb5 3.555921 1_555
Sn2 Yb3 3.408001 1_554
Sn2 Yb3 3.408001 1_555
Sn2 Yb0 3.418188 1_555
Sn2 Yb6 3.555921 1_555
Sn2 Yb6 3.555921 1_554
Sn3 Yb4 3.408001 1_555
Sn3 Yb4 3.408001 1_554
Sn3 Yb0 3.418188 1_665
Sn3 Yb6 3.555921 1_655
Sn3 Yb6 3.555921 1_654
Sn4 Yb0 3.248321 1_565
Sn4 Yb0 3.248321 1_566
Sn4 Yb1 3.316925 1_555
Sn4 Yb6 3.575775 1_555
Sn5 Yb0 3.248321 1_655
Sn5 Yb0 3.248321 1_656
Sn5 Yb2 3.316925 1_555
Sn5 Yb6 3.575775 1_655
Sn6 Yb0 3.248321 1_555
Sn6 Yb0 3.248321 1_556
Sn6 Yb3 3.316925 1_555
Sn6 Yb5 3.575775 1_555
Sn7 Yb0 3.248321 1_666
Sn7 Yb0 3.248321 1_665
Sn7 Yb4 3.316925 1_555
Sn7 Yb5 3.575775 1_565
Sn8 Yb4 3.172233 1_555
Sn8 Yb4 3.172233 1_554
Sn8 Yb1 3.311778 1_555
Sn8 Yb1 3.311778 1_554
Sn8 Yb5 3.335739 1_564
Sn8 Yb5 3.335739 1_565
Sn9 Yb3 3.172233 1_555
Sn9 Yb3 3.172233 1_554
Sn9 Yb2 3.311778 1_554
Sn9 Yb2 3.311778 1_555
Sn9 Yb5 3.335739 1_554
Sn9 Yb5 3.335739 1_555
Sn10 Sn2 2.880141 1_555
Sn10 Yb1 3.172233 1_555
Sn10 Yb1 3.172233 1_554
Sn10 Sn12 3.197187 1_555
Sn10 Yb3 3.311778 1_555
Sn10 Yb3 3.311778 1_554
Sn10 Yb6 3.335739 1_555
Sn10 Yb6 3.335739 1_554
Sn11 Sn3 2.880141 1_555
Sn11 Yb2 3.172233 1_555
Sn11 Yb2 3.172233 1_554
Sn11 Sn12 3.197187 1_555
Sn11 Yb4 3.311778 1_554
Sn11 Yb4 3.311778 1_555
Sn11 Yb6 3.335739 1_654
Sn11 Yb6 3.335739 1_655
Sn12 Sn9 3.197187 1_555
Sn12 Sn8 3.197187 1_555
Sn12 Yb2 3.494427 1_555
Sn12 Yb2 3.494427 1_554
Sn12 Yb4 3.494427 1_554
Sn12 Yb1 3.494427 1_555
Sn12 Yb3 3.494427 1_554
Sn12 Yb3 3.494427 1_555
Sn12 Yb1 3.494427 1_554
Sn12 Yb4 3.494427 1_555
