# generated using pymatgen
data_SrLaFeCoO6
_symmetry_space_group_name_H-M   'P 1'
_cell_length_a   5.50165822
_cell_length_b   9.53616866
_cell_length_c   5.50177151
_cell_angle_alpha   106.77313736
_cell_angle_beta   60.00063401
_cell_angle_gamma   90.00005142
_symmetry_Int_Tables_number   1
_chemical_formula_structural   SrLaFeCoO6
_chemical_formula_sum   'Sr2 La2 Fe2 Co2 O12'
_cell_volume   235.69208187
_cell_formula_units_Z   2
loop_
 _symmetry_equiv_pos_site_id
 _symmetry_equiv_pos_as_xyz
  1  'x, y, z'
loop_
 _atom_site_type_symbol
 _atom_site_label
 _atom_site_symmetry_multiplicity
 _atom_site_fract_x
 _atom_site_fract_y
 _atom_site_fract_z
 _atom_site_occupancy
  Sr  Sr0  1  0.87584200  0.37231600  0.24831700  1
  Sr  Sr1  1  0.37434100  0.87716200  0.25131900  1
  La  La0  1  0.12286700  0.63187300  0.75426200  1
  La  La1  1  0.62807700  0.11823300  0.74384600  1
  Fe  Fe0  1  0.75033200  0.74916300  0.49934700  1
  Fe  Fe1  1  0.25033000  0.24956200  0.49932900  1
  Co  Co0  1  0.50111100  0.49701200  0.99777400  1
  Co  Co1  1  0.00003600  0.00073700  0.99992800  1
  O  O0  1  0.87326000  0.37580100  0.75139400  1
  O  O1  1  0.36652600  0.87833900  0.75559200  1
  O  O2  1  0.63309100  0.12183500  0.24595700  1
  O  O3  1  0.12747400  0.62528500  0.24891000  1
  O  O4  1  0.37534900  0.37580000  0.75139000  1
  O  O5  1  0.87788400  0.87833800  0.75559300  1
  O  O6  1  0.12095200  0.12183600  0.24595800  1
  O  O7  1  0.62361500  0.62528200  0.24891100  1
  O  O8  1  0.62364900  0.62527300  0.75270800  1
  O  O9  1  0.12211500  0.12202400  0.75577700  1
  O  O10  1  0.37566500  0.37565200  0.24867000  1
  O  O11  1  0.87748600  0.87847800  0.24502200  1
loop_
_geom_bond_atom_site_label_1
_geom_bond_atom_site_label_2
_geom_bond_distance
_geom_bond_site_symmetry_2
La0 O5 2.705719 1_455
La0 O1 2.705744 1_555
La0 O11 2.708012 1_456
La0 O7 2.750186 1_555
La0 O3 2.750190 1_555
La0 O8 2.751475 1_455
La0 O8 2.751530 1_555
La0 O3 2.752904 1_556
La0 O7 2.752906 1_456
La0 O0 2.801534 1_455
La0 O4 2.801553 1_555
La0 O10 2.801883 1_555
La1 O11 2.693470 1_545
La1 O1 2.701955 1_545
La1 O5 2.701973 1_545
La1 O6 2.735742 1_655
La1 O2 2.735744 1_555
La1 O9 2.751386 1_555
La1 O9 2.751424 1_655
La1 O6 2.766726 1_556
La1 O2 2.766728 1_556
La1 O4 2.802033 1_555
La1 O0 2.802036 1_555
La1 O10 2.806516 1_556
Fe0 O3 1.949598 1_655
Fe0 O7 1.949653 1_555
Fe0 O8 1.950282 1_555
Fe0 O5 1.996095 1_555
Fe0 O1 1.996130 1_555
Fe0 O11 1.996252 1_555
Fe1 O10 1.956849 1_555
Fe1 O0 1.958466 1_455
Fe1 O4 1.958501 1_555
Fe1 O6 1.986369 1_555
Fe1 O2 1.986420 1_555
Fe1 O9 1.990640 1_555
Co0 O4 1.919863 1_555
Co0 O0 1.919871 1_555
Co0 O10 1.921064 1_556
Co0 O8 1.952251 1_555
Co0 O3 1.953277 1_556
Co0 O7 1.953281 1_556
Co1 O9 1.894134 1_555
Co1 O2 1.899105 1_456
Co1 O6 1.899113 1_556
Co1 O5 1.902337 1_445
Co1 O1 1.902345 1_545
Co1 O11 1.905366 1_446
O0 Sr0 2.750837 1_556
O0 Sr0 2.751308 1_555
O1 Sr1 2.749906 1_555
O1 Sr1 2.752361 1_556
O2 Sr1 2.732970 1_545
O2 Sr0 2.736567 1_555
O3 Sr1 2.759305 1_555
O3 Sr0 2.781363 1_455
O4 Sr0 2.750848 1_456
O4 Sr0 2.751293 1_555
O5 Sr1 2.749907 1_655
O5 Sr1 2.752356 1_556
O6 Sr1 2.732981 1_545
O6 Sr0 2.736561 1_455
O7 Sr1 2.759330 1_555
O7 Sr0 2.781343 1_555
O8 Sr1 2.758768 1_556
O8 Sr0 2.780476 1_555
O9 Sr0 2.733384 1_456
O9 Sr1 2.736650 1_545
O10 Sr0 2.751004 1_455
O10 Sr0 2.751010 1_555
O11 Sr1 2.751048 1_555
O11 Sr1 2.751086 1_655
