# generated using pymatgen
data_Mn3Fe3Ge2
_symmetry_space_group_name_H-M   'P 1'
_cell_length_a   5.17709990
_cell_length_b   5.17709990
_cell_length_c   4.13829700
_cell_angle_alpha   90.00000000
_cell_angle_beta   90.00000000
_cell_angle_gamma   119.99999869
_symmetry_Int_Tables_number   1
_chemical_formula_structural   Mn3Fe3Ge2
_chemical_formula_sum   'Mn3 Fe3 Ge2'
_cell_volume   96.05619607
_cell_formula_units_Z   1
loop_
 _symmetry_equiv_pos_site_id
 _symmetry_equiv_pos_as_xyz
  1  'x, y, z'
loop_
 _atom_site_type_symbol
 _atom_site_label
 _atom_site_symmetry_multiplicity
 _atom_site_fract_x
 _atom_site_fract_y
 _atom_site_fract_z
 _atom_site_occupancy
  Mn  Mn0  1  0.98666500  0.49333300  0.00000000  1
  Mn  Mn1  1  0.50666700  0.49333300  0.00000000  1
  Mn  Mn2  1  0.50666700  0.01333500  0.00000000  1
  Fe  Fe0  1  0.34588200  0.17294100  0.50000000  1
  Fe  Fe1  1  0.82705900  0.17294100  0.50000000  1
  Fe  Fe2  1  0.82705900  0.65411800  0.50000000  1
  Ge  Ge0  1  0.33333300  0.66666700  0.50000000  1
  Ge  Ge1  1  0.00000000  0.00000000  0.00000000  1
loop_
_geom_bond_atom_site_label_1
_geom_bond_atom_site_label_2
_geom_bond_distance
_geom_bond_site_symmetry_2
Mn0 Mn1 2.484998 1_555
Mn0 Mn2 2.484998 1_555
Mn0 Mn1 2.692102 1_655
Mn0 Mn2 2.692102 1_665
Mn1 Mn2 2.484998 1_555
Mn1 Mn2 2.692102 1_565
Fe0 Fe1 2.491101 1_555
Fe0 Fe2 2.491101 1_555
Fe0 Mn2 2.518897 1_555
Fe0 Mn2 2.518897 1_556
Fe0 Mn1 2.518899 1_556
Fe0 Mn1 2.518899 1_555
Fe0 Ge1 2.585776 1_555
Fe0 Ge1 2.585776 1_556
Fe0 Ge0 2.589159 1_545
Fe0 Ge0 2.589164 1_555
Fe0 Fe1 2.685999 1_455
Fe0 Fe2 2.685999 1_445
Fe1 Fe2 2.491101 1_555
Fe1 Mn2 2.518899 1_555
Fe1 Mn2 2.518899 1_556
Fe1 Mn0 2.518899 1_555
Fe1 Mn0 2.518899 1_556
Fe1 Ge1 2.585776 1_656
Fe1 Ge1 2.585776 1_655
Fe1 Ge0 2.589161 1_655
Fe1 Ge0 2.589161 1_545
Fe1 Fe2 2.685999 1_545
Fe2 Mn0 2.518897 1_556
Fe2 Mn0 2.518897 1_555
Fe2 Mn1 2.518899 1_556
Fe2 Mn1 2.518899 1_555
Fe2 Ge1 2.585776 1_665
Fe2 Ge1 2.585776 1_666
Fe2 Ge0 2.589159 1_655
Fe2 Ge0 2.589164 1_555
Ge0 Mn1 2.587891 1_556
Ge0 Mn1 2.587891 1_555
Ge0 Mn0 2.587891 1_456
Ge0 Mn0 2.587891 1_455
Ge0 Mn2 2.587891 1_566
Ge0 Mn2 2.587891 1_565
Ge1 Mn2 2.589238 1_555
Ge1 Mn0 2.589238 1_445
Ge1 Mn1 2.589240 1_555
Ge1 Mn1 2.589240 1_445
Ge1 Mn0 2.589243 1_455
Ge1 Mn2 2.589243 1_455
