# generated using pymatgen
data_Fe3C
_symmetry_space_group_name_H-M   'P 1'
_cell_length_a   6.30850360
_cell_length_b   6.30850360
_cell_length_c   6.30850360
_cell_angle_alpha   96.43572815
_cell_angle_beta   96.43572815
_cell_angle_gamma   140.87969045
_symmetry_Int_Tables_number   1
_chemical_formula_structural   Fe3C
_chemical_formula_sum   'Fe12 C4'
_cell_volume   149.26549071
_cell_formula_units_Z   4
loop_
 _symmetry_equiv_pos_site_id
 _symmetry_equiv_pos_as_xyz
  1  'x, y, z'
loop_
 _atom_site_type_symbol
 _atom_site_label
 _atom_site_symmetry_multiplicity
 _atom_site_fract_x
 _atom_site_fract_y
 _atom_site_fract_z
 _atom_site_occupancy
  Fe  Fe0  1  0.50000000  0.85609000  0.35609000  1
  Fe  Fe1  1  0.50000000  0.14391000  0.64391000  1
  Fe  Fe2  1  0.14391000  0.50000000  0.64391000  1
  Fe  Fe3  1  0.85609000  0.50000000  0.35609000  1
  Fe  Fe4  1  0.99357000  0.99357000  0.39149800  1
  Fe  Fe5  1  0.60207200  0.60207200  0.60850200  1
  Fe  Fe6  1  0.00643000  0.39792800  0.00000000  1
  Fe  Fe7  1  0.39792800  0.00643000  0.00000000  1
  Fe  Fe8  1  0.16323300  0.16323300  0.80377200  1
  Fe  Fe9  1  0.35946000  0.35946000  0.19622800  1
  Fe  Fe10  1  0.83676700  0.64054000  0.00000000  1
  Fe  Fe11  1  0.64054000  0.83676700  0.00000000  1
  C  C0  1  0.71000100  0.00000000  0.71000100  1
  C  C1  1  0.28999900  0.00000000  0.28999900  1
  C  C2  1  0.00000000  0.71000100  0.71000100  1
  C  C3  1  0.00000000  0.28999900  0.28999900  1
loop_
_geom_bond_atom_site_label_1
_geom_bond_atom_site_label_2
_geom_bond_distance
_geom_bond_site_symmetry_2
C0 Fe6 2.016228 1_656
C0 Fe5 2.016228 1_545
C0 Fe8 2.121608 1_655
C0 Fe11 2.121608 1_546
C0 Fe1 2.140173 1_555
C0 Fe0 2.140173 1_545
C0 Fe2 2.183922 1_655
C0 Fe2 2.183922 1_545
C1 Fe4 2.016228 1_445
C1 Fe7 2.016228 1_555
C1 Fe9 2.121605 1_555
C1 Fe10 2.121608 1_445
C1 Fe0 2.140173 1_545
C1 Fe1 2.140173 1_555
C1 Fe3 2.183922 1_555
C1 Fe3 2.183922 1_445
C2 Fe7 2.016228 1_566
C2 Fe5 2.016228 1_455
C2 Fe8 2.121608 1_565
C2 Fe10 2.121608 1_456
C2 Fe2 2.140173 1_555
C2 Fe3 2.140173 1_455
C2 Fe1 2.183922 1_455
C2 Fe1 2.183922 1_565
C3 Fe4 2.016228 1_445
C3 Fe6 2.016228 1_555
C3 Fe9 2.121605 1_555
C3 Fe11 2.121608 1_445
C3 Fe3 2.140173 1_455
C3 Fe2 2.140173 1_555
C3 Fe0 2.183922 1_445
C3 Fe0 2.183922 1_555
