# generated using pymatgen
data_TmGe2Pt
_symmetry_space_group_name_H-M   'P 1'
_cell_length_a   4.33556500
_cell_length_b   8.76915400
_cell_length_c   9.49433578
_cell_angle_alpha   117.50395029
_cell_angle_beta   103.19840800
_cell_angle_gamma   90.00000000
_symmetry_Int_Tables_number   1
_chemical_formula_structural   TmGe2Pt
_chemical_formula_sum   'Tm4 Ge8 Pt4'
_cell_volume   309.38085806
_cell_formula_units_Z   4
loop_
 _symmetry_equiv_pos_site_id
 _symmetry_equiv_pos_as_xyz
  1  'x, y, z'
loop_
 _atom_site_type_symbol
 _atom_site_label
 _atom_site_symmetry_multiplicity
 _atom_site_fract_x
 _atom_site_fract_y
 _atom_site_fract_z
 _atom_site_occupancy
  Tm  Tm0  1  0.00000000  0.26351900  0.00000000  1
  Tm  Tm1  1  0.00000000  0.73648100  0.00000000  1
  Tm  Tm2  1  0.79692000  0.29692000  0.59384000  1
  Tm  Tm3  1  0.20308000  0.70308000  0.40616000  1
  Ge  Ge0  1  0.42619500  0.92619500  0.85238900  1
  Ge  Ge1  1  0.57380500  0.07380500  0.14761100  1
  Ge  Ge2  1  0.42572200  0.42572200  0.85144400  1
  Ge  Ge3  1  0.57427800  0.57427800  0.14855600  1
  Ge  Ge4  1  0.19944500  0.04873900  0.39889100  1
  Ge  Ge5  1  0.80055500  0.95126100  0.60110900  1
  Ge  Ge6  1  0.19944500  0.35015200  0.39889100  1
  Ge  Ge7  1  0.80055500  0.64984800  0.60110900  1
  Pt  Pt0  1  0.35266500  0.10311700  0.70533000  1
  Pt  Pt1  1  0.64733500  0.89688300  0.29467000  1
  Pt  Pt2  1  0.35266500  0.60221300  0.70533000  1
  Pt  Pt3  1  0.64733500  0.39778700  0.29467000  1
loop_
_geom_bond_atom_site_label_1
_geom_bond_atom_site_label_2
_geom_bond_distance
_geom_bond_site_symmetry_2
Ge0 Ge1 2.402364 1_566
Ge0 Pt0 2.501114 1_565
Ge0 Pt2 2.501122 1_555
Ge0 Tm0 3.388519 1_666
Ge0 Tm0 3.388522 1_566
Ge0 Tm1 3.388525 1_656
Ge0 Tm1 3.388528 1_556
Ge1 Pt1 2.501114 1_545
Ge1 Pt3 2.501122 1_555
Ge1 Tm1 3.388519 1_545
Ge1 Tm1 3.388522 1_645
Ge1 Tm0 3.388525 1_555
Ge1 Tm0 3.388528 1_655
Ge2 Ge3 2.417744 1_556
Ge2 Pt2 2.490479 1_555
Ge2 Pt0 2.490479 1_555
Ge2 Tm2 3.015549 1_455
Ge2 Tm2 3.015549 1_555
Ge2 Tm0 3.234353 1_656
Ge2 Tm1 3.234353 1_656
Ge2 Tm1 3.234354 1_556
Ge2 Tm0 3.234354 1_556
Ge3 Pt3 2.490479 1_555
Ge3 Pt1 2.490479 1_555
Ge3 Tm3 3.015549 1_655
Ge3 Tm3 3.015549 1_555
Ge3 Tm0 3.234353 1_555
Ge3 Tm1 3.234353 1_555
Ge3 Tm0 3.234354 1_655
Ge3 Tm1 3.234354 1_655
Ge4 Pt1 2.486687 1_445
Ge4 Pt1 2.486691 1_545
Ge4 Pt0 2.639984 1_555
Ge4 Ge6 2.643137 1_555
Ge4 Tm2 2.993737 1_455
Ge4 Tm2 2.993740 1_555
Ge4 Tm3 3.063580 1_545
Ge4 Tm1 3.393371 1_545
Ge5 Pt0 2.486687 1_665
Ge5 Pt0 2.486691 1_565
Ge5 Pt1 2.639984 1_555
Ge5 Ge7 2.643137 1_555
Ge5 Tm3 2.993737 1_655
Ge5 Tm3 2.993740 1_555
Ge5 Tm2 3.063580 1_565
Ge5 Tm0 3.393371 1_666
Ge6 Pt3 2.486687 1_455
Ge6 Pt3 2.486691 1_555
Ge6 Pt2 2.639984 1_555
Ge6 Tm2 2.993737 1_455
Ge6 Tm2 2.993740 1_555
Ge6 Tm3 3.063580 1_555
Ge6 Tm0 3.393371 1_555
Ge7 Pt2 2.486687 1_655
Ge7 Pt2 2.486691 1_555
Ge7 Pt3 2.639984 1_555
Ge7 Tm3 2.993737 1_655
Ge7 Tm3 2.993740 1_555
Ge7 Tm2 3.063580 1_555
Ge7 Tm1 3.393371 1_656
Pt0 Tm2 3.211097 1_455
Pt0 Tm2 3.211097 1_555
Pt0 Tm0 3.234532 1_656
Pt0 Tm0 3.234533 1_556
Pt0 Tm3 3.278760 1_545
Pt1 Tm3 3.211097 1_655
Pt1 Tm3 3.211097 1_555
Pt1 Tm1 3.234532 1_555
Pt1 Tm1 3.234533 1_655
Pt1 Tm2 3.278760 1_565
Pt2 Tm2 3.211097 1_455
Pt2 Tm2 3.211097 1_555
Pt2 Tm1 3.234532 1_656
Pt2 Tm1 3.234533 1_556
Pt2 Tm3 3.278760 1_555
Pt3 Tm3 3.211097 1_655
Pt3 Tm3 3.211097 1_555
Pt3 Tm0 3.234532 1_555
Pt3 Tm0 3.234533 1_655
Pt3 Tm2 3.278760 1_555
