# generated using pymatgen
data_YbZnPt
_symmetry_space_group_name_H-M   'P 1'
_cell_length_a   4.18253400
_cell_length_b   7.09408900
_cell_length_c   7.92693700
_cell_angle_alpha   90.00000000
_cell_angle_beta   90.00000000
_cell_angle_gamma   90.00000000
_symmetry_Int_Tables_number   1
_chemical_formula_structural   YbZnPt
_chemical_formula_sum   'Yb4 Zn4 Pt4'
_cell_volume   235.20227565
_cell_formula_units_Z   4
loop_
 _symmetry_equiv_pos_site_id
 _symmetry_equiv_pos_as_xyz
  1  'x, y, z'
loop_
 _atom_site_type_symbol
 _atom_site_label
 _atom_site_symmetry_multiplicity
 _atom_site_fract_x
 _atom_site_fract_y
 _atom_site_fract_z
 _atom_site_occupancy
  Yb  Yb0  1  0.75000000  0.47623000  0.81352700  1
  Yb  Yb1  1  0.25000000  0.02377000  0.31352700  1
  Yb  Yb2  1  0.75000000  0.97623000  0.68647300  1
  Yb  Yb3  1  0.25000000  0.52377000  0.18647300  1
  Zn  Zn0  1  0.25000000  0.65002400  0.57252100  1
  Zn  Zn1  1  0.25000000  0.15002400  0.92747900  1
  Zn  Zn2  1  0.75000000  0.34997600  0.42747900  1
  Zn  Zn3  1  0.75000000  0.84997600  0.07252100  1
  Pt  Pt0  1  0.25000000  0.77399400  0.88466600  1
  Pt  Pt1  1  0.25000000  0.27399400  0.61533400  1
  Pt  Pt2  1  0.75000000  0.72600600  0.38466600  1
  Pt  Pt3  1  0.75000000  0.22600600  0.11533400  1
loop_
_geom_bond_atom_site_label_1
_geom_bond_atom_site_label_2
_geom_bond_distance
_geom_bond_site_symmetry_2
Yb0 Zn0 3.089214 1_555
Yb0 Zn0 3.089214 1_655
Yb0 Zn2 3.188556 1_555
Yb0 Zn1 3.247237 1_555
Yb0 Zn1 3.247237 1_655
Yb0 Zn3 3.353324 1_556
Yb1 Zn3 3.089214 1_445
Yb1 Zn3 3.089214 1_545
Yb1 Zn1 3.188556 1_554
Yb1 Zn2 3.247237 1_555
Yb1 Zn2 3.247237 1_455
Yb1 Zn0 3.353324 1_545
Yb2 Zn1 3.089214 1_565
Yb2 Zn1 3.089214 1_665
Yb2 Zn3 3.188556 1_556
Yb2 Zn0 3.247237 1_555
Yb2 Zn0 3.247237 1_655
Yb2 Zn2 3.353324 1_565
Yb3 Zn2 3.089214 1_455
Yb3 Zn2 3.089214 1_555
Yb3 Zn0 3.188556 1_555
Yb3 Zn3 3.247237 1_555
Yb3 Zn3 3.247237 1_455
Yb3 Zn1 3.353324 1_554
Pt0 Zn3 2.623243 1_556
Pt0 Zn3 2.623243 1_456
Pt0 Zn0 2.625998 1_555
Pt0 Zn1 2.689092 1_565
Pt0 Yb3 2.979030 1_556
Pt0 Yb2 2.983278 1_455
Pt0 Yb2 2.983278 1_555
Pt0 Yb0 3.025472 1_455
Pt0 Yb0 3.025472 1_555
Pt1 Zn2 2.623243 1_555
Pt1 Zn2 2.623243 1_455
Pt1 Zn1 2.625998 1_555
Pt1 Zn0 2.689092 1_555
Pt1 Yb1 2.979030 1_555
Pt1 Yb0 2.983278 1_455
Pt1 Yb0 2.983278 1_555
Pt1 Yb2 3.025472 1_445
Pt1 Yb2 3.025472 1_545
Pt2 Zn0 2.623243 1_655
Pt2 Zn0 2.623243 1_555
Pt2 Zn3 2.625998 1_555
Pt2 Zn2 2.689092 1_555
Pt2 Yb2 2.979030 1_555
Pt2 Yb3 2.983278 1_555
Pt2 Yb3 2.983278 1_655
Pt2 Yb1 3.025472 1_565
Pt2 Yb1 3.025472 1_665
Pt3 Zn1 2.623243 1_554
Pt3 Zn1 2.623243 1_654
Pt3 Zn2 2.625998 1_555
Pt3 Zn3 2.689092 1_545
Pt3 Yb0 2.979030 1_554
Pt3 Yb1 2.983278 1_655
Pt3 Yb1 2.983278 1_555
Pt3 Yb3 3.025472 1_555
Pt3 Yb3 3.025472 1_655
