# generated using pymatgen
data_C11F7
_symmetry_space_group_name_H-M   'P 1'
_cell_length_a   6.13417845
_cell_length_b   6.13417845
_cell_length_c   13.79451585
_cell_angle_alpha   85.79723518
_cell_angle_beta   85.79723518
_cell_angle_gamma   82.00049108
_symmetry_Int_Tables_number   1
_chemical_formula_structural   C11F7
_chemical_formula_sum   'C22 F14'
_cell_volume   511.58201144
_cell_formula_units_Z   2
loop_
 _symmetry_equiv_pos_site_id
 _symmetry_equiv_pos_as_xyz
  1  'x, y, z'
loop_
 _atom_site_type_symbol
 _atom_site_label
 _atom_site_symmetry_multiplicity
 _atom_site_fract_x
 _atom_site_fract_y
 _atom_site_fract_z
 _atom_site_occupancy
  C  C0  1  0.09809200  0.79950200  0.96654600  1
  C  C1  1  0.20049800  0.90190800  0.03345400  1
  C  C2  1  0.90190800  0.20049800  0.03345400  1
  C  C3  1  0.79950200  0.09809200  0.96654600  1
  C  C4  1  0.89416100  0.89416100  0.93087700  1
  C  C5  1  0.10583900  0.10583900  0.06912300  1
  C  C6  1  0.79009200  0.79009200  0.86316100  1
  C  C7  1  0.20990800  0.20990800  0.13683900  1
  C  C8  1  0.69955300  0.69955300  0.80459100  1
  C  C9  1  0.30044700  0.30044700  0.19540900  1
  C  C10  1  0.59396200  0.59396200  0.73773600  1
  C  C11  1  0.40603800  0.40603800  0.26226400  1
  C  C12  1  0.68771300  0.38913100  0.70290600  1
  C  C13  1  0.61086900  0.31228700  0.29709400  1
  C  C14  1  0.31228700  0.61086900  0.29709400  1
  C  C15  1  0.38913100  0.68771300  0.70290600  1
  C  C16  1  0.58322000  0.28223500  0.63783000  1
  C  C17  1  0.71776500  0.41678000  0.36217000  1
  C  C18  1  0.41678000  0.71776500  0.36217000  1
  C  C19  1  0.28223500  0.58322000  0.63783000  1
  C  C20  1  0.37910400  0.37910400  0.60558700  1
  C  C21  1  0.62089600  0.62089600  0.39441300  1
  F  F0  1  0.19573600  0.60448700  0.93471600  1
  F  F1  1  0.39551300  0.80426400  0.06528400  1
  F  F2  1  0.80426400  0.39551300  0.06528400  1
  F  F3  1  0.60448700  0.19573600  0.93471600  1
  F  F4  1  0.88440200  0.29279700  0.73318200  1
  F  F5  1  0.70720300  0.11559800  0.26681800  1
  F  F6  1  0.11559800  0.70720300  0.26681800  1
  F  F7  1  0.29279700  0.88440200  0.73318200  1
  F  F8  1  0.67688200  0.08704000  0.60539400  1
  F  F9  1  0.91296000  0.32311800  0.39460600  1
  F  F10  1  0.32311800  0.91296000  0.39460600  1
  F  F11  1  0.08704000  0.67688200  0.60539400  1
  F  F12  1  0.27669100  0.27669100  0.54290500  1
  F  F13  1  0.72330900  0.72330900  0.45709500  1
loop_
_geom_bond_atom_site_label_1
_geom_bond_atom_site_label_2
_geom_bond_distance
_geom_bond_site_symmetry_2
C0 F0 1.349664 1_555
C0 C4 1.410782 1_455
C1 F1 1.349664 1_555
C1 C5 1.410782 1_565
C2 F2 1.349664 1_555
C2 C5 1.410782 1_655
C3 F3 1.349664 1_555
C3 C4 1.410782 1_545
C4 C6 1.405648 1_555
C5 C7 1.405648 1_555
C6 C8 1.219452 1_555
C7 C9 1.219452 1_555
C10 C8 1.407642 1_555
C10 C12 1.409665 1_555
C10 C15 1.409665 1_555
C11 C9 1.407642 1_555
C11 C13 1.409665 1_555
C11 C14 1.409665 1_555
C12 F4 1.348544 1_555
C13 F5 1.348544 1_555
C14 F6 1.348544 1_555
C15 F7 1.348544 1_555
C16 F8 1.346605 1_555
C17 F9 1.346605 1_555
C18 F10 1.346605 1_555
C19 F11 1.346605 1_555
C20 F12 1.343895 1_555
C21 F13 1.343895 1_555
