# generated using pymatgen
data_LiNdMn4O12
_symmetry_space_group_name_H-M   'P 1'
_cell_length_a   5.31778056
_cell_length_b   5.31778056
_cell_length_c   7.76173193
_cell_angle_alpha   90.00000000
_cell_angle_beta   90.00000000
_cell_angle_gamma   90.00000000
_symmetry_Int_Tables_number   1
_chemical_formula_structural   LiNdMn4O12
_chemical_formula_sum   'Li1 Nd1 Mn4 O12'
_cell_volume   219.49238794
_cell_formula_units_Z   1
loop_
 _symmetry_equiv_pos_site_id
 _symmetry_equiv_pos_as_xyz
  1  'x, y, z'
loop_
 _atom_site_type_symbol
 _atom_site_label
 _atom_site_symmetry_multiplicity
 _atom_site_fract_x
 _atom_site_fract_y
 _atom_site_fract_z
 _atom_site_occupancy
  Li  Li0  1  0.50000000  0.50000000  0.00000000  1
  Nd  Nd0  1  0.00000000  0.00000000  0.50000000  1
  Mn  Mn0  1  0.00000000  0.50000000  0.76357882  1
  Mn  Mn1  1  0.00000000  0.50000000  0.23642118  1
  Mn  Mn2  1  0.50000000  0.00000000  0.76357882  1
  Mn  Mn3  1  0.50000000  -0.00000000  0.23642118  1
  O  O0  1  0.24238520  0.24238520  0.73084933  1
  O  O1  1  0.24238520  0.24238520  0.26915067  1
  O  O2  1  0.75761480  0.75761480  0.73084933  1
  O  O3  1  0.75761480  0.75761480  0.26915067  1
  O  O4  1  0.75761480  0.24238520  0.73084933  1
  O  O5  1  0.75761480  0.24238520  0.26915067  1
  O  O6  1  0.24238520  0.75761480  0.73084933  1
  O  O7  1  0.24238520  0.75761480  0.26915067  1
  O  O8  1  -0.00000000  0.50000000  0.50000000  1
  O  O9  1  -0.00000000  0.50000000  0.00000000  1
  O  O10  1  0.50000000  -0.00000000  0.50000000  1
  O  O11  1  0.50000000  0.00000000  0.00000000  1
loop_
_geom_bond_atom_site_label_1
_geom_bond_atom_site_label_2
_geom_bond_distance
_geom_bond_site_symmetry_2
Li0 O9 2.658890 1_655
Li0 O11 2.658890 1_565
Li0 O9 2.658890 1_555
Li0 O11 2.658890 1_555
Nd0 O1 2.556033 1_555
Nd0 O0 2.556033 1_555
Nd0 O4 2.556033 1_455
Nd0 O6 2.556033 1_545
Nd0 O7 2.556033 1_545
Nd0 O5 2.556033 1_455
Nd0 O2 2.556033 1_445
Nd0 O3 2.556033 1_445
Nd0 O10 2.658890 1_555
Nd0 O8 2.658890 1_545
Nd0 O8 2.658890 1_555
Nd0 O10 2.658890 1_455
Mn0 O9 1.835038 1_556
Mn0 O6 1.898068 1_555
Mn0 O2 1.898068 1_455
Mn0 O0 1.898068 1_555
Mn0 O4 1.898068 1_455
Mn0 O8 2.045828 1_555
Mn1 O9 1.835038 1_555
Mn1 O7 1.898068 1_555
Mn1 O3 1.898068 1_455
Mn1 O1 1.898068 1_555
Mn1 O5 1.898068 1_455
Mn1 O8 2.045828 1_555
Mn2 O11 1.835038 1_556
Mn2 O4 1.898068 1_555
Mn2 O2 1.898068 1_545
Mn2 O0 1.898068 1_555
Mn2 O6 1.898068 1_545
Mn2 O10 2.045828 1_555
Mn3 O11 1.835038 1_555
Mn3 O5 1.898068 1_555
Mn3 O3 1.898068 1_545
Mn3 O1 1.898068 1_555
Mn3 O7 1.898068 1_545
Mn3 O10 2.045828 1_555
