# generated using pymatgen
data_N2O
_symmetry_space_group_name_H-M   'P 1'
_cell_length_a   4.37266700
_cell_length_b   5.40011600
_cell_length_c   6.62729400
_cell_angle_alpha   90.00000000
_cell_angle_beta   90.00000000
_cell_angle_gamma   90.00000000
_symmetry_Int_Tables_number   1
_chemical_formula_structural   N2O
_chemical_formula_sum   'N8 O4'
_cell_volume   156.48969033
_cell_formula_units_Z   4
loop_
 _symmetry_equiv_pos_site_id
 _symmetry_equiv_pos_as_xyz
  1  'x, y, z'
loop_
 _atom_site_type_symbol
 _atom_site_label
 _atom_site_symmetry_multiplicity
 _atom_site_fract_x
 _atom_site_fract_y
 _atom_site_fract_z
 _atom_site_occupancy
  N  N0  1  0.25000000  0.21001500  0.87259900  1
  N  N1  1  0.25000000  0.28998500  0.37259900  1
  N  N2  1  0.75000000  0.78998500  0.12740100  1
  N  N3  1  0.75000000  0.71001500  0.62740100  1
  N  N4  1  0.25000000  0.50114000  0.36282900  1
  N  N5  1  0.25000000  0.99886000  0.86282900  1
  N  N6  1  0.75000000  0.49886000  0.63717100  1
  N  N7  1  0.75000000  0.00114000  0.13717100  1
  O  O0  1  0.25000000  0.43067500  0.88574900  1
  O  O1  1  0.25000000  0.06932500  0.38574900  1
  O  O2  1  0.75000000  0.56932500  0.11425100  1
  O  O3  1  0.75000000  0.93067500  0.61425100  1
loop_
_geom_bond_atom_site_label_1
_geom_bond_atom_site_label_2
_geom_bond_distance
_geom_bond_site_symmetry_2
N0 N5 1.142098 1_545
N0 O0 1.194772 1_555
N1 N4 1.142098 1_555
N1 O1 1.194772 1_555
N2 N7 1.142098 1_565
N2 O2 1.194772 1_555
N3 N6 1.142098 1_555
N3 O3 1.194772 1_555
