# generated using pymatgen
data_Li(CoO2)4
_symmetry_space_group_name_H-M   'P 1'
_cell_length_a   5.70036683
_cell_length_b   5.99995478
_cell_length_c   9.78390237
_cell_angle_alpha   105.97278218
_cell_angle_beta   90.05726227
_cell_angle_gamma   118.36637992
_symmetry_Int_Tables_number   1
_chemical_formula_structural   Li(CoO2)4
_chemical_formula_sum   'Li2 Co8 O16'
_cell_volume   279.62723039
_cell_formula_units_Z   2
loop_
 _symmetry_equiv_pos_site_id
 _symmetry_equiv_pos_as_xyz
  1  'x, y, z'
loop_
 _atom_site_type_symbol
 _atom_site_label
 _atom_site_symmetry_multiplicity
 _atom_site_fract_x
 _atom_site_fract_y
 _atom_site_fract_z
 _atom_site_occupancy
  Li  Li0  1  0.75094300  0.00129000  0.25149400  1
  Li  Li1  1  0.24996200  0.99873400  0.74856300  1
  Co  Co0  1  0.49972500  0.50000900  0.99999900  1
  Co  Co1  1  0.75216200  0.50386500  0.75121200  1
  Co  Co2  1  0.74868000  0.49587000  0.24871800  1
  Co  Co3  1  0.50017600  0.50003800  0.49999400  1
  Co  Co4  1  0.99963300  0.50000700  0.99999400  1
  Co  Co5  1  0.00128300  0.49995500  0.50002000  1
  Co  Co6  1  0.24752100  0.49601000  0.24828100  1
  Co  Co7  1  0.25114300  0.50423500  0.75174300  1
  O  O0  1  0.90675900  0.31331300  0.63662600  1
  O  O1  1  0.40461300  0.31022500  0.13681200  1
  O  O2  1  0.59449500  0.68980800  0.86321200  1
  O  O3  1  0.09395200  0.68656000  0.36332200  1
  O  O4  1  0.09631400  0.69455100  0.86660900  1
  O  O5  1  0.59495300  0.68807700  0.36177500  1
  O  O6  1  0.13753800  0.29948200  0.37897000  1
  O  O7  1  0.65360600  0.30985800  0.88287900  1
  O  O8  1  0.33714100  0.70190000  0.62195800  1
  O  O9  1  0.84405900  0.69023400  0.11714200  1
  O  O10  1  0.15431300  0.30791900  0.88244300  1
  O  O11  1  0.66473000  0.30075900  0.37855800  1
  O  O12  1  0.34655700  0.69199000  0.11753200  1
  O  O13  1  0.86175400  0.69794600  0.62060600  1
  O  O14  1  0.40605700  0.31199000  0.63818600  1
  O  O15  1  0.90193300  0.30537600  0.13335100  1
loop_
_geom_bond_atom_site_label_1
_geom_bond_atom_site_label_2
_geom_bond_distance
_geom_bond_site_symmetry_2
Li0 O11 2.150914 1_555
Li0 O6 2.152420 1_655
Li0 O5 2.239761 1_545
Li0 O12 2.250760 1_545
Li0 O15 2.253046 1_555
Li0 O9 2.255064 1_545
Li1 O8 2.140404 1_555
Li1 O13 2.162745 1_455
Li1 O14 2.240633 1_565
Li1 O7 2.251298 1_565
Li1 O4 2.252810 1_555
Li1 O10 2.253799 1_565
Co0 O9 1.901521 1_556
Co0 O7 1.901999 1_555
Co0 O2 1.906673 1_555
Co0 O1 1.906836 1_556
Co0 O10 1.907260 1_555
Co0 O12 1.907918 1_556
Co1 O13 1.873081 1_555
Co1 O2 1.880195 1_555
Co1 O7 1.880273 1_555
Co1 O14 1.891404 1_555
Co1 O4 1.893203 1_655
Co1 O0 1.895931 1_555
Co2 O11 1.870980 1_555
Co2 O1 1.880113 1_555
Co2 O9 1.880938 1_555
Co2 O5 1.892495 1_555
Co2 O15 1.893225 1_555
Co2 O3 1.894678 1_655
Co3 O14 1.911738 1_555
Co3 O5 1.911940 1_555
Co3 O13 1.987239 1_555
Co3 O6 1.992620 1_555
Co3 O11 2.001806 1_555
Co3 O8 2.007715 1_555
Co4 O4 1.896797 1_655
Co4 O15 1.896912 1_556
Co4 O7 1.908644 1_555
Co4 O9 1.909634 1_556
Co4 O12 1.913645 1_656
Co4 O10 1.914846 1_655
Co5 O8 1.884784 1_555
Co5 O11 1.885793 1_455
Co5 O6 1.886340 1_555
Co5 O13 1.887874 1_455
Co5 O0 1.892758 1_455
Co5 O3 1.893380 1_555
Co6 O1 1.874898 1_555
Co6 O12 1.880518 1_555
Co6 O6 1.883442 1_555
Co6 O3 1.893426 1_555
Co6 O15 1.897405 1_455
Co6 O5 1.898956 1_555
Co7 O2 1.875253 1_555
Co7 O8 1.880662 1_555
Co7 O10 1.881461 1_555
Co7 O0 1.892947 1_455
Co7 O4 1.897159 1_555
Co7 O14 1.899789 1_555
