# generated using pymatgen
data_HgSeO3
_symmetry_space_group_name_H-M   'P 1'
_cell_length_a   9.14933303
_cell_length_b   4.82283304
_cell_length_c   7.16844361
_cell_angle_alpha   88.81265267
_cell_angle_beta   90.00000000
_cell_angle_gamma   90.00000000
_symmetry_Int_Tables_number   1
_chemical_formula_structural   HgSeO3
_chemical_formula_sum   'Hg4 Se4 O12'
_cell_volume   316.24471549
_cell_formula_units_Z   4
loop_
 _symmetry_equiv_pos_site_id
 _symmetry_equiv_pos_as_xyz
  1  'x, y, z'
loop_
 _atom_site_type_symbol
 _atom_site_label
 _atom_site_symmetry_multiplicity
 _atom_site_fract_x
 _atom_site_fract_y
 _atom_site_fract_z
 _atom_site_occupancy
  Hg  Hg0  1  0.67676519  0.21929639  0.02776002  1
  Hg  Hg1  1  0.17676519  0.78070361  0.47223998  1
  Hg  Hg2  1  0.32323481  0.78070361  0.97223998  1
  Hg  Hg3  1  0.82323481  0.21929639  0.52776002  1
  Se  Se0  1  0.06460689  0.25051922  0.18183509  1
  Se  Se1  1  0.56460689  0.74948078  0.31816491  1
  Se  Se2  1  0.93539311  0.74948078  0.81816491  1
  Se  Se3  1  0.43539311  0.25051922  0.68183509  1
  O  O0  1  0.12989619  0.29597479  0.40207105  1
  O  O1  1  0.62989619  0.70402521  0.09792895  1
  O  O2  1  0.87010381  0.70402521  0.59792895  1
  O  O3  1  0.37010381  0.29597479  0.90207105  1
  O  O4  1  0.87937691  0.27316738  0.23026413  1
  O  O5  1  0.37937691  0.72683262  0.26973587  1
  O  O6  1  0.12062309  0.72683262  0.76973587  1
  O  O7  1  0.62062309  0.27316738  0.73026413  1
  O  O8  1  0.90628587  0.09988811  0.82816770  1
  O  O9  1  0.40628587  0.90011189  0.67183230  1
  O  O10  1  0.09371413  0.90011189  0.17183230  1
  O  O11  1  0.59371413  0.09988811  0.32816770  1
loop_
_geom_bond_atom_site_label_1
_geom_bond_atom_site_label_2
_geom_bond_distance
_geom_bond_site_symmetry_2
Hg0 O7 2.203701 1_554
Hg0 O11 2.344144 1_555
Hg0 O4 2.372092 1_555
Hg0 O1 2.439422 1_555
Hg0 O1 2.561377 1_545
Hg0 O8 2.612034 1_554
Hg1 O6 2.203701 1_555
Hg1 O10 2.344144 1_555
Hg1 O5 2.372092 1_555
Hg1 O0 2.439422 1_555
Hg1 O0 2.561377 1_565
Hg1 O9 2.612034 1_555
Hg2 O5 2.203701 1_556
Hg2 O9 2.344144 1_555
Hg2 O6 2.372092 1_555
Hg2 O3 2.439422 1_555
Hg2 O3 2.561377 1_565
Hg2 O10 2.612034 1_556
Hg3 O4 2.203701 1_555
Hg3 O8 2.344144 1_555
Hg3 O7 2.372092 1_555
Hg3 O2 2.439422 1_555
Hg3 O2 2.561377 1_545
Hg3 O11 2.612034 1_555
O0 Se0 1.706365 1_555
O1 Se1 1.706365 1_555
O2 Se2 1.706365 1_555
O3 Se3 1.706365 1_555
O4 Se0 1.733821 1_655
O5 Se1 1.733821 1_555
O6 Se2 1.733821 1_455
O7 Se3 1.733821 1_555
O8 Se2 1.713779 1_545
O9 Se3 1.713779 1_565
O10 Se0 1.713779 1_565
O11 Se1 1.713779 1_545
