# generated using pymatgen
data_La(GeRu)2
_symmetry_space_group_name_H-M   'P 1'
_cell_length_a   4.30887750
_cell_length_b   4.30887691
_cell_length_c   5.91570493
_cell_angle_alpha   111.35771996
_cell_angle_beta   111.35771488
_cell_angle_gamma   89.99999865
_symmetry_Int_Tables_number   1
_chemical_formula_structural   La(GeRu)2
_chemical_formula_sum   'La1 Ge2 Ru2'
_cell_volume   94.14541677
_cell_formula_units_Z   1
loop_
 _symmetry_equiv_pos_site_id
 _symmetry_equiv_pos_as_xyz
  1  'x, y, z'
loop_
 _atom_site_type_symbol
 _atom_site_label
 _atom_site_symmetry_multiplicity
 _atom_site_fract_x
 _atom_site_fract_y
 _atom_site_fract_z
 _atom_site_occupancy
  La  La0  1  -0.00000000  -0.00000000  0.00000000  1
  Ge  Ge0  1  0.63732161  0.63732161  0.27464421  1
  Ge  Ge1  1  0.36267839  0.36267839  0.72535579  1
  Ru  Ru0  1  0.75000000  0.25000000  0.50000000  1
  Ru  Ru1  1  0.25000000  0.75000000  0.50000000  1
loop_
_geom_bond_atom_site_label_1
_geom_bond_atom_site_label_2
_geom_bond_distance
_geom_bond_site_symmetry_2
La0 Ru0 3.327115 1_455
La0 Ru1 3.327115 1_544
La0 Ru0 3.327115 1_454
La0 Ru1 3.327115 1_545
La0 Ru0 3.327115 1_444
La0 Ru1 3.327115 1_555
La0 Ru0 3.327115 1_555
La0 Ru1 3.327115 1_444
Ge0 Ru0 2.438730 1_555
Ge0 Ru1 2.438730 1_555
Ge0 Ru0 2.438734 1_565
Ge0 Ru1 2.438734 1_655
Ge0 La0 3.350024 1_555
Ge0 La0 3.350027 1_655
Ge0 La0 3.350027 1_565
Ge0 La0 3.350029 1_665
Ge1 Ru1 2.438730 1_555
Ge1 Ru0 2.438730 1_555
Ge1 Ru1 2.438734 1_545
Ge1 Ru0 2.438734 1_455
Ge1 La0 3.350024 1_666
Ge1 La0 3.350027 1_566
Ge1 La0 3.350027 1_656
Ge1 La0 3.350029 1_556
