# generated using pymatgen
data_Co4Os
_symmetry_space_group_name_H-M   'P 1'
_cell_length_a   20.65030283
_cell_length_b   20.65030283
_cell_length_c   20.65030251
_cell_angle_alpha   14.42764477
_cell_angle_beta   14.42764477
_cell_angle_gamma   14.42764659
_symmetry_Int_Tables_number   1
_chemical_formula_structural   Co4Os
_chemical_formula_sum   'Co32 Os8'
_cell_volume   475.93254231
_cell_formula_units_Z   8
loop_
 _symmetry_equiv_pos_site_id
 _symmetry_equiv_pos_as_xyz
  1  'x, y, z'
loop_
 _atom_site_type_symbol
 _atom_site_label
 _atom_site_symmetry_multiplicity
 _atom_site_fract_x
 _atom_site_fract_y
 _atom_site_fract_z
 _atom_site_occupancy
  Co  Co0_0  1  0.29841050  0.29841050  0.29841050  1
  Co  Co0_1  1  0.29841050  0.29841050  0.79841050  1
  Co  Co0_2  1  0.29841050  0.79841050  0.29841050  1
  Co  Co0_3  1  0.29841050  0.79841050  0.79841050  1
  Co  Co0_4  1  0.79841050  0.29841050  0.29841050  1
  Co  Co0_5  1  0.79841050  0.29841050  0.79841050  1
  Co  Co0_6  1  0.79841050  0.79841050  0.29841050  1
  Co  Co0_7  1  0.79841050  0.79841050  0.79841050  1
  Co  Co1_0  1  0.09956050  0.09956050  0.09956050  1
  Co  Co1_1  1  0.09956050  0.09956050  0.59956050  1
  Co  Co1_2  1  0.09956050  0.59956050  0.09956050  1
  Co  Co1_3  1  0.09956050  0.59956050  0.59956050  1
  Co  Co1_4  1  0.59956050  0.09956050  0.09956050  1
  Co  Co1_5  1  0.59956050  0.09956050  0.59956050  1
  Co  Co1_6  1  0.59956050  0.59956050  0.09956050  1
  Co  Co1_7  1  0.59956050  0.59956050  0.59956050  1
  Co  Co2_0  1  0.40043950  0.40043950  0.40043950  1
  Co  Co2_1  1  0.40043950  0.40043950  0.90043950  1
  Co  Co2_2  1  0.40043950  0.90043950  0.40043950  1
  Co  Co2_3  1  0.40043950  0.90043950  0.90043950  1
  Co  Co2_4  1  0.90043950  0.40043950  0.40043950  1
  Co  Co2_5  1  0.90043950  0.40043950  0.90043950  1
  Co  Co2_6  1  0.90043950  0.90043950  0.40043950  1
  Co  Co2_7  1  0.90043950  0.90043950  0.90043950  1
  Co  Co3_0  1  0.20158950  0.20158950  0.20158950  1
  Co  Co3_1  1  0.20158950  0.20158950  0.70158950  1
  Co  Co3_2  1  0.20158950  0.70158950  0.20158950  1
  Co  Co3_3  1  0.20158950  0.70158950  0.70158950  1
  Co  Co3_4  1  0.70158950  0.20158950  0.20158950  1
  Co  Co3_5  1  0.70158950  0.20158950  0.70158950  1
  Co  Co3_6  1  0.70158950  0.70158950  0.20158950  1
  Co  Co3_7  1  0.70158950  0.70158950  0.70158950  1
  Os  Os0_0  1  0.00000000  0.00000000  0.00000000  1
  Os  Os0_1  1  0.00000000  0.00000000  0.50000000  1
  Os  Os0_2  1  0.00000000  0.50000000  0.00000000  1
  Os  Os0_3  1  0.00000000  0.50000000  0.50000000  1
  Os  Os0_4  1  0.50000000  0.00000000  0.00000000  1
  Os  Os0_5  1  0.50000000  1.00000000  0.50000000  1
  Os  Os0_6  1  0.50000000  0.50000000  0.00000000  1
  Os  Os0_7  1  0.50000000  0.50000000  0.50000000  1
loop_
_geom_bond_atom_site_label_1
_geom_bond_atom_site_label_2
_geom_bond_distance
_geom_bond_site_symmetry_2
Co0_0 Co1_1 2.476493 1_555
Co0_0 Co1_4 2.476493 1_555
Co0_0 Co1_2 2.476493 1_555
Co0_0 Co0_3 2.593112 1_554
Co0_0 Co0_5 2.593112 1_554
Co0_0 Co0_5 2.593112 1_455
Co0_0 Co0_3 2.593112 1_545
Co0_0 Co0_6 2.593112 1_545
Co0_0 Co0_6 2.593112 1_455
Co0_0 Os0_6 2.612228 1_555
Co0_0 Os0_5 2.612228 1_545
Co0_0 Os0_3 2.612228 1_555
Co0_1 Co1_0 2.476493 1_556
Co0_1 Co1_5 2.476493 1_555
Co0_1 Co1_3 2.476493 1_555
Co0_1 Co0_4 2.593112 1_456
Co0_1 Co0_4 2.593112 1_555
Co0_1 Co0_2 2.593112 1_546
Co0_1 Co0_2 2.593112 1_555
Co0_1 Co0_7 2.593112 1_545
Co0_1 Co0_7 2.593112 1_455
Co0_1 Os0_7 2.612228 1_555
Co0_1 Os0_2 2.612228 1_556
Co0_1 Os0_4 2.612228 1_556
Co0_2 Co1_3 2.476493 1_555
Co0_2 Co1_6 2.476493 1_555
Co0_2 Co1_0 2.476493 1_565
Co0_2 Co0_7 2.593112 1_455
Co0_2 Co0_7 2.593112 1_554
Co0_2 Co0_4 2.593112 1_555
Co0_2 Co0_4 2.593112 1_465
Co0_2 Os0_4 2.612228 1_565
Co0_2 Os0_7 2.612228 1_555
Co0_2 Os0_1 2.612228 1_565
Co0_3 Co1_2 2.476493 1_556
Co0_3 Co1_7 2.476493 1_555
Co0_3 Co1_1 2.476493 1_565
Co0_3 Co0_6 2.593112 1_555
Co0_3 Co0_6 2.593112 1_456
Co0_3 Co0_5 2.593112 1_465
Co0_3 Co0_5 2.593112 1_555
Co0_3 Os0_5 2.612228 1_555
Co0_3 Os0_6 2.612228 1_556
Co0_3 Os0_0 2.612228 1_566
Co0_4 Co1_5 2.476493 1_555
Co0_4 Co1_6 2.476493 1_555
Co0_4 Co1_0 2.476493 1_655
Co0_4 Co0_7 2.593112 1_545
Co0_4 Co0_7 2.593112 1_554
Co0_4 Os0_2 2.612228 1_655
Co0_4 Os0_7 2.612228 1_555
Co0_4 Os0_1 2.612228 1_655
Co0_5 Co1_4 2.476493 1_556
Co0_5 Co1_7 2.476493 1_555
Co0_5 Co1_1 2.476493 1_655
Co0_5 Co0_6 2.593112 1_546
Co0_5 Co0_6 2.593112 1_555
Co0_5 Os0_3 2.612228 1_655
Co0_5 Os0_0 2.612228 1_656
Co0_5 Os0_6 2.612228 1_556
Co0_6 Co1_7 2.476493 1_555
Co0_6 Co1_4 2.476493 1_565
Co0_6 Co1_2 2.476493 1_655
Co0_6 Os0_0 2.612228 1_665
Co0_6 Os0_5 2.612228 1_555
Co0_6 Os0_3 2.612228 1_655
Co0_7 Co1_6 2.476493 1_556
Co0_7 Co1_5 2.476493 1_565
Co0_7 Co1_3 2.476493 1_655
Co0_7 Os0_1 2.612228 1_665
Co0_7 Os0_4 2.612228 1_566
Co0_7 Os0_2 2.612228 1_656
Co1_0 Co2_6 2.489746 1_445
Co1_0 Co2_5 2.489746 1_454
Co1_0 Co2_3 2.489746 1_544
Co1_0 Co1_5 2.593112 1_455
Co1_0 Co1_3 2.593112 1_545
Co1_0 Co1_3 2.593112 1_554
Co1_0 Co1_5 2.593112 1_554
Co1_0 Co1_6 2.593112 1_455
Co1_0 Co1_6 2.593112 1_545
Co1_1 Co2_7 2.489746 1_445
Co1_1 Co2_2 2.489746 1_545
Co1_1 Co2_4 2.489746 1_455
Co1_1 Co1_4 2.593112 1_555
Co1_1 Co1_2 2.593112 1_555
Co1_1 Co1_2 2.593112 1_546
Co1_1 Co1_4 2.593112 1_456
Co1_1 Co1_7 2.593112 1_455
Co1_1 Co1_7 2.593112 1_545
Co1_2 Co2_4 2.489746 1_455
Co1_2 Co2_7 2.489746 1_454
Co1_2 Co2_1 2.489746 1_554
Co1_2 Co1_7 2.593112 1_455
Co1_2 Co1_7 2.593112 1_554
Co1_2 Co1_4 2.593112 1_555
Co1_2 Co1_4 2.593112 1_465
Co1_3 Co2_5 2.489746 1_455
Co1_3 Co2_6 2.489746 1_455
Co1_3 Co2_0 2.489746 1_555
Co1_3 Co1_6 2.593112 1_555
Co1_3 Co1_6 2.593112 1_456
Co1_3 Co1_5 2.593112 1_465
Co1_3 Co1_5 2.593112 1_555
Co1_4 Co2_2 2.489746 1_545
Co1_4 Co2_7 2.489746 1_544
Co1_4 Co2_1 2.489746 1_554
Co1_4 Co1_7 2.593112 1_545
Co1_4 Co1_7 2.593112 1_554
Co1_5 Co2_3 2.489746 1_545
Co1_5 Co2_6 2.489746 1_545
Co1_5 Co2_0 2.489746 1_555
Co1_5 Co1_6 2.593112 1_555
Co1_5 Co1_6 2.593112 1_546
Co1_6 Co2_0 2.489746 1_555
Co1_6 Co2_3 2.489746 1_554
Co1_6 Co2_5 2.489746 1_554
Co1_7 Co2_1 2.489746 1_555
Co1_7 Co2_2 2.489746 1_555
Co1_7 Co2_4 2.489746 1_555
Co2_0 Co3_1 2.476493 1_555
Co2_0 Co3_2 2.476493 1_555
Co2_0 Co3_4 2.476493 1_555
Co2_0 Co2_3 2.593112 1_554
Co2_0 Co2_5 2.593112 1_554
Co2_0 Co2_5 2.593112 1_455
Co2_0 Co2_3 2.593112 1_545
Co2_0 Co2_6 2.593112 1_545
Co2_0 Co2_6 2.593112 1_455
Co2_1 Co3_0 2.476493 1_556
Co2_1 Co3_3 2.476493 1_555
Co2_1 Co3_5 2.476493 1_555
Co2_1 Co2_2 2.593112 1_546
Co2_1 Co2_4 2.593112 1_456
Co2_1 Co2_4 2.593112 1_555
Co2_1 Co2_2 2.593112 1_555
Co2_1 Co2_7 2.593112 1_455
Co2_1 Co2_7 2.593112 1_545
Co2_2 Co3_3 2.476493 1_555
Co2_2 Co3_6 2.476493 1_555
Co2_2 Co3_0 2.476493 1_565
Co2_2 Co2_7 2.593112 1_554
Co2_2 Co2_7 2.593112 1_455
Co2_2 Co2_4 2.593112 1_465
Co2_2 Co2_4 2.593112 1_555
Co2_3 Co3_2 2.476493 1_556
Co2_3 Co3_7 2.476493 1_555
Co2_3 Co3_1 2.476493 1_565
Co2_3 Co2_6 2.593112 1_456
Co2_3 Co2_6 2.593112 1_555
Co2_3 Co2_5 2.593112 1_465
Co2_3 Co2_5 2.593112 1_555
Co2_4 Co3_5 2.476493 1_555
Co2_4 Co3_6 2.476493 1_555
Co2_4 Co3_0 2.476493 1_655
Co2_4 Co2_7 2.593112 1_554
Co2_4 Co2_7 2.593112 1_545
Co2_5 Co3_4 2.476493 1_556
Co2_5 Co3_7 2.476493 1_555
Co2_5 Co3_1 2.476493 1_655
Co2_5 Co2_6 2.593112 1_546
Co2_5 Co2_6 2.593112 1_555
Co2_6 Co3_7 2.476493 1_555
Co2_6 Co3_2 2.476493 1_655
Co2_6 Co3_4 2.476493 1_565
Co2_7 Co3_6 2.476493 1_556
Co2_7 Co3_5 2.476493 1_565
Co2_7 Co3_3 2.476493 1_655
Co3_0 Co3_5 2.593112 1_455
Co3_0 Co3_3 2.593112 1_545
Co3_0 Co3_3 2.593112 1_554
Co3_0 Co3_5 2.593112 1_554
Co3_0 Co3_6 2.593112 1_455
Co3_0 Co3_6 2.593112 1_545
Co3_0 Os0_1 2.612228 1_555
Co3_0 Os0_2 2.612228 1_555
Co3_0 Os0_4 2.612228 1_555
Co3_1 Co3_2 2.593112 1_546
Co3_1 Co3_4 2.593112 1_456
Co3_1 Co3_2 2.593112 1_555
Co3_1 Co3_4 2.593112 1_555
Co3_1 Co3_7 2.593112 1_455
Co3_1 Co3_7 2.593112 1_545
Co3_1 Os0_0 2.612228 1_556
Co3_1 Os0_3 2.612228 1_555
Co3_1 Os0_5 2.612228 1_545
Co3_2 Co3_7 2.593112 1_455
Co3_2 Co3_7 2.593112 1_554
Co3_2 Co3_4 2.593112 1_555
Co3_2 Co3_4 2.593112 1_465
Co3_2 Os0_3 2.612228 1_555
Co3_2 Os0_6 2.612228 1_555
Co3_2 Os0_0 2.612228 1_565
Co3_3 Co3_6 2.593112 1_456
Co3_3 Co3_6 2.593112 1_555
Co3_3 Co3_5 2.593112 1_465
Co3_3 Co3_5 2.593112 1_555
Co3_3 Os0_2 2.612228 1_556
Co3_3 Os0_1 2.612228 1_565
Co3_3 Os0_7 2.612228 1_555
Co3_4 Co3_7 2.593112 1_545
Co3_4 Co3_7 2.593112 1_554
Co3_4 Os0_5 2.612228 1_545
Co3_4 Os0_6 2.612228 1_555
Co3_4 Os0_0 2.612228 1_655
Co3_5 Co3_6 2.593112 1_546
Co3_5 Co3_6 2.593112 1_555
Co3_5 Os0_4 2.612228 1_556
Co3_5 Os0_7 2.612228 1_555
Co3_5 Os0_1 2.612228 1_655
Co3_6 Os0_7 2.612228 1_555
Co3_6 Os0_4 2.612228 1_565
Co3_6 Os0_2 2.612228 1_655
Co3_7 Os0_6 2.612228 1_556
Co3_7 Os0_3 2.612228 1_655
Co3_7 Os0_5 2.612228 1_555
Os0_0 Os0_3 2.593112 1_554
Os0_0 Os0_5 2.593112 1_544
Os0_0 Os0_5 2.593112 1_445
Os0_0 Os0_3 2.593112 1_545
Os0_0 Os0_6 2.593112 1_455
Os0_0 Os0_6 2.593112 1_545
Os0_1 Os0_4 2.593112 1_555
Os0_1 Os0_2 2.593112 1_546
Os0_1 Os0_2 2.593112 1_555
Os0_1 Os0_4 2.593112 1_456
Os0_1 Os0_7 2.593112 1_545
Os0_1 Os0_7 2.593112 1_455
Os0_2 Os0_7 2.593112 1_455
Os0_2 Os0_7 2.593112 1_554
Os0_2 Os0_4 2.593112 1_555
Os0_2 Os0_4 2.593112 1_465
Os0_3 Os0_6 2.593112 1_456
Os0_3 Os0_6 2.593112 1_555
Os0_3 Os0_5 2.593112 1_455
Os0_3 Os0_5 2.593112 1_545
Os0_4 Os0_7 2.593112 1_545
Os0_4 Os0_7 2.593112 1_554
Os0_5 Os0_6 2.593112 1_556
Os0_5 Os0_6 2.593112 1_565
