# generated using pymatgen
data_TeMoWSeS2
_symmetry_space_group_name_H-M   'P 1'
_cell_length_a   3.30657529
_cell_length_b   3.30657529
_cell_length_c   37.60560100
_cell_angle_alpha   90.00000000
_cell_angle_beta   90.00000000
_cell_angle_gamma   119.99998587
_symmetry_Int_Tables_number   1
_chemical_formula_structural   TeMoWSeS2
_chemical_formula_sum   'Te2 Mo2 W2 Se2 S4'
_cell_volume   356.07383351
_cell_formula_units_Z   2
loop_
 _symmetry_equiv_pos_site_id
 _symmetry_equiv_pos_as_xyz
  1  'x, y, z'
loop_
 _atom_site_type_symbol
 _atom_site_label
 _atom_site_symmetry_multiplicity
 _atom_site_fract_x
 _atom_site_fract_y
 _atom_site_fract_z
 _atom_site_occupancy
  Te  Te0  1  0.33333300  0.66666700  0.04310600  1
  Te  Te1  1  0.33333300  0.66666700  0.14473000  1
  Mo  Mo0  1  0.00000000  0.00000000  0.09390600  1
  Mo  Mo1  1  0.33333300  0.66666700  0.28179700  1
  W  W0  1  0.00000000  0.00000000  0.46963400  1
  W  W1  1  0.33333300  0.66666700  0.65754400  1
  Se  Se0  1  0.33333300  0.66666700  0.42480900  1
  Se  Se1  1  0.33333300  0.66666700  0.51451500  1
  S  S0  1  0.00000000  0.00000000  0.32245400  1
  S  S1  1  0.00000000  0.00000000  0.69830700  1
  S  S2  1  0.00000000  0.00000000  0.24116400  1
  S  S3  1  0.00000000  0.00000000  0.61678200  1
loop_
_geom_bond_atom_site_label_1
_geom_bond_atom_site_label_2
_geom_bond_distance
_geom_bond_site_symmetry_2
Mo0 Te0 2.700734 1_545
Mo0 Te0 2.700736 1_555
Mo0 Te0 2.700736 1_445
Mo0 Te1 2.701373 1_545
Mo0 Te1 2.701375 1_445
Mo0 Te1 2.701375 1_555
Mo1 S2 2.445270 1_565
Mo1 S2 2.445272 1_665
Mo1 S2 2.445272 1_555
Mo1 S0 2.445834 1_565
Mo1 S0 2.445836 1_555
Mo1 S0 2.445836 1_665
Se0 W0 2.546755 1_565
Se0 W0 2.546757 1_665
Se0 W0 2.546757 1_555
Se1 W0 2.548149 1_565
Se1 W0 2.548151 1_665
Se1 W0 2.548151 1_555
S1 W1 2.448327 1_545
S1 W1 2.448330 1_555
S1 W1 2.448330 1_445
S3 W1 2.448304 1_545
S3 W1 2.448306 1_555
S3 W1 2.448306 1_445
