# generated using pymatgen
data_Mn11Al4V
_symmetry_space_group_name_H-M   'P 1'
_cell_length_a   4.05487838
_cell_length_b   4.05487838
_cell_length_c   13.43573920
_cell_angle_alpha   90.00000000
_cell_angle_beta   81.32097635
_cell_angle_gamma   120.00000000
_symmetry_Int_Tables_number   1
_chemical_formula_structural   Mn11Al4V
_chemical_formula_sum   'Mn11 Al4 V1'
_cell_volume   188.38788908
_cell_formula_units_Z   1
loop_
 _symmetry_equiv_pos_site_id
 _symmetry_equiv_pos_as_xyz
  1  'x, y, z'
loop_
 _atom_site_type_symbol
 _atom_site_label
 _atom_site_symmetry_multiplicity
 _atom_site_fract_x
 _atom_site_fract_y
 _atom_site_fract_z
 _atom_site_occupancy
  Mn  Mn0  1  0.99936800  0.49968400  0.50094800  1
  Mn  Mn1  1  0.50074500  0.75037200  0.74888300  1
  Mn  Mn2  1  0.00058300  0.00029200  0.99912500  1
  Mn  Mn3  1  0.49884900  0.24942500  0.25172600  1
  Mn  Mn4  1  0.24925500  0.12462800  0.62611700  1
  Mn  Mn5  1  0.75063200  0.37531600  0.87405200  1
  Mn  Mn6  1  0.25115100  0.62557500  0.12327400  1
  Mn  Mn7  1  0.74941700  0.87470800  0.37587500  1
  Mn  Mn8  1  0.37266900  0.18633500  0.44099600  1
  Mn  Mn9  1  0.87500000  0.43750000  0.68750000  1
  Mn  Mn10  1  0.37733100  0.68866500  0.93400400  1
  Al  Al0  1  0.62495500  0.81247800  0.56256700  1
  Al  Al1  1  0.12504500  0.06252200  0.81243300  1
  Al  Al2  1  0.62620000  0.31310000  0.06070000  1
  Al  Al3  1  0.12380000  0.56190000  0.31430000  1
  V  V0  1  0.87500000  0.93750000  0.18750000  1
loop_
_geom_bond_atom_site_label_1
_geom_bond_atom_site_label_2
_geom_bond_distance
_geom_bond_site_symmetry_2
Mn0 Mn9 2.468122 1_555
Mn0 Mn8 2.471801 1_655
Mn0 Mn8 2.471804 1_555
Mn0 Mn8 2.471804 1_665
Mn1 Mn10 2.449189 1_555
Mn1 Mn9 2.477941 1_555
Mn1 Mn9 2.477944 1_455
Mn1 Mn9 2.477944 1_565
Mn2 V0 2.492240 1_446
Mn3 V0 2.490523 1_445
Mn3 V0 2.490523 1_555
Mn3 V0 2.490526 1_545
Mn3 Mn8 2.504082 1_555
Mn4 Mn8 2.449189 1_555
Mn4 Mn9 2.477941 1_455
Mn4 Mn9 2.477944 1_555
Mn4 Mn9 2.477944 1_445
Mn5 Mn9 2.468122 1_555
Mn6 V0 2.490523 1_555
Mn6 V0 2.490523 1_445
Mn6 V0 2.490526 1_455
Mn7 V0 2.492240 1_555
Mn7 Mn8 2.494586 1_665
Mn7 Mn8 2.494587 1_555
Mn7 Mn8 2.494593 1_565
Mn10 Mn5 2.471801 1_555
Mn10 Mn5 2.471804 1_455
Mn10 Mn5 2.471804 1_565
Mn10 Mn2 2.494586 1_665
Mn10 Mn2 2.494587 1_555
Mn10 Mn2 2.494593 1_565
Mn10 Mn6 2.504082 1_556
Al0 Mn1 2.464999 1_555
Al0 Mn7 2.469974 1_555
Al0 Mn0 2.478967 1_455
Al0 Mn0 2.478967 1_565
Al0 Mn0 2.478970 1_555
Al0 Mn4 2.487487 1_665
Al0 Mn4 2.487487 1_565
Al0 Mn4 2.487487 1_555
Al1 Mn4 2.464999 1_555
Al1 Mn2 2.469974 1_555
Al1 Mn5 2.478967 1_555
Al1 Mn5 2.478967 1_445
Al1 Mn5 2.478970 1_455
Al1 Mn1 2.487487 1_445
Al1 Mn1 2.487487 1_555
Al1 Mn1 2.487487 1_545
Al2 Mn5 2.469392 1_554
Al2 Mn2 2.478775 1_654
Al2 Mn2 2.478778 1_554
Al2 Mn2 2.478778 1_664
Al2 Mn6 2.483150 1_555
Al2 Mn6 2.483153 1_655
Al2 Mn6 2.483153 1_545
Al2 Mn3 2.527314 1_555
Al3 Mn0 2.469392 1_455
Al3 Mn7 2.478775 1_455
Al3 Mn7 2.478778 1_555
Al3 Mn7 2.478778 1_445
Al3 Mn3 2.483150 1_555
Al3 Mn3 2.483153 1_455
Al3 Mn3 2.483153 1_565
Al3 Mn6 2.527314 1_555
