# generated using pymatgen
data_K3Li2Nb5O15
_symmetry_space_group_name_H-M   'P 1'
_cell_length_a   12.86791400
_cell_length_b   12.86791400
_cell_length_c   4.03887700
_cell_angle_alpha   90.00000000
_cell_angle_beta   90.00000000
_cell_angle_gamma   90.00000000
_symmetry_Int_Tables_number   1
_chemical_formula_structural   K3Li2Nb5O15
_chemical_formula_sum   'K6 Li4 Nb10 O30'
_cell_volume   668.77022133
_cell_formula_units_Z   2
loop_
 _symmetry_equiv_pos_site_id
 _symmetry_equiv_pos_as_xyz
  1  'x, y, z'
loop_
 _atom_site_type_symbol
 _atom_site_label
 _atom_site_symmetry_multiplicity
 _atom_site_fract_x
 _atom_site_fract_y
 _atom_site_fract_z
 _atom_site_occupancy
  K  K0  1  0.50000000  0.50000000  0.50000000  1
  K  K1  1  0.00000000  0.00000000  0.50000000  1
  K  K2  1  0.67240100  0.82759900  0.50000000  1
  K  K3  1  0.32759900  0.17240100  0.50000000  1
  K  K4  1  0.17240100  0.67240100  0.50000000  1
  K  K5  1  0.82759900  0.32759900  0.50000000  1
  Li  Li0  1  0.87730900  0.62269100  0.50000000  1
  Li  Li1  1  0.12269100  0.37730900  0.50000000  1
  Li  Li2  1  0.37730900  0.87730900  0.50000000  1
  Li  Li3  1  0.62269100  0.12269100  0.50000000  1
  Nb  Nb0  1  0.50000000  0.00000000  0.00000000  1
  Nb  Nb1  1  0.00000000  0.50000000  0.00000000  1
  Nb  Nb2  1  0.70728800  0.57599800  0.00000000  1
  Nb  Nb3  1  0.29271200  0.42400200  0.00000000  1
  Nb  Nb4  1  0.20728800  0.92400200  0.00000000  1
  Nb  Nb5  1  0.79271200  0.07599800  0.00000000  1
  Nb  Nb6  1  0.42400200  0.70728800  0.00000000  1
  Nb  Nb7  1  0.57599800  0.29271200  0.00000000  1
  Nb  Nb8  1  0.07599800  0.20728800  0.00000000  1
  Nb  Nb9  1  0.92400200  0.79271200  0.00000000  1
  O  O0  1  0.49729900  0.84564800  0.00000000  1
  O  O1  1  0.50270100  0.15435200  0.00000000  1
  O  O2  1  0.99729900  0.65435200  0.00000000  1
  O  O3  1  0.00270100  0.34564800  0.00000000  1
  O  O4  1  0.15435200  0.49729900  0.00000000  1
  O  O5  1  0.84564800  0.50270100  0.00000000  1
  O  O6  1  0.34564800  0.99729900  0.00000000  1
  O  O7  1  0.65435200  0.00270100  0.00000000  1
  O  O8  1  0.50000000  0.00000000  0.50000000  1
  O  O9  1  0.00000000  0.50000000  0.50000000  1
  O  O10  1  0.79007000  0.70993000  0.00000000  1
  O  O11  1  0.20993000  0.29007000  0.00000000  1
  O  O12  1  0.29007000  0.79007000  0.00000000  1
  O  O13  1  0.70993000  0.20993000  0.00000000  1
  O  O14  1  0.56840800  0.64105100  0.00000000  1
  O  O15  1  0.43159200  0.35894900  0.00000000  1
  O  O16  1  0.06840800  0.85894900  0.00000000  1
  O  O17  1  0.93159200  0.14105100  0.00000000  1
  O  O18  1  0.35894900  0.56840800  0.00000000  1
  O  O19  1  0.64105100  0.43159200  0.00000000  1
  O  O20  1  0.14105100  0.06840800  0.00000000  1
  O  O21  1  0.85894900  0.93159200  0.00000000  1
  O  O22  1  0.71554800  0.57911800  0.50000000  1
  O  O23  1  0.28445200  0.42088200  0.50000000  1
  O  O24  1  0.21554800  0.92088200  0.50000000  1
  O  O25  1  0.78445200  0.07911800  0.50000000  1
  O  O26  1  0.42088200  0.71554800  0.50000000  1
  O  O27  1  0.57911800  0.28445200  0.50000000  1
  O  O28  1  0.07911800  0.21554800  0.50000000  1
  O  O29  1  0.92088200  0.78445200  0.50000000  1
loop_
_geom_bond_atom_site_label_1
_geom_bond_atom_site_label_2
_geom_bond_distance
_geom_bond_site_symmetry_2
K0 O18 2.854356 1_555
K0 O15 2.854356 1_556
K0 O15 2.854356 1_555
K0 O18 2.854356 1_556
K0 O19 2.854356 1_556
K0 O19 2.854356 1_555
K0 O14 2.854356 1_555
K0 O14 2.854356 1_556
K0 O22 2.954597 1_555
K0 O26 2.954597 1_555
K0 O23 2.954597 1_555
K0 O27 2.954597 1_555
K1 O20 2.854356 1_556
K1 O20 2.854356 1_555
K1 O17 2.854356 1_455
K1 O16 2.854356 1_545
K1 O16 2.854356 1_546
K1 O17 2.854356 1_456
K1 O21 2.854356 1_445
K1 O21 2.854356 1_446
K1 O25 2.954597 1_455
K1 O29 2.954597 1_445
K1 O24 2.954597 1_545
K1 O28 2.954597 1_555
K2 O10 2.943376 1_555
K2 O10 2.943376 1_556
K2 O0 3.034629 1_556
K2 O0 3.034629 1_555
K2 O7 3.034629 1_565
K2 O7 3.034629 1_566
K2 O8 3.137350 1_565
K2 O29 3.245278 1_555
K2 O22 3.245278 1_555
K3 O11 2.943376 1_556
K3 O11 2.943376 1_555
K3 O6 3.034629 1_546
K3 O6 3.034629 1_545
K3 O1 3.034629 1_555
K3 O1 3.034629 1_556
K3 O8 3.137350 1_555
K3 O23 3.245278 1_555
K3 O28 3.245278 1_555
K4 O12 2.943376 1_555
K4 O12 2.943376 1_556
K4 O2 3.034629 1_456
K4 O2 3.034629 1_455
K4 O4 3.034629 1_555
K4 O4 3.034629 1_556
K4 O9 3.137350 1_555
K4 O24 3.245278 1_555
K4 O26 3.245278 1_555
K5 O13 2.943376 1_555
K5 O13 2.943376 1_556
K5 O5 3.034629 1_555
K5 O5 3.034629 1_556
K5 O3 3.034629 1_656
K5 O3 3.034629 1_655
K5 O9 3.137350 1_655
K5 O27 3.245278 1_555
K5 O25 3.245278 1_555
Li0 O22 2.155720 1_555
Li0 O29 2.155720 1_555
Li0 O9 2.232728 1_655
Li0 O10 2.568759 1_556
Li0 O10 2.568759 1_555
Li0 O2 2.574513 1_556
Li0 O5 2.574513 1_556
Li0 O5 2.574513 1_555
Li0 O2 2.574513 1_555
Li1 O23 2.155720 1_555
Li1 O28 2.155720 1_555
Li1 O9 2.232728 1_555
Li1 O11 2.568759 1_556
Li1 O11 2.568759 1_555
Li1 O3 2.574513 1_556
Li1 O4 2.574513 1_556
Li1 O4 2.574513 1_555
Li1 O3 2.574513 1_555
Li2 O24 2.155720 1_555
Li2 O26 2.155720 1_555
Li2 O8 2.232728 1_565
Li2 O12 2.568759 1_555
Li2 O12 2.568759 1_556
Li2 O6 2.574513 1_556
Li2 O0 2.574513 1_555
Li2 O0 2.574513 1_556
Li2 O6 2.574513 1_555
Li3 O27 2.155720 1_555
Li3 O25 2.155720 1_555
Li3 O8 2.232728 1_555
Li3 O13 2.568759 1_555
Li3 O13 2.568759 1_556
Li3 O7 2.574513 1_556
Li3 O7 2.574513 1_555
Li3 O1 2.574513 1_555
Li3 O1 2.574513 1_556
Nb0 O6 1.986492 1_545
Nb0 O1 1.986492 1_555
Nb0 O7 1.986492 1_555
Nb0 O0 1.986492 1_545
Nb0 O8 2.019439 1_554
Nb0 O8 2.019439 1_555
Nb1 O4 1.986492 1_555
Nb1 O3 1.986492 1_555
Nb1 O5 1.986492 1_455
Nb1 O2 1.986492 1_455
Nb1 O9 2.019439 1_554
Nb1 O9 2.019439 1_555
Nb2 O14 1.973434 1_555
Nb2 O5 2.014802 1_555
Nb2 O22 2.022632 1_555
Nb2 O22 2.022632 1_554
Nb2 O10 2.026059 1_555
Nb2 O19 2.044356 1_555
Nb3 O15 1.973434 1_555
Nb3 O4 2.014802 1_555
Nb3 O23 2.022632 1_555
Nb3 O23 2.022632 1_554
Nb3 O11 2.026059 1_555
Nb3 O18 2.044356 1_555
Nb4 O16 1.973434 1_555
Nb4 O6 2.014802 1_555
Nb4 O24 2.022632 1_554
Nb4 O24 2.022632 1_555
Nb4 O12 2.026059 1_555
Nb4 O20 2.044356 1_565
Nb5 O17 1.973434 1_555
Nb5 O7 2.014802 1_555
Nb5 O25 2.022632 1_555
Nb5 O25 2.022632 1_554
Nb5 O13 2.026059 1_555
Nb5 O21 2.044356 1_545
Nb6 O18 1.973434 1_555
Nb6 O0 2.014802 1_555
Nb6 O26 2.022632 1_554
Nb6 O26 2.022632 1_555
Nb6 O12 2.026059 1_555
Nb6 O14 2.044356 1_555
Nb7 O19 1.973434 1_555
Nb7 O1 2.014802 1_555
Nb7 O27 2.022632 1_554
Nb7 O27 2.022632 1_555
Nb7 O13 2.026059 1_555
Nb7 O15 2.044356 1_555
Nb8 O20 1.973434 1_555
Nb8 O3 2.014802 1_555
Nb8 O28 2.022632 1_555
Nb8 O28 2.022632 1_554
Nb8 O11 2.026059 1_555
Nb8 O17 2.044356 1_455
Nb9 O21 1.973434 1_555
Nb9 O2 2.014802 1_555
Nb9 O29 2.022632 1_555
Nb9 O29 2.022632 1_554
Nb9 O10 2.026059 1_555
Nb9 O16 2.044356 1_655
