# generated using pymatgen
data_Zn2GaAgSe4
_symmetry_space_group_name_H-M   'P 1'
_cell_length_a   7.06468240
_cell_length_b   7.06468240
_cell_length_c   7.06468240
_cell_angle_alpha   130.77485546
_cell_angle_beta   130.77485546
_cell_angle_gamma   72.17103140
_symmetry_Int_Tables_number   1
_chemical_formula_structural   Zn2GaAgSe4
_chemical_formula_sum   'Zn2 Ga1 Ag1 Se4'
_cell_volume   197.70278821
_cell_formula_units_Z   1
loop_
 _symmetry_equiv_pos_site_id
 _symmetry_equiv_pos_as_xyz
  1  'x, y, z'
loop_
 _atom_site_type_symbol
 _atom_site_label
 _atom_site_symmetry_multiplicity
 _atom_site_fract_x
 _atom_site_fract_y
 _atom_site_fract_z
 _atom_site_occupancy
  Zn  Zn0  1  0.25000000  0.75000000  0.50000000  1
  Zn  Zn1  1  0.75000000  0.25000000  0.50000000  1
  Ga  Ga0  1  0.00000000  0.00000000  0.00000000  1
  Ag  Ag0  1  0.50000000  0.50000000  0.00000000  1
  Se  Se0  1  0.89300300  0.36485400  0.00000000  1
  Se  Se1  1  0.36485400  0.89300300  0.00000000  1
  Se  Se2  1  0.63514600  0.63514600  0.52814900  1
  Se  Se3  1  0.10699700  0.10699700  0.47185100  1
loop_
_geom_bond_atom_site_label_1
_geom_bond_atom_site_label_2
_geom_bond_distance
_geom_bond_site_symmetry_2
Ga0 Se3 2.454015 1_555
Ga0 Se2 2.454015 1_444
Ga0 Se0 2.454015 1_455
Ga0 Se1 2.454015 1_545
Ag0 Se1 2.645174 1_555
Ag0 Se0 2.645174 1_555
Ag0 Se3 2.645174 1_554
Ag0 Se2 2.645174 1_555
Se0 Zn0 2.500693 1_655
Se0 Zn1 2.500693 1_554
Se1 Zn1 2.500693 1_565
Se1 Zn0 2.500693 1_554
Se2 Zn0 2.500693 1_555
Se2 Zn1 2.500693 1_555
Se3 Zn1 2.500693 1_455
Se3 Zn0 2.500693 1_545
