# generated using pymatgen
data_CsH6Rh(N3O4)2
_symmetry_space_group_name_H-M   'P 1'
_cell_length_a   7.32589100
_cell_length_b   12.24079500
_cell_length_c   14.06732200
_cell_angle_alpha   90.00000000
_cell_angle_beta   90.00000000
_cell_angle_gamma   90.00000000
_symmetry_Int_Tables_number   1
_chemical_formula_structural   CsH6Rh(N3O4)2
_chemical_formula_sum   'Cs4 H24 Rh4 N24 O32'
_cell_volume   1261.48330109
_cell_formula_units_Z   4
loop_
 _symmetry_equiv_pos_site_id
 _symmetry_equiv_pos_as_xyz
  1  'x, y, z'
loop_
 _atom_site_type_symbol
 _atom_site_label
 _atom_site_symmetry_multiplicity
 _atom_site_fract_x
 _atom_site_fract_y
 _atom_site_fract_z
 _atom_site_occupancy
  Cs  Cs0  1  0.29486800  0.38030400  0.97395900  1
  Cs  Cs1  1  0.20513200  0.61969600  0.47395900  1
  Cs  Cs2  1  0.79486800  0.11969600  0.02604100  1
  Cs  Cs3  1  0.70513200  0.88030400  0.52604100  1
  H  H0  1  0.90442000  0.59652500  0.71384700  1
  H  H1  1  0.59558000  0.40347500  0.21384700  1
  H  H2  1  0.40442000  0.90347500  0.28615300  1
  H  H3  1  0.09558000  0.09652500  0.78615300  1
  H  H4  1  0.05093700  0.49845600  0.74267600  1
  H  H5  1  0.44906300  0.50154400  0.24267600  1
  H  H6  1  0.55093700  0.00154400  0.25732400  1
  H  H7  1  0.94906300  0.99845600  0.75732400  1
  H  H8  1  0.88449900  0.53366900  0.81835700  1
  H  H9  1  0.61550100  0.46633100  0.31835700  1
  H  H10  1  0.38449900  0.96633100  0.18164300  1
  H  H11  1  0.11550100  0.03366900  0.68164300  1
  H  H12  1  0.57702000  0.22411600  0.64289100  1
  H  H13  1  0.92298000  0.77588400  0.14289100  1
  H  H14  1  0.07702000  0.27588400  0.35710900  1
  H  H15  1  0.42298000  0.72411600  0.85710900  1
  H  H16  1  0.56719700  0.30518700  0.54752300  1
  H  H17  1  0.93280300  0.69481300  0.04752300  1
  H  H18  1  0.06719700  0.19481300  0.45247700  1
  H  H19  1  0.43280300  0.80518700  0.95247700  1
  H  H20  1  0.42776600  0.32759900  0.63849600  1
  H  H21  1  0.07223400  0.67240100  0.13849600  1
  H  H22  1  0.92776600  0.17240100  0.36150400  1
  H  H23  1  0.57223400  0.82759900  0.86150400  1
  Rh  Rh0  1  0.73780500  0.41249800  0.68413900  1
  Rh  Rh1  1  0.76219500  0.58750200  0.18413900  1
  Rh  Rh2  1  0.23780500  0.08750200  0.31586100  1
  Rh  Rh3  1  0.26219500  0.91249800  0.81586100  1
  N  N0  1  0.76933100  0.30891600  0.79853400  1
  N  N1  1  0.73066900  0.69108400  0.29853400  1
  N  N2  1  0.26933100  0.19108400  0.20146600  1
  N  N3  1  0.23066900  0.80891600  0.70146600  1
  N  N4  1  0.70040100  0.52026300  0.57137100  1
  N  N5  1  0.79959900  0.47973700  0.07137100  1
  N  N6  1  0.20040100  0.97973700  0.42862900  1
  N  N7  1  0.29959900  0.02026300  0.92862900  1
  N  N8  1  0.95021500  0.33888500  0.61325700  1
  N  N9  1  0.54978500  0.66111500  0.11325700  1
  N  N10  1  0.45021500  0.16111500  0.38674300  1
  N  N11  1  0.04978500  0.83888500  0.88674300  1
  N  N12  1  0.51921500  0.48545800  0.75502300  1
  N  N13  1  0.98078500  0.51454200  0.25502300  1
  N  N14  1  0.01921500  0.01454200  0.24497700  1
  N  N15  1  0.48078500  0.98545800  0.74497700  1
  N  N16  1  0.91775100  0.52321500  0.74834300  1
  N  N17  1  0.58224900  0.47678500  0.24834300  1
  N  N18  1  0.41775100  0.97678500  0.25165700  1
  N  N19  1  0.08224900  0.02321500  0.75165700  1
  N  N20  1  0.55679500  0.30266700  0.62020800  1
  N  N21  1  0.94320500  0.69733300  0.12020800  1
  N  N22  1  0.05679500  0.19733300  0.37979200  1
  N  N23  1  0.44320500  0.80266700  0.87979200  1
  O  O0  1  0.07157800  0.39681400  0.57611300  1
  O  O1  1  0.42842200  0.60318600  0.07611300  1
  O  O2  1  0.57157800  0.10318600  0.42388700  1
  O  O3  1  0.92842200  0.89681400  0.92388700  1
  O  O4  1  0.95383200  0.23745000  0.60644200  1
  O  O5  1  0.54616800  0.76255000  0.10644200  1
  O  O6  1  0.45383200  0.26255000  0.39355800  1
  O  O7  1  0.04616800  0.73745000  0.89355800  1
  O  O8  1  0.78239000  0.61030200  0.57122800  1
  O  O9  1  0.71761000  0.38969800  0.07122800  1
  O  O10  1  0.28239000  0.88969800  0.42877200  1
  O  O11  1  0.21761000  0.11030200  0.92877200  1
  O  O12  1  0.92471600  0.29131500  0.83202000  1
  O  O13  1  0.57528400  0.70868500  0.33202000  1
  O  O14  1  0.42471600  0.20868500  0.16798000  1
  O  O15  1  0.07528400  0.79131500  0.66798000  1
  O  O16  1  0.54842000  0.54604900  0.82484900  1
  O  O17  1  0.95158000  0.45395100  0.32484900  1
  O  O18  1  0.04842000  0.95395100  0.17515100  1
  O  O19  1  0.45158000  0.04604900  0.67515100  1
  O  O20  1  0.59344900  0.49612200  0.50569300  1
  O  O21  1  0.90655100  0.50387800  0.00569300  1
  O  O22  1  0.09344900  0.00387800  0.49430700  1
  O  O23  1  0.40655100  0.99612200  0.99430700  1
  O  O24  1  0.63109700  0.26518200  0.83467900  1
  O  O25  1  0.86890300  0.73481800  0.33467900  1
  O  O26  1  0.13109700  0.23481800  0.16532100  1
  O  O27  1  0.36890300  0.76518200  0.66532100  1
  O  O28  1  0.35897300  0.46448000  0.72951000  1
  O  O29  1  0.14102700  0.53552000  0.22951000  1
  O  O30  1  0.85897300  0.03552000  0.27049000  1
  O  O31  1  0.64102700  0.96448000  0.77049000  1
loop_
_geom_bond_atom_site_label_1
_geom_bond_atom_site_label_2
_geom_bond_distance
_geom_bond_site_symmetry_2
Cs0 O1 3.235073 1_556
Cs0 O21 3.252704 1_456
Cs0 O9 3.387725 1_556
Cs0 O11 3.412870 1_555
Cs0 O26 3.443475 1_556
Cs0 O24 3.448461 1_555
Cs0 O16 3.459242 1_555
Cs0 O12 3.539303 1_455
Cs0 O14 3.573154 1_556
Cs0 O28 3.620385 1_555
Cs1 O0 3.235073 1_555
Cs1 O20 3.252704 1_555
Cs1 O8 3.387725 1_455
Cs1 O10 3.412870 1_555
Cs1 O27 3.443475 1_555
Cs1 O25 3.448461 1_455
Cs1 O17 3.459242 1_455
Cs1 O13 3.539303 1_555
Cs1 O15 3.573154 1_555
Cs1 O29 3.620385 1_555
Cs2 O3 3.235073 1_544
Cs2 O23 3.252704 1_544
Cs2 O11 3.387725 1_654
Cs2 O9 3.412870 1_555
Cs2 O24 3.443475 1_554
Cs2 O26 3.448461 1_655
Cs2 O18 3.459242 1_645
Cs2 O14 3.539303 1_555
Cs2 O12 3.573154 1_554
Cs2 O30 3.620385 1_555
Cs3 O2 3.235073 1_565
Cs3 O22 3.252704 1_665
Cs3 O10 3.387725 1_555
Cs3 O8 3.412870 1_555
Cs3 O25 3.443475 1_555
Cs3 O27 3.448461 1_555
Cs3 O19 3.459242 1_565
Cs3 O15 3.539303 1_655
Cs3 O13 3.573154 1_555
Cs3 O31 3.620385 1_555
H0 N16 1.024841 1_555
H1 N17 1.024841 1_555
H2 N18 1.024841 1_555
H3 N19 1.024841 1_555
H4 N16 1.024797 1_455
H5 N17 1.024797 1_555
H6 N18 1.024797 1_545
H7 N19 1.024797 1_665
H8 N16 1.022626 1_555
H9 N17 1.022626 1_555
H10 N18 1.022626 1_555
H11 N19 1.022626 1_555
H12 N20 1.023867 1_555
H13 N21 1.023867 1_555
H14 N22 1.023867 1_555
H15 N23 1.023867 1_555
H16 N20 1.025783 1_555
H17 N21 1.025783 1_555
H18 N22 1.025783 1_555
H19 N23 1.025783 1_555
H20 N20 1.026073 1_555
H21 N21 1.026073 1_455
H22 N22 1.026073 1_655
H23 N23 1.026073 1_555
N0 O12 1.250647 1_555
N0 O24 1.253259 1_555
N0 Rh0 2.061699 1_555
N1 O13 1.250647 1_555
N1 O25 1.253259 1_555
N1 Rh1 2.061699 1_555
N2 O14 1.250647 1_555
N2 O26 1.253259 1_555
N2 Rh2 2.061699 1_555
N3 O15 1.250647 1_555
N3 O27 1.253259 1_555
N3 Rh3 2.061699 1_555
N4 O20 1.246933 1_555
N4 O8 1.255192 1_555
N4 Rh0 2.081267 1_555
N5 O21 1.246933 1_555
N5 O9 1.255192 1_555
N5 Rh1 2.081267 1_555
N6 O22 1.246933 1_565
N6 O10 1.255192 1_555
N6 Rh2 2.081267 1_565
N7 O23 1.246933 1_545
N7 O11 1.255192 1_555
N7 Rh3 2.081267 1_545
N8 O4 1.245622 1_555
N8 O0 1.251530 1_655
N8 Rh0 2.056118 1_555
N9 O5 1.245622 1_555
N9 O1 1.251530 1_555
N9 Rh1 2.056118 1_555
N10 O6 1.245622 1_555
N10 O2 1.251530 1_555
N10 Rh2 2.056118 1_555
N11 O7 1.245622 1_555
N11 O3 1.251530 1_455
N11 Rh3 2.056118 1_555
N12 O16 1.249285 1_555
N12 O28 1.254124 1_555
N12 Rh0 2.087172 1_555
N13 O17 1.249285 1_555
N13 O29 1.254124 1_655
N13 Rh1 2.087172 1_555
N14 O18 1.249285 1_545
N14 O30 1.254124 1_455
N14 Rh2 2.087172 1_555
N15 O19 1.249285 1_565
N15 O31 1.254124 1_555
N15 Rh3 2.087172 1_555
N16 Rh0 2.095303 1_555
N17 Rh1 2.095303 1_555
N18 Rh2 2.095303 1_565
N19 Rh3 2.095303 1_545
N20 Rh0 2.091579 1_555
N21 Rh1 2.091579 1_555
N22 Rh2 2.091579 1_555
N23 Rh3 2.091579 1_555
