# generated using pymatgen
data_Li2VO2F
_symmetry_space_group_name_H-M   'P 1'
_cell_length_a   5.90451437
_cell_length_b   6.70322252
_cell_length_c   6.63861624
_cell_angle_alpha   84.55376258
_cell_angle_beta   116.54637993
_cell_angle_gamma   77.05983179
_symmetry_Int_Tables_number   1
_chemical_formula_structural   Li2VO2F
_chemical_formula_sum   'Li8 V4 O8 F4'
_cell_volume   223.27835644
_cell_formula_units_Z   4
loop_
 _symmetry_equiv_pos_site_id
 _symmetry_equiv_pos_as_xyz
  1  'x, y, z'
loop_
 _atom_site_type_symbol
 _atom_site_label
 _atom_site_symmetry_multiplicity
 _atom_site_fract_x
 _atom_site_fract_y
 _atom_site_fract_z
 _atom_site_occupancy
  Li  Li0  1  0.99997200  0.66661100  0.33331600  1
  Li  Li1  1  0.49998000  0.66660600  0.33332100  1
  Li  Li2  1  0.25010000  0.66649000  0.83337700  1
  Li  Li3  1  0.75005400  0.66658000  0.83341900  1
  Li  Li4  1  0.24449500  0.00260700  0.48901700  1
  Li  Li5  1  0.74455500  0.00252600  0.48899400  1
  Li  Li6  1  0.25541700  0.33080300  0.17766700  1
  Li  Li7  1  0.75548300  0.33070800  0.17766000  1
  V  V0  1  0.99883800  0.00499800  0.00593500  1
  V  V1  1  0.00110300  0.32838100  0.66070300  1
  V  V2  1  0.49897600  0.00509500  0.00598800  1
  V  V3  1  0.50095600  0.32830200  0.66065100  1
  O  O0  1  0.86858700  0.99179000  0.23490400  1
  O  O1  1  0.36853800  0.99178500  0.23492200  1
  O  O2  1  0.13135700  0.34159000  0.43171600  1
  O  O3  1  0.63140400  0.34159200  0.43169800  1
  O  O4  1  0.62788100  0.00195700  0.76568100  1
  O  O5  1  0.12785300  0.00202100  0.76564900  1
  O  O6  1  0.37208400  0.33145100  0.90096900  1
  O  O7  1  0.87210700  0.33138200  0.90099600  1
  F  F0  1  0.12297300  0.66908000  0.07946600  1
  F  F1  1  0.62290300  0.66913300  0.07945900  1
  F  F2  1  0.37722900  0.66423800  0.58725000  1
  F  F3  1  0.87715300  0.66427600  0.58724600  1
loop_
_geom_bond_atom_site_label_1
_geom_bond_atom_site_label_2
_geom_bond_distance
_geom_bond_site_symmetry_2
Li0 O2 2.072470 1_655
Li0 O0 2.073466 1_555
Li1 O3 2.072418 1_555
Li1 O1 2.073462 1_555
Li2 O6 2.135247 1_555
Li2 O5 2.138377 1_565
Li3 O7 2.136274 1_555
Li3 O4 2.137383 1_565
Li4 O1 2.119166 1_545
Li4 O0 2.127437 1_445
Li4 O2 2.164060 1_555
Li4 O4 2.185288 1_555
Li4 O5 2.230981 1_555
Li5 O0 2.119070 1_545
Li5 O1 2.127621 1_545
Li5 O3 2.164599 1_555
Li5 O5 2.185224 1_655
Li5 O4 2.231460 1_555
Li6 O2 2.118937 1_555
Li6 O3 2.127518 1_555
Li6 O1 2.164306 1_545
Li6 O7 2.185157 1_454
Li6 O6 2.231499 1_554
Li7 O3 2.118966 1_555
Li7 O2 2.127322 1_655
Li7 O0 2.163665 1_545
Li7 O6 2.185214 1_554
Li7 O7 2.231109 1_554
O0 V0 1.989896 1_565
O0 V2 2.000700 1_565
O1 V2 1.990534 1_565
O1 V0 2.001383 1_465
O2 V1 1.990020 1_555
O2 V3 2.000712 1_555
O3 V3 1.990687 1_555
O3 V1 2.001414 1_655
O4 V2 2.051651 1_556
O4 V0 2.060427 1_556
O4 V3 2.083840 1_555
O5 V0 2.051984 1_456
O5 V2 2.061372 1_556
O5 V1 2.083919 1_555
O6 V3 2.051581 1_555
O6 V1 2.060615 1_555
O6 V2 2.083909 1_556
O7 V1 2.051948 1_655
O7 V3 2.061516 1_555
O7 V0 2.084069 1_556
F0 Li3 2.079329 1_454
F0 Li2 2.080466 1_554
F0 Li1 2.102514 1_555
F0 Li0 2.112283 1_455
F0 V0 2.139670 1_465
F0 Li6 2.155883 1_555
F1 Li2 2.079222 1_554
F1 Li3 2.080258 1_554
F1 Li0 2.102676 1_555
F1 Li1 2.112039 1_555
F1 V2 2.139955 1_565
F1 Li7 2.156811 1_555
F2 Li3 2.078850 1_555
F2 Li2 2.080709 1_555
F2 Li0 2.103924 1_455
F2 Li1 2.111740 1_555
F2 V3 2.139796 1_555
F2 Li4 2.156459 1_565
F3 Li2 2.079009 1_655
F3 Li3 2.080873 1_555
F3 Li1 2.103646 1_555
F3 Li0 2.112026 1_555
F3 V1 2.139530 1_655
F3 Li5 2.155719 1_565
