# generated using pymatgen
data_NaMnO2
_symmetry_space_group_name_H-M   'P 1'
_cell_length_a   3.15934806
_cell_length_b   11.17029367
_cell_length_c   5.13583539
_cell_angle_alpha   75.75610254
_cell_angle_beta   83.50223902
_cell_angle_gamma   80.34373886
_symmetry_Int_Tables_number   1
_chemical_formula_structural   NaMnO2
_chemical_formula_sum   'Na4 Mn4 O8'
_cell_volume   172.69598554
_cell_formula_units_Z   4
loop_
 _symmetry_equiv_pos_site_id
 _symmetry_equiv_pos_as_xyz
  1  'x, y, z'
loop_
 _atom_site_type_symbol
 _atom_site_label
 _atom_site_symmetry_multiplicity
 _atom_site_fract_x
 _atom_site_fract_y
 _atom_site_fract_z
 _atom_site_occupancy
  Na  Na0  1  0.92306911  0.25011367  0.22574418  1
  Na  Na1  1  0.42430850  0.25011092  0.72593913  1
  Na  Na2  1  0.07632571  0.74993907  0.77421089  1
  Na  Na3  1  0.57624674  0.74985354  0.27425521  1
  Mn  Mn0  1  0.24971319  0.50004247  0.25057756  1
  Mn  Mn1  1  0.50036290  0.99995331  0.49941701  1
  Mn  Mn2  1  0.74974032  0.50004693  0.75054061  1
  Mn  Mn3  1  0.00028578  0.99994139  0.99944905  1
  O  O0  1  0.36686686  0.39755302  0.99064297  1
  O  O1  1  0.86731758  0.39751121  0.49072082  1
  O  O2  1  0.63200881  0.60253158  0.01033109  1
  O  O3  1  0.13243748  0.60245801  0.51046006  1
  O  O4  1  0.48571377  0.89751130  0.86174040  1
  O  O5  1  0.98528585  0.89743045  0.36167321  1
  O  O6  1  0.51496881  0.10247728  0.13714171  1
  O  O7  1  0.01534560  0.10252686  0.63715512  1
loop_
_geom_bond_atom_site_label_1
_geom_bond_atom_site_label_2
_geom_bond_distance
_geom_bond_site_symmetry_2
Na0 O7 2.351885 1_655
Na0 O1 2.354775 1_555
Na0 O0 2.355668 1_654
Na0 O6 2.359200 1_655
Na0 O0 2.406025 1_554
Na0 O6 2.409254 1_555
Na1 O6 2.350788 1_556
Na1 O0 2.353579 1_555
Na1 O1 2.353908 1_555
Na1 O7 2.357317 1_655
Na1 O1 2.407761 1_455
Na1 O7 2.410995 1_555
Na2 O3 2.350763 1_555
Na2 O4 2.354589 1_455
Na2 O5 2.355263 1_455
Na2 O2 2.357936 1_456
Na2 O2 2.406950 1_556
Na2 O4 2.409104 1_555
Na3 O2 2.350066 1_555
Na3 O5 2.355185 1_455
Na3 O4 2.355857 1_554
Na3 O3 2.356917 1_555
Na3 O3 2.408151 1_655
Na3 O5 2.408167 1_555
Mn0 O2 1.929590 1_555
Mn0 O1 1.929827 1_455
Mn0 O3 1.929969 1_555
Mn0 O0 1.930785 1_554
Mn0 O1 2.395825 1_555
Mn0 O2 2.396234 1_455
Mn1 O5 1.929741 1_555
Mn1 O4 1.929947 1_555
Mn1 O6 1.930073 1_565
Mn1 O7 1.930235 1_565
Mn1 O5 2.396772 1_455
Mn1 O7 2.396897 1_665
Mn2 O3 1.929587 1_655
Mn2 O2 1.930169 1_556
Mn2 O0 1.930499 1_555
Mn2 O1 1.930702 1_555
Mn2 O0 2.394437 1_655
Mn2 O3 2.394625 1_555
Mn3 O5 1.929825 1_456
Mn3 O4 1.930137 1_555
Mn3 O7 1.930420 1_565
Mn3 O6 1.930523 1_466
Mn3 O4 2.394730 1_455
Mn3 O6 2.395753 1_566
