# generated using pymatgen
data_SrMgNi(PO4)2
_symmetry_space_group_name_H-M   'P 1'
_cell_length_a   5.50701400
_cell_length_b   6.91385130
_cell_length_c   9.29782525
_cell_angle_alpha   111.11400208
_cell_angle_beta   101.18360431
_cell_angle_gamma   97.98988151
_symmetry_Int_Tables_number   1
_chemical_formula_structural   SrMgNi(PO4)2
_chemical_formula_sum   'Sr2 Mg2 Ni2 P4 O16'
_cell_volume   315.42358135
_cell_formula_units_Z   2
loop_
 _symmetry_equiv_pos_site_id
 _symmetry_equiv_pos_as_xyz
  1  'x, y, z'
loop_
 _atom_site_type_symbol
 _atom_site_label
 _atom_site_symmetry_multiplicity
 _atom_site_fract_x
 _atom_site_fract_y
 _atom_site_fract_z
 _atom_site_occupancy
  Sr  Sr0  1  0.19903600  0.75042900  0.05169700  1
  Sr  Sr1  1  0.80096400  0.24957100  0.94830300  1
  Mg  Mg0  1  0.32935100  0.73285100  0.65547800  1
  Mg  Mg1  1  0.67064900  0.26714900  0.34452200  1
  Ni  Ni0  1  0.08040300  0.29280300  0.56051900  1
  Ni  Ni1  1  0.91959700  0.70719700  0.43948100  1
  P  P0  1  0.15860000  0.18673200  0.23878600  1
  P  P1  1  0.84140000  0.81326800  0.76121400  1
  P  P2  1  0.54045600  0.72256400  0.30375300  1
  P  P3  1  0.45954400  0.27743600  0.69624700  1
  O  O0  1  0.93802600  0.66489200  0.88232300  1
  O  O1  1  0.45374700  0.26549700  0.20717200  1
  O  O2  1  0.89791900  0.03668300  0.76410300  1
  O  O3  1  0.25995400  0.42155500  0.69575700  1
  O  O4  1  0.54625300  0.73450300  0.79282800  1
  O  O5  1  0.42458700  0.17152100  0.57389600  1
  O  O6  1  0.57541300  0.82847900  0.42610400  1
  O  O7  1  0.39307200  0.12855700  0.86633000  1
  O  O8  1  0.10208100  0.96331700  0.23589700  1
  O  O9  1  0.60692800  0.87144300  0.13367000  1
  O  O10  1  0.06197400  0.33510800  0.11767700  1
  O  O11  1  0.98007200  0.18948900  0.40288400  1
  O  O12  1  0.01992800  0.81051100  0.59711600  1
  O  O13  1  0.25186400  0.58502300  0.36952200  1
  O  O14  1  0.74004600  0.57844500  0.30424300  1
  O  O15  1  0.74813600  0.41497700  0.63047800  1
loop_
_geom_bond_atom_site_label_1
_geom_bond_atom_site_label_2
_geom_bond_distance
_geom_bond_site_symmetry_2
Mg0 O4 1.565812 1_555
Mg0 O12 1.895239 1_555
Mg0 O3 2.307829 1_555
Mg0 O13 2.403464 1_555
Mg0 O7 2.655850 1_565
Mg1 O1 1.565812 1_555
Mg1 O11 1.895239 1_555
Mg1 O14 2.307829 1_555
Mg1 O15 2.403464 1_555
Mg1 O9 2.655850 1_545
Ni0 O11 1.336252 1_455
Ni0 O3 1.348264 1_555
Ni0 O15 2.231659 1_455
Ni1 O12 1.336252 1_655
Ni1 O14 1.348264 1_555
Ni1 O13 2.231659 1_655
O0 Sr0 1.763658 1_656
O0 P1 1.831683 1_555
O1 P0 1.754823 1_555
O2 P1 1.522096 1_545
O2 Sr1 2.035134 1_555
O3 P3 1.583281 1_555
O4 P1 1.754823 1_555
O5 P3 1.069168 1_555
O6 P2 1.069168 1_555
O7 Sr1 2.163479 1_555
O7 P3 2.233135 1_555
O8 P0 1.522096 1_565
O8 Sr0 2.035134 1_555
O9 Sr0 2.163479 1_555
O9 P2 2.233135 1_555
O10 Sr1 1.763658 1_454
O10 P0 1.831683 1_555
O11 P0 1.964949 1_655
O12 P1 1.964949 1_455
O13 P2 2.044465 1_555
O14 P2 1.583281 1_555
O15 P3 2.044465 1_555
