# generated using pymatgen
data_CeNiP
_symmetry_space_group_name_H-M   'P 1'
_cell_length_a   3.94929185
_cell_length_b   3.94929185
_cell_length_c   15.97105821
_cell_angle_alpha   90.00000000
_cell_angle_beta   90.00000000
_cell_angle_gamma   120.00001353
_symmetry_Int_Tables_number   1
_chemical_formula_structural   CeNiP
_chemical_formula_sum   'Ce4 Ni4 P4'
_cell_volume   215.72611507
_cell_formula_units_Z   4
loop_
 _symmetry_equiv_pos_site_id
 _symmetry_equiv_pos_as_xyz
  1  'x, y, z'
loop_
 _atom_site_type_symbol
 _atom_site_label
 _atom_site_symmetry_multiplicity
 _atom_site_fract_x
 _atom_site_fract_y
 _atom_site_fract_z
 _atom_site_occupancy
  Ce  Ce0  1  0.00000000  -0.00000000  0.50000000  1
  Ce  Ce1  1  0.00000000  -0.00000000  -0.00000000  1
  Ce  Ce2  1  0.00000000  -0.00000000  0.25000000  1
  Ce  Ce3  1  0.00000000  -0.00000000  0.75000000  1
  Ni  Ni0  1  0.33333300  0.66666700  0.37391970  1
  Ni  Ni1  1  0.66666700  0.33333300  0.62608030  1
  Ni  Ni2  1  0.66666700  0.33333300  0.87391970  1
  Ni  Ni3  1  0.33333300  0.66666700  0.12608030  1
  P  P0  1  0.33333300  0.66666700  0.87419872  1
  P  P1  1  0.66666700  0.33333300  0.12580128  1
  P  P2  1  0.66666700  0.33333300  0.37419872  1
  P  P3  1  0.33333300  0.66666700  0.62580128  1
loop_
_geom_bond_atom_site_label_1
_geom_bond_atom_site_label_2
_geom_bond_distance
_geom_bond_site_symmetry_2
Ce0 P3 3.039040 1_545
Ce0 P2 3.039040 1_455
Ce0 P3 3.039042 1_445
Ce0 P2 3.039042 1_445
Ce0 P3 3.039042 1_555
Ce0 P2 3.039042 1_555
Ce0 Ni1 3.041988 1_455
Ce0 Ni0 3.041988 1_545
Ce0 Ni1 3.041990 1_555
Ce0 Ni1 3.041990 1_445
Ce0 Ni0 3.041990 1_555
Ce0 Ni0 3.041990 1_445
Ce1 P0 3.039040 1_544
Ce1 P1 3.039040 1_455
Ce1 P1 3.039042 1_555
Ce1 P0 3.039042 1_554
Ce1 P0 3.039042 1_444
Ce1 P1 3.039042 1_445
Ce1 Ni3 3.041988 1_545
Ce1 Ni2 3.041988 1_454
Ce1 Ni3 3.041990 1_445
Ce1 Ni3 3.041990 1_555
Ce1 Ni2 3.041990 1_554
Ce1 Ni2 3.041990 1_444
Ce2 Ni0 3.019256 1_545
Ce2 Ni3 3.019256 1_545
Ce2 Ni0 3.019259 1_555
Ce2 Ni0 3.019259 1_445
Ce2 Ni3 3.019259 1_445
Ce2 Ni3 3.019259 1_555
Ce2 P2 3.022179 1_455
Ce2 P1 3.022179 1_455
Ce2 P1 3.022182 1_445
Ce2 P2 3.022182 1_555
Ce2 P1 3.022182 1_555
Ce2 P2 3.022182 1_445
Ce3 Ni2 3.019256 1_455
Ce3 Ni1 3.019256 1_455
Ce3 Ni2 3.019259 1_445
Ce3 Ni2 3.019259 1_555
Ce3 Ni1 3.019259 1_445
Ce3 Ni1 3.019259 1_555
Ce3 P0 3.022179 1_545
Ce3 P3 3.022179 1_545
Ce3 P3 3.022182 1_445
Ce3 P0 3.022182 1_555
Ce3 P3 3.022182 1_555
Ce3 P0 3.022182 1_445
Ni0 P2 2.280126 1_455
Ni0 P2 2.280126 1_565
Ni0 P2 2.280134 1_555
Ni1 P3 2.280126 1_545
Ni1 P3 2.280126 1_655
Ni1 P3 2.280134 1_555
Ni2 P0 2.280126 1_545
Ni2 P0 2.280126 1_655
Ni2 P0 2.280134 1_555
Ni3 P1 2.280126 1_455
Ni3 P1 2.280126 1_565
Ni3 P1 2.280134 1_555
