# generated using pymatgen
data_TiPRu
_symmetry_space_group_name_H-M   'P 1'
_cell_length_a   6.23334157
_cell_length_b   6.23334105
_cell_length_c   3.65640302
_cell_angle_alpha   90.00000000
_cell_angle_beta   90.00000000
_cell_angle_gamma   120.00000280
_symmetry_Int_Tables_number   1
_chemical_formula_structural   TiPRu
_chemical_formula_sum   'Ti3 P3 Ru3'
_cell_volume   123.03438246
_cell_formula_units_Z   3
loop_
 _symmetry_equiv_pos_site_id
 _symmetry_equiv_pos_as_xyz
  1  'x, y, z'
loop_
 _atom_site_type_symbol
 _atom_site_label
 _atom_site_symmetry_multiplicity
 _atom_site_fract_x
 _atom_site_fract_y
 _atom_site_fract_z
 _atom_site_occupancy
  Ti  Ti0  1  0.41637758  0.41637758  0.50000000  1
  Ti  Ti1  1  0.58362242  0.00000000  0.50000000  1
  Ti  Ti2  1  0.00000000  0.58362242  0.50000000  1
  P  P0  1  0.00000000  0.00000000  0.50000000  1
  P  P1  1  0.66666700  0.33333300  -0.00000000  1
  P  P2  1  0.33333300  0.66666700  -0.00000000  1
  Ru  Ru0  1  -0.00000000  0.25092879  0.00000000  1
  Ru  Ru1  1  0.25092879  0.00000000  0.00000000  1
  Ru  Ru2  1  0.74907121  0.74907121  -0.00000000  1
loop_
_geom_bond_atom_site_label_1
_geom_bond_atom_site_label_2
_geom_bond_distance
_geom_bond_site_symmetry_2
P0 Ru2 2.405994 1_445
P0 Ru2 2.405994 1_446
P0 Ru0 2.405994 1_556
P0 Ru0 2.405994 1_555
P0 Ru1 2.405994 1_556
P0 Ru1 2.405994 1_555
P0 Ti0 2.595423 1_555
P0 Ti2 2.595423 1_545
P0 Ti1 2.595424 1_455
P1 Ru0 2.376607 1_655
P1 Ru1 2.376611 1_555
P1 Ru2 2.376613 1_555
P1 Ti1 2.617611 1_555
P1 Ti1 2.617611 1_554
P1 Ti2 2.617612 1_655
P1 Ti2 2.617612 1_654
P1 Ti0 2.617616 1_555
P1 Ti0 2.617616 1_554
P2 Ru1 2.376607 1_565
P2 Ru0 2.376611 1_555
P2 Ru2 2.376613 1_555
P2 Ti2 2.617611 1_554
P2 Ti2 2.617611 1_555
P2 Ti1 2.617612 1_564
P2 Ti1 2.617612 1_565
P2 Ti0 2.617615 1_555
P2 Ti0 2.617615 1_554
Ru0 Ru2 2.709143 1_445
Ru0 Ru1 2.709144 1_555
Ru0 Ti2 2.764586 1_555
Ru0 Ti2 2.764586 1_554
Ru0 Ti1 2.909547 1_455
Ru0 Ti1 2.909547 1_454
Ru0 Ti0 2.909547 1_555
Ru0 Ti0 2.909547 1_554
Ru1 Ru2 2.709144 1_445
Ru1 Ti1 2.764586 1_555
Ru1 Ti1 2.764586 1_554
Ru1 Ti2 2.909547 1_545
Ru1 Ti2 2.909547 1_544
Ru1 Ti0 2.909547 1_555
Ru1 Ti0 2.909547 1_554
Ru2 Ti0 2.764586 1_555
Ru2 Ti0 2.764586 1_554
Ru2 Ti1 2.909547 1_565
Ru2 Ti1 2.909547 1_564
Ru2 Ti2 2.909547 1_655
Ru2 Ti2 2.909547 1_654
