# generated using pymatgen
data_CsRbMnF6
_symmetry_space_group_name_H-M   'P 1'
_cell_length_a   6.31211030
_cell_length_b   6.31211030
_cell_length_c   6.31211030
_cell_angle_alpha   60.00000000
_cell_angle_beta   60.00000000
_cell_angle_gamma   60.00000000
_symmetry_Int_Tables_number   1
_chemical_formula_structural   CsRbMnF6
_chemical_formula_sum   'Cs1 Rb1 Mn1 F6'
_cell_volume   177.83152015
_cell_formula_units_Z   1
loop_
 _symmetry_equiv_pos_site_id
 _symmetry_equiv_pos_as_xyz
  1  'x, y, z'
loop_
 _atom_site_type_symbol
 _atom_site_label
 _atom_site_symmetry_multiplicity
 _atom_site_fract_x
 _atom_site_fract_y
 _atom_site_fract_z
 _atom_site_occupancy
  Cs  Cs0  1  0.75000000  0.75000000  0.75000000  1
  Rb  Rb0  1  0.25000000  0.25000000  0.25000000  1
  Mn  Mn0  1  0.00000000  0.00000000  0.00000000  1
  F  F0  1  0.79277500  0.79277500  0.20722500  1
  F  F1  1  0.20722500  0.79277500  0.20722500  1
  F  F2  1  0.79277500  0.20722500  0.20722500  1
  F  F3  1  0.20722500  0.20722500  0.79277500  1
  F  F4  1  0.79277500  0.20722500  0.79277500  1
  F  F5  1  0.20722500  0.79277500  0.79277500  1
loop_
_geom_bond_atom_site_label_1
_geom_bond_atom_site_label_2
_geom_bond_distance
_geom_bond_site_symmetry_2
Cs0 F1 3.179070 1_556
Cs0 F3 3.179070 1_565
Cs0 F3 3.179070 1_655
Cs0 F4 3.179070 1_565
Cs0 F0 3.179070 1_555
Cs0 F1 3.179070 1_655
Cs0 F0 3.179070 1_556
Cs0 F4 3.179070 1_555
Cs0 F5 3.179070 1_655
Cs0 F2 3.179070 1_565
Cs0 F5 3.179070 1_555
Cs0 F2 3.179070 1_556
F0 Mn0 1.849830 1_665
F0 Rb0 3.179070 1_565
F0 Rb0 3.179070 1_655
F1 Mn0 1.849830 1_565
F1 Rb0 3.179070 1_565
F1 Rb0 3.179070 1_555
F2 Mn0 1.849830 1_655
F2 Rb0 3.179070 1_555
F2 Rb0 3.179070 1_655
F3 Mn0 1.849830 1_556
F3 Rb0 3.179070 1_556
F3 Rb0 3.179070 1_555
F4 Mn0 1.849830 1_656
F4 Rb0 3.179070 1_556
F4 Rb0 3.179070 1_655
F5 Mn0 1.849830 1_566
F5 Rb0 3.179070 1_556
F5 Rb0 3.179070 1_565
