# generated using pymatgen
data_Hf9V4S
_symmetry_space_group_name_H-M   'P 1'
_cell_length_a   8.57941805
_cell_length_b   8.57941805
_cell_length_c   8.41254300
_cell_angle_alpha   90.00000000
_cell_angle_beta   90.00000000
_cell_angle_gamma   120.00000042
_symmetry_Int_Tables_number   1
_chemical_formula_structural   Hf9V4S
_chemical_formula_sum   'Hf18 V8 S2'
_cell_volume   536.25775765
_cell_formula_units_Z   2
loop_
 _symmetry_equiv_pos_site_id
 _symmetry_equiv_pos_as_xyz
  1  'x, y, z'
loop_
 _atom_site_type_symbol
 _atom_site_label
 _atom_site_symmetry_multiplicity
 _atom_site_fract_x
 _atom_site_fract_y
 _atom_site_fract_z
 _atom_site_occupancy
  Hf  Hf0  1  0.19563400  0.39126700  0.94886600  1
  Hf  Hf1  1  0.19563400  0.80436600  0.94886600  1
  Hf  Hf2  1  0.45606200  0.91212400  0.25000000  1
  Hf  Hf3  1  0.54393800  0.45606200  0.75000000  1
  Hf  Hf4  1  0.91212400  0.45606200  0.75000000  1
  Hf  Hf5  1  0.08787600  0.54393800  0.25000000  1
  Hf  Hf6  1  0.45606200  0.54393800  0.25000000  1
  Hf  Hf7  1  0.54393800  0.08787600  0.75000000  1
  Hf  Hf8  1  0.60873300  0.80436600  0.94886600  1
  Hf  Hf9  1  0.39126700  0.19563400  0.44886600  1
  Hf  Hf10  1  0.80436600  0.60873300  0.05113400  1
  Hf  Hf11  1  0.80436600  0.19563400  0.44886600  1
  Hf  Hf12  1  0.80436600  0.60873300  0.44886600  1
  Hf  Hf13  1  0.19563400  0.80436600  0.55113400  1
  Hf  Hf14  1  0.60873300  0.80436600  0.55113400  1
  Hf  Hf15  1  0.39126700  0.19563400  0.05113400  1
  Hf  Hf16  1  0.80436600  0.19563400  0.05113400  1
  Hf  Hf17  1  0.19563400  0.39126700  0.55113400  1
  V  V0  1  0.00000000  0.00000000  0.50000000  1
  V  V1  1  0.00000000  0.00000000  0.00000000  1
  V  V2  1  0.89301500  0.78603100  0.75000000  1
  V  V3  1  0.10698500  0.89301500  0.25000000  1
  V  V4  1  0.78603100  0.89301500  0.25000000  1
  V  V5  1  0.21396900  0.10698500  0.75000000  1
  V  V6  1  0.89301500  0.10698500  0.75000000  1
  V  V7  1  0.10698500  0.21396900  0.25000000  1
  S  S0  1  0.66666700  0.33333300  0.25000000  1
  S  S1  1  0.33333300  0.66666700  0.75000000  1
loop_
_geom_bond_atom_site_label_1
_geom_bond_atom_site_label_2
_geom_bond_distance
_geom_bond_site_symmetry_2
Hf0 S1 2.643074 1_555
Hf0 V7 2.855339 1_556
Hf0 V1 2.938765 1_556
Hf0 V5 3.025859 1_555
Hf0 V6 3.025867 1_455
Hf1 S1 2.643063 1_555
Hf1 V3 2.855339 1_556
Hf1 V1 2.938773 1_566
Hf1 V2 3.025873 1_455
Hf1 V5 3.025873 1_565
Hf2 V3 2.916364 1_555
Hf2 V4 2.916372 1_555
Hf2 S0 3.129580 1_565
Hf3 V5 2.916367 1_555
Hf3 V2 2.916367 1_555
Hf3 S1 3.129588 1_555
Hf4 V6 2.916364 1_555
Hf4 V2 2.916372 1_555
Hf4 S1 3.129580 1_655
Hf5 V3 2.916364 1_555
Hf5 V7 2.916372 1_555
Hf5 S0 3.129580 1_455
Hf6 V7 2.916367 1_555
Hf6 V4 2.916367 1_555
Hf6 S0 3.129588 1_555
Hf7 V6 2.916364 1_555
Hf7 V5 2.916372 1_555
Hf7 S1 3.129580 1_545
Hf8 S1 2.643074 1_555
Hf8 V4 2.855339 1_556
Hf8 V1 2.938765 1_666
Hf8 V2 3.025859 1_555
Hf8 V6 3.025867 1_565
Hf9 S0 2.643074 1_555
Hf9 V5 2.855339 1_555
Hf9 V0 2.938765 1_555
Hf9 V7 3.025859 1_555
Hf9 V3 3.025867 1_545
Hf10 S0 2.643074 1_555
Hf10 V2 2.855339 1_554
Hf10 V1 2.938765 1_665
Hf10 V4 3.025859 1_555
Hf10 V3 3.025867 1_655
Hf11 S0 2.643063 1_555
Hf11 V6 2.855339 1_555
Hf11 V0 2.938773 1_655
Hf11 V4 3.025873 1_545
Hf11 V7 3.025873 1_655
Hf12 S0 2.643074 1_555
Hf12 V2 2.855339 1_555
Hf12 V0 2.938765 1_665
Hf12 V4 3.025859 1_555
Hf12 V3 3.025867 1_655
Hf13 S1 2.643063 1_555
Hf13 V3 2.855339 1_555
Hf13 V0 2.938773 1_565
Hf13 V2 3.025873 1_455
Hf13 V5 3.025873 1_565
Hf14 S1 2.643074 1_555
Hf14 V4 2.855339 1_555
Hf14 V0 2.938765 1_665
Hf14 V2 3.025859 1_555
Hf14 V6 3.025867 1_565
Hf15 S0 2.643074 1_555
Hf15 V5 2.855339 1_554
Hf15 V1 2.938765 1_555
Hf15 V7 3.025859 1_555
Hf15 V3 3.025867 1_545
Hf16 S0 2.643063 1_555
Hf16 V6 2.855339 1_554
Hf16 V1 2.938773 1_655
Hf16 V4 3.025873 1_545
Hf16 V7 3.025873 1_655
Hf17 S1 2.643074 1_555
Hf17 V7 2.855339 1_555
Hf17 V0 2.938765 1_555
Hf17 V5 3.025859 1_555
Hf17 V6 3.025867 1_455
V0 V5 2.636400 1_555
V0 V7 2.636400 1_555
V0 V4 2.636400 1_445
V0 V2 2.636400 1_445
V0 V6 2.636405 1_455
V0 V3 2.636405 1_545
V1 V7 2.636400 1_555
V1 V5 2.636400 1_554
V1 V4 2.636400 1_445
V1 V2 2.636400 1_444
V1 V6 2.636405 1_454
V1 V3 2.636405 1_545
V2 V5 2.753599 1_665
V2 V6 2.753599 1_565
V3 V7 2.753599 1_565
V3 V4 2.753599 1_455
V4 V7 2.753599 1_665
V5 V6 2.753599 1_455
