# generated using pymatgen
data_Li4Mn5Cu(PO4)6
_symmetry_space_group_name_H-M   'P 1'
_cell_length_a   8.51826473
_cell_length_b   8.94893893
_cell_length_c   9.06568235
_cell_angle_alpha   58.72083467
_cell_angle_beta   59.37775683
_cell_angle_gamma   58.53193603
_symmetry_Int_Tables_number   1
_chemical_formula_structural   Li4Mn5Cu(PO4)6
_chemical_formula_sum   'Li4 Mn5 Cu1 P6 O24'
_cell_volume   476.07378512
_cell_formula_units_Z   1
loop_
 _symmetry_equiv_pos_site_id
 _symmetry_equiv_pos_as_xyz
  1  'x, y, z'
loop_
 _atom_site_type_symbol
 _atom_site_label
 _atom_site_symmetry_multiplicity
 _atom_site_fract_x
 _atom_site_fract_y
 _atom_site_fract_z
 _atom_site_occupancy
  Li  Li0  1  0.25446600  0.84964100  0.64172400  1
  Li  Li1  1  0.74555600  0.15934100  0.33011600  1
  Li  Li2  1  0.71754100  0.78947200  0.14054700  1
  Li  Li3  1  0.71591400  0.32670900  0.81000000  1
  Mn  Mn0  1  0.00180000  0.99534900  0.01093900  1
  Mn  Mn1  1  0.06178800  0.65172300  0.64045100  1
  Mn  Mn2  1  0.50338000  0.49181600  0.49910700  1
  Mn  Mn3  1  0.44195700  0.85116400  0.84965400  1
  Mn  Mn4  1  0.96219900  0.34991600  0.34502100  1
  Cu  Cu0  1  0.52142400  0.14961100  0.18059100  1
  P  P0  1  0.25934900  0.25388500  0.55865700  1
  P  P1  1  0.24144700  0.94505500  0.24834400  1
  P  P2  1  0.25875600  0.54978800  0.94611800  1
  P  P3  1  0.75842900  0.46255700  0.03054900  1
  P  P4  1  0.77034000  0.03211600  0.74803300  1
  P  P5  1  0.72368100  0.75820400  0.45391700  1
  O  O0  1  0.05488600  0.10196600  0.30352000  1
  O  O1  1  0.06801900  0.53037200  0.09423200  1
  O  O2  1  0.07733000  0.30346300  0.52499400  1
  O  O3  1  0.24857300  0.08532000  0.74714000  1
  O  O4  1  0.45292700  0.20557700  0.40559700  1
  O  O5  1  0.25892900  0.41328300  0.58577700  1
  O  O6  1  0.22845600  0.91365100  0.10345400  1
  O  O7  1  0.26084800  0.75495400  0.41974200  1
  O  O8  1  0.57295600  0.60563800  0.98211000  1
  O  O9  1  0.29066900  0.57358400  0.75057400  1
  O  O10  1  0.79445100  0.26834900  0.03803200  1
  O  O11  1  0.60679700  0.96484700  0.81292900  1
  O  O12  1  0.43279700  0.97279300  0.18705800  1
  O  O13  1  0.24069700  0.74868000  0.91879100  1
  O  O14  1  0.72463100  0.43913900  0.22701800  1
  O  O15  1  0.43940100  0.38201200  0.99199000  1
  O  O16  1  0.72830800  0.23502900  0.60452700  1
  O  O17  1  0.78654000  0.04241600  0.90673800  1
  O  O18  1  0.72345000  0.60927100  0.41064900  1
  O  O19  1  0.52628000  0.81831300  0.59476300  1
  O  O20  1  0.74774500  0.92672600  0.26288200  1
  O  O21  1  0.89320100  0.69589900  0.51121100  1
  O  O22  1  0.93414100  0.52161800  0.88734600  1
  O  O23  1  0.96994100  0.89375200  0.67216200  1
loop_
_geom_bond_atom_site_label_1
_geom_bond_atom_site_label_2
_geom_bond_distance
_geom_bond_site_symmetry_2
Li0 O19 2.015652 1_555
Li0 O9 2.038382 1_555
Li0 O23 2.130494 1_455
Li0 O13 2.143159 1_555
Li0 O7 2.526255 1_555
Li1 O4 2.081455 1_555
Li1 O14 2.109127 1_555
Li1 O10 2.180597 1_555
Li1 O0 2.309454 1_655
Li1 O20 2.443485 1_545
Li2 O12 2.067435 1_555
Li2 O18 2.130578 1_555
Li2 O20 2.200009 1_555
Li2 O17 2.258243 1_564
Li3 O15 2.046170 1_555
Li3 O17 2.055779 1_555
Li3 O10 2.217414 1_556
Li3 O16 2.334592 1_555
Mn0 O6 2.122454 1_555
Mn0 O10 2.196485 1_465
Mn0 O17 2.230949 1_464
Mn0 O20 2.274362 1_455
Mn0 O13 2.281413 1_554
Mn0 O3 2.330764 1_564
Mn1 O22 1.919368 1_455
Mn1 O7 1.997939 1_555
Mn1 O23 2.008518 1_455
Mn1 O5 2.031738 1_555
Mn1 O21 2.057122 1_455
Mn1 O9 2.263071 1_555
Mn2 O5 2.175985 1_555
Mn2 O16 2.202988 1_555
Mn2 O18 2.216412 1_555
Mn2 O7 2.237566 1_555
Mn2 O9 2.270570 1_555
Mn2 O14 2.324336 1_555
Mn3 O8 1.892172 1_555
Mn3 O11 1.944456 1_555
Mn3 O3 1.975280 1_565
Mn3 O13 2.030528 1_555
Mn3 O19 2.176240 1_555
Mn3 O6 2.219356 1_556
Mn4 O1 2.051551 1_655
Mn4 O2 2.072878 1_655
Mn4 O0 2.103238 1_655
Mn4 O18 2.269362 1_555
Mn4 O16 2.326591 1_555
Mn4 O14 2.347061 1_555
Cu0 O15 1.935014 1_554
Cu0 O20 2.038858 1_545
Cu0 O12 2.045223 1_545
Cu0 O4 2.072550 1_555
Cu0 O10 2.510038 1_555
O0 P1 1.528785 1_545
O1 P2 1.517534 1_554
O2 P0 1.522244 1_555
O3 P0 1.584884 1_555
O4 P0 1.542408 1_555
O5 P0 1.566255 1_555
O6 P1 1.542872 1_555
O7 P1 1.599672 1_555
O8 P3 1.529476 1_556
O9 P2 1.561839 1_555
O10 P3 1.568837 1_555
O11 P4 1.523837 1_565
O12 P1 1.543932 1_555
O13 P2 1.596267 1_555
O14 P3 1.565950 1_555
O15 P2 1.544823 1_555
O16 P4 1.568655 1_555
O17 P4 1.565521 1_555
O18 P5 1.573723 1_555
O19 P5 1.526033 1_555
O20 P5 1.601454 1_555
O21 P5 1.512819 1_555
O22 P3 1.529341 1_556
O23 P4 1.546646 1_565
