# generated using pymatgen
data_NdMgSe3
_symmetry_space_group_name_H-M   'P 1'
_cell_length_a   7.03599300
_cell_length_b   7.03599353
_cell_length_c   19.64905200
_cell_angle_alpha   90.00000000
_cell_angle_beta   90.00000000
_cell_angle_gamma   120.00000222
_symmetry_Int_Tables_number   1
_chemical_formula_structural   NdMgSe3
_chemical_formula_sum   'Nd6 Mg6 Se18'
_cell_volume   842.40910852
_cell_formula_units_Z   6
loop_
 _symmetry_equiv_pos_site_id
 _symmetry_equiv_pos_as_xyz
  1  'x, y, z'
loop_
 _atom_site_type_symbol
 _atom_site_label
 _atom_site_symmetry_multiplicity
 _atom_site_fract_x
 _atom_site_fract_y
 _atom_site_fract_z
 _atom_site_occupancy
  Nd  Nd0  1  0.00000000  0.00000000  0.35247100  1
  Nd  Nd1  1  0.00000000  0.00000000  0.64752900  1
  Nd  Nd2  1  0.66666700  0.33333300  0.68580400  1
  Nd  Nd3  1  0.66666700  0.33333300  0.98086200  1
  Nd  Nd4  1  0.33333300  0.66666700  0.01913800  1
  Nd  Nd5  1  0.33333300  0.66666700  0.31419600  1
  Mg  Mg0  1  0.00000000  0.00000000  0.16248900  1
  Mg  Mg1  1  0.00000000  0.00000000  0.83751100  1
  Mg  Mg2  1  0.66666700  0.33333300  0.49582200  1
  Mg  Mg3  1  0.66666700  0.33333300  0.17084400  1
  Mg  Mg4  1  0.33333300  0.66666700  0.82915600  1
  Mg  Mg5  1  0.33333300  0.66666700  0.50417800  1
  Se  Se0  1  0.99423400  0.37330000  0.58263400  1
  Se  Se1  1  0.00576600  0.62670000  0.41736600  1
  Se  Se2  1  0.62670000  0.62093300  0.58263400  1
  Se  Se3  1  0.37330000  0.37906700  0.41736600  1
  Se  Se4  1  0.37906700  0.00576600  0.58263400  1
  Se  Se5  1  0.62093300  0.99423400  0.41736600  1
  Se  Se6  1  0.66090100  0.70663300  0.91596700  1
  Se  Se7  1  0.67243300  0.96003300  0.75069900  1
  Se  Se8  1  0.29336700  0.95426600  0.91596700  1
  Se  Se9  1  0.03996700  0.71240000  0.75069900  1
  Se  Se10  1  0.04573400  0.33909900  0.91596700  1
  Se  Se11  1  0.28760000  0.32756700  0.75069900  1
  Se  Se12  1  0.32756700  0.03996700  0.24930100  1
  Se  Se13  1  0.33909900  0.29336700  0.08403300  1
  Se  Se14  1  0.96003300  0.28760000  0.24930100  1
  Se  Se15  1  0.70663300  0.04573400  0.08403300  1
  Se  Se16  1  0.71240000  0.67243300  0.24930100  1
  Se  Se17  1  0.95426600  0.66090100  0.08403300  1
loop_
_geom_bond_atom_site_label_1
_geom_bond_atom_site_label_2
_geom_bond_distance
_geom_bond_site_symmetry_2
Nd0 Se1 2.938170 1_545
Nd0 Se3 2.938173 1_555
Nd0 Se5 2.938176 1_445
Nd0 Se12 2.975296 1_555
Nd0 Se16 2.975296 1_445
Nd0 Se14 2.975296 1_455
Nd1 Se0 2.938170 1_455
Nd1 Se2 2.938173 1_445
Nd1 Se4 2.938176 1_555
Nd1 Se7 2.975296 1_445
Nd1 Se11 2.975296 1_555
Nd1 Se9 2.975296 1_545
Nd2 Se7 2.938170 1_545
Nd2 Se9 2.938173 1_655
Nd2 Se11 2.938176 1_555
Nd2 Se0 2.975296 1_555
Nd2 Se4 2.975296 1_555
Nd2 Se2 2.975296 1_555
Nd3 Se6 2.938170 1_555
Nd3 Se8 2.938173 1_545
Nd3 Se10 2.938176 1_655
Nd3 Se15 2.975301 1_556
Nd3 Se17 2.975311 1_556
Nd3 Se13 2.975317 1_556
Nd4 Se13 2.938170 1_555
Nd4 Se15 2.938173 1_565
Nd4 Se17 2.938176 1_455
Nd4 Se8 2.975301 1_554
Nd4 Se10 2.975311 1_554
Nd4 Se6 2.975317 1_554
Nd5 Se12 2.938170 1_565
Nd5 Se14 2.938173 1_455
Nd5 Se16 2.938176 1_555
Nd5 Se1 2.975296 1_555
Nd5 Se5 2.975296 1_555
Nd5 Se3 2.975296 1_555
Mg0 Se17 2.721176 1_445
Mg0 Se13 2.721180 1_555
Mg0 Se15 2.721187 1_455
Mg0 Se12 2.766322 1_555
Mg0 Se16 2.766322 1_445
Mg0 Se14 2.766323 1_455
Mg1 Se10 2.721176 1_555
Mg1 Se6 2.721180 1_445
Mg1 Se8 2.721187 1_545
Mg1 Se7 2.766322 1_445
Mg1 Se11 2.766322 1_555
Mg1 Se9 2.766323 1_545
Mg2 Se5 2.721176 1_545
Mg2 Se1 2.721180 1_655
Mg2 Se3 2.721187 1_555
Mg2 Se0 2.766322 1_555
Mg2 Se4 2.766322 1_555
Mg2 Se2 2.766323 1_555
Mg3 Se14 2.721189 1_555
Mg3 Se12 2.721193 1_555
Mg3 Se16 2.721195 1_555
Mg3 Se15 2.766302 1_555
Mg3 Se17 2.766311 1_555
Mg3 Se13 2.766318 1_555
Mg4 Se9 2.721189 1_555
Mg4 Se7 2.721193 1_555
Mg4 Se11 2.721195 1_555
Mg4 Se8 2.766302 1_555
Mg4 Se10 2.766311 1_555
Mg4 Se6 2.766318 1_555
Mg5 Se4 2.721176 1_565
Mg5 Se0 2.721180 1_455
Mg5 Se2 2.721187 1_555
Mg5 Se1 2.766322 1_555
Mg5 Se5 2.766322 1_555
Mg5 Se3 2.766323 1_555
