# generated using pymatgen
data_Sr(SO5)2
_symmetry_space_group_name_H-M   'P 1'
_cell_length_a   13.05375157
_cell_length_b   13.05375157
_cell_length_c   18.32446384
_cell_angle_alpha   90.00000000
_cell_angle_beta   90.00000000
_cell_angle_gamma   119.99999802
_symmetry_Int_Tables_number   1
_chemical_formula_structural   Sr(SO5)2
_chemical_formula_sum   'Sr12 S24 O120'
_cell_volume   2704.16136195
_cell_formula_units_Z   12
loop_
 _symmetry_equiv_pos_site_id
 _symmetry_equiv_pos_as_xyz
  1  'x, y, z'
loop_
 _atom_site_type_symbol
 _atom_site_label
 _atom_site_symmetry_multiplicity
 _atom_site_fract_x
 _atom_site_fract_y
 _atom_site_fract_z
 _atom_site_occupancy
  Sr  Sr0  1  0.00105161  0.99784850  0.66622852  1
  Sr  Sr1  1  0.00215150  0.00320311  0.33289452  1
  Sr  Sr2  1  0.99679689  0.99894839  0.99956152  1
  Sr  Sr3  1  0.00272824  0.50063720  0.66422877  1
  Sr  Sr4  1  0.49936280  0.50209104  0.33089477  1
  Sr  Sr5  1  0.49790896  0.99727176  0.99756177  1
  Sr  Sr6  1  0.99748347  0.49726057  0.99759667  1
  Sr  Sr7  1  0.50273943  0.50022291  0.66426267  1
  Sr  Sr8  1  0.49977709  0.00251653  0.33092967  1
  Sr  Sr9  1  0.99887580  0.50163888  0.32864070  1
  Sr  Sr10  1  0.49836112  0.49723692  0.99530670  1
  Sr  Sr11  1  0.50276308  0.00112420  0.66197370  1
  S  S0  1  0.30851574  0.45926774  0.16199742  1
  S  S1  1  0.54073226  0.84924800  0.82866342  1
  S  S2  1  0.15075200  0.69148426  0.49533042  1
  S  S3  1  0.18966274  0.53838797  0.16242592  1
  S  S4  1  0.46161203  0.65127477  0.82909192  1
  S  S5  1  0.34872523  0.81033726  0.49575892  1
  S  S6  1  0.84804091  0.04088695  0.16741253  1
  S  S7  1  0.95911305  0.80715396  0.83407853  1
  S  S8  1  0.19284604  0.15195909  0.50074553  1
  S  S9  1  0.65016725  0.96158501  0.16595068  1
  S  S10  1  0.03841499  0.68858224  0.83261668  1
  S  S11  1  0.31141776  0.34983275  0.49928368  1
  S  S12  1  0.46296193  0.14873829  0.82922499  1
  S  S13  1  0.85126171  0.31422363  0.49589099  1
  S  S14  1  0.68577637  0.53703807  0.16255799  1
  S  S15  1  0.54008183  0.34638902  0.82870866  1
  S  S16  1  0.65361098  0.19369281  0.49537466  1
  S  S17  1  0.80630719  0.45991817  0.16204166  1
  S  S18  1  0.03699939  0.18737717  0.83254456  1
  S  S19  1  0.81262283  0.84962222  0.49921056  1
  S  S20  1  0.15037778  0.96300061  0.16587756  1
  S  S21  1  0.95984761  0.30794464  0.83202903  1
  S  S22  1  0.69205536  0.65190297  0.49869503  1
  S  S23  1  0.34809703  0.04015239  0.16536203  1
  O  O0  1  0.38139088  0.50847045  0.22844553  1
  O  O1  1  0.49152955  0.87292043  0.89511153  1
  O  O2  1  0.12707957  0.61860912  0.56177853  1
  O  O3  1  0.37917839  0.50966461  0.09475123  1
  O  O4  1  0.49033539  0.86951378  0.76141723  1
  O  O5  1  0.13048622  0.62082161  0.42808423  1
  O  O6  1  0.23421267  0.33174036  0.16190285  1
  O  O7  1  0.66825964  0.90247230  0.82856885  1
  O  O8  1  0.09752770  0.76578733  0.49523585  1
  O  O9  1  0.11497552  0.48482894  0.09698772  1
  O  O10  1  0.51517106  0.63014657  0.76365372  1
  O  O11  1  0.36985343  0.88502448  0.43032072  1
  O  O12  1  0.12099003  0.49271389  0.23073098  1
  O  O13  1  0.50728611  0.62827614  0.89739698  1
  O  O14  1  0.37172386  0.87900997  0.56406398  1
  O  O15  1  0.26264711  0.66600846  0.15948682  1
  O  O16  1  0.33399154  0.59663865  0.82615282  1
  O  O17  1  0.40336135  0.73735289  0.49281982  1
  O  O18  1  0.87212886  0.99121397  0.10133943  1
  O  O19  1  0.00878603  0.88091489  0.76800543  1
  O  O20  1  0.11908511  0.12787114  0.43467243  1
  O  O21  1  0.86830679  0.99075267  0.23477806  1
  O  O22  1  0.00924733  0.87755413  0.90144406  1
  O  O23  1  0.12244587  0.13169321  0.56811106  1
  O  O24  1  0.90152351  0.16837455  0.16734396  1
  O  O25  1  0.83162545  0.73314896  0.83400996  1
  O  O26  1  0.26685104  0.09847649  0.50067696  1
  O  O27  1  0.62888250  0.01593193  0.23086150  1
  O  O28  1  0.98406807  0.61295057  0.89752750  1
  O  O29  1  0.38704943  0.37111750  0.56419450  1
  O  O30  1  0.62722551  0.00618912  0.09723193  1
  O  O31  1  0.99381088  0.62103639  0.76389793  1
  O  O32  1  0.37896361  0.37277449  0.43056493  1
  O  O33  1  0.59578020  0.83399043  0.16935778  1
  O  O34  1  0.16600957  0.76178977  0.83602378  1
  O  O35  1  0.23821023  0.40421980  0.50269078  1
  O  O36  1  0.50847550  0.12654724  0.89783642  1
  O  O37  1  0.87345276  0.38192826  0.56450242  1
  O  O38  1  0.61807174  0.49152450  0.23116942  1
  O  O39  1  0.51775468  0.12887152  0.76395691  1
  O  O40  1  0.87112848  0.38888316  0.43062291  1
  O  O41  1  0.61111684  0.48224532  0.09728991  1
  O  O42  1  0.33535409  0.09327028  0.82596849  1
  O  O43  1  0.90672972  0.24208381  0.49263449  1
  O  O44  1  0.75791619  0.66464591  0.15930149  1
  O  O45  1  0.48880726  0.36600654  0.76160704  1
  O  O46  1  0.63399346  0.12280071  0.42827304  1
  O  O47  1  0.87719929  0.51119274  0.09494004  1
  O  O48  1  0.49037123  0.36947496  0.89521316  1
  O  O49  1  0.63052504  0.12089626  0.56187916  1
  O  O50  1  0.87910374  0.50962877  0.22854616  1
  O  O51  1  0.66768602  0.40142765  0.82830846  1
  O  O52  1  0.59857235  0.26625837  0.49497446  1
  O  O53  1  0.73374163  0.33231398  0.16164146  1
  O  O54  1  0.99082114  0.11864569  0.76432239  1
  O  O55  1  0.88135431  0.87217545  0.43098839  1
  O  O56  1  0.12782455  0.00917886  0.09765539  1
  O  O57  1  0.98266586  0.11347074  0.89820252  1
  O  O58  1  0.88652926  0.86919512  0.56486852  1
  O  O59  1  0.13080488  0.01733414  0.23153552  1
  O  O60  1  0.16465164  0.25918776  0.83547855  1
  O  O61  1  0.74081224  0.90546388  0.50214455  1
  O  O62  1  0.09453612  0.83534836  0.16881155  1
  O  O63  1  0.01143098  0.37933833  0.89887663  1
  O  O64  1  0.62066167  0.63209265  0.56554263  1
  O  O65  1  0.36790735  0.98856902  0.23220963  1
  O  O66  1  0.00871966  0.37995829  0.76519593  1
  O  O67  1  0.62004171  0.62876137  0.43186193  1
  O  O68  1  0.37123863  0.99128034  0.09852893  1
  O  O69  1  0.83224266  0.23494416  0.83277326  1
  O  O70  1  0.76505584  0.59729850  0.49943926  1
  O  O71  1  0.40270150  0.16775734  0.16610626  1
  O  O72  1  0.86553850  0.22461829  0.31537325  1
  O  O73  1  0.77538171  0.64092021  0.98203925  1
  O  O74  1  0.35907979  0.13446150  0.64870625  1
  O  O75  1  0.27715468  0.63578644  0.68325686  1
  O  O76  1  0.36421356  0.64136823  0.34992286  1
  O  O77  1  0.35863177  0.72284532  0.01658986  1
  O  O78  1  0.27731605  0.13437601  0.68253839  1
  O  O79  1  0.86562399  0.14294003  0.34920439  1
  O  O80  1  0.85705997  0.72268395  0.01587139  1
  O  O81  1  0.14139270  0.36476516  0.64457671  1
  O  O82  1  0.63523484  0.77662753  0.31124271  1
  O  O83  1  0.22337247  0.85860730  0.97790971  1
  O  O84  1  0.87436120  0.65227954  0.34928986  1
  O  O85  1  0.34772046  0.22208167  0.01595586  1
  O  O86  1  0.77791833  0.12563880  0.68262286  1
  O  O87  1  0.87649120  0.72779533  0.30775596  1
  O  O88  1  0.27220467  0.14869586  0.97442196  1
  O  O89  1  0.85130414  0.12350880  0.64108896  1
  O  O90  1  0.71960532  0.34985057  0.97862261  1
  O  O91  1  0.65014943  0.36975474  0.64528861  1
  O  O92  1  0.63024526  0.28039468  0.31195561  1
  O  O93  1  0.14965608  0.77863256  0.01703886  1
  O  O94  1  0.22136744  0.37102352  0.68370486  1
  O  O95  1  0.62897648  0.85034392  0.35037186  1
  O  O96  1  0.21997905  0.35706629  0.97765665  1
  O  O97  1  0.64293371  0.86291275  0.64432265  1
  O  O98  1  0.13708725  0.78002095  0.31098965  1
  O  O99  1  0.63417987  0.35906601  0.35135418  1
  O  O100  1  0.64093399  0.27511387  0.01802018  1
  O  O101  1  0.72488613  0.36582013  0.68468718  1
  O  O102  1  0.13750070  0.85835092  0.34900688  1
  O  O103  1  0.14164908  0.27914977  0.01567288  1
  O  O104  1  0.72085023  0.86249930  0.68233988  1
  O  O105  1  0.36557557  0.22471258  0.31018823  1
  O  O106  1  0.77528742  0.14086298  0.97685423  1
  O  O107  1  0.85913702  0.63442443  0.64352123  1
  O  O108  1  0.64777613  0.77043851  0.01898986  1
  O  O109  1  0.22956149  0.87733762  0.68565586  1
  O  O110  1  0.12266238  0.35222387  0.35232286  1
  O  O111  1  0.72455126  0.85021585  0.98185345  1
  O  O112  1  0.14978415  0.87433540  0.64851945  1
  O  O113  1  0.12566460  0.27544874  0.31518645  1
  O  O114  1  0.35102229  0.62982583  0.64409305  1
  O  O115  1  0.37017417  0.72119646  0.31075905  1
  O  O116  1  0.27880354  0.64897771  0.97742605  1
  O  O117  1  0.78058130  0.62957422  0.68342318  1
  O  O118  1  0.37042578  0.15100707  0.35008918  1
  O  O119  1  0.84899293  0.21941870  0.01675618  1
loop_
_geom_bond_atom_site_label_1
_geom_bond_atom_site_label_2
_geom_bond_distance
_geom_bond_site_symmetry_2
O0 S0 1.479561 1_555
O0 Sr4 2.455822 1_555
O1 S1 1.479561 1_555
O1 Sr5 2.455836 1_555
O2 S2 1.479561 1_555
O2 Sr3 2.455836 1_555
O3 S0 1.481638 1_555
O3 Sr10 2.453533 1_554
O4 S1 1.481638 1_555
O4 Sr11 2.453520 1_565
O5 S2 1.481638 1_555
O5 Sr9 2.453520 1_455
O6 S0 1.448232 1_555
O7 S1 1.448232 1_555
O8 S2 1.448232 1_555
O9 S3 1.481751 1_555
O9 Sr6 2.438152 1_454
O10 S4 1.481751 1_555
O10 Sr7 2.438152 1_555
O11 S5 1.481751 1_555
O11 Sr8 2.438152 1_565
O12 S3 1.480284 1_555
O12 Sr9 2.441153 1_455
O13 S4 1.480284 1_555
O13 Sr10 2.441153 1_555
O14 S5 1.480284 1_555
O14 Sr11 2.441153 1_565
O15 S3 1.448698 1_555
O16 S4 1.448698 1_555
O17 S5 1.448698 1_555
O18 S6 1.479571 1_565
O18 Sr2 2.443889 1_554
O19 S7 1.479571 1_455
O19 Sr0 2.443875 1_555
O20 S8 1.479571 1_555
O20 Sr1 2.443889 1_555
O21 S6 1.481635 1_565
O21 Sr1 2.455124 1_665
O22 S7 1.481635 1_455
O22 Sr2 2.455138 1_455
O23 S8 1.481635 1_555
O23 Sr0 2.455138 1_545
O24 S6 1.447444 1_555
O25 S7 1.447444 1_555
O26 S8 1.447444 1_555
O27 S9 1.480679 1_545
O27 Sr8 2.436851 1_555
O28 S10 1.480679 1_655
O28 Sr6 2.436865 1_555
O29 S11 1.480679 1_555
O29 Sr7 2.436851 1_555
O30 S9 1.479440 1_545
O30 Sr5 2.449972 1_544
O31 S10 1.479440 1_655
O31 Sr3 2.449958 1_655
O32 S11 1.479440 1_555
O32 Sr4 2.449972 1_555
O33 S9 1.449008 1_555
O34 S10 1.449008 1_555
O35 S11 1.449008 1_555
O36 S12 1.479770 1_555
O36 Sr5 2.444066 1_545
O37 S13 1.479770 1_555
O37 Sr3 2.444079 1_655
O38 S14 1.479770 1_555
O38 Sr4 2.444066 1_555
O39 S12 1.481469 1_555
O39 Sr11 2.446457 1_555
O40 S13 1.481469 1_555
O40 Sr9 2.446443 1_555
O41 S14 1.481469 1_555
O41 Sr10 2.446457 1_554
O42 S12 1.447920 1_555
O43 S13 1.447920 1_555
O44 S14 1.447920 1_555
O45 S15 1.482193 1_555
O45 Sr7 2.442524 1_555
O46 S16 1.482193 1_555
O46 Sr8 2.442510 1_555
O47 S17 1.482193 1_555
O47 Sr6 2.442510 1_554
O48 S15 1.480738 1_555
O48 Sr10 2.445924 1_555
O49 S16 1.480738 1_555
O49 Sr11 2.445938 1_555
O50 S17 1.480738 1_555
O50 Sr9 2.445938 1_555
O51 S15 1.447097 1_555
O52 S16 1.447097 1_555
O53 S17 1.447098 1_555
O54 S18 1.479981 1_655
O54 Sr0 2.438435 1_645
O55 S19 1.479981 1_555
O55 Sr1 2.438435 1_665
O56 S20 1.479981 1_545
O56 Sr2 2.438435 1_444
O57 S18 1.482263 1_655
O57 Sr2 2.448346 1_545
O58 S19 1.482263 1_555
O58 Sr0 2.448360 1_655
O59 S20 1.482262 1_545
O59 Sr1 2.448346 1_555
O60 S18 1.447851 1_555
O61 S19 1.447851 1_555
O62 S20 1.447851 1_555
O63 S21 1.481521 1_455
O63 Sr6 2.440367 1_455
O64 S22 1.481521 1_555
O64 Sr7 2.440367 1_555
O65 S23 1.481521 1_565
O65 Sr8 2.440367 1_565
O66 S21 1.480140 1_455
O66 Sr3 2.456432 1_555
O67 S22 1.480140 1_555
O67 Sr4 2.456432 1_555
O68 S23 1.480140 1_565
O68 Sr5 2.456432 1_554
O69 S21 1.447611 1_555
O70 S22 1.447611 1_555
O71 S23 1.447611 1_555
O72 O79 1.233820 1_555
O72 Sr9 3.141833 1_555
O73 O80 1.233829 1_556
O73 Sr10 3.141833 1_555
O74 O78 1.233829 1_555
O74 Sr11 3.141833 1_555
O75 Sr3 3.122007 1_555
O76 Sr4 3.122007 1_555
O77 Sr5 3.122007 1_554
O78 Sr0 3.137474 1_545
O79 Sr1 3.137474 1_655
O80 Sr2 3.137474 1_554
O81 O94 1.235052 1_555
O81 Sr3 3.124478 1_555
O82 O95 1.235063 1_555
O82 Sr4 3.124478 1_555
O83 O93 1.235063 1_556
O83 Sr5 3.124478 1_555
O84 O87 1.234645 1_555
O84 Sr9 3.138163 1_555
O85 O88 1.234645 1_554
O85 Sr10 3.138163 1_554
O86 O89 1.234645 1_555
O86 Sr11 3.138163 1_555
O87 Sr1 3.151269 1_665
O88 Sr2 3.151272 1_445
O89 Sr0 3.151272 1_645
O90 Sr6 3.162496 1_555
O91 Sr7 3.162496 1_555
O92 O99 1.235214 1_555
O92 Sr8 3.162496 1_555
O93 Sr6 3.204276 1_454
O94 Sr7 3.204276 1_555
O95 Sr8 3.204276 1_565
O96 Sr10 3.163678 1_555
O97 Sr11 3.163680 1_565
O98 Sr9 3.163680 1_455
O99 Sr4 3.163721 1_555
O100 O90 1.235203 1_554
O100 Sr5 3.163719 1_544
O101 O91 1.235214 1_555
O101 Sr3 3.163719 1_655
O102 O98 1.235043 1_555
O102 Sr1 3.181978 1_565
O103 O96 1.235033 1_554
O103 Sr2 3.181976 1_444
O104 O97 1.235043 1_555
O104 Sr0 3.181976 1_655
O105 O118 1.235000 1_555
O105 Sr4 3.159252 1_555
O106 O119 1.235011 1_556
O106 Sr5 3.159254 1_545
O107 O117 1.235011 1_555
O107 Sr3 3.159254 1_655
O108 O111 1.228133 1_554
O108 Sr10 3.123335 1_554
O109 O112 1.228133 1_555
O109 Sr11 3.123333 1_565
O110 O113 1.228133 1_555
O110 Sr9 3.123333 1_455
O111 Sr2 3.099137 1_555
O112 Sr0 3.099139 1_555
O113 Sr1 3.099137 1_555
O114 O75 1.235268 1_555
O114 Sr7 3.204946 1_555
O115 O76 1.235268 1_555
O115 Sr8 3.204948 1_565
O116 O77 1.235268 1_556
O116 Sr6 3.204948 1_455
O117 Sr7 3.163000 1_555
O118 Sr8 3.162997 1_555
O119 Sr6 3.162998 1_554
