# generated using pymatgen
data_Mg6TiMo
_symmetry_space_group_name_H-M   'P 1'
_cell_length_a   4.97674600
_cell_length_b   5.78214800
_cell_length_c   11.08833600
_cell_angle_alpha   90.00000000
_cell_angle_beta   90.00000000
_cell_angle_gamma   90.00000000
_symmetry_Int_Tables_number   1
_chemical_formula_structural   Mg6TiMo
_chemical_formula_sum   'Mg12 Ti2 Mo2'
_cell_volume   319.08108288
_cell_formula_units_Z   2
loop_
 _symmetry_equiv_pos_site_id
 _symmetry_equiv_pos_as_xyz
  1  'x, y, z'
loop_
 _atom_site_type_symbol
 _atom_site_label
 _atom_site_symmetry_multiplicity
 _atom_site_fract_x
 _atom_site_fract_y
 _atom_site_fract_z
 _atom_site_occupancy
  Mg  Mg0  1  0.50000000  0.24935900  0.42323500  1
  Mg  Mg1  1  0.50000000  0.75064100  0.42323500  1
  Mg  Mg2  1  0.00000000  0.74319300  0.08597700  1
  Mg  Mg3  1  0.00000000  0.25680700  0.08597700  1
  Mg  Mg4  1  0.00000000  0.00000000  0.32106300  1
  Mg  Mg5  1  0.00000000  0.50000000  0.31626300  1
  Mg  Mg6  1  0.50000000  0.74935900  0.92323500  1
  Mg  Mg7  1  0.50000000  0.25064100  0.92323500  1
  Mg  Mg8  1  0.00000000  0.24319300  0.58597700  1
  Mg  Mg9  1  0.00000000  0.75680700  0.58597700  1
  Mg  Mg10  1  0.00000000  0.50000000  0.82106300  1
  Mg  Mg11  1  0.00000000  0.00000000  0.81626300  1
  Ti  Ti0  1  0.50000000  0.00000000  0.17076500  1
  Ti  Ti1  1  0.50000000  0.50000000  0.67076500  1
  Mo  Mo0  1  0.50000000  0.50000000  0.17348000  1
  Mo  Mo1  1  0.50000000  0.00000000  0.67348000  1
loop_
_geom_bond_atom_site_label_1
_geom_bond_atom_site_label_2
_geom_bond_distance
_geom_bond_site_symmetry_2
Mg0 Mg1 2.883661 1_545
Mg0 Mg1 2.898487 1_555
Mg0 Mg8 3.074025 1_655
Mg0 Mg8 3.074025 1_555
Mg0 Mg4 3.091016 1_655
Mg0 Mg4 3.091016 1_555
Mg0 Ti1 3.103814 1_555
Mg0 Mg5 3.114360 1_655
Mg0 Mg5 3.114360 1_555
Mg0 Mo0 3.125652 1_555
Mg0 Mo1 3.127042 1_555
Mg0 Ti0 3.148955 1_555
Mg1 Mg9 3.074025 1_655
Mg1 Mg9 3.074025 1_555
Mg1 Mg4 3.091016 1_565
Mg1 Mg4 3.091016 1_665
Mg1 Ti1 3.103814 1_555
Mg1 Mg5 3.114360 1_655
Mg1 Mg5 3.114360 1_555
Mg1 Mo0 3.125652 1_555
Mg1 Mo1 3.127042 1_565
Mg1 Ti0 3.148955 1_565
Mg2 Mg3 2.812356 1_555
Mg2 Mg5 2.915071 1_555
Mg2 Mg3 2.969792 1_565
Mg2 Mg4 2.999978 1_565
Mg2 Mo0 3.018401 1_455
Mg2 Mo0 3.018401 1_555
Mg2 Ti0 3.046443 1_565
Mg2 Ti0 3.046443 1_465
Mg2 Mg6 3.074025 1_554
Mg2 Mg6 3.074025 1_454
Mg3 Mg5 2.915071 1_555
Mg3 Mg4 2.999978 1_555
Mg3 Mo0 3.018401 1_455
Mg3 Mo0 3.018401 1_555
Mg3 Ti0 3.046443 1_455
Mg3 Ti0 3.046443 1_555
Mg3 Mg7 3.074025 1_554
Mg3 Mg7 3.074025 1_454
Mg4 Mg5 2.891564 1_545
Mg4 Mg5 2.891564 1_555
Mg4 Ti0 2.994896 1_555
Mg4 Ti0 2.994896 1_455
Mg4 Mg9 3.256682 1_545
Mg4 Mg8 3.256682 1_555
Mg5 Mo0 2.949340 1_555
Mg5 Mo0 2.949340 1_455
Mg5 Mg9 3.339024 1_555
Mg5 Mg8 3.339024 1_555
Mg6 Mg7 2.883661 1_555
Mg6 Mg7 2.898487 1_565
Mg6 Ti0 3.103814 1_566
Mg6 Mo1 3.125652 1_565
Mg6 Mo0 3.127042 1_556
Mg6 Ti1 3.148955 1_555
Mg7 Ti0 3.103814 1_556
Mg7 Mo1 3.125652 1_555
Mg7 Mo0 3.127042 1_556
Mg7 Ti1 3.148955 1_555
Mg8 Mg9 2.812356 1_545
Mg8 Mg9 2.969792 1_555
Mg8 Mo1 3.018401 1_455
Mg8 Mo1 3.018401 1_555
Mg8 Ti1 3.046443 1_555
Mg8 Ti1 3.046443 1_455
Mg9 Mo1 3.018401 1_465
Mg9 Mo1 3.018401 1_565
Mg9 Ti1 3.046443 1_455
Mg9 Ti1 3.046443 1_555
Mg10 Mg11 2.891564 1_555
Mg10 Mg11 2.891564 1_565
Mg10 Ti1 2.994896 1_455
Mg10 Ti1 2.994896 1_555
Mg10 Mg9 2.999978 1_555
Mg10 Mg8 2.999978 1_555
Mg10 Mg6 3.091016 1_455
Mg10 Mg6 3.091016 1_555
Mg10 Mg7 3.091016 1_455
Mg10 Mg7 3.091016 1_555
Mg10 Mg3 3.256682 1_556
Mg10 Mg2 3.256682 1_556
Mg11 Mg8 2.915071 1_555
Mg11 Mg9 2.915071 1_545
Mg11 Mo1 2.949340 1_455
Mg11 Mo1 2.949340 1_555
Mg11 Mg6 3.114360 1_445
Mg11 Mg7 3.114360 1_455
Mg11 Mg6 3.114360 1_545
Mg11 Mg7 3.114360 1_555
Mg11 Mg3 3.339024 1_556
Mg11 Mg2 3.339024 1_546
Mo0 Ti0 2.891231 1_565
Mo0 Ti0 2.891231 1_555
Mo1 Ti1 2.891231 1_555
Mo1 Ti1 2.891231 1_545
