# generated using pymatgen
data_Cs2BrCl
_symmetry_space_group_name_H-M   'P 1'
_cell_length_a   6.10094600
_cell_length_b   6.10094600
_cell_length_c   4.32046800
_cell_angle_alpha   90.00000000
_cell_angle_beta   90.00000000
_cell_angle_gamma   90.00000000
_symmetry_Int_Tables_number   1
_chemical_formula_structural   Cs2BrCl
_chemical_formula_sum   'Cs2 Br1 Cl1'
_cell_volume   160.81448153
_cell_formula_units_Z   1
loop_
 _symmetry_equiv_pos_site_id
 _symmetry_equiv_pos_as_xyz
  1  'x, y, z'
loop_
 _atom_site_type_symbol
 _atom_site_label
 _atom_site_symmetry_multiplicity
 _atom_site_fract_x
 _atom_site_fract_y
 _atom_site_fract_z
 _atom_site_occupancy
  Cs  Cs0  1  0.50000000  0.00000000  0.00000000  1
  Cs  Cs1  1  0.00000000  0.50000000  0.00000000  1
  Br  Br0  1  0.00000000  0.00000000  0.50000000  1
  Cl  Cl0  1  0.50000000  0.50000000  0.50000000  1
loop_
_geom_bond_atom_site_label_1
_geom_bond_atom_site_label_2
_geom_bond_distance
_geom_bond_site_symmetry_2
Br0 Cs1 3.737913 1_555
Br0 Cs1 3.737913 1_545
Br0 Cs0 3.737913 1_556
Br0 Cs0 3.737913 1_455
Br0 Cs1 3.737913 1_546
Br0 Cs0 3.737913 1_456
Br0 Cs1 3.737913 1_556
Br0 Cs0 3.737913 1_555
Cl0 Cs1 3.737913 1_656
Cl0 Cs1 3.737913 1_555
Cl0 Cs0 3.737913 1_556
Cl0 Cs1 3.737913 1_655
Cl0 Cs0 3.737913 1_565
Cl0 Cs0 3.737913 1_566
Cl0 Cs1 3.737913 1_556
Cl0 Cs0 3.737913 1_555
