# generated using pymatgen
data_Sm2Fe15Si2C
_symmetry_space_group_name_H-M   'P 1'
_cell_length_a   6.47104574
_cell_length_b   6.47104574
_cell_length_c   6.47450614
_cell_angle_alpha   82.56414158
_cell_angle_beta   82.56414158
_cell_angle_gamma   82.28059775
_symmetry_Int_Tables_number   1
_chemical_formula_structural   Sm2Fe15Si2C
_chemical_formula_sum   'Sm2 Fe15 Si2 C1'
_cell_volume   264.66280468
_cell_formula_units_Z   1
loop_
 _symmetry_equiv_pos_site_id
 _symmetry_equiv_pos_as_xyz
  1  'x, y, z'
loop_
 _atom_site_type_symbol
 _atom_site_label
 _atom_site_symmetry_multiplicity
 _atom_site_fract_x
 _atom_site_fract_y
 _atom_site_fract_z
 _atom_site_occupancy
  Sm  Sm0  1  0.34095400  0.34095400  0.35642900  1
  Sm  Sm1  1  0.65904600  0.65904600  0.64357100  1
  Fe  Fe0  1  0.65597400  0.65597400  0.14736100  1
  Fe  Fe1  1  0.66147100  0.15168400  0.65883800  1
  Fe  Fe2  1  0.15168400  0.66147100  0.65883800  1
  Fe  Fe3  1  0.34402600  0.34402600  0.85263900  1
  Fe  Fe4  1  0.33852900  0.84831600  0.34116200  1
  Fe  Fe5  1  0.84831600  0.33852900  0.34116200  1
  Fe  Fe6  1  0.71780000  0.28220000  0.00000000  1
  Fe  Fe7  1  0.28884000  0.00000600  0.71187000  1
  Fe  Fe8  1  0.99999400  0.71116000  0.28813000  1
  Fe  Fe9  1  0.71116000  0.99999400  0.28813000  1
  Fe  Fe10  1  0.00000600  0.28884000  0.71187000  1
  Fe  Fe11  1  0.28220000  0.71780000  0.00000000  1
  Fe  Fe12  1  0.00000000  0.00000000  0.50000000  1
  Fe  Fe13  1  0.00000000  0.50000000  0.00000000  1
  Fe  Fe14  1  0.50000000  0.00000000  0.00000000  1
  Si  Si0  1  0.10149200  0.10149200  0.10113100  1
  Si  Si1  1  0.89850800  0.89850800  0.89886900  1
  C  C0  1  0.50000000  0.50000000  0.00000000  1
loop_
_geom_bond_atom_site_label_1
_geom_bond_atom_site_label_2
_geom_bond_distance
_geom_bond_site_symmetry_2
Fe0 Fe14 2.445581 1_565
Fe0 Fe13 2.445581 1_655
Fe0 Fe5 2.528550 1_555
Fe0 Fe4 2.528550 1_555
Fe0 Fe9 2.595572 1_555
Fe0 Fe8 2.595572 1_555
Fe0 Si1 2.620949 1_554
Fe1 Fe12 2.433199 1_655
Fe1 Fe14 2.459927 1_556
Fe1 Fe5 2.501908 1_555
Fe1 Fe3 2.528550 1_555
Fe1 Fe6 2.549349 1_556
Fe1 Fe10 2.549623 1_655
Fe1 Si1 2.595172 1_545
Fe1 Fe9 2.674490 1_545
Fe1 Fe7 2.688861 1_555
Fe1 Sm0 3.063238 1_555
Fe1 Sm1 3.204375 1_545
Fe1 Sm1 3.269822 1_555
Fe2 Fe4 2.501908 1_555
Fe2 Fe3 2.528550 1_555
Fe2 Fe7 2.549623 1_565
Fe2 Si1 2.595172 1_455
Fe2 Fe8 2.674490 1_455
Fe2 Sm0 3.063238 1_555
Fe2 Sm1 3.204375 1_455
Fe2 Sm1 3.269822 1_555
Fe3 Fe7 2.595572 1_555
Fe3 Si0 2.620949 1_556
Fe4 Fe8 2.549623 1_455
Fe4 Si0 2.595172 1_565
Fe4 Fe7 2.674490 1_565
Fe4 Fe9 2.688861 1_555
Fe4 Sm1 3.063238 1_555
Fe4 Sm0 3.204375 1_565
Fe4 Sm0 3.269822 1_555
Fe5 Fe6 2.549349 1_555
Fe5 Fe9 2.549623 1_545
Fe5 Si0 2.595172 1_655
Fe5 Fe8 2.688861 1_555
Fe5 Sm1 3.063238 1_555
Fe5 Sm0 3.204375 1_655
Fe5 Sm0 3.269822 1_555
Fe6 Fe9 2.436265 1_545
Fe6 Si0 2.720940 1_655
Fe6 Si1 2.720940 1_544
Fe7 Si0 2.770648 1_556
Fe7 Si1 2.779478 1_445
Fe7 Sm0 2.993705 1_555
Fe7 Sm1 3.059573 1_545
Fe8 Fe9 2.459326 1_555
Fe8 Si1 2.770648 1_554
Fe8 Si0 2.779478 1_665
Fe8 Sm1 2.993705 1_555
Fe8 Sm0 3.059573 1_655
Fe9 Si1 2.770648 1_554
Fe9 Si0 2.779478 1_665
Fe9 Sm1 2.993705 1_555
Fe9 Sm0 3.059573 1_565
Fe10 Fe6 2.436265 1_456
Fe10 Fe13 2.450909 1_556
Fe10 Fe12 2.457416 1_555
Fe10 Fe7 2.459326 1_555
Fe10 Fe3 2.595572 1_555
Fe10 Fe5 2.674490 1_455
Fe10 Fe2 2.688861 1_555
Fe10 Si0 2.770648 1_556
Fe10 Si1 2.779478 1_445
Fe10 Sm0 2.993705 1_555
Fe10 Sm1 3.059573 1_455
Fe11 Fe7 2.436265 1_564
Fe11 Fe8 2.436265 1_455
Fe11 Fe13 2.452051 1_555
Fe11 Fe14 2.452051 1_565
Fe11 Fe4 2.549349 1_555
Fe11 Fe2 2.549349 1_554
Fe11 Si0 2.720940 1_565
Fe11 Si1 2.720940 1_454
Fe12 Fe5 2.433199 1_455
Fe12 Fe4 2.433199 1_545
Fe12 Fe2 2.433199 1_545
Fe12 Fe7 2.457416 1_555
Fe12 Fe8 2.457416 1_445
Fe12 Fe9 2.457416 1_445
Fe12 Si1 2.601874 1_445
Fe12 Si0 2.601874 1_555
Fe12 Sm1 3.293310 1_445
Fe12 Sm0 3.293310 1_555
Fe13 Fe3 2.445581 1_554
Fe13 Fe8 2.450909 1_455
Fe13 Fe6 2.452051 1_455
Fe13 Fe5 2.459927 1_455
Fe13 Fe2 2.459927 1_554
Fe13 Si0 2.594102 1_555
Fe13 Si1 2.594102 1_454
Fe13 Sm0 3.368339 1_555
Fe13 Sm1 3.368339 1_454
Fe14 Fe3 2.445581 1_554
Fe14 Fe9 2.450909 1_545
Fe14 Fe7 2.450909 1_554
Fe14 Fe6 2.452051 1_555
Fe14 Fe4 2.459927 1_545
Fe14 Si0 2.594102 1_555
Fe14 Si1 2.594102 1_544
Fe14 Sm1 3.368339 1_544
Fe14 Sm0 3.368339 1_555
Si0 Si1 2.553334 1_444
Si0 Sm0 3.083094 1_555
Si1 Sm1 3.083094 1_555
C0 Fe6 1.854495 1_555
C0 Fe11 1.854495 1_555
C0 Fe0 1.928702 1_555
C0 Fe3 1.928702 1_554
C0 Sm0 2.549320 1_555
C0 Sm1 2.549320 1_554
