# generated using pymatgen
data_Li3Fe2(SiO4)2
_symmetry_space_group_name_H-M   'P 1'
_cell_length_a   5.13206000
_cell_length_b   6.55998400
_cell_length_c   10.66472307
_cell_angle_alpha   89.16111440
_cell_angle_beta   90.00000000
_cell_angle_gamma   90.00000000
_symmetry_Int_Tables_number   1
_chemical_formula_structural   Li3Fe2(SiO4)2
_chemical_formula_sum   'Li6 Fe4 Si4 O16'
_cell_volume   359.00255276
_cell_formula_units_Z   2
loop_
 _symmetry_equiv_pos_site_id
 _symmetry_equiv_pos_as_xyz
  1  'x, y, z'
loop_
 _atom_site_type_symbol
 _atom_site_label
 _atom_site_symmetry_multiplicity
 _atom_site_fract_x
 _atom_site_fract_y
 _atom_site_fract_z
 _atom_site_occupancy
  Li  Li0  1  0.43010100  0.88390500  0.15645900  1
  Li  Li1  1  0.93664600  0.37642500  0.33665800  1
  Li  Li2  1  0.52730100  0.62640600  0.42373600  1
  Li  Li3  1  0.56989900  0.88390500  0.65645900  1
  Li  Li4  1  0.06335400  0.37642500  0.83665800  1
  Li  Li5  1  0.47269900  0.62640600  0.92373600  1
  Fe  Fe0  1  0.42712000  0.36924800  0.16035600  1
  Fe  Fe1  1  0.93690900  0.89075000  0.33709100  1
  Fe  Fe2  1  0.57288000  0.36924800  0.66035600  1
  Fe  Fe3  1  0.06309100  0.89075000  0.83709100  1
  Si  Si0  1  0.93180000  0.63198300  0.09382900  1
  Si  Si1  1  0.43920100  0.13529100  0.41169200  1
  Si  Si2  1  0.06820000  0.63198300  0.59382900  1
  Si  Si3  1  0.56079900  0.13529100  0.91169200  1
  O  O0  1  0.48485700  0.12444600  0.05863800  1
  O  O1  1  0.61039700  0.63459200  0.09275800  1
  O  O2  1  0.04434600  0.82997300  0.17287600  1
  O  O3  1  0.04043200  0.42746200  0.16319600  1
  O  O4  1  0.56332700  0.92918600  0.33979500  1
  O  O5  1  0.54371800  0.34997800  0.34594700  1
  O  O6  1  0.12113100  0.12237700  0.38624900  1
  O  O7  1  0.96219700  0.65156300  0.44482400  1
  O  O8  1  0.51514300  0.12444600  0.55863800  1
  O  O9  1  0.38960300  0.63459200  0.59275800  1
  O  O10  1  0.95565400  0.82997300  0.67287600  1
  O  O11  1  0.95956800  0.42746200  0.66319600  1
  O  O12  1  0.43667300  0.92918600  0.83979500  1
  O  O13  1  0.45628200  0.34997800  0.84594700  1
  O  O14  1  0.87886900  0.12237700  0.88624900  1
  O  O15  1  0.03780300  0.65156300  0.94482400  1
loop_
_geom_bond_atom_site_label_1
_geom_bond_atom_site_label_2
_geom_bond_distance
_geom_bond_site_symmetry_2
Li0 O0 1.899740 1_565
Li0 O1 2.006251 1_555
Li0 O2 2.018240 1_555
Li0 O4 2.096577 1_555
Li1 O3 1.949327 1_655
Li1 O6 1.981842 1_655
Li1 O5 2.026278 1_555
Li1 O7 2.160215 1_555
Li2 O9 1.937621 1_555
Li2 O5 2.006905 1_555
Li2 O4 2.174542 1_555
Li2 O7 2.249518 1_555
Li3 O8 1.899740 1_565
Li3 O9 2.006251 1_555
Li3 O10 2.018240 1_555
Li3 O12 2.096577 1_555
Li4 O11 1.949327 1_455
Li4 O14 1.981842 1_455
Li4 O13 2.026278 1_555
Li4 O15 2.160215 1_555
Li5 O1 1.937621 1_556
Li5 O13 2.006905 1_555
Li5 O12 2.174542 1_555
Li5 O15 2.249518 1_555
Fe0 O0 1.973447 1_555
Fe0 O3 2.021226 1_555
Fe0 O5 2.069845 1_555
Fe0 O1 2.097034 1_555
Fe1 O6 1.871046 1_665
Fe1 O2 1.884276 1_655
Fe1 O4 1.934024 1_555
Fe1 O7 1.935480 1_555
Fe2 O8 1.973447 1_555
Fe2 O11 2.021226 1_555
Fe2 O13 2.069845 1_555
Fe2 O9 2.097034 1_555
Fe3 O14 1.871046 1_465
Fe3 O10 1.884276 1_455
Fe3 O12 1.934024 1_555
Fe3 O15 1.935480 1_555
O0 Si3 1.615431 1_554
O1 Si0 1.649586 1_555
O2 Si0 1.662305 1_455
O3 Si0 1.621438 1_455
O4 Si1 1.688817 1_565
O5 Si1 1.653433 1_555
O6 Si1 1.657123 1_555
O7 Si2 1.682766 1_655
O8 Si1 1.615431 1_555
O9 Si2 1.649586 1_555
O10 Si2 1.662305 1_655
O11 Si2 1.621438 1_655
O12 Si3 1.688817 1_565
O13 Si3 1.653433 1_555
O14 Si3 1.657123 1_555
O15 Si0 1.682766 1_456
