# generated using pymatgen
data_Sm2Te5
_symmetry_space_group_name_H-M   'P 1'
_cell_length_a   22.23985800
_cell_length_b   22.23985800
_cell_length_c   4.41687000
_cell_angle_alpha   90.00000000
_cell_angle_beta   90.00000000
_cell_angle_gamma   168.60687204
_symmetry_Int_Tables_number   1
_chemical_formula_structural   Sm2Te5
_chemical_formula_sum   'Sm4 Te10'
_cell_volume   431.55203688
_cell_formula_units_Z   2
loop_
 _symmetry_equiv_pos_site_id
 _symmetry_equiv_pos_as_xyz
  1  'x, y, z'
loop_
 _atom_site_type_symbol
 _atom_site_label
 _atom_site_symmetry_multiplicity
 _atom_site_fract_x
 _atom_site_fract_y
 _atom_site_fract_z
 _atom_site_occupancy
  Sm  Sm0  1  0.09834600  0.90165400  0.75000000  1
  Sm  Sm1  1  0.90165400  0.09834600  0.25000000  1
  Sm  Sm2  1  0.30672400  0.69327600  0.75000000  1
  Sm  Sm3  1  0.69327600  0.30672400  0.25000000  1
  Te  Te0  1  0.95795900  0.04204100  0.75000000  1
  Te  Te1  1  0.04204100  0.95795900  0.25000000  1
  Te  Te2  1  0.54249100  0.45750900  0.75000000  1
  Te  Te3  1  0.45750900  0.54249100  0.25000000  1
  Te  Te4  1  0.74993000  0.25007000  0.75000000  1
  Te  Te5  1  0.25007000  0.74993000  0.25000000  1
  Te  Te6  1  0.17290800  0.82709200  0.75000000  1
  Te  Te7  1  0.82709200  0.17290800  0.25000000  1
  Te  Te8  1  0.37976800  0.62023200  0.75000000  1
  Te  Te9  1  0.62023200  0.37976800  0.25000000  1
loop_
_geom_bond_atom_site_label_1
_geom_bond_atom_site_label_2
_geom_bond_distance
_geom_bond_site_symmetry_2
Sm0 Te9 3.269359 1_566
Sm0 Te9 3.269359 1_456
Sm0 Te9 3.269359 1_565
Sm0 Te9 3.269359 1_455
Sm0 Te6 3.300118 1_555
Sm0 Te2 3.314316 1_565
Sm0 Te2 3.314316 1_455
Sm0 Te1 3.329799 1_555
Sm0 Te1 3.329799 1_556
Sm1 Te8 3.269359 1_544
Sm1 Te8 3.269359 1_545
Sm1 Te8 3.269359 1_655
Sm1 Te8 3.269359 1_654
Sm1 Te7 3.300118 1_555
Sm1 Te3 3.314316 1_655
Sm1 Te3 3.314316 1_545
Sm1 Te0 3.329799 1_554
Sm1 Te0 3.329799 1_555
Sm2 Te8 3.232931 1_555
Sm2 Te7 3.250086 1_456
Sm2 Te7 3.250086 1_455
Sm2 Te7 3.250086 1_566
Sm2 Te7 3.250086 1_565
Sm2 Te5 3.341375 1_556
Sm2 Te5 3.341375 1_555
Sm2 Te4 3.345430 1_565
Sm2 Te4 3.345430 1_455
Sm3 Te9 3.232931 1_555
Sm3 Te6 3.250086 1_544
Sm3 Te6 3.250086 1_545
Sm3 Te6 3.250086 1_654
Sm3 Te6 3.250086 1_655
Sm3 Te4 3.341375 1_555
Sm3 Te4 3.341375 1_554
Sm3 Te5 3.345430 1_655
Sm3 Te5 3.345430 1_545
Te0 Te3 3.122622 1_655
Te0 Te3 3.122622 1_656
Te0 Te3 3.122622 1_545
Te0 Te3 3.122622 1_546
Te1 Te2 3.122622 1_564
Te1 Te2 3.122622 1_565
Te1 Te2 3.122622 1_455
Te1 Te2 3.122622 1_454
Te4 Te5 3.122565 1_655
Te4 Te5 3.122565 1_656
Te4 Te5 3.122565 1_545
Te4 Te5 3.122565 1_546
