# generated using pymatgen
data_CaMg6V
_symmetry_space_group_name_H-M   'P 1'
_cell_length_a   5.19232300
_cell_length_b   6.50844800
_cell_length_c   11.25800200
_cell_angle_alpha   90.00000000
_cell_angle_beta   90.00000000
_cell_angle_gamma   90.00000000
_symmetry_Int_Tables_number   1
_chemical_formula_structural   CaMg6V
_chemical_formula_sum   'Ca2 Mg12 V2'
_cell_volume   380.45251705
_cell_formula_units_Z   2
loop_
 _symmetry_equiv_pos_site_id
 _symmetry_equiv_pos_as_xyz
  1  'x, y, z'
loop_
 _atom_site_type_symbol
 _atom_site_label
 _atom_site_symmetry_multiplicity
 _atom_site_fract_x
 _atom_site_fract_y
 _atom_site_fract_z
 _atom_site_occupancy
  Ca  Ca0  1  0.00000000  0.50000000  0.32913200  1
  Ca  Ca1  1  0.00000000  0.00000000  0.82913200  1
  Mg  Mg0  1  0.00000000  0.26014700  0.08463100  1
  Mg  Mg1  1  0.00000000  0.73985300  0.08463100  1
  Mg  Mg2  1  0.00000000  0.50000000  0.83544100  1
  Mg  Mg3  1  0.50000000  0.25542200  0.91866800  1
  Mg  Mg4  1  0.50000000  0.74457800  0.91866800  1
  Mg  Mg5  1  0.50000000  0.50000000  0.66600900  1
  Mg  Mg6  1  0.00000000  0.76014700  0.58463100  1
  Mg  Mg7  1  0.00000000  0.23985300  0.58463100  1
  Mg  Mg8  1  0.00000000  0.00000000  0.33544100  1
  Mg  Mg9  1  0.50000000  0.75542200  0.41866800  1
  Mg  Mg10  1  0.50000000  0.24457800  0.41866800  1
  Mg  Mg11  1  0.50000000  0.00000000  0.16600900  1
  V  V0  1  0.50000000  0.50000000  0.16281800  1
  V  V1  1  0.50000000  0.00000000  0.66281800  1
loop_
_geom_bond_atom_site_label_1
_geom_bond_atom_site_label_2
_geom_bond_distance
_geom_bond_site_symmetry_2
Ca0 Mg1 3.164444 1_555
Ca0 Mg0 3.164444 1_555
Ca0 V0 3.200906 1_555
Ca0 V0 3.200906 1_455
Ca0 Mg9 3.243407 1_455
Ca0 Mg9 3.243407 1_555
Ca0 Mg10 3.243407 1_455
Ca0 Mg10 3.243407 1_555
Ca0 Mg8 3.254999 1_565
Ca0 Mg8 3.254999 1_555
Ca0 Mg6 3.337738 1_555
Ca0 Mg7 3.337738 1_555
Ca1 Mg7 3.164444 1_555
Ca1 Mg6 3.164444 1_545
Ca1 V1 3.200906 1_455
Ca1 V1 3.200906 1_555
Ca1 Mg3 3.243407 1_455
Ca1 Mg3 3.243407 1_555
Ca1 Mg4 3.243407 1_545
Ca1 Mg4 3.243407 1_445
Ca1 Mg2 3.254999 1_545
Ca1 Mg2 3.254999 1_555
Ca1 Mg0 3.337738 1_556
Ca1 Mg1 3.337738 1_546
Mg0 Mg1 3.122142 1_555
Mg0 V0 3.154647 1_455
Mg0 V0 3.154647 1_555
Mg0 Mg3 3.198744 1_454
Mg0 Mg3 3.198744 1_554
Mg0 Mg2 3.210468 1_554
Mg0 Mg11 3.232052 1_455
Mg0 Mg11 3.232052 1_555
Mg0 Mg8 3.292354 1_555
Mg0 Mg1 3.386306 1_545
Mg1 V0 3.154647 1_455
Mg1 V0 3.154647 1_555
Mg1 Mg4 3.198744 1_554
Mg1 Mg4 3.198744 1_454
Mg1 Mg2 3.210468 1_554
Mg1 Mg11 3.232052 1_465
Mg1 Mg11 3.232052 1_565
Mg1 Mg8 3.292354 1_565
Mg2 Mg4 3.186200 1_455
Mg2 Mg4 3.186200 1_555
Mg2 Mg3 3.186200 1_455
Mg2 Mg3 3.186200 1_555
Mg2 Mg5 3.221565 1_555
Mg2 Mg5 3.221565 1_455
Mg2 Mg6 3.292354 1_555
Mg2 Mg7 3.292354 1_555
Mg3 V0 3.176308 1_556
Mg3 Mg4 3.183646 1_555
Mg3 Mg5 3.259557 1_555
Mg3 Mg4 3.324802 1_545
Mg3 V1 3.325665 1_555
Mg4 V0 3.176308 1_556
Mg4 Mg5 3.259557 1_555
Mg4 V1 3.325665 1_565
Mg5 Mg6 3.232052 1_555
Mg5 Mg6 3.232052 1_655
Mg5 Mg7 3.232052 1_655
Mg5 Mg7 3.232052 1_555
Mg5 Mg9 3.243051 1_555
Mg5 V1 3.254422 1_565
Mg5 V1 3.254422 1_555
Mg6 Mg7 3.122142 1_565
Mg6 V1 3.154647 1_565
Mg6 V1 3.154647 1_465
Mg6 Mg9 3.198744 1_455
Mg6 Mg9 3.198744 1_555
Mg6 Mg8 3.210468 1_565
Mg6 Mg7 3.386306 1_555
Mg7 V1 3.154647 1_455
Mg7 V1 3.154647 1_555
Mg7 Mg8 3.210468 1_555
Mg8 Mg9 3.186200 1_445
Mg8 Mg9 3.186200 1_545
Mg9 V1 3.176308 1_565
Mg9 V0 3.325665 1_555
Mg10 V1 3.176308 1_555
Mg10 Mg9 3.183646 1_545
Mg10 Mg8 3.186200 1_655
Mg10 Mg8 3.186200 1_555
Mg10 Mg7 3.198744 1_655
Mg10 Mg7 3.198744 1_555
Mg10 Mg5 3.243051 1_555
Mg10 Mg11 3.259557 1_555
Mg10 Mg9 3.324802 1_555
Mg10 V0 3.325665 1_555
Mg11 Mg8 3.221565 1_555
Mg11 Mg8 3.221565 1_655
Mg11 Mg3 3.243051 1_554
Mg11 Mg4 3.243051 1_544
Mg11 V0 3.254422 1_555
Mg11 V0 3.254422 1_545
Mg11 Mg9 3.259557 1_545
