# generated using pymatgen
data_Mg30NbFeO32
_symmetry_space_group_name_H-M   'P 1'
_cell_length_a   8.53698300
_cell_length_b   8.55647200
_cell_length_c   8.55647200
_cell_angle_alpha   90.00000000
_cell_angle_beta   90.00000000
_cell_angle_gamma   90.00000000
_symmetry_Int_Tables_number   1
_chemical_formula_structural   Mg30NbFeO32
_chemical_formula_sum   'Mg30 Nb1 Fe1 O32'
_cell_volume   625.01995550
_cell_formula_units_Z   1
loop_
 _symmetry_equiv_pos_site_id
 _symmetry_equiv_pos_as_xyz
  1  'x, y, z'
loop_
 _atom_site_type_symbol
 _atom_site_label
 _atom_site_symmetry_multiplicity
 _atom_site_fract_x
 _atom_site_fract_y
 _atom_site_fract_z
 _atom_site_occupancy
  Mg  Mg0  1  0.00000000  0.00000000  0.50000000  1
  Mg  Mg1  1  0.00000000  0.50000000  0.00000000  1
  Mg  Mg2  1  0.50000000  0.00000000  0.00000000  1
  Mg  Mg3  1  0.50000000  0.00000000  0.50000000  1
  Mg  Mg4  1  0.50000000  0.50000000  0.00000000  1
  Mg  Mg5  1  0.50000000  0.50000000  0.50000000  1
  Mg  Mg6  1  0.00000000  0.24777800  0.24777800  1
  Mg  Mg7  1  0.00000000  0.24777800  0.75222200  1
  Mg  Mg8  1  0.00000000  0.75222200  0.24777800  1
  Mg  Mg9  1  0.00000000  0.75222200  0.75222200  1
  Mg  Mg10  1  0.50000000  0.25005200  0.25005200  1
  Mg  Mg11  1  0.50000000  0.25005200  0.74994800  1
  Mg  Mg12  1  0.50000000  0.74994800  0.25005200  1
  Mg  Mg13  1  0.50000000  0.74994800  0.74994800  1
  Mg  Mg14  1  0.24984600  0.00000000  0.25088200  1
  Mg  Mg15  1  0.24984600  0.00000000  0.74911800  1
  Mg  Mg16  1  0.25155700  0.50000000  0.24822500  1
  Mg  Mg17  1  0.25155700  0.50000000  0.75177500  1
  Mg  Mg18  1  0.75015400  0.00000000  0.25088200  1
  Mg  Mg19  1  0.75015400  0.00000000  0.74911800  1
  Mg  Mg20  1  0.74844300  0.50000000  0.24822500  1
  Mg  Mg21  1  0.74844300  0.50000000  0.75177500  1
  Mg  Mg22  1  0.24984600  0.25088200  0.00000000  1
  Mg  Mg23  1  0.25155700  0.24822500  0.50000000  1
  Mg  Mg24  1  0.24984600  0.74911800  0.00000000  1
  Mg  Mg25  1  0.25155700  0.75177500  0.50000000  1
  Mg  Mg26  1  0.75015400  0.25088200  0.00000000  1
  Mg  Mg27  1  0.74844300  0.24822500  0.50000000  1
  Mg  Mg28  1  0.75015400  0.74911800  0.00000000  1
  Mg  Mg29  1  0.74844300  0.75177500  0.50000000  1
  Nb  Nb0  1  0.00000000  0.50000000  0.50000000  1
  Fe  Fe0  1  0.00000000  0.00000000  0.00000000  1
  O  O0  1  0.25192400  0.00000000  0.00000000  1
  O  O1  1  0.25197000  0.00000000  0.50000000  1
  O  O2  1  0.25197000  0.50000000  0.00000000  1
  O  O3  1  0.26227300  0.50000000  0.50000000  1
  O  O4  1  0.74807600  0.00000000  0.00000000  1
  O  O5  1  0.74803000  0.00000000  0.50000000  1
  O  O6  1  0.74803000  0.50000000  0.00000000  1
  O  O7  1  0.73772700  0.50000000  0.50000000  1
  O  O8  1  0.24972600  0.25003600  0.25003600  1
  O  O9  1  0.24972600  0.25003600  0.74996400  1
  O  O10  1  0.24972600  0.74996400  0.25003600  1
  O  O11  1  0.24972600  0.74996400  0.74996400  1
  O  O12  1  0.75027400  0.25003600  0.25003600  1
  O  O13  1  0.75027400  0.25003600  0.74996400  1
  O  O14  1  0.75027400  0.74996400  0.25003600  1
  O  O15  1  0.75027400  0.74996400  0.74996400  1
  O  O16  1  0.00000000  0.00000000  0.25469800  1
  O  O17  1  0.00000000  0.00000000  0.74530200  1
  O  O18  1  0.00000000  0.50000000  0.23859900  1
  O  O19  1  0.00000000  0.50000000  0.76140100  1
  O  O20  1  0.50000000  0.00000000  0.24970700  1
  O  O21  1  0.50000000  0.00000000  0.75029300  1
  O  O22  1  0.50000000  0.50000000  0.24873300  1
  O  O23  1  0.50000000  0.50000000  0.75126700  1
  O  O24  1  0.00000000  0.25469800  0.00000000  1
  O  O25  1  0.00000000  0.23859900  0.50000000  1
  O  O26  1  0.00000000  0.74530200  0.00000000  1
  O  O27  1  0.00000000  0.76140100  0.50000000  1
  O  O28  1  0.50000000  0.24970700  0.00000000  1
  O  O29  1  0.50000000  0.24873300  0.50000000  1
  O  O30  1  0.50000000  0.75029300  0.00000000  1
  O  O31  1  0.50000000  0.75126700  0.50000000  1
loop_
_geom_bond_atom_site_label_1
_geom_bond_atom_site_label_2
_geom_bond_distance
_geom_bond_site_symmetry_2
Mg0 O25 2.041566 1_555
Mg0 O27 2.041566 1_545
Mg0 O17 2.098920 1_555
Mg0 O16 2.098920 1_555
Mg0 O5 2.151064 1_455
Mg0 O1 2.151064 1_555
Mg1 O18 2.041566 1_555
Mg1 O19 2.041566 1_554
Mg1 O26 2.098920 1_555
Mg1 O24 2.098920 1_555
Mg1 O2 2.151064 1_555
Mg1 O6 2.151064 1_455
Mg2 O4 2.117821 1_555
Mg2 O0 2.117821 1_555
Mg2 O20 2.136611 1_555
Mg2 O21 2.136611 1_554
Mg2 O28 2.136611 1_555
Mg2 O30 2.136611 1_545
Mg3 O1 2.117428 1_555
Mg3 O5 2.117428 1_555
Mg3 O31 2.128277 1_545
Mg3 O29 2.128277 1_555
Mg3 O21 2.141625 1_555
Mg3 O20 2.141625 1_555
Mg4 O2 2.117428 1_555
Mg4 O6 2.117428 1_555
Mg4 O23 2.128277 1_554
Mg4 O22 2.128277 1_555
Mg4 O30 2.141625 1_555
Mg4 O28 2.141625 1_555
Mg5 O7 2.029471 1_555
Mg5 O3 2.029471 1_555
Mg5 O23 2.149959 1_555
Mg5 O22 2.149959 1_555
Mg5 O29 2.149959 1_555
Mg5 O31 2.149959 1_555
Mg6 O24 2.120932 1_555
Mg6 O16 2.120932 1_555
Mg6 O12 2.132082 1_455
Mg6 O8 2.132082 1_555
Mg6 O25 2.159559 1_555
Mg6 O18 2.159559 1_555
Mg7 O17 2.120932 1_555
Mg7 O24 2.120932 1_556
Mg7 O9 2.132082 1_555
Mg7 O13 2.132082 1_455
Mg7 O25 2.159559 1_555
Mg7 O19 2.159559 1_555
Mg8 O26 2.120932 1_555
Mg8 O16 2.120932 1_565
Mg8 O10 2.132082 1_555
Mg8 O14 2.132082 1_455
Mg8 O18 2.159559 1_555
Mg8 O27 2.159559 1_555
Mg9 O26 2.120932 1_556
Mg9 O17 2.120932 1_565
Mg9 O11 2.132082 1_555
Mg9 O15 2.132082 1_455
Mg9 O19 2.159559 1_555
Mg9 O27 2.159559 1_555
Mg10 O8 2.136585 1_555
Mg10 O12 2.136585 1_555
Mg10 O29 2.138703 1_555
Mg10 O22 2.138703 1_555
Mg10 O20 2.139565 1_555
Mg10 O28 2.139565 1_555
Mg11 O9 2.136585 1_555
Mg11 O13 2.136585 1_555
Mg11 O29 2.138703 1_555
Mg11 O23 2.138703 1_555
Mg11 O21 2.139565 1_555
Mg11 O28 2.139565 1_556
Mg12 O14 2.136585 1_555
Mg12 O10 2.136585 1_555
Mg12 O22 2.138703 1_555
Mg12 O31 2.138703 1_555
Mg12 O30 2.139565 1_555
Mg12 O20 2.139565 1_565
Mg13 O11 2.136585 1_555
Mg13 O15 2.136585 1_555
Mg13 O23 2.138703 1_555
Mg13 O31 2.138703 1_555
Mg13 O30 2.139565 1_556
Mg13 O21 2.139565 1_565
Mg14 O1 2.131648 1_555
Mg14 O16 2.133181 1_555
Mg14 O20 2.135584 1_555
Mg14 O8 2.139439 1_555
Mg14 O10 2.139439 1_545
Mg14 O0 2.146738 1_555
Mg15 O1 2.131648 1_555
Mg15 O17 2.133181 1_555
Mg15 O21 2.135584 1_555
Mg15 O9 2.139439 1_555
Mg15 O11 2.139439 1_545
Mg15 O0 2.146738 1_556
Mg16 O22 2.120958 1_555
Mg16 O2 2.123933 1_555
Mg16 O10 2.138923 1_555
Mg16 O8 2.138923 1_555
Mg16 O18 2.149117 1_555
Mg16 O3 2.156247 1_555
Mg17 O23 2.120958 1_555
Mg17 O2 2.123933 1_556
Mg17 O11 2.138923 1_555
Mg17 O9 2.138923 1_555
Mg17 O19 2.149117 1_555
Mg17 O3 2.156247 1_555
Mg18 O5 2.131648 1_555
Mg18 O16 2.133181 1_655
Mg18 O20 2.135584 1_555
Mg18 O12 2.139439 1_555
Mg18 O14 2.139439 1_545
Mg18 O4 2.146738 1_555
Mg19 O5 2.131648 1_555
Mg19 O17 2.133181 1_655
Mg19 O21 2.135584 1_555
Mg19 O13 2.139439 1_555
Mg19 O15 2.139439 1_545
Mg19 O4 2.146738 1_556
Mg20 O22 2.120958 1_555
Mg20 O6 2.123933 1_555
Mg20 O14 2.138923 1_555
Mg20 O12 2.138923 1_555
Mg20 O18 2.149117 1_655
Mg20 O7 2.156247 1_555
Mg21 O23 2.120958 1_555
Mg21 O6 2.123933 1_556
Mg21 O15 2.138923 1_555
Mg21 O13 2.138923 1_555
Mg21 O19 2.149117 1_655
Mg21 O7 2.156247 1_555
Mg22 O2 2.131648 1_555
Mg22 O24 2.133181 1_555
Mg22 O28 2.135584 1_555
Mg22 O8 2.139439 1_555
Mg22 O9 2.139439 1_554
Mg22 O0 2.146738 1_555
Mg23 O29 2.120958 1_555
Mg23 O1 2.123933 1_555
Mg23 O9 2.138923 1_555
Mg23 O8 2.138923 1_555
Mg23 O25 2.149117 1_555
Mg23 O3 2.156247 1_555
Mg24 O2 2.131648 1_555
Mg24 O26 2.133181 1_555
Mg24 O30 2.135584 1_555
Mg24 O10 2.139439 1_555
Mg24 O11 2.139439 1_554
Mg24 O0 2.146738 1_565
Mg25 O31 2.120958 1_555
Mg25 O1 2.123933 1_565
Mg25 O11 2.138923 1_555
Mg25 O10 2.138923 1_555
Mg25 O27 2.149117 1_555
Mg25 O3 2.156247 1_555
Mg26 O6 2.131648 1_555
Mg26 O24 2.133181 1_655
Mg26 O28 2.135584 1_555
Mg26 O12 2.139439 1_555
Mg26 O13 2.139439 1_554
Mg26 O4 2.146738 1_555
Mg27 O29 2.120958 1_555
Mg27 O5 2.123933 1_555
Mg27 O13 2.138923 1_555
Mg27 O12 2.138923 1_555
Mg27 O25 2.149117 1_655
Mg27 O7 2.156247 1_555
Mg28 O6 2.131648 1_555
Mg28 O26 2.133181 1_655
Mg28 O30 2.135584 1_555
Mg28 O14 2.139439 1_555
Mg28 O15 2.139439 1_554
Mg28 O4 2.146738 1_565
Mg29 O31 2.120958 1_555
Mg29 O5 2.123933 1_565
Mg29 O15 2.138923 1_555
Mg29 O14 2.138923 1_555
Mg29 O27 2.149117 1_655
Mg29 O7 2.156247 1_555
Nb0 O27 2.236670 1_555
Nb0 O25 2.236670 1_555
Nb0 O18 2.236670 1_555
Nb0 O19 2.236670 1_555
Nb0 O3 2.239020 1_555
Nb0 O7 2.239020 1_455
Fe0 O0 2.150671 1_555
Fe0 O4 2.150671 1_455
Fe0 O24 2.179316 1_555
Fe0 O16 2.179316 1_555
Fe0 O17 2.179316 1_554
Fe0 O26 2.179316 1_545
