# generated using pymatgen
data_Mg149Tc
_symmetry_space_group_name_H-M   'P 1'
_cell_length_a   15.92058541
_cell_length_b   15.92059068
_cell_length_c   15.63321489
_cell_angle_alpha   90.00000000
_cell_angle_beta   90.00000000
_cell_angle_gamma   120.00001296
_symmetry_Int_Tables_number   1
_chemical_formula_structural   Mg149Tc
_chemical_formula_sum   'Mg149 Tc1'
_cell_volume   3431.60334301
_cell_formula_units_Z   1
loop_
 _symmetry_equiv_pos_site_id
 _symmetry_equiv_pos_as_xyz
  1  'x, y, z'
loop_
 _atom_site_type_symbol
 _atom_site_label
 _atom_site_symmetry_multiplicity
 _atom_site_fract_x
 _atom_site_fract_y
 _atom_site_fract_z
 _atom_site_occupancy
  Mg  Mg0  1  0.39716599  0.00044701  -0.00000000  1
  Mg  Mg1  1  0.60328101  0.00044701  -0.00000000  1
  Mg  Mg2  1  0.18977088  0.00148160  -0.00000000  1
  Mg  Mg3  1  0.81171172  0.00148160  -0.00000000  1
  Mg  Mg4  1  0.18977088  0.18828928  -0.00000000  1
  Mg  Mg5  1  0.99851840  0.18828928  -0.00000000  1
  Mg  Mg6  1  0.39821981  0.19910991  -0.00000000  1
  Mg  Mg7  1  0.80089009  0.19910991  -0.00000000  1
  Mg  Mg8  1  0.59971961  0.19944021  -0.00000000  1
  Mg  Mg9  1  0.39716599  0.39671899  -0.00000000  1
  Mg  Mg10  1  0.99955299  0.39671899  -0.00000000  1
  Mg  Mg11  1  0.19845837  0.39691573  -0.00000000  1
  Mg  Mg12  1  0.59971961  0.40028039  -0.00000000  1
  Mg  Mg13  1  0.80056079  0.40028039  -0.00000000  1
  Mg  Mg14  1  0.40020592  0.59979408  -0.00000000  1
  Mg  Mg15  1  0.19958917  0.59979408  -0.00000000  1
  Mg  Mg16  1  0.80089009  0.60178019  -0.00000000  1
  Mg  Mg17  1  0.99955299  0.60283401  -0.00000000  1
  Mg  Mg18  1  0.60328101  0.60283401  -0.00000000  1
  Mg  Mg19  1  0.40020592  0.80041183  -0.00000000  1
  Mg  Mg20  1  0.60308427  0.80154163  -0.00000000  1
  Mg  Mg21  1  0.19845837  0.80154263  -0.00000000  1
  Mg  Mg22  1  0.99851840  0.81022912  -0.00000000  1
  Mg  Mg23  1  0.81171172  0.81022912  -0.00000000  1
  Mg  Mg24  1  0.06314590  0.12629279  0.15677986  1
  Mg  Mg25  1  0.87370621  0.93685310  0.15677986  1
  Mg  Mg26  1  0.06314590  0.93685310  0.15677986  1
  Mg  Mg27  1  0.26492521  0.33116950  0.16555028  1
  Mg  Mg28  1  0.06624330  0.33116950  0.16555028  1
  Mg  Mg29  1  0.66883050  0.73507379  0.16555028  1
  Mg  Mg30  1  0.06624330  0.73507379  0.16555028  1
  Mg  Mg31  1  0.26492521  0.93375570  0.16555028  1
  Mg  Mg32  1  0.66883050  0.93375570  0.16555028  1
  Mg  Mg33  1  0.46670364  0.53329636  0.16601306  1
  Mg  Mg34  1  0.06659372  0.53329636  0.16601306  1
  Mg  Mg35  1  0.46670364  0.93340628  0.16601306  1
  Mg  Mg36  1  0.26646555  0.53293010  0.16632811  1
  Mg  Mg37  1  0.26646555  0.73353445  0.16632811  1
  Mg  Mg38  1  0.46706990  0.73353445  0.16632811  1
  Mg  Mg39  1  0.46709095  0.13365828  0.16676280  1
  Mg  Mg40  1  0.66656833  0.13365928  0.16676280  1
  Mg  Mg41  1  0.46709095  0.33343167  0.16676280  1
  Mg  Mg42  1  0.86634172  0.33343167  0.16676280  1
  Mg  Mg43  1  0.66656833  0.53290905  0.16676280  1
  Mg  Mg44  1  0.86634172  0.53290905  0.16676280  1
  Mg  Mg45  1  0.66666600  0.33333300  0.16668887  1
  Mg  Mg46  1  0.26883751  0.13441876  0.16688769  1
  Mg  Mg47  1  0.86558124  0.13441876  0.16688769  1
  Mg  Mg48  1  0.86558124  0.73116249  0.16688769  1
  Mg  Mg49  1  0.00036252  0.19899086  0.33075389  1
  Mg  Mg50  1  0.19862834  0.19899086  0.33075389  1
  Mg  Mg51  1  0.00036252  0.80137166  0.33075389  1
  Mg  Mg52  1  0.80100914  0.80137166  0.33075389  1
  Mg  Mg53  1  0.80100914  0.99963648  0.33075389  1
  Mg  Mg54  1  0.19862834  0.99963748  0.33075389  1
  Mg  Mg55  1  -0.00000000  0.00000000  0.33230334  1
  Mg  Mg56  1  0.39928364  0.39944920  0.33268440  1
  Mg  Mg57  1  0.00016655  0.39945020  0.33268440  1
  Mg  Mg58  1  0.60055080  0.60071636  0.33268440  1
  Mg  Mg59  1  0.00016655  0.60071636  0.33268440  1
  Mg  Mg60  1  0.39928364  0.99983445  0.33268440  1
  Mg  Mg61  1  0.60055080  0.99983445  0.33268440  1
  Mg  Mg62  1  0.20003064  0.40006128  0.33315865  1
  Mg  Mg63  1  0.20003064  0.79996936  0.33315865  1
  Mg  Mg64  1  0.59993872  0.79996936  0.33315865  1
  Mg  Mg65  1  0.59982426  0.19964752  0.33350329  1
  Mg  Mg66  1  0.80035248  0.40017674  0.33350329  1
  Mg  Mg67  1  0.59982426  0.40017674  0.33350329  1
  Mg  Mg68  1  0.39998668  0.60001332  0.33342413  1
  Mg  Mg69  1  0.20002564  0.60001332  0.33342413  1
  Mg  Mg70  1  0.39998668  0.79997436  0.33342413  1
  Mg  Mg71  1  0.80005320  0.19994580  0.33369058  1
  Mg  Mg72  1  0.39989260  0.19994680  0.33369058  1
  Mg  Mg73  1  0.80005320  0.60010740  0.33369058  1
  Mg  Mg74  1  0.26603404  0.13301702  0.50000000  1
  Mg  Mg75  1  0.86698298  0.13301702  0.50000000  1
  Mg  Mg76  1  0.06654568  0.13309136  0.50000000  1
  Mg  Mg77  1  0.46686393  0.13362664  0.50000000  1
  Mg  Mg78  1  0.66676271  0.13362664  0.50000000  1
  Mg  Mg79  1  0.26639159  0.33265552  0.50000000  1
  Mg  Mg80  1  0.06626493  0.33265652  0.50000000  1
  Mg  Mg81  1  0.86637336  0.33323729  0.50000000  1
  Mg  Mg82  1  0.46686393  0.33323729  0.50000000  1
  Mg  Mg83  1  0.66666600  0.33333300  0.50000000  1
  Mg  Mg84  1  0.26641617  0.53283235  0.50000000  1
  Mg  Mg85  1  0.06593347  0.53296674  0.50000000  1
  Mg  Mg86  1  0.46703326  0.53296674  0.50000000  1
  Mg  Mg87  1  0.66676271  0.53313607  0.50000000  1
  Mg  Mg88  1  0.86637336  0.53313607  0.50000000  1
  Mg  Mg89  1  0.26641617  0.73358383  0.50000000  1
  Mg  Mg90  1  0.46716665  0.73358383  0.50000000  1
  Mg  Mg91  1  0.66734448  0.73360841  0.50000000  1
  Mg  Mg92  1  0.06626493  0.73360841  0.50000000  1
  Mg  Mg93  1  0.86698298  0.73396596  0.50000000  1
  Mg  Mg94  1  0.06654568  0.93345332  0.50000000  1
  Mg  Mg95  1  0.86690764  0.93345432  0.50000000  1
  Mg  Mg96  1  0.46703326  0.93406653  0.50000000  1
  Mg  Mg97  1  0.26639159  0.93373507  0.50000000  1
  Mg  Mg98  1  0.66734448  0.93373507  0.50000000  1
  Mg  Mg99  1  0.80005320  0.19994580  0.66630942  1
  Mg  Mg100  1  0.39989260  0.19994680  0.66630942  1
  Mg  Mg101  1  0.80005320  0.60010740  0.66630942  1
  Mg  Mg102  1  0.39998668  0.60001332  0.66657587  1
  Mg  Mg103  1  0.20002564  0.60001332  0.66657587  1
  Mg  Mg104  1  0.39998668  0.79997436  0.66657587  1
  Mg  Mg105  1  0.59982426  0.19964752  0.66649671  1
  Mg  Mg106  1  0.80035248  0.40017674  0.66649671  1
  Mg  Mg107  1  0.59982426  0.40017674  0.66649671  1
  Mg  Mg108  1  0.20003064  0.40006128  0.66684035  1
  Mg  Mg109  1  0.20003064  0.79996936  0.66684035  1
  Mg  Mg110  1  0.59993872  0.79996936  0.66684035  1
  Mg  Mg111  1  0.39928364  0.39944920  0.66731560  1
  Mg  Mg112  1  0.00016655  0.39945020  0.66731560  1
  Mg  Mg113  1  0.60055080  0.60071636  0.66731560  1
  Mg  Mg114  1  0.00016655  0.60071636  0.66731560  1
  Mg  Mg115  1  0.39928364  0.99983445  0.66731560  1
  Mg  Mg116  1  0.60055080  0.99983445  0.66731560  1
  Mg  Mg117  1  -0.00000000  0.00000000  0.66769766  1
  Mg  Mg118  1  0.00036252  0.19899086  0.66924611  1
  Mg  Mg119  1  0.19862834  0.19899086  0.66924611  1
  Mg  Mg120  1  0.00036252  0.80137166  0.66924611  1
  Mg  Mg121  1  0.80100914  0.80137166  0.66924611  1
  Mg  Mg122  1  0.80100914  0.99963648  0.66924611  1
  Mg  Mg123  1  0.19862834  0.99963748  0.66924611  1
  Mg  Mg124  1  0.26883751  0.13441876  0.83311131  1
  Mg  Mg125  1  0.86558124  0.13441876  0.83311131  1
  Mg  Mg126  1  0.86558124  0.73116249  0.83311131  1
  Mg  Mg127  1  0.66666600  0.33333300  0.83331213  1
  Mg  Mg128  1  0.46709095  0.13365828  0.83323720  1
  Mg  Mg129  1  0.66656833  0.13365928  0.83323720  1
  Mg  Mg130  1  0.46709095  0.33343167  0.83323720  1
  Mg  Mg131  1  0.86634172  0.33343167  0.83323720  1
  Mg  Mg132  1  0.66656833  0.53290905  0.83323720  1
  Mg  Mg133  1  0.86634172  0.53290905  0.83323720  1
  Mg  Mg134  1  0.26646555  0.53293010  0.83367289  1
  Mg  Mg135  1  0.26646555  0.73353445  0.83367289  1
  Mg  Mg136  1  0.46706990  0.73353445  0.83367289  1
  Mg  Mg137  1  0.46670364  0.53329636  0.83398794  1
  Mg  Mg138  1  0.06659372  0.53329636  0.83398794  1
  Mg  Mg139  1  0.46670364  0.93340628  0.83398794  1
  Mg  Mg140  1  0.26492521  0.33116950  0.83444872  1
  Mg  Mg141  1  0.06624330  0.33116950  0.83444872  1
  Mg  Mg142  1  0.66883050  0.73507379  0.83444872  1
  Mg  Mg143  1  0.06624330  0.73507379  0.83444872  1
  Mg  Mg144  1  0.26492521  0.93375570  0.83444872  1
  Mg  Mg145  1  0.66883050  0.93375570  0.83444872  1
  Mg  Mg146  1  0.06314590  0.12629279  0.84322014  1
  Mg  Mg147  1  0.87370621  0.93685310  0.84322014  1
  Mg  Mg148  1  0.06314590  0.93685310  0.84322014  1
  Tc  Tc0  1  -0.00000000  0.00000000  -0.00000000  1
loop_
_geom_bond_atom_site_label_1
_geom_bond_atom_site_label_2
_geom_bond_distance
_geom_bond_site_symmetry_2
Mg0 Mg6 3.154475 1_555
Mg0 Mg21 3.165109 1_545
Mg0 Mg31 3.165854 1_545
Mg0 Mg144 3.165867 1_544
Mg0 Mg39 3.189482 1_555
Mg0 Mg128 3.189482 1_554
Mg0 Mg8 3.196807 1_555
Mg0 Mg139 3.206560 1_544
Mg0 Mg35 3.206573 1_545
Mg0 Mg19 3.209151 1_545
Mg0 Mg1 3.281472 1_555
Mg0 Mg2 3.310118 1_555
Mg1 Mg7 3.154474 1_555
Mg1 Mg20 3.165126 1_545
Mg1 Mg32 3.165855 1_545
Mg1 Mg145 3.165867 1_544
Mg1 Mg129 3.189490 1_554
Mg1 Mg40 3.189490 1_555
Mg1 Mg8 3.196816 1_555
Mg1 Mg139 3.206551 1_544
Mg1 Mg35 3.206564 1_545
Mg1 Mg19 3.209149 1_545
Mg1 Mg3 3.310134 1_555
Mg2 Mg4 2.974089 1_555
Mg2 Mg26 3.009274 1_545
Mg2 Tc0 3.009539 1_555
Mg2 Mg22 3.044851 1_445
Mg2 Mg46 3.194768 1_555
Mg2 Mg6 3.235935 1_555
Mg2 Mg31 3.253074 1_545
Mg2 Mg21 3.254506 1_545
Mg3 Mg5 2.974080 1_555
Mg3 Tc0 3.009523 1_655
Mg3 Mg47 3.194769 1_555
Mg3 Mg7 3.235944 1_555
Mg3 Mg32 3.253082 1_545
Mg4 Tc0 3.009539 1_555
Mg4 Mg5 3.044851 1_455
Mg4 Mg46 3.194768 1_555
Mg4 Mg6 3.235935 1_555
Mg4 Mg9 3.310118 1_555
Mg5 Tc0 3.009540 1_655
Mg5 Mg7 3.235935 1_555
Mg6 Mg9 3.154475 1_555
Mg6 Mg8 3.205369 1_555
Mg7 Mg8 3.205384 1_555
Mg10 Mg7 3.154474 1_555
Mg10 Mg11 3.165125 1_655
Mg10 Mg28 3.165847 1_655
Mg10 Mg141 3.165859 1_654
Mg10 Mg131 3.189481 1_554
Mg10 Mg42 3.189481 1_555
Mg10 Mg13 3.196799 1_555
Mg10 Mg138 3.206552 1_654
Mg10 Mg34 3.206564 1_655
Mg10 Mg15 3.209157 1_655
Mg10 Mg17 3.281473 1_555
Mg10 Mg5 3.310119 1_555
Mg11 Mg9 3.165109 1_555
Mg11 Mg27 3.165627 1_555
Mg11 Mg140 3.165639 1_554
Mg11 Mg28 3.165642 1_555
Mg11 Mg141 3.165655 1_554
Mg11 Mg134 3.205931 1_554
Mg11 Mg36 3.205944 1_555
Mg11 Mg14 3.220978 1_555
Mg11 Mg15 3.220979 1_555
Mg11 Mg4 3.254506 1_555
Mg11 Mg5 3.254513 1_455
Mg12 Mg130 3.184435 1_554
Mg12 Mg41 3.184435 1_555
Mg12 Mg43 3.184436 1_555
Mg12 Mg132 3.184436 1_554
Mg12 Mg127 3.193517 1_554
Mg12 Mg45 3.193530 1_555
Mg12 Mg9 3.196800 1_555
Mg12 Mg18 3.196801 1_555
Mg12 Mg8 3.197494 1_555
Mg12 Mg13 3.197509 1_555
Mg12 Mg6 3.205376 1_555
Mg12 Mg16 3.205376 1_555
Mg13 Mg44 3.184436 1_555
Mg13 Mg133 3.184436 1_554
Mg13 Mg131 3.184444 1_554
Mg13 Mg42 3.184444 1_555
Mg13 Mg45 3.193537 1_555
Mg13 Mg17 3.196799 1_555
Mg13 Mg8 3.197501 1_555
Mg13 Mg7 3.205377 1_555
Mg13 Mg16 3.205378 1_555
Mg14 Mg33 3.177751 1_555
Mg14 Mg36 3.187705 1_555
Mg14 Mg38 3.187705 1_555
Mg14 Mg15 3.193936 1_555
Mg14 Mg19 3.193953 1_555
Mg14 Mg18 3.209149 1_555
Mg14 Mg9 3.209150 1_555
Mg14 Mg20 3.220978 1_555
Mg15 Mg34 3.177751 1_555
Mg15 Mg36 3.187705 1_555
Mg15 Mg37 3.187705 1_555
Mg15 Mg19 3.193944 1_555
Mg15 Mg17 3.209166 1_455
Mg15 Mg21 3.220995 1_555
Mg16 Mg17 3.154474 1_555
Mg16 Mg18 3.154474 1_555
Mg16 Mg48 3.160545 1_555
Mg16 Mg43 3.198002 1_555
Mg16 Mg44 3.198010 1_555
Mg16 Mg23 3.235928 1_555
Mg16 Mg22 3.235935 1_555
Mg17 Mg21 3.165125 1_655
Mg17 Mg30 3.165846 1_655
Mg17 Mg44 3.189481 1_555
Mg17 Mg34 3.206573 1_655
Mg17 Mg22 3.310119 1_555
Mg18 Mg20 3.165110 1_555
Mg18 Mg29 3.165846 1_555
Mg18 Mg43 3.189490 1_555
Mg18 Mg33 3.206564 1_555
Mg18 Mg9 3.281472 1_555
Mg18 Mg23 3.310126 1_555
Mg19 Mg35 3.177743 1_555
Mg19 Mg37 3.187705 1_555
Mg19 Mg38 3.187713 1_555
Mg19 Mg21 3.220978 1_555
Mg19 Mg20 3.220986 1_555
Mg20 Mg32 3.165634 1_555
Mg20 Mg29 3.165635 1_555
Mg20 Mg38 3.205943 1_555
Mg20 Mg3 3.254521 1_565
Mg20 Mg23 3.254521 1_555
Mg21 Mg31 3.165627 1_555
Mg21 Mg30 3.165642 1_555
Mg21 Mg37 3.205952 1_555
Mg21 Mg22 3.254513 1_455
Mg22 Mg23 2.974072 1_555
Mg22 Mg26 3.009266 1_655
Mg22 Tc0 3.009540 1_665
Mg22 Mg48 3.194768 1_555
Mg22 Mg30 3.253075 1_655
Mg23 Mg25 3.009267 1_555
Mg23 Tc0 3.009531 1_665
Mg23 Mg3 3.044852 1_565
Mg23 Mg48 3.194761 1_555
Mg23 Mg29 3.253082 1_555
Mg24 Tc0 3.006546 1_555
Mg24 Mg5 3.009266 1_455
Mg24 Mg4 3.009274 1_555
Mg24 Mg25 3.015991 1_445
Mg24 Mg26 3.015992 1_545
Mg24 Mg47 3.215869 1_455
Mg24 Mg46 3.215885 1_555
Mg24 Mg27 3.240285 1_555
Mg24 Mg28 3.240286 1_555
Mg24 Mg55 3.249857 1_555
Mg24 Mg49 3.300410 1_555
Mg24 Mg50 3.300417 1_555
Mg25 Tc0 3.006554 1_665
Mg25 Mg3 3.009259 1_565
Mg25 Mg26 3.015991 1_655
Mg25 Mg48 3.215878 1_555
Mg25 Mg47 3.215878 1_565
Mg25 Mg32 3.240269 1_555
Mg25 Mg29 3.240277 1_555
Mg25 Mg55 3.249864 1_665
Mg25 Mg53 3.300402 1_555
Mg25 Mg52 3.300409 1_555
Mg26 Tc0 3.006547 1_565
Mg26 Mg48 3.215869 1_455
Mg26 Mg46 3.215885 1_565
Mg26 Mg31 3.240285 1_555
Mg26 Mg30 3.240286 1_555
Mg26 Mg55 3.249857 1_565
Mg26 Mg51 3.300409 1_555
Mg26 Mg54 3.300417 1_555
Mg27 Mg50 3.160920 1_555
Mg27 Mg28 3.163132 1_555
Mg27 Mg46 3.164060 1_555
Mg27 Mg9 3.165854 1_555
Mg27 Mg36 3.199980 1_555
Mg27 Mg41 3.200797 1_555
Mg27 Mg56 3.202961 1_555
Mg27 Mg62 3.204575 1_555
Mg27 Mg33 3.215216 1_555
Mg27 Mg4 3.253074 1_555
Mg28 Mg49 3.160920 1_555
Mg28 Mg47 3.164051 1_455
Mg28 Mg36 3.199994 1_555
Mg28 Mg42 3.200766 1_455
Mg28 Mg57 3.202953 1_555
Mg28 Mg62 3.204583 1_555
Mg28 Mg34 3.215201 1_555
Mg28 Mg5 3.253075 1_455
Mg29 Mg52 3.160920 1_555
Mg29 Mg32 3.163133 1_555
Mg29 Mg48 3.164051 1_555
Mg29 Mg38 3.199987 1_555
Mg29 Mg43 3.200783 1_555
Mg29 Mg58 3.202953 1_555
Mg29 Mg64 3.204583 1_555
Mg29 Mg33 3.215208 1_555
Mg30 Mg51 3.160920 1_555
Mg30 Mg31 3.163132 1_555
Mg30 Mg48 3.164051 1_455
Mg30 Mg37 3.200003 1_555
Mg30 Mg44 3.200774 1_455
Mg30 Mg59 3.202953 1_555
Mg30 Mg63 3.204583 1_555
Mg30 Mg34 3.215217 1_555
Mg31 Mg54 3.160920 1_555
Mg31 Mg46 3.164060 1_565
Mg31 Mg37 3.199996 1_555
Mg31 Mg39 3.200790 1_565
Mg31 Mg60 3.202961 1_555
Mg31 Mg63 3.204575 1_555
Mg31 Mg35 3.215224 1_555
Mg32 Mg53 3.160920 1_555
Mg32 Mg47 3.164059 1_565
Mg32 Mg38 3.199987 1_555
Mg32 Mg40 3.200799 1_565
Mg32 Mg61 3.202961 1_555
Mg32 Mg64 3.204575 1_555
Mg32 Mg35 3.215208 1_555
Mg33 Mg36 3.185000 1_555
Mg33 Mg38 3.185001 1_555
Mg33 Mg43 3.185072 1_555
Mg33 Mg41 3.185073 1_555
Mg33 Mg58 3.192944 1_555
Mg33 Mg56 3.192944 1_555
Mg33 Mg68 3.199099 1_555
Mg33 Mg9 3.206564 1_555
Mg34 Mg37 3.185000 1_555
Mg34 Mg36 3.185000 1_555
Mg34 Mg42 3.185072 1_455
Mg34 Mg44 3.185072 1_455
Mg34 Mg57 3.192936 1_555
Mg34 Mg59 3.192944 1_555
Mg34 Mg69 3.199082 1_555
Mg35 Mg37 3.185000 1_555
Mg35 Mg38 3.185001 1_555
Mg35 Mg39 3.185073 1_565
Mg35 Mg40 3.185080 1_565
Mg35 Mg61 3.192944 1_555
Mg35 Mg60 3.192952 1_555
Mg35 Mg70 3.199083 1_555
Mg36 Mg62 3.187193 1_555
Mg36 Mg38 3.193739 1_555
Mg36 Mg37 3.193740 1_555
Mg36 Mg68 3.195767 1_555
Mg36 Mg69 3.195783 1_555
Mg37 Mg63 3.187201 1_555
Mg37 Mg38 3.193739 1_555
Mg37 Mg70 3.195767 1_555
Mg37 Mg69 3.195767 1_555
Mg38 Mg64 3.187193 1_555
Mg38 Mg68 3.195767 1_555
Mg38 Mg70 3.195783 1_555
Mg39 Mg46 3.162382 1_555
Mg39 Mg40 3.175789 1_555
Mg39 Mg45 3.178145 1_555
Mg39 Mg41 3.180510 1_555
Mg39 Mg60 3.183222 1_545
Mg39 Mg8 3.184435 1_555
Mg39 Mg65 3.184973 1_555
Mg39 Mg72 3.193349 1_555
Mg39 Mg6 3.198010 1_555
Mg40 Mg47 3.162374 1_555
Mg40 Mg45 3.178147 1_555
Mg40 Mg42 3.180501 1_555
Mg40 Mg61 3.183230 1_545
Mg40 Mg8 3.184444 1_555
Mg40 Mg65 3.184965 1_555
Mg40 Mg71 3.193333 1_555
Mg40 Mg7 3.198002 1_555
Mg41 Mg46 3.162374 1_555
Mg41 Mg43 3.175797 1_555
Mg41 Mg45 3.178138 1_555
Mg41 Mg56 3.183230 1_555
Mg41 Mg67 3.184973 1_555
Mg41 Mg9 3.189490 1_555
Mg41 Mg72 3.193334 1_555
Mg41 Mg6 3.198002 1_555
Mg42 Mg47 3.162367 1_555
Mg42 Mg44 3.175798 1_555
Mg42 Mg45 3.178169 1_555
Mg42 Mg57 3.183230 1_655
Mg42 Mg66 3.184981 1_555
Mg42 Mg71 3.193341 1_555
Mg42 Mg7 3.198002 1_555
Mg43 Mg48 3.162374 1_555
Mg43 Mg45 3.178147 1_555
Mg43 Mg44 3.180509 1_555
Mg43 Mg58 3.183230 1_555
Mg43 Mg67 3.184965 1_555
Mg43 Mg73 3.193333 1_555
Mg44 Mg48 3.162384 1_555
Mg44 Mg45 3.178161 1_555
Mg44 Mg59 3.183230 1_655
Mg44 Mg66 3.184965 1_555
Mg44 Mg73 3.193349 1_555
Mg45 Mg65 3.193473 1_555
Mg45 Mg67 3.193473 1_555
Mg45 Mg66 3.193481 1_555
Mg45 Mg8 3.193522 1_555
Mg46 Mg6 3.160545 1_555
Mg46 Mg50 3.165113 1_555
Mg46 Mg54 3.165113 1_545
Mg46 Mg72 3.172530 1_555
Mg47 Mg7 3.160545 1_555
Mg47 Mg49 3.165113 1_655
Mg47 Mg53 3.165121 1_545
Mg47 Mg71 3.172530 1_555
Mg47 Mg5 3.194768 1_555
Mg48 Mg51 3.165113 1_655
Mg48 Mg52 3.165113 1_555
Mg48 Mg73 3.172531 1_555
Mg49 Mg50 3.156508 1_555
Mg49 Mg55 3.165263 1_555
Mg49 Mg53 3.173830 1_445
Mg49 Mg62 3.190276 1_555
Mg49 Mg57 3.193135 1_555
Mg49 Mg71 3.197000 1_455
Mg49 Mg76 3.212011 1_555
Mg49 Mg75 3.222202 1_455
Mg49 Mg80 3.224469 1_555
Mg50 Mg55 3.165262 1_555
Mg50 Mg54 3.173824 1_545
Mg50 Mg62 3.190277 1_555
Mg50 Mg56 3.193126 1_555
Mg50 Mg72 3.196992 1_555
Mg50 Mg76 3.212011 1_555
Mg50 Mg74 3.222202 1_555
Mg50 Mg79 3.224461 1_555
Mg51 Mg54 3.156508 1_555
Mg51 Mg55 3.165263 1_565
Mg51 Mg52 3.173823 1_455
Mg51 Mg63 3.190276 1_555
Mg51 Mg59 3.193135 1_555
Mg51 Mg73 3.197000 1_455
Mg51 Mg94 3.212003 1_555
Mg51 Mg93 3.222202 1_455
Mg51 Mg92 3.224469 1_555
Mg52 Mg53 3.156493 1_555
Mg52 Mg55 3.165262 1_665
Mg52 Mg64 3.190276 1_555
Mg52 Mg58 3.193126 1_555
Mg52 Mg73 3.196993 1_555
Mg52 Mg95 3.212011 1_555
Mg52 Mg93 3.222202 1_555
Mg52 Mg91 3.224461 1_555
Mg53 Mg55 3.165254 1_665
Mg53 Mg64 3.190268 1_555
Mg53 Mg61 3.193134 1_555
Mg53 Mg71 3.197009 1_565
Mg53 Mg95 3.211996 1_555
Mg53 Mg75 3.222210 1_565
Mg53 Mg98 3.224461 1_555
Mg54 Mg55 3.165262 1_565
Mg54 Mg63 3.190277 1_555
Mg54 Mg60 3.193126 1_555
Mg54 Mg72 3.197000 1_565
Mg54 Mg94 3.212011 1_555
Mg54 Mg74 3.222202 1_565
Mg54 Mg97 3.224469 1_555
Mg55 Mg76 3.200041 1_555
Mg55 Mg95 3.200049 1_445
Mg55 Mg94 3.200049 1_545
Mg56 Mg62 3.177117 1_555
Mg56 Mg72 3.181094 1_555
Mg56 Mg67 3.186974 1_555
Mg56 Mg68 3.187539 1_555
Mg56 Mg79 3.193590 1_555
Mg56 Mg86 3.198580 1_555
Mg56 Mg82 3.200741 1_555
Mg56 Mg58 3.204291 1_555
Mg57 Mg62 3.177109 1_555
Mg57 Mg71 3.181124 1_455
Mg57 Mg66 3.186982 1_455
Mg57 Mg69 3.187514 1_555
Mg57 Mg80 3.193590 1_555
Mg57 Mg85 3.198572 1_555
Mg57 Mg81 3.200748 1_455
Mg57 Mg59 3.204276 1_555
Mg58 Mg64 3.177118 1_555
Mg58 Mg73 3.181092 1_555
Mg58 Mg67 3.186967 1_555
Mg58 Mg68 3.187538 1_555
Mg58 Mg91 3.193590 1_555
Mg58 Mg86 3.198580 1_555
Mg58 Mg87 3.200741 1_555
Mg59 Mg63 3.177109 1_555
Mg59 Mg73 3.181124 1_455
Mg59 Mg66 3.186974 1_455
Mg59 Mg69 3.187506 1_555
Mg59 Mg92 3.193590 1_555
Mg59 Mg85 3.198572 1_555
Mg59 Mg88 3.200748 1_455
Mg60 Mg63 3.177117 1_555
Mg60 Mg72 3.181109 1_565
Mg60 Mg65 3.186974 1_565
Mg60 Mg70 3.187523 1_555
Mg60 Mg97 3.193590 1_555
Mg60 Mg96 3.198580 1_555
Mg60 Mg77 3.200741 1_565
Mg60 Mg61 3.204291 1_555
Mg61 Mg64 3.177118 1_555
Mg61 Mg71 3.181092 1_565
Mg61 Mg65 3.186967 1_565
Mg61 Mg70 3.187530 1_555
Mg61 Mg98 3.193598 1_555
Mg61 Mg96 3.198580 1_555
Mg61 Mg78 3.200741 1_565
Mg62 Mg68 3.183388 1_555
Mg62 Mg69 3.183397 1_555
Mg62 Mg84 3.186557 1_555
Mg62 Mg80 3.194466 1_555
Mg62 Mg79 3.194474 1_555
Mg63 Mg70 3.183380 1_555
Mg63 Mg69 3.183381 1_555
Mg63 Mg89 3.186557 1_555
Mg63 Mg92 3.194466 1_555
Mg63 Mg97 3.194466 1_555
Mg64 Mg68 3.183388 1_555
Mg64 Mg70 3.183396 1_555
Mg64 Mg90 3.186565 1_555
Mg64 Mg98 3.194466 1_555
Mg64 Mg91 3.194474 1_555
Mg65 Mg78 3.183651 1_555
Mg65 Mg77 3.183659 1_555
Mg65 Mg71 3.185392 1_555
Mg65 Mg72 3.185415 1_555
Mg65 Mg83 3.189418 1_555
Mg65 Mg66 3.192535 1_555
Mg65 Mg67 3.192544 1_555
Mg66 Mg88 3.183651 1_555
Mg66 Mg81 3.183659 1_555
Mg66 Mg73 3.185401 1_555
Mg66 Mg71 3.185416 1_555
Mg66 Mg83 3.189426 1_555
Mg66 Mg67 3.192527 1_555
Mg67 Mg87 3.183651 1_555
Mg67 Mg82 3.183659 1_555
Mg67 Mg73 3.185391 1_555
Mg67 Mg72 3.185407 1_555
Mg67 Mg83 3.189418 1_555
Mg68 Mg69 3.183497 1_555
Mg68 Mg70 3.183498 1_555
Mg68 Mg84 3.189519 1_555
Mg68 Mg90 3.189519 1_555
Mg68 Mg86 3.193679 1_555
Mg69 Mg70 3.183497 1_555
Mg69 Mg89 3.189519 1_555
Mg69 Mg84 3.189527 1_555
Mg69 Mg85 3.193671 1_555
Mg70 Mg89 3.189519 1_555
Mg70 Mg90 3.189519 1_555
Mg70 Mg96 3.193671 1_555
Mg71 Mg78 3.183886 1_555
Mg71 Mg81 3.183895 1_555
Mg71 Mg75 3.188410 1_555
Mg72 Mg82 3.183887 1_555
Mg72 Mg77 3.183895 1_555
Mg72 Mg74 3.188410 1_555
Mg73 Mg87 3.183886 1_555
Mg73 Mg88 3.183895 1_555
Mg73 Mg93 3.188410 1_555
Mg74 Mg79 3.175520 1_555
Mg74 Mg97 3.175536 1_545
Mg74 Mg76 3.176563 1_555
Mg74 Mg94 3.176571 1_545
Mg74 Mg82 3.192488 1_555
Mg74 Mg77 3.192488 1_555
Mg75 Mg98 3.175527 1_545
Mg75 Mg80 3.175535 1_655
Mg75 Mg95 3.176557 1_545
Mg75 Mg76 3.176563 1_655
Mg75 Mg99 3.188410 1_555
Mg75 Mg78 3.192488 1_555
Mg75 Mg81 3.192489 1_555
Mg76 Mg95 3.178346 1_445
Mg76 Mg94 3.178356 1_545
Mg76 Mg79 3.179423 1_555
Mg76 Mg80 3.179432 1_555
Mg77 Mg82 3.177919 1_555
Mg77 Mg96 3.178464 1_545
Mg77 Mg83 3.180204 1_555
Mg77 Mg78 3.182506 1_555
Mg77 Mg97 3.187024 1_545
Mg78 Mg81 3.177918 1_555
Mg78 Mg96 3.178463 1_545
Mg78 Mg83 3.180213 1_555
Mg78 Mg99 3.183886 1_555
Mg78 Mg98 3.187033 1_545
Mg79 Mg80 3.186142 1_555
Mg79 Mg84 3.186738 1_555
Mg79 Mg82 3.187016 1_555
Mg79 Mg86 3.191706 1_555
Mg80 Mg84 3.186721 1_555
Mg80 Mg81 3.187024 1_455
Mg80 Mg85 3.191699 1_555
Mg81 Mg85 3.178463 1_655
Mg81 Mg83 3.180220 1_555
Mg81 Mg88 3.182507 1_555
Mg81 Mg99 3.183895 1_555
Mg82 Mg86 3.178464 1_555
Mg82 Mg83 3.180204 1_555
Mg82 Mg87 3.182506 1_555
Mg83 Mg87 3.180213 1_555
Mg83 Mg88 3.180220 1_555
Mg84 Mg86 3.192872 1_555
Mg84 Mg85 3.192872 1_555
Mg84 Mg90 3.196073 1_555
Mg84 Mg89 3.196082 1_555
Mg85 Mg88 3.178463 1_455
Mg85 Mg92 3.191699 1_555
Mg85 Mg89 3.192872 1_555
Mg86 Mg87 3.178463 1_555
Mg86 Mg91 3.191706 1_555
Mg86 Mg90 3.192881 1_555
Mg87 Mg88 3.177918 1_555
Mg87 Mg91 3.187017 1_555
Mg87 Mg93 3.192488 1_555
Mg88 Mg92 3.187024 1_655
Mg88 Mg93 3.192489 1_555
Mg89 Mg92 3.186721 1_555
Mg89 Mg97 3.186722 1_555
Mg89 Mg96 3.192872 1_555
Mg89 Mg90 3.196065 1_555
Mg90 Mg98 3.186736 1_555
Mg90 Mg91 3.186753 1_555
Mg90 Mg96 3.192865 1_555
Mg91 Mg93 3.175519 1_555
Mg91 Mg95 3.179415 1_555
Mg91 Mg98 3.186135 1_555
Mg92 Mg93 3.175535 1_455
Mg92 Mg94 3.179417 1_555
Mg92 Mg97 3.186133 1_555
Mg93 Mg94 3.176555 1_655
Mg93 Mg95 3.176572 1_555
Mg94 Mg95 3.178362 1_455
Mg94 Mg97 3.179423 1_555
Mg95 Mg98 3.179400 1_555
Mg96 Mg97 3.191698 1_555
Mg96 Mg98 3.191714 1_555
Mg100 Mg124 3.172517 1_555
Mg100 Mg111 3.181094 1_555
Mg100 Mg115 3.181109 1_545
Mg100 Mg82 3.183887 1_555
Mg100 Mg77 3.183895 1_555
Mg100 Mg107 3.185407 1_555
Mg100 Mg105 3.185415 1_555
Mg100 Mg74 3.188410 1_555
Mg100 Mg130 3.193334 1_555
Mg100 Mg128 3.193349 1_555
Mg100 Mg119 3.196992 1_555
Mg100 Mg123 3.197000 1_545
Mg101 Mg126 3.172518 1_555
Mg101 Mg113 3.181092 1_555
Mg101 Mg114 3.181124 1_655
Mg101 Mg87 3.183886 1_555
Mg101 Mg88 3.183895 1_555
Mg101 Mg107 3.185391 1_555
Mg101 Mg106 3.185401 1_555
Mg101 Mg93 3.188410 1_555
Mg101 Mg132 3.193333 1_555
Mg101 Mg133 3.193349 1_555
Mg101 Mg121 3.196993 1_555
Mg101 Mg120 3.197000 1_655
Mg102 Mg108 3.183388 1_555
Mg102 Mg110 3.183388 1_555
Mg102 Mg103 3.183497 1_555
Mg102 Mg104 3.183498 1_555
Mg102 Mg113 3.187538 1_555
Mg102 Mg111 3.187539 1_555
Mg102 Mg84 3.189519 1_555
Mg102 Mg90 3.189519 1_555
Mg102 Mg86 3.193679 1_555
Mg102 Mg134 3.195780 1_555
Mg102 Mg136 3.195780 1_555
Mg102 Mg137 3.199111 1_555
Mg103 Mg109 3.183381 1_555
Mg103 Mg108 3.183397 1_555
Mg103 Mg104 3.183497 1_555
Mg103 Mg114 3.187506 1_555
Mg103 Mg112 3.187514 1_555
Mg103 Mg89 3.189519 1_555
Mg103 Mg84 3.189527 1_555
Mg103 Mg85 3.193671 1_555
Mg103 Mg135 3.195780 1_555
Mg103 Mg134 3.195796 1_555
Mg103 Mg138 3.199095 1_555
Mg104 Mg109 3.183380 1_555
Mg104 Mg110 3.183396 1_555
Mg104 Mg115 3.187523 1_555
Mg104 Mg116 3.187530 1_555
Mg104 Mg89 3.189519 1_555
Mg104 Mg90 3.189519 1_555
Mg104 Mg96 3.193671 1_555
Mg104 Mg135 3.195780 1_555
Mg104 Mg136 3.195796 1_555
Mg104 Mg139 3.199096 1_555
Mg105 Mg78 3.183651 1_555
Mg105 Mg77 3.183659 1_555
Mg105 Mg129 3.184965 1_555
Mg105 Mg128 3.184973 1_555
Mg105 Mg99 3.185392 1_555
Mg105 Mg116 3.186967 1_545
Mg105 Mg115 3.186974 1_545
Mg105 Mg83 3.189418 1_555
Mg105 Mg106 3.192535 1_555
Mg105 Mg107 3.192544 1_555
Mg105 Mg127 3.193486 1_555
Mg106 Mg88 3.183651 1_555
Mg106 Mg81 3.183659 1_555
Mg106 Mg133 3.184965 1_555
Mg106 Mg131 3.184981 1_555
Mg106 Mg99 3.185416 1_555
Mg106 Mg114 3.186974 1_655
Mg106 Mg112 3.186982 1_655
Mg106 Mg83 3.189426 1_555
Mg106 Mg107 3.192527 1_555
Mg106 Mg127 3.193493 1_555
Mg107 Mg87 3.183651 1_555
Mg107 Mg82 3.183659 1_555
Mg107 Mg132 3.184965 1_555
Mg107 Mg130 3.184973 1_555
Mg107 Mg113 3.186967 1_555
Mg107 Mg111 3.186974 1_555
Mg107 Mg83 3.189418 1_555
Mg107 Mg127 3.193486 1_555
Mg108 Mg112 3.177109 1_555
Mg108 Mg111 3.177117 1_555
Mg108 Mg84 3.186545 1_555
Mg108 Mg134 3.187219 1_555
Mg108 Mg118 3.190276 1_555
Mg108 Mg119 3.190277 1_555
Mg108 Mg80 3.194453 1_555
Mg108 Mg79 3.194461 1_555
Mg108 Mg140 3.204575 1_555
Mg108 Mg141 3.204583 1_555
Mg109 Mg114 3.177109 1_555
Mg109 Mg115 3.177117 1_555
Mg109 Mg89 3.186544 1_555
Mg109 Mg135 3.187227 1_555
Mg109 Mg120 3.190276 1_555
Mg109 Mg123 3.190277 1_555
Mg109 Mg92 3.194453 1_555
Mg109 Mg97 3.194453 1_555
Mg109 Mg144 3.204575 1_555
Mg109 Mg143 3.204583 1_555
Mg110 Mg113 3.177118 1_555
Mg110 Mg116 3.177118 1_555
Mg110 Mg90 3.186552 1_555
Mg110 Mg136 3.187219 1_555
Mg110 Mg122 3.190268 1_555
Mg110 Mg121 3.190276 1_555
Mg110 Mg98 3.194453 1_555
Mg110 Mg91 3.194461 1_555
Mg110 Mg145 3.204575 1_555
Mg110 Mg142 3.204583 1_555
Mg111 Mg130 3.183230 1_555
Mg111 Mg137 3.192957 1_555
Mg111 Mg119 3.193126 1_555
Mg111 Mg79 3.193590 1_555
Mg111 Mg86 3.198580 1_555
Mg111 Mg82 3.200741 1_555
Mg111 Mg140 3.202948 1_555
Mg111 Mg113 3.204291 1_555
Mg112 Mg99 3.181124 1_455
Mg112 Mg131 3.183230 1_455
Mg112 Mg138 3.192949 1_555
Mg112 Mg118 3.193135 1_555
Mg112 Mg80 3.193590 1_555
Mg112 Mg85 3.198572 1_555
Mg112 Mg81 3.200748 1_455
Mg112 Mg141 3.202941 1_555
Mg112 Mg114 3.204276 1_555
Mg113 Mg132 3.183230 1_555
Mg113 Mg137 3.192957 1_555
Mg113 Mg121 3.193126 1_555
Mg113 Mg91 3.193590 1_555
Mg113 Mg86 3.198580 1_555
Mg113 Mg87 3.200741 1_555
Mg113 Mg142 3.202940 1_555
Mg114 Mg133 3.183230 1_455
Mg114 Mg138 3.192957 1_555
Mg114 Mg120 3.193135 1_555
Mg114 Mg92 3.193590 1_555
Mg114 Mg85 3.198572 1_555
Mg114 Mg88 3.200748 1_455
Mg114 Mg143 3.202940 1_555
Mg115 Mg128 3.183222 1_565
Mg115 Mg139 3.192965 1_555
Mg115 Mg123 3.193126 1_555
Mg115 Mg97 3.193590 1_555
Mg115 Mg96 3.198580 1_555
Mg115 Mg77 3.200741 1_565
Mg115 Mg144 3.202948 1_555
Mg115 Mg116 3.204291 1_555
Mg116 Mg99 3.181092 1_565
Mg116 Mg129 3.183230 1_565
Mg116 Mg139 3.192957 1_555
Mg116 Mg122 3.193134 1_555
Mg116 Mg98 3.193598 1_555
Mg116 Mg96 3.198580 1_555
Mg116 Mg78 3.200741 1_565
Mg116 Mg145 3.202948 1_555
Mg117 Mg122 3.165254 1_445
Mg117 Mg121 3.165262 1_445
Mg117 Mg119 3.165262 1_555
Mg117 Mg123 3.165262 1_545
Mg117 Mg118 3.165263 1_555
Mg117 Mg120 3.165263 1_545
Mg117 Mg76 3.200054 1_555
Mg117 Mg95 3.200062 1_445
Mg117 Mg94 3.200062 1_545
Mg117 Mg146 3.249843 1_555
Mg117 Mg148 3.249843 1_545
Mg117 Mg147 3.249850 1_445
Mg118 Mg119 3.156508 1_555
Mg118 Mg141 3.160907 1_555
Mg118 Mg125 3.165100 1_455
Mg118 Mg122 3.173830 1_445
Mg118 Mg99 3.197000 1_455
Mg118 Mg76 3.212011 1_555
Mg118 Mg75 3.222202 1_455
Mg118 Mg80 3.224469 1_555
Mg118 Mg146 3.300410 1_555
Mg119 Mg140 3.160907 1_555
Mg119 Mg124 3.165100 1_555
Mg119 Mg123 3.173824 1_545
Mg119 Mg76 3.212011 1_555
Mg119 Mg74 3.222202 1_555
Mg119 Mg79 3.224461 1_555
Mg119 Mg146 3.300417 1_555
Mg120 Mg123 3.156508 1_555
Mg120 Mg143 3.160907 1_555
Mg120 Mg126 3.165100 1_455
Mg120 Mg121 3.173823 1_455
Mg120 Mg94 3.212003 1_555
Mg120 Mg93 3.222202 1_455
Mg120 Mg92 3.224469 1_555
Mg120 Mg148 3.300409 1_555
Mg121 Mg122 3.156493 1_555
Mg121 Mg142 3.160907 1_555
Mg121 Mg126 3.165100 1_555
Mg121 Mg95 3.212011 1_555
Mg121 Mg93 3.222202 1_555
Mg121 Mg91 3.224461 1_555
Mg121 Mg147 3.300409 1_555
Mg122 Mg145 3.160907 1_555
Mg122 Mg125 3.165108 1_565
Mg122 Mg99 3.197009 1_565
Mg122 Mg95 3.211996 1_555
Mg122 Mg75 3.222210 1_565
Mg122 Mg98 3.224461 1_555
Mg122 Mg147 3.300402 1_555
Mg123 Mg144 3.160907 1_555
Mg123 Mg124 3.165100 1_565
Mg123 Mg94 3.212011 1_555
Mg123 Mg74 3.222202 1_565
Mg123 Mg97 3.224469 1_555
Mg123 Mg148 3.300417 1_555
Mg124 Mg6 3.160558 1_556
Mg124 Mg130 3.162374 1_555
Mg124 Mg128 3.162382 1_555
Mg124 Mg140 3.164060 1_555
Mg124 Mg144 3.164060 1_545
Mg124 Mg4 3.194781 1_556
Mg124 Mg2 3.194781 1_556
Mg124 Mg146 3.215886 1_555
Mg124 Mg148 3.215886 1_545
Mg125 Mg7 3.160558 1_556
Mg125 Mg131 3.162367 1_555
Mg125 Mg129 3.162374 1_555
Mg125 Mg141 3.164051 1_655
Mg125 Mg145 3.164059 1_545
Mg125 Mg99 3.172518 1_555
Mg125 Mg5 3.194781 1_556
Mg125 Mg3 3.194782 1_556
Mg125 Mg146 3.215870 1_655
Mg125 Mg147 3.215879 1_545
Mg126 Mg16 3.160558 1_556
Mg126 Mg132 3.162374 1_555
Mg126 Mg133 3.162384 1_555
Mg126 Mg142 3.164051 1_555
Mg126 Mg143 3.164051 1_655
Mg126 Mg23 3.194774 1_556
Mg126 Mg22 3.194781 1_556
Mg126 Mg148 3.215870 1_655
Mg126 Mg147 3.215878 1_555
Mg127 Mg130 3.178138 1_555
Mg127 Mg128 3.178145 1_555
Mg127 Mg129 3.178147 1_555
Mg127 Mg132 3.178147 1_555
Mg127 Mg133 3.178161 1_555
Mg127 Mg131 3.178169 1_555
Mg127 Mg8 3.193509 1_556
Mg127 Mg13 3.193525 1_556
Mg128 Mg129 3.175789 1_555
Mg128 Mg130 3.180510 1_555
Mg128 Mg8 3.184435 1_556
Mg128 Mg139 3.185073 1_545
Mg128 Mg6 3.198010 1_556
Mg128 Mg144 3.200790 1_545
Mg129 Mg131 3.180501 1_555
Mg129 Mg8 3.184444 1_556
Mg129 Mg139 3.185080 1_545
Mg129 Mg99 3.193333 1_555
Mg129 Mg7 3.198002 1_556
Mg129 Mg145 3.200799 1_545
Mg130 Mg132 3.175797 1_555
Mg130 Mg137 3.185073 1_555
Mg130 Mg9 3.189490 1_556
Mg130 Mg6 3.198002 1_556
Mg130 Mg140 3.200797 1_555
Mg131 Mg133 3.175798 1_555
Mg131 Mg138 3.185072 1_655
Mg131 Mg99 3.193341 1_555
Mg131 Mg7 3.198002 1_556
Mg131 Mg141 3.200766 1_655
Mg132 Mg133 3.180509 1_555
Mg132 Mg137 3.185072 1_555
Mg132 Mg18 3.189490 1_556
Mg132 Mg16 3.198002 1_556
Mg132 Mg142 3.200783 1_555
Mg133 Mg138 3.185072 1_655
Mg133 Mg17 3.189481 1_556
Mg133 Mg16 3.198010 1_556
Mg133 Mg143 3.200774 1_655
Mg134 Mg137 3.185000 1_555
Mg134 Mg138 3.185000 1_555
Mg134 Mg14 3.187692 1_556
Mg134 Mg15 3.187692 1_556
Mg134 Mg136 3.193739 1_555
Mg134 Mg135 3.193740 1_555
Mg134 Mg140 3.199980 1_555
Mg134 Mg141 3.199994 1_555
Mg135 Mg139 3.185000 1_555
Mg135 Mg138 3.185000 1_555
Mg135 Mg19 3.187692 1_556
Mg135 Mg15 3.187692 1_556
Mg135 Mg136 3.193739 1_555
Mg135 Mg144 3.199996 1_555
Mg135 Mg143 3.200002 1_555
Mg135 Mg21 3.205939 1_556
Mg136 Mg137 3.185001 1_555
Mg136 Mg139 3.185001 1_555
Mg136 Mg14 3.187692 1_556
Mg136 Mg19 3.187700 1_556
Mg136 Mg145 3.199986 1_555
Mg136 Mg142 3.199987 1_555
Mg136 Mg20 3.205931 1_556
Mg137 Mg14 3.177738 1_556
Mg137 Mg18 3.206551 1_556
Mg137 Mg9 3.206552 1_556
Mg137 Mg142 3.215208 1_555
Mg137 Mg140 3.215216 1_555
Mg138 Mg15 3.177738 1_556
Mg138 Mg17 3.206560 1_456
Mg138 Mg141 3.215201 1_555
Mg138 Mg143 3.215217 1_555
Mg139 Mg19 3.177731 1_556
Mg139 Mg145 3.215208 1_555
Mg139 Mg144 3.215224 1_555
Mg140 Mg141 3.163132 1_555
Mg140 Mg9 3.165867 1_556
Mg140 Mg146 3.240285 1_555
Mg140 Mg4 3.253087 1_556
Mg141 Mg146 3.240287 1_555
Mg141 Mg5 3.253087 1_456
Mg142 Mg145 3.163133 1_555
Mg142 Mg20 3.165647 1_556
Mg142 Mg18 3.165859 1_556
Mg142 Mg147 3.240277 1_555
Mg142 Mg23 3.253095 1_556
Mg143 Mg144 3.163132 1_555
Mg143 Mg21 3.165655 1_556
Mg143 Mg17 3.165859 1_456
Mg143 Mg148 3.240287 1_555
Mg143 Mg22 3.253087 1_456
Mg144 Mg21 3.165639 1_556
Mg144 Mg148 3.240285 1_555
Mg144 Mg2 3.253087 1_566
Mg145 Mg20 3.165647 1_556
Mg145 Mg147 3.240270 1_555
Mg145 Mg3 3.253095 1_566
Mg146 Tc0 3.006546 1_556
Mg146 Mg5 3.009266 1_456
Mg146 Mg4 3.009274 1_556
Mg146 Mg147 3.015991 1_445
Mg146 Mg148 3.015992 1_545
Mg147 Tc0 3.006554 1_666
Mg147 Mg3 3.009259 1_566
Mg147 Mg23 3.009267 1_556
Mg147 Mg148 3.015991 1_655
Mg148 Tc0 3.006547 1_566
Mg148 Mg22 3.009266 1_456
Mg148 Mg2 3.009274 1_566
