# generated using pymatgen
data_Li9Mn2Co5O16
_symmetry_space_group_name_H-M   'P 1'
_cell_length_a   5.05388690
_cell_length_b   7.75686151
_cell_length_c   7.75686150
_cell_angle_alpha   96.60632054
_cell_angle_beta   76.55978196
_cell_angle_gamma   76.55978873
_symmetry_Int_Tables_number   1
_chemical_formula_structural   Li9Mn2Co5O16
_chemical_formula_sum   'Li9 Mn2 Co5 O16'
_cell_volume   283.02719384
_cell_formula_units_Z   1
loop_
 _symmetry_equiv_pos_site_id
 _symmetry_equiv_pos_as_xyz
  1  'x, y, z'
loop_
 _atom_site_type_symbol
 _atom_site_label
 _atom_site_symmetry_multiplicity
 _atom_site_fract_x
 _atom_site_fract_y
 _atom_site_fract_z
 _atom_site_occupancy
  Li  Li0  1  0.01636500  0.11605100  0.36552700  1
  Li  Li1  1  0.98363500  0.63447300  0.88394900  1
  Li  Li2  1  0.49381600  0.99065300  0.48576200  1
  Li  Li3  1  0.50618400  0.51423800  0.00934700  1
  Li  Li4  1  0.99823900  0.86953800  0.62286000  1
  Li  Li5  1  0.00176100  0.37714000  0.13046200  1
  Li  Li6  1  0.50063900  0.74948900  0.75268900  1
  Li  Li7  1  0.49936100  0.24731100  0.25051100  1
  Li  Li8  1  0.50000000  0.87615600  0.12384400  1
  Mn  Mn0  1  0.00000000  0.99867400  0.00132600  1
  Mn  Mn1  1  0.00000000  0.25080300  0.74919700  1
  Co  Co0  1  0.00000000  0.50288400  0.49711600  1
  Co  Co1  1  0.50000000  0.37409100  0.62590900  1
  Co  Co2  1  0.00000000  0.75338000  0.24662000  1
  Co  Co3  1  0.50000000  0.63155500  0.36844500  1
  Co  Co4  1  0.50000000  0.12406800  0.87593200  1
  O  O0  1  0.77567000  0.99827100  0.23449100  1
  O  O1  1  0.77320700  0.48549900  0.74963500  1
  O  O2  1  0.24757900  0.86148700  0.37560900  1
  O  O3  1  0.25644100  0.35425500  0.85495500  1
  O  O4  1  0.75864800  0.74097700  0.49479100  1
  O  O5  1  0.75388500  0.23371600  0.98126200  1
  O  O6  1  0.26745100  0.60204900  0.61620300  1
  O  O7  1  0.24303500  0.12035500  0.10016700  1
  O  O8  1  0.22679300  0.25036500  0.51450100  1
  O  O9  1  0.22433000  0.76550900  0.00172900  1
  O  O10  1  0.74355900  0.14504500  0.64574500  1
  O  O11  1  0.75242100  0.62439100  0.13851300  1
  O  O12  1  0.24611500  0.01873800  0.76628400  1
  O  O13  1  0.24135200  0.50520900  0.25902300  1
  O  O14  1  0.75696500  0.89983300  0.87964500  1
  O  O15  1  0.73254900  0.38379700  0.39795100  1
loop_
_geom_bond_atom_site_label_1
_geom_bond_atom_site_label_2
_geom_bond_distance
_geom_bond_site_symmetry_2
Li0 O0 2.055544 1_445
Li0 O2 2.067870 1_545
Li0 O8 2.088329 1_555
Li0 O7 2.118428 1_555
Li0 O15 2.182052 1_455
Li0 O10 2.241949 1_455
Li1 O9 2.055544 1_656
Li1 O11 2.067870 1_556
Li1 O1 2.088329 1_555
Li1 O14 2.118428 1_555
Li1 O6 2.182052 1_655
Li1 O3 2.241949 1_655
Li2 O2 2.039488 1_555
Li2 O4 2.101646 1_555
Li2 O8 2.102926 1_565
Li2 O0 2.146268 1_555
Li2 O12 2.201661 1_565
Li2 O10 2.378266 1_565
Li3 O11 2.039488 1_555
Li3 O13 2.101646 1_555
Li3 O1 2.102925 1_554
Li3 O9 2.146268 1_555
Li3 O5 2.201661 1_554
Li3 O3 2.378266 1_554
Li4 O2 2.020527 1_655
Li4 O14 2.034596 1_555
Li4 O4 2.083289 1_555
Li4 O10 2.187026 1_565
Li4 O6 2.188446 1_655
Li4 O12 2.274211 1_665
Li5 O11 2.020528 1_455
Li5 O7 2.034596 1_555
Li5 O13 2.083289 1_555
Li5 O3 2.187026 1_554
Li5 O15 2.188446 1_455
Li5 O5 2.274211 1_454
Li6 O9 2.075403 1_556
Li6 O4 2.103222 1_555
Li6 O12 2.159889 1_565
Li6 O6 2.178455 1_555
Li6 O1 2.180308 1_555
Li6 O14 2.244783 1_555
Li7 O0 2.075403 1_545
Li7 O13 2.103222 1_555
Li7 O5 2.159889 1_554
Li7 O15 2.178455 1_555
Li7 O8 2.180308 1_555
Li7 O7 2.244783 1_555
Li8 O14 2.087036 1_554
Li8 O7 2.087036 1_565
Li8 O2 2.101119 1_555
Li8 O11 2.101119 1_555
Li8 O0 2.134751 1_555
Li8 O9 2.134751 1_555
Mn0 O0 1.899014 1_455
Mn0 O9 1.899014 1_555
Mn0 O7 1.948725 1_565
Mn0 O14 1.948725 1_454
Mn0 O12 1.999114 1_564
Mn0 O5 1.999114 1_464
Mn1 O8 1.911743 1_555
Mn1 O1 1.911743 1_455
Mn1 O10 1.955205 1_455
Mn1 O3 1.955205 1_555
Mn1 O5 1.973763 1_455
Mn1 O12 1.973764 1_555
Co0 O13 1.967157 1_555
Co0 O4 1.967157 1_455
Co0 O15 2.042605 1_455
Co0 O6 2.042605 1_555
Co0 O1 2.063400 1_455
Co0 O8 2.063400 1_555
Co1 O15 1.902450 1_555
Co1 O6 1.902450 1_555
Co1 O3 1.956972 1_555
Co1 O10 1.956972 1_555
Co1 O8 2.134062 1_555
Co1 O1 2.134062 1_555
Co2 O9 1.998050 1_555
Co2 O0 1.998051 1_455
Co2 O11 2.036312 1_455
Co2 O2 2.036312 1_555
Co2 O4 2.051451 1_455
Co2 O13 2.051451 1_555
Co3 O11 1.923049 1_555
Co3 O2 1.923049 1_555
Co3 O6 2.074451 1_555
Co3 O15 2.074451 1_555
Co3 O13 2.075937 1_555
Co3 O4 2.075937 1_555
Co4 O7 1.921356 1_556
Co4 O14 1.921356 1_545
Co4 O10 1.966728 1_555
Co4 O3 1.966728 1_555
Co4 O5 1.967750 1_555
Co4 O12 1.967750 1_555
