# generated using pymatgen
data_Sr3Ca(FeO3)4
_symmetry_space_group_name_H-M   'P 1'
_cell_length_a   5.50470991
_cell_length_b   5.48222585
_cell_length_c   7.79002801
_cell_angle_alpha   90.00121360
_cell_angle_beta   89.99564329
_cell_angle_gamma   90.22805806
_symmetry_Int_Tables_number   1
_chemical_formula_structural   Sr3Ca(FeO3)4
_chemical_formula_sum   'Sr3 Ca1 Fe4 O12'
_cell_volume   235.08609278
_cell_formula_units_Z   1
loop_
 _symmetry_equiv_pos_site_id
 _symmetry_equiv_pos_as_xyz
  1  'x, y, z'
loop_
 _atom_site_type_symbol
 _atom_site_label
 _atom_site_symmetry_multiplicity
 _atom_site_fract_x
 _atom_site_fract_y
 _atom_site_fract_z
 _atom_site_occupancy
  Sr  Sr0  1  0.49681500  0.48458400  0.75002000  1
  Sr  Sr1  1  0.50056300  0.51212100  0.25000200  1
  Sr  Sr2  1  0.00140200  0.98911900  0.74999500  1
  Ca  Ca0  1  0.99820400  0.02706400  0.25004900  1
  Fe  Fe0  1  0.49990800  0.99878700  0.00193400  1
  Fe  Fe1  1  0.00002100  0.50167100  0.00165300  1
  Fe  Fe2  1  0.00007700  0.50161700  0.49833100  1
  Fe  Fe3  1  0.49988100  0.99881500  0.49801100  1
  O  O0  1  0.73214600  0.26607300  0.02060400  1
  O  O1  1  0.23030100  0.22858000  0.98225700  1
  O  O2  1  0.77651300  0.77767900  0.46933000  1
  O  O3  1  0.27314000  0.72811800  0.51776300  1
  O  O4  1  0.27313100  0.72806800  0.98215800  1
  O  O5  1  0.77657500  0.77760300  0.03064800  1
  O  O6  1  0.23043500  0.22848000  0.51772400  1
  O  O7  1  0.73218100  0.26607200  0.47943000  1
  O  O8  1  0.03599200  0.48291500  0.25000400  1
  O  O9  1  0.53698400  0.99611500  0.75003900  1
  O  O10  1  0.44300700  0.00082500  0.25005300  1
  O  O11  1  0.96272300  0.50569300  0.74999300  1
loop_
_geom_bond_atom_site_label_1
_geom_bond_atom_site_label_2
_geom_bond_distance
_geom_bond_site_symmetry_2
Ca0 O10 2.453305 1_655
Ca0 O2 2.502579 1_545
Ca0 O5 2.503365 1_545
Ca0 O8 2.506895 1_655
Ca0 O7 2.658762 1_555
Ca0 O0 2.659393 1_555
Ca0 O6 2.681530 1_655
Ca0 O1 2.681998 1_654
Fe0 O4 1.941659 1_554
Fe0 O0 1.946212 1_565
Fe0 O1 1.956537 1_564
Fe0 O10 1.958084 1_565
Fe0 O5 1.963312 1_555
Fe0 O9 1.972899 1_554
Fe1 O8 1.947543 1_555
Fe1 O4 1.951626 1_554
Fe1 O0 1.961941 1_455
Fe1 O5 1.966472 1_455
Fe1 O11 1.971309 1_454
Fe1 O1 1.971350 1_554
Fe2 O8 1.947276 1_555
Fe2 O3 1.951764 1_555
Fe2 O7 1.961820 1_455
Fe2 O2 1.967465 1_455
Fe2 O11 1.971328 1_455
Fe2 O6 1.971837 1_555
Fe3 O3 1.941416 1_555
Fe3 O7 1.946255 1_565
Fe3 O6 1.955409 1_565
Fe3 O10 1.956869 1_565
Fe3 O2 1.962937 1_555
Fe3 O9 1.973977 1_555
O0 Sr1 2.579008 1_555
O0 Sr0 2.751200 1_554
O0 Sr2 2.993884 1_644
O1 Sr2 2.563550 1_545
O1 Sr0 2.716310 1_555
O1 Sr1 2.993627 1_556
O2 Sr1 2.707182 1_555
O2 Sr2 2.765022 1_655
O2 Sr0 3.116645 1_555
O3 Sr0 2.566239 1_555
O3 Sr1 2.707689 1_555
O3 Sr2 2.752136 1_555
O4 Sr0 2.565294 1_555
O4 Sr1 2.708275 1_556
O4 Sr2 2.752088 1_555
O5 Sr1 2.707170 1_555
O5 Sr2 2.764860 1_654
O5 Sr0 3.116377 1_554
O6 Sr2 2.563585 1_545
O6 Sr0 2.716610 1_555
O6 Sr1 2.993309 1_555
O7 Sr1 2.579443 1_555
O7 Sr0 2.751139 1_555
O7 Sr2 2.993748 1_645
O8 Sr1 2.561700 1_555
O8 Sr1 2.952363 1_455
O9 Sr2 2.556927 1_655
O9 Sr0 2.687888 1_565
O9 Sr0 2.812155 1_555
O9 Sr2 2.948320 1_555
O10 Sr1 2.699106 1_545
O10 Sr1 2.819636 1_555
O11 Sr0 2.566838 1_555
O11 Sr2 2.657945 1_655
O11 Sr2 2.840813 1_645
O11 Sr0 2.942758 1_655
