# generated using pymatgen
data_Li9Mn2Co5O16
_symmetry_space_group_name_H-M   'P 1'
_cell_length_a   10.78299517
_cell_length_b   10.78299517
_cell_length_c   10.17481744
_cell_angle_alpha   66.28687398
_cell_angle_beta   66.28687398
_cell_angle_gamma   15.59335656
_symmetry_Int_Tables_number   1
_chemical_formula_structural   Li9Mn2Co5O16
_chemical_formula_sum   'Li9 Mn2 Co5 O16'
_cell_volume   290.63824879
_cell_formula_units_Z   1
loop_
 _symmetry_equiv_pos_site_id
 _symmetry_equiv_pos_as_xyz
  1  'x, y, z'
loop_
 _atom_site_type_symbol
 _atom_site_label
 _atom_site_symmetry_multiplicity
 _atom_site_fract_x
 _atom_site_fract_y
 _atom_site_fract_z
 _atom_site_occupancy
  Li  Li0  1  0.88115100  0.88115100  0.67644100  1
  Li  Li1  1  0.11884900  0.11884900  0.32355900  1
  Li  Li2  1  0.38357200  0.38357200  0.93121200  1
  Li  Li3  1  0.37959400  0.37959400  0.42654500  1
  Li  Li4  1  0.61642800  0.61642800  0.06878800  1
  Li  Li5  1  0.88606200  0.88606200  0.18239400  1
  Li  Li6  1  0.11393800  0.11393800  0.81760600  1
  Li  Li7  1  0.62040600  0.62040600  0.57345500  1
  Li  Li8  1  0.50000000  0.50000000  0.00000000  1
  Mn  Mn0  1  0.24998100  0.24998100  0.87300300  1
  Mn  Mn1  1  0.75001900  0.75001900  0.12699700  1
  Co  Co0  1  0.50000000  0.50000000  0.50000000  1
  Co  Co1  1  0.99721100  0.99721100  0.76676900  1
  Co  Co2  1  0.25123800  0.25123800  0.37931800  1
  Co  Co3  1  0.74876200  0.74876200  0.62068200  1
  Co  Co4  1  0.00278900  0.00278900  0.23323100  1
  O  O0  1  0.80241000  0.80241000  0.91255400  1
  O  O1  1  0.05536300  0.05536300  0.53804900  1
  O  O2  1  0.30490900  0.30490900  0.14745800  1
  O  O3  1  0.30505900  0.30505900  0.67433000  1
  O  O4  1  0.55759900  0.55759900  0.28839900  1
  O  O5  1  0.80974400  0.80974400  0.40779900  1
  O  O6  1  0.06130900  0.06130900  0.04557600  1
  O  O7  1  0.55726000  0.55726000  0.78039400  1
  O  O8  1  0.94463700  0.94463700  0.46195100  1
  O  O9  1  0.19759000  0.19759000  0.08744600  1
  O  O10  1  0.44240100  0.44240100  0.71160100  1
  O  O11  1  0.44274000  0.44274000  0.21960600  1
  O  O12  1  0.69509100  0.69509100  0.85254200  1
  O  O13  1  0.93869100  0.93869100  0.95442400  1
  O  O14  1  0.19025600  0.19025600  0.59220100  1
  O  O15  1  0.69494100  0.69494100  0.32567000  1
loop_
_geom_bond_atom_site_label_1
_geom_bond_atom_site_label_2
_geom_bond_distance
_geom_bond_site_symmetry_2
Li0 O8 2.049293 1_555
Li0 O10 2.088196 1_655
Li0 O10 2.088196 1_565
Li0 O3 2.193609 1_565
Li0 O3 2.193609 1_655
Li0 O0 2.306697 1_555
Li1 O1 2.049293 1_555
Li1 O4 2.088196 1_455
Li1 O4 2.088196 1_545
Li1 O15 2.193609 1_545
Li1 O15 2.193609 1_455
Li1 O9 2.306697 1_555
Li2 O13 1.951504 1_545
Li2 O13 1.951504 1_455
Li2 O10 2.071912 1_555
Li2 O2 2.159610 1_556
Li2 O0 2.334608 1_545
Li2 O0 2.334608 1_455
Li3 O11 1.986838 1_555
Li3 O8 2.146489 1_455
Li3 O8 2.146489 1_545
Li3 O5 2.152835 1_455
Li3 O5 2.152835 1_545
Li3 O3 2.373392 1_555
Li4 O6 1.951504 1_655
Li4 O6 1.951504 1_565
Li4 O4 2.071912 1_555
Li4 O12 2.159610 1_554
Li4 O9 2.334608 1_655
Li4 O9 2.334608 1_565
Li5 O11 2.030257 1_565
Li5 O11 2.030257 1_655
Li5 O13 2.127752 1_554
Li5 O5 2.209729 1_555
Li5 O2 2.402740 1_655
Li5 O2 2.402740 1_565
Li6 O7 2.030257 1_545
Li6 O7 2.030257 1_455
Li6 O6 2.127752 1_556
Li6 O14 2.209729 1_555
Li6 O12 2.402740 1_545
Li6 O12 2.402740 1_455
Li7 O7 1.986838 1_555
Li7 O1 2.146489 1_655
Li7 O1 2.146489 1_565
Li7 O14 2.152835 1_655
Li7 O14 2.152835 1_565
Li7 O15 2.373392 1_555
Li8 O7 2.066470 1_554
Li8 O11 2.066470 1_555
Li8 O13 2.136351 1_454
Li8 O13 2.136351 1_544
Li8 O6 2.136351 1_565
Li8 O6 2.136351 1_655
Mn0 O3 1.881485 1_555
Mn0 O12 1.938257 1_455
Mn0 O12 1.938257 1_545
Mn0 O0 1.980562 1_545
Mn0 O0 1.980562 1_455
Mn0 O9 2.007738 1_556
Mn1 O15 1.881485 1_555
Mn1 O2 1.938257 1_655
Mn1 O2 1.938257 1_565
Mn1 O9 1.980562 1_655
Mn1 O9 1.980562 1_565
Mn1 O0 2.007738 1_554
Co0 O4 1.999739 1_555
Co0 O10 1.999739 1_555
Co0 O1 2.015129 1_565
Co0 O1 2.015129 1_655
Co0 O8 2.015129 1_455
Co0 O8 2.015129 1_545
Co1 O13 1.808571 1_555
Co1 O7 1.987362 1_565
Co1 O7 1.987362 1_655
Co1 O10 2.088067 1_655
Co1 O10 2.088067 1_565
Co1 O1 2.147604 1_665
Co2 O5 2.020035 1_455
Co2 O5 2.020035 1_545
Co2 O14 2.024426 1_555
Co2 O15 2.101833 1_545
Co2 O15 2.101833 1_455
Co2 O2 2.164326 1_555
Co3 O14 2.020035 1_655
Co3 O14 2.020035 1_565
Co3 O5 2.024426 1_555
Co3 O3 2.101833 1_655
Co3 O3 2.101833 1_565
Co3 O12 2.164326 1_555
Co4 O6 1.808571 1_555
Co4 O11 1.987362 1_455
Co4 O11 1.987362 1_545
Co4 O4 2.088067 1_545
Co4 O4 2.088067 1_455
Co4 O8 2.147604 1_445
