# generated using pymatgen
data_Cd5(NO8)2
_symmetry_space_group_name_H-M   'P 1'
_cell_length_a   10.07733973
_cell_length_b   10.07733973
_cell_length_c   5.70863245
_cell_angle_alpha   81.37703759
_cell_angle_beta   81.37703759
_cell_angle_gamma   42.22209671
_symmetry_Int_Tables_number   1
_chemical_formula_structural   Cd5(NO8)2
_chemical_formula_sum   'Cd5 N2 O16'
_cell_volume   384.51605308
_cell_formula_units_Z   1
loop_
 _symmetry_equiv_pos_site_id
 _symmetry_equiv_pos_as_xyz
  1  'x, y, z'
loop_
 _atom_site_type_symbol
 _atom_site_label
 _atom_site_symmetry_multiplicity
 _atom_site_fract_x
 _atom_site_fract_y
 _atom_site_fract_z
 _atom_site_occupancy
  Cd  Cd0  1  0.00000000  0.00000000  0.00000000  1
  Cd  Cd1  1  0.75217700  0.24782300  0.50000000  1
  Cd  Cd2  1  0.24782300  0.75217700  0.50000000  1
  Cd  Cd3  1  0.38480500  0.38480500  0.02091100  1
  Cd  Cd4  1  0.61519500  0.61519500  0.97908900  1
  N  N0  1  0.75458300  0.75458300  0.75335600  1
  N  N1  1  0.24541700  0.24541700  0.24664400  1
  O  O0  1  0.58701400  0.58701400  0.55402400  1
  O  O1  1  0.41298600  0.41298600  0.44597600  1
  O  O2  1  0.67859800  0.23411200  0.88098000  1
  O  O3  1  0.23411200  0.67859800  0.88098000  1
  O  O4  1  0.32140200  0.76588800  0.11902000  1
  O  O5  1  0.76588800  0.32140200  0.11902000  1
  O  O6  1  0.05196700  0.05196700  0.62894700  1
  O  O7  1  0.94803300  0.94803300  0.37105300  1
  O  O8  1  0.87023400  0.56816600  0.80323600  1
  O  O9  1  0.56816600  0.87023400  0.80323600  1
  O  O10  1  0.12976600  0.43183400  0.19676400  1
  O  O11  1  0.43183400  0.12976600  0.19676400  1
  O  O12  1  0.81851400  0.81851400  0.66445400  1
  O  O13  1  0.18148600  0.18148600  0.33554600  1
  O  O14  1  0.35549900  0.35549900  0.60943200  1
  O  O15  1  0.64450100  0.64450100  0.39056800  1
loop_
_geom_bond_atom_site_label_1
_geom_bond_atom_site_label_2
_geom_bond_distance
_geom_bond_site_symmetry_2
Cd0 O7 2.185456 1_445
Cd0 O6 2.185456 1_554
Cd0 O4 2.319430 1_545
Cd0 O5 2.319430 1_455
Cd0 O2 2.319430 1_454
Cd0 O3 2.319430 1_544
Cd1 O5 2.208399 1_555
Cd1 O2 2.208399 1_555
Cd1 O6 2.228042 1_655
Cd1 O7 2.228042 1_545
Cd1 O0 2.507002 1_555
Cd1 O1 2.507002 1_555
Cd2 O4 2.208399 1_555
Cd2 O3 2.208399 1_555
Cd2 O6 2.228042 1_565
Cd2 O7 2.228042 1_455
Cd2 O0 2.507002 1_555
Cd2 O1 2.507002 1_555
Cd3 O2 2.169159 1_554
Cd3 O3 2.169159 1_554
Cd3 O11 2.324398 1_555
Cd3 O10 2.324398 1_555
Cd3 O14 2.497473 1_554
Cd3 O1 2.565565 1_555
Cd4 O5 2.169159 1_556
Cd4 O4 2.169159 1_556
Cd4 O8 2.324398 1_555
Cd4 O9 2.324398 1_555
Cd4 O15 2.497473 1_556
Cd4 O0 2.565565 1_555
N0 O12 1.227335 1_555
N0 O9 1.290291 1_555
N0 O8 1.290291 1_555
N1 O13 1.227335 1_555
N1 O11 1.290291 1_555
N1 O10 1.290291 1_555
O0 O15 1.309497 1_555
O1 O14 1.309497 1_555
