# generated using pymatgen
data_RbNa2Al3Si3O13
_symmetry_space_group_name_H-M   'P 1'
_cell_length_a   5.22992427
_cell_length_b   8.16190336
_cell_length_c   15.45256404
_cell_angle_alpha   90.00000000
_cell_angle_beta   89.96272176
_cell_angle_gamma   90.00000000
_symmetry_Int_Tables_number   1
_chemical_formula_structural   RbNa2Al3Si3O13
_chemical_formula_sum   'Rb2 Na4 Al6 Si6 O26'
_cell_volume   659.61011733
_cell_formula_units_Z   2
loop_
 _symmetry_equiv_pos_site_id
 _symmetry_equiv_pos_as_xyz
  1  'x, y, z'
loop_
 _atom_site_type_symbol
 _atom_site_label
 _atom_site_symmetry_multiplicity
 _atom_site_fract_x
 _atom_site_fract_y
 _atom_site_fract_z
 _atom_site_occupancy
  Rb  Rb0  1  0.28065670  0.56398630  0.76390987  1
  Rb  Rb1  1  0.78065670  0.43601370  0.26390987  1
  Na  Na0  1  0.28401497  0.82024832  0.00082633  1
  Na  Na1  1  0.78401497  0.17975168  0.50082633  1
  Na  Na2  1  0.28094626  0.83530863  0.49965402  1
  Na  Na3  1  0.78094626  0.16469137  0.99965402  1
  Al  Al0  1  0.75337759  0.59660898  0.99988783  1
  Al  Al1  1  0.25337759  0.40339102  0.49988783  1
  Al  Al2  1  0.74463405  0.89984054  0.64591475  1
  Al  Al3  1  0.74412572  0.89801550  0.35419061  1
  Al  Al4  1  0.24412572  0.10198450  0.85419061  1
  Al  Al5  1  0.24463405  0.10015946  0.14591475  1
  Si  Si0  1  0.75110633  0.61594717  0.50052012  1
  Si  Si1  1  0.25110633  0.38405283  0.00052012  1
  Si  Si2  1  0.74333914  0.88355977  0.85737319  1
  Si  Si3  1  0.74318219  0.88225119  0.14276463  1
  Si  Si4  1  0.24318219  0.11774881  0.64276463  1
  Si  Si5  1  0.24333914  0.11644023  0.35737319  1
  O  O0  1  0.66606839  0.71509871  0.90893995  1
  O  O1  1  0.66776588  0.71528879  0.09031537  1
  O  O2  1  0.16776588  0.28471121  0.59031537  1
  O  O3  1  0.16606839  0.28490129  0.40893995  1
  O  O4  1  0.66634352  0.72357874  0.58545016  1
  O  O5  1  0.66873716  0.72312499  0.41524086  1
  O  O6  1  0.16873716  0.27687501  0.91524086  1
  O  O7  1  0.16634352  0.27642126  0.08545016  1
  O  O8  1  0.08510451  0.55485491  0.99915518  1
  O  O9  1  0.58510451  0.44514509  0.49915518  1
  O  O10  1  0.71967719  0.84625814  0.75464005  1
  O  O11  1  0.72070213  0.84760589  0.24558815  1
  O  O12  1  0.22070213  0.15239411  0.74558815  1
  O  O13  1  0.21967719  0.15374186  0.25464005  1
  O  O14  1  0.04630407  0.97083663  0.61175708  1
  O  O15  1  0.04481256  0.97158942  0.38856440  1
  O  O16  1  0.54481256  0.02841058  0.88856440  1
  O  O17  1  0.54630407  0.02916337  0.11175708  1
  O  O18  1  0.03193286  0.94246937  0.88588251  1
  O  O19  1  0.02980996  0.94411169  0.11368368  1
  O  O20  1  0.52980996  0.05588831  0.61368368  1
  O  O21  1  0.53193286  0.05753063  0.38588251  1
  O  O22  1  0.06000641  0.58058327  0.50011882  1
  O  O23  1  0.56000641  0.41941673  0.00011882  1
  O  O24  1  0.28135244  0.56471428  0.23562244  1
  O  O25  1  0.78135244  0.43528572  0.73562244  1
loop_
_geom_bond_atom_site_label_1
_geom_bond_atom_site_label_2
_geom_bond_distance
_geom_bond_site_symmetry_2
Na0 O8 2.403113 1_554
Na0 O19 2.414091 1_555
Na0 O18 2.427153 1_554
Na0 O1 2.584130 1_555
Na0 O0 2.596412 1_554
Na0 O17 2.780403 1_565
Na0 O16 2.784455 1_564
Na1 O9 2.403113 1_555
Na1 O20 2.414091 1_555
Na1 O21 2.427153 1_555
Na1 O2 2.584130 1_655
Na1 O3 2.596412 1_655
Na1 O14 2.780403 1_645
Na1 O15 2.784455 1_645
Na2 O22 2.378580 1_555
Na2 O15 2.389959 1_555
Na2 O14 2.393231 1_555
Na2 O5 2.578693 1_555
Na2 O4 2.579805 1_555
Na2 O20 2.836030 1_565
Na2 O21 2.846139 1_565
Na3 O23 2.378580 1_556
Na3 O16 2.389959 1_555
Na3 O17 2.393231 1_556
Na3 O6 2.578693 1_655
Na3 O7 2.579805 1_656
Na3 O19 2.836030 1_646
Na3 O18 2.846139 1_645
Al0 O1 1.757982 1_556
Al0 O23 1.764749 1_556
Al0 O0 1.766270 1_555
Al0 O8 1.768090 1_655
Al1 O2 1.757982 1_555
Al1 O22 1.764749 1_555
Al1 O3 1.766270 1_555
Al1 O9 1.768090 1_555
Al2 O10 1.740890 1_555
Al2 O14 1.761382 1_655
Al2 O4 1.763743 1_555
Al2 O20 1.770097 1_565
Al3 O11 1.732301 1_555
Al3 O5 1.755712 1_555
Al3 O15 1.765446 1_655
Al3 O21 1.779252 1_565
Al4 O12 1.732301 1_555
Al4 O6 1.755712 1_555
Al4 O16 1.765446 1_555
Al4 O18 1.779252 1_545
Al5 O13 1.740890 1_555
Al5 O17 1.761382 1_555
Al5 O7 1.763743 1_555
Al5 O19 1.770097 1_545
O0 Si2 1.639625 1_555
O1 Si3 1.633980 1_555
O2 Si4 1.633980 1_555
O3 Si5 1.639625 1_555
O4 Si0 1.640074 1_555
O5 Si0 1.639542 1_555
O6 Si1 1.639542 1_556
O7 Si1 1.640074 1_555
O8 Si1 1.642447 1_556
O9 Si0 1.642447 1_555
O10 Si2 1.621230 1_555
O11 Si3 1.618055 1_555
O12 Si4 1.618055 1_555
O13 Si5 1.621230 1_555
O14 Si4 1.651732 1_565
O15 Si5 1.645423 1_565
O16 Si2 1.645423 1_545
O17 Si3 1.651732 1_545
O18 Si2 1.644440 1_455
O19 Si3 1.644114 1_455
O20 Si4 1.644114 1_555
O21 Si5 1.644440 1_555
O22 Si0 1.641114 1_455
O23 Si1 1.641114 1_555
O24 Rb1 2.848682 1_555
O24 Rb1 2.854834 1_455
O25 Rb0 2.848682 1_655
O25 Rb0 2.854834 1_555
