# generated using pymatgen
data_KSm2Br5
_symmetry_space_group_name_H-M   'P 1'
_cell_length_a   7.52417300
_cell_length_b   9.14316300
_cell_length_c   14.05762515
_cell_angle_alpha   89.92782200
_cell_angle_beta   90.00000000
_cell_angle_gamma   90.00000000
_symmetry_Int_Tables_number   1
_chemical_formula_structural   KSm2Br5
_chemical_formula_sum   'K4 Sm8 Br20'
_cell_volume   967.08990267
_cell_formula_units_Z   4
loop_
 _symmetry_equiv_pos_site_id
 _symmetry_equiv_pos_as_xyz
  1  'x, y, z'
loop_
 _atom_site_type_symbol
 _atom_site_label
 _atom_site_symmetry_multiplicity
 _atom_site_fract_x
 _atom_site_fract_y
 _atom_site_fract_z
 _atom_site_occupancy
  K  K0  1  0.05886400  0.49781900  0.33931100  1
  K  K1  1  0.94113600  0.50218100  0.66068900  1
  K  K2  1  0.55886400  0.50218100  0.16068900  1
  K  K3  1  0.44113600  0.49781900  0.83931100  1
  Sm  Sm0  1  0.10967500  0.99155800  0.34435700  1
  Sm  Sm1  1  0.89032500  0.00844200  0.65564300  1
  Sm  Sm2  1  0.60967500  0.00844200  0.15564300  1
  Sm  Sm3  1  0.39032500  0.99155800  0.84435700  1
  Sm  Sm4  1  0.03217300  0.19971500  0.99880300  1
  Sm  Sm5  1  0.96782700  0.80028500  0.00119700  1
  Sm  Sm6  1  0.53217300  0.80028500  0.50119700  1
  Sm  Sm7  1  0.46782700  0.19971500  0.49880300  1
  Br  Br0  1  0.17611700  0.52897200  0.07382500  1
  Br  Br1  1  0.82388300  0.47102800  0.92617500  1
  Br  Br2  1  0.67611700  0.47102800  0.42617500  1
  Br  Br3  1  0.32388300  0.52897200  0.57382500  1
  Br  Br4  1  0.85581100  0.25077200  0.18512100  1
  Br  Br5  1  0.14418900  0.74922800  0.81487900  1
  Br  Br6  1  0.35581100  0.74922800  0.31487900  1
  Br  Br7  1  0.64418900  0.25077200  0.68512100  1
  Br  Br8  1  0.34048800  0.24018900  0.29369700  1
  Br  Br9  1  0.65951200  0.75981100  0.70630300  1
  Br  Br10  1  0.84048800  0.75981100  0.20630300  1
  Br  Br11  1  0.15951200  0.24018900  0.79369700  1
  Br  Br12  1  0.45198300  0.20845600  0.00022800  1
  Br  Br13  1  0.54801700  0.79154400  0.99977200  1
  Br  Br14  1  0.95198300  0.79154400  0.49977200  1
  Br  Br15  1  0.04801700  0.20845600  0.50022800  1
  Br  Br16  1  0.69376300  0.02512000  0.36596200  1
  Br  Br17  1  0.30623700  0.97488000  0.63403800  1
  Br  Br18  1  0.19376300  0.97488000  0.13403800  1
  Br  Br19  1  0.80623700  0.02512000  0.86596200  1
loop_
_geom_bond_atom_site_label_1
_geom_bond_atom_site_label_2
_geom_bond_distance
_geom_bond_site_symmetry_2
Br0 Sm5 3.105774 1_455
Br0 K2 3.137499 1_555
Br0 Sm4 3.369878 1_554
Br0 K0 3.845176 1_555
Br0 K3 3.863680 1_554
Br1 Sm4 3.105774 1_655
Br1 K3 3.137499 1_555
Br1 Sm5 3.369878 1_556
Br1 K1 3.845176 1_555
Br1 K2 3.863680 1_556
Br2 Sm7 3.105774 1_555
Br2 K0 3.137499 1_655
Br2 Sm6 3.369878 1_555
Br2 K2 3.845176 1_555
Br2 K1 3.863680 1_555
Br3 Sm6 3.105774 1_555
Br3 K1 3.137499 1_455
Br3 Sm7 3.369878 1_555
Br3 K3 3.845176 1_555
Br3 K0 3.863680 1_555
Br4 Sm2 2.917702 1_555
Br4 Sm4 2.973554 1_654
Br4 K2 3.223644 1_555
Br4 K0 3.485243 1_655
Br4 Sm0 3.776644 1_645
Br5 Sm3 2.917702 1_555
Br5 Sm5 2.973554 1_456
Br5 K3 3.223644 1_555
Br5 K1 3.485243 1_455
Br5 Sm1 3.776644 1_465
Br6 Sm0 2.917702 1_555
Br6 Sm6 2.973554 1_555
Br6 K0 3.223644 1_555
Br6 K2 3.485243 1_555
Br6 Sm2 3.776644 1_565
Br7 Sm1 2.917702 1_555
Br7 Sm7 2.973554 1_555
Br7 K1 3.223644 1_555
Br7 K3 3.485243 1_555
Br7 Sm3 3.776644 1_545
Br8 Sm0 2.947357 1_545
Br8 Sm7 3.060341 1_555
Br8 K0 3.233220 1_555
Br8 K2 3.452921 1_555
Br8 Sm2 3.516923 1_555
Br9 Sm1 2.947357 1_565
Br9 Sm6 3.060341 1_555
Br9 K1 3.233220 1_555
Br9 K3 3.452921 1_555
Br9 Sm3 3.516923 1_555
Br10 Sm2 2.947357 1_565
Br10 Sm5 3.060341 1_555
Br10 K2 3.233220 1_555
Br10 K0 3.452921 1_655
Br10 Sm0 3.516923 1_655
Br11 Sm3 2.947357 1_545
Br11 Sm4 3.060341 1_555
Br11 K3 3.233220 1_555
Br11 K1 3.452921 1_455
Br11 Sm1 3.516923 1_455
Br12 Sm3 2.993367 1_544
Br12 Sm2 3.084686 1_555
Br12 Sm4 3.159798 1_554
Br12 K3 3.479715 1_554
Br12 K2 3.600345 1_555
Br13 Sm2 2.993367 1_566
Br13 Sm3 3.084686 1_555
Br13 Sm5 3.159798 1_556
Br13 K2 3.479715 1_556
Br13 K3 3.600345 1_555
Br14 Sm1 2.993367 1_565
Br14 Sm0 3.084686 1_655
Br14 Sm6 3.159798 1_555
Br14 K1 3.479715 1_555
Br14 K0 3.600345 1_655
Br15 Sm0 2.993367 1_545
Br15 Sm1 3.084686 1_455
Br15 Sm7 3.159798 1_555
Br15 K0 3.479715 1_555
Br15 K1 3.600345 1_455
Br16 Sm7 2.988825 1_555
Br16 Sm2 3.027555 1_555
Br16 Sm6 3.050972 1_545
Br16 Sm0 3.159074 1_645
Br17 Sm6 2.988825 1_555
Br17 Sm3 3.027555 1_555
Br17 Sm7 3.050972 1_565
Br17 Sm1 3.159074 1_465
Br18 Sm5 2.988825 1_455
Br18 Sm0 3.027555 1_555
Br18 Sm4 3.050972 1_564
Br18 Sm2 3.159074 1_565
Br19 Sm4 2.988825 1_655
Br19 Sm1 3.027555 1_555
Br19 Sm5 3.050972 1_546
Br19 Sm3 3.159074 1_545
