# generated using pymatgen
data_Ba2Mn2ClF7
_symmetry_space_group_name_H-M   'P 1'
_cell_length_a   6.00767000
_cell_length_b   7.99298300
_cell_length_c   9.19842344
_cell_angle_alpha   73.13557303
_cell_angle_beta   90.00000000
_cell_angle_gamma   90.00000000
_symmetry_Int_Tables_number   1
_chemical_formula_structural   Ba2Mn2ClF7
_chemical_formula_sum   'Ba4 Mn4 Cl2 F14'
_cell_volume   422.70513122
_cell_formula_units_Z   2
loop_
 _symmetry_equiv_pos_site_id
 _symmetry_equiv_pos_as_xyz
  1  'x, y, z'
loop_
 _atom_site_type_symbol
 _atom_site_label
 _atom_site_symmetry_multiplicity
 _atom_site_fract_x
 _atom_site_fract_y
 _atom_site_fract_z
 _atom_site_occupancy
  Ba  Ba0  1  0.25000000  0.34063400  0.91051700  1
  Ba  Ba1  1  0.75000000  0.65936600  0.08948300  1
  Ba  Ba2  1  0.25000000  0.30997400  0.42467000  1
  Ba  Ba3  1  0.75000000  0.69002600  0.57533000  1
  Mn  Mn0  1  0.25000000  0.81656600  0.32476700  1
  Mn  Mn1  1  0.75000000  0.18343400  0.67523300  1
  Mn  Mn2  1  0.25000000  0.82626700  0.76637300  1
  Mn  Mn3  1  0.75000000  0.17373300  0.23362700  1
  Cl  Cl0  1  0.25000000  0.88512800  0.02962100  1
  Cl  Cl1  1  0.75000000  0.11487200  0.97037900  1
  F  F0  1  0.99774500  0.99422200  0.33266000  1
  F  F1  1  0.00225500  0.00577800  0.66734000  1
  F  F2  1  0.49774500  0.00577800  0.66734000  1
  F  F3  1  0.50225500  0.99422200  0.33266000  1
  F  F4  1  0.00357300  0.36704200  0.15217600  1
  F  F5  1  0.99642700  0.63295800  0.84782400  1
  F  F6  1  0.50357300  0.63295800  0.84782400  1
  F  F7  1  0.49642700  0.36704200  0.15217600  1
  F  F8  1  0.25000000  0.73958100  0.56769000  1
  F  F9  1  0.75000000  0.26041900  0.43231000  1
  F  F10  1  0.49969200  0.62462100  0.33938800  1
  F  F11  1  0.50030800  0.37537900  0.66061200  1
  F  F12  1  0.99969200  0.37537900  0.66061200  1
  F  F13  1  0.00030800  0.62462100  0.33938800  1
loop_
_geom_bond_atom_site_label_1
_geom_bond_atom_site_label_2
_geom_bond_distance
_geom_bond_site_symmetry_2
Ba0 F12 2.692992 1_455
Ba0 F11 2.692992 1_555
Ba0 F6 2.707559 1_555
Ba0 F5 2.707559 1_455
Ba0 F4 2.729420 1_556
Ba0 F7 2.729420 1_556
Ba0 Cl1 3.464963 1_555
Ba0 Cl1 3.464963 1_455
Ba0 Cl0 3.484495 1_546
Ba1 F13 2.692992 1_655
Ba1 F10 2.692992 1_555
Ba1 F7 2.707559 1_555
Ba1 F4 2.707559 1_655
Ba1 F6 2.729420 1_554
Ba1 F5 2.729420 1_554
Ba1 Cl0 3.464963 1_655
Ba1 Cl0 3.464963 1_555
Ba1 Cl1 3.484495 1_564
Ba2 F11 2.811246 1_555
Ba2 F12 2.811246 1_455
Ba2 F4 2.831792 1_555
Ba2 F7 2.831792 1_555
Ba2 F13 2.836537 1_555
Ba2 F10 2.836537 1_555
Ba2 F9 3.027986 1_455
Ba2 F9 3.027986 1_555
Ba2 F2 3.156055 1_555
Ba2 F1 3.156055 1_555
Ba2 F3 3.259118 1_545
Ba2 F0 3.259118 1_445
Ba3 F10 2.811246 1_555
Ba3 F13 2.811246 1_655
Ba3 F6 2.831792 1_555
Ba3 F5 2.831792 1_555
Ba3 F11 2.836537 1_555
Ba3 F12 2.836537 1_555
Ba3 F8 3.027986 1_555
Ba3 F8 3.027986 1_655
Ba3 F0 3.156055 1_555
Ba3 F3 3.156055 1_555
Ba3 F1 3.259118 1_665
Ba3 F2 3.259118 1_565
Cl0 Mn2 2.597278 1_554
Cl0 Mn0 2.609146 1_555
Cl1 Mn3 2.597278 1_556
Cl1 Mn1 2.609146 1_555
F0 Mn3 2.084570 1_565
F0 Mn0 2.092397 1_655
F1 Mn2 2.084570 1_545
F1 Mn1 2.092397 1_455
F2 Mn2 2.084570 1_545
F2 Mn1 2.092397 1_555
F3 Mn3 2.084570 1_565
F3 Mn0 2.092397 1_555
F4 Mn3 2.144232 1_455
F5 Mn2 2.144232 1_655
F6 Mn2 2.144232 1_555
F7 Mn3 2.144232 1_555
F8 Mn2 2.134201 1_555
F8 Mn0 2.138664 1_555
F9 Mn3 2.134201 1_555
F9 Mn1 2.138664 1_555
F10 Mn0 2.121881 1_555
F11 Mn1 2.121881 1_555
F12 Mn1 2.121881 1_555
F13 Mn0 2.121881 1_555
