# generated using pymatgen
data_ZnCu2GeTe4
_symmetry_space_group_name_H-M   'P 1'
_cell_length_a   7.41406973
_cell_length_b   7.41406973
_cell_length_c   7.41406973
_cell_angle_alpha   131.47415086
_cell_angle_beta   131.47415086
_cell_angle_gamma   71.06082725
_symmetry_Int_Tables_number   1
_chemical_formula_structural   ZnCu2GeTe4
_chemical_formula_sum   'Zn1 Cu2 Ge1 Te4'
_cell_volume   224.01422377
_cell_formula_units_Z   1
loop_
 _symmetry_equiv_pos_site_id
 _symmetry_equiv_pos_as_xyz
  1  'x, y, z'
loop_
 _atom_site_type_symbol
 _atom_site_label
 _atom_site_symmetry_multiplicity
 _atom_site_fract_x
 _atom_site_fract_y
 _atom_site_fract_z
 _atom_site_occupancy
  Zn  Zn0  1  0.00000000  0.00000000  0.00000000  1
  Cu  Cu0  1  0.75000000  0.25000000  0.50000000  1
  Cu  Cu1  1  0.25000000  0.75000000  0.50000000  1
  Ge  Ge0  1  0.50000000  0.50000000  0.00000000  1
  Te  Te0  1  0.38448500  0.38448500  0.50251000  1
  Te  Te1  1  0.61551500  0.11802500  0.00000000  1
  Te  Te2  1  0.11802500  0.61551500  0.00000000  1
  Te  Te3  1  0.88197500  0.88197500  0.49749000  1
loop_
_geom_bond_atom_site_label_1
_geom_bond_atom_site_label_2
_geom_bond_distance
_geom_bond_site_symmetry_2
Cu0 Te2 2.574221 1_656
Cu0 Te1 2.574221 1_555
Cu0 Te3 2.574221 1_545
Cu0 Te0 2.574221 1_555
Cu1 Te1 2.574221 1_566
Cu1 Te2 2.574221 1_555
Cu1 Te3 2.574221 1_455
Cu1 Te0 2.574221 1_555
Ge0 Te0 2.679410 1_554
Ge0 Te3 2.679410 1_555
Ge0 Te2 2.679410 1_555
Ge0 Te1 2.679410 1_555
Te0 Zn0 2.696744 1_555
Te1 Zn0 2.696744 1_655
Te2 Zn0 2.696744 1_565
Te3 Zn0 2.696744 1_666
