# generated using pymatgen
data_Sr2AlCoCu2O7
_symmetry_space_group_name_H-M   'P 1'
_cell_length_a   5.32656338
_cell_length_b   5.39079633
_cell_length_c   12.07124501
_cell_angle_alpha   102.92915765
_cell_angle_beta   102.68669466
_cell_angle_gamma   90.05619603
_symmetry_Int_Tables_number   1
_chemical_formula_structural   Sr2AlCoCu2O7
_chemical_formula_sum   'Sr4 Al2 Co2 Cu4 O14'
_cell_volume   329.12498297
_cell_formula_units_Z   2
loop_
 _symmetry_equiv_pos_site_id
 _symmetry_equiv_pos_as_xyz
  1  'x, y, z'
loop_
 _atom_site_type_symbol
 _atom_site_label
 _atom_site_symmetry_multiplicity
 _atom_site_fract_x
 _atom_site_fract_y
 _atom_site_fract_z
 _atom_site_occupancy
  Sr  Sr0  1  0.33911800  0.33726100  0.69965900  1
  Sr  Sr1  1  0.64052800  0.66137400  0.30180400  1
  Sr  Sr2  1  0.83843800  0.86113400  0.69981500  1
  Sr  Sr3  1  0.14079200  0.13730500  0.30182600  1
  Al  Al0  1  0.98368500  0.99933300  0.00067000  1
  Al  Al1  1  0.48410800  0.49835500  0.00052200  1
  Co  Co0  1  0.27350400  0.68512200  0.50057100  1
  Co  Co1  1  0.77367400  0.31275100  0.50073400  1
  Cu  Cu0  1  0.92363000  0.44188000  0.88260800  1
  Cu  Cu1  1  0.04178700  0.55736500  0.11881600  1
  Cu  Cu2  1  0.42338900  0.93950900  0.88271200  1
  Cu  Cu3  1  0.54196300  0.05932100  0.11917500  1
  O  O0  1  0.13641200  0.35216700  0.50074900  1
  O  O1  1  0.63615100  0.64523700  0.50070000  1
  O  O2  1  0.24959600  0.26706900  0.89214600  1
  O  O3  1  0.35820700  0.73174800  0.10835700  1
  O  O4  1  0.74964200  0.12431600  0.89340200  1
  O  O5  1  0.85799500  0.87572800  0.10895400  1
  O  O6  1  0.60369200  0.62116700  0.89049600  1
  O  O7  1  0.71367000  0.37798400  0.11139200  1
  O  O8  1  0.10357600  0.76889900  0.89012000  1
  O  O9  1  0.21456600  0.23076900  0.11095600  1
  O  O10  1  0.29595800  0.85199400  0.65332800  1
  O  O11  1  0.64570900  0.14658500  0.34756300  1
  O  O12  1  0.79563600  0.30107500  0.65387800  1
  O  O13  1  0.14553400  0.69745200  0.34730100  1
loop_
_geom_bond_atom_site_label_1
_geom_bond_atom_site_label_2
_geom_bond_distance
_geom_bond_site_symmetry_2
Al0 O8 1.834619 1_654
Al0 O4 1.835142 1_564
Al0 O5 1.836859 1_555
Al0 O9 1.837364 1_665
Al1 O6 1.836378 1_554
Al1 O2 1.837286 1_554
Al1 O7 1.838142 1_555
Al1 O3 1.838304 1_555
Co0 O10 1.839667 1_555
Co0 O13 1.842096 1_555
Co0 O0 1.937711 1_555
Co0 O1 1.943501 1_555
Co1 O11 1.841127 1_555
Co1 O12 1.841795 1_555
Co1 O1 1.936991 1_555
Co1 O0 1.943544 1_655
Cu0 O2 1.969756 1_655
Cu0 O6 1.969951 1_555
Cu0 O8 1.980328 1_655
Cu0 O4 1.989041 1_555
Cu0 O12 2.626540 1_555
Cu1 O3 1.970737 1_555
Cu1 O7 1.971503 1_455
Cu1 O9 1.980537 1_555
Cu1 O5 1.990365 1_455
Cu1 O13 2.623057 1_555
Cu2 O8 1.963786 1_555
Cu2 O4 1.967163 1_565
Cu2 O6 1.977877 1_555
Cu2 O2 1.986840 1_565
Cu2 O10 2.634321 1_555
Cu3 O5 1.966805 1_545
Cu3 O9 1.968109 1_555
Cu3 O7 1.975656 1_555
Cu3 O3 1.982595 1_545
Cu3 O11 2.622455 1_555
O0 Sr0 2.425959 1_555
O0 Sr3 2.426559 1_555
O1 Sr1 2.427053 1_555
O1 Sr2 2.429167 1_555
O2 Sr0 2.578611 1_555
O3 Sr1 2.591016 1_555
O4 Sr2 2.588545 1_545
O5 Sr3 2.581523 1_665
O6 Sr0 2.574346 1_555
O7 Sr1 2.567481 1_555
O8 Sr2 2.570301 1_455
O9 Sr3 2.575588 1_555
O10 Sr0 2.548845 1_565
O10 Sr2 2.616272 1_455
O10 Sr2 2.818150 1_555
O10 Sr0 2.950339 1_555
O11 Sr1 2.548380 1_545
O11 Sr3 2.622165 1_555
O11 Sr3 2.808732 1_655
O11 Sr1 2.947302 1_555
O12 Sr2 2.553065 1_545
O12 Sr0 2.607573 1_555
O12 Sr0 2.823438 1_655
O12 Sr2 2.944275 1_555
O13 Sr3 2.549678 1_565
O13 Sr1 2.622506 1_455
O13 Sr1 2.807213 1_555
O13 Sr3 2.944858 1_555
