# generated using pymatgen
data_Cs6Ge2O7
_symmetry_space_group_name_H-M   'P 1'
_cell_length_a   9.83757994
_cell_length_b   7.22809753
_cell_length_c   12.12290253
_cell_angle_alpha   54.56298108
_cell_angle_beta   90.00000000
_cell_angle_gamma   90.00000000
_symmetry_Int_Tables_number   1
_chemical_formula_structural   Cs6Ge2O7
_chemical_formula_sum   'Cs12 Ge4 O14'
_cell_volume   702.33618915
_cell_formula_units_Z   2
loop_
 _symmetry_equiv_pos_site_id
 _symmetry_equiv_pos_as_xyz
  1  'x, y, z'
loop_
 _atom_site_type_symbol
 _atom_site_label
 _atom_site_symmetry_multiplicity
 _atom_site_fract_x
 _atom_site_fract_y
 _atom_site_fract_z
 _atom_site_occupancy
  Cs  Cs0  1  0.77994669  0.60988252  0.27574876  1
  Cs  Cs1  1  0.64588982  0.97363497  0.91030789  1
  Cs  Cs2  1  0.52541608  0.20748298  0.54442548  1
  Cs  Cs3  1  0.02541608  0.79251702  0.95557452  1
  Cs  Cs4  1  0.27994669  0.39011748  0.22425124  1
  Cs  Cs5  1  0.14588982  0.02636503  0.58969211  1
  Cs  Cs6  1  0.85411018  0.97363497  0.41030789  1
  Cs  Cs7  1  0.72005331  0.60988252  0.77574876  1
  Cs  Cs8  1  0.97458392  0.20748298  0.04442548  1
  Cs  Cs9  1  0.47458392  0.79251702  0.45557452  1
  Cs  Cs10  1  0.35411018  0.02636503  0.08969211  1
  Cs  Cs11  1  0.22005331  0.39011748  0.72425124  1
  Ge  Ge0  1  0.86669594  0.33029837  0.62463017  1
  Ge  Ge1  1  0.36669594  0.66970163  0.87536983  1
  Ge  Ge2  1  0.63330406  0.33029837  0.12463017  1
  Ge  Ge3  1  0.13330406  0.66970163  0.37536983  1
  O  O0  1  0.00000000  0.50000000  0.50000000  1
  O  O1  1  0.07887825  0.73205030  0.21902495  1
  O  O2  1  0.27896891  0.49547227  0.43532713  1
  O  O3  1  0.34340451  0.91514288  0.87170086  1
  O  O4  1  0.84340451  0.08485712  0.62829914  1
  O  O5  1  0.77896891  0.50452773  0.06467287  1
  O  O6  1  0.57887825  0.26794970  0.28097505  1
  O  O7  1  0.50000000  0.50000000  0.00000000  1
  O  O8  1  0.42112175  0.73205030  0.71902495  1
  O  O9  1  0.22103109  0.49547227  0.93532713  1
  O  O10  1  0.15659549  0.91514288  0.37170086  1
  O  O11  1  0.65659549  0.08485712  0.12829914  1
  O  O12  1  0.72103109  0.50452773  0.56467287  1
  O  O13  1  0.92112175  0.26794970  0.78097505  1
loop_
_geom_bond_atom_site_label_1
_geom_bond_atom_site_label_2
_geom_bond_distance
_geom_bond_site_symmetry_2
Cs0 O1 3.032584 1_655
Cs0 O11 3.055811 1_565
Cs0 O5 3.063879 1_555
Cs0 O6 3.137427 1_555
Cs0 O12 3.176634 1_555
Cs0 O0 3.194362 1_655
Cs1 O5 3.058596 1_556
Cs1 O3 3.079317 1_555
Cs1 O11 3.178806 1_566
Cs1 O13 3.232214 1_565
Cs1 O7 3.262774 1_556
Cs1 O4 3.594806 1_565
Cs2 O2 2.961035 1_555
Cs2 O8 2.984530 1_545
Cs2 O12 2.997418 1_555
Cs2 O6 3.008191 1_555
Cs2 O4 3.249656 1_555
Cs3 O5 2.961035 1_456
Cs3 O13 2.984530 1_465
Cs3 O9 2.997418 1_555
Cs3 O1 3.008191 1_556
Cs3 O3 3.249656 1_555
Cs4 O6 3.032584 1_555
Cs4 O10 3.055811 1_545
Cs4 O2 3.063879 1_555
Cs4 O1 3.137427 1_555
Cs4 O9 3.176634 1_554
Cs4 O7 3.194362 1_555
Cs5 O2 3.058596 1_555
Cs5 O4 3.079317 1_455
Cs5 O10 3.178806 1_545
Cs5 O8 3.232214 1_545
Cs5 O0 3.262774 1_555
Cs5 O3 3.594806 1_545
Cs6 O12 3.058596 1_555
Cs6 O10 3.079317 1_655
Cs6 O4 3.178806 1_565
Cs6 O6 3.232214 1_565
Cs6 O0 3.262774 1_655
Cs6 O11 3.594806 1_565
Cs7 O8 3.032584 1_555
Cs7 O4 3.055811 1_565
Cs7 O12 3.063879 1_555
Cs7 O13 3.137427 1_555
Cs7 O5 3.176634 1_556
Cs7 O7 3.194362 1_556
Cs8 O9 2.961035 1_654
Cs8 O1 2.984530 1_645
Cs8 O5 2.997418 1_555
Cs8 O13 3.008191 1_554
Cs8 O11 3.249656 1_555
Cs9 O12 2.961035 1_555
Cs9 O6 2.984530 1_565
Cs9 O2 2.997418 1_555
Cs9 O8 3.008191 1_555
Cs9 O10 3.249656 1_555
Cs10 O9 3.058596 1_554
Cs10 O11 3.079317 1_555
Cs10 O3 3.178806 1_544
Cs10 O1 3.232214 1_545
Cs10 O7 3.262774 1_555
Cs10 O10 3.594806 1_545
Cs11 O13 3.032584 1_455
Cs11 O3 3.055811 1_545
Cs11 O9 3.063879 1_555
Cs11 O8 3.137427 1_555
Cs11 O2 3.176634 1_555
Cs11 O0 3.194362 1_555
Ge0 O13 1.758304 1_555
Ge0 O12 1.762459 1_555
Ge0 O4 1.763608 1_555
Ge0 O0 1.832487 1_655
Ge1 O8 1.758304 1_555
Ge1 O9 1.762459 1_555
Ge1 O3 1.763608 1_555
Ge1 O7 1.832487 1_556
Ge2 O6 1.758304 1_555
Ge2 O5 1.762459 1_555
Ge2 O11 1.763608 1_555
Ge2 O7 1.832487 1_555
Ge3 O1 1.758304 1_555
Ge3 O2 1.762459 1_555
Ge3 O10 1.763608 1_555
Ge3 O0 1.832487 1_555
