# generated using pymatgen
data_BaHfMg6
_symmetry_space_group_name_H-M   'P 1'
_cell_length_a   6.73594114
_cell_length_b   6.73594114
_cell_length_c   5.36839500
_cell_angle_alpha   90.00000000
_cell_angle_beta   90.00000000
_cell_angle_gamma   120.05598795
_symmetry_Int_Tables_number   1
_chemical_formula_structural   BaHfMg6
_chemical_formula_sum   'Ba1 Hf1 Mg6'
_cell_volume   210.82706819
_cell_formula_units_Z   1
loop_
 _symmetry_equiv_pos_site_id
 _symmetry_equiv_pos_as_xyz
  1  'x, y, z'
loop_
 _atom_site_type_symbol
 _atom_site_label
 _atom_site_symmetry_multiplicity
 _atom_site_fract_x
 _atom_site_fract_y
 _atom_site_fract_z
 _atom_site_occupancy
  Ba  Ba0  1  0.16651400  0.83348600  0.00000000  1
  Hf  Hf0  1  0.34566600  0.65433400  0.50000000  1
  Mg  Mg0  1  0.17984000  0.35073700  0.00000000  1
  Mg  Mg1  1  0.64926300  0.82016000  0.00000000  1
  Mg  Mg2  1  0.66607700  0.33392300  0.00000000  1
  Mg  Mg3  1  0.34096700  0.18400300  0.50000000  1
  Mg  Mg4  1  0.81599700  0.65903300  0.50000000  1
  Mg  Mg5  1  0.83567600  0.16432400  0.50000000  1
loop_
_geom_bond_atom_site_label_1
_geom_bond_atom_site_label_2
_geom_bond_distance
_geom_bond_site_symmetry_2
Ba0 Mg1 3.297642 1_555
Ba0 Mg0 3.297642 1_555
Ba0 Mg2 3.365124 1_565
Ba0 Mg2 3.365124 1_455
Ba0 Mg3 3.373605 1_564
Ba0 Mg3 3.373605 1_565
Ba0 Mg4 3.373605 1_455
Ba0 Mg4 3.373605 1_454
Ba0 Hf0 3.402377 1_555
Ba0 Hf0 3.402377 1_554
Ba0 Mg0 3.440092 1_565
Ba0 Mg1 3.440092 1_455
Hf0 Mg3 3.152388 1_555
Hf0 Mg4 3.152388 1_555
Hf0 Mg1 3.216603 1_555
Hf0 Mg1 3.216603 1_556
Hf0 Mg0 3.216603 1_556
Hf0 Mg0 3.216603 1_555
Hf0 Mg5 3.367139 1_455
Hf0 Mg5 3.367139 1_565
Hf0 Mg4 3.583777 1_455
Hf0 Mg3 3.583777 1_565
Mg0 Mg1 3.159329 1_555
Mg0 Mg3 3.296253 1_555
Mg0 Mg3 3.296253 1_554
Mg0 Mg2 3.333430 1_555
Mg0 Mg5 3.352624 1_454
Mg0 Mg5 3.352624 1_455
Mg0 Mg2 3.405364 1_455
Mg1 Mg4 3.296253 1_554
Mg1 Mg4 3.296253 1_555
Mg1 Mg2 3.333430 1_555
Mg1 Mg5 3.352624 1_565
Mg1 Mg5 3.352624 1_564
Mg1 Mg2 3.405364 1_565
Mg2 Mg3 3.287132 1_555
Mg2 Mg3 3.287132 1_554
Mg2 Mg4 3.287132 1_554
Mg2 Mg4 3.287132 1_555
Mg2 Mg5 3.335029 1_554
Mg2 Mg5 3.335029 1_555
Mg3 Mg4 3.197066 1_555
Mg3 Mg5 3.339192 1_455
Mg3 Mg5 3.400657 1_555
Mg3 Mg4 3.533174 1_445
Mg4 Mg5 3.339192 1_565
Mg4 Mg5 3.400657 1_555
