# generated using pymatgen
data_ZnNiP2WO9
_symmetry_space_group_name_H-M   'P 1'
_cell_length_a   6.46817200
_cell_length_b   7.68592400
_cell_length_c   14.51003800
_cell_angle_alpha   90.00000000
_cell_angle_beta   90.00000000
_cell_angle_gamma   90.00000000
_symmetry_Int_Tables_number   1
_chemical_formula_structural   ZnNiP2WO9
_chemical_formula_sum   'Zn4 Ni4 P8 W4 O36'
_cell_volume   721.35026487
_cell_formula_units_Z   4
loop_
 _symmetry_equiv_pos_site_id
 _symmetry_equiv_pos_as_xyz
  1  'x, y, z'
loop_
 _atom_site_type_symbol
 _atom_site_label
 _atom_site_symmetry_multiplicity
 _atom_site_fract_x
 _atom_site_fract_y
 _atom_site_fract_z
 _atom_site_occupancy
  Zn  Zn0  1  0.24787500  0.72013900  0.31629500  1
  Zn  Zn1  1  0.25212500  0.27986100  0.81629500  1
  Zn  Zn2  1  0.74787500  0.77986100  0.68370500  1
  Zn  Zn3  1  0.75212500  0.22013900  0.18370500  1
  Ni  Ni0  1  0.99852600  0.75047500  0.50028100  1
  Ni  Ni1  1  0.00147400  0.25047500  0.99971900  1
  Ni  Ni2  1  0.50147400  0.24952500  0.00028100  1
  Ni  Ni3  1  0.49852600  0.74952500  0.49971900  1
  P  P0  1  0.75296600  0.09793900  0.42870900  1
  P  P1  1  0.25296600  0.40206100  0.57129100  1
  P  P2  1  0.24703400  0.59793900  0.07129100  1
  P  P3  1  0.74703400  0.90206100  0.92870900  1
  P  P4  1  0.25176800  0.12698100  0.19040300  1
  P  P5  1  0.75176800  0.37301900  0.80959700  1
  P  P6  1  0.74823200  0.62698100  0.30959700  1
  P  P7  1  0.24823200  0.87301900  0.69040300  1
  W  W0  1  0.25199500  0.11383100  0.38262800  1
  W  W1  1  0.75199500  0.38616900  0.61737200  1
  W  W2  1  0.74800500  0.61383100  0.11737200  1
  W  W3  1  0.24800500  0.88616900  0.88262800  1
  O  O0  1  0.54853700  0.36784700  0.86797200  1
  O  O1  1  0.04853700  0.13215300  0.13202800  1
  O  O2  1  0.45146300  0.86784700  0.63202800  1
  O  O3  1  0.95146300  0.63215300  0.36797200  1
  O  O4  1  0.45496600  0.13425700  0.13276300  1
  O  O5  1  0.95496600  0.36574300  0.86723700  1
  O  O6  1  0.54503400  0.63425700  0.36723700  1
  O  O7  1  0.04503400  0.86574300  0.63276300  1
  O  O8  1  0.75056300  0.08583500  0.97311000  1
  O  O9  1  0.25056300  0.41416500  0.02689000  1
  O  O10  1  0.24943700  0.58583500  0.52689000  1
  O  O11  1  0.74943700  0.91416500  0.47311000  1
  O  O12  1  0.24850900  0.87210500  0.43505600  1
  O  O13  1  0.74850900  0.62789500  0.56494400  1
  O  O14  1  0.75149100  0.37210500  0.06494400  1
  O  O15  1  0.25149100  0.12789500  0.93505600  1
  O  O16  1  0.25150000  0.95925500  0.25389000  1
  O  O17  1  0.75150000  0.54074500  0.74611000  1
  O  O18  1  0.74850000  0.45925500  0.24611000  1
  O  O19  1  0.24850000  0.04074500  0.75389000  1
  O  O20  1  0.93478300  0.87327900  0.86521100  1
  O  O21  1  0.43478300  0.62672100  0.13478900  1
  O  O22  1  0.06521700  0.37327900  0.63478900  1
  O  O23  1  0.56521700  0.12672100  0.36521100  1
  O  O24  1  0.06745700  0.62542700  0.13627800  1
  O  O25  1  0.56745700  0.87457300  0.86372200  1
  O  O26  1  0.93254300  0.12542700  0.36372200  1
  O  O27  1  0.43254300  0.37457300  0.63627800  1
  O  O28  1  0.25122400  0.72799900  0.76487800  1
  O  O29  1  0.75122400  0.77200100  0.23512200  1
  O  O30  1  0.74877600  0.22799900  0.73512200  1
  O  O31  1  0.24877600  0.27200100  0.26487800  1
  O  O32  1  0.24857500  0.73260200  0.99240200  1
  O  O33  1  0.74857500  0.76739800  0.00759800  1
  O  O34  1  0.75142500  0.23260200  0.50759800  1
  O  O35  1  0.25142500  0.26739800  0.49240200  1
loop_
_geom_bond_atom_site_label_1
_geom_bond_atom_site_label_2
_geom_bond_distance
_geom_bond_site_symmetry_2
Ni0 O11 2.081845 1_555
Ni0 O13 2.093597 1_555
Ni0 O12 2.093825 1_655
Ni0 O10 2.093861 1_655
Ni0 O7 2.137918 1_655
Ni0 O3 2.146011 1_555
Ni1 O9 2.081845 1_556
Ni1 O15 2.093597 1_555
Ni1 O14 2.093825 1_456
Ni1 O8 2.093861 1_455
Ni1 O5 2.137918 1_455
Ni1 O1 2.146011 1_556
Ni2 O8 2.081845 1_554
Ni2 O14 2.093597 1_555
Ni2 O15 2.093825 1_554
Ni2 O9 2.093861 1_555
Ni2 O4 2.137918 1_555
Ni2 O0 2.146011 1_554
Ni3 O10 2.081845 1_555
Ni3 O12 2.093597 1_555
Ni3 O13 2.093825 1_555
Ni3 O11 2.093861 1_555
Ni3 O6 2.137918 1_555
Ni3 O2 2.146011 1_555
O0 P5 1.564297 1_555
O0 Zn1 2.166886 1_555
O1 P4 1.564297 1_555
O1 Zn3 2.166886 1_455
O2 P7 1.564297 1_555
O2 Zn2 2.166886 1_555
O3 P6 1.564297 1_555
O3 Zn0 2.166886 1_655
O4 P4 1.558865 1_555
O4 Zn3 2.162512 1_555
O5 P5 1.558865 1_555
O5 Zn1 2.162512 1_655
O6 P6 1.558865 1_555
O6 Zn0 2.162512 1_555
O7 P7 1.558865 1_555
O7 Zn2 2.162512 1_455
O8 P3 1.552634 1_545
O9 P2 1.552634 1_555
O10 P1 1.552634 1_555
O11 P0 1.552634 1_565
O12 W0 2.007727 1_565
O12 Zn0 2.081766 1_555
O13 W1 2.007727 1_555
O13 Zn2 2.081766 1_555
O14 W2 2.007727 1_555
O14 Zn3 2.081766 1_555
O15 W3 2.007727 1_545
O15 Zn1 2.081766 1_555
O16 P4 1.584445 1_565
O16 Zn0 2.048924 1_555
O16 W0 2.213796 1_565
O17 P5 1.584445 1_555
O17 Zn2 2.048924 1_555
O17 W1 2.213796 1_555
O18 P6 1.584445 1_555
O18 Zn3 2.048924 1_555
O18 W2 2.213796 1_555
O19 P7 1.584445 1_545
O19 Zn1 2.048924 1_555
O19 W3 2.213796 1_545
O20 P3 1.540321 1_555
O20 W3 2.044078 1_655
O21 P2 1.540321 1_555
O21 W2 2.044078 1_555
O22 P1 1.540321 1_555
O22 W1 2.044078 1_455
O23 P0 1.540321 1_555
O23 W0 2.044078 1_555
O24 P2 1.510953 1_555
O24 W2 2.086306 1_455
O25 P3 1.510953 1_555
O25 W3 2.086306 1_555
O26 P0 1.510953 1_555
O26 W0 2.086306 1_655
O27 P1 1.510953 1_555
O27 W1 2.086306 1_555
O28 P7 1.552581 1_555
O28 W3 2.097018 1_555
O29 P6 1.552581 1_555
O29 W2 2.097018 1_555
O30 P5 1.552581 1_555
O30 W1 2.097018 1_555
O31 P4 1.552581 1_555
O31 W0 2.097018 1_555
O32 P2 1.543257 1_556
O32 W3 1.982479 1_555
O33 P3 1.543257 1_554
O33 W2 1.982479 1_555
O34 P0 1.543257 1_555
O34 W1 1.982479 1_555
O35 P1 1.543257 1_555
O35 W0 1.982479 1_555
