# generated using pymatgen
data_Ce4ZrCo25
_symmetry_space_group_name_H-M   'P 1'
_cell_length_a   4.00569073
_cell_length_b   4.85437428
_cell_length_c   21.19516167
_cell_angle_alpha   96.43421041
_cell_angle_beta   89.99720571
_cell_angle_gamma   90.01281617
_symmetry_Int_Tables_number   1
_chemical_formula_structural   Ce4ZrCo25
_chemical_formula_sum   'Ce4 Zr1 Co25'
_cell_volume   409.54648542
_cell_formula_units_Z   1
loop_
 _symmetry_equiv_pos_site_id
 _symmetry_equiv_pos_as_xyz
  1  'x, y, z'
loop_
 _atom_site_type_symbol
 _atom_site_label
 _atom_site_symmetry_multiplicity
 _atom_site_fract_x
 _atom_site_fract_y
 _atom_site_fract_z
 _atom_site_occupancy
  Ce  Ce0  1  0.99997895  0.59873617  0.19826739  1
  Ce  Ce1  1  0.00001515  0.20064040  0.40065304  1
  Ce  Ce2  1  0.99997873  0.79986966  0.60013962  1
  Ce  Ce3  1  0.00001567  0.40082189  0.80148430  1
  Zr  Zr0  1  0.00000447  0.99992528  0.99975730  1
  Co  Co0  1  0.00001862  0.06588605  0.13063477  1
  Co  Co1  1  0.99999592  0.66515283  0.33262101  1
  Co  Co2  1  0.99999409  0.26630050  0.53316211  1
  Co  Co3  1  0.99999100  0.86587773  0.73298475  1
  Co  Co4  1  0.00001537  0.46766636  0.93424449  1
  Co  Co5  1  0.99998888  0.53201396  0.06563077  1
  Co  Co6  1  0.00000817  0.13406184  0.26660028  1
  Co  Co7  1  0.00000259  0.73410655  0.46778135  1
  Co  Co8  1  0.00001551  0.33408074  0.66675952  1
  Co  Co9  1  0.99997587  0.93433659  0.86920679  1
  Co  Co10  1  0.49997974  0.09871201  0.19867644  1
  Co  Co11  1  0.49999574  0.70087918  0.40006169  1
  Co  Co12  1  0.50000726  0.29937772  0.60015691  1
  Co  Co13  1  0.50001575  0.90117017  0.80113906  1
  Co  Co14  1  0.50000691  0.49984167  0.99987899  1
  Co  Co15  1  0.49997481  0.28640645  0.09454334  1
  Co  Co16  1  0.50001912  0.90104943  0.29992737  1
  Co  Co17  1  0.49999890  0.50004449  0.50019699  1
  Co  Co18  1  0.49998661  0.09969904  0.70022266  1
  Co  Co19  1  0.50002421  0.71325621  0.90520403  1
  Co  Co20  1  0.49999512  0.80815148  0.09445481  1
  Co  Co21  1  0.49999653  0.39881703  0.29994402  1
  Co  Co22  1  0.50000022  0.00028522  0.50017308  1
  Co  Co23  1  0.50000315  0.60050175  0.70018316  1
  Co  Co24  1  0.49999694  0.19183157  0.90530998  1
loop_
_geom_bond_atom_site_label_1
_geom_bond_atom_site_label_2
_geom_bond_distance
_geom_bond_site_symmetry_2
Ce0 Co5 2.793561 1_555
Ce0 Co0 2.813293 1_655
Ce0 Co6 2.813905 1_655
Ce0 Co0 2.815316 1_665
Ce0 Co6 2.829699 1_665
Ce0 Co1 2.829712 1_555
Ce1 Co2 2.790863 1_455
Ce1 Co7 2.806338 1_545
Ce1 Co1 2.809378 1_455
Ce1 Co7 2.811549 1_555
Ce1 Co6 2.823377 1_555
Ce1 Co1 2.827775 1_445
Ce1 Co22 3.140927 1_455
Ce1 Co22 3.141260 1_555
Ce1 Co17 3.144337 1_555
Ce1 Co11 3.144596 1_445
Ce1 Co17 3.144703 1_455
Ce1 Co11 3.145187 1_545
Ce1 Co11 3.148451 1_555
Ce1 Co11 3.149242 1_455
Ce1 Co21 3.154650 1_555
Ce1 Co21 3.155150 1_455
Ce1 Co16 3.160288 1_445
Ce1 Co16 3.160589 1_545
Ce2 Co7 2.787689 1_655
Ce2 Co8 2.796785 1_655
Ce2 Co3 2.797943 1_555
Ce2 Co2 2.803997 1_565
Ce2 Co8 2.810358 1_665
Ce2 Co2 2.810696 1_555
Ce2 Co12 3.144698 1_665
Ce2 Co12 3.145243 1_565
Ce2 Co23 3.146835 1_555
Ce2 Co23 3.147367 1_655
Ce2 Co22 3.147748 1_665
Ce2 Co22 3.148046 1_565
Ce2 Co12 3.148300 1_555
Ce2 Co12 3.149136 1_655
Ce2 Co17 3.150356 1_555
Ce2 Co17 3.150742 1_655
Ce2 Co18 3.152284 1_665
Ce2 Co18 3.152526 1_565
Ce3 Co4 2.796165 1_555
Ce3 Co9 2.813677 1_445
Ce3 Co9 2.816849 1_455
Ce3 Co3 2.817632 1_455
Ce3 Co3 2.829552 1_445
Ce3 Co8 2.837530 1_555
Co0 Co15 2.433973 1_555
Co0 Co15 2.434717 1_455
Co0 Co20 2.439090 1_445
Co0 Co20 2.439334 1_545
Co0 Co10 2.462641 1_555
Co0 Co10 2.462838 1_455
Co0 Zr0 2.756512 1_544
Co0 Co5 2.777958 1_455
Co0 Co5 2.795434 1_445
Co0 Co6 2.863670 1_555
Co1 Co21 2.441501 1_555
Co1 Co21 2.441924 1_655
Co1 Co16 2.445393 1_655
Co1 Co16 2.445715 1_555
Co1 Co11 2.455405 1_555
Co1 Co11 2.455455 1_655
Co1 Co6 2.792171 1_655
Co1 Co6 2.802381 1_665
Co1 Co7 2.846734 1_655
Co2 Co22 2.442202 1_555
Co2 Co22 2.442660 1_655
Co2 Co7 2.789737 1_655
Co2 Co7 2.791460 1_645
Co2 Co8 2.813807 1_655
Co3 Co8 2.796867 1_655
Co3 Co8 2.801969 1_665
Co3 Co9 2.869075 1_555
Co4 Co5 2.767213 1_456
Co4 Co9 2.780669 1_455
Co4 Zr0 2.791110 1_545
Co4 Zr0 2.792835 1_555
Co4 Co9 2.793417 1_445
Co5 Zr0 2.795134 1_644
Co5 Zr0 2.796334 1_654
Co9 Zr0 2.749623 1_655
Co10 Co16 2.446968 1_545
Co10 Co21 2.455295 1_555
Co10 Co6 2.461198 1_555
Co10 Co6 2.461435 1_655
Co10 Co15 2.480374 1_555
Co10 Co20 2.484113 1_545
Co11 Co16 2.431222 1_555
Co11 Co17 2.432848 1_555
Co11 Co22 2.433849 1_565
Co11 Co21 2.440421 1_555
Co11 Co7 2.458748 1_555
Co11 Co7 2.458848 1_655
Co12 Co18 2.428702 1_555
Co12 Co17 2.429032 1_555
Co12 Co22 2.430912 1_555
Co12 Co23 2.436576 1_555
Co12 Co8 2.445195 1_555
Co12 Co8 2.445300 1_655
Co12 Co2 2.449904 1_555
Co12 Co2 2.450045 1_455
Co13 Co18 2.442508 1_565
Co13 Co23 2.451322 1_555
Co13 Co9 2.462956 1_555
Co13 Co9 2.463160 1_455
Co13 Co3 2.464031 1_555
Co13 Co3 2.464244 1_455
Co13 Co19 2.479528 1_555
Co13 Co24 2.483455 1_565
Co14 Co15 2.359059 1_556
Co14 Co19 2.359207 1_555
Co14 Co24 2.362532 1_555
Co14 Co20 2.363427 1_556
Co14 Co4 2.433585 1_555
Co14 Co4 2.433587 1_655
Co14 Co5 2.434958 1_556
Co14 Co5 2.435022 1_456
Co14 Zr0 3.145970 1_545
Co14 Zr0 3.146648 1_645
Co14 Zr0 3.147029 1_655
Co14 Zr0 3.147733 1_555
Co15 Co20 2.321419 1_545
Co15 Co5 2.443608 1_555
Co15 Co5 2.444002 1_455
Co15 Co20 2.532957 1_555
Co15 Zr0 3.058430 1_544
Co15 Zr0 3.058864 1_644
Co16 Co21 2.416311 1_565
Co16 Co21 2.438064 1_555
Co16 Co6 2.442858 1_665
Co16 Co6 2.443401 1_565
Co17 Co22 2.425962 1_555
Co17 Co22 2.428413 1_565
Co17 Co7 2.438916 1_655
Co17 Co7 2.439364 1_555
Co17 Co2 2.442065 1_455
Co17 Co2 2.442506 1_555
Co18 Co23 2.423197 1_545
Co18 Co23 2.431178 1_555
Co18 Co3 2.440770 1_445
Co18 Co3 2.441271 1_545
Co18 Co8 2.447272 1_655
Co18 Co8 2.447555 1_555
Co19 Co24 2.322933 1_565
Co19 Co9 2.434525 1_555
Co19 Co9 2.435300 1_455
Co19 Co4 2.444376 1_555
Co19 Co4 2.444804 1_655
Co19 Co24 2.531443 1_555
Co19 Zr0 3.055817 1_655
Co19 Zr0 3.056200 1_555
Co20 Co5 2.448872 1_455
Co20 Co5 2.449273 1_555
Co20 Zr0 3.053574 1_654
Co20 Zr0 3.053926 1_554
Co21 Co6 2.440875 1_555
Co21 Co6 2.441367 1_655
Co22 Co7 2.439765 1_545
Co22 Co7 2.440200 1_645
Co23 Co3 2.439743 1_555
Co23 Co3 2.440240 1_455
Co23 Co8 2.445267 1_555
Co23 Co8 2.445765 1_655
Co24 Co9 2.438109 1_445
Co24 Co9 2.438368 1_545
Co24 Co4 2.448591 1_655
Co24 Co4 2.448911 1_555
Co24 Zr0 3.050109 1_545
Co24 Zr0 3.050550 1_645
