# generated using pymatgen
data_Rb2U(BrO)4
_symmetry_space_group_name_H-M   'P 1'
_cell_length_a   6.91452500
_cell_length_b   6.93498440
_cell_length_c   7.94097171
_cell_angle_alpha   91.71738867
_cell_angle_beta   102.04913240
_cell_angle_gamma   115.96495499
_symmetry_Int_Tables_number   1
_chemical_formula_structural   Rb2U(BrO)4
_chemical_formula_sum   'Rb2 U1 Br4 O4'
_cell_volume   331.60344379
_cell_formula_units_Z   1
loop_
 _symmetry_equiv_pos_site_id
 _symmetry_equiv_pos_as_xyz
  1  'x, y, z'
loop_
 _atom_site_type_symbol
 _atom_site_label
 _atom_site_symmetry_multiplicity
 _atom_site_fract_x
 _atom_site_fract_y
 _atom_site_fract_z
 _atom_site_occupancy
  Rb  Rb0  1  0.67132500  0.41937000  0.75987100  1
  Rb  Rb1  1  0.32867500  0.58063000  0.24012900  1
  U  U0  1  0.00000000  0.00000000  0.50000000  1
  Br  Br0  1  0.27756400  0.81816900  0.65627000  1
  Br  Br1  1  0.72243600  0.18183100  0.34373000  1
  Br  Br2  1  0.90613100  0.76776700  0.16547700  1
  Br  Br3  1  0.09386900  0.23223300  0.83452300  1
  O  O0  1  0.24243000  0.22348700  0.46080000  1
  O  O1  1  0.75757000  0.77651300  0.53920000  1
  O  O2  1  0.40722300  0.62380600  0.88321000  1
  O  O3  1  0.59277700  0.37619400  0.11679000  1
loop_
_geom_bond_atom_site_label_1
_geom_bond_atom_site_label_2
_geom_bond_distance
_geom_bond_site_symmetry_2
Br0 O2 2.529324 1_555
Br0 U0 2.834092 1_565
Br0 Rb0 3.793705 1_565
Br0 Rb1 3.798659 1_555
Br1 O3 2.529324 1_555
Br1 U0 2.834092 1_655
Br1 Rb1 3.793705 1_545
Br1 Rb0 3.798659 1_555
Br2 O3 2.579441 1_555
Br2 U0 2.860093 1_665
Br2 Rb0 3.572568 1_554
Br2 Rb1 3.635269 1_655
Br3 O2 2.579441 1_555
Br3 U0 2.860093 1_555
Br3 Rb1 3.572568 1_556
Br3 Rb0 3.635269 1_455
O0 U0 1.811292 1_555
O0 Rb1 2.993973 1_555
O0 Rb0 3.101439 1_555
O1 U0 1.811292 1_665
O1 Rb0 2.993973 1_555
O1 Rb1 3.101439 1_555
O2 Rb1 2.994821 1_556
O2 Rb0 3.038862 1_555
O3 Rb0 2.994821 1_554
O3 Rb1 3.038862 1_555
