# generated using pymatgen
data_V(MoS2)2
_symmetry_space_group_name_H-M   'P 1'
_cell_length_a   6.86694224
_cell_length_b   6.86694224
_cell_length_c   12.81602514
_cell_angle_alpha   68.39452683
_cell_angle_beta   68.39452683
_cell_angle_gamma   56.44535762
_symmetry_Int_Tables_number   1
_chemical_formula_structural   V(MoS2)2
_chemical_formula_sum   'V4 Mo8 S16'
_cell_volume   457.54645016
_cell_formula_units_Z   4
loop_
 _symmetry_equiv_pos_site_id
 _symmetry_equiv_pos_as_xyz
  1  'x, y, z'
loop_
 _atom_site_type_symbol
 _atom_site_label
 _atom_site_symmetry_multiplicity
 _atom_site_fract_x
 _atom_site_fract_y
 _atom_site_fract_z
 _atom_site_occupancy
  V  V0  1  0.36978200  0.12176600  0.25071900  1
  V  V1  1  0.12176600  0.36978200  0.75071900  1
  V  V2  1  0.63021800  0.87823400  0.74928100  1
  V  V3  1  0.87823400  0.63021800  0.24928100  1
  Mo  Mo0  1  0.70320800  0.49204200  0.50747800  1
  Mo  Mo1  1  0.49204200  0.70320800  0.00747800  1
  Mo  Mo2  1  0.29679200  0.50795800  0.49252200  1
  Mo  Mo3  1  0.50795800  0.29679200  0.99252200  1
  Mo  Mo4  1  0.76852000  0.05512600  0.49139900  1
  Mo  Mo5  1  0.05512600  0.76852000  0.99139900  1
  Mo  Mo6  1  0.23148000  0.94487400  0.50860100  1
  Mo  Mo7  1  0.94487400  0.23148000  0.00860100  1
  S  S0  1  0.65910500  0.41703400  0.35080200  1
  S  S1  1  0.41703400  0.65910500  0.85080200  1
  S  S2  1  0.34089500  0.58296600  0.64919800  1
  S  S3  1  0.58296600  0.34089500  0.14919800  1
  S  S4  1  0.86421100  0.62417600  0.60865700  1
  S  S5  1  0.62417600  0.86421100  0.10865700  1
  S  S6  1  0.13578900  0.37582400  0.39134300  1
  S  S7  1  0.37582400  0.13578900  0.89134300  1
  S  S8  1  0.36516800  0.10523700  0.61436800  1
  S  S9  1  0.10523700  0.36516800  0.11436800  1
  S  S10  1  0.63483200  0.89476300  0.38563200  1
  S  S11  1  0.89476300  0.63483200  0.88563200  1
  S  S12  1  0.15033500  0.89589100  0.35962700  1
  S  S13  1  0.89589100  0.15033500  0.85962700  1
  S  S14  1  0.84966500  0.10410900  0.64037300  1
  S  S15  1  0.10410900  0.84966500  0.14037300  1
loop_
_geom_bond_atom_site_label_1
_geom_bond_atom_site_label_2
_geom_bond_distance
_geom_bond_site_symmetry_2
Mo0 S2 2.380933 1_555
Mo0 S0 2.402263 1_555
Mo0 S14 2.442789 1_555
Mo0 S10 2.496210 1_555
Mo0 S6 2.583459 1_655
Mo0 S4 2.599676 1_555
Mo1 S3 2.380933 1_555
Mo1 S1 2.402263 1_554
Mo1 S15 2.442789 1_555
Mo1 S11 2.496210 1_554
Mo1 S7 2.583459 1_564
Mo1 S5 2.599676 1_555
Mo2 S0 2.380933 1_555
Mo2 S2 2.402263 1_555
Mo2 S12 2.442789 1_555
Mo2 S8 2.496210 1_555
Mo2 S4 2.583459 1_455
Mo2 S6 2.599676 1_555
Mo3 S1 2.380933 1_555
Mo3 S3 2.402263 1_556
Mo3 S13 2.442789 1_555
Mo3 S9 2.496210 1_556
Mo3 S5 2.583459 1_546
Mo3 S7 2.599676 1_555
Mo4 S14 2.352122 1_555
Mo4 S0 2.371210 1_555
Mo4 S12 2.419062 1_645
Mo4 S8 2.530813 1_555
Mo4 S4 2.598108 1_545
Mo4 S10 2.650672 1_545
Mo5 S15 2.352122 1_556
Mo5 S1 2.371210 1_555
Mo5 S13 2.419062 1_465
Mo5 S9 2.530813 1_556
Mo5 S5 2.598108 1_456
Mo5 S11 2.650672 1_455
Mo6 S12 2.352122 1_555
Mo6 S2 2.371210 1_555
Mo6 S14 2.419062 1_465
Mo6 S10 2.530813 1_555
Mo6 S6 2.598108 1_565
Mo6 S8 2.650672 1_565
Mo7 S13 2.352122 1_554
Mo7 S3 2.371210 1_555
Mo7 S15 2.419062 1_645
Mo7 S11 2.530813 1_554
Mo7 S7 2.598108 1_654
Mo7 S9 2.650672 1_655
S0 V3 2.385554 1_555
S1 V2 2.385554 1_555
S2 V1 2.385554 1_555
S3 V0 2.385554 1_555
S4 V2 2.440807 1_555
S4 V1 2.471474 1_655
S5 V3 2.440807 1_555
S5 V0 2.471474 1_565
S6 V0 2.440807 1_555
S6 V3 2.471474 1_455
S7 V1 2.440807 1_555
S7 V2 2.471474 1_545
S8 V2 2.434851 1_545
S8 V1 2.444937 1_555
S9 V3 2.434851 1_455
S9 V0 2.444937 1_555
S10 V0 2.434851 1_565
S10 V3 2.444937 1_555
S11 V1 2.434851 1_655
S11 V2 2.444937 1_555
S12 V0 2.462809 1_565
S13 V1 2.462809 1_655
S14 V2 2.462809 1_545
S15 V3 2.462809 1_455
