# generated using pymatgen
data_CsBa3Ga5(Se5Cl)2
_symmetry_space_group_name_H-M   'P 1'
_cell_length_a   8.85477600
_cell_length_b   8.93509054
_cell_length_c   10.14464579
_cell_angle_alpha   115.90721680
_cell_angle_beta   115.77149586
_cell_angle_gamma   90.31906569
_symmetry_Int_Tables_number   1
_chemical_formula_structural   CsBa3Ga5(Se5Cl)2
_chemical_formula_sum   'Cs1 Ba3 Ga5 Se10 Cl2'
_cell_volume   630.92871088
_cell_formula_units_Z   1
loop_
 _symmetry_equiv_pos_site_id
 _symmetry_equiv_pos_as_xyz
  1  'x, y, z'
loop_
 _atom_site_type_symbol
 _atom_site_label
 _atom_site_symmetry_multiplicity
 _atom_site_fract_x
 _atom_site_fract_y
 _atom_site_fract_z
 _atom_site_occupancy
  Cs  Cs0  1  0.25847200  0.64591600  0.77401000  1
  Ba  Ba0  1  0.51941800  0.12119400  0.76990400  1
  Ba  Ba1  1  0.87773600  0.75125900  0.23003100  1
  Ba  Ba2  1  0.35568800  0.47720900  0.23056800  1
  Ga  Ga0  1  0.85727500  0.26498600  0.33364200  1
  Ga  Ga1  1  0.47393000  0.06984700  0.32922100  1
  Ga  Ga2  1  0.92845300  0.14670600  0.67169800  1
  Ga  Ga3  1  0.74039500  0.52810000  0.66983900  1
  Ga  Ga4  1  0.00406300  0.00077900  0.00095300  1
  Se  Se0  1  0.95024200  0.28053600  0.14527800  1
  Se  Se1  1  0.19099600  0.87168800  0.15495000  1
  Se  Se2  1  0.13945100  0.06250700  0.85917600  1
  Se  Se3  1  0.72089000  0.80640600  0.85492800  1
  Se  Se4  1  0.57432400  0.06917600  0.14276200  1
  Se  Se5  1  0.91932700  0.42735400  0.85804400  1
  Se  Se6  1  0.81147600  0.54831400  0.47051700  1
  Se  Se7  1  0.65070900  0.93204600  0.48288900  1
  Se  Se8  1  0.06072600  0.15957600  0.51015400  1
  Se  Se9  1  0.44959600  0.34404400  0.51587800  1
  Cl  Cl0  1  0.51805200  0.48671400  0.01529600  1
  Cl  Cl1  1  0.24878300  0.75564600  0.48026100  1
loop_
_geom_bond_atom_site_label_1
_geom_bond_atom_site_label_2
_geom_bond_distance
_geom_bond_site_symmetry_2
Cs0 Se6 3.595070 1_455
Cs0 Se2 3.706453 1_565
Cs0 Se4 3.813213 1_566
Cs0 Se1 3.817045 1_556
Cs0 Se9 3.837853 1_555
Cs0 Se8 3.845735 1_555
Cs0 Se3 3.934361 1_555
Cs0 Se5 4.144200 1_455
Ba0 Cl0 3.128242 1_556
Ba0 Cl1 3.232363 1_545
Ba0 Se7 3.369115 1_545
Ba0 Se3 3.560254 1_545
Ba0 Se0 3.694712 1_556
Ba0 Se9 3.755018 1_555
Ba0 Se4 3.833985 1_556
Ba0 Se8 3.880265 1_555
Ba0 Se2 3.931929 1_555
Ba0 Se5 3.977900 1_555
Ba1 Cl0 3.140058 1_555
Ba1 Cl1 3.146332 1_655
Ba1 Se8 3.298794 1_665
Ba1 Se1 3.457219 1_655
Ba1 Se3 3.701670 1_554
Ba1 Se7 3.758986 1_555
Ba1 Se5 3.798558 1_554
Ba1 Se6 3.831819 1_555
Ba1 Se0 4.023876 1_555
Ba1 Se4 4.035493 1_565
Ba2 Cl0 3.119989 1_555
Ba2 Cl1 3.179057 1_555
Ba2 Se9 3.378173 1_555
Ba2 Se0 3.553269 1_455
Ba2 Se6 3.562966 1_555
Ba2 Se2 3.611095 1_554
Ba2 Se7 3.856107 1_555
Ba2 Se5 3.901549 1_454
Ga0 Se4 2.420746 1_555
Ga0 Se6 2.435312 1_555
Ga0 Se0 2.438657 1_555
Ga0 Se8 2.454887 1_655
Ga1 Se4 2.412603 1_555
Ga1 Se1 2.429176 1_545
Ga1 Se9 2.437460 1_555
Ga1 Se7 2.444029 1_545
Ga2 Se2 2.418670 1_655
Ga2 Se5 2.420969 1_555
Ga2 Se8 2.429608 1_655
Ga2 Se7 2.457023 1_545
Ga3 Se5 2.419339 1_555
Ga3 Se6 2.437626 1_555
Ga3 Se3 2.438400 1_555
Ga3 Se9 2.446542 1_555
Ga4 Se1 2.420359 1_545
Ga4 Se3 2.443633 1_444
Ga4 Se2 2.448512 1_554
Ga4 Se0 2.457850 1_455
Cl0 Cs0 3.388927 1_554
Cl1 Cs0 3.490074 1_555
