# generated using pymatgen
data_Tb4Mg(PO4)4
_symmetry_space_group_name_H-M   'P 1'
_cell_length_a   6.36778920
_cell_length_b   8.27365392
_cell_length_c   6.63412148
_cell_angle_alpha   90.22698211
_cell_angle_beta   84.45359084
_cell_angle_gamma   108.44348557
_symmetry_Int_Tables_number   1
_chemical_formula_structural   Tb4Mg(PO4)4
_chemical_formula_sum   'Tb4 Mg1 P4 O16'
_cell_volume   329.88188689
_cell_formula_units_Z   1
loop_
 _symmetry_equiv_pos_site_id
 _symmetry_equiv_pos_as_xyz
  1  'x, y, z'
loop_
 _atom_site_type_symbol
 _atom_site_label
 _atom_site_symmetry_multiplicity
 _atom_site_fract_x
 _atom_site_fract_y
 _atom_site_fract_z
 _atom_site_occupancy
  Tb  Tb0  1  0.37703339  0.13415316  0.72409474  1
  Tb  Tb1  1  0.97119917  0.74594209  0.94439727  1
  Tb  Tb2  1  0.58889675  0.89174824  0.29207182  1
  Tb  Tb3  1  0.00800736  0.28537457  0.01737614  1
  Mg  Mg0  1  0.27750024  0.49582763  0.45576331  1
  P  P0  1  0.93429477  0.21231765  0.58270062  1
  P  P1  1  0.42638610  0.71170656  0.82053801  1
  P  P2  1  0.08427951  0.79062583  0.41750309  1
  P  P3  1  0.56383962  0.32185534  0.17133046  1
  O  O0  1  0.00380164  0.32377517  0.37432024  1
  O  O1  1  0.60599386  0.72964557  0.96760210  1
  O  O2  1  0.97401714  0.69446943  0.61308485  1
  O  O3  1  0.38661974  0.30907058  0.02068585  1
  O  O4  1  0.04714405  0.03337482  0.92011706  1
  O  O5  1  0.49512656  0.68840184  0.59454178  1
  O  O6  1  0.91134967  0.81386331  0.28120748  1
  O  O7  1  0.46947954  0.34430980  0.39029474  1
  O  O8  1  0.75632840  0.04002608  0.52981406  1
  O  O9  1  0.21067980  0.56120847  0.88318236  1
  O  O10  1  0.26714409  0.96348230  0.45205421  1
  O  O11  1  0.78004178  0.46629582  0.10159864  1
  O  O12  1  0.78192020  0.28267486  0.74164183  1
  O  O13  1  0.35750487  0.87592795  0.85156428  1
  O  O14  1  0.22717454  0.69146476  0.29102374  1
  O  O15  1  0.62965521  0.15245818  0.15408431  1
loop_
_geom_bond_atom_site_label_1
_geom_bond_atom_site_label_2
_geom_bond_distance
_geom_bond_site_symmetry_2
Mg0 O0 1.990469 1_555
Mg0 O7 2.029129 1_555
Mg0 O5 2.035827 1_555
Mg0 O14 2.080153 1_555
O0 P0 1.609639 1_455
O0 Tb3 2.386692 1_555
O1 P1 1.545674 1_555
O1 Tb1 2.276538 1_555
O1 Tb2 2.543305 1_556
O2 P2 1.512641 1_655
O2 Tb1 2.236635 1_555
O3 P3 1.557284 1_555
O3 Tb3 2.358516 1_555
O3 Tb0 2.431959 1_554
O4 Tb3 2.261086 1_556
O4 Tb0 2.274075 1_555
O4 Tb1 2.274985 1_445
O5 P1 1.549481 1_555
O5 Tb2 2.524500 1_555
O6 P2 1.547562 1_655
O6 Tb1 2.326954 1_554
O6 Tb2 2.333400 1_555
O7 P3 1.550959 1_555
O7 Tb0 2.721135 1_555
O8 P0 1.578008 1_555
O8 Tb2 2.147433 1_545
O9 P1 1.556093 1_555
O9 Tb3 2.365750 1_556
O9 Tb1 2.485287 1_455
O10 P2 1.564956 1_555
O10 Tb0 2.310723 1_565
O10 Tb2 2.453684 1_555
O11 P3 1.542007 1_555
O11 Tb3 2.423132 1_655
O11 Tb1 2.431919 1_554
O12 P0 1.595899 1_555
O12 Tb3 2.430584 1_656
O12 Tb0 2.494612 1_555
O13 P1 1.561496 1_555
O13 Tb0 2.262953 1_565
O13 Tb1 2.371822 1_455
O14 P2 1.588845 1_555
O14 Tb2 2.374742 1_555
O15 P3 1.585607 1_555
O15 Tb2 2.274556 1_545
O15 Tb3 2.396987 1_655
