# generated using pymatgen
data_Gd3Si2BrO8
_symmetry_space_group_name_H-M   'P 1'
_cell_length_a   10.33129983
_cell_length_b   10.33129983
_cell_length_c   10.33129983
_cell_angle_alpha   144.26020196
_cell_angle_beta   140.42741937
_cell_angle_gamma   54.37369586
_symmetry_Int_Tables_number   1
_chemical_formula_structural   Gd3Si2BrO8
_chemical_formula_sum   'Gd6 Si4 Br2 O16'
_cell_volume   407.56025562
_cell_formula_units_Z   2
loop_
 _symmetry_equiv_pos_site_id
 _symmetry_equiv_pos_as_xyz
  1  'x, y, z'
loop_
 _atom_site_type_symbol
 _atom_site_label
 _atom_site_symmetry_multiplicity
 _atom_site_fract_x
 _atom_site_fract_y
 _atom_site_fract_z
 _atom_site_occupancy
  Gd  Gd0  1  0.09159700  0.71781800  0.63448800  1
  Gd  Gd1  1  0.91666900  0.28218200  0.37377800  1
  Gd  Gd2  1  0.59159700  0.95710900  0.37377800  1
  Gd  Gd3  1  0.41666900  0.04289100  0.63448800  1
  Gd  Gd4  1  0.98379200  0.61981000  0.10360200  1
  Gd  Gd5  1  0.48379200  0.38019000  0.36398300  1
  Si  Si0  1  0.09538300  0.22051100  0.11670300  1
  Si  Si1  1  0.89619200  0.77948900  0.87487200  1
  Si  Si2  1  0.59538300  0.47868000  0.87487200  1
  Si  Si3  1  0.39619200  0.52132000  0.11670300  1
  Br  Br0  1  0.24638100  0.98528600  0.73166700  1
  Br  Br1  1  0.74638100  0.01471400  0.26109400  1
  O  O0  1  0.16290700  0.44303000  0.25518700  1
  O  O1  1  0.81215700  0.55697000  0.71987700  1
  O  O2  1  0.66290700  0.40772000  0.71987700  1
  O  O3  1  0.31215700  0.59228000  0.25518700  1
  O  O4  1  0.80040000  0.64193900  0.21598200  1
  O  O5  1  0.57404200  0.35806100  0.15846100  1
  O  O6  1  0.30040000  0.08441900  0.15846100  1
  O  O7  1  0.07404200  0.91558100  0.21598200  1
  O  O8  1  0.22712600  0.35330500  0.77105800  1
  O  O9  1  0.41775300  0.64669500  0.87382100  1
  O  O10  1  0.72712600  0.95606800  0.87382100  1
  O  O11  1  0.91775300  0.04393200  0.77105800  1
  O  O12  1  0.03514100  0.32237200  0.29243200  1
  O  O13  1  0.97006000  0.67762800  0.71276900  1
  O  O14  1  0.53514100  0.24271000  0.71276900  1
  O  O15  1  0.47006000  0.75729000  0.29243200  1
loop_
_geom_bond_atom_site_label_1
_geom_bond_atom_site_label_2
_geom_bond_distance
_geom_bond_site_symmetry_2
Gd0 O13 2.262987 1_455
Gd0 O9 2.286578 1_555
Gd0 O4 2.356245 1_455
Gd0 O12 2.383431 1_555
Gd0 O11 2.389142 1_465
Gd0 O6 2.556343 1_566
Gd0 O0 2.812973 1_555
Gd1 O12 2.262987 1_655
Gd1 O8 2.286584 1_655
Gd1 O5 2.356245 1_555
Gd1 O13 2.383431 1_555
Gd1 O10 2.389139 1_544
Gd1 O7 2.556347 1_645
Gd1 O1 2.812972 1_555
Gd2 O15 2.263005 1_555
Gd2 O11 2.286581 1_565
Gd2 O6 2.356247 1_565
Gd2 O14 2.383437 1_565
Gd2 O9 2.389137 1_554
Gd2 O4 2.556338 1_555
Gd2 O2 2.812970 1_565
Gd3 O14 2.263005 1_555
Gd3 O10 2.286581 1_545
Gd3 O7 2.356245 1_545
Gd3 O15 2.383437 1_545
Gd3 O8 2.389137 1_555
Gd3 O5 2.556340 1_556
Gd3 O3 2.812970 1_545
Gd4 O3 2.334675 1_655
Gd4 O0 2.334675 1_655
Gd4 O2 2.368095 1_554
Gd4 O1 2.368095 1_554
Gd4 O7 2.728682 1_655
Gd4 O4 2.728699 1_555
Gd5 O2 2.334666 1_555
Gd5 O1 2.334677 1_555
Gd5 O0 2.368091 1_555
Gd5 O3 2.368102 1_555
Gd5 O6 2.728683 1_555
Gd5 O5 2.728700 1_555
Br0 Gd4 2.956898 1_455
Br0 Gd5 3.004486 1_566
Br0 Gd3 3.061051 1_565
Br0 Gd0 3.061061 1_555
Br1 Gd5 2.956899 1_555
Br1 Gd4 3.004481 1_545
Br1 Gd1 3.061052 1_555
Br1 Gd2 3.061061 1_545
O0 Si0 1.675977 1_555
O1 Si1 1.675977 1_555
O2 Si2 1.675977 1_555
O3 Si3 1.675977 1_555
O4 Si2 1.660079 1_554
O5 Si3 1.660076 1_555
O6 Si0 1.660076 1_555
O7 Si1 1.660082 1_454
O8 Si3 1.633940 1_556
O9 Si2 1.633940 1_555
O10 Si1 1.633940 1_555
O11 Si0 1.633940 1_656
O12 Si0 1.633486 1_555
O13 Si1 1.633486 1_555
O14 Si2 1.633477 1_555
O15 Si3 1.633477 1_555
