# generated using pymatgen
data_Mg6TiCu
_symmetry_space_group_name_H-M   'P 1'
_cell_length_a   4.84651800
_cell_length_b   6.14810200
_cell_length_c   10.74756200
_cell_angle_alpha   90.00000000
_cell_angle_beta   90.00000000
_cell_angle_gamma   90.00000000
_symmetry_Int_Tables_number   1
_chemical_formula_structural   Mg6TiCu
_chemical_formula_sum   'Mg12 Ti2 Cu2'
_cell_volume   320.24389053
_cell_formula_units_Z   2
loop_
 _symmetry_equiv_pos_site_id
 _symmetry_equiv_pos_as_xyz
  1  'x, y, z'
loop_
 _atom_site_type_symbol
 _atom_site_label
 _atom_site_symmetry_multiplicity
 _atom_site_fract_x
 _atom_site_fract_y
 _atom_site_fract_z
 _atom_site_occupancy
  Mg  Mg0  1  0.50000000  0.25354600  0.41801500  1
  Mg  Mg1  1  0.50000000  0.74645400  0.41801500  1
  Mg  Mg2  1  0.00000000  0.75309000  0.08788700  1
  Mg  Mg3  1  0.00000000  0.24691000  0.08788700  1
  Mg  Mg4  1  0.00000000  0.00000000  0.32623500  1
  Mg  Mg5  1  0.00000000  0.50000000  0.32889100  1
  Mg  Mg6  1  0.50000000  0.75354600  0.91801500  1
  Mg  Mg7  1  0.50000000  0.24645400  0.91801500  1
  Mg  Mg8  1  0.00000000  0.25309000  0.58788700  1
  Mg  Mg9  1  0.00000000  0.74691000  0.58788700  1
  Mg  Mg10  1  0.00000000  0.50000000  0.82623500  1
  Mg  Mg11  1  0.00000000  0.00000000  0.82889100  1
  Ti  Ti0  1  0.50000000  0.50000000  0.16809000  1
  Ti  Ti1  1  0.50000000  0.00000000  0.66809000  1
  Cu  Cu0  1  0.50000000  0.00000000  0.16497500  1
  Cu  Cu1  1  0.50000000  0.50000000  0.66497500  1
loop_
_geom_bond_atom_site_label_1
_geom_bond_atom_site_label_2
_geom_bond_distance
_geom_bond_site_symmetry_2
Mg0 Mg5 3.014232 1_655
Mg0 Mg5 3.014232 1_555
Mg0 Mg1 3.030449 1_555
Mg0 Mg8 3.034042 1_655
Mg0 Mg8 3.034042 1_555
Mg0 Mg4 3.045510 1_555
Mg0 Mg4 3.045510 1_655
Mg0 Ti0 3.083984 1_555
Mg0 Ti1 3.107033 1_555
Mg0 Mg1 3.117653 1_545
Mg1 Mg5 3.014232 1_655
Mg1 Mg5 3.014232 1_555
Mg1 Mg9 3.034042 1_555
Mg1 Mg9 3.034042 1_655
Mg1 Mg4 3.045510 1_665
Mg1 Mg4 3.045510 1_565
Mg1 Ti0 3.083984 1_555
Mg1 Ti1 3.107033 1_565
Mg2 Mg4 2.977669 1_565
Mg2 Ti0 3.006063 1_455
Mg2 Ti0 3.006063 1_555
Mg2 Mg5 3.021651 1_555
Mg2 Mg6 3.034042 1_554
Mg2 Mg6 3.034042 1_454
Mg2 Mg3 3.036056 1_565
Mg2 Mg3 3.112046 1_555
Mg3 Mg4 2.977669 1_555
Mg3 Ti0 3.006063 1_455
Mg3 Ti0 3.006063 1_555
Mg3 Mg5 3.021651 1_555
Mg3 Mg7 3.034042 1_554
Mg3 Mg7 3.034042 1_454
Mg4 Mg5 3.074184 1_545
Mg4 Mg5 3.074184 1_555
Mg4 Mg8 3.213912 1_555
Mg4 Mg9 3.213912 1_545
Mg5 Ti0 2.976394 1_455
Mg5 Ti0 2.976394 1_555
Mg5 Mg8 3.170600 1_555
Mg5 Mg9 3.170600 1_555
Mg6 Mg7 3.030449 1_565
Mg6 Ti1 3.083984 1_565
Mg6 Ti0 3.107033 1_556
Mg6 Mg7 3.117653 1_555
Mg7 Ti1 3.083984 1_555
Mg7 Ti0 3.107033 1_556
Mg8 Ti1 3.006063 1_455
Mg8 Ti1 3.006063 1_555
Mg8 Mg9 3.036056 1_555
Mg8 Mg9 3.112046 1_545
Mg9 Ti1 3.006063 1_565
Mg9 Ti1 3.006063 1_465
Mg10 Mg8 2.977669 1_555
Mg10 Mg9 2.977669 1_555
Mg10 Mg6 3.045510 1_555
Mg10 Mg6 3.045510 1_455
Mg10 Mg7 3.045510 1_455
Mg10 Mg7 3.045510 1_555
Mg10 Mg11 3.074184 1_565
Mg10 Mg11 3.074184 1_555
Mg10 Mg3 3.213912 1_556
Mg10 Mg2 3.213912 1_556
Mg11 Ti1 2.976394 1_555
Mg11 Ti1 2.976394 1_455
Mg11 Mg7 3.014232 1_455
Mg11 Mg7 3.014232 1_555
Mg11 Mg6 3.014232 1_545
Mg11 Mg6 3.014232 1_445
Mg11 Mg9 3.021651 1_545
Mg11 Mg8 3.021651 1_555
Mg11 Mg2 3.170600 1_546
Mg11 Mg3 3.170600 1_556
Cu0 Mg2 2.977082 1_545
Cu0 Mg3 2.977082 1_555
Cu0 Mg3 2.977082 1_655
Cu0 Mg2 2.977082 1_645
Cu0 Mg4 2.979262 1_655
Cu0 Mg4 2.979262 1_555
Cu0 Mg7 3.056269 1_554
Cu0 Mg6 3.056269 1_544
Cu0 Ti0 3.074233 1_545
Cu0 Ti0 3.074233 1_555
Cu0 Mg0 3.134639 1_555
Cu0 Mg1 3.134639 1_545
Cu1 Mg9 2.977082 1_655
Cu1 Mg8 2.977082 1_555
Cu1 Mg8 2.977082 1_655
Cu1 Mg9 2.977082 1_555
Cu1 Mg10 2.979262 1_555
Cu1 Mg10 2.979262 1_655
Cu1 Mg1 3.056269 1_555
Cu1 Mg0 3.056269 1_555
Cu1 Ti1 3.074233 1_555
Cu1 Ti1 3.074233 1_565
Cu1 Mg6 3.134639 1_555
Cu1 Mg7 3.134639 1_555
