# generated using pymatgen
data_BOs3
_symmetry_space_group_name_H-M   'P 1'
_cell_length_a   5.46058000
_cell_length_b   5.46058000
_cell_length_c   4.02842900
_cell_angle_alpha   90.00000000
_cell_angle_beta   90.00000000
_cell_angle_gamma   120.00000001
_symmetry_Int_Tables_number   1
_chemical_formula_structural   BOs3
_chemical_formula_sum   'B2 Os6'
_cell_volume   104.02647770
_cell_formula_units_Z   2
loop_
 _symmetry_equiv_pos_site_id
 _symmetry_equiv_pos_as_xyz
  1  'x, y, z'
loop_
 _atom_site_type_symbol
 _atom_site_label
 _atom_site_symmetry_multiplicity
 _atom_site_fract_x
 _atom_site_fract_y
 _atom_site_fract_z
 _atom_site_occupancy
  B  B0  1  0.33333300  0.66666700  0.75000000  1
  B  B1  1  0.66666700  0.33333300  0.25000000  1
  Os  Os0  1  0.17528600  0.35057200  0.25000000  1
  Os  Os1  1  0.64942800  0.82471400  0.25000000  1
  Os  Os2  1  0.17528600  0.82471400  0.25000000  1
  Os  Os3  1  0.82471400  0.64942800  0.75000000  1
  Os  Os4  1  0.35057200  0.17528600  0.75000000  1
  Os  Os5  1  0.82471400  0.17528600  0.75000000  1
loop_
_geom_bond_atom_site_label_1
_geom_bond_atom_site_label_2
_geom_bond_distance
_geom_bond_site_symmetry_2
B0 Os2 2.508289 1_555
B0 Os2 2.508289 1_556
B0 Os0 2.508292 1_555
B0 Os1 2.508292 1_555
B0 Os1 2.508292 1_556
B0 Os0 2.508292 1_556
B0 Os3 2.731504 1_455
B0 Os4 2.731504 1_565
B0 Os5 2.731507 1_565
B0 Os5 2.731507 1_455
B0 Os3 2.731510 1_555
B0 Os4 2.731510 1_555
B1 Os5 2.508289 1_555
B1 Os5 2.508289 1_554
B1 Os3 2.508292 1_555
B1 Os4 2.508292 1_554
B1 Os4 2.508292 1_555
B1 Os3 2.508292 1_554
B1 Os0 2.731504 1_655
B1 Os1 2.731504 1_545
B1 Os2 2.731507 1_545
B1 Os2 2.731507 1_655
B1 Os1 2.731510 1_555
B1 Os0 2.731510 1_555
Os0 Os1 2.589090 1_555
Os0 Os2 2.589090 1_555
Os0 Os5 2.608744 1_455
Os0 Os5 2.608744 1_454
Os0 Os4 2.608744 1_554
Os0 Os4 2.608744 1_555
Os0 Os1 2.871490 1_445
Os0 Os2 2.871490 1_545
Os1 Os2 2.589090 1_555
Os1 Os5 2.608744 1_565
Os1 Os5 2.608744 1_564
Os1 Os3 2.608744 1_554
Os1 Os3 2.608744 1_555
Os1 Os2 2.871490 1_655
Os2 Os3 2.608744 1_454
Os2 Os3 2.608744 1_455
Os2 Os4 2.608744 1_565
Os2 Os4 2.608744 1_564
Os3 Os4 2.589090 1_555
Os3 Os5 2.589090 1_555
Os3 Os4 2.871490 1_665
Os3 Os5 2.871490 1_565
Os4 Os5 2.589090 1_555
Os4 Os5 2.871490 1_455
