# generated using pymatgen
data_CsTiH24(SO10)2
_symmetry_space_group_name_H-M   'P 1'
_cell_length_a   13.34882081
_cell_length_b   13.34882081
_cell_length_c   13.34882081
_cell_angle_alpha   90.00000000
_cell_angle_beta   90.00000000
_cell_angle_gamma   90.00000000
_symmetry_Int_Tables_number   1
_chemical_formula_structural   CsTiH24(SO10)2
_chemical_formula_sum   'Cs4 Ti4 H96 S8 O80'
_cell_volume   2378.63995612
_cell_formula_units_Z   4
loop_
 _symmetry_equiv_pos_site_id
 _symmetry_equiv_pos_as_xyz
  1  'x, y, z'
loop_
 _atom_site_type_symbol
 _atom_site_label
 _atom_site_symmetry_multiplicity
 _atom_site_fract_x
 _atom_site_fract_y
 _atom_site_fract_z
 _atom_site_occupancy
  Cs  Cs0  1  0.00000000  0.00000000  0.50000000  1
  Cs  Cs1  1  0.00000000  0.50000000  0.00000000  1
  Cs  Cs2  1  0.50000000  0.00000000  0.00000000  1
  Cs  Cs3  1  0.50000000  0.50000000  0.50000000  1
  Ti  Ti0  1  0.50000000  0.50000000  0.00000000  1
  Ti  Ti1  1  0.50000000  0.00000000  0.50000000  1
  Ti  Ti2  1  0.00000000  0.50000000  0.50000000  1
  Ti  Ti3  1  0.00000000  0.00000000  0.00000000  1
  H  H0  1  0.32071354  0.08908947  0.21452656  1
  H  H1  1  0.67928646  0.58908947  0.28547344  1
  H  H2  1  0.17928646  0.91091053  0.71452656  1
  H  H3  1  0.82071354  0.41091053  0.78547344  1
  H  H4  1  0.21452656  0.32071354  0.08908947  1
  H  H5  1  0.28547344  0.67928646  0.58908947  1
  H  H6  1  0.71452656  0.17928646  0.91091053  1
  H  H7  1  0.78547344  0.82071354  0.41091053  1
  H  H8  1  0.08908947  0.21452656  0.32071354  1
  H  H9  1  0.58908947  0.28547344  0.67928646  1
  H  H10  1  0.91091053  0.71452656  0.17928646  1
  H  H11  1  0.41091053  0.78547344  0.82071354  1
  H  H12  1  0.67928646  0.91091053  0.78547344  1
  H  H13  1  0.32071354  0.41091053  0.71452656  1
  H  H14  1  0.82071354  0.08908947  0.28547344  1
  H  H15  1  0.17928646  0.58908947  0.21452656  1
  H  H16  1  0.78547344  0.67928646  0.91091053  1
  H  H17  1  0.71452656  0.32071354  0.41091053  1
  H  H18  1  0.28547344  0.82071354  0.08908947  1
  H  H19  1  0.21452656  0.17928646  0.58908947  1
  H  H20  1  0.91091053  0.78547344  0.67928646  1
  H  H21  1  0.41091053  0.71452656  0.32071354  1
  H  H22  1  0.08908947  0.28547344  0.82071354  1
  H  H23  1  0.58908947  0.21452656  0.17928646  1
  H  H24  1  0.53455439  0.22660130  0.18777928  1
  H  H25  1  0.46544561  0.72660130  0.31222072  1
  H  H26  1  0.96544561  0.77339870  0.68777928  1
  H  H27  1  0.03455439  0.27339870  0.81222072  1
  H  H28  1  0.18777928  0.53455439  0.22660130  1
  H  H29  1  0.31222072  0.46544561  0.72660130  1
  H  H30  1  0.68777928  0.96544561  0.77339870  1
  H  H31  1  0.81222072  0.03455439  0.27339870  1
  H  H32  1  0.22660130  0.18777928  0.53455439  1
  H  H33  1  0.72660130  0.31222072  0.46544561  1
  H  H34  1  0.77339870  0.68777928  0.96544561  1
  H  H35  1  0.27339870  0.81222072  0.03455439  1
  H  H36  1  0.46544561  0.77339870  0.81222072  1
  H  H37  1  0.53455439  0.27339870  0.68777928  1
  H  H38  1  0.03455439  0.22660130  0.31222072  1
  H  H39  1  0.96544561  0.72660130  0.18777928  1
  H  H40  1  0.81222072  0.46544561  0.77339870  1
  H  H41  1  0.68777928  0.53455439  0.27339870  1
  H  H42  1  0.31222072  0.03455439  0.22660130  1
  H  H43  1  0.18777928  0.96544561  0.72660130  1
  H  H44  1  0.77339870  0.81222072  0.46544561  1
  H  H45  1  0.27339870  0.68777928  0.53455439  1
  H  H46  1  0.22660130  0.31222072  0.03455439  1
  H  H47  1  0.72660130  0.18777928  0.96544561  1
  H  H48  1  0.98503754  0.20194805  0.05050724  1
  H  H49  1  0.01496246  0.70194805  0.44949276  1
  H  H50  1  0.51496246  0.79805195  0.55050724  1
  H  H51  1  0.48503754  0.29805195  0.94949276  1
  H  H52  1  0.05050724  0.98503754  0.20194805  1
  H  H53  1  0.44949276  0.01496246  0.70194805  1
  H  H54  1  0.55050724  0.51496246  0.79805195  1
  H  H55  1  0.94949276  0.48503754  0.29805195  1
  H  H56  1  0.20194805  0.05050724  0.98503754  1
  H  H57  1  0.70194805  0.44949276  0.01496246  1
  H  H58  1  0.79805195  0.55050724  0.51496246  1
  H  H59  1  0.29805195  0.94949276  0.48503754  1
  H  H60  1  0.01496246  0.79805195  0.94949276  1
  H  H61  1  0.98503754  0.29805195  0.55050724  1
  H  H62  1  0.48503754  0.20194805  0.44949276  1
  H  H63  1  0.51496246  0.70194805  0.05050724  1
  H  H64  1  0.94949276  0.01496246  0.79805195  1
  H  H65  1  0.55050724  0.98503754  0.29805195  1
  H  H66  1  0.44949276  0.48503754  0.20194805  1
  H  H67  1  0.05050724  0.51496246  0.70194805  1
  H  H68  1  0.79805195  0.94949276  0.01496246  1
  H  H69  1  0.29805195  0.55050724  0.98503754  1
  H  H70  1  0.20194805  0.44949276  0.48503754  1
  H  H71  1  0.70194805  0.05050724  0.51496246  1
  H  H72  1  0.93617983  0.02012909  0.19681807  1
  H  H73  1  0.06382017  0.52012909  0.30318193  1
  H  H74  1  0.56382017  0.97987091  0.69681807  1
  H  H75  1  0.43617983  0.47987091  0.80318193  1
  H  H76  1  0.19681807  0.93617983  0.02012909  1
  H  H77  1  0.30318193  0.06382017  0.52012909  1
  H  H78  1  0.69681807  0.56382017  0.97987091  1
  H  H79  1  0.80318193  0.43617983  0.47987091  1
  H  H80  1  0.02012909  0.19681807  0.93617983  1
  H  H81  1  0.52012909  0.30318193  0.06382017  1
  H  H82  1  0.97987091  0.69681807  0.56382017  1
  H  H83  1  0.47987091  0.80318193  0.43617983  1
  H  H84  1  0.06382017  0.97987091  0.80318193  1
  H  H85  1  0.93617983  0.47987091  0.69681807  1
  H  H86  1  0.43617983  0.02012909  0.30318193  1
  H  H87  1  0.56382017  0.52012909  0.19681807  1
  H  H88  1  0.80318193  0.06382017  0.97987091  1
  H  H89  1  0.69681807  0.93617983  0.47987091  1
  H  H90  1  0.30318193  0.43617983  0.02012909  1
  H  H91  1  0.19681807  0.56382017  0.52012909  1
  H  H92  1  0.97987091  0.80318193  0.06382017  1
  H  H93  1  0.47987091  0.69681807  0.93617983  1
  H  H94  1  0.02012909  0.30318193  0.43617983  1
  H  H95  1  0.52012909  0.19681807  0.56382017  1
  S  S0  1  0.17396660  0.82603340  0.32603340  1
  S  S1  1  0.82603340  0.32603340  0.17396660  1
  S  S2  1  0.32603340  0.17396660  0.82603340  1
  S  S3  1  0.67396660  0.67396660  0.67396660  1
  S  S4  1  0.82603340  0.17396660  0.67396660  1
  S  S5  1  0.17396660  0.67396660  0.82603340  1
  S  S6  1  0.67396660  0.82603340  0.17396660  1
  S  S7  1  0.32603340  0.32603340  0.32603340  1
  O  O0  1  0.23628510  0.76371490  0.26371490  1
  O  O1  1  0.76371490  0.26371490  0.23628510  1
  O  O2  1  0.26371490  0.23628510  0.76371490  1
  O  O3  1  0.73628510  0.73628510  0.73628510  1
  O  O4  1  0.76371490  0.23628510  0.73628510  1
  O  O5  1  0.23628510  0.73628510  0.76371490  1
  O  O6  1  0.73628510  0.76371490  0.23628510  1
  O  O7  1  0.26371490  0.26371490  0.26371490  1
  O  O8  1  0.05014981  0.76315909  0.33881678  1
  O  O9  1  0.94985019  0.26315909  0.16118322  1
  O  O10  1  0.44985019  0.23684091  0.83881678  1
  O  O11  1  0.55014981  0.73684091  0.66118322  1
  O  O12  1  0.33881678  0.05014981  0.76315909  1
  O  O13  1  0.16118322  0.94985019  0.26315909  1
  O  O14  1  0.83881678  0.44985019  0.23684091  1
  O  O15  1  0.66118322  0.55014981  0.73684091  1
  O  O16  1  0.76315909  0.33881678  0.05014981  1
  O  O17  1  0.26315909  0.16118322  0.94985019  1
  O  O18  1  0.23684091  0.83881678  0.44985019  1
  O  O19  1  0.73684091  0.66118322  0.55014981  1
  O  O20  1  0.94985019  0.23684091  0.66118322  1
  O  O21  1  0.05014981  0.73684091  0.83881678  1
  O  O22  1  0.55014981  0.76315909  0.16118322  1
  O  O23  1  0.44985019  0.26315909  0.33881678  1
  O  O24  1  0.66118322  0.94985019  0.23684091  1
  O  O25  1  0.83881678  0.05014981  0.73684091  1
  O  O26  1  0.16118322  0.55014981  0.76315909  1
  O  O27  1  0.33881678  0.44985019  0.26315909  1
  O  O28  1  0.23684091  0.66118322  0.94985019  1
  O  O29  1  0.73684091  0.83881678  0.05014981  1
  O  O30  1  0.76315909  0.16118322  0.55014981  1
  O  O31  1  0.26315909  0.33881678  0.44985019  1
  O  O32  1  0.17895912  0.63451747  0.03180649  1
  O  O33  1  0.82104088  0.13451747  0.46819351  1
  O  O34  1  0.32104088  0.36548253  0.53180649  1
  O  O35  1  0.67895912  0.86548253  0.96819351  1
  O  O36  1  0.03180649  0.17895912  0.63451747  1
  O  O37  1  0.46819351  0.82104088  0.13451747  1
  O  O38  1  0.53180649  0.32104088  0.36548253  1
  O  O39  1  0.96819351  0.67895912  0.86548253  1
  O  O40  1  0.63451747  0.03180649  0.17895912  1
  O  O41  1  0.13451747  0.46819351  0.82104088  1
  O  O42  1  0.36548253  0.53180649  0.32104088  1
  O  O43  1  0.86548253  0.96819351  0.67895912  1
  O  O44  1  0.82104088  0.36548253  0.96819351  1
  O  O45  1  0.17895912  0.86548253  0.53180649  1
  O  O46  1  0.67895912  0.63451747  0.46819351  1
  O  O47  1  0.32104088  0.13451747  0.03180649  1
  O  O48  1  0.96819351  0.82104088  0.36548253  1
  O  O49  1  0.53180649  0.17895912  0.86548253  1
  O  O50  1  0.46819351  0.67895912  0.63451747  1
  O  O51  1  0.03180649  0.32104088  0.13451747  1
  O  O52  1  0.36548253  0.96819351  0.82104088  1
  O  O53  1  0.86548253  0.53180649  0.17895912  1
  O  O54  1  0.63451747  0.46819351  0.67895912  1
  O  O55  1  0.13451747  0.03180649  0.32104088  1
  O  O56  1  0.50179147  0.65588367  0.99278317  1
  O  O57  1  0.49820853  0.15588367  0.50721683  1
  O  O58  1  0.99820853  0.34411633  0.49278317  1
  O  O59  1  0.00179147  0.84411633  0.00721683  1
  O  O60  1  0.99278317  0.50179147  0.65588367  1
  O  O61  1  0.50721683  0.49820853  0.15588367  1
  O  O62  1  0.49278317  0.99820853  0.34411633  1
  O  O63  1  0.00721683  0.00179147  0.84411633  1
  O  O64  1  0.65588367  0.99278317  0.50179147  1
  O  O65  1  0.15588367  0.50721683  0.49820853  1
  O  O66  1  0.34411633  0.49278317  0.99820853  1
  O  O67  1  0.84411633  0.00721683  0.00179147  1
  O  O68  1  0.49820853  0.34411633  0.00721683  1
  O  O69  1  0.50179147  0.84411633  0.49278317  1
  O  O70  1  0.00179147  0.65588367  0.50721683  1
  O  O71  1  0.99820853  0.15588367  0.99278317  1
  O  O72  1  0.00721683  0.49820853  0.34411633  1
  O  O73  1  0.49278317  0.50179147  0.84411633  1
  O  O74  1  0.50721683  0.00179147  0.65588367  1
  O  O75  1  0.99278317  0.99820853  0.15588367  1
  O  O76  1  0.34411633  0.00721683  0.49820853  1
  O  O77  1  0.84411633  0.49278317  0.50179147  1
  O  O78  1  0.65588367  0.50721683  0.00179147  1
  O  O79  1  0.15588367  0.99278317  0.99820853  1
loop_
_geom_bond_atom_site_label_1
_geom_bond_atom_site_label_2
_geom_bond_distance
_geom_bond_site_symmetry_2
Cs0 O48 3.018515 1_445
Cs0 O33 3.018515 1_455
Cs0 O55 3.018515 1_555
Cs0 O43 3.018515 1_445
Cs0 O45 3.018515 1_545
Cs0 O36 3.018515 1_555
Cs1 O41 3.018515 1_554
Cs1 O44 3.018515 1_454
Cs1 O51 3.018515 1_555
Cs1 O32 3.018515 1_555
Cs1 O39 3.018515 1_454
Cs1 O53 3.018515 1_455
Cs2 O37 3.018515 1_545
Cs2 O47 3.018515 1_555
Cs2 O52 3.018515 1_544
Cs2 O35 3.018515 1_544
Cs2 O40 3.018515 1_555
Cs2 O49 3.018515 1_554
Cs3 O34 3.018515 1_555
Cs3 O38 3.018515 1_555
Cs3 O42 3.018515 1_555
Cs3 O54 3.018515 1_555
Cs3 O46 3.018515 1_555
Cs3 O50 3.018515 1_555
H0 H42 0.754179 1_555
H1 H41 0.754179 1_555
H2 H43 0.754179 1_555
H3 H40 0.754179 1_555
H4 H46 0.754179 1_555
H10 H39 0.754179 1_555
H11 H36 0.754179 1_555
H12 H30 0.754179 1_555
H13 H29 0.754179 1_555
H14 H31 0.754179 1_555
H15 H28 0.754179 1_555
H16 H34 0.754179 1_555
H17 H33 0.754179 1_555
H18 H35 0.754179 1_555
H19 H32 0.754179 1_555
H20 H26 0.754179 1_555
H21 H25 0.754179 1_555
H22 H27 0.754179 1_555
H23 H24 0.754179 1_555
H37 H9 0.754179 1_555
H38 H8 0.754179 1_555
H44 H7 0.754179 1_555
H45 H5 0.754179 1_555
H47 H6 0.754179 1_555
H48 O71 1.001381 1_554
H48 O9 1.752417 1_555
H49 O70 1.001381 1_555
H49 O8 1.752417 1_555
H50 O69 1.001381 1_555
H50 O11 1.752417 1_555
H51 O68 1.001381 1_556
H51 O10 1.752417 1_555
H52 O75 1.001381 1_455
H52 O13 1.752417 1_555
H53 O74 1.001381 1_555
H53 O12 1.752417 1_555
H54 O73 1.001381 1_555
H54 O15 1.752417 1_555
H55 O72 1.001381 1_655
H55 O14 1.752417 1_555
H56 O79 1.001381 1_545
H56 O17 1.752417 1_555
H57 O78 1.001381 1_555
H57 O16 1.752417 1_555
H58 O77 1.001381 1_555
H58 O19 1.752417 1_555
H59 O76 1.001381 1_565
H59 O18 1.752417 1_555
H60 O59 1.001381 1_556
H60 O21 1.752417 1_555
H61 O58 1.001381 1_555
H61 O20 1.752417 1_555
H62 O57 1.001381 1_555
H62 O23 1.752417 1_555
H63 O56 1.001381 1_554
H63 O22 1.752417 1_555
H64 O63 1.001381 1_655
H64 O25 1.752417 1_555
H65 O62 1.001381 1_555
H65 O24 1.752417 1_555
H66 O61 1.001381 1_555
H66 O27 1.752417 1_555
H67 O60 1.001381 1_455
H67 O26 1.752417 1_555
H68 O67 1.001381 1_565
H68 O29 1.752417 1_555
H69 O66 1.001381 1_555
H69 O28 1.752417 1_555
H70 O65 1.001381 1_555
H70 O31 1.752417 1_555
H71 O64 1.001381 1_545
H71 O30 1.752417 1_555
H72 O75 0.977301 1_545
H73 O72 0.977301 1_555
H74 O74 0.977301 1_565
H75 O73 0.977301 1_555
H76 O79 0.977301 1_554
H77 O76 0.977301 1_555
H78 O78 0.977301 1_556
H79 O77 0.977301 1_555
H80 O71 0.977301 1_455
H81 O68 0.977301 1_555
H82 O70 0.977301 1_655
H83 O69 0.977301 1_555
H84 O63 0.977301 1_565
H85 O60 0.977301 1_555
H86 O62 0.977301 1_545
H87 O61 0.977301 1_555
H88 O67 0.977301 1_556
H89 O64 0.977301 1_555
H90 O66 0.977301 1_554
H91 O65 0.977301 1_555
H92 O59 0.977301 1_655
H93 O56 0.977301 1_555
H94 O58 0.977301 1_455
H95 O57 0.977301 1_555
O0 S0 1.440856 1_555
O1 S1 1.440856 1_555
O2 S2 1.440856 1_555
O3 S3 1.440856 1_555
O4 S4 1.440856 1_555
O5 S5 1.440856 1_555
O6 S6 1.440856 1_555
O7 S7 1.440856 1_555
O8 S0 1.861536 1_555
O9 S1 1.861536 1_555
O10 O49 1.385849 1_555
O10 S2 1.861536 1_555
O11 O50 1.385849 1_555
O11 S3 1.861536 1_555
O12 O52 1.385849 1_545
O12 S2 1.861536 1_555
O13 O55 1.385849 1_565
O13 S0 1.861536 1_555
O14 O53 1.385849 1_555
O14 S1 1.861536 1_555
O15 O54 1.385849 1_555
O15 S3 1.861536 1_555
O16 O44 1.385849 1_554
O16 S1 1.861536 1_555
O17 O47 1.385849 1_556
O17 S2 1.861536 1_555
O18 O45 1.385849 1_555
O18 S0 1.861536 1_555
O19 O46 1.385849 1_555
O19 S3 1.861536 1_555
O20 O36 1.385849 1_655
O20 S4 1.861536 1_555
O21 O39 1.385849 1_455
O21 S5 1.861536 1_555
O22 O37 1.385849 1_555
O22 S6 1.861536 1_555
O23 O38 1.385849 1_555
O23 S7 1.861536 1_555
O24 O40 1.385849 1_565
O24 S6 1.861536 1_555
O25 O43 1.385849 1_545
O25 S4 1.861536 1_555
O26 O41 1.385849 1_555
O26 S5 1.861536 1_555
O27 O42 1.385849 1_555
O27 S7 1.861536 1_555
O28 O32 1.385849 1_556
O28 S5 1.861536 1_555
O29 O35 1.385849 1_554
O29 S6 1.861536 1_555
O30 O33 1.385849 1_555
O30 S4 1.861536 1_555
O31 O34 1.385849 1_555
O31 S7 1.861536 1_555
O48 O8 1.385849 1_655
O51 O9 1.385849 1_455
O56 Ti0 2.083229 1_556
O57 Ti1 2.083229 1_555
O58 Ti2 2.083229 1_655
O59 Ti3 2.083229 1_565
O60 Ti2 2.083229 1_655
O61 Ti0 2.083229 1_555
O62 Ti1 2.083229 1_565
O63 Ti3 2.083229 1_556
O64 Ti1 2.083229 1_565
O65 Ti2 2.083229 1_555
O66 Ti0 2.083229 1_556
O67 Ti3 2.083229 1_655
O68 Ti0 2.083229 1_555
O69 Ti1 2.083229 1_565
O70 Ti2 2.083229 1_555
O71 Ti3 2.083229 1_656
O72 Ti2 2.083229 1_555
O73 Ti0 2.083229 1_556
O74 Ti1 2.083229 1_555
O75 Ti3 2.083229 1_665
O76 Ti1 2.083229 1_555
O77 Ti2 2.083229 1_655
O78 Ti0 2.083229 1_555
O79 Ti3 2.083229 1_566
