# generated using pymatgen
data_Sr3La4O9
_symmetry_space_group_name_H-M   'P 1'
_cell_length_a   7.36437300
_cell_length_b   9.78151672
_cell_length_c   10.38960404
_cell_angle_alpha   76.92197816
_cell_angle_beta   71.44589084
_cell_angle_gamma   74.58469234
_symmetry_Int_Tables_number   1
_chemical_formula_structural   Sr3La4O9
_chemical_formula_sum   'Sr6 La8 O18'
_cell_volume   675.71660529
_cell_formula_units_Z   2
loop_
 _symmetry_equiv_pos_site_id
 _symmetry_equiv_pos_as_xyz
  1  'x, y, z'
loop_
 _atom_site_type_symbol
 _atom_site_label
 _atom_site_symmetry_multiplicity
 _atom_site_fract_x
 _atom_site_fract_y
 _atom_site_fract_z
 _atom_site_occupancy
  Sr  Sr0  1  0.05201400  0.44545300  0.07245200  1
  Sr  Sr1  1  0.38237100  0.17739600  0.22980000  1
  Sr  Sr2  1  0.00927000  0.90458900  0.72170400  1
  Sr  Sr3  1  0.67511600  0.42437100  0.45595800  1
  Sr  Sr4  1  0.87338600  0.17801600  0.94250000  1
  Sr  Sr5  1  0.81062200  0.74442600  0.46431400  1
  La  La0  1  0.40556100  0.16021400  0.88589300  1
  La  La1  1  0.20117400  0.86134600  0.05044900  1
  La  La2  1  0.42371500  0.10520100  0.56771400  1
  La  La3  1  0.30757700  0.80237700  0.38508800  1
  La  La4  1  0.57003300  0.54186300  0.86898300  1
  La  La5  1  0.88967100  0.10913500  0.30022700  1
  La  La6  1  0.70825100  0.82590700  0.08190300  1
  La  La7  1  0.07790700  0.47320700  0.67760800  1
  O  O0  1  0.98391100  0.31900200  0.30581900  1
  O  O1  1  0.24560500  0.01357400  0.47300200  1
  O  O2  1  0.20255400  0.04114300  0.80300600  1
  O  O3  1  0.10674400  0.69540900  0.59694700  1
  O  O4  1  0.07969200  0.79412100  0.28140000  1
  O  O5  1  0.05426800  0.72118500  0.97099800  1
  O  O6  1  0.43805200  0.34538000  0.98923800  1
  O  O7  1  0.56454900  0.24582900  0.36387100  1
  O  O8  1  0.38962300  0.32080100  0.67157100  1
  O  O9  1  0.38974900  0.94630000  0.16486100  1
  O  O10  1  0.51516300  0.72330300  0.98324700  1
  O  O11  1  0.71462300  0.01829900  0.87730400  1
  O  O12  1  0.76920200  0.52028300  0.63639000  1
  O  O13  1  0.63000900  0.67635100  0.32953500  1
  O  O14  1  0.11409100  0.17577900  0.05855000  1
  O  O15  1  0.87995000  0.44298800  0.89685300  1
  O  O16  1  0.77204800  0.02317600  0.15349000  1
  O  O17  1  0.73350000  0.97917600  0.52492200  1
loop_
_geom_bond_atom_site_label_1
_geom_bond_atom_site_label_2
_geom_bond_distance
_geom_bond_site_symmetry_2
La0 O14 2.312552 1_556
La0 O11 2.315693 1_555
La0 O6 2.400950 1_555
La0 O8 2.434099 1_555
La0 O2 2.555805 1_555
La1 O4 2.285360 1_555
La1 O10 2.323125 1_554
La1 O5 2.366529 1_554
La1 O9 2.478548 1_555
La1 O2 2.765685 1_564
La1 O14 2.985309 1_565
La1 O16 3.097308 1_465
La2 O17 2.242624 1_545
La2 O1 2.310311 1_555
La2 O7 2.344207 1_555
La2 O8 2.500143 1_555
La2 O2 2.517305 1_555
La3 O4 2.290302 1_555
La3 O13 2.320496 1_555
La3 O1 2.323280 1_565
La3 O9 2.386908 1_555
La3 O3 2.415749 1_555
La4 O10 2.233685 1_555
La4 O6 2.309326 1_555
La4 O15 2.312717 1_555
La4 O12 2.417887 1_555
La5 O0 2.352900 1_555
La5 O16 2.364158 1_555
La5 O7 2.376633 1_555
La5 O17 2.472669 1_545
La5 O14 2.579188 1_655
La5 O4 3.049140 1_645
La6 O9 2.309906 1_555
La6 O16 2.418896 1_565
La6 O5 2.479554 1_654
La6 O10 2.496336 1_554
La6 O11 2.497079 1_564
La6 O13 2.625401 1_555
La7 O3 2.186139 1_555
La7 O15 2.283064 1_455
La7 O12 2.353223 1_455
La7 O8 2.372216 1_555
O0 Sr0 2.420493 1_655
O0 Sr3 2.427139 1_555
O0 Sr1 2.830628 1_655
O1 Sr1 2.715295 1_555
O1 Sr2 2.778494 1_545
O2 Sr4 2.585756 1_455
O2 Sr2 2.609650 1_545
O3 Sr2 2.491813 1_555
O3 Sr5 2.818162 1_455
O4 Sr5 2.339188 1_455
O5 Sr0 2.666768 1_556
O5 Sr2 2.857264 1_555
O6 Sr1 2.638598 1_556
O6 Sr0 2.669689 1_556
O6 Sr4 3.126153 1_555
O7 Sr1 2.505401 1_555
O7 Sr3 2.576095 1_555
O8 Sr3 2.751889 1_555
O9 Sr1 2.483839 1_565
O11 Sr2 2.420176 1_645
O11 Sr4 2.494094 1_555
O12 Sr5 2.516101 1_555
O12 Sr3 2.615824 1_555
O13 Sr5 2.500311 1_555
O13 Sr3 2.507561 1_555
O14 Sr4 2.433947 1_454
O14 Sr0 2.584040 1_555
O14 Sr1 3.055448 1_555
O15 Sr4 2.537828 1_555
O15 Sr0 2.538120 1_656
O16 Sr4 2.390282 1_554
O16 Sr1 2.816273 1_555
O17 Sr5 2.392719 1_555
O17 Sr2 3.164856 1_655
