# generated using pymatgen
data_Mg6Si5
_symmetry_space_group_name_H-M   'P 1'
_cell_length_a   3.97818300
_cell_length_b   6.93550652
_cell_length_c   15.91139354
_cell_angle_alpha   101.15219574
_cell_angle_beta   96.79482823
_cell_angle_gamma   90.53160093
_symmetry_Int_Tables_number   1
_chemical_formula_structural   Mg6Si5
_chemical_formula_sum   'Mg12 Si10'
_cell_volume   427.45849540
_cell_formula_units_Z   2
loop_
 _symmetry_equiv_pos_site_id
 _symmetry_equiv_pos_as_xyz
  1  'x, y, z'
loop_
 _atom_site_type_symbol
 _atom_site_label
 _atom_site_symmetry_multiplicity
 _atom_site_fract_x
 _atom_site_fract_y
 _atom_site_fract_z
 _atom_site_occupancy
  Mg  Mg0  1  0.77018000  0.33008100  0.05570400  1
  Mg  Mg1  1  0.48906400  0.89780300  0.50191600  1
  Mg  Mg2  1  0.91528500  0.64733600  0.35680400  1
  Mg  Mg3  1  0.06552400  0.15699900  0.64987800  1
  Mg  Mg4  1  0.64763900  0.24888800  0.82409800  1
  Mg  Mg5  1  0.33575200  0.56938200  0.18801100  1
  Mg  Mg6  1  0.95364700  0.17231900  0.42589200  1
  Mg  Mg7  1  0.02438700  0.61601400  0.57599000  1
  Mg  Mg8  1  0.22860400  0.56986600  0.97440200  1
  Mg  Mg9  1  0.28848100  0.97735700  0.11398300  1
  Mg  Mg10  1  0.68184700  0.78281800  0.88246100  1
  Mg  Mg11  1  0.21006400  0.09694200  0.94342700  1
  Si  Si0  1  0.52119600  0.29684700  0.55357900  1
  Si  Si1  1  0.45953500  0.49650100  0.44890300  1
  Si  Si2  1  0.85225300  0.24890500  0.21587900  1
  Si  Si3  1  0.12559900  0.53106200  0.78793000  1
  Si  Si4  1  0.57997700  0.86677600  0.68110800  1
  Si  Si5  1  0.39802400  0.92886200  0.32300600  1
  Si  Si6  1  0.85051800  0.87157500  0.22178700  1
  Si  Si7  1  0.12346300  0.90637200  0.77770400  1
  Si  Si8  1  0.58380800  0.50916000  0.69505100  1
  Si  Si9  1  0.39503400  0.28540400  0.30609600  1
loop_
_geom_bond_atom_site_label_1
_geom_bond_atom_site_label_2
_geom_bond_distance
_geom_bond_site_symmetry_2
Mg0 Si2 2.698244 1_555
Mg1 Si0 2.727645 1_565
Mg1 Si1 2.744817 1_555
Mg1 Si5 2.876805 1_555
Mg1 Si4 2.881179 1_555
Mg2 Si1 2.777682 1_555
Mg2 Si1 2.795328 1_655
Mg2 Si6 2.875619 1_555
Mg2 Si5 2.893193 1_655
Mg2 Si5 2.924860 1_555
Mg2 Si9 3.156021 1_555
Mg2 Si2 3.191235 1_555
Mg2 Si9 3.203795 1_655
Mg3 Si0 2.788208 1_555
Mg3 Si0 2.793990 1_455
Mg3 Si7 2.911246 1_545
Mg3 Si4 2.927697 1_445
Mg3 Si4 2.951219 1_545
Mg3 Si3 3.045076 1_555
Mg3 Si8 3.099990 1_555
Mg3 Si8 3.144539 1_455
Mg4 Si3 2.898623 1_655
Mg4 Si3 2.949976 1_555
Mg4 Si8 2.976232 1_555
Mg4 Si7 3.066246 1_545
Mg4 Si7 3.083327 1_645
Mg4 Si4 3.127545 1_545
Mg5 Si6 2.845927 1_555
Mg5 Si6 2.879679 1_455
Mg5 Si5 2.946536 1_555
Mg5 Si9 2.966510 1_555
Mg5 Si2 3.056186 1_455
Mg5 Si2 3.099875 1_555
Mg6 Si0 2.830049 1_555
Mg6 Si0 2.858488 1_655
Mg6 Si5 2.885668 1_645
Mg6 Si5 2.902061 1_545
Mg6 Si1 2.943239 1_655
Mg6 Si9 2.945576 1_655
Mg6 Si9 2.965670 1_555
Mg6 Si1 2.997820 1_555
Mg7 Si1 2.824772 1_555
Mg7 Si1 2.840299 1_455
Mg7 Si0 2.911663 1_455
Mg7 Si8 2.917998 1_455
Mg7 Si4 2.929051 1_455
Mg7 Si4 2.938707 1_555
Mg7 Si8 2.943957 1_555
Mg7 Si0 2.979239 1_555
Mg8 Si3 2.906024 1_555
Mg9 Si6 2.772437 1_455
Mg9 Si6 2.844194 1_555
Mg9 Si2 2.955063 1_465
Mg9 Si2 3.014242 1_565
Mg10 Si7 2.795814 1_655
Mg10 Si3 2.845531 1_655
Mg10 Si7 2.856348 1_555
Mg10 Si3 2.886624 1_555
Mg10 Si8 3.188753 1_555
Mg11 Si7 2.692053 1_545
Mg11 Mg4 3.044314 1_555
Mg11 Mg4 3.087746 1_455
Si0 Si1 2.356558 1_555
Si0 Si8 2.423982 1_555
Si1 Si9 2.437347 1_555
Si2 Si9 2.429612 1_655
Si2 Si9 2.432877 1_555
Si2 Si6 2.636745 1_545
Si3 Si8 2.450702 1_455
Si3 Si8 2.466892 1_555
Si3 Si7 2.639297 1_555
Si4 Si7 2.480263 1_655
Si4 Si7 2.498480 1_555
Si4 Si8 2.532555 1_555
Si5 Si6 2.530229 1_455
Si5 Si6 2.538467 1_555
Si5 Si9 2.538589 1_565
