# generated using pymatgen
data_Ce(BOs)4
_symmetry_space_group_name_H-M   'P 1'
_cell_length_a   4.02117800
_cell_length_b   7.58260200
_cell_length_c   7.58260200
_cell_angle_alpha   90.00000000
_cell_angle_beta   90.00000000
_cell_angle_gamma   90.00000000
_symmetry_Int_Tables_number   1
_chemical_formula_structural   Ce(BOs)4
_chemical_formula_sum   'Ce2 B8 Os8'
_cell_volume   231.20105954
_cell_formula_units_Z   2
loop_
 _symmetry_equiv_pos_site_id
 _symmetry_equiv_pos_as_xyz
  1  'x, y, z'
loop_
 _atom_site_type_symbol
 _atom_site_label
 _atom_site_symmetry_multiplicity
 _atom_site_fract_x
 _atom_site_fract_y
 _atom_site_fract_z
 _atom_site_occupancy
  Ce  Ce0  1  0.25000000  0.25000000  0.25000000  1
  Ce  Ce1  1  0.75000000  0.75000000  0.75000000  1
  B  B0  1  0.36234300  0.91275400  0.03059800  1
  B  B1  1  0.36234300  0.58724600  0.46940200  1
  B  B2  1  0.86234300  0.53059800  0.08724600  1
  B  B3  1  0.86234300  0.96940200  0.41275400  1
  B  B4  1  0.63765700  0.08724600  0.96940200  1
  B  B5  1  0.63765700  0.41275400  0.53059800  1
  B  B6  1  0.13765700  0.46940200  0.91275400  1
  B  B7  1  0.13765700  0.03059800  0.58724600  1
  Os  Os0  1  0.13846100  0.39474000  0.64137300  1
  Os  Os1  1  0.13846100  0.10526000  0.85862700  1
  Os  Os2  1  0.63846100  0.14137300  0.60526000  1
  Os  Os3  1  0.63846100  0.35862700  0.89474000  1
  Os  Os4  1  0.86153900  0.60526000  0.35862700  1
  Os  Os5  1  0.86153900  0.89474000  0.14137300  1
  Os  Os6  1  0.36153900  0.85862700  0.39474000  1
  Os  Os7  1  0.36153900  0.64137300  0.10526000  1
loop_
_geom_bond_atom_site_label_1
_geom_bond_atom_site_label_2
_geom_bond_distance
_geom_bond_site_symmetry_2
Ce0 Os7 3.195699 1_555
Ce0 Os0 3.195699 1_555
Ce0 Os6 3.195699 1_545
Ce0 Os1 3.195699 1_554
Ce0 Os3 3.221031 1_554
Ce0 Os2 3.221031 1_555
Ce0 Os5 3.221031 1_445
Ce0 Os4 3.221031 1_455
Ce1 Os5 3.195699 1_556
Ce1 Os2 3.195699 1_565
Ce1 Os4 3.195699 1_555
Ce1 Os3 3.195699 1_555
Ce1 Os1 3.221031 1_665
Ce1 Os6 3.221031 1_555
Ce1 Os7 3.221031 1_556
Ce1 Os0 3.221031 1_655
B0 B4 1.786494 1_564
B0 Os7 2.134233 1_555
B0 Os1 2.154433 1_564
B0 Os5 2.180292 1_555
B0 Os5 2.186247 1_455
B0 Ce1 2.912031 1_554
B0 Ce0 3.084000 1_565
B0 Ce1 3.480383 1_454
B1 B5 1.786494 1_555
B1 Os6 2.134233 1_555
B1 Os0 2.154433 1_555
B1 Os4 2.180292 1_555
B1 Os4 2.186247 1_455
B1 Ce1 2.912031 1_555
B1 Ce0 3.084000 1_555
B1 Ce1 3.480383 1_455
B2 B6 1.786494 1_654
B2 Os4 2.134233 1_555
B2 Os3 2.154433 1_554
B2 Os7 2.180292 1_655
B2 Os7 2.186247 1_555
B2 Ce0 2.912031 1_655
B2 Ce1 3.084000 1_554
B2 Ce0 3.480383 1_555
B3 B7 1.786494 1_665
B3 Os5 2.134233 1_555
B3 Os2 2.154433 1_565
B3 Os6 2.180292 1_655
B3 Os6 2.186247 1_555
B3 Ce0 2.912031 1_665
B3 Ce1 3.084000 1_555
B3 Ce0 3.480383 1_565
B4 Os3 2.134233 1_555
B4 Os5 2.154433 1_546
B4 Os1 2.180292 1_555
B4 Os1 2.186247 1_655
B4 Ce0 2.912031 1_556
B4 Ce1 3.084000 1_545
B4 Ce0 3.480383 1_656
B5 Os2 2.134233 1_555
B5 Os4 2.154433 1_555
B5 Os0 2.180292 1_555
B5 Os0 2.186247 1_655
B5 Ce0 2.912031 1_555
B5 Ce1 3.084000 1_555
B5 Ce0 3.480383 1_655
B6 Os0 2.134233 1_555
B6 Os7 2.154433 1_556
B6 Os3 2.180292 1_455
B6 Os3 2.186247 1_555
B6 Ce1 2.912031 1_455
B6 Ce0 3.084000 1_556
B6 Ce1 3.480383 1_555
B7 Os1 2.134233 1_555
B7 Os6 2.154433 1_545
B7 Os2 2.180292 1_455
B7 Os2 2.186247 1_555
B7 Ce1 2.912031 1_445
B7 Ce0 3.084000 1_555
B7 Ce1 3.480383 1_545
