# generated using pymatgen
data_NaCoH3(CO2)3
_symmetry_space_group_name_H-M   'P 1'
_cell_length_a   7.88601006
_cell_length_b   7.88601006
_cell_length_c   9.07196648
_cell_angle_alpha   55.08203686
_cell_angle_beta   55.08203686
_cell_angle_gamma   70.58718052
_symmetry_Int_Tables_number   1
_chemical_formula_structural   NaCoH3(CO2)3
_chemical_formula_sum   'Na2 Co2 H6 C6 O12'
_cell_volume   379.31838049
_cell_formula_units_Z   2
loop_
 _symmetry_equiv_pos_site_id
 _symmetry_equiv_pos_as_xyz
  1  'x, y, z'
loop_
 _atom_site_type_symbol
 _atom_site_label
 _atom_site_symmetry_multiplicity
 _atom_site_fract_x
 _atom_site_fract_y
 _atom_site_fract_z
 _atom_site_occupancy
  Na  Na0  1  0.67666100  0.50083300  0.06742400  1
  Na  Na1  1  0.49916700  0.32333900  0.93257600  1
  Co  Co0  1  0.81567400  0.00331300  0.75238700  1
  Co  Co1  1  0.99668700  0.18432600  0.24761300  1
  H  H0  1  0.50168900  0.49831100  0.50000000  1
  H  H1  1  0.26930900  0.75383100  0.73935900  1
  H  H2  1  0.22983500  0.23677600  0.53302300  1
  H  H3  1  0.03012000  0.96988000  0.00000000  1
  H  H4  1  0.76322400  0.77016500  0.46697700  1
  H  H5  1  0.24616900  0.73069100  0.26064100  1
  C  C0  1  0.62391100  0.37608900  0.50000000  1
  C  C1  1  0.13301600  0.64976600  0.86008700  1
  C  C2  1  0.23318500  0.24329800  0.40556100  1
  C  C3  1  0.90812800  0.09187200  0.00000000  1
  C  C4  1  0.75670200  0.76681500  0.59443900  1
  C  C5  1  0.35023400  0.86698400  0.13991300  1
  O  O0  1  0.73382300  0.36317900  0.33681200  1
  O  O1  1  0.16753600  0.46516900  0.97579400  1
  O  O2  1  0.07518400  0.16723900  0.45579100  1
  O  O3  1  0.87583200  0.18985400  0.08633700  1
  O  O4  1  0.95916900  0.72351900  0.87025600  1
  O  O5  1  0.67774400  0.61404000  0.77069500  1
  O  O6  1  0.81014600  0.12416800  0.91366300  1
  O  O7  1  0.27648100  0.04083100  0.12974400  1
  O  O8  1  0.38596000  0.32225600  0.22930500  1
  O  O9  1  0.63682100  0.26617700  0.66318800  1
  O  O10  1  0.53483100  0.83246400  0.02420600  1
  O  O11  1  0.83276100  0.92481600  0.54420900  1
loop_
_geom_bond_atom_site_label_1
_geom_bond_atom_site_label_2
_geom_bond_distance
_geom_bond_site_symmetry_2
Na0 O0 2.291931 1_555
Na0 O5 2.295871 1_554
Na0 O8 2.306424 1_555
Na0 O10 2.372332 1_555
Na0 O4 2.385248 1_554
Na0 O3 2.403520 1_555
Na1 O9 2.291931 1_555
Na1 O8 2.295871 1_556
Na1 O5 2.306424 1_555
Na1 O1 2.372332 1_555
Na1 O7 2.385248 1_556
Na1 O6 2.403520 1_555
Co0 O4 2.077705 1_545
Co0 O9 2.093793 1_555
Co0 O6 2.132268 1_555
Co0 O2 2.138197 1_655
Co0 O10 2.174619 1_546
Co0 O11 2.227038 1_545
Co1 O7 2.077705 1_655
Co1 O0 2.093793 1_555
Co1 O3 2.132268 1_555
Co1 O11 2.138197 1_545
Co1 O1 2.174619 1_654
Co1 O2 2.227038 1_655
C0 H0 1.113753 1_555
C0 O9 1.264207 1_555
C0 O0 1.264207 1_555
C1 H1 1.112643 1_555
C1 O1 1.268651 1_555
C1 O4 1.270002 1_455
C2 H2 1.112785 1_555
C2 O8 1.244771 1_555
C2 O2 1.286009 1_555
C3 H3 1.111657 1_645
C3 O3 1.268480 1_555
C3 O6 1.268480 1_554
C4 H4 1.112785 1_555
C4 O5 1.244771 1_555
C4 O11 1.286009 1_555
C5 H5 1.112643 1_555
C5 O10 1.268651 1_555
C5 O7 1.270002 1_565
