# generated using pymatgen
data_Dy2CoGe4
_symmetry_space_group_name_H-M   'P 1'
_cell_length_a   4.04619630
_cell_length_b   4.11027628
_cell_length_c   8.24697330
_cell_angle_alpha   75.52332585
_cell_angle_beta   90.00002128
_cell_angle_gamma   90.00000001
_symmetry_Int_Tables_number   1
_chemical_formula_structural   Dy2CoGe4
_chemical_formula_sum   'Dy2 Co1 Ge4'
_cell_volume   132.80053679
_cell_formula_units_Z   1
loop_
 _symmetry_equiv_pos_site_id
 _symmetry_equiv_pos_as_xyz
  1  'x, y, z'
loop_
 _atom_site_type_symbol
 _atom_site_label
 _atom_site_symmetry_multiplicity
 _atom_site_fract_x
 _atom_site_fract_y
 _atom_site_fract_z
 _atom_site_occupancy
  Dy  Dy0  1  0.25000000  0.89117478  0.21818512  1
  Dy  Dy1  1  0.75000000  0.10271383  0.79403088  1
  Co  Co0  1  0.25000000  0.68739255  0.62578997  1
  Ge  Ge0  1  0.25000000  0.25534789  0.48992512  1
  Ge  Ge1  1  0.75000000  0.75304193  0.49207107  1
  Ge  Ge2  1  0.25000000  0.54429669  0.91064688  1
  Ge  Ge3  1  0.75000000  0.44503134  0.11134896  1
loop_
_geom_bond_atom_site_label_1
_geom_bond_atom_site_label_2
_geom_bond_distance
_geom_bond_site_symmetry_2
Dy0 Ge1 2.979256 1_555
Dy0 Ge1 2.979257 1_455
Dy0 Ge0 2.987306 1_555
Dy0 Ge0 2.989974 1_565
Dy0 Ge3 3.006616 1_455
Dy0 Ge3 3.006617 1_555
Dy0 Ge3 3.008132 1_465
Dy0 Ge3 3.008132 1_565
Dy0 Ge2 3.199234 1_564
Dy0 Ge2 3.205210 1_554
Dy1 Ge2 3.030243 1_645
Dy1 Ge2 3.030244 1_545
Dy1 Ge2 3.030661 1_655
Dy1 Ge2 3.030661 1_555
Dy1 Ge0 3.160645 1_555
Dy1 Ge0 3.160646 1_655
Dy1 Ge1 3.165182 1_555
Dy1 Ge1 3.171199 1_545
Dy1 Ge3 3.258672 1_546
Dy1 Ge3 3.266322 1_556
Co0 Ge2 2.274619 1_555
Co0 Ge1 2.287592 1_455
Co0 Ge1 2.287592 1_555
Co0 Ge0 2.323222 1_565
Co0 Ge0 2.324615 1_555
Co0 Dy1 3.180623 1_565
Co0 Dy1 3.180624 1_465
Co0 Dy1 3.182178 1_555
Co0 Dy1 3.182178 1_455
Ge0 Ge1 2.880289 1_555
Ge0 Ge1 2.880289 1_455
Ge0 Ge1 2.887492 1_545
Ge0 Ge1 2.887492 1_445
Ge2 Ge3 2.580966 1_556
Ge2 Ge3 2.580967 1_456
