# generated using pymatgen
data_CaLa(CoO3)2
_symmetry_space_group_name_H-M   'P 1'
_cell_length_a   5.37218862
_cell_length_b   5.37218862
_cell_length_c   5.37218862
_cell_angle_alpha   60.00000000
_cell_angle_beta   60.00000000
_cell_angle_gamma   60.00000000
_symmetry_Int_Tables_number   1
_chemical_formula_structural   CaLa(CoO3)2
_chemical_formula_sum   'Ca1 La1 Co2 O6'
_cell_volume   109.63235892
_cell_formula_units_Z   1
loop_
 _symmetry_equiv_pos_site_id
 _symmetry_equiv_pos_as_xyz
  1  'x, y, z'
loop_
 _atom_site_type_symbol
 _atom_site_label
 _atom_site_symmetry_multiplicity
 _atom_site_fract_x
 _atom_site_fract_y
 _atom_site_fract_z
 _atom_site_occupancy
  Ca  Ca0  1  0.50000000  0.50000000  0.50000000  1
  La  La0  1  0.00000000  0.00000000  0.00000000  1
  Co  Co0  1  0.25000000  0.25000000  0.25000000  1
  Co  Co1  1  0.75000000  0.75000000  0.75000000  1
  O  O0  1  0.00000000  0.50000000  0.00000000  1
  O  O1  1  0.50000000  0.00000000  0.50000000  1
  O  O2  1  0.50000000  0.00000000  0.00000000  1
  O  O3  1  0.00000000  0.50000000  0.50000000  1
  O  O4  1  0.00000000  0.00000000  0.50000000  1
  O  O5  1  0.50000000  0.50000000  0.00000000  1
loop_
_geom_bond_atom_site_label_1
_geom_bond_atom_site_label_2
_geom_bond_distance
_geom_bond_site_symmetry_2
Ca0 O4 2.686094 1_655
Ca0 O2 2.686094 1_556
Ca0 O5 2.686094 1_555
Ca0 O5 2.686094 1_556
Ca0 O4 2.686094 1_565
Ca0 O1 2.686094 1_565
Ca0 O3 2.686094 1_555
Ca0 O2 2.686094 1_565
Ca0 O0 2.686094 1_556
Ca0 O0 2.686094 1_655
Ca0 O1 2.686094 1_555
Ca0 O3 2.686094 1_655
La0 O2 2.686094 1_455
La0 O0 2.686094 1_545
La0 O5 2.686094 1_455
La0 O0 2.686094 1_555
La0 O2 2.686094 1_555
La0 O1 2.686094 1_455
La0 O3 2.686094 1_554
La0 O4 2.686094 1_554
La0 O5 2.686094 1_545
La0 O4 2.686094 1_555
La0 O1 2.686094 1_554
La0 O3 2.686094 1_545
Co0 O4 1.899355 1_555
Co0 O1 1.899355 1_555
Co0 O5 1.899355 1_555
Co0 O0 1.899355 1_555
Co0 O3 1.899355 1_555
Co0 O2 1.899355 1_555
Co1 O3 1.899355 1_655
Co1 O2 1.899355 1_566
Co1 O5 1.899355 1_556
Co1 O1 1.899355 1_565
Co1 O4 1.899355 1_665
Co1 O0 1.899355 1_656
