# generated using pymatgen
data_Yb4Ta25O68
_symmetry_space_group_name_H-M   'P 1'
_cell_length_a   6.28814446
_cell_length_b   6.28814579
_cell_length_c   72.46744153
_cell_angle_alpha   90.00000000
_cell_angle_beta   90.00000000
_cell_angle_gamma   120.00000142
_symmetry_Int_Tables_number   1
_chemical_formula_structural   Yb4Ta25O68
_chemical_formula_sum   'Yb8 Ta50 O136'
_cell_volume   2481.52506867
_cell_formula_units_Z   2
loop_
 _symmetry_equiv_pos_site_id
 _symmetry_equiv_pos_as_xyz
  1  'x, y, z'
loop_
 _atom_site_type_symbol
 _atom_site_label
 _atom_site_symmetry_multiplicity
 _atom_site_fract_x
 _atom_site_fract_y
 _atom_site_fract_z
 _atom_site_occupancy
  Yb  Yb0  1  0.66667475  0.33332280  0.04285303  1
  Yb  Yb1  1  0.66667475  0.33332280  0.45714697  1
  Yb  Yb2  1  0.33335195  0.66667720  0.54285303  1
  Yb  Yb3  1  0.33335195  0.66667720  0.95714697  1
  Yb  Yb4  1  0.66667067  0.33333349  0.18115264  1
  Yb  Yb5  1  0.66667067  0.33333349  0.31884736  1
  Yb  Yb6  1  0.33333718  0.66666651  0.68115264  1
  Yb  Yb7  1  0.33333718  0.66666651  0.81884736  1
  Ta  Ta0  1  0.35761349  1.00000000  0.00000000  1
  Ta  Ta1  1  0.64239204  0.64238633  0.00000053  1
  Ta  Ta2  1  0.00000571  0.35761367  0.99999947  1
  Ta  Ta3  1  0.35761349  1.00000000  0.50000000  1
  Ta  Ta4  1  0.64239204  0.64238633  0.49999947  1
  Ta  Ta5  1  0.00000571  0.35761367  0.50000053  1
  Ta  Ta6  1  0.33333464  0.66666670  0.04261658  1
  Ta  Ta7  1  0.33333464  0.66666670  0.45738342  1
  Ta  Ta8  1  0.66666793  0.33333330  0.54261658  1
  Ta  Ta9  1  0.66666793  0.33333330  0.95738342  1
  Ta  Ta10  1  0.35941612  0.35882083  0.08535574  1
  Ta  Ta11  1  0.99940524  0.64058956  0.08535599  1
  Ta  Ta12  1  0.64118186  0.00059851  0.08535602  1
  Ta  Ta13  1  0.35941612  0.35882083  0.41464426  1
  Ta  Ta14  1  0.99940524  0.64058956  0.41464401  1
  Ta  Ta15  1  0.64118186  0.00059851  0.41464398  1
  Ta  Ta16  1  0.00059529  0.64117917  0.58535574  1
  Ta  Ta17  1  0.35881568  0.35941044  0.58535599  1
  Ta  Ta18  1  0.64058335  0.99940149  0.58535602  1
  Ta  Ta19  1  0.00059529  0.64117917  0.91464426  1
  Ta  Ta20  1  0.35881568  0.35941044  0.91464401  1
  Ta  Ta21  1  0.64058335  0.99940149  0.91464398  1
  Ta  Ta22  1  0.35936149  0.35819045  0.13855127  1
  Ta  Ta23  1  0.99882500  0.64064093  0.13855048  1
  Ta  Ta24  1  0.64180912  0.00117333  0.13855093  1
  Ta  Ta25  1  0.35936149  0.35819045  0.36144873  1
  Ta  Ta26  1  0.99882500  0.64064093  0.36144952  1
  Ta  Ta27  1  0.64180912  0.00117333  0.36144907  1
  Ta  Ta28  1  0.00117104  0.64180955  0.63855127  1
  Ta  Ta29  1  0.35818408  0.35935907  0.63855048  1
  Ta  Ta30  1  0.64063579  0.99882667  0.63855093  1
  Ta  Ta31  1  0.00117104  0.64180955  0.86144873  1
  Ta  Ta32  1  0.35818408  0.35935907  0.86144952  1
  Ta  Ta33  1  0.64063579  0.99882667  0.86144907  1
  Ta  Ta34  1  0.33332673  0.66666751  0.18094919  1
  Ta  Ta35  1  0.33332673  0.66666751  0.31905081  1
  Ta  Ta36  1  0.66665922  0.33333249  0.68094919  1
  Ta  Ta37  1  0.66665922  0.33333249  0.81905081  1
  Ta  Ta38  1  0.35872965  0.00061831  0.22348071  1
  Ta  Ta39  1  0.64189182  0.64127303  0.22347907  1
  Ta  Ta40  1  0.99938201  0.35810890  0.22348049  1
  Ta  Ta41  1  0.35872965  0.00061831  0.27651929  1
  Ta  Ta42  1  0.64189182  0.64127303  0.27652093  1
  Ta  Ta43  1  0.99938201  0.35810890  0.27651951  1
  Ta  Ta44  1  0.35811134  0.99938169  0.72348071  1
  Ta  Ta45  1  0.00061879  0.35872697  0.72347907  1
  Ta  Ta46  1  0.64127311  0.64189110  0.72348049  1
  Ta  Ta47  1  0.35811134  0.99938169  0.77651929  1
  Ta  Ta48  1  0.00061879  0.35872697  0.77652093  1
  Ta  Ta49  1  0.64127311  0.64189110  0.77651951  1
  O  O0  1  0.24389711  0.24389009  0.00000006  1
  O  O1  1  0.00000702  0.75610991  0.99999994  1
  O  O2  1  0.75613610  1.00000000  0.00000000  1
  O  O3  1  0.24389711  0.24389009  0.49999994  1
  O  O4  1  0.00000702  0.75610991  0.50000006  1
  O  O5  1  0.75613610  1.00000000  0.50000000  1
  O  O6  1  0.66667460  0.33333152  0.00558595  1
  O  O7  1  0.66667460  0.33333152  0.49441405  1
  O  O8  1  0.33334308  0.66666848  0.50558595  1
  O  O9  1  0.33334308  0.66666848  0.99441405  1
  O  O10  1  0.05139227  0.43580403  0.02663343  1
  O  O11  1  0.38440940  0.94860766  0.02663354  1
  O  O12  1  0.56419944  0.61558727  0.02663350  1
  O  O13  1  0.05139227  0.43580403  0.47336657  1
  O  O14  1  0.38440940  0.94860766  0.47336646  1
  O  O15  1  0.56419944  0.61558727  0.47336650  1
  O  O16  1  0.61558824  0.56419597  0.52663343  1
  O  O17  1  0.43580174  0.05139234  0.52663354  1
  O  O18  1  0.94861217  0.38441273  0.52663350  1
  O  O19  1  0.61558824  0.56419597  0.97336657  1
  O  O20  1  0.43580174  0.05139234  0.97336646  1
  O  O21  1  0.94861217  0.38441273  0.97336650  1
  O  O22  1  0.38011612  0.43324941  0.05856455  1
  O  O23  1  0.05313475  0.61988668  0.05856461  1
  O  O24  1  0.56674911  0.94686130  0.05856463  1
  O  O25  1  0.38011612  0.43324941  0.44143545  1
  O  O26  1  0.05313475  0.61988668  0.44143539  1
  O  O27  1  0.56674911  0.94686130  0.44143537  1
  O  O28  1  0.94686671  0.56675059  0.55856455  1
  O  O29  1  0.43324806  0.38011332  0.55856461  1
  O  O30  1  0.61988781  0.05313870  0.55856463  1
  O  O31  1  0.94686671  0.56675059  0.94143545  1
  O  O32  1  0.43324806  0.38011332  0.94143539  1
  O  O33  1  0.61988781  0.05313870  0.94143537  1
  O  O34  1  0.66666766  0.33333295  0.07948373  1
  O  O35  1  0.66666766  0.33333295  0.42051627  1
  O  O36  1  0.33333472  0.66666705  0.57948373  1
  O  O37  1  0.33333472  0.66666705  0.92051627  1
  O  O38  1  0.99924584  0.24513928  0.08511165  1
  O  O39  1  0.24589943  0.00075289  0.08511167  1
  O  O40  1  0.75485038  0.75409775  0.08511163  1
  O  O41  1  0.99924584  0.24513928  0.41488835  1
  O  O42  1  0.24589943  0.00075289  0.41488833  1
  O  O43  1  0.75485038  0.75409775  0.41488837  1
  O  O44  1  0.75410656  0.75486072  0.58511165  1
  O  O45  1  0.24514654  0.99924711  0.58511167  1
  O  O46  1  0.00075263  0.24590225  0.58511163  1
  O  O47  1  0.75410656  0.75486072  0.91488835  1
  O  O48  1  0.24514654  0.99924711  0.91488833  1
  O  O49  1  0.00075263  0.24590225  0.91488837  1
  O  O50  1  0.33333227  0.66666602  0.08973531  1
  O  O51  1  0.33333227  0.66666602  0.41026469  1
  O  O52  1  0.66666625  0.33333398  0.58973531  1
  O  O53  1  0.66666625  0.33333398  0.91026469  1
  O  O54  1  0.41679693  0.37766568  0.11195874  1
  O  O55  1  0.96085717  0.58320077  0.11195854  1
  O  O56  1  0.62233910  0.03913691  0.11195920  1
  O  O57  1  0.41679693  0.37766568  0.38804126  1
  O  O58  1  0.96085717  0.58320077  0.38804146  1
  O  O59  1  0.62233910  0.03913691  0.38804080  1
  O  O60  1  0.03913126  0.62233432  0.61195874  1
  O  O61  1  0.37765640  0.41679923  0.61195854  1
  O  O62  1  0.58320219  0.96086309  0.61195920  1
  O  O63  1  0.03913126  0.62233432  0.88804126  1
  O  O64  1  0.37765640  0.41679923  0.88804146  1
  O  O65  1  0.58320219  0.96086309  0.88804080  1
  O  O66  1  0.33333134  0.66666436  0.13468427  1
  O  O67  1  0.33333134  0.66666436  0.36531573  1
  O  O68  1  0.66666698  0.33333564  0.63468427  1
  O  O69  1  0.66666698  0.33333564  0.86531573  1
  O  O70  1  0.24573778  0.00074322  0.13871302  1
  O  O71  1  0.75500531  0.75426328  0.13871324  1
  O  O72  1  0.99925532  0.24498667  0.13871320  1
  O  O73  1  0.24573778  0.00074322  0.36128698  1
  O  O74  1  0.75500531  0.75426328  0.36128676  1
  O  O75  1  0.99925532  0.24498667  0.36128680  1
  O  O76  1  0.24499456  0.99925678  0.63871302  1
  O  O77  1  0.00074203  0.24573672  0.63871324  1
  O  O78  1  0.75426865  0.75501333  0.63871320  1
  O  O79  1  0.24499456  0.99925678  0.86128698  1
  O  O80  1  0.00074203  0.24573672  0.86128676  1
  O  O81  1  0.75426865  0.75501333  0.86128680  1
  O  O82  1  0.66666565  0.33333274  0.14445907  1
  O  O83  1  0.66666565  0.33333274  0.35554093  1
  O  O84  1  0.33333291  0.66666726  0.64445907  1
  O  O85  1  0.33333291  0.66666726  0.85554093  1
  O  O86  1  0.37819784  0.42962486  0.16535920  1
  O  O87  1  0.05142431  0.62180517  0.16535932  1
  O  O88  1  0.57037976  0.94858096  0.16535947  1
  O  O89  1  0.37819784  0.42962486  0.33464080  1
  O  O90  1  0.05142431  0.62180517  0.33464068  1
  O  O91  1  0.57037976  0.94858096  0.33464053  1
  O  O92  1  0.94857299  0.57037514  0.66535920  1
  O  O93  1  0.42961915  0.37819483  0.66535932  1
  O  O94  1  0.62179880  0.05141904  0.66535947  1
  O  O95  1  0.94857299  0.57037514  0.83464080  1
  O  O96  1  0.42961915  0.37819483  0.83464068  1
  O  O97  1  0.62179880  0.05141904  0.83464053  1
  O  O98  1  0.05254735  0.43144924  0.19675650  1
  O  O99  1  0.37889050  0.94744068  0.19675654  1
  O  O100  1  0.56856404  0.62109801  0.19675504  1
  O  O101  1  0.05254735  0.43144924  0.30324350  1
  O  O102  1  0.37889050  0.94744068  0.30324346  1
  O  O103  1  0.56856404  0.62109801  0.30324496  1
  O  O104  1  0.62109811  0.56855076  0.69675650  1
  O  O105  1  0.43144982  0.05255932  0.69675654  1
  O  O106  1  0.94746603  0.37890199  0.69675504  1
  O  O107  1  0.62109811  0.56855076  0.80324350  1
  O  O108  1  0.43144982  0.05255932  0.80324346  1
  O  O109  1  0.94746603  0.37890199  0.80324496  1
  O  O110  1  0.66667053  0.33333491  0.21776433  1
  O  O111  1  0.66667053  0.33333491  0.28223567  1
  O  O112  1  0.33333562  0.66666509  0.71776433  1
  O  O113  1  0.33333562  0.66666509  0.78223567  1
  O  O114  1  0.24526847  0.24440319  0.22330916  1
  O  O115  1  0.99913940  0.75473879  0.22331070  1
  O  O116  1  0.75560312  0.00086649  0.22330888  1
  O  O117  1  0.24526847  0.24440319  0.27669084  1
  O  O118  1  0.99913940  0.75473879  0.27668930  1
  O  O119  1  0.75560312  0.00086649  0.27669112  1
  O  O120  1  0.00086528  0.75559681  0.72330916  1
  O  O121  1  0.24440061  0.24526121  0.72331070  1
  O  O122  1  0.75473664  0.99913351  0.72330888  1
  O  O123  1  0.00086528  0.75559681  0.77669084  1
  O  O124  1  0.24440061  0.24526121  0.77668930  1
  O  O125  1  0.75473664  0.99913351  0.77669112  1
  O  O126  1  0.33334124  0.66666893  0.22764497  1
  O  O127  1  0.33334124  0.66666893  0.27235503  1
  O  O128  1  0.66667232  0.33333107  0.72764497  1
  O  O129  1  0.66667232  0.33333107  0.77235503  1
  O  O130  1  0.41751557  0.03782282  0.25000000  1
  O  O131  1  0.62030170  0.58251128  0.25000000  1
  O  O132  1  0.96218342  0.37970042  0.25000000  1
  O  O133  1  0.37969275  0.96217718  0.75000000  1
  O  O134  1  0.03779042  0.41748872  0.75000000  1
  O  O135  1  0.58248300  0.62029958  0.75000000  1
loop_
_geom_bond_atom_site_label_1
_geom_bond_atom_site_label_2
_geom_bond_distance
_geom_bond_site_symmetry_2
O0 Ta0 1.989958 1_545
O0 Ta2 1.989999 1_554
O0 Ta1 2.505798 1_555
O1 Ta0 1.989958 1_556
O1 Ta1 1.989999 1_456
O1 Ta2 2.505798 1_555
O2 Ta2 1.989965 1_664
O2 Ta1 1.989965 1_555
O2 Ta0 2.505968 1_555
O3 Ta3 1.989958 1_545
O3 Ta5 1.989999 1_555
O3 Ta4 2.505798 1_555
O4 Ta3 1.989958 1_555
O4 Ta4 1.989999 1_455
O4 Ta5 2.505798 1_555
O5 Ta5 1.989965 1_665
O5 Ta4 1.989965 1_555
O5 Ta3 2.505968 1_555
O6 Ta2 2.064104 1_654
O6 Ta1 2.064127 1_555
O6 Ta0 2.064131 1_545
O6 Yb0 2.700650 1_555
O7 Ta5 2.064104 1_655
O7 Ta4 2.064127 1_555
O7 Ta3 2.064131 1_545
O7 Yb1 2.700650 1_555
O8 Ta4 2.064104 1_555
O8 Ta5 2.064126 1_555
O8 Ta3 2.064131 1_555
O8 Yb2 2.700650 1_555
O9 Ta1 2.064104 1_556
O9 Ta2 2.064126 1_555
O9 Ta0 2.064131 1_556
O9 Yb3 2.700650 1_555
O10 Ta2 1.978016 1_554
O10 Ta6 2.004604 1_555
O10 Yb0 2.467834 1_455
O11 Ta0 1.977985 1_555
O11 Ta6 2.004601 1_555
O11 Yb0 2.467863 1_565
O12 Ta1 1.977950 1_555
O12 Ta6 2.004611 1_555
O12 Yb0 2.467960 1_555
O13 Ta5 1.978016 1_555
O13 Ta7 2.004604 1_555
O13 Yb1 2.467834 1_455
O14 Ta3 1.977985 1_555
O14 Ta7 2.004601 1_555
O14 Yb1 2.467863 1_565
O15 Ta4 1.977950 1_555
O15 Ta7 2.004611 1_555
O15 Yb1 2.467960 1_555
O16 Ta4 1.978016 1_555
O16 Ta8 2.004604 1_555
O16 Yb2 2.467834 1_555
O17 Ta3 1.977985 1_545
O17 Ta8 2.004601 1_555
O17 Yb2 2.467864 1_545
O18 Ta5 1.977950 1_655
O18 Ta8 2.004611 1_555
O18 Yb2 2.467959 1_655
O19 Ta1 1.978016 1_556
O19 Ta9 2.004604 1_555
O19 Yb3 2.467834 1_555
O20 Ta0 1.977985 1_546
O20 Ta9 2.004601 1_555
O20 Yb3 2.467864 1_545
O21 Ta2 1.977950 1_655
O21 Ta9 2.004611 1_555
O21 Yb3 2.467959 1_655
O22 Ta10 1.986062 1_555
O22 Ta6 2.002072 1_555
O22 Yb0 2.463807 1_555
O23 Ta11 1.986080 1_455
O23 Ta6 2.002083 1_555
O23 Yb0 2.463718 1_455
O24 Ta12 1.986083 1_565
O24 Ta6 2.002057 1_555
O24 Yb0 2.463683 1_565
O25 Ta13 1.986062 1_555
O25 Ta7 2.002072 1_555
O25 Yb1 2.463807 1_555
O26 Ta14 1.986080 1_455
O26 Ta7 2.002083 1_555
O26 Yb1 2.463718 1_455
O27 Ta15 1.986083 1_565
O27 Ta7 2.002057 1_555
O27 Yb1 2.463683 1_565
O28 Ta16 1.986062 1_655
O28 Ta8 2.002072 1_555
O28 Yb2 2.463807 1_655
O29 Ta17 1.986080 1_555
O29 Ta8 2.002083 1_555
O29 Yb2 2.463718 1_555
O30 Ta18 1.986083 1_545
O30 Ta8 2.002057 1_555
O30 Yb2 2.463683 1_545
O31 Ta19 1.986062 1_655
O31 Ta9 2.002072 1_555
O31 Yb3 2.463807 1_655
O32 Ta20 1.986080 1_555
O32 Ta9 2.002083 1_555
O32 Yb3 2.463718 1_555
O33 Ta21 1.986083 1_545
O33 Ta9 2.002057 1_555
O33 Yb3 2.463683 1_545
O34 Ta12 2.061338 1_555
O34 Ta10 2.061359 1_555
O34 Ta11 2.061370 1_555
O34 Yb0 2.654533 1_555
O35 Ta15 2.061338 1_555
O35 Ta13 2.061359 1_555
O35 Ta14 2.061370 1_555
O35 Yb1 2.654533 1_555
O36 Ta18 2.061338 1_555
O36 Ta16 2.061359 1_555
O36 Ta17 2.061370 1_555
O36 Yb2 2.654533 1_555
O37 Ta21 2.061338 1_555
O37 Ta19 2.061359 1_555
O37 Ta20 2.061370 1_555
O37 Yb3 2.654533 1_555
O38 Ta12 1.993021 1_555
O38 Ta10 2.005409 1_655
O38 Ta11 2.486211 1_555
O39 Ta10 1.993054 1_555
O39 Ta11 2.005384 1_445
O39 Ta12 2.486142 1_555
O40 Ta11 1.993035 1_555
O40 Ta12 2.005420 1_565
O40 Ta10 2.486116 1_555
O41 Ta15 1.993021 1_555
O41 Ta13 2.005409 1_655
O41 Ta14 2.486211 1_555
O42 Ta13 1.993054 1_555
O42 Ta14 2.005384 1_445
O42 Ta15 2.486142 1_555
O43 Ta14 1.993035 1_555
O43 Ta15 2.005420 1_565
O43 Ta13 2.486116 1_555
O44 Ta18 1.993022 1_555
O44 Ta16 2.005409 1_655
O44 Ta17 2.486211 1_555
O45 Ta16 1.993054 1_555
O45 Ta17 2.005384 1_565
O45 Ta18 2.486142 1_555
O46 Ta17 1.993035 1_555
O46 Ta18 2.005420 1_445
O46 Ta16 2.486117 1_555
O47 Ta21 1.993022 1_555
O47 Ta19 2.005409 1_655
O47 Ta20 2.486211 1_555
O48 Ta19 1.993054 1_555
O48 Ta20 2.005384 1_565
O48 Ta21 2.486142 1_555
O49 Ta20 1.993035 1_555
O49 Ta21 2.005420 1_445
O49 Ta19 2.486117 1_555
O50 Ta10 2.047525 1_555
O50 Ta11 2.047530 1_455
O50 Ta12 2.047546 1_565
O51 Ta13 2.047525 1_555
O51 Ta14 2.047530 1_455
O51 Ta15 2.047546 1_565
O52 Ta16 2.047525 1_655
O52 Ta17 2.047530 1_555
O52 Ta18 2.047546 1_545
O53 Ta19 2.047525 1_655
O53 Ta20 2.047530 1_555
O53 Ta21 2.047546 1_545
O54 Ta22 1.953175 1_555
O54 Ta10 1.953992 1_555
O55 Ta23 1.953138 1_555
O55 Ta11 1.953969 1_555
O56 Ta24 1.953117 1_555
O56 Ta12 1.954006 1_555
O57 Ta25 1.953175 1_555
O57 Ta13 1.953992 1_555
O58 Ta26 1.953138 1_555
O58 Ta14 1.953969 1_555
O59 Ta27 1.953117 1_555
O59 Ta15 1.954006 1_555
O60 Ta28 1.953175 1_555
O60 Ta16 1.953992 1_555
O61 Ta29 1.953138 1_555
O61 Ta17 1.953969 1_555
O62 Ta30 1.953117 1_555
O62 Ta18 1.954006 1_555
O63 Ta31 1.953175 1_555
O63 Ta19 1.953992 1_555
O64 Ta32 1.953138 1_555
O64 Ta20 1.953969 1_555
O65 Ta33 1.953117 1_555
O65 Ta21 1.954006 1_555
O66 Ta22 2.045817 1_555
O66 Ta24 2.045841 1_565
O66 Ta23 2.045841 1_455
O67 Ta25 2.045817 1_555
O67 Ta27 2.045841 1_565
O67 Ta26 2.045841 1_455
O68 Ta28 2.045817 1_655
O68 Ta29 2.045841 1_555
O68 Ta30 2.045841 1_545
O69 Ta31 2.045817 1_655
O69 Ta32 2.045841 1_555
O69 Ta33 2.045841 1_545
O70 Ta22 1.989161 1_555
O70 Ta23 2.005605 1_445
O70 Ta24 2.489230 1_555
O71 Ta23 1.989132 1_555
O71 Ta24 2.005620 1_565
O71 Ta22 2.489243 1_555
O72 Ta24 1.989143 1_555
O72 Ta22 2.005609 1_655
O72 Ta23 2.489314 1_555
O73 Ta25 1.989161 1_555
O73 Ta26 2.005605 1_445
O73 Ta27 2.489230 1_555
O74 Ta26 1.989132 1_555
O74 Ta27 2.005620 1_565
O74 Ta25 2.489243 1_555
O75 Ta27 1.989143 1_555
O75 Ta25 2.005609 1_655
O75 Ta26 2.489314 1_555
O76 Ta28 1.989161 1_555
O76 Ta29 2.005605 1_565
O76 Ta30 2.489230 1_555
O77 Ta29 1.989132 1_555
O77 Ta30 2.005620 1_445
O77 Ta28 2.489244 1_555
O78 Ta30 1.989143 1_555
O78 Ta28 2.005609 1_655
O78 Ta29 2.489313 1_555
O79 Ta31 1.989161 1_555
O79 Ta32 2.005605 1_565
O79 Ta33 2.489230 1_555
O80 Ta32 1.989132 1_555
O80 Ta33 2.005620 1_445
O80 Ta31 2.489244 1_555
O81 Ta33 1.989143 1_555
O81 Ta31 2.005609 1_655
O81 Ta32 2.489313 1_555
O82 Ta24 2.060050 1_555
O82 Ta22 2.060057 1_555
O82 Ta23 2.060071 1_555
O82 Yb4 2.659089 1_555
O83 Ta27 2.060050 1_555
O83 Ta25 2.060057 1_555
O83 Ta26 2.060071 1_555
O83 Yb5 2.659089 1_555
O84 Ta30 2.060050 1_555
O84 Ta28 2.060057 1_555
O84 Ta29 2.060071 1_555
O84 Yb6 2.659089 1_555
O85 Ta33 2.060050 1_555
O85 Ta31 2.060057 1_555
O85 Ta32 2.060071 1_555
O85 Yb7 2.659089 1_555
O86 Ta22 1.984109 1_555
O86 Ta34 1.999580 1_555
O86 Yb4 2.462786 1_555
O87 Ta23 1.984174 1_455
O87 Ta34 1.999533 1_555
O87 Yb4 2.462739 1_455
O88 Ta24 1.984146 1_565
O88 Ta34 1.999588 1_555
O88 Yb4 2.462715 1_565
O89 Ta25 1.984109 1_555
O89 Ta35 1.999580 1_555
O89 Yb5 2.462786 1_555
O90 Ta26 1.984174 1_455
O90 Ta35 1.999533 1_555
O90 Yb5 2.462739 1_455
O91 Ta27 1.984146 1_565
O91 Ta35 1.999588 1_555
O91 Yb5 2.462715 1_565
O92 Ta28 1.984109 1_655
O92 Ta36 1.999580 1_555
O92 Yb6 2.462786 1_655
O93 Ta29 1.984174 1_555
O93 Ta36 1.999533 1_555
O93 Yb6 2.462740 1_555
O94 Ta30 1.984146 1_545
O94 Ta36 1.999588 1_555
O94 Yb6 2.462715 1_545
O95 Ta31 1.984109 1_655
O95 Ta37 1.999580 1_555
O95 Yb7 2.462786 1_655
O96 Ta32 1.984174 1_555
O96 Ta37 1.999533 1_555
O96 Yb7 2.462740 1_555
O97 Ta33 1.984146 1_545
O97 Ta37 1.999588 1_555
O97 Yb7 2.462715 1_545
O98 Ta40 1.980092 1_455
O98 Ta34 2.001433 1_555
O98 Yb4 2.459656 1_455
O99 Ta38 1.980107 1_565
O99 Ta34 2.001398 1_555
O99 Yb4 2.459750 1_565
O100 Ta39 1.980079 1_555
O100 Ta34 2.001496 1_555
O100 Yb4 2.459592 1_555
O101 Ta43 1.980092 1_455
O101 Ta35 2.001433 1_555
O101 Yb5 2.459656 1_455
O102 Ta41 1.980107 1_565
O102 Ta35 2.001398 1_555
O102 Yb5 2.459750 1_565
O103 Ta42 1.980079 1_555
O103 Ta35 2.001496 1_555
O103 Yb5 2.459592 1_555
O104 Ta46 1.980092 1_555
O104 Ta36 2.001433 1_555
O104 Yb6 2.459656 1_555
O105 Ta44 1.980107 1_545
O105 Ta36 2.001398 1_555
O105 Yb6 2.459750 1_545
O106 Ta45 1.980079 1_655
O106 Ta36 2.001496 1_555
O106 Yb6 2.459591 1_655
O107 Ta49 1.980092 1_555
O107 Ta37 2.001433 1_555
O107 Yb7 2.459656 1_555
O108 Ta47 1.980107 1_545
O108 Ta37 2.001398 1_555
O108 Yb7 2.459750 1_545
O109 Ta48 1.980079 1_655
O109 Ta37 2.001496 1_555
O109 Yb7 2.459591 1_655
O110 Ta39 2.060820 1_555
O110 Ta40 2.060821 1_555
O110 Ta38 2.060851 1_555
O110 Yb4 2.653156 1_555
O111 Ta42 2.060820 1_555
O111 Ta43 2.060821 1_555
O111 Ta41 2.060851 1_555
O111 Yb5 2.653156 1_555
O112 Ta45 2.060820 1_555
O112 Ta46 2.060821 1_555
O112 Ta44 2.060851 1_555
O112 Yb6 2.653156 1_555
O113 Ta48 2.060820 1_555
O113 Ta49 2.060821 1_555
O113 Ta47 2.060851 1_555
O113 Yb7 2.653156 1_555
O114 Ta38 1.988173 1_555
O114 Ta40 2.001880 1_455
O114 Ta39 2.494831 1_555
O115 Ta39 1.988175 1_555
O115 Ta38 2.001862 1_665
O115 Ta40 2.494860 1_555
O116 Ta40 1.988149 1_555
O116 Ta39 2.001881 1_545
O116 Ta38 2.494849 1_555
O117 Ta41 1.988173 1_555
O117 Ta43 2.001880 1_455
O117 Ta42 2.494831 1_555
O118 Ta42 1.988175 1_555
O118 Ta41 2.001862 1_665
O118 Ta43 2.494860 1_555
O119 Ta43 1.988149 1_555
O119 Ta42 2.001881 1_545
O119 Ta41 2.494849 1_555
O120 Ta44 1.988173 1_555
O120 Ta46 2.001880 1_455
O120 Ta45 2.494831 1_555
O121 Ta45 1.988175 1_555
O121 Ta44 2.001862 1_545
O121 Ta46 2.494860 1_555
O122 Ta46 1.988149 1_555
O122 Ta45 2.001880 1_665
O122 Ta44 2.494849 1_555
O123 Ta47 1.988173 1_555
O123 Ta49 2.001880 1_455
O123 Ta48 2.494831 1_555
O124 Ta48 1.988175 1_555
O124 Ta47 2.001862 1_545
O124 Ta49 2.494860 1_555
O125 Ta49 1.988149 1_555
O125 Ta48 2.001880 1_665
O125 Ta47 2.494849 1_555
O126 Ta39 2.047168 1_555
O126 Ta38 2.047189 1_565
O126 Ta40 2.047223 1_455
O127 Ta42 2.047168 1_555
O127 Ta41 2.047189 1_565
O127 Ta43 2.047223 1_455
O128 Ta45 2.047168 1_655
O128 Ta44 2.047189 1_545
O128 Ta46 2.047223 1_555
O129 Ta48 2.047168 1_655
O129 Ta47 2.047189 1_545
O129 Ta49 2.047223 1_555
O130 Ta41 1.948885 1_555
O130 Ta38 1.948885 1_555
O131 Ta42 1.948978 1_555
O131 Ta39 1.948978 1_555
O132 Ta40 1.948904 1_555
O132 Ta43 1.948904 1_555
O133 Ta47 1.948885 1_555
O133 Ta44 1.948885 1_555
O134 Ta48 1.948978 1_555
O134 Ta45 1.948978 1_555
O135 Ta49 1.948904 1_555
O135 Ta46 1.948904 1_555
