# generated using pymatgen
data_RbMg3
_symmetry_space_group_name_H-M   'P 1'
_cell_length_a   6.66495000
_cell_length_b   10.43964400
_cell_length_c   15.94210000
_cell_angle_alpha   90.00000000
_cell_angle_beta   90.00000000
_cell_angle_gamma   90.00000000
_symmetry_Int_Tables_number   1
_chemical_formula_structural   RbMg3
_chemical_formula_sum   'Rb8 Mg24'
_cell_volume   1109.24661951
_cell_formula_units_Z   8
loop_
 _symmetry_equiv_pos_site_id
 _symmetry_equiv_pos_as_xyz
  1  'x, y, z'
loop_
 _atom_site_type_symbol
 _atom_site_label
 _atom_site_symmetry_multiplicity
 _atom_site_fract_x
 _atom_site_fract_y
 _atom_site_fract_z
 _atom_site_occupancy
  Rb  Rb0_0  1  0.00000000  0.00000000  0.06668950  1
  Rb  Rb0_1  1  0.00000000  0.00000000  0.56668950  1
  Rb  Rb0_2  1  0.00000000  0.50000000  0.06668950  1
  Rb  Rb0_3  1  0.00000000  0.50000000  0.56668950  1
  Rb  Rb0_4  1  0.50000000  0.00000000  0.06668950  1
  Rb  Rb0_5  1  0.50000000  0.00000000  0.56668950  1
  Rb  Rb0_6  1  0.50000000  0.50000000  0.06668950  1
  Rb  Rb0_7  1  0.50000000  0.50000000  0.56668950  1
  Mg  Mg0_0  1  0.25000000  0.00000000  0.32653100  1
  Mg  Mg0_1  1  0.25000000  0.00000000  0.82653100  1
  Mg  Mg0_2  1  0.25000000  0.50000000  0.32653100  1
  Mg  Mg0_3  1  0.25000000  0.50000000  0.82653100  1
  Mg  Mg0_4  1  0.75000000  0.00000000  0.32653100  1
  Mg  Mg0_5  1  0.75000000  0.00000000  0.82653100  1
  Mg  Mg0_6  1  0.75000000  0.50000000  0.32653100  1
  Mg  Mg0_7  1  0.75000000  0.50000000  0.82653100  1
  Mg  Mg1_0  1  0.25000000  0.25000000  0.21993650  1
  Mg  Mg1_1  1  0.25000000  0.25000000  0.71993650  1
  Mg  Mg1_2  1  0.25000000  0.75000000  0.21993650  1
  Mg  Mg1_3  1  0.25000000  0.75000000  0.71993650  1
  Mg  Mg1_4  1  0.75000000  0.25000000  0.21993650  1
  Mg  Mg1_5  1  0.75000000  0.25000000  0.71993650  1
  Mg  Mg1_6  1  0.75000000  0.75000000  0.21993650  1
  Mg  Mg1_7  1  0.75000000  0.75000000  0.71993650  1
  Mg  Mg2_0  1  0.00000000  0.25000000  0.38684300  1
  Mg  Mg2_1  1  0.00000000  0.25000000  0.88684300  1
  Mg  Mg2_2  1  0.00000000  0.75000000  0.38684300  1
  Mg  Mg2_3  1  0.00000000  0.75000000  0.88684300  1
  Mg  Mg2_4  1  0.50000000  0.25000000  0.38684300  1
  Mg  Mg2_5  1  0.50000000  0.25000000  0.88684300  1
  Mg  Mg2_6  1  0.50000000  0.75000000  0.38684300  1
  Mg  Mg2_7  1  0.50000000  0.75000000  0.88684300  1
loop_
_geom_bond_atom_site_label_1
_geom_bond_atom_site_label_2
_geom_bond_distance
_geom_bond_site_symmetry_2
Rb0_0 Rb0_4 3.332475 1_455
Rb0_0 Rb0_4 3.332475 1_555
Rb0_1 Rb0_5 3.332475 1_555
Rb0_1 Rb0_5 3.332475 1_455
Rb0_2 Rb0_6 3.332475 1_455
Rb0_2 Rb0_6 3.332475 1_555
Rb0_3 Rb0_7 3.332475 1_555
Rb0_3 Rb0_7 3.332475 1_455
Mg0_0 Mg1_0 3.114385 1_555
Mg0_0 Mg1_2 3.114385 1_545
Mg0_0 Mg2_0 3.242293 1_555
Mg0_0 Mg2_4 3.242293 1_555
Mg0_0 Mg2_2 3.242293 1_545
Mg0_0 Mg2_6 3.242293 1_545
Mg0_0 Mg0_4 3.332475 1_555
Mg0_0 Mg0_4 3.332475 1_455
Mg0_0 Rb0_1 4.175495 1_555
Mg0_0 Rb0_5 4.175495 1_555
Mg0_1 Mg1_1 3.114385 1_555
Mg0_1 Mg1_3 3.114385 1_545
Mg0_1 Mg2_1 3.242293 1_555
Mg0_1 Mg2_5 3.242293 1_555
Mg0_1 Mg2_7 3.242293 1_545
Mg0_1 Mg2_3 3.242293 1_545
Mg0_1 Mg0_5 3.332475 1_555
Mg0_1 Mg0_5 3.332475 1_455
Mg0_1 Rb0_4 4.175495 1_556
Mg0_1 Rb0_0 4.175495 1_556
Mg0_2 Mg1_2 3.114385 1_555
Mg0_2 Mg1_0 3.114385 1_555
Mg0_2 Mg2_6 3.242293 1_555
Mg0_2 Mg2_2 3.242293 1_555
Mg0_2 Mg2_0 3.242293 1_555
Mg0_2 Mg2_4 3.242293 1_555
Mg0_2 Mg0_6 3.332475 1_555
Mg0_2 Mg0_6 3.332475 1_455
Mg0_2 Rb0_7 4.175495 1_555
Mg0_2 Rb0_3 4.175495 1_555
Mg0_3 Mg1_3 3.114385 1_555
Mg0_3 Mg1_1 3.114385 1_555
Mg0_3 Mg2_7 3.242293 1_555
Mg0_3 Mg2_3 3.242293 1_555
Mg0_3 Mg2_1 3.242293 1_555
Mg0_3 Mg2_5 3.242293 1_555
Mg0_3 Mg0_7 3.332475 1_555
Mg0_3 Mg0_7 3.332475 1_455
Mg0_3 Rb0_2 4.175495 1_556
Mg0_3 Rb0_6 4.175495 1_556
Mg0_4 Mg1_4 3.114385 1_555
Mg0_4 Mg1_6 3.114385 1_545
Mg0_4 Mg2_4 3.242293 1_555
Mg0_4 Mg2_0 3.242293 1_655
Mg0_4 Mg2_6 3.242293 1_545
Mg0_4 Mg2_2 3.242293 1_645
Mg0_4 Rb0_5 4.175495 1_555
Mg0_4 Rb0_1 4.175495 1_655
Mg0_5 Mg1_5 3.114385 1_555
Mg0_5 Mg1_7 3.114385 1_545
Mg0_5 Mg2_5 3.242293 1_555
Mg0_5 Mg2_1 3.242293 1_655
Mg0_5 Mg2_7 3.242293 1_545
Mg0_5 Mg2_3 3.242293 1_645
Mg0_5 Rb0_4 4.175495 1_556
Mg0_5 Rb0_0 4.175495 1_656
Mg0_6 Mg1_6 3.114385 1_555
Mg0_6 Mg1_4 3.114385 1_555
Mg0_6 Mg2_6 3.242293 1_555
Mg0_6 Mg2_2 3.242293 1_655
Mg0_6 Mg2_4 3.242293 1_555
Mg0_6 Mg2_0 3.242293 1_655
Mg0_6 Rb0_7 4.175495 1_555
Mg0_6 Rb0_3 4.175495 1_655
Mg0_7 Mg1_7 3.114385 1_555
Mg0_7 Mg1_5 3.114385 1_555
Mg0_7 Mg2_7 3.242293 1_555
Mg0_7 Mg2_3 3.242293 1_655
Mg0_7 Mg2_5 3.242293 1_555
Mg0_7 Mg2_1 3.242293 1_655
Mg0_7 Rb0_6 4.175495 1_556
Mg0_7 Rb0_2 4.175495 1_656
Mg1_0 Mg2_0 3.139493 1_555
Mg1_0 Mg2_4 3.139493 1_555
Mg1_0 Mg1_4 3.332475 1_555
Mg1_0 Mg1_4 3.332475 1_455
Mg1_0 Rb0_2 3.944188 1_555
Mg1_0 Rb0_4 3.944188 1_555
Mg1_0 Rb0_6 3.944188 1_555
Mg1_0 Rb0_0 3.944188 1_555
Mg1_1 Mg2_5 3.139493 1_555
Mg1_1 Mg2_1 3.139493 1_555
Mg1_1 Mg1_5 3.332475 1_555
Mg1_1 Mg1_5 3.332475 1_455
Mg1_1 Rb0_1 3.944188 1_555
Mg1_1 Rb0_3 3.944188 1_555
Mg1_1 Rb0_5 3.944188 1_555
Mg1_1 Rb0_7 3.944188 1_555
Mg1_2 Mg2_2 3.139493 1_555
Mg1_2 Mg2_6 3.139493 1_555
Mg1_2 Mg1_6 3.332475 1_555
Mg1_2 Mg1_6 3.332475 1_455
Mg1_2 Rb0_2 3.944188 1_555
Mg1_2 Rb0_6 3.944188 1_555
Mg1_2 Rb0_0 3.944188 1_565
Mg1_2 Rb0_4 3.944188 1_565
Mg1_3 Mg2_3 3.139493 1_555
Mg1_3 Mg2_7 3.139493 1_555
Mg1_3 Mg1_7 3.332475 1_555
Mg1_3 Mg1_7 3.332475 1_455
Mg1_3 Rb0_7 3.944188 1_555
Mg1_3 Rb0_3 3.944188 1_555
Mg1_3 Rb0_1 3.944188 1_565
Mg1_3 Rb0_5 3.944188 1_565
Mg1_4 Mg2_4 3.139493 1_555
Mg1_4 Mg2_0 3.139493 1_655
Mg1_4 Rb0_4 3.944188 1_555
Mg1_4 Rb0_6 3.944188 1_555
Mg1_4 Rb0_2 3.944188 1_655
Mg1_4 Rb0_0 3.944188 1_655
Mg1_5 Mg2_5 3.139493 1_555
Mg1_5 Mg2_1 3.139493 1_655
Mg1_5 Rb0_5 3.944188 1_555
Mg1_5 Rb0_7 3.944188 1_555
Mg1_5 Rb0_1 3.944188 1_655
Mg1_5 Rb0_3 3.944188 1_655
Mg1_6 Mg2_6 3.139493 1_555
Mg1_6 Mg2_2 3.139493 1_655
Mg1_6 Rb0_6 3.944188 1_555
Mg1_6 Rb0_2 3.944188 1_655
Mg1_6 Rb0_4 3.944188 1_565
Mg1_6 Rb0_0 3.944188 1_665
Mg1_7 Mg2_7 3.139493 1_555
Mg1_7 Mg2_3 3.139493 1_655
Mg1_7 Rb0_7 3.944188 1_555
Mg1_7 Rb0_3 3.944188 1_655
Mg1_7 Rb0_5 3.944188 1_565
Mg1_7 Rb0_1 3.944188 1_665
Mg2_0 Mg2_4 3.332475 1_455
Mg2_0 Mg2_4 3.332475 1_555
Mg2_0 Rb0_1 3.877122 1_555
Mg2_0 Rb0_3 3.877122 1_555
Mg2_1 Mg2_5 3.332475 1_455
Mg2_1 Mg2_5 3.332475 1_555
Mg2_1 Rb0_2 3.877122 1_556
Mg2_1 Rb0_0 3.877122 1_556
Mg2_2 Mg2_6 3.332475 1_455
Mg2_2 Mg2_6 3.332475 1_555
Mg2_2 Rb0_3 3.877122 1_555
Mg2_2 Rb0_1 3.877122 1_565
Mg2_3 Mg2_7 3.332475 1_555
Mg2_3 Mg2_7 3.332475 1_455
Mg2_3 Rb0_2 3.877122 1_556
Mg2_3 Rb0_0 3.877122 1_566
Mg2_4 Rb0_7 3.877122 1_555
Mg2_4 Rb0_5 3.877122 1_555
Mg2_5 Rb0_6 3.877122 1_556
Mg2_5 Rb0_4 3.877122 1_556
Mg2_6 Rb0_7 3.877122 1_555
Mg2_6 Rb0_5 3.877122 1_565
Mg2_7 Rb0_6 3.877122 1_556
Mg2_7 Rb0_4 3.877122 1_566
