# generated using pymatgen
data_Si7PbN10
_symmetry_space_group_name_H-M   'P 1'
_cell_length_a   6.91933247
_cell_length_b   6.77506000
_cell_length_c   9.73148082
_cell_angle_alpha   90.00000000
_cell_angle_beta   105.80378428
_cell_angle_gamma   90.00000000
_symmetry_Int_Tables_number   1
_chemical_formula_structural   Si7PbN10
_chemical_formula_sum   'Si14 Pb2 N20'
_cell_volume   438.95664853
_cell_formula_units_Z   2
loop_
 _symmetry_equiv_pos_site_id
 _symmetry_equiv_pos_as_xyz
  1  'x, y, z'
loop_
 _atom_site_type_symbol
 _atom_site_label
 _atom_site_symmetry_multiplicity
 _atom_site_fract_x
 _atom_site_fract_y
 _atom_site_fract_z
 _atom_site_occupancy
  Si  Si0  1  0.53856500  0.97512100  0.82941600  1
  Si  Si1  1  0.53856500  0.02487900  0.32941600  1
  Si  Si2  1  0.35891600  0.02535900  0.01976200  1
  Si  Si3  1  0.35891600  0.97464100  0.51976200  1
  Si  Si4  1  0.10936600  0.39799900  0.07889800  1
  Si  Si5  1  0.10936600  0.60200100  0.57889800  1
  Si  Si6  1  0.66499100  0.37076400  0.99456900  1
  Si  Si7  1  0.66499100  0.62923600  0.49456900  1
  Si  Si8  1  0.85075600  0.62541600  0.81099400  1
  Si  Si9  1  0.85075600  0.37458400  0.31099400  1
  Si  Si10  1  0.29703800  0.61885700  0.88735400  1
  Si  Si11  1  0.29703800  0.38114300  0.38735400  1
  Si  Si12  1  0.48466800  0.37098700  0.69140900  1
  Si  Si13  1  0.48466800  0.62901300  0.19140900  1
  Pb  Pb0  1  0.93230000  0.05708900  0.59959400  1
  Pb  Pb1  1  0.93230000  0.94291100  0.09959400  1
  N  N0  1  0.75206200  0.84485200  0.84436200  1
  N  N1  1  0.75206200  0.15514800  0.34436200  1
  N  N2  1  0.56903300  0.13523200  0.97773200  1
  N  N3  1  0.56903300  0.86476800  0.47773200  1
  N  N4  1  0.32768100  0.86817800  0.87174500  1
  N  N5  1  0.32768100  0.13182200  0.37174500  1
  N  N6  1  0.16179600  0.16618400  0.02976400  1
  N  N7  1  0.16179600  0.83381600  0.52976400  1
  N  N8  1  0.28639100  0.50111000  0.72803500  1
  N  N9  1  0.28639100  0.49889000  0.22803500  1
  N  N10  1  0.45074500  0.11657600  0.67494900  1
  N  N11  1  0.45074500  0.88342400  0.17494900  1
  N  N12  1  0.88525300  0.38177200  0.13416800  1
  N  N13  1  0.88525300  0.61822800  0.63416800  1
  N  N14  1  0.07838200  0.57853000  0.94115200  1
  N  N15  1  0.07838200  0.42147000  0.44115200  1
  N  N16  1  0.70038300  0.42286000  0.82734700  1
  N  N17  1  0.70038300  0.57714000  0.32734700  1
  N  N18  1  0.49397200  0.53462400  0.02805100  1
  N  N19  1  0.49397200  0.46537600  0.52805100  1
loop_
_geom_bond_atom_site_label_1
_geom_bond_atom_site_label_2
_geom_bond_distance
_geom_bond_site_symmetry_2
N0 Si0 1.692737 1_555
N0 Si8 1.703769 1_555
N0 Pb1 2.545321 1_556
N1 Si1 1.692737 1_555
N1 Si9 1.703769 1_555
N1 Pb0 2.545321 1_555
N2 Si6 1.718964 1_555
N2 Si0 1.771617 1_545
N2 Si2 1.777373 1_556
N2 Pb1 2.792582 1_546
N3 Si7 1.718964 1_555
N3 Si1 1.771617 1_565
N3 Si3 1.777373 1_555
N3 Pb0 2.792582 1_565
N4 Si10 1.714307 1_555
N4 Si2 1.756701 1_566
N4 Si0 1.775173 1_555
N5 Si11 1.714307 1_555
N5 Si3 1.756701 1_545
N5 Si1 1.775173 1_555
N6 Si2 1.688910 1_555
N6 Si4 1.709204 1_555
N6 Pb1 2.420619 1_445
N7 Si3 1.688910 1_555
N7 Si5 1.709204 1_555
N7 Pb0 2.420619 1_465
N8 Si10 1.727246 1_555
N8 Si12 1.747233 1_555
N8 Si5 1.762282 1_555
N9 Si11 1.727246 1_555
N9 Si13 1.747233 1_555
N9 Si4 1.762282 1_555
N10 Si12 1.741046 1_555
N10 Si0 1.746359 1_545
N10 Si3 1.756835 1_545
N11 Si13 1.741046 1_555
N11 Si1 1.746359 1_565
N11 Si2 1.756835 1_565
N12 Si6 1.745315 1_554
N12 Si4 1.777749 1_655
N12 Si9 1.801154 1_555
N13 Si7 1.745315 1_555
N13 Si5 1.777749 1_655
N13 Si8 1.801154 1_555
N14 Si10 1.751914 1_555
N14 Si8 1.760486 1_455
N14 Si4 1.783897 1_556
N15 Si11 1.751914 1_555
N15 Si9 1.760486 1_455
N15 Si5 1.783897 1_555
N16 Si12 1.739506 1_555
N16 Si6 1.746360 1_555
N16 Si8 1.755392 1_555
N17 Si13 1.739506 1_555
N17 Si7 1.746360 1_555
N17 Si9 1.755392 1_555
N18 Si6 1.717243 1_554
N18 Si13 1.730905 1_555
N18 Si10 1.743830 1_554
N19 Si7 1.717243 1_555
N19 Si12 1.730905 1_555
N19 Si11 1.743830 1_555
