# generated using pymatgen
data_YIn5Rh
_symmetry_space_group_name_H-M   'P 1'
_cell_length_a   4.63781708
_cell_length_b   4.63781708
_cell_length_c   7.44292909
_cell_angle_alpha   90.00000000
_cell_angle_beta   90.00000000
_cell_angle_gamma   90.00000000
_symmetry_Int_Tables_number   1
_chemical_formula_structural   YIn5Rh
_chemical_formula_sum   'Y1 In5 Rh1'
_cell_volume   160.09254648
_cell_formula_units_Z   1
loop_
 _symmetry_equiv_pos_site_id
 _symmetry_equiv_pos_as_xyz
  1  'x, y, z'
loop_
 _atom_site_type_symbol
 _atom_site_label
 _atom_site_symmetry_multiplicity
 _atom_site_fract_x
 _atom_site_fract_y
 _atom_site_fract_z
 _atom_site_occupancy
  Y  Y0  1  -0.00000000  -0.00000000  0.00000000  1
  In  In0  1  0.00000000  0.50000000  0.30143191  1
  In  In1  1  -0.00000000  0.50000000  0.69856809  1
  In  In2  1  0.50000000  -0.00000000  0.30143191  1
  In  In3  1  0.50000000  0.00000000  0.69856809  1
  In  In4  1  0.50000000  0.50000000  0.00000000  1
  Rh  Rh0  1  -0.00000000  -0.00000000  0.50000000  1
loop_
_geom_bond_atom_site_label_1
_geom_bond_atom_site_label_2
_geom_bond_distance
_geom_bond_site_symmetry_2
In0 Rh0 2.749838 1_565
In0 Rh0 2.749838 1_555
In0 In1 2.955856 1_555
In0 In4 3.226576 1_555
In0 In4 3.226576 1_455
In0 Y0 3.226576 1_555
In0 Y0 3.226576 1_565
In0 In2 3.279432 1_455
In0 In2 3.279432 1_555
In0 In2 3.279432 1_465
In0 In2 3.279432 1_565
In1 Rh0 2.749838 1_565
In1 Rh0 2.749838 1_555
In1 Y0 3.226576 1_556
In1 In4 3.226576 1_556
In1 In4 3.226576 1_456
In1 Y0 3.226576 1_566
In1 In3 3.279432 1_465
In1 In3 3.279432 1_555
In1 In3 3.279432 1_565
In1 In3 3.279432 1_455
In2 Rh0 2.749838 1_655
In2 Rh0 2.749838 1_555
In2 In3 2.955856 1_555
In2 Y0 3.226576 1_655
In2 In4 3.226576 1_555
In2 In4 3.226576 1_545
In2 Y0 3.226576 1_555
In3 Rh0 2.749838 1_655
In3 Rh0 2.749838 1_555
In3 Y0 3.226576 1_556
In3 In4 3.226576 1_556
In3 Y0 3.226576 1_656
In3 In4 3.226576 1_546
In4 Y0 3.279432 1_655
In4 Y0 3.279432 1_555
In4 Y0 3.279432 1_565
In4 Y0 3.279432 1_665
