# generated using pymatgen
data_TlVSeO5
_symmetry_space_group_name_H-M   'P 1'
_cell_length_a   7.22608900
_cell_length_b   8.02725600
_cell_length_c   8.81029300
_cell_angle_alpha   90.00000000
_cell_angle_beta   90.00000000
_cell_angle_gamma   90.00000000
_symmetry_Int_Tables_number   1
_chemical_formula_structural   TlVSeO5
_chemical_formula_sum   'Tl4 V4 Se4 O20'
_cell_volume   511.04691560
_cell_formula_units_Z   4
loop_
 _symmetry_equiv_pos_site_id
 _symmetry_equiv_pos_as_xyz
  1  'x, y, z'
loop_
 _atom_site_type_symbol
 _atom_site_label
 _atom_site_symmetry_multiplicity
 _atom_site_fract_x
 _atom_site_fract_y
 _atom_site_fract_z
 _atom_site_occupancy
  Tl  Tl0  1  0.97409300  0.80603800  0.61267900  1
  Tl  Tl1  1  0.02590700  0.30603800  0.38732100  1
  Tl  Tl2  1  0.47409300  0.80603800  0.88732100  1
  Tl  Tl3  1  0.52590700  0.30603800  0.11267900  1
  V  V0  1  0.78815800  0.70889700  0.23986000  1
  V  V1  1  0.21184200  0.20889700  0.76014000  1
  V  V2  1  0.28815800  0.70889700  0.26014000  1
  V  V3  1  0.71184200  0.20889700  0.73986000  1
  Se  Se0  1  0.95317200  0.99961200  0.01626300  1
  Se  Se1  1  0.04682800  0.49961200  0.98373700  1
  Se  Se2  1  0.45317200  0.99961200  0.48373700  1
  Se  Se3  1  0.54682800  0.49961200  0.51626300  1
  O  O0  1  0.89092400  0.47351800  0.12836000  1
  O  O1  1  0.10907600  0.97351800  0.87164000  1
  O  O2  1  0.39092400  0.47351800  0.37164000  1
  O  O3  1  0.60907600  0.97351800  0.62836000  1
  O  O4  1  0.75168100  0.55997300  0.41900900  1
  O  O5  1  0.24831900  0.05997300  0.58099100  1
  O  O6  1  0.25168100  0.55997300  0.08099100  1
  O  O7  1  0.74831900  0.05997300  0.91900900  1
  O  O8  1  0.88978300  0.78955000  0.04293700  1
  O  O9  1  0.11021700  0.28955000  0.95706300  1
  O  O10  1  0.38978300  0.78955000  0.45706300  1
  O  O11  1  0.61021700  0.28955000  0.54293700  1
  O  O12  1  0.56515300  0.67524100  0.17709000  1
  O  O13  1  0.43484700  0.17524100  0.82291000  1
  O  O14  1  0.06515300  0.67524100  0.32291000  1
  O  O15  1  0.93484700  0.17524100  0.67709000  1
  O  O16  1  0.77883600  0.89572100  0.32095600  1
  O  O17  1  0.22116400  0.39572100  0.67904400  1
  O  O18  1  0.27883600  0.89572100  0.17904400  1
  O  O19  1  0.72116400  0.39572100  0.82095600  1
loop_
_geom_bond_atom_site_label_1
_geom_bond_atom_site_label_2
_geom_bond_distance
_geom_bond_site_symmetry_2
O0 Se1 1.713640 1_654
O0 V0 2.255320 1_555
O0 Tl1 2.822086 1_655
O1 Se0 1.713640 1_456
O1 V1 2.255320 1_565
O1 Tl0 2.822086 1_455
O2 Se3 1.713640 1_555
O2 V2 2.255320 1_555
O2 Tl3 2.822086 1_555
O3 Se2 1.713640 1_555
O3 V3 2.255320 1_565
O3 Tl2 2.822086 1_555
O4 Se3 1.777692 1_555
O4 V0 1.997445 1_555
O4 Tl1 2.856517 1_655
O5 Se2 1.777692 1_545
O5 V1 1.997445 1_555
O5 Tl0 2.856517 1_445
O6 Se1 1.777692 1_554
O6 V2 1.997445 1_555
O6 Tl3 2.856517 1_555
O7 Se0 1.777692 1_546
O7 V3 1.997445 1_555
O7 Tl2 2.856517 1_545
O8 Se0 1.763061 1_555
O8 V0 1.992104 1_555
O9 Se1 1.763061 1_555
O9 V1 1.992104 1_555
O10 Se2 1.763061 1_555
O10 V2 1.992104 1_555
O11 Se3 1.763061 1_555
O11 V3 1.992104 1_555
O12 V0 1.724995 1_555
O12 V2 2.148193 1_555
O12 Tl2 2.837764 1_554
O13 V1 1.724995 1_555
O13 V3 2.148193 1_555
O13 Tl3 2.837764 1_556
O14 V2 1.724995 1_555
O14 V0 2.148193 1_455
O14 Tl0 2.837764 1_455
O15 V3 1.724995 1_555
O15 V1 2.148193 1_655
O15 Tl1 2.837764 1_655
O16 V0 1.662550 1_555
O17 V1 1.662550 1_555
O18 V2 1.662550 1_555
O19 V3 1.662550 1_555
