# generated using pymatgen
data_CeB2Ru
_symmetry_space_group_name_H-M   'P 1'
_cell_length_a   5.38226800
_cell_length_b   5.93043400
_cell_length_c   6.48391400
_cell_angle_alpha   90.00000000
_cell_angle_beta   90.00000000
_cell_angle_gamma   90.00000000
_symmetry_Int_Tables_number   1
_chemical_formula_structural   CeB2Ru
_chemical_formula_sum   'Ce4 B8 Ru4'
_cell_volume   206.96125143
_cell_formula_units_Z   4
loop_
 _symmetry_equiv_pos_site_id
 _symmetry_equiv_pos_as_xyz
  1  'x, y, z'
loop_
 _atom_site_type_symbol
 _atom_site_label
 _atom_site_symmetry_multiplicity
 _atom_site_fract_x
 _atom_site_fract_y
 _atom_site_fract_z
 _atom_site_occupancy
  Ce  Ce0  1  0.75000000  0.50002500  0.15577700  1
  Ce  Ce1  1  0.75000000  0.00002500  0.34422300  1
  Ce  Ce2  1  0.25000000  0.49997500  0.84422300  1
  Ce  Ce3  1  0.25000000  0.99997500  0.65577700  1
  B  B0  1  0.91068800  0.12296000  0.96236500  1
  B  B1  1  0.58931200  0.62296000  0.53763500  1
  B  B2  1  0.41068800  0.87704000  0.03763500  1
  B  B3  1  0.08931200  0.37704000  0.46236500  1
  B  B4  1  0.08931200  0.87704000  0.03763500  1
  B  B5  1  0.41068800  0.37704000  0.46236500  1
  B  B6  1  0.58931200  0.12296000  0.96236500  1
  B  B7  1  0.91068800  0.62296000  0.53763500  1
  Ru  Ru0  1  0.75000000  0.30934200  0.68478600  1
  Ru  Ru1  1  0.75000000  0.80934200  0.81521400  1
  Ru  Ru2  1  0.25000000  0.69065800  0.31521400  1
  Ru  Ru3  1  0.25000000  0.19065800  0.18478600  1
loop_
_geom_bond_atom_site_label_1
_geom_bond_atom_site_label_2
_geom_bond_distance
_geom_bond_site_symmetry_2
Ce0 Ru1 2.870719 1_554
Ce1 Ru0 2.870719 1_555
Ce2 Ru3 2.870719 1_556
Ce3 Ru2 2.870719 1_555
B0 B6 1.729732 1_555
B0 B4 1.813684 1_646
B0 Ru1 2.262194 1_545
B0 Ru0 2.282326 1_555
B0 Ru3 2.361411 1_656
B0 Ce0 2.705750 1_556
B0 Ce1 2.722089 1_556
B0 Ce3 2.796233 1_645
B0 Ce2 2.986826 1_655
B1 B7 1.729732 1_555
B1 B5 1.813684 1_555
B1 Ru0 2.262194 1_555
B1 Ru1 2.282326 1_555
B1 Ru2 2.361411 1_555
B1 Ce1 2.705750 1_565
B1 Ce0 2.722089 1_555
B1 Ce2 2.796233 1_555
B1 Ce3 2.986826 1_555
B2 B4 1.729732 1_555
B2 B6 1.813684 1_564
B2 Ru3 2.262194 1_565
B2 Ru2 2.282326 1_555
B2 Ru1 2.361411 1_554
B2 Ce2 2.705750 1_554
B2 Ce3 2.722089 1_554
B2 Ce1 2.796233 1_565
B2 Ce0 2.986826 1_555
B3 B5 1.729732 1_555
B3 B7 1.813684 1_455
B3 Ru2 2.262194 1_555
B3 Ru3 2.282326 1_555
B3 Ru0 2.361411 1_455
B3 Ce3 2.705750 1_545
B3 Ce2 2.722089 1_555
B3 Ce0 2.796233 1_455
B3 Ce1 2.986826 1_455
B4 Ru3 2.262194 1_565
B4 Ru2 2.282326 1_555
B4 Ru1 2.361411 1_454
B4 Ce2 2.705750 1_554
B4 Ce3 2.722089 1_554
B4 Ce1 2.796233 1_465
B4 Ce0 2.986826 1_455
B5 Ru2 2.262194 1_555
B5 Ru3 2.282326 1_555
B5 Ru0 2.361411 1_555
B5 Ce3 2.705750 1_545
B5 Ce2 2.722089 1_555
B5 Ce0 2.796233 1_555
B5 Ce1 2.986826 1_555
B6 Ru1 2.262194 1_545
B6 Ru0 2.282326 1_555
B6 Ru3 2.361411 1_556
B6 Ce0 2.705750 1_556
B6 Ce1 2.722089 1_556
B6 Ce3 2.796233 1_545
B6 Ce2 2.986826 1_555
B7 Ru0 2.262194 1_555
B7 Ru1 2.282326 1_555
B7 Ru2 2.361411 1_655
B7 Ce1 2.705750 1_565
B7 Ce0 2.722089 1_555
B7 Ce2 2.796233 1_655
B7 Ce3 2.986826 1_655
