# generated using pymatgen
data_Nb3In
_symmetry_space_group_name_H-M   'P 1'
_cell_length_a   5.80532859
_cell_length_b   5.80532859
_cell_length_c   18.90572946
_cell_angle_alpha   90.00000000
_cell_angle_beta   90.00000000
_cell_angle_gamma   106.45600241
_symmetry_Int_Tables_number   1
_chemical_formula_structural   Nb3In
_chemical_formula_sum   'Nb24 In8'
_cell_volume   611.05832169
_cell_formula_units_Z   8
loop_
 _symmetry_equiv_pos_site_id
 _symmetry_equiv_pos_as_xyz
  1  'x, y, z'
loop_
 _atom_site_type_symbol
 _atom_site_label
 _atom_site_symmetry_multiplicity
 _atom_site_fract_x
 _atom_site_fract_y
 _atom_site_fract_z
 _atom_site_occupancy
  Nb  Nb0_0  1  0.25000000  0.25000000  0.37165783  1
  Nb  Nb0_1  1  0.25000000  0.25000000  0.87165783  1
  Nb  Nb0_2  1  0.25000000  0.75000000  0.37165783  1
  Nb  Nb0_3  1  0.25000000  0.75000000  0.87165783  1
  Nb  Nb0_4  1  0.75000000  0.25000000  0.37165783  1
  Nb  Nb0_5  1  0.75000000  0.25000000  0.87165783  1
  Nb  Nb0_6  1  0.75000000  0.75000000  0.37165783  1
  Nb  Nb0_7  1  0.75000000  0.75000000  0.87165783  1
  Nb  Nb1_0  1  0.00000000  0.00000000  0.25000000  1
  Nb  Nb1_1  1  0.00000000  0.00000000  0.75000000  1
  Nb  Nb1_2  1  0.00000000  0.50000000  0.25000000  1
  Nb  Nb1_3  1  0.00000000  0.50000000  0.75000000  1
  Nb  Nb1_4  1  0.50000000  0.00000000  0.25000000  1
  Nb  Nb1_5  1  0.50000000  0.00000000  0.75000000  1
  Nb  Nb1_6  1  0.50000000  0.50000000  0.25000000  1
  Nb  Nb1_7  1  0.50000000  0.50000000  0.75000000  1
  Nb  Nb2_0  1  0.25000000  0.25000000  0.12834217  1
  Nb  Nb2_1  1  0.25000000  0.25000000  0.62834217  1
  Nb  Nb2_2  1  0.25000000  0.75000000  0.12834217  1
  Nb  Nb2_3  1  0.25000000  0.75000000  0.62834217  1
  Nb  Nb2_4  1  0.75000000  0.25000000  0.12834217  1
  Nb  Nb2_5  1  0.75000000  0.25000000  0.62834217  1
  Nb  Nb2_6  1  0.75000000  0.75000000  0.12834217  1
  Nb  Nb2_7  1  0.75000000  0.75000000  0.62834217  1
  In  In0_0  1  0.00000000  0.00000000  0.00000000  1
  In  In0_1  1  0.00000000  0.00000000  0.50000000  1
  In  In0_2  1  0.00000000  0.50000000  0.00000000  1
  In  In0_3  1  0.00000000  0.50000000  0.50000000  1
  In  In0_4  1  0.50000000  0.00000000  0.00000000  1
  In  In0_5  1  0.50000000  0.00000000  0.50000000  1
  In  In0_6  1  0.50000000  0.50000000  0.00000000  1
  In  In0_7  1  0.50000000  0.50000000  0.50000000  1
loop_
_geom_bond_atom_site_label_1
_geom_bond_atom_site_label_2
_geom_bond_distance
_geom_bond_site_symmetry_2
Nb0_0 Nb1_6 2.882619 1_555
Nb0_0 Nb1_0 2.882619 1_555
Nb0_0 Nb0_4 2.902664 1_555
Nb0_0 Nb0_2 2.902664 1_545
Nb0_0 Nb0_4 2.902664 1_455
Nb0_0 Nb0_2 2.902664 1_555
Nb0_1 Nb1_1 2.882619 1_555
Nb0_1 Nb1_7 2.882619 1_555
Nb0_1 Nb0_5 2.902664 1_555
Nb0_1 Nb0_3 2.902664 1_545
Nb0_1 Nb0_5 2.902664 1_455
Nb0_1 Nb0_3 2.902664 1_555
Nb0_2 Nb1_2 2.882619 1_555
Nb0_2 Nb1_4 2.882619 1_565
Nb0_2 Nb0_6 2.902664 1_455
Nb0_2 Nb0_6 2.902664 1_555
Nb0_3 Nb1_3 2.882619 1_555
Nb0_3 Nb1_5 2.882619 1_565
Nb0_3 Nb0_7 2.902664 1_455
Nb0_3 Nb0_7 2.902664 1_555
Nb0_4 Nb1_4 2.882619 1_555
Nb0_4 Nb1_2 2.882619 1_655
Nb0_4 Nb0_6 2.902664 1_545
Nb0_4 Nb0_6 2.902664 1_555
Nb0_5 Nb1_3 2.882619 1_655
Nb0_5 Nb1_5 2.882619 1_555
Nb0_5 Nb0_7 2.902664 1_545
Nb0_5 Nb0_7 2.902664 1_555
Nb0_6 Nb1_0 2.882619 1_665
Nb0_6 Nb1_6 2.882619 1_555
Nb0_7 Nb1_1 2.882619 1_665
Nb0_7 Nb1_7 2.882619 1_555
Nb1_0 Nb2_6 2.882619 1_445
Nb1_0 Nb2_0 2.882619 1_555
Nb1_0 Nb1_2 2.902664 1_545
Nb1_0 Nb1_4 2.902664 1_455
Nb1_0 Nb1_4 2.902664 1_555
Nb1_0 Nb1_2 2.902664 1_555
Nb1_1 Nb2_1 2.882619 1_555
Nb1_1 Nb2_7 2.882619 1_445
Nb1_1 Nb1_3 2.902664 1_555
Nb1_1 Nb1_5 2.902664 1_555
Nb1_1 Nb1_5 2.902664 1_455
Nb1_1 Nb1_3 2.902664 1_545
Nb1_2 Nb2_4 2.882619 1_455
Nb1_2 Nb2_2 2.882619 1_555
Nb1_2 Nb1_6 2.902664 1_555
Nb1_2 Nb1_6 2.902664 1_455
Nb1_3 Nb2_3 2.882619 1_555
Nb1_3 Nb2_5 2.882619 1_455
Nb1_3 Nb1_7 2.902664 1_555
Nb1_3 Nb1_7 2.902664 1_455
Nb1_4 Nb2_4 2.882619 1_555
Nb1_4 Nb2_2 2.882619 1_545
Nb1_4 Nb1_6 2.902664 1_545
Nb1_4 Nb1_6 2.902664 1_555
Nb1_5 Nb2_5 2.882619 1_555
Nb1_5 Nb2_3 2.882619 1_545
Nb1_5 Nb1_7 2.902664 1_545
Nb1_5 Nb1_7 2.902664 1_555
Nb1_6 Nb2_0 2.882619 1_555
Nb1_6 Nb2_6 2.882619 1_555
Nb1_7 Nb2_1 2.882619 1_555
Nb1_7 Nb2_7 2.882619 1_555
Nb2_0 Nb2_4 2.902664 1_555
Nb2_0 Nb2_2 2.902664 1_545
Nb2_0 Nb2_4 2.902664 1_455
Nb2_0 Nb2_2 2.902664 1_555
Nb2_1 Nb2_5 2.902664 1_555
Nb2_1 Nb2_3 2.902664 1_545
Nb2_1 Nb2_5 2.902664 1_455
Nb2_1 Nb2_3 2.902664 1_555
Nb2_2 Nb2_6 2.902664 1_455
Nb2_2 Nb2_6 2.902664 1_555
Nb2_3 Nb2_7 2.902664 1_455
Nb2_3 Nb2_7 2.902664 1_555
Nb2_4 Nb2_6 2.902664 1_545
Nb2_4 Nb2_6 2.902664 1_555
Nb2_5 Nb2_7 2.902664 1_545
Nb2_5 Nb2_7 2.902664 1_555
In0_0 In0_2 2.902664 1_545
In0_0 In0_2 2.902664 1_555
In0_0 In0_4 2.902664 1_455
In0_0 In0_4 2.902664 1_555
In0_0 Nb2_6 2.984423 1_445
In0_0 Nb2_0 2.984423 1_555
In0_0 Nb0_7 2.984423 1_444
In0_0 Nb0_1 2.984423 1_554
In0_0 Nb2_2 3.360586 1_545
In0_0 Nb2_4 3.360586 1_455
In0_0 Nb0_3 3.360586 1_544
In0_0 Nb0_5 3.360586 1_454
In0_1 In0_5 2.902664 1_555
In0_1 In0_5 2.902664 1_455
In0_1 In0_3 2.902664 1_555
In0_1 In0_3 2.902664 1_545
In0_1 Nb2_1 2.984423 1_555
In0_1 Nb2_7 2.984423 1_445
In0_1 Nb0_6 2.984423 1_445
In0_1 Nb0_0 2.984423 1_555
In0_1 Nb2_3 3.360586 1_545
In0_1 Nb2_5 3.360586 1_455
In0_1 Nb0_2 3.360586 1_545
In0_1 Nb0_4 3.360586 1_455
In0_2 In0_6 2.902664 1_555
In0_2 In0_6 2.902664 1_455
In0_2 Nb2_4 2.984423 1_455
In0_2 Nb2_2 2.984423 1_555
In0_2 Nb0_5 2.984423 1_454
In0_2 Nb0_3 2.984423 1_554
In0_2 Nb2_0 3.360586 1_555
In0_2 Nb2_6 3.360586 1_455
In0_2 Nb0_1 3.360586 1_554
In0_2 Nb0_7 3.360586 1_454
In0_3 In0_7 2.902664 1_555
In0_3 In0_7 2.902664 1_455
In0_3 Nb2_3 2.984423 1_555
In0_3 Nb2_5 2.984423 1_455
In0_3 Nb0_2 2.984423 1_555
In0_3 Nb0_4 2.984423 1_455
In0_3 Nb2_1 3.360586 1_555
In0_3 Nb2_7 3.360586 1_455
In0_3 Nb0_0 3.360586 1_555
In0_3 Nb0_6 3.360586 1_455
In0_4 In0_6 2.902664 1_545
In0_4 In0_6 2.902664 1_555
In0_4 Nb2_4 2.984423 1_555
In0_4 Nb2_2 2.984423 1_545
In0_4 Nb0_5 2.984423 1_554
In0_4 Nb0_3 2.984423 1_544
In0_4 Nb2_6 3.360586 1_545
In0_4 Nb2_0 3.360586 1_555
In0_4 Nb0_7 3.360586 1_544
In0_4 Nb0_1 3.360586 1_554
In0_5 In0_7 2.902664 1_545
In0_5 In0_7 2.902664 1_555
In0_5 Nb2_5 2.984423 1_555
In0_5 Nb2_3 2.984423 1_545
In0_5 Nb0_4 2.984423 1_555
In0_5 Nb0_2 2.984423 1_545
In0_5 Nb2_7 3.360586 1_545
In0_5 Nb2_1 3.360586 1_555
In0_5 Nb0_6 3.360586 1_545
In0_5 Nb0_0 3.360586 1_555
In0_6 Nb2_0 2.984423 1_555
In0_6 Nb2_6 2.984423 1_555
In0_6 Nb0_1 2.984423 1_554
In0_6 Nb0_7 2.984423 1_554
In0_6 Nb2_2 3.360586 1_555
In0_6 Nb2_4 3.360586 1_555
In0_6 Nb0_3 3.360586 1_554
In0_6 Nb0_5 3.360586 1_554
In0_7 Nb2_1 2.984423 1_555
In0_7 Nb2_7 2.984423 1_555
In0_7 Nb0_0 2.984423 1_555
In0_7 Nb0_6 2.984423 1_555
In0_7 Nb2_3 3.360586 1_555
In0_7 Nb2_5 3.360586 1_555
In0_7 Nb0_4 3.360586 1_555
In0_7 Nb0_2 3.360586 1_555
