# generated using pymatgen
data_Fe2Re5As12
_symmetry_space_group_name_H-M   'P 1'
_cell_length_a   3.11813800
_cell_length_b   12.85360700
_cell_length_c   15.84379400
_cell_angle_alpha   90.00000000
_cell_angle_beta   90.00000000
_cell_angle_gamma   90.00000000
_symmetry_Int_Tables_number   1
_chemical_formula_structural   Fe2Re5As12
_chemical_formula_sum   'Fe4 Re10 As24'
_cell_volume   635.00849645
_cell_formula_units_Z   2
loop_
 _symmetry_equiv_pos_site_id
 _symmetry_equiv_pos_as_xyz
  1  'x, y, z'
loop_
 _atom_site_type_symbol
 _atom_site_label
 _atom_site_symmetry_multiplicity
 _atom_site_fract_x
 _atom_site_fract_y
 _atom_site_fract_z
 _atom_site_occupancy
  Fe  Fe0  1  0.50000000  0.12694900  0.34503100  1
  Fe  Fe1  1  0.50000000  0.87305100  0.65496900  1
  Fe  Fe2  1  0.00000000  0.37305100  0.84503100  1
  Fe  Fe3  1  0.00000000  0.62694900  0.15496900  1
  Re  Re0  1  0.50000000  0.31714000  0.10412400  1
  Re  Re1  1  0.50000000  0.68286000  0.89587600  1
  Re  Re2  1  0.00000000  0.18286000  0.60412400  1
  Re  Re3  1  0.00000000  0.81714000  0.39587600  1
  Re  Re4  1  0.50000000  0.91626300  0.26143000  1
  Re  Re5  1  0.50000000  0.08373700  0.73857000  1
  Re  Re6  1  0.00000000  0.58373700  0.76143000  1
  Re  Re7  1  0.00000000  0.41626300  0.23857000  1
  Re  Re8  1  0.50000000  0.50000000  0.50000000  1
  Re  Re9  1  0.00000000  0.00000000  0.00000000  1
  As  As0  1  0.50000000  0.90453600  0.09748900  1
  As  As1  1  0.50000000  0.09546400  0.90251100  1
  As  As2  1  0.00000000  0.59546400  0.59748900  1
  As  As3  1  0.00000000  0.40453600  0.40251100  1
  As  As4  1  0.50000000  0.57018800  0.25964800  1
  As  As5  1  0.50000000  0.42981200  0.74035200  1
  As  As6  1  0.00000000  0.92981200  0.75964800  1
  As  As7  1  0.00000000  0.07018800  0.24035200  1
  As  As8  1  0.50000000  0.65552900  0.40600800  1
  As  As9  1  0.50000000  0.34447100  0.59399200  1
  As  As10  1  0.00000000  0.84447100  0.90600800  1
  As  As11  1  0.00000000  0.15552900  0.09399200  1
  As  As12  1  0.50000000  0.97003500  0.42074800  1
  As  As13  1  0.50000000  0.02996500  0.57925200  1
  As  As14  1  0.00000000  0.52996500  0.92074800  1
  As  As15  1  0.00000000  0.47003500  0.07925200  1
  As  As16  1  0.50000000  0.70806300  0.05928900  1
  As  As17  1  0.50000000  0.29193700  0.94071100  1
  As  As18  1  0.00000000  0.79193700  0.55928900  1
  As  As19  1  0.00000000  0.20806300  0.44071100  1
  As  As20  1  0.50000000  0.72921600  0.74082600  1
  As  As21  1  0.50000000  0.27078400  0.25917400  1
  As  As22  1  0.00000000  0.77078400  0.24082600  1
  As  As23  1  0.00000000  0.22921600  0.75917400  1
loop_
_geom_bond_atom_site_label_1
_geom_bond_atom_site_label_2
_geom_bond_distance
_geom_bond_site_symmetry_2
As0 Re9 2.514387 1_665
As0 Re9 2.514387 1_565
As0 As16 2.596899 1_555
As0 Re4 2.601817 1_555
As1 Re9 2.514387 1_556
As1 Re9 2.514387 1_656
As1 As17 2.596899 1_555
As1 Re5 2.601817 1_555
As2 Re8 2.514387 1_555
As2 Re8 2.514387 1_455
As2 Re6 2.601817 1_555
As3 Re8 2.514387 1_555
As3 Re8 2.514387 1_455
As3 Re7 2.601817 1_555
As4 Fe3 2.390325 1_555
As4 Fe3 2.390325 1_655
As4 Re7 2.540994 1_555
As4 Re7 2.540994 1_655
As4 As8 2.565261 1_555
As5 Fe2 2.390325 1_555
As5 Fe2 2.390325 1_655
As5 Re6 2.540994 1_655
As5 Re6 2.540994 1_555
As5 As9 2.565261 1_555
As6 Fe1 2.390325 1_555
As6 Fe1 2.390325 1_455
As6 Re5 2.540994 1_565
As6 Re5 2.540994 1_465
As7 Fe0 2.390325 1_455
As7 Fe0 2.390325 1_555
As7 Re4 2.540994 1_445
As7 Re4 2.540994 1_545
As8 Re8 2.492814 1_555
As8 Re3 2.602225 1_555
As8 Re3 2.602225 1_655
As9 Re8 2.492814 1_555
As9 Re2 2.602225 1_555
As9 Re2 2.602225 1_655
As10 Re9 2.492814 1_566
As10 As6 2.565261 1_555
As10 Re1 2.602225 1_455
As10 Re1 2.602225 1_555
As11 Re9 2.492814 1_555
As11 As7 2.565261 1_555
As11 Re0 2.602225 1_455
As11 Re0 2.602225 1_555
As12 Fe0 2.346716 1_565
As12 Re3 2.539331 1_555
As12 Re3 2.539331 1_655
As12 Re4 2.617117 1_555
As12 As13 2.626793 1_565
As13 Fe1 2.346716 1_545
As13 Re2 2.539331 1_655
As13 Re2 2.539331 1_555
As13 Re5 2.617117 1_555
As14 Fe2 2.346716 1_555
As14 Re1 2.539331 1_455
As14 Re1 2.539331 1_555
As14 Re6 2.617117 1_555
As14 As15 2.626793 1_556
As15 Fe3 2.346716 1_555
As15 Re0 2.539331 1_555
As15 Re0 2.539331 1_455
As15 Re7 2.617117 1_555
As16 Fe3 2.411593 1_655
As16 Fe3 2.411593 1_555
As16 Re1 2.609270 1_554
As17 Fe2 2.411593 1_555
As17 Fe2 2.411593 1_655
As17 Re0 2.609270 1_556
As18 Fe1 2.411593 1_555
As18 Fe1 2.411593 1_455
As18 As2 2.596899 1_555
As18 Re3 2.609270 1_555
As19 Fe0 2.411593 1_555
As19 Fe0 2.411593 1_455
As19 As3 2.596899 1_555
As19 Re2 2.609270 1_555
As20 Fe1 2.295316 1_555
As20 Re6 2.456400 1_555
As20 Re6 2.456400 1_655
As20 Re1 2.527808 1_555
As21 Fe0 2.295316 1_555
As21 Re7 2.456400 1_655
As21 Re7 2.456400 1_555
As21 Re0 2.527808 1_555
As22 Fe3 2.295316 1_555
As22 Re4 2.456400 1_455
As22 Re4 2.456400 1_555
As22 Re3 2.527808 1_555
As23 Fe2 2.295316 1_555
As23 Re5 2.456400 1_455
As23 Re5 2.456400 1_555
As23 Re2 2.527808 1_555
