# generated using pymatgen
data_Mg14ZnC
_symmetry_space_group_name_H-M   'P 1'
_cell_length_a   6.29619184
_cell_length_b   6.29619184
_cell_length_c   8.86880300
_cell_angle_alpha   90.00000000
_cell_angle_beta   90.00000000
_cell_angle_gamma   104.38941316
_symmetry_Int_Tables_number   1
_chemical_formula_structural   Mg14ZnC
_chemical_formula_sum   'Mg14 Zn1 C1'
_cell_volume   340.54806999
_cell_formula_units_Z   1
loop_
 _symmetry_equiv_pos_site_id
 _symmetry_equiv_pos_as_xyz
  1  'x, y, z'
loop_
 _atom_site_type_symbol
 _atom_site_label
 _atom_site_symmetry_multiplicity
 _atom_site_fract_x
 _atom_site_fract_y
 _atom_site_fract_z
 _atom_site_occupancy
  Mg  Mg0  1  0.87338400  0.12661600  0.00000000  1
  Mg  Mg1  1  0.33724700  0.66275300  0.00000000  1
  Mg  Mg2  1  0.36161500  0.07768900  0.50000000  1
  Mg  Mg3  1  0.38811500  0.18494500  0.00000000  1
  Mg  Mg4  1  0.92231100  0.63838500  0.50000000  1
  Mg  Mg5  1  0.81505500  0.61188500  0.00000000  1
  Mg  Mg6  1  0.20059400  0.42339900  0.31795900  1
  Mg  Mg7  1  0.20059400  0.42339900  0.68204100  1
  Mg  Mg8  1  0.57660100  0.79940600  0.31795900  1
  Mg  Mg9  1  0.57660100  0.79940600  0.68204100  1
  Mg  Mg10  1  0.68118100  0.31881900  0.27312600  1
  Mg  Mg11  1  0.68118100  0.31881900  0.72687400  1
  Mg  Mg12  1  0.10241900  0.89758100  0.23932600  1
  Mg  Mg13  1  0.10241900  0.89758100  0.76067400  1
  Zn  Zn0  1  0.89377200  0.10622800  0.50000000  1
  C  C0  1  0.28691300  0.71308700  0.50000000  1
loop_
_geom_bond_atom_site_label_1
_geom_bond_atom_site_label_2
_geom_bond_distance
_geom_bond_site_symmetry_2
Mg0 Mg10 3.086149 1_555
Mg0 Mg11 3.086149 1_554
Mg0 Mg12 3.114116 1_645
Mg0 Mg13 3.114116 1_644
Mg0 Mg5 3.166657 1_555
Mg0 Mg3 3.166657 1_555
Mg0 Mg3 3.169605 1_655
Mg0 Mg5 3.169605 1_545
Mg1 Mg5 3.103507 1_555
Mg1 Mg3 3.103507 1_555
Mg1 Mg12 3.156535 1_555
Mg1 Mg13 3.156535 1_554
Mg1 Mg8 3.212297 1_555
Mg1 Mg9 3.212297 1_554
Mg1 Mg7 3.212297 1_554
Mg1 Mg6 3.212297 1_555
Mg1 Mg3 3.223193 1_565
Mg1 Mg5 3.223193 1_455
Mg2 Zn0 2.995344 1_455
Mg3 Mg5 3.295499 1_555
Mg4 Zn0 2.995344 1_565
Mg6 Zn0 2.899819 1_455
Mg7 Zn0 2.899819 1_455
Mg8 Zn0 2.899819 1_565
Mg9 Zn0 2.899819 1_565
Mg10 Zn0 2.919291 1_555
Mg10 Mg4 2.980533 1_555
Mg10 Mg2 2.980533 1_555
Mg10 Mg5 3.034757 1_555
Mg10 Mg3 3.034757 1_555
Mg10 Mg6 3.196312 1_655
Mg10 Mg8 3.196312 1_545
Mg10 Mg8 3.276859 1_555
Mg10 Mg6 3.276859 1_555
Mg11 Zn0 2.919291 1_555
Mg11 Mg4 2.980533 1_555
Mg11 Mg2 2.980533 1_555
Mg11 Mg5 3.034757 1_556
Mg11 Mg3 3.034757 1_556
Mg11 Mg7 3.196312 1_655
Mg11 Mg9 3.196312 1_545
Mg11 Mg9 3.276859 1_555
Mg11 Mg7 3.276859 1_555
Mg12 Mg4 2.893808 1_455
Mg12 Mg2 2.893808 1_565
Mg12 Mg5 3.065420 1_455
Mg12 Mg3 3.065420 1_565
Mg12 Zn0 3.107086 1_465
Mg12 Mg6 3.270949 1_555
Mg12 Mg8 3.270949 1_555
Mg12 Mg8 3.288118 1_455
Mg12 Mg6 3.288118 1_565
Mg13 Mg4 2.893808 1_455
Mg13 Mg2 2.893808 1_565
Mg13 Mg5 3.065420 1_456
Mg13 Mg3 3.065420 1_566
Mg13 Zn0 3.107086 1_465
Mg13 Mg7 3.270949 1_555
Mg13 Mg9 3.270949 1_555
Mg13 Mg9 3.288118 1_455
Mg13 Mg7 3.288118 1_565
C0 Mg2 2.225843 1_565
C0 Mg4 2.225843 1_455
C0 Mg6 2.394990 1_555
C0 Mg7 2.394990 1_555
C0 Mg8 2.394990 1_555
C0 Mg9 2.394990 1_555
C0 Mg13 2.951957 1_555
C0 Mg12 2.951957 1_555
