# generated using pymatgen
data_Rb2UH2(SeO5)2
_symmetry_space_group_name_H-M   'P 1'
_cell_length_a   7.93122800
_cell_length_b   11.73806000
_cell_length_c   13.91377900
_cell_angle_alpha   90.00000000
_cell_angle_beta   90.00000000
_cell_angle_gamma   90.00000000
_symmetry_Int_Tables_number   1
_chemical_formula_structural   Rb2UH2(SeO5)2
_chemical_formula_sum   'Rb8 U4 H8 Se8 O40'
_cell_volume   1295.33428565
_cell_formula_units_Z   4
loop_
 _symmetry_equiv_pos_site_id
 _symmetry_equiv_pos_as_xyz
  1  'x, y, z'
loop_
 _atom_site_type_symbol
 _atom_site_label
 _atom_site_symmetry_multiplicity
 _atom_site_fract_x
 _atom_site_fract_y
 _atom_site_fract_z
 _atom_site_occupancy
  Rb  Rb0  1  0.32394400  0.88361900  0.02931500  1
  Rb  Rb1  1  0.82394400  0.11638100  0.97068500  1
  Rb  Rb2  1  0.32394400  0.61638100  0.52931500  1
  Rb  Rb3  1  0.82394400  0.38361900  0.47068500  1
  Rb  Rb4  1  0.80174000  0.84415100  0.44195800  1
  Rb  Rb5  1  0.30174000  0.15584900  0.55804200  1
  Rb  Rb6  1  0.80174000  0.65584900  0.94195800  1
  Rb  Rb7  1  0.30174000  0.34415100  0.05804200  1
  U  U0  1  0.00646800  0.59651600  0.24543400  1
  U  U1  1  0.50646800  0.40348400  0.75456600  1
  U  U2  1  0.00646800  0.90348400  0.74543400  1
  U  U3  1  0.50646800  0.09651600  0.25456600  1
  H  H0  1  0.44516300  0.59439700  0.06463900  1
  H  H1  1  0.94516300  0.40560300  0.93536100  1
  H  H2  1  0.44516300  0.90560300  0.56463900  1
  H  H3  1  0.94516300  0.09439700  0.43536100  1
  H  H4  1  0.66659500  0.59679500  0.26570700  1
  H  H5  1  0.16659500  0.40320500  0.73429300  1
  H  H6  1  0.66659500  0.90320500  0.76570700  1
  H  H7  1  0.16659500  0.09679500  0.23429300  1
  Se  Se0  1  0.81273800  0.31553600  0.18514700  1
  Se  Se1  1  0.31273800  0.68446400  0.81485300  1
  Se  Se2  1  0.81273800  0.18446400  0.68514700  1
  Se  Se3  1  0.31273800  0.81553600  0.31485300  1
  Se  Se4  1  0.82111100  0.88139600  0.16575800  1
  Se  Se5  1  0.32111100  0.11860400  0.83424200  1
  Se  Se6  1  0.82111100  0.61860400  0.66575800  1
  Se  Se7  1  0.32111100  0.38139600  0.33424200  1
  O  O0  1  0.48311100  0.75767700  0.36231400  1
  O  O1  1  0.98311100  0.24232300  0.63768600  1
  O  O2  1  0.48311100  0.74232300  0.86231400  1
  O  O3  1  0.98311100  0.25767700  0.13768600  1
  O  O4  1  0.86528800  0.42615200  0.26012000  1
  O  O5  1  0.36528800  0.57384800  0.73988000  1
  O  O6  1  0.86528800  0.07384800  0.76012000  1
  O  O7  1  0.36528800  0.92615200  0.23988000  1
  O  O8  1  0.99572400  0.93881100  0.12413000  1
  O  O9  1  0.49572400  0.06118900  0.87587000  1
  O  O10  1  0.99572400  0.56118900  0.62413000  1
  O  O11  1  0.49572400  0.43881100  0.37587000  1
  O  O12  1  0.99784200  0.60694000  0.37636400  1
  O  O13  1  0.49784200  0.39306000  0.62363600  1
  O  O14  1  0.99784200  0.89306000  0.87636400  1
  O  O15  1  0.49784200  0.10694000  0.12363600  1
  O  O16  1  0.86122400  0.76700700  0.23851300  1
  O  O17  1  0.36122400  0.23299300  0.76148700  1
  O  O18  1  0.86122400  0.73299300  0.73851300  1
  O  O19  1  0.36122400  0.26700700  0.26148700  1
  O  O20  1  0.68685600  0.84482100  0.08028400  1
  O  O21  1  0.18685600  0.15517900  0.91971600  1
  O  O22  1  0.68685600  0.65517900  0.58028400  1
  O  O23  1  0.18685600  0.34482100  0.41971600  1
  O  O24  1  0.73198200  0.97254600  0.24707300  1
  O  O25  1  0.23198200  0.02745400  0.75292700  1
  O  O26  1  0.73198200  0.52745400  0.74707300  1
  O  O27  1  0.23198200  0.47254600  0.25292700  1
  O  O28  1  0.67329200  0.35578000  0.10443700  1
  O  O29  1  0.17329200  0.64422000  0.89556300  1
  O  O30  1  0.67329200  0.14422000  0.60443700  1
  O  O31  1  0.17329200  0.85578000  0.39556300  1
  O  O32  1  0.99887300  0.58302200  0.11495400  1
  O  O33  1  0.49887300  0.41697800  0.88504600  1
  O  O34  1  0.99887300  0.91697800  0.61495400  1
  O  O35  1  0.49887300  0.08302200  0.38504600  1
  O  O36  1  0.22778800  0.72234000  0.23332900  1
  O  O37  1  0.72778800  0.27766000  0.76667100  1
  O  O38  1  0.22778800  0.77766000  0.73332900  1
  O  O39  1  0.72778800  0.22234000  0.26667100  1
loop_
_geom_bond_atom_site_label_1
_geom_bond_atom_site_label_2
_geom_bond_distance
_geom_bond_site_symmetry_2
H0 Rb7 3.151303 1_555
H1 Rb6 3.151303 1_555
H2 Rb5 3.151303 1_565
H3 Rb4 3.151303 1_545
H4 U0 2.710330 1_655
H5 U1 2.710330 1_555
H6 U2 2.710330 1_655
H7 U3 2.710330 1_555
O0 Se3 1.650227 1_555
O0 Rb4 2.940174 1_555
O0 Rb2 3.121470 1_555
O1 Se2 1.650227 1_555
O1 Rb5 2.940174 1_655
O1 Rb3 3.121470 1_555
O2 Se1 1.650227 1_555
O2 Rb6 2.940174 1_555
O2 Rb0 3.121470 1_556
O3 Se0 1.650227 1_555
O3 Rb7 2.940174 1_655
O3 Rb1 3.121470 1_554
O4 Se0 1.716909 1_555
O4 U0 2.300983 1_655
O4 Rb3 2.990024 1_555
O5 Se1 1.716909 1_555
O5 U1 2.300983 1_555
O5 Rb2 2.990024 1_555
O6 Se2 1.716909 1_555
O6 U2 2.300983 1_645
O6 Rb1 2.990024 1_555
O7 Se3 1.716909 1_555
O7 U3 2.300983 1_565
O7 Rb0 2.990024 1_555
O8 Se4 1.645481 1_555
O8 Rb0 2.989427 1_655
O8 Rb1 3.280069 1_564
O9 Se5 1.645481 1_555
O9 Rb1 2.989427 1_555
O9 Rb0 3.280069 1_546
O10 Se6 1.645481 1_555
O10 Rb2 2.989427 1_655
O10 Rb3 3.280069 1_555
O11 Se7 1.645481 1_555
O11 Rb3 2.989427 1_555
O11 Rb2 3.280069 1_555
O12 U0 1.827117 1_655
O12 Rb3 3.239762 1_555
O12 Rb4 3.317358 1_555
O12 Rb2 3.351211 1_655
O13 U1 1.827117 1_555
O13 Rb2 3.239762 1_555
O13 Rb5 3.317358 1_555
O13 Rb3 3.351211 1_555
O14 U2 1.827117 1_655
O14 Rb1 3.239762 1_565
O14 Rb6 3.317358 1_555
O14 Rb0 3.351211 1_656
O15 U3 1.827117 1_555
O15 Rb0 3.239762 1_545
O15 Rb7 3.317358 1_555
O15 Rb1 3.351211 1_554
O16 Se4 1.711379 1_555
O16 U0 2.311110 1_655
O16 Rb4 3.009210 1_555
O17 Se5 1.711379 1_555
O17 U1 2.311110 1_555
O17 Rb5 3.009210 1_555
O18 Se6 1.711379 1_555
O18 U2 2.311110 1_655
O18 Rb6 3.009210 1_555
O19 Se7 1.711379 1_555
O19 U3 2.311110 1_555
O19 Rb7 3.009210 1_555
O20 Se4 1.653023 1_555
O20 Rb0 2.999192 1_555
O20 Rb6 3.074852 1_554
O21 Se5 1.653023 1_555
O21 Rb1 2.999192 1_455
O21 Rb7 3.074852 1_556
O22 Se6 1.653023 1_555
O22 Rb2 2.999192 1_555
O22 Rb4 3.074852 1_555
O23 Se7 1.653023 1_555
O23 Rb3 2.999192 1_455
O23 Rb5 3.074852 1_555
O24 Se4 1.710121 1_555
O24 U3 2.308134 1_565
O24 Rb4 3.151219 1_555
O25 Se5 1.710121 1_555
O25 U2 2.308134 1_545
O25 Rb5 3.151219 1_555
O26 Se6 1.710121 1_555
O26 U1 2.308134 1_555
O26 Rb6 3.151219 1_555
O27 Se7 1.710121 1_555
O27 U0 2.308134 1_555
O27 Rb7 3.151219 1_555
O28 Se0 1.645425 1_555
O28 Rb7 3.019826 1_555
O29 Se1 1.645425 1_555
O29 Rb6 3.019826 1_455
O30 Se2 1.645425 1_555
O30 Rb5 3.019826 1_555
O31 Se3 1.645425 1_555
O31 Rb4 3.019826 1_455
O32 U0 1.823362 1_655
O32 Rb6 2.994846 1_554
O33 U1 1.823362 1_555
O33 Rb7 2.994846 1_556
O34 U2 1.823362 1_655
O34 Rb4 2.994846 1_555
O35 U3 1.823362 1_555
O35 Rb5 2.994846 1_555
O36 Se3 1.713857 1_555
O36 U0 2.300197 1_555
O37 Se2 1.713857 1_555
O37 U1 2.300197 1_555
O38 Se1 1.713857 1_555
O38 U2 2.300197 1_555
O39 Se0 1.713857 1_555
O39 U3 2.300197 1_555
