# generated using pymatgen
data_CaV2O4
_symmetry_space_group_name_H-M   'P 1'
_cell_length_a   6.31138403
_cell_length_b   6.31138403
_cell_length_c   15.30349967
_cell_angle_alpha   89.51143496
_cell_angle_beta   89.51143496
_cell_angle_gamma   59.71093316
_symmetry_Int_Tables_number   1
_chemical_formula_structural   CaV2O4
_chemical_formula_sum   'Ca6 V12 O24'
_cell_volume   526.35312040
_cell_formula_units_Z   6
loop_
 _symmetry_equiv_pos_site_id
 _symmetry_equiv_pos_as_xyz
  1  'x, y, z'
loop_
 _atom_site_type_symbol
 _atom_site_label
 _atom_site_symmetry_multiplicity
 _atom_site_fract_x
 _atom_site_fract_y
 _atom_site_fract_z
 _atom_site_occupancy
  Ca  Ca0  1  0.83799400  0.83799400  0.95908300  1
  Ca  Ca1  1  0.16697300  0.16697300  0.66739000  1
  Ca  Ca2  1  0.33249800  0.33249800  0.83293300  1
  Ca  Ca3  1  0.83508800  0.83508800  0.33145700  1
  Ca  Ca4  1  0.99995000  0.99995000  0.49981600  1
  Ca  Ca5  1  0.66494000  0.66494000  0.16783300  1
  V  V0  1  0.82498700  0.33788300  0.83401600  1
  V  V1  1  0.50505900  0.50505900  0.62057400  1
  V  V2  1  0.49929900  0.49929900  0.99624200  1
  V  V3  1  0.33788300  0.82498700  0.83401600  1
  V  V4  1  0.49977500  0.99984400  0.49995100  1
  V  V5  1  0.17296800  0.17296800  0.29009800  1
  V  V6  1  0.99984400  0.49977500  0.49995100  1
  V  V7  1  0.16839600  0.66576400  0.16685300  1
  V  V8  1  0.82758700  0.82758700  0.71047400  1
  V  V9  1  0.66576400  0.16839600  0.16685300  1
  V  V10  1  0.49445100  0.49445100  0.37884400  1
  V  V11  1  0.16027600  0.16027600  0.04224100  1
  O  O0  1  0.66153500  0.22048000  0.91638400  1
  O  O1  1  0.50988800  0.50988800  0.74826900  1
  O  O2  1  0.22048000  0.66153500  0.91638400  1
  O  O3  1  0.64556700  0.64556700  0.90716300  1
  O  O4  1  0.35718700  0.84012200  0.57621500  1
  O  O5  1  0.99813800  0.99813800  0.76459400  1
  O  O6  1  0.17874200  0.17874200  0.42115600  1
  O  O7  1  0.50064500  0.97332100  0.75864500  1
  O  O8  1  0.84012200  0.35718700  0.57621500  1
  O  O9  1  0.15237200  0.15237200  0.91519300  1
  O  O10  1  0.33298500  0.33298500  0.57536200  1
  O  O11  1  0.97332100  0.50064500  0.75864500  1
  O  O12  1  0.02636300  0.50170600  0.24227800  1
  O  O13  1  0.66641300  0.66641300  0.42387700  1
  O  O14  1  0.16229500  0.64258500  0.42370900  1
  O  O15  1  0.50170600  0.02636300  0.24227800  1
  O  O16  1  0.84860600  0.84860600  0.10446300  1
  O  O17  1  0.82181000  0.82181000  0.57929200  1
  O  O18  1  0.00689100  0.00689100  0.24106300  1
  O  O19  1  0.64258500  0.16229500  0.42370900  1
  O  O20  1  0.33717400  0.33717400  0.08192200  1
  O  O21  1  0.80641300  0.32309800  0.08018900  1
  O  O22  1  0.48629800  0.48629800  0.24637900  1
  O  O23  1  0.32309800  0.80641300  0.08018900  1
loop_
_geom_bond_atom_site_label_1
_geom_bond_atom_site_label_2
_geom_bond_distance
_geom_bond_site_symmetry_2
Ca0 O0 2.183655 1_565
Ca0 O2 2.183655 1_655
Ca0 O16 2.228994 1_556
Ca0 O3 2.258760 1_555
Ca1 O8 2.272875 1_455
Ca1 O4 2.272875 1_545
Ca1 O10 2.288261 1_555
Ca1 O11 2.302980 1_455
Ca1 O7 2.302980 1_545
Ca1 O5 2.361161 1_445
Ca2 O0 2.234329 1_555
Ca2 O2 2.234329 1_555
Ca2 O11 2.270287 1_455
Ca2 O7 2.270287 1_545
Ca2 O1 2.323906 1_555
Ca2 O9 2.329045 1_555
Ca3 O12 2.281614 1_655
Ca3 O15 2.281614 1_565
Ca3 O14 2.285504 1_655
Ca3 O19 2.285504 1_565
Ca3 O13 2.314922 1_555
Ca3 O18 2.323780 1_665
Ca4 O14 2.277455 1_655
Ca4 O19 2.277455 1_565
Ca4 O8 2.280053 1_565
Ca4 O4 2.280053 1_655
Ca4 O6 2.287767 1_665
Ca4 O17 2.288209 1_555
Ca5 O16 2.223736 1_555
Ca5 O15 2.283942 1_565
Ca5 O12 2.283942 1_655
Ca5 O22 2.285468 1_555
Ca5 O23 2.310136 1_555
Ca5 O21 2.310136 1_555
O0 V2 1.958676 1_555
O0 V0 1.983716 1_555
O1 V1 1.955415 1_555
O1 V3 2.167457 1_555
O1 V0 2.167457 1_555
O2 V2 1.958676 1_555
O2 V3 1.983716 1_555
O3 V3 2.025749 1_555
O3 V0 2.025749 1_555
O3 V2 2.092730 1_555
O4 V1 1.949188 1_555
O4 V4 2.016267 1_555
O5 V8 2.049992 1_555
O5 V0 2.139186 1_565
O5 V3 2.139186 1_655
O6 V5 2.007263 1_555
O6 V6 2.131899 1_455
O6 V4 2.131899 1_545
O7 V8 1.928322 1_555
O7 V3 2.047830 1_555
O8 V1 1.949188 1_555
O8 V6 2.016267 1_555
O9 V11 1.947053 1_556
O9 V0 2.182238 1_455
O9 V3 2.182238 1_545
O10 V1 2.013207 1_555
O10 V4 2.156113 1_545
O10 V6 2.156113 1_455
O11 V8 1.928322 1_555
O11 V0 2.047830 1_555
O12 V5 1.935354 1_555
O12 V7 2.026398 1_555
O13 V10 2.011090 1_555
O13 V4 2.162951 1_555
O13 V6 2.162951 1_555
O14 V10 1.936386 1_555
O14 V6 2.029487 1_455
O15 V5 1.935354 1_555
O15 V9 2.026398 1_555
O16 V7 1.995381 1_655
O16 V9 1.995381 1_565
O17 V8 2.009161 1_555
O17 V4 2.140782 1_555
O17 V6 2.140782 1_555
O18 V5 1.973713 1_555
O18 V9 2.184567 1_455
O18 V7 2.184567 1_545
O19 V10 1.936386 1_555
O19 V4 2.029487 1_545
O20 V11 2.035261 1_555
O20 V2 2.196281 1_554
O20 V7 2.217853 1_555
O20 V9 2.217853 1_555
O21 V11 2.013494 1_655
O21 V9 2.081446 1_555
O21 V2 2.118472 1_554
O22 V10 2.030019 1_555
O22 V9 2.124960 1_555
O22 V7 2.124960 1_555
O23 V11 2.013494 1_565
O23 V7 2.081446 1_555
O23 V2 2.118472 1_554
