# generated using pymatgen
data_TlCrNiF6
_symmetry_space_group_name_H-M   'P 1'
_cell_length_a   7.33439854
_cell_length_b   7.33439854
_cell_length_c   7.33439854
_cell_angle_alpha   120.35222953
_cell_angle_beta   119.89192866
_cell_angle_gamma   89.78914649
_symmetry_Int_Tables_number   1
_chemical_formula_structural   TlCrNiF6
_chemical_formula_sum   'Tl2 Cr2 Ni2 F12'
_cell_volume   278.46102695
_cell_formula_units_Z   2
loop_
 _symmetry_equiv_pos_site_id
 _symmetry_equiv_pos_as_xyz
  1  'x, y, z'
loop_
 _atom_site_type_symbol
 _atom_site_label
 _atom_site_symmetry_multiplicity
 _atom_site_fract_x
 _atom_site_fract_y
 _atom_site_fract_z
 _atom_site_occupancy
  Tl  Tl0  1  0.36802100  0.61802100  0.75000000  1
  Tl  Tl1  1  0.63197900  0.38197900  0.25000000  1
  Cr  Cr0  1  0.00000000  0.00000000  0.00000000  1
  Cr  Cr1  1  0.50000000  0.00000000  0.50000000  1
  Ni  Ni0  1  0.00000000  0.00000000  0.50000000  1
  Ni  Ni1  1  0.00000000  0.50000000  0.00000000  1
  F  F0  1  0.31781400  0.06781400  0.25000000  1
  F  F1  1  0.92285700  0.67285700  0.25000000  1
  F  F2  1  0.32932600  0.68429800  0.25891300  1
  F  F3  1  0.92538500  0.07041300  0.24108700  1
  F  F4  1  0.32932600  0.07041300  0.64502800  1
  F  F5  1  0.92538500  0.68429800  0.85497200  1
  F  F6  1  0.68218600  0.93218600  0.75000000  1
  F  F7  1  0.07714300  0.32714300  0.75000000  1
  F  F8  1  0.67067400  0.31570200  0.74108700  1
  F  F9  1  0.07461500  0.92958700  0.75891300  1
  F  F10  1  0.67067400  0.92958700  0.35497200  1
  F  F11  1  0.07461500  0.31570200  0.14502800  1
loop_
_geom_bond_atom_site_label_1
_geom_bond_atom_site_label_2
_geom_bond_distance
_geom_bond_site_symmetry_2
Cr0 F11 1.931935 1_555
Cr0 F3 1.931935 1_455
Cr0 F9 1.931935 1_544
Cr0 F5 1.931935 1_444
Cr0 F0 1.967146 1_555
Cr0 F6 1.967146 1_444
Cr1 F10 1.931935 1_545
Cr1 F8 1.931935 1_555
Cr1 F2 1.931935 1_545
Cr1 F4 1.931935 1_555
Cr1 F0 1.967146 1_555
Cr1 F6 1.967146 1_545
F1 Ni0 1.992225 1_665
F1 Ni1 1.992225 1_655
F2 Ni1 2.031134 1_555
F3 Ni0 2.031134 1_655
F4 Ni0 2.031134 1_555
F5 Ni1 2.031134 1_656
F7 Ni0 1.992225 1_555
F7 Ni1 1.992225 1_556
F8 Ni1 2.031134 1_656
F9 Ni0 2.031134 1_565
F10 Ni0 2.031134 1_665
F11 Ni1 2.031134 1_555
