# generated using pymatgen
data_MgMn2O4
_symmetry_space_group_name_H-M   'P 1'
_cell_length_a   6.05092204
_cell_length_b   6.05092204
_cell_length_c   6.05092268
_cell_angle_alpha   60.28546709
_cell_angle_beta   60.28546709
_cell_angle_gamma   60.28546754
_symmetry_Int_Tables_number   1
_chemical_formula_structural   MgMn2O4
_chemical_formula_sum   'Mg2 Mn4 O8'
_cell_volume   157.66905252
_cell_formula_units_Z   2
loop_
 _symmetry_equiv_pos_site_id
 _symmetry_equiv_pos_as_xyz
  1  'x, y, z'
loop_
 _atom_site_type_symbol
 _atom_site_label
 _atom_site_symmetry_multiplicity
 _atom_site_fract_x
 _atom_site_fract_y
 _atom_site_fract_z
 _atom_site_occupancy
  Mg  Mg0  1  0.99251200  0.99251200  0.99251200  1
  Mg  Mg1  1  0.37459300  0.37459300  0.37459300  1
  Mn  Mn0  1  0.75583300  0.75583300  0.75583300  1
  Mn  Mn1  1  0.37430800  0.87704100  0.37430800  1
  Mn  Mn2  1  0.87704100  0.37430800  0.37430800  1
  Mn  Mn3  1  0.37430800  0.37430800  0.87704100  1
  O  O0  1  0.61850100  0.61850100  0.17083100  1
  O  O1  1  0.17083100  0.61850100  0.61850100  1
  O  O2  1  0.61850100  0.17083100  0.61850100  1
  O  O3  1  0.61972500  0.61972500  0.61972500  1
  O  O4  1  0.12805000  0.12805000  0.12805000  1
  O  O5  1  0.13066300  0.58448000  0.13066300  1
  O  O6  1  0.58448000  0.13066300  0.13066300  1
  O  O7  1  0.13066300  0.13066300  0.58448000  1
loop_
_geom_bond_atom_site_label_1
_geom_bond_atom_site_label_2
_geom_bond_distance
_geom_bond_site_symmetry_2
Mg0 O4 2.004555 1_666
Mg0 O6 2.023366 1_566
Mg0 O5 2.023366 1_656
Mg0 O7 2.023367 1_665
Mg1 O7 2.100753 1_555
Mg1 O6 2.100754 1_555
Mg1 O5 2.100754 1_555
Mg1 O0 2.104284 1_555
Mg1 O1 2.104284 1_555
Mg1 O2 2.104284 1_555
Mn0 O3 2.012985 1_555
Mn0 O1 2.057675 1_655
Mn0 O2 2.057675 1_565
Mn0 O0 2.057675 1_556
Mn1 O1 1.990211 1_555
Mn1 O0 1.990211 1_555
Mn1 O6 1.994771 1_565
Mn1 O7 1.994771 1_565
Mn1 O3 2.106308 1_555
Mn1 O4 2.112222 1_565
Mn2 O2 1.990211 1_555
Mn2 O0 1.990211 1_555
Mn2 O5 1.994771 1_655
Mn2 O7 1.994771 1_655
Mn2 O3 2.106308 1_555
Mn2 O4 2.112222 1_655
Mn3 O1 1.990211 1_555
Mn3 O2 1.990211 1_555
Mn3 O5 1.994771 1_556
Mn3 O6 1.994771 1_556
Mn3 O3 2.106308 1_555
Mn3 O4 2.112221 1_556
