# generated using pymatgen
data_KAl(SO10)2
_symmetry_space_group_name_H-M   'P 1'
_cell_length_a   11.58769700
_cell_length_b   11.58769700
_cell_length_c   11.58769700
_cell_angle_alpha   90.00000000
_cell_angle_beta   90.00000000
_cell_angle_gamma   90.00000000
_symmetry_Int_Tables_number   1
_chemical_formula_structural   KAl(SO10)2
_chemical_formula_sum   'K4 Al4 S8 O80'
_cell_volume   1555.93479056
_cell_formula_units_Z   4
loop_
 _symmetry_equiv_pos_site_id
 _symmetry_equiv_pos_as_xyz
  1  'x, y, z'
loop_
 _atom_site_type_symbol
 _atom_site_label
 _atom_site_symmetry_multiplicity
 _atom_site_fract_x
 _atom_site_fract_y
 _atom_site_fract_z
 _atom_site_occupancy
  K  K0  1  0.50000000  0.50000000  0.00000000  1
  K  K1  1  0.50000000  0.00000000  0.50000000  1
  K  K2  1  0.00000000  0.50000000  0.50000000  1
  K  K3  1  0.00000000  0.00000000  0.00000000  1
  Al  Al0  1  0.00000000  0.00000000  0.50000000  1
  Al  Al1  1  0.00000000  0.50000000  0.00000000  1
  Al  Al2  1  0.50000000  0.00000000  0.00000000  1
  Al  Al3  1  0.50000000  0.50000000  0.50000000  1
  S  S0  1  0.30745600  0.69254400  0.19254400  1
  S  S1  1  0.69254400  0.19254400  0.30745600  1
  S  S2  1  0.19254400  0.30745600  0.69254400  1
  S  S3  1  0.80745600  0.80745600  0.80745600  1
  S  S4  1  0.69254400  0.30745600  0.80745600  1
  S  S5  1  0.30745600  0.80745600  0.69254400  1
  S  S6  1  0.80745600  0.69254400  0.30745600  1
  S  S7  1  0.19254400  0.19254400  0.19254400  1
  O  O0  1  0.23520500  0.76479500  0.26479500  1
  O  O1  1  0.76479500  0.26479500  0.23520500  1
  O  O2  1  0.26479500  0.23520500  0.76479500  1
  O  O3  1  0.73520500  0.73520500  0.73520500  1
  O  O4  1  0.76479500  0.23520500  0.73520500  1
  O  O5  1  0.23520500  0.73520500  0.76479500  1
  O  O6  1  0.73520500  0.76479500  0.23520500  1
  O  O7  1  0.26479500  0.26479500  0.26479500  1
  O  O8  1  0.26888200  0.56881900  0.18918200  1
  O  O9  1  0.73111800  0.06881900  0.31081800  1
  O  O10  1  0.23111800  0.43118100  0.68918200  1
  O  O11  1  0.76888200  0.93118100  0.81081800  1
  O  O12  1  0.18918200  0.26888200  0.56881900  1
  O  O13  1  0.31081800  0.73111800  0.06881900  1
  O  O14  1  0.68918200  0.23111800  0.43118100  1
  O  O15  1  0.81081800  0.76888200  0.93118100  1
  O  O16  1  0.56881900  0.18918200  0.26888200  1
  O  O17  1  0.06881900  0.31081800  0.73111800  1
  O  O18  1  0.43118100  0.68918200  0.23111800  1
  O  O19  1  0.93118100  0.81081800  0.76888200  1
  O  O20  1  0.73111800  0.43118100  0.81081800  1
  O  O21  1  0.26888200  0.93118100  0.68918200  1
  O  O22  1  0.76888200  0.56881900  0.31081800  1
  O  O23  1  0.23111800  0.06881900  0.18918200  1
  O  O24  1  0.81081800  0.73111800  0.43118100  1
  O  O25  1  0.68918200  0.26888200  0.93118100  1
  O  O26  1  0.31081800  0.76888200  0.56881900  1
  O  O27  1  0.18918200  0.23111800  0.06881900  1
  O  O28  1  0.43118100  0.81081800  0.73111800  1
  O  O29  1  0.93118100  0.68918200  0.26888200  1
  O  O30  1  0.56881900  0.31081800  0.76888200  1
  O  O31  1  0.06881900  0.18918200  0.23111800  1
  O  O32  1  0.08676800  0.77161600  0.46594300  1
  O  O33  1  0.91323200  0.27161600  0.03405700  1
  O  O34  1  0.41323200  0.22838400  0.96594300  1
  O  O35  1  0.58676800  0.72838400  0.53405700  1
  O  O36  1  0.46594300  0.08676800  0.77161600  1
  O  O37  1  0.03405700  0.91323200  0.27161600  1
  O  O38  1  0.96594300  0.41323200  0.22838400  1
  O  O39  1  0.53405700  0.58676800  0.72838400  1
  O  O40  1  0.77161600  0.46594300  0.08676800  1
  O  O41  1  0.27161600  0.03405700  0.91323200  1
  O  O42  1  0.22838400  0.96594300  0.41323200  1
  O  O43  1  0.72838400  0.53405700  0.58676800  1
  O  O44  1  0.91323200  0.22838400  0.53405700  1
  O  O45  1  0.08676800  0.72838400  0.96594300  1
  O  O46  1  0.58676800  0.77161600  0.03405700  1
  O  O47  1  0.41323200  0.27161600  0.46594300  1
  O  O48  1  0.53405700  0.91323200  0.22838400  1
  O  O49  1  0.96594300  0.08676800  0.72838400  1
  O  O50  1  0.03405700  0.58676800  0.77161600  1
  O  O51  1  0.46594300  0.41323200  0.27161600  1
  O  O52  1  0.22838400  0.53405700  0.91323200  1
  O  O53  1  0.72838400  0.96594300  0.08676800  1
  O  O54  1  0.77161600  0.03405700  0.58676800  1
  O  O55  1  0.27161600  0.46594300  0.41323200  1
  O  O56  1  0.16500700  0.47748900  0.98255000  1
  O  O57  1  0.83499300  0.97748900  0.51745000  1
  O  O58  1  0.33499300  0.52251100  0.48255000  1
  O  O59  1  0.66500700  0.02251100  0.01745000  1
  O  O60  1  0.98255000  0.16500700  0.47748900  1
  O  O61  1  0.51745000  0.83499300  0.97748900  1
  O  O62  1  0.48255000  0.33499300  0.52251100  1
  O  O63  1  0.01745000  0.66500700  0.02251100  1
  O  O64  1  0.47748900  0.98255000  0.16500700  1
  O  O65  1  0.97748900  0.51745000  0.83499300  1
  O  O66  1  0.52251100  0.48255000  0.33499300  1
  O  O67  1  0.02251100  0.01745000  0.66500700  1
  O  O68  1  0.83499300  0.52251100  0.01745000  1
  O  O69  1  0.16500700  0.02251100  0.48255000  1
  O  O70  1  0.66500700  0.47748900  0.51745000  1
  O  O71  1  0.33499300  0.97748900  0.98255000  1
  O  O72  1  0.01745000  0.83499300  0.52251100  1
  O  O73  1  0.48255000  0.16500700  0.02251100  1
  O  O74  1  0.51745000  0.66500700  0.47748900  1
  O  O75  1  0.98255000  0.33499300  0.97748900  1
  O  O76  1  0.52251100  0.01745000  0.83499300  1
  O  O77  1  0.02251100  0.48255000  0.16500700  1
  O  O78  1  0.47748900  0.51745000  0.66500700  1
  O  O79  1  0.97748900  0.98255000  0.33499300  1
loop_
_geom_bond_atom_site_label_1
_geom_bond_atom_site_label_2
_geom_bond_distance
_geom_bond_site_symmetry_2
K0 O51 3.327583 1_555
K0 O40 3.327583 1_555
K0 O46 3.327583 1_555
K0 O39 3.327583 1_554
K0 O34 3.327583 1_554
K0 O52 3.327583 1_554
K1 O47 3.327583 1_555
K1 O54 3.327583 1_555
K1 O36 3.327583 1_555
K1 O35 3.327583 1_545
K1 O42 3.327583 1_545
K1 O48 3.327583 1_545
K2 O55 3.327583 1_555
K2 O32 3.327583 1_555
K2 O50 3.327583 1_555
K2 O38 3.327583 1_455
K2 O43 3.327583 1_455
K2 O44 3.327583 1_455
K3 O37 3.327583 1_545
K3 O33 3.327583 1_455
K3 O41 3.327583 1_554
K3 O49 3.327583 1_454
K3 O53 3.327583 1_445
K3 O45 3.327583 1_544
Al0 O72 1.940327 1_545
Al0 O60 1.940327 1_455
Al0 O69 1.940327 1_555
Al0 O67 1.940327 1_555
Al0 O79 1.940327 1_445
Al0 O57 1.940327 1_445
Al1 O77 1.940327 1_555
Al1 O68 1.940327 1_455
Al1 O56 1.940327 1_554
Al1 O63 1.940327 1_555
Al1 O65 1.940327 1_454
Al1 O75 1.940327 1_454
Al2 O76 1.940327 1_554
Al2 O73 1.940327 1_555
Al2 O64 1.940327 1_545
Al2 O59 1.940327 1_555
Al2 O71 1.940327 1_544
Al2 O61 1.940327 1_544
Al3 O66 1.940327 1_555
Al3 O58 1.940327 1_555
Al3 O62 1.940327 1_555
Al3 O74 1.940327 1_555
Al3 O78 1.940327 1_555
Al3 O70 1.940327 1_555
O0 S0 1.450112 1_555
O1 S1 1.450112 1_555
O2 S2 1.450112 1_555
O3 S3 1.450112 1_555
O4 S4 1.450112 1_555
O5 S5 1.450112 1_555
O6 S6 1.450112 1_555
O7 S7 1.450112 1_555
O8 S0 1.502256 1_555
O9 S1 1.502256 1_555
O10 S2 1.502256 1_555
O11 S3 1.502256 1_555
O12 S2 1.502256 1_555
O13 S0 1.502256 1_555
O14 S1 1.502256 1_555
O15 S3 1.502256 1_555
O16 S1 1.502256 1_555
O17 S2 1.502256 1_555
O18 S0 1.502256 1_555
O19 S3 1.502256 1_555
O20 S4 1.502256 1_555
O21 S5 1.502256 1_555
O22 S6 1.502256 1_555
O23 S7 1.502256 1_555
O24 S6 1.502256 1_555
O25 S4 1.502256 1_555
O26 S5 1.502256 1_555
O27 S7 1.502256 1_555
O28 S5 1.502256 1_555
O29 S6 1.502256 1_555
O30 S4 1.502256 1_555
O31 S7 1.502256 1_555
O32 O72 1.270509 1_555
O33 O75 1.270509 1_554
O34 O73 1.270509 1_556
O35 O74 1.270509 1_555
O36 O76 1.270509 1_555
O37 O79 1.270509 1_455
O38 O77 1.270509 1_655
O39 O78 1.270509 1_555
O40 O68 1.270509 1_555
O41 O71 1.270509 1_545
O42 O69 1.270509 1_565
O43 O70 1.270509 1_555
O44 O60 1.270509 1_555
O45 O63 1.270509 1_556
O46 O61 1.270509 1_554
O47 O62 1.270509 1_555
O48 O64 1.270509 1_555
O49 O67 1.270509 1_655
O50 O65 1.270509 1_455
O51 O66 1.270509 1_555
O52 O56 1.270509 1_555
O53 O59 1.270509 1_565
O54 O57 1.270509 1_545
O55 O58 1.270509 1_555
