# generated using pymatgen
data_La4SnBi2
_symmetry_space_group_name_H-M   'P 1'
_cell_length_a   8.56645831
_cell_length_b   8.56646015
_cell_length_c   8.56645893
_cell_angle_alpha   109.63469168
_cell_angle_beta   109.63469170
_cell_angle_gamma   109.14477670
_symmetry_Int_Tables_number   1
_chemical_formula_structural   La4SnBi2
_chemical_formula_sum   'La8 Sn2 Bi4'
_cell_volume   483.91775088
_cell_formula_units_Z   2
loop_
 _symmetry_equiv_pos_site_id
 _symmetry_equiv_pos_as_xyz
  1  'x, y, z'
loop_
 _atom_site_type_symbol
 _atom_site_label
 _atom_site_symmetry_multiplicity
 _atom_site_fract_x
 _atom_site_fract_y
 _atom_site_fract_z
 _atom_site_occupancy
  La  La0  1  0.98252469  0.36713007  0.24790870  1
  La  La1  1  0.11922237  0.73461600  0.75209230  1
  La  La2  1  0.63077763  0.88286993  0.11539462  1
  La  La3  1  0.76747531  0.51538300  0.88460538  1
  La  La4  1  0.11713007  0.23252469  0.74790770  1
  La  La5  1  0.48461600  0.36922137  0.25209130  1
  La  La6  1  0.63286993  0.88077863  0.61539462  1
  La  La7  1  0.26538400  0.01747631  0.38460538  1
  Sn  Sn0  1  0.75000000  0.25000000  0.50000000  1
  Sn  Sn1  1  -0.00000000  0.00000000  0.00000000  1
  Bi  Bi0  1  0.37500000  0.50301240  0.62801240  1
  Bi  Bi1  1  0.87500000  0.74698760  0.37198760  1
  Bi  Bi2  1  0.49698760  0.12500000  0.87198760  1
  Bi  Bi3  1  0.25301240  0.62500000  0.12801240  1
loop_
_geom_bond_atom_site_label_1
_geom_bond_atom_site_label_2
_geom_bond_distance
_geom_bond_site_symmetry_2
La0 Sn1 3.233794 1_655
La0 Sn0 3.560085 1_555
La0 La2 3.730266 1_545
La0 La1 3.870576 1_655
La0 La3 3.876901 1_554
La1 Sn1 3.233796 1_566
La1 Sn0 3.560087 1_455
La1 La3 3.730266 1_455
La1 La2 3.876891 1_556
La2 Sn0 3.233791 1_565
La2 Sn1 3.560093 1_665
La2 La3 3.870585 1_554
La3 Sn0 3.233791 1_555
La3 Sn1 3.560093 1_666
La4 Sn0 3.233791 1_455
La4 Sn1 3.560093 1_556
La4 La6 3.730265 1_445
La4 La5 3.870578 1_556
La4 La7 3.876898 1_555
La5 Sn0 3.233794 1_555
La5 Sn1 3.560085 1_555
La5 La7 3.730257 1_555
La5 La6 3.876908 1_555
La6 Sn1 3.233794 1_666
La6 Sn0 3.560086 1_565
La6 La7 3.870579 1_565
La7 Sn1 3.233789 1_555
La7 Sn0 3.560084 1_555
Bi0 La0 3.284793 1_455
Bi0 La3 3.284798 1_555
Bi0 La4 3.327244 1_555
Bi0 La6 3.327251 1_555
Bi0 La7 3.580980 1_555
Bi0 La5 3.580988 1_555
Bi0 La1 3.586981 1_555
Bi0 La2 3.586986 1_556
Bi1 La2 3.284798 1_555
Bi1 La1 3.284803 1_655
Bi1 La5 3.327251 1_555
Bi1 La7 3.327254 1_665
Bi1 La4 3.580985 1_665
Bi1 La6 3.580988 1_555
Bi1 La0 3.586986 1_555
Bi1 La3 3.586986 1_554
Bi2 La5 3.284794 1_556
Bi2 La6 3.284794 1_545
Bi2 La3 3.327244 1_555
Bi2 La1 3.327249 1_545
Bi2 La2 3.580985 1_546
Bi2 La0 3.580987 1_556
Bi2 La4 3.586986 1_555
Bi2 La7 3.586988 1_555
Bi3 La4 3.284798 1_554
Bi3 La7 3.284801 1_565
Bi3 La2 3.327244 1_555
Bi3 La0 3.327251 1_455
Bi3 La1 3.580979 1_554
Bi3 La3 3.580984 1_454
Bi3 La6 3.586985 1_555
Bi3 La5 3.586986 1_555
