# generated using pymatgen
data_NaMo3P3O13
_symmetry_space_group_name_H-M   'P 1'
_cell_length_a   6.68194400
_cell_length_b   7.63028700
_cell_length_c   10.90770130
_cell_angle_alpha   80.97996247
_cell_angle_beta   90.00000000
_cell_angle_gamma   90.00000000
_symmetry_Int_Tables_number   1
_chemical_formula_structural   NaMo3P3O13
_chemical_formula_sum   'Na2 Mo6 P6 O26'
_cell_volume   549.25344046
_cell_formula_units_Z   2
loop_
 _symmetry_equiv_pos_site_id
 _symmetry_equiv_pos_as_xyz
  1  'x, y, z'
loop_
 _atom_site_type_symbol
 _atom_site_label
 _atom_site_symmetry_multiplicity
 _atom_site_fract_x
 _atom_site_fract_y
 _atom_site_fract_z
 _atom_site_occupancy
  Na  Na0  1  0.75000000  0.34552200  0.19016000  1
  Na  Na1  1  0.25000000  0.65447800  0.80984000  1
  Mo  Mo0  1  0.25000000  0.64609700  0.20602900  1
  Mo  Mo1  1  0.75000000  0.35390300  0.79397100  1
  Mo  Mo2  1  0.25000000  0.23351000  0.44816700  1
  Mo  Mo3  1  0.50000000  0.00000000  0.00000000  1
  Mo  Mo4  1  0.75000000  0.76649000  0.55183300  1
  Mo  Mo5  1  0.00000000  0.00000000  0.00000000  1
  P  P0  1  0.25000000  0.78380300  0.48745800  1
  P  P1  1  0.75000000  0.21619700  0.51254200  1
  P  P2  1  0.25000000  0.25221900  0.76887000  1
  P  P3  1  0.75000000  0.74778100  0.23113000  1
  P  P4  1  0.75000000  0.68485900  0.88063400  1
  P  P5  1  0.25000000  0.31514100  0.11936600  1
  O  O0  1  0.75000000  0.64417800  0.74290200  1
  O  O1  1  0.56543300  0.25581300  0.42827300  1
  O  O2  1  0.25000000  0.18473700  0.64496800  1
  O  O3  1  0.55667700  0.78354700  0.90280200  1
  O  O4  1  0.75000000  0.35020100  0.60926300  1
  O  O5  1  0.75000000  0.12894500  0.90126900  1
  O  O6  1  0.25000000  0.64979900  0.39073700  1
  O  O7  1  0.05667700  0.21645300  0.09719800  1
  O  O8  1  0.25000000  0.97285200  0.41172800  1
  O  O9  1  0.75000000  0.02714800  0.58827200  1
  O  O10  1  0.06642000  0.36571200  0.79080100  1
  O  O11  1  0.25000000  0.87105500  0.09873100  1
  O  O12  1  0.56642000  0.63428800  0.20919900  1
  O  O13  1  0.75000000  0.48980800  0.94923800  1
  O  O14  1  0.75000000  0.81526300  0.35503200  1
  O  O15  1  0.44332300  0.21645300  0.09719800  1
  O  O16  1  0.93456700  0.25581300  0.42827300  1
  O  O17  1  0.43456700  0.74418700  0.57172700  1
  O  O18  1  0.43358000  0.36571200  0.79080100  1
  O  O19  1  0.25000000  0.35582200  0.25709800  1
  O  O20  1  0.75000000  0.91804600  0.12486200  1
  O  O21  1  0.25000000  0.08195400  0.87513800  1
  O  O22  1  0.93358000  0.63428800  0.20919900  1
  O  O23  1  0.94332300  0.78354700  0.90280200  1
  O  O24  1  0.06543300  0.74418700  0.57172700  1
  O  O25  1  0.25000000  0.51019200  0.05076200  1
loop_
_geom_bond_atom_site_label_1
_geom_bond_atom_site_label_2
_geom_bond_distance
_geom_bond_site_symmetry_2
Na0 O15 2.551556 1_555
Na0 O7 2.551556 1_655
Na0 O12 2.558546 1_555
Na0 O22 2.558546 1_555
Na0 O13 2.685289 1_554
Na0 O16 2.859689 1_555
Na0 O1 2.859689 1_555
Na1 O3 2.551556 1_555
Na1 O23 2.551556 1_455
Na1 O10 2.558546 1_555
Na1 O18 2.558546 1_555
Na1 O25 2.685289 1_556
Na1 O17 2.859689 1_555
Na1 O24 2.859689 1_555
Mo0 O11 1.919949 1_555
Mo0 O6 2.019361 1_555
Mo0 O12 2.116272 1_555
Mo0 O22 2.116272 1_455
Mo0 O25 2.119988 1_555
Mo0 O19 2.197529 1_555
Mo1 O5 1.919949 1_555
Mo1 O4 2.019361 1_555
Mo1 O10 2.116272 1_655
Mo1 O18 2.116272 1_555
Mo1 O13 2.119988 1_555
Mo1 O0 2.197529 1_555
Mo2 O8 2.088434 1_545
Mo2 O2 2.120399 1_555
Mo2 O16 2.122944 1_455
Mo2 O1 2.122944 1_555
Mo2 O19 2.145852 1_555
Mo3 O15 2.131735 1_555
Mo3 O3 2.131735 1_544
Mo3 O11 2.141516 1_545
Mo3 O5 2.141516 1_554
Mo3 O20 2.183905 1_545
Mo3 O21 2.183905 1_554
Mo4 O9 2.088434 1_565
Mo4 O14 2.120399 1_555
Mo4 O17 2.122944 1_555
Mo4 O24 2.122944 1_655
Mo4 O0 2.145852 1_555
Mo5 O23 2.131735 1_444
Mo5 O7 2.131735 1_555
Mo5 O5 2.141516 1_454
Mo5 O11 2.141516 1_545
Mo5 O20 2.183905 1_445
Mo5 O21 2.183905 1_554
O0 P4 1.581013 1_555
O1 P1 1.539510 1_555
O2 P2 1.519818 1_555
O3 P4 1.533387 1_555
O4 P1 1.580115 1_555
O6 P0 1.580115 1_555
O7 P5 1.533387 1_555
O8 P0 1.545806 1_555
O9 P1 1.545806 1_555
O10 P2 1.541698 1_555
O12 P3 1.541698 1_555
O13 P4 1.557491 1_555
O14 P3 1.519818 1_555
O15 P5 1.533387 1_555
O16 P1 1.539510 1_555
O17 P0 1.539510 1_555
O18 P2 1.541698 1_555
O19 P5 1.581013 1_555
O20 P3 1.599767 1_555
O21 P2 1.599767 1_555
O22 P3 1.541698 1_555
O23 P4 1.533387 1_555
O24 P0 1.539510 1_555
O25 P5 1.557491 1_555
