# generated using pymatgen
data_KLiY2(MoO4)4
_symmetry_space_group_name_H-M   'P 1'
_cell_length_a   6.92507184
_cell_length_b   6.92507184
_cell_length_c   19.63667590
_cell_angle_alpha   88.83394483
_cell_angle_beta   88.83394483
_cell_angle_gamma   135.12971952
_symmetry_Int_Tables_number   1
_chemical_formula_structural   KLiY2(MoO4)4
_chemical_formula_sum   'K2 Li2 Y4 Mo8 O32'
_cell_volume   663.43403494
_cell_formula_units_Z   2
loop_
 _symmetry_equiv_pos_site_id
 _symmetry_equiv_pos_as_xyz
  1  'x, y, z'
loop_
 _atom_site_type_symbol
 _atom_site_label
 _atom_site_symmetry_multiplicity
 _atom_site_fract_x
 _atom_site_fract_y
 _atom_site_fract_z
 _atom_site_occupancy
  K  K0  1  0.53104300  0.46895700  0.75000000  1
  K  K1  1  0.46895700  0.53104300  0.25000000  1
  Li  Li0  1  0.81369200  0.18630800  0.75000000  1
  Li  Li1  1  0.18630800  0.81369200  0.25000000  1
  Y  Y0  1  0.64743700  0.35349600  0.53262100  1
  Y  Y1  1  0.35256300  0.64650400  0.46737900  1
  Y  Y2  1  0.64650400  0.35256300  0.96737900  1
  Y  Y3  1  0.35349600  0.64743700  0.03262100  1
  Mo  Mo0  1  0.91825000  0.04312600  0.59158700  1
  Mo  Mo1  1  0.08175000  0.95687400  0.40841300  1
  Mo  Mo2  1  0.95687400  0.08175000  0.90841300  1
  Mo  Mo3  1  0.04312600  0.91825000  0.09158700  1
  Mo  Mo4  1  0.23207600  0.74739500  0.64801400  1
  Mo  Mo5  1  0.76792400  0.25260500  0.35198600  1
  Mo  Mo6  1  0.25260500  0.76792400  0.85198600  1
  Mo  Mo7  1  0.74739500  0.23207600  0.14801400  1
  O  O0  1  0.66680200  0.00698100  0.54232400  1
  O  O1  1  0.33319800  0.99301900  0.45767600  1
  O  O2  1  0.99301900  0.33319800  0.95767600  1
  O  O3  1  0.00698100  0.66680200  0.04232400  1
  O  O4  1  0.48944800  0.76797800  0.67338100  1
  O  O5  1  0.51055200  0.23202200  0.32661900  1
  O  O6  1  0.23202200  0.51055200  0.82661900  1
  O  O7  1  0.76797800  0.48944800  0.17338100  1
  O  O8  1  0.72226200  0.76131900  0.96270400  1
  O  O9  1  0.27773800  0.23868100  0.03729600  1
  O  O10  1  0.23868100  0.27773800  0.53729600  1
  O  O11  1  0.76131900  0.72226200  0.46270400  1
  O  O12  1  0.43609900  0.91664900  0.93340300  1
  O  O13  1  0.56390100  0.08335100  0.06659700  1
  O  O14  1  0.08335100  0.56390100  0.56659700  1
  O  O15  1  0.91664900  0.43609900  0.43340300  1
  O  O16  1  0.80064900  0.98379000  0.82940300  1
  O  O17  1  0.19935100  0.01621000  0.17059700  1
  O  O18  1  0.01621000  0.19935100  0.67059700  1
  O  O19  1  0.98379000  0.80064900  0.32940300  1
  O  O20  1  0.72113400  0.81158600  0.10154000  1
  O  O21  1  0.27886600  0.18841400  0.89846000  1
  O  O22  1  0.18841400  0.27886600  0.39846000  1
  O  O23  1  0.81158600  0.72113400  0.60154000  1
  O  O24  1  0.39964400  0.09794000  0.63247600  1
  O  O25  1  0.60035600  0.90206000  0.36752400  1
  O  O26  1  0.90206000  0.60035600  0.86752400  1
  O  O27  1  0.09794000  0.39964400  0.13247600  1
  O  O28  1  0.43556900  0.02874700  0.78616700  1
  O  O29  1  0.56443100  0.97125300  0.21383300  1
  O  O30  1  0.97125300  0.56443100  0.71383300  1
  O  O31  1  0.02874700  0.43556900  0.28616700  1
loop_
_geom_bond_atom_site_label_1
_geom_bond_atom_site_label_2
_geom_bond_distance
_geom_bond_site_symmetry_2
K0 O28 2.696423 1_555
K0 O30 2.696423 1_555
K0 O6 2.714936 1_555
K0 O4 2.714936 1_555
K0 O18 3.088332 1_555
K0 O16 3.088332 1_555
K0 O26 3.125416 1_555
K0 O24 3.125416 1_555
K0 O23 3.174302 1_555
K0 O21 3.174302 1_555
K1 O31 2.696423 1_555
K1 O29 2.696423 1_555
K1 O5 2.714936 1_555
K1 O7 2.714936 1_555
K1 O19 3.088332 1_555
K1 O17 3.088332 1_555
K1 O27 3.125416 1_555
K1 O25 3.125416 1_555
K1 O20 3.174302 1_555
K1 O22 3.174302 1_555
Li0 O16 2.032704 1_545
Li0 O18 2.032704 1_655
Li0 O30 2.096345 1_555
Li0 O28 2.096345 1_555
Li1 O19 2.032704 1_455
Li1 O17 2.032704 1_565
Li1 O31 2.096345 1_555
Li1 O29 2.096345 1_555
Mo0 O18 1.763140 1_655
Mo0 O23 1.788215 1_545
Mo0 O10 1.850227 1_655
Mo0 O0 1.868468 1_555
Mo1 O19 1.763140 1_455
Mo1 O22 1.788215 1_565
Mo1 O11 1.850227 1_455
Mo1 O1 1.868468 1_555
Mo2 O16 1.763140 1_545
Mo2 O21 1.788215 1_655
Mo2 O8 1.850227 1_545
Mo2 O2 1.868468 1_555
Mo3 O17 1.763140 1_565
Mo3 O20 1.788215 1_455
Mo3 O9 1.850227 1_565
Mo3 O3 1.868468 1_555
Mo4 O4 1.767495 1_555
Mo4 O30 1.769972 1_455
Mo4 O24 1.815294 1_565
Mo4 O14 1.877809 1_555
Mo5 O5 1.767495 1_555
Mo5 O31 1.769972 1_655
Mo5 O25 1.815294 1_545
Mo5 O15 1.877809 1_555
Mo6 O6 1.767495 1_555
Mo6 O28 1.769972 1_565
Mo6 O26 1.815294 1_455
Mo6 O12 1.877809 1_555
Mo7 O7 1.767495 1_555
Mo7 O29 1.769972 1_545
Mo7 O27 1.815294 1_655
Mo7 O13 1.877809 1_555
O0 Y1 2.390193 1_545
O0 Y0 2.500224 1_555
O1 Y0 2.390193 1_565
O1 Y1 2.500224 1_555
O2 Y3 2.390193 1_656
O2 Y2 2.500224 1_555
O3 Y2 2.390193 1_454
O3 Y3 2.500224 1_555
O8 Y3 2.446845 1_556
O8 Y2 2.485732 1_555
O9 Y2 2.446845 1_554
O9 Y3 2.485732 1_555
O10 Y1 2.446845 1_555
O10 Y0 2.485732 1_555
O11 Y0 2.446845 1_555
O11 Y1 2.485732 1_555
O12 Y2 2.359657 1_565
O12 Y3 2.427759 1_556
O13 Y3 2.359657 1_545
O13 Y2 2.427759 1_554
O14 Y0 2.359657 1_455
O14 Y1 2.427759 1_555
O15 Y1 2.359657 1_655
O15 Y0 2.427759 1_555
O20 Y3 2.388764 1_555
O21 Y2 2.388764 1_555
O22 Y1 2.388764 1_555
O23 Y0 2.388764 1_555
O24 Y0 2.310576 1_555
O25 Y1 2.310576 1_555
O26 Y2 2.310576 1_555
O27 Y3 2.310576 1_555
