# generated using pymatgen
data_TmB2Ir3
_symmetry_space_group_name_H-M   'P 1'
_cell_length_a   10.82672336
_cell_length_b   10.82672336
_cell_length_c   6.28154946
_cell_angle_alpha   90.00000000
_cell_angle_beta   90.00000000
_cell_angle_gamma   120.00000906
_symmetry_Int_Tables_number   1
_chemical_formula_structural   TmB2Ir3
_chemical_formula_sum   'Tm8 B16 Ir24'
_cell_volume   637.66334934
_cell_formula_units_Z   8
loop_
 _symmetry_equiv_pos_site_id
 _symmetry_equiv_pos_as_xyz
  1  'x, y, z'
loop_
 _atom_site_type_symbol
 _atom_site_label
 _atom_site_symmetry_multiplicity
 _atom_site_fract_x
 _atom_site_fract_y
 _atom_site_fract_z
 _atom_site_occupancy
  Tm  Tm0_0  1  0.00000000  0.00000000  0.25000000  1
  Tm  Tm0_1  1  0.00000000  0.00000000  0.75000000  1
  Tm  Tm0_2  1  0.00000000  0.50000000  0.25000000  1
  Tm  Tm0_3  1  0.00000000  0.50000000  0.75000000  1
  Tm  Tm0_4  1  0.50000000  0.00000000  0.25000000  1
  Tm  Tm0_5  1  0.50000000  0.00000000  0.75000000  1
  Tm  Tm0_6  1  0.50000000  0.50000000  0.25000000  1
  Tm  Tm0_7  1  0.50000000  0.50000000  0.75000000  1
  B  B0_0  1  0.33333350  0.16666650  0.25000000  1
  B  B0_1  1  0.33333350  0.16666650  0.75000000  1
  B  B0_2  1  0.33333350  0.66666650  0.25000000  1
  B  B0_3  1  0.33333350  0.66666650  0.75000000  1
  B  B0_4  1  0.83333350  0.16666650  0.25000000  1
  B  B0_5  1  0.83333350  0.16666650  0.75000000  1
  B  B0_6  1  0.83333350  0.66666650  0.25000000  1
  B  B0_7  1  0.83333350  0.66666650  0.75000000  1
  B  B1_0  1  0.16666650  0.33333350  0.25000000  1
  B  B1_1  1  0.16666650  0.33333350  0.75000000  1
  B  B1_2  1  0.16666650  0.83333350  0.25000000  1
  B  B1_3  1  0.16666650  0.83333350  0.75000000  1
  B  B1_4  1  0.66666650  0.33333350  0.25000000  1
  B  B1_5  1  0.66666650  0.33333350  0.75000000  1
  B  B1_6  1  0.66666650  0.83333350  0.25000000  1
  B  B1_7  1  0.66666650  0.83333350  0.75000000  1
  Ir  Ir0_0  1  0.25000000  0.00000000  0.00000000  1
  Ir  Ir0_1  1  0.25000000  0.00000000  0.50000000  1
  Ir  Ir0_2  1  0.25000000  0.50000000  0.00000000  1
  Ir  Ir0_3  1  0.25000000  0.50000000  0.50000000  1
  Ir  Ir0_4  1  0.75000000  0.00000000  0.00000000  1
  Ir  Ir0_5  1  0.75000000  0.00000000  0.50000000  1
  Ir  Ir0_6  1  0.75000000  0.50000000  0.00000000  1
  Ir  Ir0_7  1  0.75000000  0.50000000  0.50000000  1
  Ir  Ir1_0  1  0.25000000  0.25000000  0.00000000  1
  Ir  Ir1_1  1  0.25000000  0.25000000  0.50000000  1
  Ir  Ir1_2  1  0.25000000  0.75000000  0.00000000  1
  Ir  Ir1_3  1  0.25000000  0.75000000  0.50000000  1
  Ir  Ir1_4  1  0.75000000  0.25000000  0.00000000  1
  Ir  Ir1_5  1  0.75000000  0.25000000  0.50000000  1
  Ir  Ir1_6  1  0.75000000  0.75000000  0.00000000  1
  Ir  Ir1_7  1  0.75000000  0.75000000  0.50000000  1
  Ir  Ir2_0  1  0.00000000  0.25000000  0.00000000  1
  Ir  Ir2_1  1  0.00000000  0.25000000  0.50000000  1
  Ir  Ir2_2  1  0.00000000  0.75000000  0.00000000  1
  Ir  Ir2_3  1  0.00000000  0.75000000  0.50000000  1
  Ir  Ir2_4  1  0.50000000  0.25000000  0.00000000  1
  Ir  Ir2_5  1  0.50000000  0.25000000  0.50000000  1
  Ir  Ir2_6  1  0.50000000  0.75000000  0.00000000  1
  Ir  Ir2_7  1  0.50000000  0.75000000  0.50000000  1
loop_
_geom_bond_atom_site_label_1
_geom_bond_atom_site_label_2
_geom_bond_distance
_geom_bond_site_symmetry_2
Tm0_0 Tm0_1 3.140775 1_555
Tm0_0 Tm0_1 3.140775 1_554
Tm0_2 Tm0_3 3.140775 1_555
Tm0_2 Tm0_3 3.140775 1_554
Tm0_4 Tm0_5 3.140775 1_555
Tm0_4 Tm0_5 3.140775 1_554
Tm0_6 Tm0_7 3.140775 1_555
Tm0_6 Tm0_7 3.140775 1_554
B0_0 Ir2_5 2.215435 1_555
B0_0 Ir0_1 2.215435 1_555
B0_0 Ir0_0 2.215435 1_555
B0_0 Ir2_4 2.215435 1_555
B0_0 Ir1_1 2.215438 1_555
B0_0 Ir1_0 2.215438 1_555
B0_0 Tm0_4 3.125403 1_555
B0_0 Tm0_0 3.125407 1_555
B0_0 Tm0_6 3.125407 1_555
B0_1 Ir2_5 2.215435 1_555
B0_1 Ir0_1 2.215435 1_555
B0_1 Ir0_0 2.215435 1_556
B0_1 Ir2_4 2.215435 1_556
B0_1 Ir1_1 2.215438 1_555
B0_1 Ir1_0 2.215438 1_556
B0_1 Tm0_5 3.125403 1_555
B0_1 Tm0_1 3.125407 1_555
B0_1 Tm0_7 3.125407 1_555
B0_2 Ir0_3 2.215435 1_555
B0_2 Ir2_6 2.215435 1_555
B0_2 Ir0_2 2.215435 1_555
B0_2 Ir2_7 2.215435 1_555
B0_2 Ir1_2 2.215438 1_555
B0_2 Ir1_3 2.215438 1_555
B0_2 Tm0_6 3.125403 1_555
B0_2 Tm0_4 3.125407 1_565
B0_2 Tm0_2 3.125407 1_555
B0_3 Ir0_3 2.215435 1_555
B0_3 Ir2_7 2.215435 1_555
B0_3 Ir0_2 2.215435 1_556
B0_3 Ir2_6 2.215435 1_556
B0_3 Ir1_3 2.215438 1_555
B0_3 Ir1_2 2.215438 1_556
B0_3 Tm0_7 3.125403 1_555
B0_3 Tm0_5 3.125407 1_565
B0_3 Tm0_3 3.125407 1_555
B0_4 Ir0_4 2.215435 1_555
B0_4 Ir0_5 2.215435 1_555
B0_4 Ir2_0 2.215435 1_655
B0_4 Ir2_1 2.215435 1_655
B0_4 Ir1_4 2.215438 1_555
B0_4 Ir1_5 2.215438 1_555
B0_4 Tm0_0 3.125403 1_655
B0_4 Tm0_4 3.125407 1_555
B0_4 Tm0_2 3.125407 1_655
B0_5 Ir0_5 2.215435 1_555
B0_5 Ir2_1 2.215435 1_655
B0_5 Ir0_4 2.215435 1_556
B0_5 Ir2_0 2.215435 1_656
B0_5 Ir1_5 2.215438 1_555
B0_5 Ir1_4 2.215438 1_556
B0_5 Tm0_1 3.125403 1_655
B0_5 Tm0_5 3.125407 1_555
B0_5 Tm0_3 3.125407 1_655
B0_6 Ir0_6 2.215435 1_555
B0_6 Ir2_3 2.215435 1_655
B0_6 Ir0_7 2.215435 1_555
B0_6 Ir2_2 2.215435 1_655
B0_6 Ir1_6 2.215438 1_555
B0_6 Ir1_7 2.215438 1_555
B0_6 Tm0_2 3.125403 1_655
B0_6 Tm0_6 3.125407 1_555
B0_6 Tm0_0 3.125407 1_665
B0_7 Ir2_3 2.215435 1_655
B0_7 Ir0_7 2.215435 1_555
B0_7 Ir0_6 2.215435 1_556
B0_7 Ir2_2 2.215435 1_656
B0_7 Ir1_7 2.215438 1_555
B0_7 Ir1_6 2.215438 1_556
B0_7 Tm0_3 3.125403 1_655
B0_7 Tm0_1 3.125407 1_665
B0_7 Tm0_7 3.125407 1_555
B1_0 Ir0_2 2.215435 1_555
B1_0 Ir0_3 2.215435 1_555
B1_0 Ir2_1 2.215435 1_555
B1_0 Ir2_0 2.215435 1_555
B1_0 Ir1_1 2.215438 1_555
B1_0 Ir1_0 2.215438 1_555
B1_0 Tm0_2 3.125403 1_555
B1_0 Tm0_0 3.125407 1_555
B1_0 Tm0_6 3.125407 1_555
B1_1 Ir0_3 2.215435 1_555
B1_1 Ir2_1 2.215435 1_555
B1_1 Ir2_0 2.215435 1_556
B1_1 Ir0_2 2.215435 1_556
B1_1 Ir1_1 2.215438 1_555
B1_1 Ir1_0 2.215438 1_556
B1_1 Tm0_3 3.125403 1_555
B1_1 Tm0_7 3.125407 1_555
B1_1 Tm0_1 3.125407 1_555
B1_2 Ir2_3 2.215435 1_555
B1_2 Ir2_2 2.215435 1_555
B1_2 Ir0_1 2.215435 1_565
B1_2 Ir0_0 2.215435 1_565
B1_2 Ir1_3 2.215438 1_555
B1_2 Ir1_2 2.215438 1_555
B1_2 Tm0_0 3.125403 1_565
B1_2 Tm0_4 3.125407 1_565
B1_2 Tm0_2 3.125407 1_555
B1_3 Ir0_1 2.215435 1_565
B1_3 Ir2_3 2.215435 1_555
B1_3 Ir0_0 2.215435 1_566
B1_3 Ir2_2 2.215435 1_556
B1_3 Ir1_3 2.215438 1_555
B1_3 Ir1_2 2.215438 1_556
B1_3 Tm0_1 3.125403 1_565
B1_3 Tm0_5 3.125407 1_565
B1_3 Tm0_3 3.125407 1_555
B1_4 Ir0_7 2.215435 1_555
B1_4 Ir0_6 2.215435 1_555
B1_4 Ir2_4 2.215435 1_555
B1_4 Ir2_5 2.215435 1_555
B1_4 Ir1_4 2.215438 1_555
B1_4 Ir1_5 2.215438 1_555
B1_4 Tm0_6 3.125403 1_555
B1_4 Tm0_2 3.125407 1_655
B1_4 Tm0_4 3.125407 1_555
B1_5 Ir0_7 2.215435 1_555
B1_5 Ir2_5 2.215435 1_555
B1_5 Ir0_6 2.215435 1_556
B1_5 Ir2_4 2.215435 1_556
B1_5 Ir1_5 2.215438 1_555
B1_5 Ir1_4 2.215438 1_556
B1_5 Tm0_7 3.125403 1_555
B1_5 Tm0_3 3.125407 1_655
B1_5 Tm0_5 3.125407 1_555
B1_6 Ir0_5 2.215435 1_565
B1_6 Ir2_6 2.215435 1_555
B1_6 Ir2_7 2.215435 1_555
B1_6 Ir0_4 2.215435 1_565
B1_6 Ir1_6 2.215438 1_555
B1_6 Ir1_7 2.215438 1_555
B1_6 Tm0_4 3.125403 1_565
B1_6 Tm0_0 3.125407 1_665
B1_6 Tm0_6 3.125407 1_555
B1_7 Ir0_5 2.215435 1_565
B1_7 Ir2_7 2.215435 1_555
B1_7 Ir0_4 2.215435 1_566
B1_7 Ir2_6 2.215435 1_556
B1_7 Ir1_7 2.215438 1_555
B1_7 Ir1_6 2.215438 1_556
B1_7 Tm0_5 3.125403 1_565
B1_7 Tm0_1 3.125407 1_665
B1_7 Tm0_7 3.125407 1_555
Ir0_0 Tm0_1 3.129255 1_554
Ir0_0 Tm0_5 3.129255 1_554
Ir0_0 Tm0_4 3.129255 1_555
Ir0_0 Tm0_0 3.129255 1_555
Ir0_1 Tm0_1 3.129255 1_555
Ir0_1 Tm0_5 3.129255 1_555
Ir0_1 Tm0_4 3.129255 1_555
Ir0_1 Tm0_0 3.129255 1_555
Ir0_2 Tm0_2 3.129255 1_555
Ir0_2 Tm0_7 3.129255 1_554
Ir0_2 Tm0_6 3.129255 1_555
Ir0_2 Tm0_3 3.129255 1_554
Ir0_3 Tm0_7 3.129255 1_555
Ir0_3 Tm0_3 3.129255 1_555
Ir0_3 Tm0_6 3.129255 1_555
Ir0_3 Tm0_2 3.129255 1_555
Ir0_4 Tm0_0 3.129255 1_655
Ir0_4 Tm0_1 3.129255 1_654
Ir0_4 Tm0_5 3.129255 1_554
Ir0_4 Tm0_4 3.129255 1_555
Ir0_5 Tm0_1 3.129255 1_655
Ir0_5 Tm0_5 3.129255 1_555
Ir0_5 Tm0_0 3.129255 1_655
Ir0_5 Tm0_4 3.129255 1_555
Ir0_6 Tm0_2 3.129255 1_655
Ir0_6 Tm0_7 3.129255 1_554
Ir0_6 Tm0_6 3.129255 1_555
Ir0_6 Tm0_3 3.129255 1_654
Ir0_7 Tm0_7 3.129255 1_555
Ir0_7 Tm0_3 3.129255 1_655
Ir0_7 Tm0_2 3.129255 1_655
Ir0_7 Tm0_6 3.129255 1_555
Ir1_0 Tm0_6 3.129255 1_555
Ir1_0 Tm0_0 3.129255 1_555
Ir1_0 Tm0_7 3.129255 1_554
Ir1_0 Tm0_1 3.129255 1_554
Ir1_1 Tm0_6 3.129255 1_555
Ir1_1 Tm0_7 3.129255 1_555
Ir1_1 Tm0_1 3.129255 1_555
Ir1_1 Tm0_0 3.129255 1_555
Ir1_2 Tm0_4 3.129255 1_565
Ir1_2 Tm0_2 3.129255 1_555
Ir1_2 Tm0_3 3.129255 1_554
Ir1_2 Tm0_5 3.129255 1_564
Ir1_3 Tm0_3 3.129255 1_555
Ir1_3 Tm0_4 3.129255 1_565
Ir1_3 Tm0_5 3.129255 1_565
Ir1_3 Tm0_2 3.129255 1_555
Ir1_4 Tm0_4 3.129255 1_555
Ir1_4 Tm0_2 3.129255 1_655
Ir1_4 Tm0_5 3.129255 1_554
Ir1_4 Tm0_3 3.129255 1_654
Ir1_5 Tm0_5 3.129255 1_555
Ir1_5 Tm0_4 3.129255 1_555
Ir1_5 Tm0_2 3.129255 1_655
Ir1_5 Tm0_3 3.129255 1_655
Ir1_6 Tm0_6 3.129255 1_555
Ir1_6 Tm0_0 3.129255 1_665
Ir1_6 Tm0_7 3.129255 1_554
Ir1_6 Tm0_1 3.129255 1_664
Ir1_7 Tm0_6 3.129255 1_555
Ir1_7 Tm0_1 3.129255 1_665
Ir1_7 Tm0_7 3.129255 1_555
Ir1_7 Tm0_0 3.129255 1_665
Ir2_0 Tm0_2 3.129255 1_555
Ir2_0 Tm0_1 3.129255 1_554
Ir2_0 Tm0_0 3.129255 1_555
Ir2_0 Tm0_3 3.129255 1_554
Ir2_1 Tm0_1 3.129255 1_555
Ir2_1 Tm0_3 3.129255 1_555
Ir2_1 Tm0_0 3.129255 1_555
Ir2_1 Tm0_2 3.129255 1_555
Ir2_2 Tm0_1 3.129255 1_564
Ir2_2 Tm0_2 3.129255 1_555
Ir2_2 Tm0_0 3.129255 1_565
Ir2_2 Tm0_3 3.129255 1_554
Ir2_3 Tm0_1 3.129255 1_565
Ir2_3 Tm0_3 3.129255 1_555
Ir2_3 Tm0_0 3.129255 1_565
Ir2_3 Tm0_2 3.129255 1_555
Ir2_4 Tm0_7 3.129255 1_554
Ir2_4 Tm0_6 3.129255 1_555
Ir2_4 Tm0_5 3.129255 1_554
Ir2_4 Tm0_4 3.129255 1_555
Ir2_5 Tm0_5 3.129255 1_555
Ir2_5 Tm0_7 3.129255 1_555
Ir2_5 Tm0_6 3.129255 1_555
Ir2_5 Tm0_4 3.129255 1_555
Ir2_6 Tm0_7 3.129255 1_554
Ir2_6 Tm0_6 3.129255 1_555
Ir2_6 Tm0_4 3.129255 1_565
Ir2_6 Tm0_5 3.129255 1_564
Ir2_7 Tm0_5 3.129255 1_565
Ir2_7 Tm0_7 3.129255 1_555
Ir2_7 Tm0_6 3.129255 1_555
Ir2_7 Tm0_4 3.129255 1_565
