# generated using pymatgen
data_U2NiSb4
_symmetry_space_group_name_H-M   'P 1'
_cell_length_a   4.34819701
_cell_length_b   4.34866994
_cell_length_c   9.27283135
_cell_angle_alpha   90.00000000
_cell_angle_beta   90.00000000
_cell_angle_gamma   90.00000000
_symmetry_Int_Tables_number   1
_chemical_formula_structural   U2NiSb4
_chemical_formula_sum   'U2 Ni1 Sb4'
_cell_volume   175.33879619
_cell_formula_units_Z   1
loop_
 _symmetry_equiv_pos_site_id
 _symmetry_equiv_pos_as_xyz
  1  'x, y, z'
loop_
 _atom_site_type_symbol
 _atom_site_label
 _atom_site_symmetry_multiplicity
 _atom_site_fract_x
 _atom_site_fract_y
 _atom_site_fract_z
 _atom_site_occupancy
  U  U0  1  0.50000000  0.00000000  0.23224246  1
  U  U1  1  -0.00000000  0.50000000  0.76776651  1
  Ni  Ni0  1  0.00000000  0.00000000  -0.00012378  1
  Sb  Sb0  1  -0.00000000  0.00000000  0.50001163  1
  Sb  Sb1  1  0.50000000  0.50000000  0.49999085  1
  Sb  Sb2  1  0.50000000  0.00000000  0.86312896  1
  Sb  Sb3  1  -0.00000000  0.50000000  0.13698336  1
loop_
_geom_bond_atom_site_label_1
_geom_bond_atom_site_label_2
_geom_bond_distance
_geom_bond_site_symmetry_2
Ni0 Sb2 2.516866 1_554
Ni0 Sb2 2.516866 1_454
Ni0 Sb3 2.518753 1_545
Ni0 Sb3 2.518753 1_555
Ni0 U1 3.059443 1_544
Ni0 U1 3.059443 1_554
Ni0 U0 3.060949 1_555
Ni0 U0 3.060949 1_455
Sb0 Sb1 3.074807 1_545
Sb0 Sb1 3.074807 1_445
Sb0 Sb1 3.074807 1_455
Sb0 Sb1 3.074807 1_555
Sb0 U0 3.300286 1_555
Sb0 U0 3.300286 1_455
Sb0 U1 3.300342 1_545
Sb0 U1 3.300342 1_555
Sb1 U0 3.300297 1_565
Sb1 U0 3.300297 1_555
Sb1 U1 3.300331 1_555
Sb1 U1 3.300331 1_655
Sb2 U1 3.199436 1_645
Sb2 U1 3.199436 1_545
Sb2 U1 3.199436 1_555
Sb2 U1 3.199436 1_655
Sb2 U0 3.422727 1_556
Sb3 U0 3.199171 1_455
Sb3 U0 3.199171 1_465
Sb3 U0 3.199171 1_565
Sb3 U0 3.199171 1_555
Sb3 U1 3.423686 1_554
