# generated using pymatgen
data_CsAlH2
_symmetry_space_group_name_H-M   'P 1'
_cell_length_a   6.83927900
_cell_length_b   6.83927900
_cell_length_c   8.27983029
_cell_angle_alpha   114.39395492
_cell_angle_beta   114.39395492
_cell_angle_gamma   90.00000000
_symmetry_Int_Tables_number   1
_chemical_formula_structural   CsAlH2
_chemical_formula_sum   'Cs4 Al4 H8'
_cell_volume   314.36541661
_cell_formula_units_Z   4
loop_
 _symmetry_equiv_pos_site_id
 _symmetry_equiv_pos_as_xyz
  1  'x, y, z'
loop_
 _atom_site_type_symbol
 _atom_site_label
 _atom_site_symmetry_multiplicity
 _atom_site_fract_x
 _atom_site_fract_y
 _atom_site_fract_z
 _atom_site_occupancy
  Cs  Cs0  1  0.62500000  0.87500000  0.25000000  1
  Cs  Cs1  1  0.62500000  0.37500000  0.25000000  1
  Cs  Cs2  1  0.62500000  0.37500000  0.75000000  1
  Cs  Cs3  1  0.12500000  0.37500000  0.75000000  1
  Al  Al0  1  0.12500000  0.37500000  0.25000000  1
  Al  Al1  1  0.12500000  0.87500000  0.25000000  1
  Al  Al2  1  0.12500000  0.87500000  0.75000000  1
  Al  Al3  1  0.62500000  0.87500000  0.75000000  1
  H  H0  1  0.31030900  0.15965100  0.31149200  1
  H  H1  1  0.00118300  0.15184100  0.31149200  1
  H  H2  1  0.40184100  0.06030900  0.81149200  1
  H  H3  1  0.93969100  0.59034900  0.18850800  1
  H  H4  1  0.40965100  0.75118300  0.81149200  1
  H  H5  1  0.24881700  0.59815900  0.18850800  1
  H  H6  1  0.84815900  0.68969100  0.68850800  1
  H  H7  1  0.84034900  0.99881700  0.68850800  1
loop_
_geom_bond_atom_site_label_1
_geom_bond_atom_site_label_2
_geom_bond_distance
_geom_bond_site_symmetry_2
Cs0 H1 2.930060 1_665
Cs0 H5 2.930060 1_555
Cs0 H3 2.961066 1_555
Cs0 H0 2.961066 1_565
Cs0 H4 3.018613 1_554
Cs0 H7 3.018613 1_555
Cs1 H0 2.930060 1_555
Cs1 H3 2.930060 1_555
Cs1 H1 2.961066 1_655
Cs1 H5 2.961066 1_555
Cs1 H6 3.018613 1_555
Cs1 H2 3.018613 1_554
Cs2 H4 2.930060 1_555
Cs2 H7 2.930060 1_545
Cs2 H6 2.961066 1_555
Cs2 H2 2.961066 1_555
Cs2 H3 3.018613 1_556
Cs2 H0 3.018613 1_555
Cs3 H6 2.930060 1_455
Cs3 H2 2.930060 1_555
Cs3 H4 2.961066 1_555
Cs3 H7 2.961066 1_445
Cs3 H5 3.018613 1_556
Cs3 H1 3.018613 1_555
Al0 H0 2.030054 1_555
Al0 H3 2.030054 1_455
Al0 H1 2.074555 1_555
Al0 H5 2.074555 1_555
Al1 H5 2.030054 1_555
Al1 H1 2.030054 1_565
Al1 H3 2.074555 1_455
Al1 H0 2.074555 1_565
Al2 H2 2.030054 1_565
Al2 H6 2.030054 1_455
Al2 H7 2.074555 1_455
Al2 H4 2.074555 1_555
Al3 H7 2.030054 1_555
Al3 H4 2.030054 1_555
Al3 H2 2.074555 1_565
Al3 H6 2.074555 1_555
