# generated using pymatgen
data_Ti4Zn3SnO12
_symmetry_space_group_name_H-M   'P 1'
_cell_length_a   6.54587726
_cell_length_b   6.54587726
_cell_length_c   6.54587726
_cell_angle_alpha   109.47122063
_cell_angle_beta   109.47122063
_cell_angle_gamma   109.47122063
_symmetry_Int_Tables_number   1
_chemical_formula_structural   Ti4Zn3SnO12
_chemical_formula_sum   'Ti4 Zn3 Sn1 O12'
_cell_volume   215.91443742
_cell_formula_units_Z   1
loop_
 _symmetry_equiv_pos_site_id
 _symmetry_equiv_pos_as_xyz
  1  'x, y, z'
loop_
 _atom_site_type_symbol
 _atom_site_label
 _atom_site_symmetry_multiplicity
 _atom_site_fract_x
 _atom_site_fract_y
 _atom_site_fract_z
 _atom_site_occupancy
  Ti  Ti0  1  0.50000000  0.50000000  0.50000000  1
  Ti  Ti1  1  0.50000000  0.00000000  0.00000000  1
  Ti  Ti2  1  0.00000000  0.00000000  0.50000000  1
  Ti  Ti3  1  0.00000000  0.50000000  0.00000000  1
  Zn  Zn0  1  0.00000000  0.50000000  0.50000000  1
  Zn  Zn1  1  0.50000000  0.50000000  0.00000000  1
  Zn  Zn2  1  0.50000000  0.00000000  0.50000000  1
  Sn  Sn0  1  0.00000000  0.00000000  0.00000000  1
  O  O0  1  0.48992500  0.30268700  0.18723800  1
  O  O1  1  0.51007500  0.69731300  0.81276200  1
  O  O2  1  0.11544900  0.30268700  0.81276200  1
  O  O3  1  0.88455100  0.69731300  0.18723800  1
  O  O4  1  0.69731300  0.81276200  0.51007500  1
  O  O5  1  0.30268700  0.18723800  0.48992500  1
  O  O6  1  0.69731300  0.18723800  0.88455100  1
  O  O7  1  0.30268700  0.81276200  0.11544900  1
  O  O8  1  0.81276200  0.11544900  0.30268700  1
  O  O9  1  0.18723800  0.88455100  0.69731300  1
  O  O10  1  0.18723800  0.48992500  0.30268700  1
  O  O11  1  0.81276200  0.51007500  0.69731300  1
loop_
_geom_bond_atom_site_label_1
_geom_bond_atom_site_label_2
_geom_bond_distance
_geom_bond_site_symmetry_2
O0 Ti1 1.988554 1_555
O0 Ti0 1.988554 1_555
O0 Zn1 2.056010 1_555
O0 Sn0 2.690215 1_555
O1 Ti1 1.988554 1_566
O1 Ti0 1.988554 1_555
O1 Zn1 2.056010 1_556
O1 Sn0 2.690215 1_666
O2 Ti2 1.988554 1_555
O2 Ti3 1.988554 1_556
O2 Zn1 2.056010 1_556
O2 Sn0 2.690215 1_556
O3 Ti3 1.988554 1_655
O3 Ti2 1.988554 1_665
O3 Zn1 2.056010 1_555
O3 Sn0 2.690215 1_665
O4 Ti2 1.988554 1_665
O4 Ti0 1.988554 1_555
O4 Zn2 2.056010 1_565
O4 Sn0 2.690215 1_666
O5 Ti2 1.988554 1_555
O5 Ti0 1.988554 1_555
O5 Zn2 2.056010 1_555
O5 Sn0 2.690215 1_555
O6 Ti3 1.988554 1_656
O6 Ti1 1.988554 1_556
O6 Zn2 2.056010 1_555
O6 Sn0 2.690215 1_656
O7 Ti1 1.988554 1_565
O7 Ti3 1.988554 1_555
O7 Zn2 2.056010 1_565
O7 Sn0 2.690215 1_565
O8 Ti1 1.988554 1_555
O8 Ti2 1.988554 1_655
O8 Zn0 2.056010 1_655
O8 Sn0 2.690215 1_655
O9 Ti2 1.988554 1_565
O9 Ti1 1.988554 1_566
O9 Zn0 2.056010 1_555
O9 Sn0 2.690215 1_566
O10 Ti0 1.988554 1_555
O10 Ti3 1.988554 1_555
O10 Zn0 2.056010 1_555
O10 Sn0 2.690215 1_555
O11 Ti3 1.988554 1_656
O11 Ti0 1.988554 1_555
O11 Zn0 2.056010 1_655
O11 Sn0 2.690215 1_666
