# generated using pymatgen
data_Mg3B7BrO13
_symmetry_space_group_name_H-M   'P 1'
_cell_length_a   8.62188450
_cell_length_b   8.62188450
_cell_length_c   8.62188450
_cell_angle_alpha   60.00000000
_cell_angle_beta   60.00000000
_cell_angle_gamma   60.00000000
_symmetry_Int_Tables_number   1
_chemical_formula_structural   Mg3B7BrO13
_chemical_formula_sum   'Mg6 B14 Br2 O26'
_cell_volume   453.20177794
_cell_formula_units_Z   2
loop_
 _symmetry_equiv_pos_site_id
 _symmetry_equiv_pos_as_xyz
  1  'x, y, z'
loop_
 _atom_site_type_symbol
 _atom_site_label
 _atom_site_symmetry_multiplicity
 _atom_site_fract_x
 _atom_site_fract_y
 _atom_site_fract_z
 _atom_site_occupancy
  Mg  Mg0  1  0.50000000  0.00000000  0.00000000  1
  Mg  Mg1  1  0.00000000  0.50000000  0.50000000  1
  Mg  Mg2  1  0.00000000  0.50000000  0.00000000  1
  Mg  Mg3  1  0.50000000  0.00000000  0.50000000  1
  Mg  Mg4  1  0.00000000  0.00000000  0.50000000  1
  Mg  Mg5  1  0.50000000  0.50000000  0.00000000  1
  B  B0  1  0.08043800  0.08043800  0.08043800  1
  B  B1  1  0.08043800  0.08043800  0.75868500  1
  B  B2  1  0.08043800  0.75868500  0.08043800  1
  B  B3  1  0.58043800  0.58043800  0.58043800  1
  B  B4  1  0.75868500  0.08043800  0.08043800  1
  B  B5  1  0.58043800  0.58043800  0.25868500  1
  B  B6  1  0.25868500  0.58043800  0.58043800  1
  B  B7  1  0.58043800  0.25868500  0.58043800  1
  B  B8  1  0.75000000  0.25000000  0.25000000  1
  B  B9  1  0.25000000  0.75000000  0.75000000  1
  B  B10  1  0.25000000  0.75000000  0.25000000  1
  B  B11  1  0.75000000  0.25000000  0.75000000  1
  B  B12  1  0.25000000  0.25000000  0.75000000  1
  B  B13  1  0.75000000  0.75000000  0.25000000  1
  Br  Br0  1  0.25000000  0.25000000  0.25000000  1
  Br  Br1  1  0.75000000  0.75000000  0.75000000  1
  O  O0  1  0.25788500  0.10387800  0.93712700  1
  O  O1  1  0.10387800  0.25788500  0.70111000  1
  O  O2  1  0.93712700  0.70111000  0.25788500  1
  O  O3  1  0.93712700  0.25788500  0.10387800  1
  O  O4  1  0.60387800  0.75788500  0.43712700  1
  O  O5  1  0.70111000  0.93712700  0.10387800  1
  O  O6  1  0.70111000  0.10387800  0.25788500  1
  O  O7  1  0.75788500  0.60387800  0.20111000  1
  O  O8  1  0.25788500  0.93712700  0.70111000  1
  O  O9  1  0.20111000  0.43712700  0.75788500  1
  O  O10  1  0.10387800  0.70111000  0.93712700  1
  O  O11  1  0.43712700  0.20111000  0.60387800  1
  O  O12  1  0.10387800  0.93712700  0.25788500  1
  O  O13  1  0.75788500  0.43712700  0.60387800  1
  O  O14  1  0.70111000  0.25788500  0.93712700  1
  O  O15  1  0.43712700  0.75788500  0.20111000  1
  O  O16  1  0.93712700  0.10387800  0.70111000  1
  O  O17  1  0.20111000  0.60387800  0.43712700  1
  O  O18  1  0.25788500  0.70111000  0.10387800  1
  O  O19  1  0.60387800  0.20111000  0.75788500  1
  O  O20  1  0.43712700  0.60387800  0.75788500  1
  O  O21  1  0.20111000  0.75788500  0.60387800  1
  O  O22  1  0.60387800  0.43712700  0.20111000  1
  O  O23  1  0.75788500  0.20111000  0.43712700  1
  O  O24  1  0.00000000  0.00000000  0.00000000  1
  O  O25  1  0.50000000  0.50000000  0.50000000  1
loop_
_geom_bond_atom_site_label_1
_geom_bond_atom_site_label_2
_geom_bond_distance
_geom_bond_site_symmetry_2
Mg0 O15 2.056718 1_545
Mg0 O19 2.056718 1_554
Mg0 O0 2.056718 1_554
Mg0 O5 2.056718 1_545
Mg1 O13 2.056718 1_455
Mg1 O1 2.056718 1_555
Mg1 O2 2.056718 1_455
Mg1 O17 2.056718 1_555
Mg2 O9 2.056718 1_554
Mg2 O7 2.056718 1_455
Mg2 O3 2.056718 1_455
Mg2 O10 2.056718 1_554
Mg3 O4 2.056718 1_545
Mg3 O8 2.056718 1_545
Mg3 O6 2.056718 1_555
Mg3 O11 2.056718 1_555
Mg4 O23 2.056718 1_455
Mg4 O21 2.056718 1_545
Mg4 O16 2.056718 1_455
Mg4 O12 2.056718 1_545
Mg5 O20 2.056718 1_554
Mg5 O14 2.056718 1_554
Mg5 O18 2.056718 1_555
Mg5 O22 2.056718 1_555
B0 O0 1.441298 1_554
B0 O3 1.441298 1_455
B0 O12 1.441298 1_545
B0 O24 1.698788 1_555
B1 O16 1.441292 1_455
B1 O8 1.441296 1_545
B1 O1 1.441301 1_555
B1 O24 1.698795 1_556
B2 O10 1.441292 1_554
B2 O2 1.441296 1_455
B2 O18 1.441301 1_555
B2 O24 1.698795 1_565
B3 O20 1.441298 1_555
B3 O4 1.441298 1_555
B3 O13 1.441298 1_555
B3 O25 1.698788 1_555
B4 O5 1.441292 1_545
B4 O14 1.441296 1_554
B4 O6 1.441301 1_555
B4 O24 1.698795 1_655
B5 O22 1.441292 1_555
B5 O15 1.441296 1_555
B5 O7 1.441301 1_555
B5 O25 1.698795 1_555
B6 O17 1.441292 1_555
B6 O9 1.441296 1_555
B6 O21 1.441301 1_555
B6 O25 1.698795 1_555
B7 O11 1.441292 1_555
B7 O23 1.441296 1_555
B7 O19 1.441301 1_555
B7 O25 1.698795 1_555
B8 O22 1.478604 1_555
B8 O6 1.478604 1_555
B8 O23 1.478604 1_555
B8 O3 1.478604 1_555
B9 O21 1.478604 1_555
B9 O20 1.478604 1_555
B9 O8 1.478604 1_555
B9 O10 1.478604 1_555
B10 O17 1.478604 1_555
B10 O15 1.478604 1_555
B10 O18 1.478604 1_555
B10 O12 1.478604 1_555
B11 O19 1.478604 1_555
B11 O13 1.478604 1_555
B11 O16 1.478604 1_555
B11 O14 1.478604 1_555
B12 O11 1.478604 1_555
B12 O9 1.478604 1_555
B12 O1 1.478604 1_555
B12 O0 1.478604 1_555
B13 O7 1.478604 1_555
B13 O4 1.478604 1_555
B13 O5 1.478604 1_555
B13 O2 1.478604 1_555
Br0 Mg1 3.048297 1_555
Br0 Mg2 3.048297 1_555
Br0 Mg0 3.048297 1_555
Br0 Mg5 3.048297 1_555
Br0 Mg3 3.048297 1_555
Br0 Mg4 3.048297 1_555
Br1 Mg0 3.048297 1_566
Br1 Mg3 3.048297 1_565
Br1 Mg2 3.048297 1_656
Br1 Mg5 3.048297 1_556
Br1 Mg1 3.048297 1_655
Br1 Mg4 3.048297 1_665
