# generated using pymatgen
data_K3Ag9(SbS3)4
_symmetry_space_group_name_H-M   'P 1'
_cell_length_a   9.77205120
_cell_length_b   9.77205120
_cell_length_c   9.77205120
_cell_angle_alpha   111.33608769
_cell_angle_beta   111.33608769
_cell_angle_gamma   105.80260731
_symmetry_Int_Tables_number   1
_chemical_formula_structural   K3Ag9(SbS3)4
_chemical_formula_sum   'K3 Ag9 Sb4 S12'
_cell_volume   716.15816851
_cell_formula_units_Z   1
loop_
 _symmetry_equiv_pos_site_id
 _symmetry_equiv_pos_as_xyz
  1  'x, y, z'
loop_
 _atom_site_type_symbol
 _atom_site_label
 _atom_site_symmetry_multiplicity
 _atom_site_fract_x
 _atom_site_fract_y
 _atom_site_fract_z
 _atom_site_occupancy
  K  K0  1  0.00000000  0.00000000  0.00000000  1
  K  K1  1  0.66654800  0.66654800  0.00000000  1
  K  K2  1  0.33345200  0.33345200  0.00000000  1
  Ag  Ag0  1  0.33862800  0.48682900  0.49827900  1
  Ag  Ag1  1  0.98855000  0.84034900  0.50172100  1
  Ag  Ag2  1  0.50883600  0.00745300  0.17421500  1
  Ag  Ag3  1  0.83323800  0.33462100  0.82578500  1
  Ag  Ag4  1  0.66537900  0.49116400  0.49861700  1
  Ag  Ag5  1  0.99254700  0.16676200  0.50138300  1
  Ag  Ag6  1  0.51317100  0.01145000  0.85179900  1
  Ag  Ag7  1  0.15965100  0.66137200  0.14820100  1
  Ag  Ag8  1  0.25000000  0.75000000  0.50000000  1
  Sb  Sb0  1  0.62368800  0.88428700  0.49093300  1
  Sb  Sb1  1  0.39335400  0.13275400  0.50906700  1
  Sb  Sb2  1  0.86724600  0.37631200  0.26060000  1
  Sb  Sb3  1  0.11571300  0.60664600  0.73940000  1
  S  S0  1  0.57301100  0.79179800  0.68182600  1
  S  S1  1  0.10997200  0.89118500  0.31817400  1
  S  S2  1  0.79176100  0.08931100  0.20162300  1
  S  S3  1  0.88768800  0.59013800  0.79837700  1
  S  S4  1  0.40986200  0.20823900  0.29755000  1
  S  S5  1  0.91068900  0.11231200  0.70245000  1
  S  S6  1  0.20820200  0.89002800  0.78121300  1
  S  S7  1  0.10881500  0.42698900  0.21878700  1
  S  S8  1  0.33977700  0.68775300  0.02016900  1
  S  S9  1  0.66758500  0.31960800  0.97983100  1
  S  S10  1  0.68039200  0.66022300  0.34797600  1
  S  S11  1  0.31224700  0.33241500  0.65202400  1
loop_
_geom_bond_atom_site_label_1
_geom_bond_atom_site_label_2
_geom_bond_distance
_geom_bond_site_symmetry_2
K0 S5 3.379065 1_454
K0 S4 3.379065 1_555
K0 S3 3.379065 1_444
K0 S2 3.379065 1_455
K0 S7 3.542540 1_555
K0 S1 3.542540 1_545
K0 S6 3.542540 1_544
K0 S0 3.542540 1_444
K1 S8 3.326724 1_555
K1 S9 3.326727 1_554
K1 S10 3.377551 1_555
K1 S11 3.377554 1_554
K1 S3 3.466401 1_554
K1 S2 3.466401 1_565
K1 S1 3.648454 1_655
K1 S0 3.648454 1_554
K2 S11 3.326721 1_554
K2 S10 3.326724 1_555
K2 S8 3.377551 1_555
K2 S9 3.377561 1_554
K2 S5 3.466401 1_454
K2 S4 3.466401 1_555
K2 S7 3.648454 1_555
K2 S6 3.648454 1_544
Ag0 S11 2.514005 1_555
Ag0 S7 2.550320 1_555
Ag0 S0 2.597647 1_555
Ag0 S4 3.143804 1_555
Ag1 S10 2.513998 1_555
Ag1 S6 2.550320 1_655
Ag1 S1 2.597647 1_655
Ag1 S5 3.143804 1_565
Ag2 S4 2.529594 1_555
Ag2 S2 2.540909 1_555
Ag2 S8 2.590870 1_545
Ag3 S5 2.529594 1_555
Ag3 S3 2.540909 1_555
Ag3 S9 2.590862 1_555
Ag4 S3 2.529594 1_555
Ag4 S4 2.540909 1_555
Ag4 S10 2.590870 1_555
Ag5 S2 2.529594 1_555
Ag5 S5 2.540909 1_555
Ag5 S11 2.590869 1_655
Ag6 S9 2.513999 1_555
Ag6 S0 2.550320 1_545
Ag6 S6 2.597647 1_545
Ag6 S2 3.143804 1_556
Ag7 S8 2.513998 1_555
Ag7 S1 2.550320 1_555
Ag7 S7 2.597647 1_555
Ag7 S3 3.143804 1_454
Ag8 S6 2.824147 1_555
Ag8 S0 2.824147 1_555
Ag8 S1 2.824147 1_555
Ag8 S7 2.824147 1_555
S0 Sb0 2.489413 1_555
S1 Sb1 2.489409 1_565
S2 Sb2 2.475821 1_555
S3 Sb3 2.475830 1_655
S4 Sb1 2.475830 1_555
S5 Sb0 2.475825 1_545
S6 Sb3 2.489409 1_555
S7 Sb2 2.489409 1_455
S8 Sb3 2.459902 1_554
S9 Sb2 2.459903 1_556
S10 Sb0 2.459895 1_555
S11 Sb1 2.459895 1_555
