# generated using pymatgen
data_Mn2ZnO4
_symmetry_space_group_name_H-M   'P 1'
_cell_length_a   6.22735277
_cell_length_b   6.22735277
_cell_length_c   14.93097957
_cell_angle_alpha   84.83797928
_cell_angle_beta   84.83797928
_cell_angle_gamma   56.17300559
_symmetry_Int_Tables_number   1
_chemical_formula_structural   Mn2ZnO4
_chemical_formula_sum   'Mn12 Zn6 O24'
_cell_volume   478.49881620
_cell_formula_units_Z   6
loop_
 _symmetry_equiv_pos_site_id
 _symmetry_equiv_pos_as_xyz
  1  'x, y, z'
loop_
 _atom_site_type_symbol
 _atom_site_label
 _atom_site_symmetry_multiplicity
 _atom_site_fract_x
 _atom_site_fract_y
 _atom_site_fract_z
 _atom_site_occupancy
  Mn  Mn0  1  0.17162800  0.67044600  0.83355200  1
  Mn  Mn1  1  0.66859500  0.66859500  0.83280600  1
  Mn  Mn2  1  0.50007200  0.00003100  0.50001300  1
  Mn  Mn3  1  0.67044600  0.17162800  0.83355200  1
  Mn  Mn4  1  0.83469100  0.83469100  0.66673500  1
  Mn  Mn5  1  0.00001100  0.00001100  0.50041200  1
  Mn  Mn6  1  0.82879200  0.32829700  0.16599000  1
  Mn  Mn7  1  0.00003100  0.50007200  0.50001300  1
  Mn  Mn8  1  0.32829700  0.82879200  0.16599000  1
  Mn  Mn9  1  0.16414300  0.16414300  0.33360800  1
  Mn  Mn10  1  0.33179300  0.33179300  0.16827900  1
  Mn  Mn11  1  0.83400100  0.83400100  0.04389300  1
  Zn  Zn0  1  0.16740500  0.16740500  0.95391700  1
  Zn  Zn1  1  0.50024500  0.50024500  0.62455700  1
  Zn  Zn2  1  0.50050700  0.50050700  0.99890700  1
  Zn  Zn3  1  0.83021700  0.83021700  0.29067600  1
  Zn  Zn4  1  0.16814700  0.16814700  0.70991100  1
  Zn  Zn5  1  0.49977300  0.49977300  0.37615900  1
  O  O0  1  0.34766700  0.34766700  0.90947700  1
  O  O1  1  0.49743200  0.49743200  0.75897500  1
  O  O2  1  0.35164700  0.81507600  0.90805500  1
  O  O3  1  0.81507600  0.35164700  0.90805500  1
  O  O4  1  0.53150400  0.98129900  0.75075600  1
  O  O5  1  0.67840600  0.67840600  0.57612500  1
  O  O6  1  0.98129900  0.53150400  0.75075600  1
  O  O7  1  0.83912600  0.83912600  0.90510100  1
  O  O8  1  0.68896600  0.13865600  0.58112300  1
  O  O9  1  0.82683800  0.82683800  0.42606300  1
  O  O10  1  0.98906400  0.98906400  0.75546800  1
  O  O11  1  0.13865600  0.68896600  0.58112300  1
  O  O12  1  0.86153500  0.31014800  0.41872900  1
  O  O13  1  0.00986400  0.00986400  0.24376500  1
  O  O14  1  0.31014800  0.86153500  0.41872900  1
  O  O15  1  0.17302800  0.17302800  0.57358600  1
  O  O16  1  0.16048400  0.16048400  0.09281600  1
  O  O17  1  0.01559700  0.46645200  0.24838700  1
  O  O18  1  0.32117100  0.32117100  0.42316300  1
  O  O19  1  0.46645200  0.01559700  0.24838700  1
  O  O20  1  0.19007400  0.64892600  0.09376500  1
  O  O21  1  0.50347800  0.50347800  0.24159400  1
  O  O22  1  0.64892600  0.19007400  0.09376500  1
  O  O23  1  0.65216200  0.65216200  0.09269200  1
loop_
_geom_bond_atom_site_label_1
_geom_bond_atom_site_label_2
_geom_bond_distance
_geom_bond_site_symmetry_2
Mn0 O0 1.971667 1_555
Mn0 O1 1.972993 1_555
Mn0 O10 1.974680 1_455
Mn0 O7 1.978470 1_455
Mn0 O2 2.198683 1_555
Mn0 O6 2.297744 1_455
Mn1 O2 1.941890 1_555
Mn1 O3 1.941890 1_555
Mn1 O6 1.982347 1_555
Mn1 O4 1.982347 1_555
Mn1 O7 2.255846 1_555
Mn1 O1 2.274924 1_555
Mn2 O5 1.969097 1_545
Mn2 O15 1.970457 1_555
Mn2 O9 1.972209 1_545
Mn2 O18 1.973254 1_555
Mn2 O8 2.273906 1_555
Mn2 O14 2.279907 1_545
Mn3 O0 1.971667 1_555
Mn3 O1 1.972993 1_555
Mn3 O10 1.974680 1_545
Mn3 O7 1.978470 1_545
Mn3 O3 2.198683 1_555
Mn3 O4 2.297744 1_545
Mn4 O6 1.957750 1_555
Mn4 O4 1.957750 1_555
Mn4 O8 1.975190 1_565
Mn4 O11 1.975190 1_655
Mn4 O10 2.256308 1_555
Mn4 O5 2.291982 1_555
Mn5 O11 1.963370 1_545
Mn5 O8 1.963370 1_455
Mn5 O12 1.967798 1_455
Mn5 O14 1.967798 1_545
Mn5 O15 2.287262 1_555
Mn5 O9 2.298678 1_445
Mn6 O23 1.955689 1_555
Mn6 O13 1.970784 1_655
Mn6 O21 1.979376 1_555
Mn6 O16 1.987054 1_655
Mn6 O22 2.148549 1_555
Mn6 O17 2.273612 1_655
Mn7 O5 1.969097 1_455
Mn7 O15 1.970457 1_555
Mn7 O9 1.972209 1_455
Mn7 O18 1.973254 1_555
Mn7 O11 2.273906 1_555
Mn7 O12 2.279907 1_455
Mn8 O23 1.955689 1_555
Mn8 O13 1.970784 1_565
Mn8 O21 1.979376 1_555
Mn8 O16 1.987054 1_565
Mn8 O20 2.148549 1_555
Mn8 O19 2.273612 1_565
Mn9 O19 1.964882 1_555
Mn9 O17 1.964882 1_555
Mn9 O14 1.965311 1_545
Mn9 O12 1.965311 1_455
Mn9 O13 2.266509 1_555
Mn9 O18 2.288148 1_555
Mn10 O22 1.938476 1_555
Mn10 O20 1.938476 1_555
Mn10 O17 1.982253 1_555
Mn10 O19 1.982253 1_555
Mn10 O21 2.275584 1_555
Mn10 O16 2.290273 1_555
Mn11 O22 2.024098 1_565
Mn11 O20 2.024098 1_655
Mn11 O23 2.055760 1_555
Mn11 O7 2.067317 1_554
O0 Zn0 2.023726 1_555
O0 Zn2 2.249614 1_555
O1 Zn1 2.004076 1_555
O2 Zn0 1.981285 1_565
O2 Zn2 2.064742 1_555
O3 Zn0 1.981285 1_655
O3 Zn2 2.064742 1_555
O4 Zn4 2.008761 1_565
O5 Zn1 2.016562 1_555
O6 Zn4 2.008761 1_655
O8 Zn1 2.012800 1_555
O9 Zn3 2.018012 1_555
O10 Zn4 2.015387 1_665
O11 Zn1 2.012800 1_555
O12 Zn5 2.008573 1_555
O13 Zn3 2.026111 1_445
O14 Zn5 2.008573 1_555
O15 Zn4 2.030697 1_555
O16 Zn0 2.067527 1_554
O17 Zn3 2.019296 1_455
O18 Zn5 2.015678 1_555
O19 Zn3 2.019296 1_545
O20 Zn2 2.085889 1_554
O21 Zn5 2.005444 1_555
O22 Zn2 2.085889 1_554
O23 Zn2 2.283337 1_554
