# generated using pymatgen
data_Li9Mn2Co5O16
_symmetry_space_group_name_H-M   'P 1'
_cell_length_a   7.83240901
_cell_length_b   7.83240901
_cell_length_c   12.95186571
_cell_angle_alpha   88.02371971
_cell_angle_beta   88.02371971
_cell_angle_gamma   21.31119362
_symmetry_Int_Tables_number   1
_chemical_formula_structural   Li9Mn2Co5O16
_chemical_formula_sum   'Li9 Mn2 Co5 O16'
_cell_volume   288.58924836
_cell_formula_units_Z   1
loop_
 _symmetry_equiv_pos_site_id
 _symmetry_equiv_pos_as_xyz
  1  'x, y, z'
loop_
 _atom_site_type_symbol
 _atom_site_label
 _atom_site_symmetry_multiplicity
 _atom_site_fract_x
 _atom_site_fract_y
 _atom_site_fract_z
 _atom_site_occupancy
  Li  Li0  1  0.43667100  0.43667100  0.19918600  1
  Li  Li1  1  0.30848000  0.30848000  0.54764900  1
  Li  Li2  1  0.19431700  0.19431700  0.94063400  1
  Li  Li3  1  0.05784200  0.05784200  0.31675500  1
  Li  Li4  1  0.93775000  0.93775000  0.68343800  1
  Li  Li5  1  0.80673000  0.80673000  0.06869300  1
  Li  Li6  1  0.69025500  0.69025500  0.43046300  1
  Li  Li7  1  0.56129900  0.56129900  0.80877800  1
  Li  Li8  1  0.87538200  0.87538200  0.37143600  1
  Mn  Mn0  1  0.00302400  0.00302400  0.00191600  1
  Mn  Mn1  1  0.49477500  0.49477500  0.49446500  1
  Co  Co0  1  0.75078600  0.75078600  0.74854800  1
  Co  Co1  1  0.63035700  0.63035700  0.13721500  1
  Co  Co2  1  0.37343100  0.37343100  0.87644100  1
  Co  Co3  1  0.25880000  0.25880000  0.25886400  1
  Co  Co4  1  0.12648400  0.12648400  0.62143600  1
  O  O0  1  0.42004400  0.42004400  0.02649900  1
  O  O1  1  0.27549500  0.27549500  0.39541200  1
  O  O2  1  0.16688600  0.16688600  0.77234000  1
  O  O3  1  0.03414700  0.03414700  0.14391100  1
  O  O4  1  0.91492900  0.91492900  0.52861600  1
  O  O5  1  0.78656000  0.78656000  0.90723000  1
  O  O6  1  0.65521600  0.65521600  0.27460400  1
  O  O7  1  0.53454400  0.53454400  0.64769400  1
  O  O8  1  0.47076200  0.47076200  0.35678900  1
  O  O9  1  0.33459400  0.33459400  0.72650700  1
  O  O10  1  0.21392300  0.21392300  0.09947700  1
  O  O11  1  0.08045700  0.08045700  0.47496500  1
  O  O12  1  0.96848500  0.96848500  0.85534600  1
  O  O13  1  0.83878900  0.83878900  0.21781000  1
  O  O14  1  0.71322100  0.71322100  0.59163300  1
  O  O15  1  0.58556500  0.58556500  0.97525000  1
loop_
_geom_bond_atom_site_label_1
_geom_bond_atom_site_label_2
_geom_bond_distance
_geom_bond_site_symmetry_2
Li0 O13 2.097796 1_455
Li0 O13 2.097796 1_545
Li0 O8 2.125402 1_555
Li0 O3 2.187787 1_565
Li0 O3 2.187787 1_655
Li0 O0 2.260124 1_555
Li1 O1 2.053274 1_555
Li1 O14 2.124596 1_545
Li1 O14 2.124596 1_455
Li1 O4 2.194391 1_455
Li1 O4 2.194391 1_545
Li1 O9 2.365028 1_555
Li2 O5 2.063504 1_545
Li2 O5 2.063504 1_455
Li2 O10 2.089789 1_556
Li2 O2 2.234752 1_555
Li2 O15 2.246937 1_455
Li2 O15 2.246937 1_545
Li3 O8 2.028457 1_545
Li3 O8 2.028457 1_455
Li3 O11 2.090490 1_555
Li3 O6 2.141302 1_455
Li3 O6 2.141302 1_545
Li3 O3 2.280776 1_555
Li4 O4 2.047885 1_555
Li4 O7 2.117495 1_655
Li4 O7 2.117495 1_565
Li4 O9 2.206434 1_655
Li4 O9 2.206434 1_565
Li4 O12 2.292432 1_555
Li5 O13 2.010115 1_555
Li5 O10 2.063422 1_655
Li5 O10 2.063422 1_565
Li5 O5 2.124925 1_554
Li5 O0 2.317808 1_655
Li5 O0 2.317808 1_565
Li6 O1 1.995922 1_655
Li6 O1 1.995922 1_565
Li6 O6 2.107699 1_555
Li6 O14 2.129379 1_555
Li6 O11 2.284385 1_565
Li6 O11 2.284385 1_655
Li7 O12 2.107683 1_455
Li7 O12 2.107683 1_545
Li7 O7 2.140740 1_555
Li7 O15 2.201124 1_555
Li7 O2 2.215515 1_655
Li7 O2 2.215515 1_565
Li8 O8 2.066377 1_655
Li8 O8 2.066377 1_565
Li8 O13 2.086886 1_555
Li8 O1 2.127197 1_565
Li8 O1 2.127197 1_655
Li8 O4 2.145231 1_555
Mn0 O3 1.916689 1_555
Mn0 O15 1.949508 1_454
Mn0 O15 1.949508 1_544
Mn0 O0 1.949910 1_545
Mn0 O0 1.949910 1_455
Mn0 O12 1.989300 1_444
Mn1 O8 1.833735 1_555
Mn1 O4 1.940584 1_455
Mn1 O4 1.940584 1_545
Mn1 O11 1.969195 1_655
Mn1 O11 1.969195 1_565
Mn1 O7 2.097318 1_555
Co0 O9 1.953892 1_655
Co0 O9 1.953892 1_565
Co0 O2 1.957735 1_565
Co0 O2 1.957735 1_655
Co0 O14 2.132447 1_555
Co0 O5 2.146323 1_555
Co1 O6 1.833213 1_555
Co1 O10 1.986761 1_655
Co1 O10 1.986761 1_565
Co1 O3 2.071152 1_565
Co1 O3 2.071152 1_655
Co1 O15 2.231045 1_554
Co2 O5 2.001884 1_455
Co2 O5 2.001884 1_545
Co2 O9 2.051834 1_555
Co2 O12 2.070109 1_545
Co2 O12 2.070109 1_455
Co2 O0 2.095264 1_556
Co3 O1 1.796032 1_555
Co3 O13 1.962288 1_545
Co3 O13 1.962288 1_455
Co3 O6 2.158488 1_545
Co3 O6 2.158488 1_455
Co3 O10 2.199766 1_555
Co4 O14 1.998314 1_545
Co4 O14 1.998314 1_455
Co4 O7 2.045150 1_455
Co4 O7 2.045150 1_545
Co4 O11 2.048243 1_555
Co4 O2 2.071762 1_555
