# generated using pymatgen
data_Ba4PrEr(Cu3O7)2
_symmetry_space_group_name_H-M   'P 1'
_cell_length_a   3.87496200
_cell_length_b   3.94890200
_cell_length_c   23.91546900
_cell_angle_alpha   90.00000000
_cell_angle_beta   90.00000000
_cell_angle_gamma   90.00000000
_symmetry_Int_Tables_number   1
_chemical_formula_structural   Ba4PrEr(Cu3O7)2
_chemical_formula_sum   'Ba4 Pr1 Er1 Cu6 O14'
_cell_volume   365.95080433
_cell_formula_units_Z   1
loop_
 _symmetry_equiv_pos_site_id
 _symmetry_equiv_pos_as_xyz
  1  'x, y, z'
loop_
 _atom_site_type_symbol
 _atom_site_label
 _atom_site_symmetry_multiplicity
 _atom_site_fract_x
 _atom_site_fract_y
 _atom_site_fract_z
 _atom_site_occupancy
  Ba  Ba0  1  0.50000000  0.50000000  0.83977800  1
  Ba  Ba1  1  0.50000000  0.50000000  0.34054100  1
  Ba  Ba2  1  0.50000000  0.50000000  0.16022200  1
  Ba  Ba3  1  0.50000000  0.50000000  0.65945900  1
  Pr  Pr0  1  0.50000000  0.50000000  0.00000000  1
  Er  Er0  1  0.50000000  0.50000000  0.50000000  1
  Cu  Cu0  1  0.00000000  0.00000000  0.92338800  1
  Cu  Cu1  1  0.00000000  0.00000000  0.42702400  1
  Cu  Cu2  1  0.00000000  0.00000000  0.07661200  1
  Cu  Cu3  1  0.00000000  0.00000000  0.57297600  1
  Cu  Cu4  1  0.00000000  0.00000000  0.74987500  1
  Cu  Cu5  1  0.00000000  0.00000000  0.25012500  1
  O  O0  1  0.00000000  0.00000000  0.82893100  1
  O  O1  1  0.00000000  0.00000000  0.32980400  1
  O  O2  1  0.00000000  0.00000000  0.17106900  1
  O  O3  1  0.00000000  0.00000000  0.67019600  1
  O  O4  1  0.00000000  0.50000000  0.74952200  1
  O  O5  1  0.00000000  0.50000000  0.25047800  1
  O  O6  1  0.00000000  0.50000000  0.93463200  1
  O  O7  1  0.00000000  0.50000000  0.44009000  1
  O  O8  1  0.00000000  0.50000000  0.06536800  1
  O  O9  1  0.00000000  0.50000000  0.55991000  1
  O  O10  1  0.50000000  0.00000000  0.93557800  1
  O  O11  1  0.50000000  0.00000000  0.44083800  1
  O  O12  1  0.50000000  0.00000000  0.06442200  1
  O  O13  1  0.50000000  0.00000000  0.55916200  1
loop_
_geom_bond_atom_site_label_1
_geom_bond_atom_site_label_2
_geom_bond_distance
_geom_bond_site_symmetry_2
Ba0 O0 2.778414 1_665
Ba0 O0 2.778414 1_555
Ba0 O0 2.778414 1_655
Ba0 O0 2.778414 1_565
Ba0 O4 2.900520 1_655
Ba0 O4 2.900520 1_555
Ba0 O6 2.983257 1_655
Ba0 O6 2.983257 1_555
Ba0 O10 3.024501 1_555
Ba0 O10 3.024501 1_565
Ba1 O1 2.778169 1_655
Ba1 O1 2.778169 1_555
Ba1 O1 2.778169 1_565
Ba1 O1 2.778169 1_665
Ba1 O5 2.897087 1_655
Ba1 O5 2.897087 1_555
Ba1 O7 3.069504 1_655
Ba1 O7 3.069504 1_555
Ba1 O11 3.106763 1_555
Ba1 O11 3.106763 1_565
Ba2 O2 2.778414 1_555
Ba2 O2 2.778414 1_565
Ba2 O2 2.778414 1_665
Ba2 O2 2.778414 1_655
Ba2 O5 2.900520 1_655
Ba2 O5 2.900520 1_555
Ba2 O8 2.983257 1_555
Ba2 O8 2.983257 1_655
Ba2 O12 3.024501 1_555
Ba2 O12 3.024501 1_565
Ba3 O3 2.778169 1_565
Ba3 O3 2.778169 1_555
Ba3 O3 2.778169 1_655
Ba3 O3 2.778169 1_665
Ba3 O4 2.897087 1_655
Ba3 O4 2.897087 1_555
Ba3 O9 3.069504 1_555
Ba3 O9 3.069504 1_655
Ba3 O13 3.106763 1_555
Ba3 O13 3.106763 1_565
Er0 O7 2.409705 1_655
Er0 O7 2.409705 1_555
Er0 O9 2.409705 1_655
Er0 O9 2.409705 1_555
Er0 O13 2.429066 1_555
Er0 O13 2.429066 1_565
Er0 O11 2.429066 1_565
Er0 O11 2.429066 1_555
Cu0 O10 1.959291 1_455
Cu0 O10 1.959291 1_555
Cu0 O6 1.992678 1_545
Cu0 O6 1.992678 1_555
Cu0 O0 2.258983 1_555
Cu1 O11 1.965445 1_555
Cu1 O11 1.965445 1_455
Cu1 O7 1.999025 1_555
Cu1 O7 1.999025 1_545
Cu1 O1 2.325062 1_555
Cu2 O12 1.959291 1_455
Cu2 O12 1.959291 1_555
Cu2 O8 1.992678 1_555
Cu2 O8 1.992678 1_545
Cu2 O2 2.258983 1_555
Cu3 O13 1.965445 1_455
Cu3 O13 1.965445 1_555
Cu3 O9 1.999025 1_555
Cu3 O9 1.999025 1_545
Cu3 O3 2.325062 1_555
Cu4 O0 1.890661 1_555
Cu4 O3 1.905561 1_555
Cu4 O4 1.974469 1_555
Cu4 O4 1.974469 1_545
Cu5 O2 1.890661 1_555
Cu5 O1 1.905561 1_555
Cu5 O5 1.974469 1_545
Cu5 O5 1.974469 1_555
O6 Pr0 2.489530 1_456
O6 Pr0 2.489530 1_556
O8 Pr0 2.489530 1_555
O8 Pr0 2.489530 1_455
O10 Pr0 2.504428 1_556
O10 Pr0 2.504428 1_546
O12 Pr0 2.504428 1_545
O12 Pr0 2.504428 1_555
