# generated using pymatgen
data_CaFeMoO6
_symmetry_space_group_name_H-M   'P 1'
_cell_length_a   5.60849300
_cell_length_b   5.38904300
_cell_length_c   9.36716197
_cell_angle_alpha   55.04982288
_cell_angle_beta   90.00000000
_cell_angle_gamma   90.00000000
_symmetry_Int_Tables_number   1
_chemical_formula_structural   CaFeMoO6
_chemical_formula_sum   'Ca2 Fe2 Mo2 O12'
_cell_volume   232.05694443
_cell_formula_units_Z   2
loop_
 _symmetry_equiv_pos_site_id
 _symmetry_equiv_pos_as_xyz
  1  'x, y, z'
loop_
 _atom_site_type_symbol
 _atom_site_label
 _atom_site_symmetry_multiplicity
 _atom_site_fract_x
 _atom_site_fract_y
 _atom_site_fract_z
 _atom_site_occupancy
  Ca  Ca0  1  0.31391300  0.73722300  0.25109800  1
  Ca  Ca1  1  0.68608700  0.73722300  0.75109800  1
  Fe  Fe0  1  0.24702300  0.99539500  0.49977800  1
  Fe  Fe1  1  0.75297700  0.99539500  0.99977800  1
  Mo  Mo0  1  0.22028000  0.49493500  0.00173200  1
  Mo  Mo1  1  0.77972000  0.49493500  0.50173200  1
  O  O0  1  0.53017700  0.25327800  0.47338100  1
  O  O1  1  0.04999300  0.74782200  0.04288800  1
  O  O2  1  0.95000700  0.74782200  0.54288800  1
  O  O3  1  0.46982300  0.25327800  0.97338100  1
  O  O4  1  0.47412300  0.68765300  0.52477000  1
  O  O5  1  0.96009800  0.34230600  0.95504900  1
  O  O6  1  0.03990200  0.34230600  0.45504900  1
  O  O7  1  0.52587700  0.68765300  0.02477000  1
  O  O8  1  0.73180900  0.80190800  0.25473900  1
  O  O9  1  0.23787300  0.17638700  0.24389800  1
  O  O10  1  0.26819100  0.80190800  0.75473900  1
  O  O11  1  0.76212700  0.17638700  0.74389800  1
loop_
_geom_bond_atom_site_label_1
_geom_bond_atom_site_label_2
_geom_bond_distance
_geom_bond_site_symmetry_2
Ca0 O9 2.367423 1_565
Ca0 O8 2.372666 1_555
Ca0 O1 2.422894 1_555
Ca0 O6 2.425385 1_555
Ca0 O0 2.527173 1_555
Ca0 O7 2.574508 1_555
Ca0 O4 2.581823 1_555
Ca0 O3 2.641447 1_564
Ca1 O11 2.367423 1_565
Ca1 O10 2.372666 1_555
Ca1 O2 2.422894 1_555
Ca1 O5 2.425385 1_555
Ca1 O3 2.527173 1_555
Ca1 O4 2.574508 1_555
Ca1 O7 2.581823 1_556
Ca1 O0 2.641447 1_565
Fe0 O10 1.987955 1_555
Fe0 O4 1.995663 1_555
Fe0 O9 2.005103 1_565
Fe0 O2 2.025033 1_455
Fe0 O0 2.029968 1_565
Fe0 O6 2.030419 1_565
Fe1 O8 1.987955 1_556
Fe1 O7 1.995663 1_556
Fe1 O11 2.005103 1_565
Fe1 O1 2.025033 1_656
Fe1 O3 2.029968 1_565
Fe1 O5 2.030419 1_565
Mo0 O5 1.846405 1_454
Mo0 O1 1.876160 1_555
Mo0 O9 1.908082 1_555
Mo0 O10 1.943340 1_554
Mo0 O3 2.030155 1_554
Mo0 O7 2.078355 1_555
Mo1 O6 1.846405 1_655
Mo1 O2 1.876160 1_555
Mo1 O11 1.908082 1_555
Mo1 O8 1.943340 1_555
Mo1 O0 2.030155 1_555
Mo1 O4 2.078355 1_555
