# generated using pymatgen
data_Hf10SiMo3
_symmetry_space_group_name_H-M   'P 1'
_cell_length_a   8.69760039
_cell_length_b   8.69760039
_cell_length_c   8.74844700
_cell_angle_alpha   90.00000000
_cell_angle_beta   90.00000000
_cell_angle_gamma   120.00000295
_symmetry_Int_Tables_number   1
_chemical_formula_structural   Hf10SiMo3
_chemical_formula_sum   'Hf20 Si2 Mo6'
_cell_volume   573.13968951
_cell_formula_units_Z   2
loop_
 _symmetry_equiv_pos_site_id
 _symmetry_equiv_pos_as_xyz
  1  'x, y, z'
loop_
 _atom_site_type_symbol
 _atom_site_label
 _atom_site_symmetry_multiplicity
 _atom_site_fract_x
 _atom_site_fract_y
 _atom_site_fract_z
 _atom_site_occupancy
  Hf  Hf0  1  0.20015500  0.79984500  0.45530700  1
  Hf  Hf1  1  0.20015500  0.40031000  0.45530700  1
  Hf  Hf2  1  0.59969000  0.79984500  0.45530700  1
  Hf  Hf3  1  0.79984500  0.20015500  0.54469300  1
  Hf  Hf4  1  0.79984500  0.59969000  0.54469300  1
  Hf  Hf5  1  0.40031000  0.20015500  0.54469300  1
  Hf  Hf6  1  0.79984500  0.20015500  0.95530700  1
  Hf  Hf7  1  0.79984500  0.59969000  0.95530700  1
  Hf  Hf8  1  0.40031000  0.20015500  0.95530700  1
  Hf  Hf9  1  0.20015500  0.79984500  0.04469300  1
  Hf  Hf10  1  0.20015500  0.40031000  0.04469300  1
  Hf  Hf11  1  0.59969000  0.79984500  0.04469300  1
  Hf  Hf12  1  0.53808000  0.46192000  0.25000000  1
  Hf  Hf13  1  0.53808000  0.07616000  0.25000000  1
  Hf  Hf14  1  0.92384000  0.46192000  0.25000000  1
  Hf  Hf15  1  0.46192000  0.53808000  0.75000000  1
  Hf  Hf16  1  0.46192000  0.92384000  0.75000000  1
  Hf  Hf17  1  0.07616000  0.53808000  0.75000000  1
  Hf  Hf18  1  0.00000000  0.00000000  0.50000000  1
  Hf  Hf19  1  0.00000000  0.00000000  0.00000000  1
  Si  Si0  1  0.33333300  0.66666700  0.25000000  1
  Si  Si1  1  0.66666700  0.33333300  0.75000000  1
  Mo  Mo0  1  0.88434400  0.11565600  0.25000000  1
  Mo  Mo1  1  0.88434400  0.76868800  0.25000000  1
  Mo  Mo2  1  0.23131200  0.11565600  0.25000000  1
  Mo  Mo3  1  0.11565600  0.88434400  0.75000000  1
  Mo  Mo4  1  0.11565600  0.23131200  0.75000000  1
  Mo  Mo5  1  0.76868800  0.88434400  0.75000000  1
loop_
_geom_bond_atom_site_label_1
_geom_bond_atom_site_label_2
_geom_bond_distance
_geom_bond_site_symmetry_2
Hf0 Si0 2.692808 1_555
Hf0 Mo3 2.875245 1_555
Hf0 Mo1 3.178052 1_455
Hf0 Mo2 3.178052 1_565
Hf1 Si0 2.692814 1_555
Hf1 Mo4 2.875245 1_555
Hf1 Mo0 3.178052 1_455
Hf1 Mo2 3.178052 1_555
Hf2 Si0 2.692814 1_555
Hf2 Mo5 2.875245 1_555
Hf2 Mo0 3.178052 1_565
Hf2 Mo1 3.178052 1_555
Hf3 Si1 2.692808 1_555
Hf3 Mo0 2.875245 1_555
Hf3 Mo4 3.178052 1_655
Hf3 Mo5 3.178052 1_545
Hf4 Si1 2.692814 1_555
Hf4 Mo1 2.875245 1_555
Hf4 Mo3 3.178052 1_655
Hf4 Mo5 3.178052 1_555
Hf5 Si1 2.692814 1_555
Hf5 Mo2 2.875245 1_555
Hf5 Mo3 3.178052 1_545
Hf5 Mo4 3.178052 1_555
Hf6 Si1 2.692808 1_555
Hf6 Mo0 2.875245 1_556
Hf6 Mo4 3.178052 1_655
Hf6 Mo5 3.178052 1_545
Hf7 Si1 2.692814 1_555
Hf7 Mo1 2.875245 1_556
Hf7 Mo3 3.178052 1_655
Hf7 Mo5 3.178052 1_555
Hf8 Si1 2.692814 1_555
Hf8 Mo2 2.875245 1_556
Hf8 Mo3 3.178052 1_545
Hf8 Mo4 3.178052 1_555
Hf9 Si0 2.692808 1_555
Hf9 Mo3 2.875245 1_554
Hf9 Mo1 3.178052 1_455
Hf9 Mo2 3.178052 1_565
Hf10 Si0 2.692814 1_555
Hf10 Mo4 2.875245 1_554
Hf10 Mo0 3.178052 1_455
Hf10 Mo2 3.178052 1_555
Hf11 Si0 2.692814 1_555
Hf11 Mo5 2.875245 1_554
Hf11 Mo0 3.178052 1_565
Hf11 Mo1 3.178052 1_555
Hf12 Mo1 2.855445 1_555
Hf12 Mo2 2.855445 1_555
Hf12 Si0 3.084449 1_555
Hf13 Mo0 2.855445 1_555
Hf13 Mo2 2.855446 1_555
Hf13 Si0 3.084442 1_545
Hf14 Mo0 2.855445 1_555
Hf14 Mo1 2.855446 1_555
Hf14 Si0 3.084442 1_655
Hf15 Mo5 2.855445 1_555
Hf15 Mo4 2.855445 1_555
Hf15 Si1 3.084449 1_555
Hf16 Mo3 2.855445 1_555
Hf16 Mo5 2.855446 1_555
Hf16 Si1 3.084442 1_565
Hf17 Mo3 2.855445 1_555
Hf17 Mo4 2.855446 1_555
Hf17 Si1 3.084442 1_455
Hf18 Mo4 2.796273 1_555
Hf18 Mo2 2.796273 1_555
Hf18 Mo5 2.796273 1_445
Hf18 Mo1 2.796273 1_445
Hf18 Mo0 2.796273 1_455
Hf18 Mo3 2.796273 1_545
Hf19 Mo4 2.796273 1_554
Hf19 Mo2 2.796273 1_555
Hf19 Mo5 2.796273 1_444
Hf19 Mo1 2.796273 1_445
Hf19 Mo0 2.796273 1_455
Hf19 Mo3 2.796273 1_544
