# generated using pymatgen
data_GdAg(WO4)2
_symmetry_space_group_name_H-M   'P 1'
_cell_length_a   7.45765650
_cell_length_b   7.45765650
_cell_length_c   7.38149723
_cell_angle_alpha   65.58714018
_cell_angle_beta   65.58714018
_cell_angle_gamma   94.02736234
_symmetry_Int_Tables_number   1
_chemical_formula_structural   GdAg(WO4)2
_chemical_formula_sum   'Gd2 Ag2 W4 O16'
_cell_volume   325.70233852
_cell_formula_units_Z   2
loop_
 _symmetry_equiv_pos_site_id
 _symmetry_equiv_pos_as_xyz
  1  'x, y, z'
loop_
 _atom_site_type_symbol
 _atom_site_label
 _atom_site_symmetry_multiplicity
 _atom_site_fract_x
 _atom_site_fract_y
 _atom_site_fract_z
 _atom_site_occupancy
  Gd  Gd0  1  0.69962000  0.30038000  0.00000000  1
  Gd  Gd1  1  0.30038000  0.69962000  0.00000000  1
  Ag  Ag0  1  0.68507200  0.68507200  0.48243000  1
  Ag  Ag1  1  0.31492800  0.31492800  0.51757000  1
  W  W0  1  0.21155700  0.21155700  0.03298400  1
  W  W1  1  0.78844300  0.78844300  0.96701600  1
  W  W2  1  0.83656900  0.16343100  0.50000000  1
  W  W3  1  0.16343100  0.83656900  0.50000000  1
  O  O0  1  0.35091200  0.10151000  0.24367800  1
  O  O1  1  0.64908800  0.89849000  0.75632200  1
  O  O2  1  0.89849000  0.64908800  0.75632200  1
  O  O3  1  0.10151000  0.35091200  0.24367800  1
  O  O4  1  0.68538900  0.21705100  0.35450800  1
  O  O5  1  0.31461100  0.78294900  0.64549200  1
  O  O6  1  0.78294900  0.31461100  0.64549200  1
  O  O7  1  0.21705100  0.68538900  0.35450800  1
  O  O8  1  0.69915100  0.95714900  0.08530700  1
  O  O9  1  0.30084900  0.04285100  0.91469300  1
  O  O10  1  0.04285100  0.30084900  0.91469300  1
  O  O11  1  0.95714900  0.69915100  0.08530700  1
  O  O12  1  0.97844900  0.97844900  0.34241100  1
  O  O13  1  0.02155100  0.02155100  0.65758900  1
  O  O14  1  0.55710500  0.55710500  0.13687700  1
  O  O15  1  0.44289500  0.44289500  0.86312300  1
loop_
_geom_bond_atom_site_label_1
_geom_bond_atom_site_label_2
_geom_bond_distance
_geom_bond_site_symmetry_2
Gd0 O0 2.363107 1_555
Gd0 O2 2.363107 1_554
Gd0 O10 2.369207 1_654
Gd0 O8 2.369207 1_545
Gd0 O4 2.379502 1_555
Gd0 O6 2.379502 1_554
Gd0 O14 2.610206 1_555
Gd0 O15 2.610206 1_554
Gd1 O1 2.363107 1_554
Gd1 O3 2.363107 1_555
Gd1 O9 2.369207 1_564
Gd1 O11 2.369207 1_455
Gd1 O7 2.379502 1_555
Gd1 O5 2.379502 1_554
Gd1 O14 2.610206 1_555
Gd1 O15 2.610206 1_554
Ag0 O15 2.360436 1_555
Ag0 O12 2.496238 1_555
Ag0 O8 2.742261 1_555
Ag0 O11 2.742261 1_555
Ag0 O6 2.806270 1_555
Ag0 O5 2.806270 1_555
Ag1 O14 2.360436 1_555
Ag1 O13 2.496238 1_555
Ag1 O9 2.742261 1_555
Ag1 O10 2.742261 1_555
Ag1 O7 2.806270 1_555
Ag1 O4 2.806270 1_555
O0 W3 1.942591 1_545
O0 W0 2.138495 1_555
O1 W2 1.942591 1_565
O1 W1 2.138495 1_555
O2 W3 1.942591 1_655
O2 W1 2.138495 1_555
O3 W2 1.942591 1_455
O3 W0 2.138495 1_555
O4 W2 1.814837 1_555
O5 W3 1.814837 1_555
O6 W2 1.814837 1_555
O7 W3 1.814837 1_555
O8 W1 1.825909 1_554
O9 W0 1.825909 1_556
O10 W0 1.825909 1_556
O11 W1 1.825909 1_554
O12 W0 2.066934 1_665
O12 W2 2.211316 1_565
O12 W3 2.211316 1_655
O13 W1 2.066934 1_445
O13 W2 2.211316 1_455
O13 W3 2.211316 1_545
O14 W1 1.879014 1_554
O15 W0 1.879014 1_556
