# generated using pymatgen
data_BaAlSi5N7O2
_symmetry_space_group_name_H-M   'P 1'
_cell_length_a   4.93246200
_cell_length_b   6.82320708
_cell_length_c   6.88222041
_cell_angle_alpha   74.47875450
_cell_angle_beta   69.54018105
_cell_angle_gamma   69.08252734
_symmetry_Int_Tables_number   1
_chemical_formula_structural   BaAlSi5N7O2
_chemical_formula_sum   'Ba1 Al1 Si5 N7 O2'
_cell_volume   199.99268020
_cell_formula_units_Z   1
loop_
 _symmetry_equiv_pos_site_id
 _symmetry_equiv_pos_as_xyz
  1  'x, y, z'
loop_
 _atom_site_type_symbol
 _atom_site_label
 _atom_site_symmetry_multiplicity
 _atom_site_fract_x
 _atom_site_fract_y
 _atom_site_fract_z
 _atom_site_occupancy
  Ba  Ba0  1  0.20034300  0.01149000  0.99403400  1
  Al  Al0  1  0.82232000  0.53143400  0.14712800  1
  Si  Si0  1  0.32145300  0.33520900  0.33386200  1
  Si  Si1  1  0.99086700  0.65843800  0.65847600  1
  Si  Si2  1  0.50344200  0.46445300  0.85468300  1
  Si  Si3  1  0.81412400  0.14412900  0.53593500  1
  Si  Si4  1  0.48753000  0.85933800  0.47642300  1
  N  N0  1  0.23833100  0.45026200  0.09905300  1
  N  N1  1  0.76771800  0.55906300  0.88807400  1
  N  N2  1  0.21413100  0.10156900  0.44924800  1
  N  N3  1  0.77224500  0.89491100  0.54702400  1
  N  N4  1  0.68724100  0.30191700  0.32042400  1
  N  N5  1  0.31378100  0.68606800  0.68374000  1
  N  N6  1  0.63406700  0.22378400  0.77393600  1
  O  O0  1  0.07071700  0.50033400  0.49235800  1
  O  O1  1  0.62005100  0.77760200  0.24560300  1
loop_
_geom_bond_atom_site_label_1
_geom_bond_atom_site_label_2
_geom_bond_distance
_geom_bond_site_symmetry_2
Ba0 N6 2.782517 1_555
Ba0 O1 2.915142 1_546
Al0 O1 1.793289 1_555
Al0 N1 1.845600 1_554
Al0 N0 1.854373 1_655
Al0 N4 1.873166 1_555
N0 Si0 1.717635 1_555
N0 Si2 1.735968 1_554
N1 Si1 1.706369 1_555
N1 Si2 1.748830 1_555
N2 Si4 1.733385 1_545
N2 Si0 1.755961 1_555
N2 Si3 1.787109 1_455
N3 Si1 1.740137 1_555
N3 Si4 1.746638 1_555
N3 Si3 1.763638 1_565
N4 Si0 1.708028 1_555
N4 Si3 1.750390 1_555
N5 Si1 1.740179 1_455
N5 Si4 1.770255 1_555
N5 Si2 1.831120 1_555
N6 Si3 1.697618 1_555
N6 Si2 1.703865 1_555
O0 Si1 1.633344 1_455
O0 Si0 1.645742 1_555
O1 Si4 1.658229 1_555
