# generated using pymatgen
data_Mg9Si5
_symmetry_space_group_name_H-M   'P 1'
_cell_length_a   7.40958500
_cell_length_b   7.56375407
_cell_length_c   11.57188931
_cell_angle_alpha   82.70066482
_cell_angle_beta   76.14471474
_cell_angle_gamma   60.83506519
_symmetry_Int_Tables_number   1
_chemical_formula_structural   Mg9Si5
_chemical_formula_sum   'Mg18 Si10'
_cell_volume   549.79809012
_cell_formula_units_Z   2
loop_
 _symmetry_equiv_pos_site_id
 _symmetry_equiv_pos_as_xyz
  1  'x, y, z'
loop_
 _atom_site_type_symbol
 _atom_site_label
 _atom_site_symmetry_multiplicity
 _atom_site_fract_x
 _atom_site_fract_y
 _atom_site_fract_z
 _atom_site_occupancy
  Mg  Mg0  1  0.01200900  0.29199700  0.28595700  1
  Mg  Mg1  1  0.16827600  0.91437400  0.44459300  1
  Mg  Mg2  1  0.27025300  0.51584100  0.35535700  1
  Mg  Mg3  1  0.92394300  0.34152300  0.54693100  1
  Mg  Mg4  1  0.49225200  0.06359900  0.29406100  1
  Mg  Mg5  1  0.77491100  0.78376700  0.45210100  1
  Mg  Mg6  1  0.02757500  0.71809800  0.82537000  1
  Mg  Mg7  1  0.10056400  0.32124300  0.99178100  1
  Mg  Mg8  1  0.82223500  0.29099200  0.82724900  1
  Mg  Mg9  1  0.37051700  0.58920200  0.95436600  1
  Mg  Mg10  1  0.37372100  0.96903800  0.82860500  1
  Mg  Mg11  1  0.60200000  0.07076800  0.99000800  1
  Mg  Mg12  1  0.35546500  0.18430000  0.57979500  1
  Mg  Mg13  1  0.87243700  0.70241000  0.14885900  1
  Mg  Mg14  1  0.44789600  0.59619800  0.61440400  1
  Mg  Mg15  1  0.67657600  0.36495400  0.14575300  1
  Mg  Mg16  1  0.76003300  0.03029900  0.65300000  1
  Mg  Mg17  1  0.35845100  0.84652000  0.15286200  1
  Si  Si0  1  0.00871800  0.99324600  0.01804700  1
  Si  Si1  1  0.12735300  0.99003100  0.68128500  1
  Si  Si2  1  0.68520500  0.20932100  0.42022700  1
  Si  Si3  1  0.94054400  0.97263500  0.25644800  1
  Si  Si4  1  0.41904800  0.31655500  0.79957700  1
  Si  Si5  1  0.59098200  0.62659200  0.34355600  1
  Si  Si6  1  0.70238000  0.65633300  0.95720700  1
  Si  Si7  1  0.29639800  0.38058900  0.14556000  1
  Si  Si8  1  0.08026400  0.59499700  0.58313200  1
  Si  Si9  1  0.73943200  0.66471600  0.70421100  1
loop_
_geom_bond_atom_site_label_1
_geom_bond_atom_site_label_2
_geom_bond_distance
_geom_bond_site_symmetry_2
Mg0 Si7 2.643630 1_555
Mg0 Si3 2.788350 1_445
Mg0 Si2 2.845311 1_455
Mg0 Si5 2.884276 1_455
Mg0 Mg3 2.965082 1_455
Mg1 Si1 2.784382 1_555
Mg1 Si5 2.857096 1_555
Mg1 Si3 2.927913 1_455
Mg1 Si8 2.980194 1_555
Mg1 Mg3 3.059890 1_465
Mg2 Si8 2.662703 1_555
Mg2 Si7 2.681555 1_555
Mg2 Si5 2.850223 1_555
Mg2 Si2 3.017865 1_555
Mg3 Si8 2.791710 1_655
Mg3 Si9 2.799806 1_555
Mg3 Si1 2.814867 1_645
Mg3 Si2 3.101223 1_555
Mg3 Mg5 3.108096 1_555
Mg3 Mg8 3.167206 1_555
Mg4 Si7 2.750241 1_555
Mg4 Si2 2.887029 1_555
Mg4 Si3 2.975304 1_545
Mg4 Si5 3.025194 1_545
Mg5 Si8 2.720510 1_655
Mg5 Si5 2.761664 1_555
Mg5 Si3 2.868640 1_555
Mg5 Si9 2.930354 1_555
Mg5 Si2 2.944304 1_565
Mg6 Si6 2.739916 1_455
Mg6 Si1 2.752714 1_555
Mg6 Si8 2.943098 1_555
Mg6 Mg9 2.944148 1_555
Mg6 Si4 2.992746 1_555
Mg6 Si9 3.017408 1_455
Mg6 Si0 3.173088 1_556
Mg6 Mg7 3.234004 1_555
Mg7 Si7 2.747401 1_556
Mg7 Si4 2.818096 1_555
Mg7 Si0 2.839929 1_546
Mg7 Si6 2.882372 1_455
Mg8 Si1 2.697830 1_645
Mg8 Si9 2.845955 1_555
Mg8 Si6 2.951416 1_555
Mg8 Si4 2.990689 1_555
Mg8 Si0 3.003431 1_646
Mg9 Si7 2.657437 1_556
Mg9 Si4 2.738229 1_555
Mg9 Si6 2.750510 1_555
Mg9 Si0 2.951338 1_556
Mg10 Si1 2.720851 1_555
Mg10 Si9 2.758222 1_555
Mg10 Si4 2.777922 1_565
Mg10 Si0 2.988893 1_556
Mg10 Si6 2.994443 1_555
Mg11 Si7 2.794097 1_556
Mg11 Si4 2.843114 1_555
Mg11 Si0 2.868563 1_646
Mg11 Si6 2.901423 1_545
Mg11 Mg6 3.302206 1_645
Mg12 Si1 2.725193 1_545
Mg12 Si2 2.759701 1_555
Mg12 Si8 2.761936 1_555
Mg12 Mg3 2.922958 1_455
Mg12 Si4 3.061157 1_555
Mg13 Si3 2.816938 1_555
Mg13 Si7 2.882405 1_655
Mg13 Si5 2.888091 1_555
Mg13 Si6 2.930964 1_554
Mg13 Si0 2.955848 1_655
Mg14 Si1 2.814848 1_555
Mg14 Si8 2.836950 1_555
Mg14 Si4 2.860200 1_555
Mg14 Si9 2.884106 1_555
Mg14 Mg3 3.033629 1_555
Mg14 Si5 3.076235 1_555
Mg14 Mg6 3.262090 1_555
Mg15 Si7 2.761796 1_555
Mg15 Si6 2.939937 1_554
Mg15 Si0 2.952159 1_645
Mg15 Si5 2.964850 1_555
Mg15 Si3 2.974743 1_545
Mg16 Si1 2.683443 1_645
Mg16 Si4 2.738141 1_555
Mg16 Si9 2.823540 1_545
Mg16 Si2 2.907451 1_555
Mg16 Si8 3.044288 1_645
Mg16 Mg6 3.101462 1_645
Mg16 Mg3 3.140275 1_555
Mg17 Si3 2.751207 1_455
Mg17 Si6 2.860238 1_554
Mg17 Si5 2.949569 1_555
Mg17 Si0 3.012300 1_555
Si0 Si3 2.681456 1_455
Si2 Si3 2.493989 1_545
Si8 Si9 2.411232 1_455
