# generated using pymatgen
data_NdTl(WO4)2
_symmetry_space_group_name_H-M   'P 1'
_cell_length_a   5.29415700
_cell_length_b   8.32657300
_cell_length_c   19.04110000
_cell_angle_alpha   90.00000000
_cell_angle_beta   90.00000000
_cell_angle_gamma   90.00000000
_symmetry_Int_Tables_number   1
_chemical_formula_structural   NdTl(WO4)2
_chemical_formula_sum   'Nd4 Tl4 W8 O32'
_cell_volume   839.37328774
_cell_formula_units_Z   4
loop_
 _symmetry_equiv_pos_site_id
 _symmetry_equiv_pos_as_xyz
  1  'x, y, z'
loop_
 _atom_site_type_symbol
 _atom_site_label
 _atom_site_symmetry_multiplicity
 _atom_site_fract_x
 _atom_site_fract_y
 _atom_site_fract_z
 _atom_site_occupancy
  Nd  Nd0  1  0.00000000  0.75000000  0.99307800  1
  Nd  Nd1  1  0.00000000  0.25000000  0.00692200  1
  Nd  Nd2  1  0.50000000  0.25000000  0.50692200  1
  Nd  Nd3  1  0.50000000  0.75000000  0.49307800  1
  Tl  Tl0  1  0.00000000  0.75000000  0.23045600  1
  Tl  Tl1  1  0.00000000  0.25000000  0.76954400  1
  Tl  Tl2  1  0.50000000  0.25000000  0.26954400  1
  Tl  Tl3  1  0.50000000  0.75000000  0.73045600  1
  W  W0  1  0.97868200  0.98249500  0.60068900  1
  W  W1  1  0.02131800  0.01750500  0.39931100  1
  W  W2  1  0.52131800  0.48249500  0.89931100  1
  W  W3  1  0.02131800  0.51750500  0.60068900  1
  W  W4  1  0.47868200  0.51750500  0.10068900  1
  W  W5  1  0.97868200  0.48249500  0.39931100  1
  W  W6  1  0.47868200  0.01750500  0.89931100  1
  W  W7  1  0.52131800  0.98249500  0.10068900  1
  O  O0  1  0.89795900  0.52459300  0.68785000  1
  O  O1  1  0.10204100  0.47540700  0.31215000  1
  O  O2  1  0.60204100  0.02459300  0.81215000  1
  O  O3  1  0.10204100  0.97540700  0.68785000  1
  O  O4  1  0.39795900  0.97540700  0.18785000  1
  O  O5  1  0.89795900  0.02459300  0.31215000  1
  O  O6  1  0.39795900  0.47540700  0.81215000  1
  O  O7  1  0.60204100  0.52459300  0.18785000  1
  O  O8  1  0.72445700  0.65825200  0.90110900  1
  O  O9  1  0.27554300  0.34174800  0.09889100  1
  O  O10  1  0.77554300  0.15825200  0.59889100  1
  O  O11  1  0.27554300  0.84174800  0.90110900  1
  O  O12  1  0.22445700  0.84174800  0.40110900  1
  O  O13  1  0.72445700  0.15825200  0.09889100  1
  O  O14  1  0.22445700  0.34174800  0.59889100  1
  O  O15  1  0.77554300  0.65825200  0.40110900  1
  O  O16  1  0.74424200  0.99666100  0.96442600  1
  O  O17  1  0.25575800  0.00333900  0.03557400  1
  O  O18  1  0.75575800  0.49666100  0.53557400  1
  O  O19  1  0.25575800  0.50333900  0.96442600  1
  O  O20  1  0.24424200  0.50333900  0.46442600  1
  O  O21  1  0.74424200  0.49666100  0.03557400  1
  O  O22  1  0.24424200  0.00333900  0.53557400  1
  O  O23  1  0.75575800  0.99666100  0.46442600  1
  O  O24  1  0.76128600  0.81094300  0.59208700  1
  O  O25  1  0.23871400  0.18905700  0.40791300  1
  O  O26  1  0.73871400  0.31094300  0.90791300  1
  O  O27  1  0.23871400  0.68905700  0.59208700  1
  O  O28  1  0.26128600  0.68905700  0.09208700  1
  O  O29  1  0.76128600  0.31094300  0.40791300  1
  O  O30  1  0.26128600  0.18905700  0.90791300  1
  O  O31  1  0.73871400  0.81094300  0.09208700  1
loop_
_geom_bond_atom_site_label_1
_geom_bond_atom_site_label_2
_geom_bond_distance
_geom_bond_site_symmetry_2
Nd0 O28 2.392723 1_556
Nd0 O31 2.392723 1_456
Nd0 O11 2.403807 1_555
Nd0 O8 2.403807 1_455
Nd0 O16 2.519778 1_455
Nd0 O19 2.519778 1_555
Nd0 O17 2.633989 1_566
Nd0 O21 2.633989 1_456
Nd1 O30 2.392723 1_554
Nd1 O26 2.392723 1_454
Nd1 O9 2.403807 1_555
Nd1 O13 2.403807 1_455
Nd1 O21 2.519778 1_455
Nd1 O17 2.519778 1_555
Nd1 O19 2.633989 1_554
Nd1 O16 2.633989 1_444
Nd2 O29 2.392723 1_555
Nd2 O25 2.392723 1_555
Nd2 O14 2.403807 1_555
Nd2 O10 2.403807 1_555
Nd2 O18 2.519778 1_555
Nd2 O22 2.519778 1_555
Nd2 O20 2.633989 1_555
Nd2 O23 2.633989 1_545
Nd3 O24 2.392723 1_555
Nd3 O27 2.392723 1_555
Nd3 O12 2.403807 1_555
Nd3 O15 2.403807 1_555
Nd3 O23 2.519778 1_555
Nd3 O20 2.519778 1_555
Nd3 O22 2.633989 1_565
Nd3 O18 2.633989 1_555
O0 W3 1.784491 1_655
O0 Tl1 2.817670 1_655
O1 W5 1.784491 1_455
O1 Tl0 2.817670 1_555
O2 W6 1.784491 1_555
O2 Tl3 2.817670 1_545
O3 W0 1.784491 1_455
O3 Tl1 2.817670 1_565
O4 W7 1.784491 1_555
O4 Tl2 2.817670 1_565
O5 W1 1.784491 1_655
O5 Tl0 2.817670 1_645
O6 W2 1.784491 1_555
O6 Tl3 2.817670 1_555
O7 W4 1.784491 1_555
O7 Tl2 2.817670 1_555
O8 W2 1.816442 1_555
O9 W4 1.816442 1_555
O10 W0 1.816442 1_545
O11 W6 1.816442 1_565
O12 W1 1.816442 1_565
O13 W7 1.816442 1_545
O14 W3 1.816442 1_555
O15 W5 1.816442 1_555
O16 W6 1.882546 1_565
O17 W7 1.882546 1_545
O18 W3 1.882546 1_655
O19 W2 1.882546 1_555
O20 W5 1.882546 1_455
O21 W4 1.882546 1_555
O22 W0 1.882546 1_445
O23 W1 1.882546 1_665
O24 W0 1.841713 1_555
O25 W1 1.841713 1_555
O26 W2 1.841713 1_555
O27 W3 1.841713 1_555
O28 W4 1.841713 1_555
O29 W5 1.841713 1_555
O30 W6 1.841713 1_555
O31 W7 1.841713 1_555
