# generated using pymatgen
data_NaLi2FePCO7
_symmetry_space_group_name_H-M   'P 1'
_cell_length_a   6.57355700
_cell_length_b   8.68276325
_cell_length_c   10.22044440
_cell_angle_alpha   87.29457277
_cell_angle_beta   89.70034689
_cell_angle_gamma   89.22258524
_symmetry_Int_Tables_number   1
_chemical_formula_structural   NaLi2FePCO7
_chemical_formula_sum   'Na4 Li8 Fe4 P4 C4 O28'
_cell_volume   582.63863285
_cell_formula_units_Z   4
loop_
 _symmetry_equiv_pos_site_id
 _symmetry_equiv_pos_as_xyz
  1  'x, y, z'
loop_
 _atom_site_type_symbol
 _atom_site_label
 _atom_site_symmetry_multiplicity
 _atom_site_fract_x
 _atom_site_fract_y
 _atom_site_fract_z
 _atom_site_occupancy
  Na  Na0  1  0.75412200  0.91381200  0.12059500  1
  Na  Na1  1  0.76616700  0.91438000  0.62126100  1
  Na  Na2  1  0.49646800  0.74521800  0.87823800  1
  Na  Na3  1  0.49747700  0.25624400  0.62453400  1
  Li  Li0  1  0.97120700  0.71986200  0.38181300  1
  Li  Li1  1  0.53247200  0.72055100  0.38138400  1
  Li  Li2  1  0.97072000  0.71787400  0.88951900  1
  Li  Li3  1  0.47723700  0.27232000  0.11859700  1
  Li  Li4  1  0.01682800  0.27069700  0.11957900  1
  Li  Li5  1  0.02587200  0.27660700  0.61972800  1
  Li  Li6  1  0.23991200  0.09089100  0.37288200  1
  Li  Li7  1  0.21941300  0.09746900  0.87748800  1
  Fe  Fe0  1  0.24108800  0.65079000  0.11729100  1
  Fe  Fe1  1  0.25343700  0.65444300  0.60226500  1
  Fe  Fe2  1  0.76036000  0.34278300  0.38888400  1
  Fe  Fe3  1  0.75041800  0.34841300  0.89477900  1
  P  P0  1  0.74580600  0.58132800  0.14874400  1
  P  P1  1  0.76347200  0.58119000  0.63944600  1
  P  P2  1  0.25360100  0.41080800  0.34936500  1
  P  P3  1  0.24078300  0.41691800  0.85871300  1
  C  C0  1  0.24764400  0.96347700  0.13677100  1
  C  C1  1  0.23912900  0.95788900  0.64126000  1
  C  C2  1  0.75393900  0.04303400  0.36092600  1
  C  C3  1  0.76186400  0.05084600  0.86218700  1
  O  O0  1  0.74462700  0.89344500  0.35545700  1
  O  O1  1  0.77860800  0.90194700  0.85458100  1
  O  O2  1  0.25129300  0.92865900  0.01448100  1
  O  O3  1  0.24790000  0.92598400  0.51846600  1
  O  O4  1  0.23537700  0.85337300  0.22773800  1
  O  O5  1  0.24890100  0.84548800  0.73067100  1
  O  O6  1  0.92750700  0.67511600  0.09172800  1
  O  O7  1  0.55489500  0.67675800  0.10682600  1
  O  O8  1  0.94194500  0.68100900  0.58295400  1
  O  O9  1  0.56740100  0.66996000  0.59097800  1
  O  O10  1  0.75796600  0.57100700  0.30245500  1
  O  O11  1  0.25305000  0.57744200  0.39864200  1
  O  O12  1  0.76989200  0.57267300  0.79228800  1
  O  O13  1  0.22717600  0.57770000  0.91681200  1
  O  O14  1  0.74322500  0.41553800  0.09867900  1
  O  O15  1  0.23790100  0.42189400  0.19617400  1
  O  O16  1  0.77388100  0.41714900  0.58867200  1
  O  O17  1  0.23162100  0.43336600  0.70621900  1
  O  O18  1  0.44754700  0.31790100  0.38963200  1
  O  O19  1  0.07690400  0.31088100  0.40778500  1
  O  O20  1  0.43703000  0.32654300  0.90242300  1
  O  O21  1  0.06518500  0.31031300  0.91092100  1
  O  O22  1  0.76938200  0.13148400  0.25519100  1
  O  O23  1  0.75583800  0.14105900  0.75699800  1
  O  O24  1  0.74895000  0.10769400  0.47301000  1
  O  O25  1  0.75094100  0.11259300  0.97542700  1
  O  O26  1  0.25513500  0.10609400  0.17067400  1
  O  O27  1  0.22049100  0.09908800  0.67786700  1
loop_
_geom_bond_atom_site_label_1
_geom_bond_atom_site_label_2
_geom_bond_distance
_geom_bond_site_symmetry_2
Na0 O25 2.222232 1_564
Na0 O6 2.381516 1_555
Na0 O22 2.393017 1_565
Na0 O0 2.399108 1_555
Na0 O7 2.464525 1_555
Na0 O1 2.729415 1_554
Na1 O24 2.209644 1_565
Na1 O8 2.366637 1_555
Na1 O1 2.383762 1_555
Na1 O23 2.460925 1_565
Na1 O9 2.539367 1_555
Na1 O0 2.735788 1_555
Na2 O1 2.320099 1_555
Na2 O13 2.326611 1_555
Na2 O5 2.354641 1_555
Na2 O7 2.414768 1_556
Na2 O12 2.506264 1_555
Na2 O2 2.681345 1_556
Na3 O16 2.324036 1_555
Na3 O27 2.336918 1_555
Na3 O23 2.359590 1_555
Na3 O18 2.457707 1_555
Na3 O17 2.479785 1_555
Na3 O24 2.626503 1_555
Li0 O8 2.075830 1_555
Li0 O10 2.110273 1_555
Li0 O0 2.113653 1_555
Li0 O11 2.216390 1_655
Li0 O4 2.587050 1_655
Li1 O0 2.069819 1_555
Li1 O10 2.137308 1_555
Li1 O9 2.178999 1_555
Li1 O11 2.233114 1_555
Li2 O1 2.042751 1_555
Li2 O13 2.078063 1_655
Li2 O6 2.100933 1_556
Li2 O12 2.120607 1_555
Li3 O26 2.115311 1_555
Li3 O14 2.162497 1_555
Li3 O15 2.195281 1_555
Li3 O20 2.253325 1_554
Li4 O15 2.146830 1_555
Li4 O26 2.155618 1_555
Li4 O21 2.166536 1_554
Li4 O14 2.186156 1_455
Li4 O22 2.428902 1_455
Li5 O27 2.057558 1_555
Li5 O16 2.061034 1_455
Li5 O17 2.153908 1_555
Li5 O19 2.197172 1_555
Li5 O23 2.525699 1_455
Li6 O3 2.016072 1_545
Li6 O26 2.066627 1_555
Li6 O19 2.220091 1_555
Li6 O18 2.425839 1_555
Li6 O4 2.597218 1_545
Li7 O2 1.988383 1_546
Li7 O27 2.039576 1_555
Li7 O21 2.136616 1_555
Li7 O20 2.489238 1_555
Fe0 O7 2.079802 1_555
Fe0 O6 2.085813 1_455
Fe0 O15 2.109520 1_555
Fe0 O4 2.134211 1_555
Fe0 O13 2.176175 1_554
Fe0 O2 2.587260 1_555
Fe1 O8 2.066877 1_455
Fe1 O9 2.072334 1_555
Fe1 O17 2.155791 1_555
Fe1 O5 2.162999 1_555
Fe1 O11 2.215741 1_555
Fe1 O3 2.470040 1_555
Fe2 O18 2.070462 1_555
Fe2 O19 2.104131 1_655
Fe2 O10 2.131055 1_555
Fe2 O16 2.173062 1_555
Fe2 O24 2.179284 1_555
Fe2 O22 2.338675 1_555
Fe3 O20 2.072100 1_555
Fe3 O21 2.097101 1_655
Fe3 O25 2.170822 1_555
Fe3 O12 2.172104 1_555
Fe3 O14 2.190354 1_556
Fe3 O23 2.337259 1_555
C0 O2 1.299721 1_555
C0 O26 1.303165 1_565
C0 O4 1.304698 1_555
C1 O3 1.298747 1_555
C1 O27 1.302616 1_565
C1 O5 1.306291 1_555
C2 O24 1.299376 1_555
C2 O22 1.300215 1_555
C2 O0 1.304959 1_545
C3 O25 1.299518 1_555
C3 O23 1.300394 1_555
C3 O1 1.301986 1_545
O6 P0 1.550381 1_555
O7 P0 1.545621 1_555
O8 P1 1.560195 1_555
O9 P1 1.563448 1_555
O10 P0 1.571710 1_555
O11 P2 1.554234 1_555
O12 P1 1.561136 1_555
O13 P3 1.543960 1_555
O14 P0 1.550678 1_555
O15 P2 1.567949 1_555
O16 P1 1.539301 1_555
O17 P3 1.559762 1_555
O18 P2 1.546534 1_555
O19 P2 1.558731 1_555
O20 P3 1.557243 1_555
O21 P3 1.565197 1_555
