# generated using pymatgen
data_Th2SiGe
_symmetry_space_group_name_H-M   'P 1'
_cell_length_a   4.26016300
_cell_length_b   5.94508400
_cell_length_c   7.92924900
_cell_angle_alpha   90.00000000
_cell_angle_beta   90.00000000
_cell_angle_gamma   90.00000000
_symmetry_Int_Tables_number   1
_chemical_formula_structural   Th2SiGe
_chemical_formula_sum   'Th4 Si2 Ge2'
_cell_volume   200.82430263
_cell_formula_units_Z   2
loop_
 _symmetry_equiv_pos_site_id
 _symmetry_equiv_pos_as_xyz
  1  'x, y, z'
loop_
 _atom_site_type_symbol
 _atom_site_label
 _atom_site_symmetry_multiplicity
 _atom_site_fract_x
 _atom_site_fract_y
 _atom_site_fract_z
 _atom_site_occupancy
  Th  Th0  1  0.00000000  0.11934300  0.68138400  1
  Th  Th1  1  0.00000000  0.88065700  0.18138400  1
  Th  Th2  1  0.50000000  0.37563000  0.32032900  1
  Th  Th3  1  0.50000000  0.62437000  0.82032900  1
  Si  Si0  1  0.50000000  0.89301100  0.45675200  1
  Si  Si1  1  0.50000000  0.10698900  0.95675200  1
  Ge  Ge0  1  0.00000000  0.60997600  0.54153500  1
  Ge  Ge1  1  0.00000000  0.39002400  0.04153500  1
loop_
_geom_bond_atom_site_label_1
_geom_bond_atom_site_label_2
_geom_bond_distance
_geom_bond_site_symmetry_2
Si0 Th1 3.051253 1_555
Si0 Th1 3.051253 1_655
Si0 Th2 3.066352 1_565
Si0 Th0 3.085503 1_565
Si0 Th0 3.085503 1_665
Si0 Th2 3.260543 1_555
Si0 Th3 3.295721 1_555
Si1 Th0 3.051253 1_555
Si1 Th0 3.051253 1_655
Si1 Th3 3.066352 1_545
Si1 Th1 3.085503 1_546
Si1 Th1 3.085503 1_646
Si1 Th3 3.260543 1_555
Si1 Th2 3.295721 1_556
Ge0 Si0 2.796526 1_555
Ge0 Si0 2.796526 1_455
Ge0 Th3 3.071065 1_555
Ge0 Th3 3.071065 1_455
Ge0 Th2 3.091081 1_455
Ge0 Th2 3.091081 1_555
Ge0 Th0 3.120528 1_555
Ge0 Th0 3.224876 1_565
Ge0 Th1 3.277922 1_555
Ge1 Si1 2.796526 1_554
Ge1 Si1 2.796526 1_454
Ge1 Th2 3.071065 1_455
Ge1 Th2 3.071065 1_555
Ge1 Th3 3.091081 1_454
Ge1 Th3 3.091081 1_554
Ge1 Th1 3.120528 1_555
Ge1 Th1 3.224876 1_545
Ge1 Th0 3.277922 1_554
