# generated using pymatgen
data_V3Ga2N
_symmetry_space_group_name_H-M   'P 1'
_cell_length_a   6.61083400
_cell_length_b   6.61083400
_cell_length_c   6.61083400
_cell_angle_alpha   90.00000000
_cell_angle_beta   90.00000000
_cell_angle_gamma   90.00000000
_symmetry_Int_Tables_number   1
_chemical_formula_structural   V3Ga2N
_chemical_formula_sum   'V12 Ga8 N4'
_cell_volume   288.91411243
_cell_formula_units_Z   4
loop_
 _symmetry_equiv_pos_site_id
 _symmetry_equiv_pos_as_xyz
  1  'x, y, z'
loop_
 _atom_site_type_symbol
 _atom_site_label
 _atom_site_symmetry_multiplicity
 _atom_site_fract_x
 _atom_site_fract_y
 _atom_site_fract_z
 _atom_site_occupancy
  V  V0  1  0.79211300  0.95788700  0.37500000  1
  V  V1  1  0.70788700  0.04211300  0.87500000  1
  V  V2  1  0.20788700  0.45788700  0.12500000  1
  V  V3  1  0.29211300  0.54211300  0.62500000  1
  V  V4  1  0.95788700  0.37500000  0.79211300  1
  V  V5  1  0.04211300  0.87500000  0.70788700  1
  V  V6  1  0.45788700  0.12500000  0.20788700  1
  V  V7  1  0.54211300  0.62500000  0.29211300  1
  V  V8  1  0.37500000  0.79211300  0.95788700  1
  V  V9  1  0.87500000  0.70788700  0.04211300  1
  V  V10  1  0.12500000  0.20788700  0.45788700  1
  V  V11  1  0.62500000  0.29211300  0.54211300  1
  Ga  Ga0  1  0.18104000  0.81896000  0.31896000  1
  Ga  Ga1  1  0.31896000  0.18104000  0.81896000  1
  Ga  Ga2  1  0.81896000  0.31896000  0.18104000  1
  Ga  Ga3  1  0.68104000  0.68104000  0.68104000  1
  Ga  Ga4  1  0.56896000  0.43104000  0.93104000  1
  Ga  Ga5  1  0.43104000  0.93104000  0.56896000  1
  Ga  Ga6  1  0.93104000  0.56896000  0.43104000  1
  Ga  Ga7  1  0.06896000  0.06896000  0.06896000  1
  N  N0  1  0.87500000  0.12500000  0.62500000  1
  N  N1  1  0.62500000  0.87500000  0.12500000  1
  N  N2  1  0.12500000  0.62500000  0.87500000  1
  N  N3  1  0.37500000  0.37500000  0.37500000  1
loop_
_geom_bond_atom_site_label_1
_geom_bond_atom_site_label_2
_geom_bond_distance
_geom_bond_site_symmetry_2
Ga0 Ga6 2.451915 1_455
Ga0 Ga7 2.451915 1_565
Ga0 Ga5 2.451915 1_555
Ga0 V7 2.715395 1_555
Ga0 V2 2.715395 1_555
Ga0 V8 2.715395 1_554
Ga0 V5 2.755262 1_555
Ga0 V0 2.755262 1_455
Ga0 V10 2.755262 1_565
Ga0 V6 2.825248 1_565
Ga0 V3 2.825248 1_555
Ga0 V9 2.825248 1_455
Ga1 Ga5 2.451915 1_545
Ga1 Ga7 2.451915 1_556
Ga1 Ga4 2.451915 1_555
Ga1 V3 2.715395 1_555
Ga1 V10 2.715395 1_555
Ga1 V4 2.715395 1_455
Ga1 V1 2.755262 1_555
Ga1 V8 2.755262 1_545
Ga1 V6 2.755262 1_556
Ga1 V2 2.825248 1_556
Ga1 V11 2.825248 1_555
Ga1 V5 2.825248 1_545
Ga2 Ga4 2.451915 1_554
Ga2 Ga7 2.451915 1_655
Ga2 Ga6 2.451915 1_555
Ga2 V11 2.715395 1_555
Ga2 V6 2.715395 1_555
Ga2 V0 2.715395 1_545
Ga2 V9 2.755262 1_555
Ga2 V4 2.755262 1_554
Ga2 V2 2.755262 1_655
Ga2 V10 2.825248 1_655
Ga2 V7 2.825248 1_555
Ga2 V1 2.825248 1_554
Ga3 Ga4 2.451915 1_555
Ga3 Ga6 2.451915 1_555
Ga3 Ga5 2.451915 1_555
Ga3 V5 2.715395 1_655
Ga3 V1 2.715395 1_565
Ga3 V9 2.715395 1_556
Ga3 V3 2.755262 1_555
Ga3 V11 2.755262 1_555
Ga3 V7 2.755262 1_555
Ga3 V8 2.825248 1_555
Ga3 V0 2.825248 1_555
Ga3 V4 2.825248 1_555
Ga4 V8 2.715395 1_555
Ga4 V7 2.715395 1_556
Ga4 V2 2.715395 1_556
Ga4 V4 2.755262 1_555
Ga4 V1 2.755262 1_555
Ga4 V11 2.755262 1_555
Ga4 V9 2.825248 1_556
Ga4 V6 2.825248 1_556
Ga4 V3 2.825248 1_555
Ga5 V0 2.715395 1_555
Ga5 V11 2.715395 1_565
Ga5 V6 2.715395 1_565
Ga5 V8 2.755262 1_555
Ga5 V5 2.755262 1_555
Ga5 V3 2.755262 1_555
Ga5 V1 2.825248 1_565
Ga5 V10 2.825248 1_565
Ga5 V7 2.825248 1_555
Ga6 V4 2.715395 1_555
Ga6 V3 2.715395 1_655
Ga6 V10 2.715395 1_655
Ga6 V0 2.755262 1_555
Ga6 V9 2.755262 1_555
Ga6 V7 2.755262 1_555
Ga6 V5 2.825248 1_655
Ga6 V2 2.825248 1_655
Ga6 V11 2.825248 1_555
Ga7 V5 2.715395 1_544
Ga7 V1 2.715395 1_454
Ga7 V9 2.715395 1_445
Ga7 V2 2.755262 1_555
Ga7 V6 2.755262 1_555
Ga7 V10 2.755262 1_555
Ga7 V0 2.825248 1_445
Ga7 V4 2.825248 1_454
Ga7 V8 2.825248 1_544
N0 V4 2.062082 1_555
N0 V5 2.062082 1_645
N0 V11 2.062082 1_555
N0 V10 2.062082 1_655
N0 V0 2.062082 1_545
N0 V1 2.062082 1_555
N1 V0 2.062082 1_555
N1 V1 2.062082 1_564
N1 V6 2.062082 1_565
N1 V7 2.062082 1_555
N1 V9 2.062082 1_555
N1 V8 2.062082 1_554
N2 V8 2.062082 1_555
N2 V9 2.062082 1_456
N2 V3 2.062082 1_555
N2 V2 2.062082 1_556
N2 V4 2.062082 1_455
N2 V5 2.062082 1_555
N3 V10 2.062082 1_555
N3 V3 2.062082 1_555
N3 V11 2.062082 1_555
N3 V7 2.062082 1_555
N3 V2 2.062082 1_555
N3 V6 2.062082 1_555
