# generated using pymatgen
data_Rb2Cu(Cl2O)2
_symmetry_space_group_name_H-M   'P 1'
_cell_length_a   7.41241300
_cell_length_b   7.41241300
_cell_length_c   8.63527200
_cell_angle_alpha   90.00000000
_cell_angle_beta   90.00000000
_cell_angle_gamma   90.00000000
_symmetry_Int_Tables_number   1
_chemical_formula_structural   Rb2Cu(Cl2O)2
_chemical_formula_sum   'Rb4 Cu2 Cl8 O4'
_cell_volume   474.45523181
_cell_formula_units_Z   2
loop_
 _symmetry_equiv_pos_site_id
 _symmetry_equiv_pos_as_xyz
  1  'x, y, z'
loop_
 _atom_site_type_symbol
 _atom_site_label
 _atom_site_symmetry_multiplicity
 _atom_site_fract_x
 _atom_site_fract_y
 _atom_site_fract_z
 _atom_site_occupancy
  Rb  Rb0  1  0.00000000  0.50000000  0.25000000  1
  Rb  Rb1  1  0.00000000  0.50000000  0.75000000  1
  Rb  Rb2  1  0.50000000  0.00000000  0.25000000  1
  Rb  Rb3  1  0.50000000  0.00000000  0.75000000  1
  Cu  Cu0  1  0.00000000  0.00000000  0.00000000  1
  Cu  Cu1  1  0.50000000  0.50000000  0.50000000  1
  Cl  Cl0  1  0.21225200  0.21225200  0.00000000  1
  Cl  Cl1  1  0.78774800  0.78774800  0.00000000  1
  Cl  Cl2  1  0.28774800  0.71225200  0.50000000  1
  Cl  Cl3  1  0.71225200  0.28774800  0.50000000  1
  Cl  Cl4  1  0.27780500  0.72219500  0.00000000  1
  Cl  Cl5  1  0.72219500  0.27780500  0.00000000  1
  Cl  Cl6  1  0.77780500  0.77780500  0.50000000  1
  Cl  Cl7  1  0.22219500  0.22219500  0.50000000  1
  O  O0  1  0.00000000  0.00000000  0.20423300  1
  O  O1  1  0.00000000  0.00000000  0.79576700  1
  O  O2  1  0.50000000  0.50000000  0.70423300  1
  O  O3  1  0.50000000  0.50000000  0.29576700  1
loop_
_geom_bond_atom_site_label_1
_geom_bond_atom_site_label_2
_geom_bond_distance
_geom_bond_site_symmetry_2
Cu0 O0 1.763608 1_555
Cu0 O1 1.763608 1_554
Cu1 O3 1.763608 1_555
Cu1 O2 1.763608 1_555
Cl0 Cu0 2.224981 1_555
Cl0 Rb1 3.418342 1_554
Cl0 Rb0 3.418342 1_555
Cl0 Rb3 3.418342 1_554
Cl0 Rb2 3.418342 1_555
Cl1 Cu0 2.224981 1_665
Cl1 Rb1 3.418342 1_654
Cl1 Rb0 3.418342 1_655
Cl1 Rb3 3.418342 1_564
Cl1 Rb2 3.418342 1_565
Cl2 Cu1 2.224981 1_555
Cl2 Rb3 3.418342 1_565
Cl2 Rb0 3.418342 1_555
Cl2 Rb2 3.418342 1_565
Cl2 Rb1 3.418342 1_555
Cl3 Cu1 2.224981 1_555
Cl3 Rb3 3.418342 1_555
Cl3 Rb0 3.418342 1_655
Cl3 Rb1 3.418342 1_655
Cl3 Rb2 3.418342 1_555
Cl4 Cu0 2.912156 1_565
Cl4 Rb3 3.407849 1_564
Cl4 Rb2 3.407849 1_565
Cl4 Rb0 3.407849 1_555
Cl4 Rb1 3.407849 1_554
Cl5 Cu0 2.912156 1_655
Cl5 Rb0 3.407849 1_655
Cl5 Rb2 3.407849 1_555
Cl5 Rb3 3.407849 1_554
Cl5 Rb1 3.407849 1_654
Cl6 Cu1 2.912156 1_555
Cl6 Rb0 3.407849 1_655
Cl6 Rb1 3.407849 1_655
Cl6 Rb2 3.407849 1_565
Cl6 Rb3 3.407849 1_565
Cl7 Cu1 2.912156 1_555
Cl7 Rb0 3.407849 1_555
Cl7 Rb2 3.407849 1_555
Cl7 Rb1 3.407849 1_555
Cl7 Rb3 3.407849 1_555
