# generated using pymatgen
data_BaEuNbSnO6
_symmetry_space_group_name_H-M   'P 1'
_cell_length_a   8.59846868
_cell_length_b   8.54157569
_cell_length_c   8.35847356
_cell_angle_alpha   90.00000000
_cell_angle_beta   90.00000000
_cell_angle_gamma   90.00000000
_symmetry_Int_Tables_number   1
_chemical_formula_structural   BaEuNbSnO6
_chemical_formula_sum   'Ba4 Eu4 Nb4 Sn4 O24'
_cell_volume   613.88366939
_cell_formula_units_Z   4
loop_
 _symmetry_equiv_pos_site_id
 _symmetry_equiv_pos_as_xyz
  1  'x, y, z'
loop_
 _atom_site_type_symbol
 _atom_site_label
 _atom_site_symmetry_multiplicity
 _atom_site_fract_x
 _atom_site_fract_y
 _atom_site_fract_z
 _atom_site_occupancy
  Ba  Ba0  1  0.00000000  0.00000000  -0.00000000  1
  Ba  Ba1  1  0.50000000  0.50000000  0.50000000  1
  Ba  Ba2  1  0.50000000  0.00000000  0.50000000  1
  Ba  Ba3  1  0.00000000  0.50000000  -0.00000000  1
  Eu  Eu0  1  0.00000000  0.50000000  0.50000000  1
  Eu  Eu1  1  0.50000000  0.50000000  -0.00000000  1
  Eu  Eu2  1  0.50000000  0.00000000  -0.00000000  1
  Eu  Eu3  1  0.00000000  0.00000000  0.50000000  1
  Nb  Nb0  1  0.75000000  0.75000000  0.75000000  1
  Nb  Nb1  1  0.25000000  0.25000000  0.75000000  1
  Nb  Nb2  1  0.25000000  0.75000000  0.25000000  1
  Nb  Nb3  1  0.75000000  0.25000000  0.25000000  1
  Sn  Sn0  1  0.25000000  0.25000000  0.25000000  1
  Sn  Sn1  1  0.75000000  0.75000000  0.25000000  1
  Sn  Sn2  1  0.75000000  0.25000000  0.75000000  1
  Sn  Sn3  1  0.25000000  0.75000000  0.75000000  1
  O  O0  1  0.98264123  0.19628999  0.29491049  1
  O  O1  1  0.01735877  0.80371001  0.29491049  1
  O  O2  1  0.01735877  0.19628999  0.70508951  1
  O  O3  1  0.98264123  0.80371001  0.70508951  1
  O  O4  1  0.29460939  0.98240655  0.19601409  1
  O  O5  1  0.29460939  0.01759345  0.80398591  1
  O  O6  1  0.70539061  0.01759345  0.19601409  1
  O  O7  1  0.70539061  0.98240655  0.80398591  1
  O  O8  1  0.20448654  0.28701849  0.98037895  1
  O  O9  1  0.79551346  0.28701849  0.01962105  1
  O  O10  1  0.20448654  0.71298151  0.01962105  1
  O  O11  1  0.79551346  0.71298151  0.98037895  1
  O  O12  1  0.51735877  0.30371001  0.20508951  1
  O  O13  1  0.48264123  0.69628999  0.20508951  1
  O  O14  1  0.48264123  0.30371001  0.79491049  1
  O  O15  1  0.51735877  0.69628999  0.79491049  1
  O  O16  1  0.20539061  0.51759345  0.30398591  1
  O  O17  1  0.20539061  0.48240655  0.69601409  1
  O  O18  1  0.79460939  0.48240655  0.30398591  1
  O  O19  1  0.79460939  0.51759345  0.69601409  1
  O  O20  1  0.29551346  0.21298151  0.51962105  1
  O  O21  1  0.70448654  0.21298151  0.48037895  1
  O  O22  1  0.29551346  0.78701849  0.48037895  1
  O  O23  1  0.70448654  0.78701849  0.51962105  1
loop_
_geom_bond_atom_site_label_1
_geom_bond_atom_site_label_2
_geom_bond_distance
_geom_bond_site_symmetry_2
Ba0 O0 2.984893 1_455
Ba0 O3 2.984893 1_444
Ba0 O2 2.984893 1_554
Ba0 O1 2.984893 1_545
Ba0 O5 3.020582 1_554
Ba0 O7 3.020582 1_444
Ba0 O6 3.020582 1_455
Ba0 O4 3.020582 1_545
Ba0 O10 3.021375 1_545
Ba0 O8 3.021375 1_554
Ba0 O11 3.021375 1_444
Ba0 O9 3.021375 1_455
Ba1 O14 2.984893 1_555
Ba1 O12 2.984893 1_555
Ba1 O15 2.984893 1_555
Ba1 O13 2.984893 1_555
Ba1 O16 3.020582 1_555
Ba1 O17 3.020582 1_555
Ba1 O19 3.020582 1_555
Ba1 O18 3.020582 1_555
Ba1 O22 3.021375 1_555
Ba1 O20 3.021375 1_555
Ba1 O23 3.021375 1_555
Ba1 O21 3.021375 1_555
Ba2 O22 2.535329 1_545
Ba2 O21 2.535329 1_555
Ba2 O23 2.535329 1_545
Ba2 O20 2.535329 1_555
Ba2 O5 3.097976 1_555
Ba2 O4 3.097976 1_545
Ba2 O7 3.097976 1_545
Ba2 O6 3.097976 1_555
Ba3 O10 2.535329 1_555
Ba3 O11 2.535329 1_454
Ba3 O8 2.535329 1_554
Ba3 O9 2.535329 1_455
Ba3 O16 3.097976 1_555
Ba3 O17 3.097976 1_554
Ba3 O18 3.097976 1_455
Ba3 O19 3.097976 1_454
Eu0 O18 2.413666 1_455
Eu0 O16 2.413666 1_555
Eu0 O19 2.413666 1_455
Eu0 O17 2.413666 1_555
Eu1 O15 2.402489 1_554
Eu1 O12 2.402489 1_555
Eu1 O14 2.402489 1_554
Eu1 O13 2.402489 1_555
Eu2 O4 2.413666 1_545
Eu2 O5 2.413666 1_554
Eu2 O6 2.413666 1_555
Eu2 O7 2.413666 1_544
Eu3 O3 2.402489 1_445
Eu3 O2 2.402489 1_555
Eu3 O0 2.402489 1_455
Eu3 O1 2.402489 1_545
Nb0 O11 1.990259 1_555
Nb0 O23 1.990259 1_555
Nb0 O7 2.071579 1_555
Nb0 O19 2.071579 1_555
Nb0 O15 2.086340 1_555
Nb0 O3 2.086340 1_555
Nb1 O20 1.990259 1_555
Nb1 O8 1.990259 1_555
Nb1 O5 2.071579 1_555
Nb1 O17 2.071579 1_555
Nb1 O2 2.086340 1_555
Nb1 O14 2.086340 1_555
Nb2 O10 1.990259 1_555
Nb2 O22 1.990259 1_555
Nb2 O16 2.071579 1_555
Nb2 O4 2.071579 1_555
Nb2 O13 2.086340 1_555
Nb2 O1 2.086340 1_555
Nb3 O9 1.990259 1_555
Nb3 O21 1.990259 1_555
Nb3 O6 2.071579 1_555
Nb3 O18 2.071579 1_555
Nb3 O0 2.086340 1_555
Nb3 O12 2.086340 1_555
O0 Sn0 2.374071 1_655
O1 Sn1 2.374071 1_455
O2 Sn2 2.374071 1_455
O3 Sn3 2.374071 1_655
O4 Sn0 2.361150 1_565
O5 Sn3 2.361150 1_545
O6 Sn1 2.361150 1_545
O7 Sn2 2.361150 1_565
O8 Sn0 2.309099 1_556
O9 Sn2 2.309099 1_554
O10 Sn3 2.309099 1_554
O11 Sn1 2.309099 1_556
O12 Sn0 2.374071 1_555
O13 Sn1 2.374071 1_555
O14 Sn2 2.374071 1_555
O15 Sn3 2.374071 1_555
O16 Sn0 2.361150 1_555
O17 Sn3 2.361150 1_555
O18 Sn1 2.361150 1_555
O19 Sn2 2.361150 1_555
O20 Sn0 2.309099 1_555
O21 Sn2 2.309099 1_555
O22 Sn3 2.309099 1_555
O23 Sn1 2.309099 1_555
