# generated using pymatgen
data_Fe6Ge2N
_symmetry_space_group_name_H-M   'P 1'
_cell_length_a   3.76479900
_cell_length_b   3.76479900
_cell_length_c   7.13094800
_cell_angle_alpha   90.00000000
_cell_angle_beta   90.00000000
_cell_angle_gamma   90.00000000
_symmetry_Int_Tables_number   1
_chemical_formula_structural   Fe6Ge2N
_chemical_formula_sum   'Fe6 Ge2 N1'
_cell_volume   101.07199975
_cell_formula_units_Z   1
loop_
 _symmetry_equiv_pos_site_id
 _symmetry_equiv_pos_as_xyz
  1  'x, y, z'
loop_
 _atom_site_type_symbol
 _atom_site_label
 _atom_site_symmetry_multiplicity
 _atom_site_fract_x
 _atom_site_fract_y
 _atom_site_fract_z
 _atom_site_occupancy
  Fe  Fe0  1  0.50000000  0.00000000  0.00000000  1
  Fe  Fe1  1  0.50000000  0.00000000  0.50000000  1
  Fe  Fe2  1  0.00000000  0.50000000  0.00000000  1
  Fe  Fe3  1  0.00000000  0.50000000  0.50000000  1
  Fe  Fe4  1  0.00000000  0.00000000  0.73291600  1
  Fe  Fe5  1  0.00000000  0.00000000  0.26708400  1
  Ge  Ge0  1  0.50000000  0.50000000  0.74419400  1
  Ge  Ge1  1  0.50000000  0.50000000  0.25580600  1
  N  N0  1  0.00000000  0.00000000  0.00000000  1
loop_
_geom_bond_atom_site_label_1
_geom_bond_atom_site_label_2
_geom_bond_distance
_geom_bond_site_symmetry_2
Fe0 N0 1.882400 1_555
Fe0 N0 1.882400 1_655
Fe0 Ge1 2.621242 1_555
Fe0 Ge1 2.621242 1_545
Fe0 Ge0 2.621242 1_544
Fe0 Ge0 2.621242 1_554
Fe1 Fe4 2.510390 1_555
Fe1 Fe5 2.510390 1_555
Fe1 Fe4 2.510390 1_655
Fe1 Fe5 2.510390 1_655
Fe1 Ge0 2.564308 1_545
Fe1 Ge0 2.564308 1_555
Fe1 Ge1 2.564308 1_545
Fe1 Ge1 2.564308 1_555
Fe1 Fe3 2.662115 1_555
Fe1 Fe3 2.662115 1_655
Fe1 Fe3 2.662115 1_545
Fe1 Fe3 2.662115 1_645
Fe2 N0 1.882400 1_555
Fe2 N0 1.882400 1_565
Fe2 Ge1 2.621242 1_455
Fe2 Ge1 2.621242 1_555
Fe2 Ge0 2.621242 1_454
Fe2 Ge0 2.621242 1_554
Fe3 Fe4 2.510390 1_555
Fe3 Fe5 2.510390 1_555
Fe3 Fe5 2.510390 1_565
Fe3 Fe4 2.510390 1_565
Fe3 Ge0 2.564308 1_455
Fe3 Ge0 2.564308 1_555
Fe3 Ge1 2.564308 1_455
Fe3 Ge1 2.564308 1_555
Fe4 N0 1.904562 1_556
Fe4 Ge0 2.663329 1_445
Fe4 Ge0 2.663329 1_455
Fe4 Ge0 2.663329 1_545
Fe4 Ge0 2.663329 1_555
Fe5 N0 1.904562 1_555
Fe5 Ge1 2.663329 1_445
Fe5 Ge1 2.663329 1_455
Fe5 Ge1 2.663329 1_555
Fe5 Ge1 2.663329 1_545
