# generated using pymatgen
data_NiP2W
_symmetry_space_group_name_H-M   'P 1'
_cell_length_a   3.33283418
_cell_length_b   3.33283418
_cell_length_c   11.17561597
_cell_angle_alpha   90.00000000
_cell_angle_beta   90.00000000
_cell_angle_gamma   120.00000006
_symmetry_Int_Tables_number   1
_chemical_formula_structural   NiP2W
_chemical_formula_sum   'Ni2 P4 W2'
_cell_volume   107.50521076
_cell_formula_units_Z   2
loop_
 _symmetry_equiv_pos_site_id
 _symmetry_equiv_pos_as_xyz
  1  'x, y, z'
loop_
 _atom_site_type_symbol
 _atom_site_label
 _atom_site_symmetry_multiplicity
 _atom_site_fract_x
 _atom_site_fract_y
 _atom_site_fract_z
 _atom_site_occupancy
  Ni  Ni0  1  -0.00000000  -0.00000000  0.50000000  1
  Ni  Ni1  1  -0.00000000  -0.00000000  -0.00000000  1
  P  P0  1  0.33333300  0.66666700  0.38735452  1
  P  P1  1  0.66666700  0.33333300  0.61264548  1
  P  P2  1  0.66666700  0.33333300  0.88735452  1
  P  P3  1  0.33333300  0.66666700  0.11264548  1
  W  W0  1  -0.00000000  0.00000000  0.25000000  1
  W  W1  1  0.00000000  -0.00000000  0.75000000  1
loop_
_geom_bond_atom_site_label_1
_geom_bond_atom_site_label_2
_geom_bond_distance
_geom_bond_site_symmetry_2
Ni0 P0 2.299429 1_545
Ni0 P1 2.299429 1_455
Ni0 P0 2.299431 1_555
Ni0 P1 2.299431 1_555
Ni0 P1 2.299431 1_445
Ni0 P0 2.299431 1_445
Ni1 P3 2.299429 1_545
Ni1 P2 2.299429 1_454
Ni1 P2 2.299431 1_444
Ni1 P2 2.299431 1_554
Ni1 P3 2.299431 1_445
Ni1 P3 2.299431 1_555
P0 W0 2.461479 1_565
P0 W0 2.461481 1_665
P0 W0 2.461481 1_555
P1 W1 2.461479 1_655
P1 W1 2.461481 1_665
P1 W1 2.461481 1_555
P2 W1 2.461479 1_655
P2 W1 2.461481 1_665
P2 W1 2.461481 1_555
P3 W0 2.461479 1_565
P3 W0 2.461481 1_665
P3 W0 2.461481 1_555
