# generated using pymatgen
data_Sm12Co6Pb
_symmetry_space_group_name_H-M   'P 1'
_cell_length_a   8.57532901
_cell_length_b   8.57532901
_cell_length_c   8.57532901
_cell_angle_alpha   109.47122063
_cell_angle_beta   109.47122063
_cell_angle_gamma   109.47122063
_symmetry_Int_Tables_number   1
_chemical_formula_structural   Sm12Co6Pb
_chemical_formula_sum   'Sm12 Co6 Pb1'
_cell_volume   485.43432672
_cell_formula_units_Z   1
loop_
 _symmetry_equiv_pos_site_id
 _symmetry_equiv_pos_as_xyz
  1  'x, y, z'
loop_
 _atom_site_type_symbol
 _atom_site_label
 _atom_site_symmetry_multiplicity
 _atom_site_fract_x
 _atom_site_fract_y
 _atom_site_fract_z
 _atom_site_occupancy
  Sm  Sm0  1  0.80685166  0.69475934  0.50161000  1
  Sm  Sm1  1  0.19314834  0.30524066  0.49839000  1
  Sm  Sm2  1  0.19314834  0.69475934  0.88790868  1
  Sm  Sm3  1  0.80685166  0.30524066  0.11209132  1
  Sm  Sm4  1  0.69475934  0.50161000  0.80685166  1
  Sm  Sm5  1  0.30524066  0.49839000  0.19314834  1
  Sm  Sm6  1  0.69475934  0.88790868  0.19314834  1
  Sm  Sm7  1  0.30524066  0.11209132  0.80685166  1
  Sm  Sm8  1  0.50161000  0.80685166  0.69475934  1
  Sm  Sm9  1  0.49839000  0.19314834  0.30524066  1
  Sm  Sm10  1  0.11209132  0.80685166  0.30524066  1
  Sm  Sm11  1  0.88790868  0.19314834  0.69475934  1
  Co  Co0  1  0.89006934  0.39006934  0.50000000  1
  Co  Co1  1  0.10993066  0.60993066  0.50000000  1
  Co  Co2  1  0.39006934  0.50000000  0.89006934  1
  Co  Co3  1  0.60993066  0.50000000  0.10993066  1
  Co  Co4  1  0.50000000  0.89006934  0.39006934  1
  Co  Co5  1  0.50000000  0.10993066  0.60993066  1
  Pb  Pb0  1  0.00000000  0.00000000  0.00000000  1
loop_
_geom_bond_atom_site_label_1
_geom_bond_atom_site_label_2
_geom_bond_distance
_geom_bond_site_symmetry_2
Co0 Co1 2.177053 1_655
Co0 Sm9 2.742474 1_555
Co0 Sm11 2.742480 1_555
Co0 Sm1 2.926054 1_655
Co0 Sm0 2.926057 1_555
Co0 Sm2 2.926060 1_655
Co0 Sm3 2.926064 1_555
Co1 Sm8 2.742474 1_555
Co1 Sm10 2.742480 1_555
Co1 Sm0 2.926054 1_455
Co1 Sm1 2.926057 1_555
Co1 Sm3 2.926060 1_455
Co1 Sm2 2.926064 1_555
Co2 Co3 2.177053 1_556
Co2 Sm1 2.742474 1_555
Co2 Sm2 2.742480 1_555
Co2 Sm5 2.926054 1_556
Co2 Sm4 2.926057 1_555
Co2 Sm6 2.926060 1_556
Co2 Sm7 2.926064 1_555
Co3 Sm0 2.742474 1_555
Co3 Sm3 2.742480 1_555
Co3 Sm4 2.926054 1_554
Co3 Sm5 2.926057 1_555
Co3 Sm7 2.926060 1_554
Co3 Sm6 2.926064 1_555
Co4 Co5 2.177053 1_565
Co4 Sm5 2.742474 1_555
Co4 Sm6 2.742480 1_555
Co4 Sm9 2.926054 1_565
Co4 Sm8 2.926057 1_555
Co4 Sm11 2.926060 1_565
Co4 Sm10 2.926064 1_555
Co5 Sm4 2.742474 1_555
Co5 Sm7 2.742480 1_555
Co5 Sm8 2.926054 1_545
Co5 Sm9 2.926057 1_555
Co5 Sm10 2.926060 1_545
Co5 Sm11 2.926064 1_555
Pb0 Sm6 3.576752 1_445
Pb0 Sm2 3.576752 1_544
Pb0 Sm11 3.576752 1_454
Pb0 Sm10 3.576752 1_545
Pb0 Sm3 3.576752 1_455
Pb0 Sm7 3.576752 1_554
Pb0 Sm0 3.576761 1_444
Pb0 Sm4 3.576761 1_444
Pb0 Sm5 3.576761 1_555
Pb0 Sm8 3.576761 1_444
Pb0 Sm1 3.576761 1_555
Pb0 Sm9 3.576761 1_555
