# generated using pymatgen
data_Ag2Te4MoO12
_symmetry_space_group_name_H-M   'P 1'
_cell_length_a   9.40490021
_cell_length_b   9.40490021
_cell_length_c   11.58711523
_cell_angle_alpha   76.15997108
_cell_angle_beta   76.15997108
_cell_angle_gamma   36.70226148
_symmetry_Int_Tables_number   1
_chemical_formula_structural   Ag2Te4MoO12
_chemical_formula_sum   'Ag4 Te8 Mo2 O24'
_cell_volume   592.76856442
_cell_formula_units_Z   2
loop_
 _symmetry_equiv_pos_site_id
 _symmetry_equiv_pos_as_xyz
  1  'x, y, z'
loop_
 _atom_site_type_symbol
 _atom_site_label
 _atom_site_symmetry_multiplicity
 _atom_site_fract_x
 _atom_site_fract_y
 _atom_site_fract_z
 _atom_site_occupancy
  Ag  Ag0  1  0.93409400  0.49464100  0.22968600  1
  Ag  Ag1  1  0.50535900  0.06590600  0.27031400  1
  Ag  Ag2  1  0.06590600  0.50535900  0.77031400  1
  Ag  Ag3  1  0.49464100  0.93409400  0.72968600  1
  Te  Te0  1  0.01450700  0.67389100  0.43051900  1
  Te  Te1  1  0.32610900  0.98549300  0.06948100  1
  Te  Te2  1  0.98549300  0.32610900  0.56948100  1
  Te  Te3  1  0.67389100  0.01450700  0.93051900  1
  Te  Te4  1  0.62852400  0.18693200  0.59558900  1
  Te  Te5  1  0.81306800  0.37147600  0.90441100  1
  Te  Te6  1  0.37147600  0.81306800  0.40441100  1
  Te  Te7  1  0.18693200  0.62852400  0.09558900  1
  Mo  Mo0  1  0.15804800  0.84195200  0.75000000  1
  Mo  Mo1  1  0.84195200  0.15804800  0.25000000  1
  O  O0  1  0.86226900  0.11811100  0.63425400  1
  O  O1  1  0.88188900  0.13773100  0.86574600  1
  O  O2  1  0.13773100  0.88188900  0.36574600  1
  O  O3  1  0.11811100  0.86226900  0.13425400  1
  O  O4  1  0.79134700  0.98910300  0.33404100  1
  O  O5  1  0.01089700  0.20865300  0.16595900  1
  O  O6  1  0.20865300  0.01089700  0.66595900  1
  O  O7  1  0.98910300  0.79134700  0.83404100  1
  O  O8  1  0.81301500  0.67630600  0.42524400  1
  O  O9  1  0.32369400  0.18698500  0.07475600  1
  O  O10  1  0.18698500  0.32369400  0.57475600  1
  O  O11  1  0.67630600  0.81301500  0.92524400  1
  O  O12  1  0.32359500  0.63334300  0.64323200  1
  O  O13  1  0.36665700  0.67640500  0.85676800  1
  O  O14  1  0.67640500  0.36665700  0.35676800  1
  O  O15  1  0.63334300  0.32359500  0.14323200  1
  O  O16  1  0.83030900  0.85681200  0.58299300  1
  O  O17  1  0.14318800  0.16969100  0.91700700  1
  O  O18  1  0.16969100  0.14318800  0.41700700  1
  O  O19  1  0.85681200  0.83030900  0.08299300  1
  O  O20  1  0.50176600  0.18711000  0.75245400  1
  O  O21  1  0.81289000  0.49823400  0.74754600  1
  O  O22  1  0.49823400  0.81289000  0.24754600  1
  O  O23  1  0.18711000  0.50176600  0.25245400  1
loop_
_geom_bond_atom_site_label_1
_geom_bond_atom_site_label_2
_geom_bond_distance
_geom_bond_site_symmetry_2
Ag0 O5 2.425101 1_655
Ag0 O22 2.453889 1_555
Ag0 O23 2.510184 1_655
Ag0 O8 2.616936 1_555
Ag0 O9 2.712646 1_655
Ag0 O18 2.769622 1_655
Ag0 O19 2.779951 1_555
Ag1 O4 2.425101 1_545
Ag1 O23 2.453889 1_555
Ag1 O22 2.510184 1_545
Ag1 O9 2.616936 1_555
Ag1 O8 2.712646 1_545
Ag1 O19 2.769622 1_545
Ag1 O18 2.779951 1_555
Ag2 O7 2.425101 1_455
Ag2 O20 2.453889 1_555
Ag2 O21 2.510184 1_455
Ag2 O10 2.616936 1_555
Ag2 O11 2.712646 1_455
Ag2 O16 2.769622 1_455
Ag2 O17 2.779951 1_555
Ag3 O6 2.425101 1_565
Ag3 O21 2.453889 1_555
Ag3 O20 2.510184 1_565
Ag3 O11 2.616936 1_555
Ag3 O10 2.712646 1_565
Ag3 O17 2.769622 1_565
Ag3 O16 2.779951 1_555
Mo0 O12 1.773523 1_555
Mo0 O13 1.773523 1_555
Mo0 O6 1.987471 1_565
Mo0 O7 1.987471 1_455
Mo0 O0 2.194499 1_465
Mo0 O1 2.194499 1_465
Mo1 O15 1.773523 1_555
Mo1 O14 1.773523 1_555
Mo1 O5 1.987471 1_655
Mo1 O4 1.987471 1_545
Mo1 O2 2.194499 1_645
Mo1 O3 2.194499 1_645
O0 Te4 1.871696 1_555
O1 Te5 1.871696 1_555
O2 Te6 1.871696 1_555
O3 Te7 1.871696 1_555
O4 Te0 2.000792 1_655
O5 Te1 2.000792 1_545
O6 Te2 2.000792 1_455
O7 Te3 2.000792 1_565
O8 Te0 1.892368 1_655
O8 Te2 2.523642 1_555
O9 Te1 1.892368 1_545
O9 Te3 2.523642 1_554
O10 Te2 1.892368 1_455
O10 Te0 2.523642 1_555
O11 Te3 1.892368 1_565
O11 Te1 2.523642 1_556
O16 Te4 1.974478 1_565
O16 Te0 2.071958 1_655
O17 Te5 1.974478 1_455
O17 Te1 2.071958 1_546
O18 Te6 1.974478 1_545
O18 Te2 2.071958 1_455
O19 Te7 1.974478 1_655
O19 Te3 2.071958 1_564
O20 Te4 1.920029 1_555
O20 Te3 2.300990 1_555
O21 Te5 1.920029 1_555
O21 Te2 2.300990 1_555
O22 Te6 1.920029 1_555
O22 Te1 2.300990 1_555
O23 Te7 1.920029 1_555
O23 Te0 2.300990 1_555
