# generated using pymatgen
data_Ca(CoO2)2
_symmetry_space_group_name_H-M   'P 1'
_cell_length_a   9.88066000
_cell_length_b   3.14091300
_cell_length_c   9.71539407
_cell_angle_alpha   89.71752413
_cell_angle_beta   90.00000000
_cell_angle_gamma   90.00000000
_symmetry_Int_Tables_number   1
_chemical_formula_structural   Ca(CoO2)2
_chemical_formula_sum   'Ca4 Co8 O16'
_cell_volume   301.50672626
_cell_formula_units_Z   4
loop_
 _symmetry_equiv_pos_site_id
 _symmetry_equiv_pos_as_xyz
  1  'x, y, z'
loop_
 _atom_site_type_symbol
 _atom_site_label
 _atom_site_symmetry_multiplicity
 _atom_site_fract_x
 _atom_site_fract_y
 _atom_site_fract_z
 _atom_site_occupancy
  Ca  Ca0  1  0.10405800  0.73516600  0.24894000  1
  Ca  Ca1  1  0.89594200  0.73516600  0.74894000  1
  Ca  Ca2  1  0.60500700  0.27074700  0.24935500  1
  Ca  Ca3  1  0.39499300  0.27074700  0.74935500  1
  Co  Co0  1  0.86202400  0.26434900  0.43036000  1
  Co  Co1  1  0.13797600  0.26434900  0.93036000  1
  Co  Co2  1  0.63630000  0.74394100  0.93310100  1
  Co  Co3  1  0.13821500  0.24533600  0.56631000  1
  Co  Co4  1  0.63678100  0.74850900  0.56723400  1
  Co  Co5  1  0.86178500  0.24533600  0.06631000  1
  Co  Co6  1  0.36321900  0.74850900  0.06723400  1
  Co  Co7  1  0.36370000  0.74394100  0.43310100  1
  O  O0  1  0.72651500  0.79476000  0.10560700  1
  O  O1  1  0.77409300  0.25042300  0.89365900  1
  O  O2  1  0.99573500  0.65963700  0.00250100  1
  O  O3  1  0.22592800  0.24154500  0.10729200  1
  O  O4  1  0.22590700  0.25042300  0.39365900  1
  O  O5  1  0.07227100  0.23865600  0.75067600  1
  O  O6  1  0.27388800  0.76066600  0.89235200  1
  O  O7  1  0.56888700  0.76505600  0.75098500  1
  O  O8  1  0.00426500  0.65963700  0.50250100  1
  O  O9  1  0.49918300  0.28079700  0.00160300  1
  O  O10  1  0.72611200  0.76066600  0.39235200  1
  O  O11  1  0.43111300  0.76505600  0.25098500  1
  O  O12  1  0.92772900  0.23865600  0.25067600  1
  O  O13  1  0.50081700  0.28079700  0.50160300  1
  O  O14  1  0.27348500  0.79476000  0.60560700  1
  O  O15  1  0.77407200  0.24154500  0.60729200  1
loop_
_geom_bond_atom_site_label_1
_geom_bond_atom_site_label_2
_geom_bond_distance
_geom_bond_site_symmetry_2
Ca0 O12 2.338263 1_455
Ca0 O12 2.353052 1_465
Ca0 O4 2.392351 1_555
Ca0 O3 2.401805 1_555
Ca0 O3 2.419072 1_565
Ca0 O4 2.463314 1_565
Ca0 O2 2.634363 1_455
Ca0 O8 2.662952 1_555
Ca1 O5 2.338263 1_655
Ca1 O5 2.353052 1_665
Ca1 O1 2.392351 1_555
Ca1 O15 2.401805 1_555
Ca1 O15 2.419072 1_565
Ca1 O1 2.463314 1_565
Ca1 O8 2.634363 1_655
Ca1 O2 2.662952 1_556
Ca2 O11 2.315852 1_555
Ca2 O11 2.339865 1_545
Ca2 O0 2.376448 1_545
Ca2 O10 2.398100 1_555
Ca2 O10 2.430384 1_545
Ca2 O0 2.465370 1_555
Ca2 O9 2.624355 1_555
Ca2 O13 2.658465 1_555
Ca3 O7 2.315852 1_555
Ca3 O7 2.339865 1_545
Ca3 O14 2.376448 1_545
Ca3 O6 2.398100 1_555
Ca3 O6 2.430384 1_545
Ca3 O14 2.465370 1_555
Ca3 O13 2.624355 1_555
Ca3 O9 2.658465 1_556
Co0 O12 1.864630 1_555
Co0 O15 1.927163 1_555
Co0 O8 2.004131 1_655
Co0 O10 2.089065 1_555
Co0 O10 2.109099 1_545
Co0 O8 2.461884 1_645
Co1 O5 1.864630 1_555
Co1 O3 1.927163 1_556
Co1 O2 2.004131 1_456
Co1 O6 2.089065 1_555
Co1 O6 2.109099 1_545
Co1 O2 2.461884 1_446
Co2 O7 1.891411 1_555
Co2 O0 1.905659 1_556
Co2 O9 2.094043 1_556
Co2 O1 2.099795 1_555
Co2 O1 2.127244 1_565
Co2 O9 2.265573 1_566
Co3 O4 1.887939 1_555
Co3 O5 1.906035 1_555
Co3 O8 1.954837 1_555
Co3 O14 1.982338 1_545
Co3 O14 2.217354 1_555
Co3 O8 2.351911 1_545
Co4 O7 1.908042 1_555
Co4 O10 1.914850 1_555
Co4 O13 2.092524 1_555
Co4 O15 2.096586 1_565
Co4 O15 2.126271 1_555
Co4 O13 2.235167 1_565
Co5 O1 1.887939 1_554
Co5 O12 1.906035 1_555
Co5 O2 1.954837 1_555
Co5 O0 1.982338 1_545
Co5 O0 2.217354 1_555
Co5 O2 2.351911 1_545
Co6 O11 1.908042 1_555
Co6 O6 1.914850 1_554
Co6 O9 2.092524 1_555
Co6 O3 2.096586 1_565
Co6 O3 2.126271 1_555
Co6 O9 2.235167 1_565
Co7 O11 1.891411 1_555
Co7 O14 1.905659 1_555
Co7 O13 2.094043 1_555
Co7 O4 2.099795 1_555
Co7 O4 2.127244 1_565
Co7 O13 2.265573 1_565
