# generated using pymatgen
data_Sm3(Ni3Sn2)2
_symmetry_space_group_name_H-M   'P 1'
_cell_length_a   8.88424040
_cell_length_b   8.88424040
_cell_length_c   7.53400700
_cell_angle_alpha   90.00000000
_cell_angle_beta   90.00000000
_cell_angle_gamma   120.00000301
_symmetry_Int_Tables_number   1
_chemical_formula_structural   Sm3(Ni3Sn2)2
_chemical_formula_sum   'Sm6 Ni12 Sn8'
_cell_volume   514.98815679
_cell_formula_units_Z   2
loop_
 _symmetry_equiv_pos_site_id
 _symmetry_equiv_pos_as_xyz
  1  'x, y, z'
loop_
 _atom_site_type_symbol
 _atom_site_label
 _atom_site_symmetry_multiplicity
 _atom_site_fract_x
 _atom_site_fract_y
 _atom_site_fract_z
 _atom_site_occupancy
  Sm  Sm0  1  0.52312100  0.47687900  0.20935200  1
  Sm  Sm1  1  0.52312100  0.04624200  0.20935200  1
  Sm  Sm2  1  0.47687900  0.52312100  0.70935200  1
  Sm  Sm3  1  0.95375800  0.47687900  0.20935200  1
  Sm  Sm4  1  0.47687900  0.95375800  0.70935200  1
  Sm  Sm5  1  0.04624200  0.52312100  0.70935200  1
  Ni  Ni0  1  0.16608000  0.83392000  0.04976700  1
  Ni  Ni1  1  0.16608000  0.33215900  0.04976700  1
  Ni  Ni2  1  0.83392000  0.16608000  0.54976700  1
  Ni  Ni3  1  0.66784100  0.83392000  0.04976700  1
  Ni  Ni4  1  0.83392000  0.66784100  0.54976700  1
  Ni  Ni5  1  0.33215900  0.16608000  0.54976700  1
  Ni  Ni6  1  0.90401600  0.09598400  0.22515700  1
  Ni  Ni7  1  0.90401600  0.80803200  0.22515700  1
  Ni  Ni8  1  0.09598400  0.90401600  0.72515700  1
  Ni  Ni9  1  0.19196800  0.09598400  0.22515700  1
  Ni  Ni10  1  0.09598400  0.19196800  0.72515700  1
  Ni  Ni11  1  0.80803200  0.90401600  0.72515700  1
  Sn  Sn0  1  0.15972800  0.84027200  0.41382200  1
  Sn  Sn1  1  0.15972800  0.31945600  0.41382200  1
  Sn  Sn2  1  0.84027200  0.15972800  0.91382200  1
  Sn  Sn3  1  0.68054400  0.84027200  0.41382200  1
  Sn  Sn4  1  0.84027200  0.68054400  0.91382200  1
  Sn  Sn5  1  0.31945600  0.15972800  0.91382200  1
  Sn  Sn6  1  0.33333300  0.66666700  0.02270500  1
  Sn  Sn7  1  0.66666700  0.33333300  0.52270500  1
loop_
_geom_bond_atom_site_label_1
_geom_bond_atom_site_label_2
_geom_bond_distance
_geom_bond_site_symmetry_2
Sm0 Sn3 3.199507 1_555
Sm0 Sn1 3.199507 1_555
Sm0 Sn7 3.233039 1_555
Sm0 Sn6 3.241361 1_555
Sm0 Sn5 3.327496 1_554
Sm0 Sn4 3.327496 1_554
Sm1 Sn0 3.199507 1_545
Sm1 Sn3 3.199507 1_545
Sm1 Sn7 3.233034 1_555
Sm1 Sn6 3.241354 1_545
Sm1 Sn2 3.327496 1_554
Sm1 Sn5 3.327496 1_554
Sm2 Sn4 3.199507 1_555
Sm2 Sn5 3.199507 1_555
Sm2 Sn6 3.233039 1_556
Sm2 Sn7 3.241361 1_555
Sm2 Sn1 3.327496 1_555
Sm2 Sn3 3.327496 1_555
Sm3 Sn0 3.199507 1_655
Sm3 Sn1 3.199507 1_655
Sm3 Sn7 3.233034 1_555
Sm3 Sn6 3.241354 1_655
Sm3 Sn2 3.327496 1_554
Sm3 Sn4 3.327496 1_554
Sm4 Sn2 3.199507 1_565
Sm4 Sn5 3.199507 1_565
Sm4 Sn6 3.233034 1_556
Sm4 Sn7 3.241354 1_565
Sm4 Sn0 3.327496 1_555
Sm4 Sn3 3.327496 1_555
Sm5 Sn2 3.199507 1_455
Sm5 Sn4 3.199507 1_455
Sm5 Sn6 3.233034 1_556
Sm5 Sn7 3.241354 1_455
Sm5 Sn0 3.327496 1_555
Sm5 Sn1 3.327496 1_555
Ni0 Sn6 2.581745 1_555
Ni0 Ni7 2.585379 1_455
Ni0 Ni9 2.585379 1_565
Ni0 Ni8 2.672916 1_554
Ni0 Sn4 2.709246 1_454
Ni0 Sn5 2.709246 1_564
Ni0 Sn0 2.744534 1_555
Ni0 Sm1 3.013654 1_565
Ni0 Sm3 3.013654 1_455
Ni0 Sm4 3.520748 1_554
Ni0 Sm5 3.520748 1_554
Ni1 Sn6 2.581760 1_555
Ni1 Ni9 2.585371 1_555
Ni1 Ni6 2.585376 1_455
Ni1 Ni10 2.672913 1_554
Ni1 Sn5 2.709239 1_554
Ni1 Sn2 2.709246 1_454
Ni1 Sn1 2.744534 1_555
Ni1 Sm0 3.013653 1_555
Ni1 Sm3 3.013661 1_455
Ni1 Sm2 3.520749 1_554
Ni1 Sm5 3.520754 1_554
Ni2 Sn7 2.581745 1_555
Ni2 Ni6 2.672916 1_555
Ni2 Sn3 2.709246 1_545
Ni2 Sn1 2.709246 1_655
Ni2 Sn2 2.744534 1_555
Ni2 Sm5 3.013654 1_655
Ni2 Sm4 3.013654 1_545
Ni2 Sm3 3.520748 1_555
Ni2 Sm1 3.520748 1_555
Ni3 Sn6 2.581760 1_555
Ni3 Ni7 2.585371 1_555
Ni3 Ni6 2.585376 1_565
Ni3 Sn4 2.709239 1_554
Ni3 Sn2 2.709246 1_564
Ni3 Sn3 2.744534 1_555
Ni3 Sm0 3.013653 1_555
Ni3 Sm1 3.013661 1_565
Ni3 Sm2 3.520749 1_554
Ni3 Sm4 3.520754 1_554
Ni4 Sn7 2.581760 1_555
Ni4 Ni8 2.585376 1_655
Ni4 Ni7 2.672913 1_555
Ni4 Sn3 2.709239 1_555
Ni4 Sn0 2.709246 1_655
Ni4 Sn4 2.744534 1_555
Ni4 Sm2 3.013653 1_555
Ni4 Sm5 3.013661 1_655
Ni4 Sm0 3.520749 1_555
Ni4 Sm3 3.520754 1_555
Ni5 Sn7 2.581760 1_555
Ni5 Ni8 2.585376 1_545
Ni5 Ni9 2.672913 1_555
Ni5 Sn1 2.709239 1_555
Ni5 Sn0 2.709246 1_545
Ni5 Sn5 2.744534 1_555
Ni5 Sm2 3.013653 1_555
Ni5 Sm4 3.013661 1_545
Ni5 Sm0 3.520749 1_555
Ni5 Sm1 3.520754 1_555
Ni6 Sn2 2.542437 1_554
Ni6 Ni9 2.558235 1_655
Ni6 Ni7 2.558235 1_545
Ni6 Sn1 2.571542 1_655
Ni6 Sn3 2.571542 1_545
Ni6 Sm3 3.188297 1_555
Ni6 Sm1 3.188297 1_555
Ni7 Sn4 2.542437 1_554
Ni7 Ni9 2.558235 1_665
Ni7 Sn0 2.571542 1_655
Ni7 Sn3 2.571542 1_555
Ni7 Sm0 3.188297 1_555
Ni7 Sm3 3.188297 1_555
Ni8 Sn0 2.542437 1_555
Ni8 Sn4 2.571542 1_455
Ni8 Sn5 2.571542 1_565
Ni8 Sm4 3.188297 1_555
Ni8 Sm5 3.188297 1_555
Ni9 Sn5 2.542437 1_554
Ni9 Sn0 2.571542 1_545
Ni9 Sn1 2.571542 1_555
Ni9 Sm0 3.188297 1_555
Ni9 Sm1 3.188297 1_555
Ni10 Sn1 2.542437 1_555
Ni10 Ni11 2.558235 1_445
Ni10 Ni8 2.558235 1_545
Ni10 Sn2 2.571542 1_455
Ni10 Sn5 2.571542 1_555
Ni10 Ni5 2.585371 1_555
Ni10 Ni2 2.585379 1_455
Ni10 Sm2 3.188297 1_555
Ni10 Sm5 3.188297 1_555
Ni11 Sn3 2.542437 1_555
Ni11 Ni8 2.558235 1_655
Ni11 Sn2 2.571542 1_565
Ni11 Sn4 2.571542 1_555
Ni11 Ni4 2.585371 1_555
Ni11 Ni2 2.585379 1_565
Ni11 Ni3 2.672913 1_556
Ni11 Sm2 3.188297 1_555
Ni11 Sm4 3.188297 1_555
