# generated using pymatgen
data_BaMg14B
_symmetry_space_group_name_H-M   'P 1'
_cell_length_a   6.46485045
_cell_length_b   6.46484991
_cell_length_c   10.50837362
_cell_angle_alpha   90.00000000
_cell_angle_beta   90.00000000
_cell_angle_gamma   120.00000279
_symmetry_Int_Tables_number   1
_chemical_formula_structural   BaMg14B
_chemical_formula_sum   'Ba1 Mg14 B1'
_cell_volume   380.34967964
_cell_formula_units_Z   1
loop_
 _symmetry_equiv_pos_site_id
 _symmetry_equiv_pos_as_xyz
  1  'x, y, z'
loop_
 _atom_site_type_symbol
 _atom_site_label
 _atom_site_symmetry_multiplicity
 _atom_site_fract_x
 _atom_site_fract_y
 _atom_site_fract_z
 _atom_site_occupancy
  Ba  Ba0  1  0.16666700  0.33333300  0.12500000  1
  Mg  Mg0  1  0.17909436  0.83954668  0.12500000  1
  Mg  Mg1  1  0.15483037  0.82741468  0.62500000  1
  Mg  Mg2  1  0.66045332  0.32090564  0.12500000  1
  Mg  Mg3  1  0.67258532  0.34516963  0.62500000  1
  Mg  Mg4  1  0.66045332  0.83954668  0.12500000  1
  Mg  Mg5  1  0.67258532  0.82741468  0.62500000  1
  Mg  Mg6  1  0.33008798  0.16991202  0.40314376  1
  Mg  Mg7  1  0.33008798  0.16991202  0.84685624  1
  Mg  Mg8  1  0.33008798  0.66017695  0.40314376  1
  Mg  Mg9  1  0.33008798  0.66017695  0.84685624  1
  Mg  Mg10  1  0.83982305  0.16991202  0.40314376  1
  Mg  Mg11  1  0.83982305  0.16991202  0.84685624  1
  Mg  Mg12  1  0.83333300  0.66666700  0.36475338  1
  Mg  Mg13  1  0.83333300  0.66666700  0.88524662  1
  B  B0  1  0.16666700  0.33333300  0.62500000  1
loop_
_geom_bond_atom_site_label_1
_geom_bond_atom_site_label_2
_geom_bond_distance
_geom_bond_site_symmetry_2
Ba0 Mg4 3.233174 1_555
Ba0 Mg0 3.233174 1_555
Ba0 Mg4 3.233174 1_445
Ba0 Mg0 3.233174 1_545
Ba0 Mg2 3.233174 1_455
Ba0 Mg2 3.233174 1_555
Ba0 Mg7 3.448407 1_554
Ba0 Mg6 3.448407 1_555
Ba0 Mg9 3.448413 1_554
Ba0 Mg8 3.448413 1_555
Ba0 Mg11 3.448413 1_454
Ba0 Mg10 3.448413 1_455
Mg0 Mg2 3.111913 1_565
Mg0 Mg4 3.111914 1_555
Mg0 Mg12 3.177244 1_455
Mg0 Mg13 3.177244 1_454
Mg0 Mg2 3.352936 1_455
Mg0 Mg4 3.352937 1_455
Mg0 Mg9 3.460125 1_554
Mg0 Mg8 3.460125 1_555
Mg0 Mg7 3.460131 1_564
Mg0 Mg6 3.460131 1_565
Mg1 Mg8 3.018742 1_555
Mg1 Mg9 3.018742 1_555
Mg1 Mg6 3.018749 1_565
Mg1 Mg7 3.018749 1_565
Mg1 Mg3 3.117642 1_455
Mg1 Mg5 3.117642 1_455
Mg1 Mg12 3.273969 1_455
Mg1 Mg13 3.273969 1_455
Mg1 Mg3 3.347208 1_565
Mg1 Mg5 3.347208 1_555
Mg2 Mg4 3.111913 1_545
Mg2 Mg4 3.352936 1_555
Mg2 Mg7 3.460132 1_554
Mg2 Mg6 3.460132 1_555
Mg3 Mg6 3.018749 1_555
Mg3 Mg7 3.018749 1_555
Mg3 Mg5 3.117642 1_555
Mg3 Mg5 3.347208 1_545
Mg4 Mg9 3.460131 1_554
Mg4 Mg8 3.460131 1_555
Mg5 Mg8 3.018749 1_555
Mg5 Mg9 3.018749 1_555
Mg10 Mg3 3.018742 1_555
Mg10 Mg5 3.018749 1_545
Mg10 Mg12 3.257705 1_545
Mg10 Mg12 3.257705 1_555
Mg10 Mg2 3.460125 1_555
Mg10 Mg4 3.460131 1_545
Mg11 Mg3 3.018742 1_555
Mg11 Mg5 3.018749 1_545
Mg11 Mg13 3.257705 1_545
Mg11 Mg13 3.257705 1_555
Mg11 Mg2 3.460125 1_556
Mg11 Mg4 3.460131 1_546
Mg12 Mg4 3.177237 1_555
Mg12 Mg2 3.177243 1_555
Mg12 Mg6 3.257705 1_665
Mg12 Mg6 3.257705 1_555
Mg12 Mg8 3.257705 1_555
Mg12 Mg8 3.257705 1_655
Mg12 Mg5 3.273962 1_555
Mg12 Mg3 3.273969 1_555
Mg13 Mg4 3.177237 1_556
Mg13 Mg2 3.177243 1_556
Mg13 Mg7 3.257705 1_665
Mg13 Mg7 3.257705 1_555
Mg13 Mg9 3.257705 1_555
Mg13 Mg9 3.257705 1_655
Mg13 Mg5 3.273962 1_555
Mg13 Mg3 3.273969 1_555
B0 Mg6 2.963733 1_555
B0 Mg7 2.963733 1_555
B0 Mg8 2.963740 1_555
B0 Mg9 2.963740 1_555
B0 Mg10 2.963740 1_455
B0 Mg11 2.963740 1_455
