# generated using pymatgen
data_RbMg6Mn
_symmetry_space_group_name_H-M   'P 1'
_cell_length_a   5.04729800
_cell_length_b   6.61942500
_cell_length_c   12.11357500
_cell_angle_alpha   90.00000000
_cell_angle_beta   90.00000000
_cell_angle_gamma   90.00000000
_symmetry_Int_Tables_number   1
_chemical_formula_structural   RbMg6Mn
_chemical_formula_sum   'Rb2 Mg12 Mn2'
_cell_volume   404.71709143
_cell_formula_units_Z   2
loop_
 _symmetry_equiv_pos_site_id
 _symmetry_equiv_pos_as_xyz
  1  'x, y, z'
loop_
 _atom_site_type_symbol
 _atom_site_label
 _atom_site_symmetry_multiplicity
 _atom_site_fract_x
 _atom_site_fract_y
 _atom_site_fract_z
 _atom_site_occupancy
  Rb  Rb0  1  0.50000000  0.50000000  0.17100500  1
  Rb  Rb1  1  0.50000000  0.00000000  0.67100500  1
  Mg  Mg0  1  0.00000000  0.78054600  0.06072800  1
  Mg  Mg1  1  0.00000000  0.21945400  0.06072800  1
  Mg  Mg2  1  0.00000000  0.00000000  0.33384300  1
  Mg  Mg3  1  0.50000000  0.27599900  0.41155100  1
  Mg  Mg4  1  0.50000000  0.72400100  0.41155100  1
  Mg  Mg5  1  0.50000000  0.00000000  0.17451700  1
  Mg  Mg6  1  0.00000000  0.28054600  0.56072800  1
  Mg  Mg7  1  0.00000000  0.71945400  0.56072800  1
  Mg  Mg8  1  0.00000000  0.50000000  0.83384300  1
  Mg  Mg9  1  0.50000000  0.77599900  0.91155100  1
  Mg  Mg10  1  0.50000000  0.22400100  0.91155100  1
  Mg  Mg11  1  0.50000000  0.50000000  0.67451700  1
  Mn  Mn0  1  0.00000000  0.50000000  0.37607600  1
  Mn  Mn1  1  0.00000000  0.00000000  0.87607600  1
loop_
_geom_bond_atom_site_label_1
_geom_bond_atom_site_label_2
_geom_bond_distance
_geom_bond_site_symmetry_2
Mg0 Mn1 2.667110 1_564
Mg0 Mg8 3.316969 1_554
Mg0 Rb0 3.406162 1_455
Mg0 Rb0 3.406162 1_555
Mg1 Mn1 2.667110 1_554
Mg1 Mg8 3.316969 1_554
Mg1 Rb0 3.406162 1_555
Mg1 Rb0 3.406162 1_455
Mg2 Mg5 3.177064 1_555
Mg2 Mg5 3.177064 1_455
Mg2 Mg3 3.254636 1_555
Mg2 Mg4 3.254636 1_545
Mg2 Mg3 3.254636 1_455
Mg2 Mg4 3.254636 1_445
Mg2 Mg6 3.316969 1_555
Mg2 Mg7 3.316969 1_545
Mg2 Mn0 3.349018 1_555
Mg2 Mn0 3.349018 1_545
Mg3 Mn0 2.958385 1_555
Mg3 Mn0 2.958385 1_655
Mg3 Rb0 3.269437 1_555
Mg3 Rb1 3.635338 1_555
Mg4 Mn0 2.958385 1_555
Mg4 Mn0 2.958385 1_655
Mg4 Rb0 3.269437 1_555
Mg4 Rb1 3.635338 1_565
Mg5 Rb0 3.309986 1_545
Mg5 Rb0 3.309986 1_555
Mg6 Mn0 2.667110 1_555
Mg6 Rb1 3.406162 1_455
Mg6 Rb1 3.406162 1_555
Mg7 Mn0 2.667110 1_555
Mg7 Rb1 3.406162 1_565
Mg7 Rb1 3.406162 1_465
Mg8 Mg9 3.254636 1_555
Mg8 Mg9 3.254636 1_455
Mg8 Mn1 3.349018 1_565
Mg8 Mn1 3.349018 1_555
Mg9 Mn1 2.958385 1_565
Mg9 Mn1 2.958385 1_665
Mg9 Rb1 3.269437 1_565
Mg9 Rb0 3.635338 1_556
Mg10 Mn1 2.958385 1_555
Mg10 Mn1 2.958385 1_655
Mg10 Mg8 3.254636 1_655
Mg10 Mg8 3.254636 1_555
Mg10 Rb1 3.269437 1_555
Mg10 Rb0 3.635338 1_556
Mg11 Mg8 3.177064 1_555
Mg11 Mg8 3.177064 1_655
Mg11 Rb1 3.309986 1_565
Mg11 Rb1 3.309986 1_555
Mn0 Rb0 3.541154 1_455
Mn0 Rb0 3.541154 1_555
Mn1 Rb1 3.541154 1_555
Mn1 Rb1 3.541154 1_455
