# generated using pymatgen
data_La2Si3Rh
_symmetry_space_group_name_H-M   'P 1'
_cell_length_a   8.28799185
_cell_length_b   8.28799185
_cell_length_c   4.36842067
_cell_angle_alpha   90.00000000
_cell_angle_beta   90.00000000
_cell_angle_gamma   120.00000522
_symmetry_Int_Tables_number   1
_chemical_formula_structural   La2Si3Rh
_chemical_formula_sum   'La4 Si6 Rh2'
_cell_volume   259.86853211
_cell_formula_units_Z   2
loop_
 _symmetry_equiv_pos_site_id
 _symmetry_equiv_pos_as_xyz
  1  'x, y, z'
loop_
 _atom_site_type_symbol
 _atom_site_label
 _atom_site_symmetry_multiplicity
 _atom_site_fract_x
 _atom_site_fract_y
 _atom_site_fract_z
 _atom_site_occupancy
  La  La0  1  0.00000000  -0.00000000  0.50000000  1
  La  La1  1  0.00000000  0.50000000  0.50000000  1
  La  La2  1  0.50000000  0.50000000  0.50000000  1
  La  La3  1  0.50000000  -0.00000000  0.50000000  1
  Si  Si0  1  0.16653948  0.33307897  -0.00000000  1
  Si  Si1  1  0.66692103  0.83346052  0.00000000  1
  Si  Si2  1  0.33307897  0.16653948  -0.00000000  1
  Si  Si3  1  0.16653948  0.83346052  -0.00000000  1
  Si  Si4  1  0.83346052  0.66692103  0.00000000  1
  Si  Si5  1  0.83346052  0.16653948  0.00000000  1
  Rh  Rh0  1  0.33333300  0.66666700  -0.00000000  1
  Rh  Rh1  1  0.66666700  0.33333300  -0.00000000  1
loop_
_geom_bond_atom_site_label_1
_geom_bond_atom_site_label_2
_geom_bond_distance
_geom_bond_site_symmetry_2
La0 Si0 3.238252 1_555
La0 Si1 3.238252 1_445
La0 Si4 3.238252 1_446
La0 Si4 3.238252 1_445
La0 Si1 3.238252 1_446
La0 Si2 3.238252 1_556
La0 Si2 3.238252 1_555
La0 Si0 3.238252 1_556
La0 Si3 3.238252 1_545
La0 Si3 3.238252 1_546
La0 Si5 3.238252 1_456
La0 Si5 3.238252 1_455
La1 Rh0 3.239598 1_555
La1 Rh0 3.239598 1_556
La1 Rh1 3.239598 1_455
La1 Rh1 3.239598 1_456
La1 Si5 3.240275 1_455
La1 Si5 3.240275 1_456
La1 Si3 3.240275 1_555
La1 Si3 3.240275 1_556
La1 Si0 3.240275 1_556
La1 Si0 3.240275 1_555
La1 Si4 3.240275 1_456
La1 Si4 3.240275 1_455
La2 Rh1 3.239604 1_555
La2 Rh0 3.239604 1_555
La2 Rh0 3.239604 1_556
La2 Rh1 3.239604 1_556
La2 Si2 3.240275 1_555
La2 Si0 3.240275 1_556
La2 Si0 3.240275 1_555
La2 Si4 3.240275 1_556
La2 Si1 3.240275 1_556
La2 Si2 3.240275 1_556
La2 Si4 3.240275 1_555
La2 Si1 3.240275 1_555
La3 Rh0 3.239598 1_546
La3 Rh1 3.239598 1_555
La3 Rh1 3.239598 1_556
La3 Rh0 3.239598 1_545
La3 Si3 3.240275 1_545
La3 Si5 3.240275 1_555
La3 Si5 3.240275 1_556
La3 Si3 3.240275 1_546
La3 Si2 3.240275 1_555
La3 Si1 3.240275 1_545
La3 Si2 3.240275 1_556
La3 Si1 3.240275 1_546
Si0 Si5 2.390711 1_455
Si0 Si2 2.390712 1_555
Si1 Si5 2.390711 1_565
Si1 Si4 2.390712 1_555
Si2 Si3 2.390711 1_545
Si3 Si4 2.390711 1_455
Rh0 Si3 2.394358 1_555
Rh0 Si0 2.394365 1_555
Rh0 Si1 2.394365 1_555
Rh1 Si5 2.394358 1_555
Rh1 Si2 2.394365 1_555
Rh1 Si4 2.394365 1_555
