# generated using pymatgen
data_KNa7V6(MoO12)2
_symmetry_space_group_name_H-M   'P 1'
_cell_length_a   7.65634614
_cell_length_b   7.65634614
_cell_length_c   7.67877800
_cell_angle_alpha   90.00000000
_cell_angle_beta   90.00000000
_cell_angle_gamma   90.03644846
_symmetry_Int_Tables_number   1
_chemical_formula_structural   KNa7V6(MoO12)2
_chemical_formula_sum   'K1 Na7 V6 Mo2 O24'
_cell_volume   450.12708172
_cell_formula_units_Z   1
loop_
 _symmetry_equiv_pos_site_id
 _symmetry_equiv_pos_as_xyz
  1  'x, y, z'
loop_
 _atom_site_type_symbol
 _atom_site_label
 _atom_site_symmetry_multiplicity
 _atom_site_fract_x
 _atom_site_fract_y
 _atom_site_fract_z
 _atom_site_occupancy
  K  K0  1  0.74463200  0.25536800  0.50000000  1
  Na  Na0  1  0.25935500  0.25958100  0.50000000  1
  Na  Na1  1  0.25940300  0.25933800  0.00000000  1
  Na  Na2  1  0.74045600  0.25954400  0.00000000  1
  Na  Na3  1  0.25939800  0.74060200  0.50000000  1
  Na  Na4  1  0.25927200  0.74072800  0.00000000  1
  Na  Na5  1  0.74041900  0.74064500  0.50000000  1
  Na  Na6  1  0.74066200  0.74059700  0.00000000  1
  V  V0  1  0.49872200  0.99847700  0.75105600  1
  V  V1  1  0.49872200  0.99847700  0.24894400  1
  V  V2  1  0.00152300  0.50127800  0.75105600  1
  V  V3  1  0.00152300  0.50127800  0.24894400  1
  V  V4  1  0.49943400  0.50056600  0.75112200  1
  V  V5  1  0.49943400  0.50056600  0.24887800  1
  Mo  Mo0  1  0.00053500  0.99946500  0.75063400  1
  Mo  Mo1  1  0.00053500  0.99946500  0.24936600  1
  O  O0  1  0.00241000  0.24970700  0.75241900  1
  O  O1  1  0.00241000  0.24970700  0.24758100  1
  O  O2  1  0.49693200  0.25053400  0.75304500  1
  O  O3  1  0.49693200  0.25053400  0.24695500  1
  O  O4  1  0.00108400  0.74989100  0.75102200  1
  O  O5  1  0.00108400  0.74989100  0.24897800  1
  O  O6  1  0.49892100  0.75049200  0.75128700  1
  O  O7  1  0.49892100  0.75049200  0.24871300  1
  O  O8  1  0.25010900  0.99891600  0.75102200  1
  O  O9  1  0.25010900  0.99891600  0.24897800  1
  O  O10  1  0.75029300  0.99759000  0.75241900  1
  O  O11  1  0.75029300  0.99759000  0.24758100  1
  O  O12  1  0.24950800  0.50107900  0.75128700  1
  O  O13  1  0.24950800  0.50107900  0.24871300  1
  O  O14  1  0.74946600  0.50306800  0.75304500  1
  O  O15  1  0.74946600  0.50306800  0.24695500  1
  O  O16  1  0.00204600  0.99795400  0.50000000  1
  O  O17  1  0.00119400  0.99880600  0.00000000  1
  O  O18  1  0.49730200  0.99728800  0.50000000  1
  O  O19  1  0.49924800  0.99907100  0.00000000  1
  O  O20  1  0.00271200  0.50269800  0.50000000  1
  O  O21  1  0.00092900  0.50075200  0.00000000  1
  O  O22  1  0.49657900  0.50342100  0.50000000  1
  O  O23  1  0.49851700  0.50148300  0.00000000  1
loop_
_geom_bond_atom_site_label_1
_geom_bond_atom_site_label_2
_geom_bond_distance
_geom_bond_site_symmetry_2
K0 O22 2.686700 1_555
K0 O14 2.715410 1_555
K0 O15 2.715410 1_555
K0 O2 2.715410 1_555
K0 O3 2.715410 1_555
K0 O18 2.735965 1_545
K0 O20 2.735965 1_655
K0 O0 2.766608 1_655
K0 O10 2.766608 1_545
K0 O11 2.766608 1_545
K0 O1 2.766608 1_655
K0 O16 2.788090 1_645
Na0 O22 2.603828 1_555
Na0 O2 2.662548 1_555
Na0 O3 2.662548 1_555
Na0 O12 2.673556 1_555
Na0 O13 2.673556 1_555
Na0 O20 2.707478 1_555
Na0 O18 2.712290 1_545
Na0 O0 2.762703 1_555
Na0 O1 2.762703 1_555
Na0 O9 2.775470 1_545
Na0 O8 2.775470 1_545
Na0 O16 2.808647 1_545
Na1 O23 2.604689 1_555
Na1 O2 2.628312 1_554
Na1 O3 2.628312 1_555
Na1 O12 2.660631 1_554
Na1 O13 2.660631 1_555
Na1 O21 2.708756 1_555
Na1 O19 2.710649 1_545
Na1 O1 2.736981 1_555
Na1 O0 2.736981 1_554
Na1 O8 2.763259 1_544
Na1 O9 2.763259 1_545
Na1 O17 2.807523 1_545
Na2 O23 2.620478 1_555
Na2 O15 2.660258 1_555
Na2 O3 2.660258 1_555
Na2 O14 2.660258 1_554
Na2 O2 2.660258 1_554
Na2 O21 2.717168 1_655
Na2 O19 2.717168 1_545
Na2 O11 2.764524 1_545
Na2 O1 2.764524 1_655
Na2 O10 2.764524 1_544
Na2 O0 2.764524 1_654
Na2 O17 2.824093 1_645
Na3 O22 2.568943 1_555
Na3 O13 2.663064 1_555
Na3 O12 2.663064 1_555
Na3 O6 2.663064 1_555
Na3 O7 2.663064 1_555
Na3 O18 2.678718 1_555
Na3 O20 2.678718 1_555
Na3 O8 2.762629 1_555
Na3 O9 2.762629 1_555
Na3 O4 2.762629 1_555
Na3 O5 2.762629 1_555
Na3 O16 2.787419 1_555
Na4 O23 2.591299 1_555
Na4 O6 2.649418 1_554
Na4 O12 2.649418 1_554
Na4 O7 2.649418 1_555
Na4 O13 2.649418 1_555
Na4 O19 2.698802 1_555
Na4 O21 2.698802 1_555
Na4 O9 2.750982 1_555
Na4 O8 2.750982 1_554
Na4 O4 2.750982 1_554
Na4 O5 2.750982 1_555
Na4 O17 2.795282 1_555
Na5 O22 2.603828 1_555
Na5 O15 2.662548 1_555
Na5 O14 2.662548 1_555
Na5 O6 2.673556 1_555
Na5 O7 2.673556 1_555
Na5 O18 2.707478 1_555
Na5 O20 2.712290 1_655
Na5 O10 2.762703 1_555
Na5 O11 2.762703 1_555
Na5 O5 2.775470 1_655
Na5 O4 2.775470 1_655
Na5 O16 2.808647 1_655
Na6 O23 2.604689 1_555
Na6 O15 2.628312 1_555
Na6 O14 2.628312 1_554
Na6 O6 2.660631 1_554
Na6 O7 2.660631 1_555
Na6 O19 2.708756 1_555
Na6 O21 2.710649 1_655
Na6 O11 2.736981 1_555
Na6 O10 2.736981 1_554
Na6 O5 2.763259 1_655
Na6 O4 2.763259 1_654
Na6 O17 2.807523 1_655
Mo0 O8 1.910835 1_555
Mo0 O4 1.910835 1_555
Mo0 O17 1.914839 1_556
Mo0 O0 1.916033 1_565
Mo0 O10 1.916033 1_455
Mo0 O16 1.924632 1_555
Mo1 O9 1.910835 1_555
Mo1 O5 1.910835 1_555
Mo1 O17 1.914839 1_555
Mo1 O1 1.916033 1_565
Mo1 O11 1.916033 1_455
Mo1 O16 1.924632 1_555
O0 V2 1.926159 1_555
O1 V3 1.926159 1_555
O2 V4 1.914472 1_555
O2 V0 1.929953 1_545
O3 V5 1.914472 1_555
O3 V1 1.929953 1_545
O4 V2 1.903472 1_555
O5 V3 1.903472 1_555
O6 V0 1.898661 1_555
O6 V4 1.913527 1_555
O7 V1 1.898661 1_555
O7 V5 1.913527 1_555
O8 V0 1.903472 1_555
O9 V1 1.903472 1_555
O10 V0 1.926159 1_555
O11 V1 1.926159 1_555
O12 V2 1.898661 1_555
O12 V4 1.913527 1_555
O13 V3 1.898661 1_555
O13 V5 1.913527 1_555
O14 V4 1.914472 1_555
O14 V2 1.929953 1_655
O15 V5 1.914472 1_555
O15 V3 1.929953 1_655
O18 V0 1.927855 1_555
O18 V1 1.927855 1_555
O19 V1 1.911595 1_555
O19 V0 1.911595 1_554
O20 V2 1.927855 1_555
O20 V3 1.927855 1_555
O21 V3 1.911595 1_555
O21 V2 1.911595 1_554
O22 V4 1.928558 1_555
O22 V5 1.928558 1_555
O23 V5 1.911105 1_555
O23 V4 1.911105 1_554
