# generated using pymatgen
data_OsN2
_symmetry_space_group_name_H-M   'P 1'
_cell_length_a   4.87852700
_cell_length_b   4.87852700
_cell_length_c   4.87852700
_cell_angle_alpha   90.00000000
_cell_angle_beta   90.00000000
_cell_angle_gamma   90.00000000
_symmetry_Int_Tables_number   1
_chemical_formula_structural   OsN2
_chemical_formula_sum   'Os4 N8'
_cell_volume   116.10906793
_cell_formula_units_Z   4
loop_
 _symmetry_equiv_pos_site_id
 _symmetry_equiv_pos_as_xyz
  1  'x, y, z'
loop_
 _atom_site_type_symbol
 _atom_site_label
 _atom_site_symmetry_multiplicity
 _atom_site_fract_x
 _atom_site_fract_y
 _atom_site_fract_z
 _atom_site_occupancy
  Os  Os0  1  0.50000000  0.50000000  0.00000000  1
  Os  Os1  1  0.50000000  0.00000000  0.50000000  1
  Os  Os2  1  0.00000000  0.50000000  0.50000000  1
  Os  Os3  1  0.00000000  0.00000000  0.00000000  1
  N  N0  1  0.08404400  0.91595600  0.41595600  1
  N  N1  1  0.91595600  0.41595600  0.08404400  1
  N  N2  1  0.41595600  0.08404400  0.91595600  1
  N  N3  1  0.58404400  0.58404400  0.58404400  1
  N  N4  1  0.91595600  0.08404400  0.58404400  1
  N  N5  1  0.08404400  0.58404400  0.91595600  1
  N  N6  1  0.58404400  0.91595600  0.08404400  1
  N  N7  1  0.41595600  0.41595600  0.41595600  1
loop_
_geom_bond_atom_site_label_1
_geom_bond_atom_site_label_2
_geom_bond_distance
_geom_bond_site_symmetry_2
N0 N4 1.420320 1_465
N0 Os2 2.110470 1_555
N0 Os1 2.110470 1_565
N0 Os3 2.110470 1_565
N1 N5 1.420320 1_654
N1 Os0 2.110470 1_555
N1 Os3 2.110470 1_655
N1 Os2 2.110470 1_655
N2 N6 1.420320 1_546
N2 Os0 2.110470 1_556
N2 Os3 2.110470 1_556
N2 Os1 2.110470 1_555
N3 N7 1.420320 1_555
N3 Os2 2.110470 1_655
N3 Os1 2.110470 1_565
N3 Os0 2.110470 1_556
N4 Os2 2.110470 1_655
N4 Os1 2.110470 1_555
N4 Os3 2.110470 1_656
N5 Os0 2.110470 1_556
N5 Os3 2.110470 1_566
N5 Os2 2.110470 1_555
N6 Os3 2.110470 1_665
N6 Os0 2.110470 1_555
N6 Os1 2.110470 1_565
N7 Os2 2.110470 1_555
N7 Os1 2.110470 1_555
N7 Os0 2.110470 1_555
