# generated using pymatgen
data_Ta2TiMo
_symmetry_space_group_name_H-M   'P 1'
_cell_length_a   10.61386905
_cell_length_b   10.61386905
_cell_length_c   10.61386905
_cell_angle_alpha   127.84553307
_cell_angle_beta   117.75816120
_cell_angle_gamma   85.45308474
_symmetry_Int_Tables_number   1
_chemical_formula_structural   Ta2TiMo
_chemical_formula_sum   'Ta2 Ti1 Mo1'
_cell_volume   798.24021078
_cell_formula_units_Z   1
loop_
 _symmetry_equiv_pos_site_id
 _symmetry_equiv_pos_as_xyz
  1  'x, y, z'
loop_
 _atom_site_type_symbol
 _atom_site_label
 _atom_site_symmetry_multiplicity
 _atom_site_fract_x
 _atom_site_fract_y
 _atom_site_fract_z
 _atom_site_occupancy
  Ta  Ta0  1  0.00000000  0.25379900  0.25379900  1
  Ta  Ta1  1  0.00000000  0.74620100  0.74620100  1
  Ti  Ti0  1  0.00000000  0.00000000  0.00000000  1
  Mo  Mo0  1  0.00000000  0.50000000  0.50000000  1
loop_
_geom_bond_atom_site_label_1
_geom_bond_atom_site_label_2
_geom_bond_distance
_geom_bond_site_symmetry_2
Ta0 Ti0 2.368284 1_555
Ta1 Ti0 2.368284 1_566
Mo0 Ta0 2.297385 1_555
Mo0 Ta1 2.297385 1_555
