# generated using pymatgen
data_Cs2Ni3Se4
_symmetry_space_group_name_H-M   'P 1'
_cell_length_a   6.13681511
_cell_length_b   6.13681549
_cell_length_c   7.99306266
_cell_angle_alpha   101.32411201
_cell_angle_beta   101.32411109
_cell_angle_gamma   119.24163707
_symmetry_Int_Tables_number   1
_chemical_formula_structural   Cs2Ni3Se4
_chemical_formula_sum   'Cs2 Ni3 Se4'
_cell_volume   242.05498993
_cell_formula_units_Z   1
loop_
 _symmetry_equiv_pos_site_id
 _symmetry_equiv_pos_as_xyz
  1  'x, y, z'
loop_
 _atom_site_type_symbol
 _atom_site_label
 _atom_site_symmetry_multiplicity
 _atom_site_fract_x
 _atom_site_fract_y
 _atom_site_fract_z
 _atom_site_occupancy
  Cs  Cs0  1  0.34117374  0.34117374  0.68234849  1
  Cs  Cs1  1  0.65882626  0.65882626  0.31765151  1
  Ni  Ni0  1  -0.00000000  0.50000000  -0.00000000  1
  Ni  Ni1  1  -0.00000000  -0.00000000  -0.00000000  1
  Ni  Ni2  1  0.50000000  -0.00000000  -0.00000000  1
  Se  Se0  1  0.26992528  0.93508650  0.20501178  1
  Se  Se1  1  0.73007472  0.06491350  0.79498822  1
  Se  Se2  1  0.06491350  0.73007472  0.79498822  1
  Se  Se3  1  0.93508650  0.26992528  0.20501178  1
loop_
_geom_bond_atom_site_label_1
_geom_bond_atom_site_label_2
_geom_bond_distance
_geom_bond_site_symmetry_2
Cs0 Se1 3.617929 1_555
Cs0 Se2 3.617929 1_555
Cs0 Se1 3.669150 1_455
Cs0 Se2 3.669150 1_545
Cs0 Se2 3.669156 1_655
Cs0 Se1 3.669156 1_565
Cs0 Se3 3.937643 1_455
Cs0 Se0 3.937643 1_545
Cs1 Se0 3.617929 1_555
Cs1 Se3 3.617929 1_555
Cs1 Se0 3.669150 1_655
Cs1 Se3 3.669150 1_565
Cs1 Se3 3.669156 1_455
Cs1 Se0 3.669156 1_545
Cs1 Se2 3.937643 1_655
Cs1 Se1 3.937643 1_565
Ni0 Se2 2.335154 1_554
Ni0 Se3 2.335154 1_455
Ni0 Se0 2.335154 1_555
Ni0 Se1 2.335154 1_454
Ni1 Se1 2.328716 1_454
Ni1 Se0 2.328716 1_545
Ni1 Se2 2.328716 1_544
Ni1 Se3 2.328716 1_455
Ni2 Se1 2.335154 1_554
Ni2 Se0 2.335154 1_545
Ni2 Se3 2.335154 1_555
Ni2 Se2 2.335154 1_544
