# generated using pymatgen
data_MnFe4(BiO3)5
_symmetry_space_group_name_H-M   'P 1'
_cell_length_a   5.74543400
_cell_length_b   9.78822823
_cell_length_c   12.51967236
_cell_angle_alpha   97.82975966
_cell_angle_beta   101.83543343
_cell_angle_gamma   106.06142537
_symmetry_Int_Tables_number   1
_chemical_formula_structural   MnFe4(BiO3)5
_chemical_formula_sum   'Mn2 Fe8 Bi10 O30'
_cell_volume   648.12112069
_cell_formula_units_Z   2
loop_
 _symmetry_equiv_pos_site_id
 _symmetry_equiv_pos_as_xyz
  1  'x, y, z'
loop_
 _atom_site_type_symbol
 _atom_site_label
 _atom_site_symmetry_multiplicity
 _atom_site_fract_x
 _atom_site_fract_y
 _atom_site_fract_z
 _atom_site_occupancy
  Mn  Mn0  1  0.61281500  0.94329600  0.16716200  1
  Mn  Mn1  1  0.11203200  0.44428600  0.66776300  1
  Fe  Fe0  1  0.20547800  0.34369500  0.96404900  1
  Fe  Fe1  1  0.80884200  0.74456800  0.76557000  1
  Fe  Fe2  1  0.40351700  0.14434500  0.56519700  1
  Fe  Fe3  1  0.00573600  0.54387900  0.36538400  1
  Fe  Fe4  1  0.50252700  0.04285800  0.86530000  1
  Fe  Fe5  1  0.70522400  0.84363700  0.46508900  1
  Fe  Fe6  1  0.31120300  0.24639000  0.26641900  1
  Fe  Fe7  1  0.90219100  0.64397400  0.06502500  1
  Bi  Bi0  1  0.29349500  0.69993300  0.90105900  1
  Bi  Bi1  1  0.88734500  0.09980500  0.69799500  1
  Bi  Bi2  1  0.49684700  0.50158800  0.49850900  1
  Bi  Bi3  1  0.09803400  0.90433000  0.30022400  1
  Bi  Bi4  1  0.69155600  0.29906700  0.09801000  1
  Bi  Bi5  1  0.99374200  0.00081900  0.99830000  1
  Bi  Bi6  1  0.59937800  0.40101700  0.79628100  1
  Bi  Bi7  1  0.19311800  0.79993000  0.59834800  1
  Bi  Bi8  1  0.79648400  0.20109400  0.39947700  1
  Bi  Bi9  1  0.38500700  0.59893000  0.19516300  1
  O  O0  1  0.10051200  0.96823300  0.49322000  1
  O  O1  1  0.70551600  0.36819300  0.29667100  1
  O  O2  1  0.28059800  0.75811200  0.09142000  1
  O  O3  1  0.90272100  0.16729900  0.89695200  1
  O  O4  1  0.52015000  0.56965900  0.69499400  1
  O  O5  1  0.02697100  0.63888700  0.23590100  1
  O  O6  1  0.63125900  0.04002700  0.03783700  1
  O  O7  1  0.21840900  0.43880100  0.83177400  1
  O  O8  1  0.83549500  0.84044200  0.63612000  1
  O  O9  1  0.43796200  0.23960400  0.43651500  1
  O  O10  1  0.46041900  0.06888600  0.24551300  1
  O  O11  1  0.04780500  0.46465900  0.04669800  1
  O  O12  1  0.65822700  0.87090000  0.84914100  1
  O  O13  1  0.24430500  0.27126700  0.64602100  1
  O  O14  1  0.85257200  0.66964800  0.44733900  1
  O  O15  1  0.67305600  0.85046700  0.30351300  1
  O  O16  1  0.27596800  0.24795000  0.10534700  1
  O  O17  1  0.87589800  0.64722200  0.90425800  1
  O  O18  1  0.46668800  0.04338800  0.70416600  1
  O  O19  1  0.07448600  0.45021600  0.50834000  1
  O  O20  1  0.83014900  0.82934500  0.11389600  1
  O  O21  1  0.44032800  0.22896600  0.91453600  1
  O  O22  1  0.04821300  0.62972700  0.71408100  1
  O  O23  1  0.64086000  0.02743800  0.51471100  1
  O  O24  1  0.24179300  0.43004700  0.31629500  1
  O  O25  1  0.99079200  0.10357200  0.26158100  1
  O  O26  1  0.56705100  0.49877200  0.05311600  1
  O  O27  1  0.17319700  0.89759900  0.85759600  1
  O  O28  1  0.74919900  0.29025600  0.65873700  1
  O  O29  1  0.37323000  0.69857800  0.45658400  1
loop_
_geom_bond_atom_site_label_1
_geom_bond_atom_site_label_2
_geom_bond_distance
_geom_bond_site_symmetry_2
Mn0 O10 1.964537 1_565
Mn0 O6 1.990417 1_565
Mn0 O20 2.039010 1_555
Mn0 O15 2.052744 1_555
Mn0 O2 2.168606 1_555
Mn0 O25 2.265193 1_565
Mn1 O19 1.973700 1_555
Mn1 O22 1.983470 1_555
Mn1 O7 2.031287 1_555
Mn1 O13 2.047235 1_555
Mn1 O28 2.179313 1_455
Mn1 O4 2.255265 1_555
Fe0 O11 1.984305 1_556
Fe0 O7 2.011674 1_555
Fe0 O3 2.013983 1_455
Fe0 O21 2.111377 1_555
Fe0 O16 2.130617 1_556
Fe0 O26 2.169527 1_556
Fe1 O4 1.969350 1_555
Fe1 O8 1.991823 1_555
Fe1 O12 1.995901 1_555
Fe1 O17 2.109662 1_555
Fe1 O22 2.142944 1_655
Fe1 O27 2.181449 1_655
Fe2 O9 1.985455 1_555
Fe2 O13 2.017446 1_555
Fe2 O0 2.021636 1_545
Fe2 O28 2.091994 1_555
Fe2 O18 2.131474 1_555
Fe2 O23 2.142056 1_555
Fe3 O5 1.984117 1_555
Fe3 O14 1.992068 1_455
Fe3 O1 2.004859 1_455
Fe3 O24 2.109527 1_555
Fe3 O19 2.134769 1_555
Fe3 O29 2.196716 1_555
Fe4 O18 1.986241 1_555
Fe4 O21 1.992682 1_555
Fe4 O27 2.002558 1_545
Fe4 O12 2.118686 1_545
Fe4 O6 2.141531 1_556
Fe4 O3 2.207362 1_555
Fe5 O23 1.979208 1_565
Fe5 O15 2.005240 1_555
Fe5 O29 2.010625 1_555
Fe5 O14 2.106720 1_555
Fe5 O8 2.126011 1_555
Fe5 O0 2.188961 1_655
Fe6 O25 1.963163 1_455
Fe6 O16 1.987563 1_555
Fe6 O24 1.993383 1_555
Fe6 O9 2.121060 1_555
Fe6 O10 2.148156 1_555
Fe6 O1 2.174349 1_555
Fe7 O17 1.992577 1_554
Fe7 O20 2.013678 1_555
Fe7 O26 2.014963 1_555
Fe7 O2 2.084420 1_655
Fe7 O5 2.124323 1_655
Fe7 O11 2.148198 1_655
Bi0 O17 2.320432 1_455
Bi0 O27 2.321590 1_555
Bi0 O22 2.368685 1_555
Bi0 O2 2.394934 1_556
Bi0 O7 2.470635 1_555
Bi0 O12 2.555178 1_555
Bi1 O28 2.292388 1_555
Bi1 O23 2.332764 1_555
Bi1 O18 2.345598 1_555
Bi1 O3 2.465321 1_555
Bi1 O8 2.466757 1_545
Bi1 O13 2.527182 1_655
Bi2 O29 2.319144 1_555
Bi2 O24 2.338279 1_555
Bi2 O19 2.370824 1_555
Bi2 O4 2.425301 1_555
Bi2 O9 2.482488 1_555
Bi2 O14 2.501486 1_555
Bi3 O25 2.284028 1_465
Bi3 O15 2.361423 1_455
Bi3 O20 2.405205 1_455
Bi3 O0 2.408085 1_555
Bi3 O5 2.504795 1_555
Bi3 O10 2.535444 1_565
Bi4 O16 2.324109 1_555
Bi4 O21 2.343737 1_554
Bi4 O26 2.357297 1_555
Bi4 O6 2.450098 1_555
Bi4 O1 2.465744 1_555
Bi4 O11 2.493312 1_655
Bi5 O3 2.302512 1_555
Bi5 O12 2.310901 1_545
Bi5 O6 2.354355 1_556
Bi5 O27 2.454281 1_645
Bi5 O20 2.478283 1_546
Bi5 O16 2.516295 1_656
Bi6 O4 2.299866 1_555
Bi6 O28 2.344655 1_555
Bi6 O13 2.377990 1_555
Bi6 O7 2.434616 1_555
Bi6 O21 2.499165 1_555
Bi6 O17 2.504400 1_555
Bi7 O8 2.324002 1_455
Bi7 O14 2.339628 1_455
Bi7 O0 2.348996 1_555
Bi7 O22 2.439899 1_555
Bi7 O29 2.459025 1_555
Bi7 O18 2.473357 1_565
Bi8 O9 2.318184 1_555
Bi8 O1 2.318541 1_555
Bi8 O10 2.351468 1_555
Bi8 O25 2.463590 1_555
Bi8 O23 2.475158 1_555
Bi8 O19 2.530065 1_655
Bi9 O2 2.285493 1_555
Bi9 O11 2.320332 1_555
Bi9 O5 2.337913 1_555
Bi9 O26 2.464361 1_555
Bi9 O24 2.480284 1_555
Bi9 O15 2.560356 1_555
