# generated using pymatgen
data_Zr6Ga16Pd7
_symmetry_space_group_name_H-M   'P 1'
_cell_length_a   8.86462436
_cell_length_b   8.86462436
_cell_length_c   8.86462436
_cell_angle_alpha   60.00000000
_cell_angle_beta   60.00000000
_cell_angle_gamma   60.00000000
_symmetry_Int_Tables_number   1
_chemical_formula_structural   Zr6Ga16Pd7
_chemical_formula_sum   'Zr6 Ga16 Pd7'
_cell_volume   492.56779532
_cell_formula_units_Z   1
loop_
 _symmetry_equiv_pos_site_id
 _symmetry_equiv_pos_as_xyz
  1  'x, y, z'
loop_
 _atom_site_type_symbol
 _atom_site_label
 _atom_site_symmetry_multiplicity
 _atom_site_fract_x
 _atom_site_fract_y
 _atom_site_fract_z
 _atom_site_occupancy
  Zr  Zr0  1  0.69171000  0.69171000  0.30829000  1
  Zr  Zr1  1  0.30829000  0.69171000  0.30829000  1
  Zr  Zr2  1  0.69171000  0.30829000  0.30829000  1
  Zr  Zr3  1  0.30829000  0.30829000  0.69171000  1
  Zr  Zr4  1  0.69171000  0.30829000  0.69171000  1
  Zr  Zr5  1  0.30829000  0.69171000  0.69171000  1
  Ga  Ga0  1  0.87854400  0.87854400  0.36436900  1
  Ga  Ga1  1  0.87854400  0.36436900  0.87854400  1
  Ga  Ga2  1  0.36436900  0.87854400  0.87854400  1
  Ga  Ga3  1  0.87854400  0.87854400  0.87854400  1
  Ga  Ga4  1  0.12145600  0.12145600  0.63563100  1
  Ga  Ga5  1  0.12145600  0.63563100  0.12145600  1
  Ga  Ga6  1  0.63563100  0.12145600  0.12145600  1
  Ga  Ga7  1  0.12145600  0.12145600  0.12145600  1
  Ga  Ga8  1  0.66020300  0.66020300  0.01939100  1
  Ga  Ga9  1  0.66020300  0.01939100  0.66020300  1
  Ga  Ga10  1  0.01939100  0.66020300  0.66020300  1
  Ga  Ga11  1  0.66020300  0.66020300  0.66020300  1
  Ga  Ga12  1  0.33979700  0.33979700  0.98060900  1
  Ga  Ga13  1  0.33979700  0.98060900  0.33979700  1
  Ga  Ga14  1  0.98060900  0.33979700  0.33979700  1
  Ga  Ga15  1  0.33979700  0.33979700  0.33979700  1
  Pd  Pd0  1  0.00000000  0.00000000  0.00000000  1
  Pd  Pd1  1  0.00000000  0.00000000  0.50000000  1
  Pd  Pd2  1  0.50000000  0.00000000  0.50000000  1
  Pd  Pd3  1  0.00000000  0.50000000  0.50000000  1
  Pd  Pd4  1  0.50000000  0.50000000  0.00000000  1
  Pd  Pd5  1  0.00000000  0.50000000  0.00000000  1
  Pd  Pd6  1  0.50000000  0.00000000  0.00000000  1
loop_
_geom_bond_atom_site_label_1
_geom_bond_atom_site_label_2
_geom_bond_distance
_geom_bond_site_symmetry_2
Zr0 Zr1 3.398874 1_555
Zr0 Zr4 3.398874 1_555
Zr0 Zr2 3.398874 1_555
Zr0 Zr5 3.398874 1_555
Zr1 Zr2 3.398874 1_555
Zr1 Zr5 3.398874 1_555
Zr1 Zr3 3.398874 1_555
Zr2 Zr4 3.398874 1_555
Zr2 Zr3 3.398874 1_555
Zr3 Zr4 3.398874 1_555
Zr3 Zr5 3.398874 1_555
Zr4 Zr5 3.398874 1_555
Ga0 Pd0 2.637279 1_665
Ga0 Pd1 2.740830 1_665
Ga0 Pd3 2.740837 1_655
Ga0 Pd2 2.740837 1_565
Ga0 Ga9 2.822104 1_565
Ga0 Ga10 2.822104 1_655
Ga0 Ga11 2.822109 1_555
Ga0 Ga7 3.045259 1_665
Ga0 Ga5 3.045272 1_655
Ga0 Ga6 3.045272 1_565
Ga0 Zr2 3.181647 1_565
Ga0 Zr1 3.181647 1_655
Ga0 Zr0 3.181655 1_555
Ga1 Pd0 2.637279 1_656
Ga1 Pd5 2.740830 1_656
Ga1 Pd3 2.740837 1_655
Ga1 Pd4 2.740837 1_556
Ga1 Ga8 2.822104 1_556
Ga1 Ga10 2.822104 1_655
Ga1 Ga11 2.822109 1_555
Ga1 Ga7 3.045259 1_656
Ga1 Ga6 3.045272 1_556
Ga1 Ga4 3.045272 1_655
Ga1 Zr3 3.181647 1_655
Ga1 Zr2 3.181647 1_556
Ga1 Zr4 3.181655 1_555
Ga2 Pd0 2.637279 1_566
Ga2 Pd6 2.740830 1_566
Ga2 Pd2 2.740837 1_565
Ga2 Pd4 2.740837 1_556
Ga2 Ga9 2.822104 1_565
Ga2 Ga8 2.822104 1_556
Ga2 Ga7 3.045259 1_566
Ga2 Ga4 3.045272 1_565
Ga2 Ga5 3.045272 1_556
Ga2 Zr3 3.181647 1_565
Ga2 Zr1 3.181647 1_556
Ga2 Zr5 3.181655 1_555
Ga3 Pd0 2.637272 1_666
Ga3 Pd1 2.740837 1_665
Ga3 Pd5 2.740837 1_656
Ga3 Pd6 2.740837 1_566
Ga3 Ga9 2.822111 1_565
Ga3 Ga8 2.822111 1_556
Ga3 Ga5 3.045259 1_656
Ga3 Ga6 3.045259 1_566
Ga3 Ga4 3.045259 1_665
Ga3 Zr5 3.181649 1_655
Ga3 Zr4 3.181649 1_565
Ga3 Zr0 3.181649 1_556
Ga4 Pd0 2.637279 1_556
Ga4 Pd1 2.740830 1_555
Ga4 Pd2 2.740837 1_555
Ga4 Pd3 2.740837 1_555
Ga4 Zr5 3.181647 1_545
Ga4 Zr4 3.181647 1_455
Ga4 Zr3 3.181655 1_555
Ga5 Pd0 2.637279 1_565
Ga5 Pd5 2.740830 1_555
Ga5 Pd4 2.740837 1_555
Ga5 Pd3 2.740837 1_555
Ga5 Zr5 3.181647 1_554
Ga5 Zr0 3.181647 1_455
Ga5 Zr1 3.181655 1_555
Ga6 Pd0 2.637279 1_655
Ga6 Pd6 2.740830 1_555
Ga6 Pd4 2.740837 1_555
Ga6 Pd2 2.740837 1_555
Ga6 Zr4 3.181647 1_554
Ga6 Zr0 3.181647 1_545
Ga6 Zr2 3.181655 1_555
Ga7 Pd0 2.637272 1_555
Ga7 Pd6 2.740837 1_555
Ga7 Pd5 2.740837 1_555
Ga7 Pd1 2.740837 1_555
Ga7 Zr1 3.181649 1_545
Ga7 Zr2 3.181649 1_455
Ga7 Zr3 3.181649 1_554
Ga8 Pd6 2.562843 1_565
Ga8 Pd4 2.562843 1_555
Ga8 Pd5 2.562843 1_655
Ga8 Zr2 2.867612 1_555
Ga8 Zr1 2.867612 1_555
Ga8 Zr0 2.867612 1_555
Ga9 Pd2 2.562843 1_555
Ga9 Pd6 2.562843 1_556
Ga9 Pd1 2.562843 1_655
Ga9 Zr2 2.867612 1_555
Ga9 Zr3 2.867612 1_555
Ga9 Zr4 2.867612 1_555
Ga10 Pd5 2.562843 1_556
Ga10 Pd1 2.562843 1_565
Ga10 Pd3 2.562843 1_555
Ga10 Ga3 2.822111 1_455
Ga10 Zr1 2.867612 1_555
Ga10 Zr3 2.867612 1_555
Ga10 Zr5 2.867612 1_555
Ga11 Pd4 2.562843 1_556
Ga11 Pd3 2.562843 1_655
Ga11 Pd2 2.562843 1_565
Ga11 Ga2 2.822109 1_555
Ga11 Zr5 2.867612 1_555
Ga11 Zr0 2.867612 1_555
Ga11 Zr4 2.867612 1_555
Ga12 Pd6 2.562843 1_556
Ga12 Pd5 2.562843 1_556
Ga12 Pd4 2.562843 1_556
Ga12 Ga6 2.822104 1_556
Ga12 Ga5 2.822104 1_556
Ga12 Ga7 2.822111 1_556
Ga12 Zr3 2.867612 1_555
Ga12 Zr5 2.867612 1_555
Ga12 Zr4 2.867612 1_555
Ga13 Pd6 2.562843 1_565
Ga13 Pd1 2.562843 1_565
Ga13 Pd2 2.562843 1_565
Ga13 Ga6 2.822104 1_565
Ga13 Ga4 2.822104 1_565
Ga13 Ga7 2.822111 1_565
Ga13 Zr1 2.867612 1_555
Ga13 Zr0 2.867612 1_555
Ga13 Zr5 2.867612 1_555
Ga14 Pd1 2.562843 1_655
Ga14 Pd5 2.562843 1_655
Ga14 Pd3 2.562843 1_655
Ga14 Ga4 2.822104 1_655
Ga14 Ga5 2.822104 1_655
Ga14 Ga7 2.822111 1_655
Ga14 Zr2 2.867612 1_555
Ga14 Zr0 2.867612 1_555
Ga14 Zr4 2.867612 1_555
Ga15 Pd3 2.562843 1_555
Ga15 Pd4 2.562843 1_555
Ga15 Pd2 2.562843 1_555
Ga15 Ga6 2.822109 1_555
Ga15 Ga4 2.822109 1_555
Ga15 Ga5 2.822109 1_555
Ga15 Zr3 2.867612 1_555
Ga15 Zr1 2.867612 1_555
Ga15 Zr2 2.867612 1_555
Pd1 Zr2 3.218182 1_455
Pd1 Zr1 3.218182 1_545
Pd1 Zr5 3.218182 1_545
Pd1 Zr4 3.218182 1_455
Pd2 Zr0 3.218182 1_545
Pd2 Zr5 3.218182 1_545
Pd2 Zr2 3.218182 1_555
Pd2 Zr3 3.218182 1_555
Pd3 Zr0 3.218182 1_455
Pd3 Zr4 3.218182 1_455
Pd3 Zr1 3.218182 1_555
Pd3 Zr3 3.218182 1_555
Pd4 Zr5 3.218182 1_554
Pd4 Zr4 3.218182 1_554
Pd4 Zr2 3.218182 1_555
Pd4 Zr1 3.218182 1_555
Pd5 Zr2 3.218182 1_455
Pd5 Zr3 3.218182 1_554
Pd5 Zr5 3.218182 1_554
Pd5 Zr0 3.218182 1_455
Pd6 Zr1 3.218182 1_545
Pd6 Zr3 3.218182 1_554
Pd6 Zr0 3.218182 1_545
Pd6 Zr4 3.218182 1_554
