# generated using pymatgen
data_Fe4H12C15O31
_symmetry_space_group_name_H-M   'P 1'
_cell_length_a   10.33725334
_cell_length_b   10.33725334
_cell_length_c   10.33725334
_cell_angle_alpha   109.47122063
_cell_angle_beta   109.47122063
_cell_angle_gamma   109.47122063
_symmetry_Int_Tables_number   1
_chemical_formula_structural   Fe4H12C15O31
_chemical_formula_sum   'Fe4 H12 C15 O31'
_cell_volume   850.34191960
_cell_formula_units_Z   1
loop_
 _symmetry_equiv_pos_site_id
 _symmetry_equiv_pos_as_xyz
  1  'x, y, z'
loop_
 _atom_site_type_symbol
 _atom_site_label
 _atom_site_symmetry_multiplicity
 _atom_site_fract_x
 _atom_site_fract_y
 _atom_site_fract_z
 _atom_site_occupancy
  Fe  Fe0  1  0.00000000  0.00000000  0.50000000  1
  Fe  Fe1  1  0.50000000  0.00000000  0.00000000  1
  Fe  Fe2  1  0.00000000  0.50000000  0.00000000  1
  Fe  Fe3  1  0.50000000  0.50000000  0.50000000  1
  H  H0  1  0.67914600  0.78693200  0.46607700  1
  H  H1  1  0.67914600  0.21306800  0.89221400  1
  H  H2  1  0.32085400  0.78693200  0.10778600  1
  H  H3  1  0.32085400  0.21306800  0.53392300  1
  H  H4  1  0.78693200  0.46607700  0.67914600  1
  H  H5  1  0.21306800  0.89221400  0.67914600  1
  H  H6  1  0.78693200  0.10778600  0.32085400  1
  H  H7  1  0.21306800  0.53392300  0.32085400  1
  H  H8  1  0.46607700  0.67914600  0.78693200  1
  H  H9  1  0.89221400  0.67914600  0.21306800  1
  H  H10  1  0.10778600  0.32085400  0.78693200  1
  H  H11  1  0.53392300  0.32085400  0.21306800  1
  C  C0  1  0.75690300  0.73728900  0.49419200  1
  C  C1  1  0.75690300  0.26271100  0.01961400  1
  C  C2  1  0.24309700  0.73728900  0.98038600  1
  C  C3  1  0.24309700  0.26271100  0.50580800  1
  C  C4  1  0.73728900  0.49419200  0.75690300  1
  C  C5  1  0.26271100  0.01961400  0.75690300  1
  C  C6  1  0.73728900  0.98038600  0.24309700  1
  C  C7  1  0.26271100  0.50580800  0.24309700  1
  C  C8  1  0.49419200  0.75690300  0.73728900  1
  C  C9  1  0.01961400  0.75690300  0.26271100  1
  C  C10  1  0.98038600  0.24309700  0.73728900  1
  C  C11  1  0.50580800  0.24309700  0.26271100  1
  C  C12  1  0.50000000  0.00000000  0.50000000  1
  C  C13  1  0.00000000  0.50000000  0.50000000  1
  C  C14  1  0.50000000  0.50000000  0.00000000  1
  O  O0  1  0.89377000  0.80261900  0.51026900  1
  O  O1  1  0.70765000  0.19738100  0.09115100  1
  O  O2  1  0.10623000  0.61649900  0.90884900  1
  O  O3  1  0.29235000  0.38350100  0.48973100  1
  O  O4  1  0.80261900  0.51026900  0.89377000  1
  O  O5  1  0.19738100  0.09115100  0.70765000  1
  O  O6  1  0.61649900  0.90884900  0.10623000  1
  O  O7  1  0.38350100  0.48973100  0.29235000  1
  O  O8  1  0.51026900  0.89377000  0.80261900  1
  O  O9  1  0.09115100  0.70765000  0.19738100  1
  O  O10  1  0.90884900  0.10623000  0.61649900  1
  O  O11  1  0.48973100  0.29235000  0.38350100  1
  O  O12  1  0.10623000  0.19738100  0.48973100  1
  O  O13  1  0.29235000  0.80261900  0.90884900  1
  O  O14  1  0.89377000  0.38350100  0.09115100  1
  O  O15  1  0.70765000  0.61649900  0.51026900  1
  O  O16  1  0.19738100  0.48973100  0.10623000  1
  O  O17  1  0.80261900  0.90884900  0.29235000  1
  O  O18  1  0.38350100  0.09115100  0.89377000  1
  O  O19  1  0.61649900  0.51026900  0.70765000  1
  O  O20  1  0.48973100  0.10623000  0.19738100  1
  O  O21  1  0.90884900  0.29235000  0.80261900  1
  O  O22  1  0.09115100  0.89377000  0.38350100  1
  O  O23  1  0.51026900  0.70765000  0.61649900  1
  O  O24  1  0.50000000  0.90141300  0.40141300  1
  O  O25  1  0.50000000  0.09858700  0.59858700  1
  O  O26  1  0.90141300  0.40141300  0.50000000  1
  O  O27  1  0.09858700  0.59858700  0.50000000  1
  O  O28  1  0.40141300  0.50000000  0.90141300  1
  O  O29  1  0.59858700  0.50000000  0.09858700  1
  O  O30  1  0.00000000  0.00000000  0.00000000  1
loop_
_geom_bond_atom_site_label_1
_geom_bond_atom_site_label_2
_geom_bond_distance
_geom_bond_site_symmetry_2
Fe0 O17 2.026985 1_445
Fe0 O22 2.026985 1_545
Fe0 O0 2.026985 1_445
Fe0 O5 2.026985 1_555
Fe0 O12 2.026985 1_555
Fe0 O10 2.026985 1_455
Fe1 O13 2.026985 1_544
Fe1 O18 2.026985 1_554
Fe1 O8 2.026985 1_544
Fe1 O1 2.026985 1_555
Fe1 O20 2.026985 1_555
Fe1 O6 2.026985 1_545
Fe2 O21 2.026985 1_454
Fe2 O14 2.026985 1_455
Fe2 O4 2.026985 1_454
Fe2 O9 2.026985 1_555
Fe2 O16 2.026985 1_555
Fe2 O2 2.026985 1_554
Fe3 O3 2.026985 1_555
Fe3 O7 2.026985 1_555
Fe3 O11 2.026985 1_555
Fe3 O15 2.026985 1_555
Fe3 O23 2.026985 1_555
Fe3 O19 2.026985 1_555
C0 H0 1.101171 1_555
C0 O0 1.271562 1_555
C0 O15 1.271562 1_555
C1 H1 1.101169 1_554
C1 O1 1.271562 1_555
C1 O14 1.271562 1_555
C2 H2 1.101169 1_556
C2 O2 1.271562 1_555
C2 O13 1.271562 1_555
C3 H3 1.101171 1_555
C3 O12 1.271562 1_555
C3 O3 1.271562 1_555
C4 H4 1.101171 1_555
C4 O4 1.271562 1_555
C4 O19 1.271562 1_555
C5 H5 1.101169 1_545
C5 O5 1.271562 1_555
C5 O18 1.271562 1_555
C6 H6 1.101169 1_565
C6 O6 1.271562 1_555
C6 O17 1.271562 1_555
C7 H7 1.101171 1_555
C7 O16 1.271562 1_555
C7 O7 1.271562 1_555
C8 H8 1.101171 1_555
C8 O8 1.271562 1_555
C8 O23 1.271562 1_555
C9 H9 1.101169 1_455
C9 O9 1.271562 1_555
C9 O22 1.271562 1_555
C10 H10 1.101169 1_655
C10 O10 1.271562 1_555
C10 O21 1.271562 1_555
C11 H11 1.101171 1_555
C11 O20 1.271562 1_555
C11 O11 1.271562 1_555
C12 O25 1.176777 1_555
C12 O24 1.176777 1_545
C13 O27 1.176777 1_555
C13 O26 1.176777 1_455
C14 O29 1.176777 1_555
C14 O28 1.176777 1_554
