# generated using pymatgen
data_FeNi2Ge
_symmetry_space_group_name_H-M   'P 1'
_cell_length_a   3.51804400
_cell_length_b   3.51804400
_cell_length_c   3.67529700
_cell_angle_alpha   90.00000000
_cell_angle_beta   90.00000000
_cell_angle_gamma   90.00000000
_symmetry_Int_Tables_number   1
_chemical_formula_structural   FeNi2Ge
_chemical_formula_sum   'Fe1 Ni2 Ge1'
_cell_volume   45.48780429
_cell_formula_units_Z   1
loop_
 _symmetry_equiv_pos_site_id
 _symmetry_equiv_pos_as_xyz
  1  'x, y, z'
loop_
 _atom_site_type_symbol
 _atom_site_label
 _atom_site_symmetry_multiplicity
 _atom_site_fract_x
 _atom_site_fract_y
 _atom_site_fract_z
 _atom_site_occupancy
  Fe  Fe0  1  0.50000000  0.50000000  0.00000000  1
  Ni  Ni0  1  0.50000000  0.00000000  0.50000000  1
  Ni  Ni1  1  0.00000000  0.50000000  0.50000000  1
  Ge  Ge0  1  0.00000000  0.00000000  0.00000000  1
loop_
_geom_bond_atom_site_label_1
_geom_bond_atom_site_label_2
_geom_bond_distance
_geom_bond_site_symmetry_2
Fe0 Ge0 2.487633 1_565
Fe0 Ge0 2.487633 1_665
Fe0 Ge0 2.487633 1_655
Fe0 Ge0 2.487633 1_555
Fe0 Ni1 2.543838 1_654
Fe0 Ni1 2.543838 1_554
Fe0 Ni0 2.543838 1_564
Fe0 Ni0 2.543838 1_555
Fe0 Ni1 2.543838 1_555
Fe0 Ni0 2.543838 1_554
Fe0 Ni0 2.543838 1_565
Fe0 Ni1 2.543838 1_655
Ni0 Ni1 2.487633 1_645
Ni0 Ni1 2.487633 1_555
Ni0 Ni1 2.487633 1_545
Ni0 Ni1 2.487633 1_655
Ge0 Ni1 2.543838 1_554
Ge0 Ni0 2.543838 1_454
Ge0 Ni1 2.543838 1_544
Ge0 Ni0 2.543838 1_555
Ge0 Ni0 2.543838 1_455
Ge0 Ni1 2.543838 1_555
Ge0 Ni0 2.543838 1_554
Ge0 Ni1 2.543838 1_545
