# generated using pymatgen
data_Li9Mn2Co5O16
_symmetry_space_group_name_H-M   'P 1'
_cell_length_a   10.15436330
_cell_length_b   10.15436330
_cell_length_c   5.12132187
_cell_angle_alpha   79.25084952
_cell_angle_beta   79.25084952
_cell_angle_gamma   33.74233392
_symmetry_Int_Tables_number   1
_chemical_formula_structural   Li9Mn2Co5O16
_chemical_formula_sum   'Li9 Mn2 Co5 O16'
_cell_volume   287.69368860
_cell_formula_units_Z   1
loop_
 _symmetry_equiv_pos_site_id
 _symmetry_equiv_pos_as_xyz
  1  'x, y, z'
loop_
 _atom_site_type_symbol
 _atom_site_label
 _atom_site_symmetry_multiplicity
 _atom_site_fract_x
 _atom_site_fract_y
 _atom_site_fract_z
 _atom_site_occupancy
  Li  Li0  1  0.74212600  0.26066100  0.50639000  1
  Li  Li1  1  0.37851400  0.37851400  0.75262400  1
  Li  Li2  1  0.26066100  0.74212600  0.50639000  1
  Li  Li3  1  0.87862800  0.87862800  0.75406400  1
  Li  Li4  1  0.12478700  0.12478700  0.24985400  1
  Li  Li5  1  0.62418000  0.62418000  0.24270500  1
  Li  Li6  1  0.49886400  0.00394400  0.99943800  1
  Li  Li7  1  0.00394400  0.49886400  0.99943800  1
  Li  Li8  1  0.50145700  0.50145700  0.99974600  1
  Mn  Mn0  1  0.00145000  0.00145000  0.00002700  1
  Mn  Mn1  1  0.25123500  0.25123500  0.49978800  1
  Co  Co0  1  0.62057000  0.14099100  0.24979300  1
  Co  Co1  1  0.86538500  0.38216600  0.75584800  1
  Co  Co2  1  0.14099100  0.62057000  0.24979300  1
  Co  Co3  1  0.75216600  0.75216600  0.49909000  1
  Co  Co4  1  0.38216600  0.86538500  0.75584800  1
  O  O0  1  0.06115500  0.06115500  0.65169800  1
  O  O1  1  0.71130700  0.17194400  0.89312100  1
  O  O2  1  0.57161400  0.57161400  0.62082400  1
  O  O3  1  0.17194400  0.71130700  0.89312100  1
  O  O4  1  0.42689800  0.96022400  0.38786200  1
  O  O5  1  0.96022400  0.42689800  0.38786200  1
  O  O6  1  0.81403900  0.81403900  0.15520500  1
  O  O7  1  0.31306300  0.31306300  0.14932200  1
  O  O8  1  0.43356500  0.43356500  0.37540600  1
  O  O9  1  0.06866900  0.55466100  0.60307600  1
  O  O10  1  0.94077300  0.94077300  0.35090100  1
  O  O11  1  0.55466100  0.06866900  0.60307600  1
  O  O12  1  0.83105200  0.29821800  0.09714900  1
  O  O13  1  0.29821800  0.83105200  0.09714900  1
  O  O14  1  0.18948400  0.18948400  0.84079100  1
  O  O15  1  0.68950100  0.68950100  0.85560000  1
loop_
_geom_bond_atom_site_label_1
_geom_bond_atom_site_label_2
_geom_bond_distance
_geom_bond_site_symmetry_2
Li0 O1 2.098637 1_555
Li0 O2 2.128584 1_555
Li0 O8 2.132043 1_555
Li0 O0 2.138881 1_655
Li0 O10 2.173241 1_545
Li0 O12 2.218570 1_555
Li1 O8 2.017691 1_555
Li1 O11 2.171077 1_555
Li1 O9 2.171077 1_555
Li1 O7 2.176733 1_556
Li1 O1 2.211942 1_555
Li1 O3 2.211942 1_555
Li2 O3 2.098637 1_555
Li2 O2 2.128584 1_555
Li2 O8 2.132043 1_555
Li2 O0 2.138881 1_565
Li2 O10 2.173241 1_455
Li2 O13 2.218570 1_555
Li3 O1 2.046664 1_565
Li3 O3 2.046664 1_655
Li3 O10 2.179394 1_555
Li3 O6 2.188820 1_556
Li3 O9 2.231234 1_655
Li3 O11 2.231234 1_565
Li4 O12 2.056702 1_455
Li4 O13 2.056702 1_545
Li4 O4 2.132064 1_545
Li4 O5 2.132064 1_455
Li4 O0 2.184617 1_555
Li4 O14 2.223283 1_554
Li5 O2 2.005604 1_555
Li5 O15 2.135615 1_554
Li5 O12 2.167224 1_555
Li5 O13 2.167224 1_555
Li5 O4 2.287317 1_555
Li5 O5 2.287317 1_555
Li6 O4 2.087123 1_546
Li6 O7 2.123924 1_556
Li6 O15 2.133307 1_545
Li6 O11 2.136844 1_555
Li6 O14 2.148654 1_555
Li6 O6 2.170770 1_546
Li7 O5 2.087123 1_456
Li7 O7 2.123924 1_556
Li7 O15 2.133307 1_455
Li7 O9 2.136844 1_555
Li7 O14 2.148654 1_555
Li7 O6 2.170770 1_456
Li8 O3 2.103409 1_555
Li8 O1 2.103409 1_555
Li8 O8 2.110161 1_556
Li8 O13 2.112085 1_556
Li8 O12 2.112085 1_556
Li8 O2 2.143256 1_555
Mn0 O0 1.929213 1_554
Mn0 O3 1.934551 1_544
Mn0 O1 1.934551 1_454
Mn0 O10 1.947717 1_445
Mn0 O12 1.972011 1_455
Mn0 O13 1.972011 1_545
Mn1 O14 1.916551 1_555
Mn1 O4 1.930490 1_545
Mn1 O5 1.930490 1_455
Mn1 O7 1.955675 1_555
Mn1 O9 1.988095 1_555
Mn1 O11 1.988095 1_555
Co0 O8 1.928969 1_555
Co0 O1 1.980903 1_554
Co0 O11 2.032437 1_555
Co0 O10 2.053056 1_545
Co0 O7 2.063546 1_555
Co0 O6 2.124671 1_545
Co1 O12 1.901193 1_556
Co1 O2 1.951155 1_555
Co1 O15 2.043253 1_555
Co1 O0 2.082794 1_655
Co1 O14 2.087095 1_655
Co1 O5 2.101559 1_555
Co2 O8 1.928969 1_555
Co2 O3 1.980903 1_554
Co2 O9 2.032437 1_555
Co2 O10 2.053056 1_455
Co2 O7 2.063546 1_555
Co2 O6 2.124671 1_455
Co3 O6 1.929275 1_555
Co3 O15 1.987465 1_555
Co3 O11 2.038465 1_565
Co3 O9 2.038465 1_655
Co3 O4 2.084446 1_555
Co3 O5 2.084446 1_555
Co4 O13 1.901193 1_556
Co4 O2 1.951155 1_555
Co4 O15 2.043253 1_555
Co4 O0 2.082794 1_565
Co4 O14 2.087095 1_565
Co4 O4 2.101559 1_555
