# generated using pymatgen
data_Mg3Si4
_symmetry_space_group_name_H-M   'P 1'
_cell_length_a   6.85892096
_cell_length_b   7.57370953
_cell_length_c   6.08021193
_cell_angle_alpha   99.26614009
_cell_angle_beta   72.09563143
_cell_angle_gamma   67.74672665
_symmetry_Int_Tables_number   1
_chemical_formula_structural   Mg3Si4
_chemical_formula_sum   'Mg6 Si8'
_cell_volume   264.00580638
_cell_formula_units_Z   2
loop_
 _symmetry_equiv_pos_site_id
 _symmetry_equiv_pos_as_xyz
  1  'x, y, z'
loop_
 _atom_site_type_symbol
 _atom_site_label
 _atom_site_symmetry_multiplicity
 _atom_site_fract_x
 _atom_site_fract_y
 _atom_site_fract_z
 _atom_site_occupancy
  Mg  Mg0  1  0.50728400  0.60446100  0.19632700  1
  Mg  Mg1  1  0.75347800  0.55173600  0.58359000  1
  Mg  Mg2  1  0.15456400  0.12103000  0.47577100  1
  Mg  Mg3  1  0.63261100  0.21029100  0.34254300  1
  Mg  Mg4  1  0.04337200  0.57277200  0.91264400  1
  Mg  Mg5  1  0.24996300  0.86944200  0.90693200  1
  Si  Si0  1  0.31242000  0.22745500  0.02983200  1
  Si  Si1  1  0.88434400  0.97543800  0.78703900  1
  Si  Si2  1  0.59065200  0.89281500  0.02345700  1
  Si  Si3  1  0.60624800  0.87816500  0.42572000  1
  Si  Si4  1  0.94370200  0.26828300  0.00056400  1
  Si  Si5  1  0.19498700  0.47808300  0.41405200  1
  Si  Si6  1  0.61780100  0.30078600  0.80129500  1
  Si  Si7  1  0.00880500  0.80260400  0.35375500  1
loop_
_geom_bond_atom_site_label_1
_geom_bond_atom_site_label_2
_geom_bond_distance
_geom_bond_site_symmetry_2
Mg0 Si6 2.722943 1_554
Mg0 Si3 2.723964 1_555
Mg0 Si5 2.733910 1_555
Mg0 Si2 2.741668 1_555
Mg0 Si4 2.814335 1_555
Mg0 Si7 2.914971 1_555
Mg1 Si5 2.675863 1_655
Mg1 Si3 2.742738 1_555
Mg1 Si6 2.760974 1_555
Mg1 Si2 2.970975 1_556
Mg2 Si3 2.828058 1_545
Mg2 Si1 2.880295 1_445
Mg2 Si4 2.883033 1_456
Mg2 Si5 2.891572 1_555
Mg2 Si0 2.955242 1_555
Mg2 Si2 2.998864 1_545
Mg2 Si7 3.011979 1_545
Mg2 Si6 3.190733 1_455
Mg3 Si3 2.704401 1_545
Mg3 Si4 2.710217 1_555
Mg3 Si6 2.723547 1_555
Mg3 Si5 2.759520 1_555
Mg3 Si2 2.998909 1_545
Mg3 Si1 3.115527 1_544
Mg4 Si4 2.727203 1_456
Mg4 Si5 2.753657 1_555
Mg4 Si7 2.841218 1_556
Mg4 Si2 2.908326 1_456
Mg4 Si0 2.916544 1_556
Mg4 Si1 3.133096 1_455
Mg5 Si1 2.693023 1_455
Mg5 Si2 2.699002 1_556
Mg5 Si4 2.786803 1_466
Mg5 Si0 2.918588 1_566
Mg5 Si7 2.947400 1_556
Mg5 Si3 3.213281 1_555
Si0 Si5 2.442618 1_555
Si0 Si6 2.442673 1_554
Si0 Si4 2.495055 1_455
Si0 Si2 2.515244 1_545
Si1 Si6 2.417305 1_565
Si1 Si2 2.445353 1_556
Si1 Si7 2.458228 1_655
Si1 Si4 2.617646 1_566
Si2 Si3 2.499036 1_555
Si3 Si7 2.474348 1_655
Si4 Si6 2.805312 1_554
Si5 Si7 2.450895 1_555
