# generated using pymatgen
data_YMg6Fe
_symmetry_space_group_name_H-M   'P 1'
_cell_length_a   5.01284800
_cell_length_b   5.92941600
_cell_length_c   11.59716400
_cell_angle_alpha   90.00000000
_cell_angle_beta   90.00000000
_cell_angle_gamma   90.00000000
_symmetry_Int_Tables_number   1
_chemical_formula_structural   YMg6Fe
_chemical_formula_sum   'Y2 Mg12 Fe2'
_cell_volume   344.70553402
_cell_formula_units_Z   2
loop_
 _symmetry_equiv_pos_site_id
 _symmetry_equiv_pos_as_xyz
  1  'x, y, z'
loop_
 _atom_site_type_symbol
 _atom_site_label
 _atom_site_symmetry_multiplicity
 _atom_site_fract_x
 _atom_site_fract_y
 _atom_site_fract_z
 _atom_site_occupancy
  Y  Y0  1  0.50000000  0.00000000  0.17879300  1
  Y  Y1  1  0.50000000  0.50000000  0.67879300  1
  Mg  Mg0  1  0.50000000  0.24797300  0.42829200  1
  Mg  Mg1  1  0.50000000  0.75202700  0.42829200  1
  Mg  Mg2  1  0.00000000  0.73798800  0.08151000  1
  Mg  Mg3  1  0.00000000  0.26201200  0.08151000  1
  Mg  Mg4  1  0.00000000  0.00000000  0.33849900  1
  Mg  Mg5  1  0.00000000  0.50000000  0.30420000  1
  Mg  Mg6  1  0.50000000  0.74797300  0.92829200  1
  Mg  Mg7  1  0.50000000  0.25202700  0.92829200  1
  Mg  Mg8  1  0.00000000  0.23798800  0.58151000  1
  Mg  Mg9  1  0.00000000  0.76201200  0.58151000  1
  Mg  Mg10  1  0.00000000  0.50000000  0.83849900  1
  Mg  Mg11  1  0.00000000  0.00000000  0.80420000  1
  Fe  Fe0  1  0.50000000  0.50000000  0.15889800  1
  Fe  Fe1  1  0.50000000  0.00000000  0.65889800  1
loop_
_geom_bond_atom_site_label_1
_geom_bond_atom_site_label_2
_geom_bond_distance
_geom_bond_site_symmetry_2
Mg0 Mg1 2.940670 1_545
Mg0 Mg1 2.988746 1_555
Mg0 Mg8 3.072950 1_555
Mg0 Mg8 3.072950 1_655
Mg0 Mg4 3.086818 1_555
Mg0 Mg4 3.086818 1_655
Mg0 Y0 3.245630 1_555
Mg0 Mg5 3.253669 1_655
Mg0 Mg5 3.253669 1_555
Mg0 Y1 3.266920 1_555
Mg1 Mg9 3.072950 1_555
Mg1 Mg9 3.072950 1_655
Mg1 Mg4 3.086818 1_565
Mg1 Mg4 3.086818 1_665
Mg1 Y0 3.245630 1_565
Mg1 Mg5 3.253669 1_655
Mg1 Mg5 3.253669 1_555
Mg1 Y1 3.266920 1_555
Mg2 Mg3 2.822260 1_555
Mg2 Mg5 2.942952 1_555
Mg2 Mg6 3.072950 1_554
Mg2 Mg6 3.072950 1_454
Mg2 Mg3 3.107156 1_565
Mg2 Y0 3.157312 1_465
Mg2 Y0 3.157312 1_565
Mg2 Mg4 3.360960 1_565
Mg3 Mg5 2.942952 1_555
Mg3 Mg7 3.072950 1_454
Mg3 Mg7 3.072950 1_554
Mg3 Y0 3.157312 1_555
Mg3 Y0 3.157312 1_455
Mg3 Mg4 3.360960 1_555
Mg4 Mg5 2.991273 1_545
Mg4 Mg5 2.991273 1_555
Mg4 Y0 3.116500 1_455
Mg4 Y0 3.116500 1_555
Mg4 Mg8 3.151786 1_555
Mg4 Mg9 3.151786 1_545
Mg6 Mg7 2.940670 1_555
Mg6 Mg7 2.988746 1_565
Mg6 Y1 3.245630 1_555
Mg6 Y0 3.266920 1_566
Mg7 Y1 3.245630 1_555
Mg7 Y0 3.266920 1_556
Mg8 Mg9 2.822260 1_545
Mg8 Mg9 3.107156 1_555
Mg8 Y1 3.157312 1_455
Mg8 Y1 3.157312 1_555
Mg9 Y1 3.157312 1_555
Mg9 Y1 3.157312 1_455
Mg10 Mg11 2.991273 1_565
Mg10 Mg11 2.991273 1_555
Mg10 Mg7 3.086818 1_455
Mg10 Mg7 3.086818 1_555
Mg10 Mg6 3.086818 1_555
Mg10 Mg6 3.086818 1_455
Mg10 Y1 3.116500 1_455
Mg10 Y1 3.116500 1_555
Mg10 Mg2 3.151786 1_556
Mg10 Mg3 3.151786 1_556
Mg10 Mg9 3.360960 1_555
Mg10 Mg8 3.360960 1_555
Mg11 Mg8 2.942952 1_555
Mg11 Mg9 2.942952 1_545
Mg11 Mg7 3.253669 1_455
Mg11 Mg7 3.253669 1_555
Mg11 Mg6 3.253669 1_445
Mg11 Mg6 3.253669 1_545
Fe0 Y0 2.973672 1_555
Fe0 Y0 2.973672 1_565
Fe0 Mg2 3.013125 1_655
Fe0 Mg2 3.013125 1_555
Fe0 Mg3 3.013125 1_655
Fe0 Mg3 3.013125 1_555
Fe0 Mg5 3.020214 1_555
Fe0 Mg5 3.020214 1_655
Fe0 Mg6 3.051913 1_554
Fe0 Mg7 3.051913 1_554
Fe0 Mg1 3.463209 1_555
Fe0 Mg0 3.463209 1_555
Fe1 Y1 2.973672 1_545
Fe1 Y1 2.973672 1_555
Fe1 Mg8 3.013125 1_555
Fe1 Mg8 3.013125 1_655
Fe1 Mg9 3.013125 1_645
Fe1 Mg9 3.013125 1_545
Fe1 Mg11 3.020214 1_555
Fe1 Mg11 3.020214 1_655
Fe1 Mg0 3.051913 1_555
Fe1 Mg1 3.051913 1_545
Fe1 Mg7 3.463209 1_555
Fe1 Mg6 3.463209 1_545
