# generated using pymatgen
data_CaCrAs2O7
_symmetry_space_group_name_H-M   'P 1'
_cell_length_a   9.19194600
_cell_length_b   7.50593700
_cell_length_c   9.57975409
_cell_angle_alpha   69.42649783
_cell_angle_beta   90.00000000
_cell_angle_gamma   90.00000000
_symmetry_Int_Tables_number   1
_chemical_formula_structural   CaCrAs2O7
_chemical_formula_sum   'Ca4 Cr4 As8 O28'
_cell_volume   618.79337235
_cell_formula_units_Z   4
loop_
 _symmetry_equiv_pos_site_id
 _symmetry_equiv_pos_as_xyz
  1  'x, y, z'
loop_
 _atom_site_type_symbol
 _atom_site_label
 _atom_site_symmetry_multiplicity
 _atom_site_fract_x
 _atom_site_fract_y
 _atom_site_fract_z
 _atom_site_occupancy
  Ca  Ca0  1  0.06538100  0.74869500  0.93319100  1
  Ca  Ca1  1  0.56538100  0.25130500  0.56680900  1
  Ca  Ca2  1  0.93461900  0.25130500  0.06680900  1
  Ca  Ca3  1  0.43461900  0.74869500  0.43319100  1
  Cr  Cr0  1  0.95025800  0.21616000  0.67643300  1
  Cr  Cr1  1  0.45025800  0.78384000  0.82356700  1
  Cr  Cr2  1  0.04974200  0.78384000  0.32356700  1
  Cr  Cr3  1  0.54974200  0.21616000  0.17643300  1
  As  As0  1  0.76427500  0.57899800  0.73514000  1
  As  As1  1  0.26427500  0.42100200  0.76486000  1
  As  As2  1  0.23572500  0.42100200  0.26486000  1
  As  As3  1  0.73572500  0.57899800  0.23514000  1
  As  As4  1  0.70604400  0.97682800  0.95730000  1
  As  As5  1  0.20604400  0.02317200  0.54270000  1
  As  As6  1  0.29395600  0.02317200  0.04270000  1
  As  As7  1  0.79395600  0.97682800  0.45730000  1
  O  O0  1  0.69133100  0.14530900  0.03849800  1
  O  O1  1  0.19133100  0.85469100  0.46150200  1
  O  O2  1  0.30866900  0.85469100  0.96150200  1
  O  O3  1  0.80866900  0.14530900  0.53849800  1
  O  O4  1  0.58745200  0.65160000  0.72072800  1
  O  O5  1  0.08745200  0.34840000  0.77927200  1
  O  O6  1  0.41254800  0.34840000  0.27927200  1
  O  O7  1  0.91254800  0.65160000  0.22072800  1
  O  O8  1  0.86308500  0.56594400  0.88882900  1
  O  O9  1  0.36308500  0.43405600  0.61117100  1
  O  O10  1  0.13691500  0.43405600  0.11117100  1
  O  O11  1  0.63691500  0.56594400  0.38882900  1
  O  O12  1  0.85960600  0.75188600  0.58158000  1
  O  O13  1  0.35960600  0.24811400  0.91842000  1
  O  O14  1  0.14039400  0.24811400  0.41842000  1
  O  O15  1  0.64039400  0.75188600  0.08158000  1
  O  O16  1  0.90900800  0.00291100  0.31098700  1
  O  O17  1  0.40900800  0.99708900  0.18901300  1
  O  O18  1  0.09099200  0.99708900  0.68901300  1
  O  O19  1  0.59099200  0.00291100  0.81098700  1
  O  O20  1  0.72939100  0.37322700  0.19690800  1
  O  O21  1  0.22939100  0.62677300  0.30309200  1
  O  O22  1  0.27060900  0.62677300  0.80309200  1
  O  O23  1  0.77060900  0.37322700  0.69690800  1
  O  O24  1  0.61584500  0.98218000  0.41172000  1
  O  O25  1  0.11584500  0.01782000  0.08828000  1
  O  O26  1  0.38415500  0.01782000  0.58828000  1
  O  O27  1  0.88415500  0.98218000  0.91172000  1
loop_
_geom_bond_atom_site_label_1
_geom_bond_atom_site_label_2
_geom_bond_distance
_geom_bond_site_symmetry_2
Ca0 O27 2.373869 1_455
Ca0 O2 2.420574 1_555
Ca0 O8 2.435085 1_455
Ca0 O18 2.436817 1_555
Ca0 O10 2.467152 1_556
Ca0 O22 2.598280 1_555
Ca0 O25 2.934681 1_566
Ca0 O7 2.946397 1_456
Ca1 O26 2.373869 1_555
Ca1 O3 2.420574 1_555
Ca1 O9 2.435085 1_555
Ca1 O19 2.436817 1_555
Ca1 O11 2.467152 1_555
Ca1 O23 2.598280 1_555
Ca1 O24 2.934681 1_545
Ca1 O6 2.946397 1_555
Ca2 O25 2.373869 1_655
Ca2 O0 2.420574 1_555
Ca2 O10 2.435085 1_655
Ca2 O16 2.436817 1_555
Ca2 O8 2.467152 1_554
Ca2 O20 2.598280 1_555
Ca2 O27 2.934681 1_544
Ca2 O5 2.946397 1_654
Ca3 O24 2.373869 1_555
Ca3 O1 2.420574 1_555
Ca3 O11 2.435085 1_555
Ca3 O17 2.436817 1_555
Ca3 O9 2.467152 1_555
Ca3 O21 2.598280 1_555
Ca3 O26 2.934681 1_565
Ca3 O4 2.946397 1_555
Cr0 O3 2.053435 1_555
Cr0 O5 2.057517 1_655
Cr0 O18 2.062167 1_645
Cr0 O23 2.077920 1_555
Cr0 O27 2.398315 1_545
Cr1 O2 2.053435 1_555
Cr1 O4 2.057517 1_555
Cr1 O19 2.062167 1_565
Cr1 O22 2.077920 1_555
Cr1 O26 2.398315 1_565
Cr2 O1 2.053435 1_555
Cr2 O7 2.057517 1_455
Cr2 O16 2.062167 1_465
Cr2 O21 2.077920 1_555
Cr2 O25 2.398315 1_565
Cr3 O0 2.053435 1_555
Cr3 O6 2.057517 1_555
Cr3 O17 2.062167 1_545
Cr3 O20 2.077920 1_555
Cr3 O24 2.398315 1_545
As0 O8 1.703179 1_555
As0 O4 1.704378 1_555
As0 O23 1.708974 1_555
As0 O12 1.809482 1_555
As1 O9 1.703179 1_555
As1 O5 1.704378 1_555
As1 O22 1.708974 1_555
As1 O13 1.809482 1_555
As2 O10 1.703179 1_555
As2 O6 1.704378 1_555
As2 O21 1.708974 1_555
As2 O14 1.809482 1_555
As3 O11 1.703179 1_555
As3 O7 1.704378 1_555
As3 O20 1.708974 1_555
As3 O15 1.809482 1_555
As4 O27 1.691250 1_555
As4 O0 1.707025 1_566
As4 O19 1.711282 1_565
As4 O15 1.794306 1_556
As5 O26 1.691250 1_555
As5 O1 1.707025 1_545
As5 O18 1.711282 1_545
As5 O14 1.794306 1_555
As6 O25 1.691250 1_555
As6 O2 1.707025 1_544
As6 O17 1.711282 1_545
As6 O13 1.794306 1_554
As7 O24 1.691250 1_555
As7 O3 1.707025 1_565
As7 O16 1.711282 1_565
As7 O12 1.794306 1_555
