# generated using pymatgen
data_Cs2MoN(Cl2O)2
_symmetry_space_group_name_H-M   'P 1'
_cell_length_a   9.56195335
_cell_length_b   9.53451721
_cell_length_c   8.69725502
_cell_angle_alpha   89.98473799
_cell_angle_beta   90.04680368
_cell_angle_gamma   46.26793079
_symmetry_Int_Tables_number   1
_chemical_formula_structural   Cs2MoN(Cl2O)2
_chemical_formula_sum   'Cs4 Mo2 N2 Cl8 O4'
_cell_volume   572.94540303
_cell_formula_units_Z   2
loop_
 _symmetry_equiv_pos_site_id
 _symmetry_equiv_pos_as_xyz
  1  'x, y, z'
loop_
 _atom_site_type_symbol
 _atom_site_label
 _atom_site_symmetry_multiplicity
 _atom_site_fract_x
 _atom_site_fract_y
 _atom_site_fract_z
 _atom_site_occupancy
  Cs  Cs0  1  0.23810400  0.23658900  0.24668100  1
  Cs  Cs1  1  0.76173900  0.76684900  0.74867500  1
  Cs  Cs2  1  0.52582500  0.52013400  0.24691600  1
  Cs  Cs3  1  0.47351600  0.48054900  0.74671200  1
  Mo  Mo0  1  0.89339800  0.89568000  0.24947800  1
  Mo  Mo1  1  0.10591800  0.10439900  0.74797300  1
  N  N0  1  0.77367600  0.77435900  0.24779200  1
  N  N1  1  0.22484700  0.22624700  0.74708400  1
  Cl  Cl0  1  0.11512800  0.64589500  0.44875500  1
  Cl  Cl1  1  0.35337200  0.88470700  0.54657400  1
  Cl  Cl2  1  0.11274800  0.65119700  0.04714500  1
  Cl  Cl3  1  0.35467300  0.88491400  0.94914900  1
  Cl  Cl4  1  0.88425500  0.35103900  0.54735800  1
  Cl  Cl5  1  0.64747300  0.11372800  0.45167400  1
  Cl  Cl6  1  0.88602300  0.35040700  0.94920500  1
  Cl  Cl7  1  0.64557100  0.11761700  0.04849700  1
  O  O0  1  0.70377900  0.70746600  0.24667000  1
  O  O1  1  0.29859300  0.28951200  0.74634500  1
  O  O2  1  0.98919100  0.99666400  0.25067100  1
  O  O3  1  0.01244400  0.00104200  0.74858600  1
loop_
_geom_bond_atom_site_label_1
_geom_bond_atom_site_label_2
_geom_bond_distance
_geom_bond_site_symmetry_2
Cs0 O0 3.771002 1_545
Cs0 N0 3.800622 1_545
Cs0 N0 3.811854 1_455
Cs0 O0 3.813990 1_455
Cs1 O1 3.732830 1_565
Cs1 N1 3.801538 1_565
Cs1 N1 3.823639 1_655
Cs1 O1 3.842452 1_655
Cs2 O0 3.207430 1_555
Cs3 O1 3.213623 1_555
Cs3 O3 3.716980 1_565
Mo0 O2 1.727851 1_555
Mo0 N0 2.116497 1_555
Mo1 O3 1.728525 1_555
Mo1 N1 2.114132 1_555
N0 O0 1.201212 1_555
N1 O1 1.203836 1_555
Cl0 Mo0 2.486280 1_455
Cl0 Cs0 3.655643 1_555
Cl0 Cs2 3.666508 1_555
Cl0 Cs3 3.668555 1_555
Cl0 Cs1 3.765718 1_455
Cl1 Mo1 2.492132 1_565
Cl1 Cs3 3.615436 1_555
Cl1 Cs1 3.677072 1_555
Cl1 Cs2 3.698818 1_555
Cl1 Cs0 3.761918 1_565
Cl2 Mo0 2.485590 1_455
Cl2 Cs2 3.653076 1_555
Cl2 Cs0 3.676566 1_555
Cl2 Cs3 3.692124 1_554
Cl2 Cs1 3.753236 1_454
Cl3 Mo1 2.491522 1_565
Cl3 Cs3 3.633879 1_555
Cl3 Cs1 3.662220 1_555
Cl3 Cs2 3.687872 1_556
Cl3 Cs0 3.744823 1_566
Cl4 Mo1 2.483420 1_655
Cl4 Cs3 3.641860 1_555
Cl4 Cs2 3.676557 1_555
Cl4 Cs1 3.706949 1_555
Cl4 Cs0 3.793235 1_655
Cl5 Mo0 2.488762 1_545
Cl5 Cs2 3.646980 1_555
Cl5 Cs0 3.677094 1_555
Cl5 Cs3 3.681308 1_555
Cl5 Cs1 3.714743 1_545
Cl6 Mo1 2.485026 1_655
Cl6 Cs3 3.663339 1_555
Cl6 Cs2 3.673750 1_556
Cl6 Cs1 3.699807 1_555
Cl6 Cs0 3.760110 1_656
Cl7 Mo0 2.491405 1_545
Cl7 Cs2 3.598490 1_555
Cl7 Cs0 3.652333 1_555
Cl7 Cs3 3.699607 1_554
Cl7 Cs1 3.753907 1_544
