# generated using pymatgen
data_Li9Mn2Co5O16
_symmetry_space_group_name_H-M   'P 1'
_cell_length_a   2.92584100
_cell_length_b   9.93953000
_cell_length_c   10.13201978
_cell_angle_alpha   79.85021425
_cell_angle_beta   90.00000000
_cell_angle_gamma   90.00000000
_symmetry_Int_Tables_number   1
_chemical_formula_structural   Li9Mn2Co5O16
_chemical_formula_sum   'Li9 Mn2 Co5 O16'
_cell_volume   290.04296319
_cell_formula_units_Z   1
loop_
 _symmetry_equiv_pos_site_id
 _symmetry_equiv_pos_as_xyz
  1  'x, y, z'
loop_
 _atom_site_type_symbol
 _atom_site_label
 _atom_site_symmetry_multiplicity
 _atom_site_fract_x
 _atom_site_fract_y
 _atom_site_fract_z
 _atom_site_occupancy
  Li  Li0  1  0.50000000  0.24629200  0.87691300  1
  Li  Li1  1  0.50000000  0.77454900  0.61833100  1
  Li  Li2  1  0.50000000  0.22545100  0.38166900  1
  Li  Li3  1  0.00000000  0.24292300  0.62524800  1
  Li  Li4  1  0.00000000  0.75707700  0.37475200  1
  Li  Li5  1  0.00000000  0.24657000  0.13111100  1
  Li  Li6  1  0.50000000  0.75370800  0.12308700  1
  Li  Li7  1  0.00000000  0.75343000  0.86888900  1
  Li  Li8  1  0.00000000  0.00000000  0.50000000  1
  Mn  Mn0  1  0.00000000  0.00000000  0.00000000  1
  Mn  Mn1  1  0.50000000  0.50000000  0.50000000  1
  Co  Co0  1  0.00000000  0.50157100  0.75622300  1
  Co  Co1  1  0.00000000  0.49842900  0.24377700  1
  Co  Co2  1  0.50000000  0.99327000  0.26933300  1
  Co  Co3  1  0.50000000  0.50000000  0.00000000  1
  Co  Co4  1  0.50000000  0.00673000  0.73066700  1
  O  O0  1  0.50000000  0.10760700  0.05673500  1
  O  O1  1  0.50000000  0.61568600  0.81226200  1
  O  O2  1  0.50000000  0.12446200  0.57352900  1
  O  O3  1  0.00000000  0.11012100  0.82241000  1
  O  O4  1  0.00000000  0.60950400  0.55423800  1
  O  O5  1  0.00000000  0.11602700  0.30525100  1
  O  O6  1  0.50000000  0.60599800  0.31942900  1
  O  O7  1  0.00000000  0.61880500  0.06299400  1
  O  O8  1  0.50000000  0.39400200  0.68057100  1
  O  O9  1  0.50000000  0.87553800  0.42647100  1
  O  O10  1  0.50000000  0.38431400  0.18773800  1
  O  O11  1  0.00000000  0.39049600  0.44576200  1
  O  O12  1  0.00000000  0.88987900  0.17759000  1
  O  O13  1  0.00000000  0.38119500  0.93700600  1
  O  O14  1  0.50000000  0.89239300  0.94326500  1
  O  O15  1  0.00000000  0.88397300  0.69474900  1
loop_
_geom_bond_atom_site_label_1
_geom_bond_atom_site_label_2
_geom_bond_distance
_geom_bond_site_symmetry_2
Li0 O0 2.081955 1_556
Li0 O3 2.130824 1_655
Li0 O3 2.130824 1_555
Li0 O13 2.143952 1_655
Li0 O13 2.143952 1_555
Li0 O8 2.254687 1_555
Li1 O9 2.024530 1_555
Li1 O15 2.054106 1_655
Li1 O15 2.054106 1_555
Li1 O1 2.293619 1_555
Li1 O4 2.372435 1_555
Li1 O4 2.372435 1_655
Li2 O2 2.024530 1_555
Li2 O5 2.054106 1_555
Li2 O5 2.054106 1_655
Li2 O10 2.293619 1_555
Li2 O11 2.372435 1_655
Li2 O11 2.372435 1_555
Li3 O2 2.004637 1_555
Li3 O2 2.004637 1_455
Li3 O11 2.125684 1_555
Li3 O3 2.191717 1_555
Li3 O8 2.237401 1_455
Li3 O8 2.237401 1_555
Li4 O9 2.004637 1_555
Li4 O9 2.004637 1_455
Li4 O4 2.125684 1_555
Li4 O12 2.191717 1_555
Li4 O6 2.237401 1_455
Li4 O6 2.237401 1_555
Li5 O5 1.997448 1_555
Li5 O10 2.149567 1_455
Li5 O10 2.149567 1_555
Li5 O13 2.175051 1_554
Li5 O0 2.232185 1_455
Li5 O0 2.232185 1_555
Li6 O14 2.081955 1_554
Li6 O12 2.130824 1_655
Li6 O12 2.130824 1_555
Li6 O7 2.143952 1_655
Li6 O7 2.143952 1_555
Li6 O6 2.254687 1_555
Li7 O15 1.997448 1_555
Li7 O1 2.149567 1_455
Li7 O1 2.149567 1_555
Li7 O7 2.175051 1_556
Li7 O14 2.232185 1_455
Li7 O14 2.232185 1_555
Li8 O15 2.102735 1_545
Li8 O5 2.102735 1_555
Li8 O9 2.133162 1_545
Li8 O2 2.133162 1_555
Li8 O2 2.133162 1_455
Li8 O9 2.133162 1_445
Mn0 O12 1.934310 1_545
Mn0 O3 1.934310 1_554
Mn0 O14 1.957354 1_544
Mn0 O14 1.957354 1_444
Mn0 O0 1.957354 1_455
Mn0 O0 1.957354 1_555
Mn1 O6 1.943683 1_555
Mn1 O8 1.943683 1_555
Mn1 O11 1.958978 1_655
Mn1 O11 1.958978 1_555
Mn1 O4 1.958978 1_655
Mn1 O4 1.958978 1_555
Co0 O1 1.993996 1_555
Co0 O1 1.993996 1_455
Co0 O13 2.003564 1_555
Co0 O8 2.039527 1_555
Co0 O8 2.039527 1_455
Co0 O4 2.136666 1_555
Co1 O10 1.993996 1_455
Co1 O10 1.993996 1_555
Co1 O7 2.003564 1_555
Co1 O6 2.039527 1_455
Co1 O6 2.039527 1_555
Co1 O11 2.136666 1_555
Co2 O9 1.802108 1_555
Co2 O5 1.979352 1_565
Co2 O5 1.979352 1_665
Co2 O12 2.096888 1_655
Co2 O12 2.096888 1_555
Co2 O0 2.251372 1_565
Co3 O1 2.041946 1_554
Co3 O10 2.041946 1_555
Co3 O13 2.051240 1_654
Co3 O13 2.051240 1_554
Co3 O7 2.051240 1_655
Co3 O7 2.051240 1_555
Co4 O2 1.802108 1_555
Co4 O15 1.979352 1_645
Co4 O15 1.979352 1_545
Co4 O3 2.096888 1_655
Co4 O3 2.096888 1_555
Co4 O14 2.251372 1_545
