# generated using pymatgen
data_HfGaAu
_symmetry_space_group_name_H-M   'P 1'
_cell_length_a   4.31666333
_cell_length_b   4.31666252
_cell_length_c   6.70686628
_cell_angle_alpha   90.00000000
_cell_angle_beta   90.00000000
_cell_angle_gamma   120.00000625
_symmetry_Int_Tables_number   1
_chemical_formula_structural   HfGaAu
_chemical_formula_sum   'Hf2 Ga2 Au2'
_cell_volume   108.22971799
_cell_formula_units_Z   2
loop_
 _symmetry_equiv_pos_site_id
 _symmetry_equiv_pos_as_xyz
  1  'x, y, z'
loop_
 _atom_site_type_symbol
 _atom_site_label
 _atom_site_symmetry_multiplicity
 _atom_site_fract_x
 _atom_site_fract_y
 _atom_site_fract_z
 _atom_site_occupancy
  Hf  Hf0  1  -0.00000000  0.00000000  0.50000000  1
  Hf  Hf1  1  0.00000000  0.00000000  0.00000000  1
  Ga  Ga0  1  0.66666700  0.33333300  0.20793680  1
  Ga  Ga1  1  0.66666700  0.33333300  0.79206320  1
  Au  Au0  1  0.33333300  0.66666700  0.71106032  1
  Au  Au1  1  0.33333300  0.66666700  0.28893968  1
loop_
_geom_bond_atom_site_label_1
_geom_bond_atom_site_label_2
_geom_bond_distance
_geom_bond_site_symmetry_2
Ga0 Ga1 2.789209 1_554
Ga0 Hf1 2.855889 1_655
Ga0 Hf1 2.855892 1_665
Ga0 Hf1 2.855892 1_555
Ga0 Hf0 3.169888 1_655
Ga0 Hf0 3.169891 1_665
Ga0 Hf0 3.169891 1_555
Ga1 Hf1 2.855889 1_656
Ga1 Hf1 2.855892 1_666
Ga1 Hf1 2.855892 1_556
Ga1 Hf0 3.169888 1_655
Ga1 Hf0 3.169891 1_665
Ga1 Hf0 3.169891 1_555
Au0 Ga1 2.550750 1_565
Au0 Ga1 2.550751 1_455
Au0 Ga1 2.550758 1_555
Au0 Au1 2.831107 1_555
Au0 Hf0 2.866177 1_565
Au0 Hf0 2.866180 1_555
Au0 Hf0 2.866181 1_665
Au0 Hf1 3.156986 1_566
Au0 Hf1 3.156988 1_556
Au0 Hf1 3.156989 1_666
Au1 Ga0 2.550750 1_565
Au1 Ga0 2.550751 1_455
Au1 Ga0 2.550758 1_555
Au1 Hf0 2.866177 1_565
Au1 Hf0 2.866180 1_555
Au1 Hf0 2.866181 1_665
Au1 Hf1 3.156986 1_565
Au1 Hf1 3.156988 1_555
Au1 Hf1 3.156989 1_665
