# generated using pymatgen
data_KN2
_symmetry_space_group_name_H-M   'P 1'
_cell_length_a   4.16381900
_cell_length_b   4.45195062
_cell_length_c   4.45195062
_cell_angle_alpha   70.84967340
_cell_angle_beta   62.11879018
_cell_angle_gamma   62.11879018
_symmetry_Int_Tables_number   1
_chemical_formula_structural   KN2
_chemical_formula_sum   'K1 N2'
_cell_volume   63.84413199
_cell_formula_units_Z   1
loop_
 _symmetry_equiv_pos_site_id
 _symmetry_equiv_pos_as_xyz
  1  'x, y, z'
loop_
 _atom_site_type_symbol
 _atom_site_label
 _atom_site_symmetry_multiplicity
 _atom_site_fract_x
 _atom_site_fract_y
 _atom_site_fract_z
 _atom_site_occupancy
  K  K0  1  0.00000000  0.00000000  0.00000000  1
  N  N0  1  0.50000000  0.38494300  0.61505700  1
  N  N1  1  0.50000000  0.61505700  0.38494300  1
loop_
_geom_bond_atom_site_label_1
_geom_bond_atom_site_label_2
_geom_bond_distance
_geom_bond_site_symmetry_2
K0 N1 2.877725 1_445
K0 N0 2.877725 1_554
K0 N1 2.877725 1_545
K0 N0 2.877725 1_454
K0 N1 3.029707 1_455
K0 N0 3.029707 1_455
K0 N1 3.029707 1_544
K0 N0 3.029707 1_544
N0 N1 1.187620 1_555
