# generated using pymatgen
data_BaSr7MnFe7O20
_symmetry_space_group_name_H-M   'P 1'
_cell_length_a   11.26729992
_cell_length_b   11.52476810
_cell_length_c   17.82688268
_cell_angle_alpha   108.90262025
_cell_angle_beta   108.25804296
_cell_angle_gamma   90.03517544
_symmetry_Int_Tables_number   1
_chemical_formula_structural   BaSr7MnFe7O20
_chemical_formula_sum   'Ba4 Sr28 Mn4 Fe28 O80'
_cell_volume   2066.30191168
_cell_formula_units_Z   4
loop_
 _symmetry_equiv_pos_site_id
 _symmetry_equiv_pos_as_xyz
  1  'x, y, z'
loop_
 _atom_site_type_symbol
 _atom_site_label
 _atom_site_symmetry_multiplicity
 _atom_site_fract_x
 _atom_site_fract_y
 _atom_site_fract_z
 _atom_site_occupancy
  Ba  Ba0  1  0.30846900  0.06264600  0.11420100  1
  Ba  Ba1  1  0.30821800  0.56178000  0.11353300  1
  Ba  Ba2  1  0.80740100  0.06306400  0.11416000  1
  Ba  Ba3  1  0.05643400  0.80099800  0.11323000  1
  Sr  Sr0  1  0.30592800  0.06169500  0.60898700  1
  Sr  Sr1  1  0.30650800  0.55976700  0.60821900  1
  Sr  Sr2  1  0.80630600  0.06372500  0.60870300  1
  Sr  Sr3  1  0.80577700  0.56168800  0.10883100  1
  Sr  Sr4  1  0.80692400  0.56198900  0.60822300  1
  Sr  Sr5  1  0.19789600  0.43695300  0.39179000  1
  Sr  Sr6  1  0.19730900  0.43683100  0.88948100  1
  Sr  Sr7  1  0.19781700  0.93746700  0.39293700  1
  Sr  Sr8  1  0.19780000  0.93760000  0.89088100  1
  Sr  Sr9  1  0.69716400  0.43657600  0.39119100  1
  Sr  Sr10  1  0.69735400  0.43740000  0.88942900  1
  Sr  Sr11  1  0.69742500  0.93698200  0.39139600  1
  Sr  Sr12  1  0.69799600  0.93853600  0.89153200  1
  Sr  Sr13  1  0.05497600  0.29754400  0.10811400  1
  Sr  Sr14  1  0.05662600  0.29727000  0.60962000  1
  Sr  Sr15  1  0.05541400  0.79575100  0.60785900  1
  Sr  Sr16  1  0.55590000  0.29690300  0.10821500  1
  Sr  Sr17  1  0.55777500  0.29814200  0.60971700  1
  Sr  Sr18  1  0.55733500  0.79443800  0.10843600  1
  Sr  Sr19  1  0.55640600  0.79619100  0.60763300  1
  Sr  Sr20  1  0.44803300  0.20638500  0.39395800  1
  Sr  Sr21  1  0.44741700  0.20264700  0.89009400  1
  Sr  Sr22  1  0.44856300  0.70547300  0.39344200  1
  Sr  Sr23  1  0.44848200  0.70075000  0.89059100  1
  Sr  Sr24  1  0.94881300  0.20644800  0.39341100  1
  Sr  Sr25  1  0.94680100  0.20457000  0.88988200  1
  Sr  Sr26  1  0.94778900  0.70465900  0.39189800  1
  Sr  Sr27  1  0.94779100  0.70262200  0.89028500  1
  Mn  Mn0  1  0.11031000  0.59474000  0.74924900  1
  Mn  Mn1  1  0.60900100  0.59779300  0.74918500  1
  Mn  Mn2  1  0.36085400  0.40464000  0.74949900  1
  Mn  Mn3  1  0.35987500  0.90275700  0.74937200  1
  Fe  Fe0  1  0.00078400  0.99799000  0.99389700  1
  Fe  Fe1  1  0.00385000  0.00010000  0.49986300  1
  Fe  Fe2  1  0.00083800  0.49685000  0.99559300  1
  Fe  Fe3  1  0.00448900  0.50035100  0.50110100  1
  Fe  Fe4  1  0.50110300  0.99814000  0.99575700  1
  Fe  Fe5  1  0.50428700  0.00033700  0.49991800  1
  Fe  Fe6  1  0.50274300  0.49770700  0.99605000  1
  Fe  Fe7  1  0.50450200  0.50031100  0.50132700  1
  Fe  Fe8  1  0.25260300  0.24877300  0.99681500  1
  Fe  Fe9  1  0.25472900  0.25101900  0.50165100  1
  Fe  Fe10  1  0.25200100  0.74686900  0.99444600  1
  Fe  Fe11  1  0.25387000  0.75028700  0.50050500  1
  Fe  Fe12  1  0.75334900  0.25098000  0.99862800  1
  Fe  Fe13  1  0.75474100  0.25026000  0.50045600  1
  Fe  Fe14  1  0.74986000  0.74579000  0.99463700  1
  Fe  Fe15  1  0.75444200  0.74982000  0.49958700  1
  Fe  Fe16  1  0.11089800  0.09508800  0.25386700  1
  Fe  Fe17  1  0.10768900  0.08727700  0.74947800  1
  Fe  Fe18  1  0.10574600  0.58919500  0.25103000  1
  Fe  Fe19  1  0.61051700  0.09219100  0.25233200  1
  Fe  Fe20  1  0.60855300  0.09023700  0.74968400  1
  Fe  Fe21  1  0.61151300  0.59141700  0.25214500  1
  Fe  Fe22  1  0.35868300  0.40949300  0.25224700  1
  Fe  Fe23  1  0.36315300  0.91052700  0.25401300  1
  Fe  Fe24  1  0.85747100  0.41110500  0.25055500  1
  Fe  Fe25  1  0.85827500  0.41086600  0.74943500  1
  Fe  Fe26  1  0.85725300  0.90682300  0.25225800  1
  Fe  Fe27  1  0.85706500  0.90942000  0.74919000  1
  O  O0  1  0.12450300  0.12147500  0.49167200  1
  O  O1  1  0.12184700  0.12210200  0.98898900  1
  O  O2  1  0.12470300  0.62228300  0.49208800  1
  O  O3  1  0.12219400  0.61980400  0.98844700  1
  O  O4  1  0.62516800  0.12206700  0.49207800  1
  O  O5  1  0.62251000  0.12336600  0.98981700  1
  O  O6  1  0.62495800  0.62263100  0.49255500  1
  O  O7  1  0.62477900  0.62154700  0.99229600  1
  O  O8  1  0.12849800  0.37312100  0.00384900  1
  O  O9  1  0.13236400  0.37769900  0.50752500  1
  O  O10  1  0.12893300  0.87566700  0.00168200  1
  O  O11  1  0.13277500  0.87832300  0.50837400  1
  O  O12  1  0.63265900  0.37806500  0.00719800  1
  O  O13  1  0.63348700  0.37726600  0.50816200  1
  O  O14  1  0.62783300  0.87440900  0.00416300  1
  O  O15  1  0.63384100  0.87812400  0.50925400  1
  O  O16  1  0.37505200  0.11957500  0.49253500  1
  O  O17  1  0.37379500  0.11993300  0.98977300  1
  O  O18  1  0.37460300  0.62060100  0.49237300  1
  O  O19  1  0.37567900  0.62001800  0.99108400  1
  O  O20  1  0.87482900  0.11925000  0.49193000  1
  O  O21  1  0.87412900  0.12001200  0.98914800  1
  O  O22  1  0.87445600  0.61969200  0.49151100  1
  O  O23  1  0.87123000  0.61572000  0.98947100  1
  O  O24  1  0.38336000  0.37625200  0.00477300  1
  O  O25  1  0.38289300  0.38072900  0.50810000  1
  O  O26  1  0.38223100  0.87628000  0.00379100  1
  O  O27  1  0.38338000  0.88117400  0.50881400  1
  O  O28  1  0.88159600  0.37918000  0.00638100  1
  O  O29  1  0.88269200  0.38012400  0.50818400  1
  O  O30  1  0.87772800  0.87710600  0.00100400  1
  O  O31  1  0.88351600  0.88095100  0.50932100  1
  O  O32  1  0.07632800  0.09635700  0.14244600  1
  O  O33  1  0.08219200  0.09570400  0.64108800  1
  O  O34  1  0.07385600  0.58687800  0.13975300  1
  O  O35  1  0.07554200  0.58663400  0.63544800  1
  O  O36  1  0.57626800  0.09774700  0.14203300  1
  O  O37  1  0.58155000  0.09650700  0.64069600  1
  O  O38  1  0.58313900  0.59624300  0.14267200  1
  O  O39  1  0.57473600  0.58746800  0.63526300  1
  O  O40  1  0.44047900  0.40184700  0.36038100  1
  O  O41  1  0.44125100  0.41298100  0.86413300  1
  O  O42  1  0.44369500  0.90141800  0.36205300  1
  O  O43  1  0.43847800  0.91309400  0.86258600  1
  O  O44  1  0.94075400  0.40354800  0.35886800  1
  O  O45  1  0.94111700  0.40429200  0.85899400  1
  O  O46  1  0.94021700  0.90161600  0.36108800  1
  O  O47  1  0.93984100  0.90415500  0.85842100  1
  O  O48  1  0.33130000  0.30509100  0.13974700  1
  O  O49  1  0.32570800  0.29789800  0.63501000  1
  O  O50  1  0.33353600  0.80566600  0.14155400  1
  O  O51  1  0.32512600  0.79933300  0.63633500  1
  O  O52  1  0.83096700  0.30329800  0.13902400  1
  O  O53  1  0.83227300  0.29473300  0.64002600  1
  O  O54  1  0.82502800  0.79574500  0.14111700  1
  O  O55  1  0.83093700  0.79397800  0.64050900  1
  O  O56  1  0.19302700  0.21035600  0.36152900  1
  O  O57  1  0.19078600  0.20394800  0.85803400  1
  O  O58  1  0.19086700  0.70563600  0.35932400  1
  O  O59  1  0.19035400  0.70018800  0.86295900  1
  O  O60  1  0.69470800  0.20730200  0.36070300  1
  O  O61  1  0.69011900  0.20568100  0.85877800  1
  O  O62  1  0.69426700  0.70726900  0.36112900  1
  O  O63  1  0.68771600  0.70055400  0.86341300  1
  O  O64  1  0.44753800  0.06013900  0.26013900  1
  O  O65  1  0.44069900  0.05463500  0.74937900  1
  O  O66  1  0.44679900  0.55884200  0.25928900  1
  O  O67  1  0.43952300  0.56241600  0.74919200  1
  O  O68  1  0.94655800  0.05524400  0.25863400  1
  O  O69  1  0.93617500  0.05886800  0.74933800  1
  O  O70  1  0.93551900  0.56167500  0.25178700  1
  O  O71  1  0.93407400  0.56148500  0.74928800  1
  O  O72  1  0.18719100  0.44066600  0.25072000  1
  O  O73  1  0.19028200  0.44267700  0.74960800  1
  O  O74  1  0.19810500  0.95168200  0.25831000  1
  O  O75  1  0.18338200  0.93617400  0.74939600  1
  O  O76  1  0.68704800  0.43995000  0.25035500  1
  O  O77  1  0.69118800  0.44215100  0.74960400  1
  O  O78  1  0.68745200  0.94156900  0.25023100  1
  O  O79  1  0.68618900  0.93947200  0.74962300  1
loop_
_geom_bond_atom_site_label_1
_geom_bond_atom_site_label_2
_geom_bond_distance
_geom_bond_site_symmetry_2
Ba0 O64 2.592093 1_555
Ba0 O48 2.679915 1_555
Ba0 O10 2.722256 1_545
Ba0 O26 2.732408 1_545
Ba0 O17 2.805209 1_554
Ba0 O1 2.815177 1_554
Ba0 O32 2.818790 1_555
Ba0 O36 2.905983 1_555
Ba0 O50 3.152658 1_545
Ba1 O66 2.589524 1_555
Ba1 O50 2.689076 1_555
Ba1 O24 2.718914 1_555
Ba1 O8 2.722167 1_555
Ba1 O19 2.789538 1_554
Ba1 O3 2.802151 1_554
Ba1 O34 2.821665 1_555
Ba1 O38 2.979831 1_555
Ba1 O48 3.139738 1_555
Ba2 O68 2.592307 1_555
Ba2 O52 2.657550 1_555
Ba2 O14 2.722524 1_545
Ba2 O30 2.737267 1_545
Ba2 O5 2.800491 1_554
Ba2 O36 2.805740 1_555
Ba2 O21 2.821261 1_554
Ba2 O32 2.915255 1_655
Ba2 O54 3.265248 1_545
Ba3 O74 2.598564 1_555
Ba3 O34 2.655178 1_555
Ba3 O30 2.727863 1_455
Ba3 O10 2.736396 1_555
Ba3 O23 2.799804 1_454
Ba3 O54 2.807210 1_455
Ba3 O3 2.807655 1_554
Ba3 O50 3.000051 1_555
Ba3 O32 3.268879 1_565
Mn0 O59 1.912161 1_555
Mn0 O35 1.912346 1_555
Mn0 O73 1.971999 1_555
Mn0 O71 2.022377 1_455
Mn1 O39 1.907809 1_555
Mn1 O63 1.907962 1_555
Mn1 O67 1.952402 1_555
Mn1 O77 2.020263 1_555
Mn2 O49 1.924045 1_555
Mn2 O41 1.928382 1_555
Mn2 O73 1.971963 1_555
Mn2 O67 2.024735 1_555
Mn3 O51 1.893005 1_555
Mn3 O43 1.896307 1_555
Mn3 O65 1.972537 1_565
Mn3 O75 2.025886 1_555
Fe0 O21 2.006285 1_465
Fe0 O1 2.016855 1_565
Fe0 O10 2.023652 1_556
Fe0 O30 2.025195 1_456
Fe0 O47 2.177501 1_455
Fe0 O32 2.379867 1_566
Fe1 O20 2.004586 1_455
Fe1 O31 2.010790 1_445
Fe1 O0 2.020016 1_555
Fe1 O11 2.026134 1_545
Fe1 O46 2.234026 1_445
Fe1 O33 2.267271 1_555
Fe2 O28 2.002443 1_456
Fe2 O23 2.005170 1_455
Fe2 O3 2.029174 1_555
Fe2 O8 2.032187 1_556
Fe2 O45 2.193147 1_455
Fe2 O34 2.303124 1_556
Fe3 O29 2.009644 1_455
Fe3 O22 2.016270 1_455
Fe3 O9 2.022651 1_555
Fe3 O2 2.028661 1_555
Fe3 O35 2.149477 1_555
Fe3 O44 2.283576 1_455
Fe4 O26 2.008728 1_556
Fe4 O17 2.010655 1_565
Fe4 O14 2.025250 1_556
Fe4 O5 2.037800 1_565
Fe4 O43 2.129891 1_555
Fe4 O36 2.347413 1_566
Fe5 O16 2.006388 1_555
Fe5 O27 2.010276 1_545
Fe5 O4 2.021562 1_555
Fe5 O15 2.035799 1_545
Fe5 O42 2.222242 1_545
Fe5 O37 2.261012 1_555
Fe6 O19 2.012067 1_555
Fe6 O7 2.012277 1_555
Fe6 O24 2.015589 1_556
Fe6 O12 2.020191 1_556
Fe6 O41 2.110510 1_555
Fe6 O38 2.352471 1_556
Fe7 O25 2.000128 1_555
Fe7 O18 2.022124 1_555
Fe7 O6 2.031560 1_555
Fe7 O13 2.035042 1_555
Fe7 O39 2.144126 1_555
Fe7 O40 2.266553 1_555
Fe8 O8 2.005160 1_556
Fe8 O1 2.014388 1_555
Fe8 O17 2.018484 1_555
Fe8 O24 2.020015 1_556
Fe8 O57 2.228129 1_555
Fe8 O48 2.282990 1_556
Fe9 O9 2.009278 1_555
Fe9 O0 2.018717 1_555
Fe9 O25 2.028587 1_555
Fe9 O16 2.034759 1_555
Fe9 O49 2.135256 1_555
Fe9 O56 2.257349 1_555
Fe10 O19 2.020094 1_555
Fe10 O26 2.021972 1_556
Fe10 O3 2.023093 1_555
Fe10 O10 2.033055 1_556
Fe10 O59 2.104412 1_555
Fe10 O50 2.349208 1_556
Fe11 O2 2.008475 1_555
Fe11 O11 2.011701 1_555
Fe11 O18 2.022632 1_555
Fe11 O27 2.035627 1_555
Fe11 O51 2.172989 1_555
Fe11 O58 2.268042 1_555
Fe12 O12 2.001326 1_556
Fe12 O28 2.007482 1_556
Fe12 O5 2.015821 1_555
Fe12 O21 2.034720 1_555
Fe12 O61 2.244753 1_555
Fe12 O52 2.245569 1_556
Fe13 O13 2.004401 1_555
Fe13 O4 2.013499 1_555
Fe13 O29 2.019071 1_555
Fe13 O20 2.028855 1_555
Fe13 O53 2.242258 1_555
Fe13 O60 2.248113 1_555
Fe14 O7 1.990012 1_555
Fe14 O14 2.025379 1_556
Fe14 O23 2.029196 1_555
Fe14 O30 2.040215 1_556
Fe14 O63 2.101780 1_555
Fe14 O54 2.346725 1_556
Fe15 O15 2.011650 1_555
Fe15 O6 2.014091 1_555
Fe15 O22 2.020626 1_555
Fe15 O31 2.024424 1_555
Fe15 O62 2.226944 1_555
Fe15 O55 2.264370 1_555
Fe16 O56 1.881050 1_555
Fe16 O32 1.905603 1_555
Fe16 O74 1.934239 1_545
Fe16 O68 1.941544 1_455
Fe17 O33 1.897202 1_555
Fe17 O57 1.899161 1_555
Fe17 O75 1.939301 1_545
Fe17 O69 1.958935 1_455
Fe18 O34 1.893150 1_555
Fe18 O58 1.899306 1_555
Fe18 O72 1.941970 1_555
Fe18 O70 1.948778 1_455
Fe19 O60 1.892527 1_555
Fe19 O36 1.904064 1_555
Fe19 O64 1.928874 1_555
Fe19 O78 1.935507 1_545
Fe20 O37 1.895602 1_555
Fe20 O61 1.897128 1_555
Fe20 O65 1.932979 1_555
Fe20 O79 1.945621 1_545
Fe21 O38 1.895602 1_555
Fe21 O62 1.899833 1_555
Fe21 O76 1.937858 1_555
Fe21 O66 1.944140 1_555
Fe22 O40 1.889470 1_555
Fe22 O48 1.900890 1_555
Fe22 O66 1.934902 1_555
Fe22 O72 1.958989 1_555
Fe23 O42 1.892097 1_555
Fe23 O50 1.897776 1_555
Fe23 O64 1.923504 1_565
Fe23 O74 1.938018 1_555
Fe24 O44 1.894777 1_555
Fe24 O52 1.900775 1_555
Fe24 O70 1.935550 1_555
Fe24 O76 1.948071 1_555
Fe25 O53 1.905625 1_555
Fe25 O45 1.909249 1_555
Fe25 O77 1.917797 1_555
Fe25 O71 1.935229 1_555
Fe26 O46 1.892230 1_555
Fe26 O54 1.897751 1_555
Fe26 O68 1.936887 1_565
Fe26 O78 1.946531 1_555
Fe27 O55 1.892734 1_555
Fe27 O47 1.898412 1_555
Fe27 O69 1.937710 1_565
Fe27 O79 1.958375 1_555
O0 Sr7 2.602372 1_545
O0 Sr24 2.624335 1_455
O0 Sr0 2.698816 1_555
O0 Sr14 2.712948 1_555
O1 Sr25 2.611816 1_455
O1 Sr8 2.615931 1_545
O1 Sr13 2.718103 1_556
O2 Sr5 2.625029 1_555
O2 Sr26 2.633419 1_455
O2 Sr15 2.683994 1_555
O2 Sr1 2.704102 1_555
O3 Sr27 2.600858 1_455
O3 Sr6 2.608241 1_555
O4 Sr11 2.621340 1_545
O4 Sr20 2.627443 1_555
O4 Sr2 2.681165 1_555
O4 Sr17 2.708276 1_555
O5 Sr21 2.596986 1_555
O5 Sr12 2.616968 1_545
O5 Sr16 2.697675 1_556
O6 Sr22 2.622676 1_555
O6 Sr9 2.633963 1_555
O6 Sr19 2.672487 1_555
O6 Sr4 2.688928 1_555
O7 Sr23 2.623750 1_555
O7 Sr10 2.637348 1_555
O7 Sr18 2.673769 1_556
O7 Sr3 2.688185 1_556
O8 Sr13 2.629183 1_555
O8 Sr25 2.631365 1_454
O8 Sr6 2.693834 1_554
O9 Sr1 2.612008 1_555
O9 Sr14 2.639174 1_555
O9 Sr24 2.658596 1_455
O9 Sr5 2.671162 1_555
O10 Sr8 2.624170 1_554
O10 Sr27 2.641176 1_454
O11 Sr0 2.614540 1_565
O11 Sr15 2.621414 1_555
O11 Sr7 2.662658 1_555
O11 Sr26 2.692942 1_455
O12 Sr3 2.619541 1_555
O12 Sr16 2.632898 1_555
O12 Sr10 2.700958 1_554
O12 Sr21 2.707692 1_554
O13 Sr17 2.621688 1_555
O13 Sr4 2.623557 1_555
O13 Sr20 2.668539 1_555
O13 Sr9 2.681509 1_555
O14 Sr18 2.640089 1_555
O14 Sr23 2.644671 1_554
O14 Sr12 2.675443 1_554
O15 Sr19 2.599882 1_555
O15 Sr2 2.621775 1_565
O15 Sr22 2.685562 1_555
O15 Sr11 2.693276 1_555
O16 Sr20 2.609380 1_555
O16 Sr7 2.627520 1_545
O16 Sr0 2.696468 1_555
O16 Sr17 2.711486 1_555
O17 Sr21 2.602803 1_555
O17 Sr8 2.619155 1_545
O17 Sr16 2.705180 1_556
O18 Sr22 2.607522 1_555
O18 Sr5 2.637764 1_555
O18 Sr19 2.678916 1_555
O18 Sr1 2.697302 1_555
O19 Sr23 2.597649 1_555
O19 Sr6 2.648236 1_555
O19 Sr18 2.682123 1_556
O20 Sr24 2.617100 1_555
O20 Sr11 2.632657 1_545
O20 Sr2 2.684886 1_555
O20 Sr14 2.705529 1_655
O21 Sr25 2.603058 1_555
O21 Sr12 2.610314 1_545
O21 Sr13 2.704003 1_656
O22 Sr26 2.615355 1_555
O22 Sr9 2.636925 1_555
O22 Sr15 2.682248 1_655
O22 Sr4 2.690356 1_555
O23 Sr10 2.583261 1_555
O23 Sr27 2.641157 1_555
O23 Sr3 2.701933 1_556
O24 Sr16 2.620048 1_555
O24 Sr21 2.641882 1_554
O24 Sr6 2.708864 1_554
O25 Sr1 2.600451 1_555
O25 Sr17 2.636851 1_555
O25 Sr20 2.646668 1_555
O25 Sr5 2.688475 1_555
O26 Sr23 2.650015 1_554
O26 Sr18 2.664279 1_555
O26 Sr8 2.678009 1_554
O27 Sr19 2.613728 1_555
O27 Sr0 2.617328 1_565
O27 Sr22 2.668278 1_555
O27 Sr7 2.687612 1_555
O28 Sr13 2.622662 1_655
O28 Sr3 2.642037 1_555
O28 Sr25 2.674411 1_554
O28 Sr10 2.702320 1_554
O29 Sr4 2.614688 1_555
O29 Sr14 2.631138 1_655
O29 Sr24 2.655401 1_555
O29 Sr9 2.700348 1_555
O30 Sr12 2.613687 1_554
O30 Sr27 2.639940 1_554
O31 Sr15 2.605615 1_655
O31 Sr2 2.623488 1_565
O31 Sr26 2.688916 1_555
O31 Sr11 2.711457 1_555
O32 Sr13 2.576121 1_555
O33 Sr14 2.556934 1_555
O33 Sr0 2.756060 1_555
O33 Sr2 2.977934 1_455
O34 Sr3 2.891999 1_455
O34 Sr13 3.191816 1_555
O35 Sr15 2.607741 1_555
O35 Sr1 2.792654 1_555
O35 Sr4 2.909595 1_455
O36 Sr16 2.548467 1_555
O37 Sr17 2.552714 1_555
O37 Sr2 2.765429 1_555
O37 Sr0 2.979310 1_555
O38 Sr18 2.543078 1_555
O38 Sr3 2.758455 1_555
O39 Sr19 2.603108 1_555
O39 Sr4 2.803952 1_555
O39 Sr1 2.907610 1_555
O39 Sr17 3.212950 1_555
O40 Sr20 2.506380 1_555
O40 Sr9 2.772576 1_555
O40 Sr5 2.959970 1_555
O41 Sr21 2.608059 1_555
O41 Sr10 2.776796 1_555
O41 Sr6 2.921140 1_555
O41 Sr23 3.192203 1_555
O42 Sr22 2.493058 1_555
O42 Sr11 2.745407 1_555
O42 Sr7 2.993272 1_555
O43 Sr23 2.647166 1_555
O43 Sr12 2.803192 1_555
O43 Sr8 2.907531 1_555
O43 Sr21 3.208545 1_565
O44 Sr24 2.533541 1_555
O44 Sr5 2.770154 1_655
O44 Sr9 2.976555 1_555
O45 Sr25 2.530738 1_555
O45 Sr6 2.766229 1_655
O45 Sr10 2.963847 1_555
O46 Sr26 2.497995 1_555
O46 Sr7 2.780518 1_655
O46 Sr11 2.954053 1_555
O47 Sr27 2.558995 1_555
O47 Sr8 2.780544 1_655
O47 Sr12 2.964513 1_555
O48 Sr16 2.754317 1_555
O48 Sr13 2.981066 1_555
O49 Sr0 2.606035 1_555
O49 Sr17 2.789245 1_555
O49 Sr14 2.921453 1_555
O49 Sr1 3.202041 1_555
O50 Sr18 2.758180 1_555
O51 Sr1 2.637199 1_555
O51 Sr19 2.806674 1_555
O51 Sr15 2.917895 1_555
O51 Sr0 3.211984 1_565
O52 Sr13 2.743442 1_655
O52 Sr16 2.969750 1_555
O52 Sr3 3.190908 1_555
O53 Sr2 2.533532 1_555
O53 Sr14 2.748354 1_655
O53 Sr17 2.970859 1_555
O54 Sr3 2.563142 1_555
O54 Sr18 2.886203 1_555
O55 Sr4 2.541104 1_555
O55 Sr15 2.768823 1_655
O55 Sr19 2.964121 1_555
O56 Sr5 2.486431 1_555
O56 Sr20 2.751046 1_555
O56 Sr24 2.982098 1_455
O57 Sr6 2.553857 1_555
O57 Sr21 2.767302 1_555
O57 Sr25 2.975742 1_455
O58 Sr7 2.537071 1_555
O58 Sr22 2.773925 1_555
O58 Sr26 2.973093 1_455
O59 Sr8 2.613862 1_555
O59 Sr23 2.793157 1_555
O59 Sr27 2.921131 1_455
O60 Sr9 2.517551 1_555
O60 Sr24 2.737700 1_555
O60 Sr20 3.018753 1_555
O61 Sr10 2.542282 1_555
O61 Sr25 2.769793 1_555
O61 Sr21 2.959732 1_555
O62 Sr11 2.522579 1_555
O62 Sr26 2.736866 1_555
O62 Sr22 3.000550 1_555
O63 Sr12 2.619059 1_555
O63 Sr27 2.816006 1_555
O63 Sr23 2.884128 1_555
O63 Sr10 3.210122 1_555
O64 Sr20 2.432747 1_555
O65 Sr21 2.513267 1_555
O65 Sr0 2.515353 1_555
O66 Sr22 2.434581 1_555
O67 Sr23 2.478387 1_555
O67 Sr1 2.480526 1_555
O68 Sr24 2.461496 1_555
O69 Sr25 2.489424 1_555
O69 Sr2 2.494415 1_555
O70 Sr26 2.467756 1_555
O70 Sr3 2.509489 1_555
O71 Sr27 2.468759 1_555
O71 Sr4 2.475576 1_555
O72 Sr5 2.494084 1_555
O72 Sr13 2.511942 1_555
O73 Sr6 2.492689 1_555
O73 Sr14 2.497265 1_555
O74 Sr7 2.458938 1_555
O75 Sr8 2.470776 1_555
O75 Sr15 2.477137 1_555
O76 Sr9 2.490362 1_555
O76 Sr16 2.503263 1_555
O77 Sr17 2.489854 1_555
O77 Sr10 2.490185 1_555
O78 Sr11 2.501473 1_555
O78 Sr18 2.512353 1_555
O79 Sr12 2.494891 1_555
O79 Sr19 2.498358 1_555
