# generated using pymatgen
data_Y3Si3Ni
_symmetry_space_group_name_H-M   'P 1'
_cell_length_a   9.16856570
_cell_length_b   9.16856570
_cell_length_c   9.16856570
_cell_angle_alpha   155.38649273
_cell_angle_beta   153.87685157
_cell_angle_gamma   36.19734229
_symmetry_Int_Tables_number   1
_chemical_formula_structural   Y3Si3Ni
_chemical_formula_sum   'Y3 Si3 Ni1'
_cell_volume   141.15873894
_cell_formula_units_Z   1
loop_
 _symmetry_equiv_pos_site_id
 _symmetry_equiv_pos_as_xyz
  1  'x, y, z'
loop_
 _atom_site_type_symbol
 _atom_site_label
 _atom_site_symmetry_multiplicity
 _atom_site_fract_x
 _atom_site_fract_y
 _atom_site_fract_z
 _atom_site_occupancy
  Y  Y0  1  0.81809500  0.31809500  0.50000000  1
  Y  Y1  1  0.18440700  0.68440700  0.50000000  1
  Y  Y2  1  0.99921800  0.99921800  0.00000000  1
  Si  Si0  1  0.64415400  0.14415400  0.50000000  1
  Si  Si1  1  0.36172600  0.86172600  0.50000000  1
  Si  Si2  1  0.55950600  0.55950600  0.00000000  1
  Ni  Ni0  1  0.43289500  0.43289500  0.00000000  1
loop_
_geom_bond_atom_site_label_1
_geom_bond_atom_site_label_2
_geom_bond_distance
_geom_bond_site_symmetry_2
Si0 Si2 2.448645 1_545
Si0 Si2 2.448645 1_556
Si0 Y1 2.933395 1_645
Si0 Y1 2.933395 1_544
Si0 Y1 2.933395 1_656
Si0 Y1 2.933395 1_555
Si0 Y0 3.031768 1_555
Si0 Y2 3.267303 1_546
Si0 Y2 3.267303 1_445
Si1 Y0 2.948032 1_454
Si1 Y0 2.948032 1_465
Si1 Y0 2.948032 1_555
Si1 Y0 2.948032 1_566
Si1 Y1 3.090646 1_555
Si1 Y2 3.168053 1_455
Si1 Y2 3.168053 1_556
Si2 Y1 3.005473 1_554
Si2 Y1 3.005473 1_655
Si2 Y2 3.035912 1_556
Si2 Y2 3.035912 1_455
Si2 Y2 3.035912 1_444
Si2 Y2 3.035912 1_545
Ni0 Si2 2.206813 1_555
Ni0 Si1 2.314693 1_555
Ni0 Si1 2.314693 1_544
Ni0 Y0 2.880504 1_555
Ni0 Y0 2.880504 1_454
Ni0 Y2 3.073906 1_455
Ni0 Y2 3.073906 1_545
Ni0 Y2 3.073906 1_444
Ni0 Y2 3.073906 1_556
