# generated using pymatgen
data_Pr2Ni12P7
_symmetry_space_group_name_H-M   'P 1'
_cell_length_a   9.10578300
_cell_length_b   3.76174200
_cell_length_c   9.10901702
_cell_angle_alpha   90.00000000
_cell_angle_beta   119.89108082
_cell_angle_gamma   90.00000000
_symmetry_Int_Tables_number   1
_chemical_formula_structural   Pr2Ni12P7
_chemical_formula_sum   'Pr2 Ni12 P7'
_cell_volume   270.51045740
_cell_formula_units_Z   1
loop_
 _symmetry_equiv_pos_site_id
 _symmetry_equiv_pos_as_xyz
  1  'x, y, z'
loop_
 _atom_site_type_symbol
 _atom_site_label
 _atom_site_symmetry_multiplicity
 _atom_site_fract_x
 _atom_site_fract_y
 _atom_site_fract_z
 _atom_site_occupancy
  Pr  Pr0  1  0.33369500  0.00000000  0.66688400  1
  Pr  Pr1  1  0.66670800  0.50000000  0.33247100  1
  Ni  Ni0  1  0.43201400  0.00000000  0.05837900  1
  Ni  Ni1  1  0.62613600  0.00000000  0.56771100  1
  Ni  Ni2  1  0.94159600  0.00000000  0.37393900  1
  Ni  Ni3  1  0.14575600  0.00000000  0.27126600  1
  Ni  Ni4  1  0.12442600  0.00000000  0.85387300  1
  Ni  Ni5  1  0.72910300  0.00000000  0.87480000  1
  Ni  Ni6  1  0.37875200  0.50000000  0.42671400  1
  Ni  Ni7  1  0.04815600  0.50000000  0.62216800  1
  Ni  Ni8  1  0.57369900  0.50000000  0.95152900  1
  Ni  Ni9  1  0.21158800  0.50000000  0.09401600  1
  Ni  Ni10  1  0.88266300  0.50000000  0.78907900  1
  Ni  Ni11  1  0.90591600  0.50000000  0.11723600  1
  P  P0  1  0.40169000  0.00000000  0.29490000  1
  P  P1  1  0.89319800  0.00000000  0.59779900  1
  P  P2  1  0.70501600  0.00000000  0.10725700  1
  P  P3  1  0.10204400  0.50000000  0.39953100  1
  P  P4  1  0.29817000  0.50000000  0.89803200  1
  P  P5  1  0.59997800  0.50000000  0.70279800  1
  P  P6  1  0.99969300  0.00000000  0.99961900  1
loop_
_geom_bond_atom_site_label_1
_geom_bond_atom_site_label_2
_geom_bond_distance
_geom_bond_site_symmetry_2
Ni0 P2 2.296685 1_555
Ni0 P0 2.304548 1_555
Ni0 P4 2.319946 1_554
Ni0 P4 2.319946 1_544
Ni0 Pr1 3.003371 1_545
Ni0 Pr1 3.003371 1_555
Ni0 Pr0 3.215072 1_554
Ni1 P0 2.300061 1_555
Ni1 P1 2.307491 1_555
Ni1 P5 2.323939 1_545
Ni1 P5 2.323939 1_555
Ni1 Pr1 3.009120 1_545
Ni1 Pr1 3.009120 1_555
Ni1 Pr0 3.210108 1_555
Ni2 P1 2.290856 1_555
Ni2 P2 2.307805 1_555
Ni2 P3 2.321011 1_645
Ni2 P3 2.321011 1_655
Ni2 Pr1 3.000557 1_545
Ni2 Pr1 3.000557 1_555
Ni2 Pr0 3.220587 1_655
Ni3 P6 2.147460 1_454
Ni3 P0 2.231014 1_555
Ni3 P3 2.350469 1_545
Ni3 P3 2.350469 1_555
Ni3 Pr0 3.125452 1_555
Ni4 P6 2.134353 1_455
Ni4 P1 2.231372 1_455
Ni4 P4 2.359693 1_545
Ni4 P4 2.359693 1_555
Ni4 Pr0 3.125276 1_555
Ni5 P6 2.138102 1_555
Ni5 P2 2.234863 1_556
Ni5 P5 2.353465 1_545
Ni5 P5 2.353465 1_555
Ni5 Pr0 3.123129 1_555
Ni6 P0 2.296287 1_555
Ni6 P0 2.296287 1_565
Ni6 P5 2.309355 1_555
Ni6 P3 2.405842 1_555
Ni6 Pr0 3.063773 1_565
Ni6 Pr0 3.063773 1_555
Ni6 Pr1 3.139380 1_555
Ni7 P1 2.294717 1_465
Ni7 P1 2.294717 1_455
Ni7 P3 2.312018 1_555
Ni7 P4 2.407355 1_555
Ni7 Pr0 3.067297 1_565
Ni7 Pr0 3.067297 1_555
Ni7 Pr1 3.145216 1_455
Ni8 P2 2.299803 1_556
Ni8 P2 2.299803 1_566
Ni8 P4 2.305104 1_555
Ni8 P5 2.393952 1_555
Ni8 Pr0 3.064111 1_555
Ni8 Pr0 3.064111 1_565
Ni8 Pr1 3.135137 1_556
Ni9 P4 2.282852 1_554
Ni9 P6 2.519182 1_464
Ni9 P6 2.519182 1_454
Ni9 P0 2.593339 1_555
Ni9 P0 2.593339 1_565
Ni10 P5 2.286293 1_555
Ni10 P6 2.512828 1_565
Ni10 P6 2.512828 1_555
Ni10 P1 2.597948 1_565
Ni10 P1 2.597948 1_555
Ni11 P3 2.285717 1_655
Ni11 P6 2.515261 1_564
Ni11 P6 2.515261 1_554
Ni11 P2 2.593594 1_565
Ni11 P2 2.593594 1_555
P0 Pr1 2.941965 1_545
P0 Pr1 2.941965 1_555
P1 Pr1 2.943512 1_545
P1 Pr1 2.943512 1_555
P2 Pr1 2.929363 1_545
P2 Pr1 2.929363 1_555
P3 Pr0 2.966114 1_555
P3 Pr0 2.966114 1_565
P4 Pr0 2.958790 1_555
P4 Pr0 2.958790 1_565
P5 Pr0 2.955221 1_565
P5 Pr0 2.955221 1_555
