# generated using pymatgen
data_Ba2GdMoO6
_symmetry_space_group_name_H-M   'P 1'
_cell_length_a   6.06673681
_cell_length_b   6.06673681
_cell_length_c   6.06673681
_cell_angle_alpha   120.42890915
_cell_angle_beta   120.42890915
_cell_angle_gamma   89.25869919
_symmetry_Int_Tables_number   1
_chemical_formula_structural   Ba2GdMoO6
_chemical_formula_sum   'Ba2 Gd1 Mo1 O6'
_cell_volume   156.85067110
_cell_formula_units_Z   1
loop_
 _symmetry_equiv_pos_site_id
 _symmetry_equiv_pos_as_xyz
  1  'x, y, z'
loop_
 _atom_site_type_symbol
 _atom_site_label
 _atom_site_symmetry_multiplicity
 _atom_site_fract_x
 _atom_site_fract_y
 _atom_site_fract_z
 _atom_site_occupancy
  Ba  Ba0  1  0.25000000  0.75000000  0.50000000  1
  Ba  Ba1  1  0.75000000  0.25000000  0.50000000  1
  Gd  Gd0  1  0.00000000  0.00000000  0.00000000  1
  Mo  Mo0  1  0.50000000  0.50000000  0.00000000  1
  O  O0  1  0.26317700  0.26317700  0.00000000  1
  O  O1  1  0.73682300  0.73682300  0.00000000  1
  O  O2  1  0.24188200  0.29541400  0.53729600  1
  O  O3  1  0.75811800  0.70458600  0.46270400  1
  O  O4  1  0.70458600  0.24188200  0.94646800  1
  O  O5  1  0.29541400  0.75811800  0.05353200  1
loop_
_geom_bond_atom_site_label_1
_geom_bond_atom_site_label_2
_geom_bond_distance
_geom_bond_site_symmetry_2
Ba0 O4 2.882058 1_565
Ba0 O2 2.882058 1_555
Ba0 O3 2.882058 1_455
Ba0 O5 2.882058 1_555
Ba0 O1 3.015829 1_556
Ba0 O0 3.015829 1_566
Ba0 O0 3.015829 1_555
Ba0 O1 3.015829 1_455
Ba0 O5 3.201723 1_556
Ba0 O3 3.201723 1_555
Ba0 O2 3.201723 1_565
Ba0 O4 3.201723 1_454
Ba1 O2 2.882058 1_655
Ba1 O3 2.882058 1_555
Ba1 O5 2.882058 1_545
Ba1 O4 2.882058 1_555
Ba1 O1 3.015829 1_556
Ba1 O1 3.015829 1_545
Ba1 O0 3.015829 1_555
Ba1 O0 3.015829 1_656
Ba1 O4 3.201723 1_554
Ba1 O5 3.201723 1_656
Ba1 O3 3.201723 1_545
Ba1 O2 3.201723 1_555
Gd0 O0 2.272529 1_555
Gd0 O1 2.272529 1_445
Gd0 O5 2.301288 1_545
Gd0 O4 2.301288 1_454
Gd0 O3 2.301288 1_444
Gd0 O2 2.301288 1_555
Mo0 O5 1.985194 1_555
Mo0 O4 1.985194 1_554
Mo0 O2 1.985194 1_554
Mo0 O3 1.985194 1_555
Mo0 O0 2.044963 1_555
Mo0 O1 2.044963 1_555
