# generated using pymatgen
data_FeC3NCl3O2
_symmetry_space_group_name_H-M   'P 1'
_cell_length_a   6.82650200
_cell_length_b   7.18685100
_cell_length_c   18.19439500
_cell_angle_alpha   90.00000000
_cell_angle_beta   90.00000000
_cell_angle_gamma   90.00000000
_symmetry_Int_Tables_number   1
_chemical_formula_structural   FeC3NCl3O2
_chemical_formula_sum   'Fe4 C12 N4 Cl12 O8'
_cell_volume   892.63617240
_cell_formula_units_Z   4
loop_
 _symmetry_equiv_pos_site_id
 _symmetry_equiv_pos_as_xyz
  1  'x, y, z'
loop_
 _atom_site_type_symbol
 _atom_site_label
 _atom_site_symmetry_multiplicity
 _atom_site_fract_x
 _atom_site_fract_y
 _atom_site_fract_z
 _atom_site_occupancy
  Fe  Fe0  1  0.00000000  0.50000000  0.00000000  1
  Fe  Fe1  1  0.50000000  0.00000000  0.50000000  1
  Fe  Fe2  1  0.00000000  0.00000000  0.00000000  1
  Fe  Fe3  1  0.50000000  0.50000000  0.50000000  1
  C  C0  1  0.49752100  0.75000000  0.14753600  1
  C  C1  1  0.00247900  0.75000000  0.64753600  1
  C  C2  1  0.50247900  0.25000000  0.85246400  1
  C  C3  1  0.99752100  0.25000000  0.35246400  1
  C  C4  1  0.81569500  0.65223700  0.22792900  1
  C  C5  1  0.68430500  0.84776300  0.72792900  1
  C  C6  1  0.18430500  0.15223700  0.77207100  1
  C  C7  1  0.31569500  0.34776300  0.27207100  1
  C  C8  1  0.18430500  0.34776300  0.77207100  1
  C  C9  1  0.31569500  0.15223700  0.27207100  1
  C  C10  1  0.81569500  0.84776300  0.22792900  1
  C  C11  1  0.68430500  0.65223700  0.72792900  1
  N  N0  1  0.65104700  0.75000000  0.18002500  1
  N  N1  1  0.84895300  0.75000000  0.68002500  1
  N  N2  1  0.34895300  0.25000000  0.81997500  1
  N  N3  1  0.15104700  0.25000000  0.31997500  1
  Cl  Cl0  1  0.07530400  0.75000000  0.91555700  1
  Cl  Cl1  1  0.42469600  0.75000000  0.41555700  1
  Cl  Cl2  1  0.92469600  0.25000000  0.08444300  1
  Cl  Cl3  1  0.57530400  0.25000000  0.58444300  1
  Cl  Cl4  1  0.04002700  0.75000000  0.17102600  1
  Cl  Cl5  1  0.45997300  0.75000000  0.67102600  1
  Cl  Cl6  1  0.95997300  0.25000000  0.82897400  1
  Cl  Cl7  1  0.54002700  0.25000000  0.32897400  1
  Cl  Cl8  1  0.62383500  0.75000000  0.96720800  1
  Cl  Cl9  1  0.87616500  0.75000000  0.46720800  1
  Cl  Cl10  1  0.37616500  0.25000000  0.03279200  1
  Cl  Cl11  1  0.12383500  0.25000000  0.53279200  1
  O  O0  1  0.71385900  0.56833300  0.00437600  1
  O  O1  1  0.78614100  0.93166700  0.50437600  1
  O  O2  1  0.28614100  0.06833300  0.99562400  1
  O  O3  1  0.21385900  0.43166700  0.49562400  1
  O  O4  1  0.28614100  0.43166700  0.99562400  1
  O  O5  1  0.21385900  0.06833300  0.49562400  1
  O  O6  1  0.71385900  0.93166700  0.00437600  1
  O  O7  1  0.78614100  0.56833300  0.50437600  1
loop_
_geom_bond_atom_site_label_1
_geom_bond_atom_site_label_2
_geom_bond_distance
_geom_bond_site_symmetry_2
Fe0 O0 2.015704 1_455
Fe0 O4 2.015704 1_554
Fe1 O1 2.015704 1_545
Fe1 O5 2.015704 1_555
Fe2 O6 2.015704 1_445
Fe2 O2 2.015704 1_554
Fe3 O7 2.015704 1_555
Fe3 O3 2.015704 1_555
C0 N0 1.203254 1_555
C1 N1 1.203254 1_455
C2 N2 1.203254 1_555
C3 N3 1.203254 1_655
C4 N0 1.586388 1_555
C4 Cl4 1.977557 1_655
C5 N1 1.586388 1_555
C5 Cl5 1.977557 1_555
C6 C8 1.405216 1_555
C6 N2 1.586388 1_555
C6 Cl6 1.977557 1_455
C7 C9 1.405216 1_555
C7 N3 1.586388 1_555
C7 Cl7 1.977557 1_555
C8 N2 1.586388 1_555
C8 Cl6 1.977557 1_455
C9 N3 1.586388 1_555
C9 Cl7 1.977557 1_555
C10 C4 1.405216 1_555
C10 N0 1.586388 1_555
C10 Cl4 1.977557 1_655
C11 C5 1.405216 1_555
C11 N1 1.586388 1_555
C11 Cl5 1.977557 1_555
Cl0 Fe2 2.419283 1_566
Cl0 Fe0 2.419283 1_556
Cl1 Fe3 2.419283 1_555
Cl1 Fe1 2.419283 1_565
Cl2 Fe2 2.419283 1_655
Cl2 Fe0 2.419283 1_655
Cl3 Fe3 2.419283 1_555
Cl3 Fe1 2.419283 1_555
Cl8 O0 1.593616 1_556
Cl8 O6 1.593616 1_556
Cl9 O1 1.593616 1_555
Cl9 O7 1.593616 1_555
Cl10 O2 1.593616 1_554
Cl10 O4 1.593616 1_554
Cl11 O5 1.593616 1_555
Cl11 O3 1.593616 1_555
