# generated using pymatgen
data_LaB5H5NO14
_symmetry_space_group_name_H-M   'P 1'
_cell_length_a   15.53032955
_cell_length_b   6.52418056
_cell_length_c   12.34272746
_cell_angle_alpha   58.70371495
_cell_angle_beta   90.00000000
_cell_angle_gamma   90.00000000
_symmetry_Int_Tables_number   1
_chemical_formula_structural   LaB5H5NO14
_chemical_formula_sum   'La4 B20 H20 N4 O56'
_cell_volume   1068.62675699
_cell_formula_units_Z   4
loop_
 _symmetry_equiv_pos_site_id
 _symmetry_equiv_pos_as_xyz
  1  'x, y, z'
loop_
 _atom_site_type_symbol
 _atom_site_label
 _atom_site_symmetry_multiplicity
 _atom_site_fract_x
 _atom_site_fract_y
 _atom_site_fract_z
 _atom_site_occupancy
  La  La0  1  0.69692733  0.82105776  0.33068285  1
  La  La1  1  0.80307267  0.82105776  0.83068285  1
  La  La2  1  0.30307267  0.17894224  0.66931715  1
  La  La3  1  0.19692733  0.17894224  0.16931715  1
  B  B0  1  0.96526937  0.17137205  0.08921398  1
  B  B1  1  0.53473063  0.17137205  0.58921398  1
  B  B2  1  0.03473063  0.82862795  0.91078602  1
  B  B3  1  0.46526937  0.82862795  0.41078602  1
  B  B4  1  0.84168386  0.37514011  0.11543961  1
  B  B5  1  0.65831614  0.37514011  0.61543961  1
  B  B6  1  0.15831614  0.62485989  0.88456039  1
  B  B7  1  0.34168386  0.62485989  0.38456039  1
  B  B8  1  0.82390220  0.14051568  0.01371862  1
  B  B9  1  0.67609780  0.14051568  0.51371862  1
  B  B10  1  0.17609780  0.85948432  0.98628138  1
  B  B11  1  0.32390220  0.85948432  0.48628138  1
  B  B12  1  0.79702078  0.70074318  0.15400462  1
  B  B13  1  0.70297922  0.70074318  0.65400462  1
  B  B14  1  0.20297922  0.29925682  0.84599538  1
  B  B15  1  0.29702078  0.29925682  0.34599538  1
  B  B16  1  0.75669799  0.29540533  0.30560554  1
  B  B17  1  0.74330201  0.29540533  0.80560554  1
  B  B18  1  0.24330201  0.70459467  0.69439446  1
  B  B19  1  0.25669799  0.70459467  0.19439446  1
  H  H0  1  0.06191850  0.01664379  0.06343225  1
  H  H1  1  0.43808150  0.01664379  0.56343225  1
  H  H2  1  0.93808150  0.98335621  0.93656775  1
  H  H3  1  0.56191850  0.98335621  0.43656775  1
  H  H4  1  0.67196664  0.29850033  0.07234935  1
  H  H5  1  0.82803336  0.29850033  0.57234935  1
  H  H6  1  0.32803336  0.70149967  0.92765065  1
  H  H7  1  0.17196664  0.70149967  0.42765065  1
  H  H8  1  0.57527708  0.20624649  0.10009768  1
  H  H9  1  0.92472292  0.20624649  0.60009768  1
  H  H10  1  0.42472292  0.79375351  0.89990232  1
  H  H11  1  0.07527708  0.79375351  0.39990232  1
  H  H12  1  0.52091989  0.66291392  0.27858595  1
  H  H13  1  0.97908011  0.66291392  0.77858595  1
  H  H14  1  0.47908011  0.33708608  0.72141405  1
  H  H15  1  0.02091989  0.33708608  0.22141405  1
  H  H16  1  0.57025475  0.69395701  0.15972385  1
  H  H17  1  0.92974525  0.69395701  0.65972385  1
  H  H18  1  0.42974525  0.30604299  0.84027615  1
  H  H19  1  0.07025475  0.30604299  0.34027615  1
  N  N0  1  0.91159410  0.74645351  0.42670013  1
  N  N1  1  0.58840590  0.74645351  0.92670013  1
  N  N2  1  0.08840590  0.25354649  0.57329987  1
  N  N3  1  0.41159410  0.25354649  0.07329987  1
  O  O0  1  0.05032523  0.10310605  0.10908792  1
  O  O1  1  0.44967477  0.10310605  0.60908792  1
  O  O2  1  0.94967477  0.89689395  0.89091208  1
  O  O3  1  0.55032523  0.89689395  0.39091208  1
  O  O4  1  0.93304672  0.30997136  0.13260846  1
  O  O5  1  0.56695328  0.30997136  0.63260846  1
  O  O6  1  0.06695328  0.69002864  0.86739154  1
  O  O7  1  0.43304672  0.69002864  0.36739154  1
  O  O8  1  0.91671358  0.10184569  0.02147250  1
  O  O9  1  0.58328642  0.10184569  0.52147250  1
  O  O10  1  0.08328642  0.89815431  0.97852750  1
  O  O11  1  0.41671358  0.89815431  0.47852750  1
  O  O12  1  0.80326306  0.35802787  0.01240960  1
  O  O13  1  0.69673694  0.35802787  0.51240960  1
  O  O14  1  0.19673694  0.64197213  0.98759040  1
  O  O15  1  0.30326306  0.64197213  0.48759040  1
  O  O16  1  0.79487760  0.21606451  0.23549386  1
  O  O17  1  0.70512240  0.21606451  0.73549386  1
  O  O18  1  0.20512240  0.78393549  0.76450614  1
  O  O19  1  0.29487760  0.78393549  0.26450614  1
  O  O20  1  0.78380268  0.92770355  0.12646202  1
  O  O21  1  0.71619732  0.92770355  0.62646202  1
  O  O22  1  0.21619732  0.07229645  0.87353798  1
  O  O23  1  0.28380268  0.07229645  0.37353798  1
  O  O24  1  0.83147162  0.62970880  0.07840482  1
  O  O25  1  0.66852838  0.62970880  0.57840482  1
  O  O26  1  0.16852838  0.37029120  0.92159518  1
  O  O27  1  0.33147162  0.37029120  0.42159518  1
  O  O28  1  0.76562314  0.53046847  0.27411564  1
  O  O29  1  0.73437686  0.53046847  0.77411564  1
  O  O30  1  0.23437686  0.46953153  0.72588436  1
  O  O31  1  0.26562314  0.46953153  0.22588436  1
  O  O32  1  0.70729618  0.13646930  0.40293200  1
  O  O33  1  0.79270382  0.13646930  0.90293200  1
  O  O34  1  0.29270382  0.86353070  0.59706800  1
  O  O35  1  0.20729618  0.86353070  0.09706800  1
  O  O36  1  0.83438082  0.72424339  0.46888844  1
  O  O37  1  0.66561918  0.72424339  0.96888844  1
  O  O38  1  0.16561918  0.27575661  0.53111156  1
  O  O39  1  0.33438082  0.27575661  0.03111156  1
  O  O40  1  0.92501668  0.75757486  0.32477217  1
  O  O41  1  0.57498332  0.75757486  0.82477217  1
  O  O42  1  0.07498332  0.24242514  0.67522783  1
  O  O43  1  0.42501668  0.24242514  0.17522783  1
  O  O44  1  0.97221677  0.75405171  0.49245672  1
  O  O45  1  0.52778323  0.75405171  0.99245672  1
  O  O46  1  0.02778323  0.24594829  0.50754328  1
  O  O47  1  0.47221677  0.24594829  0.00754328  1
  O  O48  1  0.57856835  0.66986872  0.24410746  1
  O  O49  1  0.92143165  0.66986872  0.74410746  1
  O  O50  1  0.42143165  0.33013128  0.75589254  1
  O  O51  1  0.07856835  0.33013128  0.25589254  1
  O  O52  1  0.63252343  0.18719938  0.13762475  1
  O  O53  1  0.86747657  0.18719938  0.63762475  1
  O  O54  1  0.36747657  0.81280062  0.86237525  1
  O  O55  1  0.13252343  0.81280062  0.36237525  1
loop_
_geom_bond_atom_site_label_1
_geom_bond_atom_site_label_2
_geom_bond_distance
_geom_bond_site_symmetry_2
La0 O3 2.522554 1_555
La0 O52 2.543817 1_565
La0 O48 2.566842 1_555
La0 O28 2.568104 1_555
La0 O36 2.597376 1_555
La0 O20 2.614577 1_555
La0 O32 2.638595 1_565
La0 O13 2.667812 1_555
La0 O25 2.671344 1_555
La0 O16 2.681449 1_565
La1 O2 2.522554 1_555
La1 O53 2.543817 1_565
La1 O49 2.566842 1_555
La1 O29 2.568104 1_555
La1 O37 2.597376 1_555
La1 O21 2.614577 1_555
La1 O33 2.638595 1_565
La1 O12 2.667812 1_556
La1 O24 2.671344 1_556
La1 O17 2.681449 1_565
La2 O1 2.522554 1_555
La2 O54 2.543817 1_545
La2 O50 2.566842 1_555
La2 O30 2.568104 1_555
La2 O38 2.597376 1_555
La2 O22 2.614577 1_555
La2 O34 2.638595 1_545
La2 O15 2.667812 1_555
La2 O27 2.671344 1_555
La2 O18 2.681449 1_545
La3 O0 2.522554 1_555
La3 O55 2.543817 1_545
La3 O51 2.566842 1_555
La3 O31 2.568104 1_555
La3 O39 2.597376 1_555
La3 O23 2.614577 1_555
La3 O35 2.638595 1_545
La3 O14 2.667812 1_554
La3 O26 2.671344 1_554
La3 O19 2.681449 1_545
B0 O4 1.363136 1_555
B0 O8 1.366572 1_555
B0 O0 1.374746 1_655
B1 O5 1.363136 1_555
B1 O9 1.366572 1_555
B1 O1 1.374746 1_555
B2 O6 1.363136 1_555
B2 O10 1.366572 1_555
B2 O2 1.374746 1_455
B3 O7 1.363136 1_555
B3 O11 1.366572 1_555
B3 O3 1.374746 1_555
B4 O12 1.460530 1_555
B4 O4 1.464697 1_555
B4 O16 1.484422 1_555
B4 O24 1.484516 1_555
B5 O13 1.460530 1_555
B5 O5 1.464697 1_555
B5 O17 1.484422 1_555
B5 O25 1.484516 1_555
B6 O14 1.460530 1_555
B6 O6 1.464697 1_555
B6 O18 1.484422 1_555
B6 O26 1.484516 1_555
B7 O15 1.460530 1_555
B7 O7 1.464697 1_555
B7 O19 1.484422 1_555
B7 O27 1.484516 1_555
B8 O12 1.446719 1_555
B8 O8 1.457852 1_555
B8 O33 1.463820 1_554
B8 O20 1.498234 1_545
B9 O13 1.446719 1_555
B9 O9 1.457852 1_555
B9 O32 1.463820 1_555
B9 O21 1.498234 1_545
B10 O14 1.446719 1_555
B10 O10 1.457852 1_555
B10 O35 1.463820 1_556
B10 O22 1.498234 1_565
B11 O15 1.446719 1_555
B11 O11 1.457852 1_555
B11 O34 1.463820 1_555
B11 O23 1.498234 1_565
B12 O24 1.349445 1_555
B12 O20 1.351776 1_555
B12 O28 1.399519 1_555
B13 O25 1.349445 1_555
B13 O21 1.351776 1_555
B13 O29 1.399519 1_555
B14 O26 1.349445 1_555
B14 O22 1.351776 1_555
B14 O30 1.399519 1_555
B15 O27 1.349445 1_555
B15 O23 1.351776 1_555
B15 O31 1.399519 1_555
B16 O32 1.346399 1_555
B16 O16 1.354168 1_555
B16 O28 1.379465 1_555
B17 O33 1.346399 1_555
B17 O17 1.354168 1_555
B17 O29 1.379465 1_555
B18 O34 1.346399 1_555
B18 O18 1.354168 1_555
B18 O30 1.379465 1_555
B19 O35 1.346399 1_555
B19 O19 1.354168 1_555
B19 O31 1.379465 1_555
H0 O0 0.999210 1_555
H0 O10 1.627143 1_544
H1 O1 0.999210 1_555
H1 O11 1.627143 1_545
H2 O2 0.999210 1_555
H2 O8 1.627143 1_566
H3 O3 0.999210 1_555
H3 O9 1.627143 1_565
H4 O52 0.971508 1_555
H5 O53 0.971508 1_555
H6 O54 0.971508 1_555
H7 O55 0.971508 1_555
H8 O52 0.980103 1_555
H9 O53 0.980103 1_555
H10 O54 0.980103 1_555
H11 O55 0.980103 1_555
H12 O48 0.982171 1_555
H13 O49 0.982171 1_555
H14 O50 0.982171 1_555
H15 O51 0.982171 1_555
H16 O48 0.977797 1_555
H17 O49 0.977797 1_555
H18 O50 0.977797 1_555
H19 O51 0.977797 1_555
N0 O40 1.239605 1_555
N0 O44 1.260706 1_555
N0 O36 1.285188 1_555
N1 O41 1.239605 1_555
N1 O45 1.260706 1_555
N1 O37 1.285188 1_555
N2 O42 1.239605 1_555
N2 O46 1.260706 1_555
N2 O38 1.285188 1_555
N3 O43 1.239605 1_555
N3 O47 1.260706 1_555
N3 O39 1.285188 1_555
