# generated using pymatgen
data_Li2MoO3
_symmetry_space_group_name_H-M   'P 1'
_cell_length_a   6.16312300
_cell_length_b   8.66792230
_cell_length_c   10.41155312
_cell_angle_alpha   113.26641219
_cell_angle_beta   106.59770527
_cell_angle_gamma   89.75184308
_symmetry_Int_Tables_number   1
_chemical_formula_structural   Li2MoO3
_chemical_formula_sum   'Li16 Mo8 O24'
_cell_volume   485.94615278
_cell_formula_units_Z   8
loop_
 _symmetry_equiv_pos_site_id
 _symmetry_equiv_pos_as_xyz
  1  'x, y, z'
loop_
 _atom_site_type_symbol
 _atom_site_label
 _atom_site_symmetry_multiplicity
 _atom_site_fract_x
 _atom_site_fract_y
 _atom_site_fract_z
 _atom_site_occupancy
  Li  Li0  1  0.17190200  0.17514400  0.83888000  1
  Li  Li1  1  0.82809800  0.82485600  0.16112000  1
  Li  Li2  1  0.50000000  0.50000000  0.50000000  1
  Li  Li3  1  0.65520900  0.66169300  0.84046300  1
  Li  Li4  1  0.34479100  0.33830700  0.15953700  1
  Li  Li5  1  0.00000000  0.00000000  0.50000000  1
  Li  Li6  1  0.83209600  0.33683200  0.67326700  1
  Li  Li7  1  0.50000000  0.00000000  0.00000000  1
  Li  Li8  1  0.16790400  0.66316800  0.32673300  1
  Li  Li9  1  0.00000000  0.00000000  0.00000000  1
  Li  Li10  1  0.66168700  0.65597000  0.31933200  1
  Li  Li11  1  0.33831300  0.34403000  0.68066800  1
  Li  Li12  1  0.82576100  0.33725900  0.16260400  1
  Li  Li13  1  0.50000000  0.00000000  0.50000000  1
  Li  Li14  1  0.17423900  0.66274100  0.83739600  1
  Li  Li15  1  0.50000000  0.50000000  0.00000000  1
  Mo  Mo0  1  0.65841900  0.17284300  0.84082000  1
  Mo  Mo1  1  0.34158100  0.82715700  0.15918000  1
  Mo  Mo2  1  0.00000000  0.50000000  0.50000000  1
  Mo  Mo3  1  0.16916400  0.16601300  0.33199600  1
  Mo  Mo4  1  0.83083600  0.83398700  0.66800400  1
  Mo  Mo5  1  0.00000000  0.50000000  0.00000000  1
  Mo  Mo6  1  0.66641400  0.16789600  0.33193600  1
  Mo  Mo7  1  0.33358600  0.83210400  0.66806400  1
  O  O0  1  0.31972300  0.58244400  0.15976400  1
  O  O1  1  0.99675700  0.24762600  0.49731200  1
  O  O2  1  0.66293900  0.91824200  0.83282800  1
  O  O3  1  0.14483000  0.42561600  0.84776400  1
  O  O4  1  0.84556200  0.09026900  0.18277000  1
  O  O5  1  0.50717500  0.76038800  0.51639500  1
  O  O6  1  0.01841200  0.74424600  0.00998500  1
  O  O7  1  0.67236900  0.40303100  0.33367000  1
  O  O8  1  0.34964200  0.07405500  0.67351200  1
  O  O9  1  0.49358700  0.75581700  0.00818800  1
  O  O10  1  0.16574400  0.40062500  0.33472600  1
  O  O11  1  0.81961100  0.07300500  0.67279400  1
  O  O12  1  0.68027700  0.41755600  0.84023600  1
  O  O13  1  0.33706100  0.08175800  0.16717200  1
  O  O14  1  0.00324300  0.75237400  0.50268800  1
  O  O15  1  0.85517000  0.57438400  0.15223600  1
  O  O16  1  0.49282500  0.23961200  0.48360500  1
  O  O17  1  0.15443800  0.90973100  0.81723000  1
  O  O18  1  0.98158800  0.25575400  0.99001500  1
  O  O19  1  0.65035800  0.92594500  0.32648800  1
  O  O20  1  0.32763100  0.59696900  0.66633000  1
  O  O21  1  0.50641300  0.24418300  0.99181200  1
  O  O22  1  0.18038900  0.92699500  0.32720600  1
  O  O23  1  0.83425600  0.59937500  0.66527400  1
loop_
_geom_bond_atom_site_label_1
_geom_bond_atom_site_label_2
_geom_bond_distance
_geom_bond_site_symmetry_2
Li0 O18 2.125738 1_455
Li0 O21 2.127504 1_555
Li0 O3 2.144056 1_555
Li0 O8 2.193051 1_555
Li0 O17 2.221185 1_545
Li0 O11 2.269452 1_455
Li1 O6 2.125738 1_655
Li1 O9 2.127504 1_555
Li1 O15 2.144056 1_555
Li1 O19 2.193051 1_555
Li1 O4 2.221185 1_565
Li1 O22 2.269452 1_655
Li2 O7 2.174248 1_555
Li2 O20 2.174248 1_555
Li2 O23 2.183127 1_555
Li2 O10 2.183127 1_555
Li2 O16 2.194865 1_555
Li2 O5 2.194865 1_555
Li3 O12 2.120244 1_555
Li3 O9 2.137402 1_556
Li3 O20 2.189252 1_555
Li3 O2 2.257514 1_555
Li3 O23 2.280956 1_555
Li3 O6 2.323129 1_656
Li4 O0 2.120244 1_555
Li4 O21 2.137402 1_554
Li4 O7 2.189252 1_555
Li4 O13 2.257514 1_555
Li4 O10 2.280956 1_555
Li4 O18 2.323129 1_454
Li5 O1 2.157543 1_455
Li5 O14 2.157543 1_545
Li5 O11 2.260581 1_455
Li5 O22 2.260581 1_545
Li5 O19 2.278376 1_445
Li5 O8 2.278376 1_555
Li6 O12 2.085615 1_555
Li6 O3 2.125008 1_655
Li6 O1 2.218128 1_555
Li6 O11 2.286472 1_555
Li6 O16 2.307246 1_555
Li6 O23 2.310072 1_555
Li7 O2 2.134949 1_544
Li7 O13 2.134949 1_555
Li7 O9 2.152638 1_545
Li7 O21 2.152638 1_554
Li7 O4 2.300425 1_555
Li7 O17 2.300425 1_544
Li8 O0 2.085615 1_555
Li8 O15 2.125008 1_455
Li8 O14 2.218128 1_555
Li8 O22 2.286472 1_555
Li8 O5 2.307246 1_555
Li8 O10 2.310072 1_555
Li9 O13 2.195376 1_555
Li9 O2 2.195376 1_444
Li9 O17 2.234126 1_544
Li9 O4 2.234126 1_455
Li9 O6 2.260815 1_545
Li9 O18 2.260815 1_454
Li10 O0 2.186985 1_555
Li10 O7 2.255034 1_555
Li10 O15 2.270386 1_555
Li10 O14 2.287584 1_655
Li10 O19 2.313097 1_555
Li10 O5 2.361634 1_555
Li11 O12 2.186985 1_555
Li11 O20 2.255034 1_555
Li11 O3 2.270386 1_555
Li11 O1 2.287584 1_455
Li11 O8 2.313097 1_555
Li11 O16 2.361634 1_555
Li12 O15 2.111583 1_555
Li12 O7 2.132142 1_555
Li12 O21 2.137191 1_554
Li12 O18 2.151159 1_554
Li12 O4 2.231725 1_555
Li12 O10 2.234010 1_655
Li13 O8 2.137625 1_555
Li13 O19 2.137625 1_545
Li13 O22 2.145694 1_545
Li13 O11 2.145694 1_555
Li13 O5 2.149358 1_545
Li13 O16 2.149358 1_555
Li14 O3 2.111583 1_555
Li14 O20 2.132142 1_555
Li14 O9 2.137191 1_556
Li14 O6 2.151159 1_556
Li14 O17 2.231725 1_555
Li14 O23 2.234010 1_455
Li15 O12 2.149863 1_554
Li15 O0 2.149863 1_555
Li15 O9 2.185756 1_555
Li15 O21 2.185756 1_554
Li15 O15 2.223115 1_555
Li15 O3 2.223115 1_554
Mo0 O21 1.949306 1_555
Mo0 O18 2.063813 1_555
Mo0 O8 2.081104 1_555
Mo0 O12 2.128523 1_555
Mo0 O11 2.141424 1_555
Mo0 O2 2.175697 1_545
Mo1 O9 1.949306 1_555
Mo1 O6 2.063813 1_555
Mo1 O19 2.081104 1_555
Mo1 O0 2.128523 1_555
Mo1 O22 2.141424 1_555
Mo1 O13 2.175697 1_565
Mo2 O23 2.138236 1_455
Mo2 O10 2.138236 1_555
Mo2 O7 2.156336 1_455
Mo2 O20 2.156336 1_555
Mo2 O14 2.176761 1_555
Mo2 O1 2.176761 1_455
Mo3 O10 2.022642 1_555
Mo3 O22 2.053944 1_545
Mo3 O4 2.063446 1_455
Mo3 O16 2.072270 1_555
Mo3 O13 2.137019 1_555
Mo3 O1 2.160650 1_455
Mo4 O23 2.022642 1_555
Mo4 O11 2.053944 1_565
Mo4 O17 2.063446 1_655
Mo4 O5 2.072270 1_555
Mo4 O2 2.137019 1_555
Mo4 O14 2.160650 1_655
Mo5 O15 1.928900 1_455
Mo5 O3 1.928900 1_554
Mo5 O18 2.080213 1_454
Mo5 O6 2.080213 1_555
Mo5 O0 2.088290 1_555
Mo5 O12 2.088290 1_454
Mo6 O7 2.031466 1_555
Mo6 O16 2.051462 1_555
Mo6 O4 2.057039 1_555
Mo6 O19 2.077480 1_545
Mo6 O13 2.152310 1_555
Mo6 O1 2.157952 1_555
Mo7 O20 2.031466 1_555
Mo7 O5 2.051462 1_555
Mo7 O17 2.057039 1_555
Mo7 O8 2.077480 1_565
Mo7 O2 2.152310 1_555
Mo7 O14 2.157952 1_555
