# generated using pymatgen
data_Li9Mn2Co5O16
_symmetry_space_group_name_H-M   'P 1'
_cell_length_a   4.98938300
_cell_length_b   5.84950814
_cell_length_c   9.80962431
_cell_angle_alpha   99.42451067
_cell_angle_beta   94.34700514
_cell_angle_gamma   91.11929388
_symmetry_Int_Tables_number   1
_chemical_formula_structural   Li9Mn2Co5O16
_chemical_formula_sum   'Li9 Mn2 Co5 O16'
_cell_volume   281.47273811
_cell_formula_units_Z   1
loop_
 _symmetry_equiv_pos_site_id
 _symmetry_equiv_pos_as_xyz
  1  'x, y, z'
loop_
 _atom_site_type_symbol
 _atom_site_label
 _atom_site_symmetry_multiplicity
 _atom_site_fract_x
 _atom_site_fract_y
 _atom_site_fract_z
 _atom_site_occupancy
  Li  Li0  1  0.89143500  0.81424200  0.27011600  1
  Li  Li1  1  0.12699400  0.69398800  0.73207700  1
  Li  Li2  1  0.38099400  0.57180900  0.26442700  1
  Li  Li3  1  0.87246800  0.31181800  0.26398000  1
  Li  Li4  1  0.12689000  0.18467100  0.73062100  1
  Li  Li5  1  0.38378200  0.05395500  0.26467200  1
  Li  Li6  1  0.60557500  0.93381400  0.73434300  1
  Li  Li7  1  0.62479100  0.43635700  0.73866700  1
  Li  Li8  1  0.25224100  0.87243900  0.49908500  1
  Mn  Mn0  1  0.99893400  0.00022400  0.00016300  1
  Mn  Mn1  1  0.99992600  0.50008300  0.00032100  1
  Co  Co0  1  0.49986100  0.74868900  0.00166900  1
  Co  Co1  1  0.75372000  0.62901100  0.49956000  1
  Co  Co2  1  0.24556900  0.37367900  0.49819800  1
  Co  Co3  1  0.49878400  0.25146900  0.99771600  1
  Co  Co4  1  0.73885000  0.11927200  0.50373200  1
  O  O0  1  0.67246200  0.03470000  0.10530400  1
  O  O1  1  0.91509400  0.89032400  0.61519700  1
  O  O2  1  0.19912500  0.75798200  0.11633600  1
  O  O3  1  0.68237500  0.52867400  0.10444000  1
  O  O4  1  0.93254800  0.42100000  0.61484900  1
  O  O5  1  0.17972200  0.28090400  0.10565700  1
  O  O6  1  0.44746000  0.15927100  0.61913300  1
  O  O7  1  0.45051300  0.63957500  0.61097500  1
  O  O8  1  0.03887300  0.59016100  0.38701400  1
  O  O9  1  0.31565700  0.47115500  0.89447000  1
  O  O10  1  0.57230400  0.35842100  0.38532800  1
  O  O11  1  0.06281900  0.10969100  0.38332300  1
  O  O12  1  0.32336200  0.96504000  0.89310800  1
  O  O13  1  0.58497000  0.83386000  0.38487200  1
  O  O14  1  0.81945900  0.71956600  0.89521400  1
  O  O15  1  0.80244300  0.24415300  0.88543300  1
loop_
_geom_bond_atom_site_label_1
_geom_bond_atom_site_label_2
_geom_bond_distance
_geom_bond_site_symmetry_2
Li0 O13 1.960598 1_555
Li0 O8 1.994059 1_655
Li0 O11 2.030025 1_665
Li0 O2 2.224625 1_655
Li0 O3 2.303377 1_555
Li0 O0 2.437329 1_565
Li1 O4 1.995624 1_455
Li1 O1 2.011529 1_455
Li1 O7 2.074853 1_555
Li1 O12 2.203079 1_555
Li1 O14 2.289235 1_455
Li1 O9 2.371375 1_555
Li2 O13 1.986217 1_555
Li2 O10 2.058028 1_555
Li2 O2 2.115807 1_555
Li2 O8 2.155788 1_555
Li2 O3 2.242931 1_555
Li2 O5 2.271121 1_555
Li3 O10 1.978421 1_555
Li3 O8 1.987120 1_655
Li3 O11 1.999781 1_655
Li3 O0 2.218407 1_555
Li3 O5 2.252705 1_655
Li3 O3 2.330258 1_555
Li4 O6 1.999407 1_555
Li4 O1 2.114788 1_445
Li4 O4 2.130875 1_455
Li4 O9 2.259529 1_555
Li4 O15 2.295532 1_455
Li4 O12 2.373834 1_545
Li5 O11 2.050413 1_555
Li5 O13 2.103254 1_545
Li5 O10 2.129072 1_555
Li5 O0 2.195747 1_555
Li5 O2 2.207489 1_545
Li5 O5 2.392155 1_555
Li6 O1 2.001809 1_555
Li6 O6 2.008112 1_565
Li6 O7 2.037004 1_555
Li6 O12 2.165852 1_555
Li6 O15 2.299013 1_565
Li6 O14 2.375802 1_555
Li7 O6 1.987235 1_555
Li7 O4 2.023250 1_555
Li7 O7 2.025120 1_555
Li7 O15 2.120870 1_555
Li7 O14 2.218996 1_555
Li7 O9 2.241438 1_555
Li8 O8 2.056155 1_555
Li8 O6 2.065384 1_565
Li8 O13 2.067839 1_555
Li8 O1 2.096724 1_455
Li8 O7 2.101535 1_555
Li8 O11 2.124485 1_565
Mn0 O14 1.950965 1_544
Mn0 O5 1.955608 1_655
Mn0 O0 1.989255 1_555
Mn0 O12 1.991310 1_644
Mn0 O15 2.162644 1_554
Mn0 O2 2.171600 1_645
Mn1 O15 1.924495 1_554
Mn1 O2 1.940747 1_655
Mn1 O3 1.944520 1_555
Mn1 O9 1.946597 1_654
Mn1 O5 1.963285 1_655
Mn1 O14 1.964714 1_554
Co0 O2 1.938738 1_555
Co0 O9 1.955034 1_554
Co0 O0 1.956559 1_565
Co0 O3 1.957921 1_555
Co0 O12 1.963150 1_554
Co0 O14 1.966488 1_554
Co1 O8 1.860994 1_655
Co1 O1 1.875399 1_555
Co1 O7 1.928504 1_555
Co1 O13 1.935919 1_555
Co1 O10 1.946715 1_555
Co1 O4 1.973763 1_555
Co2 O11 1.924878 1_555
Co2 O7 1.972688 1_555
Co2 O4 2.002320 1_455
Co2 O10 2.034306 1_555
Co2 O8 2.046825 1_555
Co2 O6 2.085783 1_555
Co3 O15 1.936632 1_555
Co3 O3 1.950655 1_556
Co3 O0 1.953234 1_556
Co3 O9 1.960561 1_555
Co3 O12 1.967170 1_545
Co3 O5 1.972709 1_556
Co4 O6 1.904206 1_555
Co4 O13 1.978120 1_545
Co4 O1 2.035242 1_545
Co4 O11 2.069384 1_655
Co4 O4 2.093044 1_555
Co4 O10 2.104218 1_555
