# generated using pymatgen
data_Li2V3WO8
_symmetry_space_group_name_H-M   'P 1'
_cell_length_a   8.51250000
_cell_length_b   8.63673067
_cell_length_c   8.68108075
_cell_angle_alpha   90.05997253
_cell_angle_beta   90.11317815
_cell_angle_gamma   90.17146175
_symmetry_Int_Tables_number   1
_chemical_formula_structural   Li2V3WO8
_chemical_formula_sum   'Li8 V12 W4 O32'
_cell_volume   638.23007435
_cell_formula_units_Z   4
loop_
 _symmetry_equiv_pos_site_id
 _symmetry_equiv_pos_as_xyz
  1  'x, y, z'
loop_
 _atom_site_type_symbol
 _atom_site_label
 _atom_site_symmetry_multiplicity
 _atom_site_fract_x
 _atom_site_fract_y
 _atom_site_fract_z
 _atom_site_occupancy
  Li  Li0  1  0.00142000  0.99810400  0.99871000  1
  Li  Li1  1  0.75070400  0.74915900  0.75041900  1
  Li  Li2  1  0.24863900  0.24919900  0.74703700  1
  Li  Li3  1  0.49808400  0.00208300  0.50272600  1
  Li  Li4  1  0.00176400  0.50305500  0.50389100  1
  Li  Li5  1  0.25187900  0.75036200  0.25186400  1
  Li  Li6  1  0.75043700  0.24786700  0.24559300  1
  Li  Li7  1  0.49848300  0.49697000  0.99930600  1
  V  V0  1  0.37324800  0.87023600  0.88128800  1
  V  V1  1  0.13053300  0.62208000  0.87691700  1
  V  V2  1  0.88251700  0.37273200  0.86869300  1
  V  V3  1  0.37781600  0.62594400  0.63255100  1
  V  V4  1  0.62786700  0.37922800  0.62485800  1
  V  V5  1  0.87543900  0.13220500  0.61963100  1
  V  V6  1  0.62734500  0.63031800  0.38308000  1
  V  V7  1  0.87364300  0.88230200  0.37756100  1
  V  V8  1  0.12002500  0.12526000  0.36849700  1
  V  V9  1  0.62153200  0.87845900  0.12950400  1
  V  V10  1  0.36755700  0.11852800  0.12424600  1
  V  V11  1  0.12557600  0.36816900  0.11763800  1
  W  W0  1  0.62361600  0.12456800  0.87328100  1
  W  W1  1  0.12297000  0.87404400  0.62433900  1
  W  W2  1  0.37482500  0.37533200  0.37462100  1
  W  W3  1  0.87686000  0.62389300  0.12637300  1
  O  O0  1  0.62308000  0.89606200  0.88986400  1
  O  O1  1  0.38525600  0.11013100  0.88450400  1
  O  O2  1  0.11672000  0.38629800  0.88789600  1
  O  O3  1  0.13270300  0.85497800  0.86708600  1
  O  O4  1  0.88631300  0.61402000  0.89241900  1
  O  O5  1  0.36738100  0.63575000  0.86515800  1
  O  O6  1  0.63600700  0.35341600  0.86804100  1
  O  O7  1  0.86365800  0.13078500  0.85527200  1
  O  O8  1  0.36342500  0.86788800  0.64496900  1
  O  O9  1  0.13697000  0.63714800  0.63708500  1
  O  O10  1  0.86420300  0.36466600  0.63561200  1
  O  O11  1  0.38757300  0.38467300  0.60909200  1
  O  O12  1  0.63098800  0.14143500  0.63926700  1
  O  O13  1  0.61714500  0.61259400  0.61267700  1
  O  O14  1  0.87951600  0.88993000  0.60739900  1
  O  O15  1  0.11841200  0.11210100  0.60270100  1
  O  O16  1  0.38484300  0.61312800  0.39239100  1
  O  O17  1  0.60695000  0.38837800  0.37945200  1
  O  O18  1  0.88186300  0.11150600  0.38557800  1
  O  O19  1  0.86905100  0.64422100  0.36382400  1
  O  O20  1  0.09808200  0.88370900  0.37501300  1
  O  O21  1  0.64666400  0.86605100  0.36359700  1
  O  O22  1  0.36180700  0.13916700  0.36424100  1
  O  O23  1  0.14407300  0.37096000  0.36166400  1
  O  O24  1  0.64526700  0.63267100  0.13944000  1
  O  O25  1  0.86367900  0.86179500  0.14156100  1
  O  O26  1  0.13103800  0.13780300  0.13631300  1
  O  O27  1  0.60984900  0.11668900  0.10944200  1
  O  O28  1  0.36854800  0.35729300  0.13835800  1
  O  O29  1  0.38788100  0.88403700  0.11612600  1
  O  O30  1  0.10676200  0.61206300  0.12389200  1
  O  O31  1  0.88137000  0.38841600  0.10744000  1
loop_
_geom_bond_atom_site_label_1
_geom_bond_atom_site_label_2
_geom_bond_distance
_geom_bond_site_symmetry_2
Li0 O26 2.020871 1_566
Li0 O3 2.023100 1_555
Li0 O7 2.060135 1_465
Li0 O25 2.073438 1_456
Li1 O13 2.024159 1_555
Li1 O4 2.054232 1_555
Li1 O14 2.054887 1_555
Li1 O0 2.065343 1_555
Li2 O2 2.041743 1_555
Li2 O15 2.045601 1_555
Li2 O11 2.049884 1_555
Li2 O1 2.055498 1_555
Li3 O12 2.029045 1_555
Li3 O8 2.045162 1_545
Li3 O22 2.049015 1_555
Li3 O21 2.109674 1_545
Li4 O9 1.996706 1_555
Li4 O10 2.026600 1_455
Li4 O19 2.060864 1_455
Li4 O23 2.074792 1_555
Li5 O29 2.015432 1_555
Li5 O30 2.042020 1_555
Li5 O16 2.044442 1_555
Li5 O20 2.048230 1_555
Li6 O27 2.023924 1_555
Li6 O18 2.030003 1_555
Li6 O31 2.038226 1_555
Li6 O17 2.080020 1_555
Li7 O5 2.010993 1_555
Li7 O28 2.033755 1_556
Li7 O6 2.053578 1_555
Li7 O24 2.096906 1_556
O0 W0 1.978931 1_565
O0 V9 2.086106 1_556
O0 V0 2.138838 1_555
O1 W0 2.035027 1_555
O1 V0 2.074279 1_545
O1 V10 2.088162 1_556
O2 V11 2.001998 1_556
O2 V2 2.003352 1_455
O2 V1 2.041762 1_555
O3 V1 2.013407 1_555
O3 V0 2.054932 1_555
O3 W1 2.115381 1_555
O4 W3 2.034435 1_556
O4 V1 2.084499 1_655
O4 V2 2.094025 1_555
O5 V1 2.022056 1_555
O5 V3 2.023104 1_555
O5 V0 2.030340 1_555
O6 W0 1.979571 1_555
O6 V2 2.104536 1_555
O6 V4 2.124078 1_555
O7 V5 2.048321 1_555
O7 W0 2.050185 1_555
O7 V2 2.098407 1_555
O8 V0 2.053119 1_555
O8 W1 2.055192 1_555
O8 V3 2.096233 1_555
O9 W1 2.052918 1_555
O9 V3 2.053226 1_555
O9 V1 2.087017 1_555
O10 V5 2.014916 1_555
O10 V4 2.018096 1_555
O10 V2 2.030192 1_555
O11 W2 2.039637 1_555
O11 V4 2.050490 1_555
O11 V3 2.095418 1_555
O12 W0 2.037940 1_555
O12 V4 2.057938 1_555
O12 V5 2.089947 1_555
O13 V6 2.001215 1_555
O13 V4 2.020727 1_555
O13 V3 2.048501 1_555
O14 V7 1.996783 1_555
O14 W1 2.082268 1_655
O14 V5 2.095440 1_565
O15 V8 2.036508 1_555
O15 W1 2.065266 1_545
O15 V5 2.081572 1_455
O16 W2 2.060902 1_555
O16 V6 2.070930 1_555
O16 V3 2.088653 1_555
O17 W2 1.979196 1_555
O17 V6 2.096451 1_555
O17 V4 2.139029 1_555
O18 V7 1.981745 1_545
O18 V8 2.036184 1_655
O18 V5 2.040351 1_555
O19 V7 2.059822 1_555
O19 V6 2.067772 1_555
O19 W3 2.069827 1_555
O20 V7 1.910711 1_455
O20 V8 2.094832 1_565
O20 W1 2.176059 1_555
O21 V7 1.940373 1_555
O21 V9 2.045944 1_555
O21 V6 2.049298 1_555
O22 W2 2.044254 1_555
O22 V8 2.061718 1_555
O22 V10 2.091523 1_555
O23 W2 1.967520 1_555
O23 V11 2.124049 1_555
O23 V8 2.132184 1_555
O24 W3 1.976596 1_555
O24 V6 2.120968 1_555
O24 V9 2.134817 1_555
O25 V7 2.057752 1_555
O25 W3 2.062188 1_555
O25 V9 2.069175 1_555
O26 V11 1.997045 1_555
O26 V8 2.020976 1_555
O26 V10 2.023645 1_555
O27 W0 2.054897 1_554
O27 V10 2.066871 1_555
O27 V9 2.067741 1_545
O28 W2 2.057341 1_555
O28 V10 2.065648 1_555
O28 V11 2.078164 1_555
O29 V9 1.992842 1_555
O29 V10 2.034288 1_565
O29 V0 2.045533 1_554
O30 W3 1.960171 1_455
O30 V11 2.113653 1_555
O30 V1 2.155738 1_554
O31 W3 2.040692 1_555
O31 V2 2.076906 1_554
O31 V11 2.088378 1_655
