# generated using pymatgen
data_LiV(PO3)4
_symmetry_space_group_name_H-M   'P 1'
_cell_length_a   7.25314992
_cell_length_b   7.25314992
_cell_length_c   10.08467748
_cell_angle_alpha   66.39671739
_cell_angle_beta   66.39671739
_cell_angle_gamma   69.81533821
_symmetry_Int_Tables_number   1
_chemical_formula_structural   LiV(PO3)4
_chemical_formula_sum   'Li2 V2 P8 O24'
_cell_volume   434.56633276
_cell_formula_units_Z   2
loop_
 _symmetry_equiv_pos_site_id
 _symmetry_equiv_pos_as_xyz
  1  'x, y, z'
loop_
 _atom_site_type_symbol
 _atom_site_label
 _atom_site_symmetry_multiplicity
 _atom_site_fract_x
 _atom_site_fract_y
 _atom_site_fract_z
 _atom_site_occupancy
  Li  Li0  1  0.00000000  0.50000000  0.00000000  1
  Li  Li1  1  0.50000000  0.00000000  0.50000000  1
  V  V0  1  0.55560700  0.44439300  0.25000000  1
  V  V1  1  0.44439300  0.55560700  0.75000000  1
  P  P0  1  0.75118000  0.22887400  0.97820800  1
  P  P1  1  0.78939700  0.80851300  0.19906000  1
  P  P2  1  0.19148700  0.21060300  0.30094000  1
  P  P3  1  0.77112600  0.24882000  0.52179200  1
  P  P4  1  0.22887400  0.75118000  0.47820800  1
  P  P5  1  0.80851300  0.78939700  0.69906000  1
  P  P6  1  0.21060300  0.19148700  0.80094000  1
  P  P7  1  0.24882000  0.77112600  0.02179200  1
  O  O0  1  0.77044100  0.31182400  0.08787900  1
  O  O1  1  0.31003900  0.14997000  0.65388600  1
  O  O2  1  0.37954200  0.22958300  0.31989000  1
  O  O3  1  0.96637300  0.19819500  0.85003600  1
  O  O4  1  0.71638800  0.99955300  0.06163700  1
  O  O5  1  0.58772900  0.34803500  0.90166900  1
  O  O6  1  0.00044700  0.28361200  0.43836300  1
  O  O7  1  0.14997000  0.31003900  0.15388600  1
  O  O8  1  0.31182400  0.77044100  0.58787900  1
  O  O9  1  0.65196500  0.41227100  0.59833100  1
  O  O10  1  0.77041700  0.62045800  0.18011000  1
  O  O11  1  0.19819500  0.96637300  0.35003600  1
  O  O12  1  0.80180500  0.03362700  0.64996400  1
  O  O13  1  0.22958300  0.37954200  0.81989000  1
  O  O14  1  0.34803500  0.58772900  0.40166900  1
  O  O15  1  0.68817600  0.22955900  0.41212100  1
  O  O16  1  0.85003000  0.68996100  0.84611400  1
  O  O17  1  0.99955300  0.71638800  0.56163700  1
  O  O18  1  0.41227100  0.65196500  0.09833100  1
  O  O19  1  0.28361200  0.00044700  0.93836300  1
  O  O20  1  0.03362700  0.80180500  0.14996400  1
  O  O21  1  0.62045800  0.77041700  0.68011000  1
  O  O22  1  0.68996100  0.85003000  0.34611400  1
  O  O23  1  0.22955900  0.68817600  0.91212100  1
loop_
_geom_bond_atom_site_label_1
_geom_bond_atom_site_label_2
_geom_bond_distance
_geom_bond_site_symmetry_2
Li0 O16 2.023664 1_454
Li0 O7 2.023664 1_555
Li0 O13 2.163354 1_554
Li0 O10 2.163354 1_455
Li0 O0 2.199669 1_455
Li0 O23 2.199669 1_554
Li1 O1 2.023664 1_555
Li1 O22 2.023664 1_545
Li1 O21 2.163354 1_545
Li1 O2 2.163354 1_555
Li1 O15 2.199669 1_555
Li1 O8 2.199669 1_545
O0 P0 1.522936 1_554
O0 V0 2.051943 1_555
O1 P6 1.470148 1_555
O2 P2 1.508421 1_555
O2 V0 2.080376 1_555
O3 P0 1.591064 1_555
O3 P6 1.625715 1_655
O4 P0 1.592826 1_564
O4 P1 1.632355 1_555
O5 P0 1.496576 1_555
O5 V1 2.009022 1_555
O6 P3 1.592826 1_455
O6 P2 1.632355 1_555
O7 P2 1.470148 1_555
O8 P4 1.522936 1_555
O8 V1 2.051943 1_555
O9 P3 1.496576 1_555
O9 V1 2.009022 1_555
O10 P1 1.508421 1_555
O10 V0 2.080376 1_555
O11 P4 1.591064 1_555
O11 P2 1.625715 1_565
O12 P3 1.591064 1_555
O12 P5 1.625715 1_545
O13 P6 1.508421 1_555
O13 V1 2.080376 1_555
O14 P4 1.496576 1_555
O14 V0 2.009022 1_555
O15 P3 1.522936 1_555
O15 V0 2.051943 1_555
O16 P5 1.470148 1_555
O17 P4 1.592826 1_655
O17 P5 1.632355 1_555
O18 P7 1.496576 1_555
O18 V0 2.009022 1_555
O19 P7 1.592826 1_546
O19 P6 1.632355 1_555
O20 P7 1.591064 1_555
O20 P1 1.625715 1_455
O21 P5 1.508421 1_555
O21 V1 2.080376 1_555
O22 P1 1.470148 1_555
O23 P7 1.522936 1_556
O23 V1 2.051943 1_555
