# generated using pymatgen
data_Er2MgS4
_symmetry_space_group_name_H-M   'P 1'
_cell_length_a   13.43121500
_cell_length_b   7.83049700
_cell_length_c   6.49122500
_cell_angle_alpha   90.00000000
_cell_angle_beta   90.00000000
_cell_angle_gamma   90.00000000
_symmetry_Int_Tables_number   1
_chemical_formula_structural   Er2MgS4
_chemical_formula_sum   'Er8 Mg4 S16'
_cell_volume   682.70218311
_cell_formula_units_Z   4
loop_
 _symmetry_equiv_pos_site_id
 _symmetry_equiv_pos_as_xyz
  1  'x, y, z'
loop_
 _atom_site_type_symbol
 _atom_site_label
 _atom_site_symmetry_multiplicity
 _atom_site_fract_x
 _atom_site_fract_y
 _atom_site_fract_z
 _atom_site_occupancy
  Er  Er0  1  0.00000000  0.00000000  0.50000000  1
  Er  Er1  1  0.50000000  0.00000000  0.00000000  1
  Er  Er2  1  0.50000000  0.50000000  0.00000000  1
  Er  Er3  1  0.00000000  0.50000000  0.50000000  1
  Er  Er4  1  0.23238500  0.75000000  0.00070700  1
  Er  Er5  1  0.76761500  0.25000000  0.99929300  1
  Er  Er6  1  0.26761500  0.25000000  0.50070700  1
  Er  Er7  1  0.73238500  0.75000000  0.49929300  1
  Mg  Mg0  1  0.09252400  0.25000000  0.92558300  1
  Mg  Mg1  1  0.90747600  0.75000000  0.07441700  1
  Mg  Mg2  1  0.40747600  0.75000000  0.42558300  1
  Mg  Mg3  1  0.59252400  0.25000000  0.57441700  1
  S  S0  1  0.16818600  0.00793700  0.74281900  1
  S  S1  1  0.83181400  0.99206300  0.25718100  1
  S  S2  1  0.33181400  0.99206300  0.24281900  1
  S  S3  1  0.66818600  0.00793700  0.75718100  1
  S  S4  1  0.66818600  0.49206300  0.75718100  1
  S  S5  1  0.33181400  0.50793700  0.24281900  1
  S  S6  1  0.83181400  0.50793700  0.25718100  1
  S  S7  1  0.16818600  0.49206300  0.74281900  1
  S  S8  1  0.07150900  0.75000000  0.24836800  1
  S  S9  1  0.92849100  0.25000000  0.75163200  1
  S  S10  1  0.42849100  0.25000000  0.74836800  1
  S  S11  1  0.57150900  0.75000000  0.25163200  1
  S  S12  1  0.09214600  0.25000000  0.29367200  1
  S  S13  1  0.90785400  0.75000000  0.70632800  1
  S  S14  1  0.40785400  0.75000000  0.79367200  1
  S  S15  1  0.59214600  0.25000000  0.20632800  1
loop_
_geom_bond_atom_site_label_1
_geom_bond_atom_site_label_2
_geom_bond_distance
_geom_bond_site_symmetry_2
Er0 S13 2.675408 1_445
Er0 S12 2.675408 1_555
Er0 S8 2.724474 1_545
Er0 S9 2.724474 1_455
Er0 S1 2.755189 1_445
Er0 S0 2.755189 1_555
Er1 S15 2.675408 1_555
Er1 S14 2.675408 1_544
Er1 S10 2.724474 1_554
Er1 S11 2.724474 1_545
Er1 S3 2.755189 1_554
Er1 S2 2.755189 1_545
Er2 S15 2.675408 1_555
Er2 S14 2.675408 1_554
Er2 S10 2.724474 1_554
Er2 S11 2.724474 1_555
Er2 S4 2.755189 1_554
Er2 S5 2.755189 1_555
Er3 S13 2.675408 1_455
Er3 S12 2.675408 1_555
Er3 S8 2.724474 1_555
Er3 S9 2.724474 1_455
Er3 S6 2.755189 1_455
Er3 S7 2.755189 1_555
Er4 S8 2.693202 1_555
Er4 S14 2.713010 1_554
Er4 S7 2.761396 1_554
Er4 S0 2.761396 1_564
Er4 S5 2.801105 1_555
Er4 S2 2.801105 1_555
Er5 S9 2.693202 1_555
Er5 S15 2.713010 1_556
Er5 S1 2.761396 1_546
Er5 S6 2.761396 1_556
Er5 S3 2.801105 1_555
Er5 S4 2.801105 1_555
Er6 S10 2.693202 1_555
Er6 S12 2.713010 1_555
Er6 S2 2.761396 1_545
Er6 S5 2.761396 1_555
Er6 S7 2.801105 1_555
Er6 S0 2.801105 1_555
Er7 S11 2.693202 1_555
Er7 S13 2.713010 1_555
Er7 S3 2.761396 1_565
Er7 S4 2.761396 1_555
Er7 S6 2.801105 1_555
Er7 S1 2.801105 1_555
Mg0 S12 2.389354 1_556
Mg0 S0 2.456217 1_555
Mg0 S7 2.456217 1_555
Mg0 S9 2.475665 1_455
Mg1 S13 2.389354 1_554
Mg1 S1 2.456217 1_555
Mg1 S6 2.456217 1_555
Mg1 S8 2.475665 1_655
Mg2 S14 2.389354 1_555
Mg2 S5 2.456217 1_555
Mg2 S2 2.456217 1_555
Mg2 S11 2.475665 1_555
Mg3 S15 2.389354 1_555
Mg3 S4 2.456217 1_555
Mg3 S3 2.456217 1_555
Mg3 S10 2.475665 1_555
