# generated using pymatgen
data_SiPb7(ClO4)2
_symmetry_space_group_name_H-M   'P 1'
_cell_length_a   11.81248359
_cell_length_b   11.81248359
_cell_length_c   5.71698400
_cell_angle_alpha   90.00000000
_cell_angle_beta   90.00000000
_cell_angle_gamma   151.98683683
_symmetry_Int_Tables_number   1
_chemical_formula_structural   SiPb7(ClO4)2
_chemical_formula_sum   'Si1 Pb7 Cl2 O8'
_cell_volume   374.66774072
_cell_formula_units_Z   1
loop_
 _symmetry_equiv_pos_site_id
 _symmetry_equiv_pos_as_xyz
  1  'x, y, z'
loop_
 _atom_site_type_symbol
 _atom_site_label
 _atom_site_symmetry_multiplicity
 _atom_site_fract_x
 _atom_site_fract_y
 _atom_site_fract_z
 _atom_site_occupancy
  Si  Si0  1  0.14389900  0.85610100  0.50000000  1
  Pb  Pb0  1  0.91002200  0.08997800  0.00000000  1
  Pb  Pb1  1  0.40958600  0.59041400  0.50000000  1
  Pb  Pb2  1  0.58331600  0.41668400  0.50000000  1
  Pb  Pb3  1  0.08331900  0.91668100  0.00000000  1
  Pb  Pb4  1  0.68998300  0.31001700  0.00000000  1
  Pb  Pb5  1  0.30491800  0.69508200  0.00000000  1
  Pb  Pb6  1  0.80479300  0.19520700  0.50000000  1
  Cl  Cl0  1  0.52800600  0.47199400  0.00000000  1
  Cl  Cl1  1  0.03239400  0.96760600  0.50000000  1
  O  O0  1  0.60629900  0.89475600  0.75022800  1
  O  O1  1  0.10524400  0.39370100  0.24977200  1
  O  O2  1  0.10524400  0.39370100  0.75022800  1
  O  O3  1  0.60629900  0.89475600  0.24977200  1
  O  O4  1  0.93139900  0.63805900  0.71538200  1
  O  O5  1  0.36194100  0.06860100  0.28461800  1
  O  O6  1  0.36194100  0.06860100  0.71538200  1
  O  O7  1  0.93139900  0.63805900  0.28461800  1
loop_
_geom_bond_atom_site_label_1
_geom_bond_atom_site_label_2
_geom_bond_distance
_geom_bond_site_symmetry_2
Cl0 Pb2 3.127045 1_555
Cl0 Pb2 3.127045 1_554
Cl0 Pb3 3.127551 1_545
Cl0 Pb3 3.127551 1_655
Cl1 Si0 2.555979 1_555
Cl1 Pb3 3.087659 1_555
Cl1 Pb3 3.087659 1_556
Cl1 Pb2 3.088117 1_565
Cl1 Pb2 3.088117 1_455
O0 Pb6 2.333854 1_565
O0 Pb5 2.334520 1_556
O0 Pb1 2.370713 1_555
O0 Pb0 2.370725 1_566
O1 Pb6 2.333854 1_455
O1 Pb5 2.334520 1_555
O1 Pb1 2.370713 1_555
O1 Pb0 2.370725 1_455
O2 Pb6 2.333854 1_455
O2 Pb5 2.334520 1_556
O2 Pb1 2.370713 1_555
O2 Pb0 2.370725 1_456
O3 Pb6 2.333854 1_565
O3 Pb5 2.334520 1_555
O3 Pb1 2.370713 1_555
O3 Pb0 2.370725 1_565
O4 Si0 1.742240 1_655
O4 Pb3 2.504317 1_656
O4 Pb2 2.505164 1_555
O4 Pb4 2.506801 1_556
O5 Si0 1.742240 1_545
O5 Pb3 2.504317 1_545
O5 Pb2 2.505164 1_555
O5 Pb4 2.506801 1_555
O6 Si0 1.742240 1_545
O6 Pb3 2.504317 1_546
O6 Pb2 2.505164 1_555
O6 Pb4 2.506801 1_556
O7 Si0 1.742240 1_655
O7 Pb3 2.504317 1_655
O7 Pb2 2.505164 1_555
O7 Pb4 2.506801 1_555
