# generated using pymatgen
data_KHg
_symmetry_space_group_name_H-M   'P 1'
_cell_length_a   6.63158513
_cell_length_b   6.78575914
_cell_length_c   7.06632928
_cell_angle_alpha   106.76661118
_cell_angle_beta   101.80418003
_cell_angle_gamma   92.00099306
_symmetry_Int_Tables_number   1
_chemical_formula_structural   KHg
_chemical_formula_sum   'K4 Hg4'
_cell_volume   296.52964185
_cell_formula_units_Z   4
loop_
 _symmetry_equiv_pos_site_id
 _symmetry_equiv_pos_as_xyz
  1  'x, y, z'
loop_
 _atom_site_type_symbol
 _atom_site_label
 _atom_site_symmetry_multiplicity
 _atom_site_fract_x
 _atom_site_fract_y
 _atom_site_fract_z
 _atom_site_occupancy
  K  K0  1  0.33088311  0.20062418  0.85322938  1
  K  K1  1  0.66911689  0.79937582  0.14677062  1
  K  K2  1  0.75720201  0.34061303  0.53403046  1
  K  K3  1  0.24279799  0.65938697  0.46596954  1
  Hg  Hg0  1  0.11705630  0.70056843  0.95154389  1
  Hg  Hg1  1  0.88294370  0.29943157  0.04845611  1
  Hg  Hg2  1  0.80003354  0.89815843  0.70816092  1
  Hg  Hg3  1  0.19996646  0.10184157  0.29183908  1
loop_
_geom_bond_atom_site_label_1
_geom_bond_atom_site_label_2
_geom_bond_distance
_geom_bond_site_symmetry_2
K0 K3 3.836154 1_545
K0 K2 4.200056 1_555
K0 K1 4.294096 1_556
K0 K2 4.294327 1_455
K0 K1 4.304488 1_546
K1 K2 3.836154 1_565
K1 K3 4.200056 1_555
K1 K3 4.294327 1_655
K2 K3 4.003495 1_655
K2 K3 4.122105 1_555
Hg0 Hg3 3.012616 1_566
Hg0 Hg2 3.037008 1_455
Hg0 Hg1 3.391765 1_456
Hg0 K1 3.529715 1_456
Hg0 K2 3.594443 1_455
Hg0 K1 3.603393 1_556
Hg0 K3 3.630486 1_555
Hg0 K3 3.653706 1_556
Hg0 K0 3.658097 1_555
Hg0 K0 3.928703 1_565
Hg1 Hg2 3.012616 1_544
Hg1 Hg3 3.037008 1_655
Hg1 K0 3.529715 1_654
Hg1 K3 3.594443 1_655
Hg1 K0 3.603393 1_554
Hg1 K2 3.630486 1_555
Hg1 K2 3.653706 1_554
Hg1 K1 3.658097 1_555
Hg1 K1 3.928703 1_545
Hg2 K2 3.557677 1_565
Hg2 K2 3.606203 1_555
Hg2 K1 3.614970 1_556
Hg2 K1 3.735774 1_555
Hg2 K0 3.802832 1_665
Hg2 K3 3.821563 1_555
Hg2 K3 3.868319 1_655
Hg2 K0 3.934458 1_565
Hg3 K3 3.557677 1_545
Hg3 K3 3.606203 1_555
Hg3 K0 3.614970 1_554
Hg3 K0 3.735774 1_555
Hg3 K1 3.802832 1_445
Hg3 K2 3.821563 1_555
Hg3 K2 3.868319 1_455
Hg3 K1 3.934458 1_545
