# generated using pymatgen
data_NaC2
_symmetry_space_group_name_H-M   'P 1'
_cell_length_a   4.62210300
_cell_length_b   4.62210300
_cell_length_c   4.62210300
_cell_angle_alpha   90.00000000
_cell_angle_beta   90.00000000
_cell_angle_gamma   90.00000000
_symmetry_Int_Tables_number   1
_chemical_formula_structural   NaC2
_chemical_formula_sum   'Na4 C8'
_cell_volume   98.74585113
_cell_formula_units_Z   4
loop_
 _symmetry_equiv_pos_site_id
 _symmetry_equiv_pos_as_xyz
  1  'x, y, z'
loop_
 _atom_site_type_symbol
 _atom_site_label
 _atom_site_symmetry_multiplicity
 _atom_site_fract_x
 _atom_site_fract_y
 _atom_site_fract_z
 _atom_site_occupancy
  Na  Na0  1  0.37500000  0.87500000  0.62500000  1
  Na  Na1  1  0.62500000  0.37500000  0.87500000  1
  Na  Na2  1  0.87500000  0.62500000  0.37500000  1
  Na  Na3  1  0.12500000  0.12500000  0.12500000  1
  C  C0  1  0.64852600  0.14852600  0.35147400  1
  C  C1  1  0.35147400  0.64852600  0.14852600  1
  C  C2  1  0.14852600  0.35147400  0.64852600  1
  C  C3  1  0.85147400  0.85147400  0.85147400  1
  C  C4  1  0.10147400  0.60147400  0.89852600  1
  C  C5  1  0.60147400  0.89852600  0.10147400  1
  C  C6  1  0.89852600  0.10147400  0.60147400  1
  C  C7  1  0.39852600  0.39852600  0.39852600  1
loop_
_geom_bond_atom_site_label_1
_geom_bond_atom_site_label_2
_geom_bond_distance
_geom_bond_site_symmetry_2
C0 C7 1.648568 1_555
C0 C6 1.648568 1_555
C0 C5 1.648568 1_545
C0 Na0 2.189772 1_545
C0 Na1 2.440853 1_554
C0 Na2 2.440853 1_555
C0 Na3 2.440853 1_655
C1 C7 1.648568 1_555
C1 C5 1.648568 1_555
C1 C4 1.648568 1_554
C1 Na1 2.189772 1_554
C1 Na2 2.440853 1_455
C1 Na0 2.440853 1_555
C1 Na3 2.440853 1_565
C2 C7 1.648568 1_555
C2 C4 1.648568 1_555
C2 C6 1.648568 1_455
C2 Na2 2.189772 1_455
C2 Na0 2.440853 1_545
C2 Na1 2.440853 1_555
C2 Na3 2.440853 1_556
C3 C4 1.648568 1_655
C3 C5 1.648568 1_556
C3 C6 1.648568 1_565
C3 Na3 2.189772 1_666
C3 Na0 2.440853 1_555
C3 Na1 2.440853 1_555
C3 Na2 2.440853 1_555
C4 Na0 2.189772 1_555
C4 Na1 2.440853 1_455
C4 Na3 2.440853 1_556
C4 Na2 2.440853 1_456
C5 Na2 2.189772 1_555
C5 Na0 2.440853 1_554
C5 Na3 2.440853 1_565
C5 Na1 2.440853 1_564
C6 Na1 2.189772 1_555
C6 Na2 2.440853 1_545
C6 Na3 2.440853 1_655
C6 Na0 2.440853 1_645
C7 Na3 2.189772 1_555
C7 Na0 2.440853 1_555
C7 Na1 2.440853 1_555
C7 Na2 2.440853 1_555
