# generated using pymatgen
data_SrBi2Br2O3
_symmetry_space_group_name_H-M   'P 1'
_cell_length_a   4.07504100
_cell_length_b   4.07504100
_cell_length_c   21.67088400
_cell_angle_alpha   90.00000000
_cell_angle_beta   90.00000000
_cell_angle_gamma   90.00000000
_symmetry_Int_Tables_number   1
_chemical_formula_structural   SrBi2Br2O3
_chemical_formula_sum   'Sr2 Bi4 Br4 O6'
_cell_volume   359.86581448
_cell_formula_units_Z   2
loop_
 _symmetry_equiv_pos_site_id
 _symmetry_equiv_pos_as_xyz
  1  'x, y, z'
loop_
 _atom_site_type_symbol
 _atom_site_label
 _atom_site_symmetry_multiplicity
 _atom_site_fract_x
 _atom_site_fract_y
 _atom_site_fract_z
 _atom_site_occupancy
  Sr  Sr0  1  0.00000000  0.50000000  0.05441500  1
  Sr  Sr1  1  0.50000000  0.00000000  0.94558500  1
  Bi  Bi0  1  0.00000000  0.50000000  0.25400700  1
  Bi  Bi1  1  0.50000000  0.00000000  0.74599300  1
  Bi  Bi2  1  0.00000000  0.50000000  0.63557200  1
  Bi  Bi3  1  0.50000000  0.00000000  0.36442800  1
  Br  Br0  1  0.00000000  0.50000000  0.82920500  1
  Br  Br1  1  0.50000000  0.00000000  0.17079500  1
  Br  Br2  1  0.00000000  0.50000000  0.43479100  1
  Br  Br3  1  0.50000000  0.00000000  0.56520900  1
  O  O0  1  0.50000000  0.50000000  0.30691500  1
  O  O1  1  0.00000000  0.00000000  0.69308500  1
  O  O2  1  0.50000000  0.50000000  0.69308500  1
  O  O3  1  0.00000000  0.00000000  0.30691500  1
  O  O4  1  0.50000000  0.50000000  0.00000000  1
  O  O5  1  0.00000000  0.00000000  0.00000000  1
loop_
_geom_bond_atom_site_label_1
_geom_bond_atom_site_label_2
_geom_bond_distance
_geom_bond_site_symmetry_2
Bi0 O3 2.337969 1_565
Bi0 O0 2.337969 1_455
Bi0 O3 2.337969 1_555
Bi0 O0 2.337969 1_555
Bi0 Br1 3.399234 1_465
Bi0 Br1 3.399234 1_565
Bi0 Br1 3.399234 1_555
Bi0 Br1 3.399234 1_455
Bi1 O2 2.337969 1_545
Bi1 O1 2.337969 1_555
Bi1 O1 2.337969 1_655
Bi1 O2 2.337969 1_555
Bi1 Br0 3.399234 1_655
Bi1 Br0 3.399234 1_645
Bi1 Br0 3.399234 1_545
Bi1 Br0 3.399234 1_555
Bi2 O1 2.388493 1_555
Bi2 O1 2.388493 1_565
Bi2 O2 2.388493 1_555
Bi2 O2 2.388493 1_455
Bi2 Br3 3.260074 1_565
Bi2 Br3 3.260074 1_455
Bi2 Br3 3.260074 1_465
Bi2 Br3 3.260074 1_555
Bi3 O3 2.388493 1_555
Bi3 O0 2.388493 1_555
Bi3 O3 2.388493 1_655
Bi3 O0 2.388493 1_545
Bi3 Br2 3.260074 1_555
Bi3 Br2 3.260074 1_655
Bi3 Br2 3.260074 1_645
Bi3 Br2 3.260074 1_545
Br0 Sr1 3.829328 1_455
Br0 Sr1 3.829328 1_555
Br0 Sr1 3.829328 1_565
Br0 Sr1 3.829328 1_465
Br1 Sr0 3.829328 1_655
Br1 Sr0 3.829328 1_545
Br1 Sr0 3.829328 1_555
Br1 Sr0 3.829328 1_645
O4 Sr1 2.354156 1_554
O4 Sr1 2.354156 1_564
O4 Sr0 2.354156 1_655
O4 Sr0 2.354156 1_555
O5 Sr1 2.354156 1_454
O5 Sr0 2.354156 1_555
O5 Sr1 2.354156 1_554
O5 Sr0 2.354156 1_545
