# generated using pymatgen
data_NbCr3(CuS4)2
_symmetry_space_group_name_H-M   'P 1'
_cell_length_a   6.02563800
_cell_length_b   6.94672332
_cell_length_c   12.66057555
_cell_angle_alpha   88.88627032
_cell_angle_beta   79.20716995
_cell_angle_gamma   89.73496975
_symmetry_Int_Tables_number   1
_chemical_formula_structural   NbCr3(CuS4)2
_chemical_formula_sum   'Nb2 Cr6 Cu4 S16'
_cell_volume   520.47885062
_cell_formula_units_Z   2
loop_
 _symmetry_equiv_pos_site_id
 _symmetry_equiv_pos_as_xyz
  1  'x, y, z'
loop_
 _atom_site_type_symbol
 _atom_site_label
 _atom_site_symmetry_multiplicity
 _atom_site_fract_x
 _atom_site_fract_y
 _atom_site_fract_z
 _atom_site_occupancy
  Nb  Nb0  1  0.27954900  0.01768400  0.75332100  1
  Nb  Nb1  1  0.19370000  0.22373200  0.24702000  1
  Cr  Cr0  1  0.74413800  0.99719800  0.25314500  1
  Cr  Cr1  1  0.24970000  0.49598400  0.74338000  1
  Cr  Cr2  1  0.75111200  0.49154400  0.24932200  1
  Cr  Cr3  1  0.74463600  0.25085000  0.74851700  1
  Cr  Cr4  1  0.24178500  0.74838000  0.25188900  1
  Cr  Cr5  1  0.74520900  0.75233400  0.75007200  1
  Cu  Cu0  1  0.59716400  0.00016200  0.03544600  1
  Cu  Cu1  1  0.05166700  0.57715000  0.47229900  1
  Cu  Cu2  1  0.32425900  0.99230700  0.53813200  1
  Cu  Cu3  1  0.16048700  0.50111500  0.95978000  1
  S  S0  1  0.47192800  0.25831000  0.62816800  1
  S  S1  1  0.86757300  0.73541200  0.35649900  1
  S  S2  1  0.03981100  0.74218000  0.85547600  1
  S  S3  1  0.61023200  0.24675800  0.14622300  1
  S  S4  1  0.02944400  0.25086900  0.86278100  1
  S  S5  1  0.61726700  0.75005800  0.14935800  1
  S  S6  1  0.46375000  0.74697200  0.63767400  1
  S  S7  1  0.84737300  0.24008300  0.36989000  1
  S  S8  1  0.55508400  0.99940600  0.86814900  1
  S  S9  1  0.11176100  0.98700100  0.12982700  1
  S  S10  1  0.95164100  0.50631200  0.64490800  1
  S  S11  1  0.36532400  0.48966000  0.35206200  1
  S  S12  1  0.95908200  0.00532200  0.64525400  1
  S  S13  1  0.37215800  0.99003300  0.36057000  1
  S  S14  1  0.53405100  0.49624400  0.85282800  1
  S  S15  1  0.12011700  0.50693900  0.13801100  1
loop_
_geom_bond_atom_site_label_1
_geom_bond_atom_site_label_2
_geom_bond_distance
_geom_bond_site_symmetry_2
Nb0 S8 2.404366 1_545
Nb0 S0 2.423966 1_555
Nb0 S4 2.469449 1_555
Nb0 S6 2.528103 1_545
Nb0 S12 2.569772 1_455
Nb0 S2 2.579144 1_545
Nb1 S9 2.350819 1_545
Nb1 S7 2.361482 1_455
Nb1 S15 2.467261 1_555
Nb1 S13 2.516086 1_545
Nb1 S3 2.598039 1_555
Nb1 S11 2.622773 1_555
Cr0 S13 2.394346 1_555
Cr0 S5 2.394688 1_555
Cr0 S3 2.407047 1_565
Cr0 S1 2.414963 1_555
Cr0 S7 2.422693 1_565
Cr0 S9 2.461125 1_655
Cr1 S10 2.370432 1_455
Cr1 S14 2.396900 1_555
Cr1 S6 2.403784 1_555
Cr1 S2 2.437363 1_555
Cr1 S0 2.447119 1_555
Cr1 S4 2.472935 1_555
Cr2 S1 2.379201 1_555
Cr2 S5 2.399521 1_555
Cr2 S15 2.400868 1_655
Cr2 S3 2.414663 1_555
Cr2 S7 2.436494 1_555
Cr2 S11 2.441955 1_555
Cr3 S14 2.387480 1_555
Cr3 S12 2.391998 1_555
Cr3 S10 2.396462 1_555
Cr3 S8 2.432554 1_545
Cr3 S0 2.440983 1_555
Cr3 S4 2.442902 1_655
Cr4 S11 2.375985 1_555
Cr4 S5 2.388284 1_555
Cr4 S1 2.392785 1_455
Cr4 S13 2.415627 1_555
Cr4 S15 2.435256 1_555
Cr4 S9 2.468122 1_555
Cr5 S10 2.385235 1_555
Cr5 S14 2.405662 1_555
Cr5 S12 2.408372 1_565
Cr5 S6 2.410229 1_555
Cr5 S2 2.412341 1_655
Cr5 S8 2.435821 1_555
Cu0 S8 2.179942 1_544
Cu0 S3 2.245818 1_555
Cu0 S5 2.253716 1_545
Cu0 S9 2.946237 1_545
Cu1 S10 2.201985 1_455
Cu1 S1 2.263575 1_455
Cu1 S11 2.281788 1_555
Cu2 S13 2.212592 1_555
Cu2 S6 2.345048 1_555
Cu2 S12 2.361071 1_465
Cu2 S0 2.445944 1_565
Cu3 S15 2.224976 1_556
Cu3 S2 2.310696 1_555
Cu3 S4 2.369070 1_555
Cu3 S14 2.400219 1_555
