# generated using pymatgen
data_MgTi2Zn2(PO5)2
_symmetry_space_group_name_H-M   'P 1'
_cell_length_a   6.07192424
_cell_length_b   7.40384341
_cell_length_c   8.52946956
_cell_angle_alpha   89.62215223
_cell_angle_beta   42.45964200
_cell_angle_gamma   107.16132166
_symmetry_Int_Tables_number   1
_chemical_formula_structural   MgTi2Zn2(PO5)2
_chemical_formula_sum   'Mg1 Ti2 Zn2 P2 O10'
_cell_volume   231.89639239
_cell_formula_units_Z   1
loop_
 _symmetry_equiv_pos_site_id
 _symmetry_equiv_pos_as_xyz
  1  'x, y, z'
loop_
 _atom_site_type_symbol
 _atom_site_label
 _atom_site_symmetry_multiplicity
 _atom_site_fract_x
 _atom_site_fract_y
 _atom_site_fract_z
 _atom_site_occupancy
  Mg  Mg0  1  0.13648700  0.89699100  0.23598200  1
  Ti  Ti0  1  0.33020500  0.47719500  0.55926600  1
  Ti  Ti1  1  0.52023500  0.01089000  0.48226400  1
  Zn  Zn0  1  0.01659600  0.07741000  0.55143600  1
  Zn  Zn1  1  0.62450500  0.72828300  0.73119600  1
  P  P0  1  0.50089000  0.28267800  0.83195700  1
  P  P1  1  0.61399800  0.76161400  0.09800500  1
  O  O0  1  0.63744800  0.16428400  0.64851000  1
  O  O1  1  0.41679500  0.43665300  0.78006500  1
  O  O2  1  0.53219800  0.92546400  0.22426900  1
  O  O3  1  0.47981100  0.56370900  0.26232100  1
  O  O4  1  0.36684900  0.71694200  0.07501900  1
  O  O5  1  0.01499800  0.83651400  0.84145100  1
  O  O6  1  0.81004200  0.39205400  0.79155200  1
  O  O7  1  0.15830100  0.13548600  0.10586200  1
  O  O8  1  0.60026900  0.74880600  0.48084800  1
  O  O9  1  0.39706300  0.24385700  0.49531000  1
loop_
_geom_bond_atom_site_label_1
_geom_bond_atom_site_label_2
_geom_bond_distance
_geom_bond_site_symmetry_2
Mg0 O4 1.977223 1_555
Mg0 O7 1.996629 1_565
Mg0 O8 1.998673 1_455
Mg0 O2 2.274674 1_555
O0 P0 1.561051 1_555
O0 Zn0 2.113647 1_655
O0 Ti1 2.200085 1_555
O1 P0 1.557750 1_555
O1 Zn1 2.007955 1_555
O1 Ti0 2.336672 1_555
O2 P1 1.568996 1_555
O2 Ti1 2.248864 1_565
O3 P1 1.535769 1_555
O3 Ti0 1.972534 1_555
O4 P1 1.594339 1_555
O4 Zn1 2.050493 1_554
O5 P1 1.532990 1_456
O5 Ti1 2.051075 1_565
O6 P0 1.562993 1_555
O6 Ti0 1.968165 1_655
O7 P0 1.559105 1_554
O7 Ti1 2.380611 1_455
O8 Ti0 1.896904 1_555
O8 Ti1 2.133000 1_565
O8 Zn1 2.253214 1_555
O9 Ti0 1.883222 1_555
O9 Zn0 1.940383 1_555
O9 Ti1 2.046420 1_555
