# generated using pymatgen
data_GdGa2
_symmetry_space_group_name_H-M   'P 1'
_cell_length_a   4.19795495
_cell_length_b   4.19795555
_cell_length_c   4.18046788
_cell_angle_alpha   90.00000000
_cell_angle_beta   90.00000000
_cell_angle_gamma   120.00002728
_symmetry_Int_Tables_number   1
_chemical_formula_structural   GdGa2
_chemical_formula_sum   'Gd1 Ga2'
_cell_volume   63.80151820
_cell_formula_units_Z   1
loop_
 _symmetry_equiv_pos_site_id
 _symmetry_equiv_pos_as_xyz
  1  'x, y, z'
loop_
 _atom_site_type_symbol
 _atom_site_label
 _atom_site_symmetry_multiplicity
 _atom_site_fract_x
 _atom_site_fract_y
 _atom_site_fract_z
 _atom_site_occupancy
  Gd  Gd0  1  0.00000000  0.00000000  0.00000000  1
  Ga  Ga0  1  0.66666700  0.33333300  0.50000000  1
  Ga  Ga1  1  0.33333300  0.66666700  0.50000000  1
loop_
_geom_bond_atom_site_label_1
_geom_bond_atom_site_label_2
_geom_bond_distance
_geom_bond_site_symmetry_2
Ga0 Ga1 2.423687 1_655
Ga0 Ga1 2.423688 1_545
Ga0 Ga1 2.423696 1_555
Ga0 Gd0 3.200522 1_655
Ga0 Gd0 3.200522 1_656
Ga0 Gd0 3.200524 1_555
Ga0 Gd0 3.200524 1_556
Ga0 Gd0 3.200525 1_665
Ga0 Gd0 3.200525 1_666
Ga1 Gd0 3.200522 1_566
Ga1 Gd0 3.200522 1_565
Ga1 Gd0 3.200524 1_665
Ga1 Gd0 3.200524 1_666
Ga1 Gd0 3.200525 1_555
Ga1 Gd0 3.200525 1_556
