# generated using pymatgen
data_La2Sn5
_symmetry_space_group_name_H-M   'P 1'
_cell_length_a   45.34560347
_cell_length_b   45.34560347
_cell_length_c   6.54209800
_cell_angle_alpha   90.00000000
_cell_angle_beta   90.00000000
_cell_angle_gamma   14.76411550
_symmetry_Int_Tables_number   1
_chemical_formula_structural   La2Sn5
_chemical_formula_sum   'La32 Sn80'
_cell_volume   3428.11456452
_cell_formula_units_Z   16
loop_
 _symmetry_equiv_pos_site_id
 _symmetry_equiv_pos_as_xyz
  1  'x, y, z'
loop_
 _atom_site_type_symbol
 _atom_site_label
 _atom_site_symmetry_multiplicity
 _atom_site_fract_x
 _atom_site_fract_y
 _atom_site_fract_z
 _atom_site_occupancy
  La  La0_0  1  0.35305650  0.35305650  0.00000000  1
  La  La0_1  1  0.35305650  0.35305650  0.50000000  1
  La  La0_2  1  0.35305650  0.85305650  0.00000000  1
  La  La0_3  1  0.35305650  0.85305650  0.50000000  1
  La  La0_4  1  0.85305650  0.35305650  0.00000000  1
  La  La0_5  1  0.85305650  0.35305650  0.50000000  1
  La  La0_6  1  0.85305650  0.85305650  0.00000000  1
  La  La0_7  1  0.85305650  0.85305650  0.50000000  1
  La  La1_0  1  0.14694350  0.14694350  0.00000000  1
  La  La1_1  1  0.14694350  0.14694350  0.50000000  1
  La  La1_2  1  0.14694350  0.64694350  0.00000000  1
  La  La1_3  1  0.14694350  0.64694350  0.50000000  1
  La  La1_4  1  0.64694350  0.14694350  0.00000000  1
  La  La1_5  1  0.64694350  0.14694350  0.50000000  1
  La  La1_6  1  0.64694350  0.64694350  0.00000000  1
  La  La1_7  1  0.64694350  0.64694350  0.50000000  1
  La  La2_0  1  0.28480950  0.28480950  0.25000000  1
  La  La2_1  1  0.28480950  0.28480950  0.75000000  1
  La  La2_2  1  0.28480950  0.78480950  0.25000000  1
  La  La2_3  1  0.28480950  0.78480950  0.75000000  1
  La  La2_4  1  0.78480950  0.28480950  0.25000000  1
  La  La2_5  1  0.78480950  0.28480950  0.75000000  1
  La  La2_6  1  0.78480950  0.78480950  0.25000000  1
  La  La2_7  1  0.78480950  0.78480950  0.75000000  1
  La  La3_0  1  0.21519050  0.21519050  0.25000000  1
  La  La3_1  1  0.21519050  0.21519050  0.75000000  1
  La  La3_2  1  0.21519050  0.71519050  0.25000000  1
  La  La3_3  1  0.21519050  0.71519050  0.75000000  1
  La  La3_4  1  0.71519050  0.21519050  0.25000000  1
  La  La3_5  1  0.71519050  0.21519050  0.75000000  1
  La  La3_6  1  0.71519050  0.71519050  0.25000000  1
  La  La3_7  1  0.71519050  0.71519050  0.75000000  1
  Sn  Sn0_0  1  0.38743000  0.38743000  0.25000000  1
  Sn  Sn0_1  1  0.38743000  0.38743000  0.75000000  1
  Sn  Sn0_2  1  0.38743000  0.88743000  0.25000000  1
  Sn  Sn0_3  1  0.38743000  0.88743000  0.75000000  1
  Sn  Sn0_4  1  0.88743000  0.38743000  0.25000000  1
  Sn  Sn0_5  1  0.88743000  0.38743000  0.75000000  1
  Sn  Sn0_6  1  0.88743000  0.88743000  0.25000000  1
  Sn  Sn0_7  1  0.88743000  0.88743000  0.75000000  1
  Sn  Sn1_0  1  0.11257000  0.11257000  0.25000000  1
  Sn  Sn1_1  1  0.11257000  0.11257000  0.75000000  1
  Sn  Sn1_2  1  0.11257000  0.61257000  0.25000000  1
  Sn  Sn1_3  1  0.11257000  0.61257000  0.75000000  1
  Sn  Sn1_4  1  0.61257000  0.11257000  0.25000000  1
  Sn  Sn1_5  1  0.61257000  0.11257000  0.75000000  1
  Sn  Sn1_6  1  0.61257000  0.61257000  0.25000000  1
  Sn  Sn1_7  1  0.61257000  0.61257000  0.75000000  1
  Sn  Sn2_0  1  0.41938200  0.41938200  0.00000000  1
  Sn  Sn2_1  1  0.41938200  0.41938200  0.50000000  1
  Sn  Sn2_2  1  0.41938200  0.91938200  0.00000000  1
  Sn  Sn2_3  1  0.41938200  0.91938200  0.50000000  1
  Sn  Sn2_4  1  0.91938200  0.41938200  0.00000000  1
  Sn  Sn2_5  1  0.91938200  0.41938200  0.50000000  1
  Sn  Sn2_6  1  0.91938200  0.91938200  0.00000000  1
  Sn  Sn2_7  1  0.91938200  0.91938200  0.50000000  1
  Sn  Sn3_0  1  0.08061800  0.08061800  0.00000000  1
  Sn  Sn3_1  1  0.08061800  0.08061800  0.50000000  1
  Sn  Sn3_2  1  0.08061800  0.58061800  0.00000000  1
  Sn  Sn3_3  1  0.08061800  0.58061800  0.50000000  1
  Sn  Sn3_4  1  0.58061800  0.08061800  0.00000000  1
  Sn  Sn3_5  1  0.58061800  0.08061800  0.50000000  1
  Sn  Sn3_6  1  0.58061800  0.58061800  0.00000000  1
  Sn  Sn3_7  1  0.58061800  0.58061800  0.50000000  1
  Sn  Sn4_0  1  0.32025700  0.32025700  0.25000000  1
  Sn  Sn4_1  1  0.32025700  0.32025700  0.75000000  1
  Sn  Sn4_2  1  0.32025700  0.82025700  0.25000000  1
  Sn  Sn4_3  1  0.32025700  0.82025700  0.75000000  1
  Sn  Sn4_4  1  0.82025700  0.32025700  0.25000000  1
  Sn  Sn4_5  1  0.82025700  0.32025700  0.75000000  1
  Sn  Sn4_6  1  0.82025700  0.82025700  0.25000000  1
  Sn  Sn4_7  1  0.82025700  0.82025700  0.75000000  1
  Sn  Sn5_0  1  0.17974300  0.17974300  0.25000000  1
  Sn  Sn5_1  1  0.17974300  0.17974300  0.75000000  1
  Sn  Sn5_2  1  0.17974300  0.67974300  0.25000000  1
  Sn  Sn5_3  1  0.17974300  0.67974300  0.75000000  1
  Sn  Sn5_4  1  0.67974300  0.17974300  0.25000000  1
  Sn  Sn5_5  1  0.67974300  0.17974300  0.75000000  1
  Sn  Sn5_6  1  0.67974300  0.67974300  0.25000000  1
  Sn  Sn5_7  1  0.67974300  0.67974300  0.75000000  1
  Sn  Sn6_0  1  0.44839650  0.44839650  0.25000000  1
  Sn  Sn6_1  1  0.44839650  0.44839650  0.75000000  1
  Sn  Sn6_2  1  0.44839650  0.94839650  0.25000000  1
  Sn  Sn6_3  1  0.44839650  0.94839650  0.75000000  1
  Sn  Sn6_4  1  0.94839650  0.44839650  0.25000000  1
  Sn  Sn6_5  1  0.94839650  0.44839650  0.75000000  1
  Sn  Sn6_6  1  0.94839650  0.94839650  0.25000000  1
  Sn  Sn6_7  1  0.94839650  0.94839650  0.75000000  1
  Sn  Sn7_0  1  0.05160350  0.05160350  0.25000000  1
  Sn  Sn7_1  1  0.05160350  0.05160350  0.75000000  1
  Sn  Sn7_2  1  0.05160350  0.55160350  0.25000000  1
  Sn  Sn7_3  1  0.05160350  0.55160350  0.75000000  1
  Sn  Sn7_4  1  0.55160350  0.05160350  0.25000000  1
  Sn  Sn7_5  1  0.55160350  0.05160350  0.75000000  1
  Sn  Sn7_6  1  0.55160350  0.55160350  0.25000000  1
  Sn  Sn7_7  1  0.55160350  0.55160350  0.75000000  1
  Sn  Sn8_0  1  0.00000000  0.00000000  0.00000000  1
  Sn  Sn8_1  1  0.00000000  0.00000000  0.50000000  1
  Sn  Sn8_2  1  0.00000000  0.50000000  0.00000000  1
  Sn  Sn8_3  1  0.00000000  0.50000000  0.50000000  1
  Sn  Sn8_4  1  0.50000000  0.00000000  0.00000000  1
  Sn  Sn8_5  1  0.50000000  0.00000000  0.50000000  1
  Sn  Sn8_6  1  0.50000000  0.50000000  0.00000000  1
  Sn  Sn8_7  1  0.50000000  0.50000000  0.50000000  1
  Sn  Sn9_0  1  0.25000000  0.25000000  0.25000000  1
  Sn  Sn9_1  1  0.25000000  0.25000000  0.75000000  1
  Sn  Sn9_2  1  0.25000000  0.75000000  0.25000000  1
  Sn  Sn9_3  1  0.25000000  0.75000000  0.75000000  1
  Sn  Sn9_4  1  0.75000000  0.25000000  0.25000000  1
  Sn  Sn9_5  1  0.75000000  0.25000000  0.75000000  1
  Sn  Sn9_6  1  0.75000000  0.75000000  0.25000000  1
  Sn  Sn9_7  1  0.75000000  0.75000000  0.75000000  1
loop_
_geom_bond_atom_site_label_1
_geom_bond_atom_site_label_2
_geom_bond_distance
_geom_bond_site_symmetry_2
La0_0 La0_1 3.271049 1_554
La0_0 La0_1 3.271049 1_555
La0_0 Sn4_0 3.373021 1_555
La0_0 Sn4_1 3.373021 1_554
La0_0 Sn1_2 3.448667 1_555
La0_0 Sn1_3 3.448667 1_554
La0_0 Sn1_4 3.448667 1_555
La0_0 Sn1_5 3.448667 1_554
La0_0 Sn0_1 3.497504 1_554
La0_0 Sn0_0 3.497504 1_555
La0_0 Sn3_4 3.543868 1_555
La0_0 Sn3_2 3.543868 1_555
La0_1 Sn4_0 3.373021 1_555
La0_1 Sn4_1 3.373021 1_555
La0_1 Sn1_2 3.448667 1_555
La0_1 Sn1_3 3.448667 1_555
La0_1 Sn1_5 3.448667 1_555
La0_1 Sn1_4 3.448667 1_555
La0_1 Sn0_1 3.497504 1_555
La0_1 Sn0_0 3.497504 1_555
La0_1 Sn3_5 3.543868 1_555
La0_1 Sn3_3 3.543868 1_555
La0_2 La0_3 3.271049 1_554
La0_2 La0_3 3.271049 1_555
La0_2 Sn4_3 3.373021 1_554
La0_2 Sn4_2 3.373021 1_555
La0_2 Sn1_7 3.448667 1_554
La0_2 Sn1_6 3.448667 1_555
La0_2 Sn1_1 3.448667 1_564
La0_2 Sn1_0 3.448667 1_565
La0_2 Sn0_3 3.497504 1_554
La0_2 Sn0_2 3.497504 1_555
La0_2 Sn3_6 3.543868 1_555
La0_2 Sn3_0 3.543868 1_565
La0_3 Sn4_2 3.373021 1_555
La0_3 Sn4_3 3.373021 1_555
La0_3 Sn1_6 3.448667 1_555
La0_3 Sn1_7 3.448667 1_555
La0_3 Sn1_0 3.448667 1_565
La0_3 Sn1_1 3.448667 1_565
La0_3 Sn0_3 3.497504 1_555
La0_3 Sn0_2 3.497504 1_555
La0_3 Sn3_7 3.543868 1_555
La0_3 Sn3_1 3.543868 1_565
La0_4 La0_5 3.271049 1_554
La0_4 La0_5 3.271049 1_555
La0_4 Sn4_4 3.373021 1_555
La0_4 Sn4_5 3.373021 1_554
La0_4 Sn1_7 3.448667 1_554
La0_4 Sn1_6 3.448667 1_555
La0_4 Sn1_1 3.448667 1_654
La0_4 Sn1_0 3.448667 1_655
La0_4 Sn0_4 3.497504 1_555
La0_4 Sn0_5 3.497504 1_554
La0_4 Sn3_6 3.543868 1_555
La0_4 Sn3_0 3.543868 1_655
La0_5 Sn4_4 3.373021 1_555
La0_5 Sn4_5 3.373021 1_555
La0_5 Sn1_6 3.448667 1_555
La0_5 Sn1_7 3.448667 1_555
La0_5 Sn1_1 3.448667 1_655
La0_5 Sn1_0 3.448667 1_655
La0_5 Sn0_4 3.497504 1_555
La0_5 Sn0_5 3.497504 1_555
La0_5 Sn3_7 3.543868 1_555
La0_5 Sn3_1 3.543868 1_655
La0_6 La0_7 3.271049 1_555
La0_6 La0_7 3.271049 1_554
La0_6 Sn4_7 3.373021 1_554
La0_6 Sn4_6 3.373021 1_555
La0_6 Sn1_5 3.448667 1_564
La0_6 Sn1_2 3.448667 1_655
La0_6 Sn1_4 3.448667 1_565
La0_6 Sn1_3 3.448667 1_654
La0_6 Sn0_7 3.497504 1_554
La0_6 Sn0_6 3.497504 1_555
La0_6 Sn3_2 3.543868 1_655
La0_6 Sn3_4 3.543868 1_565
La0_7 Sn4_7 3.373021 1_555
La0_7 Sn4_6 3.373021 1_555
La0_7 Sn1_5 3.448667 1_565
La0_7 Sn1_2 3.448667 1_655
La0_7 Sn1_4 3.448667 1_565
La0_7 Sn1_3 3.448667 1_655
La0_7 Sn0_7 3.497504 1_555
La0_7 Sn0_6 3.497504 1_555
La0_7 Sn3_3 3.543868 1_655
La0_7 Sn3_5 3.543868 1_565
La1_0 La1_1 3.271049 1_555
La1_0 La1_1 3.271049 1_554
La1_0 Sn5_1 3.373021 1_554
La1_0 Sn5_0 3.373021 1_555
La1_0 Sn0_2 3.448667 1_545
La1_0 Sn0_3 3.448667 1_544
La1_0 Sn0_5 3.448667 1_454
La1_0 Sn0_4 3.448667 1_455
La1_0 Sn1_0 3.497504 1_555
La1_0 Sn1_1 3.497504 1_554
La1_0 Sn2_2 3.543868 1_545
La1_0 Sn2_4 3.543868 1_455
La1_1 Sn5_1 3.373021 1_555
La1_1 Sn5_0 3.373021 1_555
La1_1 Sn0_5 3.448667 1_455
La1_1 Sn0_2 3.448667 1_545
La1_1 Sn0_3 3.448667 1_545
La1_1 Sn0_4 3.448667 1_455
La1_1 Sn1_0 3.497504 1_555
La1_1 Sn1_1 3.497504 1_555
La1_1 Sn2_3 3.543868 1_545
La1_1 Sn2_5 3.543868 1_455
La1_2 La1_3 3.271049 1_555
La1_2 La1_3 3.271049 1_554
La1_2 Sn5_2 3.373021 1_555
La1_2 Sn5_3 3.373021 1_554
La1_2 Sn0_0 3.448667 1_555
La1_2 Sn0_1 3.448667 1_554
La1_2 Sn0_6 3.448667 1_455
La1_2 Sn0_7 3.448667 1_454
La1_2 Sn1_3 3.497504 1_554
La1_2 Sn1_2 3.497504 1_555
La1_2 Sn2_0 3.543868 1_555
La1_2 Sn2_6 3.543868 1_455
La1_3 Sn5_3 3.373021 1_555
La1_3 Sn5_2 3.373021 1_555
La1_3 Sn0_0 3.448667 1_555
La1_3 Sn0_1 3.448667 1_555
La1_3 Sn0_6 3.448667 1_455
La1_3 Sn0_7 3.448667 1_455
La1_3 Sn1_3 3.497504 1_555
La1_3 Sn1_2 3.497504 1_555
La1_3 Sn2_7 3.543868 1_455
La1_3 Sn2_1 3.543868 1_555
La1_4 La1_5 3.271049 1_555
La1_4 La1_5 3.271049 1_554
La1_4 Sn5_5 3.373021 1_554
La1_4 Sn5_4 3.373021 1_555
La1_4 Sn0_0 3.448667 1_555
La1_4 Sn0_1 3.448667 1_554
La1_4 Sn0_6 3.448667 1_545
La1_4 Sn0_7 3.448667 1_544
La1_4 Sn1_5 3.497504 1_554
La1_4 Sn1_4 3.497504 1_555
La1_4 Sn2_0 3.543868 1_555
La1_4 Sn2_6 3.543868 1_545
La1_5 Sn5_4 3.373021 1_555
La1_5 Sn5_5 3.373021 1_555
La1_5 Sn0_0 3.448667 1_555
La1_5 Sn0_1 3.448667 1_555
La1_5 Sn0_7 3.448667 1_545
La1_5 Sn0_6 3.448667 1_545
La1_5 Sn1_4 3.497504 1_555
La1_5 Sn1_5 3.497504 1_555
La1_5 Sn2_1 3.543868 1_555
La1_5 Sn2_7 3.543868 1_545
La1_6 La1_7 3.271049 1_554
La1_6 La1_7 3.271049 1_555
La1_6 Sn5_6 3.373021 1_555
La1_6 Sn5_7 3.373021 1_554
La1_6 Sn0_3 3.448667 1_554
La1_6 Sn0_2 3.448667 1_555
La1_6 Sn0_4 3.448667 1_555
La1_6 Sn0_5 3.448667 1_554
La1_6 Sn1_7 3.497504 1_554
La1_6 Sn1_6 3.497504 1_555
La1_6 Sn2_2 3.543868 1_555
La1_6 Sn2_4 3.543868 1_555
La1_7 Sn5_6 3.373021 1_555
La1_7 Sn5_7 3.373021 1_555
La1_7 Sn0_2 3.448667 1_555
La1_7 Sn0_4 3.448667 1_555
La1_7 Sn0_5 3.448667 1_555
La1_7 Sn0_3 3.448667 1_555
La1_7 Sn1_7 3.497504 1_555
La1_7 Sn1_6 3.497504 1_555
La1_7 Sn2_3 3.543868 1_555
La1_7 Sn2_5 3.543868 1_555
La2_0 Sn9_0 3.130749 1_555
La2_0 Sn4_0 3.188131 1_555
La2_0 Sn7_2 3.281415 1_555
La2_0 Sn7_4 3.281415 1_555
La2_1 Sn9_1 3.130749 1_555
La2_1 Sn4_1 3.188131 1_555
La2_1 Sn7_3 3.281415 1_555
La2_1 Sn7_5 3.281415 1_555
La2_2 Sn9_2 3.130749 1_555
La2_2 Sn4_2 3.188131 1_555
La2_2 Sn7_0 3.281415 1_565
La2_2 Sn7_6 3.281415 1_555
La2_3 Sn9_3 3.130749 1_555
La2_3 Sn4_3 3.188131 1_555
La2_3 Sn7_1 3.281415 1_565
La2_3 Sn7_7 3.281415 1_555
La2_4 Sn9_4 3.130749 1_555
La2_4 Sn4_4 3.188131 1_555
La2_4 Sn7_0 3.281415 1_655
La2_4 Sn7_6 3.281415 1_555
La2_5 Sn9_5 3.130749 1_555
La2_5 Sn4_5 3.188131 1_555
La2_5 Sn7_1 3.281415 1_655
La2_5 Sn7_7 3.281415 1_555
La2_6 Sn9_6 3.130749 1_555
La2_6 Sn4_6 3.188131 1_555
La2_6 Sn7_4 3.281415 1_565
La2_6 Sn7_2 3.281415 1_655
La2_7 Sn9_7 3.130749 1_555
La2_7 Sn4_7 3.188131 1_555
La2_7 Sn7_3 3.281415 1_655
La2_7 Sn7_5 3.281415 1_565
La3_0 Sn9_0 3.130749 1_555
La3_0 Sn5_0 3.188131 1_555
La3_0 Sn6_4 3.281415 1_455
La3_0 Sn6_2 3.281415 1_545
La3_1 Sn9_1 3.130749 1_555
La3_1 Sn5_1 3.188131 1_555
La3_1 Sn6_5 3.281415 1_455
La3_1 Sn6_3 3.281415 1_545
La3_2 Sn9_2 3.130749 1_555
La3_2 Sn5_2 3.188131 1_555
La3_2 Sn6_0 3.281415 1_555
La3_2 Sn6_6 3.281415 1_455
La3_3 Sn9_3 3.130749 1_555
La3_3 Sn5_3 3.188131 1_555
La3_3 Sn6_1 3.281415 1_555
La3_3 Sn6_7 3.281415 1_455
La3_4 Sn9_4 3.130749 1_555
La3_4 Sn5_4 3.188131 1_555
La3_4 Sn6_0 3.281415 1_555
La3_4 Sn6_6 3.281415 1_545
La3_5 Sn9_5 3.130749 1_555
La3_5 Sn5_5 3.188131 1_555
La3_5 Sn6_1 3.281415 1_555
La3_5 Sn6_7 3.281415 1_545
La3_6 Sn9_6 3.130749 1_555
La3_6 Sn5_6 3.188131 1_555
La3_6 Sn6_4 3.281415 1_555
La3_6 Sn6_2 3.281415 1_555
La3_7 Sn9_7 3.130749 1_555
La3_7 Sn5_7 3.188131 1_555
La3_7 Sn6_5 3.281415 1_555
La3_7 Sn6_3 3.281415 1_555
Sn0_0 Sn0_1 3.271049 1_555
Sn0_0 Sn0_1 3.271049 1_554
Sn0_0 Sn2_1 3.306564 1_555
Sn0_0 Sn2_0 3.306564 1_555
Sn0_1 Sn2_1 3.306564 1_555
Sn0_1 Sn2_0 3.306564 1_556
Sn0_2 Sn0_3 3.271049 1_555
Sn0_2 Sn0_3 3.271049 1_554
Sn0_2 Sn2_2 3.306564 1_555
Sn0_2 Sn2_3 3.306564 1_555
Sn0_3 Sn2_2 3.306564 1_556
Sn0_3 Sn2_3 3.306564 1_555
Sn0_4 Sn0_5 3.271049 1_554
Sn0_4 Sn0_5 3.271049 1_555
Sn0_4 Sn2_5 3.306564 1_555
Sn0_4 Sn2_4 3.306564 1_555
Sn0_5 Sn2_5 3.306564 1_555
Sn0_5 Sn2_4 3.306564 1_556
Sn0_6 Sn0_7 3.271049 1_555
Sn0_6 Sn0_7 3.271049 1_554
Sn0_6 Sn2_7 3.306564 1_555
Sn0_6 Sn2_6 3.306564 1_555
Sn0_7 Sn2_7 3.306564 1_555
Sn0_7 Sn2_6 3.306564 1_556
Sn1_0 Sn1_1 3.271049 1_554
Sn1_0 Sn1_1 3.271049 1_555
Sn1_0 Sn3_0 3.306564 1_555
Sn1_0 Sn3_1 3.306564 1_555
Sn1_1 Sn3_0 3.306564 1_556
Sn1_1 Sn3_1 3.306564 1_555
Sn1_2 Sn1_3 3.271049 1_554
Sn1_2 Sn1_3 3.271049 1_555
Sn1_2 Sn3_3 3.306564 1_555
Sn1_2 Sn3_2 3.306564 1_555
Sn1_3 Sn3_3 3.306564 1_555
Sn1_3 Sn3_2 3.306564 1_556
Sn1_4 Sn1_5 3.271049 1_555
Sn1_4 Sn1_5 3.271049 1_554
Sn1_4 Sn3_5 3.306564 1_555
Sn1_4 Sn3_4 3.306564 1_555
Sn1_5 Sn3_4 3.306564 1_556
Sn1_5 Sn3_5 3.306564 1_555
Sn1_6 Sn1_7 3.271049 1_554
Sn1_6 Sn1_7 3.271049 1_555
Sn1_6 Sn3_7 3.306564 1_555
Sn1_6 Sn3_6 3.306564 1_555
Sn1_7 Sn3_7 3.306564 1_555
Sn1_7 Sn3_6 3.306564 1_556
Sn2_0 Sn6_1 3.079723 1_554
Sn2_0 Sn6_0 3.079723 1_555
Sn2_0 Sn2_1 3.271049 1_554
Sn2_0 Sn2_1 3.271049 1_555
Sn2_0 Sn5_5 3.468365 1_554
Sn2_0 Sn5_4 3.468365 1_555
Sn2_0 Sn5_3 3.468365 1_554
Sn2_0 Sn5_2 3.468365 1_555
Sn2_1 Sn6_1 3.079723 1_555
Sn2_1 Sn6_0 3.079723 1_555
Sn2_1 Sn5_4 3.468365 1_555
Sn2_1 Sn5_5 3.468365 1_555
Sn2_1 Sn5_3 3.468365 1_555
Sn2_1 Sn5_2 3.468365 1_555
Sn2_2 Sn6_3 3.079723 1_554
Sn2_2 Sn6_2 3.079723 1_555
Sn2_2 Sn2_3 3.271049 1_555
Sn2_2 Sn2_3 3.271049 1_554
Sn2_2 Sn5_1 3.468365 1_564
Sn2_2 Sn5_0 3.468365 1_565
Sn2_2 Sn5_7 3.468365 1_554
Sn2_2 Sn5_6 3.468365 1_555
Sn2_3 Sn6_2 3.079723 1_555
Sn2_3 Sn6_3 3.079723 1_555
Sn2_3 Sn5_0 3.468365 1_565
Sn2_3 Sn5_1 3.468365 1_565
Sn2_3 Sn5_7 3.468365 1_555
Sn2_3 Sn5_6 3.468365 1_555
Sn2_4 Sn6_4 3.079723 1_555
Sn2_4 Sn6_5 3.079723 1_554
Sn2_4 Sn2_5 3.271049 1_554
Sn2_4 Sn2_5 3.271049 1_555
Sn2_4 Sn5_1 3.468365 1_654
Sn2_4 Sn5_0 3.468365 1_655
Sn2_4 Sn5_7 3.468365 1_554
Sn2_4 Sn5_6 3.468365 1_555
Sn2_5 Sn6_4 3.079723 1_555
Sn2_5 Sn6_5 3.079723 1_555
Sn2_5 Sn5_0 3.468365 1_655
Sn2_5 Sn5_1 3.468365 1_655
Sn2_5 Sn5_7 3.468365 1_555
Sn2_5 Sn5_6 3.468365 1_555
Sn2_6 Sn6_6 3.079723 1_555
Sn2_6 Sn6_7 3.079723 1_554
Sn2_6 Sn2_7 3.271049 1_554
Sn2_6 Sn2_7 3.271049 1_555
Sn2_6 Sn5_3 3.468365 1_654
Sn2_6 Sn5_4 3.468365 1_565
Sn2_6 Sn5_5 3.468365 1_564
Sn2_6 Sn5_2 3.468365 1_655
Sn2_7 Sn6_6 3.079723 1_555
Sn2_7 Sn6_7 3.079723 1_555
Sn2_7 Sn5_4 3.468365 1_565
Sn2_7 Sn5_5 3.468365 1_565
Sn2_7 Sn5_2 3.468365 1_655
Sn2_7 Sn5_3 3.468365 1_655
Sn3_0 Sn7_1 3.079723 1_554
Sn3_0 Sn7_0 3.079723 1_555
Sn3_0 Sn3_1 3.271049 1_554
Sn3_0 Sn3_1 3.271049 1_555
Sn3_0 Sn4_5 3.468365 1_454
Sn3_0 Sn4_4 3.468365 1_455
Sn3_0 Sn4_2 3.468365 1_545
Sn3_0 Sn4_3 3.468365 1_544
Sn3_1 Sn7_1 3.079723 1_555
Sn3_1 Sn7_0 3.079723 1_555
Sn3_1 Sn4_5 3.468365 1_455
Sn3_1 Sn4_4 3.468365 1_455
Sn3_1 Sn4_2 3.468365 1_545
Sn3_1 Sn4_3 3.468365 1_545
Sn3_2 Sn7_2 3.079723 1_555
Sn3_2 Sn7_3 3.079723 1_554
Sn3_2 Sn3_3 3.271049 1_554
Sn3_2 Sn3_3 3.271049 1_555
Sn3_2 Sn4_1 3.468365 1_554
Sn3_2 Sn4_7 3.468365 1_454
Sn3_2 Sn4_0 3.468365 1_555
Sn3_2 Sn4_6 3.468365 1_455
Sn3_3 Sn7_2 3.079723 1_555
Sn3_3 Sn7_3 3.079723 1_555
Sn3_3 Sn4_0 3.468365 1_555
Sn3_3 Sn4_1 3.468365 1_555
Sn3_3 Sn4_6 3.468365 1_455
Sn3_3 Sn4_7 3.468365 1_455
Sn3_4 Sn7_4 3.079723 1_555
Sn3_4 Sn7_5 3.079723 1_554
Sn3_4 Sn3_5 3.271049 1_554
Sn3_4 Sn3_5 3.271049 1_555
Sn3_4 Sn4_6 3.468365 1_545
Sn3_4 Sn4_7 3.468365 1_544
Sn3_4 Sn4_1 3.468365 1_554
Sn3_4 Sn4_0 3.468365 1_555
Sn3_5 Sn7_4 3.079723 1_555
Sn3_5 Sn7_5 3.079723 1_555
Sn3_5 Sn4_6 3.468365 1_545
Sn3_5 Sn4_7 3.468365 1_545
Sn3_5 Sn4_1 3.468365 1_555
Sn3_5 Sn4_0 3.468365 1_555
Sn3_6 Sn7_6 3.079723 1_555
Sn3_6 Sn7_7 3.079723 1_554
Sn3_6 Sn3_7 3.271049 1_555
Sn3_6 Sn3_7 3.271049 1_554
Sn3_6 Sn4_4 3.468365 1_555
Sn3_6 Sn4_5 3.468365 1_554
Sn3_6 Sn4_3 3.468365 1_554
Sn3_6 Sn4_2 3.468365 1_555
Sn3_7 Sn7_7 3.079723 1_555
Sn3_7 Sn7_6 3.079723 1_555
Sn3_7 Sn4_4 3.468365 1_555
Sn3_7 Sn4_5 3.468365 1_555
Sn3_7 Sn4_3 3.468365 1_555
Sn3_7 Sn4_2 3.468365 1_555
Sn8_0 Sn8_1 3.271049 1_554
Sn8_0 Sn8_1 3.271049 1_555
Sn8_0 Sn9_4 3.340836 1_455
Sn8_0 Sn9_5 3.340836 1_454
Sn8_0 Sn9_2 3.340836 1_545
Sn8_0 Sn9_3 3.340836 1_544
Sn8_1 Sn9_3 3.340836 1_545
Sn8_1 Sn9_4 3.340836 1_455
Sn8_1 Sn9_2 3.340836 1_545
Sn8_1 Sn9_5 3.340836 1_455
Sn8_2 Sn8_3 3.271049 1_555
Sn8_2 Sn8_3 3.271049 1_554
Sn8_2 Sn9_7 3.340836 1_454
Sn8_2 Sn9_6 3.340836 1_455
Sn8_2 Sn9_0 3.340836 1_555
Sn8_2 Sn9_1 3.340836 1_554
Sn8_3 Sn9_6 3.340836 1_455
Sn8_3 Sn9_0 3.340836 1_555
Sn8_3 Sn9_7 3.340836 1_455
Sn8_3 Sn9_1 3.340836 1_555
Sn8_4 Sn8_5 3.271049 1_555
Sn8_4 Sn8_5 3.271049 1_554
Sn8_4 Sn9_7 3.340836 1_544
Sn8_4 Sn9_0 3.340836 1_555
Sn8_4 Sn9_1 3.340836 1_554
Sn8_4 Sn9_6 3.340836 1_545
Sn8_5 Sn9_7 3.340836 1_545
Sn8_5 Sn9_6 3.340836 1_545
Sn8_5 Sn9_0 3.340836 1_555
Sn8_5 Sn9_1 3.340836 1_555
Sn8_6 Sn8_7 3.271049 1_554
Sn8_6 Sn8_7 3.271049 1_555
Sn8_6 Sn9_2 3.340836 1_555
Sn8_6 Sn9_5 3.340836 1_554
Sn8_6 Sn9_3 3.340836 1_554
Sn8_6 Sn9_4 3.340836 1_555
Sn8_7 Sn9_2 3.340836 1_555
Sn8_7 Sn9_5 3.340836 1_555
Sn8_7 Sn9_3 3.340836 1_555
Sn8_7 Sn9_4 3.340836 1_555
