# generated using pymatgen
data_Li4Cr(TeO4)3
_symmetry_space_group_name_H-M   'P 1'
_cell_length_a   8.60829800
_cell_length_b   5.03323300
_cell_length_c   5.22282639
_cell_angle_alpha   89.38446864
_cell_angle_beta   90.00000000
_cell_angle_gamma   90.00000000
_symmetry_Int_Tables_number   1
_chemical_formula_structural   Li4Cr(TeO4)3
_chemical_formula_sum   'Li4 Cr1 Te3 O12'
_cell_volume   226.27931526
_cell_formula_units_Z   1
loop_
 _symmetry_equiv_pos_site_id
 _symmetry_equiv_pos_as_xyz
  1  'x, y, z'
loop_
 _atom_site_type_symbol
 _atom_site_label
 _atom_site_symmetry_multiplicity
 _atom_site_fract_x
 _atom_site_fract_y
 _atom_site_fract_z
 _atom_site_occupancy
  Li  Li0  1  0.28956300  0.00000000  0.00000000  1
  Li  Li1  1  0.15285100  0.50000000  0.00000000  1
  Li  Li2  1  0.70222100  0.00000000  0.50000000  1
  Li  Li3  1  0.82030800  0.50000000  0.50000000  1
  Cr  Cr0  1  0.89972800  0.00000000  0.00000000  1
  Te  Te0  1  0.39420800  0.50000000  0.50000000  1
  Te  Te1  1  0.60171200  0.50000000  0.00000000  1
  Te  Te2  1  0.07386500  0.00000000  0.50000000  1
  O  O0  1  0.74377500  0.26191800  0.84000600  1
  O  O1  1  0.42304500  0.29475600  0.83750200  1
  O  O2  1  0.07517300  0.19993400  0.81491600  1
  O  O3  1  0.57366700  0.70709600  0.67884500  1
  O  O4  1  0.91087500  0.79795400  0.67183100  1
  O  O5  1  0.23569700  0.76580400  0.66270300  1
  O  O6  1  0.23569700  0.23419600  0.33729700  1
  O  O7  1  0.91087500  0.20204600  0.32816900  1
  O  O8  1  0.57366700  0.29290400  0.32115500  1
  O  O9  1  0.07517300  0.80006600  0.18508400  1
  O  O10  1  0.42304500  0.70524400  0.16249800  1
  O  O11  1  0.74377500  0.73808200  0.15999400  1
loop_
_geom_bond_atom_site_label_1
_geom_bond_atom_site_label_2
_geom_bond_distance
_geom_bond_site_symmetry_2
Li0 O1 2.052938 1_554
Li0 O10 2.052938 1_545
Li0 O6 2.180023 1_555
Li0 O5 2.180023 1_544
Li0 O2 2.309155 1_554
Li0 O9 2.309155 1_545
Li1 O9 1.921963 1_555
Li1 O2 1.921963 1_554
Li1 O6 2.313267 1_555
Li1 O5 2.313267 1_554
Li2 O3 2.059361 1_545
Li2 O8 2.059361 1_555
Li2 O7 2.246363 1_555
Li2 O4 2.246363 1_545
Li2 O0 2.251576 1_555
Li2 O11 2.251576 1_545
Li3 O4 1.921238 1_555
Li3 O7 1.921238 1_555
Li3 O0 2.231084 1_555
Li3 O11 2.231084 1_555
Li3 O3 2.547105 1_555
Li3 O8 2.547105 1_555
Cr0 O7 2.004626 1_555
Cr0 O4 2.004626 1_544
Cr0 O2 2.051136 1_654
Cr0 O9 2.051136 1_645
Cr0 O11 2.052991 1_545
Cr0 O0 2.052991 1_554
O0 Te1 1.910834 1_556
O1 Te1 2.042499 1_556
O1 Te0 2.048617 1_555
O2 Te2 1.937412 1_555
O3 Te1 1.980075 1_556
O3 Te0 2.089607 1_555
O4 Te2 1.946424 1_665
O5 Te2 2.007683 1_565
O5 Te0 2.097206 1_555
O6 Te2 2.007683 1_555
O6 Te0 2.097206 1_555
O7 Te2 1.946424 1_655
O8 Te1 1.980075 1_555
O8 Te0 2.089607 1_555
O9 Te2 1.937412 1_565
O10 Te1 2.042499 1_555
O10 Te0 2.048617 1_555
O11 Te1 1.910834 1_555
