# generated using pymatgen
data_EuBr2O
_symmetry_space_group_name_H-M   'P 1'
_cell_length_a   4.12743000
_cell_length_b   9.23635000
_cell_length_c   10.72988900
_cell_angle_alpha   90.00000000
_cell_angle_beta   90.00000000
_cell_angle_gamma   90.00000000
_symmetry_Int_Tables_number   1
_chemical_formula_structural   EuBr2O
_chemical_formula_sum   'Eu4 Br8 O4'
_cell_volume   409.04899252
_cell_formula_units_Z   4
loop_
 _symmetry_equiv_pos_site_id
 _symmetry_equiv_pos_as_xyz
  1  'x, y, z'
loop_
 _atom_site_type_symbol
 _atom_site_label
 _atom_site_symmetry_multiplicity
 _atom_site_fract_x
 _atom_site_fract_y
 _atom_site_fract_z
 _atom_site_occupancy
  Eu  Eu0  1  0.25000000  0.60691400  0.27930800  1
  Eu  Eu1  1  0.75000000  0.39308600  0.72069200  1
  Eu  Eu2  1  0.75000000  0.10691400  0.22069200  1
  Eu  Eu3  1  0.25000000  0.89308600  0.77930800  1
  Br  Br0  1  0.25000000  0.33193900  0.11555400  1
  Br  Br1  1  0.75000000  0.66806100  0.88444600  1
  Br  Br2  1  0.75000000  0.83193900  0.38444600  1
  Br  Br3  1  0.25000000  0.16806100  0.61555400  1
  Br  Br4  1  0.25000000  0.61511200  0.59651200  1
  Br  Br5  1  0.75000000  0.38488800  0.40348800  1
  Br  Br6  1  0.75000000  0.11511200  0.90348800  1
  Br  Br7  1  0.25000000  0.88488800  0.09651200  1
  O  O0  1  0.25000000  0.10805600  0.30342300  1
  O  O1  1  0.75000000  0.89194400  0.69657700  1
  O  O2  1  0.75000000  0.60805600  0.19657700  1
  O  O3  1  0.25000000  0.39194400  0.80342300  1
loop_
_geom_bond_atom_site_label_1
_geom_bond_atom_site_label_2
_geom_bond_distance
_geom_bond_site_symmetry_2
Eu0 O2 2.246560 1_555
Eu0 O2 2.246560 1_455
Eu1 O3 2.246560 1_555
Eu1 O3 2.246560 1_655
Eu2 O0 2.246560 1_555
Eu2 O0 2.246560 1_655
Eu3 O1 2.246560 1_455
Eu3 O1 2.246560 1_555
Br0 Eu0 3.088313 1_555
Br0 Eu2 3.138687 1_455
Br0 Eu2 3.138687 1_555
Br1 Eu1 3.088313 1_555
Br1 Eu3 3.138687 1_555
Br1 Eu3 3.138687 1_655
Br2 Eu2 3.088313 1_565
Br2 Eu0 3.138687 1_655
Br2 Eu0 3.138687 1_555
Br3 Eu3 3.088313 1_545
Br3 Eu1 3.138687 1_555
Br3 Eu1 3.138687 1_455
Br4 Eu1 3.199956 1_455
Br4 Eu1 3.199956 1_555
Br4 Eu3 3.230927 1_555
Br4 Eu0 3.404406 1_555
Br5 Eu0 3.199956 1_655
Br5 Eu0 3.199956 1_555
Br5 Eu2 3.230927 1_555
Br5 Eu1 3.404406 1_555
Br6 Eu3 3.199956 1_645
Br6 Eu3 3.199956 1_545
Br6 Eu1 3.230927 1_555
Br6 Eu2 3.404406 1_556
Br7 Eu2 3.199956 1_465
Br7 Eu2 3.199956 1_565
Br7 Eu0 3.230927 1_555
Br7 Eu3 3.404406 1_554
