# generated using pymatgen
data_Li9Mn2Co5O16
_symmetry_space_group_name_H-M   'P 1'
_cell_length_a   7.71781114
_cell_length_b   7.71781114
_cell_length_c   5.19952500
_cell_angle_alpha   75.14400630
_cell_angle_beta   75.14400630
_cell_angle_gamma   95.45269390
_symmetry_Int_Tables_number   1
_chemical_formula_structural   Li9Mn2Co5O16
_chemical_formula_sum   'Li9 Mn2 Co5 O16'
_cell_volume   285.03292514
_cell_formula_units_Z   1
loop_
 _symmetry_equiv_pos_site_id
 _symmetry_equiv_pos_as_xyz
  1  'x, y, z'
loop_
 _atom_site_type_symbol
 _atom_site_label
 _atom_site_symmetry_multiplicity
 _atom_site_fract_x
 _atom_site_fract_y
 _atom_site_fract_z
 _atom_site_occupancy
  Li  Li0  1  0.38405100  0.13378200  0.99757400  1
  Li  Li1  1  0.86621800  0.61594900  0.00242600  1
  Li  Li2  1  0.50378100  0.00015800  0.49943300  1
  Li  Li3  1  0.99984200  0.49621900  0.50056700  1
  Li  Li4  1  0.61687200  0.86654600  0.99849800  1
  Li  Li5  1  0.13345400  0.38312800  0.00150200  1
  Li  Li6  1  0.73486800  0.73980000  0.52081800  1
  Li  Li7  1  0.26020000  0.26513200  0.47918200  1
  Li  Li8  1  0.49813300  0.50186700  0.00000000  1
  Mn  Mn0  1  0.99765700  0.00234300  0.00000000  1
  Mn  Mn1  1  0.12616400  0.87383600  0.50000000  1
  Co  Co0  1  0.62753000  0.37247000  0.50000000  1
  Co  Co1  1  0.25466400  0.74533600  0.00000000  1
  Co  Co2  1  0.74700200  0.25299800  0.00000000  1
  Co  Co3  1  0.38048500  0.61951500  0.50000000  1
  Co  Co4  1  0.87404100  0.12595900  0.50000000  1
  O  O0  1  0.22678800  0.97645600  0.75048800  1
  O  O1  1  0.73389500  0.47020700  0.74279200  1
  O  O2  1  0.36376900  0.87595800  0.27108300  1
  O  O3  1  0.86345400  0.36337300  0.28068000  1
  O  O4  1  0.47798600  0.74611600  0.75952200  1
  O  O5  1  0.98340000  0.23846900  0.77080500  1
  O  O6  1  0.62560500  0.61108200  0.28137700  1
  O  O7  1  0.11889100  0.11708700  0.27867500  1
  O  O8  1  0.52979300  0.26610500  0.25720800  1
  O  O9  1  0.02354400  0.77321200  0.24951200  1
  O  O10  1  0.63662700  0.13654600  0.71932000  1
  O  O11  1  0.12404200  0.63623100  0.72891700  1
  O  O12  1  0.76153100  0.01660000  0.22919500  1
  O  O13  1  0.25388400  0.52201400  0.24047800  1
  O  O14  1  0.88291300  0.88110900  0.72132500  1
  O  O15  1  0.38891800  0.37439500  0.71862300  1
loop_
_geom_bond_atom_site_label_1
_geom_bond_atom_site_label_2
_geom_bond_distance
_geom_bond_site_symmetry_2
Li0 O15 2.032547 1_555
Li0 O2 2.093315 1_546
Li0 O10 2.103246 1_555
Li0 O7 2.158791 1_556
Li0 O8 2.323325 1_556
Li0 O0 2.432568 1_545
Li1 O6 2.032547 1_555
Li1 O11 2.093315 1_654
Li1 O3 2.103246 1_555
Li1 O14 2.158791 1_554
Li1 O1 2.323325 1_554
Li1 O9 2.432568 1_655
Li2 O4 2.034881 1_545
Li2 O8 2.075058 1_555
Li2 O12 2.091630 1_555
Li2 O10 2.116472 1_555
Li2 O2 2.130924 1_545
Li2 O0 2.163290 1_545
Li3 O13 2.034881 1_655
Li3 O1 2.075058 1_555
Li3 O5 2.091630 1_555
Li3 O3 2.116472 1_555
Li3 O11 2.130924 1_655
Li3 O9 2.163290 1_655
Li4 O2 2.118941 1_556
Li4 O4 2.154682 1_555
Li4 O6 2.155054 1_556
Li4 O14 2.158974 1_555
Li4 O10 2.178917 1_565
Li4 O12 2.275915 1_566
Li5 O11 2.118941 1_554
Li5 O13 2.154682 1_555
Li5 O15 2.155054 1_554
Li5 O7 2.158974 1_555
Li5 O3 2.178917 1_455
Li5 O5 2.275915 1_454
Li6 O4 2.064220 1_555
Li6 O6 2.064293 1_555
Li6 O1 2.102974 1_555
Li6 O14 2.130450 1_555
Li6 O12 2.236219 1_565
Li6 O9 2.261169 1_655
Li7 O13 2.064220 1_555
Li7 O15 2.064293 1_555
Li7 O8 2.102974 1_555
Li7 O7 2.130450 1_555
Li7 O5 2.236219 1_455
Li7 O0 2.261169 1_545
Li8 O4 2.021842 1_554
Li8 O13 2.021842 1_555
Li8 O8 2.040419 1_555
Li8 O1 2.040419 1_554
Li8 O15 2.243127 1_554
Li8 O6 2.243127 1_555
Mn0 O5 1.935212 1_554
Mn0 O12 1.935212 1_555
Mn0 O0 1.968210 1_644
Mn0 O9 1.968210 1_645
Mn0 O14 2.225973 1_544
Mn0 O7 2.225973 1_655
Mn1 O2 1.909144 1_555
Mn1 O11 1.909144 1_555
Mn1 O7 1.948659 1_565
Mn1 O14 1.948659 1_455
Mn1 O9 1.964019 1_555
Mn1 O0 1.964019 1_555
Co0 O10 1.902983 1_555
Co0 O3 1.902983 1_555
Co0 O6 1.903723 1_555
Co0 O15 1.903723 1_555
Co0 O1 1.933534 1_555
Co0 O8 1.933534 1_555
Co1 O13 1.850188 1_555
Co1 O4 1.850188 1_554
Co1 O0 1.985078 1_554
Co1 O9 1.985078 1_555
Co1 O11 2.210872 1_554
Co1 O2 2.210872 1_555
Co2 O1 1.887059 1_554
Co2 O8 1.887059 1_555
Co2 O12 1.937509 1_555
Co2 O5 1.937509 1_554
Co2 O3 2.197235 1_555
Co2 O10 2.197235 1_554
Co3 O6 1.958033 1_555
Co3 O15 1.958033 1_555
Co3 O2 2.066349 1_555
Co3 O11 2.066349 1_555
Co3 O4 2.097339 1_555
Co3 O13 2.097339 1_555
Co4 O10 1.915530 1_555
Co4 O3 1.915530 1_555
Co4 O14 1.962107 1_545
Co4 O7 1.962107 1_655
Co4 O12 2.132147 1_555
Co4 O5 2.132147 1_555
