# generated using pymatgen
data_Li4Co3SbO8
_symmetry_space_group_name_H-M   'P 1'
_cell_length_a   5.99856004
_cell_length_b   5.99856004
_cell_length_c   6.02283325
_cell_angle_alpha   60.42543918
_cell_angle_beta   60.42543918
_cell_angle_gamma   60.89419896
_symmetry_Int_Tables_number   1
_chemical_formula_structural   Li4Co3SbO8
_chemical_formula_sum   'Li4 Co3 Sb1 O8'
_cell_volume   155.24937383
_cell_formula_units_Z   1
loop_
 _symmetry_equiv_pos_site_id
 _symmetry_equiv_pos_as_xyz
  1  'x, y, z'
loop_
 _atom_site_type_symbol
 _atom_site_label
 _atom_site_symmetry_multiplicity
 _atom_site_fract_x
 _atom_site_fract_y
 _atom_site_fract_z
 _atom_site_occupancy
  Li  Li0  1  0.50000000  0.50000000  0.50000000  1
  Li  Li1  1  0.00000000  0.50000000  0.00000000  1
  Li  Li2  1  0.50000000  0.00000000  0.00000000  1
  Li  Li3  1  0.00000000  0.00000000  0.50000000  1
  Co  Co0  1  0.50000000  0.00000000  0.50000000  1
  Co  Co1  1  0.00000000  0.50000000  0.50000000  1
  Co  Co2  1  0.50000000  0.50000000  0.00000000  1
  Sb  Sb0  1  0.00000000  0.00000000  0.00000000  1
  O  O0  1  0.72739500  0.72739500  0.76145800  1
  O  O1  1  0.24057400  0.76450000  0.23304700  1
  O  O2  1  0.76450000  0.24057400  0.23304700  1
  O  O3  1  0.27260500  0.27260500  0.23854200  1
  O  O4  1  0.23727300  0.23727300  0.75742000  1
  O  O5  1  0.75942600  0.23550000  0.76695300  1
  O  O6  1  0.23550000  0.75942600  0.76695300  1
  O  O7  1  0.76272700  0.76272700  0.24258000  1
loop_
_geom_bond_atom_site_label_1
_geom_bond_atom_site_label_2
_geom_bond_distance
_geom_bond_site_symmetry_2
Li0 O7 2.227925 1_555
Li0 O4 2.227925 1_555
Li0 O5 2.252508 1_555
Li0 O6 2.252508 1_555
Li0 O1 2.252508 1_555
Li0 O2 2.252508 1_555
Li1 O6 2.100646 1_554
Li1 O2 2.100646 1_455
Li1 O7 2.163814 1_455
Li1 O4 2.163814 1_554
Li1 O3 2.193935 1_555
Li1 O0 2.193935 1_454
Li2 O5 2.100646 1_554
Li2 O1 2.100646 1_545
Li2 O7 2.163814 1_545
Li2 O4 2.163814 1_554
Li2 O3 2.193935 1_555
Li2 O0 2.193935 1_544
Li3 O5 2.152126 1_455
Li3 O6 2.152126 1_545
Li3 O2 2.152126 1_455
Li3 O1 2.152126 1_545
Li3 O3 2.312020 1_555
Li3 O0 2.312020 1_445
Co0 O0 2.103052 1_545
Co0 O3 2.103052 1_555
Co0 O4 2.120700 1_555
Co0 O7 2.120700 1_545
Co0 O2 2.145692 1_555
Co0 O6 2.145692 1_545
Co1 O0 2.103052 1_455
Co1 O3 2.103052 1_555
Co1 O4 2.120700 1_555
Co1 O7 2.120700 1_455
Co1 O1 2.145692 1_555
Co1 O5 2.145692 1_455
Co2 O3 1.930414 1_555
Co2 O0 1.930414 1_554
Co2 O1 2.132911 1_555
Co2 O2 2.132911 1_555
Co2 O6 2.132911 1_554
Co2 O5 2.132911 1_554
O1 Sb0 2.026613 1_565
O2 Sb0 2.026613 1_655
O4 Sb0 2.012850 1_556
O5 Sb0 2.026613 1_656
O6 Sb0 2.026613 1_566
O7 Sb0 2.012850 1_665
