# generated using pymatgen
data_Mg6GaSb
_symmetry_space_group_name_H-M   'P 1'
_cell_length_a   5.21467000
_cell_length_b   6.43313600
_cell_length_c   10.74221100
_cell_angle_alpha   90.00000000
_cell_angle_beta   90.00000000
_cell_angle_gamma   90.00000000
_symmetry_Int_Tables_number   1
_chemical_formula_structural   Mg6GaSb
_chemical_formula_sum   'Mg12 Ga2 Sb2'
_cell_volume   360.36552893
_cell_formula_units_Z   2
loop_
 _symmetry_equiv_pos_site_id
 _symmetry_equiv_pos_as_xyz
  1  'x, y, z'
loop_
 _atom_site_type_symbol
 _atom_site_label
 _atom_site_symmetry_multiplicity
 _atom_site_fract_x
 _atom_site_fract_y
 _atom_site_fract_z
 _atom_site_occupancy
  Mg  Mg0  1  0.50000000  0.24924000  0.58391000  1
  Mg  Mg1  1  0.50000000  0.75076000  0.58391000  1
  Mg  Mg2  1  0.00000000  0.25456500  0.41585400  1
  Mg  Mg3  1  0.00000000  0.74543500  0.41585400  1
  Mg  Mg4  1  0.00000000  0.00000000  0.66869800  1
  Mg  Mg5  1  0.00000000  0.00000000  0.16627600  1
  Mg  Mg6  1  0.50000000  0.74924000  0.08391000  1
  Mg  Mg7  1  0.50000000  0.25076000  0.08391000  1
  Mg  Mg8  1  0.00000000  0.75456500  0.91585400  1
  Mg  Mg9  1  0.00000000  0.24543500  0.91585400  1
  Mg  Mg10  1  0.00000000  0.50000000  0.16869800  1
  Mg  Mg11  1  0.00000000  0.50000000  0.66627600  1
  Ga  Ga0  1  0.50000000  0.00000000  0.83259300  1
  Ga  Ga1  1  0.50000000  0.50000000  0.33259300  1
  Sb  Sb0  1  0.50000000  0.00000000  0.33290900  1
  Sb  Sb1  1  0.50000000  0.50000000  0.83290900  1
loop_
_geom_bond_atom_site_label_1
_geom_bond_atom_site_label_2
_geom_bond_distance
_geom_bond_site_symmetry_2
Mg0 Sb1 3.123601 1_555
Mg0 Sb0 3.137027 1_555
Mg0 Mg2 3.171506 1_555
Mg0 Mg2 3.171506 1_655
Mg0 Mg11 3.191141 1_555
Mg0 Mg11 3.191141 1_655
Mg0 Mg4 3.193532 1_555
Mg0 Mg4 3.193532 1_655
Mg1 Sb1 3.123601 1_555
Mg1 Sb0 3.137027 1_565
Mg1 Mg3 3.171506 1_655
Mg1 Mg3 3.171506 1_555
Mg1 Mg11 3.191141 1_555
Mg1 Mg11 3.191141 1_655
Mg1 Mg4 3.193532 1_665
Mg1 Mg4 3.193532 1_565
Mg2 Mg5 3.141619 1_555
Mg2 Mg3 3.157833 1_555
Mg2 Mg4 3.171612 1_555
Mg2 Sb0 3.205308 1_455
Mg2 Sb0 3.205308 1_555
Mg2 Mg3 3.275303 1_545
Mg3 Mg5 3.141619 1_565
Mg3 Mg4 3.171612 1_565
Mg3 Sb0 3.205308 1_565
Mg3 Sb0 3.205308 1_465
Mg4 Mg8 3.089015 1_545
Mg4 Mg9 3.089015 1_555
Mg5 Mg8 3.119221 1_544
Mg5 Mg9 3.119221 1_554
Mg5 Sb0 3.162645 1_455
Mg5 Sb0 3.162645 1_555
Mg5 Mg7 3.191141 1_555
Mg5 Mg6 3.191141 1_445
Mg5 Mg7 3.191141 1_455
Mg5 Mg6 3.191141 1_545
Mg6 Sb0 3.123601 1_565
Mg6 Sb1 3.137027 1_554
Mg6 Mg8 3.171506 1_654
Mg6 Mg8 3.171506 1_554
Mg7 Sb0 3.123601 1_555
Mg7 Sb1 3.137027 1_554
Mg7 Mg9 3.171506 1_554
Mg7 Mg9 3.171506 1_654
Mg8 Mg9 3.157833 1_565
Mg8 Sb1 3.205308 1_455
Mg8 Sb1 3.205308 1_555
Mg8 Mg9 3.275303 1_555
Mg9 Sb1 3.205308 1_455
Mg9 Sb1 3.205308 1_555
Mg10 Mg2 3.089015 1_555
Mg10 Mg3 3.089015 1_555
Mg10 Mg9 3.171612 1_554
Mg10 Mg8 3.171612 1_554
Mg10 Mg7 3.193532 1_455
Mg10 Mg7 3.193532 1_555
Mg10 Mg6 3.193532 1_455
Mg10 Mg6 3.193532 1_555
Mg10 Mg5 3.216673 1_555
Mg10 Mg5 3.216673 1_565
Mg11 Mg2 3.119221 1_555
Mg11 Mg3 3.119221 1_555
Mg11 Mg9 3.141619 1_555
Mg11 Mg8 3.141619 1_555
Mg11 Sb1 3.162645 1_555
Mg11 Sb1 3.162645 1_455
Mg11 Mg4 3.216673 1_565
Mg11 Mg4 3.216673 1_555
Ga0 Mg0 3.115651 1_555
Ga0 Mg1 3.115651 1_545
Ga0 Mg6 3.144950 1_546
Ga0 Mg7 3.144950 1_556
Ga0 Mg4 3.146091 1_555
Ga0 Mg4 3.146091 1_655
Ga0 Mg8 3.176655 1_645
Ga0 Mg8 3.176655 1_545
Ga0 Mg9 3.176655 1_555
Ga0 Mg9 3.176655 1_655
Ga0 Sb1 3.216570 1_555
Ga0 Sb1 3.216570 1_545
Ga1 Mg7 3.115651 1_555
Ga1 Mg6 3.115651 1_555
Ga1 Mg1 3.144950 1_555
Ga1 Mg0 3.144950 1_555
Ga1 Mg10 3.146091 1_555
Ga1 Mg10 3.146091 1_655
Ga1 Mg3 3.176655 1_655
Ga1 Mg3 3.176655 1_555
Ga1 Mg2 3.176655 1_655
Ga1 Mg2 3.176655 1_555
Ga1 Sb0 3.216570 1_555
Ga1 Sb0 3.216570 1_565
