# generated using pymatgen
data_Pm2MgSe4
_symmetry_space_group_name_H-M   'P 1'
_cell_length_a   8.44317458
_cell_length_b   8.44317458
_cell_length_c   8.44317458
_cell_angle_alpha   60.00000000
_cell_angle_beta   60.00000000
_cell_angle_gamma   60.00000000
_symmetry_Int_Tables_number   1
_chemical_formula_structural   Pm2MgSe4
_chemical_formula_sum   'Pm4 Mg2 Se8'
_cell_volume   425.60067689
_cell_formula_units_Z   2
loop_
 _symmetry_equiv_pos_site_id
 _symmetry_equiv_pos_as_xyz
  1  'x, y, z'
loop_
 _atom_site_type_symbol
 _atom_site_label
 _atom_site_symmetry_multiplicity
 _atom_site_fract_x
 _atom_site_fract_y
 _atom_site_fract_z
 _atom_site_occupancy
  Pm  Pm0  1  0.62500000  0.12500000  0.62500000  1
  Pm  Pm1  1  0.62500000  0.62500000  0.12500000  1
  Pm  Pm2  1  0.12500000  0.62500000  0.62500000  1
  Pm  Pm3  1  0.62500000  0.62500000  0.62500000  1
  Mg  Mg0  1  0.00000000  0.00000000  0.00000000  1
  Mg  Mg1  1  0.25000000  0.25000000  0.25000000  1
  Se  Se0  1  0.37790700  0.37790700  0.37790700  1
  Se  Se1  1  0.86628000  0.37790700  0.37790700  1
  Se  Se2  1  0.37790700  0.86628000  0.37790700  1
  Se  Se3  1  0.37790700  0.37790700  0.86628000  1
  Se  Se4  1  0.87209300  0.87209300  0.38372000  1
  Se  Se5  1  0.87209300  0.38372000  0.87209300  1
  Se  Se6  1  0.38372000  0.87209300  0.87209300  1
  Se  Se7  1  0.87209300  0.87209300  0.87209300  1
loop_
_geom_bond_atom_site_label_1
_geom_bond_atom_site_label_2
_geom_bond_distance
_geom_bond_site_symmetry_2
Pm0 Se0 2.950810 1_555
Pm0 Se7 2.950810 1_545
Pm0 Se4 2.950816 1_545
Pm0 Se1 2.950816 1_555
Pm0 Se3 2.950816 1_555
Pm0 Se6 2.950816 1_545
Pm1 Se0 2.950810 1_555
Pm1 Se7 2.950810 1_554
Pm1 Se1 2.950816 1_555
Pm1 Se6 2.950816 1_554
Pm1 Se2 2.950816 1_555
Pm1 Se5 2.950816 1_554
Pm2 Se7 2.950810 1_455
Pm2 Se0 2.950810 1_555
Pm2 Se4 2.950816 1_455
Pm2 Se5 2.950816 1_455
Pm2 Se2 2.950816 1_555
Pm2 Se3 2.950816 1_555
Pm3 Se5 2.950810 1_555
Pm3 Se2 2.950810 1_555
Pm3 Se6 2.950810 1_555
Pm3 Se1 2.950810 1_555
Pm3 Se4 2.950810 1_555
Pm3 Se3 2.950810 1_555
Mg0 Se4 2.645298 1_445
Mg0 Se6 2.645298 1_544
Mg0 Se5 2.645298 1_454
Mg0 Se7 2.645305 1_444
Mg1 Se2 2.645298 1_545
Mg1 Se3 2.645298 1_554
Mg1 Se1 2.645298 1_455
Mg1 Se0 2.645305 1_555
