# generated using pymatgen
data_K2MgH8(SO6)2
_symmetry_space_group_name_H-M   'P 1'
_cell_length_a   8.06651825
_cell_length_b   8.06651825
_cell_length_c   9.80504240
_cell_angle_alpha   94.71453130
_cell_angle_beta   94.71453130
_cell_angle_gamma   85.47097359
_symmetry_Int_Tables_number   1
_chemical_formula_structural   K2MgH8(SO6)2
_chemical_formula_sum   'K4 Mg2 H16 S4 O24'
_cell_volume   632.01473323
_cell_formula_units_Z   2
loop_
 _symmetry_equiv_pos_site_id
 _symmetry_equiv_pos_as_xyz
  1  'x, y, z'
loop_
 _atom_site_type_symbol
 _atom_site_label
 _atom_site_symmetry_multiplicity
 _atom_site_fract_x
 _atom_site_fract_y
 _atom_site_fract_z
 _atom_site_occupancy
  K  K0  1  0.09948800  0.54023400  0.29577900  1
  K  K1  1  0.53340300  0.11687000  0.29432500  1
  K  K2  1  0.88313000  0.46659700  0.70567500  1
  K  K3  1  0.45976600  0.90051200  0.70422100  1
  Mg  Mg0  1  0.00354100  0.99645900  0.00000000  1
  Mg  Mg1  1  0.50411200  0.49588800  0.00000000  1
  H  H0  1  0.19076300  0.69397000  0.95116400  1
  H  H1  1  0.71736600  0.19275400  0.93364500  1
  H  H2  1  0.80724600  0.28263400  0.06635500  1
  H  H3  1  0.30603000  0.80923700  0.04883600  1
  H  H4  1  0.14195200  0.68792700  0.63226800  1
  H  H5  1  0.69658300  0.14166300  0.63060600  1
  H  H6  1  0.85833700  0.30341700  0.36939400  1
  H  H7  1  0.31207300  0.85804800  0.36773200  1
  H  H8  1  0.93960500  0.93115300  0.25600900  1
  H  H9  1  0.06884700  0.06039500  0.74399100  1
  H  H10  1  0.95307200  0.91158600  0.71903800  1
  H  H11  1  0.08841400  0.04692800  0.28096200  1
  H  H12  1  0.28377600  0.54185100  0.63062700  1
  H  H13  1  0.54325800  0.27308800  0.63046400  1
  H  H14  1  0.72691200  0.45674200  0.36953600  1
  H  H15  1  0.45814900  0.71622400  0.36937300  1
  S  S0  1  0.78716500  0.78980000  0.47626000  1
  S  S1  1  0.21020000  0.21283500  0.52374000  1
  S  S2  1  0.29608300  0.30229700  0.00787900  1
  S  S3  1  0.69770300  0.70391700  0.99212100  1
  O  O0  1  0.24872000  0.64917500  0.67931100  1
  O  O1  1  0.64893000  0.24026800  0.68395600  1
  O  O2  1  0.75973200  0.35107000  0.31604400  1
  O  O3  1  0.35082500  0.75128000  0.32068900  1
  O  O4  1  0.82508600  0.82047300  0.98722700  1
  O  O5  1  0.17952700  0.17491400  0.01277300  1
  O  O6  1  0.35272300  0.37837600  0.14870700  1
  O  O7  1  0.62162400  0.64727700  0.85129300  1
  O  O8  1  0.19518500  0.80481500  0.00000000  1
  O  O9  1  0.81448600  0.18551400  0.00000000  1
  O  O10  1  0.98816400  0.00027000  0.78971600  1
  O  O11  1  0.99973000  0.01183600  0.21028400  1
  O  O12  1  0.23041500  0.44788200  0.92794400  1
  O  O13  1  0.45668800  0.23812500  0.94668500  1
  O  O14  1  0.76187500  0.54331200  0.05331500  1
  O  O15  1  0.55211800  0.76958500  0.07205600  1
  O  O16  1  0.34706700  0.32882600  0.52800600  1
  O  O17  1  0.67117400  0.65293300  0.47199400  1
  O  O18  1  0.86137200  0.78823400  0.34234100  1
  O  O19  1  0.21176600  0.13862800  0.65765900  1
  O  O20  1  0.92335800  0.76041600  0.58853800  1
  O  O21  1  0.69252700  0.95244800  0.50887800  1
  O  O22  1  0.04755200  0.30747300  0.49112200  1
  O  O23  1  0.23958400  0.07664200  0.41146200  1
loop_
_geom_bond_atom_site_label_1
_geom_bond_atom_site_label_2
_geom_bond_distance
_geom_bond_site_symmetry_2
K0 O18 2.699434 1_455
K0 O3 2.731957 1_555
K0 O6 2.776764 1_555
K0 O22 2.866465 1_555
K1 O2 2.713326 1_555
K1 O21 2.752844 1_545
K1 O23 2.769835 1_555
K1 O6 2.877500 1_555
K2 O1 2.713326 1_555
K2 O22 2.752844 1_655
K2 O20 2.769835 1_555
K2 O7 2.877500 1_555
K3 O19 2.699434 1_565
K3 O0 2.731957 1_555
K3 O7 2.776764 1_555
K3 O21 2.866465 1_555
Mg0 O11 2.057986 1_465
Mg0 O10 2.057986 1_464
Mg0 O9 2.069796 1_465
Mg0 O5 2.089735 1_565
Mg0 O4 2.089735 1_454
Mg0 O8 2.098141 1_555
Mg1 O14 2.158001 1_555
Mg1 O13 2.158001 1_554
Mg1 O7 2.284409 1_554
Mg1 O6 2.284409 1_555
Mg1 O15 2.314531 1_555
Mg1 O12 2.314531 1_554
H0 O8 0.980756 1_556
H1 O9 0.977594 1_556
H2 O9 0.977594 1_555
H3 O8 0.980756 1_555
H4 O0 0.983921 1_555
H5 O1 0.985101 1_555
H6 O2 0.985101 1_555
H7 O3 0.983921 1_555
H8 O11 0.996679 1_565
H8 O18 1.675411 1_555
H9 O10 0.996679 1_455
H9 O19 1.675411 1_555
H10 O10 0.995176 1_565
H11 O11 0.995176 1_455
H12 O0 0.986362 1_555
H13 O1 0.992708 1_555
H14 O2 0.992708 1_555
H15 O3 0.986362 1_555
O4 S3 1.452656 1_555
O5 S2 1.452656 1_555
O6 S2 1.514371 1_555
O7 S3 1.514371 1_555
O12 S2 1.502940 1_556
O13 S2 1.509027 1_556
O14 S3 1.509027 1_554
O15 S3 1.502940 1_554
O16 S1 1.498398 1_555
O17 S0 1.498398 1_555
O18 S0 1.485914 1_555
O19 S1 1.485914 1_555
O20 S0 1.509314 1_555
O21 S0 1.489764 1_555
O22 S1 1.489764 1_555
O23 S1 1.509314 1_555
