# generated using pymatgen
data_AlB5H16(NO7)2
_symmetry_space_group_name_H-M   'P 1'
_cell_length_a   7.13081991
_cell_length_b   7.13082061
_cell_length_c   14.21951800
_cell_angle_alpha   90.00000000
_cell_angle_beta   90.00000000
_cell_angle_gamma   91.91980613
_symmetry_Int_Tables_number   1
_chemical_formula_structural   AlB5H16(NO7)2
_chemical_formula_sum   'Al2 B10 H32 N4 O28'
_cell_volume   722.63670080
_cell_formula_units_Z   2
loop_
 _symmetry_equiv_pos_site_id
 _symmetry_equiv_pos_as_xyz
  1  'x, y, z'
loop_
 _atom_site_type_symbol
 _atom_site_label
 _atom_site_symmetry_multiplicity
 _atom_site_fract_x
 _atom_site_fract_y
 _atom_site_fract_z
 _atom_site_occupancy
  Al  Al0  1  0.85628100  0.85628100  0.50000000  1
  Al  Al1  1  0.14371900  0.14371900  0.00000000  1
  B  B0  1  0.55471900  0.77437300  0.62891600  1
  B  B1  1  0.77437300  0.55471900  0.37108400  1
  B  B2  1  0.44528100  0.22562700  0.12891600  1
  B  B3  1  0.22562700  0.44528100  0.87108400  1
  B  B4  1  0.22113500  0.78815400  0.58416900  1
  B  B5  1  0.78815400  0.22113500  0.41583100  1
  B  B6  1  0.77886500  0.21184600  0.08416900  1
  B  B7  1  0.21184600  0.77886500  0.91583100  1
  B  B8  1  0.30563700  0.69436300  0.75000000  1
  B  B9  1  0.69436300  0.30563700  0.25000000  1
  H  H0  1  0.95939900  0.27103600  0.67256000  1
  H  H1  1  0.27103600  0.95939900  0.32744000  1
  H  H2  1  0.04060100  0.72896400  0.17256000  1
  H  H3  1  0.72896400  0.04060100  0.82744000  1
  H  H4  1  0.99306100  0.51054400  0.66133700  1
  H  H5  1  0.51054400  0.99306100  0.33866300  1
  H  H6  1  0.00693900  0.48945600  0.16133700  1
  H  H7  1  0.48945600  0.00693900  0.83866300  1
  H  H8  1  0.95162500  0.93304400  0.71301300  1
  H  H9  1  0.93304400  0.95162500  0.28698700  1
  H  H10  1  0.04837500  0.06695600  0.21301300  1
  H  H11  1  0.06695600  0.04837500  0.78698700  1
  H  H12  1  0.77423900  0.40280800  0.66371000  1
  H  H13  1  0.40280800  0.77423900  0.33629000  1
  H  H14  1  0.22576100  0.59719200  0.16371000  1
  H  H15  1  0.59719200  0.22576100  0.83629000  1
  H  H16  1  0.90802900  0.38070500  0.56919500  1
  H  H17  1  0.38070500  0.90802900  0.43080500  1
  H  H18  1  0.09197100  0.61929500  0.06919500  1
  H  H19  1  0.61929500  0.09197100  0.93080500  1
  H  H20  1  0.66160900  0.57863700  0.79957600  1
  H  H21  1  0.57863700  0.66160900  0.20042400  1
  H  H22  1  0.33839100  0.42136300  0.29957600  1
  H  H23  1  0.42136300  0.33839100  0.70042400  1
  H  H24  1  0.71448500  0.66009100  0.04990600  1
  H  H25  1  0.66009100  0.71448500  0.95009400  1
  H  H26  1  0.28551500  0.33990900  0.54990600  1
  H  H27  1  0.33990900  0.28551500  0.45009400  1
  H  H28  1  0.79926900  0.50617600  0.88096300  1
  H  H29  1  0.50617600  0.79926900  0.11903700  1
  H  H30  1  0.20073100  0.49382400  0.38096300  1
  H  H31  1  0.49382400  0.20073100  0.61903700  1
  N  N0  1  0.91238000  0.39309100  0.64185000  1
  N  N1  1  0.39309100  0.91238000  0.35815000  1
  N  N2  1  0.08762000  0.60690900  0.14185000  1
  N  N3  1  0.60690900  0.08762000  0.85815000  1
  O  O0  1  0.41310500  0.81727500  0.56347200  1
  O  O1  1  0.81727500  0.41310500  0.43652800  1
  O  O2  1  0.58689500  0.18272500  0.06347200  1
  O  O3  1  0.18272500  0.58689500  0.93652800  1
  O  O4  1  0.74855400  0.74855400  0.00000000  1
  O  O5  1  0.25144600  0.25144600  0.50000000  1
  O  O6  1  0.16984200  0.72623500  0.67307000  1
  O  O7  1  0.72623500  0.16984200  0.32693000  1
  O  O8  1  0.83015800  0.27376500  0.17307000  1
  O  O9  1  0.27376500  0.83015800  0.82693000  1
  O  O10  1  0.50309800  0.72170200  0.71898400  1
  O  O11  1  0.72170200  0.50309800  0.28101600  1
  O  O12  1  0.49690200  0.27829800  0.21898400  1
  O  O13  1  0.27829800  0.49690200  0.78101600  1
  O  O14  1  0.95040900  0.04959100  0.75000000  1
  O  O15  1  0.04959100  0.95040900  0.25000000  1
  O  O16  1  0.73641200  0.78574400  0.60334200  1
  O  O17  1  0.78574400  0.73641200  0.39665800  1
  O  O18  1  0.26358800  0.21425600  0.10334200  1
  O  O19  1  0.21425600  0.26358800  0.89665800  1
  O  O20  1  0.09613500  0.81511600  0.51529400  1
  O  O21  1  0.81511600  0.09613500  0.48470600  1
  O  O22  1  0.90386500  0.18488400  0.01529400  1
  O  O23  1  0.18488400  0.90386500  0.98470600  1
  O  O24  1  0.70541100  0.46801800  0.83446200  1
  O  O25  1  0.46801800  0.70541100  0.16553800  1
  O  O26  1  0.29458900  0.53198200  0.33446200  1
  O  O27  1  0.53198200  0.29458900  0.66553800  1
loop_
_geom_bond_atom_site_label_1
_geom_bond_atom_site_label_2
_geom_bond_distance
_geom_bond_site_symmetry_2
Al0 O20 1.758527 1_655
Al0 O21 1.758527 1_565
Al0 O16 1.764699 1_555
Al0 O17 1.764699 1_555
Al1 O22 1.758527 1_455
Al1 O23 1.758527 1_544
Al1 O18 1.764699 1_555
Al1 O19 1.764699 1_554
B0 O16 1.345514 1_555
B0 O10 1.381142 1_555
B0 O0 1.414220 1_555
B1 O17 1.345514 1_555
B1 O11 1.381142 1_555
B1 O1 1.414220 1_555
B2 O18 1.345514 1_555
B2 O12 1.381142 1_555
B2 O2 1.414220 1_555
B3 O19 1.345514 1_555
B3 O13 1.381142 1_555
B3 O3 1.414220 1_555
B4 O20 1.342431 1_555
B4 O6 1.384173 1_555
B4 O0 1.408753 1_555
B5 O21 1.342431 1_555
B5 O7 1.384173 1_555
B5 O1 1.408753 1_555
B6 O22 1.342431 1_555
B6 O8 1.384173 1_555
B6 O2 1.408753 1_555
B7 O23 1.342431 1_555
B7 O9 1.384173 1_555
B7 O3 1.408753 1_555
B8 O10 1.482145 1_555
B8 O13 1.482145 1_555
B8 O6 1.483474 1_555
B8 O9 1.483474 1_555
B9 O12 1.482145 1_555
B9 O11 1.482145 1_555
B9 O8 1.483474 1_555
B9 O7 1.483474 1_555
H0 N0 1.039313 1_555
H1 N1 1.039313 1_555
H2 N2 1.039313 1_555
H3 N3 1.039313 1_555
H4 N0 1.037767 1_555
H5 N1 1.037766 1_555
H6 N2 1.037767 1_555
H7 N3 1.037766 1_555
H8 O14 0.983796 1_565
H9 O15 0.983796 1_655
H10 O15 0.983796 1_545
H11 O14 0.983796 1_455
H12 N0 1.037466 1_555
H13 N1 1.037466 1_555
H14 N2 1.037466 1_555
H15 N3 1.037466 1_555
H16 N0 1.037263 1_555
H17 N1 1.037263 1_555
H18 N2 1.037263 1_555
H19 N3 1.037263 1_555
H20 O24 0.991139 1_555
H21 O25 0.991139 1_555
H22 O26 0.991139 1_555
H23 O27 0.991139 1_555
H24 O4 0.974816 1_555
H25 O4 0.974816 1_556
H26 O5 0.974816 1_555
H27 O5 0.974816 1_555
H28 O24 0.973135 1_555
H29 O25 0.973135 1_555
H30 O26 0.973135 1_555
H31 O27 0.973135 1_555
