# generated using pymatgen
data_CaMg6Cd
_symmetry_space_group_name_H-M   'P 1'
_cell_length_a   5.20163700
_cell_length_b   6.62984200
_cell_length_c   11.44298700
_cell_angle_alpha   90.00000000
_cell_angle_beta   90.00000000
_cell_angle_gamma   90.00000000
_symmetry_Int_Tables_number   1
_chemical_formula_structural   CaMg6Cd
_chemical_formula_sum   'Ca2 Mg12 Cd2'
_cell_volume   394.62320958
_cell_formula_units_Z   2
loop_
 _symmetry_equiv_pos_site_id
 _symmetry_equiv_pos_as_xyz
  1  'x, y, z'
loop_
 _atom_site_type_symbol
 _atom_site_label
 _atom_site_symmetry_multiplicity
 _atom_site_fract_x
 _atom_site_fract_y
 _atom_site_fract_z
 _atom_site_occupancy
  Ca  Ca0  1  0.00000000  0.50000000  0.33095900  1
  Ca  Ca1  1  0.00000000  0.00000000  0.83095900  1
  Mg  Mg0  1  0.00000000  0.25328900  0.08164300  1
  Mg  Mg1  1  0.00000000  0.74671100  0.08164300  1
  Mg  Mg2  1  0.00000000  0.50000000  0.83600800  1
  Mg  Mg3  1  0.50000000  0.25695300  0.91939100  1
  Mg  Mg4  1  0.50000000  0.74304700  0.91939100  1
  Mg  Mg5  1  0.50000000  0.50000000  0.66695200  1
  Mg  Mg6  1  0.00000000  0.75328900  0.58164300  1
  Mg  Mg7  1  0.00000000  0.24671100  0.58164300  1
  Mg  Mg8  1  0.00000000  0.00000000  0.33600800  1
  Mg  Mg9  1  0.50000000  0.75695300  0.41939100  1
  Mg  Mg10  1  0.50000000  0.24304700  0.41939100  1
  Mg  Mg11  1  0.50000000  0.00000000  0.16695200  1
  Cd  Cd0  1  0.50000000  0.50000000  0.16401200  1
  Cd  Cd1  1  0.50000000  0.00000000  0.66401200  1
loop_
_geom_bond_atom_site_label_1
_geom_bond_atom_site_label_2
_geom_bond_distance
_geom_bond_site_symmetry_2
Ca0 Cd0 3.227039 1_555
Ca0 Cd0 3.227039 1_455
Ca0 Mg9 3.269612 1_455
Ca0 Mg9 3.269612 1_555
Ca0 Mg10 3.269612 1_455
Ca0 Mg10 3.269612 1_555
Ca0 Mg0 3.288543 1_555
Ca0 Mg1 3.288543 1_555
Ca0 Mg8 3.315424 1_555
Ca0 Mg8 3.315424 1_565
Ca0 Mg7 3.323951 1_555
Ca0 Mg6 3.323951 1_555
Ca1 Cd1 3.227039 1_555
Ca1 Cd1 3.227039 1_455
Ca1 Mg3 3.269612 1_455
Ca1 Mg4 3.269612 1_445
Ca1 Mg3 3.269612 1_555
Ca1 Mg4 3.269612 1_545
Ca1 Mg7 3.288543 1_555
Ca1 Mg6 3.288543 1_545
Ca1 Mg2 3.315424 1_555
Ca1 Mg2 3.315424 1_545
Ca1 Mg0 3.323951 1_556
Ca1 Mg1 3.323951 1_546
Mg0 Mg3 3.195620 1_454
Mg0 Mg3 3.195620 1_554
Mg0 Mg11 3.246096 1_555
Mg0 Mg11 3.246096 1_455
Mg0 Mg2 3.252069 1_554
Mg0 Mg1 3.271310 1_555
Mg0 Mg1 3.358532 1_545
Mg0 Mg8 3.360369 1_555
Mg1 Mg4 3.195620 1_554
Mg1 Mg4 3.195620 1_454
Mg1 Mg11 3.246096 1_465
Mg1 Mg11 3.246096 1_565
Mg1 Mg2 3.252069 1_554
Mg1 Mg8 3.360369 1_565
Mg2 Mg4 3.204864 1_555
Mg2 Mg3 3.204864 1_455
Mg2 Mg4 3.204864 1_455
Mg2 Mg3 3.204864 1_555
Mg2 Mg5 3.241384 1_555
Mg2 Mg5 3.241384 1_455
Mg2 Mg7 3.360369 1_555
Mg2 Mg6 3.360369 1_555
Mg3 Mg4 3.222726 1_555
Mg3 Mg5 3.307692 1_555
Mg3 Mg4 3.407116 1_545
Mg4 Mg5 3.307692 1_555
Mg5 Mg7 3.246096 1_655
Mg5 Mg6 3.246096 1_555
Mg5 Mg6 3.246096 1_655
Mg5 Mg7 3.246096 1_555
Mg5 Mg9 3.305613 1_555
Mg6 Mg9 3.195620 1_555
Mg6 Mg9 3.195620 1_455
Mg6 Mg8 3.252069 1_565
Mg6 Mg7 3.271310 1_565
Mg6 Mg7 3.358532 1_555
Mg7 Mg8 3.252069 1_555
Mg8 Mg9 3.204864 1_545
Mg8 Mg9 3.204864 1_445
Mg10 Mg7 3.195620 1_555
Mg10 Mg7 3.195620 1_655
Mg10 Mg8 3.204864 1_555
Mg10 Mg8 3.204864 1_655
Mg10 Mg9 3.222726 1_545
Mg10 Mg5 3.305613 1_555
Mg10 Mg11 3.307692 1_555
Mg10 Mg9 3.407116 1_555
Mg11 Mg8 3.241384 1_555
Mg11 Mg8 3.241384 1_655
Mg11 Mg4 3.305613 1_544
Mg11 Mg3 3.305613 1_554
Mg11 Mg9 3.307692 1_545
Cd0 Mg1 3.213724 1_555
Cd0 Mg0 3.213724 1_655
Cd0 Mg1 3.213724 1_655
Cd0 Mg0 3.213724 1_555
Cd0 Mg4 3.229858 1_554
Cd0 Mg3 3.229858 1_554
Cd0 Mg11 3.315092 1_565
Cd0 Mg11 3.315092 1_555
Cd0 Mg9 3.382593 1_555
Cd0 Mg10 3.382593 1_555
Cd1 Mg6 3.213724 1_545
Cd1 Mg7 3.213724 1_555
Cd1 Mg7 3.213724 1_655
Cd1 Mg6 3.213724 1_645
Cd1 Mg9 3.229858 1_545
Cd1 Mg10 3.229858 1_555
Cd1 Mg5 3.315092 1_545
Cd1 Mg5 3.315092 1_555
Cd1 Mg4 3.382593 1_545
Cd1 Mg3 3.382593 1_555
