# generated using pymatgen
data_Zn(SnO2)4
_symmetry_space_group_name_H-M   'P 1'
_cell_length_a   8.07085240
_cell_length_b   8.07085240
_cell_length_c   9.78641227
_cell_angle_alpha   54.47399573
_cell_angle_beta   54.47399573
_cell_angle_gamma   23.19140176
_symmetry_Int_Tables_number   1
_chemical_formula_structural   Zn(SnO2)4
_chemical_formula_sum   'Zn1 Sn4 O8'
_cell_volume   202.10468840
_cell_formula_units_Z   1
loop_
 _symmetry_equiv_pos_site_id
 _symmetry_equiv_pos_as_xyz
  1  'x, y, z'
loop_
 _atom_site_type_symbol
 _atom_site_label
 _atom_site_symmetry_multiplicity
 _atom_site_fract_x
 _atom_site_fract_y
 _atom_site_fract_z
 _atom_site_occupancy
  Zn  Zn0  1  0.30619000  0.30619000  0.19348200  1
  Sn  Sn0  1  0.63590400  0.63590400  0.56806200  1
  Sn  Sn1  1  0.09980400  0.09980400  0.21201200  1
  Sn  Sn2  1  0.86186300  0.86186300  0.83494500  1
  Sn  Sn3  1  0.33633500  0.33633500  0.51314000  1
  O  O0  1  0.86851500  0.86851500  0.60721800  1
  O  O1  1  0.47570300  0.47570300  0.73021100  1
  O  O2  1  0.48906800  0.48906800  0.29496200  1
  O  O3  1  0.14832500  0.14832500  0.41394400  1
  O  O4  1  0.16789900  0.16789900  0.67264700  1
  O  O5  1  0.84239500  0.84239500  0.06529300  1
  O  O6  1  0.80525600  0.80525600  0.39893100  1
  O  O7  1  0.26522700  0.26522700  0.90394500  1
loop_
_geom_bond_atom_site_label_1
_geom_bond_atom_site_label_2
_geom_bond_distance
_geom_bond_site_symmetry_2
O0 Sn3 2.072233 1_565
O0 Sn3 2.072233 1_655
O0 Sn2 2.167892 1_555
O1 Sn0 2.041096 1_555
O1 Sn2 2.175716 1_455
O1 Sn2 2.175716 1_545
O2 Sn3 2.067350 1_555
O2 Sn1 2.161114 1_565
O2 Sn1 2.161114 1_655
O3 Zn0 2.120537 1_555
O3 Sn0 2.143310 1_455
O3 Sn0 2.143310 1_545
O3 Sn1 2.508526 1_555
O4 Sn0 2.132982 1_545
O4 Sn0 2.132982 1_455
O4 Sn3 2.144270 1_555
O5 Zn0 1.918669 1_565
O5 Zn0 1.918669 1_655
O5 Sn2 2.086451 1_554
O6 Sn0 2.156881 1_555
O6 Sn3 2.184985 1_565
O6 Sn3 2.184985 1_655
O6 Zn0 2.576688 1_655
O6 Zn0 2.576688 1_565
O7 Sn2 2.049033 1_455
O7 Sn2 2.049033 1_545
O7 Sn1 2.564320 1_556
