# generated using pymatgen
data_SrCa2(FeAs)6
_symmetry_space_group_name_H-M   'P 1'
_cell_length_a   5.65299345
_cell_length_b   6.06030486
_cell_length_c   8.30695249
_cell_angle_alpha   75.12477579
_cell_angle_beta   70.10748207
_cell_angle_gamma   90.00000000
_symmetry_Int_Tables_number   1
_chemical_formula_structural   SrCa2(FeAs)6
_chemical_formula_sum   'Sr1 Ca2 Fe6 As6'
_cell_volume   257.44058106
_cell_formula_units_Z   1
loop_
 _symmetry_equiv_pos_site_id
 _symmetry_equiv_pos_as_xyz
  1  'x, y, z'
loop_
 _atom_site_type_symbol
 _atom_site_label
 _atom_site_symmetry_multiplicity
 _atom_site_fract_x
 _atom_site_fract_y
 _atom_site_fract_z
 _atom_site_occupancy
  Sr  Sr0  1  0.00000000  0.00000000  0.00000000  1
  Ca  Ca0  1  0.33261800  0.66438200  0.33476200  1
  Ca  Ca1  1  0.66738200  0.33561800  0.66523800  1
  Fe  Fe0  1  0.41835500  0.83381300  0.66450700  1
  Fe  Fe1  1  0.75002700  0.50000000  0.00000000  1
  Fe  Fe2  1  0.08286200  0.16618700  0.33549300  1
  Fe  Fe3  1  0.24997300  0.50000000  0.00000000  1
  Fe  Fe4  1  0.58164500  0.16618700  0.33549300  1
  Fe  Fe5  1  0.91713800  0.83381300  0.66450700  1
  As  As0  1  0.12009500  0.52343500  0.75980900  1
  As  As1  1  0.45195000  0.18895400  0.09609900  1
  As  As2  1  0.78648100  0.85222700  0.42703800  1
  As  As3  1  0.54805000  0.81104600  0.90390100  1
  As  As4  1  0.87990500  0.47656500  0.24019100  1
  As  As5  1  0.21351900  0.14777300  0.57296200  1
loop_
_geom_bond_atom_site_label_1
_geom_bond_atom_site_label_2
_geom_bond_distance
_geom_bond_site_symmetry_2
Ca0 Fe2 3.330738 1_555
Ca0 Fe4 3.330743 1_555
Ca0 Fe5 3.337634 1_455
Ca0 Fe0 3.337639 1_555
Ca0 Fe2 3.353400 1_565
Ca0 Fe4 3.353405 1_565
Ca0 Fe3 3.354147 1_555
Ca0 Fe1 3.354152 1_555
Ca1 Fe5 3.330738 1_555
Ca1 Fe0 3.330743 1_555
Ca1 Fe2 3.337634 1_655
Ca1 Fe4 3.337639 1_555
Ca1 Fe5 3.353400 1_545
Ca1 Fe0 3.353405 1_545
Ca1 Fe1 3.354147 1_556
Ca1 Fe3 3.354152 1_556
Fe0 Sr0 3.366035 1_566
Fe1 Sr0 3.343451 1_655
Fe1 Sr0 3.343451 1_665
Fe2 Sr0 3.366035 1_555
Fe3 Sr0 3.343451 1_555
Fe3 Sr0 3.343451 1_565
Fe4 Sr0 3.366035 1_655
Fe5 Sr0 3.366035 1_666
As0 Fe5 2.309702 1_455
As0 Fe0 2.309706 1_555
As0 Fe1 2.321993 1_456
As0 Fe3 2.321996 1_556
As0 Ca0 3.194472 1_555
As0 Ca1 3.207711 1_455
As0 Ca1 3.207726 1_555
As0 Sr0 3.214527 1_556
As1 Fe3 2.311260 1_555
As1 Fe1 2.311263 1_555
As1 Fe2 2.315714 1_555
As1 Fe4 2.315717 1_555
As1 Sr0 3.214529 1_555
As1 Sr0 3.214534 1_655
As1 Ca0 3.216514 1_545
As1 Ca1 3.237873 1_554
As2 Fe0 2.308202 1_555
As2 Fe5 2.308202 1_555
As2 Fe2 2.322865 1_665
As2 Fe4 2.322865 1_565
As2 Ca1 3.175420 1_555
As2 Ca0 3.201964 1_655
As2 Ca0 3.201974 1_555
As2 Sr0 3.209042 1_665
As3 Fe1 2.311260 1_556
As3 Fe3 2.311263 1_556
As3 Fe5 2.315714 1_555
As3 Fe0 2.315717 1_555
As3 Sr0 3.214529 1_666
As3 Sr0 3.214534 1_566
As3 Ca1 3.216514 1_565
As3 Ca0 3.237873 1_556
As4 Fe2 2.309702 1_655
As4 Fe4 2.309706 1_555
As4 Fe3 2.321993 1_655
As4 Fe1 2.321996 1_555
As4 Ca1 3.194472 1_555
As4 Ca0 3.207711 1_655
As4 Ca0 3.207726 1_555
As4 Sr0 3.214527 1_665
As5 Fe4 2.308202 1_555
As5 Fe2 2.308202 1_555
As5 Fe5 2.322865 1_445
As5 Fe0 2.322865 1_545
As5 Ca0 3.175420 1_555
As5 Ca1 3.201964 1_455
As5 Ca1 3.201974 1_555
As5 Sr0 3.209042 1_556
