# generated using pymatgen
data_CeGa3Ni
_symmetry_space_group_name_H-M   'P 1'
_cell_length_a   4.22404892
_cell_length_b   4.21881883
_cell_length_c   5.88106969
_cell_angle_alpha   69.13332992
_cell_angle_beta   69.00130854
_cell_angle_gamma   89.98131448
_symmetry_Int_Tables_number   1
_chemical_formula_structural   CeGa3Ni
_chemical_formula_sum   'Ce1 Ga3 Ni1'
_cell_volume   90.44715337
_cell_formula_units_Z   1
loop_
 _symmetry_equiv_pos_site_id
 _symmetry_equiv_pos_as_xyz
  1  'x, y, z'
loop_
 _atom_site_type_symbol
 _atom_site_label
 _atom_site_symmetry_multiplicity
 _atom_site_fract_x
 _atom_site_fract_y
 _atom_site_fract_z
 _atom_site_occupancy
  Ce  Ce0  1  0.00475431  0.00456236  0.99090860  1
  Ga  Ga0  1  0.75476149  0.25450994  0.49027600  1
  Ga  Ga1  1  0.25470076  0.75458099  0.49061356  1
  Ga  Ga2  1  0.59264063  0.59342691  0.81581303  1
  Ni  Ni0  1  0.36214080  0.36191879  0.27438782  1
loop_
_geom_bond_atom_site_label_1
_geom_bond_atom_site_label_2
_geom_bond_distance
_geom_bond_site_symmetry_2
Ce0 Ga2 3.107787 1_445
Ce0 Ga2 3.110046 1_545
Ce0 Ga2 3.118012 1_455
Ce0 Ga2 3.122126 1_555
Ce0 Ga0 3.291611 1_456
Ce0 Ga1 3.296566 1_545
Ce0 Ga1 3.298260 1_546
Ce0 Ga1 3.302706 1_446
Ce0 Ga0 3.303252 1_455
Ce0 Ga0 3.303373 1_446
Ce0 Ga0 3.304942 1_555
Ce0 Ni0 3.305615 1_556
Ce0 Ga1 3.305649 1_555
Ce0 Ni0 3.311352 1_456
Ce0 Ni0 3.315124 1_546
Ce0 Ni0 3.322594 1_446
Ga0 Ni0 2.378231 1_655
Ga0 Ni0 2.380456 1_555
Ga0 Ga2 2.677787 1_545
Ga0 Ga2 2.681145 1_555
Ga1 Ni0 2.377781 1_555
Ga1 Ni0 2.377845 1_565
Ga1 Ga2 2.680018 1_455
Ga1 Ga2 2.680922 1_555
Ga2 Ni0 2.327546 1_556
