# generated using pymatgen
data_TbNdFe4
_symmetry_space_group_name_H-M   'P 1'
_cell_length_a   5.22149850
_cell_length_b   5.22149850
_cell_length_c   5.22149850
_cell_angle_alpha   90.00000000
_cell_angle_beta   60.00000000
_cell_angle_gamma   120.00000000
_symmetry_Int_Tables_number   1
_chemical_formula_structural   TbNdFe4
_chemical_formula_sum   'Tb1 Nd1 Fe4'
_cell_volume   100.66314060
_cell_formula_units_Z   1
loop_
 _symmetry_equiv_pos_site_id
 _symmetry_equiv_pos_as_xyz
  1  'x, y, z'
loop_
 _atom_site_type_symbol
 _atom_site_label
 _atom_site_symmetry_multiplicity
 _atom_site_fract_x
 _atom_site_fract_y
 _atom_site_fract_z
 _atom_site_occupancy
  Tb  Tb0  1  0.00000000  0.00000000  0.00000000  1
  Nd  Nd0  1  0.50000000  0.75000000  0.75000000  1
  Fe  Fe0  1  0.74986900  0.37493400  0.87519700  1
  Fe  Fe1  1  0.25013100  0.37493400  0.37493400  1
  Fe  Fe2  1  0.25013100  0.87519700  0.37493400  1
  Fe  Fe3  1  0.74986900  0.37493400  0.37493400  1
loop_
_geom_bond_atom_site_label_1
_geom_bond_atom_site_label_2
_geom_bond_distance
_geom_bond_site_symmetry_2
Nd0 Tb0 3.197502 1_566
Nd0 Tb0 3.197502 1_556
Nd0 Tb0 3.197502 1_665
Nd0 Tb0 3.197502 1_666
Fe0 Fe3 2.609376 1_556
Fe0 Fe2 2.609376 1_546
Fe0 Fe1 2.609379 1_556
Fe0 Fe1 2.612120 1_655
Fe0 Fe3 2.612123 1_555
Fe0 Fe2 2.612123 1_655
Fe0 Tb0 3.061226 1_656
Fe0 Tb0 3.061230 1_556
Fe0 Tb0 3.061230 1_666
Fe0 Nd0 3.061520 1_655
Fe0 Nd0 3.061520 1_545
Fe0 Nd0 3.061524 1_555
Fe1 Fe2 2.609376 1_545
Fe1 Fe3 2.609381 1_555
Fe1 Fe3 2.612117 1_455
Fe1 Fe2 2.612123 1_555
Fe1 Tb0 3.061226 1_555
Fe1 Tb0 3.061230 1_556
Fe1 Tb0 3.061230 1_665
Fe1 Nd0 3.061520 1_554
Fe1 Nd0 3.061520 1_445
Fe1 Nd0 3.061524 1_555
Fe2 Fe3 2.609379 1_565
Fe2 Fe3 2.612120 1_455
Fe2 Tb0 3.061226 1_565
Fe2 Tb0 3.061230 1_566
Fe2 Tb0 3.061230 1_665
Fe2 Nd0 3.061520 1_455
Fe2 Nd0 3.061520 1_554
Fe2 Nd0 3.061524 1_555
Fe3 Tb0 3.061226 1_655
Fe3 Tb0 3.061230 1_556
Fe3 Tb0 3.061230 1_665
Fe3 Nd0 3.061520 1_545
Fe3 Nd0 3.061520 1_654
Fe3 Nd0 3.061524 1_555
