# generated using pymatgen
data_LiLa2FeO6
_symmetry_space_group_name_H-M   'P 1'
_cell_length_a   5.36956053
_cell_length_b   7.64815371
_cell_length_c   5.44807130
_cell_angle_alpha   90.00640189
_cell_angle_beta   89.99525334
_cell_angle_gamma   91.20385511
_symmetry_Int_Tables_number   1
_chemical_formula_structural   LiLa2FeO6
_chemical_formula_sum   'Li2 La4 Fe2 O12'
_cell_volume   223.68777890
_cell_formula_units_Z   2
loop_
 _symmetry_equiv_pos_site_id
 _symmetry_equiv_pos_as_xyz
  1  'x, y, z'
loop_
 _atom_site_type_symbol
 _atom_site_label
 _atom_site_symmetry_multiplicity
 _atom_site_fract_x
 _atom_site_fract_y
 _atom_site_fract_z
 _atom_site_occupancy
  Li  Li0  1  -0.00000000  0.50000000  -0.00000000  1
  Li  Li1  1  0.50000000  -0.00000000  0.50000000  1
  La  La0  1  0.49934572  0.74974158  0.99991541  1
  La  La1  1  0.99934387  0.24974005  0.49991437  1
  La  La2  1  0.50065228  0.25025842  0.00008459  1
  La  La3  1  0.00065613  0.75025995  0.50008563  1
  Fe  Fe0  1  0.50000100  0.50000100  0.50000000  1
  Fe  Fe1  1  0.00000100  0.00000200  -0.00000000  1
  O  O0  1  0.76507859  0.47748974  0.71124465  1
  O  O1  1  0.26508174  0.97748910  0.21123958  1
  O  O2  1  0.00342178  0.23825286  0.04906455  1
  O  O3  1  0.50342279  0.73825242  0.54906712  1
  O  O4  1  0.71496152  0.52644268  0.23860155  1
  O  O5  1  0.21495360  0.02644218  0.73859991  1
  O  O6  1  0.23492041  0.52251226  0.28875635  1
  O  O7  1  0.73491826  0.02250990  0.78875942  1
  O  O8  1  0.99657922  0.76174414  0.95093445  1
  O  O9  1  0.49657721  0.26174758  0.45093288  1
  O  O10  1  0.28503848  0.47355932  0.76139745  1
  O  O11  1  0.78504540  0.97355682  0.26140009  1
loop_
_geom_bond_atom_site_label_1
_geom_bond_atom_site_label_2
_geom_bond_distance
_geom_bond_site_symmetry_2
Li0 O8 2.020124 1_454
Li0 O2 2.020146 1_555
Li0 O4 2.021344 1_455
Li0 O10 2.021346 1_554
Li0 O0 2.021585 1_454
Li0 O6 2.021587 1_555
Li1 O3 2.020151 1_545
Li1 O9 2.020151 1_555
Li1 O11 2.021367 1_545
Li1 O5 2.021370 1_555
Li1 O7 2.021592 1_555
Li1 O1 2.021596 1_545
La0 O4 2.455991 1_556
La0 O1 2.456262 1_556
La0 O3 2.457927 1_555
La0 O7 2.676745 1_565
La0 O8 2.682858 1_555
La0 O11 2.683747 1_556
La0 O10 2.715150 1_555
La0 O8 2.716285 1_455
La0 O6 2.721960 1_556
La0 O3 2.993213 1_556
La0 O0 2.994784 1_555
La0 O5 2.995675 1_565
La1 O5 2.455968 1_655
La1 O0 2.456294 1_555
La1 O2 2.457935 1_655
La1 O6 2.676782 1_655
La1 O9 2.682858 1_655
La1 O10 2.683746 1_655
La1 O11 2.715127 1_545
La1 O9 2.716288 1_555
La1 O7 2.721978 1_555
La1 O2 2.993204 1_656
La1 O1 2.994804 1_645
La1 O4 2.995652 1_555
La2 O10 2.455999 1_554
La2 O7 2.456276 1_554
La2 O9 2.457927 1_555
La2 O1 2.676744 1_545
La2 O2 2.682842 1_555
La2 O5 2.683749 1_554
La2 O4 2.715164 1_555
La2 O2 2.716302 1_655
La2 O0 2.721969 1_554
La2 O9 2.993213 1_554
La2 O6 2.994795 1_555
La2 O11 2.995684 1_545
La3 O11 2.455965 1_455
La3 O6 2.456277 1_555
La3 O8 2.457929 1_455
La3 O0 2.676775 1_455
La3 O3 2.682858 1_455
La3 O4 2.683740 1_455
La3 O5 2.715119 1_565
La3 O3 2.716288 1_555
La3 O1 2.721976 1_555
La3 O8 2.993209 1_454
La3 O7 2.994796 1_465
La3 O10 2.995639 1_555
Fe0 O3 1.841368 1_555
Fe0 O9 1.841383 1_555
Fe0 O0 1.841384 1_555
Fe0 O6 1.841393 1_555
Fe0 O4 1.841540 1_555
Fe0 O10 1.841542 1_555
Fe1 O2 1.841362 1_555
Fe1 O1 1.841382 1_545
Fe1 O7 1.841389 1_454
Fe1 O8 1.841415 1_444
Fe1 O5 1.841519 1_554
Fe1 O11 1.841533 1_445
