# generated using pymatgen
data_Ce3Pt4
_symmetry_space_group_name_H-M   'P 1'
_cell_length_a   8.13014180
_cell_length_b   8.13029707
_cell_length_c   8.13112296
_cell_angle_alpha   114.61215582
_cell_angle_beta   114.62201548
_cell_angle_gamma   114.61535202
_symmetry_Int_Tables_number   1
_chemical_formula_structural   Ce3Pt4
_chemical_formula_sum   'Ce6 Pt8'
_cell_volume   311.05114453
_cell_formula_units_Z   2
loop_
 _symmetry_equiv_pos_site_id
 _symmetry_equiv_pos_as_xyz
  1  'x, y, z'
loop_
 _atom_site_type_symbol
 _atom_site_label
 _atom_site_symmetry_multiplicity
 _atom_site_fract_x
 _atom_site_fract_y
 _atom_site_fract_z
 _atom_site_occupancy
  Ce  Ce0  1  0.03204191  0.28396485  0.40709807  1
  Ce  Ce1  1  0.28407351  0.40717475  0.03206422  1
  Ce  Ce2  1  0.40703595  0.03198202  0.28397136  1
  Ce  Ce3  1  0.96787313  0.71589389  0.59274485  1
  Ce  Ce4  1  0.71587692  0.59282471  0.96794554  1
  Ce  Ce5  1  0.59301789  0.96805787  0.71607863  1
  Pt  Pt0  1  -0.00006563  -0.00000587  -0.00001133  1
  Pt  Pt1  1  0.49998027  0.50004632  0.50003027  1
  Pt  Pt2  1  0.05725751  0.55455554  0.22255375  1
  Pt  Pt3  1  0.55452767  0.22264710  0.05718827  1
  Pt  Pt4  1  0.22262092  0.05728328  0.55461346  1
  Pt  Pt5  1  0.94282442  0.44547998  0.77749094  1
  Pt  Pt6  1  0.44552811  0.77734114  0.94276294  1
  Pt  Pt7  1  0.77740742  0.94275441  0.44546904  1
loop_
_geom_bond_atom_site_label_1
_geom_bond_atom_site_label_2
_geom_bond_distance
_geom_bond_site_symmetry_2
Ce0 Pt6 2.894043 1_555
Ce0 Pt7 2.924703 1_445
Ce0 Pt0 2.961143 1_555
Ce0 Pt1 3.010301 1_555
Ce0 Pt6 3.105112 1_444
Ce0 Pt2 3.124731 1_555
Ce0 Pt4 3.147638 1_555
Ce0 Pt5 3.261980 1_455
Ce0 Pt3 3.379015 1_455
Ce0 Ce3 3.556669 1_455
Ce1 Pt7 2.893427 1_555
Ce1 Pt5 2.924119 1_454
Ce1 Pt0 2.961748 1_555
Ce1 Pt1 3.011185 1_555
Ce1 Pt7 3.105741 1_444
Ce1 Pt3 3.123533 1_555
Ce1 Pt2 3.148043 1_555
Ce1 Pt6 3.260562 1_554
Ce1 Pt4 3.378536 1_554
Ce1 Ce4 3.555402 1_554
Ce2 Pt5 2.894509 1_555
Ce2 Pt6 2.925798 1_544
Ce2 Pt0 2.961202 1_555
Ce2 Pt1 3.011446 1_555
Ce2 Pt5 3.105091 1_444
Ce2 Pt4 3.124449 1_555
Ce2 Pt3 3.149005 1_555
Ce2 Pt7 3.261322 1_545
Ce2 Pt2 3.377839 1_545
Ce2 Ce5 3.556695 1_545
Ce3 Pt3 2.893411 1_555
Ce3 Pt4 2.924496 1_665
Ce3 Pt0 2.962526 1_666
Ce3 Pt1 3.010970 1_555
Ce3 Pt3 3.105868 1_666
Ce3 Pt5 3.124822 1_555
Ce3 Pt7 3.147669 1_555
Ce3 Pt2 3.261480 1_655
Ce3 Pt6 3.379406 1_655
Ce4 Pt4 2.893139 1_555
Ce4 Pt2 2.924733 1_656
Ce4 Pt0 2.961680 1_666
Ce4 Pt1 3.011203 1_555
Ce4 Pt4 3.106145 1_666
Ce4 Pt6 3.122696 1_555
Ce4 Pt5 3.148771 1_555
Ce4 Pt3 3.260175 1_556
Ce4 Pt7 3.378634 1_556
Ce5 Pt2 2.894418 1_555
Ce5 Pt3 2.925075 1_566
Ce5 Pt0 2.960195 1_666
Ce5 Pt1 3.010664 1_555
Ce5 Pt2 3.105072 1_666
Ce5 Pt7 3.124051 1_555
Ce5 Pt6 3.148478 1_555
Ce5 Pt4 3.261455 1_565
Ce5 Pt5 3.377911 1_565
Pt0 Pt1 2.876442 1_444
Pt0 Pt1 2.876978 1_555
Pt2 Pt5 2.929548 1_454
Pt2 Pt3 3.000972 1_455
Pt2 Pt4 3.001519 1_565
Pt3 Pt6 2.931417 1_544
Pt3 Pt4 3.000258 1_554
Pt4 Pt7 2.929801 1_445
Pt5 Pt6 3.001121 1_655
Pt5 Pt7 3.001245 1_545
Pt6 Pt7 3.000882 1_556
