# generated using pymatgen
data_As2C4S2O
_symmetry_space_group_name_H-M   'P 1'
_cell_length_a   12.20385156
_cell_length_b   12.20385156
_cell_length_c   14.02534168
_cell_angle_alpha   78.38194685
_cell_angle_beta   78.38194685
_cell_angle_gamma   26.10546382
_symmetry_Int_Tables_number   1
_chemical_formula_structural   As2C4S2O
_chemical_formula_sum   'As8 C16 S8 O4'
_cell_volume   899.29092780
_cell_formula_units_Z   4
loop_
 _symmetry_equiv_pos_site_id
 _symmetry_equiv_pos_as_xyz
  1  'x, y, z'
loop_
 _atom_site_type_symbol
 _atom_site_label
 _atom_site_symmetry_multiplicity
 _atom_site_fract_x
 _atom_site_fract_y
 _atom_site_fract_z
 _atom_site_occupancy
  As  As0  1  0.19838400  0.93789000  0.98251800  1
  As  As1  1  0.06211000  0.80161600  0.51748200  1
  As  As2  1  0.80161600  0.06211000  0.01748200  1
  As  As3  1  0.93789000  0.19838400  0.48251800  1
  As  As4  1  0.29482500  0.08061600  0.07157700  1
  As  As5  1  0.91938400  0.70517500  0.42842300  1
  As  As6  1  0.70517500  0.91938400  0.92842300  1
  As  As7  1  0.08061600  0.29482500  0.57157700  1
  C  C0  1  0.53250600  0.50080800  0.88930800  1
  C  C1  1  0.49919200  0.46749500  0.61069200  1
  C  C2  1  0.46749500  0.49919200  0.11069200  1
  C  C3  1  0.50080800  0.53250500  0.38930800  1
  C  C4  1  0.47035800  0.64882400  0.90828500  1
  C  C5  1  0.35117600  0.52964200  0.59171500  1
  C  C6  1  0.52964200  0.35117600  0.09171500  1
  C  C7  1  0.64882400  0.47035800  0.40828500  1
  C  C8  1  0.04856800  0.42565800  0.03958500  1
  C  C9  1  0.57434200  0.95143200  0.46041500  1
  C  C10  1  0.95143200  0.57434200  0.96041500  1
  C  C11  1  0.42565800  0.04856800  0.53958500  1
  C  C12  1  0.03890500  0.27191900  0.18533000  1
  C  C13  1  0.72808100  0.96109500  0.31467000  1
  C  C14  1  0.96109500  0.72808100  0.81467000  1
  C  C15  1  0.27191900  0.03890500  0.68533000  1
  S  S0  1  0.37847600  0.69988500  0.13575300  1
  S  S1  1  0.30011500  0.62152400  0.36424700  1
  S  S2  1  0.62152400  0.30011500  0.86424700  1
  S  S3  1  0.69988500  0.37847600  0.63575300  1
  S  S4  1  0.93190400  0.49914400  0.16338800  1
  S  S5  1  0.50085600  0.06809600  0.33661200  1
  S  S6  1  0.06809600  0.50085600  0.83661200  1
  S  S7  1  0.49914400  0.93190400  0.66338800  1
  O  O0  1  0.26280200  0.02839500  0.97694300  1
  O  O1  1  0.97160500  0.73719800  0.52305700  1
  O  O2  1  0.73719800  0.97160500  0.02305700  1
  O  O3  1  0.02839500  0.26280200  0.47694300  1
loop_
_geom_bond_atom_site_label_1
_geom_bond_atom_site_label_2
_geom_bond_distance
_geom_bond_site_symmetry_2
As0 O0 1.828660 1_565
As0 C4 1.898400 1_555
As0 S0 2.410213 1_556
As1 O1 1.828660 1_455
As1 C5 1.898400 1_555
As1 S1 2.410213 1_555
As2 O2 1.828660 1_545
As2 C6 1.898400 1_555
As2 S2 2.410213 1_554
As3 O3 1.828660 1_655
As3 C7 1.898400 1_555
As3 S3 2.410213 1_555
As4 O0 1.821386 1_554
As4 C8 2.004686 1_555
As4 C12 2.036709 1_555
As5 O1 1.821386 1_555
As5 C9 2.004686 1_555
As5 C13 2.036709 1_555
As6 O2 1.821386 1_556
As6 C10 2.004686 1_555
As6 C14 2.036709 1_555
As7 O3 1.821386 1_555
As7 C11 2.004686 1_555
As7 C15 2.036709 1_555
C0 C4 1.249336 1_555
C0 S2 1.648259 1_555
C1 C5 1.249345 1_555
C1 S3 1.648250 1_555
C2 C6 1.249345 1_555
C2 S0 1.648250 1_555
C3 C7 1.249345 1_555
C3 S1 1.648250 1_555
C8 S4 1.784563 1_455
C9 S5 1.784563 1_565
C10 C8 1.336496 1_656
C10 S6 1.784563 1_655
C11 C9 1.336496 1_545
C11 S7 1.784563 1_545
C12 S4 1.674608 1_455
C13 S5 1.674608 1_565
C14 S6 1.674608 1_655
C15 S7 1.674608 1_545
