# generated using pymatgen
data_ScInNi4
_symmetry_space_group_name_H-M   'P 1'
_cell_length_a   4.83289724
_cell_length_b   4.83289724
_cell_length_c   4.83289724
_cell_angle_alpha   60.00000000
_cell_angle_beta   60.00000000
_cell_angle_gamma   60.00000000
_symmetry_Int_Tables_number   1
_chemical_formula_structural   ScInNi4
_chemical_formula_sum   'Sc1 In1 Ni4'
_cell_volume   79.81925772
_cell_formula_units_Z   1
loop_
 _symmetry_equiv_pos_site_id
 _symmetry_equiv_pos_as_xyz
  1  'x, y, z'
loop_
 _atom_site_type_symbol
 _atom_site_label
 _atom_site_symmetry_multiplicity
 _atom_site_fract_x
 _atom_site_fract_y
 _atom_site_fract_z
 _atom_site_occupancy
  Sc  Sc0  1  0.25000000  0.25000000  0.25000000  1
  In  In0  1  -0.00000000  -0.00000000  -0.00000000  1
  Ni  Ni0  1  0.62543190  0.62543190  0.62543190  1
  Ni  Ni1  1  0.62543190  0.62543190  0.12370431  1
  Ni  Ni2  1  0.62543190  0.12370431  0.62543190  1
  Ni  Ni3  1  0.12370431  0.62543190  0.62543190  1
loop_
_geom_bond_atom_site_label_1
_geom_bond_atom_site_label_2
_geom_bond_distance
_geom_bond_site_symmetry_2
In0 Ni3 2.832652 1_544
In0 Ni1 2.832652 1_445
In0 Ni2 2.832652 1_454
In0 Ni0 2.832652 1_445
In0 Ni0 2.832652 1_544
In0 Ni0 2.832652 1_454
In0 Ni3 2.832652 1_554
In0 Ni1 2.832652 1_455
In0 Ni2 2.832652 1_554
In0 Ni1 2.832652 1_545
In0 Ni3 2.832652 1_545
In0 Ni2 2.832652 1_455
In0 Sc0 2.959533 1_455
In0 Sc0 2.959533 1_555
In0 Sc0 2.959533 1_554
In0 Sc0 2.959533 1_545
Ni0 Ni1 2.408099 1_556
Ni0 Ni3 2.408099 1_655
Ni0 Ni2 2.408099 1_565
Ni0 Ni2 2.424798 1_555
Ni0 Ni3 2.424798 1_555
Ni0 Ni1 2.424798 1_555
Ni0 Sc0 2.834432 1_556
Ni0 Sc0 2.834432 1_565
Ni0 Sc0 2.834432 1_655
Ni1 Ni2 2.408099 1_564
Ni1 Ni3 2.408099 1_654
Ni1 Ni2 2.424798 1_555
Ni1 Ni3 2.424798 1_555
Ni1 Sc0 2.834432 1_565
Ni1 Sc0 2.834432 1_655
Ni1 Sc0 2.834432 1_555
Ni2 Ni3 2.408099 1_645
Ni2 Ni3 2.424798 1_555
Ni2 Sc0 2.834432 1_655
Ni2 Sc0 2.834432 1_556
Ni2 Sc0 2.834432 1_555
Ni3 Sc0 2.834432 1_565
Ni3 Sc0 2.834432 1_556
Ni3 Sc0 2.834432 1_555
