# generated using pymatgen
data_Nd3Ta(Cl3O2)2
_symmetry_space_group_name_H-M   'P 1'
_cell_length_a   12.92628149
_cell_length_b   12.92628149
_cell_length_c   3.95654700
_cell_angle_alpha   90.00000000
_cell_angle_beta   90.00000000
_cell_angle_gamma   119.99999739
_symmetry_Int_Tables_number   1
_chemical_formula_structural   Nd3Ta(Cl3O2)2
_chemical_formula_sum   'Nd6 Ta2 Cl12 O8'
_cell_volume   572.52465075
_cell_formula_units_Z   2
loop_
 _symmetry_equiv_pos_site_id
 _symmetry_equiv_pos_as_xyz
  1  'x, y, z'
loop_
 _atom_site_type_symbol
 _atom_site_label
 _atom_site_symmetry_multiplicity
 _atom_site_fract_x
 _atom_site_fract_y
 _atom_site_fract_z
 _atom_site_occupancy
  Nd  Nd0  1  0.71891000  0.11510700  0.75000000  1
  Nd  Nd1  1  0.28109000  0.88489300  0.25000000  1
  Nd  Nd2  1  0.39619700  0.28109000  0.75000000  1
  Nd  Nd3  1  0.60380300  0.71891000  0.25000000  1
  Nd  Nd4  1  0.88489300  0.60380300  0.75000000  1
  Nd  Nd5  1  0.11510700  0.39619700  0.25000000  1
  Ta  Ta0  1  0.33333300  0.66666700  0.75000000  1
  Ta  Ta1  1  0.66666700  0.33333300  0.25000000  1
  Cl  Cl0  1  0.93016000  0.37267300  0.75000000  1
  Cl  Cl1  1  0.06984000  0.62732700  0.25000000  1
  Cl  Cl2  1  0.44251300  0.06984000  0.75000000  1
  Cl  Cl3  1  0.55748700  0.93016000  0.25000000  1
  Cl  Cl4  1  0.62732700  0.55748700  0.75000000  1
  Cl  Cl5  1  0.37267300  0.44251300  0.25000000  1
  Cl  Cl6  1  0.75083400  0.89402000  0.75000000  1
  Cl  Cl7  1  0.24916600  0.10598000  0.25000000  1
  Cl  Cl8  1  0.14318600  0.24916600  0.75000000  1
  Cl  Cl9  1  0.85681400  0.75083400  0.25000000  1
  Cl  Cl10  1  0.10598000  0.85681400  0.75000000  1
  Cl  Cl11  1  0.89402000  0.14318600  0.25000000  1
  O  O0  1  0.49220100  0.69244100  0.75000000  1
  O  O1  1  0.50779900  0.30755900  0.25000000  1
  O  O2  1  0.20024000  0.50779900  0.75000000  1
  O  O3  1  0.79976000  0.49220100  0.25000000  1
  O  O4  1  0.30755900  0.79976000  0.75000000  1
  O  O5  1  0.69244100  0.20024000  0.25000000  1
  O  O6  1  0.66666700  0.33333300  0.75000000  1
  O  O7  1  0.33333300  0.66666700  0.25000000  1
loop_
_geom_bond_atom_site_label_1
_geom_bond_atom_site_label_2
_geom_bond_distance
_geom_bond_site_symmetry_2
Nd0 O5 2.370262 1_555
Nd0 O5 2.370262 1_556
Nd1 O4 2.370262 1_554
Nd1 O4 2.370262 1_555
Nd2 O1 2.370262 1_555
Nd2 O1 2.370262 1_556
Nd3 O0 2.370262 1_554
Nd3 O0 2.370262 1_555
Nd4 O3 2.370262 1_555
Nd4 O3 2.370262 1_556
Nd5 O2 2.370262 1_555
Nd5 O2 2.370262 1_554
Cl0 Nd5 2.999069 1_656
Cl0 Nd5 2.999069 1_655
Cl0 Nd0 3.074064 1_555
Cl0 Nd4 3.319129 1_555
Cl1 Nd4 2.999069 1_455
Cl1 Nd4 2.999069 1_454
Cl1 Nd1 3.074064 1_555
Cl1 Nd5 3.319129 1_555
Cl2 Nd1 2.999069 1_545
Cl2 Nd1 2.999069 1_546
Cl2 Nd2 3.074064 1_555
Cl2 Nd0 3.319129 1_555
Cl3 Nd0 2.999069 1_564
Cl3 Nd0 2.999069 1_565
Cl3 Nd3 3.074064 1_555
Cl3 Nd1 3.319129 1_555
Cl4 Nd3 2.999069 1_555
Cl4 Nd3 2.999069 1_556
Cl4 Nd4 3.074064 1_555
Cl4 Nd2 3.319129 1_555
Cl5 Nd2 2.999069 1_555
Cl5 Nd2 2.999069 1_554
Cl5 Nd5 3.074064 1_555
Cl5 Nd3 3.319129 1_555
Cl6 Nd3 2.889164 1_556
Cl6 Nd3 2.889164 1_555
Cl6 Nd0 3.084932 1_565
Cl7 Nd2 2.889164 1_554
Cl7 Nd2 2.889164 1_555
Cl7 Nd1 3.084932 1_545
Cl8 Nd5 2.889164 1_555
Cl8 Nd5 2.889164 1_556
Cl8 Nd2 3.084932 1_555
Cl9 Nd4 2.889164 1_555
Cl9 Nd4 2.889164 1_554
Cl9 Nd3 3.084932 1_555
Cl10 Nd1 2.889164 1_555
Cl10 Nd1 2.889164 1_556
Cl10 Nd4 3.084932 1_455
Cl11 Nd0 2.889164 1_554
Cl11 Nd0 2.889164 1_555
Cl11 Nd5 3.084932 1_655
O0 Ta0 1.908922 1_555
O1 Ta1 1.908922 1_555
O2 Ta0 1.908918 1_555
O3 Ta1 1.908918 1_555
O4 Ta0 1.908910 1_555
O5 Ta1 1.908910 1_555
O6 Ta1 1.978274 1_555
O6 Ta1 1.978274 1_556
O7 Ta0 1.978274 1_554
O7 Ta0 1.978274 1_555
