# generated using pymatgen
data_Sr7ZrN6
_symmetry_space_group_name_H-M   'P 1'
_cell_length_a   12.38352100
_cell_length_b   6.81959300
_cell_length_c   13.87955200
_cell_angle_alpha   90.00000000
_cell_angle_beta   90.00000000
_cell_angle_gamma   90.00000000
_symmetry_Int_Tables_number   1
_chemical_formula_structural   Sr7ZrN6
_chemical_formula_sum   'Sr28 Zr4 N24'
_cell_volume   1172.13612115
_cell_formula_units_Z   4
loop_
 _symmetry_equiv_pos_site_id
 _symmetry_equiv_pos_as_xyz
  1  'x, y, z'
loop_
 _atom_site_type_symbol
 _atom_site_label
 _atom_site_symmetry_multiplicity
 _atom_site_fract_x
 _atom_site_fract_y
 _atom_site_fract_z
 _atom_site_occupancy
  Sr  Sr0  1  0.04211800  0.72418500  0.99543000  1
  Sr  Sr1  1  0.45788200  0.77581500  0.49543000  1
  Sr  Sr2  1  0.54211800  0.77581500  0.00457000  1
  Sr  Sr3  1  0.95788200  0.72418500  0.50457000  1
  Sr  Sr4  1  0.95788200  0.27581500  0.00457000  1
  Sr  Sr5  1  0.54211800  0.22418500  0.50457000  1
  Sr  Sr6  1  0.45788200  0.22418500  0.99543000  1
  Sr  Sr7  1  0.04211800  0.27581500  0.49543000  1
  Sr  Sr8  1  0.22575600  0.85661900  0.62869300  1
  Sr  Sr9  1  0.27424400  0.64338100  0.12869300  1
  Sr  Sr10  1  0.72575600  0.64338100  0.37130700  1
  Sr  Sr11  1  0.77424400  0.85661900  0.87130700  1
  Sr  Sr12  1  0.77424400  0.14338100  0.37130700  1
  Sr  Sr13  1  0.72575600  0.35661900  0.87130700  1
  Sr  Sr14  1  0.27424400  0.35661900  0.62869300  1
  Sr  Sr15  1  0.22575600  0.14338100  0.12869300  1
  Sr  Sr16  1  0.27807600  0.61930000  0.87997600  1
  Sr  Sr17  1  0.22192400  0.88070000  0.37997600  1
  Sr  Sr18  1  0.77807600  0.88070000  0.12002400  1
  Sr  Sr19  1  0.72192400  0.61930000  0.62002400  1
  Sr  Sr20  1  0.72192400  0.38070000  0.12002400  1
  Sr  Sr21  1  0.77807600  0.11930000  0.62002400  1
  Sr  Sr22  1  0.22192400  0.11930000  0.87997600  1
  Sr  Sr23  1  0.27807600  0.38070000  0.37997600  1
  Sr  Sr24  1  0.00000000  0.48517800  0.75000000  1
  Sr  Sr25  1  0.50000000  0.01482200  0.25000000  1
  Sr  Sr26  1  0.00000000  0.51482200  0.25000000  1
  Sr  Sr27  1  0.50000000  0.98517800  0.75000000  1
  Zr  Zr0  1  0.00000000  0.98521900  0.75000000  1
  Zr  Zr1  1  0.50000000  0.51478100  0.25000000  1
  Zr  Zr2  1  0.00000000  0.01478100  0.25000000  1
  Zr  Zr3  1  0.50000000  0.48521900  0.75000000  1
  N  N0  1  0.11237800  0.79569800  0.81772000  1
  N  N1  1  0.38762200  0.70430200  0.31772000  1
  N  N2  1  0.61237800  0.70430200  0.18228000  1
  N  N3  1  0.88762200  0.79569800  0.68228000  1
  N  N4  1  0.88762200  0.20430200  0.18228000  1
  N  N5  1  0.61237800  0.29569800  0.68228000  1
  N  N6  1  0.38762200  0.29569800  0.81772000  1
  N  N7  1  0.11237800  0.20430200  0.31772000  1
  N  N8  1  0.15855200  0.60548600  0.50224200  1
  N  N9  1  0.34144800  0.89451400  0.00224200  1
  N  N10  1  0.65855200  0.89451400  0.49775800  1
  N  N11  1  0.84144800  0.60548600  0.99775800  1
  N  N12  1  0.84144800  0.39451400  0.49775800  1
  N  N13  1  0.65855200  0.10548600  0.99775800  1
  N  N14  1  0.34144800  0.10548600  0.50224200  1
  N  N15  1  0.15855200  0.39451400  0.00224200  1
  N  N16  1  0.40432900  0.67387400  0.66634800  1
  N  N17  1  0.09567100  0.82612600  0.16634800  1
  N  N18  1  0.90432900  0.82612600  0.33365200  1
  N  N19  1  0.59567100  0.67387400  0.83365200  1
  N  N20  1  0.59567100  0.32612600  0.33365200  1
  N  N21  1  0.90432900  0.17387400  0.83365200  1
  N  N22  1  0.09567100  0.17387400  0.66634800  1
  N  N23  1  0.40432900  0.32612600  0.16634800  1
loop_
_geom_bond_atom_site_label_1
_geom_bond_atom_site_label_2
_geom_bond_distance
_geom_bond_site_symmetry_2
N0 Zr0 2.119091 1_555
N0 Sr16 2.530644 1_555
N0 Sr0 2.660574 1_555
N0 Sr24 2.702669 1_555
N0 Sr22 2.730756 1_565
N0 Sr8 3.004530 1_555
N1 Zr1 2.119091 1_555
N1 Sr17 2.530644 1_555
N1 Sr1 2.660574 1_555
N1 Sr25 2.702669 1_565
N1 Sr23 2.730756 1_555
N1 Sr9 3.004530 1_555
N2 Zr1 2.119091 1_555
N2 Sr18 2.530644 1_555
N2 Sr2 2.660574 1_555
N2 Sr25 2.702669 1_565
N2 Sr20 2.730756 1_555
N2 Sr10 3.004530 1_555
N3 Zr0 2.119091 1_655
N3 Sr19 2.530644 1_555
N3 Sr3 2.660574 1_555
N3 Sr24 2.702669 1_655
N3 Sr21 2.730756 1_565
N3 Sr11 3.004530 1_555
N4 Zr2 2.119091 1_655
N4 Sr20 2.530644 1_555
N4 Sr4 2.660574 1_555
N4 Sr26 2.702669 1_655
N4 Sr18 2.730756 1_545
N4 Sr12 3.004530 1_555
N5 Zr3 2.119091 1_555
N5 Sr21 2.530644 1_555
N5 Sr5 2.660574 1_555
N5 Sr27 2.702669 1_545
N5 Sr19 2.730756 1_555
N5 Sr13 3.004530 1_555
N6 Zr3 2.119091 1_555
N6 Sr22 2.530644 1_555
N6 Sr6 2.660574 1_555
N6 Sr27 2.702669 1_545
N6 Sr16 2.730756 1_555
N6 Sr14 3.004530 1_555
N7 Zr2 2.119091 1_555
N7 Sr23 2.530644 1_555
N7 Sr7 2.660574 1_555
N7 Sr26 2.702669 1_555
N7 Sr17 2.730756 1_545
N7 Sr15 3.004530 1_555
N8 Sr8 2.589594 1_555
N8 Sr3 2.613720 1_455
N8 Sr17 2.649192 1_555
N8 Sr7 2.672529 1_555
N8 Sr23 2.724062 1_555
N8 Sr14 2.830771 1_555
N9 Sr9 2.589594 1_555
N9 Sr2 2.613720 1_555
N9 Sr16 2.649192 1_554
N9 Sr6 2.672529 1_564
N9 Sr22 2.724062 1_564
N9 Sr15 2.830771 1_565
N10 Sr10 2.589594 1_555
N10 Sr1 2.613720 1_555
N10 Sr19 2.649192 1_555
N10 Sr5 2.672529 1_565
N10 Sr21 2.724062 1_565
N10 Sr12 2.830771 1_565
N11 Sr11 2.589594 1_555
N11 Sr0 2.613720 1_655
N11 Sr18 2.649192 1_556
N11 Sr4 2.672529 1_556
N11 Sr20 2.724062 1_556
N11 Sr13 2.830771 1_555
N12 Sr12 2.589594 1_555
N12 Sr7 2.613720 1_655
N12 Sr21 2.649192 1_555
N12 Sr3 2.672529 1_555
N12 Sr19 2.724062 1_555
N12 Sr10 2.830771 1_555
N13 Sr13 2.589594 1_555
N13 Sr6 2.613720 1_555
N13 Sr20 2.649192 1_556
N13 Sr2 2.672529 1_546
N13 Sr18 2.724062 1_546
N13 Sr11 2.830771 1_545
N14 Sr14 2.589594 1_555
N14 Sr5 2.613720 1_555
N14 Sr23 2.649192 1_555
N14 Sr1 2.672529 1_545
N14 Sr17 2.724062 1_545
N14 Sr8 2.830771 1_545
N15 Sr15 2.589594 1_555
N15 Sr4 2.613720 1_455
N15 Sr22 2.649192 1_554
N15 Sr0 2.672529 1_554
N15 Sr16 2.724062 1_554
N15 Sr9 2.830771 1_555
N16 Zr3 2.099255 1_555
N16 Sr1 2.559442 1_555
N16 Sr8 2.591602 1_555
N16 Sr27 2.694188 1_555
N16 Sr14 2.747568 1_555
N17 Zr2 2.099255 1_565
N17 Sr0 2.559442 1_554
N17 Sr9 2.591602 1_555
N17 Sr26 2.694188 1_555
N17 Sr15 2.747568 1_565
N18 Zr2 2.099255 1_665
N18 Sr3 2.559442 1_555
N18 Sr10 2.591602 1_555
N18 Sr26 2.694188 1_655
N18 Sr12 2.747568 1_565
N19 Zr3 2.099255 1_555
N19 Sr2 2.559442 1_556
N19 Sr11 2.591602 1_555
N19 Sr27 2.694188 1_555
N19 Sr13 2.747568 1_555
N20 Zr1 2.099255 1_555
N20 Sr5 2.559442 1_555
N20 Sr12 2.591602 1_555
N20 Sr25 2.694188 1_555
N20 Sr10 2.747568 1_555
N21 Zr0 2.099255 1_645
N21 Sr4 2.559442 1_556
N21 Sr13 2.591602 1_555
N21 Sr24 2.694188 1_655
N21 Sr11 2.747568 1_545
N22 Zr0 2.099255 1_545
N22 Sr7 2.559442 1_555
N22 Sr14 2.591602 1_555
N22 Sr24 2.694188 1_555
N22 Sr8 2.747568 1_545
N23 Zr1 2.099255 1_555
N23 Sr6 2.559442 1_554
N23 Sr15 2.591602 1_555
N23 Sr25 2.694188 1_555
N23 Sr9 2.747568 1_555
