# generated using pymatgen
data_MgAl2P3NO12
_symmetry_space_group_name_H-M   'P 1'
_cell_length_a   9.33629811
_cell_length_b   9.33629811
_cell_length_c   9.20067300
_cell_angle_alpha   90.00000000
_cell_angle_beta   90.00000000
_cell_angle_gamma   90.95903443
_symmetry_Int_Tables_number   1
_chemical_formula_structural   MgAl2P3NO12
_chemical_formula_sum   'Mg2 Al4 P6 N2 O24'
_cell_volume   801.87777171
_cell_formula_units_Z   2
loop_
 _symmetry_equiv_pos_site_id
 _symmetry_equiv_pos_as_xyz
  1  'x, y, z'
loop_
 _atom_site_type_symbol
 _atom_site_label
 _atom_site_symmetry_multiplicity
 _atom_site_fract_x
 _atom_site_fract_y
 _atom_site_fract_z
 _atom_site_occupancy
  Mg  Mg0  1  0.50488400  0.24427900  0.75000000  1
  Mg  Mg1  1  0.75572100  0.49511600  0.25000000  1
  Al  Al0  1  0.00302500  0.99697500  0.50000000  1
  Al  Al1  1  0.24404700  0.50383300  0.25000000  1
  Al  Al2  1  0.00302500  0.99697500  0.00000000  1
  Al  Al3  1  0.49616700  0.75595300  0.75000000  1
  P  P0  1  0.00809900  0.24391900  0.25000000  1
  P  P1  1  0.75608100  0.99190100  0.75000000  1
  P  P2  1  0.48910700  0.51089300  0.50000000  1
  P  P3  1  0.24636500  0.99319000  0.75000000  1
  P  P4  1  0.48910700  0.51089300  0.00000000  1
  P  P5  1  0.00681000  0.75363500  0.25000000  1
  N  N0  1  0.49998500  0.00011000  0.25000000  1
  N  N1  1  0.99989000  0.50001500  0.75000000  1
  O  O0  1  0.15173100  0.98346600  0.88677100  1
  O  O1  1  0.48389200  0.64458700  0.90204500  1
  O  O2  1  0.13786300  0.65571600  0.25000000  1
  O  O3  1  0.85089800  0.98364900  0.61193800  1
  O  O4  1  0.48389200  0.64458700  0.59795500  1
  O  O5  1  0.86952700  0.66546700  0.25000000  1
  O  O6  1  0.85089800  0.98364900  0.88806200  1
  O  O7  1  0.49094600  0.37362800  0.91150400  1
  O  O8  1  0.87231000  0.32968000  0.25000000  1
  O  O9  1  0.15173100  0.98346600  0.61322900  1
  O  O10  1  0.49094600  0.37362800  0.58849600  1
  O  O11  1  0.14190800  0.34454300  0.25000000  1
  O  O12  1  0.01653400  0.84826900  0.38677100  1
  O  O13  1  0.35541300  0.51610800  0.40204500  1
  O  O14  1  0.34428400  0.86213700  0.75000000  1
  O  O15  1  0.01635100  0.14910200  0.11193800  1
  O  O16  1  0.35541300  0.51610800  0.09795500  1
  O  O17  1  0.33453300  0.13047300  0.75000000  1
  O  O18  1  0.01635100  0.14910200  0.38806200  1
  O  O19  1  0.62637200  0.50905400  0.41150400  1
  O  O20  1  0.67032000  0.12769000  0.75000000  1
  O  O21  1  0.01653400  0.84826900  0.11322900  1
  O  O22  1  0.62637200  0.50905400  0.08849600  1
  O  O23  1  0.65545700  0.85809200  0.75000000  1
loop_
_geom_bond_atom_site_label_1
_geom_bond_atom_site_label_2
_geom_bond_distance
_geom_bond_site_symmetry_2
Mg0 O17 1.897872 1_555
Mg0 O20 1.904416 1_555
Mg0 O10 1.920579 1_555
Mg0 O7 1.920579 1_555
Mg1 O5 1.897872 1_555
Mg1 O8 1.904416 1_555
Mg1 O19 1.920579 1_555
Mg1 O22 1.920579 1_555
Al0 O9 1.742020 1_555
Al0 O12 1.742020 1_555
Al0 O18 1.757137 1_565
Al0 O3 1.757137 1_455
Al1 O2 1.743749 1_555
Al1 O13 1.745619 1_555
Al1 O16 1.745619 1_555
Al1 O11 1.753163 1_555
Al2 O0 1.742020 1_554
Al2 O21 1.742020 1_555
Al2 O15 1.757137 1_565
Al2 O6 1.757137 1_454
Al3 O14 1.743749 1_555
Al3 O4 1.745619 1_555
Al3 O1 1.745619 1_555
Al3 O23 1.753163 1_555
O0 P3 1.539389 1_555
O1 P4 1.541000 1_556
O2 P5 1.539572 1_555
O3 P1 1.550947 1_555
O4 P2 1.541000 1_555
O5 P5 1.511645 1_655
O6 P1 1.550947 1_555
O7 P4 1.518668 1_556
O8 P0 1.510734 1_655
O9 P3 1.539389 1_555
O10 P2 1.518668 1_555
O11 P0 1.550481 1_555
O12 P5 1.539389 1_555
O13 P2 1.541000 1_555
O14 P3 1.539572 1_555
O15 P0 1.550947 1_555
O16 P4 1.541000 1_555
O17 P3 1.511645 1_545
O18 P0 1.550947 1_555
O19 P2 1.518668 1_555
O20 P1 1.510734 1_545
O21 P5 1.539389 1_555
O22 P4 1.518668 1_555
O23 P1 1.550481 1_555
