# generated using pymatgen
data_ErSi3Ni5
_symmetry_space_group_name_H-M   'P 1'
_cell_length_a   3.77911700
_cell_length_b   6.64655500
_cell_length_c   18.67202500
_cell_angle_alpha   90.00000000
_cell_angle_beta   90.00000000
_cell_angle_gamma   90.00000000
_symmetry_Int_Tables_number   1
_chemical_formula_structural   ErSi3Ni5
_chemical_formula_sum   'Er4 Si12 Ni20'
_cell_volume   469.00595905
_cell_formula_units_Z   4
loop_
 _symmetry_equiv_pos_site_id
 _symmetry_equiv_pos_as_xyz
  1  'x, y, z'
loop_
 _atom_site_type_symbol
 _atom_site_label
 _atom_site_symmetry_multiplicity
 _atom_site_fract_x
 _atom_site_fract_y
 _atom_site_fract_z
 _atom_site_occupancy
  Er  Er0  1  0.25000000  0.62230900  0.64407200  1
  Er  Er1  1  0.25000000  0.87769100  0.14407200  1
  Er  Er2  1  0.75000000  0.37769100  0.35592800  1
  Er  Er3  1  0.75000000  0.12230900  0.85592800  1
  Si  Si0  1  0.25000000  0.41312900  0.91497300  1
  Si  Si1  1  0.25000000  0.08687100  0.41497300  1
  Si  Si2  1  0.75000000  0.58687100  0.08502700  1
  Si  Si3  1  0.75000000  0.91312900  0.58502700  1
  Si  Si4  1  0.25000000  0.12115900  0.73757300  1
  Si  Si5  1  0.25000000  0.37884100  0.23757300  1
  Si  Si6  1  0.75000000  0.87884100  0.26242700  1
  Si  Si7  1  0.75000000  0.62115900  0.76242700  1
  Si  Si8  1  0.25000000  0.84693200  0.92457900  1
  Si  Si9  1  0.25000000  0.65306800  0.42457900  1
  Si  Si10  1  0.75000000  0.15306800  0.07542100  1
  Si  Si11  1  0.75000000  0.34693200  0.57542100  1
  Ni  Ni0  1  0.25000000  0.81588500  0.79978500  1
  Ni  Ni1  1  0.25000000  0.68411500  0.29978500  1
  Ni  Ni2  1  0.75000000  0.18411500  0.20021500  1
  Ni  Ni3  1  0.75000000  0.31588500  0.70021500  1
  Ni  Ni4  1  0.25000000  0.13147000  0.99460300  1
  Ni  Ni5  1  0.25000000  0.36853000  0.49460300  1
  Ni  Ni6  1  0.75000000  0.86853000  0.00539700  1
  Ni  Ni7  1  0.75000000  0.63147000  0.50539700  1
  Ni  Ni8  1  0.25000000  0.88188000  0.51377600  1
  Ni  Ni9  1  0.25000000  0.61812000  0.01377600  1
  Ni  Ni10  1  0.75000000  0.11812000  0.48622400  1
  Ni  Ni11  1  0.75000000  0.38188000  0.98622400  1
  Ni  Ni12  1  0.25000000  0.14335500  0.61447400  1
  Ni  Ni13  1  0.25000000  0.35664500  0.11447400  1
  Ni  Ni14  1  0.75000000  0.85664500  0.38552600  1
  Ni  Ni15  1  0.75000000  0.64335500  0.88552600  1
  Ni  Ni16  1  0.25000000  0.42917700  0.79429200  1
  Ni  Ni17  1  0.25000000  0.07082300  0.29429200  1
  Ni  Ni18  1  0.75000000  0.57082300  0.20570800  1
  Ni  Ni19  1  0.75000000  0.92917700  0.70570800  1
loop_
_geom_bond_atom_site_label_1
_geom_bond_atom_site_label_2
_geom_bond_distance
_geom_bond_site_symmetry_2
Er0 Si7 2.907623 1_455
Er0 Si7 2.907623 1_555
Er0 Si3 2.919283 1_455
Er0 Si3 2.919283 1_555
Er0 Si11 2.926364 1_555
Er0 Si11 2.926364 1_455
Er0 Ni3 2.969406 1_455
Er0 Ni3 2.969406 1_555
Er0 Ni8 2.982524 1_555
Er0 Ni19 3.009146 1_555
Er0 Ni19 3.009146 1_455
Er0 Ni16 3.084691 1_555
Er0 Ni0 3.179433 1_555
Er0 Ni7 3.206062 1_455
Er0 Ni7 3.206062 1_555
Er0 Ni12 3.231010 1_555
Er0 Ni5 3.261013 1_555
Er1 Si6 2.907623 1_455
Er1 Si6 2.907623 1_555
Er1 Si2 2.919283 1_455
Er1 Si2 2.919283 1_555
Er1 Si10 2.926364 1_565
Er1 Si10 2.926364 1_465
Er1 Ni2 2.969406 1_565
Er1 Ni2 2.969406 1_465
Er1 Ni9 2.982524 1_555
Er1 Ni18 3.009146 1_555
Er1 Ni18 3.009146 1_455
Er1 Ni17 3.084691 1_565
Er1 Ni1 3.179433 1_555
Er1 Ni6 3.206062 1_455
Er1 Ni6 3.206062 1_555
Er1 Ni13 3.231010 1_565
Er1 Ni4 3.261013 1_564
Er2 Si5 2.907623 1_555
Er2 Si5 2.907623 1_655
Er2 Si1 2.919283 1_555
Er2 Si1 2.919283 1_655
Er2 Si9 2.926364 1_555
Er2 Si9 2.926364 1_655
Er2 Ni1 2.969406 1_555
Er2 Ni1 2.969406 1_655
Er2 Ni10 2.982524 1_555
Er2 Ni17 3.009146 1_655
Er2 Ni17 3.009146 1_555
Er2 Ni18 3.084691 1_555
Er2 Ni2 3.179433 1_555
Er2 Ni5 3.206062 1_655
Er2 Ni5 3.206062 1_555
Er2 Ni14 3.231010 1_555
Er2 Ni7 3.261013 1_555
Er3 Si4 2.907623 1_655
Er3 Si4 2.907623 1_555
Er3 Si0 2.919283 1_555
Er3 Si0 2.919283 1_655
Er3 Si8 2.926364 1_545
Er3 Si8 2.926364 1_645
Er3 Ni0 2.969406 1_545
Er3 Ni0 2.969406 1_645
Er3 Ni11 2.982524 1_555
Er3 Ni16 3.009146 1_555
Er3 Ni16 3.009146 1_655
Er3 Ni19 3.084691 1_545
Er3 Ni3 3.179433 1_555
Er3 Ni4 3.206062 1_555
Er3 Ni4 3.206062 1_655
Er3 Ni15 3.231010 1_545
Er3 Ni6 3.261013 1_546
Ni0 Si4 2.338011 1_565
Ni0 Si8 2.339276 1_555
Ni0 Si7 2.394182 1_455
Ni0 Si7 2.394182 1_555
Ni0 Ni16 2.572322 1_555
Ni0 Ni19 2.687585 1_555
Ni0 Ni19 2.687585 1_455
Ni0 Ni15 2.729192 1_555
Ni0 Ni15 2.729192 1_455
Ni1 Si5 2.338011 1_555
Ni1 Si9 2.339276 1_555
Ni1 Si6 2.394182 1_455
Ni1 Si6 2.394182 1_555
Ni1 Ni17 2.572322 1_565
Ni1 Ni18 2.687585 1_455
Ni1 Ni18 2.687585 1_555
Ni1 Ni14 2.729192 1_555
Ni1 Ni14 2.729192 1_455
Ni2 Si6 2.338011 1_545
Ni2 Si10 2.339276 1_555
Ni2 Si5 2.394182 1_555
Ni2 Si5 2.394182 1_655
Ni3 Si7 2.338011 1_555
Ni3 Si11 2.339276 1_555
Ni3 Si4 2.394182 1_555
Ni3 Si4 2.394182 1_655
Ni4 Si8 2.299165 1_545
Ni4 Si0 2.390680 1_555
Ni4 Si10 2.422442 1_556
Ni4 Si10 2.422442 1_456
Ni4 Ni6 2.581727 1_446
Ni4 Ni6 2.581727 1_546
Ni5 Si9 2.299165 1_555
Ni5 Si1 2.390680 1_555
Ni5 Si11 2.422442 1_455
Ni5 Si11 2.422442 1_555
Ni5 Ni7 2.581727 1_455
Ni5 Ni7 2.581727 1_555
Ni6 Si10 2.299165 1_565
Ni6 Si2 2.390680 1_555
Ni6 Si8 2.422442 1_554
Ni6 Si8 2.422442 1_654
Ni6 Ni9 2.522898 1_555
Ni6 Ni9 2.522898 1_655
Ni7 Si11 2.299165 1_555
Ni7 Si3 2.390680 1_555
Ni7 Si9 2.422442 1_655
Ni7 Si9 2.422442 1_555
Ni7 Ni8 2.522898 1_555
Ni7 Ni8 2.522898 1_655
Ni8 Si9 2.255376 1_555
Ni8 Si1 2.293434 1_565
Ni8 Si3 2.320245 1_555
Ni8 Si3 2.320245 1_455
Ni9 Si8 2.255376 1_554
Ni9 Si0 2.293434 1_554
Ni9 Si2 2.320245 1_555
Ni9 Si2 2.320245 1_455
Ni10 Si11 2.255376 1_555
Ni10 Si3 2.293434 1_545
Ni10 Si1 2.320245 1_655
Ni10 Si1 2.320245 1_555
Ni10 Ni8 2.510092 1_645
Ni10 Ni8 2.510092 1_545
Ni10 Ni5 2.522898 1_555
Ni10 Ni5 2.522898 1_655
Ni10 Ni14 2.560393 1_545
Ni11 Si10 2.255376 1_556
Ni11 Si2 2.293434 1_556
Ni11 Si0 2.320245 1_655
Ni11 Si0 2.320245 1_555
Ni11 Ni9 2.510092 1_656
Ni11 Ni9 2.510092 1_556
Ni11 Ni4 2.522898 1_555
Ni11 Ni4 2.522898 1_655
Ni11 Ni15 2.560393 1_555
Ni12 Si4 2.303237 1_555
Ni12 Si11 2.435776 1_455
Ni12 Si11 2.435776 1_555
Ni12 Si3 2.492848 1_545
Ni12 Si3 2.492848 1_445
Ni12 Ni8 2.560393 1_545
Ni12 Ni5 2.692512 1_555
Ni12 Ni3 2.729192 1_455
Ni12 Ni3 2.729192 1_555
Ni12 Ni19 2.915288 1_445
Ni12 Ni19 2.915288 1_545
Ni13 Si5 2.303237 1_555
Ni13 Si10 2.435776 1_455
Ni13 Si10 2.435776 1_555
Ni13 Si2 2.492848 1_555
Ni13 Si2 2.492848 1_455
Ni13 Ni9 2.560393 1_555
Ni13 Ni4 2.692512 1_554
Ni13 Ni2 2.729192 1_455
Ni13 Ni2 2.729192 1_555
Ni13 Ni18 2.915288 1_455
Ni13 Ni18 2.915288 1_555
Ni14 Si6 2.303237 1_555
Ni14 Si9 2.435776 1_655
Ni14 Si9 2.435776 1_555
Ni14 Si1 2.492848 1_565
Ni14 Si1 2.492848 1_665
Ni14 Ni7 2.692512 1_555
Ni14 Ni17 2.915288 1_665
Ni14 Ni17 2.915288 1_565
Ni15 Si7 2.303237 1_555
Ni15 Si8 2.435776 1_655
Ni15 Si8 2.435776 1_555
Ni15 Si0 2.492848 1_655
Ni15 Si0 2.492848 1_555
Ni15 Ni6 2.692512 1_556
Ni15 Ni16 2.915288 1_555
Ni15 Ni16 2.915288 1_655
Ni16 Si0 2.255882 1_555
Ni16 Si4 2.304967 1_555
Ni16 Si7 2.356409 1_555
Ni16 Si7 2.356409 1_455
Ni16 Ni3 2.687585 1_555
Ni16 Ni3 2.687585 1_455
Ni17 Si1 2.255882 1_555
Ni17 Si5 2.304967 1_555
Ni17 Si6 2.356409 1_445
Ni17 Si6 2.356409 1_545
Ni17 Ni2 2.687585 1_455
Ni17 Ni2 2.687585 1_555
Ni18 Si2 2.255882 1_555
Ni18 Si6 2.304967 1_555
Ni18 Si5 2.356409 1_555
Ni18 Si5 2.356409 1_655
Ni18 Ni2 2.572322 1_555
Ni19 Si3 2.255882 1_555
Ni19 Si7 2.304967 1_555
Ni19 Si4 2.356409 1_565
Ni19 Si4 2.356409 1_665
Ni19 Ni3 2.572322 1_565
