# generated using pymatgen
data_Si6Sb2H36(C4O)3
_symmetry_space_group_name_H-M   'P 1'
_cell_length_a   10.31888800
_cell_length_b   10.32498313
_cell_length_c   17.39542630
_cell_angle_alpha   92.55085271
_cell_angle_beta   90.24358500
_cell_angle_gamma   119.23476165
_symmetry_Int_Tables_number   1
_chemical_formula_structural   Si6Sb2H36(C4O)3
_chemical_formula_sum   'Si12 Sb4 H72 C24 O6'
_cell_volume   1614.96023232
_cell_formula_units_Z   2
loop_
 _symmetry_equiv_pos_site_id
 _symmetry_equiv_pos_as_xyz
  1  'x, y, z'
loop_
 _atom_site_type_symbol
 _atom_site_label
 _atom_site_symmetry_multiplicity
 _atom_site_fract_x
 _atom_site_fract_y
 _atom_site_fract_z
 _atom_site_occupancy
  Si  Si0  1  0.56640500  0.26070300  0.85657900  1
  Si  Si1  1  0.43359500  0.73929700  0.14342100  1
  Si  Si2  1  0.12530000  0.97384400  0.83471600  1
  Si  Si3  1  0.87470000  0.02615600  0.16528400  1
  Si  Si4  1  0.27889700  0.41298900  0.82220200  1
  Si  Si5  1  0.72110300  0.58701100  0.17779800  1
  Si  Si6  1  0.56704700  0.17080700  0.67531500  1
  Si  Si7  1  0.43295300  0.82919300  0.32468500  1
  Si  Si8  1  0.13043600  0.98019700  0.64903400  1
  Si  Si9  1  0.86956400  0.01980300  0.35096600  1
  Si  Si10  1  0.37914200  0.41746700  0.64597700  1
  Si  Si11  1  0.62085800  0.58253300  0.35402300  1
  Sb  Sb0  1  0.31160200  0.22625400  0.90673400  1
  Sb  Sb1  1  0.68839800  0.77374600  0.09326600  1
  Sb  Sb2  1  0.36947300  0.17738000  0.58401600  1
  Sb  Sb3  1  0.63052700  0.82262000  0.41598400  1
  H  H0  1  0.79929600  0.44498700  0.92871100  1
  H  H1  1  0.20070400  0.55501300  0.07128900  1
  H  H2  1  0.77603500  0.51603700  0.84167000  1
  H  H3  1  0.22396500  0.48396300  0.15833000  1
  H  H4  1  0.67376000  0.51540800  0.92412700  1
  H  H5  1  0.32624000  0.48459200  0.07587300  1
  H  H6  1  0.52758400  0.00538600  0.87352400  1
  H  H7  1  0.47241600  0.99461400  0.12647600  1
  H  H8  1  0.71882600  0.14100900  0.88057700  1
  H  H9  1  0.28117400  0.85899100  0.11942300  1
  H  H10  1  0.60325500  0.11876300  0.96016600  1
  H  H11  1  0.39674500  0.88123700  0.03983400  1
  H  H12  1  0.08962500  0.71878600  0.84266300  1
  H  H13  1  0.91037500  0.28121400  0.15733700  1
  H  H14  1  0.26005800  0.84969100  0.89043100  1
  H  H15  1  0.73994200  0.15030900  0.10956900  1
  H  H16  1  0.08851300  0.79736800  0.93568600  1
  H  H17  1  0.91148700  0.20263200  0.06431400  1
  H  H18  1  0.91401700  0.02903300  0.83464800  1
  H  H19  1  0.08598300  0.97096700  0.16535200  1
  H  H20  1  0.85630800  0.84176300  0.80374900  1
  H  H21  1  0.14369200  0.15823700  0.19625100  1
  H  H22  1  0.88849600  0.89663700  0.90372800  1
  H  H23  1  0.11150400  0.10336300  0.09627200  1
  H  H24  1  0.38771900  0.64925000  0.90448200  1
  H  H25  1  0.61228100  0.35075000  0.09551800  1
  H  H26  1  0.53053000  0.61982400  0.86544200  1
  H  H27  1  0.46947000  0.38017600  0.13455800  1
  H  H28  1  0.43379200  0.68218100  0.80582300  1
  H  H29  1  0.56620800  0.31781900  0.19417700  1
  H  H30  1  0.07920600  0.43417300  0.89283500  1
  H  H31  1  0.92079400  0.56582700  0.10716500  1
  H  H32  1  0.06796800  0.45676700  0.79259800  1
  H  H33  1  0.93203200  0.54323300  0.20740200  1
  H  H34  1  0.99933400  0.27598300  0.82710100  1
  H  H35  1  0.00066600  0.72401700  0.17289900  1
  H  H36  1  0.77855600  0.39327100  0.61991700  1
  H  H37  1  0.22144400  0.60672900  0.38008300  1
  H  H38  1  0.84151200  0.29344100  0.67597700  1
  H  H39  1  0.15848800  0.70655900  0.32402300  1
  H  H40  1  0.76634200  0.22520800  0.58097200  1
  H  H41  1  0.23365800  0.77479200  0.41902800  1
  H  H42  1  0.51367800  0.92041200  0.62425500  1
  H  H43  1  0.48632200  0.07958800  0.37574500  1
  H  H44  1  0.61731100  0.97022600  0.71318100  1
  H  H45  1  0.38268900  0.02977400  0.28681900  1
  H  H46  1  0.42270800  0.90910700  0.71314900  1
  H  H47  1  0.57729200  0.09089300  0.28685100  1
  H  H48  1  0.16253000  0.76504000  0.60070200  1
  H  H49  1  0.83747000  0.23496000  0.39929800  1
  H  H50  1  0.98017500  0.70572400  0.63414600  1
  H  H51  1  0.01982500  0.29427600  0.36585400  1
  H  H52  1  0.03069000  0.78213500  0.54220000  1
  H  H53  1  0.96931000  0.21786500  0.45780000  1
  H  H54  1  0.96390900  0.04148100  0.57333000  1
  H  H55  1  0.03609100  0.95851900  0.42667000  1
  H  H56  1  0.87315100  0.94149200  0.65503400  1
  H  H57  1  0.12684900  0.05850800  0.34496600  1
  H  H58  1  0.00799800  0.13426600  0.66665500  1
  H  H59  1  0.99200200  0.86573400  0.33334500  1
  H  H60  1  0.16714300  0.39012000  0.56211800  1
  H  H61  1  0.83285700  0.60988000  0.43788200  1
  H  H62  1  0.25853900  0.56502800  0.61465900  1
  H  H63  1  0.74146100  0.43497200  0.38534100  1
  H  H64  1  0.34068200  0.53387600  0.53125600  1
  H  H65  1  0.65931800  0.46612400  0.46874400  1
  H  H66  1  0.64141800  0.57212700  0.60734400  1
  H  H67  1  0.35858200  0.42787300  0.39265600  1
  H  H68  1  0.58327900  0.67866100  0.66585100  1
  H  H69  1  0.41672100  0.32133900  0.33414900  1
  H  H70  1  0.63043900  0.55254200  0.70908400  1
  H  H71  1  0.36956100  0.44745800  0.29091600  1
  C  C0  1  0.71718700  0.45230000  0.89121400  1
  C  C1  1  0.28281300  0.54770000  0.10878600  1
  C  C2  1  0.60675200  0.11769400  0.89707900  1
  C  C3  1  0.39324800  0.88230600  0.10292100  1
  C  C4  1  0.14373700  0.82121500  0.88018000  1
  C  C5  1  0.85626300  0.17878500  0.11982000  1
  C  C6  1  0.92773400  0.93244800  0.84587000  1
  C  C7  1  0.07226600  0.06755200  0.15413000  1
  C  C8  1  0.42133700  0.60931000  0.85288300  1
  C  C9  1  0.57866300  0.39069000  0.14711700  1
  C  C10  1  0.08832100  0.39218700  0.83509900  1
  C  C11  1  0.91167900  0.60781300  0.16490100  1
  C  C12  1  0.75579600  0.28146000  0.63373700  1
  C  C13  1  0.24420400  0.71854000  0.36626300  1
  C  C14  1  0.52562200  0.97328400  0.68215500  1
  C  C15  1  0.47437800  0.02671600  0.31784500  1
  C  C16  1  0.07127200  0.79106800  0.60181200  1
  C  C17  1  0.92872800  0.20893200  0.39818800  1
  C  C18  1  0.97952000  0.02921500  0.63457200  1
  C  C19  1  0.02048000  0.97078500  0.36542800  1
  C  C20  1  0.27645200  0.48143200  0.58191500  1
  C  C21  1  0.72354800  0.51856800  0.41808500  1
  C  C22  1  0.57785400  0.56970200  0.65827200  1
  C  C23  1  0.42214600  0.43029800  0.34172800  1
  O  O0  1  0.57333200  0.24704200  0.76200800  1
  O  O1  1  0.42666800  0.75295800  0.23799200  1
  O  O2  1  0.15756700  0.96946800  0.74178900  1
  O  O3  1  0.84243300  0.03053200  0.25821100  1
  O  O4  1  0.29644400  0.38487300  0.72964400  1
  O  O5  1  0.70355600  0.61512700  0.27035600  1
loop_
_geom_bond_atom_site_label_1
_geom_bond_atom_site_label_2
_geom_bond_distance
_geom_bond_site_symmetry_2
Sb0 Si2 2.617682 1_545
Sb0 Si4 2.622441 1_555
Sb0 Si0 2.633342 1_555
Sb1 Si3 2.617682 1_565
Sb1 Si5 2.622441 1_555
Sb1 Si1 2.633342 1_555
Sb2 Si6 2.607801 1_555
Sb2 Si8 2.613763 1_545
Sb2 Si10 2.614628 1_555
Sb3 Si7 2.607801 1_555
Sb3 Si9 2.613763 1_565
Sb3 Si11 2.614628 1_555
C0 H4 1.098799 1_555
C0 H2 1.099629 1_555
C0 H0 1.100551 1_555
C0 Si0 1.891221 1_555
C1 H5 1.098799 1_555
C1 H3 1.099629 1_555
C1 H1 1.100551 1_555
C1 Si1 1.891221 1_555
C2 H10 1.097913 1_555
C2 H6 1.099751 1_555
C2 H8 1.102197 1_555
C2 Si0 1.881621 1_555
C3 H11 1.097913 1_555
C3 H7 1.099751 1_555
C3 H9 1.102197 1_555
C3 Si1 1.881621 1_555
C4 H16 1.098377 1_555
C4 H14 1.098987 1_555
C4 H12 1.102191 1_555
C4 Si2 1.883509 1_555
C5 H17 1.098377 1_555
C5 H15 1.098987 1_555
C5 H13 1.102191 1_555
C5 Si3 1.883509 1_555
C6 H22 1.097260 1_555
C6 H18 1.098907 1_565
C6 H20 1.103201 1_555
C6 Si2 1.880452 1_655
C7 H23 1.097260 1_555
C7 H19 1.098907 1_545
C7 H21 1.103201 1_555
C7 Si3 1.880452 1_455
C8 H26 1.097907 1_555
C8 H24 1.097949 1_555
C8 H28 1.101831 1_555
C8 Si4 1.881720 1_555
C9 H27 1.097907 1_555
C9 H25 1.097949 1_555
C9 H29 1.101831 1_555
C9 Si5 1.881720 1_555
C10 H30 1.098796 1_555
C10 H34 1.099994 1_455
C10 H32 1.102116 1_555
C10 Si4 1.886581 1_555
C11 H31 1.098796 1_555
C11 H35 1.099994 1_655
C11 H33 1.102116 1_555
C11 Si5 1.886581 1_555
C12 H36 1.098203 1_555
C12 H40 1.098540 1_555
C12 H38 1.103198 1_555
C12 Si6 1.879855 1_555
C13 H37 1.098203 1_555
C13 H41 1.098540 1_555
C13 H39 1.103198 1_555
C13 Si7 1.879855 1_555
C14 H46 1.098564 1_555
C14 H42 1.100875 1_555
C14 H44 1.101725 1_555
C14 Si6 1.877931 1_565
C15 H47 1.098564 1_555
C15 H43 1.100875 1_555
C15 H45 1.101725 1_555
C15 Si7 1.877931 1_545
C16 H48 1.098289 1_555
C16 H52 1.099661 1_555
C16 H50 1.102723 1_455
C16 Si8 1.883934 1_555
C17 H49 1.098289 1_555
C17 H53 1.099661 1_555
C17 H51 1.102723 1_655
C17 Si9 1.883934 1_555
C18 H54 1.098816 1_555
C18 H58 1.098945 1_655
C18 H56 1.101255 1_545
C18 Si8 1.876814 1_645
C19 H55 1.098816 1_555
C19 H59 1.098945 1_455
C19 H57 1.101255 1_565
C19 Si9 1.876814 1_465
C20 H64 1.098157 1_555
C20 H60 1.099451 1_555
C20 H62 1.102981 1_555
C20 Si10 1.881471 1_555
C21 H65 1.098157 1_555
C21 H61 1.099451 1_555
C21 H63 1.102981 1_555
C21 Si11 1.881471 1_555
C22 H66 1.098436 1_555
C22 H70 1.100395 1_555
C22 H68 1.100618 1_555
C22 Si10 1.881238 1_555
C23 H67 1.098436 1_555
C23 H71 1.100395 1_555
C23 H69 1.100618 1_555
C23 Si11 1.881238 1_555
O0 Si0 1.649715 1_555
O0 Si6 1.655798 1_555
O1 Si1 1.649715 1_555
O1 Si7 1.655798 1_555
O2 Si8 1.654218 1_555
O2 Si2 1.654920 1_555
O3 Si9 1.654218 1_555
O3 Si3 1.654920 1_555
O4 Si4 1.649742 1_555
O4 Si10 1.653289 1_555
O5 Si5 1.649742 1_555
O5 Si11 1.653289 1_555
