# generated using pymatgen
data_Mg2AgWO6
_symmetry_space_group_name_H-M   'P 1'
_cell_length_a   5.40659604
_cell_length_b   5.83907661
_cell_length_c   7.66385863
_cell_angle_alpha   95.54729273
_cell_angle_beta   131.10555824
_cell_angle_gamma   120.05163694
_symmetry_Int_Tables_number   1
_chemical_formula_structural   Mg2AgWO6
_chemical_formula_sum   'Mg2 Ag1 W1 O6'
_cell_volume   119.50761508
_cell_formula_units_Z   1
loop_
 _symmetry_equiv_pos_site_id
 _symmetry_equiv_pos_as_xyz
  1  'x, y, z'
loop_
 _atom_site_type_symbol
 _atom_site_label
 _atom_site_symmetry_multiplicity
 _atom_site_fract_x
 _atom_site_fract_y
 _atom_site_fract_z
 _atom_site_occupancy
  Mg  Mg0  1  0.00945200  0.57743500  0.20925500  1
  Mg  Mg1  1  0.01859900  0.59158200  0.71153200  1
  Ag  Ag0  1  0.00117100  0.00742500  0.49409800  1
  W  W0  1  0.00646300  0.98440900  0.00783500  1
  O  O0  1  0.67269300  0.77091100  0.07072200  1
  O  O1  1  0.30060500  0.09121800  0.92323900  1
  O  O2  1  0.33565300  0.43677600  0.25586400  1
  O  O3  1  0.37456400  0.77064700  0.63018900  1
  O  O4  1  0.53312200  0.08886600  0.37970700  1
  O  O5  1  0.75345200  0.51919200  0.82698600  1
loop_
_geom_bond_atom_site_label_1
_geom_bond_atom_site_label_2
_geom_bond_distance
_geom_bond_site_symmetry_2
Mg0 O3 2.066126 1_555
Mg0 O1 2.099052 1_454
Mg0 O4 2.134216 1_565
Mg0 O2 2.142827 1_555
Mg0 O5 2.149045 1_454
Mg0 O0 2.338532 1_455
Mg1 O4 2.009046 1_455
Mg1 O0 2.028279 1_556
Mg1 O5 2.037130 1_455
Mg1 O1 2.201233 1_565
Mg1 O3 2.207706 1_555
Mg1 O2 2.395436 1_455
Ag0 O0 2.165525 1_445
Ag0 O5 2.165672 1_555
Ag0 O2 2.358085 1_445
Ag0 O1 2.360400 1_555
Ag0 O4 2.401496 1_455
Ag0 O3 2.716697 1_545
O0 W0 2.012319 1_655
O1 W0 1.943938 1_546
O2 W0 1.905324 1_545
O3 W0 1.906698 1_656
O4 W0 1.963718 1_545
O5 W0 2.056378 1_656
