# generated using pymatgen
data_EuNi9Ge4
_symmetry_space_group_name_H-M   'P 1'
_cell_length_a   8.21024895
_cell_length_b   8.21024895
_cell_length_c   8.21024895
_cell_angle_alpha   118.22521890
_cell_angle_beta   118.22521890
_cell_angle_gamma   93.10252083
_symmetry_Int_Tables_number   1
_chemical_formula_structural   EuNi9Ge4
_chemical_formula_sum   'Eu2 Ni18 Ge8'
_cell_volume   401.20150651
_cell_formula_units_Z   2
loop_
 _symmetry_equiv_pos_site_id
 _symmetry_equiv_pos_as_xyz
  1  'x, y, z'
loop_
 _atom_site_type_symbol
 _atom_site_label
 _atom_site_symmetry_multiplicity
 _atom_site_fract_x
 _atom_site_fract_y
 _atom_site_fract_z
 _atom_site_occupancy
  Eu  Eu0  1  0.75000000  0.75000000  0.00000000  1
  Eu  Eu1  1  0.25000000  0.25000000  0.00000000  1
  Ni  Ni0  1  0.29968700  0.79968700  0.86437700  1
  Ni  Ni1  1  0.70031300  0.20031300  0.13562300  1
  Ni  Ni2  1  0.93531100  0.43531100  0.13562300  1
  Ni  Ni3  1  0.79968700  0.93531100  0.50000000  1
  Ni  Ni4  1  0.56468900  0.70031300  0.50000000  1
  Ni  Ni5  1  0.06468900  0.56468900  0.86437700  1
  Ni  Ni6  1  0.20031300  0.06468900  0.50000000  1
  Ni  Ni7  1  0.43531100  0.29968700  0.50000000  1
  Ni  Ni8  1  0.00000000  0.50000000  0.50000000  1
  Ni  Ni9  1  0.50000000  0.00000000  0.50000000  1
  Ni  Ni10  1  0.79410900  0.29410900  0.72856300  1
  Ni  Ni11  1  0.20589100  0.70589100  0.27143700  1
  Ni  Ni12  1  0.56554600  0.06554600  0.27143700  1
  Ni  Ni13  1  0.29410900  0.56554600  0.50000000  1
  Ni  Ni14  1  0.93445400  0.20589100  0.50000000  1
  Ni  Ni15  1  0.43445400  0.93445400  0.72856300  1
  Ni  Ni16  1  0.70589100  0.43445400  0.50000000  1
  Ni  Ni17  1  0.06554600  0.79410900  0.50000000  1
  Ge  Ge0  1  0.71777600  0.55586900  0.27364600  1
  Ge  Ge1  1  0.28222400  0.44413100  0.72635400  1
  Ge  Ge2  1  0.55586900  0.28222400  0.83809300  1
  Ge  Ge3  1  0.21777600  0.94413100  0.16190700  1
  Ge  Ge4  1  0.44413100  0.71777600  0.16190700  1
  Ge  Ge5  1  0.78222400  0.05586900  0.83809300  1
  Ge  Ge6  1  0.05586900  0.21777600  0.27364600  1
  Ge  Ge7  1  0.94413100  0.78222400  0.72635400  1
loop_
_geom_bond_atom_site_label_1
_geom_bond_atom_site_label_2
_geom_bond_distance
_geom_bond_site_symmetry_2
Eu0 Ge6 3.400252 1_665
Eu0 Ge1 3.400252 1_554
Eu0 Ge5 3.400254 1_564
Eu0 Ge3 3.400254 1_655
Eu0 Ge4 3.400254 1_555
Eu0 Ge2 3.400254 1_554
Eu0 Ge7 3.400262 1_554
Eu0 Ge0 3.400262 1_555
Eu0 Ni2 3.431376 1_555
Eu0 Ni5 3.431376 1_654
Eu0 Ni4 3.431380 1_554
Eu0 Ni6 3.431380 1_665
Eu0 Ni7 3.431380 1_554
Eu0 Ni3 3.431380 1_555
Eu0 Ni0 3.431381 1_554
Eu0 Ni1 3.431381 1_565
Eu0 Ni16 3.482477 1_554
Eu0 Ni12 3.482477 1_565
Eu0 Ni10 3.482477 1_554
Eu0 Ni14 3.482477 1_565
Eu0 Ni13 3.482477 1_554
Eu0 Ni15 3.482477 1_554
Eu0 Ni17 3.482477 1_655
Eu0 Ni11 3.482477 1_655
Eu1 Ge0 3.400252 1_555
Eu1 Ge7 3.400252 1_444
Eu1 Ge4 3.400254 1_555
Eu1 Ge2 3.400254 1_554
Eu1 Ge3 3.400254 1_545
Eu1 Ge5 3.400254 1_454
Eu1 Ge6 3.400262 1_555
Eu1 Ge1 3.400262 1_554
Eu1 Ni2 3.431376 1_455
Eu1 Ni5 3.431376 1_554
Eu1 Ni7 3.431380 1_555
Eu1 Ni6 3.431380 1_554
Eu1 Ni4 3.431380 1_555
Eu1 Ni3 3.431380 1_444
Eu1 Ni1 3.431381 1_555
Eu1 Ni0 3.431381 1_544
Eu1 Ni11 3.482477 1_555
Eu1 Ni16 3.482477 1_555
Eu1 Ni12 3.482477 1_555
Eu1 Ni15 3.482477 1_544
Eu1 Ni17 3.482477 1_544
Eu1 Ni13 3.482477 1_555
Eu1 Ni14 3.482477 1_454
Eu1 Ni10 3.482477 1_454
Ni0 Ni15 2.427639 1_555
Ni0 Ni12 2.526333 1_566
Ni0 Ni8 2.545119 1_555
Ni0 Ni5 2.653706 1_555
Ni0 Ni13 2.658673 1_555
Ni0 Ni17 2.658673 1_555
Ni1 Ni12 2.427639 1_555
Ni1 Ni15 2.526333 1_544
Ni1 Ni8 2.545119 1_655
Ni1 Ni2 2.653706 1_555
Ni1 Ni14 2.658673 1_555
Ni1 Ni16 2.658673 1_555
Ni2 Ni8 2.545125 1_655
Ni3 Ni9 2.545117 1_565
Ni3 Ni4 2.653706 1_555
Ni4 Ni9 2.545117 1_565
Ni5 Ni8 2.545125 1_555
Ni6 Ni9 2.545117 1_555
Ni6 Ni7 2.653706 1_555
Ni7 Ni9 2.545117 1_555
Ni10 Ni5 2.427628 1_655
Ni10 Ni9 2.445354 1_555
Ni10 Ni16 2.494752 1_555
Ni10 Ni14 2.494752 1_555
Ni10 Ni2 2.526330 1_556
Ni10 Ni3 2.658667 1_545
Ni10 Ni7 2.658667 1_555
Ni10 Ni12 2.724726 1_555
Ni11 Ni2 2.427628 1_455
Ni11 Ni9 2.445354 1_565
Ni11 Ni13 2.494752 1_555
Ni11 Ni17 2.494752 1_555
Ni11 Ni5 2.526330 1_554
Ni11 Ni4 2.658667 1_555
Ni11 Ni6 2.658667 1_565
Ni11 Ni15 2.724726 1_555
Ni12 Ni9 2.445354 1_555
Ni12 Ni16 2.494752 1_555
Ni12 Ni14 2.494752 1_555
Ni12 Ni3 2.658667 1_545
Ni12 Ni7 2.658667 1_555
Ni13 Ni4 2.427632 1_555
Ni13 Ni8 2.445354 1_555
Ni13 Ni15 2.494752 1_555
Ni13 Ni7 2.526337 1_555
Ni13 Ni2 2.658670 1_455
Ni13 Ni17 2.724726 1_555
Ni14 Ni3 2.427632 1_545
Ni14 Ni8 2.445354 1_655
Ni14 Ni6 2.526337 1_655
Ni14 Ni5 2.658670 1_655
Ni14 Ni16 2.724726 1_555
Ni15 Ni9 2.445354 1_565
Ni15 Ni17 2.494752 1_555
Ni15 Ni4 2.658667 1_555
Ni15 Ni6 2.658667 1_565
Ni16 Ni7 2.427632 1_555
Ni16 Ni8 2.445354 1_655
Ni16 Ni4 2.526337 1_555
Ni16 Ni5 2.658670 1_655
Ni17 Ni6 2.427632 1_565
Ni17 Ni8 2.445354 1_555
Ni17 Ni3 2.526337 1_455
Ni17 Ni2 2.658670 1_455
Ge0 Ni8 2.425171 1_655
Ge0 Ni16 2.523937 1_555
Ge0 Ni17 2.523946 1_655
Ge0 Ni1 2.549207 1_555
Ge0 Ni2 2.549219 1_555
Ge0 Ni4 2.593450 1_555
Ge0 Ni3 2.593456 1_555
Ge0 Ge4 2.680205 1_555
Ge0 Ge2 2.680209 1_554
Ge0 Ge7 2.698392 1_555
Ge1 Ni8 2.425171 1_555
Ge1 Ni13 2.523937 1_555
Ge1 Ni14 2.523946 1_455
Ge1 Ni0 2.549207 1_555
Ge1 Ni5 2.549219 1_555
Ge1 Ni7 2.593450 1_555
Ge1 Ni6 2.593456 1_555
Ge1 Ge2 2.680205 1_555
Ge1 Ge4 2.680209 1_556
Ge1 Ge6 2.698392 1_555
Ge2 Ni9 2.425174 1_555
Ge2 Ni15 2.523945 1_545
Ge2 Ni10 2.523945 1_555
Ge2 Ni6 2.549209 1_555
Ge2 Ni7 2.549209 1_555
Ge2 Ni1 2.593449 1_556
Ge2 Ni2 2.593455 1_556
Ge2 Ge5 2.698404 1_555
Ge3 Ni9 2.425174 1_565
Ge3 Ni11 2.523945 1_555
Ge3 Ni12 2.523945 1_565
Ge3 Ni6 2.549209 1_565
Ge3 Ni7 2.549209 1_565
Ge3 Ni0 2.593449 1_554
Ge3 Ni5 2.593455 1_554
Ge3 Ge6 2.680205 1_565
Ge3 Ge7 2.680209 1_454
Ge3 Ge4 2.698404 1_555
Ge4 Ni9 2.425174 1_565
Ge4 Ni12 2.523945 1_565
Ge4 Ni11 2.523945 1_555
Ge4 Ni3 2.549209 1_555
Ge4 Ni4 2.549209 1_555
Ge4 Ni0 2.593449 1_554
Ge4 Ni5 2.593455 1_554
Ge5 Ni9 2.425174 1_555
Ge5 Ni15 2.523945 1_545
Ge5 Ni10 2.523945 1_555
Ge5 Ni4 2.549209 1_545
Ge5 Ni3 2.549209 1_545
Ge5 Ni1 2.593449 1_556
Ge5 Ni2 2.593455 1_556
Ge5 Ge7 2.680205 1_545
Ge5 Ge6 2.680209 1_656
Ge6 Ni8 2.425171 1_555
Ge6 Ni14 2.523937 1_455
Ge6 Ni13 2.523946 1_555
Ge6 Ni1 2.549207 1_455
Ge6 Ni2 2.549219 1_455
Ge6 Ni6 2.593450 1_555
Ge6 Ni7 2.593456 1_555
Ge7 Ni8 2.425171 1_655
Ge7 Ni17 2.523937 1_655
Ge7 Ni16 2.523946 1_555
Ge7 Ni0 2.549207 1_655
Ge7 Ni5 2.549219 1_655
Ge7 Ni3 2.593450 1_555
Ge7 Ni4 2.593456 1_555
