# generated using pymatgen
data_Yb(Ni2As)2
_symmetry_space_group_name_H-M   'P 1'
_cell_length_a   7.20922800
_cell_length_b   7.20922800
_cell_length_c   3.74007400
_cell_angle_alpha   90.00000000
_cell_angle_beta   90.00000000
_cell_angle_gamma   90.00000000
_symmetry_Int_Tables_number   1
_chemical_formula_structural   Yb(Ni2As)2
_chemical_formula_sum   'Yb2 Ni8 As4'
_cell_volume   194.38274765
_cell_formula_units_Z   2
loop_
 _symmetry_equiv_pos_site_id
 _symmetry_equiv_pos_as_xyz
  1  'x, y, z'
loop_
 _atom_site_type_symbol
 _atom_site_label
 _atom_site_symmetry_multiplicity
 _atom_site_fract_x
 _atom_site_fract_y
 _atom_site_fract_z
 _atom_site_occupancy
  Yb  Yb0  1  0.50000000  0.50000000  0.00000000  1
  Yb  Yb1  1  0.00000000  0.00000000  0.50000000  1
  Ni  Ni0  1  0.58935600  0.15407700  0.50000000  1
  Ni  Ni1  1  0.41064400  0.84592300  0.50000000  1
  Ni  Ni2  1  0.08935600  0.34592300  0.00000000  1
  Ni  Ni3  1  0.91064400  0.65407700  0.00000000  1
  Ni  Ni4  1  0.15407700  0.58935600  0.50000000  1
  Ni  Ni5  1  0.84592300  0.41064400  0.50000000  1
  Ni  Ni6  1  0.34592300  0.08935600  0.00000000  1
  Ni  Ni7  1  0.65407700  0.91064400  0.00000000  1
  As  As0  1  0.71738600  0.71738600  0.50000000  1
  As  As1  1  0.28261400  0.28261400  0.50000000  1
  As  As2  1  0.21738600  0.78261400  0.00000000  1
  As  As3  1  0.78261400  0.21738600  0.00000000  1
loop_
_geom_bond_atom_site_label_1
_geom_bond_atom_site_label_2
_geom_bond_distance
_geom_bond_site_symmetry_2
Ni0 Yb1 3.161953 1_655
Ni0 Yb0 3.182961 1_555
Ni0 Yb0 3.182961 1_556
Ni1 Yb1 3.161953 1_565
Ni1 Yb0 3.182961 1_555
Ni1 Yb0 3.182961 1_556
Ni2 Yb0 3.161953 1_555
Ni2 Yb1 3.182961 1_555
Ni2 Yb1 3.182961 1_554
Ni3 Yb0 3.161953 1_555
Ni3 Yb1 3.182961 1_665
Ni3 Yb1 3.182961 1_664
Ni4 Yb1 3.161953 1_565
Ni4 Yb0 3.182961 1_555
Ni4 Yb0 3.182961 1_556
Ni5 Yb1 3.161953 1_655
Ni5 Yb0 3.182961 1_555
Ni5 Yb0 3.182961 1_556
Ni6 Yb0 3.161953 1_555
Ni6 Yb1 3.182961 1_555
Ni6 Yb1 3.182961 1_554
Ni7 Yb0 3.161953 1_555
Ni7 Yb1 3.182961 1_665
Ni7 Yb1 3.182961 1_664
As0 Ni7 2.376230 1_555
As0 Ni3 2.376230 1_556
As0 Ni7 2.376230 1_556
As0 Ni3 2.376230 1_555
As0 Ni5 2.397677 1_555
As0 Ni1 2.397677 1_555
As0 Yb1 2.881359 1_665
As0 Yb0 2.899858 1_555
As0 Yb0 2.899858 1_556
As1 Ni6 2.376230 1_555
As1 Ni2 2.376230 1_555
As1 Ni2 2.376230 1_556
As1 Ni6 2.376230 1_556
As1 Ni0 2.397677 1_555
As1 Ni4 2.397677 1_555
As1 Yb1 2.881359 1_555
As1 Yb0 2.899858 1_555
As1 Yb0 2.899858 1_556
As2 Ni1 2.376230 1_554
As2 Ni1 2.376230 1_555
As2 Ni4 2.376230 1_554
As2 Ni4 2.376230 1_555
As2 Ni6 2.397677 1_565
As2 Ni3 2.397677 1_455
As2 Yb0 2.881359 1_555
As2 Yb1 2.899858 1_565
As2 Yb1 2.899858 1_564
As3 Ni5 2.376230 1_554
As3 Ni5 2.376230 1_555
As3 Ni0 2.376230 1_554
As3 Ni0 2.376230 1_555
As3 Ni2 2.397677 1_655
As3 Ni7 2.397677 1_545
As3 Yb0 2.881359 1_555
As3 Yb1 2.899858 1_655
As3 Yb1 2.899858 1_654
