# generated using pymatgen
data_PrInCo2
_symmetry_space_group_name_H-M   'P 1'
_cell_length_a   3.99063200
_cell_length_b   5.14950800
_cell_length_c   7.37281100
_cell_angle_alpha   90.00000000
_cell_angle_beta   90.00000000
_cell_angle_gamma   90.00000000
_symmetry_Int_Tables_number   1
_chemical_formula_structural   PrInCo2
_chemical_formula_sum   'Pr2 In2 Co4'
_cell_volume   151.50972815
_cell_formula_units_Z   2
loop_
 _symmetry_equiv_pos_site_id
 _symmetry_equiv_pos_as_xyz
  1  'x, y, z'
loop_
 _atom_site_type_symbol
 _atom_site_label
 _atom_site_symmetry_multiplicity
 _atom_site_fract_x
 _atom_site_fract_y
 _atom_site_fract_z
 _atom_site_occupancy
  Pr  Pr0  1  0.50000000  0.25000000  0.28788700  1
  Pr  Pr1  1  0.50000000  0.75000000  0.71211300  1
  In  In0  1  0.00000000  0.25000000  0.66531600  1
  In  In1  1  0.00000000  0.75000000  0.33468400  1
  Co  Co0  1  0.00000000  0.00000000  0.00000000  1
  Co  Co1  1  0.00000000  0.50000000  0.00000000  1
  Co  Co2  1  0.50000000  0.25000000  0.92335100  1
  Co  Co3  1  0.50000000  0.75000000  0.07664900  1
loop_
_geom_bond_atom_site_label_1
_geom_bond_atom_site_label_2
_geom_bond_distance
_geom_bond_site_symmetry_2
In0 Pr1 3.275620 1_455
In0 Pr1 3.275620 1_445
In0 Pr1 3.275620 1_545
In0 Pr1 3.275620 1_555
In0 Pr0 3.424146 1_455
In0 Pr0 3.424146 1_555
In1 Pr0 3.275620 1_555
In1 Pr0 3.275620 1_565
In1 Pr0 3.275620 1_465
In1 Pr0 3.275620 1_455
In1 Pr1 3.424146 1_555
In1 Pr1 3.424146 1_455
Co0 Co2 2.440898 1_554
Co0 Co2 2.440898 1_454
Co0 Co3 2.440898 1_445
Co0 Co3 2.440898 1_545
Co0 Co1 2.574754 1_555
Co0 Co1 2.574754 1_545
Co0 In0 2.783200 1_554
Co0 In1 2.783200 1_545
Co0 Pr1 3.184931 1_544
Co0 Pr0 3.184931 1_555
Co0 Pr1 3.184931 1_444
Co0 Pr0 3.184931 1_455
Co1 Co2 2.440898 1_554
Co1 Co2 2.440898 1_454
Co1 Co3 2.440898 1_455
Co1 Co3 2.440898 1_555
Co1 In0 2.783200 1_554
Co1 In1 2.783200 1_555
Co1 Pr0 3.184931 1_455
Co1 Pr0 3.184931 1_555
Co1 Pr1 3.184931 1_554
Co1 Pr1 3.184931 1_454
Co2 Pr0 2.687655 1_556
Co2 In0 2.756914 1_555
Co2 In0 2.756914 1_655
Co2 Pr1 3.009138 1_545
Co2 Pr1 3.009138 1_555
Co3 Pr1 2.687655 1_554
Co3 In1 2.756914 1_555
Co3 In1 2.756914 1_655
Co3 Pr0 3.009138 1_565
Co3 Pr0 3.009138 1_555
