# generated using pymatgen
data_KAgF3
_symmetry_space_group_name_H-M   'P 1'
_cell_length_a   5.99687912
_cell_length_b   6.18287501
_cell_length_c   8.50323080
_cell_angle_alpha   90.00000000
_cell_angle_beta   90.00000000
_cell_angle_gamma   90.00000000
_symmetry_Int_Tables_number   1
_chemical_formula_structural   KAgF3
_chemical_formula_sum   'K4 Ag4 F12'
_cell_volume   315.28240087
_cell_formula_units_Z   4
loop_
 _symmetry_equiv_pos_site_id
 _symmetry_equiv_pos_as_xyz
  1  'x, y, z'
loop_
 _atom_site_type_symbol
 _atom_site_label
 _atom_site_symmetry_multiplicity
 _atom_site_fract_x
 _atom_site_fract_y
 _atom_site_fract_z
 _atom_site_occupancy
  K  K0  1  0.00955892  0.54332877  0.25000000  1
  K  K1  1  0.49044108  0.04332877  0.25000000  1
  K  K2  1  0.99044108  0.45667123  0.75000000  1
  K  K3  1  0.50955892  0.95667123  0.75000000  1
  Ag  Ag0  1  0.50000000  0.50000000  -0.00000000  1
  Ag  Ag1  1  -0.00000000  0.00000000  0.50000000  1
  Ag  Ag2  1  0.50000000  0.50000000  0.50000000  1
  Ag  Ag3  1  -0.00000000  0.00000000  -0.00000000  1
  F  F0  1  0.94354894  0.98943943  0.25000000  1
  F  F1  1  0.55645106  0.48943943  0.25000000  1
  F  F2  1  0.05645106  0.01056057  0.75000000  1
  F  F3  1  0.44354894  0.51056057  0.75000000  1
  F  F4  1  0.27933924  0.79626799  0.46856497  1
  F  F5  1  0.22066076  0.29626799  0.03143503  1
  F  F6  1  0.72066076  0.20373201  0.96856497  1
  F  F7  1  0.77933924  0.70373201  0.53143503  1
  F  F8  1  0.72066076  0.20373201  0.53143503  1
  F  F9  1  0.77933924  0.70373201  0.96856497  1
  F  F10  1  0.27933924  0.79626799  0.03143503  1
  F  F11  1  0.22066076  0.29626799  0.46856497  1
loop_
_geom_bond_atom_site_label_1
_geom_bond_atom_site_label_2
_geom_bond_distance
_geom_bond_site_symmetry_2
Ag0 F9 2.112898 1_554
Ag0 F5 2.112898 1_555
Ag0 F3 2.153584 1_554
Ag0 F1 2.153584 1_555
Ag0 F10 2.275512 1_555
Ag0 F6 2.275512 1_554
Ag1 F4 2.112898 1_545
Ag1 F8 2.112898 1_455
Ag1 F2 2.153584 1_555
Ag1 F0 2.153584 1_445
Ag1 F11 2.275512 1_555
Ag1 F7 2.275512 1_445
Ag2 F11 2.112898 1_555
Ag2 F7 2.112898 1_555
Ag2 F3 2.153584 1_555
Ag2 F1 2.153584 1_555
Ag2 F4 2.275512 1_555
Ag2 F8 2.275512 1_555
Ag3 F6 2.112898 1_454
Ag3 F10 2.112898 1_545
Ag3 F2 2.153584 1_554
Ag3 F0 2.153584 1_445
Ag3 F9 2.275512 1_444
Ag3 F5 2.275512 1_555
F0 K1 2.737585 1_565
F0 K0 2.786507 1_655
F1 K0 2.737585 1_655
F1 K1 2.786507 1_555
F2 K3 2.737585 1_545
F2 K2 2.786507 1_455
F3 K2 2.737585 1_455
F3 K3 2.786507 1_555
F4 K1 2.718471 1_565
F4 K0 2.918427 1_555
F4 K3 2.935403 1_555
F5 K0 2.718471 1_555
F5 K1 2.918427 1_555
F5 K2 2.935403 1_454
F6 K3 2.718471 1_545
F6 K2 2.918427 1_555
F6 K1 2.935403 1_556
F7 K2 2.718471 1_555
F7 K3 2.918427 1_555
F7 K0 2.935403 1_655
F8 K3 2.718471 1_545
F8 K2 2.918427 1_555
F8 K1 2.935403 1_555
F9 K2 2.718471 1_555
F9 K3 2.918427 1_555
F9 K0 2.935403 1_656
F10 K1 2.718471 1_565
F10 K0 2.918427 1_555
F10 K3 2.935403 1_554
F11 K0 2.718471 1_555
F11 K1 2.918427 1_555
F11 K2 2.935403 1_455
