# generated using pymatgen
data_Na2Li2NiP6(H4O5)6
_symmetry_space_group_name_H-M   'P 1'
_cell_length_a   10.41857263
_cell_length_b   10.41333332
_cell_length_c   15.05093907
_cell_angle_alpha   108.99264946
_cell_angle_beta   90.00000000
_cell_angle_gamma   120.01664294
_symmetry_Int_Tables_number   1
_chemical_formula_structural   Na2Li2NiP6(H4O5)6
_chemical_formula_sum   'Na4 Li4 Ni2 P12 H48 O60'
_cell_volume   1310.23175963
_cell_formula_units_Z   2
loop_
 _symmetry_equiv_pos_site_id
 _symmetry_equiv_pos_as_xyz
  1  'x, y, z'
loop_
 _atom_site_type_symbol
 _atom_site_label
 _atom_site_symmetry_multiplicity
 _atom_site_fract_x
 _atom_site_fract_y
 _atom_site_fract_z
 _atom_site_occupancy
  Na  Na0  1  0.35969150  0.22584672  0.09461086  1
  Na  Na1  1  0.13384479  0.77415328  0.40538914  1
  Na  Na2  1  0.64030850  0.77415328  0.90538914  1
  Na  Na3  1  0.86615521  0.22584672  0.59461086  1
  Li  Li0  1  0.22847859  0.47613367  0.24743886  1
  Li  Li1  1  0.75234492  0.52386633  0.25256114  1
  Li  Li2  1  0.77152141  0.52386633  0.75256114  1
  Li  Li3  1  0.24765508  0.47613367  0.74743886  1
  Ni  Ni0  1  0.74177900  1.00000000  0.25000000  1
  Ni  Ni1  1  0.25822100  0.00000000  0.75000000  1
  P  P0  1  0.78522894  0.68734330  0.46390714  1
  P  P1  1  0.09788564  0.31265670  0.03609286  1
  P  P2  1  0.21477106  0.31265670  0.53609286  1
  P  P3  1  0.90211436  0.68734330  0.96390714  1
  P  P4  1  0.26746046  0.56290605  0.46090535  1
  P  P5  1  0.70455441  0.43709395  0.03909465  1
  P  P6  1  0.73253954  0.43709395  0.53909465  1
  P  P7  1  0.29544559  0.56290605  0.96090535  1
  P  P8  1  0.58843739  0.81371060  0.53529322  1
  P  P9  1  0.77472679  0.18628940  0.96470678  1
  P  P10  1  0.41156261  0.18628940  0.46470678  1
  P  P11  1  0.22527321  0.81371060  0.03529322  1
  H  H0  1  0.38855905  0.78466358  0.29989847  1
  H  H1  1  0.60389547  0.21533642  0.20010153  1
  H  H2  1  0.61144095  0.21533642  0.70010153  1
  H  H3  1  0.39610453  0.78466358  0.79989847  1
  H  H4  1  0.26168192  0.72546381  0.21796407  1
  H  H5  1  0.53621811  0.27453619  0.28203593  1
  H  H6  1  0.73831808  0.27453619  0.78203593  1
  H  H7  1  0.46378189  0.72546381  0.71796407  1
  H  H8  1  0.48448866  0.58778277  0.20044408  1
  H  H9  1  0.89670590  0.41221723  0.29955592  1
  H  H10  1  0.51551134  0.41221723  0.79955592  1
  H  H11  1  0.10329410  0.58778277  0.70044408  1
  H  H12  1  0.49047614  0.52253404  0.27779818  1
  H  H13  1  0.96794209  0.47746596  0.22220182  1
  H  H14  1  0.50952386  0.47746596  0.72220182  1
  H  H15  1  0.03205791  0.52253404  0.77779818  1
  H  H16  1  0.19150073  0.03790020  0.19532624  1
  H  H17  1  0.15360054  0.96209980  0.30467376  1
  H  H18  1  0.80849927  0.96209980  0.80467376  1
  H  H19  1  0.84639946  0.03790020  0.69532624  1
  H  H20  1  0.27484224  0.19736984  0.28311112  1
  H  H21  1  0.07747239  0.80263016  0.21688888  1
  H  H22  1  0.72515776  0.80263016  0.71688888  1
  H  H23  1  0.92252761  0.19736984  0.78311112  1
  H  H24  1  0.50264066  0.95737840  0.14780651  1
  H  H25  1  0.54526226  0.04262160  0.35219349  1
  H  H26  1  0.49735934  0.04262160  0.85219349  1
  H  H27  1  0.45473774  0.95737840  0.64780651  1
  H  H28  1  0.64925451  0.03531517  0.10109373  1
  H  H29  1  0.61393934  0.96468483  0.39890627  1
  H  H30  1  0.35074549  0.96468483  0.89890627  1
  H  H31  1  0.38606066  0.03531517  0.60109373  1
  H  H32  1  0.98187396  0.29478344  0.34765839  1
  H  H33  1  0.68709052  0.70521656  0.15234161  1
  H  H34  1  0.01812604  0.70521656  0.65234161  1
  H  H35  1  0.31290948  0.29478344  0.84765839  1
  H  H36  1  0.84060655  0.27721834  0.39709514  1
  H  H37  1  0.56338821  0.72278166  0.10290486  1
  H  H38  1  0.15939345  0.72278166  0.60290486  1
  H  H39  1  0.43661179  0.27721834  0.89709514  1
  H  H40  1  0.95149156  0.14084472  0.15271709  1
  H  H41  1  0.81064684  0.85915528  0.34728291  1
  H  H42  1  0.04850844  0.85915528  0.84728291  1
  H  H43  1  0.18935316  0.14084472  0.65271709  1
  H  H44  1  0.88474863  0.95290405  0.10651643  1
  H  H45  1  0.93184457  0.04709595  0.39348357  1
  H  H46  1  0.11525137  0.04709595  0.89348357  1
  H  H47  1  0.06815543  0.95290405  0.60651643  1
  O  O0  1  0.18609660  0.43104199  0.36411581  1
  O  O1  1  0.75505462  0.56895801  0.13588419  1
  O  O2  1  0.81390340  0.56895801  0.63588419  1
  O  O3  1  0.24494538  0.43104199  0.86411581  1
  O  O4  1  0.44407069  0.66104859  0.45275272  1
  O  O5  1  0.78302210  0.33895141  0.04724728  1
  O  O6  1  0.55592931  0.33895141  0.54724728  1
  O  O7  1  0.21697790  0.66104859  0.95275272  1
  O  O8  1  0.28049113  0.70037078  0.27247637  1
  O  O9  1  0.58012035  0.29962922  0.22752363  1
  O  O10  1  0.71950887  0.29962922  0.72752363  1
  O  O11  1  0.41987965  0.70037078  0.77247637  1
  O  O12  1  0.42380889  0.49574703  0.22033595  1
  O  O13  1  0.92806186  0.50425297  0.27966405  1
  O  O14  1  0.57619111  0.50425297  0.77966405  1
  O  O15  1  0.07193814  0.49574703  0.72033595  1
  O  O16  1  0.23321551  0.15218551  0.21474251  1
  O  O17  1  0.08103001  0.84781449  0.28525749  1
  O  O18  1  0.76678449  0.84781449  0.78525749  1
  O  O19  1  0.91896999  0.15218551  0.71474251  1
  O  O20  1  0.54513002  0.84435956  0.63192168  1
  O  O21  1  0.70077046  0.15564044  0.86807832  1
  O  O22  1  0.45486998  0.15564044  0.36807832  1
  O  O23  1  0.29922954  0.84435956  0.13192168  1
  O  O24  1  0.72490674  0.66397884  0.36496079  1
  O  O25  1  0.06092790  0.33602116  0.13503921  1
  O  O26  1  0.27509326  0.33602116  0.63503921  1
  O  O27  1  0.93907210  0.66397884  0.86496079  1
  O  O28  1  0.21502756  0.67679626  0.50166606  1
  O  O29  1  0.53823129  0.32320374  0.99833394  1
  O  O30  1  0.78497244  0.32320374  0.49833394  1
  O  O31  1  0.46176871  0.67679626  0.00166606  1
  O  O32  1  0.66439820  0.94768789  0.49946531  1
  O  O33  1  0.71671031  0.05231211  0.00053469  1
  O  O34  1  0.33560180  0.05231211  0.50053469  1
  O  O35  1  0.28328969  0.94768789  0.99946531  1
  O  O36  1  0.72396467  0.50801723  0.45983606  1
  O  O37  1  0.21594744  0.49198277  0.04016394  1
  O  O38  1  0.27603533  0.49198277  0.54016394  1
  O  O39  1  0.78405256  0.50801723  0.95983606  1
  O  O40  1  0.95157774  0.79189960  0.50331833  1
  O  O41  1  0.15967814  0.20810040  0.99668167  1
  O  O42  1  0.04842226  0.20810040  0.49668167  1
  O  O43  1  0.84032186  0.79189960  0.00331833  1
  O  O44  1  0.69597426  0.74319683  0.54103176  1
  O  O45  1  0.95277742  0.25680317  0.95896824  1
  O  O46  1  0.30402574  0.25680317  0.45896824  1
  O  O47  1  0.04722258  0.74319683  0.04103176  1
  O  O48  1  0.61388851  0.03639789  0.16325529  1
  O  O49  1  0.57749061  0.96360211  0.33674471  1
  O  O50  1  0.38611149  0.96360211  0.83674471  1
  O  O51  1  0.42250939  0.03639789  0.66325529  1
  O  O52  1  0.87115426  0.24982331  0.33335928  1
  O  O53  1  0.62133095  0.75017669  0.16664072  1
  O  O54  1  0.12884574  0.75017669  0.66664072  1
  O  O55  1  0.37866905  0.24982331  0.83335928  1
  O  O56  1  0.89935930  0.04133964  0.16543488  1
  O  O57  1  0.85801966  0.95866036  0.33456512  1
  O  O58  1  0.10064070  0.95866036  0.83456512  1
  O  O59  1  0.14198034  0.04133964  0.66543488  1
loop_
_geom_bond_atom_site_label_1
_geom_bond_atom_site_label_2
_geom_bond_distance
_geom_bond_site_symmetry_2
Na0 O16 2.342090 1_555
Na0 O29 2.378467 1_554
Na0 O41 2.446728 1_554
Na0 O35 2.463268 1_544
Na0 O12 2.566339 1_555
Na0 O9 2.664681 1_555
Na1 O17 2.342090 1_555
Na1 O28 2.378467 1_555
Na1 O40 2.446728 1_455
Na1 O34 2.463268 1_565
Na1 O13 2.566339 1_455
Na1 O8 2.664681 1_555
Na2 O18 2.342090 1_555
Na2 O31 2.378467 1_556
Na2 O43 2.446728 1_556
Na2 O33 2.463268 1_566
Na2 O14 2.566339 1_555
Na2 O11 2.664681 1_555
Na3 O19 2.342090 1_555
Na3 O30 2.378467 1_555
Na3 O42 2.446728 1_655
Na3 O32 2.463268 1_545
Na3 O15 2.566339 1_655
Na3 O10 2.664681 1_555
Li0 O0 1.956684 1_555
Li0 O25 1.970568 1_555
Li0 O12 1.996992 1_555
Li0 O8 2.012313 1_555
Li1 O1 1.956684 1_555
Li1 O24 1.970568 1_555
Li1 O13 1.996992 1_555
Li1 O9 2.012313 1_555
Li2 O2 1.956684 1_555
Li2 O27 1.970568 1_555
Li2 O14 1.996992 1_555
Li2 O10 2.012313 1_555
Li3 O3 1.956684 1_555
Li3 O26 1.970568 1_555
Li3 O15 1.996992 1_555
Li3 O11 2.012313 1_555
Ni0 O57 2.037205 1_555
Ni0 O56 2.037205 1_565
Ni0 O48 2.109735 1_565
Ni0 O49 2.109735 1_555
Ni0 O53 2.127423 1_555
Ni0 O52 2.127423 1_565
Ni1 O59 2.037205 1_555
Ni1 O58 2.037205 1_545
Ni1 O50 2.109735 1_545
Ni1 O51 2.109735 1_555
Ni1 O55 2.127423 1_555
Ni1 O54 2.127423 1_545
H0 O8 0.991922 1_555
H1 O9 0.991922 1_555
H2 O10 0.991922 1_555
H3 O11 0.991922 1_555
H4 O8 0.985197 1_555
H5 O9 0.985197 1_555
H6 O10 0.985197 1_555
H7 O11 0.985197 1_555
H8 O12 0.994183 1_555
H9 O13 0.994183 1_555
H10 O14 0.994183 1_555
H11 O15 0.994183 1_555
H12 O12 0.978448 1_555
H13 O13 0.978448 1_555
H14 O14 0.978448 1_555
H15 O15 0.978448 1_555
H16 O16 0.973009 1_555
H17 O17 0.973009 1_555
H18 O18 0.973009 1_555
H19 O19 0.973009 1_555
H20 O16 0.974185 1_555
H21 O17 0.974185 1_555
H22 O18 0.974185 1_555
H23 O19 0.974185 1_555
H24 O48 0.997897 1_565
H25 O49 0.997897 1_545
H26 O50 0.997897 1_545
H27 O51 0.997897 1_565
H28 O48 1.004247 1_555
H28 O33 1.692886 1_555
H29 O49 1.004247 1_555
H29 O32 1.692886 1_555
H30 O50 1.004247 1_555
H30 O35 1.692886 1_555
H31 O51 1.004247 1_555
H31 O34 1.692886 1_555
H32 O52 0.995111 1_555
H33 O53 0.995111 1_555
H34 O54 0.995111 1_555
H35 O55 0.995111 1_555
H36 O52 1.007777 1_555
H36 O30 1.640069 1_555
H37 O53 1.007777 1_555
H37 O31 1.640069 1_555
H38 O54 1.007777 1_555
H38 O28 1.640069 1_555
H39 O55 1.007777 1_555
H39 O29 1.640069 1_555
H40 O56 0.985563 1_555
H41 O57 0.985563 1_555
H42 O58 0.985563 1_555
H43 O59 0.985563 1_555
H44 O56 0.992885 1_565
H44 O43 1.722291 1_555
H45 O57 0.992885 1_545
H45 O42 1.722291 1_655
H46 O58 0.992885 1_545
H46 O41 1.722291 1_555
H47 O59 0.992885 1_565
H47 O40 1.722291 1_455
O0 P4 1.503225 1_555
O1 P5 1.503225 1_555
O2 P6 1.503225 1_555
O3 P7 1.503225 1_555
O4 P4 1.626471 1_555
O4 P8 1.629445 1_555
O5 P5 1.626471 1_555
O5 P9 1.629445 1_554
O6 P6 1.626471 1_555
O6 P10 1.629445 1_555
O7 P7 1.626471 1_555
O7 P11 1.629445 1_556
O20 P8 1.504170 1_555
O21 P9 1.504170 1_555
O22 P10 1.504170 1_555
O23 P11 1.504170 1_555
O24 P0 1.511016 1_555
O25 P1 1.511016 1_555
O26 P2 1.511016 1_555
O27 P3 1.511016 1_555
O28 P4 1.501980 1_555
O29 P5 1.501980 1_556
O30 P6 1.501980 1_555
O31 P7 1.501980 1_554
O32 P8 1.499516 1_555
O33 P9 1.499516 1_554
O34 P10 1.499516 1_555
O35 P11 1.499516 1_556
O36 P6 1.617390 1_555
O36 P0 1.622122 1_555
O37 P7 1.617390 1_554
O37 P1 1.622122 1_555
O38 P4 1.617390 1_555
O38 P2 1.622122 1_555
O39 P5 1.617390 1_556
O39 P3 1.622122 1_555
O40 P0 1.494219 1_555
O41 P1 1.494219 1_556
O42 P2 1.494219 1_555
O43 P3 1.494219 1_554
O44 P0 1.628539 1_555
O44 P8 1.632867 1_555
O45 P1 1.628539 1_656
O45 P9 1.632867 1_555
O46 P2 1.628539 1_555
O46 P10 1.632867 1_555
O47 P3 1.628539 1_454
O47 P11 1.632867 1_555
