# generated using pymatgen
data_Na2TlCrF6
_symmetry_space_group_name_H-M   'P 1'
_cell_length_a   6.35704900
_cell_length_b   6.35704931
_cell_length_c   6.35704944
_cell_angle_alpha   59.99999829
_cell_angle_beta   59.99999710
_cell_angle_gamma   59.99999643
_symmetry_Int_Tables_number   1
_chemical_formula_structural   Na2TlCrF6
_chemical_formula_sum   'Na2 Tl1 Cr1 F6'
_cell_volume   181.65681852
_cell_formula_units_Z   1
loop_
 _symmetry_equiv_pos_site_id
 _symmetry_equiv_pos_as_xyz
  1  'x, y, z'
loop_
 _atom_site_type_symbol
 _atom_site_label
 _atom_site_symmetry_multiplicity
 _atom_site_fract_x
 _atom_site_fract_y
 _atom_site_fract_z
 _atom_site_occupancy
  Na  Na0  1  0.25000000  0.25000000  0.25000000  1
  Na  Na1  1  0.75000000  0.75000000  0.75000000  1
  Tl  Tl0  1  0.50000000  0.50000000  0.50000000  1
  Cr  Cr0  1  0.00000000  0.00000000  0.00000000  1
  F  F0  1  0.21444000  0.78556000  0.21444000  1
  F  F1  1  0.78556000  0.78556000  0.21444000  1
  F  F2  1  0.78556000  0.21444000  0.78556000  1
  F  F3  1  0.78556000  0.21444000  0.21444000  1
  F  F4  1  0.21444000  0.78556000  0.78556000  1
  F  F5  1  0.21444000  0.21444000  0.78556000  1
loop_
_geom_bond_atom_site_label_1
_geom_bond_atom_site_label_2
_geom_bond_distance
_geom_bond_site_symmetry_2
Cr0 F2 1.927864 1_454
Cr0 F1 1.927864 1_445
Cr0 F5 1.927864 1_554
Cr0 F0 1.927864 1_545
Cr0 F4 1.927864 1_544
Cr0 F3 1.927864 1_455
F0 Tl0 2.567249 1_555
F1 Tl0 2.567249 1_555
F2 Tl0 2.567249 1_555
F3 Tl0 2.567249 1_555
F4 Tl0 2.567249 1_555
F5 Tl0 2.567249 1_555
