# generated using pymatgen
data_RbNa5Be8O11
_symmetry_space_group_name_H-M   'P 1'
_cell_length_a   6.48690100
_cell_length_b   9.50995526
_cell_length_c   10.76093797
_cell_angle_alpha   115.54370870
_cell_angle_beta   89.11189870
_cell_angle_gamma   109.76019216
_symmetry_Int_Tables_number   1
_chemical_formula_structural   RbNa5Be8O11
_chemical_formula_sum   'Rb2 Na10 Be16 O22'
_cell_volume   557.01395783
_cell_formula_units_Z   2
loop_
 _symmetry_equiv_pos_site_id
 _symmetry_equiv_pos_as_xyz
  1  'x, y, z'
loop_
 _atom_site_type_symbol
 _atom_site_label
 _atom_site_symmetry_multiplicity
 _atom_site_fract_x
 _atom_site_fract_y
 _atom_site_fract_z
 _atom_site_occupancy
  Rb  Rb0  1  0.25010500  0.29681200  0.93931700  1
  Rb  Rb1  1  0.74989500  0.70318800  0.06068300  1
  Na  Na0  1  0.12716300  0.51239000  0.62705600  1
  Na  Na1  1  0.24648800  0.93029100  0.51650100  1
  Na  Na2  1  0.90701200  0.50561100  0.85722600  1
  Na  Na3  1  0.73612600  0.72070100  0.53936900  1
  Na  Na4  1  0.74856300  0.07874000  0.97574700  1
  Na  Na5  1  0.75351200  0.06970900  0.48349900  1
  Na  Na6  1  0.26387400  0.27929900  0.46063100  1
  Na  Na7  1  0.09298800  0.49438900  0.14277400  1
  Na  Na8  1  0.87283700  0.48761000  0.37294400  1
  Na  Na9  1  0.25143700  0.92126000  0.02425300  1
  Be  Be0  1  0.09116800  0.14158300  0.70144500  1
  Be  Be1  1  0.45029000  0.63778600  0.27521100  1
  Be  Be2  1  0.54971000  0.36221400  0.72478900  1
  Be  Be3  1  0.27410000  0.76211400  0.85079600  1
  Be  Be4  1  0.21961600  0.75679700  0.35362600  1
  Be  Be5  1  0.61661300  0.94354900  0.27185300  1
  Be  Be6  1  0.38338700  0.05645100  0.72814700  1
  Be  Be7  1  0.50419800  0.65912600  0.74910400  1
  Be  Be8  1  0.78038400  0.24320300  0.64637400  1
  Be  Be9  1  0.49580200  0.34087400  0.25089600  1
  Be  Be10  1  0.66468200  0.95752600  0.76054800  1
  Be  Be11  1  0.90883200  0.85841700  0.29855500  1
  Be  Be12  1  0.33531800  0.04247400  0.23945200  1
  Be  Be13  1  0.04145600  0.12906800  0.21422500  1
  Be  Be14  1  0.95854400  0.87093200  0.78577500  1
  Be  Be15  1  0.72590000  0.23788600  0.14920400  1
  O  O0  1  0.51876100  0.09301900  0.13811700  1
  O  O1  1  0.92627400  0.02514600  0.82199100  1
  O  O2  1  0.52777100  0.52071300  0.72096500  1
  O  O3  1  0.97988500  0.27735100  0.57325900  1
  O  O4  1  0.64208700  0.79501700  0.24559900  1
  O  O5  1  0.87735800  0.00923400  0.33323600  1
  O  O6  1  0.35791300  0.20498300  0.75440100  1
  O  O7  1  0.12264200  0.99076600  0.66676400  1
  O  O8  1  0.47222900  0.47928700  0.27903500  1
  O  O9  1  0.77968000  0.35737000  0.71280800  1
  O  O10  1  0.06740300  0.73107900  0.91415100  1
  O  O11  1  0.22032000  0.64263000  0.28719200  1
  O  O12  1  0.48123900  0.90698100  0.86188300  1
  O  O13  1  0.43615900  0.89167500  0.37410600  1
  O  O14  1  0.28743600  0.64367000  0.79292800  1
  O  O15  1  0.71256400  0.35633000  0.20707200  1
  O  O16  1  0.69460200  0.81653700  0.72444200  1
  O  O17  1  0.07372600  0.97485400  0.17800900  1
  O  O18  1  0.30539800  0.18346300  0.27555800  1
  O  O19  1  0.93259700  0.26892100  0.08584900  1
  O  O20  1  0.56384100  0.10832500  0.62589400  1
  O  O21  1  0.02011500  0.72264900  0.42674100  1
loop_
_geom_bond_atom_site_label_1
_geom_bond_atom_site_label_2
_geom_bond_distance
_geom_bond_site_symmetry_2
Na0 O14 1.756035 1_555
Na0 O3 1.923883 1_455
Na1 O7 1.749550 1_555
Na1 O21 1.851225 1_555
Na1 O13 1.938668 1_555
Na1 O20 2.118923 1_565
Na2 O9 1.564563 1_555
Na2 O10 1.853071 1_655
Na3 O16 1.858368 1_555
Na3 O21 2.188619 1_655
Na4 O19 1.684023 1_556
Na4 O12 1.897656 1_545
Na4 O1 1.984231 1_555
Na5 O5 1.749550 1_555
Na5 O3 1.851225 1_555
Na5 O20 1.938668 1_555
Na5 O13 2.118923 1_545
Na6 O18 1.858368 1_555
Na6 O3 2.188619 1_455
Na7 O11 1.564563 1_555
Na7 O19 1.853071 1_455
Na8 O15 1.756035 1_555
Na8 O21 1.923883 1_655
Na9 O10 1.684023 1_554
Na9 O0 1.897656 1_565
Na9 O17 1.984231 1_555
Be0 O7 1.404315 1_545
Be0 O6 1.646571 1_555
Be0 O1 2.108990 1_455
Be1 O11 1.509825 1_555
Be1 O8 1.578821 1_555
Be1 O4 1.739540 1_555
Be2 O9 1.509825 1_555
Be2 O2 1.578821 1_555
Be2 O6 1.739540 1_555
Be3 O14 1.059877 1_555
Be3 O10 1.492421 1_555
Be3 O12 1.526189 1_555
Be4 O11 1.011813 1_555
Be4 O13 1.488125 1_555
Be4 O21 1.517864 1_555
Be4 Na1 1.773600 1_555
Be5 O4 1.383691 1_555
Be5 O5 1.628440 1_565
Be5 O13 1.691777 1_555
Be6 O6 1.383691 1_555
Be6 O7 1.628440 1_545
Be6 O20 1.691777 1_555
Be7 O2 1.280099 1_555
Be7 O14 1.456238 1_555
Be7 O16 1.708551 1_555
Be8 O9 1.011813 1_555
Be8 O20 1.488125 1_555
Be8 O3 1.517864 1_555
Be8 Na5 1.773600 1_555
Be9 O8 1.280099 1_555
Be9 O15 1.456238 1_555
Be9 O18 1.708551 1_555
Be10 O16 1.307949 1_555
Be10 O1 1.631100 1_565
Be10 O12 1.691522 1_555
Be11 O5 1.404315 1_565
Be11 O4 1.646571 1_555
Be11 O17 2.108990 1_655
Be12 O18 1.307949 1_555
Be12 O17 1.631100 1_545
Be12 O0 1.691522 1_555
Be13 O17 1.434808 1_545
Be13 O18 1.666260 1_555
Be13 O5 2.113787 1_455
Be14 O1 1.434808 1_565
Be14 O16 1.666260 1_555
Be14 O7 2.113787 1_655
Be15 O15 1.059877 1_555
Be15 O19 1.492421 1_555
Be15 O0 1.526189 1_555
O1 Rb0 2.506192 1_655
O4 Rb1 2.020517 1_555
O6 Rb0 2.020517 1_555
O17 Rb1 2.506192 1_455
