# generated using pymatgen
data_Li4Co3NiO8
_symmetry_space_group_name_H-M   'P 1'
_cell_length_a   5.80313343
_cell_length_b   10.21333799
_cell_length_c   5.79303979
_cell_angle_alpha   73.50188626
_cell_angle_beta   60.01939558
_cell_angle_gamma   73.43583235
_symmetry_Int_Tables_number   1
_chemical_formula_structural   Li4Co3NiO8
_chemical_formula_sum   'Li8 Co6 Ni2 O16'
_cell_volume   280.89364694
_cell_formula_units_Z   2
loop_
 _symmetry_equiv_pos_site_id
 _symmetry_equiv_pos_as_xyz
  1  'x, y, z'
loop_
 _atom_site_type_symbol
 _atom_site_label
 _atom_site_symmetry_multiplicity
 _atom_site_fract_x
 _atom_site_fract_y
 _atom_site_fract_z
 _atom_site_occupancy
  Li  Li0  1  0.74785600  0.75279900  0.74976800  1
  Li  Li1  1  0.25213700  0.24719600  0.25026800  1
  Li  Li2  1  0.24797000  0.76073700  0.24268500  1
  Li  Li3  1  0.75204700  0.23925400  0.75737500  1
  Li  Li4  1  0.24544700  0.76170500  0.74999200  1
  Li  Li5  1  0.75452400  0.23829600  0.25006600  1
  Li  Li6  1  0.74875700  0.75919400  0.24639200  1
  Li  Li7  1  0.25121600  0.24079500  0.75366800  1
  Co  Co0  1  0.50001800  0.50000900  0.99994400  1
  Co  Co1  1  0.99997300  0.50000000  0.49992400  1
  Co  Co2  1  0.99997400  0.50000000  0.00001400  1
  Co  Co3  1  0.99998700  0.99999800  0.50004700  1
  Co  Co4  1  0.50001400  0.99999300  0.00000000  1
  Co  Co5  1  0.49996200  0.00000000  0.50002800  1
  Ni  Ni0  1  0.50016700  0.49998300  0.49996000  1
  Ni  Ni1  1  0.00001300  0.00003700  0.00001800  1
  O  O0  1  0.13090100  0.60556500  0.13170300  1
  O  O1  1  0.62587000  0.12255400  0.62615900  1
  O  O2  1  0.37410800  0.87744500  0.37386700  1
  O  O3  1  0.86914100  0.39443800  0.86818300  1
  O  O4  1  0.86732000  0.88065700  0.86854000  1
  O  O5  1  0.35439100  0.39617400  0.36494100  1
  O  O6  1  0.10606600  0.60390400  0.64531800  1
  O  O7  1  0.61599100  0.11974800  0.13330600  1
  O  O8  1  0.64536300  0.60398300  0.11577100  1
  O  O9  1  0.13047500  0.11949300  0.61713700  1
  O  O10  1  0.86947400  0.88049400  0.38297200  1
  O  O11  1  0.35464700  0.39601100  0.88415400  1
  O  O12  1  0.38398400  0.88024800  0.86673700  1
  O  O13  1  0.89391300  0.39612600  0.35458500  1
  O  O14  1  0.64561800  0.60381600  0.63494400  1
  O  O15  1  0.13268800  0.11934700  0.13153800  1
loop_
_geom_bond_atom_site_label_1
_geom_bond_atom_site_label_2
_geom_bond_distance
_geom_bond_site_symmetry_2
Li0 O12 2.028825 1_555
Li0 O4 2.040225 1_555
Li0 O10 2.041114 1_555
Li0 O6 2.112576 1_655
Li0 O8 2.141070 1_556
Li0 O14 2.143317 1_555
Li1 O7 2.028748 1_555
Li1 O15 2.039921 1_555
Li1 O9 2.041442 1_555
Li1 O13 2.112815 1_455
Li1 O11 2.141481 1_554
Li1 O5 2.142762 1_555
Li2 O2 2.025357 1_555
Li2 O12 2.043899 1_554
Li2 O10 2.056624 1_455
Li2 O0 2.239574 1_555
Li2 O8 2.300172 1_555
Li2 O6 2.322657 1_555
Li3 O1 2.025596 1_555
Li3 O7 2.043815 1_556
Li3 O9 2.056355 1_655
Li3 O3 2.239131 1_555
Li3 O11 2.300201 1_555
Li3 O13 2.323422 1_555
Li4 O2 2.029011 1_555
Li4 O12 2.032982 1_555
Li4 O4 2.051933 1_455
Li4 O0 2.237680 1_556
Li4 O14 2.316423 1_555
Li4 O6 2.325502 1_555
Li5 O1 2.028884 1_555
Li5 O7 2.033067 1_555
Li5 O15 2.052083 1_655
Li5 O3 2.238329 1_554
Li5 O5 2.316238 1_555
Li5 O13 2.325223 1_555
Li6 O2 2.033628 1_555
Li6 O4 2.059829 1_554
Li6 O10 2.063278 1_555
Li6 O0 2.226400 1_655
Li6 O14 2.260411 1_555
Li6 O8 2.263382 1_555
Li7 O1 2.033608 1_555
Li7 O15 2.059849 1_556
Li7 O9 2.063187 1_555
Li7 O3 2.226213 1_455
Li7 O5 2.261083 1_555
Li7 O11 2.263041 1_555
Co0 O14 1.939302 1_555
Co0 O5 1.939400 1_556
Co0 O8 1.941737 1_556
Co0 O11 1.941887 1_555
Co0 O0 1.962095 1_556
Co0 O3 1.962174 1_555
Co1 O14 1.893421 1_555
Co1 O5 1.893715 1_655
Co1 O13 1.900196 1_555
Co1 O6 1.900813 1_655
Co1 O0 1.957291 1_655
Co1 O3 1.957443 1_555
Co2 O8 1.895138 1_555
Co2 O11 1.895412 1_654
Co2 O13 1.895934 1_555
Co2 O6 1.896581 1_654
Co2 O0 1.958377 1_655
Co2 O3 1.958559 1_554
Co3 O9 2.008346 1_665
Co3 O10 2.008465 1_555
Co3 O4 2.012468 1_555
Co3 O15 2.012572 1_665
Co3 O1 2.049073 1_565
Co3 O2 2.049078 1_655
Co4 O4 2.008099 1_554
Co4 O15 2.008265 1_565
Co4 O12 2.017517 1_554
Co4 O7 2.017565 1_565
Co4 O1 2.047254 1_564
Co4 O2 2.047306 1_555
Co5 O12 2.006610 1_545
Co5 O7 2.006642 1_555
Co5 O9 2.017822 1_555
Co5 O10 2.017987 1_545
Co5 O2 2.051484 1_545
Co5 O1 2.051575 1_555
Ni0 O11 2.021101 1_555
Ni0 O8 2.021143 1_555
Ni0 O14 2.022270 1_555
Ni0 O5 2.023670 1_555
Ni0 O13 2.063410 1_555
Ni0 O6 2.065175 1_555
Ni1 O9 2.071912 1_554
Ni1 O10 2.072562 1_445
Ni1 O15 2.075254 1_555
Ni1 O4 2.075724 1_444
Ni1 O7 2.078537 1_455
Ni1 O12 2.078633 1_544
