# generated using pymatgen
data_La4C2I5
_symmetry_space_group_name_H-M   'P 1'
_cell_length_a   10.41043901
_cell_length_b   10.41043901
_cell_length_c   8.97557323
_cell_angle_alpha   76.55661015
_cell_angle_beta   76.55661015
_cell_angle_gamma   22.91746092
_symmetry_Int_Tables_number   1
_chemical_formula_structural   La4C2I5
_chemical_formula_sum   'La4 C2 I5'
_cell_volume   367.98096229
_cell_formula_units_Z   1
loop_
 _symmetry_equiv_pos_site_id
 _symmetry_equiv_pos_as_xyz
  1  'x, y, z'
loop_
 _atom_site_type_symbol
 _atom_site_label
 _atom_site_symmetry_multiplicity
 _atom_site_fract_x
 _atom_site_fract_y
 _atom_site_fract_z
 _atom_site_occupancy
  La  La0  1  0.50008733  0.50008733  0.80819550  1
  La  La1  1  0.49991267  0.49991267  0.19180450  1
  La  La2  1  0.15219241  0.15219241  0.91528698  1
  La  La3  1  0.84780759  0.84780759  0.08471302  1
  C  C0  1  0.03539496  0.03539496  0.98138610  1
  C  C1  1  0.96460504  0.96460504  0.01861390  1
  I  I0  1  0.66255078  0.66255078  0.63704428  1
  I  I1  1  0.33744922  0.33744922  0.36295572  1
  I  I2  1  -0.00000000  -0.00000000  0.50000000  1
  I  I3  1  0.33288236  0.33288236  0.81289009  1
  I  I4  1  0.66711764  0.66711764  0.18710991  1
loop_
_geom_bond_atom_site_label_1
_geom_bond_atom_site_label_2
_geom_bond_distance
_geom_bond_site_symmetry_2
C0 C1 1.403326 1_446
C0 La2 2.315496 1_555
C0 La1 2.778431 1_546
C0 La1 2.778431 1_456
C0 La0 2.782831 1_545
C0 La0 2.782831 1_455
C1 La3 2.315496 1_555
C1 La0 2.778431 1_564
C1 La0 2.778431 1_654
C1 La1 2.782831 1_655
C1 La1 2.782831 1_565
I0 La2 3.210680 1_565
I0 La2 3.210680 1_655
I0 La0 3.306710 1_555
I1 La3 3.210680 1_455
I1 La3 3.210680 1_545
I1 La1 3.306710 1_555
I2 La1 3.454223 1_455
I2 La0 3.454223 1_545
I2 La0 3.454223 1_455
I2 La1 3.454223 1_545
I3 La3 3.267266 1_456
I3 La3 3.267266 1_546
I3 La0 3.402215 1_555
I3 La2 3.582173 1_555
I4 La2 3.267266 1_654
I4 La2 3.267266 1_564
I4 La1 3.402215 1_555
I4 La3 3.582173 1_555
