# generated using pymatgen
data_SmYCo17
_symmetry_space_group_name_H-M   'P 1'
_cell_length_a   6.26085033
_cell_length_b   6.26086883
_cell_length_c   6.26079883
_cell_angle_alpha   82.90062808
_cell_angle_beta   82.89978305
_cell_angle_gamma   82.90032312
_symmetry_Int_Tables_number   1
_chemical_formula_structural   SmYCo17
_chemical_formula_sum   'Sm1 Y1 Co17'
_cell_volume   240.19751091
_cell_formula_units_Z   1
loop_
 _symmetry_equiv_pos_site_id
 _symmetry_equiv_pos_as_xyz
  1  'x, y, z'
loop_
 _atom_site_type_symbol
 _atom_site_label
 _atom_site_symmetry_multiplicity
 _atom_site_fract_x
 _atom_site_fract_y
 _atom_site_fract_z
 _atom_site_occupancy
  Sm  Sm0  1  0.34445322  0.34440479  0.34441116  1
  Y  Y0  1  0.65650905  0.65654129  0.65654294  1
  Co  Co0  1  0.34306000  0.34303836  0.84746210  1
  Co  Co1  1  0.84746574  0.34304645  0.34305242  1
  Co  Co2  1  0.34305222  0.84746237  0.34304605  1
  Co  Co3  1  0.65847883  0.65846126  0.15290733  1
  Co  Co4  1  0.15291207  0.65846904  0.65847965  1
  Co  Co5  1  0.65847195  0.15291692  0.65846889  1
  Co  Co6  1  0.71143682  0.28850387  0.99936696  1
  Co  Co7  1  0.99935357  0.71142583  0.28850410  1
  Co  Co8  1  0.28850887  0.99935526  0.71144340  1
  Co  Co9  1  0.99935699  0.28851188  0.71142272  1
  Co  Co10  1  0.71143475  0.99936880  0.28850675  1
  Co  Co11  1  0.28850005  0.71143683  0.99935500  1
  Co  Co12  1  0.99913547  0.99916226  0.49952477  1
  Co  Co13  1  0.49951559  0.99915787  0.99914045  1
  Co  Co14  1  0.99914313  0.49953614  0.99915734  1
  Co  Co15  1  0.90531296  0.90530225  0.90530648  1
  Co  Co16  1  0.09389972  0.09390054  0.09390450  1
loop_
_geom_bond_atom_site_label_1
_geom_bond_atom_site_label_2
_geom_bond_distance
_geom_bond_site_symmetry_2
Co0 Co13 2.387454 1_545
Co0 Co14 2.387742 1_455
Co0 Co5 2.430234 1_555
Co0 Co4 2.430385 1_555
Co0 Co8 2.485637 1_545
Co0 Co9 2.485772 1_455
Co0 Co6 2.570535 1_555
Co0 Co11 2.570614 1_555
Co0 Co16 2.580446 1_556
Co0 Y0 2.987462 1_555
Co0 Sm0 3.113460 1_556
Co0 Sm0 3.147391 1_555
Co1 Co12 2.387491 1_545
Co1 Co14 2.387573 1_554
Co1 Co5 2.430279 1_555
Co1 Co3 2.430320 1_555
Co1 Co10 2.485637 1_545
Co1 Co6 2.485655 1_554
Co1 Co9 2.570444 1_555
Co1 Co7 2.570500 1_555
Co1 Co16 2.580394 1_655
Co1 Y0 2.987642 1_555
Co1 Sm0 3.113692 1_655
Co1 Sm0 3.147209 1_555
Co2 Co3 2.430368 1_555
Co2 Co4 2.430382 1_555
Co2 Co7 2.485766 1_455
Co2 Co8 2.570589 1_555
Co2 Y0 2.987480 1_555
Co2 Sm0 3.113458 1_565
Co2 Sm0 3.147463 1_555
Co3 Co7 2.465308 1_555
Co3 Co6 2.584720 1_554
Co3 Sm0 2.993206 1_555
Co3 Y0 3.110700 1_554
Co3 Y0 3.150203 1_555
Co4 Co8 2.465375 1_555
Co4 Co9 2.584774 1_455
Co4 Co7 2.584873 1_455
Co4 Sm0 2.993460 1_555
Co4 Y0 3.110947 1_455
Co4 Y0 3.150006 1_555
Co5 Co9 2.465343 1_555
Co5 Co6 2.465396 1_555
Co5 Co8 2.584814 1_545
Co5 Sm0 2.993165 1_555
Co5 Y0 3.110804 1_545
Co5 Y0 3.150168 1_555
Co6 Co9 2.386639 1_555
Co6 Y0 2.966259 1_555
Co6 Sm0 2.971426 1_556
Co7 Y0 2.966287 1_555
Co7 Sm0 2.971847 1_655
Co8 Co9 2.396794 1_465
Co8 Y0 2.966039 1_555
Co8 Sm0 2.971708 1_565
Co9 Y0 2.966293 1_555
Co9 Sm0 2.971749 1_655
Co10 Co12 2.361612 1_555
Co10 Co13 2.374396 1_554
Co10 Co7 2.386654 1_555
Co10 Co6 2.396652 1_564
Co10 Co3 2.465487 1_555
Co10 Co2 2.570566 1_555
Co10 Co5 2.584749 1_565
Co10 Co16 2.649427 1_665
Co10 Co15 2.651180 1_554
Co10 Y0 2.966260 1_555
Co10 Sm0 2.971415 1_565
Co11 Co13 2.361702 1_555
Co11 Co14 2.374264 1_455
Co11 Co8 2.386520 1_555
Co11 Co7 2.396714 1_456
Co11 Co4 2.465278 1_555
Co11 Co2 2.485689 1_556
Co11 Co3 2.584884 1_556
Co11 Co16 2.649458 1_566
Co11 Co15 2.651087 1_455
Co11 Y0 2.966037 1_555
Co11 Sm0 2.971746 1_556
Co12 Co7 2.361787 1_555
Co12 Co9 2.374228 1_565
Co12 Co8 2.374418 1_655
Co12 Co5 2.381286 1_565
Co12 Co4 2.381528 1_655
Co12 Co2 2.387710 1_655
Co12 Co15 2.547939 1_555
Co12 Co16 2.548552 1_665
Co12 Y0 3.203806 1_555
Co12 Sm0 3.225942 1_665
Co13 Co8 2.361551 1_555
Co13 Co6 2.374322 1_565
Co13 Co5 2.381359 1_565
Co13 Co3 2.381543 1_556
Co13 Co2 2.387606 1_556
Co13 Co15 2.548052 1_555
Co13 Co16 2.548545 1_566
Co13 Y0 3.203613 1_555
Co13 Sm0 3.225684 1_566
Co14 Co6 2.361697 1_555
Co14 Co9 2.361789 1_555
Co14 Co7 2.374161 1_556
Co14 Co3 2.381238 1_556
Co14 Co4 2.381359 1_655
Co14 Co15 2.547878 1_555
Co14 Co16 2.548676 1_656
Co14 Y0 3.203804 1_555
Co14 Sm0 3.225977 1_656
Co15 Co16 2.283962 1_666
Co15 Co4 2.566177 1_655
Co15 Co3 2.566251 1_556
Co15 Co5 2.566318 1_565
Co15 Co8 2.651121 1_655
Co15 Co7 2.651141 1_556
Co15 Co6 2.651202 1_565
Co15 Co9 2.651239 1_565
Co15 Y0 3.012791 1_555
Co16 Co2 2.580433 1_545
Co16 Co8 2.649425 1_544
Co16 Co6 2.649446 1_454
Co16 Co7 2.649518 1_445
Co16 Co9 2.649563 1_454
Co16 Sm0 3.033928 1_555
