# generated using pymatgen
data_Eu2MgSe4
_symmetry_space_group_name_H-M   'P 1'
_cell_length_a   7.71662396
_cell_length_b   7.71662396
_cell_length_c   7.71662396
_cell_angle_alpha   112.31917264
_cell_angle_beta   112.31917264
_cell_angle_gamma   103.91419475
_symmetry_Int_Tables_number   1
_chemical_formula_structural   Eu2MgSe4
_chemical_formula_sum   'Eu4 Mg2 Se8'
_cell_volume   351.25753578
_cell_formula_units_Z   2
loop_
 _symmetry_equiv_pos_site_id
 _symmetry_equiv_pos_as_xyz
  1  'x, y, z'
loop_
 _atom_site_type_symbol
 _atom_site_label
 _atom_site_symmetry_multiplicity
 _atom_site_fract_x
 _atom_site_fract_y
 _atom_site_fract_z
 _atom_site_occupancy
  Eu  Eu0  1  0.87500000  0.74970000  0.37470000  1
  Eu  Eu1  1  0.49970000  0.12500000  0.87470000  1
  Eu  Eu2  1  0.37500000  0.50030000  0.62530000  1
  Eu  Eu3  1  0.25030000  0.62500000  0.12530000  1
  Mg  Mg0  1  0.00000000  0.00000000  0.00000000  1
  Mg  Mg1  1  0.75000000  0.25000000  0.50000000  1
  Se  Se0  1  0.51046900  0.38601700  0.27711200  1
  Se  Se1  1  0.76664400  0.48953100  0.87554800  1
  Se  Se2  1  0.10890500  0.23335600  0.72288800  1
  Se  Se3  1  0.61398300  0.89109500  0.12445200  1
  Se  Se4  1  0.23953100  0.01664400  0.37554800  1
  Se  Se5  1  0.98335600  0.35890500  0.22288800  1
  Se  Se6  1  0.64109500  0.86398300  0.62445200  1
  Se  Se7  1  0.13601700  0.76046900  0.77711200  1
loop_
_geom_bond_atom_site_label_1
_geom_bond_atom_site_label_2
_geom_bond_distance
_geom_bond_site_symmetry_2
Eu0 Se3 2.946088 1_555
Eu0 Se7 2.946088 1_655
Eu0 Se0 3.056951 1_555
Eu0 Se4 3.056955 1_665
Eu0 Se2 3.141105 1_665
Eu0 Se6 3.141111 1_555
Eu0 Se5 3.230926 1_555
Eu0 Se1 3.230933 1_554
Eu1 Se6 2.946088 1_545
Eu1 Se0 2.946088 1_556
Eu1 Se7 3.056951 1_545
Eu1 Se1 3.056955 1_555
Eu1 Se5 3.141105 1_556
Eu1 Se3 3.141111 1_546
Eu1 Se2 3.230926 1_555
Eu1 Se4 3.230933 1_555
Eu2 Se5 2.946092 1_455
Eu2 Se1 2.946094 1_555
Eu2 Se6 3.056951 1_555
Eu2 Se2 3.056956 1_555
Eu2 Se4 3.141104 1_555
Eu2 Se0 3.141111 1_555
Eu2 Se3 3.230930 1_556
Eu2 Se7 3.230930 1_555
Eu3 Se2 2.946092 1_554
Eu3 Se4 2.946094 1_565
Eu3 Se3 3.056951 1_555
Eu3 Se5 3.056956 1_455
Eu3 Se1 3.141104 1_454
Eu3 Se7 3.141111 1_554
Eu3 Se0 3.230930 1_555
Eu3 Se6 3.230930 1_555
Mg0 Se4 2.714010 1_555
Mg0 Se6 2.714014 1_444
Mg0 Se7 2.714014 1_544
Mg0 Se5 2.714018 1_455
Mg1 Se1 2.714010 1_555
Mg1 Se3 2.714014 1_545
Mg1 Se0 2.714014 1_555
Mg1 Se2 2.714018 1_655
