# generated using pymatgen
data_Pr7Y(Fe14B)4
_symmetry_space_group_name_H-M   'P 1'
_cell_length_a   8.79103932
_cell_length_b   8.79103932
_cell_length_c   12.13397000
_cell_angle_alpha   90.00000000
_cell_angle_beta   90.00000000
_cell_angle_gamma   90.04687851
_symmetry_Int_Tables_number   1
_chemical_formula_structural   Pr7Y(Fe14B)4
_chemical_formula_sum   'Pr7 Y1 Fe56 B4'
_cell_volume   937.74167445
_cell_formula_units_Z   1
loop_
 _symmetry_equiv_pos_site_id
 _symmetry_equiv_pos_as_xyz
  1  'x, y, z'
loop_
 _atom_site_type_symbol
 _atom_site_label
 _atom_site_symmetry_multiplicity
 _atom_site_fract_x
 _atom_site_fract_y
 _atom_site_fract_z
 _atom_site_occupancy
  Pr  Pr0  1  0.64323500  0.64037500  0.50000000  1
  Pr  Pr1  1  0.35962500  0.35676500  0.50000000  1
  Pr  Pr2  1  0.14208600  0.85791400  0.00000000  1
  Pr  Pr3  1  0.85752900  0.14247100  0.00000000  1
  Pr  Pr4  1  0.23154400  0.76845600  0.50000000  1
  Pr  Pr5  1  0.26854400  0.26834300  0.00000000  1
  Pr  Pr6  1  0.73165700  0.73145600  0.00000000  1
  Y  Y0  1  0.77070100  0.22929900  0.50000000  1
  Fe  Fe0  1  0.81739700  0.18260300  0.74385400  1
  Fe  Fe1  1  0.18200800  0.81799200  0.74568700  1
  Fe  Fe2  1  0.31786600  0.31774400  0.24587300  1
  Fe  Fe3  1  0.68225600  0.68213400  0.24587300  1
  Fe  Fe4  1  0.18200800  0.81799200  0.25431300  1
  Fe  Fe5  1  0.81739700  0.18260300  0.25614600  1
  Fe  Fe6  1  0.68225600  0.68213400  0.75412700  1
  Fe  Fe7  1  0.31786600  0.31774400  0.75412700  1
  Fe  Fe8  1  0.53800500  0.13985800  0.67513200  1
  Fe  Fe9  1  0.46380600  0.86146400  0.67604100  1
  Fe  Fe10  1  0.03605700  0.36086900  0.17679800  1
  Fe  Fe11  1  0.96339500  0.63882300  0.17680700  1
  Fe  Fe12  1  0.46380600  0.86146400  0.32395900  1
  Fe  Fe13  1  0.53800500  0.13985800  0.32486800  1
  Fe  Fe14  1  0.96339500  0.63882300  0.82319300  1
  Fe  Fe15  1  0.03605700  0.36086900  0.82320200  1
  Fe  Fe16  1  0.13853600  0.53619400  0.67604100  1
  Fe  Fe17  1  0.86014200  0.46199500  0.67513200  1
  Fe  Fe18  1  0.36117700  0.03660500  0.17680700  1
  Fe  Fe19  1  0.63913100  0.96394300  0.17679800  1
  Fe  Fe20  1  0.86014200  0.46199500  0.32486800  1
  Fe  Fe21  1  0.13853600  0.53619400  0.32395900  1
  Fe  Fe22  1  0.63913100  0.96394300  0.82320200  1
  Fe  Fe23  1  0.36117700  0.03660500  0.82319300  1
  Fe  Fe24  1  0.59882100  0.40117900  0.70368600  1
  Fe  Fe25  1  0.40209600  0.59790400  0.70492300  1
  Fe  Fe26  1  0.09763400  0.09817300  0.20481800  1
  Fe  Fe27  1  0.90182700  0.90236600  0.20481800  1
  Fe  Fe28  1  0.40209600  0.59790400  0.29507700  1
  Fe  Fe29  1  0.59882100  0.40117900  0.29631400  1
  Fe  Fe30  1  0.90182700  0.90236600  0.79518200  1
  Fe  Fe31  1  0.09763400  0.09817300  0.79518200  1
  Fe  Fe32  1  0.72545600  0.93432300  0.62692900  1
  Fe  Fe33  1  0.27464100  0.06788400  0.62801400  1
  Fe  Fe34  1  0.22525500  0.56762800  0.12788300  1
  Fe  Fe35  1  0.77456900  0.43231100  0.12830300  1
  Fe  Fe36  1  0.27464100  0.06788400  0.37198600  1
  Fe  Fe37  1  0.72545600  0.93432300  0.37307100  1
  Fe  Fe38  1  0.77456900  0.43231100  0.87169700  1
  Fe  Fe39  1  0.22525500  0.56762800  0.87211700  1
  Fe  Fe40  1  0.93211600  0.72535900  0.62801400  1
  Fe  Fe41  1  0.06567700  0.27454400  0.62692900  1
  Fe  Fe42  1  0.56768900  0.22543100  0.12830300  1
  Fe  Fe43  1  0.43237200  0.77474500  0.12788300  1
  Fe  Fe44  1  0.06567700  0.27454400  0.37307100  1
  Fe  Fe45  1  0.93211600  0.72535900  0.37198600  1
  Fe  Fe46  1  0.43237200  0.77474500  0.87211700  1
  Fe  Fe47  1  0.56768900  0.22543100  0.87169700  1
  Fe  Fe48  1  0.99898500  0.00101500  0.61444800  1
  Fe  Fe49  1  0.50015700  0.49984300  0.11474400  1
  Fe  Fe50  1  0.99898500  0.00101500  0.38555200  1
  Fe  Fe51  1  0.50015700  0.49984300  0.88525600  1
  Fe  Fe52  1  0.50149300  0.00158300  0.50000000  1
  Fe  Fe53  1  0.00021800  0.49995900  0.00000000  1
  Fe  Fe54  1  0.99841700  0.49850700  0.50000000  1
  Fe  Fe55  1  0.50004100  0.99978200  0.00000000  1
  B  B0  1  0.87640500  0.87606300  0.50000000  1
  B  B1  1  0.12393700  0.12359500  0.50000000  1
  B  B2  1  0.37687800  0.62312200  0.00000000  1
  B  B3  1  0.62354900  0.37645100  0.00000000  1
loop_
_geom_bond_atom_site_label_1
_geom_bond_atom_site_label_2
_geom_bond_distance
_geom_bond_site_symmetry_2
Pr0 Y0 3.784405 1_555
Pr1 Y0 3.784405 1_555
Fe0 Fe8 2.620628 1_555
Fe0 Fe17 2.620628 1_555
Fe0 Fe30 2.647827 1_545
Fe0 Fe31 2.647827 1_655
Fe0 Fe22 2.659520 1_545
Fe0 Fe15 2.659520 1_655
Fe0 Fe47 2.714467 1_555
Fe0 Fe38 2.714467 1_555
Fe0 Fe32 2.725289 1_545
Fe0 Fe41 2.725289 1_655
Fe0 Fe48 2.750704 1_555
Fe0 Fe24 2.761884 1_555
Fe0 Y0 3.015377 1_555
Fe0 Pr3 3.147893 1_556
Fe1 Fe31 2.642086 1_565
Fe1 Fe30 2.642086 1_455
Fe1 Fe16 2.644932 1_555
Fe1 Fe9 2.644932 1_555
Fe1 Fe14 2.655906 1_455
Fe1 Fe23 2.655906 1_565
Fe1 Fe39 2.709906 1_555
Fe1 Fe46 2.709906 1_555
Fe1 Fe40 2.743160 1_455
Fe1 Fe33 2.743160 1_565
Fe1 Fe48 2.778066 1_465
Fe1 Fe25 2.781673 1_555
Fe1 Pr4 3.044157 1_555
Fe1 Pr2 3.125518 1_556
Fe2 Fe28 2.639627 1_555
Fe2 Fe29 2.647635 1_555
Fe2 Fe21 2.660073 1_555
Fe2 Fe36 2.703597 1_555
Fe2 Fe44 2.727653 1_555
Fe2 Fe42 2.742256 1_555
Fe2 Fe34 2.746117 1_555
Fe2 Fe49 2.767351 1_555
Fe2 Fe26 2.777823 1_555
Fe2 Pr5 3.045828 1_555
Fe2 Pr1 3.124201 1_555
Fe3 Fe45 2.703597 1_555
Fe3 Fe37 2.727653 1_555
Fe3 Fe35 2.742256 1_555
Fe3 Fe43 2.746117 1_555
Fe3 Fe49 2.767351 1_555
Fe3 Pr6 3.045828 1_555
Fe3 Pr0 3.124201 1_555
Fe4 Fe43 2.709906 1_555
Fe4 Fe45 2.743160 1_455
Fe4 Fe50 2.778066 1_465
Fe4 Pr4 3.044157 1_555
Fe4 Pr2 3.125518 1_555
Fe5 Fe50 2.750704 1_555
Fe5 Y0 3.015377 1_555
Fe5 Pr3 3.147893 1_555
Fe6 Fe9 2.660073 1_555
Fe6 Pr6 3.045828 1_556
Fe6 Pr0 3.124201 1_555
Fe7 Fe8 2.667282 1_555
Fe7 Pr5 3.045828 1_556
Fe7 Pr1 3.124201 1_555
Fe8 Fe9 2.532315 1_545
Fe8 Y0 3.052223 1_555
Fe8 Pr1 3.258194 1_555
Fe9 Pr4 3.065561 1_555
Fe9 Pr0 3.291431 1_555
Fe10 Fe26 2.396637 1_555
Fe10 Fe35 2.455061 1_455
Fe10 Fe53 2.489407 1_555
Fe10 Fe44 2.513148 1_555
Fe10 Fe21 2.524569 1_555
Fe10 Fe11 2.526124 1_455
Fe10 Fe20 2.532234 1_455
Fe10 Fe34 2.533277 1_555
Fe10 Fe2 2.642962 1_555
Fe10 Fe5 2.659520 1_455
Fe10 Pr5 3.073047 1_555
Fe10 Pr3 3.278196 1_455
Fe11 Fe27 2.403781 1_555
Fe11 Fe34 2.458820 1_655
Fe11 Fe53 2.489639 1_655
Fe11 Fe45 2.502700 1_555
Fe11 Fe21 2.524876 1_655
Fe11 Fe35 2.528410 1_555
Fe11 Fe20 2.542783 1_555
Fe11 Fe3 2.637643 1_555
Fe11 Fe4 2.655906 1_655
Fe11 Pr6 3.068996 1_555
Fe11 Pr2 3.282522 1_655
Fe12 Fe28 2.404869 1_555
Fe12 Fe37 2.460441 1_555
Fe12 Fe52 2.487816 1_565
Fe12 Fe43 2.513502 1_555
Fe12 Fe19 2.524569 1_555
Fe12 Fe18 2.524876 1_565
Fe12 Fe36 2.530398 1_565
Fe12 Fe13 2.532315 1_565
Fe12 Fe4 2.644932 1_555
Fe12 Fe3 2.660073 1_555
Fe12 Pr4 3.065561 1_555
Fe12 Pr0 3.291431 1_555
Fe13 Fe29 2.383564 1_555
Fe13 Fe36 2.466814 1_555
Fe13 Fe52 2.468977 1_555
Fe13 Fe42 2.514451 1_555
Fe13 Fe37 2.515408 1_545
Fe13 Fe19 2.532234 1_545
Fe13 Fe18 2.542783 1_555
Fe13 Fe5 2.620628 1_555
Fe13 Fe2 2.667282 1_555
Fe13 Y0 3.052223 1_555
Fe13 Pr1 3.258194 1_555
Fe14 Fe30 2.403781 1_555
Fe14 Fe39 2.458820 1_655
Fe14 Fe53 2.489639 1_656
Fe14 Fe40 2.502700 1_555
Fe14 Fe16 2.524876 1_655
Fe14 Fe15 2.526124 1_655
Fe14 Fe38 2.528410 1_555
Fe14 Fe17 2.542783 1_555
Fe14 Fe6 2.637643 1_555
Fe14 Pr6 3.068996 1_556
Fe14 Pr2 3.282522 1_656
Fe15 Fe31 2.396637 1_555
Fe15 Fe38 2.455061 1_455
Fe15 Fe53 2.489407 1_556
Fe15 Fe41 2.513148 1_555
Fe15 Fe16 2.524569 1_555
Fe15 Fe17 2.532234 1_455
Fe15 Fe39 2.533277 1_555
Fe15 Fe7 2.642962 1_555
Fe15 Pr5 3.073047 1_556
Fe15 Pr3 3.278196 1_456
Fe16 Fe25 2.404869 1_555
Fe16 Fe41 2.460441 1_555
Fe16 Fe54 2.487816 1_455
Fe16 Fe39 2.513502 1_555
Fe16 Fe40 2.530398 1_455
Fe16 Fe17 2.532315 1_455
Fe16 Fe7 2.660073 1_555
Fe16 Pr4 3.065561 1_555
Fe16 Pr1 3.291431 1_555
Fe17 Fe24 2.383564 1_555
Fe17 Fe40 2.466814 1_555
Fe17 Fe54 2.468977 1_555
Fe17 Fe38 2.514451 1_555
Fe17 Fe41 2.515408 1_655
Fe17 Fe6 2.667282 1_555
Fe17 Y0 3.052223 1_555
Fe17 Pr0 3.258194 1_555
Fe18 Fe26 2.403781 1_555
Fe18 Fe43 2.458820 1_545
Fe18 Fe55 2.489639 1_545
Fe18 Fe36 2.502700 1_555
Fe18 Fe19 2.526124 1_545
Fe18 Fe42 2.528410 1_555
Fe18 Fe2 2.637643 1_555
Fe18 Fe4 2.655906 1_545
Fe18 Pr5 3.068996 1_555
Fe18 Pr2 3.282522 1_545
Fe19 Fe27 2.396637 1_555
Fe19 Fe42 2.455061 1_565
Fe19 Fe55 2.489407 1_555
Fe19 Fe37 2.513148 1_555
Fe19 Fe43 2.533277 1_555
Fe19 Fe3 2.642962 1_555
Fe19 Fe5 2.659520 1_565
Fe19 Pr6 3.073047 1_555
Fe19 Pr3 3.278196 1_565
Fe20 Fe29 2.383564 1_555
Fe20 Fe45 2.466814 1_555
Fe20 Fe54 2.468977 1_555
Fe20 Fe35 2.514451 1_555
Fe20 Fe44 2.515408 1_655
Fe20 Fe21 2.532315 1_655
Fe20 Fe5 2.620628 1_555
Fe20 Fe3 2.667282 1_555
Fe20 Y0 3.052223 1_555
Fe20 Pr0 3.258194 1_555
Fe21 Fe28 2.404869 1_555
Fe21 Fe44 2.460441 1_555
Fe21 Fe54 2.487816 1_455
Fe21 Fe34 2.513502 1_555
Fe21 Fe45 2.530398 1_455
Fe21 Fe4 2.644932 1_555
Fe21 Pr4 3.065561 1_555
Fe21 Pr1 3.291431 1_555
Fe22 Fe30 2.396637 1_555
Fe22 Fe47 2.455061 1_565
Fe22 Fe55 2.489407 1_556
Fe22 Fe32 2.513148 1_555
Fe22 Fe9 2.524569 1_555
Fe22 Fe23 2.526124 1_565
Fe22 Fe8 2.532234 1_565
Fe22 Fe46 2.533277 1_555
Fe22 Fe6 2.642962 1_555
Fe22 Pr6 3.073047 1_556
Fe22 Pr3 3.278196 1_566
Fe23 Fe31 2.403781 1_555
Fe23 Fe46 2.458820 1_545
Fe23 Fe55 2.489639 1_546
Fe23 Fe33 2.502700 1_555
Fe23 Fe9 2.524876 1_545
Fe23 Fe47 2.528410 1_555
Fe23 Fe8 2.542783 1_555
Fe23 Fe7 2.637643 1_555
Fe23 Pr5 3.068996 1_556
Fe23 Pr2 3.282522 1_546
Fe24 Fe8 2.383564 1_555
Fe24 Fe25 2.446812 1_555
Fe24 Fe51 2.521862 1_555
Fe24 Fe47 2.572414 1_555
Fe24 Fe38 2.572414 1_555
Fe24 Fe7 2.647635 1_555
Fe24 Fe6 2.647635 1_555
Fe24 Y0 3.267784 1_555
Fe24 Pr1 3.268211 1_555
Fe24 Pr0 3.268211 1_555
Fe25 Fe9 2.404869 1_555
Fe25 Fe51 2.505100 1_555
Fe25 Fe46 2.569577 1_555
Fe25 Fe39 2.569577 1_555
Fe25 Fe6 2.639627 1_555
Fe25 Fe7 2.639627 1_555
Fe25 Pr4 3.268407 1_555
Fe25 Pr0 3.288579 1_555
Fe25 Pr1 3.288579 1_555
Fe26 Fe27 2.433356 1_445
Fe26 Fe50 2.507934 1_455
Fe26 Fe36 2.570487 1_555
Fe26 Fe44 2.579084 1_555
Fe26 Fe4 2.642086 1_545
Fe26 Fe5 2.647827 1_455
Fe26 Pr5 3.266218 1_555
Fe26 Pr3 3.284030 1_455
Fe26 Pr2 3.285062 1_545
Fe27 Fe50 2.507934 1_565
Fe27 Fe45 2.570487 1_555
Fe27 Fe37 2.579084 1_555
Fe27 Fe4 2.642086 1_655
Fe27 Fe5 2.647827 1_565
Fe27 Fe3 2.777823 1_555
Fe27 Pr6 3.266218 1_555
Fe27 Pr3 3.284030 1_565
Fe27 Pr2 3.285062 1_655
Fe28 Fe29 2.446812 1_555
Fe28 Fe49 2.505100 1_555
Fe28 Fe43 2.569577 1_555
Fe28 Fe34 2.569577 1_555
Fe28 Fe3 2.639627 1_555
Fe28 Fe4 2.781673 1_555
Fe28 Pr4 3.268407 1_555
Fe28 Pr0 3.288579 1_555
Fe28 Pr1 3.288579 1_555
Fe29 Fe49 2.521862 1_555
Fe29 Fe42 2.572414 1_555
Fe29 Fe35 2.572414 1_555
Fe29 Fe3 2.647635 1_555
Fe29 Fe5 2.761884 1_555
Fe29 Y0 3.267784 1_555
Fe29 Pr1 3.268211 1_555
Fe29 Pr0 3.268211 1_555
Fe30 Fe31 2.433356 1_665
Fe30 Fe48 2.507934 1_565
Fe30 Fe40 2.570487 1_555
Fe30 Fe32 2.579084 1_555
Fe30 Fe6 2.777823 1_555
Fe30 Pr6 3.266218 1_556
Fe30 Pr3 3.284030 1_566
Fe30 Pr2 3.285062 1_656
Fe31 Fe48 2.507934 1_455
Fe31 Fe33 2.570487 1_555
Fe31 Fe41 2.579084 1_555
Fe31 Fe7 2.777823 1_555
Fe31 Pr5 3.266218 1_556
Fe31 Pr3 3.284030 1_456
Fe31 Pr2 3.285062 1_546
Fe32 Fe9 2.460441 1_555
Fe32 Fe8 2.515408 1_565
Fe32 Fe52 2.569053 1_565
Fe32 Fe6 2.727653 1_555
Fe32 Y0 3.041873 1_565
Fe32 Pr0 3.093393 1_555
Fe33 Fe8 2.466814 1_555
Fe33 Fe9 2.530398 1_545
Fe33 Fe52 2.594516 1_555
Fe33 Fe7 2.703597 1_555
Fe33 Pr1 3.068751 1_555
Fe33 Pr4 3.079549 1_545
Fe34 Fe53 2.583317 1_555
Fe34 Fe4 2.709906 1_555
Fe34 Pr2 3.075347 1_555
Fe34 Pr5 3.078412 1_555
Fe35 Fe53 2.590455 1_655
Fe35 Fe5 2.714467 1_555
Fe35 Pr3 3.074233 1_555
Fe35 Pr6 3.079523 1_555
Fe36 Fe52 2.594516 1_555
Fe36 Fe4 2.743160 1_545
Fe36 Pr1 3.068751 1_555
Fe36 Pr4 3.079549 1_545
Fe37 Fe52 2.569053 1_565
Fe37 Fe5 2.725289 1_565
Fe37 Y0 3.041873 1_565
Fe37 Pr0 3.093393 1_555
Fe38 Fe53 2.590455 1_656
Fe38 Fe6 2.742256 1_555
Fe38 Pr3 3.074233 1_556
Fe38 Pr6 3.079523 1_556
Fe39 Fe53 2.583317 1_556
Fe39 Fe7 2.746117 1_555
Fe39 Pr2 3.075347 1_556
Fe39 Pr5 3.078412 1_556
Fe40 Fe54 2.594516 1_555
Fe40 Fe6 2.703597 1_555
Fe40 Pr0 3.068751 1_555
Fe40 Pr4 3.079549 1_655
Fe41 Fe54 2.569053 1_455
Fe41 Fe7 2.727653 1_555
Fe41 Y0 3.041873 1_455
Fe41 Pr1 3.093393 1_555
Fe42 Fe55 2.590455 1_545
Fe42 Fe5 2.714467 1_555
Fe42 Pr3 3.074233 1_555
Fe42 Pr5 3.079523 1_555
Fe43 Fe55 2.583317 1_555
Fe43 Pr2 3.075347 1_555
Fe43 Pr6 3.078412 1_555
Fe44 Fe54 2.569053 1_455
Fe44 Fe5 2.725289 1_455
Fe44 Y0 3.041873 1_455
Fe44 Pr1 3.093393 1_555
Fe45 Fe54 2.594516 1_555
Fe45 Pr0 3.068751 1_555
Fe45 Pr4 3.079549 1_655
Fe46 Fe9 2.513502 1_555
Fe46 Fe55 2.583317 1_556
Fe46 Fe6 2.746117 1_555
Fe46 Pr2 3.075347 1_556
Fe46 Pr6 3.078412 1_556
Fe47 Fe8 2.514451 1_555
Fe47 Fe55 2.590455 1_546
Fe47 Fe7 2.742256 1_555
Fe47 Pr3 3.074233 1_556
Fe47 Pr5 3.079523 1_556
Fe48 Y0 3.160700 1_555
Fe48 Pr4 3.208548 1_645
Fe49 Pr6 3.196754 1_555
Fe49 Pr5 3.196754 1_555
Fe50 Y0 3.160700 1_555
Fe50 Pr4 3.208548 1_645
Fe51 Fe6 2.767351 1_555
Fe51 Fe7 2.767351 1_555
Fe51 Pr5 3.196754 1_556
Fe51 Pr6 3.196754 1_556
Fe52 Fe8 2.468977 1_555
Fe52 Fe9 2.487816 1_545
Fe52 Y0 3.098479 1_555
Fe52 Pr4 3.134319 1_545
Fe52 Pr1 3.363227 1_555
Fe52 Pr0 3.412076 1_545
Fe53 Pr5 3.117369 1_555
Fe53 Pr6 3.118250 1_455
Fe53 Pr3 3.382830 1_455
Fe53 Pr2 3.383982 1_555
Fe54 Y0 3.098479 1_555
Fe54 Pr4 3.134319 1_655
Fe54 Pr0 3.363227 1_555
Fe54 Pr1 3.412076 1_655
Fe55 Pr6 3.117369 1_555
Fe55 Pr5 3.118250 1_565
Fe55 Pr3 3.382830 1_565
Fe55 Pr2 3.383982 1_555
B0 Fe50 2.072298 1_565
B0 Fe48 2.072298 1_565
B0 Fe32 2.096765 1_555
B0 Fe37 2.096765 1_555
B0 Fe40 2.099746 1_555
B0 Fe45 2.099746 1_555
B0 Pr0 2.913366 1_555
B0 Y0 3.242096 1_565
B0 Pr4 3.262950 1_655
B1 Fe48 2.072298 1_455
B1 Fe50 2.072298 1_455
B1 Fe41 2.096765 1_555
B1 Fe44 2.096765 1_555
B1 Fe33 2.099746 1_555
B1 Fe36 2.099746 1_555
B1 Pr1 2.913366 1_555
B1 Y0 3.242096 1_455
B1 Pr4 3.262950 1_545
B2 Fe49 2.071099 1_555
B2 Fe51 2.071099 1_554
B2 Fe43 2.102732 1_555
B2 Fe34 2.102732 1_555
B2 Fe46 2.102732 1_554
B2 Fe39 2.102732 1_554
B2 Pr2 2.920224 1_555
B2 Pr5 3.260297 1_555
B2 Pr6 3.260297 1_555
B3 Fe49 2.072140 1_555
B3 Fe51 2.072140 1_554
B3 Fe35 2.103893 1_555
B3 Fe42 2.103893 1_555
B3 Fe47 2.103893 1_554
B3 Fe38 2.103893 1_554
B3 Pr3 2.910124 1_555
B3 Pr5 3.261619 1_555
B3 Pr6 3.261619 1_555
