# generated using pymatgen
data_RbV3CdCu4O13
_symmetry_space_group_name_H-M   'P 1'
_cell_length_a   6.28361000
_cell_length_b   8.50440772
_cell_length_c   11.01764984
_cell_angle_alpha   98.02067887
_cell_angle_beta   90.00000000
_cell_angle_gamma   90.00000000
_symmetry_Int_Tables_number   1
_chemical_formula_structural   RbV3CdCu4O13
_chemical_formula_sum   'Rb2 V6 Cd2 Cu8 O26'
_cell_volume   583.00593881
_cell_formula_units_Z   2
loop_
 _symmetry_equiv_pos_site_id
 _symmetry_equiv_pos_as_xyz
  1  'x, y, z'
loop_
 _atom_site_type_symbol
 _atom_site_label
 _atom_site_symmetry_multiplicity
 _atom_site_fract_x
 _atom_site_fract_y
 _atom_site_fract_z
 _atom_site_occupancy
  Rb  Rb0  1  0.75000000  0.51190300  0.89326300  1
  Rb  Rb1  1  0.25000000  0.48809700  0.10673700  1
  V  V0  1  0.75000000  0.13004100  0.00209300  1
  V  V1  1  0.25000000  0.86995900  0.99790700  1
  V  V2  1  0.75000000  0.46564800  0.29663300  1
  V  V3  1  0.25000000  0.53435200  0.70336700  1
  V  V4  1  0.75000000  0.17977200  0.61772100  1
  V  V5  1  0.25000000  0.82022800  0.38227900  1
  Cd  Cd0  1  0.75000000  0.80495100  0.14187100  1
  Cd  Cd1  1  0.25000000  0.19504900  0.85812900  1
  Cu  Cu0  1  0.99393100  0.89040200  0.72602400  1
  Cu  Cu1  1  0.00606900  0.10959800  0.27397600  1
  Cu  Cu2  1  0.49393100  0.10959800  0.27397600  1
  Cu  Cu3  1  0.50606900  0.89040200  0.72602400  1
  Cu  Cu4  1  0.75000000  0.60434200  0.60532900  1
  Cu  Cu5  1  0.25000000  0.39565800  0.39467100  1
  Cu  Cu6  1  0.75000000  0.85572600  0.43941500  1
  Cu  Cu7  1  0.25000000  0.14427400  0.56058500  1
  O  O0  1  0.96823500  0.24508600  0.98231800  1
  O  O1  1  0.03176500  0.75491400  0.01768200  1
  O  O2  1  0.46823500  0.75491400  0.01768200  1
  O  O3  1  0.53176500  0.24508600  0.98231800  1
  O  O4  1  0.75000000  0.38013000  0.61522200  1
  O  O5  1  0.25000000  0.61987000  0.38477800  1
  O  O6  1  0.47906600  0.65595000  0.70777400  1
  O  O7  1  0.52093400  0.34405000  0.29222600  1
  O  O8  1  0.97906600  0.34405000  0.29222600  1
  O  O9  1  0.02093400  0.65595000  0.70777400  1
  O  O10  1  0.75000000  0.55074700  0.16561100  1
  O  O11  1  0.25000000  0.44925300  0.83438900  1
  O  O12  1  0.75000000  0.08344000  0.46646100  1
  O  O13  1  0.25000000  0.91656000  0.53353900  1
  O  O14  1  0.01153100  0.87732100  0.30842600  1
  O  O15  1  0.98846900  0.12267900  0.69157400  1
  O  O16  1  0.51153100  0.12267900  0.69157400  1
  O  O17  1  0.48846900  0.87732100  0.30842600  1
  O  O18  1  0.75000000  0.62279700  0.42230700  1
  O  O19  1  0.25000000  0.37720300  0.57769300  1
  O  O20  1  0.75000000  0.84144700  0.61737500  1
  O  O21  1  0.25000000  0.15855300  0.38262500  1
  O  O22  1  0.75000000  0.07334700  0.16577100  1
  O  O23  1  0.25000000  0.92665300  0.83422900  1
  O  O24  1  0.75000000  0.96894200  0.89004800  1
  O  O25  1  0.25000000  0.03105800  0.10995200  1
loop_
_geom_bond_atom_site_label_1
_geom_bond_atom_site_label_2
_geom_bond_distance
_geom_bond_site_symmetry_2
Cd0 O10 2.213555 1_555
Cd0 O2 2.241749 1_555
Cd0 O1 2.241749 1_655
Cd0 O22 2.260894 1_565
Cd0 O14 2.476215 1_655
Cd0 O17 2.476215 1_555
Cd1 O11 2.213555 1_555
Cd1 O3 2.241749 1_555
Cd1 O0 2.241749 1_455
Cd1 O23 2.260894 1_545
Cd1 O16 2.476215 1_555
Cd1 O15 2.476215 1_455
Cu0 O20 1.953606 1_555
Cu0 O9 1.983149 1_655
Cu0 O23 2.000685 1_655
Cu0 O15 2.063151 1_565
Cu0 O24 2.392591 1_555
Cu1 O21 1.953606 1_555
Cu1 O8 1.983149 1_455
Cu1 O22 2.000685 1_455
Cu1 O14 2.063151 1_545
Cu1 O25 2.392591 1_555
Cu2 O21 1.953606 1_555
Cu2 O7 1.983149 1_555
Cu2 O22 2.000685 1_555
Cu2 O17 2.063151 1_545
Cu2 O25 2.392591 1_555
Cu3 O20 1.953606 1_555
Cu3 O6 1.983149 1_555
Cu3 O23 2.000685 1_555
Cu3 O16 2.063151 1_565
Cu3 O24 2.392591 1_555
Cu4 O4 1.925027 1_555
Cu4 O20 2.002237 1_555
Cu4 O18 2.044288 1_555
Cu4 O6 2.055887 1_555
Cu4 O9 2.055887 1_655
Cu5 O5 1.925027 1_555
Cu5 O21 2.002237 1_555
Cu5 O19 2.044288 1_555
Cu5 O8 2.055887 1_455
Cu5 O7 2.055887 1_555
Cu6 O12 1.917830 1_565
Cu6 O18 1.963514 1_555
Cu6 O20 1.981297 1_555
Cu6 O14 2.211588 1_655
Cu6 O17 2.211588 1_555
Cu7 O13 1.917830 1_545
Cu7 O19 1.963514 1_555
Cu7 O21 1.981297 1_555
Cu7 O16 2.211588 1_555
Cu7 O15 2.211588 1_455
O0 V0 1.716006 1_556
O0 Rb1 2.914499 1_656
O0 Rb0 2.934858 1_555
O1 V1 1.716006 1_554
O1 Rb0 2.914499 1_454
O1 Rb1 2.934858 1_555
O2 V1 1.716006 1_554
O2 Rb0 2.914499 1_554
O2 Rb1 2.934858 1_555
O3 V0 1.716006 1_556
O3 Rb1 2.914499 1_556
O3 Rb0 2.934858 1_555
O4 V4 1.707985 1_555
O4 Rb0 3.111594 1_555
O5 V5 1.707985 1_555
O5 Rb1 3.111594 1_555
O6 V3 1.769042 1_555
O6 Rb0 3.045354 1_555
O7 V2 1.769042 1_555
O7 Rb1 3.045354 1_555
O8 V2 1.769042 1_555
O8 Rb1 3.045354 1_655
O9 V3 1.769042 1_555
O9 Rb0 3.045354 1_455
O10 V2 1.702691 1_555
O10 Rb0 2.972595 1_554
O10 Rb1 3.237147 1_555
O10 Rb1 3.237147 1_655
O11 V3 1.702691 1_555
O11 Rb1 2.972595 1_556
O11 Rb0 3.237147 1_455
O11 Rb0 3.237147 1_555
O12 V4 1.751424 1_555
O13 V5 1.751424 1_555
O14 V5 1.803726 1_555
O15 V4 1.803726 1_555
O16 V4 1.803726 1_555
O17 V5 1.803726 1_555
O18 V2 1.785196 1_555
O19 V3 1.785196 1_555
O22 V0 1.930587 1_555
O23 V1 1.930587 1_555
O24 V0 1.711429 1_566
O25 V1 1.711429 1_544
