# generated using pymatgen
data_InGaCuO4
_symmetry_space_group_name_H-M   'P 1'
_cell_length_a   8.50839034
_cell_length_b   8.50839034
_cell_length_c   8.50839032
_cell_angle_alpha   23.27747180
_cell_angle_beta   23.27747180
_cell_angle_gamma   23.27747426
_symmetry_Int_Tables_number   1
_chemical_formula_structural   InGaCuO4
_chemical_formula_sum   'In1 Ga1 Cu1 O4'
_cell_volume   84.45047861
_cell_formula_units_Z   1
loop_
 _symmetry_equiv_pos_site_id
 _symmetry_equiv_pos_as_xyz
  1  'x, y, z'
loop_
 _atom_site_type_symbol
 _atom_site_label
 _atom_site_symmetry_multiplicity
 _atom_site_fract_x
 _atom_site_fract_y
 _atom_site_fract_z
 _atom_site_occupancy
  In  In0  1  0.00101000  0.00101000  0.00101000  1
  Ga  Ga0  1  0.21155700  0.21155700  0.21155700  1
  Cu  Cu0  1  0.78655300  0.78655300  0.78655300  1
  O  O0  1  0.87288300  0.87288300  0.87288300  1
  O  O1  1  0.13220300  0.13220300  0.13220300  1
  O  O2  1  0.70671500  0.70671500  0.70671500  1
  O  O3  1  0.28908000  0.28908000  0.28908000  1
loop_
_geom_bond_atom_site_label_1
_geom_bond_atom_site_label_2
_geom_bond_distance
_geom_bond_site_symmetry_2
In0 O2 2.206235 1_445
In0 O2 2.206235 1_544
In0 O2 2.206235 1_454
In0 O3 2.278339 1_554
In0 O3 2.278339 1_455
In0 O3 2.278339 1_545
Ga0 O3 1.924349 1_555
Ga0 O1 1.969800 1_555
Ga0 O0 1.986453 1_445
Ga0 O0 1.986454 1_454
Ga0 O0 1.986454 1_544
Cu0 O2 1.981814 1_555
Cu0 O1 2.005467 1_665
Cu0 O1 2.005467 1_566
Cu0 O1 2.005467 1_656
Cu0 O0 2.142965 1_555
