# generated using pymatgen
data_Li9Mn2Co5O16
_symmetry_space_group_name_H-M   'P 1'
_cell_length_a   5.92890900
_cell_length_b   6.43248115
_cell_length_c   8.61209071
_cell_angle_alpha   82.92094334
_cell_angle_beta   109.25911376
_cell_angle_gamma   113.98556281
_symmetry_Int_Tables_number   1
_chemical_formula_structural   Li9Mn2Co5O16
_chemical_formula_sum   'Li9 Mn2 Co5 O16'
_cell_volume   283.26652997
_cell_formula_units_Z   1
loop_
 _symmetry_equiv_pos_site_id
 _symmetry_equiv_pos_as_xyz
  1  'x, y, z'
loop_
 _atom_site_type_symbol
 _atom_site_label
 _atom_site_symmetry_multiplicity
 _atom_site_fract_x
 _atom_site_fract_y
 _atom_site_fract_z
 _atom_site_occupancy
  Li  Li0  1  0.76182000  0.75280700  0.25708300  1
  Li  Li1  1  0.25762800  0.00564500  0.49845700  1
  Li  Li2  1  0.24381700  0.74396700  0.25698900  1
  Li  Li3  1  0.74353100  0.00679500  0.49220900  1
  Li  Li4  1  0.74822000  0.25493200  0.74287300  1
  Li  Li5  1  0.24678600  0.25055500  0.74553900  1
  Li  Li6  1  0.24645600  0.48998200  0.00475000  1
  Li  Li7  1  0.75796900  0.50345200  0.00397000  1
  Li  Li8  1  0.50058500  0.24986200  0.25555800  1
  Mn  Mn0  1  0.00859600  0.00489800  0.99998300  1
  Mn  Mn1  1  0.50550600  0.00485900  0.00152200  1
  Co  Co0  1  0.98647500  0.49168400  0.49861600  1
  Co  Co1  1  0.50149600  0.74897700  0.74712800  1
  Co  Co2  1  0.00138000  0.25259200  0.25080300  1
  Co  Co3  1  0.49473700  0.49466400  0.49975100  1
  Co  Co4  1  0.99927500  0.74905400  0.74803100  1
  O  O0  1  0.10666600  0.01113100  0.23614000  1
  O  O1  1  0.61572200  0.26764400  0.50019100  1
  O  O2  1  0.65681800  0.02282400  0.23796600  1
  O  O3  1  0.09954100  0.25640500  0.48556700  1
  O  O4  1  0.11547500  0.51509700  0.73922600  1
  O  O5  1  0.61353200  0.51305200  0.73997000  1
  O  O6  1  0.64656500  0.77483900  0.98974000  1
  O  O7  1  0.11059800  0.75769600  0.99085700  1
  O  O8  1  0.33887300  0.47388200  0.26430400  1
  O  O9  1  0.89053000  0.73899600  0.51192600  1
  O  O10  1  0.88832500  0.48426300  0.26165400  1
  O  O11  1  0.38669200  0.73601600  0.51054400  1
  O  O12  1  0.39006100  0.98669900  0.75993400  1
  O  O13  1  0.88992800  0.98899200  0.76037800  1
  O  O14  1  0.89877700  0.24706800  0.01009900  1
  O  O15  1  0.34762400  0.22067000  0.99824300  1
loop_
_geom_bond_atom_site_label_1
_geom_bond_atom_site_label_2
_geom_bond_distance
_geom_bond_site_symmetry_2
Li0 O2 2.042652 1_565
Li0 O9 2.075882 1_555
Li0 O0 2.093126 1_665
Li0 O10 2.136620 1_555
Li0 O6 2.179089 1_554
Li0 O8 2.434875 1_555
Li1 O1 2.103406 1_555
Li1 O12 2.132138 1_545
Li1 O0 2.139633 1_555
Li1 O11 2.141594 1_545
Li1 O3 2.146858 1_555
Li1 O9 2.185163 1_445
Li2 O8 2.021260 1_555
Li2 O11 2.067828 1_555
Li2 O10 2.100324 1_455
Li2 O0 2.147220 1_565
Li2 O7 2.167328 1_554
Li2 O2 2.421048 1_565
Li3 O2 2.077015 1_555
Li3 O3 2.082835 1_655
Li3 O1 2.119154 1_555
Li3 O11 2.165962 1_545
Li3 O13 2.189407 1_545
Li3 O9 2.192417 1_545
Li4 O1 1.979625 1_555
Li4 O5 2.109416 1_555
Li4 O4 2.147644 1_655
Li4 O12 2.161569 1_545
Li4 O13 2.162484 1_545
Li4 O14 2.179111 1_556
Li5 O15 2.064632 1_555
Li5 O3 2.119619 1_555
Li5 O4 2.128631 1_555
Li5 O13 2.134213 1_445
Li5 O5 2.155284 1_555
Li5 O12 2.160658 1_545
Li6 O14 2.029549 1_455
Li6 O15 2.062724 1_554
Li6 O8 2.118640 1_555
Li6 O7 2.154533 1_554
Li6 O4 2.167422 1_554
Li6 O6 2.368870 1_554
Li7 O6 2.080872 1_554
Li7 O7 2.094945 1_654
Li7 O10 2.101426 1_555
Li7 O14 2.118581 1_555
Li7 O5 2.151828 1_554
Li7 O15 2.361183 1_554
Li8 O1 1.991196 1_555
Li8 O8 2.049163 1_555
Li8 O2 2.064152 1_555
Li8 O15 2.099242 1_554
Li8 O10 2.163981 1_555
Li8 O0 2.174978 1_555
Mn0 O0 1.922782 1_556
Mn0 O15 1.927054 1_555
Mn0 O7 1.935042 1_545
Mn0 O14 1.937423 1_456
Mn0 O13 1.949176 1_445
Mn0 O6 2.032185 1_445
Mn1 O2 1.932154 1_555
Mn1 O15 1.957930 1_554
Mn1 O12 1.966316 1_544
Mn1 O6 1.999495 1_544
Mn1 O14 2.197905 1_555
Mn1 O7 2.210398 1_544
Co0 O3 1.915443 1_655
Co0 O9 1.921239 1_555
Co0 O10 1.929649 1_555
Co0 O4 1.959401 1_655
Co0 O1 2.085261 1_555
Co0 O11 2.226680 1_655
Co1 O5 1.902031 1_555
Co1 O12 1.923007 1_555
Co1 O11 1.924175 1_555
Co1 O6 1.979106 1_555
Co1 O4 2.151549 1_555
Co1 O13 2.163258 1_555
Co2 O10 1.888526 1_455
Co2 O8 1.901372 1_555
Co2 O3 1.910867 1_555
Co2 O0 1.925259 1_555
Co2 O2 1.951031 1_455
Co2 O14 1.958878 1_455
Co3 O1 1.869624 1_555
Co3 O11 1.926817 1_555
Co3 O8 1.927079 1_555
Co3 O5 1.954817 1_555
Co3 O3 2.188974 1_555
Co3 O9 2.206259 1_555
Co4 O4 1.910682 1_655
Co4 O9 1.920442 1_555
Co4 O13 1.926943 1_555
Co4 O7 1.974915 1_655
Co4 O5 2.153706 1_555
Co4 O12 2.172071 1_655
