# generated using pymatgen
data_Mg3FeO4
_symmetry_space_group_name_H-M   'P 1'
_cell_length_a   3.04446227
_cell_length_b   10.42978284
_cell_length_c   11.03591057
_cell_angle_alpha   114.07334604
_cell_angle_beta   82.10582306
_cell_angle_gamma   89.91785611
_symmetry_Int_Tables_number   1
_chemical_formula_structural   Mg3FeO4
_chemical_formula_sum   'Mg12 Fe4 O16'
_cell_volume   316.27344705
_cell_formula_units_Z   4
loop_
 _symmetry_equiv_pos_site_id
 _symmetry_equiv_pos_as_xyz
  1  'x, y, z'
loop_
 _atom_site_type_symbol
 _atom_site_label
 _atom_site_symmetry_multiplicity
 _atom_site_fract_x
 _atom_site_fract_y
 _atom_site_fract_z
 _atom_site_occupancy
  Mg  Mg0  1  0.74997300  0.37500900  0.50001400  1
  Mg  Mg1  1  0.25000100  0.12500200  0.50000200  1
  Mg  Mg2  1  0.75001300  0.87498700  0.49998400  1
  Mg  Mg3  1  0.25001700  0.62500100  0.50000400  1
  Mg  Mg4  1  0.87331400  0.43814300  0.25376900  1
  Mg  Mg5  1  0.37341400  0.18818000  0.25336200  1
  Mg  Mg6  1  0.87332400  0.93807500  0.25368900  1
  Mg  Mg7  1  0.37354400  0.68813600  0.25331900  1
  Mg  Mg8  1  0.62670200  0.31193900  0.74631200  1
  Mg  Mg9  1  0.12651600  0.06181400  0.74663500  1
  Mg  Mg10  1  0.62673200  0.81185800  0.74622100  1
  Mg  Mg11  1  0.12646200  0.56186500  0.74668100  1
  Fe  Fe0  1  0.49969900  0.75087100  0.99995000  1
  Fe  Fe1  1  0.00030700  0.49914500  0.00006800  1
  Fe  Fe2  1  0.49963500  0.25078600  0.00005700  1
  Fe  Fe3  1  0.00034600  0.99917700  0.99992600  1
  O  O0  1  0.56685600  0.53256400  0.86721200  1
  O  O1  1  0.06688900  0.28225700  0.86663800  1
  O  O2  1  0.56681000  0.03242800  0.86712200  1
  O  O3  1  0.06707200  0.78228800  0.86646800  1
  O  O4  1  0.93297100  0.21755600  0.13285500  1
  O  O5  1  0.43323400  0.96775000  0.13338100  1
  O  O6  1  0.93314100  0.71743900  0.13277400  1
  O  O7  1  0.43302900  0.46771300  0.13354200  1
  O  O8  1  0.68837600  0.59339200  0.62316300  1
  O  O9  1  0.18839700  0.34342900  0.62318000  1
  O  O10  1  0.68839200  0.09341700  0.62319000  1
  O  O11  1  0.18843800  0.84342500  0.62310800  1
  O  O12  1  0.81161400  0.15659200  0.37681800  1
  O  O13  1  0.31160400  0.90656700  0.37681800  1
  O  O14  1  0.81163100  0.65661700  0.37684200  1
  O  O15  1  0.31154700  0.40657500  0.37689500  1
loop_
_geom_bond_atom_site_label_1
_geom_bond_atom_site_label_2
_geom_bond_distance
_geom_bond_site_symmetry_2
Mg0 O8 2.115061 1_555
Mg0 O12 2.115449 1_555
Mg0 O15 2.144295 1_555
Mg0 O9 2.144756 1_655
Mg0 O15 2.146166 1_655
Mg0 O9 2.146535 1_555
Mg1 O9 2.115496 1_555
Mg1 O13 2.115577 1_545
Mg1 O12 2.144875 1_455
Mg1 O10 2.144896 1_555
Mg1 O10 2.146770 1_455
Mg1 O12 2.146775 1_555
Mg2 O14 2.114936 1_555
Mg2 O10 2.115581 1_565
Mg2 O11 2.144319 1_655
Mg2 O13 2.144724 1_555
Mg2 O11 2.146184 1_555
Mg2 O13 2.146567 1_655
Mg3 O11 2.115315 1_555
Mg3 O15 2.115342 1_555
Mg3 O8 2.144680 1_555
Mg3 O14 2.144794 1_455
Mg3 O14 2.146746 1_555
Mg3 O8 2.146755 1_455
Mg4 O7 2.115062 1_555
Mg4 O7 2.115080 1_655
Mg4 O14 2.115674 1_555
Mg4 O4 2.129409 1_555
Mg4 O15 2.143947 1_655
Mg4 O15 2.146637 1_555
Mg5 O4 2.115701 1_555
Mg5 O15 2.115976 1_555
Mg5 O4 2.116990 1_455
Mg5 O5 2.126284 1_545
Mg5 O12 2.146811 1_555
Mg5 O12 2.148931 1_455
Mg6 O5 2.115766 1_555
Mg6 O12 2.116157 1_565
Mg6 O5 2.116463 1_655
Mg6 O6 2.129831 1_555
Mg6 O13 2.143818 1_655
Mg6 O13 2.146297 1_555
Mg7 O6 2.115724 1_555
Mg7 O13 2.116209 1_555
Mg7 O6 2.116922 1_455
Mg7 O7 2.125843 1_555
Mg7 O14 2.146850 1_555
Mg7 O14 2.149312 1_455
Mg8 O1 2.116161 1_655
Mg8 O10 2.116185 1_555
Mg8 O1 2.116395 1_555
Mg8 O0 2.129708 1_555
Mg8 O9 2.143820 1_555
Mg8 O9 2.146185 1_655
Mg9 O11 2.115912 1_545
Mg9 O2 2.115942 1_455
Mg9 O2 2.116534 1_555
Mg9 O1 2.126438 1_555
Mg9 O10 2.146616 1_455
Mg9 O10 2.149089 1_555
Mg10 O3 2.115086 1_555
Mg10 O3 2.115353 1_655
Mg10 O8 2.115575 1_555
Mg10 O2 2.129236 1_565
Mg10 O11 2.143963 1_555
Mg10 O11 2.146417 1_655
Mg11 O0 2.115646 1_455
Mg11 O9 2.116256 1_555
Mg11 O0 2.116774 1_555
Mg11 O3 2.125863 1_555
Mg11 O8 2.146839 1_455
Mg11 O8 2.149317 1_555
Fe0 O5 2.127304 1_556
Fe0 O0 2.137121 1_555
Fe0 O3 2.222090 1_555
Fe0 O3 2.226557 1_655
Fe0 O6 2.226787 1_556
Fe0 O6 2.229260 1_456
Fe1 O1 2.127374 1_554
Fe1 O6 2.136930 1_455
Fe1 O7 2.222282 1_555
Fe1 O7 2.226370 1_455
Fe1 O0 2.227032 1_454
Fe1 O0 2.229401 1_554
Fe2 O7 2.127841 1_555
Fe2 O2 2.138056 1_554
Fe2 O1 2.222013 1_554
Fe2 O4 2.225443 1_555
Fe2 O1 2.226117 1_654
Fe2 O4 2.228408 1_455
Fe3 O3 2.127458 1_555
Fe3 O4 2.138213 1_466
Fe3 O5 2.222437 1_556
Fe3 O5 2.225873 1_456
Fe3 O2 2.226005 1_465
Fe3 O2 2.228126 1_565
