# generated using pymatgen
data_CuH14C4(NO2)4
_symmetry_space_group_name_H-M   'P 1'
_cell_length_a   7.65538800
_cell_length_b   8.52159900
_cell_length_c   9.19924898
_cell_angle_alpha   84.38287982
_cell_angle_beta   90.00000000
_cell_angle_gamma   90.00000000
_symmetry_Int_Tables_number   1
_chemical_formula_structural   CuH14C4(NO2)4
_chemical_formula_sum   'Cu2 H28 C8 N8 O16'
_cell_volume   597.24188122
_cell_formula_units_Z   2
loop_
 _symmetry_equiv_pos_site_id
 _symmetry_equiv_pos_as_xyz
  1  'x, y, z'
loop_
 _atom_site_type_symbol
 _atom_site_label
 _atom_site_symmetry_multiplicity
 _atom_site_fract_x
 _atom_site_fract_y
 _atom_site_fract_z
 _atom_site_occupancy
  Cu  Cu0  1  0.00000000  0.00000000  0.00000000  1
  Cu  Cu1  1  0.50000000  0.00000000  0.50000000  1
  H  H0  1  0.99117900  0.78177600  0.37007700  1
  H  H1  1  0.86311300  0.46964900  0.32455400  1
  H  H2  1  0.31975000  0.71051700  0.95592000  1
  H  H3  1  0.36311300  0.53035100  0.17544600  1
  H  H4  1  0.08449400  0.61937300  0.09174900  1
  H  H5  1  0.83997300  0.73908400  0.57180200  1
  H  H6  1  0.00882100  0.21822400  0.62992300  1
  H  H7  1  0.02665900  0.65583400  0.93110800  1
  H  H8  1  0.32246700  0.92899000  0.79509100  1
  H  H9  1  0.67753300  0.07101000  0.20490900  1
  H  H10  1  0.41550600  0.61937300  0.59174900  1
  H  H11  1  0.66002700  0.73908400  0.07180200  1
  H  H12  1  0.18025000  0.71051700  0.45592000  1
  H  H13  1  0.97334100  0.34416600  0.06889200  1
  H  H14  1  0.82246700  0.07101000  0.70490900  1
  H  H15  1  0.81975000  0.28948300  0.54408000  1
  H  H16  1  0.16002700  0.26091600  0.42819800  1
  H  H17  1  0.47334100  0.65583400  0.43110800  1
  H  H18  1  0.63688700  0.46964900  0.82455400  1
  H  H19  1  0.91550600  0.38062700  0.90825100  1
  H  H20  1  0.50882100  0.78177600  0.87007700  1
  H  H21  1  0.13688700  0.53035100  0.67544600  1
  H  H22  1  0.17753300  0.92899000  0.29509100  1
  H  H23  1  0.49117900  0.21822400  0.12992300  1
  H  H24  1  0.52665900  0.34416600  0.56889200  1
  H  H25  1  0.58449400  0.38062700  0.40825100  1
  H  H26  1  0.68025000  0.28948300  0.04408000  1
  H  H27  1  0.33997300  0.26091600  0.92819800  1
  C  C0  1  0.50826400  0.41332100  0.81367900  1
  C  C1  1  0.00826400  0.58667900  0.68632100  1
  C  C2  1  0.25818100  0.02052900  0.23464700  1
  C  C3  1  0.49173600  0.58667900  0.18632100  1
  C  C4  1  0.74181900  0.97947100  0.76535300  1
  C  C5  1  0.24181900  0.02052900  0.73464700  1
  C  C6  1  0.99173600  0.41332100  0.31367900  1
  C  C7  1  0.75818100  0.97947100  0.26535300  1
  N  N0  1  0.54741900  0.30646000  0.06168900  1
  N  N1  1  0.95928600  0.68488200  0.57249300  1
  N  N2  1  0.95258100  0.30646000  0.56168900  1
  N  N3  1  0.54071400  0.68488200  0.07249300  1
  N  N4  1  0.04071400  0.31511800  0.42750700  1
  N  N5  1  0.04741900  0.69354000  0.43831100  1
  N  N6  1  0.45258100  0.69354000  0.93831100  1
  N  N7  1  0.45928600  0.31511800  0.92750700  1
  O  O0  1  0.59268600  0.29655700  0.49073000  1
  O  O1  1  0.90731400  0.29655700  0.99073000  1
  O  O2  1  0.58189400  0.56723600  0.30229400  1
  O  O3  1  0.09268600  0.70344300  0.00927000  1
  O  O4  1  0.28392400  0.06714800  0.60351200  1
  O  O5  1  0.08189400  0.43276400  0.19770600  1
  O  O6  1  0.78392400  0.93285200  0.89648800  1
  O  O7  1  0.11175000  0.07573100  0.79914600  1
  O  O8  1  0.38825000  0.07573100  0.29914600  1
  O  O9  1  0.61175000  0.92426900  0.70085400  1
  O  O10  1  0.91810600  0.56723600  0.80229400  1
  O  O11  1  0.41810600  0.43276400  0.69770600  1
  O  O12  1  0.71607600  0.93285200  0.39648800  1
  O  O13  1  0.40731400  0.70344300  0.50927000  1
  O  O14  1  0.88825000  0.92426900  0.20085400  1
  O  O15  1  0.21607600  0.06714800  0.10351200  1
loop_
_geom_bond_atom_site_label_1
_geom_bond_atom_site_label_2
_geom_bond_distance
_geom_bond_site_symmetry_2
Cu0 O15 2.019166 1_555
Cu0 O6 2.019166 1_444
Cu0 O7 2.080607 1_554
Cu0 O14 2.080607 1_445
Cu0 O3 2.618201 1_545
Cu0 O1 2.618201 1_454
Cu1 O12 2.019166 1_545
Cu1 O4 2.019166 1_555
Cu1 O9 2.080607 1_545
Cu1 O8 2.080607 1_555
Cu1 O13 2.618201 1_545
Cu1 O0 2.618201 1_555
H0 N5 1.025841 1_655
H2 N6 1.042012 1_555
H4 O3 0.993207 1_555
H5 N1 1.023270 1_555
H6 N2 1.025841 1_455
H7 O3 0.997096 1_556
H10 O13 0.993207 1_555
H11 N3 1.023270 1_555
H12 N5 1.042012 1_555
H13 O1 0.997096 1_554
H15 N2 1.042012 1_555
H16 N4 1.023270 1_555
H17 O13 0.997096 1_555
H19 O1 0.993207 1_555
H20 N6 1.025841 1_555
H23 N0 1.025841 1_555
H24 O0 0.997096 1_555
H25 O0 0.993207 1_555
H26 N0 1.042012 1_555
H27 N7 1.023270 1_555
C0 H18 1.104249 1_555
C0 O11 1.267839 1_555
C0 N7 1.328849 1_555
C1 H21 1.104249 1_555
C1 O10 1.267839 1_455
C1 N1 1.328849 1_455
C2 H22 1.101787 1_545
C2 O8 1.272578 1_555
C2 O15 1.274036 1_555
C3 H3 1.104249 1_555
C3 O2 1.267839 1_555
C3 N3 1.328849 1_555
C4 H14 1.101787 1_565
C4 O9 1.272578 1_555
C4 O6 1.274036 1_555
C5 H8 1.101787 1_545
C5 O7 1.272578 1_555
C5 O4 1.274036 1_555
C6 H1 1.104249 1_555
C6 O5 1.267839 1_655
C6 N4 1.328849 1_655
C7 H9 1.101787 1_565
C7 O14 1.272578 1_555
C7 O12 1.274036 1_555
N0 N7 1.402321 1_554
N1 N5 1.402321 1_655
N2 N4 1.402321 1_655
N3 N6 1.402321 1_554
