# generated using pymatgen
data_BaMn28
_symmetry_space_group_name_H-M   'P 1'
_cell_length_a   7.65416288
_cell_length_b   7.65416288
_cell_length_c   7.65416288
_cell_angle_alpha   109.47122063
_cell_angle_beta   109.47122063
_cell_angle_gamma   109.47122063
_symmetry_Int_Tables_number   1
_chemical_formula_structural   BaMn28
_chemical_formula_sum   'Ba1 Mn28'
_cell_volume   345.20033516
_cell_formula_units_Z   1
loop_
 _symmetry_equiv_pos_site_id
 _symmetry_equiv_pos_as_xyz
  1  'x, y, z'
loop_
 _atom_site_type_symbol
 _atom_site_label
 _atom_site_symmetry_multiplicity
 _atom_site_fract_x
 _atom_site_fract_y
 _atom_site_fract_z
 _atom_site_occupancy
  Ba  Ba0  1  0.00000000  0.00000000  0.00000000  1
  Mn  Mn0  1  0.61720100  0.00000000  0.00000000  1
  Mn  Mn1  1  0.00000000  0.61720100  0.00000000  1
  Mn  Mn2  1  0.00000000  0.00000000  0.61720100  1
  Mn  Mn3  1  0.38279900  0.38279900  0.38279900  1
  Mn  Mn4  1  0.39161300  0.67847800  0.00000000  1
  Mn  Mn5  1  0.71313500  0.32152200  0.32152200  1
  Mn  Mn6  1  0.39161300  0.00000000  0.67847800  1
  Mn  Mn7  1  0.67847800  0.39161300  0.00000000  1
  Mn  Mn8  1  0.00000000  0.39161300  0.67847800  1
  Mn  Mn9  1  0.32152200  0.71313500  0.32152200  1
  Mn  Mn10  1  0.32152200  0.32152200  0.71313500  1
  Mn  Mn11  1  0.00000000  0.67847800  0.39161300  1
  Mn  Mn12  1  0.67847800  0.00000000  0.39161300  1
  Mn  Mn13  1  0.60838700  0.60838700  0.28686500  1
  Mn  Mn14  1  0.28686500  0.60838700  0.60838700  1
  Mn  Mn15  1  0.60838700  0.28686500  0.60838700  1
  Mn  Mn16  1  0.38721200  0.20224100  0.00000000  1
  Mn  Mn17  1  0.18497100  0.79775900  0.79775900  1
  Mn  Mn18  1  0.38721200  0.00000000  0.20224100  1
  Mn  Mn19  1  0.20224100  0.38721200  0.00000000  1
  Mn  Mn20  1  0.00000000  0.38721200  0.20224100  1
  Mn  Mn21  1  0.79775900  0.18497100  0.79775900  1
  Mn  Mn22  1  0.79775900  0.79775900  0.18497100  1
  Mn  Mn23  1  0.00000000  0.20224100  0.38721200  1
  Mn  Mn24  1  0.20224100  0.00000000  0.38721200  1
  Mn  Mn25  1  0.61278800  0.61278800  0.81502900  1
  Mn  Mn26  1  0.81502900  0.61278800  0.61278800  1
  Mn  Mn27  1  0.61278800  0.81502900  0.61278800  1
loop_
_geom_bond_atom_site_label_1
_geom_bond_atom_site_label_2
_geom_bond_distance
_geom_bond_site_symmetry_2
Ba0 Mn26 2.849856 1_444
Ba0 Mn16 2.849856 1_555
Ba0 Mn22 2.849856 1_445
Ba0 Mn19 2.849856 1_555
Ba0 Mn23 2.849856 1_555
Ba0 Mn24 2.849856 1_555
Ba0 Mn27 2.849856 1_444
Ba0 Mn20 2.849856 1_555
Ba0 Mn17 2.849856 1_544
Ba0 Mn25 2.849856 1_444
Ba0 Mn21 2.849856 1_454
Ba0 Mn18 2.849856 1_555
Ba0 Mn0 2.930006 1_455
Ba0 Mn3 2.930006 1_555
Ba0 Mn2 2.930006 1_554
Ba0 Mn1 2.930006 1_545
Mn0 Mn4 2.490980 1_545
Mn0 Mn5 2.490980 1_555
Mn0 Mn6 2.490980 1_554
Mn0 Mn18 2.704045 1_555
Mn0 Mn16 2.704045 1_555
Mn0 Mn17 2.704045 1_544
Mn0 Mn22 2.809556 1_545
Mn0 Mn21 2.809556 1_554
Mn0 Mn27 2.809556 1_544
Mn0 Mn23 2.809556 1_655
Mn0 Mn20 2.809556 1_655
Mn0 Mn25 2.809556 1_544
Mn0 Mn12 2.875335 1_555
Mn0 Mn7 2.875335 1_555
Mn0 Mn14 2.875335 1_544
Mn1 Mn8 2.490980 1_554
Mn1 Mn9 2.490980 1_555
Mn1 Mn7 2.490980 1_455
Mn1 Mn21 2.704045 1_454
Mn1 Mn19 2.704045 1_555
Mn1 Mn20 2.704045 1_555
Mn1 Mn26 2.809556 1_454
Mn1 Mn24 2.809556 1_565
Mn1 Mn25 2.809556 1_454
Mn1 Mn22 2.809556 1_455
Mn1 Mn18 2.809556 1_565
Mn1 Mn17 2.809556 1_554
Mn1 Mn11 2.875335 1_555
Mn1 Mn15 2.875335 1_454
Mn1 Mn4 2.875335 1_555
Mn2 Mn24 2.704045 1_555
Mn2 Mn22 2.704045 1_445
Mn2 Mn23 2.704045 1_555
Mn2 Mn26 2.809556 1_445
Mn2 Mn21 2.809556 1_455
Mn2 Mn27 2.809556 1_445
Mn2 Mn6 2.875335 1_555
Mn2 Mn8 2.875335 1_555
Mn3 Mn9 2.875335 1_555
Mn3 Mn5 2.875335 1_555
Mn4 Mn8 2.637133 1_554
Mn4 Mn9 2.637133 1_555
Mn5 Mn8 2.609973 1_655
Mn5 Mn7 2.637133 1_555
Mn6 Mn9 2.609973 1_545
Mn6 Mn7 2.637133 1_556
Mn10 Mn25 2.217408 1_555
Mn10 Mn24 2.450336 1_555
Mn10 Mn23 2.450336 1_555
Mn10 Mn2 2.490980 1_555
Mn10 Mn7 2.609973 1_556
Mn10 Mn4 2.609973 1_556
Mn10 Mn16 2.610365 1_556
Mn10 Mn19 2.610365 1_556
Mn10 Mn6 2.637133 1_555
Mn10 Mn14 2.637133 1_555
Mn10 Mn8 2.637133 1_555
Mn10 Mn15 2.637133 1_555
Mn10 Mn3 2.875335 1_555
Mn11 Mn20 2.217408 1_555
Mn11 Mn24 2.450336 1_565
Mn11 Mn22 2.450336 1_455
Mn11 Mn2 2.490980 1_565
Mn11 Mn14 2.609973 1_555
Mn11 Mn5 2.609973 1_455
Mn11 Mn17 2.610365 1_555
Mn11 Mn26 2.610365 1_455
Mn11 Mn13 2.637133 1_455
Mn11 Mn7 2.637133 1_455
Mn11 Mn6 2.637133 1_565
Mn11 Mn9 2.637133 1_555
Mn12 Mn18 2.217408 1_555
Mn12 Mn22 2.450336 1_545
Mn12 Mn23 2.450336 1_655
Mn12 Mn2 2.490980 1_655
Mn12 Mn15 2.609973 1_555
Mn12 Mn9 2.609973 1_545
Mn12 Mn27 2.610365 1_545
Mn12 Mn21 2.610365 1_555
Mn12 Mn13 2.637133 1_545
Mn12 Mn8 2.637133 1_655
Mn12 Mn4 2.637133 1_545
Mn12 Mn5 2.637133 1_555
Mn13 Mn22 2.217408 1_555
Mn13 Mn27 2.450336 1_555
Mn13 Mn26 2.450336 1_555
Mn13 Mn3 2.490980 1_555
Mn13 Mn7 2.609973 1_555
Mn13 Mn4 2.609973 1_555
Mn13 Mn16 2.610365 1_555
Mn13 Mn19 2.610365 1_555
Mn13 Mn5 2.637133 1_555
Mn13 Mn9 2.637133 1_555
Mn13 Mn2 2.875335 1_665
Mn14 Mn17 2.217408 1_555
Mn14 Mn27 2.450336 1_555
Mn14 Mn25 2.450336 1_555
Mn14 Mn3 2.490980 1_555
Mn14 Mn8 2.609973 1_555
Mn14 Mn20 2.610365 1_555
Mn14 Mn23 2.610365 1_555
Mn14 Mn4 2.637133 1_556
Mn14 Mn6 2.637133 1_565
Mn14 Mn9 2.637133 1_555
Mn15 Mn21 2.217408 1_555
Mn15 Mn25 2.450336 1_555
Mn15 Mn26 2.450336 1_555
Mn15 Mn3 2.490980 1_555
Mn15 Mn6 2.609973 1_555
Mn15 Mn24 2.610365 1_555
Mn15 Mn18 2.610365 1_555
Mn15 Mn8 2.637133 1_655
Mn15 Mn5 2.637133 1_555
Mn15 Mn7 2.637133 1_556
Mn16 Mn7 2.217408 1_555
Mn16 Mn19 2.311989 1_555
Mn16 Mn5 2.450336 1_555
Mn16 Mn6 2.450336 1_554
Mn16 Mn18 2.527850 1_555
Mn16 Mn17 2.527850 1_544
Mn16 Mn2 2.809556 1_554
Mn16 Mn3 2.809556 1_555
Mn17 Mn26 2.311989 1_455
Mn17 Mn4 2.450336 1_556
Mn17 Mn6 2.450336 1_565
Mn17 Mn18 2.527850 1_566
Mn17 Mn8 2.610365 1_555
Mn17 Mn2 2.809556 1_565
Mn18 Mn24 2.311989 1_555
Mn18 Mn4 2.450336 1_545
Mn18 Mn5 2.450336 1_555
Mn18 Mn9 2.610365 1_545
Mn18 Mn3 2.809556 1_555
Mn19 Mn4 2.217408 1_555
Mn19 Mn9 2.450336 1_555
Mn19 Mn8 2.450336 1_554
Mn19 Mn20 2.527850 1_555
Mn19 Mn21 2.527850 1_454
Mn19 Mn3 2.809556 1_555
Mn19 Mn2 2.809556 1_554
Mn20 Mn23 2.311989 1_555
Mn20 Mn9 2.450336 1_555
Mn20 Mn7 2.450336 1_455
Mn20 Mn21 2.527850 1_454
Mn20 Mn5 2.610365 1_455
Mn20 Mn3 2.809556 1_555
Mn21 Mn27 2.311989 1_545
Mn21 Mn7 2.450336 1_556
Mn21 Mn8 2.450336 1_655
Mn21 Mn6 2.610365 1_555
Mn22 Mn25 2.311989 1_554
Mn22 Mn23 2.527850 1_665
Mn22 Mn24 2.527850 1_665
Mn22 Mn4 2.610365 1_555
Mn22 Mn7 2.610365 1_555
Mn23 Mn8 2.217408 1_555
Mn23 Mn24 2.527850 1_555
Mn23 Mn5 2.610365 1_455
Mn23 Mn3 2.809556 1_555
Mn24 Mn6 2.217408 1_555
Mn24 Mn9 2.610365 1_545
Mn24 Mn3 2.809556 1_555
Mn25 Mn26 2.527850 1_555
Mn25 Mn27 2.527850 1_555
Mn25 Mn7 2.610365 1_556
Mn25 Mn4 2.610365 1_556
Mn25 Mn3 2.704045 1_555
Mn26 Mn5 2.217408 1_555
Mn26 Mn27 2.527850 1_555
Mn26 Mn8 2.610365 1_655
Mn26 Mn3 2.704045 1_555
Mn27 Mn9 2.217408 1_555
Mn27 Mn6 2.610365 1_565
Mn27 Mn3 2.704045 1_555
