# generated using pymatgen
data_Al53Fe17Si12
_symmetry_space_group_name_H-M   'P 1'
_cell_length_a   8.78299200
_cell_length_b   8.79077682
_cell_length_c   16.86146342
_cell_angle_alpha   99.88853292
_cell_angle_beta   100.21800625
_cell_angle_gamma   109.20077095
_symmetry_Int_Tables_number   1
_chemical_formula_structural   Al53Fe17Si12
_chemical_formula_sum   'Al53 Fe17 Si12'
_cell_volume   1172.28315611
_cell_formula_units_Z   1
loop_
 _symmetry_equiv_pos_site_id
 _symmetry_equiv_pos_as_xyz
  1  'x, y, z'
loop_
 _atom_site_type_symbol
 _atom_site_label
 _atom_site_symmetry_multiplicity
 _atom_site_fract_x
 _atom_site_fract_y
 _atom_site_fract_z
 _atom_site_occupancy
  Al  Al0  1  0.42188600  0.38582600  0.80810800  1
  Al  Al1  1  0.92188400  0.38622300  0.30662500  1
  Al  Al2  1  0.07811600  0.61377700  0.69337500  1
  Al  Al3  1  0.57811400  0.61417400  0.19189200  1
  Al  Al4  1  0.80222300  0.70468200  0.89607000  1
  Al  Al5  1  0.28735500  0.68770500  0.38834200  1
  Al  Al6  1  0.24956200  0.20974400  0.95313400  1
  Al  Al7  1  0.75897400  0.22067800  0.44964200  1
  Al  Al8  1  0.43554500  0.10104400  0.65709600  1
  Al  Al9  1  0.93926700  0.09346500  0.14664300  1
  Al  Al10  1  0.71264500  0.31229500  0.61165800  1
  Al  Al11  1  0.19777700  0.29531800  0.10393000  1
  Al  Al12  1  0.24102600  0.77932200  0.55035800  1
  Al  Al13  1  0.75043800  0.79025600  0.04686600  1
  Al  Al14  1  0.06073300  0.90653500  0.85335700  1
  Al  Al15  1  0.56445500  0.89895600  0.34290400  1
  Al  Al16  1  0.19805700  0.46031900  0.87794400  1
  Al  Al17  1  0.69647300  0.46030600  0.37462100  1
  Al  Al18  1  0.19955400  0.24958700  0.66243700  1
  Al  Al19  1  0.70197200  0.24786900  0.15975100  1
  Al  Al20  1  0.52430000  0.67985100  0.77236100  1
  Al  Al21  1  0.02112200  0.67688900  0.26678700  1
  Al  Al22  1  0.30352700  0.53969400  0.62537900  1
  Al  Al23  1  0.80194300  0.53968100  0.12205600  1
  Al  Al24  1  0.29802800  0.75213100  0.84024900  1
  Al  Al25  1  0.80044600  0.75041300  0.33756300  1
  Al  Al26  1  0.97887800  0.32311100  0.73321300  1
  Al  Al27  1  0.47570000  0.32014900  0.22763900  1
  Al  Al28  1  0.82737900  0.06275300  0.58252700  1
  Al  Al29  1  0.30894400  0.05667700  0.07424800  1
  Al  Al30  1  0.56326800  0.83928200  0.62510900  1
  Al  Al31  1  0.05827500  0.84735700  0.11580000  1
  Al  Al32  1  0.12156800  0.76422900  0.97117900  1
  Al  Al33  1  0.63159000  0.75613800  0.46920000  1
  Al  Al34  1  0.69105600  0.94332300  0.92575200  1
  Al  Al35  1  0.17262100  0.93724700  0.41747300  1
  Al  Al36  1  0.94172500  0.15264300  0.88420000  1
  Al  Al37  1  0.43673200  0.16071800  0.37489100  1
  Al  Al38  1  0.36841000  0.24386200  0.53080000  1
  Al  Al39  1  0.87843200  0.23577100  0.02882100  1
  Al  Al40  1  0.50000000  0.00000000  0.50000000  1
  Al  Al41  1  0.70960300  0.35900300  0.78107100  1
  Al  Al42  1  0.20801600  0.35190800  0.27715500  1
  Al  Al43  1  0.60929600  0.44259600  0.96459900  1
  Al  Al44  1  0.11031500  0.44111200  0.46508400  1
  Al  Al45  1  0.37956900  0.07010500  0.82417000  1
  Al  Al46  1  0.88216800  0.07155300  0.32003000  1
  Al  Al47  1  0.79198400  0.64809200  0.72284500  1
  Al  Al48  1  0.29039700  0.64099700  0.21892900  1
  Al  Al49  1  0.88968500  0.55888800  0.53491600  1
  Al  Al50  1  0.39070400  0.55740400  0.03540100  1
  Al  Al51  1  0.11783200  0.92844700  0.67997000  1
  Al  Al52  1  0.62043100  0.92989500  0.17583000  1
  Fe  Fe0  1  0.68895400  0.20744600  0.89628800  1
  Fe  Fe1  1  0.19030400  0.20651400  0.39732700  1
  Fe  Fe2  1  0.80969600  0.79348600  0.60267300  1
  Fe  Fe3  1  0.31104600  0.79255400  0.10371200  1
  Fe  Fe4  1  0.99290900  0.59419300  0.82902000  1
  Fe  Fe5  1  0.49261500  0.59555600  0.32999300  1
  Fe  Fe6  1  0.98746500  0.34100200  0.58072700  1
  Fe  Fe7  1  0.48698400  0.34143000  0.08157200  1
  Fe  Fe8  1  0.36052100  0.83714700  0.70271700  1
  Fe  Fe9  1  0.86249300  0.83695300  0.20349400  1
  Fe  Fe10  1  0.50738500  0.40444400  0.67000700  1
  Fe  Fe11  1  0.00709100  0.40580700  0.17098000  1
  Fe  Fe12  1  0.51301600  0.65857000  0.91842800  1
  Fe  Fe13  1  0.01253500  0.65899800  0.41927300  1
  Fe  Fe14  1  0.13750700  0.16304700  0.79650600  1
  Fe  Fe15  1  0.63947900  0.16285300  0.29728300  1
  Fe  Fe16  1  0.00000000  0.00000000  0.00000000  1
  Si  Si0  1  0.90920700  0.45321800  0.92898900  1
  Si  Si1  1  0.40709600  0.45485200  0.42910100  1
  Si  Si2  1  0.53889900  0.14414500  0.99069600  1
  Si  Si3  1  0.03424500  0.14057600  0.48909000  1
  Si  Si4  1  0.63060000  0.01898600  0.77562100  1
  Si  Si5  1  0.13210300  0.02224000  0.27087800  1
  Si  Si6  1  0.59290400  0.54514800  0.57089900  1
  Si  Si7  1  0.09079300  0.54678200  0.07101100  1
  Si  Si8  1  0.96575500  0.85942400  0.51091000  1
  Si  Si9  1  0.46110100  0.85585500  0.00930400  1
  Si  Si10  1  0.86789700  0.97776000  0.72912200  1
  Si  Si11  1  0.36940000  0.98101400  0.22437900  1
loop_
_geom_bond_atom_site_label_1
_geom_bond_atom_site_label_2
_geom_bond_distance
_geom_bond_site_symmetry_2
Al0 Fe12 2.554821 1_555
Al0 Fe14 2.567048 1_555
Al0 Fe10 2.585237 1_555
Al0 Al18 2.651461 1_555
Al0 Al20 2.655431 1_555
Al0 Al16 2.661460 1_555
Al0 Al43 2.717986 1_555
Al0 Al41 2.722678 1_555
Al0 Al45 2.744064 1_555
Al1 Fe11 2.545316 1_655
Al1 Fe15 2.565988 1_555
Al1 Fe13 2.575841 1_655
Al1 Al17 2.656141 1_555
Al1 Al19 2.658234 1_555
Al1 Al21 2.659360 1_655
Al1 Al46 2.726285 1_555
Al1 Al42 2.746592 1_655
Al1 Al44 2.752037 1_655
Al2 Fe4 2.545316 1_455
Al2 Fe8 2.565988 1_555
Al2 Fe6 2.575841 1_455
Al2 Al22 2.656141 1_555
Al2 Al24 2.658234 1_555
Al2 Al26 2.659360 1_455
Al2 Al51 2.726285 1_555
Al2 Al47 2.746592 1_455
Al2 Al49 2.752037 1_455
Al3 Fe7 2.554821 1_555
Al3 Fe9 2.567048 1_555
Al3 Fe5 2.585237 1_555
Al3 Al50 2.717986 1_555
Al3 Al48 2.722678 1_555
Al3 Al52 2.744064 1_555
Al4 Fe4 2.528061 1_555
Al4 Fe12 2.544312 1_555
Al4 Fe16 2.686860 1_666
Al4 Si0 2.771326 1_555
Al4 Al47 2.857467 1_555
Al4 Al43 2.925018 1_555
Al4 Al41 3.073511 1_555
Al5 Fe5 2.488043 1_555
Al5 Fe13 2.500604 1_555
Al5 Si1 2.722341 1_555
Al6 Fe7 2.515438 1_556
Al6 Fe14 2.559613 1_555
Al6 Fe16 2.699112 1_556
Al6 Si2 2.776675 1_555
Al7 Fe15 2.490704 1_555
Al7 Fe6 2.501723 1_555
Al7 Si3 2.737457 1_655
Al8 Fe8 2.488965 1_545
Al8 Fe10 2.490777 1_555
Al8 Si4 2.746380 1_555
Al9 Fe9 2.535735 1_545
Al9 Fe11 2.552001 1_655
Al9 Fe16 2.670559 1_655
Al9 Si5 2.745532 1_655
Al10 Fe10 2.488043 1_555
Al10 Fe6 2.500604 1_555
Al10 Si6 2.722341 1_555
Al10 Al26 2.786413 1_555
Al10 Al40 2.859059 1_555
Al11 Fe11 2.528061 1_555
Al11 Fe7 2.544312 1_555
Al11 Al29 2.600916 1_555
Al11 Al9 2.681706 1_455
Al11 Al6 2.686296 1_554
Al11 Fe16 2.686860 1_555
Al11 Al39 2.700213 1_455
Al11 Si7 2.771326 1_555
Al11 Al27 2.836161 1_555
Al11 Al42 2.857467 1_555
Al11 Al50 2.925018 1_555
Al11 Al48 3.073511 1_555
Al12 Fe8 2.490704 1_555
Al12 Fe13 2.501723 1_555
Al12 Si8 2.737457 1_455
Al12 Al22 2.787175 1_555
Al12 Al40 2.829592 1_565
Al13 Fe12 2.515438 1_554
Al13 Fe9 2.559613 1_555
Al13 Al31 2.589417 1_655
Al13 Al4 2.686296 1_554
Al13 Al9 2.692167 1_565
Al13 Al34 2.698247 1_554
Al13 Fe16 2.699112 1_665
Al13 Si9 2.776675 1_555
Al13 Al23 2.841693 1_555
Al13 Al43 2.871081 1_554
Al13 Al52 2.902635 1_555
Al14 Fe14 2.535735 1_565
Al14 Fe4 2.552001 1_455
Al14 Al32 2.591114 1_555
Al14 Fe16 2.670559 1_566
Al14 Al4 2.681706 1_455
Al14 Al6 2.692167 1_565
Al14 Al36 2.708782 1_465
Al14 Si10 2.745532 1_455
Al14 Al24 2.855879 1_555
Al14 Al45 2.869686 1_565
Al15 Fe15 2.488965 1_565
Al15 Fe5 2.490777 1_555
Al15 Si11 2.746380 1_555
Al15 Al25 2.795614 1_555
Al15 Al40 2.860179 1_565
Al15 Al52 2.986367 1_555
Al16 Fe4 2.552036 1_455
Al16 Fe14 2.567446 1_555
Al16 Fe12 2.627916 1_555
Al16 Al26 2.628895 1_455
Al16 Al24 2.651779 1_555
Al16 Al50 2.705220 1_556
Al16 Si0 2.805330 1_455
Al16 Al6 2.841693 1_555
Al16 Al36 2.927830 1_455
Al17 Fe5 2.532824 1_555
Al17 Fe15 2.554363 1_555
Al17 Fe13 2.634622 1_655
Al17 Al25 2.635554 1_555
Al17 Al27 2.663624 1_555
Al17 Al49 2.745332 1_555
Al17 Al7 2.787175 1_555
Al17 Si1 2.840629 1_555
Al17 Al37 2.862904 1_555
Al17 Al33 3.082825 1_555
Al18 Fe6 2.543281 1_455
Al18 Fe10 2.564431 1_555
Al18 Fe14 2.596362 1_555
Al18 Al22 2.635554 1_555
Al18 Al26 2.641631 1_455
Al18 Al51 2.757069 1_545
Al18 Al8 2.795614 1_555
Al18 Si3 2.861253 1_555
Al18 Al38 2.882223 1_555
Al18 Al28 3.056810 1_455
Al19 Fe11 2.535251 1_655
Al19 Fe7 2.547623 1_555
Al19 Fe15 2.648501 1_555
Al19 Al23 2.651779 1_555
Al19 Al27 2.655460 1_555
Al19 Al52 2.722534 1_545
Al19 Si2 2.794283 1_554
Al19 Al9 2.855879 1_555
Al19 Al39 2.920420 1_555
Al20 Fe12 2.518605 1_555
Al20 Fe8 2.574276 1_555
Al20 Al24 2.655460 1_555
Al20 Al22 2.663624 1_555
Al20 Fe10 2.664466 1_555
Al20 Si4 2.803088 1_565
Al20 Al4 2.836161 1_555
Al20 Al34 2.926816 1_555
Al21 Fe9 2.517471 1_455
Al21 Fe11 2.591840 1_555
Al21 Fe13 2.615541 1_555
Al21 Al23 2.628895 1_455
Al21 Al25 2.641631 1_455
Al21 Al48 2.724818 1_555
Al21 Al5 2.786413 1_555
Al21 Si5 2.851202 1_565
Al21 Al35 2.874813 1_555
Al22 Fe10 2.532824 1_555
Al22 Fe8 2.554363 1_555
Al22 Fe6 2.634622 1_455
Al22 Al44 2.745332 1_555
Al22 Si6 2.840629 1_555
Al22 Al30 2.862904 1_555
Al22 Al38 3.082825 1_555
Al23 Fe11 2.552036 1_655
Al23 Fe9 2.567446 1_555
Al23 Fe7 2.627916 1_555
Al23 Al3 2.661460 1_555
Al23 Al43 2.705220 1_554
Al23 Si7 2.805330 1_655
Al23 Al31 2.927830 1_655
Al24 Fe4 2.535251 1_455
Al24 Fe12 2.547623 1_555
Al24 Fe8 2.648501 1_555
Al24 Al45 2.722534 1_565
Al24 Si9 2.794283 1_556
Al24 Al32 2.920420 1_555
Al25 Fe13 2.543281 1_655
Al25 Fe5 2.564431 1_555
Al25 Fe9 2.596362 1_555
Al25 Al3 2.651461 1_555
Al25 Al46 2.757069 1_565
Al25 Si8 2.861253 1_555
Al25 Al33 2.882223 1_555
Al25 Al35 3.056810 1_655
Al26 Fe14 2.517471 1_655
Al26 Fe4 2.591840 1_555
Al26 Fe6 2.615541 1_555
Al26 Al41 2.724818 1_555
Al26 Si10 2.851202 1_545
Al26 Al28 2.874813 1_555
Al27 Fe7 2.518605 1_555
Al27 Fe15 2.574276 1_555
Al27 Al3 2.655431 1_555
Al27 Fe5 2.664466 1_555
Al27 Si11 2.803088 1_545
Al27 Al29 2.926816 1_555
Al28 Fe6 2.395698 1_555
Al28 Fe2 2.407403 1_545
Al28 Si3 2.611418 1_655
Al28 Si10 2.700339 1_545
Al28 Si8 2.708950 1_545
Al28 Al40 2.789597 1_555
Al29 Fe7 2.444817 1_555
Al29 Fe3 2.461556 1_545
Al29 Fe16 2.621006 1_555
Al29 Al32 2.646836 1_544
Al29 Si2 2.648624 1_554
Al29 Al31 2.655054 1_545
Al29 Al6 2.698247 1_554
Al29 Si11 2.732436 1_545
Al29 Si9 2.740200 1_545
Al30 Fe8 2.386822 1_555
Al30 Fe2 2.408532 1_555
Al30 Si4 2.600391 1_565
Al30 Si10 2.678787 1_555
Al30 Si6 2.702641 1_555
Al30 Al40 2.806980 1_565
Al31 Fe9 2.448820 1_455
Al31 Fe3 2.456164 1_555
Al31 Fe16 2.621466 1_565
Al31 Al32 2.631639 1_554
Al31 Si5 2.642606 1_565
Al31 Al9 2.708782 1_465
Al31 Si7 2.742467 1_555
Al31 Si11 2.752064 1_555
Al32 Fe4 2.440131 1_455
Al32 Fe3 2.458104 1_556
Al32 Fe16 2.639259 1_566
Al32 Si0 2.639482 1_455
Al32 Al4 2.700213 1_455
Al32 Si7 2.736290 1_556
Al32 Si9 2.741737 1_556
Al33 Fe5 2.388353 1_555
Al33 Fe2 2.403990 1_555
Al33 Si1 2.614695 1_555
Al33 Si8 2.688601 1_555
Al33 Si6 2.716748 1_555
Al33 Al40 2.767911 1_565
Al34 Fe12 2.444817 1_555
Al34 Fe0 2.461556 1_565
Al34 Al4 2.600916 1_555
Al34 Fe16 2.621006 1_666
Al34 Al39 2.646836 1_566
Al34 Si9 2.648624 1_556
Al34 Al36 2.655054 1_565
Al34 Si4 2.732436 1_565
Al34 Si2 2.740200 1_565
Al35 Fe13 2.395698 1_555
Al35 Fe1 2.407403 1_565
Al35 Si8 2.611418 1_455
Al35 Si5 2.700339 1_565
Al35 Si3 2.708950 1_565
Al35 Al40 2.789597 1_565
Al36 Fe14 2.448820 1_655
Al36 Fe0 2.456164 1_555
Al36 Al6 2.589417 1_655
Al36 Fe16 2.621466 1_656
Al36 Al39 2.631639 1_556
Al36 Si10 2.642606 1_545
Al36 Si0 2.742467 1_555
Al36 Si4 2.752064 1_555
Al37 Fe15 2.386822 1_555
Al37 Fe1 2.408532 1_555
Al37 Si11 2.600391 1_545
Al37 Si5 2.678787 1_555
Al37 Si1 2.702641 1_555
Al37 Al40 2.806980 1_555
Al38 Fe10 2.388353 1_555
Al38 Fe1 2.403990 1_555
Al38 Si6 2.614695 1_555
Al38 Si3 2.688601 1_555
Al38 Si1 2.716748 1_555
Al38 Al40 2.767911 1_555
Al39 Fe11 2.440131 1_655
Al39 Fe0 2.458104 1_554
Al39 Al9 2.591114 1_555
Al39 Fe16 2.639259 1_655
Al39 Si7 2.639482 1_655
Al39 Si0 2.736290 1_554
Al39 Si2 2.741737 1_554
Al40 Al7 2.829592 1_555
Al40 Al5 2.859059 1_545
Al40 Al8 2.860179 1_555
Al41 Fe10 2.522814 1_555
Al41 Fe0 2.537159 1_555
Al41 Fe4 2.539296 1_555
Al41 Si0 2.600798 1_555
Al41 Si4 2.818324 1_555
Al42 Fe11 2.502846 1_555
Al42 Fe1 2.575688 1_555
Al42 Fe5 2.581160 1_555
Al42 Si1 2.648354 1_555
Al42 Si5 2.730024 1_555
Al43 Fe12 2.501177 1_555
Al43 Fe0 2.551217 1_555
Al43 Fe7 2.561413 1_556
Al43 Si2 2.623992 1_555
Al43 Si0 2.779644 1_555
Al44 Fe13 2.521446 1_555
Al44 Fe6 2.540100 1_455
Al44 Fe1 2.545667 1_555
Al44 Si3 2.625322 1_555
Al44 Si1 2.748887 1_555
Al45 Fe14 2.515298 1_555
Al45 Fe0 2.546705 1_555
Al45 Fe8 2.574544 1_545
Al45 Si4 2.626578 1_555
Al45 Si2 2.764996 1_555
Al45 Al51 2.800216 1_545
Al45 Al6 2.902635 1_555
Al45 Al8 2.986367 1_555
Al46 Fe15 2.505127 1_555
Al46 Fe9 2.529304 1_545
Al46 Fe1 2.556584 1_655
Al46 Si5 2.615644 1_655
Al46 Si3 2.792872 1_655
Al46 Al52 2.800216 1_545
Al47 Fe4 2.502846 1_555
Al47 Fe2 2.575688 1_555
Al47 Fe10 2.581160 1_555
Al47 Si6 2.648354 1_555
Al47 Si10 2.730024 1_555
Al48 Fe5 2.522814 1_555
Al48 Fe3 2.537159 1_555
Al48 Fe11 2.539296 1_555
Al48 Si7 2.600798 1_555
Al48 Si11 2.818324 1_555
Al49 Fe6 2.521446 1_555
Al49 Fe13 2.540100 1_655
Al49 Fe2 2.545667 1_555
Al49 Si8 2.625322 1_555
Al49 Si6 2.748887 1_555
Al50 Fe7 2.501177 1_555
Al50 Fe3 2.551217 1_555
Al50 Fe12 2.561413 1_554
Al50 Si9 2.623992 1_555
Al50 Si7 2.779644 1_555
Al50 Al6 2.871081 1_554
Al51 Fe8 2.505127 1_555
Al51 Fe14 2.529304 1_565
Al51 Fe2 2.556584 1_455
Al51 Si10 2.615644 1_455
Al51 Si8 2.792872 1_455
Al52 Fe9 2.515298 1_555
Al52 Fe3 2.546705 1_555
Al52 Fe15 2.574544 1_565
Al52 Si11 2.626578 1_555
Al52 Si9 2.764996 1_555
Al52 Al9 2.869686 1_565
Fe0 Si4 2.249631 1_555
Fe0 Si2 2.268654 1_555
Fe0 Si0 2.275394 1_555
Fe1 Si3 2.268611 1_555
Fe1 Si1 2.276098 1_555
Fe1 Si5 2.305150 1_555
Fe2 Si8 2.268611 1_555
Fe2 Si6 2.276098 1_555
Fe2 Si10 2.305150 1_555
Fe3 Si11 2.249631 1_555
Fe3 Si9 2.268654 1_555
Fe3 Si7 2.275394 1_555
Fe4 Si0 2.339972 1_555
Fe5 Si1 2.330419 1_555
Fe6 Si3 2.329571 1_655
Fe7 Si2 2.327854 1_554
Fe8 Si4 2.342998 1_565
Fe9 Si5 2.328981 1_665
Fe10 Si6 2.330419 1_555
Fe11 Si7 2.339972 1_555
Fe12 Si9 2.327854 1_556
Fe13 Si8 2.329571 1_455
Fe14 Si10 2.328981 1_445
Fe15 Si11 2.342998 1_545
Si0 Si7 2.461776 1_656
Si1 Si6 2.474188 1_555
Si2 Si9 2.489604 1_546
Si3 Si8 2.453298 1_445
Si10 Si4 2.463501 1_565
Si11 Si5 2.463501 1_565
