# generated using pymatgen
data_Gd(CuS)3
_symmetry_space_group_name_H-M   'P 1'
_cell_length_a   7.48258988
_cell_length_b   7.48258755
_cell_length_c   7.48258843
_cell_angle_alpha   52.96482961
_cell_angle_beta   52.96478618
_cell_angle_gamma   52.96486187
_symmetry_Int_Tables_number   1
_chemical_formula_structural   Gd(CuS)3
_chemical_formula_sum   'Gd2 Cu6 S6'
_cell_volume   247.38391030
_cell_formula_units_Z   2
loop_
 _symmetry_equiv_pos_site_id
 _symmetry_equiv_pos_as_xyz
  1  'x, y, z'
loop_
 _atom_site_type_symbol
 _atom_site_label
 _atom_site_symmetry_multiplicity
 _atom_site_fract_x
 _atom_site_fract_y
 _atom_site_fract_z
 _atom_site_occupancy
  Gd  Gd0  1  0.66651399  0.66651378  0.66651340  1
  Gd  Gd1  1  0.33348601  0.33348622  0.33348660  1
  Cu  Cu0  1  0.78295917  0.46354416  0.12417929  1
  Cu  Cu1  1  0.46354187  0.12418077  0.78295933  1
  Cu  Cu2  1  0.12418042  0.78295846  0.46354198  1
  Cu  Cu3  1  0.87581958  0.21704154  0.53645802  1
  Cu  Cu4  1  0.53645813  0.87581923  0.21704067  1
  Cu  Cu5  1  0.21704083  0.53645584  0.87582071  1
  S  S0  1  0.24608025  0.91547806  0.58252540  1
  S  S1  1  0.58252599  0.24608075  0.91547803  1
  S  S2  1  0.91547807  0.58252591  0.24608122  1
  S  S3  1  0.08452193  0.41747409  0.75391878  1
  S  S4  1  0.41747401  0.75391925  0.08452197  1
  S  S5  1  0.75391975  0.08452194  0.41747460  1
loop_
_geom_bond_atom_site_label_1
_geom_bond_atom_site_label_2
_geom_bond_distance
_geom_bond_site_symmetry_2
Gd0 S3 2.767357 1_655
Gd0 S4 2.767358 1_556
Gd0 S5 2.767358 1_565
Gd0 S2 2.770160 1_555
Gd0 S1 2.770165 1_555
Gd0 S0 2.770173 1_555
Gd1 S2 2.767357 1_455
Gd1 S1 2.767358 1_554
Gd1 S0 2.767358 1_545
Gd1 S3 2.770160 1_555
Gd1 S4 2.770165 1_555
Gd1 S5 2.770173 1_555
Cu0 S4 2.308902 1_555
Cu0 S3 2.359862 1_654
Cu0 S5 2.361596 1_555
Cu0 S2 2.395632 1_555
Cu1 S5 2.308903 1_555
Cu1 S4 2.359864 1_546
Cu1 S3 2.361586 1_555
Cu1 S1 2.395633 1_555
Cu2 S3 2.308900 1_555
Cu2 S5 2.359862 1_465
Cu2 S4 2.361581 1_555
Cu2 S0 2.395633 1_555
Cu3 S2 2.308900 1_555
Cu3 S0 2.359862 1_645
Cu3 S1 2.361581 1_555
Cu3 S5 2.395633 1_555
Cu4 S0 2.308903 1_555
Cu4 S1 2.359864 1_564
Cu4 S2 2.361586 1_555
Cu4 S4 2.395633 1_555
Cu5 S1 2.308902 1_555
Cu5 S2 2.359862 1_456
Cu5 S0 2.361596 1_555
Cu5 S3 2.395632 1_555
