# generated using pymatgen
data_NaP2H5O6
_symmetry_space_group_name_H-M   'P 1'
_cell_length_a   5.96643158
_cell_length_b   6.02374153
_cell_length_c   9.88887913
_cell_angle_alpha   90.73316147
_cell_angle_beta   90.00230045
_cell_angle_gamma   119.68559239
_symmetry_Int_Tables_number   1
_chemical_formula_structural   NaP2H5O6
_chemical_formula_sum   'Na2 P4 H10 O12'
_cell_volume   308.72987502
_cell_formula_units_Z   2
loop_
 _symmetry_equiv_pos_site_id
 _symmetry_equiv_pos_as_xyz
  1  'x, y, z'
loop_
 _atom_site_type_symbol
 _atom_site_label
 _atom_site_symmetry_multiplicity
 _atom_site_fract_x
 _atom_site_fract_y
 _atom_site_fract_z
 _atom_site_occupancy
  Na  Na0  1  0.02012000  0.00503200  0.49018400  1
  Na  Na1  1  0.98490800  0.00504100  0.99018100  1
  P  P0  1  0.66848700  0.32523700  0.09706200  1
  P  P1  1  0.65673500  0.32524800  0.59705900  1
  P  P2  1  0.33212900  0.65328100  0.89899700  1
  P  P3  1  0.32118300  0.65328200  0.39899600  1
  H  H0  1  0.66377900  0.33186600  0.95593400  1
  H  H1  1  0.66801800  0.33186200  0.45593400  1
  H  H2  1  0.33412900  0.66293500  0.04072100  1
  H  H3  1  0.32887600  0.66293800  0.54072100  1
  H  H4  1  0.97841000  0.64734200  0.23158500  1
  H  H5  1  0.35055800  0.32646000  0.22991000  1
  H  H6  1  0.97589300  0.32645400  0.72990100  1
  H  H7  1  0.66892800  0.64734400  0.73159000  1
  H  H8  1  0.32601100  0.96659600  0.77593700  1
  H  H9  1  0.64059200  0.96660000  0.27593000  1
  O  O0  1  0.86877900  0.60743500  0.13904200  1
  O  O1  1  0.38796300  0.26230700  0.13596600  1
  O  O2  1  0.73650400  0.12752100  0.14336000  1
  O  O3  1  0.87432600  0.26230700  0.63596000  1
  O  O4  1  0.73864500  0.60743500  0.63904400  1
  O  O5  1  0.39099200  0.12752000  0.64336600  1
  O  O6  1  0.11809400  0.38961500  0.85410100  1
  O  O7  1  0.60393900  0.72790300  0.85198000  1
  O  O8  1  0.26223100  0.87045500  0.86523100  1
  O  O9  1  0.12398200  0.72790400  0.35198300  1
  O  O10  1  0.27154300  0.38962100  0.35410200  1
  O  O11  1  0.60824600  0.87045800  0.36522500  1
loop_
_geom_bond_atom_site_label_1
_geom_bond_atom_site_label_2
_geom_bond_distance
_geom_bond_site_symmetry_2
Na0 O9 2.450465 1_545
Na0 O10 2.462912 1_555
Na0 O5 2.467675 1_555
Na0 O11 2.494797 1_445
Na0 O3 2.552392 1_455
Na0 O4 2.613424 1_445
Na1 O7 2.450344 1_545
Na1 O6 2.462796 1_655
Na1 O2 2.467806 1_556
Na1 O8 2.494991 1_645
Na1 O1 2.552312 1_656
Na1 O0 2.613440 1_546
H0 P0 1.397358 1_556
H1 P1 1.397320 1_555
H2 P2 1.401759 1_554
H3 P3 1.401770 1_555
H4 O0 1.077828 1_555
H4 O9 1.405367 1_655
H5 O1 1.066976 1_555
H5 O10 1.428647 1_555
H6 O3 1.066941 1_555
H6 O6 1.428739 1_655
H7 O4 1.077873 1_555
H7 O7 1.405277 1_555
H8 O8 1.027011 1_555
H8 O5 1.571293 1_565
H9 O11 1.027023 1_555
H9 O2 1.571272 1_565
O0 P0 1.568398 1_555
O1 P0 1.571122 1_555
O2 P0 1.511762 1_555
O3 P1 1.571110 1_555
O4 P1 1.568349 1_555
O5 P1 1.511877 1_555
O6 P2 1.524282 1_555
O7 P2 1.526967 1_555
O8 P2 1.596356 1_555
O9 P3 1.526989 1_555
O10 P3 1.524239 1_555
O11 P3 1.596358 1_555
