# generated using pymatgen
data_Li9Mn2Co5O16
_symmetry_space_group_name_H-M   'P 1'
_cell_length_a   11.33287300
_cell_length_b   5.18466800
_cell_length_c   5.20568333
_cell_angle_alpha   67.60043695
_cell_angle_beta   90.00000000
_cell_angle_gamma   90.00000000
_symmetry_Int_Tables_number   1
_chemical_formula_structural   Li9Mn2Co5O16
_chemical_formula_sum   'Li9 Mn2 Co5 O16'
_cell_volume   282.79297965
_cell_formula_units_Z   1
loop_
 _symmetry_equiv_pos_site_id
 _symmetry_equiv_pos_as_xyz
  1  'x, y, z'
loop_
 _atom_site_type_symbol
 _atom_site_label
 _atom_site_symmetry_multiplicity
 _atom_site_fract_x
 _atom_site_fract_y
 _atom_site_fract_z
 _atom_site_occupancy
  Li  Li0  1  0.12323300  0.50000000  0.00000000  1
  Li  Li1  1  0.24961200  0.50000000  0.50000000  1
  Li  Li2  1  0.37687300  0.50000000  0.00000000  1
  Li  Li3  1  0.49890500  0.50000000  0.50000000  1
  Li  Li4  1  0.62585100  0.50000000  0.00000000  1
  Li  Li5  1  0.75297000  0.50000000  0.50000000  1
  Li  Li6  1  0.87338500  0.50000000  0.00000000  1
  Li  Li7  1  0.99808600  0.50000000  0.50000000  1
  Li  Li8  1  0.87425800  0.00000000  0.50000000  1
  Mn  Mn0  1  0.99751600  0.00000000  0.00000000  1
  Mn  Mn1  1  0.25107700  0.00000000  0.00000000  1
  Co  Co0  1  0.12458700  0.00000000  0.50000000  1
  Co  Co1  1  0.37612700  0.00000000  0.50000000  1
  Co  Co2  1  0.50170000  0.00000000  0.00000000  1
  Co  Co3  1  0.62548800  0.00000000  0.50000000  1
  Co  Co4  1  0.74859800  0.00000000  0.00000000  1
  O  O0  1  0.12268900  0.23578400  0.77132400  1
  O  O1  1  0.25133000  0.22924000  0.27787300  1
  O  O2  1  0.37797900  0.23277300  0.77267700  1
  O  O3  1  0.50061100  0.22421200  0.27210000  1
  O  O4  1  0.62635500  0.22980200  0.77678800  1
  O  O5  1  0.74332500  0.20580900  0.24102200  1
  O  O6  1  0.87249900  0.23504100  0.78155000  1
  O  O7  1  0.00608000  0.21104700  0.24439700  1
  O  O8  1  0.12268900  0.76421600  0.22867600  1
  O  O9  1  0.25133000  0.77076000  0.72212700  1
  O  O10  1  0.37797900  0.76722700  0.22732300  1
  O  O11  1  0.50061100  0.77578800  0.72790000  1
  O  O12  1  0.62635500  0.77019800  0.22321200  1
  O  O13  1  0.74332500  0.79419100  0.75897800  1
  O  O14  1  0.87249900  0.76495900  0.21845000  1
  O  O15  1  0.00608000  0.78895300  0.75560300  1
loop_
_geom_bond_atom_site_label_1
_geom_bond_atom_site_label_2
_geom_bond_distance
_geom_bond_site_symmetry_2
Li0 O15 2.042825 1_554
Li0 O7 2.042825 1_555
Li0 O8 2.129903 1_555
Li0 O0 2.129903 1_554
Li0 O1 2.150101 1_555
Li0 O9 2.150101 1_554
Li1 O8 2.113269 1_555
Li1 O0 2.113269 1_555
Li1 O1 2.131956 1_555
Li1 O9 2.131956 1_555
Li1 O2 2.133534 1_555
Li1 O10 2.133534 1_555
Li2 O3 2.115133 1_555
Li2 O11 2.115133 1_554
Li2 O1 2.130665 1_555
Li2 O9 2.130665 1_554
Li2 O10 2.137669 1_555
Li2 O2 2.137669 1_554
Li3 O10 2.076951 1_555
Li3 O2 2.076951 1_555
Li3 O4 2.141602 1_555
Li3 O12 2.141602 1_555
Li3 O3 2.178354 1_555
Li3 O11 2.178354 1_555
Li4 O13 2.052951 1_554
Li4 O5 2.052951 1_555
Li4 O11 2.126456 1_554
Li4 O3 2.126456 1_555
Li4 O4 2.133841 1_554
Li4 O12 2.133841 1_555
Li5 O14 2.082249 1_555
Li5 O6 2.082249 1_555
Li5 O4 2.135232 1_555
Li5 O12 2.135232 1_555
Li5 O5 2.392309 1_555
Li5 O13 2.392309 1_555
Li6 O14 2.090688 1_555
Li6 O6 2.090688 1_554
Li6 O5 2.148195 1_555
Li6 O13 2.148195 1_554
Li6 O15 2.161449 1_654
Li6 O7 2.161449 1_655
Li7 O0 2.095461 1_655
Li7 O8 2.095461 1_655
Li7 O14 2.127552 1_555
Li7 O6 2.127552 1_555
Li7 O15 2.354202 1_655
Li7 O7 2.354202 1_655
Li8 O5 2.015334 1_555
Li8 O13 2.015334 1_545
Li8 O7 2.022362 1_655
Li8 O15 2.022362 1_645
Li8 O6 2.234900 1_555
Li8 O14 2.234900 1_545
Mn0 O14 1.931160 1_545
Mn0 O6 1.931160 1_554
Mn0 O8 1.953143 1_645
Mn0 O0 1.953143 1_654
Mn0 O15 1.971371 1_644
Mn0 O7 1.971371 1_655
Mn1 O10 1.958760 1_545
Mn1 O2 1.958760 1_554
Mn1 O8 1.979764 1_545
Mn1 O0 1.979764 1_554
Mn1 O1 2.194382 1_555
Mn1 O9 2.194382 1_544
Co0 O15 1.913599 1_545
Co0 O7 1.913599 1_555
Co0 O9 1.940469 1_545
Co0 O1 1.940469 1_555
Co0 O8 2.192200 1_545
Co0 O0 2.192200 1_555
Co1 O11 1.923017 1_545
Co1 O3 1.923017 1_555
Co1 O9 1.924201 1_545
Co1 O1 1.924201 1_555
Co1 O2 2.185730 1_555
Co1 O10 2.185730 1_545
Co2 O12 1.926223 1_545
Co2 O4 1.926223 1_554
Co2 O2 1.932446 1_554
Co2 O10 1.932446 1_545
Co2 O11 2.147735 1_544
Co2 O3 2.147735 1_555
Co3 O5 1.908703 1_555
Co3 O13 1.908703 1_545
Co3 O11 1.926287 1_545
Co3 O3 1.926287 1_555
Co3 O12 2.191828 1_545
Co3 O4 2.191828 1_555
Co4 O12 1.906266 1_545
Co4 O4 1.906266 1_554
Co4 O6 1.921900 1_554
Co4 O14 1.921900 1_545
Co4 O13 1.933067 1_544
Co4 O5 1.933067 1_555
