# generated using pymatgen
data_Sc3V2Si3
_symmetry_space_group_name_H-M   'P 1'
_cell_length_a   7.64984243
_cell_length_b   7.64984243
_cell_length_c   5.17555400
_cell_angle_alpha   90.00000000
_cell_angle_beta   90.00000000
_cell_angle_gamma   120.00000369
_symmetry_Int_Tables_number   1
_chemical_formula_structural   Sc3V2Si3
_chemical_formula_sum   'Sc6 V4 Si6'
_cell_volume   262.29646578
_cell_formula_units_Z   2
loop_
 _symmetry_equiv_pos_site_id
 _symmetry_equiv_pos_as_xyz
  1  'x, y, z'
loop_
 _atom_site_type_symbol
 _atom_site_label
 _atom_site_symmetry_multiplicity
 _atom_site_fract_x
 _atom_site_fract_y
 _atom_site_fract_z
 _atom_site_occupancy
  Sc  Sc0  1  0.24609700  0.00000000  0.75000000  1
  Sc  Sc1  1  0.75390300  0.00000000  0.25000000  1
  Sc  Sc2  1  0.00000000  0.24609700  0.75000000  1
  Sc  Sc3  1  0.00000000  0.75390300  0.25000000  1
  Sc  Sc4  1  0.75390300  0.75390300  0.75000000  1
  Sc  Sc5  1  0.24609700  0.24609700  0.25000000  1
  V  V0  1  0.33333300  0.66666700  0.50000000  1
  V  V1  1  0.66666700  0.33333300  0.50000000  1
  V  V2  1  0.66666700  0.33333300  0.00000000  1
  V  V3  1  0.33333300  0.66666700  0.00000000  1
  Si  Si0  1  0.59463100  0.00000000  0.75000000  1
  Si  Si1  1  0.40536900  0.00000000  0.25000000  1
  Si  Si2  1  0.00000000  0.59463100  0.75000000  1
  Si  Si3  1  0.00000000  0.40536900  0.25000000  1
  Si  Si4  1  0.40536900  0.40536900  0.75000000  1
  Si  Si5  1  0.59463100  0.59463100  0.25000000  1
loop_
_geom_bond_atom_site_label_1
_geom_bond_atom_site_label_2
_geom_bond_distance
_geom_bond_site_symmetry_2
Sc0 Si0 2.666230 1_555
Sc0 Si2 2.706008 1_545
Sc0 Si4 2.706008 1_555
Sc0 Si1 2.860263 1_556
Sc0 Si1 2.860263 1_555
Sc0 V3 3.213004 1_546
Sc0 V0 3.213004 1_545
Sc0 V1 3.213009 1_555
Sc0 V2 3.213009 1_556
Sc1 Si1 2.666230 1_555
Sc1 Si3 2.706008 1_655
Sc1 Si5 2.706008 1_545
Sc1 Si0 2.860263 1_555
Sc1 Si0 2.860263 1_554
Sc1 V2 3.213004 1_555
Sc1 V1 3.213004 1_555
Sc1 V3 3.213009 1_545
Sc1 V0 3.213009 1_545
Sc2 Si2 2.666230 1_555
Sc2 Si0 2.706008 1_455
Sc2 Si4 2.706008 1_555
Sc2 Si3 2.860263 1_556
Sc2 Si3 2.860263 1_555
Sc2 V2 3.213004 1_456
Sc2 V1 3.213004 1_455
Sc2 V3 3.213009 1_556
Sc2 V0 3.213009 1_555
Sc3 Si3 2.666230 1_555
Sc3 Si1 2.706008 1_565
Sc3 Si5 2.706008 1_455
Sc3 Si2 2.860263 1_555
Sc3 Si2 2.860263 1_554
Sc3 V0 3.213004 1_555
Sc3 V3 3.213004 1_555
Sc3 V1 3.213009 1_455
Sc3 V2 3.213009 1_455
Sc4 Si4 2.666230 1_555
Sc4 Si0 2.706009 1_565
Sc4 Si2 2.706009 1_655
Sc4 Si5 2.860263 1_555
Sc4 Si5 2.860263 1_556
Sc4 V3 3.213011 1_556
Sc4 V1 3.213011 1_555
Sc4 V0 3.213011 1_555
Sc4 V2 3.213011 1_556
Sc5 Si5 2.666230 1_555
Sc5 Si3 2.706009 1_555
Sc5 Si1 2.706009 1_555
Sc5 Si4 2.860263 1_554
Sc5 Si4 2.860263 1_555
Sc5 V0 3.213011 1_555
Sc5 V3 3.213011 1_555
Sc5 V2 3.213011 1_555
Sc5 V1 3.213011 1_555
V0 V3 2.587777 1_556
V0 V3 2.587777 1_555
V1 V2 2.587777 1_555
V1 V2 2.587777 1_556
Si0 V1 2.659860 1_555
Si0 V2 2.659860 1_556
Si0 V0 2.659862 1_545
Si0 V3 2.659862 1_546
Si1 V3 2.659860 1_545
Si1 V0 2.659860 1_545
Si1 V2 2.659862 1_555
Si1 V1 2.659862 1_555
Si2 V0 2.659860 1_555
Si2 V3 2.659860 1_556
Si2 V1 2.659862 1_455
Si2 V2 2.659862 1_456
Si3 V2 2.659860 1_455
Si3 V1 2.659860 1_455
Si3 V3 2.659862 1_555
Si3 V0 2.659862 1_555
Si4 V1 2.659867 1_555
Si4 V2 2.659867 1_556
Si4 V0 2.659867 1_555
Si4 V3 2.659867 1_556
Si5 V2 2.659867 1_555
Si5 V1 2.659867 1_555
Si5 V0 2.659867 1_555
Si5 V3 2.659867 1_555
