# generated using pymatgen
data_K2Gd2Mg(MoO4)4
_symmetry_space_group_name_H-M   'P 1'
_cell_length_a   7.80183082
_cell_length_b   7.67586230
_cell_length_c   7.93012625
_cell_angle_alpha   117.71448831
_cell_angle_beta   122.99462822
_cell_angle_gamma   88.07086289
_symmetry_Int_Tables_number   1
_chemical_formula_structural   K2Gd2Mg(MoO4)4
_chemical_formula_sum   'K2 Gd2 Mg1 Mo4 O16'
_cell_volume   336.84077705
_cell_formula_units_Z   1
loop_
 _symmetry_equiv_pos_site_id
 _symmetry_equiv_pos_as_xyz
  1  'x, y, z'
loop_
 _atom_site_type_symbol
 _atom_site_label
 _atom_site_symmetry_multiplicity
 _atom_site_fract_x
 _atom_site_fract_y
 _atom_site_fract_z
 _atom_site_occupancy
  K  K0  1  0.47538100  0.22549100  0.25321600  1
  K  K1  1  0.47418100  0.74233200  0.74249200  1
  Gd  Gd0  1  0.01011000  0.77241300  0.24151400  1
  Gd  Gd1  1  0.01274600  0.25125100  0.75172800  1
  Mg  Mg0  1  0.77071500  0.99770700  0.79470700  1
  Mo  Mo0  1  0.99665000  0.30360000  0.28388800  1
  Mo  Mo1  1  0.99766300  0.69740900  0.71106600  1
  Mo  Mo2  1  0.51035000  0.72240800  0.21573000  1
  Mo  Mo3  1  0.48606500  0.28837300  0.78032800  1
  O  O0  1  0.66532200  0.19310100  0.99710000  1
  O  O1  1  0.33032400  0.76704600  0.97116200  1
  O  O2  1  0.69034400  0.69030300  0.51590300  1
  O  O3  1  0.31098900  0.35621200  0.54389600  1
  O  O4  1  0.74973200  0.93135900  0.37135700  1
  O  O5  1  0.24015200  0.07975500  0.62501200  1
  O  O6  1  0.05288900  0.37318000  0.12034400  1
  O  O7  1  0.95950500  0.60571800  0.87411000  1
  O  O8  1  0.04815300  0.64179300  0.47772200  1
  O  O9  1  0.92257400  0.35620300  0.49596300  1
  O  O10  1  0.65692700  0.57192400  0.01615200  1
  O  O11  1  0.37344000  0.42433700  0.00426800  1
  O  O12  1  0.93867200  0.00665600  0.12394100  1
  O  O13  1  0.04870600  0.98897400  0.83192500  1
  O  O14  1  0.35686100  0.79591800  0.33236000  1
  O  O15  1  0.65071500  0.19570500  0.67133800  1
loop_
_geom_bond_atom_site_label_1
_geom_bond_atom_site_label_2
_geom_bond_distance
_geom_bond_site_symmetry_2
K0 O11 2.805445 1_555
K0 O9 2.830081 1_555
K0 O13 2.862100 1_544
K0 O15 2.943109 1_555
K0 O1 2.976068 1_544
K0 O3 2.991208 1_555
K0 O0 3.027607 1_554
K0 O2 3.092964 1_555
K0 O4 3.164572 1_545
K0 O6 3.215145 1_555
K1 O1 2.542899 1_555
K1 O3 2.571791 1_555
K1 O8 2.667679 1_555
K1 O10 2.756479 1_556
K1 Mg0 2.805937 1_555
K1 O2 2.969860 1_555
K1 O0 2.973635 1_565
K1 O12 3.040852 1_566
K1 O14 3.092211 1_555
K1 O5 3.314089 1_565
Gd0 O12 2.310555 1_465
Gd0 O10 2.349231 1_455
Gd0 O7 2.365497 1_454
Gd0 O14 2.378968 1_555
Gd0 O5 2.388009 1_565
Gd0 O8 2.392357 1_555
Gd0 O4 2.760109 1_455
Gd0 O6 2.822614 1_555
Gd1 O9 2.277122 1_455
Gd1 O11 2.309506 1_556
Gd1 O13 2.344075 1_545
Gd1 O6 2.448858 1_556
Gd1 O4 2.459145 1_445
Gd1 O7 2.534611 1_455
Gd1 O15 2.536372 1_455
Gd1 O5 2.538593 1_555
Mg0 O13 2.026552 1_655
Mg0 O15 2.105488 1_565
Mg0 O2 2.141592 1_555
Mg0 O0 2.148693 1_565
Mg0 O12 2.156747 1_566
Mo0 O6 1.854614 1_655
Mo0 O9 1.933046 1_555
Mo0 O12 1.940136 1_555
Mo0 O3 2.052744 1_655
Mo0 O0 2.127043 1_554
Mo0 O8 2.224657 1_655
Mo1 O7 1.880282 1_555
Mo1 O13 1.932635 1_655
Mo1 O8 1.951759 1_655
Mo1 O2 2.008928 1_555
Mo1 O1 2.124521 1_655
Mo1 O9 2.229769 1_555
Mo2 O14 1.811948 1_555
Mo2 O4 1.853043 1_555
Mo2 O1 1.862927 1_554
Mo2 O11 1.957750 1_555
Mo2 O2 2.140266 1_555
Mo2 O10 2.308402 1_555
Mo3 O15 1.865197 1_555
Mo3 O5 1.887024 1_555
Mo3 O10 1.925040 1_556
Mo3 O3 1.929569 1_555
Mo3 O0 1.981867 1_555
Mo3 O11 2.220104 1_556
