# generated using pymatgen
data_SrFe3Bi2O9
_symmetry_space_group_name_H-M   'P 1'
_cell_length_a   5.58695888
_cell_length_b   5.58695888
_cell_length_c   6.86745600
_cell_angle_alpha   90.00000000
_cell_angle_beta   90.00000000
_cell_angle_gamma   119.99998677
_symmetry_Int_Tables_number   1
_chemical_formula_structural   SrFe3Bi2O9
_chemical_formula_sum   'Sr1 Fe3 Bi2 O9'
_cell_volume   185.64255010
_cell_formula_units_Z   1
loop_
 _symmetry_equiv_pos_site_id
 _symmetry_equiv_pos_as_xyz
  1  'x, y, z'
loop_
 _atom_site_type_symbol
 _atom_site_label
 _atom_site_symmetry_multiplicity
 _atom_site_fract_x
 _atom_site_fract_y
 _atom_site_fract_z
 _atom_site_occupancy
  Sr  Sr0  1  0.00000000  0.00000000  0.50000000  1
  Fe  Fe0  1  0.66666700  0.33333300  0.35241500  1
  Fe  Fe1  1  0.33333300  0.66666700  0.64758500  1
  Fe  Fe2  1  0.00000000  0.00000000  0.00000000  1
  Bi  Bi0  1  0.66666700  0.33333300  0.88906900  1
  Bi  Bi1  1  0.33333300  0.66666700  0.11093100  1
  O  O0  1  0.82614400  0.17385600  0.15443800  1
  O  O1  1  0.50000000  0.50000000  0.50000000  1
  O  O2  1  0.17385600  0.82614400  0.84556200  1
  O  O3  1  0.00000000  0.50000000  0.50000000  1
  O  O4  1  0.65228700  0.82614400  0.84556200  1
  O  O5  1  0.34771300  0.17385600  0.15443800  1
  O  O6  1  0.82614400  0.65228700  0.15443800  1
  O  O7  1  0.50000000  0.00000000  0.50000000  1
  O  O8  1  0.17385600  0.34771300  0.84556200  1
loop_
_geom_bond_atom_site_label_1
_geom_bond_atom_site_label_2
_geom_bond_distance
_geom_bond_site_symmetry_2
Fe0 O3 1.904842 1_655
Fe0 O7 1.904842 1_555
Fe0 O1 1.904845 1_555
Fe0 O0 2.056722 1_555
Fe0 O5 2.056722 1_555
Fe0 O6 2.056722 1_555
Fe1 O7 1.904842 1_565
Fe1 O3 1.904842 1_555
Fe1 O1 1.904845 1_555
Fe1 O2 2.056722 1_555
Fe1 O4 2.056722 1_555
Fe1 O8 2.056722 1_555
Fe2 O0 1.988791 1_455
Fe2 O2 1.988791 1_544
Fe2 O5 1.988795 1_555
Fe2 O8 1.988795 1_554
Fe2 O6 1.988795 1_445
Fe2 O4 1.988795 1_444
Bi0 O0 2.388048 1_556
Bi0 O6 2.388049 1_556
Bi0 O5 2.388049 1_556
Bi0 O4 2.810268 1_545
Bi0 O8 2.810268 1_655
Bi0 O2 2.810274 1_655
Bi0 O2 2.810274 1_545
Bi0 O8 2.810279 1_555
Bi0 O4 2.810279 1_555
Bi1 O2 2.388048 1_554
Bi1 O8 2.388049 1_554
Bi1 O4 2.388049 1_554
Bi1 O6 2.810268 1_455
Bi1 O5 2.810268 1_565
Bi1 O0 2.810274 1_565
Bi1 O0 2.810274 1_455
Bi1 O5 2.810279 1_555
Bi1 O6 2.810279 1_555
O0 Sr0 2.908982 1_655
O1 Sr0 2.793480 1_665
O1 Sr0 2.793480 1_555
O2 Sr0 2.908982 1_565
O3 Sr0 2.793479 1_565
O3 Sr0 2.793479 1_555
O4 Sr0 2.908985 1_665
O5 Sr0 2.908985 1_555
O6 Sr0 2.908985 1_665
O7 Sr0 2.793479 1_555
O7 Sr0 2.793479 1_655
O8 Sr0 2.908985 1_555
