# generated using pymatgen
data_Mg14FeB
_symmetry_space_group_name_H-M   'P 1'
_cell_length_a   6.15647977
_cell_length_b   6.39605216
_cell_length_c   9.81904139
_cell_angle_alpha   90.00000000
_cell_angle_beta   90.00000000
_cell_angle_gamma   121.29583567
_symmetry_Int_Tables_number   1
_chemical_formula_structural   Mg14FeB
_chemical_formula_sum   'Mg14 Fe1 B1'
_cell_volume   330.38770477
_cell_formula_units_Z   1
loop_
 _symmetry_equiv_pos_site_id
 _symmetry_equiv_pos_as_xyz
  1  'x, y, z'
loop_
 _atom_site_type_symbol
 _atom_site_label
 _atom_site_symmetry_multiplicity
 _atom_site_fract_x
 _atom_site_fract_y
 _atom_site_fract_z
 _atom_site_occupancy
  Mg  Mg0  1  0.18137627  0.34068764  0.62500000  1
  Mg  Mg1  1  0.17165988  0.83582944  0.62500000  1
  Mg  Mg2  1  0.75015105  0.38057680  0.12500000  1
  Mg  Mg3  1  0.66327721  0.32909343  0.62500000  1
  Mg  Mg4  1  0.75015105  0.86957325  0.12500000  1
  Mg  Mg5  1  0.66327721  0.83418278  0.62500000  1
  Mg  Mg6  1  0.30629226  0.13765993  0.32467974  1
  Mg  Mg7  1  0.30629226  0.13765993  0.92532026  1
  Mg  Mg8  1  0.30629226  0.66863333  0.32467974  1
  Mg  Mg9  1  0.30629226  0.66863333  0.92532026  1
  Mg  Mg10  1  0.83666279  0.16833189  0.37360113  1
  Mg  Mg11  1  0.83666279  0.16833189  0.87639887  1
  Mg  Mg12  1  0.81217588  0.65608844  0.37485368  1
  Mg  Mg13  1  0.81217588  0.65608844  0.87514632  1
  Fe  Fe0  1  0.17874080  0.33936990  0.12500000  1
  B  B0  1  0.11852016  0.80925958  0.12500000  1
loop_
_geom_bond_atom_site_label_1
_geom_bond_atom_site_label_2
_geom_bond_distance
_geom_bond_site_symmetry_2
Mg0 Mg5 3.006003 1_555
Mg0 Mg3 3.006003 1_555
Mg0 Mg10 3.063006 1_455
Mg0 Mg11 3.063006 1_455
Mg0 Mg5 3.151782 1_445
Mg0 Mg3 3.151782 1_455
Mg0 Mg1 3.198435 1_555
Mg0 Mg1 3.198435 1_545
Mg0 Mg6 3.465690 1_555
Mg0 Mg7 3.465690 1_555
Mg0 Mg9 3.465696 1_555
Mg0 Mg8 3.465696 1_555
Mg1 Mg3 3.032116 1_565
Mg1 Mg5 3.032116 1_555
Mg1 Mg12 3.099886 1_455
Mg1 Mg13 3.099886 1_455
Mg1 Mg3 3.124389 1_455
Mg1 Mg5 3.124390 1_455
Mg1 Mg8 3.383378 1_555
Mg1 Mg9 3.383378 1_555
Mg1 Mg7 3.383384 1_565
Mg1 Mg6 3.383384 1_565
Mg3 Mg5 3.165474 1_545
Mg3 Mg5 3.230578 1_555
Mg3 Mg6 3.497062 1_555
Mg3 Mg7 3.497062 1_555
Mg5 Mg8 3.497063 1_555
Mg5 Mg9 3.497063 1_555
Mg10 Mg2 2.972596 1_555
Mg10 Mg4 2.972603 1_545
Mg10 Mg8 3.036103 1_655
Mg10 Mg6 3.036103 1_655
Mg10 Mg3 3.070910 1_555
Mg10 Mg5 3.070916 1_545
Mg10 Mg12 3.200643 1_545
Mg10 Mg12 3.200643 1_555
Mg10 Mg8 3.203961 1_545
Mg10 Mg6 3.203962 1_555
Mg11 Mg2 2.972596 1_556
Mg11 Mg4 2.972603 1_546
Mg11 Mg9 3.036103 1_655
Mg11 Mg7 3.036103 1_655
Mg11 Mg3 3.070910 1_555
Mg11 Mg5 3.070916 1_545
Mg11 Mg13 3.200643 1_545
Mg11 Mg13 3.200643 1_555
Mg11 Mg9 3.203961 1_545
Mg11 Mg7 3.203962 1_555
Mg12 Mg4 2.927591 1_555
Mg12 Mg2 2.927598 1_555
Mg12 Mg6 3.041289 1_665
Mg12 Mg8 3.041289 1_655
Mg12 Mg5 3.042304 1_555
Mg12 Mg3 3.042311 1_555
Mg12 Mg6 3.195097 1_555
Mg12 Mg8 3.195098 1_555
Mg13 Mg4 2.927591 1_556
Mg13 Mg2 2.927598 1_556
Mg13 Mg7 3.041289 1_665
Mg13 Mg9 3.041289 1_655
Mg13 Mg5 3.042304 1_555
Mg13 Mg3 3.042311 1_555
Mg13 Mg7 3.195097 1_555
Mg13 Mg9 3.195098 1_555
Fe0 Mg7 2.679154 1_554
Fe0 Mg6 2.679154 1_555
Fe0 Mg8 2.679162 1_555
Fe0 Mg9 2.679162 1_554
Fe0 Mg4 2.784635 1_445
Fe0 Mg2 2.784635 1_455
Fe0 Mg11 3.032663 1_454
Fe0 Mg10 3.032663 1_455
Fe0 Mg4 3.388459 1_555
Fe0 Mg2 3.388459 1_555
B0 Mg2 2.490162 1_455
B0 Mg4 2.490162 1_455
B0 Mg8 2.658915 1_555
B0 Mg9 2.658915 1_554
B0 Mg7 2.658923 1_564
B0 Mg6 2.658923 1_565
B0 Mg13 2.935302 1_454
B0 Mg12 2.935302 1_455
