# generated using pymatgen
data_SmErFe4
_symmetry_space_group_name_H-M   'P 1'
_cell_length_a   5.17398376
_cell_length_b   5.17398376
_cell_length_c   5.17398376
_cell_angle_alpha   60.00000000
_cell_angle_beta   60.00000000
_cell_angle_gamma   60.00000000
_symmetry_Int_Tables_number   1
_chemical_formula_structural   SmErFe4
_chemical_formula_sum   'Sm1 Er1 Fe4'
_cell_volume   97.94001924
_cell_formula_units_Z   1
loop_
 _symmetry_equiv_pos_site_id
 _symmetry_equiv_pos_as_xyz
  1  'x, y, z'
loop_
 _atom_site_type_symbol
 _atom_site_label
 _atom_site_symmetry_multiplicity
 _atom_site_fract_x
 _atom_site_fract_y
 _atom_site_fract_z
 _atom_site_occupancy
  Sm  Sm0  1  0.00000000  0.00000000  0.00000000  1
  Er  Er0  1  0.25000000  0.25000000  0.25000000  1
  Fe  Fe0  1  0.62488500  0.62488500  0.12534400  1
  Fe  Fe1  1  0.62488500  0.12534400  0.62488500  1
  Fe  Fe2  1  0.12534400  0.62488500  0.62488500  1
  Fe  Fe3  1  0.62488500  0.62488500  0.62488500  1
loop_
_geom_bond_atom_site_label_1
_geom_bond_atom_site_label_2
_geom_bond_distance
_geom_bond_site_symmetry_2
Er0 Fe2 3.033261 1_555
Er0 Fe0 3.033261 1_555
Er0 Fe1 3.033261 1_555
Er0 Fe3 3.033263 1_554
Er0 Fe3 3.033263 1_455
Er0 Fe3 3.033263 1_545
Er0 Fe1 3.033266 1_554
Er0 Fe2 3.033266 1_545
Er0 Fe0 3.033266 1_545
Er0 Fe2 3.033266 1_554
Er0 Fe1 3.033266 1_455
Er0 Fe0 3.033266 1_455
Er0 Sm0 3.168405 1_565
Er0 Sm0 3.168405 1_556
Er0 Sm0 3.168405 1_555
Er0 Sm0 3.168405 1_655
Fe0 Fe3 2.584617 1_555
Fe0 Fe2 2.584617 1_555
Fe0 Fe1 2.584617 1_555
Fe0 Fe3 2.589367 1_554
Fe0 Fe1 2.589367 1_564
Fe0 Fe2 2.589367 1_654
Fe0 Sm0 3.033769 1_655
Fe0 Sm0 3.033769 1_565
Fe0 Sm0 3.033773 1_665
Fe1 Fe3 2.584617 1_555
Fe1 Fe2 2.584617 1_555
Fe1 Fe2 2.589367 1_645
Fe1 Fe3 2.589367 1_545
Fe1 Sm0 3.033769 1_655
Fe1 Sm0 3.033769 1_556
Fe1 Sm0 3.033773 1_656
Fe2 Fe3 2.584617 1_555
Fe2 Fe3 2.589367 1_455
Fe2 Sm0 3.033769 1_565
Fe2 Sm0 3.033769 1_556
Fe2 Sm0 3.033773 1_566
Fe3 Sm0 3.033771 1_656
Fe3 Sm0 3.033771 1_665
Fe3 Sm0 3.033771 1_566
