# generated using pymatgen
data_Tm3(In2Co)2
_symmetry_space_group_name_H-M   'P 1'
_cell_length_a   7.80595625
_cell_length_b   7.80595867
_cell_length_c   3.56234519
_cell_angle_alpha   90.00000000
_cell_angle_beta   90.00000000
_cell_angle_gamma   119.99998957
_symmetry_Int_Tables_number   1
_chemical_formula_structural   Tm3(In2Co)2
_chemical_formula_sum   'Tm3 In4 Co2'
_cell_volume   187.98319980
_cell_formula_units_Z   1
loop_
 _symmetry_equiv_pos_site_id
 _symmetry_equiv_pos_as_xyz
  1  'x, y, z'
loop_
 _atom_site_type_symbol
 _atom_site_label
 _atom_site_symmetry_multiplicity
 _atom_site_fract_x
 _atom_site_fract_y
 _atom_site_fract_z
 _atom_site_occupancy
  Tm  Tm0  1  0.29412228  0.24953593  0.50000000  1
  Tm  Tm1  1  0.75046407  0.04458535  0.50000000  1
  Tm  Tm2  1  0.95541465  0.70587772  0.50000000  1
  In  In0  1  0.07613616  0.41122000  -0.00000000  1
  In  In1  1  0.58878000  0.66491716  0.00000000  1
  In  In2  1  0.33508284  0.92386384  0.00000000  1
  In  In3  1  0.66666700  0.33333300  0.00000000  1
  Co  Co0  1  0.33333300  0.66666700  0.50000000  1
  Co  Co1  1  -0.00000000  -0.00000000  -0.00000000  1
loop_
_geom_bond_atom_site_label_1
_geom_bond_atom_site_label_2
_geom_bond_distance
_geom_bond_site_symmetry_2
In0 In3 2.939842 1_455
In0 Tm0 3.131845 1_555
In0 Tm0 3.131845 1_554
In0 Tm1 3.248135 1_454
In0 Tm1 3.248135 1_455
In0 Tm2 3.393887 1_454
In0 Tm2 3.393887 1_455
In1 In3 2.939858 1_555
In1 Tm1 3.131834 1_565
In1 Tm1 3.131834 1_564
In1 Tm2 3.248139 1_554
In1 Tm2 3.248139 1_555
In1 Tm0 3.393897 1_555
In1 Tm0 3.393897 1_554
In2 In3 2.939849 1_565
In2 Tm2 3.131835 1_455
In2 Tm2 3.131835 1_454
In2 Tm0 3.248127 1_565
In2 Tm0 3.248127 1_564
In2 Tm1 3.393899 1_564
In2 Tm1 3.393899 1_565
In3 Tm0 3.186705 1_555
In3 Tm0 3.186705 1_554
In3 Tm1 3.186705 1_555
In3 Tm1 3.186705 1_554
In3 Tm2 3.186706 1_554
In3 Tm2 3.186706 1_555
Co0 In1 2.678818 1_555
Co0 In1 2.678818 1_556
Co0 In0 2.678819 1_555
Co0 In0 2.678819 1_556
Co0 In2 2.678819 1_556
Co0 In2 2.678819 1_555
Co0 Tm2 3.114354 1_455
Co0 Tm1 3.114363 1_565
Co0 Tm0 3.114370 1_555
Co1 Tm1 2.786719 1_454
Co1 Tm1 2.786719 1_455
Co1 Tm0 2.786723 1_555
Co1 Tm0 2.786723 1_554
Co1 Tm2 2.786726 1_445
Co1 Tm2 2.786726 1_444
Co1 In2 2.957923 1_545
Co1 In1 2.957929 1_445
Co1 In0 2.957932 1_555
