# generated using pymatgen
data_YCu3(NiO3)4
_symmetry_space_group_name_H-M   'P 1'
_cell_length_a   6.29935620
_cell_length_b   6.29935620
_cell_length_c   6.29935620
_cell_angle_alpha   109.47122063
_cell_angle_beta   109.47122063
_cell_angle_gamma   109.47122063
_symmetry_Int_Tables_number   1
_chemical_formula_structural   YCu3(NiO3)4
_chemical_formula_sum   'Y1 Cu3 Ni4 O12'
_cell_volume   192.42726594
_cell_formula_units_Z   1
loop_
 _symmetry_equiv_pos_site_id
 _symmetry_equiv_pos_as_xyz
  1  'x, y, z'
loop_
 _atom_site_type_symbol
 _atom_site_label
 _atom_site_symmetry_multiplicity
 _atom_site_fract_x
 _atom_site_fract_y
 _atom_site_fract_z
 _atom_site_occupancy
  Y  Y0  1  0.00000000  0.00000000  0.00000000  1
  Cu  Cu0  1  0.00000000  0.50000000  0.50000000  1
  Cu  Cu1  1  0.50000000  0.00000000  0.50000000  1
  Cu  Cu2  1  0.50000000  0.50000000  0.00000000  1
  Ni  Ni0  1  0.00000000  0.00000000  0.50000000  1
  Ni  Ni1  1  0.00000000  0.50000000  0.00000000  1
  Ni  Ni2  1  0.50000000  0.00000000  0.00000000  1
  Ni  Ni3  1  0.50000000  0.50000000  0.50000000  1
  O  O0  1  0.30607400  0.13754500  0.83147000  1
  O  O1  1  0.69392600  0.86245500  0.16853000  1
  O  O2  1  0.69392600  0.52539600  0.83147000  1
  O  O3  1  0.47460400  0.16853000  0.30607400  1
  O  O4  1  0.16853000  0.30607400  0.47460400  1
  O  O5  1  0.83147000  0.30607400  0.13754500  1
  O  O6  1  0.86245500  0.16853000  0.69392600  1
  O  O7  1  0.83147000  0.69392600  0.52539600  1
  O  O8  1  0.30607400  0.47460400  0.16853000  1
  O  O9  1  0.52539600  0.83147000  0.69392600  1
  O  O10  1  0.16853000  0.69392600  0.86245500  1
  O  O11  1  0.13754500  0.83147000  0.30607400  1
loop_
_geom_bond_atom_site_label_1
_geom_bond_atom_site_label_2
_geom_bond_distance
_geom_bond_site_symmetry_2
Cu0 O10 1.868823 1_555
Cu0 O5 1.868823 1_455
Cu0 O7 1.868828 1_455
Cu0 O4 1.868828 1_555
Cu1 O6 1.868823 1_555
Cu1 O11 1.868823 1_545
Cu1 O9 1.868828 1_545
Cu1 O3 1.868828 1_555
Cu2 O1 1.868823 1_555
Cu2 O0 1.868823 1_554
Cu2 O2 1.868828 1_554
Cu2 O8 1.868828 1_555
Ni0 O0 1.955596 1_555
Ni0 O1 1.955596 1_445
Ni0 O4 1.955598 1_555
Ni0 O7 1.955598 1_445
Ni0 O6 1.955603 1_455
Ni0 O11 1.955603 1_545
Ni1 O11 1.955596 1_555
Ni1 O6 1.955596 1_454
Ni1 O8 1.955598 1_555
Ni1 O2 1.955598 1_454
Ni1 O10 1.955603 1_554
Ni1 O5 1.955603 1_455
Ni2 O5 1.955596 1_555
Ni2 O10 1.955596 1_544
Ni2 O3 1.955598 1_555
Ni2 O9 1.955598 1_544
Ni2 O1 1.955603 1_545
Ni2 O0 1.955603 1_554
Ni3 O3 1.955598 1_555
Ni3 O4 1.955598 1_555
Ni3 O8 1.955598 1_555
Ni3 O7 1.955598 1_555
Ni3 O2 1.955598 1_555
Ni3 O9 1.955598 1_555
O0 Y0 2.541526 1_556
O1 Y0 2.541526 1_665
O2 Y0 2.541524 1_666
O3 Y0 2.541524 1_555
O4 Y0 2.541524 1_555
O5 Y0 2.541526 1_655
O6 Y0 2.541526 1_656
O7 Y0 2.541524 1_666
O8 Y0 2.541524 1_555
O9 Y0 2.541524 1_666
O10 Y0 2.541526 1_566
O11 Y0 2.541526 1_565
