# generated using pymatgen
data_Be4NbMo
_symmetry_space_group_name_H-M   'P 1'
_cell_length_a   4.54284687
_cell_length_b   4.54284687
_cell_length_c   7.41191917
_cell_angle_alpha   90.00000000
_cell_angle_beta   90.00000000
_cell_angle_gamma   120.00001904
_symmetry_Int_Tables_number   1
_chemical_formula_structural   Be4NbMo
_chemical_formula_sum   'Be8 Nb2 Mo2'
_cell_volume   132.46996396
_cell_formula_units_Z   2
loop_
 _symmetry_equiv_pos_site_id
 _symmetry_equiv_pos_as_xyz
  1  'x, y, z'
loop_
 _atom_site_type_symbol
 _atom_site_label
 _atom_site_symmetry_multiplicity
 _atom_site_fract_x
 _atom_site_fract_y
 _atom_site_fract_z
 _atom_site_occupancy
  Be  Be0  1  -0.00000000  -0.00000000  0.50000000  1
  Be  Be1  1  -0.00000000  -0.00000000  0.00000000  1
  Be  Be2  1  0.82899379  0.17100621  0.25438855  1
  Be  Be3  1  0.82899379  0.65798859  0.25438855  1
  Be  Be4  1  0.34201141  0.17100621  0.25438855  1
  Be  Be5  1  0.17100621  0.82899379  0.74561145  1
  Be  Be6  1  0.17100621  0.34201141  0.74561145  1
  Be  Be7  1  0.65798859  0.82899379  0.74561145  1
  Nb  Nb0  1  0.66666700  0.33333300  0.92972466  1
  Nb  Nb1  1  0.33333300  0.66666700  0.07027534  1
  Mo  Mo0  1  0.33333300  0.66666700  0.44066560  1
  Mo  Mo1  1  0.66666700  0.33333300  0.55933440  1
loop_
_geom_bond_atom_site_label_1
_geom_bond_atom_site_label_2
_geom_bond_distance
_geom_bond_site_symmetry_2
Be0 Be7 2.263746 1_445
Be0 Be4 2.263746 1_555
Be0 Be6 2.263746 1_555
Be0 Be3 2.263746 1_445
Be0 Be2 2.263749 1_455
Be0 Be5 2.263749 1_545
Be0 Mo1 2.659426 1_455
Be0 Mo0 2.659426 1_545
Be0 Mo0 2.659429 1_555
Be0 Mo1 2.659429 1_555
Be0 Mo1 2.659429 1_445
Be0 Mo0 2.659429 1_445
Be1 Be4 2.316385 1_555
Be1 Be3 2.316385 1_445
Be1 Be7 2.316385 1_444
Be1 Be6 2.316385 1_554
Be1 Be2 2.316387 1_455
Be1 Be5 2.316387 1_544
Be1 Nb1 2.674033 1_545
Be1 Nb0 2.674033 1_454
Be1 Nb1 2.674036 1_445
Be1 Nb1 2.674036 1_555
Be1 Nb0 2.674036 1_554
Be1 Nb0 2.674036 1_444
Be2 Be4 2.212286 1_555
Be2 Be3 2.212286 1_555
Be2 Be4 2.330560 1_655
Be2 Be3 2.330560 1_545
Be2 Mo1 2.596160 1_555
Be2 Nb1 2.650047 1_545
Be2 Nb1 2.650047 1_655
Be2 Mo0 2.658341 1_545
Be2 Mo0 2.658341 1_655
Be2 Nb0 2.724347 1_554
Be3 Be4 2.212286 1_555
Be3 Be4 2.330560 1_665
Be3 Mo1 2.596164 1_555
Be3 Nb1 2.650047 1_555
Be3 Nb1 2.650047 1_655
Be3 Mo0 2.658342 1_555
Be3 Mo0 2.658342 1_655
Be3 Nb0 2.724351 1_554
Be4 Mo1 2.596164 1_555
Be4 Nb1 2.650047 1_555
Be4 Nb1 2.650047 1_545
Be4 Mo0 2.658342 1_555
Be4 Mo0 2.658342 1_545
Be4 Nb0 2.724351 1_554
Be5 Be6 2.212286 1_555
Be5 Be7 2.212286 1_555
Be5 Be7 2.330560 1_455
Be5 Be6 2.330560 1_565
Be5 Mo0 2.596160 1_555
Be5 Nb0 2.650047 1_455
Be5 Nb0 2.650047 1_565
Be5 Mo1 2.658341 1_455
Be5 Mo1 2.658341 1_565
Be5 Nb1 2.724347 1_556
Be6 Be7 2.212286 1_555
Be6 Be7 2.330560 1_445
Be6 Mo0 2.596164 1_555
Be6 Nb0 2.650047 1_555
Be6 Nb0 2.650047 1_455
Be6 Mo1 2.658342 1_555
Be6 Mo1 2.658342 1_455
Be6 Nb1 2.724351 1_556
Be7 Mo0 2.596164 1_555
Be7 Nb0 2.650047 1_555
Be7 Nb0 2.650047 1_565
Be7 Mo1 2.658342 1_555
Be7 Mo1 2.658342 1_565
Be7 Nb1 2.724351 1_556
Nb0 Nb1 2.822123 1_546
Nb0 Nb1 2.822123 1_656
Nb0 Nb1 2.822131 1_556
Mo0 Nb1 2.745303 1_555
Mo1 Nb0 2.745303 1_555
