# generated using pymatgen
data_BaLa3(CoO3)4
_symmetry_space_group_name_H-M   'P 1'
_cell_length_a   6.74841289
_cell_length_b   6.74841289
_cell_length_c   6.74841289
_cell_angle_alpha   109.47122063
_cell_angle_beta   109.47122063
_cell_angle_gamma   109.47122063
_symmetry_Int_Tables_number   1
_chemical_formula_structural   BaLa3(CoO3)4
_chemical_formula_sum   'Ba1 La3 Co4 O12'
_cell_volume   236.58273524
_cell_formula_units_Z   1
loop_
 _symmetry_equiv_pos_site_id
 _symmetry_equiv_pos_as_xyz
  1  'x, y, z'
loop_
 _atom_site_type_symbol
 _atom_site_label
 _atom_site_symmetry_multiplicity
 _atom_site_fract_x
 _atom_site_fract_y
 _atom_site_fract_z
 _atom_site_occupancy
  Ba  Ba0  1  0.00000000  0.00000000  0.00000000  1
  La  La0  1  0.50000000  0.50000000  0.00000000  1
  La  La1  1  0.50000000  0.00000000  0.50000000  1
  La  La2  1  0.00000000  0.50000000  0.50000000  1
  Co  Co0  1  0.50000000  0.00000000  0.00000000  1
  Co  Co1  1  0.00000000  0.50000000  0.00000000  1
  Co  Co2  1  0.50000000  0.50000000  0.50000000  1
  Co  Co3  1  0.00000000  0.00000000  0.50000000  1
  O  O0  1  0.74294200  0.00000000  0.25705800  1
  O  O1  1  0.25705800  0.51411600  0.25705800  1
  O  O2  1  0.74294200  0.48588400  0.74294200  1
  O  O3  1  0.25705800  0.00000000  0.74294200  1
  O  O4  1  0.25705800  0.25705800  0.51411600  1
  O  O5  1  0.74294200  0.74294200  0.48588400  1
  O  O6  1  0.25705800  0.74294200  0.00000000  1
  O  O7  1  0.74294200  0.25705800  0.00000000  1
  O  O8  1  0.00000000  0.74294200  0.25705800  1
  O  O9  1  0.51411600  0.25705800  0.25705800  1
  O  O10  1  0.00000000  0.25705800  0.74294200  1
  O  O11  1  0.48588400  0.74294200  0.74294200  1
loop_
_geom_bond_atom_site_label_1
_geom_bond_atom_site_label_2
_geom_bond_distance
_geom_bond_site_symmetry_2
Ba0 O5 2.832808 1_444
Ba0 O2 2.832808 1_444
Ba0 O4 2.832808 1_555
Ba0 O1 2.832808 1_555
Ba0 O8 2.832808 1_545
Ba0 O10 2.832808 1_554
Ba0 O6 2.832808 1_545
Ba0 O11 2.832808 1_444
Ba0 O9 2.832808 1_555
Ba0 O3 2.832808 1_554
Ba0 O0 2.832808 1_455
Ba0 O7 2.832808 1_455
La0 O5 2.677248 1_555
La0 O6 2.677248 1_555
La0 O7 2.677248 1_555
La0 O4 2.677248 1_554
La0 O9 2.756126 1_555
La0 O10 2.756126 1_554
La0 O2 2.756126 1_554
La0 O11 2.756126 1_554
La0 O1 2.756126 1_555
La0 O0 2.756126 1_565
La0 O8 2.756126 1_655
La0 O3 2.756126 1_554
La1 O1 2.677248 1_545
La1 O3 2.677248 1_555
La1 O0 2.677248 1_555
La1 O2 2.677248 1_555
La1 O9 2.756126 1_555
La1 O11 2.756126 1_545
La1 O8 2.756126 1_545
La1 O5 2.756126 1_545
La1 O4 2.756126 1_555
La1 O7 2.756126 1_556
La1 O10 2.756126 1_655
La1 O6 2.756126 1_545
La2 O11 2.677248 1_555
La2 O8 2.677248 1_555
La2 O9 2.677248 1_455
La2 O10 2.677248 1_555
La2 O6 2.756126 1_556
La2 O5 2.756126 1_455
La2 O3 2.756126 1_565
La2 O7 2.756126 1_455
La2 O4 2.756126 1_555
La2 O2 2.756126 1_455
La2 O1 2.756126 1_555
La2 O0 2.756126 1_455
Co0 O7 1.949651 1_555
Co0 O6 1.949651 1_545
Co0 O0 1.949651 1_555
Co0 O9 1.949651 1_555
Co0 O11 1.949651 1_544
Co0 O3 1.949651 1_554
Co1 O10 1.949651 1_554
Co1 O2 1.949651 1_454
Co1 O8 1.949651 1_555
Co1 O6 1.949651 1_555
Co1 O7 1.949651 1_455
Co1 O1 1.949651 1_555
Co2 O11 1.949651 1_555
Co2 O5 1.949651 1_555
Co2 O2 1.949651 1_555
Co2 O9 1.949651 1_555
Co2 O4 1.949651 1_555
Co2 O1 1.949651 1_555
Co3 O10 1.949651 1_555
Co3 O0 1.949651 1_455
Co3 O3 1.949651 1_555
Co3 O8 1.949651 1_545
Co3 O5 1.949651 1_445
Co3 O4 1.949651 1_555
