# generated using pymatgen
data_Sr4Ca(FeO3)5
_symmetry_space_group_name_H-M   'P 1'
_cell_length_a   7.80891612
_cell_length_b   9.55685757
_cell_length_c   8.71594902
_cell_angle_alpha   89.97091585
_cell_angle_beta   90.01904968
_cell_angle_gamma   65.87878135
_symmetry_Int_Tables_number   1
_chemical_formula_structural   Sr4Ca(FeO3)5
_chemical_formula_sum   'Sr8 Ca2 Fe10 O30'
_cell_volume   593.66347831
_cell_formula_units_Z   2
loop_
 _symmetry_equiv_pos_site_id
 _symmetry_equiv_pos_as_xyz
  1  'x, y, z'
loop_
 _atom_site_type_symbol
 _atom_site_label
 _atom_site_symmetry_multiplicity
 _atom_site_fract_x
 _atom_site_fract_y
 _atom_site_fract_z
 _atom_site_occupancy
  Sr  Sr0  1  0.40021600  0.19973500  0.39934200  1
  Sr  Sr1  1  0.90005100  0.19974200  0.39936100  1
  Sr  Sr2  1  0.30047400  0.39913700  0.80042900  1
  Sr  Sr3  1  0.80034100  0.39922200  0.80042000  1
  Sr  Sr4  1  0.19985600  0.60034300  0.19966900  1
  Sr  Sr5  1  0.69976900  0.60042000  0.19963600  1
  Sr  Sr6  1  0.09982200  0.80044600  0.60066800  1
  Sr  Sr7  1  0.59974000  0.80046800  0.60071800  1
  Ca  Ca0  1  0.49992000  0.00023700  0.99983100  1
  Ca  Ca1  1  0.99985900  0.00023800  0.99985100  1
  Fe  Fe0  1  0.99996300  0.49997900  0.50001800  1
  Fe  Fe1  1  0.49996900  0.50006100  0.50008800  1
  Fe  Fe2  1  0.89922400  0.70165900  0.90057800  1
  Fe  Fe3  1  0.39905500  0.70159400  0.90074900  1
  Fe  Fe4  1  0.79976500  0.90050900  0.29833400  1
  Fe  Fe5  1  0.29976400  0.90064500  0.29841400  1
  Fe  Fe6  1  0.20032000  0.09936200  0.70154500  1
  Fe  Fe7  1  0.70023000  0.09937600  0.70164200  1
  Fe  Fe8  1  0.10073700  0.29843500  0.09940600  1
  Fe  Fe9  1  0.60085400  0.29841800  0.09936700  1
  O  O0  1  0.24992200  0.50005400  0.50001700  1
  O  O1  1  0.75000500  0.50006900  0.50007500  1
  O  O2  1  0.24999100  0.00004100  0.49996200  1
  O  O3  1  0.75002800  0.99994100  0.49998600  1
  O  O4  1  0.00001500  0.49999000  0.99999100  1
  O  O5  1  0.50000400  0.49997800  0.99999400  1
  O  O6  1  0.14769900  0.70465200  0.90181900  1
  O  O7  1  0.64766000  0.70466600  0.90175800  1
  O  O8  1  0.04915500  0.90173200  0.29524200  1
  O  O9  1  0.54916600  0.90172200  0.29522500  1
  O  O10  1  0.45087100  0.09822100  0.70466900  1
  O  O11  1  0.95088700  0.09820700  0.70465000  1
  O  O12  1  0.35235200  0.29532300  0.09829800  1
  O  O13  1  0.85231400  0.29533400  0.09823400  1
  O  O14  1  0.05083400  0.39828600  0.29928800  1
  O  O15  1  0.55086400  0.39836400  0.29930300  1
  O  O16  1  0.94916500  0.60172500  0.70076200  1
  O  O17  1  0.44909100  0.60171500  0.70075600  1
  O  O18  1  0.89969600  0.70061100  0.39827700  1
  O  O19  1  0.39963500  0.70070800  0.39830300  1
  O  O20  1  0.10030800  0.29937800  0.60172000  1
  O  O21  1  0.60034400  0.29934500  0.60169600  1
  O  O22  1  0.84821500  0.80358100  0.09777600  1
  O  O23  1  0.34818800  0.80361900  0.09783400  1
  O  O24  1  0.15181800  0.19637300  0.90215300  1
  O  O25  1  0.65182300  0.19635600  0.90217000  1
  O  O26  1  0.79900800  0.90208300  0.80368300  1
  O  O27  1  0.29894600  0.90208600  0.80364400  1
  O  O28  1  0.20101600  0.09789800  0.19630500  1
  O  O29  1  0.70105200  0.09791800  0.19634200  1
loop_
_geom_bond_atom_site_label_1
_geom_bond_atom_site_label_2
_geom_bond_distance
_geom_bond_site_symmetry_2
Ca0 O10 2.710293 1_555
Ca0 O9 2.713672 1_546
Ca0 O12 2.713742 1_556
Ca0 O7 2.716671 1_545
Ca0 O24 2.731257 1_555
Ca0 O25 2.731440 1_555
Ca0 O27 2.733104 1_545
Ca0 O29 2.733160 1_556
Ca0 O26 2.733339 1_545
Ca0 O28 2.734122 1_556
Ca0 O22 2.734449 1_546
Ca0 O23 2.735534 1_546
Ca1 O11 2.710575 1_555
Ca1 O13 2.713593 1_556
Ca1 O8 2.713623 1_646
Ca1 O6 2.716682 1_645
Ca1 O25 2.730848 1_555
Ca1 O24 2.731985 1_655
Ca1 O26 2.732337 1_545
Ca1 O28 2.732872 1_656
Ca1 O27 2.733655 1_645
Ca1 O29 2.733673 1_556
Ca1 O23 2.734643 1_646
Ca1 O22 2.735153 1_546
Fe0 O1 1.951550 1_555
Fe0 O0 1.952202 1_655
Fe0 O20 1.960889 1_655
Fe0 O18 1.961283 1_555
Fe0 O14 1.962116 1_655
Fe0 O16 1.962434 1_555
Fe1 O1 1.952541 1_555
Fe1 O0 1.952623 1_555
Fe1 O21 1.961414 1_555
Fe1 O17 1.961480 1_555
Fe1 O19 1.961573 1_555
Fe1 O15 1.962560 1_555
Fe2 O22 1.935625 1_556
Fe2 O26 1.940945 1_555
Fe2 O16 1.948091 1_555
Fe2 O6 1.952211 1_655
Fe2 O7 1.952905 1_555
Fe2 O4 1.960315 1_655
Fe3 O23 1.935163 1_556
Fe3 O27 1.942275 1_555
Fe3 O17 1.949256 1_555
Fe3 O6 1.951082 1_555
Fe3 O7 1.953534 1_555
Fe3 O5 1.959255 1_555
Fe4 O29 1.937252 1_565
Fe4 O22 1.942305 1_555
Fe4 O18 1.948529 1_555
Fe4 O9 1.952377 1_555
Fe4 O8 1.952466 1_655
Fe4 O3 1.960471 1_555
Fe5 O28 1.936511 1_565
Fe5 O23 1.942850 1_555
Fe5 O19 1.948623 1_555
Fe5 O9 1.951995 1_555
Fe5 O8 1.952949 1_555
Fe5 O2 1.959520 1_565
Fe6 O27 1.936649 1_545
Fe6 O24 1.943013 1_555
Fe6 O20 1.948991 1_555
Fe6 O10 1.952282 1_555
Fe6 O11 1.952535 1_455
Fe6 O2 1.959503 1_555
Fe7 O26 1.936549 1_545
Fe7 O25 1.942267 1_555
Fe7 O21 1.949095 1_555
Fe7 O10 1.951947 1_555
Fe7 O11 1.952988 1_555
Fe7 O3 1.960514 1_545
Fe8 O24 1.936612 1_554
Fe8 O28 1.941847 1_555
Fe8 O14 1.948281 1_555
Fe8 O13 1.952236 1_455
Fe8 O12 1.952902 1_555
Fe8 O4 1.959431 1_554
Fe9 O25 1.936179 1_554
Fe9 O29 1.941845 1_555
Fe9 O15 1.949073 1_555
Fe9 O13 1.951799 1_555
Fe9 O12 1.952825 1_555
Fe9 O5 1.959308 1_554
O0 Sr4 2.759519 1_555
O0 Sr2 2.761785 1_555
O0 Sr0 2.763145 1_555
O0 Sr6 2.763683 1_555
O1 Sr5 2.760442 1_555
O1 Sr3 2.761038 1_555
O1 Sr1 2.763320 1_555
O1 Sr7 2.763718 1_555
O2 Sr7 2.758134 1_545
O2 Sr6 2.758871 1_545
O2 Sr1 2.759111 1_455
O2 Sr0 2.759760 1_555
O3 Sr6 2.757964 1_655
O3 Sr7 2.758592 1_555
O3 Sr0 2.758778 1_565
O3 Sr1 2.759543 1_565
O4 Sr4 2.758111 1_556
O4 Sr5 2.758876 1_456
O4 Sr3 2.758900 1_455
O4 Sr2 2.759603 1_555
O5 Sr5 2.757986 1_556
O5 Sr2 2.758476 1_555
O5 Sr4 2.758499 1_556
O5 Sr3 2.758993 1_555
O6 Sr4 2.750254 1_556
O6 Sr6 2.754037 1_555
O6 Sr2 2.808117 1_555
O7 Sr5 2.750303 1_556
O7 Sr7 2.753136 1_555
O7 Sr3 2.807386 1_555
O8 Sr1 2.753821 1_465
O8 Sr4 2.758213 1_555
O8 Sr6 2.804253 1_555
O9 Sr0 2.753840 1_565
O9 Sr5 2.757532 1_555
O9 Sr7 2.804719 1_555
O10 Sr7 2.751221 1_545
O10 Sr2 2.754774 1_555
O10 Sr0 2.804060 1_555
O11 Sr6 2.751376 1_645
O11 Sr3 2.755624 1_555
O11 Sr1 2.803803 1_555
O12 Sr2 2.748988 1_554
O12 Sr0 2.752604 1_555
O12 Sr4 2.803967 1_555
O13 Sr3 2.748748 1_554
O13 Sr1 2.753305 1_555
O13 Sr5 2.804598 1_555
O14 Sr0 2.751376 1_555
O14 Sr1 2.751834 1_455
O14 Sr5 2.769448 1_455
O14 Sr4 2.769949 1_555
O15 Sr1 2.750499 1_555
O15 Sr0 2.751694 1_555
O15 Sr4 2.768652 1_555
O15 Sr5 2.769427 1_555
O16 Sr7 2.752108 1_555
O16 Sr6 2.752656 1_655
O16 Sr2 2.772104 1_655
O16 Sr3 2.772669 1_555
O17 Sr6 2.751333 1_555
O17 Sr7 2.752721 1_555
O17 Sr3 2.771505 1_555
O17 Sr2 2.772194 1_555
O18 Sr5 2.751995 1_555
O18 Sr4 2.752703 1_655
O18 Sr6 2.771810 1_655
O18 Sr7 2.772727 1_555
O19 Sr4 2.752102 1_555
O19 Sr5 2.752883 1_555
O19 Sr7 2.771416 1_555
O19 Sr6 2.771520 1_555
O20 Sr2 2.751299 1_555
O20 Sr3 2.752139 1_455
O20 Sr1 2.771260 1_455
O20 Sr0 2.772116 1_555
O21 Sr3 2.751098 1_555
O21 Sr2 2.751783 1_555
O21 Sr0 2.770380 1_555
O21 Sr1 2.770772 1_555
O22 Sr4 2.781878 1_655
O22 Sr5 2.782119 1_555
O23 Sr5 2.781187 1_555
O23 Sr4 2.782379 1_555
O24 Sr3 2.779441 1_455
O24 Sr2 2.779601 1_555
O25 Sr2 2.778570 1_555
O25 Sr3 2.779762 1_555
O26 Sr7 2.780092 1_555
O26 Sr6 2.780657 1_655
O27 Sr6 2.779501 1_555
O27 Sr7 2.780052 1_555
O28 Sr0 2.781346 1_555
O28 Sr1 2.781722 1_455
O29 Sr1 2.780072 1_555
O29 Sr0 2.780702 1_555
