# generated using pymatgen
data_Pr3Zr
_symmetry_space_group_name_H-M   'P 1'
_cell_length_a   7.16879424
_cell_length_b   7.16879424
_cell_length_c   5.86259700
_cell_angle_alpha   90.00000000
_cell_angle_beta   90.00000000
_cell_angle_gamma   120.00000225
_symmetry_Int_Tables_number   1
_chemical_formula_structural   Pr3Zr
_chemical_formula_sum   'Pr6 Zr2'
_cell_volume   260.92331916
_cell_formula_units_Z   2
loop_
 _symmetry_equiv_pos_site_id
 _symmetry_equiv_pos_as_xyz
  1  'x, y, z'
loop_
 _atom_site_type_symbol
 _atom_site_label
 _atom_site_symmetry_multiplicity
 _atom_site_fract_x
 _atom_site_fract_y
 _atom_site_fract_z
 _atom_site_occupancy
  Pr  Pr0  1  0.17212300  0.34424600  0.25000000  1
  Pr  Pr1  1  0.65575400  0.82787700  0.25000000  1
  Pr  Pr2  1  0.17212300  0.82787700  0.25000000  1
  Pr  Pr3  1  0.82787700  0.65575400  0.75000000  1
  Pr  Pr4  1  0.34424600  0.17212300  0.75000000  1
  Pr  Pr5  1  0.82787700  0.17212300  0.75000000  1
  Zr  Zr0  1  0.33333300  0.66666700  0.75000000  1
  Zr  Zr1  1  0.66666700  0.33333300  0.25000000  1
loop_
_geom_bond_atom_site_label_1
_geom_bond_atom_site_label_2
_geom_bond_distance
_geom_bond_site_symmetry_2
Pr0 Pr1 3.467051 1_555
Pr0 Pr2 3.467051 1_555
Pr0 Zr0 3.549554 1_554
Pr0 Zr0 3.549554 1_555
Pr0 Zr1 3.585034 1_455
Pr0 Zr1 3.585041 1_555
Pr0 Pr5 3.627691 1_455
Pr0 Pr5 3.627691 1_454
Pr0 Pr4 3.627691 1_555
Pr0 Pr4 3.627691 1_554
Pr0 Pr1 3.701743 1_445
Pr0 Pr2 3.701743 1_545
Pr1 Pr2 3.467051 1_555
Pr1 Zr0 3.549554 1_554
Pr1 Zr0 3.549554 1_555
Pr1 Zr1 3.585034 1_565
Pr1 Zr1 3.585041 1_555
Pr1 Pr5 3.627691 1_565
Pr1 Pr5 3.627691 1_564
Pr1 Pr3 3.627691 1_555
Pr1 Pr3 3.627691 1_554
Pr1 Pr2 3.701743 1_655
Pr2 Zr0 3.549551 1_554
Pr2 Zr0 3.549551 1_555
Pr2 Zr1 3.585037 1_455
Pr2 Zr1 3.585037 1_565
Pr2 Pr3 3.627691 1_454
Pr2 Pr3 3.627691 1_455
Pr2 Pr4 3.627691 1_565
Pr2 Pr4 3.627691 1_564
Pr3 Pr4 3.467051 1_555
Pr3 Pr5 3.467051 1_555
Pr3 Zr1 3.549554 1_555
Pr3 Zr1 3.549554 1_556
Pr3 Zr0 3.585034 1_655
Pr3 Zr0 3.585041 1_555
Pr3 Pr4 3.701743 1_665
Pr3 Pr5 3.701743 1_565
Pr4 Pr5 3.467051 1_555
Pr4 Zr1 3.549554 1_555
Pr4 Zr1 3.549554 1_556
Pr4 Zr0 3.585034 1_545
Pr4 Zr0 3.585041 1_555
Pr4 Pr5 3.701743 1_455
Pr5 Zr1 3.549551 1_555
Pr5 Zr1 3.549551 1_556
Pr5 Zr0 3.585037 1_545
Pr5 Zr0 3.585037 1_655
