# generated using pymatgen
data_Mg14TiFe
_symmetry_space_group_name_H-M   'P 1'
_cell_length_a   6.29915112
_cell_length_b   6.29915062
_cell_length_c   9.96745492
_cell_angle_alpha   90.00000000
_cell_angle_beta   90.00000000
_cell_angle_gamma   120.00000260
_symmetry_Int_Tables_number   1
_chemical_formula_structural   Mg14TiFe
_chemical_formula_sum   'Mg14 Ti1 Fe1'
_cell_volume   342.51446808
_cell_formula_units_Z   1
loop_
 _symmetry_equiv_pos_site_id
 _symmetry_equiv_pos_as_xyz
  1  'x, y, z'
loop_
 _atom_site_type_symbol
 _atom_site_label
 _atom_site_symmetry_multiplicity
 _atom_site_fract_x
 _atom_site_fract_y
 _atom_site_fract_z
 _atom_site_occupancy
  Mg  Mg0  1  0.16535397  0.83267649  0.12500000  1
  Mg  Mg1  1  0.17164538  0.83582219  0.62500000  1
  Mg  Mg2  1  0.66732351  0.33464603  0.12500000  1
  Mg  Mg3  1  0.66417781  0.32835462  0.62500000  1
  Mg  Mg4  1  0.66732351  0.83267649  0.12500000  1
  Mg  Mg5  1  0.66417781  0.83582219  0.62500000  1
  Mg  Mg6  1  0.32623204  0.17376796  0.36976801  1
  Mg  Mg7  1  0.32623204  0.17376796  0.88023199  1
  Mg  Mg8  1  0.32623204  0.65246507  0.36976801  1
  Mg  Mg9  1  0.32623204  0.65246507  0.88023199  1
  Mg  Mg10  1  0.84753493  0.17376796  0.36976801  1
  Mg  Mg11  1  0.84753493  0.17376796  0.88023199  1
  Mg  Mg12  1  0.83333300  0.66666700  0.37857494  1
  Mg  Mg13  1  0.83333300  0.66666700  0.87142506  1
  Ti  Ti0  1  0.16666700  0.33333300  0.62500000  1
  Fe  Fe0  1  0.16666700  0.33333300  0.12500000  1
loop_
_geom_bond_atom_site_label_1
_geom_bond_atom_site_label_2
_geom_bond_distance
_geom_bond_site_symmetry_2
Mg0 Mg8 3.068907 1_555
Mg0 Mg9 3.068907 1_554
Mg0 Mg7 3.068914 1_564
Mg0 Mg6 3.068914 1_565
Mg0 Mg13 3.109480 1_454
Mg0 Mg12 3.109480 1_455
Mg0 Mg2 3.137169 1_455
Mg0 Mg4 3.137169 1_455
Mg0 Mg2 3.161982 1_565
Mg0 Mg4 3.161982 1_555
Mg1 Mg13 3.072328 1_455
Mg1 Mg12 3.072328 1_455
Mg1 Mg3 3.102536 1_565
Mg1 Mg5 3.102536 1_555
Mg1 Mg9 3.143076 1_555
Mg1 Mg8 3.143076 1_555
Mg1 Mg7 3.143082 1_565
Mg1 Mg6 3.143082 1_565
Mg1 Ti0 3.149692 1_555
Mg1 Ti0 3.149692 1_565
Mg1 Mg3 3.196615 1_455
Mg1 Mg5 3.196615 1_455
Mg2 Mg6 3.068914 1_555
Mg2 Mg7 3.068914 1_554
Mg2 Mg4 3.137169 1_555
Mg2 Mg4 3.161982 1_545
Mg3 Mg5 3.102536 1_545
Mg3 Mg7 3.143082 1_555
Mg3 Mg6 3.143082 1_555
Mg3 Ti0 3.149693 1_655
Mg3 Ti0 3.149693 1_555
Mg3 Mg5 3.196615 1_555
Mg4 Mg8 3.068914 1_555
Mg4 Mg9 3.068914 1_554
Mg5 Mg9 3.143082 1_555
Mg5 Mg8 3.143082 1_555
Mg5 Ti0 3.149692 1_555
Mg5 Ti0 3.149692 1_665
Mg6 Mg8 3.015385 1_555
Mg6 Ti0 3.082666 1_555
Mg6 Mg8 3.283765 1_545
Mg7 Mg9 3.015385 1_555
Mg7 Ti0 3.082666 1_555
Mg7 Mg9 3.283765 1_545
Mg8 Ti0 3.082672 1_555
Mg9 Ti0 3.082672 1_555
Mg10 Mg8 3.015385 1_655
Mg10 Mg6 3.015385 1_655
Mg10 Mg2 3.068907 1_555
Mg10 Mg4 3.068913 1_545
Mg10 Ti0 3.082672 1_655
Mg10 Mg3 3.143076 1_555
Mg10 Mg5 3.143082 1_545
Mg10 Mg12 3.151751 1_545
Mg10 Mg12 3.151751 1_555
Mg10 Mg8 3.283765 1_545
Mg10 Mg6 3.283766 1_555
Mg11 Mg9 3.015385 1_655
Mg11 Mg7 3.015385 1_655
Mg11 Mg2 3.068907 1_556
Mg11 Mg4 3.068913 1_546
Mg11 Ti0 3.082672 1_655
Mg11 Mg3 3.143076 1_555
Mg11 Mg5 3.143082 1_545
Mg11 Mg13 3.151751 1_545
Mg11 Mg13 3.151751 1_555
Mg11 Mg9 3.283765 1_545
Mg11 Mg7 3.283766 1_555
Mg12 Mg5 3.072321 1_555
Mg12 Mg3 3.072328 1_555
Mg12 Mg4 3.109473 1_555
Mg12 Mg2 3.109479 1_555
Mg12 Mg6 3.151751 1_665
Mg12 Mg6 3.151751 1_555
Mg12 Mg8 3.151751 1_555
Mg12 Mg8 3.151751 1_655
Mg13 Mg5 3.072321 1_555
Mg13 Mg3 3.072328 1_555
Mg13 Mg4 3.109473 1_556
Mg13 Mg2 3.109479 1_556
Mg13 Mg7 3.151751 1_665
Mg13 Mg7 3.151751 1_555
Mg13 Mg9 3.151751 1_555
Mg13 Mg9 3.151751 1_655
Fe0 Mg6 2.997170 1_555
Fe0 Mg7 2.997170 1_554
Fe0 Mg8 2.997176 1_555
Fe0 Mg9 2.997176 1_554
Fe0 Mg10 2.997177 1_455
Fe0 Mg11 2.997177 1_454
Fe0 Mg0 3.149583 1_545
Fe0 Mg4 3.149583 1_445
Fe0 Mg4 3.149583 1_555
Fe0 Mg0 3.149583 1_555
Fe0 Mg2 3.149584 1_555
Fe0 Mg2 3.149584 1_455
