# generated using pymatgen
data_MnZnN2
_symmetry_space_group_name_H-M   'P 1'
_cell_length_a   5.44028300
_cell_length_b   6.26870900
_cell_length_c   5.22342600
_cell_angle_alpha   90.00000000
_cell_angle_beta   90.00000000
_cell_angle_gamma   90.00000000
_symmetry_Int_Tables_number   1
_chemical_formula_structural   MnZnN2
_chemical_formula_sum   'Mn4 Zn4 N8'
_cell_volume   178.13737501
_cell_formula_units_Z   4
loop_
 _symmetry_equiv_pos_site_id
 _symmetry_equiv_pos_as_xyz
  1  'x, y, z'
loop_
 _atom_site_type_symbol
 _atom_site_label
 _atom_site_symmetry_multiplicity
 _atom_site_fract_x
 _atom_site_fract_y
 _atom_site_fract_z
 _atom_site_occupancy
  Mn  Mn0  1  0.57214300  0.87431400  0.00558200  1
  Mn  Mn1  1  0.42785700  0.12568600  0.50558200  1
  Mn  Mn2  1  0.92785700  0.37431400  0.50558200  1
  Mn  Mn3  1  0.07214300  0.62568600  0.00558200  1
  Zn  Zn0  1  0.58745800  0.38021500  0.01019300  1
  Zn  Zn1  1  0.41254200  0.61978500  0.51019300  1
  Zn  Zn2  1  0.91254200  0.88021500  0.51019300  1
  Zn  Zn3  1  0.08745800  0.11978500  0.01019300  1
  N  N0  1  0.60832500  0.35538700  0.40140400  1
  N  N1  1  0.39167500  0.64461300  0.90140400  1
  N  N2  1  0.89167500  0.85538700  0.90140400  1
  N  N3  1  0.10832500  0.14461300  0.40140400  1
  N  N4  1  0.56327600  0.89210200  0.35282100  1
  N  N5  1  0.43672400  0.10789800  0.85282100  1
  N  N6  1  0.93672400  0.39210200  0.85282100  1
  N  N7  1  0.06327600  0.60789800  0.35282100  1
loop_
_geom_bond_atom_site_label_1
_geom_bond_atom_site_label_2
_geom_bond_distance
_geom_bond_site_symmetry_2
Mn0 N4 1.817842 1_555
Mn0 N5 1.823058 1_564
Mn0 N2 1.825386 1_554
Mn0 N1 1.825770 1_554
Mn1 N5 1.817842 1_555
Mn1 N4 1.823058 1_545
Mn1 N3 1.825386 1_555
Mn1 N0 1.825770 1_555
Mn2 N6 1.817842 1_555
Mn2 N7 1.823058 1_655
Mn2 N0 1.825386 1_555
Mn2 N3 1.825770 1_655
Mn3 N7 1.817842 1_555
Mn3 N6 1.823058 1_454
Mn3 N1 1.825386 1_554
Mn3 N2 1.825770 1_454
N0 Zn1 2.050480 1_555
N0 Zn0 2.052522 1_555
N1 Zn0 2.050480 1_556
N1 Zn1 2.052522 1_555
N2 Zn3 2.050480 1_666
N2 Zn2 2.052522 1_555
N3 Zn2 2.050480 1_445
N3 Zn3 2.052522 1_555
N4 Zn1 2.064530 1_555
N4 Zn2 2.071635 1_555
N5 Zn0 2.064530 1_556
N5 Zn3 2.071635 1_556
N6 Zn3 2.064530 1_656
N6 Zn0 2.071635 1_556
N7 Zn2 2.064530 1_455
N7 Zn1 2.071635 1_555
