# generated using pymatgen
data_YBi2NO7
_symmetry_space_group_name_H-M   'P 1'
_cell_length_a   3.93399879
_cell_length_b   3.93399879
_cell_length_c   10.47929226
_cell_angle_alpha   87.61581412
_cell_angle_beta   87.61581412
_cell_angle_gamma   89.95452188
_symmetry_Int_Tables_number   1
_chemical_formula_structural   YBi2NO7
_chemical_formula_sum   'Y1 Bi2 N1 O7'
_cell_volume   161.90042354
_cell_formula_units_Z   1
loop_
 _symmetry_equiv_pos_site_id
 _symmetry_equiv_pos_as_xyz
  1  'x, y, z'
loop_
 _atom_site_type_symbol
 _atom_site_label
 _atom_site_symmetry_multiplicity
 _atom_site_fract_x
 _atom_site_fract_y
 _atom_site_fract_z
 _atom_site_occupancy
  Y  Y0  1  0.00489400  0.00489400  0.98883900  1
  Bi  Bi0  1  0.48005200  0.48005200  0.23075600  1
  Bi  Bi1  1  0.52529300  0.52529300  0.75227700  1
  N  N0  1  0.93756200  0.93756200  0.49203900  1
  O  O0  1  0.97502900  0.97502900  0.37798200  1
  O  O1  1  0.99322000  0.49275700  0.12761600  1
  O  O2  1  0.49275700  0.99322000  0.12761600  1
  O  O3  1  0.01678300  0.51885400  0.86223400  1
  O  O4  1  0.51885400  0.01678300  0.86223400  1
  O  O5  1  0.03745400  0.30210100  0.56920400  1
  O  O6  1  0.30210100  0.03745400  0.56920400  1
loop_
_geom_bond_atom_site_label_1
_geom_bond_atom_site_label_2
_geom_bond_distance
_geom_bond_site_symmetry_2
Bi0 O1 2.237466 1_455
Bi0 O2 2.237466 1_545
Bi0 O1 2.249531 1_555
Bi0 O2 2.249531 1_555
Bi1 O3 2.266308 1_555
Bi1 O4 2.266308 1_555
Bi1 O3 2.291230 1_655
Bi1 O4 2.291230 1_565
N0 O0 1.201150 1_555
N0 O5 1.728805 1_665
N0 O6 1.728805 1_665
O1 Y0 2.434557 1_664
O1 Y0 2.455017 1_654
O2 Y0 2.434557 1_664
O2 Y0 2.455017 1_564
O3 Y0 2.371151 1_555
O3 Y0 2.371542 1_565
O4 Y0 2.371151 1_555
O4 Y0 2.371542 1_655
O5 O6 1.471783 1_555
