# generated using pymatgen
data_Tl3In
_symmetry_space_group_name_H-M   'P 1'
_cell_length_a   6.70590110
_cell_length_b   6.70590110
_cell_length_c   21.97931424
_cell_angle_alpha   90.00000000
_cell_angle_beta   90.00000000
_cell_angle_gamma   108.96699024
_symmetry_Int_Tables_number   1
_chemical_formula_structural   Tl3In
_chemical_formula_sum   'Tl24 In8'
_cell_volume   934.72652085
_cell_formula_units_Z   8
loop_
 _symmetry_equiv_pos_site_id
 _symmetry_equiv_pos_as_xyz
  1  'x, y, z'
loop_
 _atom_site_type_symbol
 _atom_site_label
 _atom_site_symmetry_multiplicity
 _atom_site_fract_x
 _atom_site_fract_y
 _atom_site_fract_z
 _atom_site_occupancy
  Tl  Tl0_0  1  0.25000000  0.25000000  0.37952003  1
  Tl  Tl0_1  1  0.25000000  0.25000000  0.87952003  1
  Tl  Tl0_2  1  0.25000000  0.75000000  0.37952003  1
  Tl  Tl0_3  1  0.25000000  0.75000000  0.87952003  1
  Tl  Tl0_4  1  0.75000000  0.25000000  0.37952003  1
  Tl  Tl0_5  1  0.75000000  0.25000000  0.87952003  1
  Tl  Tl0_6  1  0.75000000  0.75000000  0.37952003  1
  Tl  Tl0_7  1  0.75000000  0.75000000  0.87952003  1
  Tl  Tl1_0  1  0.00000000  0.00000000  0.25000000  1
  Tl  Tl1_1  1  0.00000000  0.00000000  0.75000000  1
  Tl  Tl1_2  1  0.00000000  0.50000000  0.25000000  1
  Tl  Tl1_3  1  0.00000000  0.50000000  0.75000000  1
  Tl  Tl1_4  1  0.50000000  0.00000000  0.25000000  1
  Tl  Tl1_5  1  0.50000000  0.00000000  0.75000000  1
  Tl  Tl1_6  1  0.50000000  0.50000000  0.25000000  1
  Tl  Tl1_7  1  0.50000000  0.50000000  0.75000000  1
  Tl  Tl2_0  1  0.25000000  0.25000000  0.12047997  1
  Tl  Tl2_1  1  0.25000000  0.25000000  0.62047997  1
  Tl  Tl2_2  1  0.25000000  0.75000000  0.12047997  1
  Tl  Tl2_3  1  0.25000000  0.75000000  0.62047997  1
  Tl  Tl2_4  1  0.75000000  0.25000000  0.12047997  1
  Tl  Tl2_5  1  0.75000000  0.25000000  0.62047997  1
  Tl  Tl2_6  1  0.75000000  0.75000000  0.12047997  1
  Tl  Tl2_7  1  0.75000000  0.75000000  0.62047997  1
  In  In0_0  1  0.00000000  0.00000000  0.00000000  1
  In  In0_1  1  0.00000000  0.00000000  0.50000000  1
  In  In0_2  1  0.00000000  0.50000000  0.00000000  1
  In  In0_3  1  0.00000000  0.50000000  0.50000000  1
  In  In0_4  1  0.50000000  0.00000000  0.00000000  1
  In  In0_5  1  0.50000000  0.00000000  0.50000000  1
  In  In0_6  1  0.50000000  0.50000000  0.00000000  1
  In  In0_7  1  0.50000000  0.50000000  0.50000000  1
loop_
_geom_bond_atom_site_label_1
_geom_bond_atom_site_label_2
_geom_bond_distance
_geom_bond_site_symmetry_2
Tl0_0 Tl0_2 3.352951 1_545
Tl0_0 Tl0_4 3.352951 1_455
Tl0_0 Tl0_2 3.352951 1_555
Tl0_0 Tl0_4 3.352951 1_555
Tl0_0 Tl1_0 3.449375 1_555
Tl0_0 Tl1_6 3.449375 1_555
Tl0_1 Tl0_5 3.352951 1_555
Tl0_1 Tl0_3 3.352951 1_555
Tl0_1 Tl0_5 3.352951 1_455
Tl0_1 Tl0_3 3.352951 1_545
Tl0_1 Tl1_7 3.449375 1_555
Tl0_1 Tl1_1 3.449375 1_555
Tl0_2 Tl0_6 3.352951 1_455
Tl0_2 Tl0_6 3.352951 1_555
Tl0_2 Tl1_4 3.449375 1_565
Tl0_2 Tl1_2 3.449375 1_555
Tl0_3 Tl0_7 3.352951 1_455
Tl0_3 Tl0_7 3.352951 1_555
Tl0_3 Tl1_3 3.449375 1_555
Tl0_3 Tl1_5 3.449375 1_565
Tl0_4 Tl0_6 3.352951 1_545
Tl0_4 Tl0_6 3.352951 1_555
Tl0_4 Tl1_4 3.449375 1_555
Tl0_4 Tl1_2 3.449375 1_655
Tl0_5 Tl0_7 3.352951 1_545
Tl0_5 Tl0_7 3.352951 1_555
Tl0_5 Tl1_3 3.449375 1_655
Tl0_5 Tl1_5 3.449375 1_555
Tl0_6 Tl1_0 3.449375 1_665
Tl0_6 Tl1_6 3.449375 1_555
Tl0_7 Tl1_1 3.449375 1_665
Tl0_7 Tl1_7 3.449375 1_555
Tl1_0 Tl1_2 3.352951 1_545
Tl1_0 Tl1_2 3.352951 1_555
Tl1_0 Tl1_4 3.352951 1_455
Tl1_0 Tl1_4 3.352951 1_555
Tl1_0 Tl2_6 3.449375 1_445
Tl1_0 Tl2_0 3.449375 1_555
Tl1_1 Tl1_5 3.352951 1_555
Tl1_1 Tl1_3 3.352951 1_555
Tl1_1 Tl1_3 3.352951 1_545
Tl1_1 Tl1_5 3.352951 1_455
Tl1_1 Tl2_7 3.449375 1_445
Tl1_1 Tl2_1 3.449375 1_555
Tl1_2 Tl1_6 3.352951 1_555
Tl1_2 Tl1_6 3.352951 1_455
Tl1_2 Tl2_2 3.449375 1_555
Tl1_2 Tl2_4 3.449375 1_455
Tl1_3 Tl1_7 3.352951 1_555
Tl1_3 Tl1_7 3.352951 1_455
Tl1_3 Tl2_5 3.449375 1_455
Tl1_3 Tl2_3 3.449375 1_555
Tl1_4 Tl1_6 3.352951 1_555
Tl1_4 Tl1_6 3.352951 1_545
Tl1_4 Tl2_4 3.449375 1_555
Tl1_4 Tl2_2 3.449375 1_545
Tl1_5 Tl1_7 3.352951 1_555
Tl1_5 Tl1_7 3.352951 1_545
Tl1_5 Tl2_3 3.449375 1_545
Tl1_5 Tl2_5 3.449375 1_555
Tl1_6 Tl2_0 3.449375 1_555
Tl1_6 Tl2_6 3.449375 1_555
Tl1_7 Tl2_1 3.449375 1_555
Tl1_7 Tl2_7 3.449375 1_555
Tl2_0 Tl2_2 3.352951 1_545
Tl2_0 Tl2_2 3.352951 1_555
Tl2_0 Tl2_4 3.352951 1_455
Tl2_0 Tl2_4 3.352951 1_555
Tl2_1 Tl2_5 3.352951 1_555
Tl2_1 Tl2_3 3.352951 1_545
Tl2_1 Tl2_5 3.352951 1_455
Tl2_1 Tl2_3 3.352951 1_555
Tl2_2 Tl2_6 3.352951 1_455
Tl2_2 Tl2_6 3.352951 1_555
Tl2_3 Tl2_7 3.352951 1_455
Tl2_3 Tl2_7 3.352951 1_555
Tl2_4 Tl2_6 3.352951 1_545
Tl2_4 Tl2_6 3.352951 1_555
Tl2_5 Tl2_7 3.352951 1_545
Tl2_5 Tl2_7 3.352951 1_555
In0_0 Tl2_6 3.287308 1_445
In0_0 Tl2_0 3.287308 1_555
In0_0 Tl0_7 3.287308 1_444
In0_0 Tl0_1 3.287308 1_554
In0_0 In0_2 3.352951 1_545
In0_0 In0_2 3.352951 1_555
In0_0 In0_4 3.352951 1_455
In0_0 In0_4 3.352951 1_555
In0_1 Tl2_7 3.287308 1_445
In0_1 Tl0_6 3.287308 1_445
In0_1 Tl0_0 3.287308 1_555
In0_1 Tl2_1 3.287308 1_555
In0_1 In0_3 3.352951 1_555
In0_1 In0_3 3.352951 1_545
In0_1 In0_5 3.352951 1_455
In0_1 In0_5 3.352951 1_555
In0_2 Tl2_2 3.287308 1_555
In0_2 Tl2_4 3.287308 1_455
In0_2 Tl0_3 3.287308 1_554
In0_2 Tl0_5 3.287308 1_454
In0_2 In0_6 3.352951 1_455
In0_2 In0_6 3.352951 1_555
In0_3 Tl2_5 3.287308 1_455
In0_3 Tl2_3 3.287308 1_555
In0_3 Tl0_4 3.287308 1_455
In0_3 Tl0_2 3.287308 1_555
In0_3 In0_7 3.352951 1_455
In0_3 In0_7 3.352951 1_555
In0_4 Tl2_2 3.287308 1_545
In0_4 Tl2_4 3.287308 1_555
In0_4 Tl0_5 3.287308 1_554
In0_4 Tl0_3 3.287308 1_544
In0_4 In0_6 3.352951 1_555
In0_4 In0_6 3.352951 1_545
In0_5 Tl2_3 3.287308 1_545
In0_5 Tl0_4 3.287308 1_555
In0_5 Tl2_5 3.287308 1_555
In0_5 Tl0_2 3.287308 1_545
In0_5 In0_7 3.352951 1_545
In0_5 In0_7 3.352951 1_555
In0_6 Tl2_0 3.287308 1_555
In0_6 Tl2_6 3.287308 1_555
In0_6 Tl0_1 3.287308 1_554
In0_6 Tl0_7 3.287308 1_554
In0_7 Tl0_0 3.287308 1_555
In0_7 Tl2_1 3.287308 1_555
In0_7 Tl0_6 3.287308 1_555
In0_7 Tl2_7 3.287308 1_555
