# generated using pymatgen
data_Ni3(SeO4)2
_symmetry_space_group_name_H-M   'P 1'
_cell_length_a   4.82946600
_cell_length_b   12.97695578
_cell_length_c   12.97695578
_cell_angle_alpha   119.82578731
_cell_angle_beta   90.00000000
_cell_angle_gamma   90.00000000
_symmetry_Int_Tables_number   1
_chemical_formula_structural   Ni3(SeO4)2
_chemical_formula_sum   'Ni12 Se8 O32'
_cell_volume   705.56189315
_cell_formula_units_Z   4
loop_
 _symmetry_equiv_pos_site_id
 _symmetry_equiv_pos_as_xyz
  1  'x, y, z'
loop_
 _atom_site_type_symbol
 _atom_site_label
 _atom_site_symmetry_multiplicity
 _atom_site_fract_x
 _atom_site_fract_y
 _atom_site_fract_z
 _atom_site_occupancy
  Ni  Ni0  1  0.53027900  0.43223700  0.35737400  1
  Ni  Ni1  1  0.52976700  0.92236000  0.56770300  1
  Ni  Ni2  1  0.52993300  0.64465700  0.07737300  1
  Ni  Ni3  1  0.52993300  0.92262700  0.35534300  1
  Ni  Ni4  1  0.53027900  0.64262600  0.56776300  1
  Ni  Ni5  1  0.52976700  0.43229700  0.07764000  1
  Ni  Ni6  1  0.03027900  0.56776300  0.64262600  1
  Ni  Ni7  1  0.02976700  0.07764000  0.43229700  1
  Ni  Ni8  1  0.02993300  0.35534300  0.92262700  1
  Ni  Ni9  1  0.02993300  0.07737300  0.64465700  1
  Ni  Ni10  1  0.03027900  0.35737400  0.43223700  1
  Ni  Ni11  1  0.02976700  0.56770300  0.92236000  1
  Se  Se0  1  0.48323000  0.14649100  0.85350900  1
  Se  Se1  1  0.48301500  0.70677700  0.85282100  1
  Se  Se2  1  0.48301500  0.14717900  0.29322300  1
  Se  Se3  1  0.98323000  0.85350900  0.14649100  1
  Se  Se4  1  0.98301500  0.29322300  0.14717900  1
  Se  Se5  1  0.98301500  0.85282100  0.70677700  1
  Se  Se6  1  0.58326100  0.66559600  0.33440400  1
  Se  Se7  1  0.08326100  0.33440400  0.66559600  1
  O  O0  1  0.23937100  0.20451900  0.79548100  1
  O  O1  1  0.23769200  0.59131100  0.79505400  1
  O  O2  1  0.23769200  0.20494600  0.40868900  1
  O  O3  1  0.73937100  0.79548100  0.20451900  1
  O  O4  1  0.73769200  0.40868900  0.20494600  1
  O  O5  1  0.73769200  0.79505400  0.59131100  1
  O  O6  1  0.19112900  0.33151100  0.06178600  1
  O  O7  1  0.19247700  0.72998900  0.66828400  1
  O  O8  1  0.19174900  0.93834900  0.26942400  1
  O  O9  1  0.19174900  0.73057600  0.06165100  1
  O  O10  1  0.19112900  0.93821400  0.66848900  1
  O  O11  1  0.19247700  0.33171600  0.27001100  1
  O  O12  1  0.69112900  0.66848900  0.93821400  1
  O  O13  1  0.69247700  0.27001100  0.33171600  1
  O  O14  1  0.69174900  0.06165100  0.73057600  1
  O  O15  1  0.69174900  0.26942400  0.93834900  1
  O  O16  1  0.69112900  0.06178600  0.33151100  1
  O  O17  1  0.69247700  0.66828400  0.72998900  1
  O  O18  1  0.90009000  0.40114100  0.59885900  1
  O  O19  1  0.90372300  0.20045300  0.59958800  1
  O  O20  1  0.90372300  0.40041200  0.79954700  1
  O  O21  1  0.40009000  0.59885900  0.40114100  1
  O  O22  1  0.40372300  0.79954700  0.40041200  1
  O  O23  1  0.40372300  0.59958800  0.20045300  1
  O  O24  1  0.33693000  0.48012900  0.51987100  1
  O  O25  1  0.32522200  0.02885000  0.51429000  1
  O  O26  1  0.32522200  0.48571000  0.97115000  1
  O  O27  1  0.83693000  0.51987100  0.48012900  1
  O  O28  1  0.82522200  0.97115000  0.48571000  1
  O  O29  1  0.82522200  0.51429000  0.02885000  1
  O  O30  1  0.38854500  0.99997800  0.00002200  1
  O  O31  1  0.88854500  0.00002200  0.99997800  1
loop_
_geom_bond_atom_site_label_1
_geom_bond_atom_site_label_2
_geom_bond_distance
_geom_bond_site_symmetry_2
Ni0 O21 2.042451 1_555
Ni0 O11 2.043844 1_555
Ni0 O27 2.054773 1_555
Ni0 O24 2.097910 1_555
Ni0 O4 2.099569 1_555
Ni0 O13 2.111653 1_555
Ni1 O10 2.039588 1_555
Ni1 O22 2.044951 1_555
Ni1 O28 2.058921 1_555
Ni1 O25 2.078167 1_565
Ni1 O5 2.082045 1_555
Ni1 O14 2.132191 1_565
Ni2 O9 2.044152 1_555
Ni2 O23 2.047891 1_555
Ni2 O29 2.057339 1_555
Ni2 O26 2.074558 1_554
Ni2 O3 2.088993 1_555
Ni2 O12 2.125647 1_554
Ni3 O8 2.044152 1_555
Ni3 O22 2.047891 1_555
Ni3 O28 2.057339 1_555
Ni3 O25 2.074558 1_565
Ni3 O3 2.088993 1_555
Ni3 O16 2.125647 1_565
Ni4 O21 2.042451 1_555
Ni4 O7 2.043844 1_555
Ni4 O27 2.054773 1_555
Ni4 O24 2.097910 1_555
Ni4 O5 2.099569 1_555
Ni4 O17 2.111653 1_555
Ni5 O6 2.039588 1_555
Ni5 O23 2.044951 1_555
Ni5 O29 2.058921 1_555
Ni5 O26 2.078167 1_554
Ni5 O4 2.082045 1_555
Ni5 O15 2.132191 1_554
Ni6 O18 2.042451 1_455
Ni6 O17 2.043844 1_455
Ni6 O24 2.054773 1_555
Ni6 O27 2.097910 1_455
Ni6 O1 2.099569 1_555
Ni6 O7 2.111653 1_555
Ni7 O16 2.039588 1_455
Ni7 O19 2.044951 1_455
Ni7 O25 2.058921 1_555
Ni7 O28 2.078167 1_445
Ni7 O2 2.082045 1_555
Ni7 O8 2.132191 1_545
Ni8 O15 2.044152 1_455
Ni8 O20 2.047891 1_455
Ni8 O26 2.057339 1_555
Ni8 O29 2.074558 1_456
Ni8 O0 2.088993 1_555
Ni8 O6 2.125647 1_556
Ni9 O14 2.044152 1_455
Ni9 O19 2.047891 1_455
Ni9 O25 2.057339 1_555
Ni9 O28 2.074558 1_445
Ni9 O0 2.088993 1_555
Ni9 O10 2.125647 1_545
Ni10 O18 2.042451 1_455
Ni10 O13 2.043844 1_455
Ni10 O24 2.054773 1_555
Ni10 O27 2.097910 1_455
Ni10 O2 2.099569 1_555
Ni10 O11 2.111653 1_555
Ni11 O12 2.039588 1_455
Ni11 O20 2.044951 1_455
Ni11 O26 2.058921 1_555
Ni11 O29 2.078167 1_456
Ni11 O1 2.082045 1_555
Ni11 O9 2.132191 1_556
O0 Se0 1.756461 1_555
O1 Se1 1.758840 1_555
O2 Se2 1.758840 1_555
O3 Se3 1.756461 1_555
O4 Se4 1.758840 1_555
O5 Se5 1.758840 1_555
O6 Se4 1.741472 1_455
O7 Se5 1.738273 1_455
O8 Se3 1.738996 1_455
O9 Se3 1.738996 1_455
O10 Se5 1.741472 1_455
O11 Se4 1.738273 1_455
O12 Se1 1.741472 1_555
O13 Se2 1.738273 1_555
O14 Se0 1.738996 1_555
O15 Se0 1.738996 1_555
O16 Se2 1.741472 1_555
O17 Se1 1.738273 1_555
O18 Se7 1.740313 1_655
O19 Se7 1.739547 1_655
O20 Se7 1.739547 1_655
O21 Se6 1.740313 1_555
O22 Se6 1.739547 1_555
O23 Se6 1.739547 1_555
