# generated using pymatgen
data_SmH4(C3O4)2
_symmetry_space_group_name_H-M   'P 1'
_cell_length_a   16.98819700
_cell_length_b   7.01056000
_cell_length_c   7.14568368
_cell_angle_alpha   79.25314835
_cell_angle_beta   90.00000000
_cell_angle_gamma   90.00000000
_symmetry_Int_Tables_number   1
_chemical_formula_structural   SmH4(C3O4)2
_chemical_formula_sum   'Sm4 H16 C24 O32'
_cell_volume   836.10139717
_cell_formula_units_Z   4
loop_
 _symmetry_equiv_pos_site_id
 _symmetry_equiv_pos_as_xyz
  1  'x, y, z'
loop_
 _atom_site_type_symbol
 _atom_site_label
 _atom_site_symmetry_multiplicity
 _atom_site_fract_x
 _atom_site_fract_y
 _atom_site_fract_z
 _atom_site_occupancy
  Sm  Sm0  1  0.41986900  0.98889900  0.26011800  1
  Sm  Sm1  1  0.58013100  0.01110100  0.73988200  1
  Sm  Sm2  1  0.91986900  0.51110100  0.73988200  1
  Sm  Sm3  1  0.08013100  0.48889900  0.26011800  1
  H  H0  1  0.31617300  0.73482000  0.02185900  1
  H  H1  1  0.68382700  0.26518000  0.97814100  1
  H  H2  1  0.81617300  0.76518000  0.97814100  1
  H  H3  1  0.18382700  0.23482000  0.02185900  1
  H  H4  1  0.88177200  0.84351600  0.40911100  1
  H  H5  1  0.11822800  0.15648400  0.59088900  1
  H  H6  1  0.38177200  0.65648400  0.59088900  1
  H  H7  1  0.61822800  0.34351600  0.40911100  1
  H  H8  1  0.91212200  0.94730100  0.57994900  1
  H  H9  1  0.08787800  0.05269900  0.42005100  1
  H  H10  1  0.41212200  0.55269900  0.42005100  1
  H  H11  1  0.58787800  0.44730100  0.57994900  1
  H  H12  1  0.28257900  0.69253200  0.23327900  1
  H  H13  1  0.71742100  0.30746800  0.76672100  1
  H  H14  1  0.78257900  0.80746800  0.76672100  1
  H  H15  1  0.21742100  0.19253200  0.23327900  1
  C  C0  1  0.46802600  0.44074300  0.12222500  1
  C  C1  1  0.53197400  0.55925700  0.87777500  1
  C  C2  1  0.96802600  0.05925700  0.87777500  1
  C  C3  1  0.03197400  0.94074300  0.12222500  1
  C  C4  1  0.74235400  0.85894700  0.27132900  1
  C  C5  1  0.25764600  0.14105300  0.72867100  1
  C  C6  1  0.24235400  0.64105300  0.72867100  1
  C  C7  1  0.75764600  0.35894700  0.27132900  1
  C  C8  1  0.48953600  0.63752600  0.02491600  1
  C  C9  1  0.51046400  0.36247400  0.97508400  1
  C  C10  1  0.98953600  0.86247400  0.97508400  1
  C  C11  1  0.01046400  0.13752600  0.02491600  1
  C  C12  1  0.62512800  0.91372900  0.32776100  1
  C  C13  1  0.37487200  0.08627100  0.67223900  1
  C  C14  1  0.12512800  0.58627100  0.67223900  1
  C  C15  1  0.87487200  0.41372900  0.32776100  1
  C  C16  1  0.69788300  0.90791100  0.43379600  1
  C  C17  1  0.30211700  0.09208900  0.56620400  1
  C  C18  1  0.19788300  0.59208900  0.56620400  1
  C  C19  1  0.80211700  0.40791100  0.43379600  1
  C  C20  1  0.66674200  0.85997800  0.16566700  1
  C  C21  1  0.33325800  0.14002200  0.83433300  1
  C  C22  1  0.16674200  0.64002200  0.83433300  1
  C  C23  1  0.83325800  0.35997800  0.16566700  1
  O  O0  1  0.48142300  0.81390800  0.03848500  1
  O  O1  1  0.51857700  0.18609200  0.96151500  1
  O  O2  1  0.98142300  0.68609200  0.96151500  1
  O  O3  1  0.01857700  0.31390800  0.03848500  1
  O  O4  1  0.43138000  0.35433900  0.26719000  1
  O  O5  1  0.56862000  0.64566100  0.73281000  1
  O  O6  1  0.93138000  0.14566100  0.73281000  1
  O  O7  1  0.06862000  0.85433900  0.26719000  1
  O  O8  1  0.32239700  0.76747200  0.14956000  1
  O  O9  1  0.67760300  0.23252800  0.85044000  1
  O  O10  1  0.82239700  0.73252800  0.85044000  1
  O  O11  1  0.17760300  0.26747200  0.14956000  1
  O  O12  1  0.91635600  0.82887600  0.52399200  1
  O  O13  1  0.08364400  0.17112400  0.47600800  1
  O  O14  1  0.41635600  0.67112400  0.47600800  1
  O  O15  1  0.58364400  0.32887600  0.52399200  1
  O  O16  1  0.55683400  0.96088700  0.37900200  1
  O  O17  1  0.44316600  0.03911300  0.62099800  1
  O  O18  1  0.05683400  0.53911300  0.62099800  1
  O  O19  1  0.94316600  0.46088700  0.37900200  1
  O  O20  1  0.81273900  0.83610800  0.22756000  1
  O  O21  1  0.18726100  0.16389200  0.77244000  1
  O  O22  1  0.31273900  0.66389200  0.77244000  1
  O  O23  1  0.68726100  0.33610800  0.22756000  1
  O  O24  1  0.70934400  0.94602500  0.59859900  1
  O  O25  1  0.29065600  0.05397500  0.40140100  1
  O  O26  1  0.20934400  0.55397500  0.40140100  1
  O  O27  1  0.79065600  0.44602500  0.59859900  1
  O  O28  1  0.65049000  0.83243400  0.00170000  1
  O  O29  1  0.34951000  0.16756600  0.99830000  1
  O  O30  1  0.15049000  0.66756600  0.99830000  1
  O  O31  1  0.84951000  0.33243400  0.00170000  1
loop_
_geom_bond_atom_site_label_1
_geom_bond_atom_site_label_2
_geom_bond_distance
_geom_bond_site_symmetry_2
H0 O8 0.986993 1_555
H1 O9 0.986993 1_555
H2 O10 0.986993 1_555
H3 O11 0.986993 1_555
H4 O12 0.999087 1_555
H5 O13 0.999087 1_555
H6 O14 0.999087 1_555
H7 O15 0.999087 1_555
H8 O12 0.989006 1_555
H9 O13 0.989006 1_555
H10 O14 0.989006 1_555
H11 O15 0.989006 1_555
H12 O8 0.987039 1_555
H13 O9 0.987039 1_555
H14 O10 0.987039 1_555
H15 O11 0.987039 1_555
C0 O4 1.262345 1_555
C1 O5 1.262345 1_555
C2 O6 1.262345 1_555
C3 O7 1.262345 1_555
C4 O20 1.253740 1_555
C5 O21 1.253740 1_555
C6 O22 1.253740 1_555
C7 O23 1.253740 1_555
C8 O0 1.265754 1_555
C9 O1 1.265754 1_555
C10 O2 1.265754 1_555
C11 O3 1.265754 1_555
C12 O16 1.278498 1_555
C13 O17 1.278498 1_555
C14 O18 1.278498 1_555
C15 O19 1.278498 1_555
C16 O24 1.270224 1_555
C17 O25 1.270224 1_555
C18 O26 1.270224 1_555
C19 O27 1.270224 1_555
C20 O28 1.253263 1_555
C21 O29 1.253263 1_555
C22 O30 1.253263 1_555
C23 O31 1.253263 1_555
O0 Sm0 2.414791 1_555
O0 Sm1 2.859321 1_564
O1 Sm1 2.414791 1_555
O1 Sm0 2.859321 1_546
O2 Sm2 2.414791 1_555
O2 Sm3 2.859321 1_656
O3 Sm3 2.414791 1_555
O3 Sm2 2.859321 1_454
O4 Sm0 2.579265 1_545
O5 Sm1 2.579265 1_565
O6 Sm2 2.579265 1_555
O7 Sm3 2.579265 1_555
O8 Sm0 2.496621 1_555
O9 Sm1 2.496621 1_555
O10 Sm2 2.496621 1_555
O11 Sm3 2.496621 1_555
O12 Sm2 2.462667 1_555
O13 Sm3 2.462667 1_555
O14 Sm0 2.462667 1_555
O15 Sm1 2.462667 1_555
O16 Sm0 2.472237 1_555
O16 Sm1 2.696105 1_565
O17 Sm1 2.472237 1_555
O17 Sm0 2.696105 1_545
O18 Sm2 2.472237 1_455
O18 Sm3 2.696105 1_555
O19 Sm3 2.472237 1_655
O19 Sm2 2.696105 1_555
O24 Sm1 2.493506 1_565
O25 Sm0 2.493506 1_545
O26 Sm3 2.493506 1_555
O27 Sm2 2.493506 1_555
O28 Sm1 2.371452 1_564
O29 Sm0 2.371452 1_546
O30 Sm3 2.371452 1_556
O31 Sm2 2.371452 1_554
