# generated using pymatgen
data_Sm(AlAu)2
_symmetry_space_group_name_H-M   'P 1'
_cell_length_a   4.34610860
_cell_length_b   4.34610860
_cell_length_c   10.49484845
_cell_angle_alpha   90.00000000
_cell_angle_beta   90.00000000
_cell_angle_gamma   90.00000000
_symmetry_Int_Tables_number   1
_chemical_formula_structural   Sm(AlAu)2
_chemical_formula_sum   'Sm2 Al4 Au4'
_cell_volume   198.23362374
_cell_formula_units_Z   2
loop_
 _symmetry_equiv_pos_site_id
 _symmetry_equiv_pos_as_xyz
  1  'x, y, z'
loop_
 _atom_site_type_symbol
 _atom_site_label
 _atom_site_symmetry_multiplicity
 _atom_site_fract_x
 _atom_site_fract_y
 _atom_site_fract_z
 _atom_site_occupancy
  Sm  Sm0  1  0.75000000  0.75000000  0.24898133  1
  Sm  Sm1  1  0.25000000  0.25000000  0.75101867  1
  Al  Al0  1  0.75000000  0.25000000  0.50000000  1
  Al  Al1  1  0.25000000  0.75000000  0.50000000  1
  Al  Al2  1  0.75000000  0.75000000  0.86799670  1
  Al  Al3  1  0.25000000  0.25000000  0.13200330  1
  Au  Au0  1  0.75000000  0.25000000  -0.00000000  1
  Au  Au1  1  0.25000000  0.75000000  -0.00000000  1
  Au  Au2  1  0.75000000  0.75000000  0.63133596  1
  Au  Au3  1  0.25000000  0.25000000  0.36866404  1
loop_
_geom_bond_atom_site_label_1
_geom_bond_atom_site_label_2
_geom_bond_distance
_geom_bond_site_symmetry_2
Al0 Au3 2.573328 1_655
Al0 Au3 2.573328 1_555
Al0 Au2 2.573328 1_555
Al0 Au2 2.573328 1_545
Al0 Sm1 3.415003 1_555
Al0 Sm0 3.415003 1_555
Al0 Sm0 3.415003 1_545
Al0 Sm1 3.415003 1_655
Al1 Au3 2.573328 1_565
Al1 Au3 2.573328 1_555
Al1 Au2 2.573328 1_555
Al1 Au2 2.573328 1_455
Al1 Sm1 3.415003 1_555
Al1 Sm0 3.415003 1_455
Al1 Sm0 3.415003 1_555
Al1 Sm1 3.415003 1_565
Al2 Au2 2.483719 1_555
Al2 Au1 2.577086 1_656
Al2 Au0 2.577086 1_556
Al2 Au1 2.577086 1_556
Al2 Au0 2.577086 1_566
Al2 Sm1 3.309304 1_565
Al2 Sm1 3.309304 1_655
Al2 Sm1 3.309304 1_665
Al2 Sm1 3.309304 1_555
Al3 Au3 2.483719 1_555
Al3 Au1 2.577086 1_545
Al3 Au0 2.577086 1_455
Al3 Au1 2.577086 1_555
Al3 Au0 2.577086 1_555
Al3 Sm0 3.309304 1_455
Al3 Sm0 3.309304 1_555
Al3 Sm0 3.309304 1_445
Al3 Sm0 3.309304 1_545
Au0 Sm0 3.398536 1_555
Au0 Sm1 3.398536 1_554
Au0 Sm0 3.398536 1_545
Au0 Sm1 3.398536 1_654
Au1 Sm0 3.398536 1_555
Au1 Sm1 3.398536 1_554
Au1 Sm1 3.398536 1_564
Au1 Sm0 3.398536 1_455
Au2 Sm1 3.319939 1_655
Au2 Sm1 3.319939 1_565
Au2 Sm1 3.319939 1_665
Au2 Sm1 3.319939 1_555
Au3 Sm0 3.319939 1_455
Au3 Sm0 3.319939 1_555
Au3 Sm0 3.319939 1_445
Au3 Sm0 3.319939 1_545
