# generated using pymatgen
data_Li9Mn2Co5O16
_symmetry_space_group_name_H-M   'P 1'
_cell_length_a   2.98827600
_cell_length_b   5.01859085
_cell_length_c   19.28642833
_cell_angle_alpha   94.12781045
_cell_angle_beta   91.95533251
_cell_angle_gamma   92.80917852
_symmetry_Int_Tables_number   1
_chemical_formula_structural   Li9Mn2Co5O16
_chemical_formula_sum   'Li9 Mn2 Co5 O16'
_cell_volume   287.93450196
_cell_formula_units_Z   1
loop_
 _symmetry_equiv_pos_site_id
 _symmetry_equiv_pos_as_xyz
  1  'x, y, z'
loop_
 _atom_site_type_symbol
 _atom_site_label
 _atom_site_symmetry_multiplicity
 _atom_site_fract_x
 _atom_site_fract_y
 _atom_site_fract_z
 _atom_site_occupancy
  Li  Li0  1  0.06566000  0.68226800  0.12379700  1
  Li  Li1  1  0.68946000  0.56221700  0.37702800  1
  Li  Li2  1  0.30968900  0.45004900  0.62967400  1
  Li  Li3  1  0.92141700  0.31252900  0.86838700  1
  Li  Li4  1  0.55846400  0.19260200  0.12653300  1
  Li  Li5  1  0.18856600  0.06377700  0.37824500  1
  Li  Li6  1  0.82767700  0.93829800  0.62932800  1
  Li  Li7  1  0.43584400  0.79591200  0.86631400  1
  Li  Li8  1  0.87517500  0.62447500  0.74932600  1
  Mn  Mn0  1  0.99721400  0.99881700  0.99878300  1
  Mn  Mn1  1  0.62590200  0.87515900  0.25038400  1
  Co  Co0  1  0.25225900  0.75100200  0.50128900  1
  Co  Co1  1  0.49658900  0.49930300  0.99841700  1
  Co  Co2  1  0.12627100  0.37490300  0.25060600  1
  Co  Co3  1  0.75169000  0.25147800  0.50183500  1
  Co  Co4  1  0.37581400  0.12573300  0.74964300  1
  O  O0  1  0.55154200  0.83111700  0.05692300  1
  O  O1  1  0.18282800  0.70645100  0.30829900  1
  O  O2  1  0.81779200  0.59240600  0.55943900  1
  O  O3  1  0.40822100  0.42802500  0.80547400  1
  O  O4  1  0.05813600  0.33927000  0.05654300  1
  O  O5  1  0.68516600  0.21484900  0.30806400  1
  O  O6  1  0.26987000  0.08609900  0.55613600  1
  O  O7  1  0.88430900  0.98418700  0.80432800  1
  O  O8  1  0.56476300  0.53584000  0.19266500  1
  O  O9  1  0.22950300  0.41677800  0.44491200  1
  O  O10  1  0.86764900  0.26555400  0.69521700  1
  O  O11  1  0.44873600  0.16408200  0.94266400  1
  O  O12  1  0.06513100  0.04477600  0.19167800  1
  O  O13  1  0.68472100  0.90979000  0.44302200  1
  O  O14  1  0.34338800  0.82315200  0.69405700  1
  O  O15  1  0.94055100  0.65909900  0.94098800  1
loop_
_geom_bond_atom_site_label_1
_geom_bond_atom_site_label_2
_geom_bond_distance
_geom_bond_site_symmetry_2
Li0 O4 2.078179 1_555
Li0 O0 2.118926 1_555
Li0 O8 2.154389 1_555
Li0 O12 2.163625 1_565
Li0 O0 2.167438 1_455
Li0 O8 2.170949 1_455
Li1 O9 2.073184 1_555
Li1 O13 2.084921 1_555
Li1 O5 2.114514 1_555
Li1 O1 2.149771 1_655
Li1 O1 2.163718 1_555
Li1 O9 2.227118 1_655
Li2 O10 2.088699 1_455
Li2 O2 2.147641 1_455
Li2 O14 2.167104 1_555
Li2 O2 2.196371 1_555
Li2 O6 2.226229 1_555
Li2 O10 2.326206 1_555
Li3 O7 1.983338 1_545
Li3 O3 2.015799 1_655
Li3 O3 2.054621 1_555
Li3 O15 2.150161 1_555
Li3 O11 2.188817 1_555
Li3 O11 2.281429 1_655
Li4 O8 2.067188 1_555
Li4 O12 2.110842 1_555
Li4 O12 2.129746 1_655
Li4 O4 2.170823 1_555
Li4 O0 2.176633 1_545
Li4 O4 2.183181 1_655
Li5 O9 2.108724 1_555
Li5 O13 2.116874 1_545
Li5 O13 2.139679 1_445
Li5 O1 2.164044 1_545
Li5 O5 2.187146 1_555
Li5 O5 2.188695 1_455
Li6 O10 1.999105 1_565
Li6 O14 2.032718 1_555
Li6 O14 2.080198 1_655
Li6 O6 2.114447 1_665
Li6 O2 2.118126 1_555
Li6 O6 2.330816 1_565
Li7 O7 2.065376 1_555
Li7 O3 2.111622 1_555
Li7 O15 2.217184 1_555
Li7 O15 2.219102 1_455
Li7 O11 2.276232 1_565
Li7 O7 2.284546 1_455
Li8 O10 2.014437 1_555
Li8 O7 2.025450 1_555
Li8 O14 2.050867 1_655
Li8 O3 2.052739 1_555
Li8 O14 2.201918 1_555
Li8 O3 2.207233 1_655
Mn0 O11 1.949124 1_665
Mn0 O15 1.965471 1_555
Mn0 O0 1.966528 1_556
Mn0 O4 1.968517 1_666
Mn0 O11 2.164973 1_565
Mn0 O0 2.203489 1_656
Mn1 O1 1.960797 1_555
Mn1 O8 1.963461 1_555
Mn1 O5 1.964448 1_565
Mn1 O12 1.964676 1_665
Mn1 O1 2.209440 1_655
Mn1 O12 2.227947 1_565
Co0 O6 1.918673 1_565
Co0 O13 1.922248 1_555
Co0 O2 1.924437 1_455
Co0 O9 1.929128 1_555
Co0 O2 2.208684 1_555
Co0 O13 2.214836 1_455
Co1 O11 1.926766 1_555
Co1 O4 1.935239 1_556
Co1 O15 1.937485 1_555
Co1 O0 1.939910 1_556
Co1 O15 2.182590 1_455
Co1 O4 2.202498 1_656
Co2 O1 1.930878 1_555
Co2 O5 1.932554 1_455
Co2 O8 1.934991 1_555
Co2 O12 1.937787 1_555
Co2 O5 2.189956 1_555
Co2 O8 2.202589 1_455
Co3 O2 1.969511 1_555
Co3 O13 1.984448 1_545
Co3 O6 1.992381 1_555
Co3 O9 2.013491 1_655
Co3 O6 2.079378 1_655
Co3 O9 2.114122 1_555
Co4 O14 1.791298 1_545
Co4 O3 1.792673 1_555
Co4 O10 1.965854 1_555
Co4 O7 1.971165 1_445
Co4 O10 2.000472 1_455
Co4 O7 2.007538 1_545
