# generated using pymatgen
data_TiMn3Fe2(PO4)6
_symmetry_space_group_name_H-M   'P 1'
_cell_length_a   8.50877472
_cell_length_b   8.50877472
_cell_length_c   8.50877471
_cell_angle_alpha   61.37626769
_cell_angle_beta   61.37626769
_cell_angle_gamma   61.37626219
_symmetry_Int_Tables_number   1
_chemical_formula_structural   TiMn3Fe2(PO4)6
_chemical_formula_sum   'Ti1 Mn3 Fe2 P6 O24'
_cell_volume   449.06703866
_cell_formula_units_Z   1
loop_
 _symmetry_equiv_pos_site_id
 _symmetry_equiv_pos_as_xyz
  1  'x, y, z'
loop_
 _atom_site_type_symbol
 _atom_site_label
 _atom_site_symmetry_multiplicity
 _atom_site_fract_x
 _atom_site_fract_y
 _atom_site_fract_z
 _atom_site_occupancy
  Ti  Ti0  1  0.14686900  0.14686900  0.14686900  1
  Mn  Mn0  1  0.85234300  0.85234300  0.85234300  1
  Mn  Mn1  1  0.64269900  0.64269900  0.64269900  1
  Mn  Mn2  1  0.35809100  0.35809100  0.35809100  1
  Fe  Fe0  1  0.99858500  0.99858500  0.99858500  1
  Fe  Fe1  1  0.49978000  0.49978000  0.49978000  1
  P  P0  1  0.74947400  0.44872800  0.04486400  1
  P  P1  1  0.44872800  0.04486400  0.74947400  1
  P  P2  1  0.04486400  0.74947400  0.44872800  1
  P  P3  1  0.95943100  0.25049500  0.54822400  1
  P  P4  1  0.54822400  0.95943100  0.25049500  1
  P  P5  1  0.25049500  0.54822400  0.95943100  1
  O  O0  1  0.88955400  0.68626300  0.48229100  1
  O  O1  1  0.68626300  0.48229100  0.88955400  1
  O  O2  1  0.94614100  0.09317400  0.74691600  1
  O  O3  1  0.48229100  0.88955400  0.68626300  1
  O  O4  1  0.01309800  0.17500700  0.38716700  1
  O  O5  1  0.76272100  0.40249300  0.55329900  1
  O  O6  1  0.74691600  0.94614100  0.09317400  1
  O  O7  1  0.55329900  0.76272100  0.40249300  1
  O  O8  1  0.81606700  0.60073100  0.01419700  1
  O  O9  1  0.40249300  0.55329900  0.76272100  1
  O  O10  1  0.91200300  0.24690300  0.06267800  1
  O  O11  1  0.60073100  0.01419700  0.81606700  1
  O  O12  1  0.38716700  0.01309800  0.17500700  1
  O  O13  1  0.09317400  0.74691600  0.94614100  1
  O  O14  1  0.59248700  0.43101900  0.24518200  1
  O  O15  1  0.17500700  0.38716700  0.01309800  1
  O  O16  1  0.43101900  0.24518200  0.59248700  1
  O  O17  1  0.24690300  0.06267800  0.91200300  1
  O  O18  1  0.24518200  0.59248700  0.43101900  1
  O  O19  1  0.01419700  0.81606700  0.60073100  1
  O  O20  1  0.50746900  0.11543100  0.31813000  1
  O  O21  1  0.06267800  0.91200300  0.24690300  1
  O  O22  1  0.31813000  0.50746900  0.11543100  1
  O  O23  1  0.11543100  0.31813000  0.50746900  1
loop_
_geom_bond_atom_site_label_1
_geom_bond_atom_site_label_2
_geom_bond_distance
_geom_bond_site_symmetry_2
Mn0 O11 1.994077 1_565
Mn0 O19 1.994077 1_655
Mn0 O8 1.994077 1_556
Mn0 O13 2.181876 1_655
Mn0 O6 2.181876 1_556
Mn0 O2 2.181876 1_565
Mn1 O3 1.981565 1_555
Mn1 O1 1.981565 1_555
Mn1 O0 1.981565 1_555
Mn1 O5 2.131760 1_555
Mn1 O7 2.131760 1_555
Mn1 O9 2.131760 1_555
Mn2 O20 1.933503 1_555
Mn2 O22 1.933503 1_555
Mn2 O23 1.933503 1_555
Mn2 O18 2.016064 1_555
Mn2 O16 2.016064 1_555
Mn2 O14 2.016064 1_555
Fe0 O13 2.086292 1_655
Fe0 O2 2.086292 1_565
Fe0 O6 2.086292 1_556
Fe0 O10 2.128875 1_566
Fe0 O21 2.128875 1_656
Fe0 O17 2.128875 1_665
Fe1 O5 2.176851 1_555
Fe1 O9 2.176851 1_555
Fe1 O7 2.176851 1_555
Fe1 O18 2.189154 1_555
Fe1 O14 2.189154 1_555
Fe1 O16 2.189154 1_555
O0 P2 1.513088 1_655
O1 P0 1.513088 1_556
O2 P3 1.567306 1_555
O3 P1 1.513088 1_565
O4 P3 1.569024 1_455
O4 Ti0 1.873922 1_555
O5 P3 1.544747 1_555
O6 P4 1.567306 1_555
O7 P4 1.544747 1_555
O8 P0 1.516269 1_555
O9 P5 1.544747 1_555
O10 P0 1.600177 1_555
O10 Ti0 2.095003 1_655
O11 P1 1.516269 1_555
O12 P4 1.569024 1_545
O12 Ti0 1.873922 1_555
O13 P5 1.567306 1_555
O14 P0 1.574022 1_555
O15 P5 1.569025 1_554
O15 Ti0 1.873923 1_555
O16 P1 1.574022 1_555
O17 P1 1.600177 1_555
O17 Ti0 2.095003 1_556
O18 P2 1.574022 1_555
O19 P2 1.516269 1_555
O20 P4 1.520861 1_545
O21 P2 1.600177 1_555
O21 Ti0 2.095003 1_565
O22 P5 1.520861 1_554
O23 P3 1.520861 1_455
