# generated using pymatgen
data_Al(PO3)3
_symmetry_space_group_name_H-M   'P 1'
_cell_length_a   6.08403439
_cell_length_b   15.05977153
_cell_length_c   8.18565854
_cell_angle_alpha   90.00000000
_cell_angle_beta   105.09489551
_cell_angle_gamma   90.00000000
_symmetry_Int_Tables_number   1
_chemical_formula_structural   Al(PO3)3
_chemical_formula_sum   'Al4 P12 O36'
_cell_volume   724.12588532
_cell_formula_units_Z   4
loop_
 _symmetry_equiv_pos_site_id
 _symmetry_equiv_pos_as_xyz
  1  'x, y, z'
loop_
 _atom_site_type_symbol
 _atom_site_label
 _atom_site_symmetry_multiplicity
 _atom_site_fract_x
 _atom_site_fract_y
 _atom_site_fract_z
 _atom_site_occupancy
  Al  Al0  1  0.61507684  0.36175015  0.37679903  1
  Al  Al1  1  0.38492316  0.86175015  0.12320097  1
  Al  Al2  1  0.38492316  0.63824985  0.62320097  1
  Al  Al3  1  0.61507684  0.13824985  0.87679903  1
  P  P0  1  0.70130584  0.16288354  0.51689945  1
  P  P1  1  0.29869416  0.66288354  0.98310055  1
  P  P2  1  0.29869416  0.83711646  0.48310055  1
  P  P3  1  0.70130584  0.33711646  0.01689945  1
  P  P4  1  0.64481106  0.45569463  0.71801613  1
  P  P5  1  0.35518894  0.95569463  0.78198387  1
  P  P6  1  0.35518894  0.54430537  0.28198387  1
  P  P7  1  0.64481106  0.04430537  0.21801613  1
  P  P8  1  0.08481159  0.38698683  0.29058863  1
  P  P9  1  0.91518941  0.88698683  0.20941137  1
  P  P10  1  0.91518941  0.61301317  0.70941137  1
  P  P11  1  0.08481159  0.11301317  0.79058863  1
  O  O0  1  0.30578739  0.34189652  0.35516232  1
  O  O1  1  0.69421261  0.84189652  0.14483868  1
  O  O2  1  0.69421261  0.65810348  0.64483768  1
  O  O3  1  0.30578739  0.15810348  0.85516232  1
  O  O4  1  0.92257706  0.38497905  0.39702225  1
  O  O5  1  0.07742294  0.88497905  0.10297775  1
  O  O6  1  0.07742294  0.61502095  0.60297775  1
  O  O7  1  0.92257706  0.11502095  0.89702225  1
  O  O8  1  0.67485073  0.24180834  0.40796946  1
  O  O9  1  0.32514927  0.74180834  0.09203054  1
  O  O10  1  0.32514927  0.75819166  0.59203054  1
  O  O11  1  0.67485073  0.25819166  0.90796946  1
  O  O12  1  0.66466783  0.37866296  0.61059567  1
  O  O13  1  0.33533217  0.87866296  0.88940433  1
  O  O14  1  0.33533217  0.62133704  0.38940433  1
  O  O15  1  0.66466783  0.12133704  0.11059567  1
  O  O16  1  0.56604624  0.15420331  0.64216503  1
  O  O17  1  0.43395376  0.65420331  0.85783497  1
  O  O18  1  0.43395376  0.84579669  0.35783497  1
  O  O19  1  0.56604624  0.34579669  0.14216503  1
  O  O20  1  0.44533999  0.51531084  0.66100710  1
  O  O21  1  0.55466001  0.01531084  0.83899290  1
  O  O22  1  0.55466001  0.48468816  0.33899290  1
  O  O23  1  0.44533999  0.98468916  0.16100710  1
  O  O24  1  0.65037987  0.07686046  0.40194299  1
  O  O25  1  0.34962013  0.57686046  0.09805701  1
  O  O26  1  0.34962013  0.92313954  0.59805701  1
  O  O27  1  0.65037987  0.42313954  0.90194299  1
  O  O28  1  0.87350719  0.51237972  0.75341346  1
  O  O29  1  0.12649281  0.01237972  0.74658654  1
  O  O30  1  0.12649281  0.48762028  0.24658654  1
  O  O31  1  0.87350719  0.98762028  0.25341346  1
  O  O32  1  0.96549128  0.15221232  0.60849732  1
  O  O33  1  0.03450872  0.65221232  0.89150268  1
  O  O34  1  0.03450872  0.84778768  0.39150268  1
  O  O35  1  0.96549128  0.34778768  0.10849732  1
loop_
_geom_bond_atom_site_label_1
_geom_bond_atom_site_label_2
_geom_bond_distance
_geom_bond_site_symmetry_2
Al0 O8 1.847088 1_555
Al0 O0 1.867641 1_555
Al0 O4 1.867759 1_555
Al0 O12 1.875558 1_555
Al0 O19 1.880728 1_555
Al0 O22 1.897205 1_555
Al1 O9 1.847088 1_555
Al1 O1 1.867639 1_555
Al1 O5 1.867759 1_555
Al1 O13 1.875558 1_554
Al1 O18 1.880728 1_555
Al1 O23 1.897220 1_555
Al2 O10 1.847088 1_555
Al2 O2 1.867641 1_555
Al2 O6 1.867759 1_555
Al2 O14 1.875558 1_555
Al2 O17 1.880728 1_555
Al2 O20 1.897220 1_555
Al3 O11 1.847088 1_555
Al3 O3 1.867641 1_555
Al3 O7 1.867759 1_555
Al3 O15 1.875558 1_556
Al3 O16 1.880728 1_555
Al3 O21 1.897220 1_555
O0 P8 1.475756 1_555
O1 P9 1.475760 1_555
O2 P10 1.475761 1_555
O3 P11 1.475756 1_555
O4 P8 1.477190 1_655
O5 P9 1.477185 1_455
O6 P10 1.477185 1_455
O7 P11 1.477190 1_655
O8 P0 1.469342 1_555
O9 P1 1.469342 1_554
O10 P2 1.469342 1_555
O11 P3 1.469342 1_556
O12 P4 1.479489 1_555
O13 P5 1.479489 1_555
O14 P6 1.479489 1_555
O15 P7 1.479489 1_555
O16 P0 1.478238 1_555
O17 P1 1.478238 1_555
O18 P2 1.478238 1_555
O19 P3 1.478238 1_555
O20 P4 1.483798 1_555
O21 P5 1.483798 1_545
O22 P6 1.483807 1_555
O23 P7 1.483798 1_565
O24 P7 1.575330 1_555
O24 P0 1.583637 1_555
O25 P6 1.575330 1_555
O25 P1 1.583637 1_554
O26 P5 1.575330 1_555
O26 P2 1.583637 1_555
O27 P4 1.575330 1_555
O27 P3 1.583637 1_556
O28 P10 1.593239 1_555
O28 P4 1.593330 1_555
O29 P11 1.593238 1_555
O29 P5 1.593330 1_545
O30 P8 1.593238 1_555
O30 P6 1.593330 1_555
O31 P9 1.593239 1_555
O31 P7 1.593330 1_565
O32 P11 1.591735 1_655
O32 P0 1.594924 1_555
O33 P10 1.591733 1_455
O33 P1 1.594924 1_555
O34 P9 1.591733 1_455
O34 P2 1.594924 1_555
O35 P8 1.591735 1_655
O35 P3 1.594924 1_555
