# generated using pymatgen
data_Li2ScP2HO8
_symmetry_space_group_name_H-M   'P 1'
_cell_length_a   8.30120200
_cell_length_b   4.91303000
_cell_length_c   7.75950227
_cell_angle_alpha   76.01007921
_cell_angle_beta   90.00000000
_cell_angle_gamma   90.00000000
_symmetry_Int_Tables_number   1
_chemical_formula_structural   Li2ScP2HO8
_chemical_formula_sum   'Li4 Sc2 P4 H2 O16'
_cell_volume   307.07709419
_cell_formula_units_Z   2
loop_
 _symmetry_equiv_pos_site_id
 _symmetry_equiv_pos_as_xyz
  1  'x, y, z'
loop_
 _atom_site_type_symbol
 _atom_site_label
 _atom_site_symmetry_multiplicity
 _atom_site_fract_x
 _atom_site_fract_y
 _atom_site_fract_z
 _atom_site_occupancy
  Li  Li0  1  0.63329500  0.36498700  0.09274200  1
  Li  Li1  1  0.86458200  0.85482100  0.58714100  1
  Li  Li2  1  0.36458200  0.14517900  0.41285900  1
  Li  Li3  1  0.13329500  0.63501300  0.90725800  1
  Sc  Sc0  1  0.50040100  0.75126100  0.74364000  1
  Sc  Sc1  1  0.00040100  0.24873900  0.25636000  1
  P  P0  1  0.84337600  0.88097100  0.98467000  1
  P  P1  1  0.65018600  0.38701700  0.47441000  1
  P  P2  1  0.15018600  0.61298300  0.52559000  1
  P  P3  1  0.34337600  0.11902900  0.01533000  1
  H  H0  1  0.97951600  0.20980100  0.76496500  1
  H  H1  1  0.47951600  0.79019900  0.23503500  1
  O  O0  1  0.82259900  0.10913300  0.08825500  1
  O  O1  1  0.67568400  0.60664400  0.58638500  1
  O  O2  1  0.17568400  0.39335600  0.41361500  1
  O  O3  1  0.32259900  0.89086700  0.91174500  1
  O  O4  1  0.93236800  0.00638900  0.79990800  1
  O  O5  1  0.56014100  0.50827400  0.29863400  1
  O  O6  1  0.06014100  0.49172600  0.70136600  1
  O  O7  1  0.43236800  0.99361100  0.20009200  1
  O  O8  1  0.68328100  0.76088800  0.93588500  1
  O  O9  1  0.81495100  0.26381200  0.43481700  1
  O  O10  1  0.31495100  0.73618800  0.56518300  1
  O  O11  1  0.18328100  0.23911200  0.06411500  1
  O  O12  1  0.95359800  0.64288900  0.08508000  1
  O  O13  1  0.54502200  0.14367000  0.58499900  1
  O  O14  1  0.04502200  0.85633000  0.41500100  1
  O  O15  1  0.45359800  0.35711100  0.91492000  1
loop_
_geom_bond_atom_site_label_1
_geom_bond_atom_site_label_2
_geom_bond_distance
_geom_bond_site_symmetry_2
Li0 O5 1.990107 1_555
Li0 O0 2.017901 1_555
Li0 O15 2.038715 1_554
Li0 O8 2.071775 1_554
Li0 O7 2.463761 1_545
Li1 O1 1.987225 1_555
Li1 O14 2.005749 1_655
Li1 O4 2.047257 1_565
Li1 O9 2.110941 1_565
Li1 O6 2.416348 1_655
Li2 O2 1.987225 1_555
Li2 O13 2.005749 1_555
Li2 O7 2.047257 1_545
Li2 O10 2.110941 1_545
Li2 O5 2.416348 1_555
Li3 O6 1.990107 1_555
Li3 O3 2.017901 1_555
Li3 O12 2.038715 1_456
Li3 O11 2.071775 1_556
Li3 O4 2.463761 1_465
H0 O4 1.046147 1_555
H0 O6 1.509802 1_655
H1 O7 1.046147 1_555
H1 O5 1.509802 1_555
O0 P0 1.538828 1_544
O0 Sc1 2.187007 1_655
O1 P1 1.554784 1_555
O1 Sc0 2.128413 1_555
O2 P2 1.554784 1_555
O2 Sc1 2.128413 1_555
O3 P3 1.538828 1_566
O3 Sc0 2.187007 1_555
O4 P0 1.598023 1_545
O5 P1 1.543075 1_555
O6 P2 1.543075 1_555
O7 P3 1.598023 1_565
O8 P0 1.538030 1_555
O8 Sc0 2.136889 1_555
O9 P1 1.556095 1_555
O9 Sc1 2.083865 1_655
O10 P2 1.556095 1_555
O10 Sc0 2.083865 1_555
O11 P3 1.538030 1_555
O11 Sc1 2.136889 1_555
O12 P0 1.540062 1_554
O12 Sc1 2.103061 1_655
O13 P1 1.559428 1_555
O13 Sc0 2.054729 1_545
O14 P2 1.559428 1_555
O14 Sc1 2.054729 1_565
O15 P3 1.540062 1_556
O15 Sc0 2.103061 1_555
