# generated using pymatgen
data_KNO3
_symmetry_space_group_name_H-M   'P 1'
_cell_length_a   5.32398474
_cell_length_b   4.49779310
_cell_length_c   13.71594619
_cell_angle_alpha   73.72512830
_cell_angle_beta   90.00000000
_cell_angle_gamma   90.00000000
_symmetry_Int_Tables_number   1
_chemical_formula_structural   KNO3
_chemical_formula_sum   'K4 N4 O12'
_cell_volume   315.28320785
_cell_formula_units_Z   4
loop_
 _symmetry_equiv_pos_site_id
 _symmetry_equiv_pos_as_xyz
  1  'x, y, z'
loop_
 _atom_site_type_symbol
 _atom_site_label
 _atom_site_symmetry_multiplicity
 _atom_site_fract_x
 _atom_site_fract_y
 _atom_site_fract_z
 _atom_site_occupancy
  K  K0  1  0.85398621  0.59387960  0.62302191  1
  K  K1  1  0.35398621  0.40612040  0.87697809  1
  K  K2  1  0.14601379  0.40612040  0.37697809  1
  K  K3  1  0.64601379  0.59387960  0.12302191  1
  N  N0  1  0.35974229  0.00492727  0.61706875  1
  N  N1  1  0.85974229  0.99507273  0.88293125  1
  N  N2  1  0.64025771  0.99507273  0.38293125  1
  N  N3  1  0.14025771  0.00492727  0.11706875  1
  O  O0  1  0.15343209  0.13613799  0.58633824  1
  O  O1  1  0.65343209  0.86386201  0.91366176  1
  O  O2  1  0.84656791  0.86386201  0.41366176  1
  O  O3  1  0.34656791  0.13613799  0.08633824  1
  O  O4  1  0.56414105  0.13637592  0.58658680  1
  O  O5  1  0.06414105  0.86362408  0.91341320  1
  O  O6  1  0.43585895  0.86362408  0.41341320  1
  O  O7  1  0.93585895  0.13637592  0.08658680  1
  O  O8  1  0.85856687  0.26465501  0.82200671  1
  O  O9  1  0.35856687  0.73534499  0.67799329  1
  O  O10  1  0.14143313  0.73534499  0.17799329  1
  O  O11  1  0.64143313  0.26465501  0.32200671  1
loop_
_geom_bond_atom_site_label_1
_geom_bond_atom_site_label_2
_geom_bond_distance
_geom_bond_site_symmetry_2
K0 O8 2.716064 1_555
K0 O4 2.727955 1_555
K0 O0 2.759377 1_655
K0 O2 2.787046 1_555
K0 O4 2.810928 1_565
K0 O0 2.838224 1_665
K0 O9 2.863425 1_555
K0 O9 2.908415 1_655
K1 O9 2.716064 1_555
K1 O5 2.727955 1_555
K1 O1 2.759377 1_555
K1 O3 2.787046 1_556
K1 O5 2.810928 1_545
K1 O1 2.838224 1_545
K1 O8 2.863425 1_455
K1 O8 2.908415 1_555
K2 O10 2.716064 1_555
K2 O6 2.727955 1_555
K2 O2 2.759377 1_455
K2 O0 2.787046 1_555
K2 O6 2.810928 1_545
K2 O2 2.838224 1_445
K2 O11 2.863425 1_555
K2 O11 2.908415 1_455
K3 O11 2.716064 1_555
K3 O7 2.727955 1_555
K3 O3 2.759377 1_555
K3 O1 2.787046 1_554
K3 O7 2.810928 1_565
K3 O3 2.838224 1_565
K3 O10 2.863425 1_655
K3 O10 2.908415 1_555
N0 O4 1.253004 1_555
N0 O0 1.262137 1_555
N0 O9 1.265164 1_545
N1 O5 1.253004 1_655
N1 O1 1.262137 1_555
N1 O8 1.265164 1_565
N2 O6 1.253004 1_555
N2 O2 1.262137 1_555
N2 O11 1.265164 1_565
N3 O7 1.253004 1_455
N3 O3 1.262137 1_555
N3 O10 1.265164 1_545
