# generated using pymatgen
data_Ba6Pr2Y(CuO2)12
_symmetry_space_group_name_H-M   'P 1'
_cell_length_a   14.54606284
_cell_length_b   14.54606284
_cell_length_c   5.54686637
_cell_angle_alpha   84.35993122
_cell_angle_beta   84.35993122
_cell_angle_gamma   144.85143116
_symmetry_Int_Tables_number   1
_chemical_formula_structural   Ba6Pr2Y(CuO2)12
_chemical_formula_sum   'Ba6 Pr2 Y1 Cu12 O24'
_cell_volume   638.87564625
_cell_formula_units_Z   1
loop_
 _symmetry_equiv_pos_site_id
 _symmetry_equiv_pos_as_xyz
  1  'x, y, z'
loop_
 _atom_site_type_symbol
 _atom_site_label
 _atom_site_symmetry_multiplicity
 _atom_site_fract_x
 _atom_site_fract_y
 _atom_site_fract_z
 _atom_site_occupancy
  Ba  Ba0  1  0.13520800  0.86479200  0.50000000  1
  Ba  Ba1  1  0.47038800  0.19731900  0.83343000  1
  Ba  Ba2  1  0.80268100  0.52961200  0.16657000  1
  Ba  Ba3  1  0.19731900  0.47038800  0.83343000  1
  Ba  Ba4  1  0.52961200  0.80268100  0.16657000  1
  Ba  Ba5  1  0.86479200  0.13520800  0.50000000  1
  Pr  Pr0  1  0.66753400  0.66753400  0.16629000  1
  Pr  Pr1  1  0.33246600  0.33246600  0.83371000  1
  Y  Y0  1  0.00000000  0.00000000  0.50000000  1
  Cu  Cu0  1  0.26916800  0.39518600  0.33410100  1
  Cu  Cu1  1  0.60481400  0.73083200  0.66589900  1
  Cu  Cu2  1  0.93748400  0.06251600  0.00000000  1
  Cu  Cu3  1  0.73083200  0.60481400  0.66589900  1
  Cu  Cu4  1  0.06251600  0.93748400  0.00000000  1
  Cu  Cu5  1  0.39518600  0.26916800  0.33410100  1
  Cu  Cu6  1  0.12010300  0.54572200  0.33334600  1
  Cu  Cu7  1  0.45427800  0.87989700  0.66665400  1
  Cu  Cu8  1  0.78736100  0.21263900  0.00000000  1
  Cu  Cu9  1  0.87989700  0.45427800  0.66665400  1
  Cu  Cu10  1  0.21263900  0.78736100  0.00000000  1
  Cu  Cu11  1  0.54572200  0.12010300  0.33334600  1
  O  O0  1  0.44332800  0.55667200  0.50000000  1
  O  O1  1  0.78223400  0.89099600  0.82583900  1
  O  O2  1  0.10900400  0.21776600  0.17416100  1
  O  O3  1  0.89099600  0.78223400  0.82583900  1
  O  O4  1  0.21776600  0.10900400  0.17416100  1
  O  O5  1  0.55667200  0.44332800  0.50000000  1
  O  O6  1  0.89035800  0.78502600  0.33669800  1
  O  O7  1  0.21497400  0.10964200  0.66330200  1
  O  O8  1  0.55520900  0.44479100  0.00000000  1
  O  O9  1  0.10964200  0.21497400  0.66330200  1
  O  O10  1  0.44479100  0.55520900  0.00000000  1
  O  O11  1  0.78502600  0.89035800  0.33669800  1
  O  O12  1  0.18679800  0.47943100  0.33373800  1
  O  O13  1  0.52056900  0.81320200  0.66626200  1
  O  O14  1  0.85390300  0.14609700  0.00000000  1
  O  O15  1  0.81320200  0.52056900  0.66626200  1
  O  O16  1  0.14609700  0.85390300  0.00000000  1
  O  O17  1  0.47943100  0.18679800  0.33373800  1
  O  O18  1  0.05204500  0.61368500  0.33295900  1
  O  O19  1  0.38631500  0.94795500  0.66704100  1
  O  O20  1  0.71920100  0.28079900  0.00000000  1
  O  O21  1  0.94795500  0.38631500  0.66704100  1
  O  O22  1  0.28079900  0.71920100  0.00000000  1
  O  O23  1  0.61368500  0.05204500  0.33295900  1
loop_
_geom_bond_atom_site_label_1
_geom_bond_atom_site_label_2
_geom_bond_distance
_geom_bond_site_symmetry_2
Ba0 O17 2.784047 1_565
Ba0 O15 2.784047 1_455
Ba0 O16 2.789827 1_555
Ba0 O16 2.789827 1_556
Ba0 O3 2.943289 1_455
Ba0 O4 2.943289 1_565
Ba0 O7 2.989074 1_565
Ba0 O6 2.989074 1_455
Ba0 O18 3.053400 1_555
Ba0 O19 3.053400 1_555
Ba1 O15 2.779482 1_555
Ba1 O16 2.785743 1_546
Ba1 O17 2.786275 1_556
Ba1 O17 2.787080 1_555
Ba1 O5 2.949472 1_555
Ba1 O8 2.991452 1_556
Ba1 O20 3.019593 1_556
Ba1 O19 3.021618 1_545
Ba1 O4 3.027112 1_556
Ba1 O7 3.081775 1_555
Ba2 O17 2.779482 1_555
Ba2 O16 2.785743 1_655
Ba2 O15 2.786275 1_554
Ba2 O15 2.787080 1_555
Ba2 O5 2.949472 1_555
Ba2 O8 2.991452 1_555
Ba2 O20 3.019593 1_555
Ba2 O18 3.021618 1_655
Ba2 O3 3.027112 1_554
Ba2 O6 3.081775 1_555
Ba3 O13 2.779482 1_555
Ba3 O14 2.785743 1_456
Ba3 O12 2.786275 1_556
Ba3 O12 2.787080 1_555
Ba3 O0 2.949472 1_555
Ba3 O10 2.991452 1_556
Ba3 O22 3.019593 1_556
Ba3 O21 3.021618 1_455
Ba3 O2 3.027112 1_556
Ba3 O9 3.081775 1_555
Ba4 O12 2.779482 1_555
Ba4 O14 2.785743 1_565
Ba4 O13 2.786275 1_554
Ba4 O13 2.787080 1_555
Ba4 O0 2.949472 1_555
Ba4 O10 2.991452 1_555
Ba4 O22 3.019593 1_555
Ba4 O23 3.021618 1_565
Ba4 O1 3.027112 1_554
Ba4 O11 3.081775 1_555
Ba5 O12 2.784047 1_655
Ba5 O13 2.784047 1_545
Ba5 O14 2.789827 1_556
Ba5 O14 2.789827 1_555
Ba5 O1 2.943289 1_545
Ba5 O2 2.943289 1_655
Ba5 O9 2.989074 1_655
Ba5 O11 2.989074 1_545
Ba5 O23 3.053400 1_555
Ba5 O21 3.053400 1_555
Cu0 O9 1.967097 1_555
Cu0 O10 1.968744 1_555
Cu0 O2 1.974586 1_555
Cu0 O0 1.983431 1_555
Cu0 O12 2.310487 1_555
Cu1 O11 1.967097 1_555
Cu1 O10 1.968744 1_556
Cu1 O1 1.974586 1_555
Cu1 O0 1.983431 1_555
Cu1 O13 2.310487 1_555
Cu2 O11 1.965190 1_545
Cu2 O9 1.965190 1_654
Cu2 O1 1.986580 1_544
Cu2 O2 1.986580 1_655
Cu2 O14 2.318060 1_555
Cu3 O6 1.967097 1_555
Cu3 O8 1.968744 1_556
Cu3 O3 1.974586 1_555
Cu3 O5 1.983431 1_555
Cu3 O15 2.310487 1_555
Cu4 O6 1.965190 1_455
Cu4 O7 1.965190 1_564
Cu4 O3 1.986580 1_454
Cu4 O4 1.986580 1_565
Cu4 O16 2.318060 1_555
Cu5 O7 1.967097 1_555
Cu5 O8 1.968744 1_555
Cu5 O4 1.974586 1_555
Cu5 O5 1.983431 1_555
Cu5 O17 2.310487 1_555
Cu6 O12 1.844139 1_555
Cu6 O18 1.886224 1_555
Cu6 O21 1.955297 1_455
Cu6 O22 1.959046 1_555
Cu7 O13 1.844139 1_555
Cu7 O19 1.886224 1_555
Cu7 O23 1.955297 1_565
Cu7 O22 1.959046 1_556
Cu8 O14 1.845495 1_555
Cu8 O20 1.890369 1_555
Cu8 O23 1.958108 1_555
Cu8 O21 1.958108 1_554
Cu9 O15 1.844139 1_555
Cu9 O21 1.886224 1_555
Cu9 O18 1.955297 1_655
Cu9 O20 1.959046 1_556
Cu10 O16 1.845495 1_555
Cu10 O22 1.890369 1_555
Cu10 O18 1.958108 1_555
Cu10 O19 1.958108 1_554
Cu11 O17 1.844139 1_555
Cu11 O23 1.886224 1_555
Cu11 O19 1.955297 1_545
Cu11 O20 1.959046 1_555
O0 Pr1 2.507828 1_555
O0 Pr0 2.507828 1_555
O1 Y0 2.431573 1_665
O1 Pr0 2.494190 1_556
O2 Y0 2.431573 1_555
O2 Pr1 2.494190 1_554
O3 Y0 2.431573 1_665
O3 Pr0 2.494190 1_556
O4 Y0 2.431573 1_555
O4 Pr1 2.494190 1_554
O5 Pr1 2.507828 1_555
O5 Pr0 2.507828 1_555
O6 Y0 2.414009 1_665
O6 Pr0 2.486120 1_555
O7 Y0 2.414009 1_555
O7 Pr1 2.486120 1_555
O8 Pr0 2.498940 1_555
O8 Pr1 2.498940 1_554
O9 Y0 2.414009 1_555
O9 Pr1 2.486120 1_555
O10 Pr0 2.498940 1_555
O10 Pr1 2.498940 1_554
O11 Y0 2.414009 1_665
O11 Pr0 2.486120 1_555
