# generated using pymatgen
data_Yb5B2(O2F3)3
_symmetry_space_group_name_H-M   'P 1'
_cell_length_a   10.90182161
_cell_length_b   10.90182161
_cell_length_c   8.30671646
_cell_angle_alpha   83.91274451
_cell_angle_beta   83.91274451
_cell_angle_gamma   33.35798115
_symmetry_Int_Tables_number   1
_chemical_formula_structural   Yb5B2(O2F3)3
_chemical_formula_sum   'Yb10 B4 O12 F18'
_cell_volume   539.52150838
_cell_formula_units_Z   2
loop_
 _symmetry_equiv_pos_site_id
 _symmetry_equiv_pos_as_xyz
  1  'x, y, z'
loop_
 _atom_site_type_symbol
 _atom_site_label
 _atom_site_symmetry_multiplicity
 _atom_site_fract_x
 _atom_site_fract_y
 _atom_site_fract_z
 _atom_site_occupancy
  Yb  Yb0  1  0.84271400  0.58621700  0.68576700  1
  Yb  Yb1  1  0.41378300  0.15728600  0.81423300  1
  Yb  Yb2  1  0.15728600  0.41378300  0.31423300  1
  Yb  Yb3  1  0.58621700  0.84271400  0.18576700  1
  Yb  Yb4  1  0.03006400  0.21642200  0.10640700  1
  Yb  Yb5  1  0.78357800  0.96993600  0.39359300  1
  Yb  Yb6  1  0.96993600  0.78357800  0.89359300  1
  Yb  Yb7  1  0.21642200  0.03006400  0.60640700  1
  Yb  Yb8  1  0.67341700  0.32658300  0.75000000  1
  Yb  Yb9  1  0.32658300  0.67341700  0.25000000  1
  B  B0  1  0.54998100  0.63275900  0.94582700  1
  B  B1  1  0.36724100  0.45001900  0.55417300  1
  B  B2  1  0.45001900  0.36724100  0.05417300  1
  B  B3  1  0.63275900  0.54998100  0.44582700  1
  O  O0  1  0.36267000  0.80762700  0.04956800  1
  O  O1  1  0.19237300  0.63733000  0.45043200  1
  O  O2  1  0.63733000  0.19237300  0.95043200  1
  O  O3  1  0.80762700  0.36267000  0.54956800  1
  O  O4  1  0.68147700  0.63114600  0.95419500  1
  O  O5  1  0.36885400  0.31852300  0.54580500  1
  O  O6  1  0.31852300  0.36885400  0.04580500  1
  O  O7  1  0.63114600  0.68147700  0.45419500  1
  O  O8  1  0.68150100  0.49194500  0.28158700  1
  O  O9  1  0.50805500  0.31849900  0.21841300  1
  O  O10  1  0.31849900  0.50805500  0.71841300  1
  O  O11  1  0.49194500  0.68150100  0.78158700  1
  F  F0  1  0.11821900  0.30302800  0.52682800  1
  F  F1  1  0.69697200  0.88178100  0.97317200  1
  F  F2  1  0.88178100  0.69697200  0.47317200  1
  F  F3  1  0.30302800  0.11821900  0.02682800  1
  F  F4  1  0.01567700  0.26297100  0.81969800  1
  F  F5  1  0.73702900  0.98432300  0.68030200  1
  F  F6  1  0.98432300  0.73702900  0.18030200  1
  F  F7  1  0.26297100  0.01567700  0.31969800  1
  F  F8  1  0.00937800  0.99062200  0.75000000  1
  F  F9  1  0.99062200  0.00937800  0.25000000  1
  F  F10  1  0.48293100  0.93661700  0.68786400  1
  F  F11  1  0.06338300  0.51706900  0.81213600  1
  F  F12  1  0.51706900  0.06338300  0.31213600  1
  F  F13  1  0.93661700  0.48293100  0.18786400  1
  F  F14  1  0.68370400  0.40846200  0.99503800  1
  F  F15  1  0.59153800  0.31629600  0.50496200  1
  F  F16  1  0.31629600  0.59153800  0.00496200  1
  F  F17  1  0.40846200  0.68370400  0.49503800  1
loop_
_geom_bond_atom_site_label_1
_geom_bond_atom_site_label_2
_geom_bond_distance
_geom_bond_site_symmetry_2
B0 O11 1.418331 1_555
B0 O0 1.420885 1_556
B0 O4 1.427921 1_555
B0 F14 1.493677 1_555
B1 O10 1.418331 1_555
B1 O1 1.420885 1_555
B1 O5 1.427921 1_555
B1 F15 1.493677 1_555
B2 O9 1.418331 1_555
B2 O2 1.420885 1_554
B2 O6 1.427921 1_555
B2 F16 1.493677 1_555
B3 O8 1.418331 1_555
B3 O3 1.420885 1_555
B3 O7 1.427921 1_555
B3 F17 1.493677 1_555
O0 Yb9 2.318090 1_555
O0 Yb4 2.514075 1_565
O1 Yb9 2.318090 1_555
O1 Yb5 2.514075 1_455
O2 Yb8 2.318090 1_555
O2 Yb6 2.514075 1_545
O3 Yb8 2.318090 1_555
O3 Yb7 2.514075 1_655
O4 Yb0 2.502723 1_555
O4 Yb3 2.571873 1_556
O4 Yb4 2.754366 1_656
O5 Yb1 2.502723 1_555
O5 Yb2 2.571873 1_555
O5 Yb5 2.754366 1_545
O6 Yb2 2.502723 1_555
O6 Yb1 2.571873 1_554
O6 Yb6 2.754366 1_454
O7 Yb3 2.502723 1_555
O7 Yb0 2.571873 1_555
O7 Yb7 2.754366 1_565
O8 Yb4 2.503337 1_655
O8 Yb9 2.504343 1_555
O9 Yb5 2.503337 1_545
O9 Yb9 2.504343 1_555
O10 Yb6 2.503337 1_455
O10 Yb8 2.504343 1_555
O11 Yb7 2.503337 1_565
O11 Yb8 2.504343 1_555
F0 Yb0 2.197471 1_455
F0 Yb7 2.202145 1_555
F0 Yb2 2.237237 1_555
F1 Yb1 2.197471 1_565
F1 Yb6 2.202145 1_555
F1 Yb3 2.237237 1_556
F2 Yb2 2.197471 1_655
F2 Yb5 2.202145 1_555
F2 Yb0 2.237237 1_555
F3 Yb3 2.197471 1_545
F3 Yb4 2.202145 1_555
F3 Yb1 2.237237 1_554
F4 Yb7 2.285767 1_555
F4 Yb4 2.375738 1_556
F4 Yb0 2.392659 1_455
F5 Yb6 2.285767 1_555
F5 Yb5 2.375738 1_555
F5 Yb1 2.392659 1_565
F6 Yb5 2.285767 1_555
F6 Yb6 2.375738 1_554
F6 Yb2 2.392659 1_655
F7 Yb4 2.285767 1_555
F7 Yb7 2.375738 1_555
F7 Yb3 2.392659 1_545
F8 Yb8 2.102393 1_465
F8 Yb6 2.764765 1_455
F8 Yb7 2.764765 1_565
F9 Yb9 2.102393 1_645
F9 Yb5 2.764765 1_545
F9 Yb4 2.764765 1_655
F10 Yb1 2.189935 1_565
F10 Yb0 2.224251 1_555
F10 Yb7 2.294226 1_565
F11 Yb0 2.189935 1_455
F11 Yb1 2.224251 1_555
F11 Yb6 2.294226 1_455
F12 Yb3 2.189935 1_545
F12 Yb2 2.224251 1_555
F12 Yb5 2.294226 1_545
F13 Yb2 2.189935 1_655
F13 Yb3 2.224251 1_555
F13 Yb4 2.294226 1_655
F14 Yb8 2.356576 1_555
F14 Yb4 2.573140 1_656
F15 Yb8 2.356576 1_555
F15 Yb5 2.573140 1_545
F16 Yb9 2.356576 1_555
F16 Yb6 2.573140 1_454
F17 Yb9 2.356576 1_555
F17 Yb7 2.573140 1_565
