# generated using pymatgen
data_Sr3CuRhO6
_symmetry_space_group_name_H-M   'P 1'
_cell_length_a   6.79428636
_cell_length_b   6.79428636
_cell_length_c   6.73188464
_cell_angle_alpha   88.79892436
_cell_angle_beta   88.79892436
_cell_angle_gamma   92.32632061
_symmetry_Int_Tables_number   1
_chemical_formula_structural   Sr3CuRhO6
_chemical_formula_sum   'Sr6 Cu2 Rh2 O12'
_cell_volume   310.36111939
_cell_formula_units_Z   2
loop_
 _symmetry_equiv_pos_site_id
 _symmetry_equiv_pos_as_xyz
  1  'x, y, z'
loop_
 _atom_site_type_symbol
 _atom_site_label
 _atom_site_symmetry_multiplicity
 _atom_site_fract_x
 _atom_site_fract_y
 _atom_site_fract_z
 _atom_site_occupancy
  Sr  Sr0  1  0.10166900  0.89833100  0.75000000  1
  Sr  Sr1  1  0.89833100  0.10166900  0.25000000  1
  Sr  Sr2  1  0.38909400  0.23975100  0.37491400  1
  Sr  Sr3  1  0.76024900  0.61090600  0.12508600  1
  Sr  Sr4  1  0.61090600  0.76024900  0.62508600  1
  Sr  Sr5  1  0.23975100  0.38909400  0.87491400  1
  Cu  Cu0  1  0.69216200  0.30783800  0.75000000  1
  Cu  Cu1  1  0.30783800  0.69216200  0.25000000  1
  Rh  Rh0  1  0.50000000  0.00000000  0.00000000  1
  Rh  Rh1  1  0.00000000  0.50000000  0.50000000  1
  O  O0  1  0.39324400  0.71670000  0.96497300  1
  O  O1  1  0.28330000  0.60675600  0.53502700  1
  O  O2  1  0.60675600  0.28330000  0.03502700  1
  O  O3  1  0.71670000  0.39324400  0.46497300  1
  O  O4  1  0.78042800  0.92578600  0.93085800  1
  O  O5  1  0.07421400  0.21957200  0.56914200  1
  O  O6  1  0.21957200  0.07421400  0.06914200  1
  O  O7  1  0.92578600  0.78042800  0.43085800  1
  O  O8  1  0.52354100  0.89192500  0.28558300  1
  O  O9  1  0.10807500  0.47645900  0.21441700  1
  O  O10  1  0.89192500  0.52354100  0.78558300  1
  O  O11  1  0.47645900  0.10807500  0.71441700  1
loop_
_geom_bond_atom_site_label_1
_geom_bond_atom_site_label_2
_geom_bond_distance
_geom_bond_site_symmetry_2
Cu0 O10 1.978433 1_555
Cu0 O11 1.978433 1_555
Cu0 O2 1.994554 1_556
Cu0 O3 1.994554 1_555
Cu1 O8 1.978433 1_555
Cu1 O9 1.978433 1_555
Cu1 O1 1.994554 1_555
Cu1 O0 1.994554 1_554
O0 Rh0 2.049268 1_566
O0 Sr5 2.510814 1_555
O0 Sr4 2.702614 1_555
O0 Sr0 2.790254 1_555
O0 Sr3 2.849891 1_556
O1 Rh1 2.049268 1_555
O1 Sr4 2.510814 1_555
O1 Sr5 2.702614 1_555
O1 Sr0 2.790254 1_555
O1 Sr2 2.849891 1_555
O2 Rh0 2.049268 1_555
O2 Sr3 2.510814 1_555
O2 Sr2 2.702614 1_555
O2 Sr1 2.790254 1_555
O2 Sr5 2.849891 1_554
O3 Rh1 2.049268 1_655
O3 Sr2 2.510814 1_555
O3 Sr3 2.702614 1_555
O3 Sr1 2.790254 1_555
O3 Sr4 2.849891 1_555
O4 Rh0 2.037585 1_566
O4 Sr3 2.481286 1_556
O4 Sr0 2.492402 1_655
O4 Sr1 2.605290 1_566
O4 Sr4 2.630579 1_555
O5 Rh1 2.037585 1_555
O5 Sr2 2.481286 1_555
O5 Sr0 2.492402 1_545
O5 Sr1 2.605290 1_455
O5 Sr5 2.630579 1_555
O6 Rh0 2.037585 1_555
O6 Sr5 2.481286 1_554
O6 Sr1 2.492402 1_455
O6 Sr0 2.605290 1_544
O6 Sr2 2.630579 1_555
O7 Rh1 2.037585 1_655
O7 Sr4 2.481286 1_555
O7 Sr1 2.492402 1_565
O7 Sr0 2.605290 1_655
O7 Sr3 2.630579 1_555
O8 Rh0 2.055253 1_565
O8 Sr4 2.527940 1_555
O8 Sr2 2.644376 1_565
O8 Sr3 2.768088 1_555
O8 Sr1 2.870194 1_565
O9 Rh1 2.055253 1_555
O9 Sr5 2.527940 1_554
O9 Sr3 2.644376 1_455
O9 Sr2 2.768088 1_555
O9 Sr1 2.870194 1_455
O10 Rh1 2.055253 1_655
O10 Sr3 2.527940 1_556
O10 Sr5 2.644376 1_655
O10 Sr4 2.768088 1_555
O10 Sr0 2.870194 1_655
O11 Rh0 2.055253 1_556
O11 Sr2 2.527940 1_555
O11 Sr4 2.644376 1_545
O11 Sr5 2.768088 1_555
O11 Sr0 2.870194 1_545
