# generated using pymatgen
data_GdRe2
_symmetry_space_group_name_H-M   'P 1'
_cell_length_a   5.38604237
_cell_length_b   5.38610081
_cell_length_c   8.74715642
_cell_angle_alpha   90.00240024
_cell_angle_beta   89.99797369
_cell_angle_gamma   119.99680753
_symmetry_Int_Tables_number   1
_chemical_formula_structural   GdRe2
_chemical_formula_sum   'Gd4 Re8'
_cell_volume   219.76358837
_cell_formula_units_Z   4
loop_
 _symmetry_equiv_pos_site_id
 _symmetry_equiv_pos_as_xyz
  1  'x, y, z'
loop_
 _atom_site_type_symbol
 _atom_site_label
 _atom_site_symmetry_multiplicity
 _atom_site_fract_x
 _atom_site_fract_y
 _atom_site_fract_z
 _atom_site_occupancy
  Gd  Gd0  1  0.66666900  0.33333195  0.56282130  1
  Gd  Gd1  1  0.33333121  0.66666931  0.43716936  1
  Gd  Gd2  1  0.33333099  0.66666950  0.06289271  1
  Gd  Gd3  1  0.66666925  0.33333149  0.93711659  1
  Re  Re0  1  0.00000073  0.00000130  0.49995920  1
  Re  Re1  1  0.00000082  0.00000082  1.00004067  1
  Re  Re2  1  0.17063872  0.34125674  0.74992998  1
  Re  Re3  1  0.17063749  0.82935729  0.74993098  1
  Re  Re4  1  0.65874275  0.82936374  0.74992991  1
  Re  Re5  1  0.82935805  0.65872903  0.25006987  1
  Re  Re6  1  0.82935220  0.17064446  0.25006852  1
  Re  Re7  1  0.34126979  0.17064536  0.25006991  1
loop_
_geom_bond_atom_site_label_1
_geom_bond_atom_site_label_2
_geom_bond_distance
_geom_bond_site_symmetry_2
Gd0 Re6 3.128412 1_555
Gd0 Re7 3.128578 1_555
Gd0 Re5 3.128597 1_555
Gd0 Re2 3.151488 1_555
Gd0 Re4 3.151514 1_555
Gd0 Re2 3.151658 1_655
Gd0 Re3 3.151680 1_655
Gd0 Re4 3.151682 1_545
Gd0 Re3 3.151727 1_545
Gd0 Re0 3.157798 1_655
Gd0 Re0 3.157989 1_555
Gd0 Re0 3.158033 1_665
Gd0 Gd3 3.274019 1_555
Gd0 Gd1 3.298208 1_555
Gd0 Gd1 3.298213 1_655
Gd0 Gd1 3.298235 1_545
Gd1 Re3 3.128504 1_555
Gd1 Re4 3.128676 1_555
Gd1 Re2 3.128702 1_555
Gd1 Re7 3.151465 1_555
Gd1 Re5 3.151467 1_555
Gd1 Re5 3.151597 1_455
Gd1 Re7 3.151648 1_565
Gd1 Re6 3.151663 1_455
Gd1 Re6 3.151664 1_565
Gd1 Re0 3.157688 1_565
Gd1 Re0 3.157885 1_665
Gd1 Re0 3.157917 1_555
Gd1 Gd2 3.273856 1_555
Gd2 Re3 3.130152 1_554
Gd2 Re2 3.130174 1_554
Gd2 Re4 3.130180 1_554
Gd2 Re5 3.151850 1_455
Gd2 Re7 3.151884 1_565
Gd2 Re5 3.151921 1_555
Gd2 Re7 3.151938 1_555
Gd2 Re6 3.151985 1_565
Gd2 Re6 3.152020 1_455
Gd2 Re1 3.157826 1_564
Gd2 Re1 3.157963 1_664
Gd2 Re1 3.157985 1_554
Gd2 Gd3 3.298483 1_554
Gd2 Gd3 3.298608 1_454
Gd2 Gd3 3.298653 1_564
Gd3 Re6 3.130052 1_556
Gd3 Re5 3.130068 1_556
Gd3 Re7 3.130079 1_556
Gd3 Re2 3.151912 1_655
Gd3 Re4 3.151917 1_545
Gd3 Re2 3.151944 1_555
Gd3 Re4 3.151989 1_555
Gd3 Re3 3.152041 1_655
Gd3 Re3 3.152051 1_545
Gd3 Re1 3.157940 1_655
Gd3 Re1 3.158066 1_555
Gd3 Re1 3.158097 1_665
Re0 Re7 2.704032 1_555
Re0 Re5 2.704037 1_445
Re0 Re6 2.704143 1_455
Re0 Re2 2.704567 1_555
Re0 Re4 2.704577 1_445
Re0 Re3 2.704686 1_545
Re1 Re6 2.704999 1_456
Re1 Re7 2.705064 1_556
Re1 Re5 2.705096 1_446
Re1 Re3 2.705545 1_545
Re1 Re4 2.705611 1_445
Re1 Re2 2.705629 1_555
Re2 Re3 2.628962 1_555
Re2 Re4 2.629098 1_555
Re2 Re3 2.757139 1_545
Re2 Re4 2.757233 1_445
Re3 Re4 2.628938 1_555
Re3 Re4 2.757104 1_455
Re5 Re6 2.628857 1_555
Re5 Re7 2.628993 1_555
Re5 Re6 2.757244 1_565
Re5 Re7 2.757339 1_665
Re6 Re7 2.628835 1_555
Re6 Re7 2.757207 1_655
