# generated using pymatgen
data_Sm6U3O17
_symmetry_space_group_name_H-M   'P 1'
_cell_length_a   6.84133405
_cell_length_b   6.84133405
_cell_length_c   11.23709134
_cell_angle_alpha   73.53433745
_cell_angle_beta   73.53433745
_cell_angle_gamma   46.91421972
_symmetry_Int_Tables_number   1
_chemical_formula_structural   Sm6U3O17
_chemical_formula_sum   'Sm6 U3 O17'
_cell_volume   365.31567540
_cell_formula_units_Z   1
loop_
 _symmetry_equiv_pos_site_id
 _symmetry_equiv_pos_as_xyz
  1  'x, y, z'
loop_
 _atom_site_type_symbol
 _atom_site_label
 _atom_site_symmetry_multiplicity
 _atom_site_fract_x
 _atom_site_fract_y
 _atom_site_fract_z
 _atom_site_occupancy
  Sm  Sm0  1  0.01758250  0.64599497  0.38287038  1
  Sm  Sm1  1  0.68341513  0.31393614  0.17580788  1
  Sm  Sm2  1  0.30047824  0.04633631  0.94328706  1
  Sm  Sm3  1  0.95366369  0.69952176  0.05671294  1
  Sm  Sm4  1  0.68606386  0.31658487  0.82419212  1
  Sm  Sm5  1  0.35400503  0.98241750  0.61712962  1
  U  U0  1  0.02697764  0.65417692  0.72027746  1
  U  U1  1  0.67500446  0.32499554  0.50000000  1
  U  U2  1  0.34582308  -0.02697764  0.27972254  1
  O  O0  1  0.68028700  0.95245628  0.23440140  1
  O  O1  1  0.24668894  0.44369774  0.88219322  1
  O  O2  1  0.74308736  0.90803075  0.86237794  1
  O  O3  1  0.04754372  0.31971300  0.76559860  1
  O  O4  1  0.43903324  0.55670023  0.64754768  1
  O  O5  1  0.77621449  0.87665895  0.57645815  1
  O  O6  1  0.30194453  0.38232844  0.55450001  1
  O  O7  1  0.12334105  0.22378551  0.42354185  1
  O  O8  1  0.92304011  0.06539631  0.35321052  1
  O  O9  1  0.44329977  0.56096676  0.35245232  1
  O  O10  1  0.24434751  0.53036981  0.18637899  1
  O  O11  1  0.55630226  0.75331106  0.11780678  1
  O  O12  1  0.09196925  0.25691264  0.13762206  1
  O  O13  1  0.90132669  0.09867331  0.00000000  1
  O  O14  1  0.46963019  0.75565249  0.81362101  1
  O  O15  1  0.93460369  0.07695989  0.64678948  1
  O  O16  1  0.61767156  0.69805547  0.44549999  1
loop_
_geom_bond_atom_site_label_1
_geom_bond_atom_site_label_2
_geom_bond_distance
_geom_bond_site_symmetry_2
O0 U2 2.110713 1_565
O0 Sm1 2.385582 1_565
O0 Sm3 2.428848 1_555
O0 Sm0 2.468570 1_655
O1 U0 2.179776 1_555
O1 Sm2 2.390695 1_555
O1 Sm3 2.418987 1_456
O1 Sm4 2.419922 1_555
O2 U0 2.131626 1_655
O2 Sm2 2.429743 1_565
O2 Sm4 2.464542 1_565
O2 Sm3 2.467594 1_556
O3 U0 2.110713 1_555
O3 Sm4 2.385582 1_455
O3 Sm2 2.428848 1_555
O3 Sm5 2.468570 1_545
O4 U1 2.084312 1_555
O4 U0 2.343945 1_555
O4 Sm4 2.398996 1_555
O4 Sm5 2.484251 1_555
O5 U0 2.116961 1_655
O5 Sm5 2.378987 1_555
O5 Sm0 2.509753 1_655
O5 U1 2.562680 1_565
O6 U1 2.219288 1_555
O6 U0 2.380251 1_555
O6 Sm5 2.413867 1_545
O6 Sm0 2.473579 1_555
O7 U2 2.116961 1_555
O7 Sm0 2.378987 1_555
O7 Sm5 2.509753 1_545
O7 U1 2.562680 1_455
O8 U1 2.170521 1_555
O8 Sm1 2.382338 1_555
O8 Sm0 2.409730 1_645
O8 U2 2.427320 1_655
O9 U1 2.084312 1_555
O9 U2 2.343945 1_565
O9 Sm1 2.398996 1_555
O9 Sm0 2.484251 1_555
O10 Sm3 2.227043 1_455
O10 Sm1 2.247321 1_555
O10 Sm0 2.297707 1_555
O11 U2 2.179776 1_565
O11 Sm3 2.390695 1_555
O11 Sm2 2.418987 1_564
O11 Sm1 2.419922 1_555
O12 U2 2.131626 1_555
O12 Sm3 2.429743 1_455
O12 Sm1 2.464542 1_455
O12 Sm2 2.467594 1_554
O13 Sm1 2.296615 1_555
O13 Sm4 2.296615 1_554
O13 Sm2 2.407958 1_654
O13 Sm3 2.407958 1_545
O14 Sm2 2.227043 1_565
O14 Sm4 2.247321 1_555
O14 Sm5 2.297707 1_555
O15 U1 2.170521 1_555
O15 Sm4 2.382338 1_555
O15 Sm5 2.409730 1_645
O15 U0 2.427320 1_645
O16 U1 2.219288 1_555
O16 U2 2.380251 1_565
O16 Sm0 2.413867 1_655
O16 Sm5 2.473579 1_555
