# generated using pymatgen
data_Ba5Co4PtClO13
_symmetry_space_group_name_H-M   'P 1'
_cell_length_a   5.81289219
_cell_length_b   5.81289219
_cell_length_c   25.29693800
_cell_angle_alpha   90.00000000
_cell_angle_beta   90.00000000
_cell_angle_gamma   120.09471923
_symmetry_Int_Tables_number   1
_chemical_formula_structural   Ba5Co4PtClO13
_chemical_formula_sum   'Ba10 Co8 Pt2 Cl2 O26'
_cell_volume   739.55047254
_cell_formula_units_Z   2
loop_
 _symmetry_equiv_pos_site_id
 _symmetry_equiv_pos_as_xyz
  1  'x, y, z'
loop_
 _atom_site_type_symbol
 _atom_site_label
 _atom_site_symmetry_multiplicity
 _atom_site_fract_x
 _atom_site_fract_y
 _atom_site_fract_z
 _atom_site_occupancy
  Ba  Ba0  1  0.66637500  0.33362500  0.12942400  1
  Ba  Ba1  1  0.33283200  0.66716800  0.86895500  1
  Ba  Ba2  1  0.33362500  0.66637500  0.62942400  1
  Ba  Ba3  1  0.66716800  0.33283200  0.36895500  1
  Ba  Ba4  1  0.00030700  0.99969300  0.24879700  1
  Ba  Ba5  1  0.99969300  0.00030700  0.74879700  1
  Ba  Ba6  1  0.66704200  0.33295800  0.54236300  1
  Ba  Ba7  1  0.33380900  0.66619100  0.46317600  1
  Ba  Ba8  1  0.33295800  0.66704200  0.04236300  1
  Ba  Ba9  1  0.66619100  0.33380900  0.96317600  1
  Co  Co0  1  0.66762700  0.33237300  0.67835600  1
  Co  Co1  1  0.33331900  0.66668100  0.32239200  1
  Co  Co2  1  0.33237300  0.66762700  0.17835600  1
  Co  Co3  1  0.66668100  0.33331900  0.82239200  1
  Co  Co4  1  0.00175000  0.99825000  0.10538100  1
  Co  Co5  1  0.99825000  0.00175000  0.60538100  1
  Co  Co6  1  0.00336400  0.99663600  0.50332300  1
  Co  Co7  1  0.99663600  0.00336400  0.00332300  1
  Pt  Pt0  1  0.99961100  0.00038900  0.89710400  1
  Pt  Pt1  1  0.00038900  0.99961100  0.39710400  1
  Cl  Cl0  1  0.66705800  0.33294200  0.24929500  1
  Cl  Cl1  1  0.33294200  0.66705800  0.74929500  1
  O  O0  1  0.16050700  0.32335100  0.14931800  1
  O  O1  1  0.67664900  0.83949300  0.14931800  1
  O  O2  1  0.16651100  0.83348900  0.15091500  1
  O  O3  1  0.83442300  0.68008200  0.84682300  1
  O  O4  1  0.31991800  0.16557700  0.84682300  1
  O  O5  1  0.84003800  0.15996200  0.84688700  1
  O  O6  1  0.83949300  0.67664900  0.64931800  1
  O  O7  1  0.32335100  0.16050700  0.64931800  1
  O  O8  1  0.83348900  0.16651100  0.65091500  1
  O  O9  1  0.16557700  0.31991800  0.34682300  1
  O  O10  1  0.68008200  0.83442300  0.34682300  1
  O  O11  1  0.15996200  0.84003800  0.34688700  1
  O  O12  1  0.84971900  0.69656800  0.05270400  1
  O  O13  1  0.30343200  0.15028100  0.05270400  1
  O  O14  1  0.84737200  0.15262800  0.04802500  1
  O  O15  1  0.15704900  0.30974300  0.94854100  1
  O  O16  1  0.69025700  0.84295100  0.94854100  1
  O  O17  1  0.14962000  0.85038000  0.95108400  1
  O  O18  1  0.15028100  0.30343200  0.55270400  1
  O  O19  1  0.69656800  0.84971900  0.55270400  1
  O  O20  1  0.15262800  0.84737200  0.54802500  1
  O  O21  1  0.84295100  0.69025700  0.44854100  1
  O  O22  1  0.30974300  0.15704900  0.44854100  1
  O  O23  1  0.85038000  0.14962000  0.45108400  1
  O  O24  1  0.66525500  0.33474500  0.74975100  1
  O  O25  1  0.33474500  0.66525500  0.24975100  1
loop_
_geom_bond_atom_site_label_1
_geom_bond_atom_site_label_2
_geom_bond_distance
_geom_bond_site_symmetry_2
Ba0 O13 2.664319 1_555
Ba0 O12 2.664319 1_555
Ba0 O14 2.750290 1_555
Ba0 O0 2.946045 1_655
Ba0 O1 2.946045 1_545
Ba0 O2 2.952764 1_545
Ba0 O2 2.952764 1_655
Ba0 O1 2.954249 1_555
Ba0 O0 2.954249 1_555
Ba0 Cl0 3.032377 1_555
Ba1 O15 2.699086 1_555
Ba1 O16 2.699086 1_555
Ba1 O17 2.778910 1_555
Ba1 O3 2.932723 1_555
Ba1 O4 2.932723 1_555
Ba1 O5 2.956377 1_455
Ba1 O5 2.956377 1_565
Ba1 O4 2.988470 1_565
Ba1 O3 2.988470 1_455
Ba1 Cl1 3.027032 1_555
Ba2 O18 2.664319 1_555
Ba2 O19 2.664319 1_555
Ba2 O20 2.750290 1_555
Ba2 O7 2.946045 1_565
Ba2 O6 2.946045 1_455
Ba2 O8 2.952764 1_565
Ba2 O8 2.952764 1_455
Ba2 O6 2.954249 1_555
Ba2 O7 2.954249 1_555
Ba2 Cl1 3.032377 1_555
Ba3 O22 2.699086 1_555
Ba3 O21 2.699086 1_555
Ba3 O23 2.778910 1_555
Ba3 O10 2.932723 1_555
Ba3 O9 2.932723 1_555
Ba3 O11 2.956377 1_545
Ba3 O11 2.956377 1_655
Ba3 O9 2.988470 1_655
Ba3 O10 2.988470 1_545
Ba3 Cl0 3.027032 1_555
Ba4 O11 2.956952 1_555
Ba4 O10 2.956971 1_455
Ba4 O9 2.956971 1_565
Ba4 O2 2.988982 1_555
Ba4 O1 2.997105 1_455
Ba4 O0 2.997105 1_565
Ba4 O25 3.347401 1_565
Ba4 O25 3.347401 1_455
Ba4 Cl0 3.353321 1_565
Ba4 Cl0 3.353321 1_455
Ba4 Cl0 3.356849 1_465
Ba4 O25 3.368889 1_555
Ba5 O5 2.956952 1_555
Ba5 O3 2.956971 1_545
Ba5 O4 2.956971 1_655
Ba5 O8 2.988982 1_555
Ba5 O6 2.997105 1_545
Ba5 O7 2.997105 1_655
Ba5 O24 3.347401 1_655
Ba5 O24 3.347401 1_545
Ba5 Cl1 3.353321 1_655
Ba5 Cl1 3.353321 1_545
Ba5 Cl1 3.356849 1_645
Ba5 O24 3.368889 1_555
Ba6 O20 2.909441 1_655
Ba6 O20 2.909441 1_545
Ba6 O19 2.910663 1_545
Ba6 O18 2.910663 1_655
Ba6 O18 2.933279 1_555
Ba6 O19 2.933279 1_555
Ba6 O23 2.956755 1_555
Ba6 O21 2.976997 1_555
Ba6 O22 2.976997 1_555
Ba6 O6 3.210647 1_555
Ba6 O7 3.210647 1_555
Ba6 O8 3.217417 1_555
Ba7 O20 2.817427 1_555
Ba7 O18 2.908240 1_555
Ba7 O19 2.908240 1_555
Ba7 O22 2.915576 1_555
Ba7 O21 2.915576 1_555
Ba7 O23 2.923129 1_455
Ba7 O23 2.923129 1_565
Ba7 O21 2.949285 1_455
Ba7 O22 2.949285 1_565
Ba8 O14 2.909441 1_565
Ba8 O14 2.909441 1_455
Ba8 O12 2.910663 1_455
Ba8 O13 2.910663 1_565
Ba8 O13 2.933279 1_555
Ba8 O12 2.933279 1_555
Ba8 O17 2.956755 1_554
Ba8 O15 2.976997 1_554
Ba8 O16 2.976997 1_554
Ba8 O1 3.210647 1_555
Ba8 O0 3.210647 1_555
Ba8 O2 3.217417 1_555
Ba9 O14 2.817427 1_556
Ba9 O13 2.908240 1_556
Ba9 O12 2.908240 1_556
Ba9 O15 2.915576 1_555
Ba9 O16 2.915576 1_555
Ba9 O17 2.923129 1_545
Ba9 O17 2.923129 1_655
Ba9 O16 2.949285 1_545
Ba9 O15 2.949285 1_655
Co0 O24 1.806233 1_555
Co0 O8 1.809205 1_555
Co0 O6 1.880850 1_555
Co0 O7 1.880850 1_555
Co1 O25 1.837651 1_555
Co1 O10 1.850590 1_555
Co1 O9 1.850590 1_555
Co1 O11 1.852912 1_555
Co2 O25 1.806233 1_555
Co2 O2 1.809205 1_555
Co2 O0 1.880850 1_555
Co2 O1 1.880850 1_555
Co3 O24 1.837651 1_555
Co3 O3 1.850590 1_555
Co3 O4 1.850590 1_555
Co3 O5 1.852912 1_555
Co4 O0 1.977197 1_565
Co4 O1 1.977197 1_455
Co4 O13 2.019356 1_565
Co4 O12 2.019356 1_455
Co4 O2 2.020202 1_555
Co4 O14 2.126827 1_465
Co5 O7 1.977197 1_655
Co5 O6 1.977197 1_545
Co5 O18 2.019356 1_655
Co5 O19 2.019356 1_545
Co5 O8 2.020202 1_555
Co5 O20 2.126827 1_645
Co6 O20 1.881328 1_555
Co6 O18 1.985659 1_565
Co6 O19 1.985659 1_455
Co6 O23 2.030036 1_465
Co6 O21 2.072759 1_455
Co6 O22 2.072759 1_565
Co7 O14 1.881328 1_555
Co7 O13 1.985659 1_655
Co7 O12 1.985659 1_545
Co7 O17 2.030036 1_644
Co7 O16 2.072759 1_544
Co7 O15 2.072759 1_654
O3 Pt0 2.052716 1_565
O4 Pt0 2.052716 1_455
O5 Pt0 2.048764 1_555
O9 Pt1 2.052716 1_545
O10 Pt1 2.052716 1_655
O11 Pt1 2.048764 1_555
O15 Pt0 2.028280 1_455
O16 Pt0 2.028280 1_565
O17 Pt0 2.036645 1_465
O21 Pt1 2.028280 1_655
O22 Pt1 2.028280 1_545
O23 Pt1 2.036645 1_645
