# generated using pymatgen
data_PuPO4
_symmetry_space_group_name_H-M   'P 1'
_cell_length_a   6.99971839
_cell_length_b   6.42042511
_cell_length_c   8.12268980
_cell_angle_alpha   53.53997626
_cell_angle_beta   90.00000000
_cell_angle_gamma   90.00000000
_symmetry_Int_Tables_number   1
_chemical_formula_structural   PuPO4
_chemical_formula_sum   'Pu4 P4 O16'
_cell_volume   293.59388063
_cell_formula_units_Z   4
loop_
 _symmetry_equiv_pos_site_id
 _symmetry_equiv_pos_as_xyz
  1  'x, y, z'
loop_
 _atom_site_type_symbol
 _atom_site_label
 _atom_site_symmetry_multiplicity
 _atom_site_fract_x
 _atom_site_fract_y
 _atom_site_fract_z
 _atom_site_occupancy
  Pu  Pu0  1  0.33489207  0.18232655  0.71511669  1
  Pu  Pu1  1  0.16510793  0.18232655  0.21511669  1
  Pu  Pu2  1  0.66510793  0.81767345  0.28488331  1
  Pu  Pu3  1  0.83489207  0.81767345  0.78488331  1
  P  P0  1  0.33456848  0.69319362  0.69275937  1
  P  P1  1  0.16543152  0.69319362  0.19275937  1
  P  P2  1  0.66543152  0.30680638  0.30724063  1
  P  P3  1  0.83456848  0.30680638  0.80724063  1
  O  O0  1  0.99117791  0.19346053  0.74944827  1
  O  O1  1  0.50882209  0.19346053  0.24944827  1
  O  O2  1  0.00882209  0.80653947  0.25055173  1
  O  O3  1  0.49117791  0.80653947  0.75055173  1
  O  O4  1  0.39384759  0.66884118  0.52267084  1
  O  O5  1  0.10615241  0.66884118  0.02267084  1
  O  O6  1  0.60615241  0.33115882  0.47732916  1
  O  O7  1  0.89384759  0.33115882  0.97732916  1
  O  O8  1  0.28176322  0.41549274  0.87055505  1
  O  O9  1  0.21823678  0.41549274  0.37055505  1
  O  O10  1  0.71823678  0.58450726  0.12944495  1
  O  O11  1  0.78176322  0.58450726  0.62944495  1
  O  O12  1  0.16610987  0.88574061  0.61410306  1
  O  O13  1  0.33389013  0.88574061  0.11410306  1
  O  O14  1  0.83389013  0.11425939  0.38589694  1
  O  O15  1  0.66610987  0.11425939  0.88589694  1
loop_
_geom_bond_atom_site_label_1
_geom_bond_atom_site_label_2
_geom_bond_distance
_geom_bond_site_symmetry_2
O0 P3 1.535472 1_555
O0 Pu0 2.427949 1_655
O0 Pu3 2.505076 1_545
O1 P2 1.535472 1_555
O1 Pu1 2.427949 1_555
O1 Pu2 2.505076 1_545
O2 P1 1.535472 1_555
O2 Pu2 2.427949 1_455
O2 Pu1 2.505076 1_565
O3 P0 1.535472 1_555
O3 Pu3 2.427949 1_555
O3 Pu0 2.505076 1_565
O4 P0 1.536916 1_555
O4 Pu2 2.460759 1_555
O4 Pu0 2.562729 1_555
O5 P1 1.536916 1_555
O5 Pu3 2.460759 1_454
O5 Pu1 2.562729 1_555
O6 P2 1.536916 1_555
O6 Pu0 2.460759 1_555
O6 Pu2 2.562729 1_555
O7 P3 1.536916 1_555
O7 Pu1 2.460759 1_656
O7 Pu3 2.562729 1_555
O8 P0 1.529990 1_555
O8 Pu1 2.400258 1_556
O8 Pu0 2.493979 1_555
O9 P1 1.529990 1_555
O9 Pu0 2.400258 1_555
O9 Pu1 2.493979 1_555
O10 P2 1.529990 1_555
O10 Pu3 2.400258 1_554
O10 Pu2 2.493979 1_555
O11 P3 1.529990 1_555
O11 Pu2 2.400258 1_555
O11 Pu3 2.493979 1_555
O12 P0 1.545367 1_555
O12 Pu3 2.601903 1_455
O12 Pu1 2.606618 1_565
O12 Pu0 2.748083 1_565
O13 P1 1.545367 1_555
O13 Pu2 2.601903 1_555
O13 Pu0 2.606618 1_564
O13 Pu1 2.748083 1_565
O14 P2 1.545367 1_555
O14 Pu1 2.601903 1_655
O14 Pu3 2.606618 1_545
O14 Pu2 2.748083 1_545
O15 P3 1.545367 1_555
O15 Pu0 2.601903 1_555
O15 Pu2 2.606618 1_546
O15 Pu3 2.748083 1_545
