# generated using pymatgen
data_LiFeAs
_symmetry_space_group_name_H-M   'P 1'
_cell_length_a   4.07089570
_cell_length_b   4.07089570
_cell_length_c   10.36541400
_cell_angle_alpha   90.00000000
_cell_angle_beta   90.00000000
_cell_angle_gamma   119.99999504
_symmetry_Int_Tables_number   1
_chemical_formula_structural   LiFeAs
_chemical_formula_sum   'Li4 Fe4 As4'
_cell_volume   148.76379749
_cell_formula_units_Z   4
loop_
 _symmetry_equiv_pos_site_id
 _symmetry_equiv_pos_as_xyz
  1  'x, y, z'
loop_
 _atom_site_type_symbol
 _atom_site_label
 _atom_site_symmetry_multiplicity
 _atom_site_fract_x
 _atom_site_fract_y
 _atom_site_fract_z
 _atom_site_occupancy
  Li  Li0  1  0.66666700  0.33333300  0.35802000  1
  Li  Li1  1  0.33333300  0.66666700  0.64198000  1
  Li  Li2  1  0.00000000  0.00000000  0.74785500  1
  Li  Li3  1  0.00000000  0.00000000  0.25214500  1
  Fe  Fe0  1  0.00000000  0.00000000  0.50000000  1
  Fe  Fe1  1  0.66666700  0.33333300  0.86816900  1
  Fe  Fe2  1  0.33333300  0.66666700  0.13183100  1
  Fe  Fe3  1  0.00000000  0.00000000  0.00000000  1
  As  As0  1  0.66666700  0.33333300  0.10703800  1
  As  As1  1  0.33333300  0.66666700  0.89296200  1
  As  As2  1  0.66666700  0.33333300  0.61481600  1
  As  As3  1  0.33333300  0.66666700  0.38518400  1
loop_
_geom_bond_atom_site_label_1
_geom_bond_atom_site_label_2
_geom_bond_distance
_geom_bond_site_symmetry_2
Li0 Li3 2.593920 1_655
Li0 Li3 2.593924 1_665
Li0 Li3 2.593924 1_555
Li1 Li2 2.593920 1_565
Li1 Li2 2.593924 1_555
Li1 Li2 2.593924 1_665
Fe0 Li3 2.569120 1_555
Fe0 Li2 2.569120 1_555
Fe0 Li0 2.773067 1_455
Fe0 Li1 2.773067 1_545
Fe0 Li1 2.773070 1_555
Fe0 Li0 2.773070 1_445
Fe0 Li1 2.773070 1_445
Fe0 Li0 2.773070 1_555
Fe1 Li2 2.660700 1_655
Fe1 Li2 2.660703 1_555
Fe1 Li2 2.660703 1_665
Fe2 Li3 2.660700 1_565
Fe2 Li3 2.660703 1_665
Fe2 Li3 2.660703 1_555
Fe3 Li2 2.613587 1_554
Fe3 Li3 2.613587 1_555
As0 Fe2 2.364339 1_545
As0 Fe2 2.364339 1_655
As0 Fe2 2.364345 1_555
As0 Fe1 2.475976 1_554
As0 Fe3 2.599044 1_655
As0 Fe3 2.599047 1_555
As0 Fe3 2.599047 1_665
As0 Li0 2.601532 1_555
As0 Li3 2.790404 1_655
As0 Li3 2.790407 1_665
As0 Li3 2.790407 1_555
As1 Fe1 2.364339 1_455
As1 Fe1 2.364339 1_565
As1 Fe1 2.364345 1_555
As1 Fe2 2.475976 1_556
As1 Fe3 2.599044 1_566
As1 Fe3 2.599047 1_556
As1 Fe3 2.599047 1_666
As1 Li1 2.601532 1_555
As1 Li2 2.790404 1_565
As1 Li2 2.790407 1_665
As1 Li2 2.790407 1_555
As2 Li1 2.367136 1_545
As2 Li1 2.367136 1_655
As2 Li1 2.367143 1_555
As2 Fe1 2.626109 1_555
As2 Fe0 2.634469 1_655
As2 Fe0 2.634472 1_555
As2 Fe0 2.634472 1_665
As2 Li0 2.661797 1_555
As2 Li2 2.725015 1_655
As2 Li2 2.725018 1_665
As2 Li2 2.725018 1_555
As3 Li0 2.367136 1_455
As3 Li0 2.367136 1_565
As3 Li0 2.367143 1_555
As3 Fe2 2.626109 1_555
As3 Fe0 2.634469 1_565
As3 Fe0 2.634472 1_555
As3 Fe0 2.634472 1_665
As3 Li1 2.661797 1_555
As3 Li3 2.725015 1_565
As3 Li3 2.725018 1_555
As3 Li3 2.725018 1_665
