# generated using pymatgen
data_Sm2Mn3Cu9P7
_symmetry_space_group_name_H-M   'P 1'
_cell_length_a   3.75209200
_cell_length_b   9.31447000
_cell_length_c   9.37665906
_cell_angle_alpha   60.86773566
_cell_angle_beta   90.00000000
_cell_angle_gamma   90.00000000
_symmetry_Int_Tables_number   1
_chemical_formula_structural   Sm2Mn3Cu9P7
_chemical_formula_sum   'Sm2 Mn3 Cu9 P7'
_cell_volume   286.24754879
_cell_formula_units_Z   1
loop_
 _symmetry_equiv_pos_site_id
 _symmetry_equiv_pos_as_xyz
  1  'x, y, z'
loop_
 _atom_site_type_symbol
 _atom_site_label
 _atom_site_symmetry_multiplicity
 _atom_site_fract_x
 _atom_site_fract_y
 _atom_site_fract_z
 _atom_site_occupancy
  Sm  Sm0  1  0.00000000  0.66481000  0.66648700  1
  Sm  Sm1  1  0.50000000  0.33588400  0.32898100  1
  Mn  Mn0  1  0.50000000  0.78621300  0.12930500  1
  Mn  Mn1  1  0.50000000  0.12153000  0.08645600  1
  Mn  Mn2  1  0.50000000  0.08654700  0.79182900  1
  Cu  Cu0  1  0.00000000  0.57053400  0.37994900  1
  Cu  Cu1  1  0.00000000  0.38192500  0.04796500  1
  Cu  Cu2  1  0.00000000  0.04895400  0.56827600  1
  Cu  Cu3  1  0.00000000  0.84076300  0.88270600  1
  Cu  Cu4  1  0.00000000  0.87924900  0.28192900  1
  Cu  Cu5  1  0.00000000  0.27486800  0.84154300  1
  Cu  Cu6  1  0.50000000  0.61485000  0.95840600  1
  Cu  Cu7  1  0.50000000  0.95948200  0.42637100  1
  Cu  Cu8  1  0.50000000  0.42938900  0.61348700  1
  P  P0  1  0.00000000  0.60011500  0.12396800  1
  P  P1  1  0.00000000  0.12720200  0.27431300  1
  P  P2  1  0.00000000  0.28712100  0.58848900  1
  P  P3  1  0.50000000  0.88099100  0.70833500  1
  P  P4  1  0.50000000  0.71063600  0.40401900  1
  P  P5  1  0.50000000  0.40195800  0.88692300  1
  P  P6  1  0.00000000  0.99697700  0.01026300  1
loop_
_geom_bond_atom_site_label_1
_geom_bond_atom_site_label_2
_geom_bond_distance
_geom_bond_site_symmetry_2
Mn0 P4 2.316303 1_555
Mn0 P6 2.546741 1_555
Mn0 P6 2.546741 1_655
Mn0 P0 2.571226 1_655
Mn0 P0 2.571226 1_555
Mn1 P5 2.359016 1_554
Mn1 P6 2.486547 1_645
Mn1 P6 2.486547 1_545
Mn1 P1 2.591473 1_655
Mn1 P1 2.591473 1_555
Mn2 P3 2.395468 1_545
Mn2 P6 2.597474 1_646
Mn2 P6 2.597474 1_546
Mn2 P2 2.678983 1_555
Mn2 P2 2.678983 1_655
Cu0 P0 2.278855 1_555
Cu0 P4 2.358011 1_455
Cu0 P4 2.358011 1_555
Cu0 P2 2.401335 1_555
Cu0 Sm1 3.089011 1_555
Cu0 Sm1 3.089011 1_455
Cu0 Sm0 3.207338 1_555
Cu1 P1 2.287110 1_555
Cu1 P5 2.358014 1_554
Cu1 P5 2.358014 1_454
Cu1 P0 2.459351 1_555
Cu1 Cu6 2.675419 1_554
Cu1 Cu6 2.675419 1_454
Cu1 Sm1 3.089725 1_555
Cu1 Sm1 3.089725 1_455
Cu1 Sm0 3.249752 1_554
Cu2 P2 2.316591 1_555
Cu2 P3 2.385665 1_445
Cu2 P3 2.385665 1_545
Cu2 P1 2.484524 1_555
Cu2 Cu7 2.657864 1_545
Cu2 Cu7 2.657864 1_445
Cu2 Sm1 3.139771 1_555
Cu2 Sm1 3.139771 1_455
Cu2 Sm0 3.231500 1_545
Cu3 P0 2.281410 1_556
Cu3 P6 2.289586 1_556
Cu3 P3 2.395147 1_455
Cu3 P3 2.395147 1_555
Cu3 Cu6 2.645187 1_555
Cu3 Cu6 2.645187 1_455
Cu3 Sm0 3.167274 1_555
Cu4 P6 2.229704 1_555
Cu4 P1 2.275640 1_565
Cu4 P4 2.355021 1_555
Cu4 P4 2.355021 1_455
Cu4 Cu7 2.626386 1_455
Cu4 Cu7 2.626386 1_555
Cu4 Sm0 3.159000 1_555
Cu5 P6 2.283772 1_546
Cu5 P2 2.319383 1_555
Cu5 P5 2.364821 1_455
Cu5 P5 2.364821 1_555
Cu5 Sm0 3.175167 1_555
Cu6 P5 2.382347 1_555
Cu6 P0 2.396025 1_656
Cu6 P0 2.396025 1_556
Cu6 P3 2.446196 1_555
Cu6 Mn0 2.757896 1_556
Cu6 Sm0 3.160425 1_655
Cu6 Sm0 3.160425 1_555
Cu6 Sm1 3.167761 1_556
Cu7 P3 2.375414 1_555
Cu7 P1 2.413349 1_565
Cu7 P1 2.413349 1_665
Cu7 P4 2.426817 1_555
Cu7 Mn1 2.784393 1_565
Cu7 Sm1 3.163631 1_565
Cu7 Sm0 3.178885 1_655
Cu7 Sm0 3.178885 1_555
Cu8 P2 2.373383 1_555
Cu8 P2 2.373383 1_655
Cu8 P4 2.389691 1_555
Cu8 P5 2.449717 1_555
Cu8 Sm0 3.104196 1_555
Cu8 Sm0 3.104196 1_655
Cu8 Sm1 3.183943 1_555
P0 Sm1 2.943763 1_455
P0 Sm1 2.943763 1_555
P1 Sm1 2.920728 1_555
P1 Sm1 2.920728 1_455
P2 Sm1 2.927590 1_555
P2 Sm1 2.927590 1_455
P3 Sm0 2.915041 1_655
P3 Sm0 2.915041 1_555
P4 Sm0 2.955639 1_555
P4 Sm0 2.955639 1_655
P5 Sm0 2.976390 1_655
P5 Sm0 2.976390 1_555
