# generated using pymatgen
data_Mg2Si
_symmetry_space_group_name_H-M   'P 1'
_cell_length_a   5.95574800
_cell_length_b   10.07135401
_cell_length_c   15.48504532
_cell_angle_alpha   92.62344524
_cell_angle_beta   100.95140255
_cell_angle_gamma   90.00300378
_symmetry_Int_Tables_number   1
_chemical_formula_structural   Mg2Si
_chemical_formula_sum   'Mg32 Si16'
_cell_volume   910.92366283
_cell_formula_units_Z   16
loop_
 _symmetry_equiv_pos_site_id
 _symmetry_equiv_pos_as_xyz
  1  'x, y, z'
loop_
 _atom_site_type_symbol
 _atom_site_label
 _atom_site_symmetry_multiplicity
 _atom_site_fract_x
 _atom_site_fract_y
 _atom_site_fract_z
 _atom_site_occupancy
  Mg  Mg0_0  1  0.38433150  0.37575750  0.27012900  1
  Mg  Mg0_1  1  0.38433150  0.37575750  0.77012900  1
  Mg  Mg0_2  1  0.38433150  0.87575750  0.27012900  1
  Mg  Mg0_3  1  0.38433150  0.87575750  0.77012900  1
  Mg  Mg0_4  1  0.88433150  0.37575750  0.27012900  1
  Mg  Mg0_5  1  0.88433150  0.37575750  0.77012900  1
  Mg  Mg0_6  1  0.88433150  0.87575750  0.27012900  1
  Mg  Mg0_7  1  0.88433150  0.87575750  0.77012900  1
  Mg  Mg1_0  1  0.28234700  0.12751900  0.05692250  1
  Mg  Mg1_1  1  0.28234700  0.12751900  0.55692250  1
  Mg  Mg1_2  1  0.28234700  0.62751900  0.05692250  1
  Mg  Mg1_3  1  0.28234700  0.62751900  0.55692250  1
  Mg  Mg1_4  1  0.78234700  0.12751900  0.05692250  1
  Mg  Mg1_5  1  0.78234700  0.12751900  0.55692250  1
  Mg  Mg1_6  1  0.78234700  0.62751900  0.05692250  1
  Mg  Mg1_7  1  0.78234700  0.62751900  0.55692250  1
  Mg  Mg2_0  1  0.11566850  0.12424250  0.22987100  1
  Mg  Mg2_1  1  0.11566850  0.12424250  0.72987100  1
  Mg  Mg2_2  1  0.11566850  0.62424250  0.22987100  1
  Mg  Mg2_3  1  0.11566850  0.62424250  0.72987100  1
  Mg  Mg2_4  1  0.61566850  0.12424250  0.22987100  1
  Mg  Mg2_5  1  0.61566850  0.12424250  0.72987100  1
  Mg  Mg2_6  1  0.61566850  0.62424250  0.22987100  1
  Mg  Mg2_7  1  0.61566850  0.62424250  0.72987100  1
  Mg  Mg3_0  1  0.21765300  0.37248100  0.44307750  1
  Mg  Mg3_1  1  0.21765300  0.37248100  0.94307750  1
  Mg  Mg3_2  1  0.21765300  0.87248100  0.44307750  1
  Mg  Mg3_3  1  0.21765300  0.87248100  0.94307750  1
  Mg  Mg3_4  1  0.71765300  0.37248100  0.44307750  1
  Mg  Mg3_5  1  0.71765300  0.37248100  0.94307750  1
  Mg  Mg3_6  1  0.71765300  0.87248100  0.44307750  1
  Mg  Mg3_7  1  0.71765300  0.87248100  0.94307750  1
  Si  Si0_0  1  0.44189600  0.12166700  0.38868400  1
  Si  Si0_1  1  0.44189600  0.12166700  0.88868400  1
  Si  Si0_2  1  0.44189600  0.62166700  0.38868400  1
  Si  Si0_3  1  0.44189600  0.62166700  0.88868400  1
  Si  Si0_4  1  0.94189600  0.12166700  0.38868400  1
  Si  Si0_5  1  0.94189600  0.12166700  0.88868400  1
  Si  Si0_6  1  0.94189600  0.62166700  0.38868400  1
  Si  Si0_7  1  0.94189600  0.62166700  0.88868400  1
  Si  Si1_0  1  0.05810400  0.37833300  0.11131600  1
  Si  Si1_1  1  0.05810400  0.37833300  0.61131600  1
  Si  Si1_2  1  0.05810400  0.87833300  0.11131600  1
  Si  Si1_3  1  0.05810400  0.87833300  0.61131600  1
  Si  Si1_4  1  0.55810400  0.37833300  0.11131600  1
  Si  Si1_5  1  0.55810400  0.37833300  0.61131600  1
  Si  Si1_6  1  0.55810400  0.87833300  0.11131600  1
  Si  Si1_7  1  0.55810400  0.87833300  0.61131600  1
loop_
_geom_bond_atom_site_label_1
_geom_bond_atom_site_label_2
_geom_bond_distance
_geom_bond_site_symmetry_2
Mg0_0 Si1_0 2.830871 1_555
Mg0_0 Si1_4 2.844725 1_555
Mg0_0 Mg2_0 2.973467 1_555
Mg0_0 Mg0_4 2.977874 1_455
Mg0_0 Mg0_4 2.977874 1_555
Mg0_0 Mg2_4 2.980880 1_555
Mg0_0 Si0_2 2.994347 1_555
Mg0_0 Mg2_2 2.996007 1_555
Mg0_0 Mg2_6 3.003102 1_555
Mg0_0 Mg3_4 3.017017 1_555
Mg0_0 Mg3_0 3.029364 1_555
Mg0_0 Si0_0 3.198045 1_555
Mg0_1 Si1_1 2.830871 1_555
Mg0_1 Si1_5 2.844725 1_555
Mg0_1 Mg2_1 2.973467 1_555
Mg0_1 Mg0_5 2.977874 1_555
Mg0_1 Mg0_5 2.977874 1_455
Mg0_1 Mg2_5 2.980880 1_555
Mg0_1 Si0_3 2.994347 1_555
Mg0_1 Mg2_3 2.996007 1_555
Mg0_1 Mg2_7 3.003102 1_555
Mg0_1 Mg3_5 3.017017 1_555
Mg0_1 Mg3_1 3.029364 1_555
Mg0_1 Si0_1 3.198045 1_555
Mg0_2 Si1_2 2.830871 1_555
Mg0_2 Si1_6 2.844725 1_555
Mg0_2 Mg2_2 2.973467 1_555
Mg0_2 Mg0_6 2.977874 1_455
Mg0_2 Mg0_6 2.977874 1_555
Mg0_2 Mg2_6 2.980880 1_555
Mg0_2 Si0_0 2.994347 1_565
Mg0_2 Mg2_0 2.996007 1_565
Mg0_2 Mg2_4 3.003102 1_565
Mg0_2 Mg3_6 3.017017 1_555
Mg0_2 Mg3_2 3.029364 1_555
Mg0_2 Si0_2 3.198045 1_555
Mg0_3 Si1_3 2.830871 1_555
Mg0_3 Si1_7 2.844725 1_555
Mg0_3 Mg2_3 2.973467 1_555
Mg0_3 Mg0_7 2.977874 1_455
Mg0_3 Mg0_7 2.977874 1_555
Mg0_3 Mg2_7 2.980880 1_555
Mg0_3 Si0_1 2.994347 1_565
Mg0_3 Mg2_1 2.996007 1_565
Mg0_3 Mg2_5 3.003102 1_565
Mg0_3 Mg3_7 3.017017 1_555
Mg0_3 Mg3_3 3.029364 1_555
Mg0_3 Si0_3 3.198045 1_555
Mg0_4 Si1_4 2.830871 1_555
Mg0_4 Si1_0 2.844725 1_655
Mg0_4 Mg2_4 2.973467 1_555
Mg0_4 Mg2_0 2.980880 1_655
Mg0_4 Si0_6 2.994347 1_555
Mg0_4 Mg2_6 2.996007 1_555
Mg0_4 Mg2_2 3.003102 1_655
Mg0_4 Mg3_0 3.017017 1_655
Mg0_4 Mg3_4 3.029364 1_555
Mg0_4 Si0_4 3.198045 1_555
Mg0_5 Si1_5 2.830871 1_555
Mg0_5 Si1_1 2.844725 1_655
Mg0_5 Mg2_5 2.973467 1_555
Mg0_5 Mg2_1 2.980880 1_655
Mg0_5 Si0_7 2.994347 1_555
Mg0_5 Mg2_7 2.996007 1_555
Mg0_5 Mg2_3 3.003102 1_655
Mg0_5 Mg3_1 3.017017 1_655
Mg0_5 Mg3_5 3.029364 1_555
Mg0_5 Si0_5 3.198045 1_555
Mg0_6 Si1_6 2.830871 1_555
Mg0_6 Si1_2 2.844725 1_655
Mg0_6 Mg2_6 2.973467 1_555
Mg0_6 Mg2_2 2.980880 1_655
Mg0_6 Si0_4 2.994347 1_565
Mg0_6 Mg2_4 2.996007 1_565
Mg0_6 Mg2_0 3.003102 1_665
Mg0_6 Mg3_2 3.017017 1_655
Mg0_6 Mg3_6 3.029364 1_555
Mg0_6 Si0_6 3.198045 1_555
Mg0_7 Si1_7 2.830871 1_555
Mg0_7 Si1_3 2.844725 1_655
Mg0_7 Mg2_7 2.973467 1_555
Mg0_7 Mg2_3 2.980880 1_655
Mg0_7 Si0_5 2.994347 1_565
Mg0_7 Mg2_5 2.996007 1_565
Mg0_7 Mg2_1 3.003102 1_665
Mg0_7 Mg3_3 3.017017 1_655
Mg0_7 Mg3_7 3.029364 1_555
Mg0_7 Si0_7 3.198045 1_555
Mg1_0 Si0_1 2.935970 1_554
Mg1_0 Mg1_4 2.977874 1_455
Mg1_0 Mg1_4 2.977874 1_555
Mg1_0 Si0_5 2.980041 1_454
Mg1_0 Si1_4 3.011110 1_555
Mg1_0 Mg2_4 3.017017 1_555
Mg1_0 Si1_0 3.017772 1_555
Mg1_0 Mg2_0 3.029364 1_555
Mg1_0 Mg3_3 3.030040 1_544
Mg1_0 Si1_6 3.061595 1_545
Mg1_0 Si1_2 3.067892 1_545
Mg1_0 Mg3_1 3.079447 1_554
Mg1_1 Si0_0 2.935970 1_555
Mg1_1 Mg1_5 2.977874 1_455
Mg1_1 Mg1_5 2.977874 1_555
Mg1_1 Si0_4 2.980041 1_455
Mg1_1 Si1_5 3.011110 1_555
Mg1_1 Mg2_5 3.017017 1_555
Mg1_1 Si1_1 3.017772 1_555
Mg1_1 Mg2_1 3.029364 1_555
Mg1_1 Mg3_2 3.030040 1_545
Mg1_1 Si1_7 3.061595 1_545
Mg1_1 Si1_3 3.067892 1_545
Mg1_1 Mg3_0 3.079447 1_555
Mg1_2 Si0_3 2.935970 1_554
Mg1_2 Mg1_6 2.977874 1_455
Mg1_2 Mg1_6 2.977874 1_555
Mg1_2 Si0_7 2.980041 1_454
Mg1_2 Si1_6 3.011110 1_555
Mg1_2 Mg2_6 3.017017 1_555
Mg1_2 Si1_2 3.017772 1_555
Mg1_2 Mg2_2 3.029364 1_555
Mg1_2 Mg3_1 3.030040 1_554
Mg1_2 Si1_4 3.061595 1_555
Mg1_2 Si1_0 3.067892 1_555
Mg1_2 Mg3_3 3.079447 1_554
Mg1_3 Si0_2 2.935970 1_555
Mg1_3 Mg1_7 2.977874 1_555
Mg1_3 Mg1_7 2.977874 1_455
Mg1_3 Si0_6 2.980041 1_455
Mg1_3 Si1_7 3.011110 1_555
Mg1_3 Mg2_7 3.017017 1_555
Mg1_3 Si1_3 3.017772 1_555
Mg1_3 Mg2_3 3.029364 1_555
Mg1_3 Mg3_0 3.030040 1_555
Mg1_3 Si1_5 3.061595 1_555
Mg1_3 Si1_1 3.067892 1_555
Mg1_3 Mg3_2 3.079447 1_555
Mg1_4 Si0_5 2.935970 1_554
Mg1_4 Si0_1 2.980041 1_554
Mg1_4 Si1_0 3.011110 1_655
Mg1_4 Mg2_0 3.017017 1_655
Mg1_4 Si1_4 3.017772 1_555
Mg1_4 Mg2_4 3.029364 1_555
Mg1_4 Mg3_7 3.030040 1_544
Mg1_4 Si1_2 3.061595 1_645
Mg1_4 Si1_6 3.067892 1_545
Mg1_4 Mg3_5 3.079447 1_554
Mg1_5 Si0_4 2.935970 1_555
Mg1_5 Si0_0 2.980041 1_555
Mg1_5 Si1_1 3.011110 1_655
Mg1_5 Mg2_1 3.017017 1_655
Mg1_5 Si1_5 3.017772 1_555
Mg1_5 Mg2_5 3.029364 1_555
Mg1_5 Mg3_6 3.030040 1_545
Mg1_5 Si1_3 3.061595 1_645
Mg1_5 Si1_7 3.067892 1_545
Mg1_5 Mg3_4 3.079447 1_555
Mg1_6 Si0_7 2.935970 1_554
Mg1_6 Si0_3 2.980041 1_554
Mg1_6 Si1_2 3.011110 1_655
Mg1_6 Mg2_2 3.017017 1_655
Mg1_6 Si1_6 3.017772 1_555
Mg1_6 Mg2_6 3.029364 1_555
Mg1_6 Mg3_5 3.030040 1_554
Mg1_6 Si1_0 3.061595 1_655
Mg1_6 Si1_4 3.067892 1_555
Mg1_6 Mg3_7 3.079447 1_554
Mg1_7 Si0_6 2.935970 1_555
Mg1_7 Si0_2 2.980041 1_555
Mg1_7 Si1_3 3.011110 1_655
Mg1_7 Mg2_3 3.017017 1_655
Mg1_7 Si1_7 3.017772 1_555
Mg1_7 Mg2_7 3.029364 1_555
Mg1_7 Mg3_4 3.030040 1_555
Mg1_7 Si1_1 3.061595 1_655
Mg1_7 Si1_5 3.067892 1_555
Mg1_7 Mg3_6 3.079447 1_555
Mg2_0 Si0_0 2.830871 1_555
Mg2_0 Si0_4 2.844725 1_455
Mg2_0 Mg2_4 2.977874 1_455
Mg2_0 Mg2_4 2.977874 1_555
Mg2_0 Si1_2 2.994347 1_545
Mg2_0 Si1_0 3.198045 1_555
Mg2_1 Si0_1 2.830871 1_555
Mg2_1 Si0_5 2.844725 1_455
Mg2_1 Mg2_5 2.977874 1_555
Mg2_1 Mg2_5 2.977874 1_455
Mg2_1 Si1_3 2.994347 1_545
Mg2_1 Si1_1 3.198045 1_555
Mg2_2 Si0_2 2.830871 1_555
Mg2_2 Si0_6 2.844725 1_455
Mg2_2 Mg2_6 2.977874 1_555
Mg2_2 Mg2_6 2.977874 1_455
Mg2_2 Si1_0 2.994347 1_555
Mg2_2 Si1_2 3.198045 1_555
Mg2_3 Si0_3 2.830871 1_555
Mg2_3 Si0_7 2.844725 1_455
Mg2_3 Mg2_7 2.977874 1_455
Mg2_3 Mg2_7 2.977874 1_555
Mg2_3 Si1_1 2.994347 1_555
Mg2_3 Si1_3 3.198045 1_555
Mg2_4 Si0_4 2.830871 1_555
Mg2_4 Si0_0 2.844725 1_555
Mg2_4 Si1_6 2.994347 1_545
Mg2_4 Si1_4 3.198045 1_555
Mg2_5 Si0_5 2.830871 1_555
Mg2_5 Si0_1 2.844725 1_555
Mg2_5 Si1_7 2.994347 1_545
Mg2_5 Si1_5 3.198045 1_555
Mg2_6 Si0_6 2.830871 1_555
Mg2_6 Si0_2 2.844725 1_555
Mg2_6 Si1_4 2.994347 1_555
Mg2_6 Si1_6 3.198045 1_555
Mg2_7 Si0_7 2.830871 1_555
Mg2_7 Si0_3 2.844725 1_555
Mg2_7 Si1_5 2.994347 1_555
Mg2_7 Si1_7 3.198045 1_555
Mg3_0 Si1_1 2.935970 1_555
Mg3_0 Mg3_4 2.977874 1_455
Mg3_0 Mg3_4 2.977874 1_555
Mg3_0 Si1_5 2.980041 1_555
Mg3_0 Si0_4 3.011110 1_455
Mg3_0 Si0_0 3.017772 1_555
Mg3_0 Si0_6 3.061595 1_455
Mg3_0 Si0_2 3.067892 1_555
Mg3_1 Si1_0 2.935970 1_556
Mg3_1 Mg3_5 2.977874 1_555
Mg3_1 Mg3_5 2.977874 1_455
Mg3_1 Si1_4 2.980041 1_556
Mg3_1 Si0_5 3.011110 1_455
Mg3_1 Si0_1 3.017772 1_555
Mg3_1 Si0_7 3.061595 1_455
Mg3_1 Si0_3 3.067892 1_555
Mg3_2 Si1_3 2.935970 1_555
Mg3_2 Mg3_6 2.977874 1_455
Mg3_2 Mg3_6 2.977874 1_555
Mg3_2 Si1_7 2.980041 1_555
Mg3_2 Si0_6 3.011110 1_455
Mg3_2 Si0_2 3.017772 1_555
Mg3_2 Si0_4 3.061595 1_465
Mg3_2 Si0_0 3.067892 1_565
Mg3_3 Si1_2 2.935970 1_556
Mg3_3 Mg3_7 2.977874 1_555
Mg3_3 Mg3_7 2.977874 1_455
Mg3_3 Si1_6 2.980041 1_556
Mg3_3 Si0_7 3.011110 1_455
Mg3_3 Si0_3 3.017772 1_555
Mg3_3 Si0_5 3.061595 1_465
Mg3_3 Si0_1 3.067892 1_565
Mg3_4 Si1_5 2.935970 1_555
Mg3_4 Si1_1 2.980041 1_655
Mg3_4 Si0_0 3.011110 1_555
Mg3_4 Si0_4 3.017772 1_555
Mg3_4 Si0_2 3.061595 1_555
Mg3_4 Si0_6 3.067892 1_555
Mg3_5 Si1_4 2.935970 1_556
Mg3_5 Si1_0 2.980041 1_656
Mg3_5 Si0_1 3.011110 1_555
Mg3_5 Si0_5 3.017772 1_555
Mg3_5 Si0_3 3.061595 1_555
Mg3_5 Si0_7 3.067892 1_555
Mg3_6 Si1_7 2.935970 1_555
Mg3_6 Si1_3 2.980041 1_655
Mg3_6 Si0_2 3.011110 1_555
Mg3_6 Si0_6 3.017772 1_555
Mg3_6 Si0_0 3.061595 1_565
Mg3_6 Si0_4 3.067892 1_565
Mg3_7 Si1_6 2.935970 1_556
Mg3_7 Si1_2 2.980041 1_656
Mg3_7 Si0_3 3.011110 1_555
Mg3_7 Si0_7 3.017772 1_555
Mg3_7 Si0_1 3.061595 1_565
Mg3_7 Si0_5 3.067892 1_565
