# generated using pymatgen
data_GdAgS2
_symmetry_space_group_name_H-M   'P 1'
_cell_length_a   7.69659600
_cell_length_b   7.71511600
_cell_length_c   12.79252487
_cell_angle_alpha   89.54754203
_cell_angle_beta   90.00000000
_cell_angle_gamma   90.00000000
_symmetry_Int_Tables_number   1
_chemical_formula_structural   GdAgS2
_chemical_formula_sum   'Gd8 Ag8 S16'
_cell_volume   759.59811695
_cell_formula_units_Z   8
loop_
 _symmetry_equiv_pos_site_id
 _symmetry_equiv_pos_as_xyz
  1  'x, y, z'
loop_
 _atom_site_type_symbol
 _atom_site_label
 _atom_site_symmetry_multiplicity
 _atom_site_fract_x
 _atom_site_fract_y
 _atom_site_fract_z
 _atom_site_occupancy
  Gd  Gd0  1  0.50455300  0.74633800  0.00308600  1
  Gd  Gd1  1  0.00455300  0.25366200  0.99691400  1
  Gd  Gd2  1  0.25712100  0.00186100  0.75290200  1
  Gd  Gd3  1  0.75712100  0.99813900  0.24709800  1
  Gd  Gd4  1  0.74871700  0.50197000  0.74753800  1
  Gd  Gd5  1  0.24871700  0.49803000  0.25246200  1
  Gd  Gd6  1  0.00320900  0.75255600  0.50299200  1
  Gd  Gd7  1  0.50320900  0.24744400  0.49700800  1
  Ag  Ag0  1  0.24928900  0.50017500  0.79063000  1
  Ag  Ag1  1  0.74928900  0.49982500  0.20937000  1
  Ag  Ag2  1  0.75392600  0.99810000  0.69650600  1
  Ag  Ag3  1  0.25392600  0.00190000  0.30349400  1
  Ag  Ag4  1  0.00408000  0.75651800  0.03266900  1
  Ag  Ag5  1  0.50408000  0.24348200  0.96733100  1
  Ag  Ag6  1  0.49936400  0.74218600  0.52942400  1
  Ag  Ag7  1  0.99936400  0.25781400  0.47057600  1
  S  S0  1  0.78024500  0.02708700  0.46531400  1
  S  S1  1  0.28024500  0.97291300  0.53468600  1
  S  S2  1  0.22959600  0.47682200  0.47119400  1
  S  S3  1  0.72959600  0.52317800  0.52880600  1
  S  S4  1  0.52548800  0.72572200  0.22149900  1
  S  S5  1  0.02548800  0.27427800  0.77850100  1
  S  S6  1  0.47625000  0.72465000  0.78627300  1
  S  S7  1  0.97625000  0.27535000  0.21372700  1
  S  S8  1  0.97996500  0.77495300  0.72080500  1
  S  S9  1  0.47996500  0.22504700  0.27919500  1
  S  S10  1  0.52967500  0.22461300  0.71353300  1
  S  S11  1  0.02967500  0.77538700  0.28646700  1
  S  S12  1  0.27588200  0.02143300  0.97078100  1
  S  S13  1  0.77588200  0.97856700  0.02921900  1
  S  S14  1  0.72623900  0.47245000  0.96456300  1
  S  S15  1  0.22623900  0.52755000  0.03543700  1
loop_
_geom_bond_atom_site_label_1
_geom_bond_atom_site_label_2
_geom_bond_distance
_geom_bond_site_symmetry_2
Gd0 S15 2.756441 1_555
Gd0 S14 2.763262 1_554
Gd0 S13 2.773509 1_555
Gd0 S12 2.785504 1_564
Gd0 S6 2.788469 1_554
Gd0 S4 2.801960 1_555
Gd1 S14 2.756441 1_455
Gd1 S15 2.763262 1_556
Gd1 S12 2.773509 1_555
Gd1 S13 2.785504 1_446
Gd1 S7 2.788469 1_456
Gd1 S5 2.801960 1_555
Gd2 S6 2.754336 1_545
Gd2 S10 2.755706 1_555
Gd2 S5 2.777355 1_555
Gd2 S8 2.791950 1_445
Gd2 S12 2.796231 1_555
Gd2 S1 2.807857 1_545
Gd3 S7 2.754336 1_565
Gd3 S11 2.755706 1_655
Gd3 S4 2.777355 1_555
Gd3 S9 2.791950 1_565
Gd3 S13 2.796231 1_555
Gd3 S0 2.807857 1_565
Gd4 S6 2.758298 1_555
Gd4 S10 2.761348 1_555
Gd4 S8 2.776506 1_555
Gd4 S5 2.787386 1_655
Gd4 S14 2.789201 1_555
Gd4 S3 2.805487 1_555
Gd5 S7 2.758298 1_455
Gd5 S11 2.761348 1_555
Gd5 S9 2.776506 1_555
Gd5 S4 2.787386 1_555
Gd5 S15 2.789201 1_555
Gd5 S2 2.805487 1_555
Gd6 S1 2.758979 1_555
Gd6 S0 2.765350 1_465
Gd6 S3 2.768817 1_455
Gd6 S11 2.781577 1_555
Gd6 S2 2.782196 1_555
Gd6 S8 2.798816 1_455
Gd7 S0 2.758979 1_555
Gd7 S1 2.765350 1_545
Gd7 S2 2.768817 1_555
Gd7 S10 2.781577 1_555
Gd7 S3 2.782196 1_555
Gd7 S9 2.798816 1_555
Ag0 S5 2.456176 1_555
Ag0 S6 2.460141 1_555
Ag0 S8 3.091756 1_455
Ag1 S4 2.456176 1_555
Ag1 S7 2.460141 1_555
Ag1 S9 3.091756 1_555
Ag2 S8 2.465514 1_555
Ag2 S10 2.467072 1_565
Ag2 S0 2.971125 1_565
Ag2 S5 3.169250 1_665
Ag3 S9 2.465514 1_555
Ag3 S11 2.467072 1_545
Ag3 S1 2.971125 1_545
Ag3 S4 3.169250 1_545
Ag4 S13 2.453638 1_455
Ag4 S15 2.458554 1_555
Ag4 S12 3.025693 1_564
Ag5 S12 2.453638 1_555
Ag5 S14 2.458554 1_555
Ag5 S13 3.025693 1_546
Ag6 S3 2.448522 1_555
Ag6 S1 2.453428 1_555
Ag6 S2 3.013548 1_555
Ag6 S0 3.185755 1_565
Ag7 S2 2.448522 1_655
Ag7 S0 2.453428 1_555
Ag7 S3 3.013548 1_555
Ag7 S1 3.185755 1_645
