# generated using pymatgen
data_Mg2Zn
_symmetry_space_group_name_H-M   'P 1'
_cell_length_a   7.73998228
_cell_length_b   7.73998228
_cell_length_c   4.72714492
_cell_angle_alpha   90.00000000
_cell_angle_beta   90.00000000
_cell_angle_gamma   156.29132072
_symmetry_Int_Tables_number   1
_chemical_formula_structural   Mg2Zn
_chemical_formula_sum   'Mg4 Zn2'
_cell_volume   113.86711514
_cell_formula_units_Z   2
loop_
 _symmetry_equiv_pos_site_id
 _symmetry_equiv_pos_as_xyz
  1  'x, y, z'
loop_
 _atom_site_type_symbol
 _atom_site_label
 _atom_site_symmetry_multiplicity
 _atom_site_fract_x
 _atom_site_fract_y
 _atom_site_fract_z
 _atom_site_occupancy
  Mg  Mg0  1  0.09258324  0.90741676  0.25000000  1
  Mg  Mg1  1  0.78237752  0.21762248  0.25000000  1
  Mg  Mg2  1  0.21762248  0.78237752  0.75000000  1
  Mg  Mg3  1  0.90741676  0.09258324  0.75000000  1
  Zn  Zn0  1  0.44052989  0.55947011  0.25000000  1
  Zn  Zn1  1  0.55947011  0.44052989  0.75000000  1
loop_
_geom_bond_atom_site_label_1
_geom_bond_atom_site_label_2
_geom_bond_distance
_geom_bond_site_symmetry_2
Mg0 Zn0 2.799022 1_455
Mg0 Zn0 2.799022 1_565
Mg0 Zn1 2.892434 1_455
Mg0 Zn1 2.892434 1_564
Mg0 Zn1 2.892434 1_454
Mg0 Zn1 2.892434 1_565
Mg1 Zn0 2.875545 1_545
Mg1 Zn0 2.875545 1_655
Mg2 Zn1 2.875545 1_565
Mg2 Zn1 2.875545 1_455
Mg3 Zn1 2.799022 1_545
Mg3 Zn1 2.799022 1_655
Mg3 Zn0 2.892434 1_546
Mg3 Zn0 2.892434 1_655
Mg3 Zn0 2.892434 1_656
Mg3 Zn0 2.892434 1_545
