# generated using pymatgen
data_MnH8SN2O4F3
_symmetry_space_group_name_H-M   'P 1'
_cell_length_a   11.32744800
_cell_length_b   7.30817200
_cell_length_c   8.87012671
_cell_angle_alpha   89.39547850
_cell_angle_beta   90.00000000
_cell_angle_gamma   90.00000000
_symmetry_Int_Tables_number   1
_chemical_formula_structural   MnH8SN2O4F3
_chemical_formula_sum   'Mn4 H32 S4 N8 O16 F12'
_cell_volume   734.25428143
_cell_formula_units_Z   4
loop_
 _symmetry_equiv_pos_site_id
 _symmetry_equiv_pos_as_xyz
  1  'x, y, z'
loop_
 _atom_site_type_symbol
 _atom_site_label
 _atom_site_symmetry_multiplicity
 _atom_site_fract_x
 _atom_site_fract_y
 _atom_site_fract_z
 _atom_site_occupancy
  Mn  Mn0  1  0.00000000  0.50000000  0.00000000  1
  Mn  Mn1  1  0.50000000  0.50000000  0.50000000  1
  Mn  Mn2  1  0.00000000  0.00000000  0.00000000  1
  Mn  Mn3  1  0.50000000  0.00000000  0.50000000  1
  H  H0  1  0.27408600  0.79294000  0.31513200  1
  H  H1  1  0.77408600  0.20706000  0.18486800  1
  H  H2  1  0.72591400  0.20706000  0.68486800  1
  H  H3  1  0.22591400  0.79294000  0.81513200  1
  H  H4  1  0.16258000  0.94119200  0.34475800  1
  H  H5  1  0.66258000  0.05880800  0.15524200  1
  H  H6  1  0.83742000  0.05880800  0.65524200  1
  H  H7  1  0.33742000  0.94119200  0.84475800  1
  H  H8  1  0.16099200  0.73504300  0.43068000  1
  H  H9  1  0.66099200  0.26495700  0.06932000  1
  H  H10  1  0.83900800  0.26495700  0.56932000  1
  H  H11  1  0.33900800  0.73504300  0.93068000  1
  H  H12  1  0.13779300  0.75504400  0.24152700  1
  H  H13  1  0.63779300  0.24495600  0.25847300  1
  H  H14  1  0.86220700  0.24495600  0.75847300  1
  H  H15  1  0.36220700  0.75504400  0.74152700  1
  H  H16  1  0.34348700  0.43034300  0.15693300  1
  H  H17  1  0.84348700  0.56965700  0.34306700  1
  H  H18  1  0.65651300  0.56965700  0.84306700  1
  H  H19  1  0.15651300  0.43034300  0.65693300  1
  H  H20  1  0.36981900  0.24025900  0.25877500  1
  H  H21  1  0.86981900  0.75974100  0.24122500  1
  H  H22  1  0.63018100  0.75974100  0.74122500  1
  H  H23  1  0.13018100  0.24025900  0.75877500  1
  H  H24  1  0.23044200  0.28988300  0.20101300  1
  H  H25  1  0.73044200  0.71011700  0.29898700  1
  H  H26  1  0.76955800  0.71011700  0.79898700  1
  H  H27  1  0.26955800  0.28988300  0.70101300  1
  H  H28  1  0.33277300  0.22646700  0.07331500  1
  H  H29  1  0.83277300  0.77353300  0.42668500  1
  H  H30  1  0.66722700  0.77353300  0.92668500  1
  H  H31  1  0.16722700  0.22646700  0.57331500  1
  S  S0  1  0.00089700  0.25128800  0.29894400  1
  S  S1  1  0.50089700  0.74871200  0.20105600  1
  S  S2  1  0.99910300  0.74871200  0.70105600  1
  S  S3  1  0.49910300  0.25128800  0.79894400  1
  N  N0  1  0.18444300  0.80425400  0.33223800  1
  N  N1  1  0.68444300  0.19574600  0.16776200  1
  N  N2  1  0.81555700  0.19574600  0.66776200  1
  N  N3  1  0.31555700  0.80425400  0.83223800  1
  N  N4  1  0.31853300  0.29536500  0.17337700  1
  N  N5  1  0.81853300  0.70463500  0.32662300  1
  N  N6  1  0.68146700  0.70463500  0.82662300  1
  N  N7  1  0.18146700  0.29536500  0.67337700  1
  O  O0  1  0.44324900  0.89319400  0.29716900  1
  O  O1  1  0.94324900  0.10680600  0.20283100  1
  O  O2  1  0.55675100  0.10680600  0.70283100  1
  O  O3  1  0.05675100  0.89319400  0.79716900  1
  O  O4  1  0.05774000  0.39430700  0.19752200  1
  O  O5  1  0.55774000  0.60569300  0.30247800  1
  O  O6  1  0.94226000  0.60569300  0.80247800  1
  O  O7  1  0.44226000  0.39430700  0.69752200  1
  O  O8  1  0.90827900  0.33655900  0.39147600  1
  O  O9  1  0.40827900  0.66344100  0.10852400  1
  O  O10  1  0.09172100  0.66344100  0.60852400  1
  O  O11  1  0.59172100  0.33655900  0.89147600  1
  O  O12  1  0.09635600  0.16909800  0.39038200  1
  O  O13  1  0.59635600  0.83090200  0.10961800  1
  O  O14  1  0.90364400  0.83090200  0.60961800  1
  O  O15  1  0.40364400  0.16909800  0.89038200  1
  F  F0  1  0.34383100  0.52445700  0.44561300  1
  F  F1  1  0.84383100  0.47554300  0.05438700  1
  F  F2  1  0.65616900  0.47554300  0.55438700  1
  F  F3  1  0.15616900  0.52445700  0.94561300  1
  F  F4  1  0.15706300  0.02876200  0.04693900  1
  F  F5  1  0.65706300  0.97123800  0.45306100  1
  F  F6  1  0.84293700  0.97123800  0.95306100  1
  F  F7  1  0.34293700  0.02876200  0.54693900  1
  F  F8  1  0.00307400  0.75215100  0.09855300  1
  F  F9  1  0.50307400  0.24784900  0.40144700  1
  F  F10  1  0.99692600  0.24784900  0.90144700  1
  F  F11  1  0.49692600  0.75215100  0.59855300  1
loop_
_geom_bond_atom_site_label_1
_geom_bond_atom_site_label_2
_geom_bond_distance
_geom_bond_site_symmetry_2
Mn0 O4 2.016313 1_555
Mn0 O6 2.016313 1_454
Mn1 O7 2.016313 1_555
Mn1 O5 2.016313 1_555
Mn2 O1 2.071001 1_455
Mn2 O3 2.071001 1_544
Mn3 O2 2.071001 1_555
Mn3 O0 2.071001 1_545
H0 N0 1.030153 1_555
H1 N1 1.030153 1_555
H2 N2 1.030153 1_555
H3 N3 1.030153 1_555
H4 N0 1.038048 1_555
H5 N1 1.038048 1_555
H6 N2 1.038048 1_555
H7 N3 1.038048 1_555
H8 N0 1.039014 1_555
H9 N1 1.039014 1_555
H10 N2 1.039014 1_555
H11 N3 1.039014 1_555
H12 N0 1.030576 1_555
H13 N1 1.030576 1_555
H14 N2 1.030576 1_555
H15 N3 1.030576 1_555
H16 N4 1.034991 1_555
H17 N5 1.034991 1_555
H18 N6 1.034991 1_555
H19 N7 1.034991 1_555
H20 N4 1.032973 1_555
H21 N5 1.032973 1_555
H22 N6 1.032973 1_555
H23 N7 1.032973 1_555
H24 N4 1.028196 1_555
H25 N5 1.028196 1_555
H26 N6 1.028196 1_555
H27 N7 1.028196 1_555
H28 N4 1.037664 1_555
H29 N5 1.037664 1_555
H30 N6 1.037664 1_555
H31 N7 1.037664 1_555
O0 S1 1.512332 1_555
O1 S0 1.512332 1_655
O2 S3 1.512332 1_555
O3 S2 1.512332 1_455
O4 S0 1.515432 1_555
O5 S1 1.515432 1_555
O6 S2 1.515432 1_555
O7 S3 1.515432 1_555
O8 S0 1.474269 1_655
O9 S1 1.474269 1_555
O10 S2 1.474269 1_455
O11 S3 1.474269 1_555
O12 S0 1.475657 1_555
O13 S1 1.475657 1_555
O14 S2 1.475657 1_555
O15 S3 1.475657 1_555
F0 Mn1 1.841794 1_555
F1 Mn0 1.841794 1_655
F2 Mn1 1.841794 1_555
F3 Mn0 1.841794 1_556
F4 Mn2 1.839744 1_555
F5 Mn3 1.839744 1_565
F6 Mn2 1.839744 1_666
F7 Mn3 1.839744 1_555
F8 Mn2 2.003217 1_565
F8 Mn0 2.048210 1_555
F9 Mn3 2.003217 1_555
F9 Mn1 2.048210 1_555
F10 Mn2 2.003217 1_656
F10 Mn0 2.048210 1_656
F11 Mn3 2.003217 1_565
F11 Mn1 2.048210 1_555
