# generated using pymatgen
data_SrAl2(SiO4)2
_symmetry_space_group_name_H-M   'P 1'
_cell_length_a   10.25453144
_cell_length_b   9.87755754
_cell_length_c   9.87753394
_cell_angle_alpha   73.79938615
_cell_angle_beta   76.62496530
_cell_angle_gamma   76.63297943
_symmetry_Int_Tables_number   1
_chemical_formula_structural   SrAl2(SiO4)2
_chemical_formula_sum   'Sr4 Al8 Si8 O32'
_cell_volume   919.71412006
_cell_formula_units_Z   4
loop_
 _symmetry_equiv_pos_site_id
 _symmetry_equiv_pos_as_xyz
  1  'x, y, z'
loop_
 _atom_site_type_symbol
 _atom_site_label
 _atom_site_symmetry_multiplicity
 _atom_site_fract_x
 _atom_site_fract_y
 _atom_site_fract_z
 _atom_site_occupancy
  Sr  Sr0  1  0.26349100  0.07818800  0.33349600  1
  Sr  Sr1  1  0.73650900  0.92181200  0.66650400  1
  Sr  Sr2  1  0.23650300  0.66651300  0.92179100  1
  Sr  Sr3  1  0.76349700  0.33348700  0.07820900  1
  Al  Al0  1  0.10577400  0.09400200  0.06597200  1
  Al  Al1  1  0.90381900  0.70252000  0.44471400  1
  Al  Al2  1  0.39421500  0.93402600  0.90596900  1
  Al  Al3  1  0.40382500  0.44472500  0.70251700  1
  Al  Al4  1  0.60578500  0.06597400  0.09403100  1
  Al  Al5  1  0.09618100  0.29748000  0.55528600  1
  Al  Al6  1  0.89422600  0.90599800  0.93402800  1
  Al  Al7  1  0.59617500  0.55527500  0.29748300  1
  Si  Si0  1  0.35137400  0.22688300  0.99175200  1
  Si  Si1  1  0.64862600  0.77311700  0.00824800  1
  Si  Si2  1  0.02595800  0.46492700  0.25882400  1
  Si  Si3  1  0.97404200  0.53507200  0.74117600  1
  Si  Si4  1  0.14864800  0.00824500  0.77308800  1
  Si  Si5  1  0.85135200  0.99175500  0.22691200  1
  Si  Si6  1  0.47399700  0.74121400  0.53505100  1
  Si  Si7  1  0.52600300  0.25878600  0.46494900  1
  O  O0  1  0.90053900  0.67657900  0.62521000  1
  O  O1  1  0.09701100  0.10541500  0.89010000  1
  O  O2  1  0.42471200  0.36187600  0.56897900  1
  O  O3  1  0.59946800  0.37479000  0.32339600  1
  O  O4  1  0.36840200  0.86531500  0.45826100  1
  O  O5  1  0.36316700  0.38746700  0.88591400  1
  O  O6  1  0.07533700  0.43103500  0.63810300  1
  O  O7  1  0.30108200  0.83969900  0.07096800  1
  O  O8  1  0.59698900  0.89012900  0.10543200  1
  O  O9  1  0.44663600  0.18301900  0.11747700  1
  O  O10  1  0.57528800  0.63812400  0.43102100  1
  O  O11  1  0.69562700  0.07925600  0.22143500  1
  O  O12  1  0.40053200  0.62521000  0.67660400  1
  O  O13  1  0.05336000  0.88251700  0.81697700  1
  O  O14  1  0.13685700  0.11409600  0.61250500  1
  O  O15  1  0.19566400  0.22138700  0.07927200  1
  O  O16  1  0.63159800  0.13468500  0.54173900  1
  O  O17  1  0.92466300  0.56896500  0.36189700  1
  O  O18  1  0.86314300  0.88590400  0.38749500  1
  O  O19  1  0.09946100  0.32342100  0.37479000  1
  O  O20  1  0.55336400  0.81698100  0.88252300  1
  O  O21  1  0.40301100  0.10987100  0.89456800  1
  O  O22  1  0.80433600  0.77861300  0.92072800  1
  O  O23  1  0.30437300  0.92074400  0.77856500  1
  O  O24  1  0.13154500  0.54176400  0.13465300  1
  O  O25  1  0.90298900  0.89458500  0.10990000  1
  O  O26  1  0.63683300  0.61253300  0.11408600  1
  O  O27  1  0.80109900  0.07097800  0.83971600  1
  O  O28  1  0.69891800  0.16030100  0.92903200  1
  O  O29  1  0.86845500  0.45823600  0.86534700  1
  O  O30  1  0.94664000  0.11748300  0.18302300  1
  O  O31  1  0.19890100  0.92902200  0.16028400  1
loop_
_geom_bond_atom_site_label_1
_geom_bond_atom_site_label_2
_geom_bond_distance
_geom_bond_site_symmetry_2
Al0 O1 1.731139 1_554
Al0 O15 1.770502 1_555
Al0 O30 1.776290 1_455
Al0 O31 1.811165 1_545
Al1 O17 1.687018 1_555
Al1 O18 1.721333 1_555
Al1 O0 1.722408 1_555
Al2 O21 1.730982 1_565
Al2 O23 1.770323 1_555
Al2 O20 1.776458 1_555
Al2 O7 1.811183 1_556
Al3 O2 1.686998 1_555
Al3 O5 1.721389 1_555
Al3 O12 1.722323 1_555
Al4 O8 1.730982 1_545
Al4 O11 1.770323 1_555
Al4 O9 1.776458 1_555
Al4 O28 1.811183 1_554
Al5 O6 1.687018 1_555
Al5 O14 1.721333 1_555
Al5 O19 1.722408 1_555
Al6 O25 1.731139 1_556
Al6 O22 1.770502 1_555
Al6 O13 1.776290 1_655
Al6 O27 1.811165 1_565
Al7 O10 1.686998 1_555
Al7 O26 1.721389 1_555
Al7 O3 1.722323 1_555
O0 Si3 1.689023 1_555
O0 Sr1 2.685739 1_555
O1 Si4 1.624293 1_555
O2 Si7 1.665135 1_555
O3 Si7 1.689158 1_555
O3 Sr3 2.685219 1_555
O4 Si6 1.580470 1_555
O4 Sr0 2.284476 1_565
O5 Si0 1.651786 1_555
O5 Sr2 2.843687 1_555
O6 Si3 1.665086 1_455
O7 Sr2 2.813871 1_554
O8 Si1 1.624401 1_555
O9 Si0 1.658163 1_554
O9 Sr0 2.639035 1_555
O10 Si6 1.665135 1_555
O11 Si5 1.635756 1_545
O11 Sr3 2.676201 1_555
O12 Si6 1.689158 1_555
O12 Sr2 2.685219 1_555
O13 Si4 1.658222 1_565
O13 Sr2 2.639197 1_555
O14 Si4 1.651843 1_555
O14 Sr0 2.843230 1_555
O15 Si0 1.635576 1_554
O15 Sr0 2.676065 1_555
O16 Si7 1.580470 1_555
O16 Sr1 2.284476 1_545
O17 Si2 1.665093 1_655
O18 Si5 1.651843 1_555
O18 Sr1 2.843230 1_555
O19 Si2 1.689018 1_555
O19 Sr0 2.685739 1_555
O20 Si1 1.658163 1_556
O20 Sr1 2.639035 1_555
O21 Si0 1.624401 1_555
O22 Si1 1.635576 1_556
O22 Sr1 2.676065 1_555
O23 Si4 1.635756 1_565
O23 Sr2 2.676201 1_555
O24 Si2 1.580764 1_555
O24 Sr2 2.284311 1_554
O25 Si5 1.624293 1_555
O26 Si1 1.651786 1_555
O26 Sr3 2.843687 1_555
O27 Sr1 2.814060 1_545
O28 Sr3 2.813871 1_556
O29 Si3 1.580760 1_555
O29 Sr3 2.284311 1_556
O30 Si5 1.658222 1_545
O30 Sr3 2.639197 1_555
O31 Sr0 2.814060 1_565
