# generated using pymatgen
data_Ba6Mn2Zn(ClF2)6
_symmetry_space_group_name_H-M   'P 1'
_cell_length_a   10.24344647
_cell_length_b   10.24344647
_cell_length_c   5.93076300
_cell_angle_alpha   90.00000000
_cell_angle_beta   90.00000000
_cell_angle_gamma   120.00000303
_symmetry_Int_Tables_number   1
_chemical_formula_structural   Ba6Mn2Zn(ClF2)6
_chemical_formula_sum   'Ba6 Mn2 Zn1 Cl6 F12'
_cell_volume   538.93128152
_cell_formula_units_Z   1
loop_
 _symmetry_equiv_pos_site_id
 _symmetry_equiv_pos_as_xyz
  1  'x, y, z'
loop_
 _atom_site_type_symbol
 _atom_site_label
 _atom_site_symmetry_multiplicity
 _atom_site_fract_x
 _atom_site_fract_y
 _atom_site_fract_z
 _atom_site_occupancy
  Ba  Ba0  1  0.40272700  0.09169600  0.74994400  1
  Ba  Ba1  1  0.68897000  0.59727300  0.74994400  1
  Ba  Ba2  1  0.90830400  0.31103000  0.74994400  1
  Ba  Ba3  1  0.59727300  0.90830400  0.25005600  1
  Ba  Ba4  1  0.31103000  0.40272700  0.25005600  1
  Ba  Ba5  1  0.09169600  0.68897000  0.25005600  1
  Mn  Mn0  1  0.66666700  0.33333300  0.24923000  1
  Mn  Mn1  1  0.33333300  0.66666700  0.75077000  1
  Zn  Zn0  1  0.00000000  0.00000000  0.00000000  1
  Cl  Cl0  1  0.22227900  0.04906800  0.23503000  1
  Cl  Cl1  1  0.82678900  0.77772100  0.23503000  1
  Cl  Cl2  1  0.95093200  0.17321100  0.23503000  1
  Cl  Cl3  1  0.77772100  0.95093200  0.76497000  1
  Cl  Cl4  1  0.17321100  0.22227900  0.76497000  1
  Cl  Cl5  1  0.04906800  0.82678900  0.76497000  1
  F  F0  1  0.51949300  0.35880800  0.01331100  1
  F  F1  1  0.83931500  0.48050700  0.01331100  1
  F  F2  1  0.64119200  0.16068500  0.01331100  1
  F  F3  1  0.48179600  0.64237100  0.51346500  1
  F  F4  1  0.16057500  0.51820400  0.51346500  1
  F  F5  1  0.35762900  0.83942500  0.51346500  1
  F  F6  1  0.48050700  0.64119200  0.98668900  1
  F  F7  1  0.16068500  0.51949300  0.98668900  1
  F  F8  1  0.35880800  0.83931500  0.98668900  1
  F  F9  1  0.51820400  0.35762900  0.48653500  1
  F  F10  1  0.83942500  0.48179600  0.48653500  1
  F  F11  1  0.64237100  0.16057500  0.48653500  1
loop_
_geom_bond_atom_site_label_1
_geom_bond_atom_site_label_2
_geom_bond_distance
_geom_bond_site_symmetry_2
Ba0 F2 2.679501 1_556
Ba0 F11 2.689291 1_555
Ba0 F5 2.768457 1_545
Ba0 F8 2.773859 1_545
Ba0 F9 2.835143 1_555
Ba0 F0 2.843272 1_556
Ba0 Cl4 3.235634 1_555
Ba0 Cl5 3.265706 1_545
Ba0 Cl0 3.328197 1_556
Ba0 Cl0 3.482249 1_555
Ba1 F0 2.679503 1_556
Ba1 F9 2.689293 1_555
Ba1 F3 2.768466 1_555
Ba1 F6 2.773868 1_555
Ba1 F10 2.835135 1_555
Ba1 F1 2.843265 1_556
Ba1 Cl5 3.235626 1_655
Ba1 Cl3 3.265708 1_555
Ba1 Cl1 3.328195 1_556
Ba1 Cl1 3.482248 1_555
Ba2 F1 2.679509 1_556
Ba2 F10 2.689300 1_555
Ba2 F4 2.768460 1_655
Ba2 F7 2.773863 1_655
Ba2 F11 2.835142 1_555
Ba2 F2 2.843272 1_556
Ba2 Cl3 3.235624 1_545
Ba2 Cl4 3.265699 1_655
Ba2 Cl2 3.328192 1_556
Ba2 Cl2 3.482245 1_555
Ba3 F8 2.679501 1_554
Ba3 F5 2.689291 1_555
Ba3 F11 2.768457 1_565
Ba3 F2 2.773859 1_565
Ba3 F3 2.835143 1_555
Ba3 F6 2.843272 1_554
Ba3 Cl1 3.235634 1_555
Ba3 Cl2 3.265706 1_565
Ba3 Cl3 3.328197 1_554
Ba3 Cl3 3.482249 1_555
Ba4 F6 2.679503 1_554
Ba4 F3 2.689293 1_555
Ba4 F9 2.768466 1_555
Ba4 F0 2.773868 1_555
Ba4 F4 2.835135 1_555
Ba4 F7 2.843265 1_554
Ba4 Cl2 3.235626 1_455
Ba4 Cl0 3.265708 1_555
Ba4 Cl4 3.328195 1_554
Ba4 Cl4 3.482248 1_555
Ba5 F7 2.679509 1_554
Ba5 F4 2.689300 1_555
Ba5 F10 2.768460 1_455
Ba5 F1 2.773863 1_455
Ba5 F5 2.835142 1_555
Ba5 F8 2.843272 1_554
Ba5 Cl0 3.235624 1_565
Ba5 Cl1 3.265699 1_455
Ba5 Cl5 3.328192 1_554
Ba5 Cl5 3.482245 1_555
Cl0 Zn0 2.497092 1_555
Cl1 Zn0 2.497092 1_665
Cl2 Zn0 2.497092 1_655
Cl3 Zn0 2.497092 1_666
Cl4 Zn0 2.497092 1_556
Cl5 Zn0 2.497092 1_566
F0 Mn0 2.166095 1_555
F1 Mn0 2.166090 1_555
F2 Mn0 2.166087 1_555
F3 Mn1 2.175763 1_555
F4 Mn1 2.175758 1_555
F5 Mn1 2.175755 1_555
F6 Mn1 2.166095 1_555
F7 Mn1 2.166090 1_555
F8 Mn1 2.166087 1_555
F9 Mn0 2.175763 1_555
F10 Mn0 2.175758 1_555
F11 Mn0 2.175755 1_555
