# generated using pymatgen
data_BaSrCaWO6
_symmetry_space_group_name_H-M   'P 1'
_cell_length_a   5.95623810
_cell_length_b   5.97517437
_cell_length_c   8.42445402
_cell_angle_alpha   89.53808519
_cell_angle_beta   90.33562944
_cell_angle_gamma   89.71986193
_symmetry_Int_Tables_number   1
_chemical_formula_structural   BaSrCaWO6
_chemical_formula_sum   'Ba2 Sr2 Ca2 W2 O12'
_cell_volume   299.80408134
_cell_formula_units_Z   2
loop_
 _symmetry_equiv_pos_site_id
 _symmetry_equiv_pos_as_xyz
  1  'x, y, z'
loop_
 _atom_site_type_symbol
 _atom_site_label
 _atom_site_symmetry_multiplicity
 _atom_site_fract_x
 _atom_site_fract_y
 _atom_site_fract_z
 _atom_site_occupancy
  Ba  Ba0  1  0.99653923  0.02244690  0.24934201  1
  Ba  Ba1  1  0.00346077  0.97755310  0.75065799  1
  Sr  Sr0  1  0.50443370  0.53354889  0.24881462  1
  Sr  Sr1  1  0.49556630  0.46645111  0.75118538  1
  Ca  Ca0  1  0.00000000  0.50000000  0.00000000  1
  Ca  Ca1  1  0.50000000  -0.00000000  0.50000000  1
  W  W0  1  0.50000000  -0.00000000  0.00000000  1
  W  W1  1  0.00000000  0.50000000  0.50000000  1
  O  O0  1  0.24177904  0.20027479  0.97423013  1
  O  O1  1  0.25787803  0.69645165  0.54015367  1
  O  O2  1  0.75822096  0.79972521  0.02576987  1
  O  O3  1  0.74212197  0.30354835  0.45984633  1
  O  O4  1  0.30900411  0.73694631  0.96239132  1
  O  O5  1  0.19873010  0.24216157  0.53468317  1
  O  O6  1  0.69099589  0.26305369  0.03760868  1
  O  O7  1  0.80126990  0.75783843  0.46531683  1
  O  O8  1  0.44486124  0.97025490  0.22831616  1
  O  O9  1  0.07537233  0.49718699  0.27293392  1
  O  O10  1  0.55513876  0.02974510  0.77168384  1
  O  O11  1  0.92462767  0.50281301  0.72706608  1
loop_
_geom_bond_atom_site_label_1
_geom_bond_atom_site_label_2
_geom_bond_distance
_geom_bond_site_symmetry_2
Ba0 O7 2.675708 1_545
Ba0 O8 2.693973 1_645
Ba0 O2 2.713115 1_545
Ba0 O3 2.883924 1_555
Ba0 O9 2.885760 1_655
Ba0 O6 2.907858 1_555
Ba0 O0 2.940986 1_654
Ba0 O5 2.997458 1_655
Ba0 O9 3.175645 1_645
Ba1 O5 2.675708 1_565
Ba1 O10 2.693973 1_465
Ba1 O0 2.713115 1_565
Ba1 O1 2.883924 1_555
Ba1 O11 2.885760 1_455
Ba1 O4 2.907858 1_555
Ba1 O2 2.940986 1_456
Ba1 O7 2.997458 1_455
Ba1 O11 3.175645 1_465
Ca0 O2 2.305010 1_455
Ca0 O0 2.305010 1_554
Ca0 O9 2.340065 1_555
Ca0 O11 2.340065 1_454
Ca0 O4 2.348912 1_554
Ca0 O6 2.348912 1_455
Ca1 O8 2.318690 1_545
Ca1 O10 2.318690 1_555
Ca1 O5 2.320911 1_555
Ca1 O7 2.320911 1_545
Ca1 O1 2.346335 1_545
Ca1 O3 2.346335 1_555
O0 W0 1.954121 1_556
O0 Sr1 2.890307 1_555
O1 W1 1.967105 1_555
O1 Sr1 2.639267 1_555
O1 Sr0 3.032291 1_555
O2 W0 1.954121 1_565
O2 Sr0 2.890307 1_555
O3 W1 1.967105 1_655
O3 Sr0 2.639267 1_555
O3 Sr1 3.032291 1_555
O4 W0 1.971389 1_566
O4 Sr1 2.657993 1_555
O4 Sr0 2.925807 1_556
O5 W1 1.957263 1_555
O5 Sr1 2.876358 1_555
O6 W0 1.971389 1_555
O6 Sr0 2.657993 1_555
O6 Sr1 2.925807 1_554
O7 W1 1.957263 1_655
O7 Sr0 2.876358 1_555
O8 W0 1.959981 1_565
O8 Sr0 2.635835 1_555
O9 W1 1.967625 1_555
O9 Sr0 2.574945 1_555
O10 W0 1.959981 1_556
O10 Sr1 2.635835 1_555
O11 W1 1.967625 1_655
O11 Sr1 2.574945 1_555
