# generated using pymatgen
data_Ce3C2Br3
_symmetry_space_group_name_H-M   'P 1'
_cell_length_a   10.15743401
_cell_length_b   10.15743401
_cell_length_c   16.84735885
_cell_angle_alpha   90.00000000
_cell_angle_beta   90.00000000
_cell_angle_gamma   112.23592819
_symmetry_Int_Tables_number   1
_chemical_formula_structural   Ce3C2Br3
_chemical_formula_sum   'Ce24 C16 Br24'
_cell_volume   1608.93647033
_cell_formula_units_Z   8
loop_
 _symmetry_equiv_pos_site_id
 _symmetry_equiv_pos_as_xyz
  1  'x, y, z'
loop_
 _atom_site_type_symbol
 _atom_site_label
 _atom_site_symmetry_multiplicity
 _atom_site_fract_x
 _atom_site_fract_y
 _atom_site_fract_z
 _atom_site_occupancy
  Ce  Ce0  1  0.51680510  0.02431511  0.87444114  1
  Ce  Ce1  1  0.48319490  0.97568489  0.37444114  1
  Ce  Ce2  1  0.97568489  0.48319490  0.62555886  1
  Ce  Ce3  1  0.02431511  0.51680510  0.12555886  1
  Ce  Ce4  1  0.87465588  0.12534412  0.75000000  1
  Ce  Ce5  1  0.12534412  0.87465588  0.25000000  1
  Ce  Ce6  1  0.82204771  0.10420219  0.98420861  1
  Ce  Ce7  1  0.17795229  0.89579781  0.48420861  1
  Ce  Ce8  1  0.89579781  0.17795229  0.51579139  1
  Ce  Ce9  1  0.10420219  0.82204771  0.01579139  1
  Ce  Ce10  1  0.72485026  0.75533464  0.89534808  1
  Ce  Ce11  1  0.27514974  0.24466536  0.39534808  1
  Ce  Ce12  1  0.24466536  0.27514974  0.60465192  1
  Ce  Ce13  1  0.75533464  0.72485026  0.10465192  1
  Ce  Ce14  1  0.51809711  0.05220681  0.60589229  1
  Ce  Ce15  1  0.48190289  0.94779319  0.10589229  1
  Ce  Ce16  1  0.94779319  0.48190289  0.89410771  1
  Ce  Ce17  1  0.05220681  0.51809711  0.39410771  1
  Ce  Ce18  1  0.38925616  0.64338119  0.99669504  1
  Ce  Ce19  1  0.61074384  0.35661881  0.49669504  1
  Ce  Ce20  1  0.35661881  0.61074384  0.50330496  1
  Ce  Ce21  1  0.64338119  0.38925616  0.00330496  1
  Ce  Ce22  1  0.66370964  0.33629036  0.75000000  1
  Ce  Ce23  1  0.33629036  0.66370964  0.25000000  1
  C  C0  1  0.35701438  0.16217718  0.52528213  1
  C  C1  1  0.64298562  0.83782282  0.02528213  1
  C  C2  1  0.83782282  0.64298562  0.97471787  1
  C  C3  1  0.16217718  0.35701438  0.47471787  1
  C  C4  1  0.77654455  0.21263979  0.85017766  1
  C  C5  1  0.22345545  0.78736021  0.35017766  1
  C  C6  1  0.78736021  0.22345545  0.64982234  1
  C  C7  1  0.21263979  0.77654455  0.14982234  1
  C  C8  1  0.71413711  0.27112879  0.90696586  1
  C  C9  1  0.28586289  0.72887121  0.40696586  1
  C  C10  1  0.72887121  0.28586289  0.59303414  1
  C  C11  1  0.27112879  0.71413711  0.09303414  1
  C  C12  1  0.58302868  0.89864648  0.96827260  1
  C  C13  1  0.41697132  0.10135352  0.46827260  1
  C  C14  1  0.10135352  0.41697132  0.53172740  1
  C  C15  1  0.89864648  0.58302868  0.03172740  1
  Br  Br0  1  0.23389388  0.74592459  0.86950418  1
  Br  Br1  1  0.76610612  0.25407541  0.36950418  1
  Br  Br2  1  0.25407541  0.76610612  0.63049582  1
  Br  Br3  1  0.74592459  0.23389388  0.13049582  1
  Br  Br4  1  0.48498563  0.47413504  0.86869350  1
  Br  Br5  1  0.51501437  0.52586496  0.36869350  1
  Br  Br6  1  0.52586496  0.51501437  0.63130650  1
  Br  Br7  1  0.47413504  0.48498563  0.13130650  1
  Br  Br8  1  0.64263430  0.88100784  0.50229731  1
  Br  Br9  1  0.35736570  0.11899216  0.00229731  1
  Br  Br10  1  0.11899216  0.35736570  0.99770269  1
  Br  Br11  1  0.88100784  0.64263430  0.49770269  1
  Br  Br12  1  0.60291975  0.86535114  0.74253420  1
  Br  Br13  1  0.39708025  0.13464886  0.24253420  1
  Br  Br14  1  0.13464886  0.39708025  0.75746580  1
  Br  Br15  1  0.86535114  0.60291975  0.25746580  1
  Br  Br16  1  0.35988095  0.12764321  0.74190467  1
  Br  Br17  1  0.64011905  0.87235679  0.24190467  1
  Br  Br18  1  0.87235679  0.64011905  0.75809533  1
  Br  Br19  1  0.12764321  0.35988095  0.25809533  1
  Br  Br20  1  0.99057323  0.00282393  0.38209355  1
  Br  Br21  1  0.00942677  0.99717607  0.88209355  1
  Br  Br22  1  0.99717607  0.00942677  0.11790645  1
  Br  Br23  1  0.00282393  0.99057323  0.61790645  1
loop_
_geom_bond_atom_site_label_1
_geom_bond_atom_site_label_2
_geom_bond_distance
_geom_bond_site_symmetry_2
C0 C13 1.399940 1_555
C0 Ce12 2.323401 1_555
C0 Ce11 2.590888 1_555
C0 Ce19 2.631052 1_555
C0 Ce14 2.674402 1_555
C0 Ce7 2.717224 1_545
C1 C12 1.399940 1_554
C1 Ce13 2.323401 1_555
C1 Ce10 2.590888 1_554
C1 Ce18 2.631052 1_554
C1 Ce15 2.674402 1_555
C1 Ce6 2.717224 1_564
C2 Ce10 2.323401 1_555
C2 Ce13 2.590888 1_556
C2 Ce21 2.631052 1_556
C2 Ce16 2.674402 1_555
C2 Ce9 2.717224 1_656
C3 Ce11 2.323401 1_555
C3 Ce12 2.590888 1_555
C3 Ce20 2.631052 1_555
C3 Ce17 2.674402 1_555
C3 Ce8 2.717224 1_455
C4 C8 1.398264 1_555
C4 Ce4 2.301430 1_555
C4 Ce22 2.613223 1_555
C4 Ce6 2.628874 1_555
C4 Ce0 2.639548 1_555
C4 Ce16 2.730047 1_555
C5 C9 1.398264 1_555
C5 Ce5 2.301430 1_555
C5 Ce23 2.613223 1_555
C5 Ce7 2.628874 1_555
C5 Ce1 2.639548 1_555
C5 Ce17 2.730047 1_555
C6 Ce4 2.301430 1_555
C6 Ce22 2.613223 1_555
C6 Ce8 2.628874 1_555
C6 Ce2 2.639548 1_555
C6 Ce14 2.730047 1_555
C7 Ce5 2.301430 1_555
C7 Ce23 2.613223 1_555
C7 Ce9 2.628874 1_555
C7 Ce3 2.639548 1_555
C7 Ce15 2.730047 1_555
C8 Ce21 2.289803 1_556
C8 Ce16 2.533302 1_555
C8 Ce0 2.607627 1_555
C8 Ce6 2.678871 1_555
C8 Ce22 2.819609 1_555
C9 Ce20 2.289803 1_555
C9 Ce17 2.533302 1_555
C9 Ce1 2.607627 1_555
C9 Ce7 2.678871 1_555
C9 Ce23 2.819609 1_555
C10 C6 1.398264 1_555
C10 Ce19 2.289803 1_555
C10 Ce14 2.533302 1_555
C10 Ce2 2.607627 1_555
C10 Ce8 2.678871 1_555
C10 Ce22 2.819609 1_555
C11 C7 1.398264 1_555
C11 Ce18 2.289803 1_554
C11 Ce15 2.533302 1_555
C11 Ce3 2.607627 1_555
C11 Ce9 2.678871 1_555
C11 Ce23 2.819609 1_555
C12 Ce0 2.287066 1_565
C12 Ce6 2.547409 1_565
C12 Ce18 2.638872 1_555
C12 Ce15 2.658564 1_556
C12 Ce10 2.700124 1_555
C13 Ce1 2.287066 1_545
C13 Ce7 2.547409 1_545
C13 Ce19 2.638872 1_555
C13 Ce14 2.658564 1_555
C13 Ce11 2.700124 1_555
C14 C3 1.399940 1_555
C14 Ce2 2.287066 1_455
C14 Ce8 2.547409 1_455
C14 Ce20 2.638872 1_555
C14 Ce17 2.658564 1_555
C14 Ce12 2.700124 1_555
C15 C2 1.399940 1_554
C15 Ce3 2.287066 1_655
C15 Ce9 2.547409 1_655
C15 Ce21 2.638872 1_555
C15 Ce16 2.658564 1_554
C15 Ce13 2.700124 1_555
Br0 Ce9 3.029548 1_556
Br0 Ce18 3.067730 1_555
Br0 Ce16 3.148098 1_455
Br0 Ce0 3.179753 1_565
Br1 Ce8 3.029548 1_555
Br1 Ce19 3.067730 1_555
Br1 Ce17 3.148098 1_655
Br1 Ce1 3.179753 1_545
Br2 Ce7 3.029548 1_555
Br2 Ce20 3.067730 1_555
Br2 Ce14 3.148098 1_565
Br2 Ce2 3.179753 1_455
Br3 Ce6 3.029548 1_554
Br3 Ce21 3.067730 1_555
Br3 Ce15 3.148098 1_545
Br3 Ce3 3.179753 1_655
Br4 Ce10 3.004847 1_555
Br4 Ce21 3.086227 1_556
Br4 Ce18 3.133114 1_555
Br4 Ce22 3.343417 1_555
Br5 Ce11 3.004847 1_555
Br5 Ce20 3.086227 1_555
Br5 Ce19 3.133114 1_555
Br5 Ce23 3.343417 1_555
Br6 Ce12 3.004847 1_555
Br6 Ce19 3.086227 1_555
Br6 Ce20 3.133114 1_555
Br6 Ce22 3.343417 1_555
Br7 Ce13 3.004847 1_555
Br7 Ce18 3.086227 1_554
Br7 Ce21 3.133114 1_555
Br7 Ce23 3.343417 1_555
Br8 Ce14 3.055325 1_565
Br8 Ce1 3.060424 1_555
Br8 Ce8 3.145078 1_565
Br8 Ce20 3.152842 1_555
Br9 Ce15 3.055325 1_545
Br9 Ce0 3.060424 1_554
Br9 Ce9 3.145078 1_545
Br9 Ce21 3.152842 1_555
Br10 Ce16 3.055325 1_455
Br10 Ce3 3.060424 1_556
Br10 Ce6 3.145078 1_455
Br10 Ce18 3.152842 1_555
Br11 Ce17 3.055325 1_655
Br11 Ce2 3.060424 1_555
Br11 Ce7 3.145078 1_655
Br11 Ce19 3.152842 1_555
Br12 Ce4 3.015230 1_565
Br12 Ce0 3.062634 1_565
Br12 Ce10 3.233920 1_555
Br12 Ce14 3.298745 1_565
Br13 Ce5 3.015230 1_545
Br13 Ce1 3.062634 1_545
Br13 Ce11 3.233920 1_555
Br13 Ce15 3.298745 1_545
Br14 Ce4 3.015230 1_455
Br14 Ce2 3.062634 1_455
Br14 Ce12 3.233920 1_555
Br14 Ce16 3.298745 1_455
Br15 Ce5 3.015230 1_655
Br15 Ce3 3.062634 1_655
Br15 Ce13 3.233920 1_555
Br15 Ce17 3.298745 1_655
Br16 Ce22 3.013991 1_555
Br16 Ce14 3.058188 1_555
Br16 Ce0 3.145497 1_555
Br16 Ce12 3.207566 1_555
Br17 Ce23 3.013991 1_555
Br17 Ce15 3.058188 1_555
Br17 Ce1 3.145497 1_555
Br17 Ce13 3.207566 1_555
Br18 Ce22 3.013991 1_555
Br18 Ce16 3.058188 1_555
Br18 Ce2 3.145497 1_555
Br18 Ce10 3.207566 1_555
Br19 Ce23 3.013991 1_555
Br19 Ce17 3.058188 1_555
Br19 Ce3 3.145497 1_555
Br19 Ce11 3.207566 1_555
Br20 Ce11 3.010898 1_655
Br20 Ce7 3.054500 1_645
Br20 Ce5 3.141676 1_645
Br20 Ce8 3.234298 1_555
Br21 Ce10 3.010898 1_455
Br21 Ce6 3.054500 1_465
Br21 Ce4 3.141676 1_465
Br21 Ce9 3.234298 1_556
Br22 Ce13 3.010898 1_545
Br22 Ce9 3.054500 1_645
Br22 Ce5 3.141676 1_645
Br22 Ce6 3.234298 1_554
Br23 Ce12 3.010898 1_565
Br23 Ce8 3.054500 1_465
Br23 Ce4 3.141676 1_465
Br23 Ce7 3.234298 1_555
