# generated using pymatgen
data_KMg6BO8
_symmetry_space_group_name_H-M   'P 1'
_cell_length_a   7.93450915
_cell_length_b   4.66633759
_cell_length_c   4.66633759
_cell_angle_alpha   90.00000000
_cell_angle_beta   90.00000000
_cell_angle_gamma   90.00000000
_symmetry_Int_Tables_number   1
_chemical_formula_structural   KMg6BO8
_chemical_formula_sum   'K1 Mg6 B1 O8'
_cell_volume   172.77160799
_cell_formula_units_Z   1
loop_
 _symmetry_equiv_pos_site_id
 _symmetry_equiv_pos_as_xyz
  1  'x, y, z'
loop_
 _atom_site_type_symbol
 _atom_site_label
 _atom_site_symmetry_multiplicity
 _atom_site_fract_x
 _atom_site_fract_y
 _atom_site_fract_z
 _atom_site_occupancy
  K  K0  1  0.00000000  0.00000000  0.00000000  1
  Mg  Mg0  1  -0.00000000  0.50000000  0.50000000  1
  Mg  Mg1  1  0.50000000  0.50000000  0.50000000  1
  Mg  Mg2  1  0.25651965  -0.00000000  0.50000000  1
  Mg  Mg3  1  0.74348035  0.00000000  0.50000000  1
  Mg  Mg4  1  0.25651965  0.50000000  -0.00000000  1
  Mg  Mg5  1  0.74348035  0.50000000  0.00000000  1
  B  B0  1  0.50000000  0.00000000  0.00000000  1
  O  O0  1  0.32868089  -0.00000000  0.00000000  1
  O  O1  1  0.67131911  0.00000000  -0.00000000  1
  O  O2  1  0.24993886  0.50000000  0.50000000  1
  O  O3  1  0.75006114  0.50000000  0.50000000  1
  O  O4  1  0.00000000  0.00000000  0.50000000  1
  O  O5  1  0.50000000  0.00000000  0.50000000  1
  O  O6  1  -0.00000000  0.50000000  0.00000000  1
  O  O7  1  0.50000000  0.50000000  0.00000000  1
loop_
_geom_bond_atom_site_label_1
_geom_bond_atom_site_label_2
_geom_bond_distance
_geom_bond_site_symmetry_2
K0 O6 2.333169 1_555
K0 O4 2.333169 1_555
K0 O4 2.333169 1_554
K0 O6 2.333169 1_545
K0 O0 2.607922 1_555
K0 O1 2.607922 1_455
Mg0 O2 1.983142 1_555
Mg0 O3 1.983142 1_455
Mg0 O6 2.333169 1_556
Mg0 O6 2.333169 1_555
Mg0 O4 2.333169 1_555
Mg0 O4 2.333169 1_565
Mg1 O2 1.984112 1_555
Mg1 O3 1.984112 1_555
Mg1 O5 2.333169 1_565
Mg1 O7 2.333169 1_555
Mg1 O7 2.333169 1_556
Mg1 O5 2.333169 1_555
Mg2 O5 1.931897 1_555
Mg2 O4 2.035358 1_555
Mg2 O2 2.333753 1_555
Mg2 O2 2.333753 1_545
Mg2 O0 2.402396 1_555
Mg2 O0 2.402396 1_556
Mg3 O5 1.931897 1_555
Mg3 O4 2.035358 1_655
Mg3 O3 2.333753 1_545
Mg3 O3 2.333753 1_555
Mg3 O1 2.402396 1_555
Mg3 O1 2.402396 1_556
Mg4 O7 1.931897 1_555
Mg4 O6 2.035358 1_555
Mg4 O2 2.333753 1_554
Mg4 O2 2.333753 1_555
Mg4 O0 2.402396 1_555
Mg4 O0 2.402396 1_565
Mg5 O7 1.931897 1_555
Mg5 O6 2.035358 1_655
Mg5 O3 2.333753 1_555
Mg5 O3 2.333753 1_554
Mg5 O1 2.402396 1_555
Mg5 O1 2.402396 1_565
B0 O0 1.359333 1_555
B0 O1 1.359333 1_555
