# generated using pymatgen
data_H6C8I3NO5
_symmetry_space_group_name_H-M   'P 1'
_cell_length_a   9.49924740
_cell_length_b   16.23797023
_cell_length_c   19.69205606
_cell_angle_alpha   90.00000000
_cell_angle_beta   90.00000000
_cell_angle_gamma   90.00000000
_symmetry_Int_Tables_number   1
_chemical_formula_structural   H6C8I3NO5
_chemical_formula_sum   'H48 C64 I24 N8 O40'
_cell_volume   3037.47004002
_cell_formula_units_Z   8
loop_
 _symmetry_equiv_pos_site_id
 _symmetry_equiv_pos_as_xyz
  1  'x, y, z'
loop_
 _atom_site_type_symbol
 _atom_site_label
 _atom_site_symmetry_multiplicity
 _atom_site_fract_x
 _atom_site_fract_y
 _atom_site_fract_z
 _atom_site_occupancy
  H  H0  1  0.20171672  0.42670399  0.18086979  1
  H  H1  1  0.79828328  0.57329601  0.81913021  1
  H  H2  1  0.29828328  0.57329601  0.68086979  1
  H  H3  1  0.79828328  0.92670399  0.31913021  1
  H  H4  1  0.70171672  0.42670399  0.31913021  1
  H  H5  1  0.20171672  0.07329601  0.68086979  1
  H  H6  1  0.70171672  0.07329601  0.81913021  1
  H  H7  1  0.29828328  0.92670399  0.18086979  1
  H  H8  1  0.02561689  0.48436483  0.33413309  1
  H  H9  1  0.97438311  0.51563517  0.66586691  1
  H  H10  1  0.47438311  0.51563517  0.83413309  1
  H  H11  1  0.97438311  0.98436483  0.16586691  1
  H  H12  1  0.52561689  0.48436483  0.16586691  1
  H  H13  1  0.02561689  0.01563517  0.83413309  1
  H  H14  1  0.52561689  0.01563517  0.66586691  1
  H  H15  1  0.47438311  0.98436483  0.33413309  1
  H  H16  1  0.08339671  0.36628909  0.36602770  1
  H  H17  1  0.91660329  0.63371091  0.63397230  1
  H  H18  1  0.41660329  0.63371091  0.86602770  1
  H  H19  1  0.91660329  0.86628909  0.13397230  1
  H  H20  1  0.58339671  0.36628909  0.13397230  1
  H  H21  1  0.08339671  0.13371091  0.86602770  1
  H  H22  1  0.58339671  0.13371091  0.63397230  1
  H  H23  1  0.41660329  0.86628909  0.36602770  1
  H  H24  1  0.29989007  0.34617428  0.20504710  1
  H  H25  1  0.70010993  0.65382572  0.79495290  1
  H  H26  1  0.20010993  0.65382572  0.70504710  1
  H  H27  1  0.70010993  0.84617428  0.29495290  1
  H  H28  1  0.79989007  0.34617428  0.29495290  1
  H  H29  1  0.29989007  0.15382572  0.70504710  1
  H  H30  1  0.79989007  0.15382572  0.79495290  1
  H  H31  1  0.20010993  0.84617428  0.20504710  1
  H  H32  1  0.27660696  0.10976565  0.05031400  1
  H  H33  1  0.72339304  0.89023435  0.94968600  1
  H  H34  1  0.22339304  0.89023435  0.55031400  1
  H  H35  1  0.72339304  0.60976565  0.44968600  1
  H  H36  1  0.77660696  0.10976565  0.44968600  1
  H  H37  1  0.27660696  0.39023435  0.55031400  1
  H  H38  1  0.77660696  0.39023435  0.94968600  1
  H  H39  1  0.22339304  0.60976565  0.05031400  1
  H  H40  1  0.10161215  0.37865121  0.28664810  1
  H  H41  1  0.89838785  0.62134879  0.71335190  1
  H  H42  1  0.39838785  0.62134879  0.78664810  1
  H  H43  1  0.89838785  0.87865121  0.21335190  1
  H  H44  1  0.60161215  0.37865121  0.21335190  1
  H  H45  1  0.10161215  0.12134879  0.78664810  1
  H  H46  1  0.60161215  0.12134879  0.71335190  1
  H  H47  1  0.39838785  0.87865121  0.28664810  1
  C  C0  1  0.12925595  0.22963249  0.16244267  1
  C  C1  1  0.87074405  0.77036751  0.83755733  1
  C  C2  1  0.37074405  0.77036751  0.66244267  1
  C  C3  1  0.87074405  0.72963249  0.33755733  1
  C  C4  1  0.62925595  0.22963249  0.33755733  1
  C  C5  1  0.12925595  0.27036751  0.66244267  1
  C  C6  1  0.62925595  0.27036751  0.83755733  1
  C  C7  1  0.37074405  0.72963249  0.16244267  1
  C  C8  1  0.42116748  0.29691138  0.42136832  1
  C  C9  1  0.57883252  0.70308862  0.57863168  1
  C  C10  1  0.07883252  0.70308862  0.92136832  1
  C  C11  1  0.57883252  0.79691138  0.07863168  1
  C  C12  1  0.92116748  0.29691138  0.07863168  1
  C  C13  1  0.42116748  0.20308862  0.92136832  1
  C  C14  1  0.92116748  0.20308862  0.57863168  1
  C  C15  1  0.07883252  0.79691138  0.42136832  1
  C  C16  1  0.30673212  0.33494651  0.46434889  1
  C  C17  1  0.69326788  0.66505349  0.53565111  1
  C  C18  1  0.19326788  0.66505349  0.96434889  1
  C  C19  1  0.69326788  0.83494651  0.03565111  1
  C  C20  1  0.80673212  0.33494651  0.03565111  1
  C  C21  1  0.30673212  0.16505349  0.96434889  1
  C  C22  1  0.80673212  0.16505349  0.53565111  1
  C  C23  1  0.19326788  0.83494651  0.46434889  1
  C  C24  1  0.00499069  0.34780183  0.11928264  1
  C  C25  1  0.99500931  0.65219817  0.88071736  1
  C  C26  1  0.49500931  0.65219817  0.61928264  1
  C  C27  1  0.99500931  0.84780183  0.38071736  1
  C  C28  1  0.50499069  0.34780183  0.38071736  1
  C  C29  1  0.00499069  0.15219817  0.61928264  1
  C  C30  1  0.50499069  0.15219817  0.88071736  1
  C  C31  1  0.49500931  0.84780183  0.11928264  1
  C  C32  1  0.04417792  0.17750300  0.12342793  1
  C  C33  1  0.95582208  0.82249700  0.87657207  1
  C  C34  1  0.45582208  0.82249700  0.62342793  1
  C  C35  1  0.95582208  0.67750300  0.37657207  1
  C  C36  1  0.54417792  0.17750300  0.37657207  1
  C  C37  1  0.04417792  0.32249700  0.62342793  1
  C  C38  1  0.54417792  0.32249700  0.87657207  1
  C  C39  1  0.45582208  0.67750300  0.12342793  1
  C  C40  1  0.11453305  0.31613341  0.16006914  1
  C  C41  1  0.88546695  0.68386659  0.83993086  1
  C  C42  1  0.38546695  0.68386659  0.66006914  1
  C  C43  1  0.88546695  0.81613341  0.33993086  1
  C  C44  1  0.61453305  0.31613341  0.33993086  1
  C  C45  1  0.11453305  0.18386659  0.66006914  1
  C  C46  1  0.61453305  0.18386659  0.83993086  1
  C  C47  1  0.38546695  0.81613341  0.16006914  1
  C  C48  1  0.44182242  0.21153828  0.41961578  1
  C  C49  1  0.55817758  0.78846172  0.58038422  1
  C  C50  1  0.05817758  0.78846172  0.91961578  1
  C  C51  1  0.55817758  0.71153828  0.08038422  1
  C  C52  1  0.94182242  0.21153828  0.08038422  1
  C  C53  1  0.44182242  0.28846172  0.91961578  1
  C  C54  1  0.94182242  0.28846172  0.58038422  1
  C  C55  1  0.05817758  0.71153828  0.41961578  1
  C  C56  1  0.06435885  0.08544415  0.12717437  1
  C  C57  1  0.93564115  0.91455585  0.87282563  1
  C  C58  1  0.43564115  0.91455585  0.62717437  1
  C  C59  1  0.93564115  0.58544415  0.37282563  1
  C  C60  1  0.56435885  0.08544415  0.37282563  1
  C  C61  1  0.06435885  0.41455585  0.62717437  1
  C  C62  1  0.56435885  0.41455585  0.87282563  1
  C  C63  1  0.43564115  0.58544415  0.12717437  1
  I  I0  1  0.27720259  0.17762261  0.22988287  1
  I  I1  1  0.72279741  0.82237739  0.77011713  1
  I  I2  1  0.22279741  0.82237739  0.72988287  1
  I  I3  1  0.72279741  0.67762261  0.27011713  1
  I  I4  1  0.77720259  0.17762261  0.27011713  1
  I  I5  1  0.27720259  0.32237739  0.72988287  1
  I  I6  1  0.77720259  0.32237739  0.77011713  1
  I  I7  1  0.22279741  0.67762261  0.22988287  1
  I  I8  1  0.32214637  0.13376818  0.48249737  1
  I  I9  1  0.67785363  0.86623182  0.51750263  1
  I  I10  1  0.17785363  0.86623182  0.98249737  1
  I  I11  1  0.67785363  0.63376818  0.01750263  1
  I  I12  1  0.82214637  0.13376818  0.01750263  1
  I  I13  1  0.32214637  0.36623182  0.98249737  1
  I  I14  1  0.82214637  0.36623182  0.51750263  1
  I  I15  1  0.17785363  0.63376818  0.48249737  1
  I  I16  1  0.46314356  0.47548816  0.37853560  1
  I  I17  1  0.53685644  0.52451184  0.62146440  1
  I  I18  1  0.03685644  0.52451184  0.87853560  1
  I  I19  1  0.53685644  0.97548816  0.12146440  1
  I  I20  1  0.96314356  0.47548816  0.12146440  1
  I  I21  1  0.46314356  0.02451184  0.87853560  1
  I  I22  1  0.96314356  0.02451184  0.62146440  1
  I  I23  1  0.03685644  0.97548816  0.37853560  1
  N  N0  1  0.19929255  0.36774575  0.19928182  1
  N  N1  1  0.80070745  0.63225425  0.80071818  1
  N  N2  1  0.30070745  0.63225425  0.69928182  1
  N  N3  1  0.80070745  0.86774575  0.30071818  1
  N  N4  1  0.69929255  0.36774575  0.30071818  1
  N  N5  1  0.19929255  0.13225425  0.69928182  1
  N  N6  1  0.69929255  0.13225425  0.80071818  1
  N  N7  1  0.30070745  0.86774575  0.19928182  1
  O  O0  1  0.18504794  0.34258688  0.44422584  1
  O  O1  1  0.81495206  0.65741312  0.55577416  1
  O  O2  1  0.31495206  0.65741312  0.94422584  1
  O  O3  1  0.81495206  0.84258688  0.05577416  1
  O  O4  1  0.68504794  0.34258688  0.05577416  1
  O  O5  1  0.18504794  0.15741312  0.94422584  1
  O  O6  1  0.68504794  0.15741312  0.55577416  1
  O  O7  1  0.31495206  0.84258688  0.44422584  1
  O  O8  1  0.03791794  0.39059760  0.32549081  1
  O  O9  1  0.96208206  0.60940240  0.67450919  1
  O  O10  1  0.46208206  0.60940240  0.82549081  1
  O  O11  1  0.96208206  0.89059760  0.17450919  1
  O  O12  1  0.53791794  0.39059760  0.17450919  1
  O  O13  1  0.03791794  0.10940240  0.82549081  1
  O  O14  1  0.53791794  0.10940240  0.67450919  1
  O  O15  1  0.46208206  0.89059760  0.32549081  1
  O  O16  1  0.16306166  0.05051009  0.09774467  1
  O  O17  1  0.83693834  0.94948991  0.90225533  1
  O  O18  1  0.33693834  0.94948991  0.59774467  1
  O  O19  1  0.83693834  0.55051009  0.40225533  1
  O  O20  1  0.66306166  0.05051009  0.40225533  1
  O  O21  1  0.16306166  0.44948991  0.59774467  1
  O  O22  1  0.66306166  0.44948991  0.90225533  1
  O  O23  1  0.33693834  0.55051009  0.09774467  1
  O  O24  1  0.46876130  0.04880261  0.33499661  1
  O  O25  1  0.53123870  0.95119739  0.66500339  1
  O  O26  1  0.03123870  0.95119739  0.83499661  1
  O  O27  1  0.53123870  0.54880261  0.16500339  1
  O  O28  1  0.96876130  0.04880261  0.16500339  1
  O  O29  1  0.46876130  0.45119739  0.83499661  1
  O  O30  1  0.96876130  0.45119739  0.66500339  1
  O  O31  1  0.03123870  0.54880261  0.33499661  1
  O  O32  1  0.35330759  0.14007240  0.02460507  1
  O  O33  1  0.64669241  0.85992760  0.97539493  1
  O  O34  1  0.14669241  0.85992760  0.52460507  1
  O  O35  1  0.64669241  0.64007240  0.47539493  1
  O  O36  1  0.85330759  0.14007240  0.47539493  1
  O  O37  1  0.35330759  0.35992760  0.52460507  1
  O  O38  1  0.85330759  0.35992760  0.97539493  1
  O  O39  1  0.14669241  0.64007240  0.02460507  1
loop_
_geom_bond_atom_site_label_1
_geom_bond_atom_site_label_2
_geom_bond_distance
_geom_bond_site_symmetry_2
H0 N0 1.023978 1_555
H1 N1 1.023978 1_555
H2 N2 1.023978 1_555
H3 N3 1.023978 1_555
H4 N4 1.023978 1_555
H5 N5 1.023978 1_555
H6 N6 1.023978 1_555
H7 N7 1.023978 1_555
H8 O31 1.047839 1_555
H8 O8 1.536521 1_555
H9 O30 1.047839 1_555
H9 O9 1.536521 1_555
H10 O29 1.047839 1_555
H10 O10 1.536521 1_555
H11 O28 1.047839 1_565
H11 O11 1.536521 1_555
H12 O27 1.047839 1_555
H12 O12 1.536521 1_555
H13 O26 1.047839 1_545
H13 O13 1.536521 1_555
H14 O25 1.047839 1_545
H14 O14 1.536521 1_555
H15 O24 1.047839 1_565
H15 O15 1.536521 1_555
H16 O8 0.989773 1_555
H17 O9 0.989773 1_555
H18 O10 0.989773 1_555
H19 O11 0.989773 1_555
H20 O12 0.989773 1_555
H21 O13 0.989773 1_555
H22 O14 0.989773 1_555
H23 O15 0.989773 1_555
H24 N0 1.024088 1_555
H25 N1 1.024088 1_555
H26 N2 1.024088 1_555
H27 N3 1.024088 1_555
H28 N4 1.024088 1_555
H29 N5 1.024088 1_555
H30 N6 1.024088 1_555
H31 N7 1.024088 1_555
H32 O32 1.014563 1_555
H33 O33 1.014563 1_555
H34 O34 1.014563 1_555
H35 O35 1.014563 1_555
H36 O36 1.014563 1_555
H37 O37 1.014563 1_555
H38 O38 1.014563 1_555
H39 O39 1.014563 1_555
H40 O8 0.994371 1_555
H41 O9 0.994371 1_555
H42 O10 0.994371 1_555
H43 O11 0.994371 1_555
H44 O12 0.994371 1_555
H45 O13 0.994371 1_555
H46 O14 0.994371 1_555
H47 O15 0.994371 1_555
C0 C32 1.399975 1_555
C0 C40 1.412319 1_555
C0 I0 2.109980 1_555
C1 C33 1.399975 1_555
C1 C41 1.412319 1_555
C1 I1 2.109980 1_555
C2 C34 1.399975 1_555
C2 C42 1.412319 1_555
C2 I2 2.109980 1_555
C3 C35 1.399975 1_555
C3 C43 1.412319 1_555
C3 I3 2.109980 1_555
C4 C44 1.412319 1_555
C4 I4 2.109980 1_555
C5 I5 2.109980 1_555
C6 I6 2.109980 1_555
C7 I7 2.109980 1_555
C10 C25 1.399176 1_455
C10 C50 1.400527 1_555
C10 C18 1.509793 1_555
C11 C31 1.399176 1_555
C11 C51 1.400527 1_555
C11 C19 1.509793 1_555
C12 C24 1.399176 1_655
C12 C52 1.400527 1_555
C12 C20 1.509793 1_555
C13 C30 1.399176 1_555
C13 C53 1.400527 1_555
C13 C21 1.509793 1_555
C14 C29 1.399176 1_655
C14 C54 1.400527 1_555
C14 C22 1.509793 1_555
C15 C27 1.399176 1_455
C15 C55 1.400527 1_555
C15 C23 1.509793 1_555
C16 O0 1.228227 1_555
C16 O37 1.329750 1_555
C16 C8 1.509793 1_555
C17 O1 1.228227 1_555
C17 O35 1.329750 1_555
C17 C9 1.509793 1_555
C18 O2 1.228227 1_555
C18 O39 1.329750 1_556
C19 O3 1.228227 1_555
C19 O33 1.329750 1_554
C20 O4 1.228227 1_555
C20 O38 1.329750 1_554
C21 O5 1.228227 1_555
C21 O32 1.329750 1_556
C22 O6 1.228227 1_555
C22 O36 1.329750 1_555
C23 O7 1.228227 1_555
C23 O34 1.329750 1_555
C24 C40 1.411489 1_555
C24 I20 2.111567 1_455
C25 C41 1.411489 1_555
C25 I18 2.111567 1_655
C26 C9 1.399176 1_555
C26 C42 1.411489 1_555
C26 I17 2.111567 1_555
C27 C43 1.411489 1_555
C27 I23 2.111567 1_655
C28 C8 1.399176 1_555
C28 C44 1.411489 1_555
C28 I16 2.111567 1_555
C29 C45 1.411489 1_555
C29 I22 2.111567 1_455
C30 C46 1.411489 1_555
C30 I21 2.111567 1_555
C31 C47 1.411489 1_555
C31 I19 2.111567 1_555
C32 C52 1.403304 1_455
C32 C56 1.508896 1_555
C33 C50 1.403304 1_655
C33 C57 1.508896 1_555
C34 C49 1.403304 1_555
C34 C58 1.508896 1_555
C35 C55 1.403304 1_655
C35 C59 1.508896 1_555
C36 C4 1.399975 1_555
C36 C48 1.403304 1_555
C36 C60 1.508896 1_555
C37 C5 1.399975 1_555
C37 C54 1.403304 1_455
C37 C61 1.508896 1_555
C38 C6 1.399975 1_555
C38 C53 1.403304 1_555
C38 C62 1.508896 1_555
C39 C7 1.399975 1_555
C39 C51 1.403304 1_555
C39 C63 1.508896 1_555
C40 N0 1.395316 1_555
C41 N1 1.395316 1_555
C42 N2 1.395316 1_555
C43 N3 1.395316 1_555
C44 N4 1.395316 1_555
C45 N5 1.395316 1_555
C45 C5 1.412319 1_555
C46 N6 1.395316 1_555
C46 C6 1.412319 1_555
C47 N7 1.395316 1_555
C47 C7 1.412319 1_555
C48 C8 1.400527 1_555
C48 I8 2.102482 1_555
C49 C9 1.400527 1_555
C49 I9 2.102482 1_555
C50 I10 2.102482 1_555
C51 I11 2.102482 1_555
C52 I12 2.102482 1_555
C53 I13 2.102482 1_555
C54 I14 2.102482 1_555
C55 I15 2.102482 1_555
C56 O16 1.239652 1_555
C56 O28 1.316656 1_455
C57 O17 1.239652 1_555
C57 O26 1.316656 1_655
C58 O18 1.239652 1_555
C58 O25 1.316656 1_555
C59 O19 1.239652 1_555
C59 O31 1.316656 1_655
C60 O20 1.239652 1_555
C60 O24 1.316656 1_555
C61 O21 1.239652 1_555
C61 O30 1.316656 1_455
C62 O22 1.239652 1_555
C62 O29 1.316656 1_555
C63 O23 1.239652 1_555
C63 O27 1.316656 1_555
