# generated using pymatgen
data_La(Al5Ru)2
_symmetry_space_group_name_H-M   'P 1'
_cell_length_a   6.86797254
_cell_length_b   6.86797254
_cell_length_c   9.16754248
_cell_angle_alpha   90.00000000
_cell_angle_beta   90.00000000
_cell_angle_gamma   97.01280556
_symmetry_Int_Tables_number   1
_chemical_formula_structural   La(Al5Ru)2
_chemical_formula_sum   'La2 Al20 Ru4'
_cell_volume   429.18922695
_cell_formula_units_Z   2
loop_
 _symmetry_equiv_pos_site_id
 _symmetry_equiv_pos_as_xyz
  1  'x, y, z'
loop_
 _atom_site_type_symbol
 _atom_site_label
 _atom_site_symmetry_multiplicity
 _atom_site_fract_x
 _atom_site_fract_y
 _atom_site_fract_z
 _atom_site_occupancy
  La  La0  1  0.87812054  0.12187946  0.75000000  1
  La  La1  1  0.12187946  0.87812054  0.25000000  1
  Al  Al0  1  0.62172579  0.37827421  0.55193901  1
  Al  Al1  1  0.37827421  0.62172579  0.44806099  1
  Al  Al2  1  0.37827421  0.62172579  0.05193901  1
  Al  Al3  1  0.62172579  0.37827421  0.94806099  1
  Al  Al4  1  0.22952581  0.22952581  0.50000000  1
  Al  Al5  1  0.77047419  0.77047419  0.50000000  1
  Al  Al6  1  0.77047419  0.77047419  -0.00000000  1
  Al  Al7  1  0.22952581  0.22952581  -0.00000000  1
  Al  Al8  1  0.83607744  0.16392256  0.10213049  1
  Al  Al9  1  0.16392256  0.83607744  0.89786951  1
  Al  Al10  1  0.16392256  0.83607744  0.60213049  1
  Al  Al11  1  0.83607744  0.16392256  0.39786951  1
  Al  Al12  1  0.86237627  0.59242247  0.75000000  1
  Al  Al13  1  0.13762373  0.40757753  0.25000000  1
  Al  Al14  1  0.40757753  0.13762373  0.75000000  1
  Al  Al15  1  0.59242247  0.86237627  0.25000000  1
  Al  Al16  1  0.22090279  0.48242711  0.75000000  1
  Al  Al17  1  0.77909721  0.51757289  0.25000000  1
  Al  Al18  1  0.51757289  0.77909721  0.75000000  1
  Al  Al19  1  0.48242711  0.22090279  0.25000000  1
  Ru  Ru0  1  -0.00000000  0.50000000  0.50000000  1
  Ru  Ru1  1  -0.00000000  0.50000000  -0.00000000  1
  Ru  Ru2  1  0.50000000  0.00000000  -0.00000000  1
  Ru  Ru3  1  0.50000000  0.00000000  0.50000000  1
loop_
_geom_bond_atom_site_label_1
_geom_bond_atom_site_label_2
_geom_bond_distance
_geom_bond_site_symmetry_2
La0 Ru1 3.488068 1_656
La0 Ru0 3.488068 1_655
La0 Ru3 3.488068 1_555
La0 Ru2 3.488068 1_556
La1 Ru2 3.488068 1_565
La1 Ru3 3.488068 1_565
La1 Ru1 3.488068 1_555
La1 Ru0 3.488068 1_555
Al0 Ru0 2.672970 1_655
Al0 Ru3 2.672970 1_555
Al0 La0 3.202448 1_555
Al1 Ru3 2.672970 1_565
Al1 Ru0 2.672970 1_555
Al1 La1 3.202448 1_555
Al2 Ru2 2.672970 1_565
Al2 Ru1 2.672970 1_555
Al2 La1 3.202448 1_555
Al3 Ru2 2.672970 1_556
Al3 Ru1 2.672970 1_656
Al3 La0 3.202448 1_555
Al4 Ru3 2.578898 1_555
Al4 Ru0 2.578898 1_555
Al4 La1 3.344896 1_545
Al4 La0 3.344896 1_455
Al5 Ru3 2.578898 1_565
Al5 Ru0 2.578898 1_655
Al5 La1 3.344896 1_655
Al5 La0 3.344896 1_565
Al6 Ru2 2.578898 1_565
Al6 Ru1 2.578898 1_655
Al6 La1 3.344896 1_655
Al6 La0 3.344896 1_564
Al7 Ru1 2.578898 1_555
Al7 Ru2 2.578898 1_555
Al7 La0 3.344896 1_454
Al7 La1 3.344896 1_545
Al8 Ru1 2.614807 1_655
Al8 Ru2 2.614807 1_555
Al8 La1 3.237941 1_645
Al8 La0 3.257024 1_554
Al9 Ru2 2.614807 1_566
Al9 Ru1 2.614807 1_556
Al9 La0 3.237941 1_465
Al9 La1 3.257024 1_556
Al10 Ru3 2.614807 1_565
Al10 Ru0 2.614807 1_555
Al10 La0 3.237941 1_465
Al10 La1 3.257024 1_555
Al11 Ru0 2.614807 1_655
Al11 Ru3 2.614807 1_555
Al11 La1 3.237941 1_645
Al11 La0 3.257024 1_555
Al12 Ru1 2.587576 1_656
Al12 Ru0 2.587576 1_655
Al12 La0 3.246653 1_555
Al12 La0 3.624683 1_565
Al13 Ru0 2.587576 1_555
Al13 Ru1 2.587576 1_555
Al13 La1 3.246653 1_555
Al13 La1 3.624683 1_545
Al14 Ru2 2.587576 1_556
Al14 Ru3 2.587576 1_555
Al14 La0 3.246653 1_555
Al14 La0 3.624683 1_455
Al15 Ru3 2.587576 1_565
Al15 Ru2 2.587576 1_565
Al15 La1 3.246653 1_555
Al15 La1 3.624683 1_655
Al16 Ru0 2.759307 1_555
Al16 Ru1 2.759307 1_556
Al16 La0 3.201654 1_455
Al17 Ru0 2.759307 1_655
Al17 Ru1 2.759307 1_655
Al17 La1 3.201654 1_655
Al18 Ru2 2.759307 1_566
Al18 Ru3 2.759307 1_565
Al18 La0 3.201654 1_565
Al19 Ru2 2.759307 1_555
Al19 Ru3 2.759307 1_555
Al19 La1 3.201654 1_545
