# generated using pymatgen
data_KNaSi5SnO16
_symmetry_space_group_name_H-M   'P 1'
_cell_length_a   9.59500991
_cell_length_b   9.59500991
_cell_length_c   9.34574498
_cell_angle_alpha   81.96669920
_cell_angle_beta   81.96669920
_cell_angle_gamma   113.94674701
_symmetry_Int_Tables_number   1
_chemical_formula_structural   KNaSi5SnO16
_chemical_formula_sum   'K2 Na2 Si10 Sn2 O32'
_cell_volume   760.05912296
_cell_formula_units_Z   2
loop_
 _symmetry_equiv_pos_site_id
 _symmetry_equiv_pos_as_xyz
  1  'x, y, z'
loop_
 _atom_site_type_symbol
 _atom_site_label
 _atom_site_symmetry_multiplicity
 _atom_site_fract_x
 _atom_site_fract_y
 _atom_site_fract_z
 _atom_site_occupancy
  K  K0  1  0.87741600  0.87741600  0.36513800  1
  K  K1  1  0.12258400  0.12258400  0.63486200  1
  Na  Na0  1  0.62510400  0.37489600  0.50000000  1
  Na  Na1  1  0.37489600  0.62510400  0.50000000  1
  Si  Si0  1  0.18749800  0.38750400  0.24616100  1
  Si  Si1  1  0.38750400  0.18749800  0.24616100  1
  Si  Si2  1  0.81250200  0.61249600  0.75383900  1
  Si  Si3  1  0.61249600  0.81250200  0.75383900  1
  Si  Si4  1  0.84429600  0.25766000  0.27415200  1
  Si  Si5  1  0.25766000  0.84429600  0.27415200  1
  Si  Si6  1  0.15570400  0.74234000  0.72584800  1
  Si  Si7  1  0.74234000  0.15570400  0.72584800  1
  Si  Si8  1  0.30536700  0.69463300  0.00000000  1
  Si  Si9  1  0.69463300  0.30536700  0.00000000  1
  Sn  Sn0  1  0.00000000  0.50000000  0.50000000  1
  Sn  Sn1  1  0.50000000  0.00000000  0.50000000  1
  O  O0  1  0.01483700  0.24787600  0.24780200  1
  O  O1  1  0.24787600  0.01483700  0.24780200  1
  O  O2  1  0.98516300  0.75212400  0.75219800  1
  O  O3  1  0.75212400  0.98516300  0.75219800  1
  O  O4  1  0.85644400  0.39721900  0.36087500  1
  O  O5  1  0.39721900  0.85644400  0.36087500  1
  O  O6  1  0.14355600  0.60278100  0.63912500  1
  O  O7  1  0.60278100  0.14355600  0.63912500  1
  O  O8  1  0.30582400  0.30582400  0.25429200  1
  O  O9  1  0.69417600  0.69417600  0.74570800  1
  O  O10  1  0.24646600  0.51613400  0.09087200  1
  O  O11  1  0.51613400  0.24646600  0.09087200  1
  O  O12  1  0.75353400  0.48386600  0.90912800  1
  O  O13  1  0.48386600  0.75353400  0.90912800  1
  O  O14  1  0.80864000  0.30181900  0.11204500  1
  O  O15  1  0.30181900  0.80864000  0.11204500  1
  O  O16  1  0.19136000  0.69818100  0.88795500  1
  O  O17  1  0.69818100  0.19136000  0.88795500  1
  O  O18  1  0.18240200  0.46393000  0.39046500  1
  O  O19  1  0.46393000  0.18240200  0.39046500  1
  O  O20  1  0.81759800  0.53607000  0.60953500  1
  O  O21  1  0.53607000  0.81759800  0.60953500  1
  O  O22  1  0.91822100  0.28080200  0.63686900  1
  O  O23  1  0.28080200  0.91822100  0.63686900  1
  O  O24  1  0.08177900  0.71919800  0.36313100  1
  O  O25  1  0.71919800  0.08177900  0.36313100  1
  O  O26  1  0.13585200  0.21265600  0.92764000  1
  O  O27  1  0.21265600  0.13585200  0.92764000  1
  O  O28  1  0.86414800  0.78734400  0.07236000  1
  O  O29  1  0.78734400  0.86414800  0.07236000  1
  O  O30  1  0.40708700  0.40708700  0.58992200  1
  O  O31  1  0.59291300  0.59291300  0.41007800  1
loop_
_geom_bond_atom_site_label_1
_geom_bond_atom_site_label_2
_geom_bond_distance
_geom_bond_site_symmetry_2
K0 O31 2.896548 1_555
K0 O24 2.926456 1_655
K0 O25 2.926456 1_565
K0 O28 2.986479 1_555
K0 O29 2.986479 1_555
K0 O0 3.205895 1_665
K0 O1 3.205895 1_665
K1 O30 2.896548 1_555
K1 O23 2.926456 1_545
K1 O22 2.926456 1_455
K1 O26 2.986479 1_555
K1 O27 2.986479 1_555
K1 O2 3.205895 1_445
K1 O3 3.205895 1_445
Na0 O31 2.298543 1_555
Na0 O30 2.298543 1_555
Na0 O7 2.322310 1_555
Na0 O4 2.322310 1_555
Na0 O20 2.345866 1_555
Na0 O19 2.345866 1_555
Na1 O31 2.298543 1_555
Na1 O30 2.298543 1_555
Na1 O6 2.322310 1_555
Na1 O5 2.322310 1_555
Na1 O21 2.345866 1_555
Na1 O18 2.345866 1_555
O0 Si0 1.650797 1_555
O0 Si4 1.663012 1_455
O1 Si1 1.650797 1_555
O1 Si5 1.663012 1_545
O2 Si2 1.650797 1_555
O2 Si6 1.663012 1_655
O3 Si3 1.650797 1_555
O3 Si7 1.663012 1_565
O4 Si4 1.632982 1_555
O4 Sn0 2.077664 1_655
O5 Si5 1.632982 1_555
O5 Sn1 2.077664 1_565
O6 Si6 1.632982 1_555
O6 Sn0 2.077664 1_555
O7 Si7 1.632982 1_555
O7 Sn1 2.077664 1_555
O8 Si1 1.624427 1_555
O8 Si0 1.624427 1_555
O9 Si3 1.624427 1_555
O9 Si2 1.624427 1_555
O10 Si8 1.627131 1_555
O10 Si0 1.628689 1_555
O11 Si9 1.627131 1_555
O11 Si1 1.628689 1_555
O12 Si9 1.627131 1_556
O12 Si2 1.628689 1_555
O13 Si8 1.627131 1_556
O13 Si3 1.628689 1_555
O14 Si9 1.623177 1_555
O14 Si4 1.635529 1_555
O15 Si8 1.623177 1_555
O15 Si5 1.635529 1_555
O16 Si8 1.623177 1_556
O16 Si6 1.635529 1_555
O17 Si9 1.623177 1_556
O17 Si7 1.635529 1_555
O18 Si0 1.626659 1_555
O18 Sn0 2.078632 1_555
O19 Si1 1.626659 1_555
O19 Sn1 2.078632 1_555
O20 Si2 1.626659 1_555
O20 Sn0 2.078632 1_655
O21 Si3 1.626659 1_555
O21 Sn1 2.078632 1_565
O22 Si7 1.632371 1_555
O22 Sn0 2.074424 1_655
O23 Si6 1.632371 1_555
O23 Sn1 2.074424 1_565
O24 Si5 1.632371 1_555
O24 Sn0 2.074424 1_555
O25 Si4 1.632371 1_555
O25 Sn1 2.074424 1_555
O26 O27 1.235718 1_555
O28 O29 1.235718 1_555
