# generated using pymatgen
data_Nd2Ti12(CuO4)9
_symmetry_space_group_name_H-M   'P 1'
_cell_length_a   10.53680902
_cell_length_b   10.53680902
_cell_length_c   6.47410800
_cell_angle_alpha   90.00000000
_cell_angle_beta   90.00000000
_cell_angle_gamma   119.99999383
_symmetry_Int_Tables_number   1
_chemical_formula_structural   Nd2Ti12(CuO4)9
_chemical_formula_sum   'Nd2 Ti12 Cu9 O36'
_cell_volume   622.48489215
_cell_formula_units_Z   1
loop_
 _symmetry_equiv_pos_site_id
 _symmetry_equiv_pos_as_xyz
  1  'x, y, z'
loop_
 _atom_site_type_symbol
 _atom_site_label
 _atom_site_symmetry_multiplicity
 _atom_site_fract_x
 _atom_site_fract_y
 _atom_site_fract_z
 _atom_site_occupancy
  Nd  Nd0  1  0.33333300  0.66666700  0.82897700  1
  Nd  Nd1  1  0.66666700  0.33333300  0.17102300  1
  Ti  Ti0  1  0.00000000  0.50000000  0.00000000  1
  Ti  Ti1  1  0.31793700  0.16027100  0.33688700  1
  Ti  Ti2  1  0.68206300  0.83972900  0.66311300  1
  Ti  Ti3  1  0.33333300  0.66666700  0.34038000  1
  Ti  Ti4  1  0.66666700  0.33333300  0.65962000  1
  Ti  Ti5  1  0.00000000  0.00000000  0.00000000  1
  Ti  Ti6  1  0.50000000  0.50000000  0.00000000  1
  Ti  Ti7  1  0.83972900  0.15766600  0.33688700  1
  Ti  Ti8  1  0.16027100  0.84233400  0.66311300  1
  Ti  Ti9  1  0.15766600  0.31793700  0.66311300  1
  Ti  Ti10  1  0.50000000  0.00000000  0.00000000  1
  Ti  Ti11  1  0.84233400  0.68206300  0.33688700  1
  Cu  Cu0  1  0.33479000  0.16721400  0.83621200  1
  Cu  Cu1  1  0.66521000  0.83278600  0.16378800  1
  Cu  Cu2  1  0.00000000  0.50000000  0.50000000  1
  Cu  Cu3  1  0.16757500  0.33479000  0.16378800  1
  Cu  Cu4  1  0.50000000  0.00000000  0.50000000  1
  Cu  Cu5  1  0.83242500  0.66521000  0.83621200  1
  Cu  Cu6  1  0.50000000  0.50000000  0.50000000  1
  Cu  Cu7  1  0.83278600  0.16757500  0.83621200  1
  Cu  Cu8  1  0.16721400  0.83242500  0.16378800  1
  O  O0  1  0.26803700  0.22447100  0.58693600  1
  O  O1  1  0.59217200  0.88422300  0.91537900  1
  O  O2  1  0.92556300  0.55102200  0.24910700  1
  O  O3  1  0.80780800  0.31586200  0.48542900  1
  O  O4  1  0.14620400  0.98244300  0.82908100  1
  O  O5  1  0.47503200  0.64984500  0.14959100  1
  O  O6  1  0.52496800  0.35015500  0.85040900  1
  O  O7  1  0.85379600  0.01755700  0.17091900  1
  O  O8  1  0.19219200  0.68413800  0.51457100  1
  O  O9  1  0.07443700  0.44897800  0.75089300  1
  O  O10  1  0.40782800  0.11577700  0.08462100  1
  O  O11  1  0.73196300  0.77552900  0.41306400  1
  O  O12  1  0.04356700  0.26803700  0.41306400  1
  O  O13  1  0.37454100  0.92556300  0.75089300  1
  O  O14  1  0.70794900  0.59217200  0.08462100  1
  O  O15  1  0.16376100  0.14620400  0.17091900  1
  O  O16  1  0.49194700  0.80780800  0.51457100  1
  O  O17  1  0.82518700  0.47503200  0.85040900  1
  O  O18  1  0.17481300  0.52496800  0.14959100  1
  O  O19  1  0.50805300  0.19219200  0.48542900  1
  O  O20  1  0.83623900  0.85379600  0.82908100  1
  O  O21  1  0.29205100  0.40782800  0.91537900  1
  O  O22  1  0.62545900  0.07443700  0.24910700  1
  O  O23  1  0.95643300  0.73196300  0.58693600  1
  O  O24  1  0.01755700  0.16376100  0.82908100  1
  O  O25  1  0.35015500  0.82518700  0.14959100  1
  O  O26  1  0.68413800  0.49194700  0.48542900  1
  O  O27  1  0.44897800  0.37454100  0.24910700  1
  O  O28  1  0.77552900  0.04356700  0.58693600  1
  O  O29  1  0.11577700  0.70794900  0.91537900  1
  O  O30  1  0.88422300  0.29205100  0.08462100  1
  O  O31  1  0.22447100  0.95643300  0.41306400  1
  O  O32  1  0.55102200  0.62545900  0.75089300  1
  O  O33  1  0.31586200  0.50805300  0.51457100  1
  O  O34  1  0.64984500  0.17481300  0.85040900  1
  O  O35  1  0.98244300  0.83623900  0.17091900  1
loop_
_geom_bond_atom_site_label_1
_geom_bond_atom_site_label_2
_geom_bond_distance
_geom_bond_site_symmetry_2
Nd0 O8 2.581202 1_555
Nd0 O16 2.581210 1_555
Nd0 O33 2.581215 1_555
Nd0 O13 2.588679 1_555
Nd0 O9 2.588683 1_555
Nd0 O32 2.588689 1_555
Nd0 O29 2.598862 1_555
Nd0 O1 2.598869 1_555
Nd0 O21 2.598873 1_555
Nd0 O25 2.614140 1_556
Nd0 O18 2.614143 1_556
Nd0 O5 2.614147 1_556
Nd1 O3 2.581202 1_555
Nd1 O19 2.581210 1_555
Nd1 O26 2.581215 1_555
Nd1 O22 2.588679 1_555
Nd1 O2 2.588683 1_555
Nd1 O27 2.588689 1_555
Nd1 O30 2.598862 1_555
Nd1 O10 2.598869 1_555
Nd1 O14 2.598873 1_555
Nd1 O34 2.614140 1_554
Nd1 O17 2.614143 1_554
Nd1 O6 2.614147 1_554
Cu0 O4 1.967846 1_545
Cu0 O6 1.968997 1_555
Cu0 O0 1.971680 1_555
Cu0 O10 1.972183 1_556
Cu1 O7 1.967846 1_565
Cu1 O5 1.968997 1_555
Cu1 O11 1.971680 1_555
Cu1 O1 1.972183 1_554
Cu2 O8 1.986262 1_555
Cu2 O3 1.986262 1_455
Cu2 O9 1.991039 1_555
Cu2 O2 1.991039 1_455
Cu3 O15 1.967850 1_555
Cu3 O18 1.968992 1_555
Cu3 O12 1.971670 1_555
Cu3 O21 1.972188 1_554
Cu4 O16 1.986267 1_545
Cu4 O19 1.986267 1_555
Cu4 O22 1.991039 1_555
Cu4 O13 1.991039 1_545
Cu5 O20 1.967850 1_555
Cu5 O17 1.968992 1_555
Cu5 O23 1.971670 1_555
Cu5 O14 1.972188 1_556
Cu6 O33 1.986256 1_555
Cu6 O26 1.986256 1_555
Cu6 O32 1.991039 1_555
Cu6 O27 1.991039 1_555
Cu7 O24 1.967840 1_655
Cu7 O34 1.969003 1_555
Cu7 O28 1.971669 1_555
Cu7 O30 1.972188 1_556
Cu8 O35 1.967840 1_455
Cu8 O25 1.969003 1_555
Cu8 O31 1.971669 1_555
Cu8 O29 1.972188 1_554
O0 Ti1 1.926236 1_555
O0 Ti9 1.926373 1_555
O1 Ti10 1.978977 1_566
O1 Ti2 2.056284 1_555
O2 Ti0 1.981617 1_655
O2 Ti11 2.051681 1_555
O3 Ti4 1.947083 1_555
O3 Ti7 2.092150 1_555
O4 Ti8 1.890713 1_555
O4 Ti5 1.979109 1_566
O5 Ti6 1.978739 1_555
O5 Ti3 2.012701 1_555
O6 Ti6 1.978739 1_556
O6 Ti4 2.012701 1_555
O7 Ti7 1.890713 1_555
O7 Ti5 1.979109 1_655
O8 Ti3 1.947083 1_555
O8 Ti8 2.092150 1_555
O9 Ti0 1.981617 1_556
O9 Ti9 2.051681 1_555
O10 Ti10 1.978977 1_555
O10 Ti1 2.056284 1_555
O11 Ti2 1.926236 1_555
O11 Ti11 1.926373 1_555
O12 Ti9 1.926231 1_555
O12 Ti7 1.926382 1_455
O13 Ti10 1.981617 1_566
O13 Ti8 2.051681 1_555
O14 Ti6 1.978978 1_555
O14 Ti11 2.056284 1_555
O15 Ti1 1.890713 1_555
O15 Ti5 1.979109 1_555
O16 Ti3 1.947093 1_555
O16 Ti2 2.092141 1_555
O17 Ti0 1.978740 1_656
O17 Ti4 2.012697 1_555
O18 Ti0 1.978740 1_555
O18 Ti3 2.012697 1_555
O19 Ti4 1.947093 1_555
O19 Ti1 2.092141 1_555
O20 Ti2 1.890713 1_555
O20 Ti5 1.979109 1_666
O21 Ti6 1.978978 1_556
O21 Ti9 2.056284 1_555
O22 Ti10 1.981617 1_555
O22 Ti7 2.051681 1_555
O23 Ti11 1.926231 1_555
O23 Ti8 1.926382 1_655
O24 Ti9 1.890713 1_555
O24 Ti5 1.979109 1_556
O25 Ti10 1.978740 1_565
O25 Ti3 2.012693 1_555
O26 Ti4 1.947100 1_555
O26 Ti11 2.092144 1_555
O27 Ti6 1.981617 1_555
O27 Ti1 2.051681 1_555
O28 Ti7 1.926232 1_555
O28 Ti2 1.926382 1_545
O29 Ti0 1.978978 1_556
O29 Ti8 2.056284 1_555
O30 Ti0 1.978978 1_655
O30 Ti7 2.056284 1_555
O31 Ti8 1.926232 1_555
O31 Ti1 1.926382 1_565
O32 Ti6 1.981617 1_556
O32 Ti2 2.051681 1_555
O33 Ti3 1.947100 1_555
O33 Ti9 2.092144 1_555
O34 Ti10 1.978740 1_556
O34 Ti4 2.012693 1_555
O35 Ti11 1.890713 1_555
O35 Ti5 1.979109 1_665
