# generated using pymatgen
data_Y5O4F7
_symmetry_space_group_name_H-M   'P 1'
_cell_length_a   10.02437500
_cell_length_b   7.82757836
_cell_length_c   6.86105145
_cell_angle_alpha   108.37964015
_cell_angle_beta   90.00000000
_cell_angle_gamma   90.00000000
_symmetry_Int_Tables_number   1
_chemical_formula_structural   Y5O4F7
_chemical_formula_sum   'Y10 O8 F14'
_cell_volume   510.90032519
_cell_formula_units_Z   2
loop_
 _symmetry_equiv_pos_site_id
 _symmetry_equiv_pos_as_xyz
  1  'x, y, z'
loop_
 _atom_site_type_symbol
 _atom_site_label
 _atom_site_symmetry_multiplicity
 _atom_site_fract_x
 _atom_site_fract_y
 _atom_site_fract_z
 _atom_site_occupancy
  Y  Y0  1  0.20369100  0.22074800  0.02097200  1
  Y  Y1  1  0.16049300  0.67105700  0.93931600  1
  Y  Y2  1  0.72481900  0.36726900  0.56463500  1
  Y  Y3  1  0.34713800  0.29676700  0.51486200  1
  Y  Y4  1  0.47799200  0.95045300  0.07325100  1
  Y  Y5  1  0.65286200  0.79676700  0.51486200  1
  Y  Y6  1  0.52200800  0.45045300  0.07325100  1
  Y  Y7  1  0.27518100  0.86726900  0.56463500  1
  Y  Y8  1  0.83950700  0.17105700  0.93931600  1
  Y  Y9  1  0.79630900  0.72074800  0.02097200  1
  O  O0  1  0.40653500  0.00023900  0.40605300  1
  O  O1  1  0.31211100  0.45404000  0.92808000  1
  O  O2  1  0.41339800  0.23913400  0.17009000  1
  O  O3  1  0.26738800  0.92162200  0.92406900  1
  O  O4  1  0.73261200  0.42162200  0.92406900  1
  O  O5  1  0.58660200  0.73913400  0.17009000  1
  O  O6  1  0.59346500  0.50023900  0.40605300  1
  O  O7  1  0.68788900  0.95404000  0.92808000  1
  F  F0  1  0.16122900  0.24895300  0.34225900  1
  F  F1  1  0.98774400  0.85981000  0.07756100  1
  F  F2  1  0.01776600  0.02584700  0.80303100  1
  F  F3  1  0.80764200  0.21740100  0.26973600  1
  F  F4  1  0.78637500  0.64939000  0.67136000  1
  F  F5  1  0.75540400  0.08683000  0.59947300  1
  F  F6  1  0.53165100  0.30063700  0.69525200  1
  F  F7  1  0.46834900  0.80063700  0.69525200  1
  F  F8  1  0.24459600  0.58683000  0.59947300  1
  F  F9  1  0.19235800  0.71740100  0.26973600  1
  F  F10  1  0.21362500  0.14939000  0.67136000  1
  F  F11  1  0.01225600  0.35981000  0.07756100  1
  F  F12  1  0.98223400  0.52584700  0.80303100  1
  F  F13  1  0.83877100  0.74895300  0.34225900  1
loop_
_geom_bond_atom_site_label_1
_geom_bond_atom_site_label_2
_geom_bond_distance
_geom_bond_site_symmetry_2
O0 Y7 2.171436 1_545
O0 Y3 2.281796 1_555
O0 Y4 2.305993 1_545
O1 Y1 2.262526 1_555
O1 Y6 2.331881 1_556
O1 Y0 2.378247 1_556
O1 Y3 2.734164 1_555
O2 Y4 2.240547 1_545
O2 Y6 2.248553 1_555
O2 Y0 2.322449 1_555
O2 Y3 2.359516 1_555
O3 Y1 2.266126 1_555
O3 Y0 2.313082 1_566
O3 Y4 2.325932 1_556
O3 Y7 2.367928 1_555
O4 Y8 2.266126 1_555
O4 Y9 2.313082 1_556
O4 Y6 2.325932 1_556
O4 Y2 2.367928 1_555
O5 Y6 2.240547 1_555
O5 Y4 2.248553 1_555
O5 Y9 2.322449 1_555
O5 Y5 2.359516 1_555
O6 Y2 2.171436 1_555
O6 Y5 2.281796 1_555
O6 Y6 2.305993 1_555
O7 Y8 2.262526 1_565
O7 Y4 2.331881 1_556
O7 Y9 2.378247 1_556
O7 Y5 2.734164 1_555
F0 Y3 2.176253 1_555
F0 Y0 2.186835 1_555
F1 Y9 2.179845 1_555
F1 Y1 2.279833 1_654
F2 Y8 2.165452 1_455
F2 Y0 2.568750 1_556
F3 Y2 2.159276 1_555
F3 Y8 2.203277 1_554
F4 Y2 2.184926 1_555
F4 Y5 2.248585 1_555
F4 Y9 2.287088 1_556
F5 Y2 2.302334 1_555
F5 Y8 2.369125 1_555
F5 Y5 2.391139 1_545
F6 Y3 2.220408 1_555
F6 Y2 2.262634 1_555
F6 Y6 2.488514 1_556
F7 Y5 2.220408 1_555
F7 Y7 2.262634 1_555
F7 Y4 2.488514 1_556
F8 Y7 2.302334 1_555
F8 Y1 2.369125 1_555
F8 Y3 2.391139 1_555
F9 Y7 2.159276 1_555
F9 Y1 2.203277 1_554
F10 Y7 2.184926 1_545
F10 Y3 2.248585 1_555
F10 Y0 2.287088 1_556
F11 Y0 2.179845 1_555
F11 Y8 2.279833 1_454
F12 Y1 2.165452 1_655
F12 Y9 2.568750 1_556
F13 Y5 2.176253 1_555
F13 Y9 2.186835 1_555
