# generated using pymatgen
data_La(NO3)3
_symmetry_space_group_name_H-M   'P 1'
_cell_length_a   10.89834905
_cell_length_b   10.89834905
_cell_length_c   13.08267299
_cell_angle_alpha   80.76639359
_cell_angle_beta   80.76639359
_cell_angle_gamma   103.14432768
_symmetry_Int_Tables_number   1
_chemical_formula_structural   La(NO3)3
_chemical_formula_sum   'La8 N24 O72'
_cell_volume   1461.87303627
_cell_formula_units_Z   8
loop_
 _symmetry_equiv_pos_site_id
 _symmetry_equiv_pos_as_xyz
  1  'x, y, z'
loop_
 _atom_site_type_symbol
 _atom_site_label
 _atom_site_symmetry_multiplicity
 _atom_site_fract_x
 _atom_site_fract_y
 _atom_site_fract_z
 _atom_site_occupancy
  La  La0  1  0.00000000  0.50000000  0.50000000  1
  La  La1  1  0.50000000  0.00000000  0.00000000  1
  La  La2  1  0.72031300  0.27968700  0.25000000  1
  La  La3  1  0.27968700  0.72031300  0.75000000  1
  La  La4  1  0.76518400  0.78201000  0.25862400  1
  La  La5  1  0.21799000  0.23481600  0.24137600  1
  La  La6  1  0.23481600  0.21799000  0.74137600  1
  La  La7  1  0.78201000  0.76518400  0.75862400  1
  N  N0  1  0.63999000  0.49382800  0.35746100  1
  N  N1  1  0.50617200  0.36001000  0.14253900  1
  N  N2  1  0.36001000  0.50617200  0.64253900  1
  N  N3  1  0.49382800  0.63999000  0.85746100  1
  N  N4  1  0.74573800  0.17948100  0.04185300  1
  N  N5  1  0.82051900  0.25426200  0.45814700  1
  N  N6  1  0.25426200  0.82051900  0.95814700  1
  N  N7  1  0.17948100  0.74573800  0.54185300  1
  N  N8  1  0.75628000  0.54390500  0.63117500  1
  N  N9  1  0.45609500  0.24372000  0.86882500  1
  N  N10  1  0.24372000  0.45609500  0.36882500  1
  N  N11  1  0.54390500  0.75628000  0.13117500  1
  N  N12  1  0.00407400  0.68019500  0.29092100  1
  N  N13  1  0.31980500  0.99592600  0.20907900  1
  N  N14  1  0.99592600  0.31980500  0.70907900  1
  N  N15  1  0.68019500  0.00407400  0.79092100  1
  N  N16  1  0.83113600  0.86461500  0.52276200  1
  N  N17  1  0.13538500  0.16886400  0.97723800  1
  N  N18  1  0.16886400  0.13538500  0.47723800  1
  N  N19  1  0.86461500  0.83113600  0.02276200  1
  N  N20  1  0.61239100  0.97463200  0.32343200  1
  N  N21  1  0.02536800  0.38760900  0.17656800  1
  N  N22  1  0.38760900  0.02536800  0.67656800  1
  N  N23  1  0.97463200  0.61239100  0.82343200  1
  O  O0  1  0.72433400  0.52429700  0.26902900  1
  O  O1  1  0.47570300  0.27566600  0.23097100  1
  O  O2  1  0.27566600  0.47570300  0.73097100  1
  O  O3  1  0.52429700  0.72433400  0.76902900  1
  O  O4  1  0.58741700  0.37758600  0.39563400  1
  O  O5  1  0.62241400  0.41258300  0.10436600  1
  O  O6  1  0.41258300  0.62241400  0.60436600  1
  O  O7  1  0.37758600  0.58741700  0.89563400  1
  O  O8  1  0.61636900  0.58402600  0.39985900  1
  O  O9  1  0.41597400  0.38363100  0.10014100  1
  O  O10  1  0.38363100  0.41597400  0.60014100  1
  O  O11  1  0.58402600  0.61636900  0.89985900  1
  O  O12  1  0.63446900  0.15162700  0.10678900  1
  O  O13  1  0.84837300  0.36553100  0.39321100  1
  O  O14  1  0.36553100  0.84837300  0.89321100  1
  O  O15  1  0.15162700  0.63446900  0.60678900  1
  O  O16  1  0.75242300  0.13087800  0.96198600  1
  O  O17  1  0.86912200  0.24757700  0.53801400  1
  O  O18  1  0.24757700  0.86912200  0.03801400  1
  O  O19  1  0.13087800  0.75242300  0.46198600  1
  O  O20  1  0.83924000  0.25298600  0.06449000  1
  O  O21  1  0.74701400  0.16076000  0.43551000  1
  O  O22  1  0.16076000  0.74701400  0.93551000  1
  O  O23  1  0.25298600  0.83924000  0.56449000  1
  O  O24  1  0.74560800  0.46166300  0.57412600  1
  O  O25  1  0.53833700  0.25439200  0.92587400  1
  O  O26  1  0.25439200  0.53833700  0.42587400  1
  O  O27  1  0.46166300  0.74560800  0.07412600  1
  O  O28  1  0.86900900  0.62308500  0.62041600  1
  O  O29  1  0.37691500  0.13099100  0.87958400  1
  O  O30  1  0.13099100  0.37691500  0.37958400  1
  O  O31  1  0.62308500  0.86900900  0.12041600  1
  O  O32  1  0.66558300  0.55433200  0.69777300  1
  O  O33  1  0.44566800  0.33441700  0.80222700  1
  O  O34  1  0.33441700  0.44566800  0.30222700  1
  O  O35  1  0.55433200  0.66558300  0.19777300  1
  O  O36  1  0.08958900  0.62153000  0.29749400  1
  O  O37  1  0.37847000  0.91041100  0.20250600  1
  O  O38  1  0.91041100  0.37847000  0.70250600  1
  O  O39  1  0.62153000  0.08958900  0.79749400  1
  O  O40  1  0.00449600  0.76053300  0.21087000  1
  O  O41  1  0.23946700  0.99550400  0.28913000  1
  O  O42  1  0.99550400  0.23946700  0.78913000  1
  O  O43  1  0.76053300  0.00449600  0.71087000  1
  O  O44  1  0.90885600  0.65576800  0.37151600  1
  O  O45  1  0.34423200  0.09114400  0.12848400  1
  O  O46  1  0.09114400  0.34423200  0.62848400  1
  O  O47  1  0.65576800  0.90885600  0.87151600  1
  O  O48  1  0.71761300  0.80834600  0.57644300  1
  O  O49  1  0.19165400  0.28238700  0.92355700  1
  O  O50  1  0.28238700  0.19165400  0.42355700  1
  O  O51  1  0.80834600  0.71761300  0.07644300  1
  O  O52  1  0.85369000  0.88913900  0.42353500  1
  O  O53  1  0.11086100  0.14631000  0.07646500  1
  O  O54  1  0.14631000  0.11086100  0.57646500  1
  O  O55  1  0.88913900  0.85369000  0.92353500  1
  O  O56  1  0.91975100  0.89229000  0.57429800  1
  O  O57  1  0.10771000  0.08024900  0.92570200  1
  O  O58  1  0.08024900  0.10771000  0.42570200  1
  O  O59  1  0.89229000  0.91975100  0.07429800  1
  O  O60  1  0.57037200  0.85479700  0.35481500  1
  O  O61  1  0.14520300  0.42962800  0.14518500  1
  O  O62  1  0.42962800  0.14520300  0.64518500  1
  O  O63  1  0.85479700  0.57037200  0.85481500  1
  O  O64  1  0.54613900  0.05207100  0.34112100  1
  O  O65  1  0.94792900  0.45386100  0.15887900  1
  O  O66  1  0.45386100  0.94792900  0.65887900  1
  O  O67  1  0.05207100  0.54613900  0.84112100  1
  O  O68  1  0.72938000  0.02016400  0.26907900  1
  O  O69  1  0.97983600  0.27062000  0.23092100  1
  O  O70  1  0.27062000  0.97983600  0.73092100  1
  O  O71  1  0.02016400  0.72938000  0.76907900  1
loop_
_geom_bond_atom_site_label_1
_geom_bond_atom_site_label_2
_geom_bond_distance
_geom_bond_site_symmetry_2
La0 O46 2.661026 1_555
La0 O44 2.661026 1_455
La0 O15 2.669598 1_555
La0 O13 2.669598 1_455
La0 O30 2.673310 1_555
La0 O28 2.673310 1_455
La0 O38 2.679936 1_455
La0 O36 2.679936 1_555
La0 O26 2.698482 1_555
La0 O24 2.698482 1_455
La0 O19 2.720009 1_555
La0 O17 2.720009 1_455
La1 O45 2.661026 1_555
La1 O47 2.661026 1_544
La1 O12 2.669598 1_555
La1 O14 2.669598 1_544
La1 O31 2.673310 1_545
La1 O29 2.673310 1_554
La1 O37 2.679936 1_545
La1 O39 2.679936 1_554
La1 O25 2.698482 1_554
La1 O27 2.698482 1_545
La1 O16 2.720009 1_554
La1 O18 2.720009 1_545
La2 O21 2.653947 1_555
La2 O20 2.653947 1_555
La2 O13 2.672309 1_555
La2 O12 2.672309 1_555
La2 O1 2.708132 1_555
La2 O0 2.708132 1_555
La2 O5 2.708462 1_555
La2 O4 2.708462 1_555
La2 O65 2.713129 1_555
La2 O64 2.713129 1_555
La2 O69 2.824929 1_555
La2 O68 2.824929 1_555
La3 O23 2.653947 1_555
La3 O22 2.653947 1_555
La3 O14 2.672309 1_555
La3 O15 2.672309 1_555
La3 O2 2.708132 1_555
La3 O3 2.708132 1_555
La3 O7 2.708462 1_555
La3 O6 2.708462 1_555
La3 O66 2.713129 1_555
La3 O67 2.713129 1_555
La3 O70 2.824929 1_555
La3 O71 2.824929 1_555
La4 O51 2.592615 1_555
La4 O59 2.609226 1_555
La4 O8 2.620570 1_555
La4 O60 2.636191 1_555
La4 O40 2.654991 1_655
La4 O35 2.666352 1_555
La4 O0 2.719262 1_555
La4 O68 2.732203 1_565
La4 O31 2.753703 1_555
La4 O44 2.756035 1_555
La4 O52 2.812873 1_555
La5 O50 2.592615 1_555
La5 O58 2.609226 1_555
La5 O9 2.620570 1_555
La5 O61 2.636191 1_555
La5 O41 2.654991 1_545
La5 O34 2.666352 1_555
La5 O1 2.719262 1_555
La5 O69 2.732203 1_455
La5 O30 2.753703 1_555
La5 O45 2.756035 1_555
La5 O53 2.812873 1_555
La6 O49 2.592615 1_555
La6 O57 2.609226 1_555
La6 O10 2.620570 1_555
La6 O62 2.636191 1_555
La6 O42 2.654991 1_455
La6 O33 2.666352 1_555
La6 O2 2.719262 1_555
La6 O70 2.732203 1_545
La6 O29 2.753703 1_555
La6 O46 2.756035 1_555
La6 O54 2.812873 1_555
La7 O48 2.592615 1_555
La7 O56 2.609226 1_555
La7 O11 2.620570 1_555
La7 O63 2.636191 1_555
La7 O43 2.654991 1_565
La7 O32 2.666352 1_555
La7 O3 2.719262 1_555
La7 O71 2.732203 1_655
La7 O28 2.753703 1_555
La7 O47 2.756035 1_555
La7 O55 2.812873 1_555
N0 O4 1.248038 1_555
N0 O8 1.258768 1_555
N0 O0 1.300113 1_555
N1 O5 1.248038 1_555
N1 O9 1.258768 1_555
N1 O1 1.300113 1_555
N2 O6 1.248038 1_555
N2 O10 1.258768 1_555
N2 O2 1.300113 1_555
N3 O7 1.248038 1_555
N3 O11 1.258768 1_555
N3 O3 1.300113 1_555
N4 O16 1.244340 1_554
N4 O20 1.252818 1_555
N4 O12 1.305215 1_555
N5 O17 1.244340 1_555
N5 O21 1.252818 1_555
N5 O13 1.305215 1_555
N6 O18 1.244340 1_556
N6 O22 1.252818 1_555
N6 O14 1.305215 1_555
N7 O19 1.244340 1_555
N7 O23 1.252818 1_555
N7 O15 1.305215 1_555
N8 O32 1.247217 1_555
N8 O24 1.252620 1_555
N8 O28 1.302756 1_555
N9 O33 1.247217 1_555
N9 O25 1.252620 1_555
N9 O29 1.302756 1_555
N10 O34 1.247217 1_555
N10 O26 1.252620 1_555
N10 O30 1.302756 1_555
N11 O35 1.247217 1_555
N11 O27 1.252620 1_555
N11 O31 1.302756 1_555
N12 O36 1.250526 1_555
N12 O40 1.251305 1_555
N12 O44 1.301007 1_455
N13 O37 1.250526 1_555
N13 O41 1.251305 1_555
N13 O45 1.301007 1_565
N14 O38 1.250526 1_555
N14 O42 1.251305 1_555
N14 O46 1.301007 1_655
N15 O39 1.250526 1_555
N15 O43 1.251305 1_555
N15 O47 1.301007 1_545
N16 O52 1.254364 1_555
N16 O56 1.272787 1_555
N16 O48 1.279785 1_555
N17 O53 1.254364 1_556
N17 O57 1.272787 1_555
N17 O49 1.279785 1_555
N18 O54 1.254364 1_555
N18 O58 1.272787 1_555
N18 O50 1.279785 1_555
N19 O55 1.254364 1_554
N19 O59 1.272787 1_555
N19 O51 1.279785 1_555
N20 O64 1.254336 1_565
N20 O60 1.256780 1_555
N20 O68 1.298279 1_565
N21 O65 1.254336 1_455
N21 O61 1.256780 1_555
N21 O69 1.298279 1_455
N22 O66 1.254336 1_545
N22 O62 1.256780 1_555
N22 O70 1.298279 1_545
N23 O67 1.254336 1_655
N23 O63 1.256780 1_555
N23 O71 1.298279 1_655
