# generated using pymatgen
data_LuAl4Ni
_symmetry_space_group_name_H-M   'P 1'
_cell_length_a   4.00577435
_cell_length_b   6.56711275
_cell_length_c   7.80200207
_cell_angle_alpha   90.00035604
_cell_angle_beta   104.87519389
_cell_angle_gamma   89.99999748
_symmetry_Int_Tables_number   1
_chemical_formula_structural   LuAl4Ni
_chemical_formula_sum   'Lu2 Al8 Ni2'
_cell_volume   198.36414393
_cell_formula_units_Z   2
loop_
 _symmetry_equiv_pos_site_id
 _symmetry_equiv_pos_as_xyz
  1  'x, y, z'
loop_
 _atom_site_type_symbol
 _atom_site_label
 _atom_site_symmetry_multiplicity
 _atom_site_fract_x
 _atom_site_fract_y
 _atom_site_fract_z
 _atom_site_occupancy
  Lu  Lu0  1  0.12077343  0.75000108  0.24154786  1
  Lu  Lu1  1  0.87922657  0.24999892  0.75845214  1
  Al  Al0  1  0.50000000  -0.00000000  -0.00000000  1
  Al  Al1  1  0.50000000  0.50000000  -0.00000000  1
  Al  Al2  1  0.07468431  0.24999917  0.14936961  1
  Al  Al3  1  0.92531569  0.75000083  0.85063039  1
  Al  Al4  1  0.68758151  0.05286458  0.37516402  1
  Al  Al5  1  0.31241849  0.94713542  0.62483598  1
  Al  Al6  1  0.31241699  0.55286226  0.62483398  1
  Al  Al7  1  0.68758301  0.44713774  0.37516602  1
  Ni  Ni0  1  0.77262853  0.75000289  0.54525506  1
  Ni  Ni1  1  0.22737147  0.24999711  0.45474494  1
loop_
_geom_bond_atom_site_label_1
_geom_bond_atom_site_label_2
_geom_bond_distance
_geom_bond_site_symmetry_2
Lu0 Ni0 3.042394 1_455
Lu0 Ni0 3.042402 1_555
Lu1 Ni1 3.042394 1_655
Lu1 Ni1 3.042402 1_555
Al0 Al3 2.824103 1_444
Al0 Al2 2.824103 1_655
Al0 Al3 2.824105 1_544
Al0 Al2 2.824105 1_555
Al0 Al5 2.850158 1_544
Al0 Al4 2.850158 1_555
Al0 Lu1 3.166149 1_454
Al0 Lu0 3.166149 1_645
Al0 Lu1 3.166151 1_554
Al0 Lu0 3.166151 1_545
Al1 Al2 2.824117 1_655
Al1 Al3 2.824117 1_454
Al1 Al2 2.824120 1_555
Al1 Al3 2.824120 1_554
Al1 Al7 2.850176 1_555
Al1 Al6 2.850176 1_554
Al1 Lu1 3.166144 1_454
Al1 Lu0 3.166144 1_655
Al1 Lu0 3.166146 1_555
Al1 Lu1 3.166146 1_554
Al2 Ni1 2.302694 1_555
Al2 Al4 2.930268 1_455
Al2 Al4 2.930268 1_555
Al2 Al7 2.930277 1_455
Al2 Al7 2.930280 1_555
Al2 Lu1 2.947727 1_454
Al2 Lu0 3.356310 1_545
Al2 Lu0 3.356326 1_555
Al3 Ni0 2.302694 1_555
Al3 Al5 2.930268 1_655
Al3 Al5 2.930268 1_555
Al3 Al6 2.930277 1_655
Al3 Al6 2.930280 1_555
Al3 Lu0 2.947727 1_656
Al3 Lu1 3.356310 1_565
Al3 Lu1 3.356326 1_555
Al4 Ni0 2.366615 1_545
Al4 Ni1 2.459188 1_655
Al4 Ni1 2.459191 1_555
Al4 Al7 2.589236 1_555
Al4 Al5 2.835149 1_545
Al4 Al5 2.835155 1_645
Al4 Lu0 2.997089 1_645
Al4 Lu0 2.997089 1_545
Al4 Lu1 3.166890 1_555
Al5 Ni1 2.366615 1_565
Al5 Ni0 2.459188 1_455
Al5 Ni0 2.459191 1_555
Al5 Al6 2.589236 1_555
Al5 Lu1 2.997089 1_465
Al5 Lu1 2.997089 1_565
Al5 Lu0 3.166890 1_555
Al6 Ni1 2.366612 1_555
Al6 Ni0 2.459215 1_455
Al6 Ni0 2.459221 1_555
Al6 Al7 2.835118 1_555
Al6 Al7 2.835119 1_455
Al6 Lu1 2.997100 1_455
Al6 Lu1 2.997103 1_555
Al6 Lu0 3.166904 1_555
Al7 Ni0 2.366612 1_555
Al7 Ni1 2.459215 1_655
Al7 Ni1 2.459221 1_555
Al7 Lu0 2.997100 1_655
Al7 Lu0 2.997103 1_555
Al7 Lu1 3.166904 1_555
