# generated using pymatgen
data_Ba4Li(RhO3)4
_symmetry_space_group_name_H-M   'P 1'
_cell_length_a   5.81205700
_cell_length_b   5.81205811
_cell_length_c   10.06441800
_cell_angle_alpha   90.00000000
_cell_angle_beta   90.00000000
_cell_angle_gamma   119.99999939
_symmetry_Int_Tables_number   1
_chemical_formula_structural   Ba4Li(RhO3)4
_chemical_formula_sum   'Ba4 Li1 Rh4 O12'
_cell_volume   294.42800252
_cell_formula_units_Z   1
loop_
 _symmetry_equiv_pos_site_id
 _symmetry_equiv_pos_as_xyz
  1  'x, y, z'
loop_
 _atom_site_type_symbol
 _atom_site_label
 _atom_site_symmetry_multiplicity
 _atom_site_fract_x
 _atom_site_fract_y
 _atom_site_fract_z
 _atom_site_occupancy
  Ba  Ba0  1  0.66666700  0.33333300  0.75028500  1
  Ba  Ba1  1  0.33333300  0.66666700  0.25056400  1
  Ba  Ba2  1  0.00000000  0.00000000  0.45542700  1
  Ba  Ba3  1  0.00000000  0.00000000  0.04518900  1
  Li  Li0  1  0.00000000  0.00000000  0.75079300  1
  Rh  Rh0  1  0.33333300  0.66666700  0.88670400  1
  Rh  Rh1  1  0.66666700  0.33333300  0.38749400  1
  Rh  Rh2  1  0.66666700  0.33333300  0.11317000  1
  Rh  Rh3  1  0.33333300  0.66666700  0.61407500  1
  O  O0  1  0.18179200  0.36358500  0.75034300  1
  O  O1  1  0.81767000  0.18233000  0.25026000  1
  O  O2  1  0.36466200  0.18233000  0.25026000  1
  O  O3  1  0.63641500  0.81820800  0.75034300  1
  O  O4  1  0.18179200  0.81820800  0.75034300  1
  O  O5  1  0.81767000  0.63533800  0.25026000  1
  O  O6  1  0.49615900  0.99231900  0.49413000  1
  O  O7  1  0.49638700  0.50361300  0.00611700  1
  O  O8  1  0.49638700  0.99277400  0.00611700  1
  O  O9  1  0.49615900  0.50384100  0.49413000  1
  O  O10  1  0.00768100  0.50384100  0.49413000  1
  O  O11  1  0.00722600  0.50361300  0.00611700  1
loop_
_geom_bond_atom_site_label_1
_geom_bond_atom_site_label_2
_geom_bond_distance
_geom_bond_site_symmetry_2
Ba0 O0 2.910009 1_655
Ba0 O3 2.910010 1_545
Ba0 O4 2.910015 1_655
Ba0 O4 2.910015 1_545
Ba0 O0 2.910021 1_555
Ba0 O3 2.910021 1_555
Ba0 O11 3.093212 1_656
Ba0 O8 3.093212 1_546
Ba0 O7 3.093215 1_556
Ba0 O10 3.097187 1_655
Ba0 O6 3.097187 1_545
Ba0 O9 3.097193 1_555
Ba1 O5 2.910297 1_455
Ba1 O2 2.910297 1_565
Ba1 O1 2.910305 1_455
Ba1 O1 2.910305 1_565
Ba1 O5 2.910314 1_555
Ba1 O2 2.910315 1_555
Ba1 O10 2.948877 1_555
Ba1 O9 2.948877 1_555
Ba1 O6 2.948877 1_555
Ba1 O11 2.957522 1_555
Ba1 O8 2.957522 1_555
Ba1 O7 2.957525 1_555
Ba2 O1 2.762739 1_455
Ba2 O2 2.762746 1_555
Ba2 O5 2.762746 1_445
Ba2 O6 2.932270 1_545
Ba2 O10 2.932271 1_545
Ba2 O9 2.932273 1_445
Ba2 O9 2.932273 1_555
Ba2 O6 2.932276 1_445
Ba2 O10 2.932276 1_555
Ba3 O1 2.762017 1_455
Ba3 O2 2.762024 1_555
Ba3 O5 2.762024 1_445
Ba3 O8 2.932739 1_445
Ba3 O8 2.932739 1_545
Ba3 O7 2.932740 1_445
Ba3 O7 2.932740 1_555
Ba3 O11 2.932740 1_545
Ba3 O11 2.932740 1_555
Li0 O4 1.830065 1_545
Li0 O3 1.830070 1_445
Li0 O0 1.830071 1_555
O0 Rh3 2.051375 1_555
O0 Rh0 2.052001 1_555
O1 Rh2 2.052901 1_555
O1 Rh1 2.053876 1_555
O2 Rh2 2.052897 1_555
O2 Rh1 2.053872 1_555
O3 Rh3 2.051375 1_555
O3 Rh0 2.052001 1_555
O4 Rh3 2.051375 1_555
O4 Rh0 2.052001 1_555
O5 Rh2 2.052898 1_555
O5 Rh1 2.053872 1_555
O6 Rh1 2.024363 1_565
O6 Rh3 2.035690 1_555
O7 Rh2 2.024655 1_555
O7 Rh0 2.034371 1_554
O8 Rh2 2.024651 1_565
O8 Rh0 2.034367 1_554
O9 Rh1 2.024371 1_555
O9 Rh3 2.035690 1_555
O10 Rh1 2.024362 1_455
O10 Rh3 2.035690 1_555
O11 Rh2 2.024651 1_455
O11 Rh0 2.034367 1_554
