# generated using pymatgen
data_Tb2(Al3Rh)3
_symmetry_space_group_name_H-M   'P 1'
_cell_length_a   7.50368134
_cell_length_b   7.50368134
_cell_length_c   9.43862377
_cell_angle_alpha   90.00000000
_cell_angle_beta   90.00000000
_cell_angle_gamma   119.31513084
_symmetry_Int_Tables_number   1
_chemical_formula_structural   Tb2(Al3Rh)3
_chemical_formula_sum   'Tb4 Al18 Rh6'
_cell_volume   463.38721060
_cell_formula_units_Z   2
loop_
 _symmetry_equiv_pos_site_id
 _symmetry_equiv_pos_as_xyz
  1  'x, y, z'
loop_
 _atom_site_type_symbol
 _atom_site_label
 _atom_site_symmetry_multiplicity
 _atom_site_fract_x
 _atom_site_fract_y
 _atom_site_fract_z
 _atom_site_occupancy
  Tb  Tb0  1  0.99433577  0.67202437  0.25000000  1
  Tb  Tb1  1  0.00566423  0.32797563  0.75000000  1
  Tb  Tb2  1  0.67202437  0.99433577  0.25000000  1
  Tb  Tb3  1  0.32797563  0.00566423  0.75000000  1
  Al  Al0  1  0.13009607  0.13009607  0.25000000  1
  Al  Al1  1  0.86990393  0.86990393  0.75000000  1
  Al  Al2  1  0.00167669  0.33564640  0.07391216  1
  Al  Al3  1  0.99832331  0.66435360  0.92608784  1
  Al  Al4  1  0.99832331  0.66435360  0.57391216  1
  Al  Al5  1  0.33564640  0.00167669  0.42608784  1
  Al  Al6  1  0.00167669  0.33564640  0.42608784  1
  Al  Al7  1  0.66435360  0.99832331  0.57391216  1
  Al  Al8  1  0.66435360  0.99832331  0.92608784  1
  Al  Al9  1  0.33564640  0.00167669  0.07391216  1
  Al  Al10  1  0.33356343  0.33356343  0.54707399  1
  Al  Al11  1  0.66643657  0.66643657  0.45292601  1
  Al  Al12  1  0.66643657  0.66643657  0.04707399  1
  Al  Al13  1  0.33356343  0.33356343  0.95292601  1
  Al  Al14  1  0.33998786  0.54918489  0.25000000  1
  Al  Al15  1  0.66001214  0.45081511  0.75000000  1
  Al  Al16  1  0.54918489  0.33998786  0.25000000  1
  Al  Al17  1  0.45081511  0.66001214  0.75000000  1
  Rh  Rh0  1  0.67221672  0.32778328  -0.00000000  1
  Rh  Rh1  1  0.32778328  0.67221672  -0.00000000  1
  Rh  Rh2  1  0.32778328  0.67221672  0.50000000  1
  Rh  Rh3  1  0.67221672  0.32778328  0.50000000  1
  Rh  Rh4  1  0.00000000  0.00000000  -0.00000000  1
  Rh  Rh5  1  0.00000000  0.00000000  0.50000000  1
loop_
_geom_bond_atom_site_label_1
_geom_bond_atom_site_label_2
_geom_bond_distance
_geom_bond_site_symmetry_2
Al0 Rh4 2.557487 1_555
Al0 Rh5 2.557487 1_555
Al0 Tb0 3.069772 1_445
Al0 Tb2 3.069772 1_445
Al1 Rh4 2.557487 1_666
Al1 Rh5 2.557487 1_665
Al1 Tb3 3.069772 1_665
Al1 Tb1 3.069772 1_665
Al2 Rh0 2.541441 1_455
Al2 Rh4 2.607504 1_555
Al2 Rh1 2.607906 1_555
Al2 Tb2 3.039196 1_445
Al2 Tb0 3.045071 1_455
Al2 Tb1 3.058249 1_554
Al3 Rh1 2.541441 1_656
Al3 Rh4 2.607504 1_666
Al3 Rh0 2.607906 1_556
Al3 Tb3 3.039196 1_665
Al3 Tb1 3.045071 1_655
Al3 Tb0 3.058249 1_556
Al4 Rh2 2.541441 1_655
Al4 Rh5 2.607504 1_665
Al4 Rh3 2.607906 1_555
Al4 Tb3 3.039196 1_665
Al4 Tb1 3.045071 1_655
Al4 Tb0 3.058249 1_555
Al5 Rh2 2.541441 1_545
Al5 Rh5 2.607504 1_555
Al5 Rh3 2.607906 1_555
Al5 Tb0 3.039196 1_445
Al5 Tb2 3.045071 1_545
Al5 Tb3 3.058249 1_555
Al6 Rh3 2.541441 1_455
Al6 Rh5 2.607504 1_555
Al6 Rh2 2.607906 1_555
Al6 Tb2 3.039196 1_445
Al6 Tb0 3.045071 1_455
Al6 Tb1 3.058249 1_555
Al7 Rh3 2.541441 1_565
Al7 Rh5 2.607504 1_665
Al7 Rh2 2.607906 1_555
Al7 Tb1 3.039196 1_665
Al7 Tb3 3.045071 1_565
Al7 Tb2 3.058249 1_555
Al8 Rh0 2.541441 1_566
Al8 Rh4 2.607504 1_666
Al8 Rh1 2.607906 1_556
Al8 Tb1 3.039196 1_665
Al8 Tb3 3.045071 1_565
Al8 Tb2 3.058249 1_556
Al9 Rh1 2.541441 1_545
Al9 Rh4 2.607504 1_555
Al9 Rh0 2.607906 1_555
Al9 Tb0 3.039196 1_445
Al9 Tb2 3.045071 1_545
Al9 Tb3 3.058249 1_554
Al10 Rh5 2.567555 1_555
Al10 Rh3 2.600893 1_555
Al10 Rh2 2.600893 1_555
Al10 Tb3 3.102111 1_555
Al10 Tb1 3.102111 1_555
Al11 Rh5 2.567555 1_665
Al11 Rh3 2.600893 1_555
Al11 Rh2 2.600893 1_555
Al11 Tb0 3.102111 1_555
Al11 Tb2 3.102111 1_555
Al12 Rh4 2.567555 1_665
Al12 Rh1 2.600893 1_555
Al12 Rh0 2.600893 1_555
Al12 Tb0 3.102111 1_555
Al12 Tb2 3.102111 1_555
Al13 Rh4 2.567555 1_556
Al13 Rh0 2.600893 1_556
Al13 Rh1 2.600893 1_556
Al13 Tb3 3.102111 1_555
Al13 Tb1 3.102111 1_555
Al14 Rh2 2.551751 1_555
Al14 Rh1 2.551751 1_555
Al14 Tb2 3.035717 1_555
Al14 Tb0 3.149246 1_455
Al15 Rh0 2.551751 1_556
Al15 Rh3 2.551751 1_555
Al15 Tb3 3.035717 1_555
Al15 Tb1 3.149246 1_655
Al16 Rh0 2.551751 1_555
Al16 Rh3 2.551751 1_555
Al16 Tb0 3.035717 1_555
Al16 Tb2 3.149246 1_545
Al17 Rh2 2.551751 1_555
Al17 Rh1 2.551751 1_556
Al17 Tb1 3.035717 1_555
Al17 Tb3 3.149246 1_565
Rh0 Tb2 3.438730 1_545
Rh0 Tb1 3.438730 1_654
Rh0 Tb3 3.459586 1_554
Rh0 Tb0 3.459586 1_555
Rh1 Tb0 3.438730 1_455
Rh1 Tb3 3.438730 1_564
Rh1 Tb1 3.459586 1_554
Rh1 Tb2 3.459586 1_555
Rh2 Tb0 3.438730 1_455
Rh2 Tb3 3.438730 1_565
Rh2 Tb1 3.459586 1_555
Rh2 Tb2 3.459586 1_555
Rh3 Tb2 3.438730 1_545
Rh3 Tb1 3.438730 1_655
Rh3 Tb0 3.459586 1_555
Rh3 Tb3 3.459586 1_555
Rh4 Tb0 3.394701 1_445
Rh4 Tb3 3.394701 1_554
Rh4 Tb2 3.394701 1_445
Rh4 Tb1 3.394701 1_554
Rh5 Tb0 3.394701 1_445
Rh5 Tb1 3.394701 1_555
Rh5 Tb2 3.394701 1_445
Rh5 Tb3 3.394701 1_555
