# generated using pymatgen
data_CaSnO6
_symmetry_space_group_name_H-M   'P 1'
_cell_length_a   8.79280300
_cell_length_b   8.79280300
_cell_length_c   8.79280300
_cell_angle_alpha   90.00000000
_cell_angle_beta   90.00000000
_cell_angle_gamma   90.00000000
_symmetry_Int_Tables_number   1
_chemical_formula_structural   CaSnO6
_chemical_formula_sum   'Ca4 Sn4 O24'
_cell_volume   679.80136002
_cell_formula_units_Z   4
loop_
 _symmetry_equiv_pos_site_id
 _symmetry_equiv_pos_as_xyz
  1  'x, y, z'
loop_
 _atom_site_type_symbol
 _atom_site_label
 _atom_site_symmetry_multiplicity
 _atom_site_fract_x
 _atom_site_fract_y
 _atom_site_fract_z
 _atom_site_occupancy
  Ca  Ca0  1  0.25000000  0.75000000  0.75000000  1
  Ca  Ca1  1  0.75000000  0.75000000  0.25000000  1
  Ca  Ca2  1  0.75000000  0.25000000  0.75000000  1
  Ca  Ca3  1  0.25000000  0.25000000  0.25000000  1
  Sn  Sn0  1  0.75000000  0.25000000  0.25000000  1
  Sn  Sn1  1  0.25000000  0.25000000  0.75000000  1
  Sn  Sn2  1  0.25000000  0.75000000  0.25000000  1
  Sn  Sn3  1  0.75000000  0.75000000  0.75000000  1
  O  O0  1  0.74304900  0.25695100  0.48422600  1
  O  O1  1  0.25695100  0.25695100  0.51577400  1
  O  O2  1  0.25695100  0.74304900  0.48422600  1
  O  O3  1  0.74304900  0.74304900  0.51577400  1
  O  O4  1  0.51577400  0.25695100  0.25695100  1
  O  O5  1  0.48422600  0.25695100  0.74304900  1
  O  O6  1  0.48422600  0.74304900  0.25695100  1
  O  O7  1  0.51577400  0.74304900  0.74304900  1
  O  O8  1  0.25695100  0.51577400  0.25695100  1
  O  O9  1  0.74304900  0.48422600  0.25695100  1
  O  O10  1  0.25695100  0.48422600  0.74304900  1
  O  O11  1  0.74304900  0.51577400  0.74304900  1
  O  O12  1  0.75695100  0.24304900  0.01577400  1
  O  O13  1  0.24304900  0.24304900  0.98422600  1
  O  O14  1  0.24304900  0.75695100  0.01577400  1
  O  O15  1  0.75695100  0.75695100  0.98422600  1
  O  O16  1  0.98422600  0.24304900  0.24304900  1
  O  O17  1  0.01577400  0.24304900  0.75695100  1
  O  O18  1  0.01577400  0.75695100  0.24304900  1
  O  O19  1  0.98422600  0.75695100  0.75695100  1
  O  O20  1  0.24304900  0.98422600  0.24304900  1
  O  O21  1  0.75695100  0.01577400  0.24304900  1
  O  O22  1  0.24304900  0.01577400  0.75695100  1
  O  O23  1  0.75695100  0.98422600  0.75695100  1
loop_
_geom_bond_atom_site_label_1
_geom_bond_atom_site_label_2
_geom_bond_distance
_geom_bond_site_symmetry_2
Ca0 O14 2.338496 1_556
Ca0 O7 2.338496 1_555
Ca0 O22 2.338496 1_565
Ca0 O10 2.338496 1_555
Ca0 O2 2.338496 1_555
Ca0 O19 2.338496 1_455
Ca1 O3 2.338496 1_555
Ca1 O21 2.338496 1_565
Ca1 O18 2.338496 1_655
Ca1 O9 2.338496 1_555
Ca1 O6 2.338496 1_555
Ca1 O15 2.338496 1_554
Ca2 O11 2.338496 1_555
Ca2 O12 2.338496 1_556
Ca2 O17 2.338496 1_655
Ca2 O5 2.338496 1_555
Ca2 O0 2.338496 1_555
Ca2 O23 2.338496 1_545
Ca3 O1 2.338496 1_555
Ca3 O4 2.338496 1_555
Ca3 O8 2.338496 1_555
Ca3 O16 2.338496 1_455
Ca3 O20 2.338496 1_545
Ca3 O13 2.338496 1_554
O0 Sn0 2.061316 1_555
O1 Sn1 2.061316 1_555
O2 Sn2 2.061316 1_555
O3 Sn3 2.061316 1_555
O4 Sn0 2.061316 1_555
O5 Sn1 2.061316 1_555
O6 Sn2 2.061316 1_555
O7 Sn3 2.061316 1_555
O8 Sn2 2.061316 1_555
O9 Sn0 2.061316 1_555
O10 Sn1 2.061316 1_555
O11 Sn3 2.061316 1_555
O12 Sn0 2.061316 1_555
O13 Sn1 2.061316 1_555
O14 Sn2 2.061316 1_555
O15 Sn3 2.061316 1_555
O16 Sn0 2.061316 1_555
O17 Sn1 2.061316 1_555
O18 Sn2 2.061316 1_555
O19 Sn3 2.061316 1_555
O20 Sn2 2.061316 1_555
O21 Sn0 2.061316 1_555
O22 Sn1 2.061316 1_555
O23 Sn3 2.061316 1_555
