# generated using pymatgen
data_La2Ga7Au
_symmetry_space_group_name_H-M   'P 1'
_cell_length_a   4.42781294
_cell_length_b   4.42781294
_cell_length_c   10.43923829
_cell_angle_alpha   90.00000000
_cell_angle_beta   90.00000000
_cell_angle_gamma   90.00000000
_symmetry_Int_Tables_number   1
_chemical_formula_structural   La2Ga7Au
_chemical_formula_sum   'La2 Ga7 Au1'
_cell_volume   204.66677266
_cell_formula_units_Z   1
loop_
 _symmetry_equiv_pos_site_id
 _symmetry_equiv_pos_as_xyz
  1  'x, y, z'
loop_
 _atom_site_type_symbol
 _atom_site_label
 _atom_site_symmetry_multiplicity
 _atom_site_fract_x
 _atom_site_fract_y
 _atom_site_fract_z
 _atom_site_occupancy
  La  La0  1  -0.00000000  -0.00000000  0.99597722  1
  La  La1  1  0.50000000  0.50000000  0.49198022  1
  Ga  Ga0  1  0.00000000  0.50000000  0.25046778  1
  Ga  Ga1  1  0.50000000  0.00000000  0.74945088  1
  Ga  Ga2  1  0.50000000  -0.00000000  0.25046778  1
  Ga  Ga3  1  -0.00000000  0.50000000  0.74945088  1
  Ga  Ga4  1  -0.00000000  -0.00000000  0.61969744  1
  Ga  Ga5  1  0.00000000  0.00000000  0.38279649  1
  Ga  Ga6  1  0.50000000  0.50000000  0.88488612  1
  Au  Au0  1  0.50000000  0.50000000  0.12482619  1
loop_
_geom_bond_atom_site_label_1
_geom_bond_atom_site_label_2
_geom_bond_distance
_geom_bond_site_symmetry_2
Ga0 Ga5 2.609536 1_555
Ga0 Ga5 2.609536 1_565
Ga0 La1 3.355274 1_455
Ga0 La1 3.355274 1_555
Ga0 La0 3.458232 1_554
Ga0 La0 3.458232 1_564
Ga1 Ga4 2.595405 1_655
Ga1 Ga4 2.595405 1_555
Ga1 Ga6 2.626847 1_545
Ga1 Ga6 2.626847 1_555
Ga1 La0 3.394779 1_655
Ga1 La0 3.394779 1_555
Ga1 La1 3.482189 1_545
Ga1 La1 3.482189 1_555
Ga2 Ga5 2.609536 1_555
Ga2 Ga5 2.609536 1_655
Ga2 La1 3.355274 1_555
Ga2 La1 3.355274 1_545
Ga2 La0 3.458232 1_554
Ga2 La0 3.458232 1_654
Ga3 Ga4 2.595405 1_565
Ga3 Ga4 2.595405 1_555
Ga3 Ga6 2.626847 1_455
Ga3 Ga6 2.626847 1_555
Ga3 La0 3.394779 1_565
Ga3 La0 3.394779 1_555
Ga3 La1 3.482189 1_455
Ga3 La1 3.482189 1_555
Ga4 Ga5 2.473065 1_555
Ga4 La1 3.402995 1_555
Ga4 La1 3.402995 1_545
Ga4 La1 3.402995 1_445
Ga4 La1 3.402995 1_455
Ga5 La1 3.331951 1_445
Ga5 La1 3.331951 1_455
Ga5 La1 3.331951 1_555
Ga5 La1 3.331951 1_545
Ga6 La0 3.338815 1_665
Ga6 La0 3.338815 1_555
Ga6 La0 3.338815 1_565
Ga6 La0 3.338815 1_655
Au0 Ga6 2.504792 1_554
Au0 Ga0 2.573263 1_655
Au0 Ga2 2.573263 1_555
Au0 Ga2 2.573263 1_565
Au0 Ga0 2.573263 1_555
Au0 La0 3.407641 1_664
Au0 La0 3.407641 1_564
Au0 La0 3.407641 1_654
Au0 La0 3.407641 1_554
