# generated using pymatgen
data_Ba2LiV2(Si2O7)2
_symmetry_space_group_name_H-M   'P 1'
_cell_length_a   5.53824313
_cell_length_b   7.29004102
_cell_length_c   8.21055208
_cell_angle_alpha   90.00515174
_cell_angle_beta   111.03777692
_cell_angle_gamma   89.99242100
_symmetry_Int_Tables_number   1
_chemical_formula_structural   Ba2LiV2(Si2O7)2
_chemical_formula_sum   'Ba2 Li1 V2 Si4 O14'
_cell_volume   309.39697078
_cell_formula_units_Z   1
loop_
 _symmetry_equiv_pos_site_id
 _symmetry_equiv_pos_as_xyz
  1  'x, y, z'
loop_
 _atom_site_type_symbol
 _atom_site_label
 _atom_site_symmetry_multiplicity
 _atom_site_fract_x
 _atom_site_fract_y
 _atom_site_fract_z
 _atom_site_occupancy
  Ba  Ba0  1  0.81460000  0.74998500  0.60066700  1
  Ba  Ba1  1  0.21994600  0.24997000  0.40429700  1
  Li  Li0  1  0.33764700  0.75011200  0.01223900  1
  V  V0  1  0.10266800  0.74993500  0.22208900  1
  V  V1  1  0.92025400  0.25000400  0.78868600  1
  Si  Si0  1  0.42035100  0.52224600  0.79048000  1
  Si  Si1  1  0.61877700  0.47405700  0.21384400  1
  Si  Si2  1  0.42036000  0.97777500  0.79043400  1
  Si  Si3  1  0.61886300  0.02594000  0.21380900  1
  O  O0  1  0.13019800  0.43544600  0.70800100  1
  O  O1  1  0.41156600  0.55845100  0.29069500  1
  O  O2  1  0.13017500  0.06456200  0.70795400  1
  O  O3  1  0.41165500  0.94147700  0.29057900  1
  O  O4  1  0.51689700  0.51809200  0.00323700  1
  O  O5  1  0.51698800  0.98200000  0.00318200  1
  O  O6  1  0.00159300  0.74998200  0.98627500  1
  O  O7  1  0.02753100  0.24998800  0.00185800  1
  O  O8  1  0.38204300  0.75000300  0.74017600  1
  O  O9  1  0.63776600  0.24999700  0.25145700  1
  O  O10  1  0.62249400  0.43674400  0.70886900  1
  O  O11  1  0.90801800  0.55372100  0.30854300  1
  O  O12  1  0.62247800  0.06324700  0.70881400  1
  O  O13  1  0.90813300  0.94626600  0.30850300  1
loop_
_geom_bond_atom_site_label_1
_geom_bond_atom_site_label_2
_geom_bond_distance
_geom_bond_site_symmetry_2
Ba0 O12 2.795203 1_565
Ba0 O10 2.795599 1_555
Ba0 O0 2.825403 1_655
Ba0 O2 2.825775 1_665
Ba0 O8 2.933212 1_655
Ba0 O6 2.956742 1_655
Ba0 O11 2.992943 1_555
Ba0 O13 2.993850 1_555
Ba0 O8 3.003515 1_555
Ba0 O1 3.054620 1_555
Ba0 O3 3.054751 1_555
Ba1 O13 2.743752 1_445
Ba1 O11 2.744089 1_455
Ba1 O1 2.786609 1_555
Ba1 O3 2.787014 1_545
Ba1 O9 3.002361 1_555
Ba1 O9 3.010916 1_455
Ba1 O12 3.011977 1_555
Ba1 O10 3.012503 1_555
Ba1 O2 3.029989 1_555
Ba1 O0 3.030233 1_555
Ba1 O7 3.086353 1_555
Li0 O6 1.795679 1_554
Li0 O5 1.975662 1_555
Li0 O4 1.975890 1_555
Li0 O3 2.581464 1_555
Li0 O1 2.583662 1_555
O0 Si0 1.630994 1_555
O0 V1 2.042539 1_455
O1 Si1 1.616554 1_555
O1 V0 2.121372 1_555
O2 Si2 1.630988 1_545
O2 V1 2.042373 1_455
O3 Si3 1.616461 1_565
O3 V0 2.122255 1_555
O4 Si0 1.633312 1_554
O4 Si1 1.646540 1_555
O5 Si2 1.633223 1_554
O5 Si3 1.646527 1_565
O6 V0 1.812162 1_556
O7 V1 1.633952 1_454
O8 Si0 1.705727 1_555
O8 Si2 1.705743 1_555
O9 Si3 1.658667 1_555
O9 Si1 1.658667 1_555
O10 Si0 1.621469 1_555
O10 V1 2.055677 1_555
O11 Si1 1.616724 1_555
O11 V0 2.064473 1_655
O12 Si2 1.621478 1_545
O12 V1 2.056044 1_555
O13 Si3 1.616774 1_565
O13 V0 2.064192 1_655
