# generated using pymatgen
data_YMg6NiO8
_symmetry_space_group_name_H-M   'P 1'
_cell_length_a   8.96106433
_cell_length_b   4.34473711
_cell_length_c   4.34473711
_cell_angle_alpha   90.00000000
_cell_angle_beta   90.00000000
_cell_angle_gamma   90.00000000
_symmetry_Int_Tables_number   1
_chemical_formula_structural   YMg6NiO8
_chemical_formula_sum   'Y1 Mg6 Ni1 O8'
_cell_volume   169.15568645
_cell_formula_units_Z   1
loop_
 _symmetry_equiv_pos_site_id
 _symmetry_equiv_pos_as_xyz
  1  'x, y, z'
loop_
 _atom_site_type_symbol
 _atom_site_label
 _atom_site_symmetry_multiplicity
 _atom_site_fract_x
 _atom_site_fract_y
 _atom_site_fract_z
 _atom_site_occupancy
  Y  Y0  1  0.00000000  0.00000000  -0.00000000  1
  Mg  Mg0  1  0.50000000  0.00000000  -0.00000000  1
  Mg  Mg1  1  0.50000000  0.50000000  0.50000000  1
  Mg  Mg2  1  0.26328931  0.00000000  0.50000000  1
  Mg  Mg3  1  0.73671069  -0.00000000  0.50000000  1
  Mg  Mg4  1  0.26328931  0.50000000  0.00000000  1
  Mg  Mg5  1  0.73671069  0.50000000  -0.00000000  1
  Ni  Ni0  1  0.00000000  0.50000000  0.50000000  1
  O  O0  1  0.25967874  -0.00000000  -0.00000000  1
  O  O1  1  0.74032126  0.00000000  0.00000000  1
  O  O2  1  0.27233463  0.50000000  0.50000000  1
  O  O3  1  0.72766537  0.50000000  0.50000000  1
  O  O4  1  0.00000000  0.00000000  0.50000000  1
  O  O5  1  0.50000000  0.00000000  0.50000000  1
  O  O6  1  0.00000000  0.50000000  -0.00000000  1
  O  O7  1  0.50000000  0.50000000  -0.00000000  1
loop_
_geom_bond_atom_site_label_1
_geom_bond_atom_site_label_2
_geom_bond_distance
_geom_bond_site_symmetry_2
Mg0 O0 2.153534 1_555
Mg0 O1 2.153534 1_555
Mg0 O5 2.172369 1_554
Mg0 O5 2.172369 1_555
Mg0 O7 2.172369 1_545
Mg0 O7 2.172369 1_555
Mg1 O2 2.040124 1_555
Mg1 O3 2.040124 1_555
Mg1 O5 2.172369 1_555
Mg1 O5 2.172369 1_565
Mg1 O7 2.172369 1_555
Mg1 O7 2.172369 1_556
Mg2 O5 2.121180 1_555
Mg2 O0 2.172609 1_555
Mg2 O0 2.172609 1_556
Mg2 O2 2.173880 1_555
Mg2 O2 2.173880 1_545
Mg2 O4 2.359352 1_555
Mg3 O5 2.121180 1_555
Mg3 O1 2.172609 1_555
Mg3 O1 2.172609 1_556
Mg3 O3 2.173880 1_545
Mg3 O3 2.173880 1_555
Mg3 O4 2.359352 1_655
Mg4 O7 2.121180 1_555
Mg4 O0 2.172609 1_555
Mg4 O0 2.172609 1_565
Mg4 O2 2.173880 1_555
Mg4 O2 2.173880 1_554
Mg4 O6 2.359352 1_555
Mg5 O7 2.121180 1_555
Mg5 O1 2.172609 1_565
Mg5 O1 2.172609 1_555
Mg5 O3 2.173880 1_555
Mg5 O3 2.173880 1_554
Mg5 O6 2.359352 1_655
Ni0 O6 2.172369 1_556
Ni0 O6 2.172369 1_555
Ni0 O4 2.172369 1_555
Ni0 O4 2.172369 1_565
Ni0 O2 2.440408 1_555
Ni0 O3 2.440408 1_455
O0 Y0 2.326998 1_555
O1 Y0 2.326998 1_655
O4 Y0 2.172369 1_556
O4 Y0 2.172369 1_555
O6 Y0 2.172369 1_555
O6 Y0 2.172369 1_565
