# generated using pymatgen
data_ZnMo3P3O13
_symmetry_space_group_name_H-M   'P 1'
_cell_length_a   6.66190600
_cell_length_b   7.74445300
_cell_length_c   10.80212925
_cell_angle_alpha   80.53914099
_cell_angle_beta   90.00000000
_cell_angle_gamma   90.00000000
_symmetry_Int_Tables_number   1
_chemical_formula_structural   ZnMo3P3O13
_chemical_formula_sum   'Zn2 Mo6 P6 O26'
_cell_volume   549.73179337
_cell_formula_units_Z   2
loop_
 _symmetry_equiv_pos_site_id
 _symmetry_equiv_pos_as_xyz
  1  'x, y, z'
loop_
 _atom_site_type_symbol
 _atom_site_label
 _atom_site_symmetry_multiplicity
 _atom_site_fract_x
 _atom_site_fract_y
 _atom_site_fract_z
 _atom_site_occupancy
  Zn  Zn0  1  0.75000000  0.41259200  0.14946300  1
  Zn  Zn1  1  0.25000000  0.58740800  0.85053700  1
  Mo  Mo0  1  0.25000000  0.64170400  0.20935000  1
  Mo  Mo1  1  0.75000000  0.35829600  0.79065000  1
  Mo  Mo2  1  0.25000000  0.23051300  0.44203700  1
  Mo  Mo3  1  0.50000000  0.00000000  0.00000000  1
  Mo  Mo4  1  0.75000000  0.76948700  0.55796300  1
  Mo  Mo5  1  0.00000000  0.00000000  0.00000000  1
  P  P0  1  0.25000000  0.78221200  0.49635800  1
  P  P1  1  0.75000000  0.21778800  0.50364200  1
  P  P2  1  0.25000000  0.26526900  0.76671500  1
  P  P3  1  0.75000000  0.73473100  0.23328500  1
  P  P4  1  0.75000000  0.68306800  0.88680700  1
  P  P5  1  0.25000000  0.31693200  0.11319300  1
  O  O0  1  0.75000000  0.64541200  0.74966700  1
  O  O1  1  0.56510300  0.25317600  0.41630200  1
  O  O2  1  0.25000000  0.20493100  0.64145200  1
  O  O3  1  0.55026300  0.77426400  0.90886800  1
  O  O4  1  0.75000000  0.35072800  0.59807400  1
  O  O5  1  0.75000000  0.11466500  0.89889000  1
  O  O6  1  0.25000000  0.64927200  0.40192600  1
  O  O7  1  0.05026300  0.22573600  0.09113200  1
  O  O8  1  0.25000000  0.96943900  0.41885800  1
  O  O9  1  0.75000000  0.03056100  0.58114200  1
  O  O10  1  0.07181000  0.38789300  0.79063100  1
  O  O11  1  0.25000000  0.88533500  0.10111000  1
  O  O12  1  0.57181000  0.61210700  0.20936900  1
  O  O13  1  0.75000000  0.49094300  0.96435800  1
  O  O14  1  0.75000000  0.79506900  0.35854800  1
  O  O15  1  0.44973700  0.22573600  0.09113200  1
  O  O16  1  0.93489700  0.25317600  0.41630200  1
  O  O17  1  0.43489700  0.74682400  0.58369800  1
  O  O18  1  0.42819000  0.38789300  0.79063100  1
  O  O19  1  0.25000000  0.35458800  0.25033300  1
  O  O20  1  0.75000000  0.89960500  0.12623300  1
  O  O21  1  0.25000000  0.10039500  0.87376700  1
  O  O22  1  0.92819000  0.61210700  0.20936900  1
  O  O23  1  0.94973700  0.77426400  0.90886800  1
  O  O24  1  0.06510300  0.74682400  0.58369800  1
  O  O25  1  0.25000000  0.50905700  0.03564200  1
loop_
_geom_bond_atom_site_label_1
_geom_bond_atom_site_label_2
_geom_bond_distance
_geom_bond_site_symmetry_2
Mo0 O11 2.049832 1_555
Mo0 O6 2.090664 1_555
Mo0 O12 2.156083 1_555
Mo0 O22 2.156083 1_455
Mo0 O19 2.194670 1_555
Mo0 O25 2.282528 1_555
Mo1 O5 2.049832 1_555
Mo1 O4 2.090664 1_555
Mo1 O10 2.156083 1_655
Mo1 O18 2.156083 1_555
Mo1 O0 2.194670 1_555
Mo1 O13 2.282528 1_555
Mo2 O8 2.077763 1_545
Mo2 O16 2.120997 1_455
Mo2 O1 2.120997 1_555
Mo2 O2 2.130523 1_555
Mo2 O19 2.134812 1_555
Mo3 O11 2.106287 1_545
Mo3 O5 2.106287 1_554
Mo3 O15 2.168681 1_555
Mo3 O3 2.168681 1_544
Mo3 O20 2.211143 1_545
Mo3 O21 2.211143 1_554
Mo4 O9 2.077763 1_565
Mo4 O24 2.120997 1_655
Mo4 O17 2.120997 1_555
Mo4 O14 2.130523 1_555
Mo4 O0 2.134812 1_555
Mo5 O11 2.106287 1_545
Mo5 O5 2.106287 1_454
Mo5 O7 2.168681 1_555
Mo5 O23 2.168681 1_444
Mo5 O20 2.211143 1_445
Mo5 O21 2.211143 1_554
O0 P4 1.556158 1_555
O1 P1 1.548376 1_555
O2 P2 1.502370 1_555
O3 P4 1.543211 1_555
O4 P1 1.563892 1_555
O6 P0 1.563892 1_555
O7 P5 1.543211 1_555
O8 P0 1.550550 1_555
O9 P1 1.550550 1_555
O10 P2 1.567933 1_555
O10 Zn1 2.131683 1_555
O12 P3 1.567933 1_555
O12 Zn0 2.131683 1_555
O13 P4 1.582991 1_555
O13 Zn0 1.991843 1_556
O14 P3 1.502370 1_555
O15 P5 1.543211 1_555
O16 P1 1.548376 1_555
O17 P0 1.548376 1_555
O18 P2 1.567933 1_555
O18 Zn1 2.131683 1_555
O19 P5 1.556158 1_555
O20 P3 1.575498 1_555
O21 P2 1.575498 1_555
O22 P3 1.567933 1_555
O22 Zn0 2.131683 1_555
O23 P4 1.543211 1_555
O24 P0 1.548376 1_555
O25 P5 1.582991 1_555
O25 Zn1 1.991843 1_554
