# generated using pymatgen
data_Zn2SiH2O5
_symmetry_space_group_name_H-M   'P 1'
_cell_length_a   5.19859600
_cell_length_b   8.38296300
_cell_length_c   10.73193900
_cell_angle_alpha   90.00000000
_cell_angle_beta   90.00000000
_cell_angle_gamma   90.00000000
_symmetry_Int_Tables_number   1
_chemical_formula_structural   Zn2SiH2O5
_chemical_formula_sum   'Zn8 Si4 H8 O20'
_cell_volume   467.69401580
_cell_formula_units_Z   4
loop_
 _symmetry_equiv_pos_site_id
 _symmetry_equiv_pos_as_xyz
  1  'x, y, z'
loop_
 _atom_site_type_symbol
 _atom_site_label
 _atom_site_symmetry_multiplicity
 _atom_site_fract_x
 _atom_site_fract_y
 _atom_site_fract_z
 _atom_site_occupancy
  Zn  Zn0  1  0.49873000  0.73857700  0.35339800  1
  Zn  Zn1  1  0.49873000  0.26142300  0.64660200  1
  Zn  Zn2  1  0.99873000  0.76142300  0.85339800  1
  Zn  Zn3  1  0.99873000  0.23857700  0.14660200  1
  Zn  Zn4  1  0.99055200  0.83101100  0.17314300  1
  Zn  Zn5  1  0.99055200  0.16898900  0.82685700  1
  Zn  Zn6  1  0.49055200  0.66898900  0.67314300  1
  Zn  Zn7  1  0.49055200  0.33101100  0.32685700  1
  Si  Si0  1  0.00451400  0.53079300  0.35382800  1
  Si  Si1  1  0.00451400  0.46920700  0.64617200  1
  Si  Si2  1  0.50451400  0.96920700  0.85382800  1
  Si  Si3  1  0.50451400  0.03079300  0.14617200  1
  H  H0  1  0.66921200  0.87332800  0.53723000  1
  H  H1  1  0.66921200  0.12667200  0.46277000  1
  H  H2  1  0.16921200  0.62667200  0.03723000  1
  H  H3  1  0.16921200  0.37332800  0.96277000  1
  H  H4  1  0.08093300  0.95418800  0.43780800  1
  H  H5  1  0.08093300  0.04581200  0.56219200  1
  H  H6  1  0.58093300  0.54581200  0.93780800  1
  H  H7  1  0.58093300  0.45418800  0.06219200  1
  O  O0  1  0.12954000  0.70441900  0.31511600  1
  O  O1  1  0.12954000  0.29558100  0.68488400  1
  O  O2  1  0.62954000  0.79558100  0.81511600  1
  O  O3  1  0.62954000  0.20441900  0.18488400  1
  O  O4  1  0.63675500  0.88550200  0.22659000  1
  O  O5  1  0.63675500  0.11449800  0.77341000  1
  O  O6  1  0.13675500  0.61449800  0.72659000  1
  O  O7  1  0.13675500  0.38550200  0.27341000  1
  O  O8  1  0.69219700  0.53329100  0.33261700  1
  O  O9  1  0.69219700  0.46670900  0.66738300  1
  O  O10  1  0.19219700  0.96670900  0.83261700  1
  O  O11  1  0.19219700  0.03329100  0.16738300  1
  O  O12  1  0.51785000  0.80485000  0.52727300  1
  O  O13  1  0.51785000  0.19515000  0.47272700  1
  O  O14  1  0.01785000  0.69515000  0.02727300  1
  O  O15  1  0.01785000  0.30485000  0.97272700  1
  O  O16  1  0.08694800  0.50000000  0.50000000  1
  O  O17  1  0.58694800  0.00000000  0.00000000  1
  O  O18  1  0.96518700  0.00000000  0.50000000  1
  O  O19  1  0.46518700  0.50000000  0.00000000  1
loop_
_geom_bond_atom_site_label_1
_geom_bond_atom_site_label_2
_geom_bond_distance
_geom_bond_site_symmetry_2
H0 O12 0.979854 1_555
H1 O13 0.979854 1_555
H2 O14 0.979854 1_555
H3 O15 0.979854 1_555
H4 O18 0.977255 1_465
H5 O18 0.977255 1_455
H6 O19 0.977255 1_556
H7 O19 0.977255 1_555
O0 Si0 1.647280 1_555
O0 Zn0 1.983527 1_555
O0 Zn4 1.992421 1_455
O1 Si1 1.647280 1_555
O1 Zn1 1.983527 1_555
O1 Zn5 1.992421 1_455
O2 Si2 1.647280 1_555
O2 Zn2 1.983527 1_555
O2 Zn6 1.992421 1_555
O3 Si3 1.647280 1_555
O3 Zn3 1.983527 1_555
O3 Zn7 1.992421 1_555
O4 Si3 1.643442 1_565
O4 Zn0 1.970761 1_555
O4 Zn4 1.980025 1_555
O5 Si2 1.643442 1_545
O5 Zn1 1.970761 1_555
O5 Zn5 1.980025 1_555
O6 Si1 1.643442 1_555
O6 Zn2 1.970761 1_455
O6 Zn6 1.980025 1_555
O7 Si0 1.643442 1_555
O7 Zn3 1.970761 1_455
O7 Zn7 1.980025 1_555
O8 Si0 1.639624 1_655
O8 Zn7 1.994520 1_555
O8 Zn0 2.005692 1_555
O9 Si1 1.639624 1_655
O9 Zn6 1.994520 1_555
O9 Zn1 2.005692 1_555
O10 Si2 1.639624 1_555
O10 Zn5 1.994520 1_465
O10 Zn2 2.005692 1_455
O11 Si3 1.639624 1_555
O11 Zn4 1.994520 1_445
O11 Zn3 2.005692 1_455
O12 Zn6 1.941124 1_555
O12 Zn0 1.949499 1_555
O13 Zn7 1.941124 1_555
O13 Zn1 1.949499 1_555
O14 Zn4 1.941124 1_455
O14 Zn2 1.949499 1_454
O15 Zn5 1.941124 1_455
O15 Zn3 1.949499 1_456
O16 Si1 1.646551 1_555
O16 Si0 1.646551 1_555
O17 Si3 1.646551 1_555
O17 Si2 1.646551 1_544
