# generated using pymatgen
data_BaSrPd(OF)2
_symmetry_space_group_name_H-M   'P 1'
_cell_length_a   7.45443590
_cell_length_b   7.45443590
_cell_length_c   7.45443590
_cell_angle_alpha   147.71308454
_cell_angle_beta   147.71308454
_cell_angle_gamma   46.30909180
_symmetry_Int_Tables_number   1
_chemical_formula_structural   BaSrPd(OF)2
_chemical_formula_sum   'Ba1 Sr1 Pd1 O2 F2'
_cell_volume   117.77583796
_cell_formula_units_Z   1
loop_
 _symmetry_equiv_pos_site_id
 _symmetry_equiv_pos_as_xyz
  1  'x, y, z'
loop_
 _atom_site_type_symbol
 _atom_site_label
 _atom_site_symmetry_multiplicity
 _atom_site_fract_x
 _atom_site_fract_y
 _atom_site_fract_z
 _atom_site_occupancy
  Ba  Ba0  1  0.63710200  0.63710200  0.00000000  1
  Sr  Sr0  1  0.36427400  0.36427400  0.00000000  1
  Pd  Pd0  1  0.00587500  0.00587500  0.00000000  1
  O  O0  1  0.98738500  0.48738500  0.50000000  1
  O  O1  1  0.48738500  0.98738500  0.50000000  1
  F  F0  1  0.75899000  0.25899000  0.50000000  1
  F  F1  1  0.25899000  0.75899000  0.50000000  1
loop_
_geom_bond_atom_site_label_1
_geom_bond_atom_site_label_2
_geom_bond_distance
_geom_bond_site_symmetry_2
Ba0 F0 2.662251 1_565
Ba0 F1 2.662251 1_554
Ba0 F1 2.662251 1_655
Ba0 F0 2.662251 1_554
Ba0 O1 2.916827 1_555
Ba0 O1 2.916827 1_544
Ba0 O0 2.916827 1_454
Ba0 O0 2.916827 1_555
O0 Pd0 2.088096 1_666
O0 Pd0 2.088096 1_655
O0 Sr0 2.672805 1_555
O0 Sr0 2.672805 1_656
O1 Pd0 2.088096 1_666
O1 Pd0 2.088096 1_565
O1 Sr0 2.672805 1_555
O1 Sr0 2.672805 1_566
F0 Sr0 2.525629 1_656
F0 Sr0 2.525629 1_555
F1 Sr0 2.525629 1_566
F1 Sr0 2.525629 1_555
