# generated using pymatgen
data_Cs2CuF4
_symmetry_space_group_name_H-M   'P 1'
_cell_length_a   4.31933474
_cell_length_b   4.31947949
_cell_length_c   7.69532989
_cell_angle_alpha   106.29935875
_cell_angle_beta   106.29879340
_cell_angle_gamma   90.00000000
_symmetry_Int_Tables_number   1
_chemical_formula_structural   Cs2CuF4
_chemical_formula_sum   'Cs2 Cu1 F4'
_cell_volume   131.78096532
_cell_formula_units_Z   1
loop_
 _symmetry_equiv_pos_site_id
 _symmetry_equiv_pos_as_xyz
  1  'x, y, z'
loop_
 _atom_site_type_symbol
 _atom_site_label
 _atom_site_symmetry_multiplicity
 _atom_site_fract_x
 _atom_site_fract_y
 _atom_site_fract_z
 _atom_site_occupancy
  Cs  Cs0  1  0.35435857  0.35435857  0.70871914  1
  Cs  Cs1  1  0.64564143  0.64564143  0.29128086  1
  Cu  Cu0  1  0.00000000  -0.00000000  0.00000000  1
  F  F0  1  0.13390816  0.13390816  0.26781631  1
  F  F1  1  0.86609184  0.86609184  0.73218369  1
  F  F2  1  0.00000000  0.50000000  0.00000000  1
  F  F3  1  0.50000000  -0.00000000  -0.00000000  1
loop_
_geom_bond_atom_site_label_1
_geom_bond_atom_site_label_2
_geom_bond_distance
_geom_bond_site_symmetry_2
Cs0 F2 2.982783 1_556
Cs0 F2 2.982789 1_656
Cs0 F3 2.982835 1_556
Cs0 F3 2.982841 1_566
Cs0 F1 3.058769 1_445
Cs0 F1 3.058775 1_455
Cs0 F1 3.058775 1_545
Cs0 F1 3.058782 1_555
Cs0 F0 3.114206 1_555
Cs1 F2 2.982783 1_655
Cs1 F2 2.982789 1_555
Cs1 F3 2.982835 1_565
Cs1 F3 2.982841 1_555
Cs1 F0 3.058769 1_665
Cs1 F0 3.058775 1_655
Cs1 F0 3.058775 1_565
Cs1 F0 3.058782 1_555
Cs1 F1 3.114206 1_555
Cu0 F1 1.891653 1_444
Cu0 F0 1.891653 1_555
Cu0 F3 2.159667 1_455
Cu0 F3 2.159667 1_555
Cu0 F2 2.159740 1_545
Cu0 F2 2.159740 1_555
