# generated using pymatgen
data_Mg5Ta(BO4)3
_symmetry_space_group_name_H-M   'P 1'
_cell_length_a   9.40546200
_cell_length_b   9.45310800
_cell_length_c   9.53027200
_cell_angle_alpha   90.00000000
_cell_angle_beta   90.00000000
_cell_angle_gamma   90.00000000
_symmetry_Int_Tables_number   1
_chemical_formula_structural   Mg5Ta(BO4)3
_chemical_formula_sum   'Mg20 Ta4 B12 O48'
_cell_volume   847.34456591
_cell_formula_units_Z   4
loop_
 _symmetry_equiv_pos_site_id
 _symmetry_equiv_pos_as_xyz
  1  'x, y, z'
loop_
 _atom_site_type_symbol
 _atom_site_label
 _atom_site_symmetry_multiplicity
 _atom_site_fract_x
 _atom_site_fract_y
 _atom_site_fract_z
 _atom_site_occupancy
  Mg  Mg0  1  0.42695400  0.62354300  0.58472600  1
  Mg  Mg1  1  0.07304600  0.12354300  0.91527400  1
  Mg  Mg2  1  0.57304600  0.37645700  0.08472600  1
  Mg  Mg3  1  0.92695400  0.87645700  0.41527400  1
  Mg  Mg4  1  0.57304600  0.37645700  0.41527400  1
  Mg  Mg5  1  0.92695400  0.87645700  0.08472600  1
  Mg  Mg6  1  0.42695400  0.62354300  0.91527400  1
  Mg  Mg7  1  0.07304600  0.12354300  0.58472600  1
  Mg  Mg8  1  0.31986000  0.90225600  0.07620600  1
  Mg  Mg9  1  0.18014000  0.40225600  0.42379400  1
  Mg  Mg10  1  0.68014000  0.09774400  0.57620600  1
  Mg  Mg11  1  0.81986000  0.59774400  0.92379400  1
  Mg  Mg12  1  0.68014000  0.09774400  0.92379400  1
  Mg  Mg13  1  0.81986000  0.59774400  0.57620600  1
  Mg  Mg14  1  0.31986000  0.90225600  0.42379400  1
  Mg  Mg15  1  0.18014000  0.40225600  0.07620600  1
  Mg  Mg16  1  0.80911300  0.60187800  0.25000000  1
  Mg  Mg17  1  0.69088700  0.10187800  0.25000000  1
  Mg  Mg18  1  0.19088700  0.39812200  0.75000000  1
  Mg  Mg19  1  0.30911300  0.89812200  0.75000000  1
  Ta  Ta0  1  0.41435800  0.60069300  0.25000000  1
  Ta  Ta1  1  0.08564200  0.10069300  0.25000000  1
  Ta  Ta2  1  0.58564200  0.39930700  0.75000000  1
  Ta  Ta3  1  0.91435800  0.89930700  0.75000000  1
  B  B0  1  0.12894700  0.67835000  0.25000000  1
  B  B1  1  0.37105300  0.17835000  0.25000000  1
  B  B2  1  0.87105300  0.32165000  0.75000000  1
  B  B3  1  0.62894700  0.82165000  0.75000000  1
  B  B4  1  0.12654100  0.67283200  0.58879500  1
  B  B5  1  0.37345900  0.17283200  0.91120500  1
  B  B6  1  0.87345900  0.32716800  0.08879500  1
  B  B7  1  0.62654100  0.82716800  0.41120500  1
  B  B8  1  0.87345900  0.32716800  0.41120500  1
  B  B9  1  0.62654100  0.82716800  0.08879500  1
  B  B10  1  0.12654100  0.67283200  0.91120500  1
  B  B11  1  0.37345900  0.17283200  0.58879500  1
  O  O0  1  0.15951300  0.53638600  0.25000000  1
  O  O1  1  0.34048700  0.03638600  0.25000000  1
  O  O2  1  0.84048700  0.46361400  0.75000000  1
  O  O3  1  0.65951300  0.96361400  0.75000000  1
  O  O4  1  0.99653100  0.73672700  0.25000000  1
  O  O5  1  0.50346900  0.23672700  0.25000000  1
  O  O6  1  0.00346900  0.26327300  0.75000000  1
  O  O7  1  0.49653100  0.76327300  0.75000000  1
  O  O8  1  0.25496300  0.76137800  0.25000000  1
  O  O9  1  0.24503700  0.26137800  0.25000000  1
  O  O10  1  0.74503700  0.23862200  0.75000000  1
  O  O11  1  0.75496300  0.73862200  0.75000000  1
  O  O12  1  0.12948600  0.52875100  0.58811000  1
  O  O13  1  0.37051400  0.02875100  0.91189000  1
  O  O14  1  0.87051400  0.47124900  0.08811000  1
  O  O15  1  0.62948600  0.97124900  0.41189000  1
  O  O16  1  0.87051400  0.47124900  0.41189000  1
  O  O17  1  0.62948600  0.97124900  0.08811000  1
  O  O18  1  0.12948600  0.52875100  0.91189000  1
  O  O19  1  0.37051400  0.02875100  0.58811000  1
  O  O20  1  0.25081300  0.75219100  0.58285600  1
  O  O21  1  0.24918700  0.25219100  0.91714400  1
  O  O22  1  0.74918700  0.24780900  0.08285600  1
  O  O23  1  0.75081300  0.74780900  0.41714400  1
  O  O24  1  0.74918700  0.24780900  0.41714400  1
  O  O25  1  0.75081300  0.74780900  0.08285600  1
  O  O26  1  0.25081300  0.75219100  0.91714400  1
  O  O27  1  0.24918700  0.25219100  0.58285600  1
  O  O28  1  0.49270400  0.75802800  0.09423900  1
  O  O29  1  0.00729600  0.25802800  0.40576100  1
  O  O30  1  0.50729600  0.24197200  0.59423900  1
  O  O31  1  0.99270400  0.74197200  0.90576100  1
  O  O32  1  0.50729600  0.24197200  0.90576100  1
  O  O33  1  0.99270400  0.74197200  0.59423900  1
  O  O34  1  0.49270400  0.75802800  0.40576100  1
  O  O35  1  0.00729600  0.25802800  0.09423900  1
  O  O36  1  0.89511300  0.02147500  0.25000000  1
  O  O37  1  0.60488700  0.52147500  0.25000000  1
  O  O38  1  0.10488700  0.97852500  0.75000000  1
  O  O39  1  0.39511300  0.47852500  0.75000000  1
  O  O40  1  0.11889400  0.99153500  0.08466300  1
  O  O41  1  0.38110600  0.49153500  0.41533700  1
  O  O42  1  0.88110600  0.00846500  0.58466300  1
  O  O43  1  0.61889400  0.50846500  0.91533700  1
  O  O44  1  0.88110600  0.00846500  0.91533700  1
  O  O45  1  0.61889400  0.50846500  0.58466300  1
  O  O46  1  0.11889400  0.99153500  0.41533700  1
  O  O47  1  0.38110600  0.49153500  0.08466300  1
loop_
_geom_bond_atom_site_label_1
_geom_bond_atom_site_label_2
_geom_bond_distance
_geom_bond_site_symmetry_2
Mg0 O20 2.055210 1_555
Mg0 O41 2.085476 1_555
Mg0 O45 2.107714 1_555
Mg0 O39 2.109487 1_555
Mg0 O7 2.157298 1_555
Mg0 O34 2.215323 1_555
Mg1 O21 2.055210 1_555
Mg1 O40 2.085476 1_546
Mg1 O44 2.107714 1_455
Mg1 O38 2.109487 1_545
Mg1 O6 2.157298 1_555
Mg1 O35 2.215323 1_556
Mg2 O22 2.055210 1_555
Mg2 O43 2.085476 1_554
Mg2 O47 2.107714 1_555
Mg2 O37 2.109487 1_555
Mg2 O5 2.157298 1_555
Mg2 O32 2.215323 1_554
Mg3 O23 2.055210 1_555
Mg3 O42 2.085476 1_565
Mg3 O46 2.107714 1_655
Mg3 O36 2.109487 1_565
Mg3 O4 2.157298 1_555
Mg3 O33 2.215323 1_555
Mg4 O24 2.055210 1_555
Mg4 O45 2.085476 1_555
Mg4 O41 2.107714 1_555
Mg4 O37 2.109487 1_555
Mg4 O5 2.157298 1_555
Mg4 O30 2.215323 1_555
Mg5 O25 2.055210 1_555
Mg5 O44 2.085476 1_564
Mg5 O40 2.107714 1_655
Mg5 O36 2.109487 1_565
Mg5 O4 2.157298 1_555
Mg5 O31 2.215323 1_554
Mg6 O26 2.055210 1_555
Mg6 O47 2.085476 1_556
Mg6 O43 2.107714 1_555
Mg6 O39 2.109487 1_555
Mg6 O7 2.157298 1_555
Mg6 O28 2.215323 1_556
Mg7 O27 2.055210 1_555
Mg7 O46 2.085476 1_545
Mg7 O42 2.107714 1_455
Mg7 O38 2.109487 1_545
Mg7 O6 2.157298 1_555
Mg7 O29 2.215323 1_555
Mg8 O13 2.027099 1_564
Mg8 O40 2.071604 1_555
Mg8 O1 2.094915 1_565
Mg8 O28 2.128669 1_555
Mg8 O26 2.175335 1_554
Mg8 O8 2.211206 1_555
Mg9 O12 2.027099 1_555
Mg9 O41 2.071604 1_555
Mg9 O0 2.094915 1_555
Mg9 O29 2.128669 1_555
Mg9 O27 2.175335 1_555
Mg9 O9 2.211206 1_555
Mg10 O15 2.027099 1_545
Mg10 O42 2.071604 1_555
Mg10 O3 2.094915 1_545
Mg10 O30 2.128669 1_555
Mg10 O24 2.175335 1_555
Mg10 O10 2.211206 1_555
Mg11 O14 2.027099 1_556
Mg11 O43 2.071604 1_555
Mg11 O2 2.094915 1_555
Mg11 O31 2.128669 1_555
Mg11 O25 2.175335 1_556
Mg11 O11 2.211206 1_555
Mg12 O17 2.027099 1_546
Mg12 O44 2.071604 1_555
Mg12 O3 2.094915 1_545
Mg12 O32 2.128669 1_555
Mg12 O22 2.175335 1_556
Mg12 O10 2.211206 1_555
Mg13 O16 2.027099 1_555
Mg13 O45 2.071604 1_555
Mg13 O2 2.094915 1_555
Mg13 O33 2.128669 1_555
Mg13 O23 2.175335 1_555
Mg13 O11 2.211206 1_555
Mg14 O19 2.027099 1_565
Mg14 O46 2.071604 1_555
Mg14 O1 2.094915 1_565
Mg14 O34 2.128669 1_555
Mg14 O20 2.175335 1_555
Mg14 O8 2.211206 1_555
Mg15 O18 2.027099 1_554
Mg15 O47 2.071604 1_555
Mg15 O0 2.094915 1_555
Mg15 O35 2.128669 1_555
Mg15 O21 2.175335 1_554
Mg15 O9 2.211206 1_555
Mg16 O14 2.058827 1_555
Mg16 O16 2.058827 1_555
Mg16 O37 2.065748 1_555
Mg16 O4 2.175377 1_555
Mg16 O23 2.177411 1_555
Mg16 O25 2.177411 1_555
Mg17 O17 2.058827 1_545
Mg17 O15 2.058827 1_545
Mg17 O36 2.065748 1_555
Mg17 O5 2.175377 1_555
Mg17 O24 2.177411 1_555
Mg17 O22 2.177411 1_555
Mg18 O12 2.058827 1_555
Mg18 O18 2.058827 1_555
Mg18 O39 2.065748 1_555
Mg18 O6 2.175377 1_555
Mg18 O21 2.177411 1_555
Mg18 O27 2.177411 1_555
Mg19 O19 2.058827 1_565
Mg19 O13 2.058827 1_565
Mg19 O38 2.065748 1_555
Mg19 O7 2.175377 1_555
Mg19 O26 2.177411 1_555
Mg19 O20 2.177411 1_555
B0 O4 1.362218 1_455
B0 O0 1.372449 1_555
B0 O8 1.421554 1_555
B1 O5 1.362218 1_555
B1 O1 1.372449 1_555
B1 O9 1.421554 1_555
B2 O6 1.362218 1_655
B2 O2 1.372449 1_555
B2 O10 1.421554 1_555
B3 O7 1.362218 1_555
B3 O3 1.372449 1_555
B3 O11 1.421554 1_555
B4 O12 1.362311 1_555
B4 O20 1.390023 1_555
B4 O33 1.419311 1_455
B5 O13 1.362311 1_555
B5 O21 1.390023 1_555
B5 O32 1.419311 1_555
B6 O14 1.362311 1_555
B6 O22 1.390023 1_555
B6 O35 1.419311 1_655
B7 O15 1.362311 1_555
B7 O23 1.390023 1_555
B7 O34 1.419311 1_555
B8 O16 1.362311 1_555
B8 O24 1.390023 1_555
B8 O29 1.419311 1_655
B9 O17 1.362311 1_555
B9 O25 1.390023 1_555
B9 O28 1.419311 1_555
B10 O18 1.362311 1_555
B10 O26 1.390023 1_555
B10 O31 1.419311 1_455
B11 O19 1.362311 1_555
B11 O27 1.390023 1_555
B11 O30 1.419311 1_555
O0 Ta0 2.472820 1_555
O1 Ta1 2.472820 1_555
O2 Ta2 2.472820 1_555
O3 Ta3 2.472820 1_555
O8 Ta0 2.134205 1_555
O9 Ta1 2.134205 1_555
O10 Ta2 2.134205 1_555
O11 Ta3 2.134205 1_555
O28 Ta0 2.226801 1_555
O29 Ta1 2.226801 1_555
O30 Ta2 2.226801 1_555
O31 Ta3 2.226801 1_555
O32 Ta2 2.226801 1_555
O33 Ta3 2.226801 1_555
O34 Ta0 2.226801 1_555
O35 Ta1 2.226801 1_555
O36 Ta1 1.942189 1_655
O37 Ta0 1.942189 1_555
O38 Ta3 1.942189 1_455
O39 Ta2 1.942189 1_555
O40 Ta1 1.909305 1_565
O41 Ta0 1.909305 1_555
O42 Ta3 1.909305 1_545
O43 Ta2 1.909305 1_555
O44 Ta3 1.909305 1_545
O45 Ta2 1.909305 1_555
O46 Ta1 1.909305 1_565
O47 Ta0 1.909305 1_555
