# generated using pymatgen
data_Mg5Si9
_symmetry_space_group_name_H-M   'P 1'
_cell_length_a   6.36633700
_cell_length_b   7.30334785
_cell_length_c   11.64326866
_cell_angle_alpha   87.08484083
_cell_angle_beta   103.54358179
_cell_angle_gamma   110.43279826
_symmetry_Int_Tables_number   1
_chemical_formula_structural   Mg5Si9
_chemical_formula_sum   'Mg10 Si18'
_cell_volume   492.90860811
_cell_formula_units_Z   2
loop_
 _symmetry_equiv_pos_site_id
 _symmetry_equiv_pos_as_xyz
  1  'x, y, z'
loop_
 _atom_site_type_symbol
 _atom_site_label
 _atom_site_symmetry_multiplicity
 _atom_site_fract_x
 _atom_site_fract_y
 _atom_site_fract_z
 _atom_site_occupancy
  Mg  Mg0  1  0.89177500  0.00089400  0.29750700  1
  Mg  Mg1  1  0.19261900  0.88241900  0.53033200  1
  Mg  Mg2  1  0.97097300  0.28017700  0.50393200  1
  Mg  Mg3  1  0.88084600  0.56775500  0.65529300  1
  Mg  Mg4  1  0.45360000  0.31939900  0.45785600  1
  Mg  Mg5  1  0.62930400  0.80699900  0.51066000  1
  Mg  Mg6  1  0.53311500  0.90989500  0.83303200  1
  Mg  Mg7  1  0.39792500  0.90151900  0.08266400  1
  Mg  Mg8  1  0.23798500  0.19036600  0.91573400  1
  Mg  Mg9  1  0.57065600  0.56012000  0.06841200  1
  Si  Si0  1  0.95948600  0.79203200  0.89701800  1
  Si  Si1  1  0.07884700  0.50446200  0.06098200  1
  Si  Si2  1  0.66105600  0.12498100  0.64411300  1
  Si  Si3  1  0.02089500  0.69879400  0.21025300  1
  Si  Si4  1  0.58970400  0.49665300  0.83559300  1
  Si  Si5  1  0.63465000  0.27442900  0.24792100  1
  Si  Si6  1  0.32824500  0.21698500  0.68472600  1
  Si  Si7  1  0.47442200  0.66647200  0.27888200  1
  Si  Si8  1  0.84596900  0.30503100  0.82864100  1
  Si  Si9  1  0.38032200  0.95706900  0.31965600  1
  Si  Si10  1  0.21620500  0.23690000  0.15342300  1
  Si  Si11  1  0.87345000  0.95304500  0.06037800  1
  Si  Si12  1  0.97555000  0.96526900  0.70627700  1
  Si  Si13  1  0.11541200  0.40669500  0.29788400  1
  Si  Si14  1  0.71280800  0.23214600  0.01237300  1
  Si  Si15  1  0.20211000  0.58645100  0.87504200  1
  Si  Si16  1  0.82021500  0.59938600  0.38163800  1
  Si  Si17  1  0.35197600  0.56388800  0.64995600  1
loop_
_geom_bond_atom_site_label_1
_geom_bond_atom_site_label_2
_geom_bond_distance
_geom_bond_site_symmetry_2
Mg0 Si11 2.770816 1_545
Mg0 Si13 2.804078 1_655
Mg0 Si7 2.885305 1_545
Mg0 Si3 2.908817 1_645
Mg0 Si5 2.954170 1_555
Mg0 Si16 2.958019 1_545
Mg0 Si10 2.982345 1_655
Mg1 Si16 2.812626 1_455
Mg1 Si6 2.862559 1_565
Mg1 Si2 2.913168 1_565
Mg1 Si12 2.916916 1_455
Mg1 Si9 2.919624 1_555
Mg1 Si17 3.006249 1_555
Mg2 Si2 2.756851 1_555
Mg2 Si13 2.769373 1_655
Mg2 Si17 2.825794 1_655
Mg2 Si6 2.865164 1_655
Mg2 Si16 2.994686 1_555
Mg2 Si5 3.229882 1_555
Mg3 Si8 2.706135 1_555
Mg3 Si12 2.816005 1_555
Mg3 Si15 2.852676 1_655
Mg3 Si17 3.024485 1_655
Mg3 Si4 3.025171 1_555
Mg3 Si2 3.038106 1_555
Mg3 Si16 3.125033 1_555
Mg4 Si13 2.733240 1_555
Mg4 Si16 2.805285 1_555
Mg4 Si2 2.849233 1_555
Mg4 Si6 2.922930 1_555
Mg4 Si9 3.004812 1_545
Mg4 Si5 3.012759 1_555
Mg5 Si12 2.742250 1_555
Mg5 Si7 2.763537 1_555
Mg5 Si2 2.782198 1_565
Mg5 Si17 2.785612 1_555
Mg5 Si9 2.823756 1_555
Mg5 Si16 2.899410 1_555
Mg6 Si15 2.673877 1_555
Mg6 Si2 2.750224 1_565
Mg6 Si8 2.883928 1_565
Mg6 Si14 2.951120 1_566
Mg6 Si11 2.953399 1_556
Mg6 Si0 3.046821 1_555
Mg6 Si17 3.101812 1_555
Mg6 Si4 3.159793 1_555
Mg6 Si6 3.210388 1_565
Mg7 Si14 2.776105 1_565
Mg7 Si7 2.840276 1_555
Mg7 Si9 2.842829 1_555
Mg7 Si1 2.884543 1_555
Mg7 Si0 2.982322 1_454
Mg7 Si11 2.989376 1_555
Mg7 Si3 3.020836 1_555
Mg7 Si5 3.114476 1_565
Mg7 Si15 3.137543 1_554
Mg8 Si0 2.817174 1_445
Mg8 Si12 2.832529 1_445
Mg8 Si10 2.846393 1_556
Mg8 Si8 2.854069 1_455
Mg8 Si4 2.856113 1_555
Mg8 Si6 2.862712 1_555
Mg8 Si14 2.880071 1_556
Mg8 Si15 2.985939 1_555
Mg8 Si11 3.154595 1_446
Mg9 Si3 2.809854 1_655
Mg9 Si4 2.810493 1_554
Mg9 Si11 2.855602 1_555
Mg9 Si7 2.865823 1_555
Mg9 Si15 2.899641 1_554
Mg9 Si5 2.939217 1_555
Mg9 Si10 2.955223 1_555
Mg9 Si14 2.988529 1_555
Mg9 Si1 2.994009 1_555
Si0 Si12 2.504719 1_555
Si0 Si11 2.542791 1_556
Si0 Si4 2.555336 1_555
Si0 Si15 2.559119 1_655
Si1 Si14 2.442734 1_455
Si1 Si15 2.448906 1_554
Si1 Si3 2.467376 1_555
Si1 Si10 2.505993 1_555
Si1 Si13 2.790574 1_555
Si2 Si8 2.398534 1_555
Si2 Si6 2.580696 1_555
Si3 Si9 2.506424 1_555
Si4 Si8 2.508854 1_555
Si4 Si6 2.578716 1_555
Si5 Si9 2.550995 1_545
Si7 Si9 2.492385 1_555
Si10 Si13 2.460065 1_555
Si10 Si11 2.489097 1_445
Si10 Si5 2.555473 1_555
Si11 Si14 2.566165 1_565
Si11 Si3 2.737610 1_655
Si12 Si6 2.412286 1_665
Si12 Si2 2.599836 1_565
Si13 Si7 2.457401 1_555
Si13 Si3 2.518215 1_555
Si13 Si5 2.792538 1_455
Si14 Si8 2.448853 1_554
Si14 Si4 2.911995 1_554
Si14 Si5 2.949086 1_555
Si15 Si8 2.437702 1_455
Si15 Si4 2.901947 1_555
Si16 Si7 2.444922 1_555
Si16 Si3 2.557416 1_655
Si16 Si5 2.647410 1_555
Si17 Si4 2.466214 1_555
Si17 Si6 2.502534 1_555
