# generated using pymatgen
data_Mg6CoB
_symmetry_space_group_name_H-M   'P 1'
_cell_length_a   4.49448000
_cell_length_b   6.23480300
_cell_length_c   10.05276700
_cell_angle_alpha   90.00000000
_cell_angle_beta   90.00000000
_cell_angle_gamma   90.00000000
_symmetry_Int_Tables_number   1
_chemical_formula_structural   Mg6CoB
_chemical_formula_sum   'Mg12 Co2 B2'
_cell_volume   281.70062116
_cell_formula_units_Z   2
loop_
 _symmetry_equiv_pos_site_id
 _symmetry_equiv_pos_as_xyz
  1  'x, y, z'
loop_
 _atom_site_type_symbol
 _atom_site_label
 _atom_site_symmetry_multiplicity
 _atom_site_fract_x
 _atom_site_fract_y
 _atom_site_fract_z
 _atom_site_occupancy
  Mg  Mg0  1  0.00000000  0.25132700  0.59344700  1
  Mg  Mg1  1  0.00000000  0.74867300  0.59344700  1
  Mg  Mg2  1  0.50000000  0.24740000  0.40771100  1
  Mg  Mg3  1  0.50000000  0.75260000  0.40771100  1
  Mg  Mg4  1  0.50000000  0.00000000  0.67615000  1
  Mg  Mg5  1  0.50000000  0.00000000  0.17327500  1
  Mg  Mg6  1  0.00000000  0.75132700  0.09344700  1
  Mg  Mg7  1  0.00000000  0.24867300  0.09344700  1
  Mg  Mg8  1  0.50000000  0.74740000  0.90771100  1
  Mg  Mg9  1  0.50000000  0.25260000  0.90771100  1
  Mg  Mg10  1  0.50000000  0.50000000  0.17615000  1
  Mg  Mg11  1  0.50000000  0.50000000  0.67327500  1
  Co  Co0  1  0.00000000  0.00000000  0.83767200  1
  Co  Co1  1  0.00000000  0.50000000  0.33767200  1
  B  B0  1  0.00000000  0.00000000  0.31059200  1
  B  B1  1  0.00000000  0.50000000  0.81059200  1
loop_
_geom_bond_atom_site_label_1
_geom_bond_atom_site_label_2
_geom_bond_distance
_geom_bond_site_symmetry_2
Co0 Mg4 2.772477 1_555
Co0 Mg4 2.772477 1_455
Co0 Mg8 2.833050 1_445
Co0 Mg8 2.833050 1_545
Co0 Mg9 2.833050 1_555
Co0 Mg9 2.833050 1_455
Co0 Mg0 2.912577 1_555
Co0 Mg1 2.912577 1_545
Co0 Mg7 3.002521 1_556
Co0 Mg6 3.002521 1_546
Co1 Mg10 2.772477 1_455
Co1 Mg10 2.772477 1_555
Co1 Mg2 2.833050 1_555
Co1 Mg3 2.833050 1_455
Co1 Mg3 2.833050 1_555
Co1 Mg2 2.833050 1_455
Co1 Mg6 2.912577 1_555
Co1 Mg7 2.912577 1_555
Co1 Mg1 3.002521 1_555
Co1 Mg0 3.002521 1_555
B0 Mg5 2.637354 1_455
B0 Mg5 2.637354 1_555
B0 Mg7 2.677482 1_555
B0 Mg6 2.677482 1_545
B0 Mg2 2.895264 1_455
B0 Mg2 2.895264 1_555
B0 Mg3 2.895264 1_545
B0 Mg3 2.895264 1_445
B1 Mg11 2.637354 1_455
B1 Mg11 2.637354 1_555
B1 Mg1 2.677482 1_555
B1 Mg0 2.677482 1_555
B1 Mg8 2.895264 1_555
B1 Mg8 2.895264 1_455
B1 Mg9 2.895264 1_455
B1 Mg9 2.895264 1_555
