# generated using pymatgen
data_Na16W3(NO3)4
_symmetry_space_group_name_H-M   'P 1'
_cell_length_a   6.87010700
_cell_length_b   9.03247915
_cell_length_c   10.01976436
_cell_angle_alpha   106.98653335
_cell_angle_beta   89.63469117
_cell_angle_gamma   102.34638844
_symmetry_Int_Tables_number   1
_chemical_formula_structural   Na16W3(NO3)4
_chemical_formula_sum   'Na16 W3 N4 O12'
_cell_volume   579.84156266
_cell_formula_units_Z   1
loop_
 _symmetry_equiv_pos_site_id
 _symmetry_equiv_pos_as_xyz
  1  'x, y, z'
loop_
 _atom_site_type_symbol
 _atom_site_label
 _atom_site_symmetry_multiplicity
 _atom_site_fract_x
 _atom_site_fract_y
 _atom_site_fract_z
 _atom_site_occupancy
  Na  Na0  1  0.15816600  0.60833000  0.39300100  1
  Na  Na1  1  0.63404600  0.54652900  0.87996400  1
  Na  Na2  1  0.37007500  0.36077500  0.04025000  1
  Na  Na3  1  0.81660000  0.36632800  0.63447300  1
  Na  Na4  1  0.74335800  0.98749000  0.48645000  1
  Na  Na5  1  0.25866600  0.01467200  0.98955600  1
  Na  Na6  1  0.75419600  0.03029200  0.99911000  1
  Na  Na7  1  0.26527800  0.02162500  0.51616200  1
  Na  Na8  1  0.80309100  0.38964800  0.06215400  1
  Na  Na9  1  0.34587000  0.43157400  0.62557100  1
  Na  Na10  1  0.64710100  0.54589100  0.37582500  1
  Na  Na11  1  0.15745100  0.57908400  0.89304700  1
  Na  Na12  1  0.96572700  0.81453000  0.23290000  1
  Na  Na13  1  0.46544100  0.81923400  0.75216700  1
  Na  Na14  1  0.53624100  0.18263100  0.26820900  1
  Na  Na15  1  0.03652300  0.21577800  0.78596700  1
  W  W0  1  0.06098000  0.24741300  0.34197500  1
  W  W1  1  0.93742600  0.75413100  0.65576800  1
  W  W2  1  0.44230100  0.75848600  0.16659400  1
  N  N0  1  0.53496500  0.04410100  0.66434800  1
  N  N1  1  0.02468100  0.07543400  0.19117500  1
  N  N2  1  0.96846300  0.92666700  0.80536300  1
  N  N3  1  0.47196000  0.93347700  0.31432000  1
  O  O0  1  0.63687600  0.64592700  0.18425800  1
  O  O1  1  0.14212300  0.64622300  0.65632700  1
  O  O2  1  0.87409100  0.37157300  0.34285500  1
  O  O3  1  0.33128700  0.39330400  0.83070500  1
  O  O4  1  0.54545600  0.19166700  0.05811100  1
  O  O5  1  0.03581100  0.18539200  0.50497900  1
  O  O6  1  0.96055300  0.80950300  0.48698800  1
  O  O7  1  0.45721600  0.80505300  0.99579900  1
  O  O8  1  0.87268700  0.41914400  0.85716400  1
  O  O9  1  0.31813400  0.37911600  0.35962200  1
  O  O10  1  0.68000700  0.62278100  0.64216700  1
  O  O11  1  0.18757800  0.63672700  0.17128200  1
loop_
_geom_bond_atom_site_label_1
_geom_bond_atom_site_label_2
_geom_bond_distance
_geom_bond_site_symmetry_2
Na0 O11 2.312371 1_555
Na0 O6 2.463863 1_455
Na0 O9 2.483917 1_555
Na0 O2 2.496875 1_455
Na0 O1 2.564286 1_555
Na1 O8 2.170794 1_555
Na1 O3 2.206426 1_555
Na1 O10 2.665980 1_555
Na1 O7 2.808427 1_555
Na1 O0 2.914862 1_556
Na2 O4 2.183218 1_555
Na2 O3 2.228607 1_554
Na2 O0 2.814061 1_555
Na2 O11 2.985252 1_555
Na3 O8 2.159908 1_555
Na3 O5 2.532018 1_655
Na3 O10 2.660190 1_555
Na3 O1 2.950558 1_655
Na3 O2 2.958744 1_555
Na4 O5 2.354054 1_665
Na4 O6 2.417057 1_555
Na5 O4 2.222222 1_556
Na5 O7 2.573755 1_545
Na6 O4 2.215917 1_556
Na6 O7 2.547399 1_545
Na7 O5 2.404625 1_555
Na7 O6 2.470710 1_445
Na8 O8 2.184272 1_554
Na8 O4 2.222017 1_555
Na8 O0 2.759907 1_555
Na8 O2 2.914603 1_555
Na8 O11 3.040332 1_655
Na9 O3 2.179879 1_555
Na9 O10 2.534097 1_555
Na9 O9 2.567453 1_555
Na9 O1 2.572794 1_555
Na9 O5 2.716499 1_555
Na10 O0 2.355406 1_555
Na10 O2 2.399931 1_555
Na10 O9 2.410232 1_555
Na10 O10 2.552044 1_555
Na10 O6 2.799229 1_555
Na11 O8 2.130842 1_455
Na11 O3 2.206216 1_555
Na11 O7 2.543377 1_555
Na11 O1 2.622134 1_555
Na11 O11 2.683130 1_556
Na12 O11 2.395589 1_655
Na12 O0 2.402073 1_555
Na12 O6 2.559422 1_555
Na13 O1 2.442144 1_555
Na13 O7 2.481247 1_555
Na13 O10 2.547855 1_555
Na14 O4 2.130430 1_555
Na14 O9 2.530584 1_555
Na14 O2 2.538040 1_555
Na15 O3 2.252993 1_555
Na15 O8 2.293097 1_455
Na15 O5 2.747748 1_555
N0 Na4 2.288326 1_545
N0 Na7 2.318772 1_555
N0 Na13 2.398298 1_545
N1 W0 1.796110 1_555
N1 Na12 2.461255 1_445
N1 Na6 2.566316 1_454
N1 Na5 2.579619 1_554
N2 W1 1.793873 1_555
N2 Na6 2.510518 1_565
N2 Na5 2.554396 1_665
N2 Na15 2.617052 1_665
N3 W2 1.797185 1_555
N3 Na14 2.377616 1_565
N3 Na4 2.418565 1_555
N3 Na7 2.499252 1_565
O0 W2 1.881815 1_555
O1 W1 1.875401 1_455
O2 W0 1.875139 1_655
O5 W0 1.871056 1_555
O6 W1 1.895291 1_555
O7 W2 1.875091 1_556
O9 W0 1.884116 1_555
O10 W1 1.888139 1_555
O11 W2 1.865541 1_555
