# generated using pymatgen
data_Zr10(AlSb)3
_symmetry_space_group_name_H-M   'P 1'
_cell_length_a   5.71997421
_cell_length_b   8.36904979
_cell_length_c   8.36904613
_cell_angle_alpha   60.00108306
_cell_angle_beta   89.99990475
_cell_angle_gamma   90.00012619
_symmetry_Int_Tables_number   1
_chemical_formula_structural   Zr10(AlSb)3
_chemical_formula_sum   'Zr10 Al3 Sb3'
_cell_volume   346.96171466
_cell_formula_units_Z   1
loop_
 _symmetry_equiv_pos_site_id
 _symmetry_equiv_pos_as_xyz
  1  'x, y, z'
loop_
 _atom_site_type_symbol
 _atom_site_label
 _atom_site_symmetry_multiplicity
 _atom_site_fract_x
 _atom_site_fract_y
 _atom_site_fract_z
 _atom_site_occupancy
  Zr  Zr0  1  0.50707200  0.33332943  0.33334021  1
  Zr  Zr1  1  0.50708240  0.66667940  0.66665385  1
  Zr  Zr2  1  0.99291948  0.66667759  0.66666131  1
  Zr  Zr3  1  0.99292820  0.33333561  0.33333330  1
  Zr  Zr4  1  0.74999922  0.25004897  0.74999585  1
  Zr  Zr5  1  0.75000920  0.75001987  -0.00005466  1
  Zr  Zr6  1  0.74999199  -0.00004971  0.25004053  1
  Zr  Zr7  1  0.25001169  0.75471725  0.24531169  1
  Zr  Zr8  1  0.24999644  0.24530130  -0.00001615  1
  Zr  Zr9  1  0.24999535  -0.00002190  0.75471287  1
  Al  Al0  1  0.74999979  0.61059254  0.38942100  1
  Al  Al1  1  0.74999432  0.38940902  0.99997131  1
  Al  Al2  1  0.75000807  -0.00001132  0.61059936  1
  Sb  Sb0  1  0.24999222  0.39670642  0.60334937  1
  Sb  Sb1  1  0.25002218  0.60332335  0.99994729  1
  Sb  Sb2  1  0.24997944  0.99994420  0.39672989  1
loop_
_geom_bond_atom_site_label_1
_geom_bond_atom_site_label_2
_geom_bond_distance
_geom_bond_site_symmetry_2
Zr0 Zr3 2.779085 1_555
Zr0 Zr3 2.940889 1_455
Zr1 Zr2 2.778976 1_555
Zr1 Zr2 2.940999 1_455
Al0 Zr6 2.859709 1_565
Al0 Zr5 2.860568 1_555
Al0 Zr1 2.936534 1_555
Al0 Zr2 2.936588 1_555
Al0 Zr3 2.936747 1_555
Al0 Zr0 2.936754 1_555
Al0 Zr4 3.017587 1_555
Al0 Zr7 3.103859 1_555
Al0 Zr7 3.103976 1_655
Al1 Zr4 2.859526 1_555
Al1 Zr6 2.860505 1_556
Al1 Zr2 2.936643 1_555
Al1 Zr1 2.936656 1_555
Al1 Zr0 2.936936 1_556
Al1 Zr3 2.936939 1_556
Al1 Zr5 3.017861 1_556
Al1 Zr8 3.103846 1_556
Al1 Zr8 3.103873 1_656
Al2 Zr5 2.859638 1_546
Al2 Zr4 2.860427 1_555
Al2 Zr2 2.936539 1_545
Al2 Zr1 2.936578 1_545
Al2 Zr3 2.936794 1_555
Al2 Zr0 2.936800 1_555
Al2 Zr6 3.017694 1_555
Al2 Zr9 3.103816 1_655
Al2 Zr9 3.103946 1_555
Sb0 Zr8 2.901440 1_556
Sb0 Zr9 2.902215 1_555
Sb0 Zr2 2.957197 1_455
Sb0 Zr1 2.957220 1_555
Sb0 Zr3 2.957768 1_455
Sb0 Zr0 2.957790 1_555
Sb0 Zr7 2.996371 1_555
Sb0 Zr4 3.112182 1_455
Sb0 Zr4 3.112264 1_555
Sb1 Zr9 2.901595 1_565
Sb1 Zr7 2.902374 1_556
Sb1 Zr1 2.957136 1_555
Sb1 Zr2 2.957214 1_455
Sb1 Zr0 2.957747 1_556
Sb1 Zr3 2.957815 1_456
Sb1 Zr8 2.996151 1_556
Sb1 Zr5 3.112288 1_556
Sb1 Zr5 3.112430 1_456
Sb2 Zr7 2.901470 1_555
Sb2 Zr8 2.902337 1_565
Sb2 Zr2 2.957020 1_455
Sb2 Zr1 2.957125 1_555
Sb2 Zr3 2.957719 1_465
Sb2 Zr0 2.957802 1_565
Sb2 Zr9 2.996118 1_565
Sb2 Zr6 3.112264 1_465
Sb2 Zr6 3.112393 1_565
