# generated using pymatgen
data_K2HoCl5
_symmetry_space_group_name_H-M   'P 1'
_cell_length_a   7.90017210
_cell_length_b   8.51511665
_cell_length_c   12.67163104
_cell_angle_alpha   90.00000000
_cell_angle_beta   90.00000000
_cell_angle_gamma   90.00000000
_symmetry_Int_Tables_number   1
_chemical_formula_structural   K2HoCl5
_chemical_formula_sum   'K8 Ho4 Cl20'
_cell_volume   852.43185963
_cell_formula_units_Z   4
loop_
 _symmetry_equiv_pos_site_id
 _symmetry_equiv_pos_as_xyz
  1  'x, y, z'
loop_
 _atom_site_type_symbol
 _atom_site_label
 _atom_site_symmetry_multiplicity
 _atom_site_fract_x
 _atom_site_fract_y
 _atom_site_fract_z
 _atom_site_occupancy
  K  K0  1  0.55365551  0.49557096  0.82839475  1
  K  K1  1  0.44634449  0.50442904  0.17160525  1
  K  K2  1  0.05365551  0.50442904  0.67160525  1
  K  K3  1  0.44634449  -0.00442904  0.17160525  1
  K  K4  1  0.94634449  0.49557096  0.32839475  1
  K  K5  1  0.55365551  0.00442904  0.82839475  1
  K  K6  1  0.94634449  0.00442904  0.32839475  1
  K  K7  1  0.05365551  -0.00442904  0.67160525  1
  Ho  Ho0  1  0.57467362  0.75000000  0.50448414  1
  Ho  Ho1  1  0.42532638  0.25000000  0.49551586  1
  Ho  Ho2  1  0.07467362  0.25000000  0.99551586  1
  Ho  Ho3  1  0.92532638  0.75000000  0.00448414  1
  Cl  Cl0  1  0.84205679  0.75000000  0.80095163  1
  Cl  Cl1  1  0.15794321  0.25000000  0.19904837  1
  Cl  Cl2  1  0.34205679  0.25000000  0.69904837  1
  Cl  Cl3  1  0.65794321  0.75000000  0.30095163  1
  Cl  Cl4  1  0.38019500  0.75000000  0.67552999  1
  Cl  Cl5  1  0.61980500  0.25000000  0.32447001  1
  Cl  Cl6  1  0.88019500  0.25000000  0.82447001  1
  Cl  Cl7  1  0.11980500  0.75000000  0.17552999  1
  Cl  Cl8  1  0.91572858  0.75000000  0.51022715  1
  Cl  Cl9  1  0.08427142  0.25000000  0.48977285  1
  Cl  Cl10  1  0.41572858  0.25000000  0.98977285  1
  Cl  Cl11  1  0.58427142  0.75000000  0.01022715  1
  Cl  Cl12  1  0.66376583  0.04339661  0.57317514  1
  Cl  Cl13  1  0.33623417  0.95660339  0.42682486  1
  Cl  Cl14  1  0.16376583  0.95660339  0.92682486  1
  Cl  Cl15  1  0.33623417  0.54339661  0.42682486  1
  Cl  Cl16  1  0.83623417  0.04339661  0.07317514  1
  Cl  Cl17  1  0.66376583  0.45660339  0.57317514  1
  Cl  Cl18  1  0.83623417  0.45660339  0.07317514  1
  Cl  Cl19  1  0.16376583  0.54339661  0.92682486  1
loop_
_geom_bond_atom_site_label_1
_geom_bond_atom_site_label_2
_geom_bond_distance
_geom_bond_site_symmetry_2
Cl0 Ho3 2.661665 1_556
Cl0 K7 3.139019 1_665
Cl0 K2 3.139019 1_655
Cl0 K0 3.163197 1_555
Cl0 K5 3.163197 1_565
Cl1 Ho2 2.661665 1_554
Cl1 K4 3.139019 1_455
Cl1 K6 3.139019 1_455
Cl1 K1 3.163197 1_555
Cl1 K3 3.163197 1_555
Cl2 Ho1 2.661665 1_555
Cl2 K5 3.139019 1_555
Cl2 K0 3.139019 1_555
Cl2 K7 3.163197 1_555
Cl2 K2 3.163197 1_555
Cl3 Ho0 2.661665 1_555
Cl3 K1 3.139019 1_555
Cl3 K3 3.139019 1_565
Cl3 K4 3.163197 1_555
Cl3 K6 3.163197 1_565
Cl4 Ho0 2.656750 1_555
Cl4 K0 3.213059 1_555
Cl4 K5 3.213059 1_565
Cl4 K7 3.321140 1_565
Cl4 K2 3.321140 1_555
Cl5 Ho1 2.656750 1_555
Cl5 K1 3.213059 1_555
Cl5 K3 3.213059 1_555
Cl5 K6 3.321140 1_555
Cl5 K4 3.321140 1_555
Cl6 Ho2 2.656750 1_655
Cl6 K7 3.213059 1_655
Cl6 K2 3.213059 1_655
Cl6 K5 3.321140 1_555
Cl6 K0 3.321140 1_555
Cl7 Ho3 2.656750 1_455
Cl7 K6 3.213059 1_465
Cl7 K4 3.213059 1_455
Cl7 K3 3.321140 1_565
Cl7 K1 3.321140 1_555
Cl8 Ho0 2.695375 1_555
Cl8 K7 3.121153 1_665
Cl8 K2 3.121153 1_655
Cl8 K4 3.171928 1_555
Cl8 K6 3.171928 1_565
Cl9 Ho1 2.695375 1_555
Cl9 K4 3.121153 1_455
Cl9 K6 3.121153 1_455
Cl9 K2 3.171928 1_555
Cl9 K7 3.171928 1_555
Cl10 Ho2 2.695375 1_555
Cl10 K0 3.121153 1_555
Cl10 K5 3.121153 1_555
Cl10 K1 3.171928 1_556
Cl10 K3 3.171928 1_556
Cl11 Ho3 2.695375 1_555
Cl11 K1 3.121153 1_555
Cl11 K3 3.121153 1_565
Cl11 K0 3.171928 1_554
Cl11 K5 3.171928 1_564
Cl12 Ho0 2.737622 1_545
Cl12 Ho1 2.758937 1_555
Cl12 K7 3.348004 1_655
Cl12 K5 3.365395 1_555
Cl13 Ho1 2.737622 1_565
Cl13 Ho0 2.758937 1_555
Cl13 K6 3.348004 1_465
Cl13 K3 3.365395 1_565
Cl14 Ho2 2.737622 1_565
Cl14 Ho3 2.758937 1_456
Cl14 K5 3.348004 1_565
Cl14 K7 3.365395 1_565
Cl15 Ho1 2.737622 1_555
Cl15 Ho0 2.758937 1_555
Cl15 K4 3.348004 1_455
Cl15 K1 3.365395 1_555
Cl16 Ho3 2.737622 1_545
Cl16 Ho2 2.758937 1_654
Cl16 K3 3.348004 1_555
Cl16 K6 3.365395 1_555
Cl17 Ho0 2.737622 1_555
Cl17 Ho1 2.758937 1_555
Cl17 K2 3.348004 1_655
Cl17 K0 3.365395 1_555
Cl18 Ho3 2.737622 1_555
Cl18 Ho2 2.758937 1_654
Cl18 K1 3.348004 1_555
Cl18 K4 3.365395 1_555
Cl19 Ho2 2.737622 1_555
Cl19 Ho3 2.758937 1_456
Cl19 K0 3.348004 1_555
Cl19 K2 3.365395 1_555
