# generated using pymatgen
data_Y(BRu)4
_symmetry_space_group_name_H-M   'P 1'
_cell_length_a   9.20973788
_cell_length_b   9.20973788
_cell_length_c   9.20973788
_cell_angle_alpha   131.96063360
_cell_angle_beta   131.96063360
_cell_angle_gamma   70.29120894
_symmetry_Int_Tables_number   1
_chemical_formula_structural   Y(BRu)4
_chemical_formula_sum   'Y4 B16 Ru16'
_cell_volume   423.33865477
_cell_formula_units_Z   4
loop_
 _symmetry_equiv_pos_site_id
 _symmetry_equiv_pos_as_xyz
  1  'x, y, z'
loop_
 _atom_site_type_symbol
 _atom_site_label
 _atom_site_symmetry_multiplicity
 _atom_site_fract_x
 _atom_site_fract_y
 _atom_site_fract_z
 _atom_site_occupancy
  Y  Y0  1  0.75000000  0.75000000  0.00000000  1
  Y  Y1  1  0.50000000  0.00000000  0.50000000  1
  Y  Y2  1  0.00000000  0.50000000  0.50000000  1
  Y  Y3  1  0.25000000  0.25000000  0.00000000  1
  B  B0  1  0.02794100  0.50033600  0.19131600  1
  B  B1  1  0.66337500  0.19098000  0.19131600  1
  B  B2  1  0.99966400  0.47205900  0.80868400  1
  B  B3  1  0.22205900  0.91337500  0.97239500  1
  B  B4  1  0.94098000  0.24966400  0.02760500  1
  B  B5  1  0.25033600  0.55902000  0.97239500  1
  B  B6  1  0.58662500  0.27794100  0.02760500  1
  B  B7  1  0.30902000  0.83662500  0.80868400  1
  B  B8  1  0.72205900  0.74966400  0.30868400  1
  B  B9  1  0.08662500  0.05902000  0.30868400  1
  B  B10  1  0.75033600  0.77794100  0.69131600  1
  B  B11  1  0.52794100  0.33662500  0.52760500  1
  B  B12  1  0.80902000  0.00033600  0.47239500  1
  B  B13  1  0.49966400  0.69098000  0.52760500  1
  B  B14  1  0.16337500  0.97205900  0.47239500  1
  B  B15  1  0.44098000  0.41337500  0.69131600  1
  Ru  Ru0  1  0.83621200  0.30370500  0.76351200  1
  Ru  Ru1  1  0.42730000  0.95980700  0.76351200  1
  Ru  Ru2  1  0.19629500  0.66378800  0.23648800  1
  Ru  Ru3  1  0.41378800  0.67730000  0.96749300  1
  Ru  Ru4  1  0.70980700  0.44629500  0.03250700  1
  Ru  Ru5  1  0.05370500  0.79019300  0.96749300  1
  Ru  Ru6  1  0.82270000  0.08621200  0.03250700  1
  Ru  Ru7  1  0.54019300  0.07270000  0.23648800  1
  Ru  Ru8  1  0.91378800  0.94629500  0.73648800  1
  Ru  Ru9  1  0.32270000  0.29019300  0.73648800  1
  Ru  Ru10  1  0.55370500  0.58621200  0.26351200  1
  Ru  Ru11  1  0.33621200  0.57270000  0.53250700  1
  Ru  Ru12  1  0.04019300  0.80370500  0.46749300  1
  Ru  Ru13  1  0.69629500  0.45980700  0.53250700  1
  Ru  Ru14  1  0.92730000  0.16378800  0.46749300  1
  Ru  Ru15  1  0.20980700  0.17730000  0.26351200  1
loop_
_geom_bond_atom_site_label_1
_geom_bond_atom_site_label_2
_geom_bond_distance
_geom_bond_site_symmetry_2
B0 B4 1.795021 1_455
B0 Ru12 2.148062 1_555
B0 Ru2 2.171962 1_555
B0 Ru11 2.219120 1_555
B0 Ru0 2.287581 1_454
B0 Ru4 2.291515 1_455
B0 Y3 2.967937 1_555
B0 Y2 3.023057 1_555
B0 Y0 3.218767 1_455
B1 B6 1.795021 1_555
B1 Ru14 2.148062 1_555
B1 Ru7 2.171962 1_555
B1 Ru13 2.219120 1_555
B1 Ru1 2.287581 1_544
B1 Ru6 2.291515 1_555
B1 Y3 2.967937 1_555
B1 Y2 3.023057 1_655
B1 Y0 3.218767 1_545
B2 B5 1.795021 1_655
B2 Ru13 2.148062 1_555
B2 Ru0 2.171962 1_555
B2 Ru14 2.219120 1_555
B2 Ru2 2.287581 1_656
B2 Ru5 2.291515 1_655
B2 Y3 2.967937 1_656
B2 Y2 3.023057 1_655
B2 Y0 3.218767 1_556
B3 B7 1.795021 1_555
B3 Ru15 2.148062 1_566
B3 Ru5 2.171962 1_555
B3 Ru8 2.219120 1_455
B3 Ru3 2.287581 1_555
B3 Ru7 2.291515 1_566
B3 Y2 2.967937 1_555
B3 Y3 3.023057 1_566
B3 Y1 3.218767 1_566
B4 Ru8 2.148062 1_544
B4 Ru6 2.171962 1_555
B4 Ru15 2.219120 1_655
B4 Ru4 2.287581 1_555
B4 Ru0 2.291515 1_554
B4 Y2 2.967937 1_655
B4 Y3 3.023057 1_655
B4 Y1 3.218767 1_554
B5 Ru10 2.148062 1_556
B5 Ru3 2.171962 1_555
B5 Ru9 2.219120 1_555
B5 Ru5 2.287581 1_555
B5 Ru2 2.291515 1_556
B5 Y2 2.967937 1_555
B5 Y3 3.023057 1_556
B5 Y1 3.218767 1_566
B6 Ru9 2.148062 1_554
B6 Ru4 2.171962 1_555
B6 Ru10 2.219120 1_555
B6 Ru6 2.287581 1_555
B6 Ru1 2.291515 1_544
B6 Y2 2.967937 1_655
B6 Y3 3.023057 1_555
B6 Y1 3.218767 1_554
B7 Ru11 2.148062 1_555
B7 Ru1 2.171962 1_555
B7 Ru12 2.219120 1_555
B7 Ru7 2.287581 1_566
B7 Ru3 2.291515 1_555
B7 Y3 2.967937 1_566
B7 Y2 3.023057 1_555
B7 Y0 3.218767 1_556
B8 Ru4 2.148062 1_555
B8 Ru10 2.171962 1_555
B8 Ru3 2.219120 1_554
B8 Ru8 2.287581 1_555
B8 Ru12 2.291515 1_655
B8 Y1 2.967937 1_565
B8 Y0 3.023057 1_555
B8 Y2 3.218767 1_655
B9 Ru6 2.148062 1_455
B9 Ru15 2.171962 1_555
B9 Ru5 2.219120 1_544
B9 Ru9 2.287581 1_555
B9 Ru14 2.291515 1_455
B9 Y1 2.967937 1_555
B9 Y0 3.023057 1_445
B9 Y2 3.218767 1_555
B10 B13 1.795021 1_555
B10 Ru5 2.148062 1_655
B10 Ru8 2.171962 1_555
B10 Ru6 2.219120 1_566
B10 Ru10 2.287581 1_555
B10 Ru13 2.291515 1_555
B10 Y1 2.967937 1_565
B10 Y0 3.023057 1_556
B10 Y2 3.218767 1_655
B11 B15 1.795021 1_555
B11 Ru7 2.148062 1_555
B11 Ru13 2.171962 1_555
B11 Ru0 2.219120 1_555
B11 Ru11 2.287581 1_555
B11 Ru15 2.291515 1_555
B11 Y0 2.967937 1_556
B11 Y1 3.023057 1_555
B11 Y3 3.218767 1_555
B12 B8 1.795021 1_545
B12 Ru0 2.148062 1_555
B12 Ru14 2.171962 1_555
B12 Ru7 2.219120 1_555
B12 Ru12 2.287581 1_645
B12 Ru8 2.291515 1_545
B12 Y0 2.967937 1_545
B12 Y1 3.023057 1_555
B12 Y3 3.218767 1_656
B13 Ru2 2.148062 1_555
B13 Ru11 2.171962 1_555
B13 Ru1 2.219120 1_555
B13 Ru13 2.287581 1_555
B13 Ru10 2.291515 1_555
B13 Y0 2.967937 1_556
B13 Y1 3.023057 1_565
B13 Y3 3.218767 1_555
B14 B9 1.795021 1_565
B14 Ru1 2.148062 1_555
B14 Ru12 2.171962 1_555
B14 Ru2 2.219120 1_555
B14 Ru14 2.287581 1_465
B14 Ru9 2.291515 1_565
B14 Y0 2.967937 1_455
B14 Y1 3.023057 1_565
B14 Y3 3.218767 1_566
B15 Ru3 2.148062 1_555
B15 Ru9 2.171962 1_555
B15 Ru4 2.219120 1_556
B15 Ru15 2.287581 1_555
B15 Ru11 2.291515 1_555
B15 Y1 2.967937 1_555
B15 Y0 3.023057 1_556
B15 Y2 3.218767 1_555
Ru0 Y3 2.929358 1_656
Ru0 Y1 3.164872 1_555
Ru0 Y0 3.226222 1_556
Ru1 Y3 2.929358 1_566
Ru1 Y1 3.164872 1_565
Ru1 Y0 3.226222 1_556
Ru2 Y3 2.929358 1_555
Ru2 Y1 3.164872 1_565
Ru2 Y0 3.226222 1_455
Ru3 Y2 2.929358 1_555
Ru3 Y0 3.164872 1_556
Ru3 Y1 3.226222 1_566
Ru4 Y2 2.929358 1_655
Ru4 Y0 3.164872 1_555
Ru4 Y1 3.226222 1_554
Ru5 Y2 2.929358 1_555
Ru5 Y0 3.164872 1_456
Ru5 Y1 3.226222 1_566
Ru6 Y2 2.929358 1_655
Ru6 Y0 3.164872 1_545
Ru6 Y1 3.226222 1_554
Ru7 Y3 2.929358 1_555
Ru7 Y1 3.164872 1_555
Ru7 Y0 3.226222 1_545
Ru8 Y1 2.929358 1_565
Ru8 Y3 3.164872 1_666
Ru8 Y2 3.226222 1_655
Ru9 Y1 2.929358 1_555
Ru9 Y3 3.164872 1_556
Ru9 Y2 3.226222 1_555
Ru10 Y1 2.929358 1_565
Ru10 Y3 3.164872 1_555
Ru10 Y2 3.226222 1_655
Ru11 Y0 2.929358 1_556
Ru11 Y2 3.164872 1_555
Ru11 Y3 3.226222 1_555
Ru12 Y0 2.929358 1_455
Ru12 Y2 3.164872 1_555
Ru12 Y3 3.226222 1_566
Ru13 Y0 2.929358 1_556
Ru13 Y2 3.164872 1_655
Ru13 Y3 3.226222 1_555
Ru14 Y0 2.929358 1_545
Ru14 Y2 3.164872 1_655
Ru14 Y3 3.226222 1_656
Ru15 Y1 2.929358 1_555
Ru15 Y3 3.164872 1_555
Ru15 Y2 3.226222 1_555
