# generated using pymatgen
data_LiNdSe2
_symmetry_space_group_name_H-M   'P 1'
_cell_length_a   4.21406400
_cell_length_b   4.21406400
_cell_length_c   5.75108900
_cell_angle_alpha   90.00000000
_cell_angle_beta   90.00000000
_cell_angle_gamma   90.00000000
_symmetry_Int_Tables_number   1
_chemical_formula_structural   LiNdSe2
_chemical_formula_sum   'Li1 Nd1 Se2'
_cell_volume   102.12976735
_cell_formula_units_Z   1
loop_
 _symmetry_equiv_pos_site_id
 _symmetry_equiv_pos_as_xyz
  1  'x, y, z'
loop_
 _atom_site_type_symbol
 _atom_site_label
 _atom_site_symmetry_multiplicity
 _atom_site_fract_x
 _atom_site_fract_y
 _atom_site_fract_z
 _atom_site_occupancy
  Li  Li0  1  0.00000000  0.00000000  0.00000000  1
  Nd  Nd0  1  0.50000000  0.50000000  0.50000000  1
  Se  Se0  1  0.00000000  0.00000000  0.50000000  1
  Se  Se1  1  0.50000000  0.50000000  0.00000000  1
loop_
_geom_bond_atom_site_label_1
_geom_bond_atom_site_label_2
_geom_bond_distance
_geom_bond_site_symmetry_2
Li0 Se0 2.875545 1_555
Li0 Se0 2.875545 1_554
Li0 Se1 2.979793 1_455
Li0 Se1 2.979793 1_555
Li0 Se1 2.979793 1_445
Li0 Se1 2.979793 1_545
Nd0 Se1 2.875545 1_555
Nd0 Se1 2.875545 1_556
Nd0 Se0 2.979793 1_655
Nd0 Se0 2.979793 1_565
Nd0 Se0 2.979793 1_665
Nd0 Se0 2.979793 1_555
