# generated using pymatgen
data_ZnS
_symmetry_space_group_name_H-M   'P 1'
_cell_length_a   31.54954001
_cell_length_b   31.54954001
_cell_length_c   31.54953982
_cell_angle_alpha   7.01324056
_cell_angle_beta   7.01324056
_cell_angle_gamma   7.01324077
_symmetry_Int_Tables_number   1
_chemical_formula_structural   ZnS
_chemical_formula_sum   'Zn10 S10'
_cell_volume   405.95115441
_cell_formula_units_Z   10
loop_
 _symmetry_equiv_pos_site_id
 _symmetry_equiv_pos_as_xyz
  1  'x, y, z'
loop_
 _atom_site_type_symbol
 _atom_site_label
 _atom_site_symmetry_multiplicity
 _atom_site_fract_x
 _atom_site_fract_y
 _atom_site_fract_z
 _atom_site_occupancy
  Zn  Zn0  1  0.36691300  0.36691300  0.36691300  1
  Zn  Zn1  1  0.06691500  0.06691500  0.06691500  1
  Zn  Zn2  1  0.76691600  0.76691600  0.76691600  1
  Zn  Zn3  1  0.13358500  0.13358500  0.13358500  1
  Zn  Zn4  1  0.50024700  0.50024700  0.50024700  1
  Zn  Zn5  1  0.20024700  0.20024700  0.20024700  1
  Zn  Zn6  1  0.90024100  0.90024100  0.90024100  1
  Zn  Zn7  1  0.26693300  0.26693300  0.26693300  1
  Zn  Zn8  1  0.63358000  0.63358000  0.63358000  1
  Zn  Zn9  1  0.00022500  0.00022500  0.00022500  1
  S  S0  1  0.34189000  0.34189000  0.34189000  1
  S  S1  1  0.04194400  0.04194400  0.04194400  1
  S  S2  1  0.74189800  0.74189800  0.74189800  1
  S  S3  1  0.10861300  0.10861300  0.10861300  1
  S  S4  1  0.47523200  0.47523200  0.47523200  1
  S  S5  1  0.17527700  0.17527700  0.17527700  1
  S  S6  1  0.87522900  0.87522900  0.87522900  1
  S  S7  1  0.24194900  0.24194900  0.24194900  1
  S  S8  1  0.60859100  0.60859100  0.60859100  1
  S  S9  1  0.97524300  0.97524300  0.97524300  1
loop_
_geom_bond_atom_site_label_1
_geom_bond_atom_site_label_2
_geom_bond_distance
_geom_bond_site_symmetry_2
S0 Zn0 2.362478 1_555
S0 Zn9 2.362987 1_556
S0 Zn9 2.362987 1_565
S0 Zn9 2.362987 1_655
S1 Zn1 2.357569 1_555
S1 Zn0 2.364015 1_554
S1 Zn0 2.364015 1_545
S1 Zn0 2.364015 1_455
S2 Zn2 2.362006 1_555
S2 Zn1 2.362505 1_665
S2 Zn1 2.362505 1_566
S2 Zn1 2.362505 1_656
S3 Zn3 2.357663 1_555
S3 Zn2 2.363994 1_445
S3 Zn2 2.363994 1_454
S3 Zn2 2.363994 1_544
S4 Zn4 2.361723 1_555
S4 Zn3 2.362421 1_556
S4 Zn3 2.362421 1_565
S4 Zn3 2.362421 1_655
S5 Zn5 2.357474 1_555
S5 Zn4 2.363983 1_554
S5 Zn4 2.363984 1_455
S5 Zn4 2.363984 1_545
S6 Zn6 2.361440 1_555
S6 Zn5 2.362474 1_665
S6 Zn5 2.362474 1_656
S6 Zn5 2.362474 1_566
S7 Zn7 2.358796 1_555
S7 Zn6 2.364341 1_445
S7 Zn6 2.364341 1_544
S7 Zn6 2.364341 1_454
S8 Zn8 2.359268 1_555
S8 Zn7 2.362767 1_556
S8 Zn7 2.362767 1_655
S8 Zn7 2.362767 1_565
S9 Zn9 2.358607 1_666
S9 Zn8 2.362924 1_556
S9 Zn8 2.362924 1_655
S9 Zn8 2.362924 1_565
