# generated using pymatgen
data_NaH15O8
_symmetry_space_group_name_H-M   'P 1'
_cell_length_a   7.47029500
_cell_length_b   16.98948400
_cell_length_c   7.08030238
_cell_angle_alpha   90.00000000
_cell_angle_beta   92.38191184
_cell_angle_gamma   90.00000000
_symmetry_Int_Tables_number   1
_chemical_formula_structural   NaH15O8
_chemical_formula_sum   'Na4 H60 O32'
_cell_volume   897.83049904
_cell_formula_units_Z   4
loop_
 _symmetry_equiv_pos_site_id
 _symmetry_equiv_pos_as_xyz
  1  'x, y, z'
loop_
 _atom_site_type_symbol
 _atom_site_label
 _atom_site_symmetry_multiplicity
 _atom_site_fract_x
 _atom_site_fract_y
 _atom_site_fract_z
 _atom_site_occupancy
  Na  Na0  1  0.53901500  0.25704000  0.02135900  1
  Na  Na1  1  0.46098500  0.75704000  0.47864100  1
  Na  Na2  1  0.46098500  0.74296000  0.97864100  1
  Na  Na3  1  0.53901500  0.24296000  0.52135900  1
  H  H0  1  0.18522200  0.47192800  0.55835400  1
  H  H1  1  0.81477800  0.97192800  0.94164600  1
  H  H2  1  0.81477800  0.52807200  0.44164600  1
  H  H3  1  0.18522200  0.02807200  0.05835400  1
  H  H4  1  0.85248000  0.22341100  0.78697500  1
  H  H5  1  0.14752000  0.72341100  0.71302500  1
  H  H6  1  0.14752000  0.77658900  0.21302500  1
  H  H7  1  0.85248000  0.27658900  0.28697500  1
  H  H8  1  0.80320700  0.31410600  0.76956000  1
  H  H9  1  0.19679300  0.81410600  0.73044000  1
  H  H10  1  0.19679300  0.68589400  0.23044000  1
  H  H11  1  0.80320700  0.18589400  0.26956000  1
  H  H12  1  0.27084900  0.31890000  0.72035900  1
  H  H13  1  0.72915100  0.81890000  0.77964100  1
  H  H14  1  0.72915100  0.68110000  0.27964100  1
  H  H15  1  0.27084900  0.18110000  0.22035900  1
  H  H16  1  0.22707500  0.23030000  0.76877600  1
  H  H17  1  0.77292500  0.73030000  0.73122400  1
  H  H18  1  0.77292500  0.76970000  0.23122400  1
  H  H19  1  0.22707500  0.26970000  0.26877600  1
  H  H20  1  0.40482800  0.09736700  0.04158300  1
  H  H21  1  0.59517200  0.59736700  0.45841700  1
  H  H22  1  0.59517200  0.90263300  0.95841700  1
  H  H23  1  0.40482800  0.40263300  0.54158300  1
  H  H24  1  0.62004600  0.09290000  0.06969200  1
  H  H25  1  0.37995400  0.59290000  0.43030800  1
  H  H26  1  0.37995400  0.90710000  0.93030800  1
  H  H27  1  0.62004600  0.40710000  0.56969200  1
  H  H28  1  0.63687800  0.43229900  0.07429600  1
  H  H29  1  0.36312200  0.93229900  0.42570400  1
  H  H30  1  0.36312200  0.56770100  0.92570400  1
  H  H31  1  0.63687800  0.06770100  0.57429600  1
  H  H32  1  0.54373600  0.39426600  0.24797300  1
  H  H33  1  0.45626400  0.89426600  0.25202700  1
  H  H34  1  0.45626400  0.60573400  0.75202700  1
  H  H35  1  0.54373600  0.10573400  0.74797300  1
  H  H36  1  0.34074600  0.43808000  0.02163600  1
  H  H37  1  0.65925400  0.93808000  0.47836400  1
  H  H38  1  0.65925400  0.56192000  0.97836400  1
  H  H39  1  0.34074600  0.06192000  0.52163600  1
  H  H40  1  0.20553100  0.44991900  0.84634600  1
  H  H41  1  0.79446900  0.94991900  0.65365400  1
  H  H42  1  0.79446900  0.55008100  0.15365400  1
  H  H43  1  0.20553100  0.05008100  0.34634600  1
  H  H44  1  0.03002800  0.58088400  0.32915400  1
  H  H45  1  0.96997200  0.08088400  0.17084600  1
  H  H46  1  0.96997200  0.41911600  0.67084600  1
  H  H47  1  0.03002800  0.91911600  0.82915400  1
  H  H48  1  0.16401100  0.54512100  0.18106600  1
  H  H49  1  0.83598900  0.04512100  0.31893400  1
  H  H50  1  0.83598900  0.45487900  0.81893400  1
  H  H51  1  0.16401100  0.95487900  0.68106600  1
  H  H52  1  0.08477600  0.38098200  0.18613400  1
  H  H53  1  0.91522400  0.88098200  0.31386600  1
  H  H54  1  0.91522400  0.61901800  0.81386600  1
  H  H55  1  0.08477600  0.11901800  0.68613400  1
  H  H56  1  0.10406000  0.37409800  0.40953800  1
  H  H57  1  0.89594000  0.87409800  0.09046200  1
  H  H58  1  0.89594000  0.62590200  0.59046200  1
  H  H59  1  0.10406000  0.12590200  0.90953800  1
  O  O0  1  0.17650900  0.41916100  0.61103900  1
  O  O1  1  0.82349100  0.91916100  0.88896100  1
  O  O2  1  0.82349100  0.58083900  0.38896100  1
  O  O3  1  0.17650900  0.08083900  0.11103900  1
  O  O4  1  0.75196700  0.26080000  0.78338500  1
  O  O5  1  0.24803300  0.76080000  0.71661500  1
  O  O6  1  0.24803300  0.73920000  0.21661500  1
  O  O7  1  0.75196700  0.23920000  0.28338500  1
  O  O8  1  0.32641100  0.26897500  0.75984500  1
  O  O9  1  0.67358900  0.76897500  0.74015500  1
  O  O10  1  0.67358900  0.73102500  0.24015500  1
  O  O11  1  0.32641100  0.23102500  0.25984500  1
  O  O12  1  0.52078500  0.11353500  0.98778000  1
  O  O13  1  0.47921500  0.61353500  0.51222000  1
  O  O14  1  0.47921500  0.88646500  0.01222000  1
  O  O15  1  0.52078500  0.38646500  0.48778000  1
  O  O16  1  0.54563000  0.39329900  0.10681600  1
  O  O17  1  0.45437000  0.89329900  0.39318400  1
  O  O18  1  0.45437000  0.60670100  0.89318400  1
  O  O19  1  0.54563000  0.10670100  0.60681600  1
  O  O20  1  0.23110900  0.46791000  0.98032300  1
  O  O21  1  0.76889100  0.96791000  0.51967700  1
  O  O22  1  0.76889100  0.53209000  0.01967700  1
  O  O23  1  0.23110900  0.03209000  0.48032300  1
  O  O24  1  0.16023400  0.58129800  0.28922000  1
  O  O25  1  0.83976600  0.08129800  0.21078000  1
  O  O26  1  0.83976600  0.41870200  0.71078000  1
  O  O27  1  0.16023400  0.91870200  0.78922000  1
  O  O28  1  0.06613300  0.34426500  0.29008600  1
  O  O29  1  0.93386700  0.84426500  0.20991400  1
  O  O30  1  0.93386700  0.65573500  0.70991400  1
  O  O31  1  0.06613300  0.15573500  0.79008600  1
loop_
_geom_bond_atom_site_label_1
_geom_bond_atom_site_label_2
_geom_bond_distance
_geom_bond_site_symmetry_2
Na0 O4 2.365703 1_554
Na0 O16 2.392727 1_555
Na0 O8 2.397399 1_554
Na0 O11 2.406636 1_555
Na0 O7 2.412280 1_555
Na0 O12 2.452875 1_554
Na1 O5 2.365703 1_555
Na1 O17 2.392727 1_555
Na1 O9 2.397399 1_555
Na1 O10 2.406636 1_555
Na1 O6 2.412280 1_555
Na1 O13 2.452875 1_555
Na2 O6 2.365703 1_556
Na2 O18 2.392727 1_555
Na2 O10 2.397399 1_556
Na2 O9 2.406636 1_555
Na2 O5 2.412280 1_555
Na2 O14 2.452875 1_556
Na3 O7 2.365703 1_555
Na3 O19 2.392727 1_555
Na3 O11 2.397399 1_555
Na3 O8 2.406636 1_555
Na3 O4 2.412280 1_555
Na3 O15 2.452875 1_555
H0 O0 0.974211 1_555
H1 O1 0.974211 1_555
H2 O2 0.974211 1_555
H3 O3 0.974211 1_555
H4 O4 0.983035 1_555
H5 O5 0.983035 1_555
H6 O6 0.983035 1_555
H7 O7 0.983035 1_555
H8 O4 0.989647 1_555
H9 O5 0.989647 1_555
H10 O6 0.989647 1_555
H11 O7 0.989647 1_555
H12 O8 0.979917 1_555
H13 O9 0.979917 1_555
H14 O10 0.979917 1_555
H15 O11 0.979917 1_555
H16 O8 0.995140 1_555
H17 O9 0.995140 1_555
H18 O10 0.995140 1_555
H19 O11 0.995140 1_555
H20 O12 0.999178 1_554
H21 O13 0.999178 1_555
H22 O14 0.999178 1_556
H23 O15 0.999178 1_555
H24 O12 0.986585 1_554
H25 O13 0.986585 1_555
H26 O14 0.986585 1_556
H27 O15 0.986585 1_555
H28 O16 0.984750 1_555
H29 O17 0.984750 1_555
H30 O18 0.984750 1_555
H31 O19 0.984750 1_555
H32 O16 1.000257 1_555
H33 O17 1.000257 1_555
H34 O18 1.000257 1_555
H35 O19 1.000257 1_555
H36 O20 0.996637 1_554
H37 O21 0.996637 1_555
H38 O22 0.996637 1_556
H39 O23 0.996637 1_555
H40 O20 1.007327 1_555
H41 O21 1.007327 1_555
H42 O22 1.007327 1_555
H43 O23 1.007327 1_555
H44 O24 1.024185 1_555
H44 O2 1.616829 1_455
H45 O25 1.024185 1_555
H45 O3 1.616829 1_655
H46 O26 1.024185 1_555
H46 O0 1.616829 1_655
H47 O27 1.024185 1_555
H47 O1 1.616829 1_455
H48 O24 0.983236 1_555
H49 O25 0.983236 1_555
H50 O26 0.983236 1_555
H51 O27 0.983236 1_555
H52 O28 0.979162 1_555
H53 O29 0.979162 1_555
H54 O30 0.979162 1_555
H55 O31 0.979162 1_555
H56 O28 1.016146 1_555
H57 O29 1.016146 1_555
H58 O30 1.016146 1_555
H59 O31 1.016146 1_555
