# generated using pymatgen
data_Al2W
_symmetry_space_group_name_H-M   'P 1'
_cell_length_a   4.87286845
_cell_length_b   4.87286845
_cell_length_c   6.78679100
_cell_angle_alpha   90.00000000
_cell_angle_beta   90.00000000
_cell_angle_gamma   120.00000615
_symmetry_Int_Tables_number   1
_chemical_formula_structural   Al2W
_chemical_formula_sum   'Al6 W3'
_cell_volume   139.56112281
_cell_formula_units_Z   3
loop_
 _symmetry_equiv_pos_site_id
 _symmetry_equiv_pos_as_xyz
  1  'x, y, z'
loop_
 _atom_site_type_symbol
 _atom_site_label
 _atom_site_symmetry_multiplicity
 _atom_site_fract_x
 _atom_site_fract_y
 _atom_site_fract_z
 _atom_site_occupancy
  Al  Al0  1  0.16854500  0.83145500  0.16666700  1
  Al  Al1  1  0.33708900  0.16854500  0.83333300  1
  Al  Al2  1  0.83145500  0.66291100  0.50000000  1
  Al  Al3  1  0.83145500  0.16854500  0.16666700  1
  Al  Al4  1  0.66291100  0.83145500  0.83333300  1
  Al  Al5  1  0.16854500  0.33708900  0.50000000  1
  W  W0  1  0.50000000  0.00000000  0.50000000  1
  W  W1  1  0.00000000  0.50000000  0.83333300  1
  W  W2  1  0.50000000  0.50000000  0.16666700  1
loop_
_geom_bond_atom_site_label_1
_geom_bond_atom_site_label_2
_geom_bond_distance
_geom_bond_site_symmetry_2
Al0 W0 2.659796 1_565
Al0 W1 2.659802 1_554
Al0 Al2 2.672343 1_455
Al0 Al1 2.672348 1_564
Al0 W2 2.797499 1_555
Al0 Al3 2.797633 1_455
Al0 Al3 2.797633 1_565
Al0 W2 2.821312 1_455
Al0 W2 2.821312 1_565
Al0 Al3 2.845058 1_465
Al1 W0 2.659798 1_555
Al1 W2 2.659802 1_556
Al1 Al5 2.672338 1_555
Al1 W1 2.797503 1_655
Al1 Al4 2.797633 1_555
Al1 Al4 2.797642 1_545
Al1 W1 2.821308 1_555
Al1 W1 2.821312 1_545
Al1 Al4 2.845050 1_445
Al2 W2 2.659796 1_555
Al2 W1 2.659798 1_655
Al2 Al4 2.672338 1_555
Al2 W0 2.797503 1_555
Al2 Al5 2.797633 1_555
Al2 Al5 2.797642 1_655
Al2 W0 2.821308 1_565
Al2 W0 2.821312 1_665
Al2 Al5 2.845050 1_665
Al3 W0 2.659796 1_555
Al3 W1 2.659802 1_654
Al3 Al5 2.672343 1_655
Al3 Al4 2.672348 1_544
Al3 W2 2.797499 1_555
Al3 W2 2.821312 1_545
Al3 W2 2.821312 1_655
Al4 W0 2.659798 1_565
Al4 W2 2.659802 1_556
Al4 W1 2.797503 1_555
Al4 W1 2.821308 1_655
Al4 W1 2.821312 1_665
Al5 W2 2.659796 1_555
Al5 W1 2.659798 1_555
Al5 W0 2.797503 1_565
Al5 W0 2.821308 1_555
Al5 W0 2.821312 1_455
