# generated using pymatgen
data_Ca2Mg
_symmetry_space_group_name_H-M   'P 1'
_cell_length_a   14.43833727
_cell_length_b   14.43833727
_cell_length_c   17.03087738
_cell_angle_alpha   76.81169584
_cell_angle_beta   76.81169584
_cell_angle_gamma   29.74221894
_symmetry_Int_Tables_number   1
_chemical_formula_structural   Ca2Mg
_chemical_formula_sum   'Ca32 Mg16'
_cell_volume   1711.54734607
_cell_formula_units_Z   16
loop_
 _symmetry_equiv_pos_site_id
 _symmetry_equiv_pos_as_xyz
  1  'x, y, z'
loop_
 _atom_site_type_symbol
 _atom_site_label
 _atom_site_symmetry_multiplicity
 _atom_site_fract_x
 _atom_site_fract_y
 _atom_site_fract_z
 _atom_site_occupancy
  Ca  Ca0_0  1  0.00374900  0.00374900  0.00459200  1
  Ca  Ca0_1  1  0.00374900  0.00374900  0.50459200  1
  Ca  Ca0_2  1  0.00374900  0.50374900  0.00459200  1
  Ca  Ca0_3  1  0.00374900  0.50374900  0.50459200  1
  Ca  Ca0_4  1  0.50374900  0.00374900  0.00459200  1
  Ca  Ca0_5  1  0.50374900  0.00374900  0.50459200  1
  Ca  Ca0_6  1  0.50374900  0.50374900  0.00459200  1
  Ca  Ca0_7  1  0.50374900  0.50374900  0.50459200  1
  Ca  Ca1_0  1  0.16766100  0.16766100  0.17235800  1
  Ca  Ca1_1  1  0.16766100  0.16766100  0.67235800  1
  Ca  Ca1_2  1  0.16766100  0.66766100  0.17235800  1
  Ca  Ca1_3  1  0.16766100  0.66766100  0.67235800  1
  Ca  Ca1_4  1  0.66766100  0.16766100  0.17235800  1
  Ca  Ca1_5  1  0.66766100  0.16766100  0.67235800  1
  Ca  Ca1_6  1  0.66766100  0.66766100  0.17235800  1
  Ca  Ca1_7  1  0.66766100  0.66766100  0.67235800  1
  Ca  Ca2_0  1  0.32666100  0.32666100  0.32696700  1
  Ca  Ca2_1  1  0.32666100  0.32666100  0.82696700  1
  Ca  Ca2_2  1  0.32666100  0.82666100  0.32696700  1
  Ca  Ca2_3  1  0.32666100  0.82666100  0.82696700  1
  Ca  Ca2_4  1  0.82666100  0.32666100  0.32696700  1
  Ca  Ca2_5  1  0.82666100  0.32666100  0.82696700  1
  Ca  Ca2_6  1  0.82666100  0.82666100  0.32696700  1
  Ca  Ca2_7  1  0.82666100  0.82666100  0.82696700  1
  Ca  Ca3_0  1  0.14012400  0.14012400  0.46951400  1
  Ca  Ca3_1  1  0.14012400  0.14012400  0.96951400  1
  Ca  Ca3_2  1  0.14012400  0.64012400  0.46951400  1
  Ca  Ca3_3  1  0.14012400  0.64012400  0.96951400  1
  Ca  Ca3_4  1  0.64012400  0.14012400  0.46951400  1
  Ca  Ca3_5  1  0.64012400  0.14012400  0.96951400  1
  Ca  Ca3_6  1  0.64012400  0.64012400  0.46951400  1
  Ca  Ca3_7  1  0.64012400  0.64012400  0.96951400  1
  Mg  Mg0_0  1  0.30674850  0.30674850  0.13781050  1
  Mg  Mg0_1  1  0.30674850  0.30674850  0.63781050  1
  Mg  Mg0_2  1  0.30674850  0.80674850  0.13781050  1
  Mg  Mg0_3  1  0.30674850  0.80674850  0.63781050  1
  Mg  Mg0_4  1  0.80674850  0.30674850  0.13781050  1
  Mg  Mg0_5  1  0.80674850  0.30674850  0.63781050  1
  Mg  Mg0_6  1  0.80674850  0.80674850  0.13781050  1
  Mg  Mg0_7  1  0.80674850  0.80674850  0.63781050  1
  Mg  Mg1_0  1  0.47172300  0.47172300  0.30542550  1
  Mg  Mg1_1  1  0.47172300  0.47172300  0.80542550  1
  Mg  Mg1_2  1  0.47172300  0.97172300  0.30542550  1
  Mg  Mg1_3  1  0.47172300  0.97172300  0.80542550  1
  Mg  Mg1_4  1  0.97172300  0.47172300  0.30542550  1
  Mg  Mg1_5  1  0.97172300  0.47172300  0.80542550  1
  Mg  Mg1_6  1  0.97172300  0.97172300  0.30542550  1
  Mg  Mg1_7  1  0.97172300  0.97172300  0.80542550  1
loop_
_geom_bond_atom_site_label_1
_geom_bond_atom_site_label_2
_geom_bond_distance
_geom_bond_site_symmetry_2
Ca0_0 Mg0_4 3.514649 1_455
Ca0_0 Mg0_2 3.514649 1_545
Ca0_0 Ca0_6 3.705534 1_455
Ca0_0 Ca0_6 3.705534 1_545
Ca0_0 Mg1_7 3.706191 1_444
Ca0_0 Ca3_1 3.710820 1_554
Ca0_0 Ca2_5 3.717349 1_454
Ca0_0 Ca2_3 3.717349 1_544
Ca0_0 Ca1_2 3.758740 1_545
Ca0_0 Ca1_4 3.758740 1_455
Ca0_0 Ca3_3 3.839358 1_544
Ca0_0 Ca3_5 3.839358 1_454
Ca0_1 Mg0_5 3.514649 1_455
Ca0_1 Mg0_3 3.514649 1_545
Ca0_1 Ca0_7 3.705534 1_545
Ca0_1 Ca0_7 3.705534 1_455
Ca0_1 Mg1_6 3.706191 1_445
Ca0_1 Ca3_0 3.710820 1_555
Ca0_1 Ca2_4 3.717349 1_455
Ca0_1 Ca2_2 3.717349 1_545
Ca0_1 Ca1_3 3.758740 1_545
Ca0_1 Ca1_5 3.758740 1_455
Ca0_1 Ca3_2 3.839358 1_545
Ca0_1 Ca3_4 3.839358 1_455
Ca0_2 Mg0_0 3.514649 1_555
Ca0_2 Mg0_6 3.514649 1_455
Ca0_2 Ca0_4 3.705534 1_555
Ca0_2 Ca0_4 3.705534 1_465
Ca0_2 Mg1_5 3.706191 1_454
Ca0_2 Ca3_3 3.710820 1_554
Ca0_2 Ca2_7 3.717349 1_454
Ca0_2 Ca2_1 3.717349 1_554
Ca0_2 Ca1_0 3.758740 1_555
Ca0_2 Ca1_6 3.758740 1_455
Ca0_2 Ca3_7 3.839358 1_454
Ca0_2 Ca3_1 3.839358 1_554
Ca0_3 Mg0_1 3.514649 1_555
Ca0_3 Mg0_7 3.514649 1_455
Ca0_3 Ca0_5 3.705534 1_555
Ca0_3 Ca0_5 3.705534 1_465
Ca0_3 Mg1_4 3.706191 1_455
Ca0_3 Ca3_2 3.710820 1_555
Ca0_3 Ca2_0 3.717349 1_555
Ca0_3 Ca2_6 3.717349 1_455
Ca0_3 Ca1_1 3.758740 1_555
Ca0_3 Ca1_7 3.758740 1_455
Ca0_3 Ca3_6 3.839358 1_455
Ca0_3 Ca3_0 3.839358 1_555
Ca0_4 Mg0_0 3.514649 1_555
Ca0_4 Mg0_6 3.514649 1_545
Ca0_4 Mg1_3 3.706191 1_544
Ca0_4 Ca3_5 3.710820 1_554
Ca0_4 Ca2_1 3.717349 1_554
Ca0_4 Ca2_7 3.717349 1_544
Ca0_4 Ca1_6 3.758740 1_545
Ca0_4 Ca1_0 3.758740 1_555
Ca0_4 Ca3_7 3.839358 1_544
Ca0_4 Ca3_1 3.839358 1_554
Ca0_5 Mg0_1 3.514649 1_555
Ca0_5 Mg0_7 3.514649 1_545
Ca0_5 Mg1_2 3.706191 1_545
Ca0_5 Ca3_4 3.710820 1_555
Ca0_5 Ca2_0 3.717349 1_555
Ca0_5 Ca2_6 3.717349 1_545
Ca0_5 Ca1_1 3.758740 1_555
Ca0_5 Ca1_7 3.758740 1_545
Ca0_5 Ca3_6 3.839358 1_545
Ca0_5 Ca3_0 3.839358 1_555
Ca0_6 Mg0_4 3.514649 1_555
Ca0_6 Mg0_2 3.514649 1_555
Ca0_6 Mg1_1 3.706191 1_554
Ca0_6 Ca3_7 3.710820 1_554
Ca0_6 Ca2_5 3.717349 1_554
Ca0_6 Ca2_3 3.717349 1_554
Ca0_6 Ca1_2 3.758740 1_555
Ca0_6 Ca1_4 3.758740 1_555
Ca0_6 Ca3_3 3.839358 1_554
Ca0_6 Ca3_5 3.839358 1_554
Ca0_7 Mg0_5 3.514649 1_555
Ca0_7 Mg0_3 3.514649 1_555
Ca0_7 Mg1_0 3.706191 1_555
Ca0_7 Ca3_6 3.710820 1_555
Ca0_7 Ca2_4 3.717349 1_555
Ca0_7 Ca2_2 3.717349 1_555
Ca0_7 Ca1_5 3.758740 1_555
Ca0_7 Ca1_3 3.758740 1_555
Ca0_7 Ca3_2 3.839358 1_555
Ca0_7 Ca3_4 3.839358 1_555
Ca1_0 Mg1_4 3.529821 1_455
Ca1_0 Mg1_2 3.529821 1_545
Ca1_0 Ca2_2 3.695835 1_545
Ca1_0 Ca2_4 3.695835 1_455
Ca1_0 Ca1_6 3.705534 1_455
Ca1_0 Ca1_6 3.705534 1_545
Ca1_0 Ca3_1 3.711937 1_554
Ca1_0 Mg0_2 3.771072 1_545
Ca1_0 Mg0_4 3.771072 1_455
Ca1_0 Mg0_0 3.786383 1_555
Ca1_1 Mg1_5 3.529821 1_455
Ca1_1 Mg1_3 3.529821 1_545
Ca1_1 Ca2_3 3.695835 1_545
Ca1_1 Ca2_5 3.695835 1_455
Ca1_1 Ca1_7 3.705534 1_455
Ca1_1 Ca1_7 3.705534 1_545
Ca1_1 Ca3_0 3.711937 1_555
Ca1_1 Mg0_3 3.771072 1_545
Ca1_1 Mg0_5 3.771072 1_455
Ca1_1 Mg0_1 3.786383 1_555
Ca1_2 Mg1_0 3.529821 1_555
Ca1_2 Mg1_6 3.529821 1_455
Ca1_2 Ca2_6 3.695835 1_455
Ca1_2 Ca2_0 3.695835 1_555
Ca1_2 Ca1_4 3.705534 1_555
Ca1_2 Ca1_4 3.705534 1_465
Ca1_2 Ca3_3 3.711937 1_554
Ca1_2 Mg0_6 3.771072 1_455
Ca1_2 Mg0_0 3.771072 1_555
Ca1_2 Mg0_2 3.786383 1_555
Ca1_3 Mg1_1 3.529821 1_555
Ca1_3 Mg1_7 3.529821 1_455
Ca1_3 Ca2_1 3.695835 1_555
Ca1_3 Ca2_7 3.695835 1_455
Ca1_3 Ca1_5 3.705534 1_555
Ca1_3 Ca1_5 3.705534 1_465
Ca1_3 Ca3_2 3.711937 1_555
Ca1_3 Mg0_7 3.771072 1_455
Ca1_3 Mg0_1 3.771072 1_555
Ca1_3 Mg0_3 3.786383 1_555
Ca1_4 Mg1_0 3.529821 1_555
Ca1_4 Mg1_6 3.529821 1_545
Ca1_4 Ca2_6 3.695835 1_545
Ca1_4 Ca2_0 3.695835 1_555
Ca1_4 Ca3_5 3.711937 1_554
Ca1_4 Mg0_6 3.771072 1_545
Ca1_4 Mg0_0 3.771072 1_555
Ca1_4 Mg0_4 3.786383 1_555
Ca1_5 Mg1_1 3.529821 1_555
Ca1_5 Mg1_7 3.529821 1_545
Ca1_5 Ca2_1 3.695835 1_555
Ca1_5 Ca2_7 3.695835 1_545
Ca1_5 Ca3_4 3.711937 1_555
Ca1_5 Mg0_7 3.771072 1_545
Ca1_5 Mg0_1 3.771072 1_555
Ca1_5 Mg0_5 3.786383 1_555
Ca1_6 Mg1_4 3.529821 1_555
Ca1_6 Mg1_2 3.529821 1_555
Ca1_6 Ca2_2 3.695835 1_555
Ca1_6 Ca2_4 3.695835 1_555
Ca1_6 Ca3_7 3.711937 1_554
Ca1_6 Mg0_2 3.771072 1_555
Ca1_6 Mg0_4 3.771072 1_555
Ca1_6 Mg0_6 3.786383 1_555
Ca1_7 Mg1_5 3.529821 1_555
Ca1_7 Mg1_3 3.529821 1_555
Ca1_7 Ca2_3 3.695835 1_555
Ca1_7 Ca2_5 3.695835 1_555
Ca1_7 Ca3_6 3.711937 1_555
Ca1_7 Mg0_3 3.771072 1_555
Ca1_7 Mg0_5 3.771072 1_555
Ca1_7 Mg0_7 3.786383 1_555
Ca2_0 Mg0_0 3.395906 1_555
Ca2_0 Mg1_4 3.557004 1_455
Ca2_0 Mg1_2 3.557004 1_545
Ca2_0 Ca3_4 3.807071 1_555
Ca2_0 Ca3_2 3.807071 1_555
Ca2_1 Mg0_1 3.395906 1_555
Ca2_1 Mg1_5 3.557004 1_455
Ca2_1 Mg1_3 3.557004 1_545
Ca2_1 Ca3_5 3.807071 1_555
Ca2_1 Ca3_3 3.807071 1_555
Ca2_2 Mg0_2 3.395906 1_555
Ca2_2 Mg1_6 3.557004 1_455
Ca2_2 Mg1_0 3.557004 1_555
Ca2_2 Ca3_0 3.807071 1_565
Ca2_2 Ca3_6 3.807071 1_555
Ca2_3 Mg0_3 3.395906 1_555
Ca2_3 Mg1_7 3.557004 1_455
Ca2_3 Mg1_1 3.557004 1_555
Ca2_3 Ca3_1 3.807071 1_565
Ca2_3 Ca3_7 3.807071 1_555
Ca2_4 Mg0_4 3.395906 1_555
Ca2_4 Mg1_6 3.557004 1_545
Ca2_4 Mg1_0 3.557004 1_555
Ca2_4 Ca3_0 3.807071 1_655
Ca2_4 Ca3_6 3.807071 1_555
Ca2_5 Mg0_5 3.395906 1_555
Ca2_5 Mg1_7 3.557004 1_545
Ca2_5 Mg1_1 3.557004 1_555
Ca2_5 Ca3_1 3.807071 1_655
Ca2_5 Ca3_7 3.807071 1_555
Ca2_6 Mg0_6 3.395906 1_555
Ca2_6 Mg1_4 3.557004 1_555
Ca2_6 Mg1_2 3.557004 1_555
Ca2_6 Ca3_2 3.807071 1_655
Ca2_6 Ca3_4 3.807071 1_565
Ca2_7 Mg0_7 3.395906 1_555
Ca2_7 Mg1_5 3.557004 1_555
Ca2_7 Mg1_3 3.557004 1_555
Ca2_7 Ca3_5 3.807071 1_565
Ca2_7 Ca3_3 3.807071 1_655
Ca3_0 Mg1_4 3.663898 1_455
Ca3_0 Mg1_2 3.663898 1_545
Ca3_0 Ca3_6 3.705534 1_455
Ca3_0 Ca3_6 3.705534 1_545
Ca3_0 Mg0_3 3.730145 1_545
Ca3_0 Mg0_5 3.730145 1_455
Ca3_1 Mg1_5 3.663898 1_455
Ca3_1 Mg1_3 3.663898 1_545
Ca3_1 Ca3_7 3.705534 1_455
Ca3_1 Ca3_7 3.705534 1_545
Ca3_1 Mg0_2 3.730145 1_546
Ca3_1 Mg0_4 3.730145 1_456
Ca3_2 Mg1_0 3.663898 1_555
Ca3_2 Mg1_6 3.663898 1_455
Ca3_2 Ca3_4 3.705534 1_555
Ca3_2 Ca3_4 3.705534 1_465
Ca3_2 Mg0_7 3.730145 1_455
Ca3_2 Mg0_1 3.730145 1_555
Ca3_3 Mg1_1 3.663898 1_555
Ca3_3 Mg1_7 3.663898 1_455
Ca3_3 Ca3_5 3.705534 1_555
Ca3_3 Ca3_5 3.705534 1_465
Ca3_3 Mg0_6 3.730145 1_456
Ca3_3 Mg0_0 3.730145 1_556
Ca3_4 Mg1_0 3.663898 1_555
Ca3_4 Mg1_6 3.663898 1_545
Ca3_4 Mg0_7 3.730145 1_545
Ca3_4 Mg0_1 3.730145 1_555
Ca3_5 Mg1_1 3.663898 1_555
Ca3_5 Mg1_7 3.663898 1_545
Ca3_5 Mg0_6 3.730145 1_546
Ca3_5 Mg0_0 3.730145 1_556
Ca3_6 Mg1_2 3.663898 1_555
Ca3_6 Mg1_4 3.663898 1_555
Ca3_6 Mg0_3 3.730145 1_555
Ca3_6 Mg0_5 3.730145 1_555
Ca3_7 Mg1_5 3.663898 1_555
Ca3_7 Mg1_3 3.663898 1_555
Ca3_7 Mg0_2 3.730145 1_556
Ca3_7 Mg0_4 3.730145 1_556
