# generated using pymatgen
data_UCd2O5
_symmetry_space_group_name_H-M   'P 1'
_cell_length_a   6.36848616
_cell_length_b   6.36848616
_cell_length_c   8.21624359
_cell_angle_alpha   72.34881201
_cell_angle_beta   72.34881201
_cell_angle_gamma   49.98273681
_symmetry_Int_Tables_number   1
_chemical_formula_structural   UCd2O5
_chemical_formula_sum   'U2 Cd4 O10'
_cell_volume   240.50047646
_cell_formula_units_Z   2
loop_
 _symmetry_equiv_pos_site_id
 _symmetry_equiv_pos_as_xyz
  1  'x, y, z'
loop_
 _atom_site_type_symbol
 _atom_site_label
 _atom_site_symmetry_multiplicity
 _atom_site_fract_x
 _atom_site_fract_y
 _atom_site_fract_z
 _atom_site_occupancy
  U  U0  1  0.00000000  0.00000000  0.50000000  1
  U  U1  1  0.00000000  0.00000000  0.00000000  1
  Cd  Cd0  1  0.62853600  0.70375800  0.68233800  1
  Cd  Cd1  1  0.29624200  0.37146400  0.81766200  1
  Cd  Cd2  1  0.70375800  0.62853600  0.18233800  1
  Cd  Cd3  1  0.37146400  0.29624200  0.31766200  1
  O  O0  1  0.14186600  0.63268500  0.47913000  1
  O  O1  1  0.85813400  0.36731500  0.52087000  1
  O  O2  1  0.61776700  0.07132100  0.62541000  1
  O  O3  1  0.19388000  0.80612000  0.75000000  1
  O  O4  1  0.92867900  0.38223300  0.87459000  1
  O  O5  1  0.63268500  0.14186600  0.97913000  1
  O  O6  1  0.36731500  0.85813400  0.02087000  1
  O  O7  1  0.07132100  0.61776700  0.12541000  1
  O  O8  1  0.80612000  0.19388000  0.25000000  1
  O  O9  1  0.38223300  0.92867900  0.37459000  1
loop_
_geom_bond_atom_site_label_1
_geom_bond_atom_site_label_2
_geom_bond_distance
_geom_bond_site_symmetry_2
Cd0 O2 2.202709 1_565
Cd0 O1 2.237694 1_555
Cd0 O4 2.275438 1_555
Cd0 O3 2.315662 1_555
Cd1 O4 2.202709 1_455
Cd1 O5 2.237694 1_555
Cd1 O2 2.275438 1_555
Cd1 O3 2.315662 1_555
Cd2 O7 2.202709 1_655
Cd2 O6 2.237694 1_555
Cd2 O9 2.275438 1_555
Cd2 O8 2.315662 1_555
Cd3 O9 2.202709 1_545
Cd3 O0 2.237694 1_555
Cd3 O7 2.275438 1_555
Cd3 O8 2.315662 1_555
O0 U0 1.936248 1_565
O1 U0 1.936248 1_655
O2 U0 2.129410 1_655
O3 U1 2.303830 1_566
O3 U0 2.303830 1_565
O4 U1 2.129410 1_656
O5 U1 1.936248 1_656
O6 U1 1.936248 1_565
O7 U1 2.129410 1_565
O8 U0 2.303830 1_655
O8 U1 2.303830 1_655
O9 U0 2.129410 1_565
