# generated using pymatgen
data_CaAl2(SiO4)3
_symmetry_space_group_name_H-M   'P 1'
_cell_length_a   9.67909866
_cell_length_b   9.67909866
_cell_length_c   9.82011405
_cell_angle_alpha   83.32938974
_cell_angle_beta   83.32938974
_cell_angle_gamma   139.81940257
_symmetry_Int_Tables_number   1
_chemical_formula_structural   CaAl2(SiO4)3
_chemical_formula_sum   'Ca2 Al4 Si6 O24'
_cell_volume   558.61049214
_cell_formula_units_Z   2
loop_
 _symmetry_equiv_pos_site_id
 _symmetry_equiv_pos_as_xyz
  1  'x, y, z'
loop_
 _atom_site_type_symbol
 _atom_site_label
 _atom_site_symmetry_multiplicity
 _atom_site_fract_x
 _atom_site_fract_y
 _atom_site_fract_z
 _atom_site_occupancy
  Ca  Ca0  1  0.62637600  0.33752000  0.24422300  1
  Ca  Ca1  1  0.33752000  0.62637600  0.74422300  1
  Al  Al0  1  0.73253200  0.04603300  0.38096300  1
  Al  Al1  1  0.04603300  0.73253200  0.88096300  1
  Al  Al2  1  0.16214400  0.98974500  0.49734600  1
  Al  Al3  1  0.98974500  0.16214400  0.99734600  1
  Si  Si0  1  0.16584400  0.21416800  0.25278400  1
  Si  Si1  1  0.21416800  0.16584400  0.75278400  1
  Si  Si2  1  0.04254700  0.48548200  0.11504500  1
  Si  Si3  1  0.48548200  0.04254700  0.61504500  1
  Si  Si4  1  0.46619800  0.71762100  0.18825700  1
  Si  Si5  1  0.71762100  0.46619800  0.68825700  1
  O  O0  1  0.13958500  0.09889700  0.61104100  1
  O  O1  1  0.09889700  0.13958500  0.11104100  1
  O  O2  1  0.95593000  0.11021600  0.37525800  1
  O  O3  1  0.11021600  0.95593000  0.87525800  1
  O  O4  1  0.52234400  0.80010000  0.33112300  1
  O  O5  1  0.80010000  0.52234400  0.83112300  1
  O  O6  1  0.59545000  0.98135900  0.55835400  1
  O  O7  1  0.98135900  0.59545000  0.05835400  1
  O  O8  1  0.26935100  0.66907800  0.16187800  1
  O  O9  1  0.66907800  0.26935100  0.66187800  1
  O  O10  1  0.69413500  0.92358000  0.04733200  1
  O  O11  1  0.92358000  0.69413500  0.54733200  1
  O  O12  1  0.66677400  0.81160000  0.83368400  1
  O  O13  1  0.81160000  0.66677400  0.33368400  1
  O  O14  1  0.25917200  0.14017400  0.31516300  1
  O  O15  1  0.14017400  0.25917200  0.81516300  1
  O  O16  1  0.07993300  0.40999000  0.98957100  1
  O  O17  1  0.40999000  0.07993300  0.48957100  1
  O  O18  1  0.38661600  0.49381000  0.20642900  1
  O  O19  1  0.49381000  0.38661600  0.70642900  1
  O  O20  1  0.51677800  0.21645800  0.02621100  1
  O  O21  1  0.21645800  0.51677800  0.52621100  1
  O  O22  1  0.81826700  0.26819400  0.25713600  1
  O  O23  1  0.26819400  0.81826700  0.75713600  1
loop_
_geom_bond_atom_site_label_1
_geom_bond_atom_site_label_2
_geom_bond_distance
_geom_bond_site_symmetry_2
Ca0 O14 2.346937 1_555
Ca0 O7 2.397261 1_555
Ca0 O22 2.419782 1_555
Ca0 O17 2.420873 1_555
Ca0 O20 2.508563 1_555
Ca0 O13 2.535386 1_555
Ca1 O15 2.346937 1_555
Ca1 O6 2.397261 1_555
Ca1 O23 2.419782 1_555
Ca1 O16 2.420873 1_555
Ca1 O21 2.508563 1_555
Ca1 O12 2.535386 1_555
Al0 O2 1.725039 1_555
Al0 O6 1.768456 1_545
Al0 O4 1.773949 1_545
Al0 O22 1.795161 1_555
Al1 O3 1.725039 1_555
Al1 O7 1.768456 1_456
Al1 O5 1.773949 1_455
Al1 O23 1.795161 1_555
Al2 O0 1.726361 1_565
Al2 O11 1.753408 1_455
Al2 O14 1.765713 1_565
Al2 O17 1.806873 1_565
Al3 O1 1.726361 1_656
Al3 O10 1.753408 1_546
Al3 O15 1.765713 1_655
Al3 O16 1.806873 1_655
O0 Si1 1.614530 1_555
O1 Si0 1.614530 1_555
O2 Si0 1.616910 1_655
O3 Si1 1.616910 1_565
O4 Si4 1.635652 1_555
O5 Si5 1.635652 1_555
O6 Si3 1.641884 1_565
O7 Si2 1.641884 1_655
O8 Si2 1.628507 1_555
O8 Si4 1.641058 1_555
O9 Si3 1.628507 1_555
O9 Si5 1.641058 1_555
O10 Si4 1.638887 1_555
O11 Si5 1.638887 1_555
O14 Si0 1.649058 1_555
O15 Si1 1.649058 1_555
O16 Si2 1.640948 1_556
O17 Si3 1.640948 1_555
O18 Si4 1.626804 1_555
O18 Si0 1.658152 1_555
O19 Si5 1.626804 1_555
O19 Si1 1.658152 1_555
O22 Si2 1.649515 1_655
O23 Si3 1.649515 1_565
