# generated using pymatgen
data_Li2V3SnO8
_symmetry_space_group_name_H-M   'P 1'
_cell_length_a   6.16488926
_cell_length_b   6.16488926
_cell_length_c   6.16488952
_cell_angle_alpha   58.61923048
_cell_angle_beta   58.61923048
_cell_angle_gamma   58.61923472
_symmetry_Int_Tables_number   1
_chemical_formula_structural   Li2V3SnO8
_chemical_formula_sum   'Li2 V3 Sn1 O8'
_cell_volume   160.44689779
_cell_formula_units_Z   1
loop_
 _symmetry_equiv_pos_site_id
 _symmetry_equiv_pos_as_xyz
  1  'x, y, z'
loop_
 _atom_site_type_symbol
 _atom_site_label
 _atom_site_symmetry_multiplicity
 _atom_site_fract_x
 _atom_site_fract_y
 _atom_site_fract_z
 _atom_site_occupancy
  Li  Li0  1  0.87683200  0.87683200  0.87683200  1
  Li  Li1  1  0.12316800  0.12316800  0.12316800  1
  V  V0  1  0.00000000  0.50000000  0.50000000  1
  V  V1  1  0.50000000  0.00000000  0.50000000  1
  V  V2  1  0.50000000  0.50000000  0.00000000  1
  Sn  Sn0  1  0.50000000  0.50000000  0.50000000  1
  O  O0  1  0.73103900  0.73103900  0.73103900  1
  O  O1  1  0.74229300  0.74229300  0.28267000  1
  O  O2  1  0.74229300  0.28267000  0.74229300  1
  O  O3  1  0.28267000  0.74229300  0.74229300  1
  O  O4  1  0.71733000  0.25770700  0.25770700  1
  O  O5  1  0.25770700  0.71733000  0.25770700  1
  O  O6  1  0.25770700  0.25770700  0.71733000  1
  O  O7  1  0.26896100  0.26896100  0.26896100  1
loop_
_geom_bond_atom_site_label_1
_geom_bond_atom_site_label_2
_geom_bond_distance
_geom_bond_site_symmetry_2
Li0 O1 2.007415 1_556
Li0 O3 2.007415 1_655
Li0 O2 2.007415 1_565
Li0 O0 2.224291 1_555
Li1 O6 2.007415 1_554
Li1 O5 2.007415 1_545
Li1 O4 2.007415 1_455
Li1 O7 2.224291 1_555
O0 V2 2.000100 1_556
O0 V0 2.000101 1_655
O0 V1 2.000101 1_565
O1 V0 2.052189 1_655
O1 V1 2.052189 1_565
O1 Sn0 2.100619 1_555
O2 V0 2.052189 1_655
O2 V2 2.052189 1_556
O2 Sn0 2.100619 1_555
O3 V1 2.052189 1_565
O3 V2 2.052189 1_556
O3 Sn0 2.100619 1_555
O4 V1 2.052189 1_555
O4 V2 2.052189 1_555
O4 Sn0 2.100619 1_555
O5 V0 2.052189 1_555
O5 V2 2.052189 1_555
O5 Sn0 2.100619 1_555
O6 V1 2.052189 1_555
O6 V0 2.052189 1_555
O6 Sn0 2.100619 1_555
O7 V2 2.000100 1_555
O7 V1 2.000101 1_555
O7 V0 2.000101 1_555
