# generated using pymatgen
data_K5NaNi5(P2O7)4
_symmetry_space_group_name_H-M   'P 1'
_cell_length_a   7.28442000
_cell_length_b   9.42186592
_cell_length_c   10.21851011
_cell_angle_alpha   109.52659473
_cell_angle_beta   89.48213067
_cell_angle_gamma   104.18916524
_symmetry_Int_Tables_number   1
_chemical_formula_structural   K5NaNi5(P2O7)4
_chemical_formula_sum   'K5 Na1 Ni5 P8 O28'
_cell_volume   638.78152550
_cell_formula_units_Z   1
loop_
 _symmetry_equiv_pos_site_id
 _symmetry_equiv_pos_as_xyz
  1  'x, y, z'
loop_
 _atom_site_type_symbol
 _atom_site_label
 _atom_site_symmetry_multiplicity
 _atom_site_fract_x
 _atom_site_fract_y
 _atom_site_fract_z
 _atom_site_occupancy
  K  K0  1  0.99983100  0.55067700  0.82470200  1
  K  K1  1  0.00097700  0.45469900  0.18449600  1
  K  K2  1  0.95005000  0.80230600  0.57504400  1
  K  K3  1  0.05425100  0.18831800  0.41537000  1
  K  K4  1  0.50186500  0.99608300  0.49616500  1
  Na  Na0  1  0.56620500  0.62792000  0.32556100  1
  Ni  Ni0  1  0.00120700  0.99966700  0.99832700  1
  Ni  Ni1  1  0.63970000  0.04060600  0.12874200  1
  Ni  Ni2  1  0.36314200  0.95864700  0.87708400  1
  Ni  Ni3  1  0.50351100  0.50575700  0.00133500  1
  Ni  Ni4  1  0.42233000  0.37821800  0.68292700  1
  P  P0  1  0.75124600  0.18940700  0.87496500  1
  P  P1  1  0.25099600  0.81024900  0.12366100  1
  P  P2  1  0.15128500  0.18725000  0.77831600  1
  P  P3  1  0.85332000  0.81655000  0.21729000  1
  P  P4  1  0.33832300  0.65574000  0.60712300  1
  P  P5  1  0.64924700  0.34280100  0.40274900  1
  P  P6  1  0.63880500  0.74021800  0.82714700  1
  P  P7  1  0.36179300  0.25985000  0.16578300  1
  O  O0  1  0.56464400  0.71665700  0.67005300  1
  O  O1  1  0.43254800  0.29350800  0.32659700  1
  O  O2  1  0.93113800  0.19143800  0.76787200  1
  O  O3  1  0.07605100  0.81179000  0.22944200  1
  O  O4  1  0.33764300  0.67294300  0.46556400  1
  O  O5  1  0.61093300  0.32224700  0.54528800  1
  O  O6  1  0.26775200  0.48621400  0.60639400  1
  O  O7  1  0.74826100  0.50724800  0.41052800  1
  O  O8  1  0.27272500  0.35483400  0.85647800  1
  O  O9  1  0.74019000  0.65269300  0.12980100  1
  O  O10  1  0.23772700  0.76438000  0.71123200  1
  O  O11  1  0.74700300  0.22188300  0.31130600  1
  O  O12  1  0.82599100  0.14220200  0.99186500  1
  O  O13  1  0.17860600  0.85948100  0.00669000  1
  O  O14  1  0.15953400  0.06621700  0.84642500  1
  O  O15  1  0.84965000  0.94061600  0.14997000  1
  O  O16  1  0.21408100  0.14579500  0.62885400  1
  O  O17  1  0.80167500  0.86729200  0.36766500  1
  O  O18  1  0.58318700  0.06760600  0.78027400  1
  O  O19  1  0.42157000  0.92901900  0.21769600  1
  O  O20  1  0.73091000  0.35539200  0.92482800  1
  O  O21  1  0.27108400  0.64364200  0.07052100  1
  O  O22  1  0.54168400  0.85025400  0.93302500  1
  O  O23  1  0.46312900  0.14533200  0.06751300  1
  O  O24  1  0.85215300  0.80298900  0.83524400  1
  O  O25  1  0.14882700  0.19239300  0.16062300  1
  O  O26  1  0.58125000  0.57266500  0.83400400  1
  O  O27  1  0.41197200  0.41831000  0.14746300  1
loop_
_geom_bond_atom_site_label_1
_geom_bond_atom_site_label_2
_geom_bond_distance
_geom_bond_site_symmetry_2
K0 O20 2.779360 1_555
K0 O24 2.810799 1_555
K0 O13 2.861594 1_656
K0 O10 2.866243 1_655
K0 O6 2.958192 1_655
K0 O21 2.958306 1_656
K0 O26 3.104893 1_555
K0 O8 3.110033 1_655
K0 O2 3.147191 1_555
K1 O21 2.832710 1_555
K1 O25 2.867829 1_555
K1 O12 2.915389 1_454
K1 O7 2.928188 1_455
K1 O20 3.052638 1_454
K1 O27 3.101605 1_555
K1 O11 3.127428 1_455
K1 O9 3.139214 1_455
K1 O3 3.146295 1_555
K2 O10 2.684765 1_655
K2 O17 2.695717 1_555
K2 O24 2.744930 1_555
K2 O7 2.762668 1_555
K2 O0 2.973106 1_555
K2 O14 3.131831 1_665
K2 O16 3.202059 1_665
K2 O4 3.380400 1_655
K3 O11 2.618168 1_455
K3 O16 2.670915 1_555
K3 O25 2.697005 1_555
K3 O6 2.891224 1_555
K3 O1 2.935262 1_555
K3 O17 3.012255 1_445
K3 O15 3.026492 1_445
K4 O19 2.735948 1_555
K4 O18 2.785856 1_565
K4 O5 2.847109 1_565
K4 O17 2.854553 1_555
K4 O16 2.888343 1_565
K4 O4 2.895358 1_555
Na0 O4 2.212727 1_555
Na0 O27 2.240784 1_555
Na0 O7 2.285857 1_555
Na0 O17 2.383677 1_555
Na0 O9 2.404891 1_555
Ni0 O15 2.042988 1_456
Ni0 O25 2.065388 1_566
Ni0 O13 2.082300 1_556
Ni0 O12 2.082797 1_465
Ni0 O24 2.090900 1_455
Ni0 O14 2.096761 1_565
Ni1 O23 2.017140 1_555
Ni1 O15 2.030395 1_545
Ni1 O19 2.061579 1_545
Ni1 O11 2.061604 1_555
Ni1 O22 2.174017 1_544
Ni1 O12 2.222153 1_554
Ni2 O22 2.028817 1_555
Ni2 O10 2.047337 1_555
Ni2 O14 2.069478 1_565
Ni2 O18 2.108394 1_565
Ni2 O23 2.126113 1_566
Ni2 O13 2.147838 1_556
Ni3 O27 1.971860 1_555
Ni3 O26 2.042008 1_554
Ni3 O9 2.065954 1_555
Ni3 O8 2.122563 1_554
Ni3 O21 2.344537 1_555
Ni3 O20 2.397677 1_554
Ni4 O5 1.992031 1_555
Ni4 O6 2.006099 1_555
Ni4 O26 2.044918 1_555
Ni4 O8 2.118912 1_555
Ni4 O16 2.231523 1_555
O0 P6 1.623781 1_555
O0 P4 1.664159 1_555
O1 P7 1.628926 1_555
O1 P5 1.653535 1_555
O2 P2 1.619120 1_655
O2 P0 1.700259 1_555
O3 P3 1.640995 1_455
O3 P1 1.663224 1_555
O4 P4 1.508634 1_555
O5 P5 1.546483 1_555
O6 P4 1.550841 1_555
O7 P5 1.515919 1_555
O8 P2 1.548721 1_555
O9 P3 1.526025 1_555
O10 P4 1.530409 1_555
O11 P5 1.533690 1_555
O12 P0 1.551396 1_555
O13 P1 1.556869 1_555
O14 P2 1.534048 1_555
O15 P3 1.547106 1_555
O16 P2 1.539665 1_555
O17 P3 1.522463 1_555
O18 P0 1.530452 1_555
O19 P1 1.529890 1_555
O20 P0 1.518828 1_555
O21 P1 1.523727 1_555
O22 P6 1.530299 1_555
O23 P7 1.539553 1_555
O24 P6 1.513575 1_555
O25 P7 1.519561 1_555
O26 P6 1.556212 1_555
O27 P7 1.521752 1_555
