# generated using pymatgen
data_SrYPb2
_symmetry_space_group_name_H-M   'P 1'
_cell_length_a   13.49802547
_cell_length_b   13.49802547
_cell_length_c   13.49802547
_cell_angle_alpha   126.10770085
_cell_angle_beta   118.06017847
_cell_angle_gamma   86.57719879
_symmetry_Int_Tables_number   1
_chemical_formula_structural   SrYPb2
_chemical_formula_sum   'Sr1 Y1 Pb2'
_cell_volume   1669.75288713
_cell_formula_units_Z   1
loop_
 _symmetry_equiv_pos_site_id
 _symmetry_equiv_pos_as_xyz
  1  'x, y, z'
loop_
 _atom_site_type_symbol
 _atom_site_label
 _atom_site_symmetry_multiplicity
 _atom_site_fract_x
 _atom_site_fract_y
 _atom_site_fract_z
 _atom_site_occupancy
  Sr  Sr0  1  0.00000000  0.00000000  0.00000000  1
  Y  Y0  1  0.00000000  0.50000000  0.50000000  1
  Pb  Pb0  1  0.00000000  0.26160000  0.26160000  1
  Pb  Pb1  1  0.00000000  0.73840000  0.73840000  1
loop_
_geom_bond_atom_site_label_1
_geom_bond_atom_site_label_2
_geom_bond_distance
_geom_bond_site_symmetry_2
Pb0 Y0 2.916428 1_555
Pb0 Sr0 3.200241 1_555
Pb1 Y0 2.916428 1_555
Pb1 Sr0 3.200241 1_566
