# generated using pymatgen
data_C61O2
_symmetry_space_group_name_H-M   'P 1'
_cell_length_a   9.93822200
_cell_length_b   9.92428100
_cell_length_c   17.84389631
_cell_angle_alpha   56.54448333
_cell_angle_beta   90.00000000
_cell_angle_gamma   90.00000000
_symmetry_Int_Tables_number   1
_chemical_formula_structural   C61O2
_chemical_formula_sum   'C122 O4'
_cell_volume   1468.34129225
_cell_formula_units_Z   2
loop_
 _symmetry_equiv_pos_site_id
 _symmetry_equiv_pos_as_xyz
  1  'x, y, z'
loop_
 _atom_site_type_symbol
 _atom_site_label
 _atom_site_symmetry_multiplicity
 _atom_site_fract_x
 _atom_site_fract_y
 _atom_site_fract_z
 _atom_site_occupancy
  C  C0  1  0.15541500  0.05799700  0.52754000  1
  C  C1  1  0.34458500  0.05799700  0.02754000  1
  C  C2  1  0.84458500  0.94200300  0.47246000  1
  C  C3  1  0.65541500  0.94200300  0.97246000  1
  C  C4  1  0.15503600  0.08643300  0.44152800  1
  C  C5  1  0.34496400  0.08643300  0.94152800  1
  C  C6  1  0.84496400  0.91356700  0.55847200  1
  C  C7  1  0.65503600  0.91356700  0.05847200  1
  C  C8  1  0.22042500  0.17185000  0.54281500  1
  C  C9  1  0.27957500  0.17185000  0.04281500  1
  C  C10  1  0.77957500  0.82815000  0.45718500  1
  C  C11  1  0.72042500  0.82815000  0.95718500  1
  C  C12  1  0.17863300  0.95403700  0.43034600  1
  C  C13  1  0.32136700  0.95403700  0.93034600  1
  C  C14  1  0.82136700  0.04596300  0.56965400  1
  C  C15  1  0.67863300  0.04596300  0.06965400  1
  C  C16  1  0.17943200  0.89605500  0.60570100  1
  C  C17  1  0.32056800  0.89605500  0.10570100  1
  C  C18  1  0.82056800  0.10394500  0.39429900  1
  C  C19  1  0.67943200  0.10394500  0.89429900  1
  C  C20  1  0.28234000  0.33941700  0.38196100  1
  C  C21  1  0.21766000  0.33941700  0.88196100  1
  C  C22  1  0.71766000  0.66058300  0.61803900  1
  C  C23  1  0.78234000  0.66058300  0.11803900  1
  C  C24  1  0.21942800  0.22974800  0.36735100  1
  C  C25  1  0.28057200  0.22974800  0.86735100  1
  C  C26  1  0.78057200  0.77025200  0.63264900  1
  C  C27  1  0.71942800  0.77025200  0.13264900  1
  C  C28  1  0.28294100  0.30978900  0.47129900  1
  C  C29  1  0.21705900  0.30978900  0.97129900  1
  C  C30  1  0.71705900  0.69021100  0.52870100  1
  C  C31  1  0.78294100  0.69021100  0.02870100  1
  C  C32  1  0.20159800  0.79801800  0.50557700  1
  C  C33  1  0.29840200  0.79801800  0.00557700  1
  C  C34  1  0.79840200  0.20198200  0.49442300  1
  C  C35  1  0.70159800  0.20198200  0.99442300  1
  C  C36  1  0.20218100  0.76857300  0.59487400  1
  C  C37  1  0.29781900  0.76857300  0.09487400  1
  C  C38  1  0.79781900  0.23142700  0.40512600  1
  C  C39  1  0.70218100  0.23142700  0.90512600  1
  C  C40  1  0.51356400  0.01134600  0.69554600  1
  C  C41  1  0.98643600  0.01134600  0.19554600  1
  C  C42  1  0.48643600  0.98865400  0.30445400  1
  C  C43  1  0.01356400  0.98865400  0.80445400  1
  C  C44  1  0.48915500  0.84721800  0.73302900  1
  C  C45  1  0.01084500  0.84721800  0.23302900  1
  C  C46  1  0.51084500  0.15278200  0.26697100  1
  C  C47  1  0.98915500  0.15278200  0.76697100  1
  C  C48  1  0.40961200  0.13005300  0.64328700  1
  C  C49  1  0.09038800  0.13005300  0.14328700  1
  C  C50  1  0.59038800  0.86994700  0.35671300  1
  C  C51  1  0.90961200  0.86994700  0.85671300  1
  C  C52  1  0.59271600  0.74682200  0.72993200  1
  C  C53  1  0.90728400  0.74682200  0.22993200  1
  C  C54  1  0.40728400  0.25317800  0.27006800  1
  C  C55  1  0.09271600  0.25317800  0.77006800  1
  C  C56  1  0.64253500  0.08135100  0.65344700  1
  C  C57  1  0.85746500  0.08135100  0.15344700  1
  C  C58  1  0.35746500  0.91864900  0.34655300  1
  C  C59  1  0.14253500  0.91864900  0.84655300  1
  C  C60  1  0.25955500  0.90972200  0.66932100  1
  C  C61  1  0.24044500  0.90972200  0.16932100  1
  C  C62  1  0.74044500  0.09027800  0.33067900  1
  C  C63  1  0.75955500  0.09027800  0.83067900  1
  C  C64  1  0.35968500  0.79529600  0.71978200  1
  C  C65  1  0.14031500  0.79529600  0.21978200  1
  C  C66  1  0.64031500  0.20470400  0.28021800  1
  C  C67  1  0.85968500  0.20470400  0.78021800  1
  C  C68  1  0.28496700  0.08020900  0.63037400  1
  C  C69  1  0.21503300  0.08020900  0.13037400  1
  C  C70  1  0.71503300  0.91979100  0.36962600  1
  C  C71  1  0.78496700  0.91979100  0.86962600  1
  C  C72  1  0.71692000  0.81402300  0.68969800  1
  C  C73  1  0.78308000  0.81402300  0.18969800  1
  C  C74  1  0.28308000  0.18597700  0.31030200  1
  C  C75  1  0.21692000  0.18597700  0.81030200  1
  C  C76  1  0.74216800  0.98460700  0.65063700  1
  C  C77  1  0.75783200  0.98460700  0.15063700  1
  C  C78  1  0.25783200  0.01539300  0.34936300  1
  C  C79  1  0.24216800  0.01539300  0.84936300  1
  C  C80  1  0.49175500  0.42270100  0.40368100  1
  C  C81  1  0.00824500  0.42270100  0.90368100  1
  C  C82  1  0.50824500  0.57729900  0.59631900  1
  C  C83  1  0.99175500  0.57729900  0.09631900  1
  C  C84  1  0.63046600  0.39393400  0.40977500  1
  C  C85  1  0.86953400  0.39393400  0.90977500  1
  C  C86  1  0.36953400  0.60606600  0.59022500  1
  C  C87  1  0.13046600  0.60606600  0.09022500  1
  C  C88  1  0.41234400  0.36115400  0.48472900  1
  C  C89  1  0.08765600  0.36115400  0.98472900  1
  C  C90  1  0.58765600  0.63884600  0.51527100  1
  C  C91  1  0.91234400  0.63884600  0.01527100  1
  C  C92  1  0.69398300  0.34996400  0.35287400  1
  C  C93  1  0.80601700  0.34996400  0.85287400  1
  C  C94  1  0.30601700  0.65003600  0.64712600  1
  C  C95  1  0.19398300  0.65003600  0.14712600  1
  C  C96  1  0.41146500  0.40912700  0.34019500  1
  C  C97  1  0.08853500  0.40912700  0.84019500  1
  C  C98  1  0.58853500  0.59087300  0.65980500  1
  C  C99  1  0.91146500  0.59087300  0.15980500  1
  C  C100  1  0.61838900  0.24302200  0.57535900  1
  C  C101  1  0.88161100  0.24302200  0.07535900  1
  C  C102  1  0.38161100  0.75697800  0.42464100  1
  C  C103  1  0.11838900  0.75697800  0.92464100  1
  C  C104  1  0.69499800  0.30250600  0.49732200  1
  C  C105  1  0.80500200  0.30250600  0.99732200  1
  C  C106  1  0.30500200  0.69749400  0.50267800  1
  C  C107  1  0.19499800  0.69749400  0.00267800  1
  C  C108  1  0.47441700  0.27304600  0.56901400  1
  C  C109  1  0.02558300  0.27304600  0.06901400  1
  C  C110  1  0.52558300  0.72695400  0.43098600  1
  C  C111  1  0.97441700  0.72695400  0.93098600  1
  C  C112  1  0.61666100  0.33695300  0.29156100  1
  C  C113  1  0.88333900  0.33695300  0.79156100  1
  C  C114  1  0.38333900  0.66304700  0.70843900  1
  C  C115  1  0.11666100  0.66304700  0.20843900  1
  C  C116  1  0.47274800  0.36701200  0.28521100  1
  C  C117  1  0.02725200  0.36701200  0.78521100  1
  C  C118  1  0.52725200  0.63298800  0.71478900  1
  C  C119  1  0.97274800  0.63298800  0.21478900  1
  C  C120  1  0.50000000  0.50000000  0.00000000  1
  C  C121  1  0.00000000  0.50000000  0.50000000  1
  O  O0  1  0.50853800  0.46742800  0.07383800  1
  O  O1  1  0.99146200  0.46742800  0.57383800  1
  O  O2  1  0.49146200  0.53257200  0.92616200  1
  O  O3  1  0.00853800  0.53257200  0.42616200  1
loop_
_geom_bond_atom_site_label_1
_geom_bond_atom_site_label_2
_geom_bond_distance
_geom_bond_site_symmetry_2
C0 C4 1.399169 1_555
C0 C8 1.451887 1_555
C0 C16 1.453850 1_545
C1 C5 1.399169 1_554
C1 C9 1.451887 1_555
C1 C17 1.453850 1_545
C2 C6 1.399169 1_555
C3 C7 1.399169 1_556
C10 C30 1.400847 1_555
C10 C2 1.451887 1_555
C10 C70 1.453594 1_555
C11 C31 1.400847 1_556
C11 C3 1.451887 1_555
C11 C71 1.453594 1_555
C12 C32 1.399949 1_555
C12 C78 1.451999 1_565
C12 C4 1.452686 1_565
C13 C33 1.399949 1_556
C13 C79 1.451999 1_565
C13 C5 1.452686 1_565
C14 C34 1.399949 1_555
C14 C76 1.451999 1_545
C14 C6 1.452686 1_545
C15 C35 1.399949 1_554
C15 C77 1.451999 1_545
C15 C7 1.452686 1_545
C16 C36 1.399494 1_555
C16 C60 1.452919 1_555
C17 C37 1.399494 1_555
C17 C61 1.452919 1_555
C18 C38 1.399494 1_555
C18 C62 1.452919 1_555
C18 C2 1.453850 1_545
C19 C39 1.399494 1_555
C19 C63 1.452919 1_555
C19 C3 1.453850 1_545
C20 C24 1.398682 1_555
C20 C28 1.452912 1_555
C20 C96 1.453392 1_555
C21 C25 1.398682 1_555
C21 C29 1.452912 1_555
C21 C97 1.453392 1_555
C22 C26 1.398682 1_555
C22 C30 1.452912 1_555
C22 C98 1.453392 1_555
C23 C27 1.398682 1_555
C23 C31 1.452912 1_555
C23 C99 1.453392 1_555
C24 C4 1.452143 1_555
C24 C74 1.453516 1_555
C25 C5 1.452143 1_555
C25 C75 1.453516 1_555
C26 C6 1.452143 1_555
C26 C72 1.453516 1_555
C27 C7 1.452143 1_555
C27 C73 1.453516 1_555
C28 C8 1.400847 1_555
C28 C88 1.451160 1_555
C29 C9 1.400847 1_556
C29 C89 1.451160 1_555
C30 C90 1.451160 1_555
C31 C91 1.451160 1_555
C32 C36 1.452922 1_555
C33 C37 1.452922 1_555
C34 C38 1.452922 1_555
C35 C39 1.452922 1_555
C36 C94 1.452166 1_555
C37 C95 1.452166 1_555
C38 C92 1.452166 1_555
C39 C93 1.452166 1_555
C40 C44 1.399341 1_545
C40 C48 1.453780 1_555
C40 C56 1.454104 1_555
C41 C45 1.399341 1_645
C41 C49 1.453780 1_655
C41 C57 1.454104 1_555
C42 C46 1.399341 1_565
C42 C50 1.453780 1_555
C42 C58 1.454104 1_555
C43 C47 1.399341 1_465
C43 C51 1.453780 1_455
C43 C59 1.454104 1_555
C44 C64 1.453030 1_555
C44 C52 1.454569 1_555
C45 C65 1.453030 1_555
C45 C53 1.454569 1_455
C46 C66 1.453030 1_555
C46 C54 1.454569 1_555
C47 C67 1.453030 1_555
C47 C55 1.454569 1_655
C48 C68 1.399271 1_555
C49 C69 1.399271 1_555
C50 C70 1.399271 1_555
C51 C71 1.399271 1_555
C52 C72 1.398554 1_555
C53 C73 1.398554 1_555
C54 C74 1.398554 1_555
C55 C75 1.398554 1_555
C56 C76 1.399236 1_545
C57 C77 1.399236 1_545
C58 C78 1.399236 1_565
C59 C79 1.399236 1_565
C60 C64 1.401137 1_555
C60 C68 1.453622 1_565
C61 C65 1.401137 1_555
C61 C69 1.453622 1_565
C62 C66 1.401137 1_555
C62 C70 1.453622 1_545
C63 C67 1.401137 1_555
C63 C71 1.453622 1_545
C68 C8 1.453594 1_555
C69 C9 1.453594 1_555
C72 C76 1.453875 1_555
C73 C77 1.453875 1_555
C74 C78 1.453875 1_555
C75 C79 1.453875 1_555
C80 C84 1.399813 1_555
C80 C96 1.451357 1_555
C80 C88 1.453784 1_555
C81 C85 1.399813 1_455
C81 C97 1.451357 1_555
C81 C89 1.453784 1_555
C82 C86 1.399813 1_555
C82 C98 1.451357 1_555
C82 C90 1.453784 1_555
C83 C87 1.399813 1_655
C83 C99 1.451357 1_555
C83 C91 1.453784 1_555
C84 C92 1.452002 1_555
C85 C93 1.452002 1_555
C86 C94 1.452002 1_555
C87 C95 1.452002 1_555
C100 C104 1.400292 1_555
C100 C56 1.452055 1_555
C100 C108 1.453158 1_555
C101 C105 1.400292 1_554
C101 C57 1.452055 1_555
C101 C109 1.453158 1_655
C102 C106 1.400292 1_555
C102 C58 1.452055 1_555
C102 C110 1.453158 1_555
C103 C107 1.400292 1_556
C103 C59 1.452055 1_555
C103 C111 1.453158 1_455
C104 C34 1.452896 1_555
C104 C84 1.453325 1_555
C105 C35 1.452896 1_555
C105 C85 1.453325 1_555
C106 C32 1.452896 1_555
C106 C86 1.453325 1_555
C107 C33 1.452896 1_555
C107 C87 1.453325 1_555
C108 C88 1.398963 1_555
C108 C48 1.453076 1_555
C109 C89 1.398963 1_554
C109 C49 1.453076 1_555
C110 C90 1.398963 1_555
C110 C50 1.453076 1_555
C111 C91 1.398963 1_556
C111 C51 1.453076 1_555
C112 C92 1.399969 1_555
C112 C116 1.452634 1_555
C112 C66 1.453177 1_555
C113 C93 1.399969 1_555
C113 C117 1.452634 1_655
C113 C67 1.453177 1_555
C114 C94 1.399969 1_555
C114 C118 1.452634 1_555
C114 C64 1.453177 1_555
C115 C95 1.399969 1_555
C115 C119 1.452634 1_455
C115 C65 1.453177 1_555
C116 C96 1.400135 1_555
C116 C54 1.452285 1_555
C117 C97 1.400135 1_555
C117 C55 1.452285 1_555
C118 C98 1.400135 1_555
C118 C52 1.452285 1_555
C119 C99 1.400135 1_555
C119 C53 1.452285 1_555
C120 O0 1.173907 1_555
C120 O2 1.173907 1_554
C121 O1 1.173907 1_455
C121 O3 1.173907 1_555
