# generated using pymatgen
data_YbTaTiO6
_symmetry_space_group_name_H-M   'P 1'
_cell_length_a   14.53824400
_cell_length_b   5.13825912
_cell_length_c   5.51796204
_cell_angle_alpha   90.17466658
_cell_angle_beta   90.00000000
_cell_angle_gamma   90.00000000
_symmetry_Int_Tables_number   1
_chemical_formula_structural   YbTaTiO6
_chemical_formula_sum   'Yb4 Ta4 Ti4 O24'
_cell_volume   412.19682781
_cell_formula_units_Z   4
loop_
 _symmetry_equiv_pos_site_id
 _symmetry_equiv_pos_as_xyz
  1  'x, y, z'
loop_
 _atom_site_type_symbol
 _atom_site_label
 _atom_site_symmetry_multiplicity
 _atom_site_fract_x
 _atom_site_fract_y
 _atom_site_fract_z
 _atom_site_occupancy
  Yb  Yb0  1  0.99951797  0.74469758  0.22785514  1
  Yb  Yb1  1  0.49951797  0.25530242  0.27214486  1
  Yb  Yb2  1  0.00048203  0.25530242  0.77214486  1
  Yb  Yb3  1  0.50048203  0.74469758  0.72785514  1
  Ta  Ta0  1  0.66737888  0.81820907  0.17817384  1
  Ta  Ta1  1  0.16737888  0.18179093  0.32182616  1
  Ta  Ta2  1  0.33262112  0.18179093  0.82182616  1
  Ta  Ta3  1  0.83262112  0.81820907  0.67817384  1
  Ti  Ti0  1  0.83583155  0.31304690  0.31076093  1
  Ti  Ti1  1  0.33583155  0.68695310  0.18923907  1
  Ti  Ti2  1  0.16416845  0.68695310  0.68923907  1
  Ti  Ti3  1  0.66416845  0.31304690  0.81076093  1
  O  O0  1  0.09166521  0.97402725  0.57262530  1
  O  O1  1  0.40899862  0.47412189  0.93712947  1
  O  O2  1  0.59166521  0.02597275  0.92737470  1
  O  O3  1  0.90899862  0.52587811  0.56287053  1
  O  O4  1  0.90833479  0.02597275  0.42737470  1
  O  O5  1  0.59100138  0.52587811  0.06287053  1
  O  O6  1  0.40833479  0.97402725  0.07262530  1
  O  O7  1  0.09100138  0.47412189  0.43712947  1
  O  O8  1  0.91488921  0.42158027  0.08632071  1
  O  O9  1  0.58303152  0.92141500  0.41048879  1
  O  O10  1  0.41488921  0.57841973  0.41367929  1
  O  O11  1  0.08303152  0.07858500  0.08951121  1
  O  O12  1  0.08511079  0.57841973  0.91367929  1
  O  O13  1  0.41696848  0.07858500  0.58951121  1
  O  O14  1  0.58511079  0.42158027  0.58632071  1
  O  O15  1  0.91696848  0.92141500  0.91048879  1
  O  O16  1  0.74136479  0.14207311  0.13113093  1
  O  O17  1  0.76072811  0.64480918  0.36696556  1
  O  O18  1  0.24136479  0.85792689  0.36886907  1
  O  O19  1  0.26072811  0.35519082  0.13303444  1
  O  O20  1  0.25863521  0.85792689  0.86886907  1
  O  O21  1  0.23927189  0.35519082  0.63303444  1
  O  O22  1  0.75863521  0.14207311  0.63113093  1
  O  O23  1  0.73927189  0.64480918  0.86696556  1
loop_
_geom_bond_atom_site_label_1
_geom_bond_atom_site_label_2
_geom_bond_distance
_geom_bond_site_symmetry_2
O0 Ti2 1.925282 1_555
O0 Ta1 2.067722 1_565
O0 Yb2 2.246885 1_565
O0 Yb0 2.605528 1_455
O1 Ta2 1.971845 1_555
O1 Ti1 2.062376 1_556
O1 Yb3 2.246130 1_555
O1 Yb1 2.534956 1_556
O2 Ti3 1.925282 1_555
O2 Ta0 2.067722 1_546
O2 Yb3 2.246885 1_545
O2 Yb1 2.605528 1_556
O3 Ta3 1.971845 1_555
O3 Ti0 2.062376 1_555
O3 Yb2 2.246130 1_655
O3 Yb0 2.534956 1_555
O4 Ti0 1.925282 1_555
O4 Ta3 2.067722 1_545
O4 Yb0 2.246885 1_545
O4 Yb2 2.605528 1_655
O5 Ta0 1.971845 1_555
O5 Ti3 2.062376 1_554
O5 Yb1 2.246130 1_555
O5 Yb3 2.534956 1_554
O6 Ti1 1.925282 1_555
O6 Ta2 2.067722 1_564
O6 Yb1 2.246885 1_565
O6 Yb3 2.605528 1_554
O7 Ta1 1.971845 1_555
O7 Ti2 2.062376 1_555
O7 Yb0 2.246130 1_455
O7 Yb2 2.534956 1_555
O8 Ti0 1.780450 1_555
O8 Yb0 2.207320 1_555
O8 Yb2 2.296692 1_654
O9 Ta0 1.850425 1_555
O9 Yb1 2.237889 1_565
O9 Yb3 2.311114 1_555
O10 Ti1 1.780450 1_555
O10 Yb1 2.207320 1_555
O10 Yb3 2.296692 1_555
O11 Ta1 1.850425 1_555
O11 Yb0 2.237889 1_445
O11 Yb2 2.311114 1_554
O12 Ti2 1.780450 1_555
O12 Yb2 2.207320 1_555
O12 Yb0 2.296692 1_456
O13 Ta2 1.850425 1_555
O13 Yb3 2.237889 1_545
O13 Yb1 2.311114 1_555
O14 Ti3 1.780450 1_555
O14 Yb3 2.207320 1_555
O14 Yb1 2.296692 1_555
O15 Ta3 1.850425 1_555
O15 Yb2 2.237889 1_665
O15 Yb0 2.311114 1_556
O16 Ti0 1.906594 1_555
O16 Ta0 1.999051 1_545
O16 Ti3 2.272857 1_554
O17 Ta0 1.930425 1_555
O17 Ti0 2.047213 1_555
O17 Ta3 2.196780 1_555
O18 Ti1 1.906594 1_555
O18 Ta1 1.999051 1_565
O18 Ti2 2.272857 1_555
O19 Ta1 1.930425 1_555
O19 Ti1 2.047213 1_555
O19 Ta2 2.196780 1_554
O20 Ti2 1.906594 1_555
O20 Ta2 1.999051 1_565
O20 Ti1 2.272857 1_556
O21 Ta2 1.930425 1_555
O21 Ti2 2.047213 1_555
O21 Ta1 2.196780 1_555
O22 Ti3 1.906594 1_555
O22 Ta3 1.999051 1_545
O22 Ti0 2.272857 1_555
O23 Ta3 1.930425 1_555
O23 Ti3 2.047213 1_555
O23 Ta0 2.196780 1_556
