# generated using pymatgen
data_Mg6ZnW
_symmetry_space_group_name_H-M   'P 1'
_cell_length_a   4.84111800
_cell_length_b   6.12107600
_cell_length_c   10.56080500
_cell_angle_alpha   90.00000000
_cell_angle_beta   90.00000000
_cell_angle_gamma   90.00000000
_symmetry_Int_Tables_number   1
_chemical_formula_structural   Mg6ZnW
_chemical_formula_sum   'Mg12 Zn2 W2'
_cell_volume   312.94676315
_cell_formula_units_Z   2
loop_
 _symmetry_equiv_pos_site_id
 _symmetry_equiv_pos_as_xyz
  1  'x, y, z'
loop_
 _atom_site_type_symbol
 _atom_site_label
 _atom_site_symmetry_multiplicity
 _atom_site_fract_x
 _atom_site_fract_y
 _atom_site_fract_z
 _atom_site_occupancy
  Mg  Mg0  1  0.00000000  0.76359500  0.59056200  1
  Mg  Mg1  1  0.00000000  0.23640500  0.59056200  1
  Mg  Mg2  1  0.00000000  0.00000000  0.33437200  1
  Mg  Mg3  1  0.50000000  0.74367400  0.41655300  1
  Mg  Mg4  1  0.50000000  0.25632600  0.41655300  1
  Mg  Mg5  1  0.50000000  0.00000000  0.16629900  1
  Mg  Mg6  1  0.00000000  0.26359500  0.09056200  1
  Mg  Mg7  1  0.00000000  0.73640500  0.09056200  1
  Mg  Mg8  1  0.00000000  0.50000000  0.83437200  1
  Mg  Mg9  1  0.50000000  0.24367400  0.91655300  1
  Mg  Mg10  1  0.50000000  0.75632600  0.91655300  1
  Mg  Mg11  1  0.50000000  0.50000000  0.66629900  1
  Zn  Zn0  1  0.00000000  0.00000000  0.81515500  1
  Zn  Zn1  1  0.00000000  0.50000000  0.31515500  1
  W  W0  1  0.50000000  0.00000000  0.66994300  1
  W  W1  1  0.50000000  0.50000000  0.16994300  1
loop_
_geom_bond_atom_site_label_1
_geom_bond_atom_site_label_2
_geom_bond_distance
_geom_bond_site_symmetry_2
Mg0 Zn0 2.778451 1_565
Mg0 W0 2.942084 1_465
Mg0 W0 2.942084 1_565
Mg0 Mg8 3.038599 1_555
Mg0 Mg3 3.041550 1_555
Mg0 Mg3 3.041550 1_455
Mg0 Mg2 3.068238 1_565
Mg1 Zn0 2.778451 1_555
Mg1 W0 2.942084 1_455
Mg1 W0 2.942084 1_555
Mg1 Mg8 3.038599 1_555
Mg1 Mg4 3.041550 1_455
Mg1 Mg4 3.041550 1_555
Mg1 Mg2 3.068238 1_555
Mg2 Mg5 3.001613 1_455
Mg2 Mg5 3.001613 1_555
Mg2 Mg3 3.012322 1_545
Mg2 Mg4 3.012322 1_455
Mg2 Mg3 3.012322 1_445
Mg2 Mg4 3.012322 1_555
Mg2 Mg6 3.038599 1_555
Mg2 Mg7 3.038599 1_545
Mg2 Zn1 3.067259 1_545
Mg2 Zn1 3.067259 1_555
Mg3 Mg4 2.983094 1_555
Mg3 W1 3.001269 1_555
Mg3 Zn1 3.038178 1_555
Mg3 Zn1 3.038178 1_655
Mg3 Mg5 3.073527 1_565
Mg3 W0 3.102051 1_565
Mg3 Mg4 3.137982 1_565
Mg4 W1 3.001269 1_555
Mg4 Zn1 3.038178 1_555
Mg4 Zn1 3.038178 1_655
Mg4 Mg5 3.073527 1_555
Mg4 W0 3.102051 1_555
Mg5 Mg9 3.030052 1_554
Mg5 W1 3.060780 1_545
Mg5 W1 3.060780 1_555
Mg6 Zn1 2.778451 1_555
Mg6 W1 2.942084 1_555
Mg6 W1 2.942084 1_455
Mg6 Mg9 3.041550 1_454
Mg6 Mg9 3.041550 1_554
Mg6 Mg8 3.068238 1_554
Mg7 Zn1 2.778451 1_555
Mg7 W1 2.942084 1_555
Mg7 W1 2.942084 1_455
Mg7 Mg8 3.068238 1_554
Mg8 Mg9 3.012322 1_555
Mg8 Mg9 3.012322 1_455
Mg8 Zn0 3.067259 1_555
Mg8 Zn0 3.067259 1_565
Mg9 W0 3.001269 1_555
Mg9 Zn0 3.038178 1_655
Mg9 Zn0 3.038178 1_555
Mg9 W1 3.102051 1_556
Mg10 Mg9 2.983094 1_565
Mg10 W0 3.001269 1_565
Mg10 Mg8 3.012322 1_655
Mg10 Mg8 3.012322 1_555
Mg10 Mg5 3.030052 1_566
Mg10 Zn0 3.038178 1_665
Mg10 Zn0 3.038178 1_565
Mg10 Mg7 3.041550 1_556
Mg10 Mg7 3.041550 1_656
Mg10 Mg11 3.073527 1_555
Mg10 W1 3.102051 1_556
Mg10 Mg9 3.137982 1_555
Mg11 Mg8 3.001613 1_555
Mg11 Mg8 3.001613 1_655
Mg11 Mg3 3.030052 1_555
Mg11 Mg4 3.030052 1_555
Mg11 W0 3.060780 1_555
Mg11 W0 3.060780 1_565
Mg11 Mg9 3.073527 1_555
W0 Zn0 2.865467 1_655
W0 Zn0 2.865467 1_555
W1 Zn1 2.865467 1_655
W1 Zn1 2.865467 1_555
