# generated using pymatgen
data_ScCoSi
_symmetry_space_group_name_H-M   'P 1'
_cell_length_a   7.52623411
_cell_length_b   7.52623411
_cell_length_c   3.56796600
_cell_angle_alpha   90.00000000
_cell_angle_beta   90.00000000
_cell_angle_gamma   152.17469148
_symmetry_Int_Tables_number   1
_chemical_formula_structural   ScCoSi
_chemical_formula_sum   'Sc2 Co2 Si2'
_cell_volume   94.33783572
_cell_formula_units_Z   2
loop_
 _symmetry_equiv_pos_site_id
 _symmetry_equiv_pos_as_xyz
  1  'x, y, z'
loop_
 _atom_site_type_symbol
 _atom_site_label
 _atom_site_symmetry_multiplicity
 _atom_site_fract_x
 _atom_site_fract_y
 _atom_site_fract_z
 _atom_site_occupancy
  Sc  Sc0  1  0.59535800  0.40464200  0.25000000  1
  Sc  Sc1  1  0.40464200  0.59535800  0.75000000  1
  Co  Co0  1  0.94984600  0.05015400  0.25000000  1
  Co  Co1  1  0.05015400  0.94984600  0.75000000  1
  Si  Si0  1  0.24581400  0.75418600  0.25000000  1
  Si  Si1  1  0.75418600  0.24581400  0.75000000  1
loop_
_geom_bond_atom_site_label_1
_geom_bond_atom_site_label_2
_geom_bond_distance
_geom_bond_site_symmetry_2
Sc0 Si0 2.847322 1_545
Sc0 Si0 2.847322 1_655
Sc0 Si1 2.927090 1_555
Sc0 Si1 2.927090 1_554
Sc1 Si1 2.847322 1_455
Sc1 Si1 2.847322 1_565
Sc1 Si0 2.927090 1_556
Sc1 Si0 2.927090 1_555
Co0 Co1 2.308797 1_645
Co0 Co1 2.308797 1_644
Co0 Sc1 2.625559 1_654
Co0 Sc1 2.625559 1_655
Co0 Sc1 2.625559 1_545
Co0 Sc1 2.625559 1_544
Co0 Sc0 2.791930 1_545
Co0 Sc0 2.791930 1_655
Co1 Sc0 2.625559 1_455
Co1 Sc0 2.625559 1_456
Co1 Sc0 2.625559 1_565
Co1 Sc0 2.625559 1_566
Co1 Sc1 2.791930 1_565
Co1 Sc1 2.791930 1_455
Si0 Si1 2.544072 1_455
Si0 Si1 2.544072 1_565
Si0 Si1 2.544072 1_454
Si0 Si1 2.544072 1_564
