# generated using pymatgen
data_Ba6CaNb2Ir(ClO6)2
_symmetry_space_group_name_H-M   'P 1'
_cell_length_a   6.10571242
_cell_length_b   6.10584045
_cell_length_c   15.91910452
_cell_angle_alpha   80.48801758
_cell_angle_beta   99.51395963
_cell_angle_gamma   120.30471414
_symmetry_Int_Tables_number   1
_chemical_formula_structural   Ba6CaNb2Ir(ClO6)2
_chemical_formula_sum   'Ba6 Ca1 Nb2 Ir1 Cl2 O12'
_cell_volume   502.98899997
_cell_formula_units_Z   1
loop_
 _symmetry_equiv_pos_site_id
 _symmetry_equiv_pos_as_xyz
  1  'x, y, z'
loop_
 _atom_site_type_symbol
 _atom_site_label
 _atom_site_symmetry_multiplicity
 _atom_site_fract_x
 _atom_site_fract_y
 _atom_site_fract_z
 _atom_site_occupancy
  Ba  Ba0  1  0.12578488  0.87424461  0.38725634  1
  Ba  Ba1  1  0.30721843  0.69276396  0.79368446  1
  Ba  Ba2  1  0.60433600  0.39564967  0.64507870  1
  Ba  Ba3  1  0.67520856  0.32480907  0.92052812  1
  Ba  Ba4  1  0.37799969  0.62201583  0.04847148  1
  Ba  Ba5  1  0.74462677  0.25542779  0.19886843  1
  Ca  Ca0  1  0.43301969  0.56695815  0.30622927  1
  Nb  Nb0  1  0.98562064  0.01445377  0.81532735  1
  Nb  Nb1  1  0.06202917  0.93789081  0.16616798  1
  Ir  Ir0  1  0.02554927  0.97449042  0.99852847  1
  Cl  Cl0  1  0.63299586  0.36703949  0.44450004  1
  Cl  Cl1  1  0.23690063  0.76313857  0.59051635  1
  O  O0  1  0.16009531  0.29589497  0.91209208  1
  O  O1  1  0.30146917  0.18393087  0.76503035  1
  O  O2  1  0.22873591  0.23031046  0.23796558  1
  O  O3  1  0.81564111  0.69862985  0.76500215  1
  O  O4  1  0.81320845  0.18740690  0.75491527  1
  O  O5  1  0.88464378  0.64459097  0.08425822  1
  O  O6  1  0.23017916  0.76887561  0.24719953  1
  O  O7  1  0.35540564  0.11497172  0.08429744  1
  O  O8  1  0.88640178  0.11399396  0.07716855  1
  O  O9  1  0.70416844  0.84033967  0.91206924  1
  O  O10  1  0.76947741  0.77174413  0.23789440  1
  O  O11  1  0.16011725  0.83959576  0.91945019  1
loop_
_geom_bond_atom_site_label_1
_geom_bond_atom_site_label_2
_geom_bond_distance
_geom_bond_site_symmetry_2
Ba0 O6 2.673755 1_555
Ba0 O2 2.859518 1_565
Ba0 O10 2.861086 1_455
Ba0 Cl0 3.169236 1_565
Ba0 Cl0 3.169259 1_455
Ba0 Cl1 3.225471 1_555
Ba1 O9 2.661775 1_555
Ba1 O0 2.661814 1_555
Ba1 O11 2.760267 1_555
Ba1 O1 2.975239 1_565
Ba1 O3 2.977985 1_455
Ba1 O4 3.101815 1_455
Ba1 O4 3.105616 1_565
Ba1 Cl1 3.177609 1_555
Ba1 O3 3.193318 1_555
Ba1 O1 3.196072 1_555
Ba2 O4 2.542621 1_555
Ba2 O3 2.583746 1_555
Ba2 O1 2.583787 1_555
Ba2 Cl0 3.264430 1_555
Ba2 Cl1 3.524661 1_545
Ba2 Cl1 3.524929 1_655
Ba2 Cl1 3.822853 1_555
Ba3 O1 2.988344 1_555
Ba3 O3 2.988925 1_555
Ba3 O8 3.014779 1_556
Ba3 O0 3.041202 1_555
Ba3 O11 3.041892 1_655
Ba3 O9 3.043647 1_555
Ba3 O11 3.043732 1_545
Ba3 O9 3.076865 1_545
Ba3 O0 3.079120 1_655
Ba3 O5 3.209603 1_556
Ba3 O7 3.210163 1_556
Ba3 O4 3.247032 1_555
Ba4 O11 2.780602 1_554
Ba4 O0 2.872087 1_554
Ba4 O9 2.872579 1_554
Ba4 O5 2.987620 1_555
Ba4 O7 2.990067 1_555
Ba4 O8 3.070603 1_455
Ba4 O8 3.072857 1_565
Ba4 O7 3.227422 1_565
Ba4 O5 3.229507 1_455
Ba4 O10 3.459066 1_555
Ba4 O2 3.460499 1_555
Ba5 O7 2.595556 1_555
Ba5 O5 2.595862 1_555
Ba5 O8 2.666493 1_555
Ba5 O10 2.990920 1_545
Ba5 O2 2.994263 1_655
Ba5 O6 3.142121 1_655
Ba5 O6 3.148031 1_545
Ba5 O2 3.234449 1_555
Ba5 O10 3.237428 1_555
Ca0 O10 2.159613 1_555
Ca0 O2 2.159764 1_555
Ca0 O6 2.170295 1_555
Ca0 Cl0 2.748377 1_555
Nb0 O4 1.897317 1_555
Nb0 O3 1.911420 1_545
Nb0 O1 1.911438 1_655
Nb0 O9 2.223758 1_545
Nb0 O0 2.223885 1_655
Nb0 O11 2.236459 1_645
Nb1 O6 1.993613 1_555
Nb1 O2 1.996520 1_565
Nb1 O10 1.996543 1_455
Nb1 O7 2.104220 1_565
Nb1 O5 2.104250 1_455
Nb1 O8 2.114538 1_465
Ir0 O9 2.067236 1_455
Ir0 O0 2.067275 1_565
Ir0 O11 2.075032 1_555
Ir0 O5 2.095423 1_456
Ir0 O7 2.095428 1_566
Ir0 O8 2.109244 1_466
