# generated using pymatgen
data_Ca8H3N4
_symmetry_space_group_name_H-M   'P 1'
_cell_length_a   7.18130900
_cell_length_b   7.18303560
_cell_length_c   29.63560156
_cell_angle_alpha   96.91735699
_cell_angle_beta   90.04104681
_cell_angle_gamma   119.94335489
_symmetry_Int_Tables_number   1
_chemical_formula_structural   Ca8H3N4
_chemical_formula_sum   'Ca40 H15 N20'
_cell_volume   1311.72295152
_cell_formula_units_Z   5
loop_
 _symmetry_equiv_pos_site_id
 _symmetry_equiv_pos_as_xyz
  1  'x, y, z'
loop_
 _atom_site_type_symbol
 _atom_site_label
 _atom_site_symmetry_multiplicity
 _atom_site_fract_x
 _atom_site_fract_y
 _atom_site_fract_z
 _atom_site_occupancy
  Ca  Ca0  1  0.25913300  0.57723700  0.05311600  1
  Ca  Ca1  1  0.26508400  0.30886100  0.14245800  1
  Ca  Ca2  1  0.71560200  0.58215900  0.05197400  1
  Ca  Ca3  1  0.25942100  0.12945900  0.05276700  1
  Ca  Ca4  1  0.26157400  0.98131700  0.25232500  1
  Ca  Ca5  1  0.73535300  0.27053900  0.14724900  1
  Ca  Ca6  1  0.74104900  0.09115600  0.05755300  1
  Ca  Ca7  1  0.28819500  0.82283000  0.14689600  1
  Ca  Ca8  1  0.26371600  0.70887300  0.34246400  1
  Ca  Ca9  1  0.71231900  0.97804200  0.25276300  1
  Ca  Ca10  1  0.73734700  0.81769500  0.14803600  1
  Ca  Ca11  1  0.26364100  0.52946900  0.25276300  1
  Ca  Ca12  1  0.26160100  0.38140300  0.45232600  1
  Ca  Ca13  1  0.73626400  0.67052500  0.34725600  1
  Ca  Ca14  1  0.73630900  0.49113700  0.25755000  1
  Ca  Ca15  1  0.28768500  0.22196400  0.34725800  1
  Ca  Ca16  1  0.71230400  0.37802500  0.45274900  1
  Ca  Ca17  1  0.26372400  0.10887900  0.54245800  1
  Ca  Ca18  1  0.73838500  0.21858800  0.34768300  1
  Ca  Ca19  1  0.26372100  0.92945800  0.45275300  1
  Ca  Ca20  1  0.26161500  0.78141200  0.65231700  1
  Ca  Ca21  1  0.73627900  0.07054200  0.54724700  1
  Ca  Ca22  1  0.28769600  0.62197500  0.54725100  1
  Ca  Ca23  1  0.73627600  0.89112100  0.45754200  1
  Ca  Ca24  1  0.26369100  0.50886300  0.74245000  1
  Ca  Ca25  1  0.71231500  0.77803600  0.65274200  1
  Ca  Ca26  1  0.73839900  0.61859700  0.54767400  1
  Ca  Ca27  1  0.26373600  0.32947500  0.65274400  1
  Ca  Ca28  1  0.26265300  0.18230500  0.85196400  1
  Ca  Ca29  1  0.73635900  0.47053100  0.74723700  1
  Ca  Ca30  1  0.73628400  0.29112700  0.65753600  1
  Ca  Ca31  1  0.28768100  0.02195800  0.74723700  1
  Ca  Ca32  1  0.25895100  0.90884400  0.94244700  1
  Ca  Ca33  1  0.71180500  0.17717000  0.85310400  1
  Ca  Ca34  1  0.73842600  0.01868300  0.74767500  1
  Ca  Ca35  1  0.26464700  0.72946100  0.85275100  1
  Ca  Ca36  1  0.74057900  0.87054100  0.94723300  1
  Ca  Ca37  1  0.73491600  0.69113900  0.85754200  1
  Ca  Ca38  1  0.28439800  0.41784100  0.94802600  1
  Ca  Ca39  1  0.74086700  0.42276300  0.94688400  1
  H  H0  1  0.00000000  0.00000000  0.00000000  1
  H  H1  1  0.00000000  0.50000000  0.00000000  1
  H  H2  1  0.99991500  0.90001900  0.20000000  1
  H  H3  1  0.00000900  0.30000900  0.39999600  1
  H  H4  1  0.50000200  0.40004600  0.20000100  1
  H  H5  1  0.99915500  0.70001300  0.09999400  1
  H  H6  1  0.00001700  0.10001700  0.29999100  1
  H  H7  1  0.99999100  0.69999100  0.60000400  1
  H  H8  1  0.50000100  0.80000200  0.39999600  1
  H  H9  1  0.00084500  0.29998700  0.90000600  1
  H  H10  1  0.00008500  0.09998100  0.80000000  1
  H  H11  1  0.99998300  0.89998300  0.70000900  1
  H  H12  1  0.49999900  0.19999800  0.60000400  1
  H  H13  1  0.00000000  0.50000000  0.50000000  1
  H  H14  1  0.49999800  0.59995400  0.79999900  1
  N  N0  1  0.50000000  0.50000000  0.00000000  1
  N  N1  1  0.99972600  0.19962400  0.10014300  1
  N  N2  1  0.50039900  0.20038900  0.09984200  1
  N  N3  1  0.50001900  0.10002200  0.29998800  1
  N  N4  1  0.50015800  0.90001400  0.19999300  1
  N  N5  1  0.00002800  0.60001200  0.29999000  1
  N  N6  1  0.50000800  0.60000600  0.29999100  1
  N  N7  1  0.50032500  0.70002100  0.09999000  1
  N  N8  1  0.50000000  0.50000000  0.50000000  1
  N  N9  1  0.50001300  0.30000800  0.39999300  1
  N  N10  1  0.00000000  0.00000000  0.50000000  1
  N  N11  1  0.50000000  0.00000000  0.50000000  1
  N  N12  1  0.49998100  0.89997800  0.70001200  1
  N  N13  1  0.99997200  0.39998800  0.70001000  1
  N  N14  1  0.49998700  0.69999200  0.60000700  1
  N  N15  1  0.49999200  0.39999400  0.70000900  1
  N  N16  1  0.49984200  0.09998600  0.80000700  1
  N  N17  1  0.00027400  0.80037600  0.89985700  1
  N  N18  1  0.49960100  0.79961100  0.90015800  1
  N  N19  1  0.49967500  0.29997900  0.90001000  1
loop_
_geom_bond_atom_site_label_1
_geom_bond_atom_site_label_2
_geom_bond_distance
_geom_bond_site_symmetry_2
Ca0 N7 1.970807 1_555
Ca0 H1 2.236840 1_555
Ca0 N0 2.555234 1_555
Ca0 H5 2.746942 1_455
Ca0 N1 2.939362 1_455
Ca1 N1 2.021515 1_455
Ca1 H4 2.192467 1_555
Ca1 N2 2.477547 1_555
Ca1 N7 2.906674 1_555
Ca2 N0 1.995858 1_555
Ca2 H5 2.207511 1_555
Ca2 N7 2.480162 1_555
Ca2 N2 2.937732 1_555
Ca3 N2 2.036118 1_555
Ca3 H0 2.167248 1_555
Ca3 N1 2.544590 1_455
Ca3 N0 2.988369 1_555
Ca4 N3 1.975665 1_565
Ca4 H2 2.226826 1_455
Ca4 N4 2.542911 1_555
Ca4 H6 2.750087 1_565
Ca4 N5 2.970704 1_555
Ca5 N2 2.012955 1_555
Ca5 N1 2.571136 1_555
Ca5 H4 2.718265 1_555
Ca5 N4 2.982929 1_545
Ca6 N1 1.991448 1_555
Ca6 N2 2.508546 1_555
Ca6 N7 2.910203 1_545
Ca7 N4 2.011078 1_555
Ca7 H5 2.211612 1_455
Ca7 N7 2.465839 1_555
Ca7 N2 2.900019 1_565
Ca8 N5 2.015690 1_555
Ca8 H8 2.198396 1_555
Ca8 N6 2.483132 1_555
Ca8 N3 2.907512 1_565
Ca9 N4 2.003532 1_555
Ca9 H6 2.211010 1_665
Ca9 N3 2.468202 1_565
Ca9 N6 2.905632 1_555
Ca10 N7 1.977237 1_555
Ca10 H2 2.222619 1_555
Ca10 N4 2.532148 1_555
Ca10 H5 2.752636 1_555
Ca10 N1 2.978679 1_565
Ca11 N6 2.015973 1_555
Ca11 N5 2.567098 1_555
Ca11 H4 2.723826 1_555
Ca11 N4 2.984678 1_555
Ca12 N8 1.975734 1_555
Ca12 H3 2.226415 1_555
Ca12 N9 2.542280 1_555
Ca12 H13 2.750029 1_555
Ca12 N10 2.971396 1_555
Ca13 N6 2.016163 1_555
Ca13 N5 2.568501 1_655
Ca13 H8 2.723146 1_555
Ca13 N9 2.983688 1_555
Ca14 N5 2.015259 1_655
Ca14 H4 2.198916 1_555
Ca14 N6 2.482750 1_555
Ca14 N3 2.906706 1_555
Ca15 N9 2.003481 1_555
Ca15 H6 2.211557 1_555
Ca15 N3 2.468934 1_555
Ca15 N6 2.906356 1_555
Ca16 N9 2.003817 1_555
Ca16 H13 2.211398 1_655
Ca16 N8 2.468608 1_555
Ca16 N11 2.905976 1_555
Ca17 N10 2.015589 1_555
Ca17 H12 2.198671 1_555
Ca17 N11 2.482878 1_555
Ca17 N8 2.907053 1_555
Ca18 N3 1.976012 1_555
Ca18 H3 2.226197 1_655
Ca18 N9 2.541744 1_555
Ca18 H6 2.750361 1_655
Ca18 N5 2.971878 1_655
Ca19 N11 2.015885 1_565
Ca19 N10 2.568053 1_565
Ca19 H8 2.723424 1_555
Ca19 N9 2.984314 1_565
Ca20 N12 1.976012 1_555
Ca20 H7 2.226197 1_455
Ca20 N14 2.541744 1_555
Ca20 H11 2.750361 1_455
Ca20 N13 2.971878 1_455
Ca21 N11 2.015885 1_555
Ca21 N10 2.568053 1_655
Ca21 H12 2.723424 1_555
Ca21 N14 2.984314 1_545
Ca22 N14 2.003817 1_555
Ca22 H13 2.211398 1_555
Ca22 N8 2.468608 1_555
Ca22 N11 2.905976 1_565
Ca23 N10 2.015589 1_665
Ca23 H8 2.198671 1_555
Ca23 N11 2.482878 1_565
Ca23 N8 2.907053 1_555
Ca24 N13 2.015259 1_455
Ca24 H14 2.198916 1_555
Ca24 N15 2.482750 1_555
Ca24 N12 2.906706 1_555
Ca25 N14 2.003481 1_555
Ca25 H11 2.211557 1_555
Ca25 N12 2.468934 1_555
Ca25 N15 2.906356 1_555
Ca26 N8 1.975734 1_555
Ca26 H7 2.226415 1_555
Ca26 N14 2.542280 1_555
Ca26 H13 2.750029 1_655
Ca26 N10 2.971396 1_665
Ca27 N15 2.016163 1_555
Ca27 N13 2.568501 1_455
Ca27 H12 2.723146 1_555
Ca27 N14 2.983688 1_555
Ca28 N19 1.977237 1_555
Ca28 H10 2.222619 1_555
Ca28 N16 2.532148 1_555
Ca28 H9 2.752636 1_555
Ca28 N17 2.978679 1_545
Ca29 N15 2.015973 1_555
Ca29 N13 2.567098 1_555
Ca29 H14 2.723826 1_555
Ca29 N16 2.984678 1_555
Ca30 N13 2.015690 1_555
Ca30 H12 2.198396 1_555
Ca30 N15 2.483132 1_555
Ca30 N12 2.907512 1_545
Ca31 N16 2.003532 1_555
Ca31 H11 2.211010 1_445
Ca31 N12 2.468202 1_545
Ca31 N15 2.905632 1_555
Ca32 N17 1.991448 1_555
Ca32 N18 2.508546 1_555
Ca32 N19 2.910203 1_565
Ca33 N16 2.011078 1_555
Ca33 H9 2.211612 1_655
Ca33 N19 2.465839 1_555
Ca33 N18 2.900019 1_545
Ca34 N12 1.975665 1_545
Ca34 H10 2.226826 1_655
Ca34 N16 2.542911 1_555
Ca34 H11 2.750087 1_545
Ca34 N13 2.970704 1_555
Ca35 N18 2.012955 1_555
Ca35 N17 2.571136 1_555
Ca35 H14 2.718265 1_555
Ca35 N16 2.982929 1_565
Ca36 N18 2.036118 1_555
Ca36 H0 2.167248 1_666
Ca36 N17 2.544590 1_655
Ca36 N0 2.988369 1_556
Ca37 N17 2.021515 1_655
Ca37 H14 2.192467 1_555
Ca37 N18 2.477547 1_555
Ca37 N19 2.906674 1_555
Ca38 N0 1.995858 1_556
Ca38 H9 2.207511 1_555
Ca38 N19 2.480162 1_555
Ca38 N18 2.937732 1_555
Ca39 N19 1.970807 1_555
Ca39 H1 2.236840 1_656
Ca39 N0 2.555234 1_556
Ca39 H9 2.746942 1_655
Ca39 N17 2.939362 1_655
