# generated using pymatgen
data_BaNdZr2O6
_symmetry_space_group_name_H-M   'P 1'
_cell_length_a   4.28080380
_cell_length_b   5.85779641
_cell_length_c   5.85779641
_cell_angle_alpha   88.58365258
_cell_angle_beta   90.00000000
_cell_angle_gamma   90.00000000
_symmetry_Int_Tables_number   1
_chemical_formula_structural   BaNdZr2O6
_chemical_formula_sum   'Ba1 Nd1 Zr2 O6'
_cell_volume   146.84567614
_cell_formula_units_Z   1
loop_
 _symmetry_equiv_pos_site_id
 _symmetry_equiv_pos_as_xyz
  1  'x, y, z'
loop_
 _atom_site_type_symbol
 _atom_site_label
 _atom_site_symmetry_multiplicity
 _atom_site_fract_x
 _atom_site_fract_y
 _atom_site_fract_z
 _atom_site_occupancy
  Ba  Ba0  1  0.50000000  -0.00000000  0.00000000  1
  Nd  Nd0  1  0.50000000  0.50000000  0.50000000  1
  Zr  Zr0  1  -0.00000000  -0.00000000  0.50000000  1
  Zr  Zr1  1  -0.00000000  0.50000000  0.00000000  1
  O  O0  1  0.50000000  -0.00000000  0.50000000  1
  O  O1  1  0.50000000  0.50000000  0.00000000  1
  O  O2  1  0.00000000  0.31855132  0.68144868  1
  O  O3  1  0.00000000  0.68144868  0.31855132  1
  O  O4  1  0.00000000  0.80429726  0.80429726  1
  O  O5  1  -0.00000000  0.19570274  0.19570274  1
loop_
_geom_bond_atom_site_label_1
_geom_bond_atom_site_label_2
_geom_bond_distance
_geom_bond_site_symmetry_2
Ba0 O5 2.697164 1_555
Ba0 O4 2.697164 1_644
Ba0 O5 2.697164 1_655
Ba0 O4 2.697164 1_544
Ba0 O0 2.928898 1_555
Ba0 O0 2.928898 1_554
Ba0 O1 2.928898 1_555
Ba0 O1 2.928898 1_545
Nd0 O3 2.604792 1_655
Nd0 O2 2.604792 1_655
Nd0 O3 2.604792 1_555
Nd0 O2 2.604792 1_555
Nd0 O0 2.928898 1_555
Nd0 O1 2.928898 1_555
Nd0 O1 2.928898 1_556
Nd0 O0 2.928898 1_565
O0 Zr0 2.140402 1_555
O0 Zr0 2.140402 1_655
O1 Zr1 2.140402 1_655
O1 Zr1 2.140402 1_555
O2 Zr1 2.170200 1_556
O2 Zr0 2.170200 1_555
O3 Zr0 2.170200 1_565
O3 Zr1 2.170200 1_555
O4 Zr1 2.095360 1_556
O4 Zr0 2.095360 1_565
O5 Zr0 2.095360 1_555
O5 Zr1 2.095360 1_555
