# generated using pymatgen
data_SrIrO3
_symmetry_space_group_name_H-M   'P 1'
_cell_length_a   5.56215181
_cell_length_b   5.56205711
_cell_length_c   14.32050561
_cell_angle_alpha   88.53209776
_cell_angle_beta   88.53074306
_cell_angle_gamma   119.71417531
_symmetry_Int_Tables_number   1
_chemical_formula_structural   SrIrO3
_chemical_formula_sum   'Sr6 Ir6 O18'
_cell_volume   384.27714003
_cell_formula_units_Z   6
loop_
 _symmetry_equiv_pos_site_id
 _symmetry_equiv_pos_as_xyz
  1  'x, y, z'
loop_
 _atom_site_type_symbol
 _atom_site_label
 _atom_site_symmetry_multiplicity
 _atom_site_fract_x
 _atom_site_fract_y
 _atom_site_fract_z
 _atom_site_occupancy
  Sr  Sr0  1  0.00515393  0.99488598  0.24997204  1
  Sr  Sr1  1  0.99467121  0.00527254  0.75003343  1
  Sr  Sr2  1  0.65113185  0.32064577  0.10187515  1
  Sr  Sr3  1  0.67940259  0.34891369  0.39810980  1
  Sr  Sr4  1  0.34948058  0.67920361  0.89681776  1
  Sr  Sr5  1  0.32075353  0.65049282  0.60319167  1
  Ir  Ir0  1  1.00075942  1.00028018  0.99980136  1
  Ir  Ir1  1  -0.00028547  0.99923168  0.50020242  1
  Ir  Ir2  1  0.68634141  0.35511510  0.84718944  1
  Ir  Ir3  1  0.64486372  0.31361778  0.65284931  1
  Ir  Ir4  1  0.31299479  0.64474847  0.15271301  1
  Ir  Ir5  1  0.35526644  0.68701144  0.34724697  1
  O  O0  1  0.49281576  0.50718226  0.24996357  1
  O  O1  1  0.50629275  0.49370399  0.75001931  1
  O  O2  1  0.03246871  0.50453626  0.26480210  1
  O  O3  1  0.49549069  0.96753744  0.23514922  1
  O  O4  1  0.96833981  0.49562594  0.73604079  1
  O  O5  1  0.50433223  0.03162920  0.76399462  1
  O  O6  1  0.59660863  0.79308380  0.04204625  1
  O  O7  1  0.20689598  0.40339699  0.45792987  1
  O  O8  1  0.40245296  0.20753851  0.95670566  1
  O  O9  1  0.79249837  0.59754527  0.54331781  1
  O  O10  1  0.21746912  0.92728342  0.40197576  1
  O  O11  1  0.07272819  0.78252841  0.09798620  1
  O  O12  1  0.78244307  0.07390592  0.59730799  1
  O  O13  1  0.92607463  0.21760932  0.90274530  1
  O  O14  1  0.08022534  0.26957135  0.10075294  1
  O  O15  1  0.73044478  0.91971941  0.39921396  1
  O  O16  1  0.92267792  0.73076337  0.89960207  1
  O  O17  1  0.26920508  0.07742109  0.60044122  1
loop_
_geom_bond_atom_site_label_1
_geom_bond_atom_site_label_2
_geom_bond_distance
_geom_bond_site_symmetry_2
Ir0 O16 1.997879 1_555
Ir0 O13 2.001720 1_565
Ir0 O14 2.004044 1_666
Ir0 O11 2.006579 1_656
Ir0 O8 2.010293 1_665
Ir0 O6 2.018343 1_556
Ir1 O17 1.998158 1_565
Ir1 O12 2.001937 1_465
Ir1 O15 2.004362 1_455
Ir1 O10 2.006928 1_555
Ir1 O9 2.010309 1_455
Ir1 O7 2.018486 1_565
Ir2 O13 2.007530 1_555
Ir2 O5 2.011847 1_555
Ir2 O16 2.016188 1_555
Ir2 O8 2.036885 1_555
Ir2 O4 2.048795 1_555
Ir2 O1 2.077317 1_555
Ir3 O12 2.007600 1_555
Ir3 O4 2.011811 1_555
Ir3 O17 2.016117 1_555
Ir3 O9 2.037166 1_555
Ir3 O5 2.048727 1_555
Ir3 O1 2.077367 1_555
Ir4 O3 2.002686 1_555
Ir4 O11 2.006406 1_555
Ir4 O14 2.008753 1_555
Ir4 O6 2.048262 1_555
Ir4 O2 2.054386 1_555
Ir4 O0 2.073861 1_555
Ir5 O2 2.002817 1_555
Ir5 O10 2.006481 1_555
Ir5 O15 2.008781 1_555
Ir5 O7 2.048435 1_555
Ir5 O3 2.054478 1_555
Ir5 O0 2.074122 1_555
O0 Sr2 2.696652 1_555
O0 Sr3 2.697370 1_555
O0 Sr0 2.795445 1_545
O0 Sr0 2.795696 1_655
O1 Sr4 2.674672 1_555
O1 Sr5 2.675100 1_555
O1 Sr1 2.795145 1_565
O1 Sr1 2.795425 1_455
O2 Sr3 2.507617 1_455
O2 Sr0 2.776560 1_545
O2 Sr0 2.808807 1_555
O2 Sr2 3.035490 1_455
O3 Sr2 2.507396 1_565
O3 Sr0 2.776590 1_655
O3 Sr0 2.808871 1_555
O3 Sr3 3.035955 1_565
O4 Sr5 2.500922 1_655
O4 Sr1 2.777781 1_565
O4 Sr1 2.805293 1_555
O4 Sr4 3.010441 1_655
O5 Sr4 2.500693 1_545
O5 Sr1 2.777806 1_455
O5 Sr1 2.805307 1_555
O5 Sr5 3.010683 1_545
O6 Sr4 2.442732 1_554
O6 Sr2 2.901547 1_555
O6 Sr2 2.948946 1_565
O7 Sr5 2.443040 1_555
O7 Sr3 2.901770 1_555
O7 Sr3 2.948695 1_455
O8 Sr2 2.445943 1_556
O8 Sr4 2.892866 1_555
O8 Sr4 2.956621 1_545
O9 Sr3 2.446277 1_555
O9 Sr5 2.893174 1_555
O9 Sr5 2.956256 1_655
O10 Sr3 2.473252 1_565
O10 Sr0 2.608523 1_555
O10 Sr3 3.127597 1_455
O11 Sr2 2.472993 1_455
O11 Sr0 2.608342 1_555
O11 Sr2 3.127858 1_565
O12 Sr5 2.476135 1_545
O12 Sr1 2.618961 1_555
O12 Sr5 3.124834 1_655
O13 Sr4 2.475801 1_655
O13 Sr1 2.619015 1_555
O13 Sr4 3.125150 1_545
O14 Sr0 2.495883 1_545
O14 Sr2 2.539217 1_455
O14 Sr2 3.045182 1_555
O15 Sr0 2.496131 1_655
O15 Sr3 2.539638 1_565
O15 Sr3 3.044634 1_555
O16 Sr1 2.502331 1_565
O16 Sr4 2.527858 1_655
O16 Sr4 3.057650 1_555
O17 Sr1 2.502533 1_455
O17 Sr5 2.528483 1_545
O17 Sr5 3.056903 1_555
