# generated using pymatgen
data_K3AuF12
_symmetry_space_group_name_H-M   'P 1'
_cell_length_a   7.13444659
_cell_length_b   7.85029285
_cell_length_c   8.10363911
_cell_angle_alpha   118.97109292
_cell_angle_beta   108.13875650
_cell_angle_gamma   50.00412176
_symmetry_Int_Tables_number   1
_chemical_formula_structural   K3AuF12
_chemical_formula_sum   'K3 Au1 F12'
_cell_volume   304.19149228
_cell_formula_units_Z   1
loop_
 _symmetry_equiv_pos_site_id
 _symmetry_equiv_pos_as_xyz
  1  'x, y, z'
loop_
 _atom_site_type_symbol
 _atom_site_label
 _atom_site_symmetry_multiplicity
 _atom_site_fract_x
 _atom_site_fract_y
 _atom_site_fract_z
 _atom_site_occupancy
  K  K0  1  0.50000000  0.00000000  0.00000000  1
  K  K1  1  0.00000000  0.50000000  0.50000000  1
  K  K2  1  0.00000000  0.00000000  0.50000000  1
  Au  Au0  1  0.00000000  0.00000000  0.00000000  1
  F  F0  1  0.70742300  0.51768600  0.89049600  1
  F  F1  1  0.29257700  0.48231400  0.10950400  1
  F  F2  1  0.64634500  0.89633100  0.41690300  1
  F  F3  1  0.29257700  0.37281000  0.89049600  1
  F  F4  1  0.35365500  0.10366900  0.58309700  1
  F  F5  1  0.70742300  0.62719000  0.10950400  1
  F  F6  1  0.18712600  0.90667900  0.80264600  1
  F  F7  1  0.35365500  0.52057100  0.41690300  1
  F  F8  1  0.81287400  0.09332100  0.19735400  1
  F  F9  1  0.64634500  0.47942900  0.58309700  1
  F  F10  1  0.81287400  0.89596800  0.80264600  1
  F  F11  1  0.18712600  0.10403200  0.19735400  1
loop_
_geom_bond_atom_site_label_1
_geom_bond_atom_site_label_2
_geom_bond_distance
_geom_bond_site_symmetry_2
Au0 F11 1.952917 1_555
Au0 F10 1.952917 1_444
Au0 F8 1.952921 1_455
Au0 F6 1.952921 1_544
F0 F5 1.552676 1_556
F0 K0 2.770132 1_566
F1 F3 1.552676 1_554
F1 K0 2.770132 1_555
F2 K1 2.716693 1_655
F2 K2 2.921091 1_665
F3 K0 2.770132 1_556
F4 K1 2.716693 1_555
F4 K2 2.921091 1_555
F5 K0 2.770132 1_565
F6 K2 2.603573 1_565
F6 K0 2.611782 1_566
F7 K2 2.716699 1_565
F7 K1 2.921085 1_555
F8 K2 2.603573 1_655
F8 K0 2.611782 1_555
F9 K2 2.716699 1_655
F9 K1 2.921085 1_655
F10 K1 2.603577 1_655
F10 K0 2.611786 1_566
F11 K1 2.603577 1_555
F11 K0 2.611786 1_555
