# generated using pymatgen
data_MoW(SeS)2
_symmetry_space_group_name_H-M   'P 1'
_cell_length_a   3.25396494
_cell_length_b   3.25396494
_cell_length_c   36.88467500
_cell_angle_alpha   90.00000000
_cell_angle_beta   90.00000000
_cell_angle_gamma   119.99997853
_symmetry_Int_Tables_number   1
_chemical_formula_structural   MoW(SeS)2
_chemical_formula_sum   'Mo2 W2 Se4 S4'
_cell_volume   338.22244639
_cell_formula_units_Z   2
loop_
 _symmetry_equiv_pos_site_id
 _symmetry_equiv_pos_as_xyz
  1  'x, y, z'
loop_
 _atom_site_type_symbol
 _atom_site_label
 _atom_site_symmetry_multiplicity
 _atom_site_fract_x
 _atom_site_fract_y
 _atom_site_fract_z
 _atom_site_occupancy
  Mo  Mo0  1  0.00000000  0.00000000  0.46966300  1
  Mo  Mo1  1  0.33333300  0.66666700  0.28180600  1
  W  W0  1  0.00000000  0.00000000  0.09391900  1
  W  W1  1  0.33333300  0.66666700  0.65756900  1
  Se  Se0  1  0.00000000  0.00000000  0.70390000  1
  Se  Se1  1  0.33333300  0.66666700  0.42363400  1
  Se  Se2  1  0.33333300  0.66666700  0.51564900  1
  Se  Se3  1  0.00000000  0.00000000  0.61121600  1
  S  S0  1  0.00000000  0.00000000  0.32368100  1
  S  S1  1  0.33333300  0.66666700  0.05190600  1
  S  S2  1  0.33333300  0.66666700  0.13592100  1
  S  S3  1  0.00000000  0.00000000  0.23988400  1
loop_
_geom_bond_atom_site_label_1
_geom_bond_atom_site_label_2
_geom_bond_distance
_geom_bond_site_symmetry_2
Mo0 Se2 2.531095 1_545
Mo0 Se2 2.531098 1_445
Mo0 Se2 2.531098 1_555
Mo0 Se1 2.532158 1_545
Mo0 Se1 2.532161 1_445
Mo0 Se1 2.532161 1_555
Mo1 S0 2.432086 1_565
Mo1 S0 2.432089 1_665
Mo1 S0 2.432089 1_555
Mo1 S3 2.433187 1_565
Mo1 S3 2.433190 1_555
Mo1 S3 2.433190 1_665
Se0 W1 2.539641 1_545
Se0 W1 2.539643 1_555
Se0 W1 2.539643 1_445
Se3 W1 2.540187 1_545
Se3 W1 2.540189 1_445
Se3 W1 2.540189 1_555
S1 W0 2.435322 1_565
S1 W0 2.435325 1_665
S1 W0 2.435325 1_555
S2 W0 2.435064 1_565
S2 W0 2.435066 1_665
S2 W0 2.435066 1_555
