# generated using pymatgen
data_BaYbAl2SiN5O2
_symmetry_space_group_name_H-M   'P 1'
_cell_length_a   6.27126283
_cell_length_b   6.35223302
_cell_length_c   9.20431436
_cell_angle_alpha   84.76513690
_cell_angle_beta   100.65135623
_cell_angle_gamma   119.57818749
_symmetry_Int_Tables_number   1
_chemical_formula_structural   BaYbAl2SiN5O2
_chemical_formula_sum   'Ba2 Yb2 Al4 Si2 N10 O4'
_cell_volume   313.39042643
_cell_formula_units_Z   2
loop_
 _symmetry_equiv_pos_site_id
 _symmetry_equiv_pos_as_xyz
  1  'x, y, z'
loop_
 _atom_site_type_symbol
 _atom_site_label
 _atom_site_symmetry_multiplicity
 _atom_site_fract_x
 _atom_site_fract_y
 _atom_site_fract_z
 _atom_site_occupancy
  Ba  Ba0  1  0.39607500  0.70278700  0.18695000  1
  Ba  Ba1  1  0.69332700  0.29723400  0.68691500  1
  Yb  Yb0  1  0.32020000  0.69125600  0.81872400  1
  Yb  Yb1  1  0.62894100  0.30883300  0.31866600  1
  Al  Al0  1  0.16380300  0.82943200  0.46035600  1
  Al  Al1  1  0.12219500  0.32917200  0.43494500  1
  Al  Al2  1  0.33443300  0.17058600  0.96037200  1
  Al  Al3  1  0.79303000  0.67080600  0.93495800  1
  Si  Si0  1  0.63019200  0.77014800  0.54710600  1
  Si  Si1  1  0.86001200  0.22979500  0.04709200  1
  N  N0  1  0.00105800  0.00745900  0.02932700  1
  N  N1  1  0.98246400  0.50637400  0.95669300  1
  N  N2  1  0.55063700  0.04474700  0.99064000  1
  N  N3  1  0.48546800  0.49097200  0.98814600  1
  N  N4  1  0.47601100  0.49357400  0.45669600  1
  N  N5  1  0.96772200  0.88211300  0.16494500  1
  N  N6  1  0.50592800  0.95527500  0.49066200  1
  N  N7  1  0.99356800  0.99252800  0.52932500  1
  N  N8  1  0.99443200  0.50902300  0.48807100  1
  N  N9  1  0.08557200  0.11787700  0.66495800  1
  O  O0  1  0.18480400  0.97758000  0.26756200  1
  O  O1  1  0.94744900  0.27204500  0.23314900  1
  O  O2  1  0.20727500  0.02249500  0.76756100  1
  O  O3  1  0.67540100  0.72789100  0.73318000  1
loop_
_geom_bond_atom_site_label_1
_geom_bond_atom_site_label_2
_geom_bond_distance
_geom_bond_site_symmetry_2
Ba0 N2 2.602984 1_564
Ba0 N3 2.654459 1_554
Ba0 N4 2.788797 1_555
Ba0 N1 2.834061 1_454
Ba0 O1 2.865867 1_455
Ba0 O0 2.869819 1_555
Ba0 N6 3.142770 1_555
Ba0 N5 3.222620 1_555
Ba1 N6 2.602623 1_545
Ba1 N8 2.654368 1_555
Ba1 N1 2.788927 1_555
Ba1 N4 2.833948 1_555
Ba1 O3 2.865579 1_555
Ba1 O2 2.869904 1_555
Ba1 N2 3.142943 1_555
Ba1 N9 3.222175 1_655
Al0 N8 1.790803 1_455
Al0 N6 1.856469 1_555
Al0 O0 1.926460 1_555
Al0 N7 2.019537 1_455
Al1 N8 1.826676 1_455
Al1 N4 1.907988 1_555
Al1 O1 1.939201 1_455
Al1 N7 2.048264 1_445
Al2 N3 1.790753 1_555
Al2 N2 1.855986 1_555
Al2 O2 1.926471 1_555
Al2 N0 2.019730 1_556
Al3 N3 1.826666 1_555
Al3 N1 1.908238 1_555
Al3 O3 1.938993 1_555
Al3 N0 2.048279 1_666
N0 N5 1.409480 1_445
N0 Si1 2.032909 1_455
N1 Si1 1.733850 1_556
N1 Yb0 2.396760 1_655
N2 Si1 1.703907 1_556
N2 Yb0 2.496778 1_545
N3 Yb0 2.338133 1_555
N4 Si0 1.733866 1_555
N4 Yb1 2.396795 1_555
N5 O0 1.388301 1_655
N6 Si0 1.704018 1_555
N6 Yb1 2.497514 1_565
N7 N9 1.409613 1_665
N7 Si0 2.032984 1_555
N8 Yb1 2.337781 1_555
N9 O2 1.388221 1_555
O0 Yb1 2.513397 1_565
O1 Si1 1.702030 1_555
O1 Yb1 2.395736 1_555
O2 Yb0 2.513466 1_545
O3 Si0 1.702193 1_555
O3 Yb0 2.395683 1_555
