# generated using pymatgen
data_CsHo(WO4)2
_symmetry_space_group_name_H-M   'P 1'
_cell_length_a   7.65484452
_cell_length_b   7.65484452
_cell_length_c   7.56996638
_cell_angle_alpha   62.58810552
_cell_angle_beta   62.58810552
_cell_angle_gamma   88.58618711
_symmetry_Int_Tables_number   1
_chemical_formula_structural   CsHo(WO4)2
_chemical_formula_sum   'Cs2 Ho2 W4 O16'
_cell_volume   339.54279401
_cell_formula_units_Z   2
loop_
 _symmetry_equiv_pos_site_id
 _symmetry_equiv_pos_as_xyz
  1  'x, y, z'
loop_
 _atom_site_type_symbol
 _atom_site_label
 _atom_site_symmetry_multiplicity
 _atom_site_fract_x
 _atom_site_fract_y
 _atom_site_fract_z
 _atom_site_occupancy
  Cs  Cs0  1  0.19780500  0.80219500  0.75000000  1
  Cs  Cs1  1  0.80219500  0.19780500  0.25000000  1
  Ho  Ho0  1  0.77664600  0.22335400  0.75000000  1
  Ho  Ho1  1  0.22335400  0.77664600  0.25000000  1
  W  W0  1  0.69863600  0.68729000  0.78259200  1
  W  W1  1  0.30136400  0.31271000  0.21740800  1
  W  W2  1  0.31271000  0.30136400  0.71740800  1
  W  W3  1  0.68729000  0.69863600  0.28259200  1
  O  O0  1  0.62019700  0.75032900  0.56468300  1
  O  O1  1  0.37980300  0.24967100  0.43531700  1
  O  O2  1  0.24967100  0.37980300  0.93531700  1
  O  O3  1  0.75032900  0.62019700  0.06468300  1
  O  O4  1  0.37173900  0.06075000  0.87628200  1
  O  O5  1  0.62826100  0.93925000  0.12371800  1
  O  O6  1  0.93925000  0.62826100  0.62371800  1
  O  O7  1  0.06075000  0.37173900  0.37628200  1
  O  O8  1  0.59087800  0.37133600  0.96386500  1
  O  O9  1  0.40912200  0.62866400  0.03613500  1
  O  O10  1  0.62866400  0.40912200  0.53613500  1
  O  O11  1  0.37133600  0.59087800  0.46386500  1
  O  O12  1  0.78087500  0.95095300  0.70071000  1
  O  O13  1  0.21912500  0.04904700  0.29929000  1
  O  O14  1  0.04904700  0.21912500  0.79929000  1
  O  O15  1  0.95095300  0.78087500  0.20071000  1
loop_
_geom_bond_atom_site_label_1
_geom_bond_atom_site_label_2
_geom_bond_distance
_geom_bond_site_symmetry_2
Cs0 O13 2.967203 1_565
Cs0 O15 2.967203 1_456
Cs0 O2 2.975419 1_555
Cs0 O0 2.975419 1_555
Cs0 O1 3.002520 1_565
Cs0 O3 3.002520 1_456
Cs0 O9 3.089286 1_556
Cs0 O11 3.089286 1_555
Cs0 O6 3.106104 1_455
Cs0 O4 3.106104 1_565
Cs0 O12 3.485358 1_455
Cs0 O14 3.485358 1_565
Cs1 O14 2.967203 1_654
Cs1 O12 2.967203 1_545
Cs1 O1 2.975419 1_555
Cs1 O3 2.975419 1_555
Cs1 O2 3.002520 1_654
Cs1 O0 3.002520 1_545
Cs1 O8 3.089286 1_554
Cs1 O10 3.089286 1_555
Cs1 O5 3.106104 1_545
Cs1 O7 3.106104 1_655
Cs1 O15 3.485358 1_545
Cs1 O13 3.485358 1_655
Ho0 O14 2.278203 1_655
Ho0 O12 2.278203 1_545
Ho0 O10 2.327162 1_555
Ho0 O8 2.327162 1_555
Ho0 O5 2.349750 1_546
Ho0 O7 2.349750 1_655
Ho1 O13 2.278203 1_565
Ho1 O15 2.278203 1_455
Ho1 O11 2.327162 1_555
Ho1 O9 2.327162 1_555
Ho1 O6 2.349750 1_455
Ho1 O4 2.349750 1_564
O0 W0 1.865261 1_555
O0 W3 2.176821 1_555
O1 W1 1.865261 1_555
O1 W2 2.176821 1_555
O2 W2 1.865261 1_555
O2 W1 2.176821 1_556
O3 W3 1.865261 1_555
O3 W0 2.176821 1_554
O4 W2 1.860838 1_555
O5 W3 1.860838 1_555
O6 W0 1.860838 1_555
O7 W1 1.860838 1_555
O8 W1 2.033737 1_556
O8 W0 2.100781 1_555
O9 W0 2.033737 1_554
O9 W1 2.100781 1_555
O10 W3 2.033737 1_555
O10 W2 2.100781 1_555
O11 W2 2.033737 1_555
O11 W3 2.100781 1_555
O12 W0 1.845411 1_555
O13 W1 1.845411 1_555
O14 W2 1.845411 1_555
O15 W3 1.845411 1_555
