# generated using pymatgen
data_MgV8(OF)8
_symmetry_space_group_name_H-M   'P 1'
_cell_length_a   4.85875578
_cell_length_b   10.79743193
_cell_length_c   5.66502953
_cell_angle_alpha   83.24226288
_cell_angle_beta   90.90543885
_cell_angle_gamma   88.24582532
_symmetry_Int_Tables_number   1
_chemical_formula_structural   MgV8(OF)8
_chemical_formula_sum   'Mg1 V8 O8 F8'
_cell_volume   294.93980412
_cell_formula_units_Z   1
loop_
 _symmetry_equiv_pos_site_id
 _symmetry_equiv_pos_as_xyz
  1  'x, y, z'
loop_
 _atom_site_type_symbol
 _atom_site_label
 _atom_site_symmetry_multiplicity
 _atom_site_fract_x
 _atom_site_fract_y
 _atom_site_fract_z
 _atom_site_occupancy
  Mg  Mg0  1  0.00471600  0.62355700  0.12982700  1
  V  V0  1  0.46463500  0.25507000  0.75329000  1
  V  V1  1  0.54217400  0.99199700  0.50247900  1
  V  V2  1  0.52242000  0.74755000  0.25652700  1
  V  V3  1  0.48621000  0.49933100  0.00145800  1
  V  V4  1  0.97907800  0.23427400  0.25408200  1
  V  V5  1  0.06465800  0.78527300  0.70929100  1
  V  V6  1  0.94162100  0.46102700  0.54956700  1
  V  V7  1  0.02839100  0.01275400  0.00185600  1
  O  O0  1  0.79127800  0.30179700  0.53340100  1
  O  O1  1  0.80743800  0.06877200  0.26415700  1
  O  O2  1  0.71411100  0.82865000  0.53585800  1
  O  O3  1  0.69642100  0.56462800  0.30890500  1
  O  O4  1  0.29281100  0.41846400  0.72222900  1
  O  O5  1  0.31237900  0.68224700  0.94954500  1
  O  O6  1  0.21488500  0.94482400  0.72227400  1
  O  O7  1  0.19961300  0.17835200  0.99124300  1
  F  F0  1  0.83520900  0.57153900  0.81715500  1
  F  F1  1  0.85911000  0.81969100  0.03429600  1
  F  F2  1  0.70143400  0.07778700  0.78116900  1
  F  F3  1  0.68727100  0.31964300  0.03040400  1
  F  F4  1  0.32232800  0.92752400  0.22406500  1
  F  F5  1  0.30483400  0.16943000  0.47463900  1
  F  F6  1  0.17423300  0.67632400  0.44100800  1
  F  F7  1  0.14996200  0.42699600  0.22556100  1
loop_
_geom_bond_atom_site_label_1
_geom_bond_atom_site_label_2
_geom_bond_distance
_geom_bond_site_symmetry_2
Mg0 O3 1.905856 1_455
Mg0 O5 1.906089 1_554
O0 V6 1.899928 1_555
O0 V4 2.035780 1_555
O0 V0 2.070913 1_555
O1 V7 1.987103 1_655
O1 V4 1.990185 1_555
O1 V1 2.007018 1_545
O2 V1 1.915907 1_555
O2 V5 1.968659 1_655
O2 V2 2.113712 1_555
O3 V6 2.009372 1_555
O3 V2 2.110849 1_555
O3 V3 2.202415 1_555
O4 V0 1.916400 1_555
O4 V6 1.967999 1_455
O4 V3 2.115638 1_556
O5 V5 2.012098 1_555
O5 V3 2.110423 1_556
O5 V2 2.199899 1_556
O6 V5 1.900298 1_555
O6 V7 2.036090 1_566
O6 V1 2.074011 1_555
O7 V4 1.988028 1_456
O7 V7 1.990007 1_556
O7 V0 2.004693 1_555
F0 Mg0 2.085092 1_656
F0 V6 2.098043 1_555
F0 V3 2.125723 1_556
F0 V5 2.605620 1_655
F1 V5 2.172975 1_654
F1 V2 2.186356 1_555
F1 Mg0 2.214650 1_655
F1 V7 2.252854 1_665
F2 V7 2.059627 1_656
F2 V1 2.073366 1_545
F2 V0 2.191151 1_555
F3 V4 2.013415 1_555
F3 V0 2.090651 1_554
F3 V3 2.132959 1_555
F4 V7 2.015258 1_565
F4 V1 2.089003 1_555
F4 V2 2.133030 1_555
F5 V4 2.054335 1_455
F5 V0 2.073288 1_555
F5 V1 2.193842 1_545
F6 Mg0 2.080830 1_555
F6 V5 2.094081 1_555
F6 V2 2.119453 1_555
F6 V6 2.627919 1_455
F7 V6 2.173356 1_455
F7 V3 2.191167 1_555
F7 Mg0 2.218528 1_555
F7 V4 2.253114 1_455
