# generated using pymatgen
data_MgZn
_symmetry_space_group_name_H-M   'P 1'
_cell_length_a   15.47920741
_cell_length_b   15.47920741
_cell_length_c   9.60060800
_cell_angle_alpha   90.00000000
_cell_angle_beta   90.00000000
_cell_angle_gamma   157.27274281
_symmetry_Int_Tables_number   1
_chemical_formula_structural   MgZn
_chemical_formula_sum   'Mg24 Zn24'
_cell_volume   888.73305423
_cell_formula_units_Z   24
loop_
 _symmetry_equiv_pos_site_id
 _symmetry_equiv_pos_as_xyz
  1  'x, y, z'
loop_
 _atom_site_type_symbol
 _atom_site_label
 _atom_site_symmetry_multiplicity
 _atom_site_fract_x
 _atom_site_fract_y
 _atom_site_fract_z
 _atom_site_occupancy
  Mg  Mg0_0  1  0.49914300  0.00085700  0.00000000  1
  Mg  Mg0_1  1  0.49914300  0.00085700  0.50000000  1
  Mg  Mg0_2  1  0.49914300  0.50085700  0.00000000  1
  Mg  Mg0_3  1  0.49914300  0.50085700  0.50000000  1
  Mg  Mg0_4  1  0.99914300  0.00085700  0.00000000  1
  Mg  Mg0_5  1  0.99914300  0.00085700  0.50000000  1
  Mg  Mg0_6  1  0.99914300  0.50085700  0.00000000  1
  Mg  Mg0_7  1  0.99914300  0.50085700  0.50000000  1
  Mg  Mg1_0  1  0.33652450  0.16347550  0.00000000  1
  Mg  Mg1_1  1  0.33652450  0.16347550  0.50000000  1
  Mg  Mg1_2  1  0.33652450  0.66347550  0.00000000  1
  Mg  Mg1_3  1  0.33652450  0.66347550  0.50000000  1
  Mg  Mg1_4  1  0.83652450  0.16347550  0.00000000  1
  Mg  Mg1_5  1  0.83652450  0.16347550  0.50000000  1
  Mg  Mg1_6  1  0.83652450  0.66347550  0.00000000  1
  Mg  Mg1_7  1  0.83652450  0.66347550  0.50000000  1
  Mg  Mg2_0  1  0.21963950  0.28036050  0.25000000  1
  Mg  Mg2_1  1  0.21963950  0.28036050  0.75000000  1
  Mg  Mg2_2  1  0.21963950  0.78036050  0.25000000  1
  Mg  Mg2_3  1  0.21963950  0.78036050  0.75000000  1
  Mg  Mg2_4  1  0.71963950  0.28036050  0.25000000  1
  Mg  Mg2_5  1  0.71963950  0.28036050  0.75000000  1
  Mg  Mg2_6  1  0.71963950  0.78036050  0.25000000  1
  Mg  Mg2_7  1  0.71963950  0.78036050  0.75000000  1
  Zn  Zn0_0  1  0.16662050  0.33337950  0.00000000  1
  Zn  Zn0_1  1  0.16662050  0.33337950  0.50000000  1
  Zn  Zn0_2  1  0.16662050  0.83337950  0.00000000  1
  Zn  Zn0_3  1  0.16662050  0.83337950  0.50000000  1
  Zn  Zn0_4  1  0.66662050  0.33337950  0.00000000  1
  Zn  Zn0_5  1  0.66662050  0.33337950  0.50000000  1
  Zn  Zn0_6  1  0.66662050  0.83337950  0.00000000  1
  Zn  Zn0_7  1  0.66662050  0.83337950  0.50000000  1
  Zn  Zn1_0  1  0.05656500  0.44343500  0.25000000  1
  Zn  Zn1_1  1  0.05656500  0.44343500  0.75000000  1
  Zn  Zn1_2  1  0.05656500  0.94343500  0.25000000  1
  Zn  Zn1_3  1  0.05656500  0.94343500  0.75000000  1
  Zn  Zn1_4  1  0.55656500  0.44343500  0.25000000  1
  Zn  Zn1_5  1  0.55656500  0.44343500  0.75000000  1
  Zn  Zn1_6  1  0.55656500  0.94343500  0.25000000  1
  Zn  Zn1_7  1  0.55656500  0.94343500  0.75000000  1
  Zn  Zn2_0  1  0.38817400  0.11182600  0.25000000  1
  Zn  Zn2_1  1  0.38817400  0.11182600  0.75000000  1
  Zn  Zn2_2  1  0.38817400  0.61182600  0.25000000  1
  Zn  Zn2_3  1  0.38817400  0.61182600  0.75000000  1
  Zn  Zn2_4  1  0.88817400  0.11182600  0.25000000  1
  Zn  Zn2_5  1  0.88817400  0.11182600  0.75000000  1
  Zn  Zn2_6  1  0.88817400  0.61182600  0.25000000  1
  Zn  Zn2_7  1  0.88817400  0.61182600  0.75000000  1
loop_
_geom_bond_atom_site_label_1
_geom_bond_atom_site_label_2
_geom_bond_distance
_geom_bond_site_symmetry_2
Mg0_0 Zn0_2 2.932402 1_545
Mg0_0 Zn0_4 2.932402 1_555
Mg0_0 Zn1_6 2.966182 1_545
Mg0_0 Zn1_7 2.966182 1_544
Mg0_0 Mg2_4 2.981300 1_555
Mg0_0 Mg2_2 2.981300 1_545
Mg0_0 Mg2_3 2.981300 1_544
Mg0_0 Mg2_5 2.981300 1_554
Mg0_0 Mg0_6 3.049946 1_555
Mg0_0 Mg0_6 3.049946 1_445
Mg0_0 Mg1_4 3.059330 1_555
Mg0_0 Mg1_2 3.059330 1_545
Mg0_1 Zn0_3 2.932402 1_545
Mg0_1 Zn0_5 2.932402 1_555
Mg0_1 Zn1_7 2.966182 1_545
Mg0_1 Zn1_6 2.966182 1_545
Mg0_1 Mg2_3 2.981300 1_545
Mg0_1 Mg2_5 2.981300 1_555
Mg0_1 Mg2_4 2.981300 1_555
Mg0_1 Mg2_2 2.981300 1_545
Mg0_1 Mg0_7 3.049946 1_445
Mg0_1 Mg0_7 3.049946 1_555
Mg0_1 Mg1_5 3.059330 1_555
Mg0_1 Mg1_3 3.059330 1_545
Mg0_2 Zn0_6 2.932402 1_555
Mg0_2 Zn0_0 2.932402 1_555
Mg0_2 Zn1_4 2.966182 1_555
Mg0_2 Zn1_5 2.966182 1_554
Mg0_2 Mg2_6 2.981300 1_555
Mg0_2 Mg2_0 2.981300 1_555
Mg0_2 Mg2_7 2.981300 1_554
Mg0_2 Mg2_1 2.981300 1_554
Mg0_2 Mg0_4 3.049946 1_565
Mg0_2 Mg0_4 3.049946 1_455
Mg0_2 Mg1_0 3.059330 1_555
Mg0_2 Mg1_6 3.059330 1_555
Mg0_3 Zn0_7 2.932402 1_555
Mg0_3 Zn0_1 2.932402 1_555
Mg0_3 Zn1_5 2.966182 1_555
Mg0_3 Zn1_4 2.966182 1_555
Mg0_3 Mg2_7 2.981300 1_555
Mg0_3 Mg2_1 2.981300 1_555
Mg0_3 Mg2_6 2.981300 1_555
Mg0_3 Mg2_0 2.981300 1_555
Mg0_3 Mg0_5 3.049946 1_565
Mg0_3 Mg0_5 3.049946 1_455
Mg0_3 Mg1_1 3.059330 1_555
Mg0_3 Mg1_7 3.059330 1_555
Mg0_4 Zn0_6 2.932402 1_545
Mg0_4 Zn0_0 2.932402 1_655
Mg0_4 Zn1_2 2.966182 1_645
Mg0_4 Zn1_3 2.966182 1_644
Mg0_4 Mg2_6 2.981300 1_545
Mg0_4 Mg2_7 2.981300 1_544
Mg0_4 Mg2_0 2.981300 1_655
Mg0_4 Mg2_1 2.981300 1_654
Mg0_4 Mg1_6 3.059330 1_545
Mg0_4 Mg1_0 3.059330 1_655
Mg0_5 Zn0_7 2.932402 1_545
Mg0_5 Zn0_1 2.932402 1_655
Mg0_5 Zn1_3 2.966182 1_645
Mg0_5 Zn1_2 2.966182 1_645
Mg0_5 Mg2_7 2.981300 1_545
Mg0_5 Mg2_1 2.981300 1_655
Mg0_5 Mg2_6 2.981300 1_545
Mg0_5 Mg2_0 2.981300 1_655
Mg0_5 Mg1_7 3.059330 1_545
Mg0_5 Mg1_1 3.059330 1_655
Mg0_6 Zn0_2 2.932402 1_655
Mg0_6 Zn0_4 2.932402 1_555
Mg0_6 Zn1_0 2.966182 1_655
Mg0_6 Zn1_1 2.966182 1_654
Mg0_6 Mg2_4 2.981300 1_555
Mg0_6 Mg2_2 2.981300 1_655
Mg0_6 Mg2_5 2.981300 1_554
Mg0_6 Mg2_3 2.981300 1_654
Mg0_6 Mg1_4 3.059330 1_555
Mg0_6 Mg1_2 3.059330 1_655
Mg0_7 Zn0_3 2.932402 1_655
Mg0_7 Zn0_5 2.932402 1_555
Mg0_7 Zn1_1 2.966182 1_655
Mg0_7 Zn1_0 2.966182 1_655
Mg0_7 Mg2_3 2.981300 1_655
Mg0_7 Mg2_5 2.981300 1_555
Mg0_7 Mg2_4 2.981300 1_555
Mg0_7 Mg2_2 2.981300 1_655
Mg0_7 Mg1_5 3.059330 1_555
Mg0_7 Mg1_3 3.059330 1_655
Mg1_0 Zn2_0 2.866745 1_555
Mg1_0 Zn2_1 2.866745 1_554
Mg1_0 Zn0_4 2.869752 1_555
Mg1_0 Zn0_2 2.869752 1_545
Mg1_0 Zn1_2 2.985486 1_545
Mg1_0 Zn1_3 2.985486 1_544
Mg1_0 Zn1_4 2.985486 1_555
Mg1_0 Zn1_5 2.985486 1_554
Mg1_0 Mg1_6 3.049946 1_445
Mg1_0 Mg1_6 3.049946 1_555
Mg1_1 Zn2_1 2.866745 1_555
Mg1_1 Zn2_0 2.866745 1_555
Mg1_1 Zn0_5 2.869752 1_555
Mg1_1 Zn0_3 2.869752 1_545
Mg1_1 Zn1_3 2.985486 1_545
Mg1_1 Zn1_2 2.985486 1_545
Mg1_1 Zn1_5 2.985486 1_555
Mg1_1 Zn1_4 2.985486 1_555
Mg1_1 Mg1_7 3.049946 1_555
Mg1_1 Mg1_7 3.049946 1_445
Mg1_2 Zn2_2 2.866745 1_555
Mg1_2 Zn2_3 2.866745 1_554
Mg1_2 Zn0_0 2.869752 1_555
Mg1_2 Zn0_6 2.869752 1_555
Mg1_2 Zn1_6 2.985486 1_555
Mg1_2 Zn1_0 2.985486 1_555
Mg1_2 Zn1_1 2.985486 1_554
Mg1_2 Zn1_7 2.985486 1_554
Mg1_2 Mg1_4 3.049946 1_565
Mg1_2 Mg1_4 3.049946 1_455
Mg1_3 Zn2_3 2.866745 1_555
Mg1_3 Zn2_2 2.866745 1_555
Mg1_3 Zn0_1 2.869752 1_555
Mg1_3 Zn0_7 2.869752 1_555
Mg1_3 Zn1_7 2.985486 1_555
Mg1_3 Zn1_1 2.985486 1_555
Mg1_3 Zn1_6 2.985486 1_555
Mg1_3 Zn1_0 2.985486 1_555
Mg1_3 Mg1_5 3.049946 1_565
Mg1_3 Mg1_5 3.049946 1_455
Mg1_4 Zn2_4 2.866745 1_555
Mg1_4 Zn2_5 2.866745 1_554
Mg1_4 Zn0_0 2.869752 1_655
Mg1_4 Zn0_6 2.869752 1_545
Mg1_4 Zn1_0 2.985486 1_655
Mg1_4 Zn1_6 2.985486 1_545
Mg1_4 Zn1_7 2.985486 1_544
Mg1_4 Zn1_1 2.985486 1_654
Mg1_5 Zn2_5 2.866745 1_555
Mg1_5 Zn2_4 2.866745 1_555
Mg1_5 Zn0_1 2.869752 1_655
Mg1_5 Zn0_7 2.869752 1_545
Mg1_5 Zn1_7 2.985486 1_545
Mg1_5 Zn1_1 2.985486 1_655
Mg1_5 Zn1_0 2.985486 1_655
Mg1_5 Zn1_6 2.985486 1_545
Mg1_6 Zn2_6 2.866745 1_555
Mg1_6 Zn2_7 2.866745 1_554
Mg1_6 Zn0_4 2.869752 1_555
Mg1_6 Zn0_2 2.869752 1_655
Mg1_6 Zn1_2 2.985486 1_655
Mg1_6 Zn1_3 2.985486 1_654
Mg1_6 Zn1_4 2.985486 1_555
Mg1_6 Zn1_5 2.985486 1_554
Mg1_7 Zn2_7 2.866745 1_555
Mg1_7 Zn2_6 2.866745 1_555
Mg1_7 Zn0_5 2.869752 1_555
Mg1_7 Zn0_3 2.869752 1_655
Mg1_7 Zn1_3 2.985486 1_655
Mg1_7 Zn1_2 2.985486 1_655
Mg1_7 Zn1_5 2.985486 1_555
Mg1_7 Zn1_4 2.985486 1_555
Mg2_0 Zn0_0 2.889685 1_555
Mg2_0 Zn0_1 2.889685 1_555
Mg2_0 Zn2_2 2.905048 1_555
Mg2_0 Zn2_4 2.905048 1_455
Mg2_0 Zn1_4 3.047340 1_555
Mg2_0 Zn1_2 3.047340 1_545
Mg2_0 Mg2_6 3.049946 1_445
Mg2_0 Mg2_6 3.049946 1_555
Mg2_1 Zn0_1 2.889685 1_555
Mg2_1 Zn0_0 2.889685 1_556
Mg2_1 Zn2_3 2.905048 1_555
Mg2_1 Zn2_5 2.905048 1_455
Mg2_1 Zn1_5 3.047340 1_555
Mg2_1 Zn1_3 3.047340 1_545
Mg2_1 Mg2_7 3.049946 1_445
Mg2_1 Mg2_7 3.049946 1_555
Mg2_2 Zn0_3 2.889685 1_555
Mg2_2 Zn0_2 2.889685 1_555
Mg2_2 Zn2_0 2.905048 1_565
Mg2_2 Zn2_6 2.905048 1_455
Mg2_2 Zn1_0 3.047340 1_555
Mg2_2 Zn1_6 3.047340 1_555
Mg2_2 Mg2_4 3.049946 1_565
Mg2_2 Mg2_4 3.049946 1_455
Mg2_3 Zn0_3 2.889685 1_555
Mg2_3 Zn0_2 2.889685 1_556
Mg2_3 Zn2_1 2.905048 1_565
Mg2_3 Zn2_7 2.905048 1_455
Mg2_3 Zn1_1 3.047340 1_555
Mg2_3 Zn1_7 3.047340 1_555
Mg2_3 Mg2_5 3.049946 1_455
Mg2_3 Mg2_5 3.049946 1_565
Mg2_4 Zn0_5 2.889685 1_555
Mg2_4 Zn0_4 2.889685 1_555
Mg2_4 Zn2_6 2.905048 1_555
Mg2_4 Zn2_0 2.905048 1_555
Mg2_4 Zn1_6 3.047340 1_545
Mg2_4 Zn1_0 3.047340 1_655
Mg2_5 Zn0_5 2.889685 1_555
Mg2_5 Zn0_4 2.889685 1_556
Mg2_5 Zn2_7 2.905048 1_555
Mg2_5 Zn2_1 2.905048 1_555
Mg2_5 Zn1_7 3.047340 1_545
Mg2_5 Zn1_1 3.047340 1_655
Mg2_6 Zn0_6 2.889685 1_555
Mg2_6 Zn0_7 2.889685 1_555
Mg2_6 Zn2_2 2.905048 1_555
Mg2_6 Zn2_4 2.905048 1_565
Mg2_6 Zn1_4 3.047340 1_555
Mg2_6 Zn1_2 3.047340 1_655
Mg2_7 Zn0_7 2.889685 1_555
Mg2_7 Zn0_6 2.889685 1_556
Mg2_7 Zn2_3 2.905048 1_555
Mg2_7 Zn2_5 2.905048 1_565
Mg2_7 Zn1_5 3.047340 1_555
Mg2_7 Zn1_3 3.047340 1_655
Zn0_0 Zn2_2 2.971821 1_555
Zn0_0 Zn2_3 2.971821 1_554
Zn0_0 Zn2_4 2.971821 1_455
Zn0_0 Zn2_5 2.971821 1_454
Zn0_1 Zn2_3 2.971821 1_555
Zn0_1 Zn2_2 2.971821 1_555
Zn0_1 Zn2_5 2.971821 1_455
Zn0_1 Zn2_4 2.971821 1_455
Zn0_2 Zn2_0 2.971821 1_565
Zn0_2 Zn2_1 2.971821 1_564
Zn0_2 Zn2_6 2.971821 1_455
Zn0_2 Zn2_7 2.971821 1_454
Zn0_3 Zn2_1 2.971821 1_565
Zn0_3 Zn2_0 2.971821 1_565
Zn0_3 Zn2_7 2.971821 1_455
Zn0_3 Zn2_6 2.971821 1_455
Zn0_4 Zn2_6 2.971821 1_555
Zn0_4 Zn2_7 2.971821 1_554
Zn0_4 Zn2_0 2.971821 1_555
Zn0_4 Zn2_1 2.971821 1_554
Zn0_5 Zn2_7 2.971821 1_555
Zn0_5 Zn2_6 2.971821 1_555
Zn0_5 Zn2_1 2.971821 1_555
Zn0_5 Zn2_0 2.971821 1_555
Zn0_6 Zn2_4 2.971821 1_565
Zn0_6 Zn2_5 2.971821 1_564
Zn0_6 Zn2_2 2.971821 1_555
Zn0_6 Zn2_3 2.971821 1_554
Zn0_7 Zn2_5 2.971821 1_565
Zn0_7 Zn2_4 2.971821 1_565
Zn0_7 Zn2_3 2.971821 1_555
Zn0_7 Zn2_2 2.971821 1_555
Zn1_0 Zn2_4 2.908756 1_455
Zn1_0 Zn2_2 2.908756 1_555
Zn1_0 Zn1_6 3.049946 1_445
Zn1_0 Zn1_6 3.049946 1_555
Zn1_1 Zn2_5 2.908756 1_455
Zn1_1 Zn2_3 2.908756 1_555
Zn1_1 Zn1_7 3.049946 1_445
Zn1_1 Zn1_7 3.049946 1_555
Zn1_2 Zn2_0 2.908756 1_565
Zn1_2 Zn2_6 2.908756 1_455
Zn1_2 Zn1_4 3.049946 1_565
Zn1_2 Zn1_4 3.049946 1_455
Zn1_3 Zn2_1 2.908756 1_565
Zn1_3 Zn2_7 2.908756 1_455
Zn1_3 Zn1_5 3.049946 1_565
Zn1_3 Zn1_5 3.049946 1_455
Zn1_4 Zn2_6 2.908756 1_555
Zn1_4 Zn2_0 2.908756 1_555
Zn1_5 Zn2_7 2.908756 1_555
Zn1_5 Zn2_1 2.908756 1_555
Zn1_6 Zn2_4 2.908756 1_565
Zn1_6 Zn2_2 2.908756 1_555
Zn1_7 Zn2_5 2.908756 1_565
Zn1_7 Zn2_3 2.908756 1_555
Zn2_0 Zn2_6 3.049946 1_555
Zn2_0 Zn2_6 3.049946 1_445
Zn2_1 Zn2_7 3.049946 1_555
Zn2_1 Zn2_7 3.049946 1_445
Zn2_2 Zn2_4 3.049946 1_565
Zn2_2 Zn2_4 3.049946 1_455
Zn2_3 Zn2_5 3.049946 1_565
Zn2_3 Zn2_5 3.049946 1_455
