# generated using pymatgen
data_Ba3P3ClO10
_symmetry_space_group_name_H-M   'P 1'
_cell_length_a   5.68313800
_cell_length_b   14.39661200
_cell_length_c   14.50718600
_cell_angle_alpha   90.00000000
_cell_angle_beta   90.00000000
_cell_angle_gamma   90.00000000
_symmetry_Int_Tables_number   1
_chemical_formula_structural   Ba3P3ClO10
_chemical_formula_sum   'Ba12 P12 Cl4 O40'
_cell_volume   1186.94796823
_cell_formula_units_Z   4
loop_
 _symmetry_equiv_pos_site_id
 _symmetry_equiv_pos_as_xyz
  1  'x, y, z'
loop_
 _atom_site_type_symbol
 _atom_site_label
 _atom_site_symmetry_multiplicity
 _atom_site_fract_x
 _atom_site_fract_y
 _atom_site_fract_z
 _atom_site_occupancy
  Ba  Ba0  1  0.98789700  0.67010500  0.94217200  1
  Ba  Ba1  1  0.01210300  0.17010500  0.05782800  1
  Ba  Ba2  1  0.98789700  0.17010500  0.55782800  1
  Ba  Ba3  1  0.01210300  0.67010500  0.44217200  1
  Ba  Ba4  1  0.99775800  0.45692900  0.20274300  1
  Ba  Ba5  1  0.00224200  0.95692900  0.79725700  1
  Ba  Ba6  1  0.99775800  0.95692900  0.29725700  1
  Ba  Ba7  1  0.00224200  0.45692900  0.70274300  1
  Ba  Ba8  1  0.49915700  0.74325800  0.18290800  1
  Ba  Ba9  1  0.50084300  0.24325800  0.81709200  1
  Ba  Ba10  1  0.49915700  0.24325800  0.31709200  1
  Ba  Ba11  1  0.50084300  0.74325800  0.68290800  1
  P  P0  1  0.51405900  0.31058900  0.08476700  1
  P  P1  1  0.48594100  0.81058900  0.91523300  1
  P  P2  1  0.51405900  0.81058900  0.41523300  1
  P  P3  1  0.48594100  0.31058900  0.58476700  1
  P  P4  1  0.50279900  0.51827500  0.03436400  1
  P  P5  1  0.49720100  0.01827500  0.96563600  1
  P  P6  1  0.50279900  0.01827500  0.46563600  1
  P  P7  1  0.49720100  0.51827500  0.53436400  1
  P  P8  1  0.50929500  0.53809200  0.82289200  1
  P  P9  1  0.49070500  0.03809200  0.17710800  1
  P  P10  1  0.50929500  0.03809200  0.67710800  1
  P  P11  1  0.49070500  0.53809200  0.32289200  1
  Cl  Cl0  1  0.99614800  0.80833200  0.12095500  1
  Cl  Cl1  1  0.00385200  0.30833200  0.87904500  1
  Cl  Cl2  1  0.99614800  0.30833200  0.37904500  1
  Cl  Cl3  1  0.00385200  0.80833200  0.62095500  1
  O  O0  1  0.51739700  0.43716600  0.79228700  1
  O  O1  1  0.48260300  0.93716600  0.20771300  1
  O  O2  1  0.51739700  0.93716600  0.70771300  1
  O  O3  1  0.48260300  0.43716600  0.29228700  1
  O  O4  1  0.24632100  0.54004000  0.05053400  1
  O  O5  1  0.75367900  0.04004000  0.94946600  1
  O  O6  1  0.24632100  0.04004000  0.44946600  1
  O  O7  1  0.75367900  0.54004000  0.55053400  1
  O  O8  1  0.51749600  0.23792800  0.00834400  1
  O  O9  1  0.48250400  0.73792800  0.99165600  1
  O  O10  1  0.51749600  0.73792800  0.49165600  1
  O  O11  1  0.48250400  0.23792800  0.50834400  1
  O  O12  1  0.70676100  0.59702900  0.77990700  1
  O  O13  1  0.29323900  0.09702900  0.22009300  1
  O  O14  1  0.70676100  0.09702900  0.72009300  1
  O  O15  1  0.29323900  0.59702900  0.27990700  1
  O  O16  1  0.28140800  0.31277000  0.13811000  1
  O  O17  1  0.71859200  0.81277000  0.86189000  1
  O  O18  1  0.28140800  0.81277000  0.36189000  1
  O  O19  1  0.71859200  0.31277000  0.63811000  1
  O  O20  1  0.26471800  0.58177900  0.81587500  1
  O  O21  1  0.73528200  0.08177900  0.18412500  1
  O  O22  1  0.26471800  0.08177900  0.68412500  1
  O  O23  1  0.73528200  0.58177900  0.31587500  1
  O  O24  1  0.72959500  0.30321200  0.14837600  1
  O  O25  1  0.27040500  0.80321200  0.85162400  1
  O  O26  1  0.72959500  0.80321200  0.35162400  1
  O  O27  1  0.27040500  0.30321200  0.64837600  1
  O  O28  1  0.59029800  0.54467400  0.93272100  1
  O  O29  1  0.40970200  0.04467400  0.06727900  1
  O  O30  1  0.59029800  0.04467400  0.56727900  1
  O  O31  1  0.40970200  0.54467400  0.43272100  1
  O  O32  1  0.54498000  0.40904800  0.02999500  1
  O  O33  1  0.45502000  0.90904800  0.97000500  1
  O  O34  1  0.54498000  0.90904800  0.47000500  1
  O  O35  1  0.45502000  0.40904800  0.52999500  1
  O  O36  1  0.68034300  0.56423500  0.09776400  1
  O  O37  1  0.31965700  0.06423500  0.90223600  1
  O  O38  1  0.68034300  0.06423500  0.40223600  1
  O  O39  1  0.31965700  0.56423500  0.59776400  1
loop_
_geom_bond_atom_site_label_1
_geom_bond_atom_site_label_2
_geom_bond_distance
_geom_bond_site_symmetry_2
Ba0 O20 2.729278 1_655
Ba0 O17 2.813778 1_555
Ba0 O25 2.824081 1_655
Ba0 O4 2.852099 1_656
Ba0 O28 2.895770 1_555
Ba0 O12 3.033301 1_555
Ba0 O9 3.061047 1_655
Ba0 O9 3.117431 1_555
Ba0 O36 3.236218 1_556
Ba0 Cl0 3.269443 1_556
Ba1 O21 2.729278 1_455
Ba1 O16 2.813778 1_555
Ba1 O24 2.824081 1_455
Ba1 O5 2.852099 1_454
Ba1 O29 2.895770 1_555
Ba1 O13 3.033301 1_555
Ba1 O8 3.061047 1_455
Ba1 O8 3.117431 1_555
Ba1 O37 3.236218 1_554
Ba1 Cl1 3.269443 1_554
Ba2 O22 2.729278 1_655
Ba2 O19 2.813778 1_555
Ba2 O27 2.824081 1_655
Ba2 O6 2.852099 1_655
Ba2 O30 2.895770 1_555
Ba2 O14 3.033301 1_555
Ba2 O11 3.061047 1_655
Ba2 O11 3.117431 1_555
Ba2 O38 3.236218 1_555
Ba2 Cl2 3.269443 1_555
Ba3 O23 2.729278 1_455
Ba3 O18 2.813778 1_555
Ba3 O26 2.824081 1_455
Ba3 O7 2.852099 1_455
Ba3 O31 2.895770 1_555
Ba3 O15 3.033301 1_555
Ba3 O10 3.061047 1_455
Ba3 O10 3.117431 1_555
Ba3 O39 3.236218 1_555
Ba3 Cl3 3.269443 1_555
Ba4 O16 2.790176 1_655
Ba4 O24 2.800366 1_555
Ba4 O36 2.821351 1_555
Ba4 O15 2.853277 1_655
Ba4 O23 2.854727 1_555
Ba4 O4 2.881485 1_655
Ba4 O3 3.059557 1_655
Ba4 O3 3.215563 1_555
Ba4 Cl2 3.334398 1_555
Ba5 O17 2.790176 1_455
Ba5 O25 2.800366 1_555
Ba5 O37 2.821351 1_565
Ba5 O14 2.853277 1_465
Ba5 O22 2.854727 1_565
Ba5 O5 2.881485 1_465
Ba5 O2 3.059557 1_455
Ba5 O2 3.215563 1_555
Ba5 Cl3 3.334398 1_555
Ba6 O18 2.790176 1_655
Ba6 O26 2.800366 1_555
Ba6 O38 2.821351 1_565
Ba6 O13 2.853277 1_665
Ba6 O21 2.854727 1_565
Ba6 O6 2.881485 1_665
Ba6 O1 3.059557 1_655
Ba6 O1 3.215563 1_555
Ba6 Cl0 3.334398 1_555
Ba7 O19 2.790176 1_455
Ba7 O27 2.800366 1_555
Ba7 O39 2.821351 1_555
Ba7 O12 2.853277 1_455
Ba7 O20 2.854727 1_555
Ba7 O7 2.881485 1_455
Ba7 O0 3.059557 1_455
Ba7 O0 3.215563 1_555
Ba7 Cl1 3.334398 1_555
Ba8 O9 2.777202 1_554
Ba8 O15 2.789543 1_555
Ba8 O1 2.816288 1_555
Ba8 O26 2.907026 1_555
Ba8 O36 3.037863 1_555
Ba8 O18 3.045459 1_555
Ba8 Cl0 3.108549 1_555
Ba8 Cl0 3.139657 1_455
Ba8 O23 3.305480 1_555
Ba9 O8 2.777202 1_556
Ba9 O14 2.789543 1_555
Ba9 O0 2.816288 1_555
Ba9 O27 2.907026 1_555
Ba9 O37 3.037863 1_555
Ba9 O19 3.045459 1_555
Ba9 Cl1 3.108549 1_555
Ba9 Cl1 3.139657 1_655
Ba9 O22 3.305480 1_555
Ba10 O11 2.777202 1_555
Ba10 O13 2.789543 1_555
Ba10 O3 2.816288 1_555
Ba10 O24 2.907026 1_555
Ba10 O38 3.037863 1_555
Ba10 O16 3.045459 1_555
Ba10 Cl2 3.108549 1_555
Ba10 Cl2 3.139657 1_455
Ba10 O21 3.305480 1_555
Ba11 O10 2.777202 1_555
Ba11 O12 2.789543 1_555
Ba11 O2 2.816288 1_555
Ba11 O25 2.907026 1_555
Ba11 O39 3.037863 1_555
Ba11 O17 3.045459 1_555
Ba11 Cl3 3.108549 1_555
Ba11 Cl3 3.139657 1_655
Ba11 O20 3.305480 1_555
O0 P8 1.520012 1_555
O1 P9 1.520012 1_565
O2 P10 1.520012 1_565
O3 P11 1.520012 1_555
O4 P4 1.509241 1_555
O5 P5 1.509241 1_555
O6 P6 1.509241 1_555
O7 P7 1.509241 1_555
O8 P0 1.524410 1_555
O9 P1 1.524410 1_555
O10 P2 1.524410 1_555
O11 P3 1.524410 1_555
O12 P8 1.538895 1_555
O13 P9 1.538895 1_555
O14 P10 1.538895 1_555
O15 P11 1.538895 1_555
O16 P0 1.532325 1_555
O17 P1 1.532325 1_555
O18 P2 1.532325 1_555
O19 P3 1.532325 1_555
O20 P8 1.529031 1_555
O21 P9 1.529031 1_555
O22 P10 1.529031 1_555
O23 P11 1.529031 1_555
O24 P0 1.537286 1_555
O25 P1 1.537286 1_555
O26 P2 1.537286 1_555
O27 P3 1.537286 1_555
O28 P4 1.601883 1_556
O28 P8 1.661186 1_555
O29 P5 1.601883 1_554
O29 P9 1.661186 1_555
O30 P6 1.601883 1_555
O30 P10 1.661186 1_555
O31 P7 1.601883 1_555
O31 P11 1.661186 1_555
O32 P4 1.591928 1_555
O32 P0 1.634469 1_555
O33 P5 1.591928 1_565
O33 P1 1.634469 1_555
O34 P6 1.591928 1_565
O34 P2 1.634469 1_555
O35 P7 1.591928 1_555
O35 P3 1.634469 1_555
O36 P4 1.517185 1_555
O37 P5 1.517185 1_555
O38 P6 1.517185 1_555
O39 P7 1.517185 1_555
