# generated using pymatgen
data_Ba2CuP2O9
_symmetry_space_group_name_H-M   'P 1'
_cell_length_a   5.82243100
_cell_length_b   8.48997100
_cell_length_c   9.04736470
_cell_angle_alpha   67.79646642
_cell_angle_beta   90.00000000
_cell_angle_gamma   90.00000000
_symmetry_Int_Tables_number   1
_chemical_formula_structural   Ba2CuP2O9
_chemical_formula_sum   'Ba4 Cu2 P4 O18'
_cell_volume   414.06832499
_cell_formula_units_Z   2
loop_
 _symmetry_equiv_pos_site_id
 _symmetry_equiv_pos_as_xyz
  1  'x, y, z'
loop_
 _atom_site_type_symbol
 _atom_site_label
 _atom_site_symmetry_multiplicity
 _atom_site_fract_x
 _atom_site_fract_y
 _atom_site_fract_z
 _atom_site_occupancy
  Ba  Ba0  1  0.75000000  0.79093000  0.09358400  1
  Ba  Ba1  1  0.25000000  0.20907000  0.90641600  1
  Ba  Ba2  1  0.75000000  0.19674700  0.28199900  1
  Ba  Ba3  1  0.25000000  0.80325300  0.71800100  1
  Cu  Cu0  1  0.50000000  0.50000000  0.50000000  1
  Cu  Cu1  1  0.00000000  0.50000000  0.50000000  1
  P  P0  1  0.25000000  0.50793400  0.18724000  1
  P  P1  1  0.75000000  0.49206600  0.81276000  1
  P  P2  1  0.25000000  0.94209700  0.30265400  1
  P  P3  1  0.75000000  0.05790300  0.69734600  1
  O  O0  1  0.47516200  0.49436900  0.29058700  1
  O  O1  1  0.97516200  0.50563100  0.70941300  1
  O  O2  1  0.52483800  0.50563100  0.70941300  1
  O  O3  1  0.02483800  0.49436900  0.29058700  1
  O  O4  1  0.25000000  0.68131400  0.04851300  1
  O  O5  1  0.75000000  0.31868600  0.95148700  1
  O  O6  1  0.25000000  0.35863800  0.13153900  1
  O  O7  1  0.75000000  0.64136200  0.86846100  1
  O  O8  1  0.46628500  0.98094900  0.19485800  1
  O  O9  1  0.96628500  0.01905100  0.80514200  1
  O  O10  1  0.53371500  0.01905100  0.80514200  1
  O  O11  1  0.03371500  0.98094900  0.19485800  1
  O  O12  1  0.25000000  0.75806100  0.43193100  1
  O  O13  1  0.75000000  0.24193900  0.56806900  1
  O  O14  1  0.25000000  0.05648400  0.40332000  1
  O  O15  1  0.75000000  0.94351600  0.59668000  1
  O  O16  1  0.75000000  0.63258600  0.43512300  1
  O  O17  1  0.25000000  0.36741400  0.56487700  1
loop_
_geom_bond_atom_site_label_1
_geom_bond_atom_site_label_2
_geom_bond_distance
_geom_bond_site_symmetry_2
Ba0 O11 2.699654 1_655
Ba0 O8 2.699654 1_555
Ba0 O7 2.777705 1_554
Ba0 O16 2.866341 1_555
Ba0 O9 2.885670 1_564
Ba0 O10 2.885670 1_564
Ba0 O3 2.947048 1_655
Ba0 O0 2.947048 1_555
Ba0 O4 3.129594 1_555
Ba0 O4 3.129594 1_655
Ba1 O10 2.699654 1_555
Ba1 O9 2.699654 1_455
Ba1 O6 2.777705 1_556
Ba1 O17 2.866341 1_555
Ba1 O11 2.885670 1_546
Ba1 O8 2.885670 1_546
Ba1 O1 2.947048 1_455
Ba1 O2 2.947048 1_555
Ba1 O5 3.129594 1_455
Ba1 O5 3.129594 1_555
Ba2 O13 2.756159 1_555
Ba2 O5 2.770148 1_554
Ba2 O8 2.792622 1_545
Ba2 O11 2.792622 1_645
Ba2 O15 2.846334 1_545
Ba2 O3 3.016599 1_655
Ba2 O0 3.016599 1_555
Ba2 O14 3.179647 1_555
Ba2 O14 3.179647 1_655
Ba2 O6 3.286829 1_555
Ba2 O6 3.286829 1_655
Ba3 O12 2.756159 1_555
Ba3 O4 2.770148 1_556
Ba3 O10 2.792622 1_565
Ba3 O9 2.792622 1_465
Ba3 O14 2.846334 1_565
Ba3 O2 3.016599 1_555
Ba3 O1 3.016599 1_455
Ba3 O15 3.179647 1_455
Ba3 O15 3.179647 1_555
Ba3 O7 3.286829 1_555
Ba3 O7 3.286829 1_455
Cu0 O16 1.797511 1_555
Cu0 O17 1.797511 1_555
Cu0 O2 1.918672 1_555
Cu0 O0 1.918672 1_555
Cu0 O12 2.505685 1_555
Cu0 O13 2.505685 1_555
Cu1 O16 1.797511 1_455
Cu1 O17 1.797511 1_555
Cu1 O1 1.918672 1_455
Cu1 O3 1.918672 1_555
Cu1 O12 2.505685 1_555
Cu1 O13 2.505685 1_455
O0 P0 1.588972 1_555
O1 P1 1.588972 1_555
O2 P1 1.588972 1_555
O3 P0 1.588972 1_555
O4 P0 1.531575 1_555
O5 P1 1.531575 1_555
O6 P0 1.530797 1_555
O7 P1 1.530797 1_555
O8 P2 1.550053 1_555
O9 P3 1.550053 1_555
O10 P3 1.550053 1_555
O11 P2 1.550053 1_555
O12 P2 1.558231 1_555
O13 P3 1.558231 1_555
O14 P2 1.562399 1_545
O15 P3 1.562399 1_565
