# generated using pymatgen
data_LaSm(NiO3)2
_symmetry_space_group_name_H-M   'P 1'
_cell_length_a   7.65112800
_cell_length_b   7.65112800
_cell_length_c   7.65253800
_cell_angle_alpha   90.00000000
_cell_angle_beta   90.00000000
_cell_angle_gamma   90.00000000
_symmetry_Int_Tables_number   1
_chemical_formula_structural   LaSm(NiO3)2
_chemical_formula_sum   'La4 Sm4 Ni8 O24'
_cell_volume   447.97773540
_cell_formula_units_Z   4
loop_
 _symmetry_equiv_pos_site_id
 _symmetry_equiv_pos_as_xyz
  1  'x, y, z'
loop_
 _atom_site_type_symbol
 _atom_site_label
 _atom_site_symmetry_multiplicity
 _atom_site_fract_x
 _atom_site_fract_y
 _atom_site_fract_z
 _atom_site_occupancy
  La  La0  1  0.50000000  0.00000000  0.00000000  1
  La  La1  1  0.50000000  0.50000000  0.00000000  1
  La  La2  1  0.00000000  0.50000000  0.00000000  1
  La  La3  1  0.00000000  0.00000000  0.50000000  1
  Sm  Sm0  1  0.00000000  0.00000000  0.00000000  1
  Sm  Sm1  1  0.50000000  0.00000000  0.50000000  1
  Sm  Sm2  1  0.50000000  0.50000000  0.50000000  1
  Sm  Sm3  1  0.00000000  0.50000000  0.50000000  1
  Ni  Ni0  1  0.24999600  0.75000400  0.74897000  1
  Ni  Ni1  1  0.24999600  0.24999600  0.74897000  1
  Ni  Ni2  1  0.75000400  0.75000400  0.74897000  1
  Ni  Ni3  1  0.75000400  0.24999600  0.74897000  1
  Ni  Ni4  1  0.24999600  0.75000400  0.25103000  1
  Ni  Ni5  1  0.24999600  0.24999600  0.25103000  1
  Ni  Ni6  1  0.75000400  0.75000400  0.25103000  1
  Ni  Ni7  1  0.75000400  0.24999600  0.25103000  1
  O  O0  1  0.24757600  0.75242400  0.00000000  1
  O  O1  1  0.24757600  0.24757600  0.00000000  1
  O  O2  1  0.75242400  0.75242400  0.00000000  1
  O  O3  1  0.75242400  0.24757600  0.00000000  1
  O  O4  1  0.25197300  0.74802700  0.50000000  1
  O  O5  1  0.25197300  0.25197300  0.50000000  1
  O  O6  1  0.74802700  0.74802700  0.50000000  1
  O  O7  1  0.74802700  0.25197300  0.50000000  1
  O  O8  1  0.50000000  0.74999000  0.74437300  1
  O  O9  1  0.50000000  0.25001000  0.74437300  1
  O  O10  1  0.00000000  0.74982500  0.74867800  1
  O  O11  1  0.00000000  0.25017500  0.74867800  1
  O  O12  1  0.50000000  0.74999000  0.25562700  1
  O  O13  1  0.50000000  0.25001000  0.25562700  1
  O  O14  1  0.00000000  0.74982500  0.25132200  1
  O  O15  1  0.00000000  0.25017500  0.25132200  1
  O  O16  1  0.25017500  0.00000000  0.74867800  1
  O  O17  1  0.25001000  0.50000000  0.74437300  1
  O  O18  1  0.74982500  0.00000000  0.74867800  1
  O  O19  1  0.74999000  0.50000000  0.74437300  1
  O  O20  1  0.25017500  0.00000000  0.25132200  1
  O  O21  1  0.25001000  0.50000000  0.25562700  1
  O  O22  1  0.74982500  0.00000000  0.25132200  1
  O  O23  1  0.74999000  0.50000000  0.25562700  1
loop_
_geom_bond_atom_site_label_1
_geom_bond_atom_site_label_2
_geom_bond_distance
_geom_bond_site_symmetry_2
La0 O1 2.705209 1_555
La0 O3 2.705209 1_555
La0 O2 2.705209 1_545
La0 O0 2.705209 1_545
La0 O22 2.711551 1_555
La0 O18 2.711551 1_554
La0 O20 2.711551 1_555
La0 O16 2.711551 1_554
La0 O12 2.736006 1_545
La0 O9 2.736006 1_554
La0 O8 2.736006 1_544
La0 O13 2.736006 1_555
La1 O2 2.731311 1_555
La1 O0 2.731311 1_555
La1 O3 2.731311 1_555
La1 O1 2.731311 1_555
La1 O13 2.735899 1_555
La1 O12 2.735899 1_555
La1 O23 2.735899 1_555
La1 O17 2.735899 1_554
La1 O21 2.735899 1_555
La1 O9 2.735899 1_554
La1 O8 2.735899 1_554
La1 O19 2.735899 1_554
La2 O1 2.705209 1_555
La2 O0 2.705209 1_555
La2 O3 2.705209 1_455
La2 O2 2.705209 1_455
La2 O14 2.711551 1_555
La2 O15 2.711551 1_555
La2 O10 2.711551 1_554
La2 O11 2.711551 1_554
La2 O23 2.736006 1_455
La2 O21 2.736006 1_555
La2 O19 2.736006 1_454
La2 O17 2.736006 1_554
La3 O16 2.699136 1_555
La3 O11 2.699136 1_555
La3 O18 2.699136 1_455
La3 O15 2.699136 1_555
La3 O10 2.699136 1_545
La3 O20 2.699136 1_555
La3 O22 2.699136 1_455
La3 O14 2.699136 1_545
La3 O6 2.726431 1_445
La3 O5 2.726431 1_555
La3 O4 2.726431 1_545
La3 O7 2.726431 1_455
Ni0 O4 1.905372 1_555
Ni0 O10 1.912753 1_555
Ni0 O16 1.912753 1_565
Ni0 O8 1.913136 1_555
Ni0 O17 1.913136 1_555
Ni0 O0 1.921195 1_556
Ni1 O5 1.905372 1_555
Ni1 O11 1.912753 1_555
Ni1 O16 1.912753 1_555
Ni1 O9 1.913136 1_555
Ni1 O17 1.913136 1_555
Ni1 O1 1.921195 1_556
Ni2 O6 1.905372 1_555
Ni2 O18 1.912753 1_565
Ni2 O10 1.912753 1_655
Ni2 O8 1.913136 1_555
Ni2 O19 1.913136 1_555
Ni2 O2 1.921195 1_556
Ni3 O7 1.905372 1_555
Ni3 O18 1.912753 1_555
Ni3 O11 1.912753 1_655
Ni3 O19 1.913136 1_555
Ni3 O9 1.913136 1_555
Ni3 O3 1.921195 1_556
Ni4 O4 1.905372 1_555
Ni4 O14 1.912753 1_555
Ni4 O20 1.912753 1_565
Ni4 O21 1.913136 1_555
Ni4 O12 1.913136 1_555
Ni4 O0 1.921195 1_555
Ni5 O5 1.905372 1_555
Ni5 O15 1.912753 1_555
Ni5 O20 1.912753 1_555
Ni5 O21 1.913136 1_555
Ni5 O13 1.913136 1_555
Ni5 O1 1.921195 1_555
Ni6 O6 1.905372 1_555
Ni6 O14 1.912753 1_655
Ni6 O22 1.912753 1_565
Ni6 O23 1.913136 1_555
Ni6 O12 1.913136 1_555
Ni6 O2 1.921195 1_555
Ni7 O7 1.905372 1_555
Ni7 O22 1.912753 1_555
Ni7 O15 1.912753 1_655
Ni7 O23 1.913136 1_555
Ni7 O13 1.913136 1_555
Ni7 O3 1.921195 1_555
O0 Sm0 2.678854 1_565
O1 Sm0 2.678854 1_555
O2 Sm0 2.678854 1_665
O3 Sm0 2.678854 1_655
O4 Sm2 2.683734 1_555
O4 Sm1 2.705166 1_565
O4 Sm3 2.705166 1_555
O5 Sm2 2.683734 1_555
O5 Sm1 2.705166 1_555
O5 Sm3 2.705166 1_555
O6 Sm2 2.683734 1_555
O6 Sm1 2.705166 1_565
O6 Sm3 2.705166 1_655
O7 Sm2 2.683734 1_555
O7 Sm1 2.705166 1_555
O7 Sm3 2.705166 1_655
O8 Sm2 2.674999 1_555
O8 Sm1 2.675108 1_565
O9 Sm2 2.674999 1_555
O9 Sm1 2.675108 1_555
O10 Sm3 2.697238 1_555
O10 Sm0 2.713440 1_566
O11 Sm3 2.697238 1_555
O11 Sm0 2.713440 1_556
O12 Sm2 2.674999 1_555
O12 Sm1 2.675108 1_565
O13 Sm2 2.674999 1_555
O13 Sm1 2.675108 1_555
O14 Sm3 2.697238 1_555
O14 Sm0 2.713440 1_565
O15 Sm3 2.697238 1_555
O15 Sm0 2.713440 1_555
O16 Sm1 2.697238 1_555
O16 Sm0 2.713440 1_556
O17 Sm2 2.674999 1_555
O17 Sm3 2.675108 1_555
O18 Sm1 2.697238 1_555
O18 Sm0 2.713440 1_656
O19 Sm2 2.674999 1_555
O19 Sm3 2.675108 1_655
O20 Sm1 2.697238 1_555
O20 Sm0 2.713440 1_555
O21 Sm2 2.674999 1_555
O21 Sm3 2.675108 1_555
O22 Sm1 2.697238 1_555
O22 Sm0 2.713440 1_655
O23 Sm2 2.674999 1_555
O23 Sm3 2.675108 1_655
