# generated using pymatgen
data_TaTe4Ru
_symmetry_space_group_name_H-M   'P 1'
_cell_length_a   3.76761600
_cell_length_b   12.64664700
_cell_length_c   13.63600300
_cell_angle_alpha   90.00000000
_cell_angle_beta   90.00000000
_cell_angle_gamma   90.00000000
_symmetry_Int_Tables_number   1
_chemical_formula_structural   TaTe4Ru
_chemical_formula_sum   'Ta4 Te16 Ru4'
_cell_volume   649.72431082
_cell_formula_units_Z   4
loop_
 _symmetry_equiv_pos_site_id
 _symmetry_equiv_pos_as_xyz
  1  'x, y, z'
loop_
 _atom_site_type_symbol
 _atom_site_label
 _atom_site_symmetry_multiplicity
 _atom_site_fract_x
 _atom_site_fract_y
 _atom_site_fract_z
 _atom_site_occupancy
  Ta  Ta0  1  0.50000000  0.94131000  0.50551700  1
  Ta  Ta1  1  0.00000000  0.05869000  0.00551700  1
  Ta  Ta2  1  0.50000000  0.72472700  0.98999200  1
  Ta  Ta3  1  0.00000000  0.27527300  0.48999200  1
  Te  Te0  1  0.50000000  0.93406700  0.89606700  1
  Te  Te1  1  0.00000000  0.06593300  0.39606700  1
  Te  Te2  1  0.50000000  0.80439800  0.35320400  1
  Te  Te3  1  0.00000000  0.19560200  0.85320400  1
  Te  Te4  1  0.50000000  0.65176100  0.58963100  1
  Te  Te5  1  0.00000000  0.34823900  0.08963100  1
  Te  Te6  1  0.50000000  0.58457200  0.13867900  1
  Te  Te7  1  0.00000000  0.41542800  0.63867900  1
  Te  Te8  1  0.50000000  0.43406900  0.90118800  1
  Te  Te9  1  0.00000000  0.56593100  0.40118800  1
  Te  Te10  1  0.50000000  0.32480300  0.34784600  1
  Te  Te11  1  0.00000000  0.67519700  0.84784600  1
  Te  Te12  1  0.50000000  0.15109100  0.60278900  1
  Te  Te13  1  0.00000000  0.84890900  0.10278900  1
  Te  Te14  1  0.50000000  0.10843500  0.14727400  1
  Te  Te15  1  0.00000000  0.89156500  0.64727400  1
  Ru  Ru0  1  0.50000000  0.45535700  0.50311600  1
  Ru  Ru1  1  0.00000000  0.54464300  0.00311600  1
  Ru  Ru2  1  0.50000000  0.23699400  0.98869800  1
  Ru  Ru3  1  0.00000000  0.76300600  0.48869800  1
loop_
_geom_bond_atom_site_label_1
_geom_bond_atom_site_label_2
_geom_bond_distance
_geom_bond_site_symmetry_2
Ta0 Te2 2.704015 1_555
Ta0 Te15 2.771461 1_555
Ta0 Te15 2.771461 1_655
Ta0 Te1 2.874047 1_665
Ta0 Te1 2.874047 1_565
Ta0 Te12 2.966124 1_565
Ta1 Te3 2.704015 1_554
Ta1 Te14 2.771461 1_555
Ta1 Te14 2.771461 1_455
Ta1 Te0 2.874047 1_444
Ta1 Te0 2.874047 1_544
Ta1 Te13 2.966124 1_545
Ta2 Te6 2.693040 1_556
Ta2 Te11 2.774548 1_555
Ta2 Te11 2.774548 1_655
Ta2 Te13 2.894980 1_656
Ta2 Te13 2.894980 1_556
Ta2 Te0 2.940975 1_555
Ta3 Te7 2.693040 1_555
Ta3 Te10 2.774548 1_455
Ta3 Te10 2.774548 1_555
Ta3 Te12 2.894980 1_555
Ta3 Te12 2.894980 1_455
Ta3 Te1 2.940975 1_555
Ru0 Te10 2.684927 1_555
Ru0 Te7 2.687158 1_555
Ru0 Te7 2.687158 1_655
Ru0 Te9 2.726907 1_555
Ru0 Te9 2.726907 1_655
Ru0 Te4 2.749774 1_555
Ru0 Ta3 2.961010 1_655
Ru0 Ta3 2.961010 1_555
Ru1 Te11 2.684927 1_554
Ru1 Te6 2.687158 1_455
Ru1 Te6 2.687158 1_555
Ru1 Te8 2.726907 1_454
Ru1 Te8 2.726907 1_554
Ru1 Te5 2.749774 1_555
Ru1 Ta2 2.961010 1_554
Ru1 Ta2 2.961010 1_454
Ru2 Te3 2.690050 1_655
Ru2 Te3 2.690050 1_555
Ru2 Te14 2.705380 1_556
Ru2 Te5 2.724389 1_556
Ru2 Te5 2.724389 1_656
Ru2 Te8 2.763274 1_555
Ru2 Ta1 2.947223 1_556
Ru2 Ta1 2.947223 1_656
Ru3 Te2 2.690050 1_555
Ru3 Te2 2.690050 1_455
Ru3 Te15 2.705380 1_555
Ru3 Te4 2.724389 1_455
Ru3 Te4 2.724389 1_555
Ru3 Te9 2.763274 1_555
Ru3 Ta0 2.947223 1_455
Ru3 Ta0 2.947223 1_555
