# generated using pymatgen
data_Er6CoBi2
_symmetry_space_group_name_H-M   'P 1'
_cell_length_a   8.25227430
_cell_length_b   8.25228232
_cell_length_c   4.09750596
_cell_angle_alpha   90.00000000
_cell_angle_beta   90.00000000
_cell_angle_gamma   120.00012946
_symmetry_Int_Tables_number   1
_chemical_formula_structural   Er6CoBi2
_chemical_formula_sum   'Er6 Co1 Bi2'
_cell_volume   241.65589358
_cell_formula_units_Z   1
loop_
 _symmetry_equiv_pos_site_id
 _symmetry_equiv_pos_as_xyz
  1  'x, y, z'
loop_
 _atom_site_type_symbol
 _atom_site_label
 _atom_site_symmetry_multiplicity
 _atom_site_fract_x
 _atom_site_fract_y
 _atom_site_fract_z
 _atom_site_occupancy
  Er  Er0  1  0.23378906  0.99999702  0.50000000  1
  Er  Er1  1  0.99999774  0.23378863  0.50000000  1
  Er  Er2  1  0.76621085  0.76621045  0.50000000  1
  Er  Er3  1  0.60854830  0.99999504  0.00000000  1
  Er  Er4  1  0.99999547  0.60854965  0.00000000  1
  Er  Er5  1  0.39145585  0.39145551  -0.00000000  1
  Co  Co0  1  0.00000222  0.00000215  0.00000000  1
  Bi  Bi0  1  0.33333097  0.66666947  0.50000000  1
  Bi  Bi1  1  0.66667054  0.33333209  0.50000000  1
loop_
_geom_bond_atom_site_label_1
_geom_bond_atom_site_label_2
_geom_bond_distance
_geom_bond_site_symmetry_2
Er0 Er2 3.341627 1_455
Er0 Er1 3.341669 1_465
Er0 Er4 3.481717 1_455
Er0 Er4 3.481717 1_456
Er0 Er5 3.481777 1_565
Er0 Er5 3.481777 1_566
Er0 Er3 3.709678 1_555
Er0 Er3 3.709678 1_556
Er1 Er2 3.341630 1_545
Er1 Er3 3.481727 1_546
Er1 Er3 3.481727 1_545
Er1 Er5 3.481772 1_655
Er1 Er5 3.481772 1_656
Er1 Er4 3.709694 1_555
Er1 Er4 3.709694 1_556
Er2 Er4 3.481704 1_555
Er2 Er4 3.481704 1_556
Er2 Er3 3.481714 1_556
Er2 Er3 3.481714 1_555
Er2 Er5 3.709638 1_556
Er2 Er5 3.709638 1_555
Co0 Er1 2.814170 1_454
Co0 Er1 2.814170 1_455
Co0 Er0 2.814172 1_544
Co0 Er0 2.814172 1_545
Co0 Er2 2.814182 1_445
Co0 Er2 2.814182 1_444
Co0 Er4 3.230349 1_445
Co0 Er3 3.230356 1_445
Co0 Er5 3.230377 1_555
Bi0 Er0 3.240489 1_555
Bi0 Er1 3.240560 1_455
Bi0 Er2 3.240570 1_555
Bi0 Er3 3.267202 1_555
Bi0 Er3 3.267202 1_556
Bi0 Er4 3.267240 1_456
Bi0 Er4 3.267240 1_455
Bi0 Er5 3.267253 1_555
Bi0 Er5 3.267253 1_556
Bi1 Er1 3.240493 1_555
Bi1 Er2 3.240563 1_555
Bi1 Er0 3.240566 1_545
Bi1 Er4 3.267199 1_555
Bi1 Er4 3.267199 1_556
Bi1 Er3 3.267247 1_545
Bi1 Er3 3.267247 1_546
Bi1 Er5 3.267250 1_555
Bi1 Er5 3.267250 1_556
