# generated using pymatgen
data_Sm2Al
_symmetry_space_group_name_H-M   'P 1'
_cell_length_a   5.19675933
_cell_length_b   6.66375078
_cell_length_c   9.69685259
_cell_angle_alpha   90.00000000
_cell_angle_beta   90.00000000
_cell_angle_gamma   90.00000000
_symmetry_Int_Tables_number   1
_chemical_formula_structural   Sm2Al
_chemical_formula_sum   'Sm8 Al4'
_cell_volume   335.80112315
_cell_formula_units_Z   4
loop_
 _symmetry_equiv_pos_site_id
 _symmetry_equiv_pos_as_xyz
  1  'x, y, z'
loop_
 _atom_site_type_symbol
 _atom_site_label
 _atom_site_symmetry_multiplicity
 _atom_site_fract_x
 _atom_site_fract_y
 _atom_site_fract_z
 _atom_site_occupancy
  Sm  Sm0  1  0.25000000  0.19288437  0.92364098  1
  Sm  Sm1  1  0.25000000  0.69288437  0.57635902  1
  Sm  Sm2  1  0.75000000  0.80711563  0.07635902  1
  Sm  Sm3  1  0.75000000  0.30711563  0.42364098  1
  Sm  Sm4  1  0.25000000  0.02553261  0.29470520  1
  Sm  Sm5  1  0.25000000  0.52553261  0.20529480  1
  Sm  Sm6  1  0.75000000  0.97446739  0.70529480  1
  Sm  Sm7  1  0.75000000  0.47446739  0.79470520  1
  Al  Al0  1  0.25000000  0.21126191  0.60235585  1
  Al  Al1  1  0.25000000  0.71126191  0.89764415  1
  Al  Al2  1  0.75000000  0.78873809  0.39764415  1
  Al  Al3  1  0.75000000  0.28873809  0.10235585  1
loop_
_geom_bond_atom_site_label_1
_geom_bond_atom_site_label_2
_geom_bond_distance
_geom_bond_site_symmetry_2
Sm0 Sm7 3.440295 1_555
Sm0 Sm7 3.440295 1_455
Sm0 Sm5 3.517514 1_556
Sm0 Sm6 3.654152 1_545
Sm0 Sm6 3.654152 1_445
Sm0 Sm4 3.767011 1_556
Sm0 Sm2 3.943719 1_446
Sm0 Sm2 3.943719 1_546
Sm1 Sm6 3.440295 1_555
Sm1 Sm6 3.440295 1_455
Sm1 Sm4 3.517514 1_565
Sm1 Sm7 3.654152 1_455
Sm1 Sm7 3.654152 1_555
Sm1 Sm5 3.767011 1_555
Sm1 Sm3 3.943719 1_455
Sm1 Sm3 3.943719 1_555
Sm2 Sm5 3.440295 1_655
Sm2 Sm5 3.440295 1_555
Sm2 Sm7 3.517514 1_554
Sm2 Sm4 3.654152 1_665
Sm2 Sm4 3.654152 1_565
Sm2 Sm6 3.767011 1_554
Sm3 Sm4 3.440295 1_555
Sm3 Sm4 3.440295 1_655
Sm3 Sm6 3.517514 1_545
Sm3 Sm5 3.654152 1_655
Sm3 Sm5 3.654152 1_555
Sm3 Sm7 3.767011 1_555
Sm4 Sm5 3.442830 1_545
Sm4 Sm5 3.442830 1_555
Sm6 Sm7 3.442830 1_555
Sm6 Sm7 3.442830 1_565
Al0 Sm0 3.117861 1_555
Al0 Sm3 3.187909 1_455
Al0 Sm3 3.187909 1_555
Al0 Sm6 3.199663 1_545
Al0 Sm6 3.199663 1_445
Al0 Sm1 3.219297 1_555
Al0 Sm4 3.229787 1_555
Al0 Sm1 3.463525 1_545
Al0 Sm7 3.647845 1_455
Al0 Sm7 3.647845 1_555
Al1 Sm1 3.117861 1_555
Al1 Sm2 3.187909 1_456
Al1 Sm2 3.187909 1_556
Al1 Sm7 3.199663 1_555
Al1 Sm7 3.199663 1_455
Al1 Sm0 3.219297 1_565
Al1 Sm5 3.229787 1_556
Al1 Sm0 3.463525 1_555
Al1 Sm6 3.647845 1_455
Al1 Sm6 3.647845 1_555
Al2 Sm2 3.117861 1_555
Al2 Sm1 3.187909 1_655
Al2 Sm1 3.187909 1_555
Al2 Sm4 3.199663 1_665
Al2 Sm4 3.199663 1_565
Al2 Sm3 3.219297 1_555
Al2 Sm6 3.229787 1_555
Al2 Sm3 3.463525 1_565
Al2 Sm5 3.647845 1_555
Al2 Sm5 3.647845 1_655
Al3 Sm3 3.117861 1_555
Al3 Sm0 3.187909 1_654
Al3 Sm0 3.187909 1_554
Al3 Sm5 3.199663 1_655
Al3 Sm5 3.199663 1_555
Al3 Sm2 3.219297 1_545
Al3 Sm7 3.229787 1_554
Al3 Sm2 3.463525 1_555
Al3 Sm4 3.647845 1_555
Al3 Sm4 3.647845 1_655
