# generated using pymatgen
data_Sb3Pd8
_symmetry_space_group_name_H-M   'P 1'
_cell_length_a   7.66666218
_cell_length_b   7.66666218
_cell_length_c   15.15557200
_cell_angle_alpha   75.34891556
_cell_angle_beta   75.34891556
_cell_angle_gamma   59.99998875
_symmetry_Int_Tables_number   1
_chemical_formula_structural   Sb3Pd8
_chemical_formula_sum   'Sb12 Pd32'
_cell_volume   737.82782503
_cell_formula_units_Z   4
loop_
 _symmetry_equiv_pos_site_id
 _symmetry_equiv_pos_as_xyz
  1  'x, y, z'
loop_
 _atom_site_type_symbol
 _atom_site_label
 _atom_site_symmetry_multiplicity
 _atom_site_fract_x
 _atom_site_fract_y
 _atom_site_fract_z
 _atom_site_occupancy
  Sb  Sb0  1  0.80133522  0.12004425  0.59539044  1
  Sb  Sb1  1  0.12004425  0.48323109  0.59539044  1
  Sb  Sb2  1  0.48323109  0.80133522  0.59539044  1
  Sb  Sb3  1  0.30133522  0.98323109  0.09539044  1
  Sb  Sb4  1  0.98323109  0.62004425  0.09539044  1
  Sb  Sb5  1  0.62004425  0.30133522  0.09539044  1
  Sb  Sb6  1  0.39409310  0.39409310  0.81772070  1
  Sb  Sb7  1  0.89409310  0.89409310  0.31772070  1
  Sb  Sb8  1  0.05157128  0.05157128  0.84528617  1
  Sb  Sb9  1  0.55157128  0.55157128  0.34528617  1
  Sb  Sb10  1  0.70901931  0.70901931  0.87294407  1
  Sb  Sb11  1  0.20901931  0.20901931  0.37294407  1
  Pd  Pd0  1  0.16806019  0.90750460  0.50187765  1
  Pd  Pd1  1  0.90750460  0.42255956  0.50187765  1
  Pd  Pd2  1  0.42255956  0.16806019  0.50187765  1
  Pd  Pd3  1  0.66806019  0.92255956  0.00187765  1
  Pd  Pd4  1  0.92255956  0.40750460  0.00187765  1
  Pd  Pd5  1  0.40750460  0.66806019  0.00187765  1
  Pd  Pd6  1  0.49015532  0.49015532  0.52953504  1
  Pd  Pd7  1  0.99015532  0.99015532  0.02953504  1
  Pd  Pd8  1  0.83312381  0.83312381  0.50063057  1
  Pd  Pd9  1  0.33312381  0.33312381  0.00063057  1
  Pd  Pd10  1  0.18060262  0.69551435  0.68890378  1
  Pd  Pd11  1  0.69551435  0.43497725  0.68890378  1
  Pd  Pd12  1  0.43497725  0.18060262  0.68890378  1
  Pd  Pd13  1  0.68060262  0.93497725  0.18890378  1
  Pd  Pd14  1  0.93497725  0.19551435  0.18890378  1
  Pd  Pd15  1  0.19551435  0.68060262  0.18890378  1
  Pd  Pd16  1  0.11296520  0.11296520  0.66110541  1
  Pd  Pd17  1  0.61296520  0.61296520  0.16110541  1
  Pd  Pd18  1  0.76994173  0.76994173  0.69017482  1
  Pd  Pd19  1  0.26994173  0.26994173  0.19017482  1
  Pd  Pd20  1  0.75879454  0.03995100  0.79280199  1
  Pd  Pd21  1  0.03995100  0.40845346  0.79280199  1
  Pd  Pd22  1  0.40845346  0.75879454  0.79280199  1
  Pd  Pd23  1  0.25879454  0.90845346  0.29280199  1
  Pd  Pd24  1  0.90845346  0.53995100  0.29280199  1
  Pd  Pd25  1  0.53995100  0.25879454  0.29280199  1
  Pd  Pd26  1  0.06302514  0.69498215  0.89789487  1
  Pd  Pd27  1  0.69498215  0.34409983  0.89789487  1
  Pd  Pd28  1  0.34409983  0.06302514  0.89789487  1
  Pd  Pd29  1  0.56302514  0.84409983  0.39789487  1
  Pd  Pd30  1  0.84409983  0.19498215  0.39789487  1
  Pd  Pd31  1  0.19498215  0.56302514  0.39789487  1
loop_
_geom_bond_atom_site_label_1
_geom_bond_atom_site_label_2
_geom_bond_distance
_geom_bond_site_symmetry_2
Pd0 Sb0 2.672034 1_465
Pd0 Sb11 2.718639 1_565
Pd0 Sb2 2.773380 1_555
Pd0 Pd30 2.873808 1_465
Pd0 Pd29 2.896649 1_555
Pd0 Pd8 2.900636 1_455
Pd0 Pd23 3.066388 1_555
Pd0 Pd31 3.301031 1_555
Pd1 Sb1 2.672030 1_655
Pd1 Sb11 2.718638 1_655
Pd1 Sb0 2.773387 1_555
Pd1 Pd31 2.873809 1_655
Pd1 Pd30 2.896649 1_555
Pd1 Pd8 2.900636 1_555
Pd1 Pd24 3.066388 1_555
Pd1 Pd29 3.301030 1_555
Pd2 Sb2 2.672036 1_545
Pd2 Sb11 2.718638 1_555
Pd2 Sb1 2.773382 1_555
Pd2 Pd29 2.873809 1_545
Pd2 Pd31 2.896649 1_555
Pd2 Pd8 2.900636 1_545
Pd2 Pd25 3.066387 1_555
Pd2 Pd30 3.301031 1_555
Pd3 Sb3 2.672036 1_555
Pd3 Sb10 2.718638 1_554
Pd3 Sb4 2.773382 1_555
Pd3 Pd9 2.900636 1_565
Pd4 Sb4 2.672030 1_555
Pd4 Sb10 2.718638 1_554
Pd4 Sb5 2.773387 1_555
Pd4 Pd9 2.900636 1_655
Pd5 Sb5 2.672034 1_555
Pd5 Sb10 2.718639 1_554
Pd5 Sb3 2.773380 1_555
Pd5 Pd9 2.900636 1_555
Pd6 Sb9 2.670648 1_555
Pd6 Sb0 2.782385 1_555
Pd6 Sb2 2.782385 1_555
Pd6 Sb1 2.782385 1_555
Pd7 Sb8 2.670648 1_664
Pd7 Sb5 2.782385 1_565
Pd7 Sb3 2.782385 1_655
Pd7 Sb4 2.782385 1_555
Pd8 Sb7 2.651239 1_555
Pd8 Sb0 2.800999 1_565
Pd8 Sb1 2.801002 1_655
Pd8 Sb2 2.801006 1_555
Pd9 Sb6 2.651239 1_554
Pd9 Sb5 2.800999 1_555
Pd9 Sb4 2.801002 1_455
Pd9 Sb3 2.801006 1_545
Pd10 Sb1 2.669871 1_555
Pd10 Sb6 2.717078 1_555
Pd10 Sb2 2.772574 1_555
Pd10 Pd21 2.871755 1_555
Pd10 Pd22 2.896851 1_555
Pd10 Pd18 2.901164 1_455
Pd10 Pd26 3.065566 1_555
Pd10 Pd20 3.301277 1_465
Pd11 Sb2 2.669885 1_555
Pd11 Sb6 2.717073 1_555
Pd11 Sb0 2.772554 1_555
Pd11 Pd22 2.871769 1_555
Pd11 Pd20 2.896832 1_555
Pd11 Pd18 2.901179 1_555
Pd11 Pd27 3.065567 1_555
Pd11 Pd21 3.301288 1_655
Pd12 Sb0 2.669890 1_555
Pd12 Sb6 2.717084 1_555
Pd12 Sb1 2.772560 1_555
Pd12 Pd20 2.871773 1_555
Pd12 Pd21 2.896837 1_555
Pd12 Pd18 2.901169 1_545
Pd12 Pd28 3.065563 1_555
Pd12 Pd22 3.301268 1_545
Pd13 Sb5 2.669890 1_565
Pd13 Sb7 2.717084 1_555
Pd13 Sb4 2.772560 1_555
Pd13 Pd25 2.871773 1_565
Pd13 Pd24 2.896837 1_555
Pd13 Pd19 2.901169 1_565
Pd13 Pd29 3.065563 1_555
Pd13 Pd23 3.301268 1_555
Pd14 Sb3 2.669885 1_645
Pd14 Sb7 2.717073 1_545
Pd14 Sb5 2.772554 1_555
Pd14 Pd23 2.871769 1_645
Pd14 Pd25 2.896832 1_555
Pd14 Pd19 2.901179 1_655
Pd14 Pd30 3.065567 1_555
Pd14 Pd24 3.301288 1_555
Pd15 Sb4 2.669871 1_455
Pd15 Sb7 2.717078 1_455
Pd15 Sb3 2.772574 1_555
Pd15 Pd24 2.871755 1_455
Pd15 Pd23 2.896851 1_555
Pd15 Pd19 2.901164 1_555
Pd15 Pd31 3.065566 1_555
Pd15 Pd25 3.301277 1_555
Pd16 Sb8 2.669661 1_555
Pd16 Sb2 2.783816 1_545
Pd16 Sb0 2.783817 1_455
Pd16 Sb1 2.783817 1_555
Pd16 Pd22 3.143756 1_545
Pd16 Pd21 3.143756 1_555
Pd16 Pd20 3.143756 1_455
Pd17 Sb9 2.669661 1_555
Pd17 Sb3 2.783816 1_555
Pd17 Sb5 2.783817 1_555
Pd17 Sb4 2.783817 1_555
Pd17 Pd23 3.143756 1_555
Pd17 Pd24 3.143756 1_555
Pd17 Pd25 3.143756 1_555
Pd18 Sb10 2.649201 1_555
Pd18 Pd8 2.747403 1_555
Pd18 Sb2 2.801173 1_555
Pd18 Sb1 2.801176 1_655
Pd18 Sb0 2.801180 1_565
Pd18 Pd22 2.845389 1_555
Pd18 Pd21 2.845391 1_655
Pd18 Pd20 2.845395 1_565
Pd19 Sb11 2.649201 1_555
Pd19 Pd9 2.747403 1_555
Pd19 Sb3 2.801173 1_545
Pd19 Sb4 2.801176 1_455
Pd19 Sb5 2.801180 1_555
Pd19 Pd23 2.845389 1_545
Pd19 Pd24 2.845391 1_455
Pd19 Pd25 2.845395 1_555
Pd20 Sb8 2.611124 1_655
Pd20 Sb10 2.689390 1_545
Pd20 Sb6 2.779427 1_555
Pd20 Sb0 2.865676 1_555
Pd20 Pd26 2.924287 1_645
Pd20 Pd27 2.925285 1_555
Pd20 Pd3 3.066387 1_546
Pd20 Pd28 3.113633 1_555
Pd21 Sb8 2.611131 1_555
Pd21 Sb10 2.689393 1_455
Pd21 Sb6 2.779423 1_555
Pd21 Sb1 2.865676 1_555
Pd21 Pd27 2.924284 1_455
Pd21 Pd28 2.925282 1_555
Pd21 Pd4 3.066388 1_456
Pd21 Pd26 3.113640 1_555
Pd22 Sb8 2.611127 1_565
Pd22 Sb10 2.689396 1_555
Pd22 Sb6 2.779431 1_555
Pd22 Sb2 2.865676 1_555
Pd22 Pd28 2.924290 1_565
Pd22 Pd26 2.925279 1_555
Pd22 Pd5 3.066388 1_556
Pd22 Pd27 3.113635 1_555
Pd23 Sb9 2.611127 1_555
Pd23 Sb11 2.689396 1_565
Pd23 Sb7 2.779431 1_455
Pd23 Sb3 2.865676 1_555
Pd23 Pd29 2.924290 1_555
Pd23 Pd31 2.925279 1_555
Pd23 Pd30 3.113635 1_465
Pd24 Sb9 2.611131 1_555
Pd24 Sb11 2.689393 1_655
Pd24 Sb7 2.779423 1_555
Pd24 Sb4 2.865676 1_555
Pd24 Pd30 2.924284 1_555
Pd24 Pd29 2.925282 1_555
Pd24 Pd31 3.113640 1_655
Pd25 Sb9 2.611124 1_555
Pd25 Sb11 2.689390 1_555
Pd25 Sb7 2.779427 1_545
Pd25 Sb5 2.865676 1_555
Pd25 Pd31 2.924287 1_555
Pd25 Pd30 2.925285 1_555
Pd25 Pd29 3.113633 1_545
Pd26 Sb8 2.609607 1_565
Pd26 Sb6 2.691258 1_555
Pd26 Sb10 2.779767 1_455
Pd26 Pd9 2.847787 1_556
Pd26 Sb4 2.866811 1_456
Pd26 Pd4 2.873809 1_456
Pd26 Pd3 2.896649 1_456
Pd26 Pd7 3.141562 1_456
Pd26 Pd5 3.301031 1_556
Pd27 Sb8 2.609613 1_655
Pd27 Sb6 2.691265 1_555
Pd27 Sb10 2.779767 1_555
Pd27 Pd9 2.847787 1_556
Pd27 Sb5 2.866810 1_556
Pd27 Pd5 2.873808 1_556
Pd27 Pd4 2.896649 1_556
Pd27 Pd7 3.141564 1_546
Pd27 Pd3 3.301031 1_546
Pd28 Sb8 2.609621 1_555
Pd28 Sb6 2.691251 1_555
Pd28 Sb10 2.779767 1_545
Pd28 Pd9 2.847787 1_556
Pd28 Sb3 2.866810 1_546
Pd28 Pd3 2.873809 1_546
Pd28 Pd5 2.896649 1_546
Pd28 Pd7 3.141568 1_446
Pd28 Pd4 3.301030 1_456
Pd29 Sb9 2.609621 1_555
Pd29 Sb7 2.691251 1_555
Pd29 Sb11 2.779767 1_565
Pd29 Pd8 2.847787 1_555
Pd29 Sb2 2.866810 1_555
Pd29 Pd6 3.141568 1_555
Pd30 Sb9 2.609613 1_555
Pd30 Sb7 2.691265 1_545
Pd30 Sb11 2.779767 1_655
Pd30 Pd8 2.847787 1_545
Pd30 Sb0 2.866810 1_555
Pd30 Pd6 3.141564 1_555
Pd31 Sb9 2.609607 1_555
Pd31 Sb7 2.691258 1_455
Pd31 Sb11 2.779767 1_555
Pd31 Pd8 2.847787 1_455
Pd31 Sb1 2.866811 1_555
Pd31 Pd6 3.141562 1_555
