# generated using pymatgen
data_Na2B4O11
_symmetry_space_group_name_H-M   'P 1'
_cell_length_a   9.14064300
_cell_length_b   6.89825300
_cell_length_c   14.97477340
_cell_angle_alpha   71.77183089
_cell_angle_beta   90.00000000
_cell_angle_gamma   90.00000000
_symmetry_Int_Tables_number   1
_chemical_formula_structural   Na2B4O11
_chemical_formula_sum   'Na8 B16 O44'
_cell_volume   896.84356047
_cell_formula_units_Z   4
loop_
 _symmetry_equiv_pos_site_id
 _symmetry_equiv_pos_as_xyz
  1  'x, y, z'
loop_
 _atom_site_type_symbol
 _atom_site_label
 _atom_site_symmetry_multiplicity
 _atom_site_fract_x
 _atom_site_fract_y
 _atom_site_fract_z
 _atom_site_occupancy
  Na  Na0  1  0.97025200  0.69453900  0.81323300  1
  Na  Na1  1  0.47025200  0.30546100  0.68676700  1
  Na  Na2  1  0.02974800  0.30546100  0.18676700  1
  Na  Na3  1  0.52974800  0.69453900  0.31323300  1
  Na  Na4  1  0.84545000  0.80377000  0.57402300  1
  Na  Na5  1  0.34545000  0.19623000  0.92597700  1
  Na  Na6  1  0.15455000  0.19623000  0.42597700  1
  Na  Na7  1  0.65455000  0.80377000  0.07402300  1
  B  B0  1  0.66742800  0.45041800  0.93040300  1
  B  B1  1  0.16742800  0.54958200  0.56959700  1
  B  B2  1  0.33257200  0.54958200  0.06959700  1
  B  B3  1  0.83257200  0.45041800  0.43040300  1
  B  B4  1  0.73082700  0.44308500  0.77115000  1
  B  B5  1  0.23082700  0.55691500  0.72885000  1
  B  B6  1  0.26917300  0.55691500  0.22885000  1
  B  B7  1  0.76917300  0.44308500  0.27115000  1
  B  B8  1  0.97937700  0.42480000  0.69436900  1
  B  B9  1  0.47937700  0.57520000  0.80563100  1
  B  B10  1  0.02062300  0.57520000  0.30563100  1
  B  B11  1  0.52062300  0.42480000  0.19436900  1
  B  B12  1  0.81276500  0.12354500  0.74124400  1
  B  B13  1  0.31276500  0.87645500  0.75875600  1
  B  B14  1  0.18723500  0.87645500  0.25875600  1
  B  B15  1  0.68723500  0.12354500  0.24124400  1
  O  O0  1  0.52281700  0.48268000  0.90498800  1
  O  O1  1  0.02281700  0.51732000  0.59501200  1
  O  O2  1  0.47718300  0.51732000  0.09501200  1
  O  O3  1  0.97718300  0.48268000  0.40498800  1
  O  O4  1  0.59237100  0.54960800  0.74099900  1
  O  O5  1  0.09237100  0.45039200  0.75900100  1
  O  O6  1  0.40762900  0.45039200  0.25900100  1
  O  O7  1  0.90762900  0.54960800  0.24099900  1
  O  O8  1  0.70392600  0.22570900  0.77238000  1
  O  O9  1  0.20392600  0.77429100  0.72762000  1
  O  O10  1  0.29607400  0.77429100  0.22762000  1
  O  O11  1  0.79607400  0.22570900  0.27238000  1
  O  O12  1  0.84676300  0.53295600  0.70633300  1
  O  O13  1  0.34676300  0.46704400  0.79366700  1
  O  O14  1  0.15323700  0.46704400  0.29366700  1
  O  O15  1  0.65323700  0.53295600  0.20633300  1
  O  O16  1  0.95240900  0.20141900  0.71854200  1
  O  O17  1  0.45240900  0.79858100  0.78145800  1
  O  O18  1  0.04759100  0.79858100  0.28145800  1
  O  O19  1  0.54759100  0.20141900  0.21854200  1
  O  O20  1  0.79290300  0.93617500  0.73103700  1
  O  O21  1  0.29290300  0.06382500  0.76896300  1
  O  O22  1  0.20709700  0.06382500  0.26896300  1
  O  O23  1  0.70709700  0.93617500  0.23103700  1
  O  O24  1  0.78391000  0.40968900  0.52079000  1
  O  O25  1  0.28391000  0.59031100  0.97921000  1
  O  O26  1  0.21609000  0.59031100  0.47921000  1
  O  O27  1  0.71609000  0.40968900  0.02079000  1
  O  O28  1  0.53519700  0.10610000  0.54334100  1
  O  O29  1  0.03519700  0.89390000  0.95665900  1
  O  O30  1  0.46480300  0.89390000  0.45665900  1
  O  O31  1  0.96480300  0.10610000  0.04334100  1
  O  O32  1  0.77576800  0.45155700  0.86599300  1
  O  O33  1  0.27576800  0.54844300  0.63400700  1
  O  O34  1  0.22423200  0.54844300  0.13400700  1
  O  O35  1  0.72423200  0.45155700  0.36599300  1
  O  O36  1  0.55258500  0.98149800  0.91677500  1
  O  O37  1  0.05258500  0.01850200  0.58322500  1
  O  O38  1  0.44741500  0.01850200  0.08322500  1
  O  O39  1  0.94741500  0.98149800  0.41677500  1
  O  O40  1  0.57248200  0.92587000  0.56583800  1
  O  O41  1  0.07248200  0.07413000  0.93416200  1
  O  O42  1  0.42751800  0.07413000  0.43416200  1
  O  O43  1  0.92751800  0.92587000  0.06583800  1
loop_
_geom_bond_atom_site_label_1
_geom_bond_atom_site_label_2
_geom_bond_distance
_geom_bond_site_symmetry_2
Na0 O5 2.365944 1_655
Na0 O20 2.374414 1_555
Na0 O32 2.401139 1_555
Na0 O9 2.463175 1_655
Na0 O12 2.489054 1_555
Na0 O29 2.950335 1_655
Na1 O4 2.365944 1_555
Na1 O21 2.374414 1_555
Na1 O33 2.401139 1_555
Na1 O8 2.463175 1_555
Na1 O13 2.489054 1_555
Na1 O28 2.950335 1_555
Na2 O7 2.365944 1_455
Na2 O22 2.374414 1_555
Na2 O34 2.401139 1_555
Na2 O11 2.463175 1_455
Na2 O14 2.489054 1_555
Na2 O31 2.950335 1_455
Na3 O6 2.365944 1_555
Na3 O23 2.374414 1_555
Na3 O35 2.401139 1_555
Na3 O10 2.463175 1_555
Na3 O15 2.489054 1_555
Na3 O30 2.950335 1_555
Na4 O12 2.258342 1_555
Na4 O37 2.434261 1_665
Na4 O39 2.471953 1_555
Na4 O1 2.498657 1_655
Na4 O40 2.624006 1_555
Na4 O20 2.817236 1_555
Na5 O13 2.258342 1_555
Na5 O36 2.434261 1_545
Na5 O38 2.471953 1_556
Na5 O0 2.498657 1_555
Na5 O41 2.624006 1_555
Na5 O21 2.817236 1_555
Na6 O14 2.258342 1_555
Na6 O39 2.434261 1_445
Na6 O37 2.471953 1_555
Na6 O3 2.498657 1_455
Na6 O42 2.624006 1_555
Na6 O22 2.817236 1_555
Na7 O15 2.258342 1_555
Na7 O38 2.434261 1_565
Na7 O36 2.471953 1_554
Na7 O2 2.498657 1_555
Na7 O43 2.624006 1_555
Na7 O23 2.817236 1_555
B0 O27 1.367812 1_556
B0 O0 1.374278 1_555
B0 O32 1.380695 1_555
B1 O26 1.367812 1_555
B1 O1 1.374278 1_555
B1 O33 1.380695 1_555
B2 O25 1.367812 1_554
B2 O2 1.374278 1_555
B2 O34 1.380695 1_555
B3 O24 1.367812 1_555
B3 O3 1.374278 1_555
B3 O35 1.380695 1_555
B4 O12 1.439799 1_555
B4 O4 1.462171 1_555
B4 O32 1.497066 1_555
B4 O8 1.513958 1_555
B5 O13 1.439799 1_555
B5 O5 1.462171 1_555
B5 O33 1.497066 1_555
B5 O9 1.513958 1_555
B6 O14 1.439799 1_555
B6 O6 1.462171 1_555
B6 O34 1.497066 1_555
B6 O10 1.513958 1_555
B7 O15 1.439799 1_555
B7 O7 1.462171 1_555
B7 O35 1.497066 1_555
B7 O11 1.513958 1_555
B8 O5 1.463402 1_655
B8 O12 1.463469 1_555
B8 O1 1.478048 1_655
B8 O16 1.489070 1_555
B9 O4 1.463402 1_555
B9 O13 1.463469 1_555
B9 O0 1.478048 1_555
B9 O17 1.489070 1_555
B10 O7 1.463402 1_455
B10 O14 1.463469 1_555
B10 O3 1.478048 1_455
B10 O18 1.489070 1_555
B11 O6 1.463402 1_555
B11 O15 1.463469 1_555
B11 O2 1.478048 1_555
B11 O19 1.489070 1_555
B12 O20 1.360345 1_545
B12 O8 1.381804 1_555
B12 O16 1.385348 1_555
B13 O21 1.360345 1_565
B13 O9 1.381804 1_555
B13 O17 1.385348 1_555
B14 O22 1.360345 1_565
B14 O10 1.381804 1_555
B14 O18 1.385348 1_555
B15 O23 1.360345 1_545
B15 O11 1.381804 1_555
B15 O19 1.385348 1_555
O28 O40 1.230179 1_545
O28 O42 1.978879 1_555
O29 O41 1.230179 1_565
O29 O43 1.978879 1_456
O30 O42 1.230179 1_565
O30 O40 1.978879 1_555
O31 O43 1.230179 1_545
O31 O41 1.978879 1_654
