# generated using pymatgen
data_Dy(NO5)3
_symmetry_space_group_name_H-M   'P 1'
_cell_length_a   6.97726297
_cell_length_b   9.21938363
_cell_length_c   11.30436834
_cell_angle_alpha   68.14581350
_cell_angle_beta   89.17738099
_cell_angle_gamma   64.70345022
_symmetry_Int_Tables_number   1
_chemical_formula_structural   Dy(NO5)3
_chemical_formula_sum   'Dy2 N6 O30'
_cell_volume   601.04795557
_cell_formula_units_Z   2
loop_
 _symmetry_equiv_pos_site_id
 _symmetry_equiv_pos_as_xyz
  1  'x, y, z'
loop_
 _atom_site_type_symbol
 _atom_site_label
 _atom_site_symmetry_multiplicity
 _atom_site_fract_x
 _atom_site_fract_y
 _atom_site_fract_z
 _atom_site_occupancy
  Dy  Dy0  1  0.87445000  0.64272900  0.72241100  1
  Dy  Dy1  1  0.12555000  0.35727200  0.27758900  1
  N  N0  1  0.94613400  0.83211700  0.48472400  1
  N  N1  1  0.05386600  0.16788300  0.51527600  1
  N  N2  1  0.86109900  0.71818500  0.19970800  1
  N  N3  1  0.13890100  0.28181500  0.80029200  1
  N  N4  1  0.89364900  0.85075600  0.84206600  1
  N  N5  1  0.10635100  0.14924400  0.15793400  1
  O  O0  1  0.55447200  0.63609400  0.53232600  1
  O  O1  1  0.44552800  0.36390600  0.46767400  1
  O  O2  1  0.01463700  0.37585500  0.68801500  1
  O  O3  1  0.98536300  0.62414500  0.31198500  1
  O  O4  1  0.53027300  0.68539800  0.63137000  1
  O  O5  1  0.46972700  0.31460200  0.36863000  1
  O  O6  1  0.71713600  0.89111400  0.77307400  1
  O  O7  1  0.28286400  0.10888600  0.22692600  1
  O  O8  1  0.09848500  0.69415900  0.57724100  1
  O  O9  1  0.90151500  0.30584100  0.42275900  1
  O  O10  1  0.05183200  0.69806000  0.85790100  1
  O  O11  1  0.94816800  0.30194000  0.14209900  1
  O  O12  1  0.73113200  0.87085800  0.16470400  1
  O  O13  1  0.26886800  0.12914200  0.83529600  1
  O  O14  1  0.53473200  0.63953500  0.98476900  1
  O  O15  1  0.46526800  0.36046500  0.01523100  1
  O  O16  1  0.11346900  0.36940800  0.87322700  1
  O  O17  1  0.88653100  0.63059200  0.12677300  1
  O  O18  1  0.75374200  0.86277100  0.50668600  1
  O  O19  1  0.24625800  0.13722900  0.49331400  1
  O  O20  1  0.98526500  0.92287200  0.38816200  1
  O  O21  1  0.01473500  0.07712800  0.61183800  1
  O  O22  1  0.57654900  0.25642700  0.57093300  1
  O  O23  1  0.42345100  0.74357300  0.42906700  1
  O  O24  1  0.91256100  0.94477300  0.88764200  1
  O  O25  1  0.08743900  0.05522700  0.11235800  1
  O  O26  1  0.65370600  0.36583900  0.85795400  1
  O  O27  1  0.34629400  0.63416100  0.14204600  1
  O  O28  1  0.61624700  0.27586400  0.96613500  1
  O  O29  1  0.38375300  0.72413600  0.03386500  1
loop_
_geom_bond_atom_site_label_1
_geom_bond_atom_site_label_2
_geom_bond_distance
_geom_bond_site_symmetry_2
Dy0 O10 2.305108 1_655
Dy0 O16 2.308548 1_655
Dy0 O8 2.311229 1_655
Dy0 O6 2.363675 1_555
Dy0 O18 2.384830 1_555
Dy0 O2 2.409600 1_655
Dy0 O4 2.437814 1_555
Dy1 O11 2.305114 1_455
Dy1 O17 2.308544 1_455
Dy1 O9 2.311232 1_455
Dy1 O7 2.363682 1_555
Dy1 O19 2.384833 1_555
Dy1 O3 2.409592 1_455
Dy1 O5 2.437811 1_555
N0 O20 1.213614 1_555
N0 O18 1.289154 1_555
N0 O8 1.314386 1_655
N1 O21 1.213614 1_555
N1 O19 1.289154 1_555
N1 O9 1.314386 1_455
N2 O12 1.210342 1_555
N2 O3 1.297795 1_555
N2 O17 1.316220 1_555
N3 O13 1.210342 1_555
N3 O2 1.297795 1_555
N3 O16 1.316220 1_555
N4 O24 1.210918 1_555
N4 O6 1.297462 1_555
N4 O10 1.312325 1_655
N5 O25 1.210918 1_555
N5 O7 1.297462 1_555
N5 O11 1.312325 1_455
O0 O23 1.255187 1_555
O0 O4 1.340363 1_555
O1 O22 1.255187 1_555
O1 O5 1.340363 1_555
O14 O29 1.276474 1_556
O15 O28 1.276474 1_554
O26 O28 1.293369 1_555
O27 O29 1.293369 1_555
