# generated using pymatgen
data_ZrNiH
_symmetry_space_group_name_H-M   'P 1'
_cell_length_a   5.39364273
_cell_length_b   5.39364273
_cell_length_c   4.06792600
_cell_angle_alpha   90.00000000
_cell_angle_beta   90.00000000
_cell_angle_gamma   144.12581917
_symmetry_Int_Tables_number   1
_chemical_formula_structural   ZrNiH
_chemical_formula_sum   'Zr2 Ni2 H2'
_cell_volume   69.34903107
_cell_formula_units_Z   2
loop_
 _symmetry_equiv_pos_site_id
 _symmetry_equiv_pos_as_xyz
  1  'x, y, z'
loop_
 _atom_site_type_symbol
 _atom_site_label
 _atom_site_symmetry_multiplicity
 _atom_site_fract_x
 _atom_site_fract_y
 _atom_site_fract_z
 _atom_site_occupancy
  Zr  Zr0  1  0.14267000  0.85733000  0.75000000  1
  Zr  Zr1  1  0.85733000  0.14267000  0.25000000  1
  Ni  Ni0  1  0.42744200  0.57255800  0.75000000  1
  Ni  Ni1  1  0.57255800  0.42744200  0.25000000  1
  H  H0  1  0.78275100  0.21724900  0.75000000  1
  H  H1  1  0.21724900  0.78275100  0.25000000  1
loop_
_geom_bond_atom_site_label_1
_geom_bond_atom_site_label_2
_geom_bond_distance
_geom_bond_site_symmetry_2
Ni0 Ni1 2.520929 1_555
Ni0 Ni1 2.520929 1_556
Ni0 Zr1 2.722866 1_456
Ni0 Zr1 2.722866 1_455
Ni0 Zr1 2.722866 1_566
Ni0 Zr1 2.722866 1_565
Ni0 Zr0 2.763762 1_545
Ni0 Zr0 2.763762 1_655
Ni1 Zr0 2.722866 1_544
Ni1 Zr0 2.722866 1_545
Ni1 Zr0 2.722866 1_655
Ni1 Zr0 2.722866 1_654
Ni1 Zr1 2.763762 1_455
Ni1 Zr1 2.763762 1_565
H0 Zr1 2.173211 1_555
H0 Zr1 2.173211 1_556
H0 Zr0 2.196830 1_655
H0 Zr0 2.196830 1_545
H0 Ni0 2.228080 1_545
H0 Ni0 2.228080 1_655
H1 Zr0 2.173211 1_555
H1 Zr0 2.173211 1_554
H1 Zr1 2.196830 1_565
H1 Zr1 2.196830 1_455
H1 Ni1 2.228080 1_455
H1 Ni1 2.228080 1_565
