# generated using pymatgen
data_Mg14GaSi
_symmetry_space_group_name_H-M   'P 1'
_cell_length_a   6.24051880
_cell_length_b   6.24051831
_cell_length_c   10.23150070
_cell_angle_alpha   90.00000000
_cell_angle_beta   90.00000000
_cell_angle_gamma   120.00000259
_symmetry_Int_Tables_number   1
_chemical_formula_structural   Mg14GaSi
_chemical_formula_sum   'Mg14 Ga1 Si1'
_cell_volume   345.07326769
_cell_formula_units_Z   1
loop_
 _symmetry_equiv_pos_site_id
 _symmetry_equiv_pos_as_xyz
  1  'x, y, z'
loop_
 _atom_site_type_symbol
 _atom_site_label
 _atom_site_symmetry_multiplicity
 _atom_site_fract_x
 _atom_site_fract_y
 _atom_site_fract_z
 _atom_site_occupancy
  Mg  Mg0  1  0.16603874  0.83301887  0.12500000  1
  Mg  Mg1  1  0.16690509  0.83345205  0.62500000  1
  Mg  Mg2  1  0.66698113  0.33396126  0.12500000  1
  Mg  Mg3  1  0.66654795  0.33309491  0.62500000  1
  Mg  Mg4  1  0.66698113  0.83301887  0.12500000  1
  Mg  Mg5  1  0.66654795  0.83345205  0.62500000  1
  Mg  Mg6  1  0.33222782  0.16777218  0.37459264  1
  Mg  Mg7  1  0.33222782  0.16777218  0.87540736  1
  Mg  Mg8  1  0.33222782  0.66445665  0.37459264  1
  Mg  Mg9  1  0.33222782  0.66445665  0.87540736  1
  Mg  Mg10  1  0.83554335  0.16777218  0.37459264  1
  Mg  Mg11  1  0.83554335  0.16777218  0.87540736  1
  Mg  Mg12  1  0.83333300  0.66666700  0.37532949  1
  Mg  Mg13  1  0.83333300  0.66666700  0.87467051  1
  Ga  Ga0  1  0.16666700  0.33333300  0.62500000  1
  Si  Si0  1  0.16666700  0.33333300  0.12500000  1
loop_
_geom_bond_atom_site_label_1
_geom_bond_atom_site_label_2
_geom_bond_distance
_geom_bond_site_symmetry_2
Mg0 Mg2 3.114378 1_455
Mg0 Mg4 3.114378 1_455
Mg0 Si0 3.120261 1_565
Mg0 Si0 3.120261 1_555
Mg0 Mg2 3.126140 1_565
Mg0 Mg4 3.126140 1_555
Mg0 Mg12 3.129395 1_455
Mg0 Mg13 3.129395 1_454
Mg0 Mg8 3.129614 1_555
Mg0 Mg9 3.129614 1_554
Mg0 Mg6 3.129620 1_565
Mg0 Mg7 3.129620 1_564
Mg1 Mg3 3.118030 1_565
Mg1 Mg5 3.118031 1_555
Mg1 Mg3 3.122488 1_455
Mg1 Mg5 3.122488 1_455
Mg1 Mg13 3.126577 1_455
Mg1 Mg12 3.126577 1_455
Mg1 Mg9 3.135082 1_555
Mg1 Mg8 3.135082 1_555
Mg1 Mg7 3.135088 1_565
Mg1 Mg6 3.135088 1_565
Mg2 Mg4 3.114378 1_555
Mg2 Si0 3.120261 1_655
Mg2 Si0 3.120261 1_555
Mg2 Mg4 3.126140 1_545
Mg2 Mg6 3.129620 1_555
Mg2 Mg7 3.129620 1_554
Mg3 Mg5 3.118030 1_545
Mg3 Mg5 3.122488 1_555
Mg3 Mg7 3.135088 1_555
Mg3 Mg6 3.135088 1_555
Mg4 Si0 3.120261 1_665
Mg4 Si0 3.120261 1_555
Mg4 Mg8 3.129620 1_555
Mg4 Mg9 3.129620 1_554
Mg5 Mg9 3.135088 1_555
Mg5 Mg8 3.135088 1_555
Mg6 Mg8 3.099569 1_555
Mg6 Si0 3.118307 1_555
Mg6 Mg8 3.140950 1_545
Mg7 Mg9 3.099569 1_555
Mg7 Si0 3.118307 1_556
Mg7 Mg9 3.140950 1_545
Mg8 Si0 3.118313 1_555
Mg9 Si0 3.118313 1_556
Mg10 Mg8 3.099569 1_655
Mg10 Mg6 3.099569 1_655
Mg10 Si0 3.118313 1_655
Mg10 Mg12 3.120291 1_555
Mg10 Mg12 3.120291 1_545
Mg10 Mg2 3.129614 1_555
Mg10 Mg4 3.129620 1_545
Mg10 Mg3 3.135082 1_555
Mg10 Mg5 3.135088 1_545
Mg10 Mg8 3.140950 1_545
Mg10 Mg6 3.140950 1_555
Mg11 Mg9 3.099569 1_655
Mg11 Mg7 3.099569 1_655
Mg11 Si0 3.118313 1_656
Mg11 Mg13 3.120291 1_555
Mg11 Mg13 3.120291 1_545
Mg11 Mg2 3.129614 1_556
Mg11 Mg4 3.129620 1_546
Mg11 Mg3 3.135082 1_555
Mg11 Mg5 3.135088 1_545
Mg11 Mg9 3.140950 1_545
Mg11 Mg7 3.140950 1_555
Mg12 Mg6 3.120291 1_665
Mg12 Mg6 3.120291 1_555
Mg12 Mg8 3.120291 1_655
Mg12 Mg8 3.120291 1_555
Mg12 Mg5 3.126570 1_555
Mg12 Mg3 3.126576 1_555
Mg12 Mg4 3.129389 1_555
Mg12 Mg2 3.129395 1_555
Mg13 Mg7 3.120291 1_665
Mg13 Mg7 3.120291 1_555
Mg13 Mg9 3.120291 1_655
Mg13 Mg9 3.120291 1_555
Mg13 Mg5 3.126570 1_555
Mg13 Mg3 3.126576 1_555
Mg13 Mg4 3.129389 1_556
Mg13 Mg2 3.129395 1_556
Ga0 Mg1 3.120259 1_545
Ga0 Mg5 3.120259 1_555
Ga0 Mg5 3.120259 1_445
Ga0 Mg1 3.120259 1_555
Ga0 Mg3 3.120260 1_555
Ga0 Mg3 3.120260 1_455
Ga0 Mg7 3.125137 1_555
Ga0 Mg6 3.125137 1_555
Ga0 Mg9 3.125143 1_555
Ga0 Mg8 3.125143 1_555
Ga0 Mg10 3.125143 1_455
Ga0 Mg11 3.125143 1_455
