# generated using pymatgen
data_Tl2S
_symmetry_space_group_name_H-M   'P 1'
_cell_length_a   9.49158181
_cell_length_b   9.49157984
_cell_length_c   9.49158098
_cell_angle_alpha   81.14589468
_cell_angle_beta   81.14589226
_cell_angle_gamma   81.14587504
_symmetry_Int_Tables_number   1
_chemical_formula_structural   Tl2S
_chemical_formula_sum   'Tl18 S9'
_cell_volume   827.37912581
_cell_formula_units_Z   9
loop_
 _symmetry_equiv_pos_site_id
 _symmetry_equiv_pos_as_xyz
  1  'x, y, z'
loop_
 _atom_site_type_symbol
 _atom_site_label
 _atom_site_symmetry_multiplicity
 _atom_site_fract_x
 _atom_site_fract_y
 _atom_site_fract_z
 _atom_site_occupancy
  Tl  Tl0  1  0.76142854  0.72638829  0.43293193  1
  Tl  Tl1  1  0.76617315  0.09436273  0.05996151  1
  Tl  Tl2  1  0.65904394  0.69603372  0.03406897  1
  Tl  Tl3  1  0.09966364  0.42743049  0.39371428  1
  Tl  Tl4  1  0.09436273  0.05996151  0.76617315  1
  Tl  Tl5  1  0.43293193  0.76142854  0.72638829  1
  Tl  Tl6  1  0.70057173  0.32613740  0.36234825  1
  Tl  Tl7  1  0.36701917  0.99231345  0.02951025  1
  Tl  Tl8  1  0.99231345  0.02951025  0.36701917  1
  Tl  Tl9  1  0.36234825  0.70057173  0.32613740  1
  Tl  Tl10  1  0.42743049  0.39371428  0.09966364  1
  Tl  Tl11  1  0.72638829  0.43293193  0.76142854  1
  Tl  Tl12  1  0.39371428  0.09966364  0.42743049  1
  Tl  Tl13  1  0.69603372  0.03406897  0.65904394  1
  Tl  Tl14  1  0.05996151  0.76617315  0.09436273  1
  Tl  Tl15  1  0.02951025  0.36701917  0.99231345  1
  Tl  Tl16  1  0.03406897  0.65904394  0.69603372  1
  Tl  Tl17  1  0.32613740  0.36234825  0.70057173  1
  S  S0  1  0.53516089  0.53516089  0.53516089  1
  S  S1  1  0.20161054  0.20161054  0.20161054  1
  S  S2  1  0.24756299  0.58086391  0.91399852  1
  S  S3  1  0.87399316  0.54049856  0.20696227  1
  S  S4  1  0.91399852  0.24756299  0.58086391  1
  S  S5  1  0.20696227  0.87399316  0.54049856  1
  S  S6  1  0.58086391  0.91399852  0.24756299  1
  S  S7  1  0.54049856  0.20696227  0.87399316  1
  S  S8  1  0.86824972  0.86824972  0.86824972  1
loop_
_geom_bond_atom_site_label_1
_geom_bond_atom_site_label_2
_geom_bond_distance
_geom_bond_site_symmetry_2
S0 Tl6 2.888194 1_555
S0 Tl9 2.888194 1_555
S0 Tl17 2.888195 1_555
S0 Tl5 2.977345 1_555
S0 Tl11 2.977345 1_555
S0 Tl0 2.977346 1_555
S1 Tl7 2.885998 1_545
S1 Tl15 2.885998 1_554
S1 Tl8 2.885999 1_455
S1 Tl3 2.979361 1_555
S1 Tl12 2.979362 1_555
S1 Tl10 2.979362 1_555
S2 Tl10 2.864353 1_556
S2 Tl14 2.866960 1_556
S2 Tl5 2.868477 1_555
S2 Tl16 3.048285 1_555
S2 Tl15 3.051389 1_555
S2 Tl17 3.051846 1_555
S3 Tl6 2.895559 1_555
S3 Tl2 2.896985 1_555
S3 Tl15 2.898221 1_654
S3 Tl14 2.953740 1_655
S3 Tl0 2.955333 1_555
S3 Tl3 2.959281 1_655
S4 Tl3 2.864354 1_655
S4 Tl4 2.866961 1_655
S4 Tl11 2.868476 1_555
S4 Tl13 3.048285 1_555
S4 Tl8 3.051388 1_555
S4 Tl6 3.051846 1_555
S5 Tl9 2.895558 1_555
S5 Tl16 2.896985 1_555
S5 Tl8 2.898221 1_465
S5 Tl4 2.953740 1_565
S5 Tl5 2.955333 1_555
S5 Tl12 2.959281 1_565
S6 Tl12 2.864353 1_565
S6 Tl1 2.866961 1_565
S6 Tl0 2.868476 1_555
S6 Tl2 3.048285 1_555
S6 Tl7 3.051389 1_555
S6 Tl9 3.051847 1_555
S7 Tl17 2.895558 1_555
S7 Tl13 2.896984 1_555
S7 Tl7 2.898222 1_546
S7 Tl1 2.953740 1_556
S7 Tl11 2.955334 1_555
S7 Tl10 2.959280 1_556
S8 Tl16 2.887415 1_655
S8 Tl13 2.887415 1_565
S8 Tl2 2.887416 1_556
S8 Tl1 2.979133 1_566
S8 Tl14 2.979134 1_656
S8 Tl4 2.979134 1_665
