# generated using pymatgen
data_KGaP2O7
_symmetry_space_group_name_H-M   'P 1'
_cell_length_a   9.85918401
_cell_length_b   7.33046147
_cell_length_c   8.17088395
_cell_angle_alpha   73.12824925
_cell_angle_beta   90.00000000
_cell_angle_gamma   90.00000000
_symmetry_Int_Tables_number   1
_chemical_formula_structural   KGaP2O7
_chemical_formula_sum   'K4 Ga4 P8 O28'
_cell_volume   565.11086981
_cell_formula_units_Z   4
loop_
 _symmetry_equiv_pos_site_id
 _symmetry_equiv_pos_as_xyz
  1  'x, y, z'
loop_
 _atom_site_type_symbol
 _atom_site_label
 _atom_site_symmetry_multiplicity
 _atom_site_fract_x
 _atom_site_fract_y
 _atom_site_fract_z
 _atom_site_occupancy
  K  K0  1  0.32147145  0.17635926  0.94412973  1
  K  K1  1  0.82147145  0.82364074  0.55587027  1
  K  K2  1  0.67852855  0.82364074  0.05587027  1
  K  K3  1  0.17852855  0.17635926  0.44412973  1
  Ga  Ga0  1  0.59964281  0.23669702  0.23945391  1
  Ga  Ga1  1  0.09964281  0.76330298  0.26054609  1
  Ga  Ga2  1  0.40035719  0.76330298  0.76054609  1
  Ga  Ga3  1  0.90035719  0.23669702  0.73945391  1
  P  P0  1  0.59683368  0.13017278  0.66910411  1
  P  P1  1  0.09683368  0.86982722  0.83089589  1
  P  P2  1  0.40316632  0.86982722  0.33089589  1
  P  P3  1  0.90316632  0.13017278  0.16910411  1
  P  P4  1  0.86450459  0.44063906  0.30800687  1
  P  P5  1  0.36450459  0.55936094  0.19199313  1
  P  P6  1  0.13549541  0.55936094  0.69199313  1
  P  P7  1  0.63549541  0.44063906  0.80800687  1
  O  O0  1  0.55747040  0.33698257  0.68594457  1
  O  O1  1  0.05747040  0.66301743  0.81405543  1
  O  O2  1  0.44252960  0.66301743  0.31405543  1
  O  O3  1  0.94252960  0.33698257  0.18594457  1
  O  O4  1  0.76316116  0.08063687  0.24737658  1
  O  O5  1  0.26316116  0.91936313  0.25262342  1
  O  O6  1  0.23683884  0.91936313  0.75262342  1
  O  O7  1  0.73683884  0.08063687  0.74737658  1
  O  O8  1  0.00534532  0.99383137  0.27905930  1
  O  O9  1  0.50534532  0.00616863  0.22094070  1
  O  O10  1  0.99465468  0.00616863  0.72094070  1
  O  O11  1  0.49465468  0.99383137  0.77905930  1
  O  O12  1  0.90756113  0.14176423  0.98463596  1
  O  O13  1  0.40756113  0.85823577  0.51536404  1
  O  O14  1  0.09243887  0.85823577  0.01536404  1
  O  O15  1  0.59243887  0.14176423  0.48463596  1
  O  O16  1  0.60471169  0.32084558  0.98756654  1
  O  O17  1  0.10471169  0.67915442  0.51243346  1
  O  O18  1  0.39528831  0.67915442  0.01243346  1
  O  O19  1  0.89528831  0.32084558  0.48756654  1
  O  O20  1  0.57772722  0.64058110  0.76343132  1
  O  O21  1  0.07772722  0.35941890  0.73656868  1
  O  O22  1  0.42227278  0.35941890  0.23656868  1
  O  O23  1  0.92227278  0.64058110  0.26343132  1
  O  O24  1  0.78458717  0.45234371  0.75646931  1
  O  O25  1  0.28458717  0.54765629  0.74353069  1
  O  O26  1  0.21541283  0.54765629  0.24353069  1
  O  O27  1  0.71541283  0.45234371  0.25646931  1
loop_
_geom_bond_atom_site_label_1
_geom_bond_atom_site_label_2
_geom_bond_distance
_geom_bond_site_symmetry_2
K0 O5 2.734395 1_546
K0 O11 2.751795 1_545
K0 O25 2.763572 1_555
K0 O9 2.884551 1_556
K0 O6 2.899133 1_545
K0 O21 3.021747 1_555
K0 O16 3.043702 1_555
K0 O0 3.131894 1_555
K0 O14 3.176159 1_546
K0 O22 3.218583 1_556
K1 O4 2.734395 1_565
K1 O10 2.751795 1_565
K1 O24 2.763572 1_555
K1 O8 2.884551 1_655
K1 O7 2.899133 1_565
K1 O20 3.021747 1_555
K1 O17 3.043702 1_655
K1 O1 3.131894 1_655
K1 O15 3.176159 1_565
K1 O23 3.218583 1_555
K2 O7 2.734395 1_564
K2 O9 2.751795 1_565
K2 O27 2.763572 1_555
K2 O11 2.884551 1_554
K2 O4 2.899133 1_565
K2 O23 3.021747 1_555
K2 O18 3.043702 1_555
K2 O2 3.131894 1_555
K2 O12 3.176159 1_564
K2 O20 3.218583 1_554
K3 O6 2.734395 1_545
K3 O8 2.751795 1_545
K3 O26 2.763572 1_555
K3 O10 2.884551 1_455
K3 O5 2.899133 1_545
K3 O22 3.021747 1_555
K3 O19 3.043702 1_455
K3 O3 3.131894 1_455
K3 O13 3.176159 1_545
K3 O21 3.218583 1_555
Ga0 O15 1.921850 1_555
Ga0 O22 1.963562 1_555
Ga0 O4 1.966971 1_555
Ga0 O16 1.970284 1_554
Ga0 O9 1.972636 1_555
Ga0 O27 1.987105 1_555
Ga1 O14 1.921850 1_555
Ga1 O23 1.963562 1_455
Ga1 O5 1.966971 1_555
Ga1 O17 1.970284 1_555
Ga1 O8 1.972636 1_555
Ga1 O26 1.987105 1_555
Ga2 O13 1.921850 1_555
Ga2 O20 1.963562 1_555
Ga2 O6 1.966971 1_555
Ga2 O18 1.970284 1_556
Ga2 O11 1.972636 1_555
Ga2 O25 1.987105 1_555
Ga3 O12 1.921850 1_555
Ga3 O21 1.963562 1_655
Ga3 O7 1.966971 1_555
Ga3 O19 1.970284 1_555
Ga3 O10 1.972636 1_555
Ga3 O24 1.987105 1_555
O0 P0 1.609014 1_555
O0 P7 1.613616 1_555
O1 P1 1.609014 1_555
O1 P6 1.613616 1_555
O2 P2 1.609014 1_555
O2 P5 1.613616 1_555
O3 P3 1.609014 1_555
O3 P4 1.613616 1_555
O4 P3 1.520333 1_555
O5 P2 1.520333 1_555
O6 P1 1.520333 1_555
O7 P0 1.520333 1_555
O8 P3 1.516480 1_465
O9 P2 1.516480 1_545
O10 P1 1.516480 1_645
O11 P0 1.516480 1_565
O12 P3 1.485467 1_556
O13 P2 1.485467 1_555
O14 P1 1.485467 1_554
O15 P0 1.485467 1_555
O16 P7 1.505974 1_555
O17 P6 1.505974 1_555
O18 P5 1.505974 1_555
O19 P4 1.505974 1_555
O20 P7 1.515043 1_555
O21 P6 1.515043 1_555
O22 P5 1.515043 1_555
O23 P4 1.515043 1_555
O24 P7 1.524596 1_555
O25 P6 1.524596 1_555
O26 P5 1.524596 1_555
O27 P4 1.524596 1_555
