# generated using pymatgen
data_GaNi10P3
_symmetry_space_group_name_H-M   'P 1'
_cell_length_a   7.61904430
_cell_length_b   7.61904430
_cell_length_c   9.42113100
_cell_angle_alpha   90.00000000
_cell_angle_beta   90.00000000
_cell_angle_gamma   120.00000258
_symmetry_Int_Tables_number   1
_chemical_formula_structural   GaNi10P3
_chemical_formula_sum   'Ga3 Ni30 P9'
_cell_volume   473.62504574
_cell_formula_units_Z   3
loop_
 _symmetry_equiv_pos_site_id
 _symmetry_equiv_pos_as_xyz
  1  'x, y, z'
loop_
 _atom_site_type_symbol
 _atom_site_label
 _atom_site_symmetry_multiplicity
 _atom_site_fract_x
 _atom_site_fract_y
 _atom_site_fract_z
 _atom_site_occupancy
  Ga  Ga0  1  0.33333300  0.66666700  0.36038600  1
  Ga  Ga1  1  0.66666700  0.33333300  0.63961400  1
  Ga  Ga2  1  0.00000000  0.00000000  0.00000000  1
  Ni  Ni0  1  0.33987600  0.00000000  0.50000000  1
  Ni  Ni1  1  0.66012400  0.00000000  0.50000000  1
  Ni  Ni2  1  0.00000000  0.33987600  0.50000000  1
  Ni  Ni3  1  0.00000000  0.66012400  0.50000000  1
  Ni  Ni4  1  0.66012400  0.66012400  0.50000000  1
  Ni  Ni5  1  0.33987600  0.33987600  0.50000000  1
  Ni  Ni6  1  0.00000000  0.00000000  0.38011600  1
  Ni  Ni7  1  0.00000000  0.00000000  0.61988400  1
  Ni  Ni8  1  0.81494600  0.18505400  0.06754500  1
  Ni  Ni9  1  0.18505400  0.81494600  0.93245500  1
  Ni  Ni10  1  0.81494600  0.62989200  0.06754500  1
  Ni  Ni11  1  0.18505400  0.37010800  0.93245500  1
  Ni  Ni12  1  0.37010800  0.18505400  0.06754500  1
  Ni  Ni13  1  0.62989200  0.81494600  0.93245500  1
  Ni  Ni14  1  0.33333300  0.66666700  0.10111500  1
  Ni  Ni15  1  0.66666700  0.33333300  0.89888500  1
  Ni  Ni16  1  0.50598100  0.49401900  0.24352800  1
  Ni  Ni17  1  0.49401900  0.50598100  0.75647200  1
  Ni  Ni18  1  0.50598100  0.01196100  0.24352800  1
  Ni  Ni19  1  0.49401900  0.98803900  0.75647200  1
  Ni  Ni20  1  0.98803900  0.49401900  0.24352800  1
  Ni  Ni21  1  0.01196100  0.50598100  0.75647200  1
  Ni  Ni22  1  0.33333300  0.66666700  0.61019700  1
  Ni  Ni23  1  0.66666700  0.33333300  0.38980300  1
  Ni  Ni24  1  0.13539900  0.86460100  0.19914700  1
  Ni  Ni25  1  0.86460100  0.13539900  0.80085300  1
  Ni  Ni26  1  0.13539900  0.27079700  0.19914700  1
  Ni  Ni27  1  0.86460100  0.72920300  0.80085300  1
  Ni  Ni28  1  0.72920300  0.86460100  0.19914700  1
  Ni  Ni29  1  0.27079700  0.13539900  0.80085300  1
  P  P0  1  0.50000000  0.00000000  0.00000000  1
  P  P1  1  0.00000000  0.50000000  0.00000000  1
  P  P2  1  0.50000000  0.50000000  0.00000000  1
  P  P3  1  0.83456800  0.16543200  0.30909600  1
  P  P4  1  0.16543200  0.83456800  0.69090400  1
  P  P5  1  0.83456800  0.66913700  0.30909600  1
  P  P6  1  0.16543200  0.33086300  0.69090400  1
  P  P7  1  0.33086300  0.16543200  0.30909600  1
  P  P8  1  0.66913700  0.83456800  0.69090400  1
loop_
_geom_bond_atom_site_label_1
_geom_bond_atom_site_label_2
_geom_bond_distance
_geom_bond_site_symmetry_2
Ga0 Ni22 2.353502 1_555
Ga0 Ni14 2.442626 1_555
Ga0 Ni18 2.530401 1_565
Ga0 Ni20 2.530401 1_455
Ga0 Ni16 2.530413 1_555
Ga1 Ni23 2.353502 1_555
Ga1 Ni15 2.442626 1_555
Ga1 Ni21 2.530401 1_655
Ga1 Ni19 2.530401 1_545
Ga1 Ni17 2.530413 1_555
Ga2 Ni12 2.523626 1_555
Ga2 Ni13 2.523626 1_444
Ga2 Ni10 2.523626 1_445
Ga2 Ni11 2.523626 1_554
Ga2 Ni8 2.523626 1_455
Ga2 Ni9 2.523626 1_544
Ga2 Ni27 2.590893 1_444
Ga2 Ni29 2.590893 1_554
Ga2 Ni28 2.590893 1_445
Ga2 Ni26 2.590893 1_555
Ga2 Ni25 2.590898 1_454
Ga2 Ni24 2.590898 1_545
Ni0 P4 2.216905 1_545
Ni0 P7 2.216908 1_555
Ni0 Ni19 2.707932 1_545
Ni0 Ni18 2.707935 1_555
Ni1 P3 2.216905 1_555
Ni1 P8 2.216908 1_545
Ni1 Ni18 2.707932 1_555
Ni1 Ni19 2.707935 1_545
Ni2 P3 2.216905 1_455
Ni2 P6 2.216908 1_555
Ni2 Ni20 2.707932 1_455
Ni2 Ni21 2.707935 1_555
Ni3 P4 2.216905 1_555
Ni3 P5 2.216908 1_455
Ni4 P8 2.216903 1_555
Ni4 P5 2.216903 1_555
Ni5 P6 2.216903 1_555
Ni5 P7 2.216903 1_555
Ni6 Ni7 2.258886 1_555
Ni6 P7 2.283359 1_555
Ni6 P5 2.283359 1_445
Ni6 P3 2.283366 1_455
Ni7 P8 2.283359 1_445
Ni7 P6 2.283359 1_555
Ni7 P4 2.283366 1_545
Ni8 P0 2.183487 1_555
Ni8 P1 2.183487 1_655
Ni8 P3 2.290368 1_555
Ni9 P1 2.183487 1_556
Ni9 P0 2.183487 1_566
Ni9 P4 2.290368 1_555
Ni10 P2 2.183487 1_555
Ni10 P1 2.183487 1_655
Ni10 P5 2.290369 1_555
Ni10 Ni16 2.631536 1_555
Ni10 Ni20 2.631541 1_555
Ni11 P2 2.183487 1_556
Ni11 P1 2.183487 1_556
Ni11 P6 2.290369 1_555
Ni11 Ni17 2.631536 1_555
Ni11 Ni21 2.631541 1_555
Ni12 P2 2.183487 1_555
Ni12 P0 2.183487 1_555
Ni12 P7 2.290369 1_555
Ni12 Ni16 2.631536 1_555
Ni12 Ni18 2.631541 1_555
Ni13 P2 2.183487 1_556
Ni13 P0 2.183487 1_566
Ni13 P8 2.290369 1_555
Ni13 Ni17 2.631536 1_555
Ni13 Ni19 2.631541 1_555
Ni14 P1 2.396864 1_555
Ni14 P0 2.396864 1_565
Ni14 P2 2.396870 1_555
Ni14 Ni18 2.644051 1_565
Ni14 Ni20 2.644051 1_455
Ni14 Ni16 2.644063 1_555
Ni15 P0 2.396864 1_556
Ni15 P1 2.396864 1_656
Ni15 P2 2.396870 1_556
Ni15 Ni21 2.644051 1_655
Ni15 Ni19 2.644051 1_545
Ni15 Ni17 2.644063 1_555
Ni16 P5 2.255901 1_555
Ni16 P7 2.255901 1_555
Ni16 P2 2.295666 1_555
Ni16 Ni28 2.497474 1_555
Ni16 Ni26 2.497474 1_555
Ni16 Ni23 2.528959 1_555
Ni16 Ni5 2.707934 1_555
Ni16 Ni4 2.707934 1_555
Ni17 P6 2.255901 1_555
Ni17 P8 2.255901 1_555
Ni17 P2 2.295666 1_556
Ni17 Ni27 2.497474 1_555
Ni17 Ni29 2.497474 1_555
Ni17 Ni22 2.528959 1_555
Ni17 Ni5 2.707934 1_555
Ni17 Ni4 2.707934 1_555
Ni18 P3 2.255901 1_555
Ni18 P7 2.255914 1_555
Ni18 P0 2.295666 1_555
Ni18 Ni24 2.497474 1_545
Ni18 Ni28 2.497474 1_545
Ni18 Ni23 2.528959 1_555
Ni18 Ni8 2.631536 1_555
Ni19 P4 2.255901 1_555
Ni19 P8 2.255914 1_555
Ni19 P0 2.295666 1_566
Ni19 Ni25 2.497474 1_565
Ni19 Ni29 2.497474 1_565
Ni19 Ni22 2.528959 1_555
Ni19 Ni9 2.631536 1_555
Ni20 P3 2.255901 1_555
Ni20 P5 2.255914 1_555
Ni20 P1 2.295666 1_655
Ni20 Ni24 2.497474 1_655
Ni20 Ni26 2.497474 1_655
Ni20 Ni23 2.528959 1_555
Ni20 Ni8 2.631536 1_555
Ni20 Ni3 2.707935 1_655
Ni21 P4 2.255901 1_555
Ni21 P6 2.255914 1_555
Ni21 P1 2.295666 1_556
Ni21 Ni25 2.497474 1_455
Ni21 Ni27 2.497474 1_455
Ni21 Ni22 2.528959 1_555
Ni21 Ni9 2.631536 1_555
Ni21 Ni3 2.707932 1_555
Ni22 P4 2.342550 1_555
Ni22 P6 2.342562 1_555
Ni22 P8 2.342562 1_555
Ni23 P3 2.342550 1_555
Ni23 P5 2.342562 1_555
Ni23 P7 2.342562 1_555
Ni24 P5 2.265144 1_455
Ni24 P7 2.265144 1_565
Ni25 P6 2.265144 1_655
Ni25 P8 2.265144 1_545
Ni26 P7 2.265134 1_555
Ni26 P3 2.265147 1_455
Ni27 P8 2.265134 1_555
Ni27 P4 2.265147 1_655
Ni28 P5 2.265134 1_555
Ni28 P3 2.265147 1_565
Ni29 P6 2.265134 1_555
Ni29 P4 2.265147 1_545
