# generated using pymatgen
data_Ag2P2H2O7
_symmetry_space_group_name_H-M   'P 1'
_cell_length_a   15.05104254
_cell_length_b   14.19581817
_cell_length_c   7.07006118
_cell_angle_alpha   82.85324496
_cell_angle_beta   69.36600312
_cell_angle_gamma   27.78075191
_symmetry_Int_Tables_number   1
_chemical_formula_structural   Ag2P2H2O7
_chemical_formula_sum   'Ag8 P8 H8 O28'
_cell_volume   595.02235033
_cell_formula_units_Z   4
loop_
 _symmetry_equiv_pos_site_id
 _symmetry_equiv_pos_as_xyz
  1  'x, y, z'
loop_
 _atom_site_type_symbol
 _atom_site_label
 _atom_site_symmetry_multiplicity
 _atom_site_fract_x
 _atom_site_fract_y
 _atom_site_fract_z
 _atom_site_occupancy
  Ag  Ag0  1  0.80582454  0.29147907  0.41166330  1
  Ag  Ag1  1  0.29147907  0.80582454  0.49103309  1
  Ag  Ag2  1  0.41166330  0.49103309  0.80582454  1
  Ag  Ag3  1  0.49103309  0.41166330  0.29147907  1
  Ag  Ag4  1  0.44417546  0.95852093  0.83833670  1
  Ag  Ag5  1  0.95852093  0.44417546  0.75896691  1
  Ag  Ag6  1  0.83833670  0.75896691  0.44417546  1
  Ag  Ag7  1  0.75896691  0.83833670  0.95852093  1
  P  P0  1  0.77111601  0.37410313  0.94049025  1
  P  P1  1  0.37410313  0.77111601  0.91429060  1
  P  P2  1  0.94049025  0.91429060  0.77111601  1
  P  P3  1  0.91429060  0.94049025  0.37410313  1
  P  P4  1  0.47888399  0.87589687  0.30950975  1
  P  P5  1  0.87589687  0.47888399  0.33570940  1
  P  P6  1  0.30950975  0.33570940  0.47888399  1
  P  P7  1  0.33570940  0.30950975  0.87589687  1
  H  H0  1  0.13490772  0.13490772  0.36509228  1
  H  H1  1  0.36509228  0.36509228  0.13490772  1
  H  H2  1  0.11509228  0.11509228  0.88490772  1
  H  H3  1  0.88490772  0.88490772  0.11509228  1
  H  H4  1  0.43184851  0.06815149  0.43184851  1
  H  H5  1  0.06815149  0.43184851  0.06815149  1
  H  H6  1  0.81815149  0.18184851  0.81815149  1
  H  H7  1  0.18184851  0.81815149  0.18184851  1
  O  O0  1  0.59700592  0.59700592  0.90299408  1
  O  O1  1  0.90299408  0.90299408  0.59700592  1
  O  O2  1  0.65299408  0.65299408  0.34700592  1
  O  O3  1  0.34700592  0.34700592  0.65299408  1
  O  O4  1  0.95664545  0.30872704  0.38358812  1
  O  O5  1  0.30872704  0.95664545  0.35103939  1
  O  O6  1  0.38358812  0.35103939  0.95664545  1
  O  O7  1  0.35103939  0.38358812  0.30872704  1
  O  O8  1  0.29335455  0.94127296  0.86641188  1
  O  O9  1  0.94127296  0.29335455  0.89896061  1
  O  O10  1  0.86641188  0.89896061  0.29335455  1
  O  O11  1  0.89896061  0.86641188  0.94127296  1
  O  O12  1  0.75822686  0.15523216  0.87681368  1
  O  O13  1  0.15523216  0.75822686  0.20972730  1
  O  O14  1  0.87681368  0.20972730  0.75822686  1
  O  O15  1  0.20972730  0.87681368  0.15523216  1
  O  O16  1  0.49177314  0.09476784  0.37318632  1
  O  O17  1  0.09476784  0.49177314  0.04027270  1
  O  O18  1  0.37318632  0.04027270  0.49177314  1
  O  O19  1  0.04027270  0.37318632  0.09476784  1
  O  O20  1  0.50350491  0.07815182  0.81839996  1
  O  O21  1  0.07815182  0.50350491  0.59994331  1
  O  O22  1  0.81839996  0.59994331  0.50350491  1
  O  O23  1  0.59994331  0.81839996  0.07815182  1
  O  O24  1  0.74649509  0.17184818  0.43160004  1
  O  O25  1  0.17184818  0.74649509  0.65005669  1
  O  O26  1  0.43160004  0.65005669  0.74649509  1
  O  O27  1  0.65005669  0.43160004  0.17184818  1
loop_
_geom_bond_atom_site_label_1
_geom_bond_atom_site_label_2
_geom_bond_distance
_geom_bond_site_symmetry_2
Ag0 O4 2.430254 1_555
Ag0 O27 2.457332 1_555
Ag0 O26 2.471481 1_555
Ag0 O24 2.497293 1_555
Ag0 O15 2.541851 1_645
Ag0 O14 2.726814 1_555
Ag1 O5 2.430254 1_555
Ag1 O26 2.457332 1_555
Ag1 O27 2.471481 1_555
Ag1 O25 2.497293 1_555
Ag1 O14 2.541851 1_465
Ag1 O15 2.726814 1_555
Ag2 O6 2.430254 1_555
Ag2 O25 2.457332 1_555
Ag2 O24 2.471481 1_555
Ag2 O26 2.497293 1_555
Ag2 O13 2.541851 1_556
Ag2 O12 2.726814 1_555
Ag3 O7 2.430254 1_555
Ag3 O24 2.457332 1_555
Ag3 O25 2.471481 1_555
Ag3 O27 2.497293 1_555
Ag3 O12 2.541851 1_554
Ag3 O13 2.726814 1_555
Ag4 O8 2.430254 1_555
Ag4 O23 2.457332 1_556
Ag4 O22 2.471481 1_555
Ag4 O20 2.497293 1_565
Ag4 O19 2.541851 1_566
Ag4 O18 2.726814 1_565
Ag5 O9 2.430254 1_555
Ag5 O22 2.457332 1_555
Ag5 O23 2.471481 1_556
Ag5 O21 2.497293 1_655
Ag5 O18 2.541851 1_655
Ag5 O19 2.726814 1_656
Ag6 O10 2.430254 1_555
Ag6 O21 2.457332 1_655
Ag6 O20 2.471481 1_565
Ag6 O22 2.497293 1_555
Ag6 O17 2.541851 1_655
Ag6 O16 2.726814 1_565
Ag7 O11 2.430254 1_555
Ag7 O20 2.457332 1_565
Ag7 O21 2.471481 1_655
Ag7 O23 2.497293 1_556
Ag7 O16 2.541851 1_566
Ag7 O17 2.726814 1_656
H0 O5 1.192781 1_545
H0 O4 1.192781 1_455
H1 O6 1.192781 1_554
H1 O7 1.192781 1_555
H2 O9 1.192781 1_455
H2 O8 1.192781 1_545
H3 O11 1.192781 1_554
H3 O10 1.192781 1_555
H4 O18 1.195252 1_555
H4 O16 1.195252 1_555
H5 O17 1.195252 1_555
H5 O19 1.195252 1_555
H6 O12 1.195252 1_555
H6 O14 1.195252 1_555
H7 O13 1.195252 1_555
H7 O15 1.195252 1_555
O0 P0 1.599495 1_555
O0 P1 1.599495 1_555
O1 P2 1.599495 1_555
O1 P3 1.599495 1_555
O2 P4 1.599495 1_555
O2 P5 1.599495 1_555
O3 P6 1.599495 1_555
O3 P7 1.599495 1_555
O4 P5 1.522576 1_555
O5 P4 1.522576 1_555
O6 P7 1.522576 1_555
O7 P6 1.522576 1_555
O8 P1 1.522576 1_555
O9 P0 1.522576 1_555
O10 P3 1.522576 1_555
O11 P2 1.522576 1_555
O12 P2 1.539829 1_545
O13 P3 1.539829 1_455
O14 P0 1.539829 1_555
O15 P1 1.539829 1_554
O16 P6 1.539829 1_555
O17 P7 1.539829 1_554
O18 P4 1.539829 1_545
O19 P5 1.539829 1_455
O20 P7 1.503923 1_555
O21 P6 1.503923 1_555
O22 P5 1.503923 1_555
O23 P4 1.503923 1_555
O24 P3 1.503923 1_545
O25 P2 1.503923 1_455
O26 P1 1.503923 1_555
O27 P0 1.503923 1_554
