# generated using pymatgen
data_Sm6Ge3S14
_symmetry_space_group_name_H-M   'P 1'
_cell_length_a   10.12390165
_cell_length_b   10.12389103
_cell_length_c   5.77051721
_cell_angle_alpha   90.00000796
_cell_angle_beta   90.00005113
_cell_angle_gamma   119.99983585
_symmetry_Int_Tables_number   1
_chemical_formula_structural   Sm6Ge3S14
_chemical_formula_sum   'Sm6 Ge3 S14'
_cell_volume   512.20223614
_cell_formula_units_Z   1
loop_
 _symmetry_equiv_pos_site_id
 _symmetry_equiv_pos_as_xyz
  1  'x, y, z'
loop_
 _atom_site_type_symbol
 _atom_site_label
 _atom_site_symmetry_multiplicity
 _atom_site_fract_x
 _atom_site_fract_y
 _atom_site_fract_z
 _atom_site_occupancy
  Sm  Sm0  1  0.30937054  0.10219981  0.75606356  1
  Sm  Sm1  1  0.79282852  0.69062982  0.75606304  1
  Sm  Sm2  1  0.89779984  0.20717058  0.75606285  1
  Sm  Sm3  1  0.02602937  0.56527519  0.24663159  1
  Sm  Sm4  1  0.53924574  0.97397089  0.24663183  1
  Sm  Sm5  1  0.43472456  0.46075446  0.24663043  1
  Ge  Ge0  1  0.00000040  -0.00000068  0.17240215  1
  Ge  Ge1  1  0.33333292  0.66666716  0.66279182  1
  Ge  Ge2  1  0.66666661  0.33333376  0.51543145  1
  S  S0  1  0.14788604  0.22861535  0.01417950  1
  S  S1  1  0.08072916  0.85211312  0.01417982  1
  S  S2  1  0.77138461  0.91927168  0.01418013  1
  S  S3  1  0.18482336  0.43760171  0.50747050  1
  S  S4  1  0.25277794  0.81517690  0.50747066  1
  S  S5  1  0.56239811  0.74722181  0.50747083  1
  S  S6  1  -0.00000024  -0.00000019  0.54897839  1
  S  S7  1  0.33333337  0.66666701  0.04028165  1
  S  S8  1  0.41223367  0.17127454  0.27838992  1
  S  S9  1  0.75904063  0.58776640  0.27838972  1
  S  S10  1  0.82872511  0.24095902  0.27839034  1
  S  S11  1  0.92474240  0.50011846  0.76965011  1
  S  S12  1  0.57537543  0.07525727  0.76965026  1
  S  S13  1  0.49988091  0.42462592  0.76965143  1
loop_
_geom_bond_atom_site_label_1
_geom_bond_atom_site_label_2
_geom_bond_distance
_geom_bond_site_symmetry_2
Ge0 S6 2.173040 1_555
Ge0 S1 2.228624 1_545
Ge0 S2 2.228636 1_445
Ge0 S0 2.228637 1_555
Ge1 S7 2.178312 1_556
Ge1 S4 2.225996 1_555
Ge1 S3 2.226005 1_555
Ge1 S5 2.226006 1_555
Ge2 S10 2.640399 1_555
Ge2 S9 2.640399 1_555
Ge2 S8 2.640403 1_555
Ge2 S11 2.723572 1_555
Ge2 S12 2.723576 1_555
Ge2 S13 2.723587 1_555
S0 Sm2 2.850653 1_454
S0 Sm0 2.936236 1_554
S0 Sm5 2.988412 1_555
S1 Sm0 2.850659 1_564
S1 Sm1 2.936247 1_454
S1 Sm3 2.988403 1_555
S2 Sm1 2.850651 1_554
S2 Sm2 2.936235 1_564
S2 Sm4 2.988407 1_555
S3 Sm5 2.851014 1_555
S3 Sm3 2.932334 1_555
S3 Sm2 3.027363 1_455
S4 Sm3 2.851015 1_555
S4 Sm4 2.932345 1_555
S4 Sm0 3.027351 1_565
S5 Sm4 2.851010 1_555
S5 Sm5 2.932341 1_555
S5 Sm1 3.027346 1_555
S6 Sm2 3.011238 1_455
S6 Sm1 3.011242 1_445
S6 Sm0 3.011246 1_555
S7 Sm5 2.992830 1_555
S7 Sm4 2.992840 1_555
S7 Sm3 2.992842 1_555
S8 Sm5 2.829651 1_555
S8 Sm4 2.871482 1_545
S8 Sm0 2.905707 1_555
S8 Sm0 3.151191 1_554
S9 Sm3 2.829651 1_655
S9 Sm5 2.871493 1_555
S9 Sm1 2.905705 1_555
S9 Sm1 3.151195 1_554
S10 Sm4 2.829651 1_545
S10 Sm3 2.871493 1_655
S10 Sm2 2.905699 1_555
S10 Sm2 3.151199 1_554
S11 Sm2 2.840317 1_555
S11 Sm1 2.843477 1_555
S11 Sm3 2.895871 1_656
S11 Sm3 3.149454 1_655
S12 Sm0 2.840314 1_555
S12 Sm2 2.843479 1_555
S12 Sm4 2.895871 1_546
S12 Sm4 3.149451 1_545
S13 Sm1 2.840318 1_555
S13 Sm0 2.843490 1_555
S13 Sm5 2.895853 1_556
S13 Sm5 3.149461 1_555
