# generated using pymatgen
data_ZnCu2SiTe4
_symmetry_space_group_name_H-M   'P 1'
_cell_length_a   7.29538605
_cell_length_b   7.29538605
_cell_length_c   7.29538605
_cell_angle_alpha   131.63448867
_cell_angle_beta   131.63448867
_cell_angle_gamma   70.80692852
_symmetry_Int_Tables_number   1
_chemical_formula_structural   ZnCu2SiTe4
_chemical_formula_sum   'Zn1 Cu2 Si1 Te4'
_cell_volume   212.43916844
_cell_formula_units_Z   1
loop_
 _symmetry_equiv_pos_site_id
 _symmetry_equiv_pos_as_xyz
  1  'x, y, z'
loop_
 _atom_site_type_symbol
 _atom_site_label
 _atom_site_symmetry_multiplicity
 _atom_site_fract_x
 _atom_site_fract_y
 _atom_site_fract_z
 _atom_site_occupancy
  Zn  Zn0  1  0.00000000  0.00000000  0.00000000  1
  Cu  Cu0  1  0.75000000  0.25000000  0.50000000  1
  Cu  Cu1  1  0.25000000  0.75000000  0.50000000  1
  Si  Si0  1  0.50000000  0.50000000  0.00000000  1
  Te  Te0  1  0.38767479  0.87147452  0.00000000  1
  Te  Te1  1  0.87147452  0.38767479  0.00000000  1
  Te  Te2  1  0.61232521  0.61232521  0.48379973  1
  Te  Te3  1  0.12852548  0.12852548  0.51620027  1
loop_
_geom_bond_atom_site_label_1
_geom_bond_atom_site_label_2
_geom_bond_distance
_geom_bond_site_symmetry_2
Cu0 Te3 2.553738 1_655
Cu0 Te1 2.553738 1_556
Cu0 Te2 2.553738 1_555
Cu0 Te0 2.553738 1_545
Cu1 Te2 2.553738 1_555
Cu1 Te3 2.553738 1_565
Cu1 Te1 2.553738 1_455
Cu1 Te0 2.553738 1_556
Si0 Te0 2.560413 1_555
Si0 Te2 2.560413 1_555
Si0 Te3 2.560413 1_554
Si0 Te1 2.560413 1_555
Te0 Zn0 2.671044 1_565
Te1 Zn0 2.671044 1_655
Te2 Zn0 2.671044 1_666
Te3 Zn0 2.671044 1_555
