# generated using pymatgen
data_BaFe2P4H4O17
_symmetry_space_group_name_H-M   'P 1'
_cell_length_a   8.10592300
_cell_length_b   9.41671717
_cell_length_c   9.53845870
_cell_angle_alpha   116.83442068
_cell_angle_beta   90.00000000
_cell_angle_gamma   90.00000000
_symmetry_Int_Tables_number   1
_chemical_formula_structural   BaFe2P4H4O17
_chemical_formula_sum   'Ba2 Fe4 P8 H8 O34'
_cell_volume   649.67820225
_cell_formula_units_Z   2
loop_
 _symmetry_equiv_pos_site_id
 _symmetry_equiv_pos_as_xyz
  1  'x, y, z'
loop_
 _atom_site_type_symbol
 _atom_site_label
 _atom_site_symmetry_multiplicity
 _atom_site_fract_x
 _atom_site_fract_y
 _atom_site_fract_z
 _atom_site_occupancy
  Ba  Ba0  1  0.84764800  0.67159100  0.84601800  1
  Ba  Ba1  1  0.34764800  0.32840900  0.15398200  1
  Fe  Fe0  1  0.33966900  0.76405200  0.74288400  1
  Fe  Fe1  1  0.83966900  0.23594800  0.25711600  1
  Fe  Fe2  1  0.60589100  0.25895800  0.74649900  1
  Fe  Fe3  1  0.10589100  0.74104200  0.25350100  1
  P  P0  1  0.41238400  0.92631600  0.50728000  1
  P  P1  1  0.91238400  0.07368400  0.49272000  1
  P  P2  1  0.28772000  0.51757500  0.91072800  1
  P  P3  1  0.78772000  0.48242500  0.08927200  1
  P  P4  1  0.54043100  0.42688200  0.51645500  1
  P  P5  1  0.04043100  0.57311800  0.48354500  1
  P  P6  1  0.65861200  0.01945100  0.91194900  1
  P  P7  1  0.15861200  0.98054900  0.08805100  1
  H  H0  1  0.06810800  0.26828500  0.50884200  1
  H  H1  1  0.56810800  0.73171500  0.49115800  1
  H  H2  1  0.84605200  0.03008600  0.75111200  1
  H  H3  1  0.34605200  0.96991400  0.24888800  1
  H  H4  1  0.08138900  0.35295100  0.79063200  1
  H  H5  1  0.58138900  0.64704900  0.20936800  1
  H  H6  1  0.88372100  0.76877900  0.50182700  1
  H  H7  1  0.38372100  0.23122100  0.49817300  1
  O  O0  1  0.32030000  0.89525600  0.63041600  1
  O  O1  1  0.82030000  0.10474400  0.36958400  1
  O  O2  1  0.87037800  0.66886600  0.51367000  1
  O  O3  1  0.37037800  0.33113400  0.48633000  1
  O  O4  1  0.48877200  0.60012300  0.56400400  1
  O  O5  1  0.98877200  0.39987700  0.43599600  1
  O  O6  1  0.19553200  0.93179600  0.91294200  1
  O  O7  1  0.69553200  0.06820400  0.08705800  1
  O  O8  1  0.35477100  0.64509100  0.87048200  1
  O  O9  1  0.85477100  0.35490900  0.12951800  1
  O  O10  1  0.56012700  0.86360000  0.84409700  1
  O  O11  1  0.06012700  0.13640000  0.15590300  1
  O  O12  1  0.31069300  0.87603000  0.35417000  1
  O  O13  1  0.81069300  0.12397000  0.64583000  1
  O  O14  1  0.75675400  0.42171300  0.91162600  1
  O  O15  1  0.25675400  0.57828700  0.08837400  1
  O  O16  1  0.57334500  0.15463500  0.89174000  1
  O  O17  1  0.07334500  0.84536500  0.10826000  1
  O  O18  1  0.63882500  0.40826400  0.64574900  1
  O  O19  1  0.13882500  0.59173600  0.35425100  1
  O  O20  1  0.07684800  0.17933300  0.53831000  1
  O  O21  1  0.57684800  0.82066700  0.46169000  1
  O  O22  1  0.63131100  0.35866500  0.35819600  1
  O  O23  1  0.13131100  0.64133500  0.64180400  1
  O  O24  1  0.11034000  0.46520300  0.82545700  1
  O  O25  1  0.61034000  0.53479700  0.17454300  1
  O  O26  1  0.46657000  0.10097000  0.56520200  1
  O  O27  1  0.96657000  0.89903000  0.43479800  1
  O  O28  1  0.83147100  0.97869400  0.82368900  1
  O  O29  1  0.33147100  0.02130600  0.17631100  1
  O  O30  1  0.39584400  0.36907100  0.85607500  1
  O  O31  1  0.89584400  0.63092900  0.14392500  1
  O  O32  1  0.14692600  0.16130500  0.88513900  1
  O  O33  1  0.64692600  0.83869500  0.11486100  1
loop_
_geom_bond_atom_site_label_1
_geom_bond_atom_site_label_2
_geom_bond_distance
_geom_bond_site_symmetry_2
Ba0 O14 2.792966 1_555
Ba0 O24 2.829435 1_655
Ba0 O33 2.838341 1_556
Ba0 O18 2.895961 1_555
Ba0 O17 2.930222 1_656
Ba0 O23 2.943026 1_655
Ba0 O10 2.954870 1_555
Ba0 O28 2.996954 1_555
Ba0 O31 3.058774 1_556
Ba0 O2 3.163956 1_555
Ba1 O15 2.792966 1_555
Ba1 O25 2.829435 1_555
Ba1 O32 2.838341 1_554
Ba1 O19 2.895961 1_555
Ba1 O16 2.930222 1_554
Ba1 O22 2.943026 1_555
Ba1 O11 2.954870 1_555
Ba1 O29 2.996954 1_555
Ba1 O30 3.058774 1_554
Ba1 O3 3.163956 1_555
Fe0 O0 1.974488 1_555
Fe0 O8 1.995522 1_555
Fe0 O23 2.027702 1_555
Fe0 O6 2.044043 1_555
Fe0 O10 2.046252 1_555
Fe0 O4 2.092128 1_555
Fe1 O1 1.974488 1_555
Fe1 O9 1.995522 1_555
Fe1 O22 2.027702 1_555
Fe1 O7 2.044043 1_555
Fe1 O11 2.046252 1_655
Fe1 O5 2.092128 1_555
Fe2 O30 2.021897 1_555
Fe2 O14 2.036118 1_555
Fe2 O26 2.038737 1_555
Fe2 O16 2.045153 1_555
Fe2 O18 2.047289 1_555
Fe2 O13 2.047395 1_555
Fe3 O31 2.021897 1_455
Fe3 O15 2.036118 1_555
Fe3 O27 2.038737 1_455
Fe3 O17 2.045153 1_555
Fe3 O19 2.047289 1_555
Fe3 O12 2.047395 1_555
H0 O20 0.999111 1_555
H1 O21 0.999111 1_555
H2 O28 1.014830 1_545
H2 O13 1.635165 1_555
H3 O29 1.014830 1_565
H3 O12 1.635165 1_555
H4 O24 0.982727 1_555
H5 O25 0.982727 1_555
H6 O2 1.002805 1_555
H6 O27 1.752757 1_555
H7 O3 1.002805 1_555
H7 O26 1.752757 1_555
O0 P0 1.527207 1_555
O1 P1 1.527207 1_555
O2 P5 1.600528 1_655
O3 P4 1.600528 1_555
O4 P4 1.540906 1_555
O5 P5 1.540906 1_655
O6 P7 1.548494 1_556
O7 P6 1.548494 1_554
O8 P2 1.516845 1_555
O9 P3 1.516845 1_555
O10 P6 1.533785 1_565
O11 P7 1.533785 1_545
O12 P0 1.553128 1_555
O13 P1 1.553128 1_555
O14 P3 1.544822 1_556
O15 P2 1.544822 1_554
O16 P6 1.535224 1_555
O17 P7 1.535224 1_555
O18 P4 1.543701 1_555
O19 P5 1.543701 1_555
O20 P1 1.601723 1_455
O21 P0 1.601723 1_555
O22 P4 1.535769 1_555
O23 P5 1.535769 1_555
O24 P2 1.615540 1_555
O25 P3 1.615540 1_555
O26 P0 1.543610 1_545
O27 P1 1.543610 1_565
O28 P6 1.589855 1_565
O29 P7 1.589855 1_545
O30 P2 1.528833 1_555
O31 P3 1.528833 1_555
