# generated using pymatgen
data_Mo5O14
_symmetry_space_group_name_H-M   'P 1'
_cell_length_a   3.84076121
_cell_length_b   23.75901648
_cell_length_c   23.75901648
_cell_angle_alpha   90.00000000
_cell_angle_beta   90.00000000
_cell_angle_gamma   90.00000000
_symmetry_Int_Tables_number   1
_chemical_formula_structural   Mo5O14
_chemical_formula_sum   'Mo40 O112'
_cell_volume   2168.07461422
_cell_formula_units_Z   8
loop_
 _symmetry_equiv_pos_site_id
 _symmetry_equiv_pos_as_xyz
  1  'x, y, z'
loop_
 _atom_site_type_symbol
 _atom_site_label
 _atom_site_symmetry_multiplicity
 _atom_site_fract_x
 _atom_site_fract_y
 _atom_site_fract_z
 _atom_site_occupancy
  Mo  Mo0  1  0.50000000  0.24145194  0.07364817  1
  Mo  Mo1  1  0.50000000  0.92635183  0.24145194  1
  Mo  Mo2  1  0.50000000  0.75854806  0.92635183  1
  Mo  Mo3  1  0.50000000  0.07364817  0.75854806  1
  Mo  Mo4  1  0.50000000  0.25854806  0.57364817  1
  Mo  Mo5  1  0.50000000  0.42635183  0.25854806  1
  Mo  Mo6  1  0.50000000  0.74145194  0.42635183  1
  Mo  Mo7  1  0.50000000  0.57364817  0.74145194  1
  Mo  Mo8  1  0.50000000  0.40122466  0.09877534  1
  Mo  Mo9  1  0.50000000  0.90122466  0.40122466  1
  Mo  Mo10  1  0.50000000  0.59877534  0.90122466  1
  Mo  Mo11  1  0.50000000  0.09877534  0.59877534  1
  Mo  Mo12  1  0.50000000  0.04783258  0.34002228  1
  Mo  Mo13  1  0.50000000  0.65997772  0.04783258  1
  Mo  Mo14  1  0.50000000  0.95216742  0.65997772  1
  Mo  Mo15  1  0.50000000  0.34002228  0.95216742  1
  Mo  Mo16  1  0.50000000  0.45216742  0.84002228  1
  Mo  Mo17  1  0.50000000  0.15997772  0.45216742  1
  Mo  Mo18  1  0.50000000  0.54783258  0.15997772  1
  Mo  Mo19  1  0.50000000  0.84002228  0.54783258  1
  Mo  Mo20  1  0.50000000  0.15745908  0.22060609  1
  Mo  Mo21  1  0.50000000  0.77939391  0.15745908  1
  Mo  Mo22  1  0.50000000  0.84254092  0.77939391  1
  Mo  Mo23  1  0.50000000  0.22060609  0.84254092  1
  Mo  Mo24  1  0.50000000  0.34254092  0.72060609  1
  Mo  Mo25  1  0.50000000  0.27939391  0.34254092  1
  Mo  Mo26  1  0.50000000  0.65745908  0.27939391  1
  Mo  Mo27  1  0.50000000  0.72060609  0.65745908  1
  Mo  Mo28  1  0.50000000  0.29842996  0.20157004  1
  Mo  Mo29  1  0.50000000  0.79842996  0.29842996  1
  Mo  Mo30  1  0.50000000  0.70157004  0.79842996  1
  Mo  Mo31  1  0.50000000  0.20157004  0.70157004  1
  Mo  Mo32  1  0.50000000  0.08330233  0.07732677  1
  Mo  Mo33  1  0.50000000  0.92267323  0.08330233  1
  Mo  Mo34  1  0.50000000  0.91669767  0.92267323  1
  Mo  Mo35  1  0.50000000  0.07732677  0.91669767  1
  Mo  Mo36  1  0.50000000  0.41669767  0.57732677  1
  Mo  Mo37  1  0.50000000  0.42267323  0.41669767  1
  Mo  Mo38  1  0.50000000  0.58330233  0.42267323  1
  Mo  Mo39  1  0.50000000  0.57732677  0.58330233  1
  O  O0  1  0.50000000  0.22416127  0.16162525  1
  O  O1  1  0.50000000  0.83837475  0.22416127  1
  O  O2  1  0.50000000  0.77583873  0.83837475  1
  O  O3  1  0.50000000  0.16162525  0.77583873  1
  O  O4  1  0.50000000  0.27583873  0.66162525  1
  O  O5  1  0.50000000  0.33837475  0.27583873  1
  O  O6  1  0.50000000  0.72416127  0.33837475  1
  O  O7  1  0.50000000  0.66162525  0.72416127  1
  O  O8  1  0.00000000  0.04623984  0.33762387  1
  O  O9  1  -0.00000000  0.66237613  0.04623984  1
  O  O10  1  -0.00000000  0.95376016  0.66237613  1
  O  O11  1  0.00000000  0.33762387  0.95376016  1
  O  O12  1  -0.00000000  0.45376016  0.83762387  1
  O  O13  1  -0.00000000  0.16237613  0.45376016  1
  O  O14  1  0.00000000  0.54623984  0.16237613  1
  O  O15  1  0.00000000  0.83762387  0.54623984  1
  O  O16  1  0.50000000  0.16642707  0.06143165  1
  O  O17  1  0.50000000  0.93856835  0.16642707  1
  O  O18  1  0.50000000  0.83357293  0.93856835  1
  O  O19  1  0.50000000  0.06143165  0.83357293  1
  O  O20  1  0.50000000  0.33357293  0.56143165  1
  O  O21  1  0.50000000  0.43856835  0.33357293  1
  O  O22  1  0.50000000  0.66642707  0.43856835  1
  O  O23  1  0.50000000  0.56143165  0.66642707  1
  O  O24  1  0.50000000  0.11257957  0.28301162  1
  O  O25  1  0.50000000  0.71698838  0.11257957  1
  O  O26  1  0.50000000  0.88742043  0.71698838  1
  O  O27  1  0.50000000  0.28301162  0.88742043  1
  O  O28  1  0.50000000  0.38742043  0.78301162  1
  O  O29  1  0.50000000  0.21698838  0.38742043  1
  O  O30  1  0.50000000  0.61257957  0.21698838  1
  O  O31  1  0.50000000  0.78301162  0.61257957  1
  O  O32  1  -0.00000000  0.29882217  0.20117783  1
  O  O33  1  -0.00000000  0.79882217  0.29882217  1
  O  O34  1  0.00000000  0.70117783  0.79882217  1
  O  O35  1  0.00000000  0.20117783  0.70117783  1
  O  O36  1  -0.00000000  0.08711710  0.07959917  1
  O  O37  1  -0.00000000  0.92040083  0.08711710  1
  O  O38  1  0.00000000  0.91288290  0.92040083  1
  O  O39  1  0.00000000  0.07959917  0.91288290  1
  O  O40  1  0.00000000  0.41288290  0.57959917  1
  O  O41  1  -0.00000000  0.42040083  0.41288290  1
  O  O42  1  -0.00000000  0.58711710  0.42040083  1
  O  O43  1  0.00000000  0.57959917  0.58711710  1
  O  O44  1  0.50000000  0.38902652  0.02239623  1
  O  O45  1  0.50000000  0.97760377  0.38902652  1
  O  O46  1  0.50000000  0.61097348  0.97760377  1
  O  O47  1  0.50000000  0.02239623  0.61097348  1
  O  O48  1  0.50000000  0.11097348  0.52239623  1
  O  O49  1  0.50000000  0.47760377  0.11097348  1
  O  O50  1  0.50000000  0.88902652  0.47760377  1
  O  O51  1  0.50000000  0.52239623  0.88902652  1
  O  O52  1  0.50000000  0.27239319  0.00371104  1
  O  O53  1  0.50000000  0.99628896  0.27239319  1
  O  O54  1  0.50000000  0.72760681  0.99628896  1
  O  O55  1  0.50000000  0.00371104  0.72760681  1
  O  O56  1  0.50000000  0.22760681  0.50371104  1
  O  O57  1  0.50000000  0.49628896  0.22760681  1
  O  O58  1  0.50000000  0.77239319  0.49628896  1
  O  O59  1  0.50000000  0.50371104  0.77239319  1
  O  O60  1  0.50000000  0.31528313  0.11555988  1
  O  O61  1  0.50000000  0.88444012  0.31528313  1
  O  O62  1  0.50000000  0.68471687  0.88444012  1
  O  O63  1  0.50000000  0.11555988  0.68471687  1
  O  O64  1  0.50000000  0.18471687  0.61555988  1
  O  O65  1  0.50000000  0.38444012  0.18471687  1
  O  O66  1  0.50000000  0.81528313  0.38444012  1
  O  O67  1  0.50000000  0.61555988  0.81528313  1
  O  O68  1  0.00000000  0.39787286  0.10212714  1
  O  O69  1  0.00000000  0.89787286  0.39787286  1
  O  O70  1  -0.00000000  0.60212714  0.89787286  1
  O  O71  1  -0.00000000  0.10212714  0.60212714  1
  O  O72  1  0.50000000  0.10715426  0.16147127  1
  O  O73  1  0.50000000  0.83852873  0.10715426  1
  O  O74  1  0.50000000  0.89284574  0.83852873  1
  O  O75  1  0.50000000  0.16147127  0.89284574  1
  O  O76  1  0.50000000  0.39284574  0.66147127  1
  O  O77  1  0.50000000  0.33852873  0.39284574  1
  O  O78  1  0.50000000  0.60715426  0.33852873  1
  O  O79  1  0.50000000  0.66147127  0.60715426  1
  O  O80  1  0.50000000  0.00508139  0.08138230  1
  O  O81  1  0.50000000  0.91861770  0.00508139  1
  O  O82  1  0.50000000  0.99491861  0.91861770  1
  O  O83  1  0.50000000  0.08138230  0.99491861  1
  O  O84  1  0.50000000  0.49491861  0.58138230  1
  O  O85  1  0.50000000  0.41861770  0.49491861  1
  O  O86  1  0.50000000  0.50508139  0.41861770  1
  O  O87  1  0.50000000  0.58138230  0.50508139  1
  O  O88  1  -0.00000000  0.24416218  0.07806690  1
  O  O89  1  -0.00000000  0.92193310  0.24416218  1
  O  O90  1  0.00000000  0.75583782  0.92193310  1
  O  O91  1  0.00000000  0.07806690  0.75583782  1
  O  O92  1  0.00000000  0.25583782  0.57806690  1
  O  O93  1  -0.00000000  0.42193310  0.25583782  1
  O  O94  1  -0.00000000  0.74416218  0.42193310  1
  O  O95  1  0.00000000  0.57806690  0.74416218  1
  O  O96  1  0.50000000  0.23576074  0.26423926  1
  O  O97  1  0.50000000  0.73576074  0.23576074  1
  O  O98  1  0.50000000  0.76423926  0.73576074  1
  O  O99  1  0.50000000  0.26423926  0.76423926  1
  O  O100  1  0.50000000  0.09776673  0.40223327  1
  O  O101  1  0.50000000  0.59776673  0.09776673  1
  O  O102  1  0.50000000  0.90223327  0.59776673  1
  O  O103  1  0.50000000  0.40223327  0.90223327  1
  O  O104  1  -0.00000000  0.16370442  0.22048023  1
  O  O105  1  -0.00000000  0.77951977  0.16370442  1
  O  O106  1  0.00000000  0.83629558  0.77951977  1
  O  O107  1  0.00000000  0.22048023  0.83629558  1
  O  O108  1  0.00000000  0.33629558  0.72048023  1
  O  O109  1  -0.00000000  0.27951977  0.33629558  1
  O  O110  1  -0.00000000  0.66370442  0.27951977  1
  O  O111  1  0.00000000  0.72048023  0.66370442  1
loop_
_geom_bond_atom_site_label_1
_geom_bond_atom_site_label_2
_geom_bond_distance
_geom_bond_site_symmetry_2
Mo0 O16 1.805994 1_555
Mo0 O52 1.816992 1_555
Mo0 O88 1.924326 1_555
Mo0 O88 1.924326 1_655
Mo0 O60 2.017088 1_555
Mo0 O0 2.130236 1_555
Mo1 O17 1.805994 1_555
Mo1 O53 1.816992 1_555
Mo1 O89 1.924326 1_655
Mo1 O89 1.924326 1_555
Mo1 O61 2.017088 1_555
Mo1 O1 2.130236 1_555
Mo2 O18 1.805994 1_555
Mo2 O54 1.816992 1_555
Mo2 O90 1.924326 1_555
Mo2 O90 1.924326 1_655
Mo2 O62 2.017088 1_555
Mo2 O2 2.130236 1_555
Mo3 O19 1.805994 1_555
Mo3 O55 1.816992 1_555
Mo3 O91 1.924326 1_555
Mo3 O91 1.924326 1_655
Mo3 O63 2.017088 1_555
Mo3 O3 2.130236 1_555
Mo4 O20 1.805994 1_555
Mo4 O56 1.816992 1_555
Mo4 O92 1.924326 1_555
Mo4 O92 1.924326 1_655
Mo4 O64 2.017088 1_555
Mo4 O4 2.130236 1_555
Mo5 O21 1.805994 1_555
Mo5 O57 1.816992 1_555
Mo5 O93 1.924326 1_555
Mo5 O93 1.924326 1_655
Mo5 O65 2.017088 1_555
Mo5 O5 2.130236 1_555
Mo6 O22 1.805994 1_555
Mo6 O58 1.816992 1_555
Mo6 O94 1.924326 1_555
Mo6 O94 1.924326 1_655
Mo6 O66 2.017088 1_555
Mo6 O6 2.130236 1_555
Mo7 O23 1.805994 1_555
Mo7 O59 1.816992 1_555
Mo7 O95 1.924326 1_655
Mo7 O95 1.924326 1_555
Mo7 O67 2.017088 1_555
Mo7 O7 2.130236 1_555
Mo8 O49 1.837689 1_555
Mo8 O44 1.837689 1_555
Mo8 O68 1.923680 1_555
Mo8 O68 1.923680 1_655
Mo8 O60 2.080463 1_555
Mo8 O65 2.080463 1_555
Mo9 O50 1.837689 1_555
Mo9 O45 1.837689 1_555
Mo9 O69 1.923680 1_655
Mo9 O69 1.923680 1_555
Mo9 O61 2.080463 1_555
Mo9 O66 2.080463 1_555
Mo10 O46 1.837689 1_555
Mo10 O51 1.837689 1_555
Mo10 O70 1.923680 1_655
Mo10 O70 1.923680 1_555
Mo10 O67 2.080463 1_555
Mo10 O62 2.080463 1_555
Mo11 O48 1.837689 1_555
Mo11 O47 1.837689 1_555
Mo11 O71 1.923680 1_655
Mo11 O71 1.923680 1_555
Mo11 O64 2.080463 1_555
Mo11 O63 2.080463 1_555
Mo12 O100 1.895312 1_555
Mo12 O8 1.921599 1_555
Mo12 O8 1.921599 1_655
Mo12 O53 2.020276 1_545
Mo12 O45 2.034624 1_545
Mo12 O24 2.049673 1_555
Mo13 O101 1.895312 1_555
Mo13 O9 1.921599 1_655
Mo13 O9 1.921599 1_555
Mo13 O54 2.020276 1_554
Mo13 O46 2.034624 1_554
Mo13 O25 2.049673 1_555
Mo14 O102 1.895312 1_555
Mo14 O10 1.921599 1_555
Mo14 O10 1.921599 1_655
Mo14 O55 2.020276 1_565
Mo14 O47 2.034624 1_565
Mo14 O26 2.049673 1_555
Mo15 O103 1.895312 1_555
Mo15 O11 1.921599 1_555
Mo15 O11 1.921599 1_655
Mo15 O52 2.020276 1_556
Mo15 O44 2.034624 1_556
Mo15 O27 2.049673 1_555
Mo16 O103 1.895312 1_555
Mo16 O12 1.921599 1_655
Mo16 O12 1.921599 1_555
Mo16 O59 2.020276 1_555
Mo16 O51 2.034624 1_555
Mo16 O28 2.049673 1_555
Mo17 O100 1.895312 1_555
Mo17 O13 1.921599 1_655
Mo17 O13 1.921599 1_555
Mo17 O56 2.020276 1_555
Mo17 O48 2.034624 1_555
Mo17 O29 2.049673 1_555
Mo18 O101 1.895312 1_555
Mo18 O14 1.921599 1_555
Mo18 O14 1.921599 1_655
Mo18 O57 2.020276 1_555
Mo18 O49 2.034624 1_555
Mo18 O30 2.049673 1_555
Mo19 O102 1.895312 1_555
Mo19 O15 1.921599 1_555
Mo19 O15 1.921599 1_655
Mo19 O58 2.020276 1_555
Mo19 O50 2.034624 1_555
Mo19 O31 2.049673 1_555
Mo20 O24 1.826297 1_555
Mo20 O72 1.844578 1_555
Mo20 O104 1.926107 1_555
Mo20 O104 1.926107 1_655
Mo20 O0 2.115476 1_555
Mo20 O96 2.129715 1_555
Mo21 O25 1.826297 1_555
Mo21 O73 1.844578 1_555
Mo21 O105 1.926107 1_555
Mo21 O105 1.926107 1_655
Mo21 O1 2.115476 1_555
Mo21 O97 2.129715 1_555
Mo22 O26 1.826297 1_555
Mo22 O74 1.844578 1_555
Mo22 O106 1.926107 1_655
Mo22 O106 1.926107 1_555
Mo22 O2 2.115476 1_555
Mo22 O98 2.129715 1_555
Mo23 O27 1.826297 1_555
Mo23 O75 1.844578 1_555
Mo23 O107 1.926107 1_555
Mo23 O107 1.926107 1_655
Mo23 O3 2.115476 1_555
Mo23 O99 2.129715 1_555
Mo24 O28 1.826297 1_555
Mo24 O76 1.844578 1_555
Mo24 O108 1.926107 1_555
Mo24 O108 1.926107 1_655
Mo24 O4 2.115476 1_555
Mo24 O99 2.129715 1_555
Mo25 O29 1.826297 1_555
Mo25 O77 1.844578 1_555
Mo25 O109 1.926107 1_655
Mo25 O109 1.926107 1_555
Mo25 O5 2.115476 1_555
Mo25 O96 2.129715 1_555
Mo26 O30 1.826297 1_555
Mo26 O78 1.844578 1_555
Mo26 O110 1.926107 1_655
Mo26 O110 1.926107 1_555
Mo26 O6 2.115476 1_555
Mo26 O97 2.129715 1_555
Mo27 O31 1.826297 1_555
Mo27 O79 1.844578 1_555
Mo27 O111 1.926107 1_655
Mo27 O111 1.926107 1_555
Mo27 O7 2.115476 1_555
Mo27 O98 2.129715 1_555
Mo28 O32 1.920426 1_655
Mo28 O32 1.920426 1_555
Mo28 O5 2.003580 1_555
Mo28 O0 2.003580 1_555
Mo28 O65 2.082377 1_555
Mo28 O60 2.082377 1_555
Mo28 O96 2.105706 1_555
Mo29 O33 1.920426 1_555
Mo29 O33 1.920426 1_655
Mo29 O1 2.003580 1_555
Mo29 O6 2.003580 1_555
Mo29 O66 2.082377 1_555
Mo29 O61 2.082377 1_555
Mo29 O97 2.105706 1_555
Mo30 O34 1.920426 1_555
Mo30 O34 1.920426 1_655
Mo30 O7 2.003580 1_555
Mo30 O2 2.003580 1_555
Mo30 O62 2.082377 1_555
Mo30 O67 2.082377 1_555
Mo30 O98 2.105706 1_555
Mo31 O35 1.920426 1_555
Mo31 O35 1.920426 1_655
Mo31 O4 2.003580 1_555
Mo31 O3 2.003580 1_555
Mo31 O63 2.082377 1_555
Mo31 O64 2.082377 1_555
Mo31 O99 2.105706 1_555
Mo32 O80 1.860949 1_555
Mo32 O36 1.923276 1_555
Mo32 O36 1.923276 1_655
Mo32 O83 1.958468 1_554
Mo32 O16 2.010745 1_555
Mo32 O72 2.077958 1_555
Mo33 O81 1.860949 1_555
Mo33 O37 1.923276 1_555
Mo33 O37 1.923276 1_655
Mo33 O80 1.958468 1_565
Mo33 O17 2.010745 1_555
Mo33 O73 2.077958 1_555
Mo34 O82 1.860949 1_555
Mo34 O38 1.923276 1_555
Mo34 O38 1.923276 1_655
Mo34 O81 1.958468 1_556
Mo34 O18 2.010745 1_555
Mo34 O74 2.077958 1_555
Mo35 O83 1.860949 1_555
Mo35 O39 1.923276 1_655
Mo35 O39 1.923276 1_555
Mo35 O82 1.958468 1_545
Mo35 O19 2.010745 1_555
Mo35 O75 2.077958 1_555
Mo36 O84 1.860949 1_555
Mo36 O40 1.923276 1_555
Mo36 O40 1.923276 1_655
Mo36 O85 1.958468 1_555
Mo36 O20 2.010745 1_555
Mo36 O76 2.077958 1_555
Mo37 O85 1.860949 1_555
Mo37 O41 1.923276 1_555
Mo37 O41 1.923276 1_655
Mo37 O86 1.958468 1_555
Mo37 O21 2.010745 1_555
Mo37 O77 2.077958 1_555
Mo38 O86 1.860949 1_555
Mo38 O42 1.923276 1_655
Mo38 O42 1.923276 1_555
Mo38 O87 1.958468 1_555
Mo38 O22 2.010745 1_555
Mo38 O78 2.077958 1_555
Mo39 O87 1.860949 1_555
Mo39 O43 1.923276 1_555
Mo39 O43 1.923276 1_655
Mo39 O84 1.958468 1_555
Mo39 O23 2.010745 1_555
Mo39 O79 2.077958 1_555
