# generated using pymatgen
data_Th2Mn12P7
_symmetry_space_group_name_H-M   'P 1'
_cell_length_a   3.70787000
_cell_length_b   9.29816901
_cell_length_c   9.29849296
_cell_angle_alpha   119.99474172
_cell_angle_beta   90.00000000
_cell_angle_gamma   90.00000000
_symmetry_Int_Tables_number   1
_chemical_formula_structural   Th2Mn12P7
_chemical_formula_sum   'Th2 Mn12 P7'
_cell_volume   277.64390406
_cell_formula_units_Z   1
loop_
 _symmetry_equiv_pos_site_id
 _symmetry_equiv_pos_as_xyz
  1  'x, y, z'
loop_
 _atom_site_type_symbol
 _atom_site_label
 _atom_site_symmetry_multiplicity
 _atom_site_fract_x
 _atom_site_fract_y
 _atom_site_fract_z
 _atom_site_occupancy
  Th  Th0  1  0.00000000  0.66673000  0.33321400  1
  Th  Th1  1  0.50000000  0.33338600  0.66670900  1
  Mn  Mn0  1  0.00000000  0.37663000  0.94967400  1
  Mn  Mn1  1  0.00000000  0.05030600  0.42686900  1
  Mn  Mn2  1  0.00000000  0.57299600  0.62337100  1
  Mn  Mn3  1  0.00000000  0.87864300  0.72574400  1
  Mn  Mn4  1  0.00000000  0.27416400  0.15274600  1
  Mn  Mn5  1  0.00000000  0.84718100  0.12140800  1
  Mn  Mn6  1  0.50000000  0.95367900  0.56403100  1
  Mn  Mn7  1  0.50000000  0.43583500  0.38957600  1
  Mn  Mn8  1  0.50000000  0.61031200  0.04616900  1
  Mn  Mn9  1  0.50000000  0.11831600  0.89387300  1
  Mn  Mn10  1  0.50000000  0.10639400  0.22472400  1
  Mn  Mn11  1  0.50000000  0.77546600  0.88188700  1
  P  P0  1  0.00000000  0.11290800  0.70910500  1
  P  P1  1  0.00000000  0.29065900  0.40366100  1
  P  P2  1  0.00000000  0.59632800  0.88714300  1
  P  P3  1  0.50000000  0.71719400  0.60028600  1
  P  P4  1  0.50000000  0.39993500  0.11704400  1
  P  P5  1  0.50000000  0.88302100  0.28277000  1
  P  P6  1  0.00000000  0.99991700  0.99999600  1
loop_
_geom_bond_atom_site_label_1
_geom_bond_atom_site_label_2
_geom_bond_distance
_geom_bond_site_symmetry_2
Mn0 P0 2.352112 1_555
Mn0 P4 2.359848 1_556
Mn0 P4 2.359848 1_456
Mn0 P2 2.387183 1_555
Mn1 P1 2.350169 1_555
Mn1 P5 2.359663 1_445
Mn1 P5 2.359663 1_545
Mn1 P0 2.387211 1_555
Mn2 P2 2.351745 1_555
Mn2 P3 2.359787 1_455
Mn2 P3 2.359787 1_555
Mn2 P1 2.388118 1_555
Mn3 P6 2.213497 1_555
Mn3 P0 2.259559 1_565
Mn3 P3 2.302292 1_555
Mn3 P3 2.302292 1_455
Mn4 P6 2.213268 1_544
Mn4 P1 2.260363 1_555
Mn4 P4 2.302832 1_555
Mn4 P4 2.302832 1_455
Mn5 P6 2.212336 1_554
Mn5 P2 2.259519 1_554
Mn5 P5 2.302057 1_555
Mn5 P5 2.302057 1_455
Mn6 P0 2.334931 1_565
Mn6 P0 2.334931 1_665
Mn6 P5 2.356585 1_555
Mn6 P3 2.385345 1_555
Mn7 P1 2.335197 1_655
Mn7 P1 2.335197 1_555
Mn7 P3 2.357538 1_555
Mn7 P4 2.384849 1_555
Mn8 P2 2.334160 1_654
Mn8 P2 2.334160 1_554
Mn8 P4 2.355774 1_555
Mn8 P5 2.385826 1_555
Mn9 P4 2.393744 1_556
Mn9 P0 2.510970 1_655
Mn9 P0 2.510970 1_555
Mn9 P6 2.590165 1_645
Mn9 P6 2.590165 1_545
Mn10 P5 2.392890 1_545
Mn10 P1 2.508124 1_555
Mn10 P1 2.508124 1_655
Mn10 P6 2.591394 1_644
Mn10 P6 2.591394 1_544
Mn11 P3 2.394037 1_555
Mn11 P2 2.509036 1_555
Mn11 P2 2.509036 1_655
Mn11 P6 2.589799 1_655
Mn11 P6 2.589799 1_555
P0 Th1 2.933120 1_555
P0 Th1 2.933120 1_455
P1 Th1 2.933599 1_555
P1 Th1 2.933599 1_455
P2 Th1 2.933481 1_555
P2 Th1 2.933481 1_455
P3 Th0 2.942667 1_655
P3 Th0 2.942667 1_555
P4 Th0 2.940363 1_555
P4 Th0 2.940363 1_655
P5 Th0 2.940207 1_655
P5 Th0 2.940207 1_555
