# generated using pymatgen
data_Mg6Si5
_symmetry_space_group_name_H-M   'P 1'
_cell_length_a   4.13354400
_cell_length_b   7.04186100
_cell_length_c   14.67967915
_cell_angle_alpha   81.17835179
_cell_angle_beta   90.00000000
_cell_angle_gamma   90.00000000
_symmetry_Int_Tables_number   1
_chemical_formula_structural   Mg6Si5
_chemical_formula_sum   'Mg12 Si10'
_cell_volume   422.23911700
_cell_formula_units_Z   2
loop_
 _symmetry_equiv_pos_site_id
 _symmetry_equiv_pos_as_xyz
  1  'x, y, z'
loop_
 _atom_site_type_symbol
 _atom_site_label
 _atom_site_symmetry_multiplicity
 _atom_site_fract_x
 _atom_site_fract_y
 _atom_site_fract_z
 _atom_site_occupancy
  Mg  Mg0  1  0.50000000  0.40885100  0.04725300  1
  Mg  Mg1  1  0.50000000  0.77752600  0.43648200  1
  Mg  Mg2  1  0.00000000  0.31942500  0.70815800  1
  Mg  Mg3  1  0.50000000  0.98067900  0.21470500  1
  Mg  Mg4  1  0.50000000  0.46189200  0.28604200  1
  Mg  Mg5  1  0.50000000  0.58263900  0.80014500  1
  Mg  Mg6  1  0.00000000  0.84392700  0.59475400  1
  Mg  Mg7  1  0.00000000  0.43820200  0.47751100  1
  Mg  Mg8  1  0.00000000  0.65944900  0.15247600  1
  Mg  Mg9  1  0.50000000  0.10663200  0.88134600  1
  Mg  Mg10  1  0.00000000  0.71491800  0.94521400  1
  Mg  Mg11  1  0.00000000  0.07799900  0.04606000  1
  Si  Si0  1  0.50000000  0.16723700  0.42618700  1
  Si  Si1  1  0.50000000  0.23636500  0.57668500  1
  Si  Si2  1  0.00000000  0.36432000  0.89972800  1
  Si  Si3  1  0.00000000  0.27077000  0.19101300  1
  Si  Si4  1  0.00000000  0.73710400  0.32445300  1
  Si  Si5  1  0.50000000  0.56099900  0.60943600  1
  Si  Si6  1  0.00000000  0.90732900  0.78092300  1
  Si  Si7  1  0.00000000  0.08098300  0.34789800  1
  Si  Si8  1  0.50000000  0.81870900  0.04819300  1
  Si  Si9  1  0.50000000  0.98769500  0.70172900  1
loop_
_geom_bond_atom_site_label_1
_geom_bond_atom_site_label_2
_geom_bond_distance
_geom_bond_site_symmetry_2
Mg0 Si8 2.888311 1_555
Mg0 Si3 3.006859 1_655
Mg0 Si3 3.006859 1_555
Mg0 Si2 3.044352 1_654
Mg0 Si2 3.044352 1_554
Mg1 Si4 2.683411 1_555
Mg1 Si4 2.683411 1_655
Mg1 Si0 2.725209 1_565
Mg1 Si5 2.753827 1_555
Mg1 Si7 3.110722 1_665
Mg1 Si7 3.110722 1_565
Mg2 Si2 2.877678 1_555
Mg2 Si5 2.917095 1_455
Mg2 Si5 2.917095 1_555
Mg2 Si6 2.934517 1_545
Mg2 Si1 2.946984 1_455
Mg2 Si1 2.946984 1_555
Mg2 Si9 3.131286 1_445
Mg2 Si9 3.131286 1_545
Mg3 Si8 2.851460 1_555
Mg3 Si3 2.889212 1_565
Mg3 Si3 2.889212 1_665
Mg3 Si4 2.993576 1_555
Mg3 Si4 2.993576 1_655
Mg3 Si7 3.002825 1_665
Mg3 Si7 3.002825 1_565
Mg4 Si0 2.688572 1_555
Mg4 Si3 2.933383 1_655
Mg4 Si3 2.933383 1_555
Mg4 Si4 2.946272 1_555
Mg4 Si4 2.946272 1_655
Mg5 Si5 2.826930 1_555
Mg5 Si2 2.843015 1_555
Mg5 Si2 2.843015 1_655
Mg5 Si9 2.993185 1_555
Mg5 Si6 3.062843 1_655
Mg5 Si6 3.062843 1_555
Mg6 Si6 2.835900 1_555
Mg6 Si5 2.855820 1_555
Mg6 Si5 2.855820 1_455
Mg6 Si9 2.872306 1_455
Mg6 Si9 2.872306 1_555
Mg7 Si1 2.788634 1_555
Mg7 Si1 2.788634 1_455
Mg7 Si4 2.833383 1_555
Mg7 Si0 2.986798 1_455
Mg7 Si0 2.986798 1_555
Mg7 Si5 3.046869 1_455
Mg7 Si5 3.046869 1_555
Mg8 Si4 2.663813 1_555
Mg8 Si3 2.708582 1_555
Mg8 Si8 2.710383 1_455
Mg8 Si8 2.710383 1_555
Mg9 Si2 2.790579 1_555
Mg9 Si2 2.790579 1_655
Mg9 Si9 2.886365 1_545
Mg9 Si8 2.930282 1_546
Mg9 Si6 3.008163 1_645
Mg9 Si6 3.008163 1_545
Mg10 Si6 2.578769 1_555
Mg10 Si2 2.654573 1_555
Mg10 Si8 2.725776 1_456
Mg10 Si8 2.725776 1_556
Mg11 Si3 2.693785 1_555
Mg11 Si2 2.711297 1_554
Mg11 Si8 2.754786 1_445
Mg11 Si8 2.754786 1_545
Si0 Si1 2.334023 1_555
Si0 Si7 2.485028 1_655
Si0 Si7 2.485028 1_555
Si1 Si9 2.334503 1_545
Si1 Si5 2.407108 1_555
Si3 Si7 2.479107 1_555
Si4 Si7 2.497592 1_565
Si6 Si9 2.396149 1_555
Si6 Si9 2.396149 1_455
