# generated using pymatgen
data_Sr4SnPbO8
_symmetry_space_group_name_H-M   'P 1'
_cell_length_a   4.20898500
_cell_length_b   4.20898500
_cell_length_c   12.73015400
_cell_angle_alpha   90.00000000
_cell_angle_beta   90.00000000
_cell_angle_gamma   90.00000000
_symmetry_Int_Tables_number   1
_chemical_formula_structural   Sr4SnPbO8
_chemical_formula_sum   'Sr4 Sn1 Pb1 O8'
_cell_volume   225.52173991
_cell_formula_units_Z   1
loop_
 _symmetry_equiv_pos_site_id
 _symmetry_equiv_pos_as_xyz
  1  'x, y, z'
loop_
 _atom_site_type_symbol
 _atom_site_label
 _atom_site_symmetry_multiplicity
 _atom_site_fract_x
 _atom_site_fract_y
 _atom_site_fract_z
 _atom_site_occupancy
  Sr  Sr0  1  0.50000000  0.50000000  0.14179600  1
  Sr  Sr1  1  0.50000000  0.50000000  0.85820400  1
  Sr  Sr2  1  0.00000000  0.00000000  0.35077000  1
  Sr  Sr3  1  0.00000000  0.00000000  0.64923000  1
  Sn  Sn0  1  0.00000000  0.00000000  0.00000000  1
  Pb  Pb0  1  0.50000000  0.50000000  0.50000000  1
  O  O0  1  0.00000000  0.00000000  0.16217500  1
  O  O1  1  0.00000000  0.00000000  0.83782500  1
  O  O2  1  0.50000000  0.50000000  0.32846300  1
  O  O3  1  0.50000000  0.50000000  0.67153700  1
  O  O4  1  0.00000000  0.50000000  0.00000000  1
  O  O5  1  0.50000000  0.00000000  0.00000000  1
  O  O6  1  0.00000000  0.50000000  0.50000000  1
  O  O7  1  0.50000000  0.00000000  0.50000000  1
loop_
_geom_bond_atom_site_label_1
_geom_bond_atom_site_label_2
_geom_bond_distance
_geom_bond_site_symmetry_2
O0 Sn0 2.064513 1_555
O0 Sr2 2.400843 1_555
O0 Sr0 2.987487 1_545
O0 Sr0 2.987487 1_455
O0 Sr0 2.987487 1_555
O0 Sr0 2.987487 1_445
O1 Sn0 2.064513 1_556
O1 Sr3 2.400843 1_555
O1 Sr1 2.987487 1_545
O1 Sr1 2.987487 1_455
O1 Sr1 2.987487 1_555
O1 Sr1 2.987487 1_445
O2 Pb0 2.183692 1_555
O2 Sr0 2.376300 1_555
O2 Sr2 2.989719 1_555
O2 Sr2 2.989719 1_655
O2 Sr2 2.989719 1_565
O2 Sr2 2.989719 1_665
O3 Pb0 2.183692 1_555
O3 Sr1 2.376300 1_555
O3 Sr3 2.989719 1_665
O3 Sr3 2.989719 1_555
O3 Sr3 2.989719 1_565
O3 Sr3 2.989719 1_655
O4 Sn0 2.104493 1_555
O4 Sn0 2.104493 1_565
O4 Sr1 2.772584 1_554
O4 Sr1 2.772584 1_454
O4 Sr0 2.772584 1_555
O4 Sr0 2.772584 1_455
O5 Sn0 2.104493 1_555
O5 Sn0 2.104493 1_655
O5 Sr1 2.772584 1_554
O5 Sr0 2.772584 1_545
O5 Sr1 2.772584 1_544
O5 Sr0 2.772584 1_555
O6 Pb0 2.104493 1_455
O6 Pb0 2.104493 1_555
O6 Sr2 2.835106 1_565
O6 Sr2 2.835106 1_555
O6 Sr3 2.835106 1_555
O6 Sr3 2.835106 1_565
O7 Pb0 2.104493 1_555
O7 Pb0 2.104493 1_545
O7 Sr2 2.835106 1_555
O7 Sr2 2.835106 1_655
O7 Sr3 2.835106 1_555
O7 Sr3 2.835106 1_655
