# generated using pymatgen
data_MgOs3
_symmetry_space_group_name_H-M   'P 1'
_cell_length_a   5.53801057
_cell_length_b   5.53801057
_cell_length_c   4.42496100
_cell_angle_alpha   90.00000000
_cell_angle_beta   90.00000000
_cell_angle_gamma   120.00000676
_symmetry_Int_Tables_number   1
_chemical_formula_structural   MgOs3
_chemical_formula_sum   'Mg2 Os6'
_cell_volume   117.52969509
_cell_formula_units_Z   2
loop_
 _symmetry_equiv_pos_site_id
 _symmetry_equiv_pos_as_xyz
  1  'x, y, z'
loop_
 _atom_site_type_symbol
 _atom_site_label
 _atom_site_symmetry_multiplicity
 _atom_site_fract_x
 _atom_site_fract_y
 _atom_site_fract_z
 _atom_site_occupancy
  Mg  Mg0  1  0.66666700  0.33333300  0.25000000  1
  Mg  Mg1  1  0.33333300  0.66666700  0.75000000  1
  Os  Os0  1  0.16995500  0.33990900  0.25000000  1
  Os  Os1  1  0.16995500  0.83004500  0.25000000  1
  Os  Os2  1  0.66009100  0.83004500  0.25000000  1
  Os  Os3  1  0.33990900  0.16995500  0.75000000  1
  Os  Os4  1  0.83004500  0.16995500  0.75000000  1
  Os  Os5  1  0.83004500  0.66009100  0.75000000  1
loop_
_geom_bond_atom_site_label_1
_geom_bond_atom_site_label_2
_geom_bond_distance
_geom_bond_site_symmetry_2
Mg0 Os4 2.711273 1_555
Mg0 Os4 2.711273 1_554
Mg0 Os5 2.711278 1_554
Mg0 Os5 2.711278 1_555
Mg0 Os3 2.711278 1_554
Mg0 Os3 2.711278 1_555
Mg0 Os1 2.769185 1_655
Mg0 Os1 2.769185 1_545
Mg0 Os0 2.769185 1_655
Mg0 Os2 2.769185 1_545
Mg0 Os2 2.769185 1_555
Mg0 Os0 2.769185 1_555
Mg1 Os1 2.711273 1_555
Mg1 Os1 2.711273 1_556
Mg1 Os2 2.711278 1_555
Mg1 Os2 2.711278 1_556
Mg1 Os0 2.711278 1_555
Mg1 Os0 2.711278 1_556
Mg1 Os4 2.769185 1_565
Mg1 Os4 2.769185 1_455
Mg1 Os3 2.769185 1_565
Mg1 Os5 2.769185 1_455
Mg1 Os5 2.769185 1_555
Mg1 Os3 2.769185 1_555
Os0 Os2 2.714378 1_555
Os0 Os1 2.714378 1_555
Os0 Os3 2.748214 1_554
Os0 Os3 2.748214 1_555
Os0 Os4 2.748220 1_454
Os0 Os4 2.748220 1_455
Os0 Os2 2.823632 1_445
Os0 Os1 2.823632 1_545
Os1 Os2 2.714378 1_555
Os1 Os5 2.748220 1_455
Os1 Os5 2.748220 1_454
Os1 Os3 2.748220 1_565
Os1 Os3 2.748220 1_564
Os1 Os2 2.823632 1_455
Os2 Os5 2.748214 1_554
Os2 Os5 2.748214 1_555
Os2 Os4 2.748220 1_565
Os2 Os4 2.748220 1_564
Os3 Os5 2.714378 1_555
Os3 Os4 2.714378 1_555
Os3 Os5 2.823632 1_445
Os3 Os4 2.823632 1_455
Os4 Os5 2.714378 1_555
Os4 Os5 2.823632 1_545
