# generated using pymatgen
data_CuAs2H6C2IO2
_symmetry_space_group_name_H-M   'P 1'
_cell_length_a   8.28484300
_cell_length_b   13.61987089
_cell_length_c   18.43258751
_cell_angle_alpha   108.22346333
_cell_angle_beta   90.00000000
_cell_angle_gamma   107.70675617
_symmetry_Int_Tables_number   1
_chemical_formula_structural   CuAs2H6C2IO2
_chemical_formula_sum   'Cu8 As16 H48 C16 I8 O16'
_cell_volume   1871.56738342
_cell_formula_units_Z   8
loop_
 _symmetry_equiv_pos_site_id
 _symmetry_equiv_pos_as_xyz
  1  'x, y, z'
loop_
 _atom_site_type_symbol
 _atom_site_label
 _atom_site_symmetry_multiplicity
 _atom_site_fract_x
 _atom_site_fract_y
 _atom_site_fract_z
 _atom_site_occupancy
  Cu  Cu0  1  0.22185900  0.73703600  0.56601100  1
  Cu  Cu1  1  0.48482300  0.26296400  0.93398900  1
  Cu  Cu2  1  0.77814100  0.26296400  0.43398900  1
  Cu  Cu3  1  0.51517700  0.73703600  0.06601100  1
  Cu  Cu4  1  0.92601200  0.56978700  0.57285200  1
  Cu  Cu5  1  0.35622500  0.43021300  0.92714800  1
  Cu  Cu6  1  0.07398800  0.43021300  0.42714800  1
  Cu  Cu7  1  0.64377500  0.56978700  0.07285200  1
  As  As0  1  0.47204700  0.68439600  0.55415100  1
  As  As1  1  0.78765100  0.31560400  0.94584900  1
  As  As2  1  0.52795300  0.31560400  0.44584900  1
  As  As3  1  0.21234900  0.68439600  0.05415100  1
  As  As4  1  0.35990400  0.47813800  0.39966700  1
  As  As5  1  0.88176600  0.52186200  0.10033300  1
  As  As6  1  0.64009600  0.52186200  0.60033300  1
  As  As7  1  0.11823400  0.47813800  0.89966700  1
  As  As8  1  0.26942700  0.91873700  0.56485000  1
  As  As9  1  0.35069000  0.08126300  0.93515000  1
  As  As10  1  0.73057300  0.08126300  0.43515000  1
  As  As11  1  0.64931000  0.91873700  0.06485000  1
  As  As12  1  0.60818600  0.12923100  0.60083200  1
  As  As13  1  0.47895500  0.87076900  0.89916800  1
  As  As14  1  0.39181400  0.87076900  0.39916800  1
  As  As15  1  0.52104500  0.12923100  0.10083200  1
  H  H0  1  0.69249800  0.84999300  0.54237800  1
  H  H1  1  0.84250500  0.15000700  0.95762200  1
  H  H2  1  0.30750200  0.15000700  0.45762200  1
  H  H3  1  0.15749500  0.84999300  0.04237800  1
  H  H4  1  0.70941700  0.84367600  0.63767100  1
  H  H5  1  0.86574100  0.15632400  0.86232900  1
  H  H6  1  0.29058300  0.15632400  0.36232900  1
  H  H7  1  0.13425900  0.84367600  0.13767100  1
  H  H8  1  0.79399700  0.75895400  0.56205100  1
  H  H9  1  0.03504300  0.24104600  0.93794900  1
  H  H10  1  0.20600300  0.24104600  0.43794900  1
  H  H11  1  0.96495700  0.75895400  0.06205100  1
  H  H12  1  0.53932500  0.52163900  0.29660600  1
  H  H13  1  0.01768600  0.47836100  0.20339400  1
  H  H14  1  0.46067500  0.47836100  0.70339400  1
  H  H15  1  0.98231400  0.52163900  0.79660600  1
  H  H16  1  0.32519400  0.43801400  0.25569500  1
  H  H17  1  0.88718000  0.56198600  0.24430500  1
  H  H18  1  0.67480600  0.56198600  0.74430500  1
  H  H19  1  0.11282000  0.43801400  0.75569500  1
  H  H20  1  0.37045000  0.58087200  0.30688200  1
  H  H21  1  0.78957800  0.41912800  0.19311800  1
  H  H22  1  0.62955000  0.41912800  0.69311800  1
  H  H23  1  0.21042200  0.58087200  0.80688200  1
  H  H24  1  0.01161500  0.98140700  0.56584700  1
  H  H25  1  0.03020900  0.01859300  0.93415300  1
  H  H26  1  0.98838500  0.01859300  0.43415300  1
  H  H27  1  0.96979100  0.98140700  0.06584700  1
  H  H28  1  0.09888100  0.00887000  0.66227300  1
  H  H29  1  0.09001100  0.99113000  0.83772700  1
  H  H30  1  0.90111900  0.99113000  0.33772700  1
  H  H31  1  0.90998900  0.00887000  0.16227300  1
  H  H32  1  0.20044600  0.09567800  0.60842500  1
  H  H33  1  0.10476800  0.90432200  0.89157500  1
  H  H34  1  0.79955400  0.90432200  0.39157500  1
  H  H35  1  0.89523200  0.09567800  0.10842500  1
  H  H36  1  0.89562500  0.21714200  0.67982600  1
  H  H37  1  0.67848300  0.78285800  0.82017400  1
  H  H38  1  0.10437500  0.78285800  0.32017400  1
  H  H39  1  0.32151700  0.21714200  0.17982600  1
  H  H40  1  0.72639000  0.20434400  0.74058900  1
  H  H41  1  0.52204600  0.79565600  0.75941100  1
  H  H42  1  0.27361000  0.79565600  0.25941100  1
  H  H43  1  0.47795400  0.20434400  0.24058900  1
  H  H44  1  0.78905100  0.08686800  0.69123900  1
  H  H45  1  0.70218300  0.91313200  0.80876100  1
  H  H46  1  0.21094900  0.91313200  0.30876100  1
  H  H47  1  0.29781700  0.08686800  0.19123900  1
  C  C0  1  0.69377700  0.79714600  0.57643000  1
  C  C1  1  0.89663100  0.20285400  0.92357000  1
  C  C2  1  0.30622300  0.20285400  0.42357000  1
  C  C3  1  0.10336900  0.79714600  0.07643000  1
  C  C4  1  0.40351100  0.50759500  0.30332900  1
  C  C5  1  0.89591600  0.49240500  0.19667100  1
  C  C6  1  0.59648900  0.49240500  0.69667100  1
  C  C7  1  0.10408400  0.50759500  0.80332900  1
  C  C8  1  0.12835800  0.01179000  0.60501500  1
  C  C9  1  0.11656800  0.98821000  0.89498500  1
  C  C10  1  0.87164200  0.98821000  0.39498500  1
  C  C11  1  0.88343200  0.01179000  0.10501500  1
  C  C12  1  0.77426800  0.16287100  0.68830000  1
  C  C13  1  0.61139800  0.83712900  0.81170000  1
  C  C14  1  0.22573200  0.83712900  0.31170000  1
  C  C15  1  0.38860200  0.16287100  0.18830000  1
  I  I0  1  0.00056300  0.61189400  0.44158300  1
  I  I1  1  0.38866900  0.38810600  0.05841700  1
  I  I2  1  0.99943700  0.38810600  0.55841700  1
  I  I3  1  0.61133100  0.61189400  0.94158300  1
  I  I4  1  0.08929400  0.73265900  0.69480900  1
  I  I5  1  0.35663500  0.26734100  0.80519100  1
  I  I6  1  0.91070600  0.26734100  0.30519100  1
  I  I7  1  0.64336500  0.73265900  0.19480900  1
  O  O0  1  0.51400900  0.60712100  0.46038200  1
  O  O1  1  0.90688900  0.39287900  0.03961800  1
  O  O2  1  0.48599100  0.39287900  0.53961800  1
  O  O3  1  0.09311100  0.60712100  0.96038200  1
  O  O4  1  0.49930900  0.39345400  0.38576900  1
  O  O5  1  0.10585500  0.60654600  0.11423100  1
  O  O6  1  0.50069100  0.60654600  0.61423100  1
  O  O7  1  0.89414500  0.39345400  0.88576900  1
  O  O8  1  0.47406500  0.00550900  0.61778700  1
  O  O9  1  0.46855600  0.99449100  0.88221300  1
  O  O10  1  0.52593500  0.99449100  0.38221300  1
  O  O11  1  0.53144400  0.00550900  0.11778700  1
  O  O12  1  0.72326200  0.05740400  0.52714900  1
  O  O13  1  0.66585800  0.94259600  0.97285100  1
  O  O14  1  0.27673800  0.94259600  0.47285100  1
  O  O15  1  0.33414200  0.05740400  0.02714900  1
loop_
_geom_bond_atom_site_label_1
_geom_bond_atom_site_label_2
_geom_bond_distance
_geom_bond_site_symmetry_2
Cu0 I4 2.625781 1_555
Cu0 I0 2.679718 1_555
Cu1 I5 2.625781 1_555
Cu1 I1 2.679718 1_556
Cu2 I6 2.625781 1_555
Cu2 I2 2.679718 1_555
Cu3 I7 2.625781 1_555
Cu3 I3 2.679718 1_554
Cu4 I4 2.619149 1_655
Cu4 I2 2.658514 1_555
Cu4 I0 2.686522 1_655
Cu5 I5 2.619149 1_555
Cu5 I3 2.658514 1_555
Cu5 I1 2.686522 1_556
Cu6 I6 2.619149 1_455
Cu6 I0 2.658514 1_555
Cu6 I2 2.686522 1_455
Cu7 I7 2.619149 1_555
Cu7 I1 2.658514 1_555
Cu7 I3 2.686522 1_554
As0 O6 1.815059 1_555
As0 O0 1.816800 1_555
As0 C0 1.947050 1_555
As0 Cu0 2.379939 1_555
As1 O7 1.815059 1_555
As1 O1 1.816803 1_556
As1 C1 1.947050 1_555
As1 Cu1 2.379939 1_555
As2 O4 1.815059 1_555
As2 O2 1.816800 1_555
As2 C2 1.947050 1_555
As2 Cu2 2.379939 1_555
As3 O5 1.815059 1_555
As3 O3 1.816803 1_554
As3 C3 1.947050 1_555
As3 Cu3 2.379939 1_555
As4 O4 1.831757 1_555
As4 O0 1.837024 1_555
As4 C4 1.949929 1_555
As4 Cu6 2.357963 1_555
As5 O5 1.831757 1_655
As5 O1 1.837027 1_555
As5 C5 1.949929 1_555
As5 Cu7 2.357963 1_555
As6 O6 1.831757 1_555
As6 O2 1.837024 1_555
As6 C6 1.949929 1_555
As6 Cu4 2.357963 1_555
As7 O7 1.831757 1_455
As7 O3 1.837027 1_555
As7 C7 1.949929 1_555
As7 Cu5 2.357963 1_555
As8 O8 1.811939 1_565
As8 O14 1.821433 1_555
As8 C8 1.958172 1_565
As8 Cu0 2.391651 1_555
As9 O9 1.811939 1_545
As9 O15 1.821433 1_556
As9 C9 1.958172 1_545
As9 Cu1 2.391651 1_555
As10 O10 1.811939 1_545
As10 O12 1.821433 1_555
As10 C10 1.958172 1_545
As10 Cu2 2.391651 1_555
As11 O11 1.811939 1_565
As11 O13 1.821433 1_554
As11 C11 1.958172 1_565
As11 Cu3 2.391651 1_555
As12 O8 1.833649 1_555
As12 O12 1.856587 1_555
As12 C12 1.963947 1_555
As13 O9 1.833649 1_555
As13 O13 1.856587 1_555
As13 C13 1.963952 1_555
As14 O10 1.833649 1_555
As14 O14 1.856587 1_555
As14 C14 1.963947 1_555
As15 O11 1.833649 1_555
As15 O15 1.856587 1_555
As15 C15 1.963952 1_555
C0 H4 1.093290 1_555
C0 H0 1.095147 1_555
C0 H8 1.098511 1_555
C1 H5 1.093290 1_555
C1 H1 1.095147 1_555
C1 H9 1.098511 1_655
C2 H6 1.093290 1_555
C2 H2 1.095147 1_555
C2 H10 1.098511 1_555
C3 H7 1.093290 1_555
C3 H3 1.095147 1_555
C3 H11 1.098511 1_455
C4 H16 1.093415 1_555
C4 H20 1.095796 1_555
C4 H12 1.096321 1_555
C5 H17 1.093415 1_555
C5 H21 1.095796 1_555
C5 H13 1.096321 1_655
C6 H18 1.093415 1_555
C6 H22 1.095796 1_555
C6 H14 1.096321 1_555
C7 H19 1.093415 1_555
C7 H23 1.095796 1_555
C7 H15 1.096321 1_455
C8 H28 1.093372 1_555
C8 H24 1.094362 1_545
C8 H32 1.098205 1_555
C9 H29 1.093372 1_555
C9 H25 1.094356 1_565
C9 H33 1.098205 1_555
C10 H30 1.093372 1_555
C10 H26 1.094362 1_565
C10 H34 1.098205 1_555
C11 H31 1.093372 1_555
C11 H27 1.094356 1_545
C11 H35 1.098205 1_555
C12 H40 1.095966 1_555
C12 H44 1.096205 1_555
C12 H36 1.096259 1_555
C13 H41 1.095970 1_555
C13 H45 1.096202 1_555
C13 H37 1.096253 1_555
C14 H42 1.095966 1_555
C14 H46 1.096205 1_555
C14 H38 1.096259 1_555
C15 H43 1.095970 1_555
C15 H47 1.096202 1_555
C15 H39 1.096253 1_555
