# generated using pymatgen
data_BaMg14CoO16
_symmetry_space_group_name_H-M   'P 1'
_cell_length_a   8.77625045
_cell_length_b   8.77625045
_cell_length_c   4.42792775
_cell_angle_alpha   90.00000000
_cell_angle_beta   90.00000000
_cell_angle_gamma   90.00000000
_symmetry_Int_Tables_number   1
_chemical_formula_structural   BaMg14CoO16
_chemical_formula_sum   'Ba1 Mg14 Co1 O16'
_cell_volume   341.05038376
_cell_formula_units_Z   1
loop_
 _symmetry_equiv_pos_site_id
 _symmetry_equiv_pos_as_xyz
  1  'x, y, z'
loop_
 _atom_site_type_symbol
 _atom_site_label
 _atom_site_symmetry_multiplicity
 _atom_site_fract_x
 _atom_site_fract_y
 _atom_site_fract_z
 _atom_site_occupancy
  Ba  Ba0  1  0.50000000  0.50000000  -0.00000000  1
  Mg  Mg0  1  0.00000000  0.50000000  -0.00000000  1
  Mg  Mg1  1  0.50000000  0.00000000  -0.00000000  1
  Mg  Mg2  1  0.00000000  0.24596635  0.50000000  1
  Mg  Mg3  1  0.00000000  0.75403365  0.50000000  1
  Mg  Mg4  1  0.50000000  0.23145360  0.50000000  1
  Mg  Mg5  1  0.50000000  0.76854640  0.50000000  1
  Mg  Mg6  1  0.24596635  0.00000000  0.50000000  1
  Mg  Mg7  1  0.23145360  0.50000000  0.50000000  1
  Mg  Mg8  1  0.75403365  0.00000000  0.50000000  1
  Mg  Mg9  1  0.76854640  0.50000000  0.50000000  1
  Mg  Mg10  1  0.23921475  0.23921475  -0.00000000  1
  Mg  Mg11  1  0.23921475  0.76078525  0.00000000  1
  Mg  Mg12  1  0.76078525  0.23921475  -0.00000000  1
  Mg  Mg13  1  0.76078525  0.76078525  -0.00000000  1
  Co  Co0  1  0.00000000  0.00000000  -0.00000000  1
  O  O0  1  0.24918507  0.00000000  0.00000000  1
  O  O1  1  0.22025464  0.50000000  -0.00000000  1
  O  O2  1  0.75081493  0.00000000  -0.00000000  1
  O  O3  1  0.77974536  0.50000000  -0.00000000  1
  O  O4  1  0.24950990  0.24950990  0.50000000  1
  O  O5  1  0.24950990  0.75049010  0.50000000  1
  O  O6  1  0.75049010  0.24950990  0.50000000  1
  O  O7  1  0.75049010  0.75049010  0.50000000  1
  O  O8  1  0.00000000  0.00000000  0.50000000  1
  O  O9  1  0.00000000  0.50000000  0.50000000  1
  O  O10  1  0.50000000  0.00000000  0.50000000  1
  O  O11  1  0.50000000  0.50000000  0.50000000  1
  O  O12  1  -0.00000000  0.24918507  0.00000000  1
  O  O13  1  0.00000000  0.75081493  -0.00000000  1
  O  O14  1  0.50000000  0.22025464  -0.00000000  1
  O  O15  1  0.50000000  0.77974536  -0.00000000  1
loop_
_geom_bond_atom_site_label_1
_geom_bond_atom_site_label_2
_geom_bond_distance
_geom_bond_site_symmetry_2
Ba0 O11 2.213964 1_554
Ba0 O11 2.213964 1_555
Ba0 O14 2.455115 1_555
Ba0 O1 2.455115 1_555
Ba0 O15 2.455115 1_555
Ba0 O3 2.455115 1_555
Mg0 O3 1.933010 1_455
Mg0 O1 1.933010 1_555
Mg0 O13 2.201215 1_555
Mg0 O12 2.201215 1_555
Mg0 O9 2.213964 1_555
Mg0 O9 2.213964 1_554
Mg1 O15 1.933010 1_545
Mg1 O14 1.933010 1_555
Mg1 O2 2.201215 1_555
Mg1 O0 2.201215 1_555
Mg1 O10 2.213964 1_555
Mg1 O10 2.213964 1_554
Mg2 O8 2.158662 1_555
Mg2 O6 2.189982 1_455
Mg2 O4 2.189982 1_555
Mg2 O12 2.214144 1_556
Mg2 O12 2.214144 1_555
Mg2 O9 2.229463 1_555
Mg3 O8 2.158662 1_565
Mg3 O7 2.189982 1_455
Mg3 O5 2.189982 1_555
Mg3 O13 2.214144 1_555
Mg3 O13 2.214144 1_556
Mg3 O9 2.229463 1_555
Mg4 O10 2.031295 1_555
Mg4 O4 2.204068 1_555
Mg4 O6 2.204068 1_555
Mg4 O14 2.216144 1_556
Mg4 O14 2.216144 1_555
Mg4 O11 2.356830 1_555
Mg5 O10 2.031295 1_565
Mg5 O5 2.204068 1_555
Mg5 O7 2.204068 1_555
Mg5 O15 2.216144 1_555
Mg5 O15 2.216144 1_556
Mg5 O11 2.356830 1_555
Mg6 O8 2.158662 1_555
Mg6 O5 2.189982 1_545
Mg6 O4 2.189982 1_555
Mg6 O0 2.214144 1_555
Mg6 O0 2.214144 1_556
Mg6 O10 2.229463 1_555
Mg7 O9 2.031295 1_555
Mg7 O4 2.204068 1_555
Mg7 O5 2.204068 1_555
Mg7 O1 2.216144 1_556
Mg7 O1 2.216144 1_555
Mg7 O11 2.356830 1_555
Mg8 O8 2.158662 1_655
Mg8 O6 2.189982 1_555
Mg8 O7 2.189982 1_545
Mg8 O2 2.214144 1_556
Mg8 O2 2.214144 1_555
Mg8 O10 2.229463 1_555
Mg9 O9 2.031295 1_655
Mg9 O6 2.204068 1_555
Mg9 O7 2.204068 1_555
Mg9 O3 2.216144 1_556
Mg9 O3 2.216144 1_555
Mg9 O11 2.356830 1_555
Mg10 O0 2.101231 1_555
Mg10 O12 2.101231 1_555
Mg10 O4 2.217648 1_554
Mg10 O4 2.217648 1_555
Mg10 O1 2.294758 1_555
Mg10 O14 2.294758 1_555
Mg11 O13 2.101231 1_555
Mg11 O0 2.101231 1_565
Mg11 O5 2.217648 1_555
Mg11 O5 2.217648 1_554
Mg11 O1 2.294758 1_555
Mg11 O15 2.294758 1_555
Mg12 O12 2.101231 1_655
Mg12 O2 2.101231 1_555
Mg12 O6 2.217648 1_554
Mg12 O6 2.217648 1_555
Mg12 O14 2.294758 1_555
Mg12 O3 2.294758 1_555
Mg13 O2 2.101231 1_565
Mg13 O13 2.101231 1_655
Mg13 O7 2.217648 1_555
Mg13 O7 2.217648 1_554
Mg13 O15 2.294758 1_555
Mg13 O3 2.294758 1_555
Co0 O13 2.186911 1_545
Co0 O0 2.186911 1_555
Co0 O12 2.186911 1_555
Co0 O2 2.186911 1_455
Co0 O8 2.213964 1_554
Co0 O8 2.213964 1_555
