# generated using pymatgen
data_MgFe10O9F11
_symmetry_space_group_name_H-M   'P 1'
_cell_length_a   4.93568601
_cell_length_b   4.89215044
_cell_length_c   15.50119962
_cell_angle_alpha   89.83776129
_cell_angle_beta   89.92171195
_cell_angle_gamma   96.34723272
_symmetry_Int_Tables_number   1
_chemical_formula_structural   MgFe10O9F11
_chemical_formula_sum   'Mg1 Fe10 O9 F11'
_cell_volume   371.99741772
_cell_formula_units_Z   1
loop_
 _symmetry_equiv_pos_site_id
 _symmetry_equiv_pos_as_xyz
  1  'x, y, z'
loop_
 _atom_site_type_symbol
 _atom_site_label
 _atom_site_symmetry_multiplicity
 _atom_site_fract_x
 _atom_site_fract_y
 _atom_site_fract_z
 _atom_site_occupancy
  Mg  Mg0  1  0.52112500  0.01958000  0.79697200  1
  Fe  Fe0  1  0.99613300  0.99167900  0.00684900  1
  Fe  Fe1  1  0.99398100  0.99218300  0.20410100  1
  Fe  Fe2  1  0.98984300  0.98600300  0.40360700  1
  Fe  Fe3  1  0.03416900  0.00032400  0.60256700  1
  Fe  Fe4  1  0.03220800  0.03116500  0.79584300  1
  Fe  Fe5  1  0.49609200  0.49012500  0.10607500  1
  Fe  Fe6  1  0.49103000  0.47212800  0.48889400  1
  Fe  Fe7  1  0.49167100  0.49387700  0.29897800  1
  Fe  Fe8  1  0.43437400  0.52470700  0.69099400  1
  Fe  Fe9  1  0.48306500  0.50103400  0.91541100  1
  O  O0  1  0.25604000  0.84250100  0.70664600  1
  O  O1  1  0.27170700  0.29291500  0.01313700  1
  O  O2  1  0.29244400  0.29115400  0.20412300  1
  O  O3  1  0.29037400  0.28511000  0.39637600  1
  O  O4  1  0.30096900  0.33230000  0.59223900  1
  O  O5  1  0.32561700  0.34574500  0.80116800  1
  O  O6  1  0.71148100  0.68882300  0.00925900  1
  O  O7  1  0.69473100  0.69106300  0.20396800  1
  O  O8  1  0.69437000  0.68648400  0.39998200  1
  F  F0  1  0.18655100  0.80386000  0.10692600  1
  F  F1  1  0.17890300  0.79932500  0.30235400  1
  F  F2  1  0.20031400  0.79642100  0.49370900  1
  F  F3  1  0.23395300  0.84961400  0.89889400  1
  F  F4  1  0.71835300  0.69047900  0.60078500  1
  F  F5  1  0.73031200  0.70494300  0.79407700  1
  F  F6  1  0.79491400  0.17499000  0.10689400  1
  F  F7  1  0.79307000  0.18248700  0.49634500  1
  F  F8  1  0.80632600  0.17645100  0.30284500  1
  F  F9  1  0.77996500  0.15203300  0.89663200  1
  F  F10  1  0.77591400  0.19660800  0.70501700  1
loop_
_geom_bond_atom_site_label_1
_geom_bond_atom_site_label_2
_geom_bond_distance
_geom_bond_site_symmetry_2
Mg0 O5 1.955083 1_555
Mg0 O0 2.045491 1_545
Fe0 O1 1.894531 1_665
Fe0 O6 1.926075 1_555
Fe1 O2 1.957784 1_665
Fe1 O7 1.967379 1_555
Fe2 O8 1.950707 1_555
Fe2 O3 1.967918 1_665
Fe3 O4 1.980506 1_555
Fe3 O0 2.140785 1_545
Fe4 O5 1.995175 1_555
Fe4 O0 2.052472 1_545
Fe5 O1 2.002199 1_555
Fe5 O7 2.007398 1_555
Fe5 O2 2.009703 1_555
Fe5 O6 2.021447 1_555
Fe6 O3 1.919803 1_555
Fe6 O8 1.939544 1_555
Fe6 O4 1.939600 1_555
Fe7 O7 1.969329 1_555
Fe7 O2 1.977133 1_555
Fe7 O3 2.018037 1_555
Fe7 O8 2.035765 1_555
Fe8 O4 1.880653 1_555
Fe8 O0 1.885424 1_555
Fe8 O5 1.963786 1_555
Fe9 O6 2.003588 1_556
Fe9 O1 2.042504 1_556
Fe9 O5 2.048900 1_555
F0 Fe1 2.053966 1_455
F0 Fe0 2.078701 1_455
F0 Fe5 2.282237 1_555
F1 Fe1 2.056439 1_455
F1 Fe2 2.088252 1_455
F1 Fe7 2.264734 1_555
F2 Fe2 2.024780 1_455
F2 Fe3 2.168307 1_565
F2 Fe6 2.255022 1_555
F3 Fe4 2.126961 1_565
F3 Fe0 2.200641 1_456
F3 Mg0 2.218641 1_565
F3 Fe9 2.224270 1_555
F4 Fe3 2.050883 1_665
F4 Fe8 2.077144 1_555
F4 Fe6 2.271353 1_555
F5 Mg0 1.946532 1_565
F5 Fe4 2.059753 1_665
F5 Fe8 2.279011 1_555
F5 Fe9 2.394944 1_555
F6 Fe1 2.055821 1_545
F6 Fe0 2.096714 1_545
F6 Fe5 2.248325 1_555
F7 Fe2 2.035728 1_545
F7 Fe6 2.170288 1_555
F7 Fe3 2.270015 1_655
F8 Fe1 2.049864 1_545
F8 Fe2 2.076140 1_545
F8 Fe7 2.315163 1_555
F9 Mg0 2.065576 1_555
F9 Fe4 2.122092 1_655
F9 Fe0 2.203445 1_546
F9 Fe9 2.387907 1_555
F10 Mg0 2.027460 1_555
F10 Fe4 2.112412 1_655
F10 Fe3 2.311417 1_655
F10 Fe8 2.462239 1_555
