# generated using pymatgen
data_NaLaAgTe4
_symmetry_space_group_name_H-M   'P 1'
_cell_length_a   4.38019000
_cell_length_b   4.54572600
_cell_length_c   21.30188600
_cell_angle_alpha   90.00000000
_cell_angle_beta   90.00000000
_cell_angle_gamma   90.00000000
_symmetry_Int_Tables_number   1
_chemical_formula_structural   NaLaAgTe4
_chemical_formula_sum   'Na2 La2 Ag2 Te8'
_cell_volume   424.14491041
_cell_formula_units_Z   2
loop_
 _symmetry_equiv_pos_site_id
 _symmetry_equiv_pos_as_xyz
  1  'x, y, z'
loop_
 _atom_site_type_symbol
 _atom_site_label
 _atom_site_symmetry_multiplicity
 _atom_site_fract_x
 _atom_site_fract_y
 _atom_site_fract_z
 _atom_site_occupancy
  Na  Na0  1  0.00000000  0.50000000  0.13620000  1
  Na  Na1  1  0.50000000  0.00000000  0.86380000  1
  La  La0  1  0.00000000  0.50000000  0.60091100  1
  La  La1  1  0.50000000  0.00000000  0.39908900  1
  Ag  Ag0  1  0.50000000  0.50000000  0.00051300  1
  Ag  Ag1  1  0.00000000  0.00000000  0.99948700  1
  Te  Te0  1  0.50000000  0.50000000  0.27629000  1
  Te  Te1  1  0.00000000  0.00000000  0.72371000  1
  Te  Te2  1  0.00000000  0.50000000  0.44220700  1
  Te  Te3  1  0.50000000  0.00000000  0.55779300  1
  Te  Te4  1  0.50000000  0.50000000  0.72442400  1
  Te  Te5  1  0.00000000  0.00000000  0.27557600  1
  Te  Te6  1  0.00000000  0.50000000  0.91263700  1
  Te  Te7  1  0.50000000  0.00000000  0.08736300  1
loop_
_geom_bond_atom_site_label_1
_geom_bond_atom_site_label_2
_geom_bond_distance
_geom_bond_site_symmetry_2
Na0 Te7 3.323355 1_565
Na0 Te7 3.323355 1_455
Na0 Te7 3.323355 1_465
Na0 Te7 3.323355 1_555
Na0 Te0 3.701601 1_455
Na0 Te0 3.701601 1_555
Na0 Te5 3.739077 1_565
Na0 Te5 3.739077 1_555
Na1 Te6 3.323355 1_645
Na1 Te6 3.323355 1_555
Na1 Te6 3.323355 1_545
Na1 Te6 3.323355 1_655
Na1 Te1 3.701601 1_655
Na1 Te1 3.701601 1_555
Na1 Te4 3.739077 1_545
Na1 Te4 3.739077 1_555
La0 Te3 3.287256 1_555
La0 Te3 3.287256 1_455
La0 Te3 3.287256 1_565
La0 Te3 3.287256 1_465
La0 Te2 3.380695 1_555
La0 Te4 3.423301 1_455
La0 Te4 3.423301 1_555
La0 Te1 3.465340 1_565
La0 Te1 3.465340 1_555
La1 Te2 3.287256 1_645
La1 Te2 3.287256 1_545
La1 Te2 3.287256 1_555
La1 Te2 3.287256 1_655
La1 Te3 3.380695 1_555
La1 Te5 3.423301 1_655
La1 Te5 3.423301 1_555
La1 Te0 3.465340 1_555
La1 Te0 3.465340 1_545
Ag0 Te6 2.881079 1_654
Ag0 Te6 2.881079 1_554
Ag0 Te7 2.930642 1_555
Ag0 Te7 2.930642 1_565
Ag0 Ag1 3.156406 1_654
Ag0 Ag1 3.156406 1_554
Ag0 Ag1 3.156406 1_564
Ag0 Ag1 3.156406 1_664
Ag0 Na0 3.626412 1_555
Ag0 Na0 3.626412 1_655
Ag0 Na1 3.694195 1_554
Ag0 Na1 3.694195 1_564
Ag1 Te7 2.881079 1_556
Ag1 Te7 2.881079 1_456
Ag1 Te6 2.930642 1_545
Ag1 Te6 2.930642 1_555
Ag1 Na1 3.626412 1_555
Ag1 Na1 3.626412 1_455
Ag1 Na0 3.694195 1_556
Ag1 Na0 3.694195 1_546
Te0 Te5 3.156367 1_655
Te0 Te5 3.156367 1_665
Te0 Te5 3.156367 1_565
Te0 Te5 3.156367 1_555
Te1 Te4 3.156367 1_455
Te1 Te4 3.156367 1_445
Te1 Te4 3.156367 1_555
Te1 Te4 3.156367 1_545
