# generated using pymatgen
data_Er3Fe2Si3
_symmetry_space_group_name_H-M   'P 1'
_cell_length_a   5.57814484
_cell_length_b   5.57814672
_cell_length_c   13.62067617
_cell_angle_alpha   90.00067684
_cell_angle_beta   89.99931142
_cell_angle_gamma   136.82266986
_symmetry_Int_Tables_number   1
_chemical_formula_structural   Er3Fe2Si3
_chemical_formula_sum   'Er6 Fe4 Si6'
_cell_volume   290.00044814
_cell_formula_units_Z   2
loop_
 _symmetry_equiv_pos_site_id
 _symmetry_equiv_pos_as_xyz
  1  'x, y, z'
loop_
 _atom_site_type_symbol
 _atom_site_label
 _atom_site_symmetry_multiplicity
 _atom_site_fract_x
 _atom_site_fract_y
 _atom_site_fract_z
 _atom_site_occupancy
  Er  Er0  1  0.63372330  0.36627363  0.25000178  1
  Er  Er1  1  0.36627060  0.63372571  0.74999245  1
  Er  Er2  1  0.91849526  0.08150349  0.11283534  1
  Er  Er3  1  0.08149919  0.91849828  0.88712663  1
  Er  Er4  1  0.08150253  0.91849849  0.61286141  1
  Er  Er5  1  0.91849939  0.08150076  0.38717464  1
  Fe  Fe0  1  0.78635245  0.21365005  0.58209583  1
  Fe  Fe1  1  0.21364816  0.78635635  0.41785818  1
  Fe  Fe2  1  0.21364086  0.78636039  0.08214174  1
  Fe  Fe3  1  0.78636318  0.21363641  0.91790991  1
  Si  Si0  1  0.32832498  0.67167591  0.24998553  1
  Si  Si1  1  0.67167841  0.32832136  0.75001233  1
  Si  Si2  1  0.61751476  0.38248458  0.03881696  1
  Si  Si3  1  0.38248426  0.61751441  0.96117851  1
  Si  Si4  1  0.38249373  0.61750738  0.53883366  1
  Si  Si5  1  0.61750794  0.38249381  0.46117509  1
loop_
_geom_bond_atom_site_label_1
_geom_bond_atom_site_label_2
_geom_bond_distance
_geom_bond_site_symmetry_2
Er0 Si0 2.878824 1_545
Er0 Si0 2.878834 1_655
Er0 Si5 2.881237 1_555
Er0 Si2 2.881393 1_555
Er0 Si0 3.168122 1_555
Er0 Fe1 3.182303 1_545
Er0 Fe2 3.182313 1_545
Er0 Fe2 3.182323 1_655
Er0 Fe1 3.182323 1_655
Er1 Si1 2.878781 1_455
Er1 Si1 2.878793 1_565
Er1 Si4 2.881041 1_555
Er1 Si3 2.881412 1_555
Er1 Si1 3.168182 1_555
Er1 Fe0 3.182699 1_455
Er1 Fe0 3.182715 1_565
Er1 Fe3 3.182858 1_455
Er1 Fe3 3.182868 1_565
Er2 Si0 2.928667 1_545
Er2 Si0 2.928675 1_655
Er2 Si3 2.935815 1_654
Er2 Si3 2.935816 1_544
Er2 Fe2 2.983840 1_545
Er2 Fe2 2.983849 1_655
Er2 Fe3 2.987979 1_554
Er2 Si2 3.080785 1_655
Er2 Si2 3.080785 1_545
Er2 Fe2 3.090136 1_645
Er2 Si2 3.281023 1_555
Er3 Si1 2.928379 1_455
Er3 Si1 2.928384 1_565
Er3 Si2 2.936138 1_456
Er3 Si2 2.936144 1_566
Er3 Fe3 2.984067 1_455
Er3 Fe3 2.984072 1_565
Er3 Fe2 2.989099 1_556
Er3 Si3 3.080906 1_455
Er3 Si3 3.080911 1_565
Er3 Fe3 3.090226 1_465
Er3 Si3 3.281200 1_555
Er4 Si1 2.928708 1_565
Er4 Si1 2.928711 1_455
Er4 Si5 2.936083 1_455
Er4 Si5 2.936084 1_565
Er4 Fe0 2.983925 1_455
Er4 Fe0 2.983928 1_565
Er4 Fe1 2.988944 1_555
Er4 Si4 3.080771 1_455
Er4 Si4 3.080772 1_565
Er4 Fe0 3.090346 1_465
Er4 Si4 3.281140 1_555
Er5 Si0 2.929035 1_545
Er5 Si0 2.929037 1_655
Er5 Si4 2.935821 1_545
Er5 Si4 2.935825 1_655
Er5 Fe1 2.983794 1_545
Er5 Fe1 2.983808 1_655
Er5 Fe0 2.987971 1_555
Er5 Si5 3.080641 1_545
Er5 Si5 3.080644 1_655
Er5 Fe1 3.090151 1_645
Er5 Si5 3.281036 1_555
Fe0 Si4 2.356767 1_655
Fe0 Si4 2.356773 1_545
Fe0 Si5 2.404293 1_555
Fe0 Si1 2.577987 1_555
Fe1 Si5 2.356938 1_565
Fe1 Si5 2.356947 1_455
Fe1 Si4 2.404828 1_555
Fe1 Si0 2.577485 1_555
Fe2 Si2 2.356912 1_565
Fe2 Si2 2.356919 1_455
Fe2 Si3 2.404663 1_554
Fe2 Si0 2.577191 1_555
Fe3 Si3 2.356706 1_655
Fe3 Si3 2.356710 1_545
Fe3 Si2 2.404166 1_556
Fe3 Si1 2.577843 1_555
Si2 Si3 2.657593 1_554
Si4 Si5 2.657523 1_555
