# generated using pymatgen
data_LiTiO2
_symmetry_space_group_name_H-M   'P 1'
_cell_length_a   5.49082365
_cell_length_b   5.49082456
_cell_length_c   5.49082438
_cell_angle_alpha   30.81278408
_cell_angle_beta   30.81279626
_cell_angle_gamma   30.81280483
_symmetry_Int_Tables_number   1
_chemical_formula_structural   LiTiO2
_chemical_formula_sum   'Li1 Ti1 O2'
_cell_volume   38.52186459
_cell_formula_units_Z   1
loop_
 _symmetry_equiv_pos_site_id
 _symmetry_equiv_pos_as_xyz
  1  'x, y, z'
loop_
 _atom_site_type_symbol
 _atom_site_label
 _atom_site_symmetry_multiplicity
 _atom_site_fract_x
 _atom_site_fract_y
 _atom_site_fract_z
 _atom_site_occupancy
  Li  Li0  1  0.82798200  0.82798200  0.82798200  1
  Ti  Ti0  1  0.00125600  0.00125600  0.00125600  1
  O  O0  1  0.59264700  0.59264700  0.59264700  1
  O  O1  1  0.41144900  0.41144900  0.41144900  1
loop_
_geom_bond_atom_site_label_1
_geom_bond_atom_site_label_2
_geom_bond_distance
_geom_bond_site_symmetry_2
Li0 O1 2.130411 1_556
Li0 O1 2.130412 1_565
Li0 O1 2.130413 1_655
Li0 O0 2.279865 1_655
Li0 O0 2.279865 1_556
Li0 O0 2.279866 1_565
O0 Ti0 2.056691 1_665
O0 Ti0 2.056691 1_656
O0 Ti0 2.056692 1_566
O1 Ti0 2.071041 1_556
O1 Ti0 2.071042 1_565
O1 Ti0 2.071043 1_655
