# generated using pymatgen
data_Hf5Pb
_symmetry_space_group_name_H-M   'P 1'
_cell_length_a   6.37327276
_cell_length_b   6.37327276
_cell_length_c   26.99697910
_cell_angle_alpha   90.00000000
_cell_angle_beta   90.00000000
_cell_angle_gamma   90.00000000
_symmetry_Int_Tables_number   1
_chemical_formula_structural   Hf5Pb
_chemical_formula_sum   'Hf40 Pb8'
_cell_volume   1096.57964843
_cell_formula_units_Z   8
loop_
 _symmetry_equiv_pos_site_id
 _symmetry_equiv_pos_as_xyz
  1  'x, y, z'
loop_
 _atom_site_type_symbol
 _atom_site_label
 _atom_site_symmetry_multiplicity
 _atom_site_fract_x
 _atom_site_fract_y
 _atom_site_fract_z
 _atom_site_occupancy
  Hf  Hf0_0  1  0.25000000  0.25000000  0.16724114  1
  Hf  Hf0_1  1  0.25000000  0.25000000  0.66724114  1
  Hf  Hf0_2  1  0.25000000  0.75000000  0.16724114  1
  Hf  Hf0_3  1  0.25000000  0.75000000  0.66724114  1
  Hf  Hf0_4  1  0.75000000  0.25000000  0.16724114  1
  Hf  Hf0_5  1  0.75000000  0.25000000  0.66724114  1
  Hf  Hf0_6  1  0.75000000  0.75000000  0.16724114  1
  Hf  Hf0_7  1  0.75000000  0.75000000  0.66724114  1
  Hf  Hf1_0  1  0.25000000  0.25000000  0.33275886  1
  Hf  Hf1_1  1  0.25000000  0.25000000  0.83275886  1
  Hf  Hf1_2  1  0.25000000  0.75000000  0.33275886  1
  Hf  Hf1_3  1  0.25000000  0.75000000  0.83275886  1
  Hf  Hf1_4  1  0.75000000  0.25000000  0.33275886  1
  Hf  Hf1_5  1  0.75000000  0.25000000  0.83275886  1
  Hf  Hf1_6  1  0.75000000  0.75000000  0.33275886  1
  Hf  Hf1_7  1  0.75000000  0.75000000  0.83275886  1
  Hf  Hf2_0  1  0.00000000  0.00000000  0.08799340  1
  Hf  Hf2_1  1  0.00000000  0.00000000  0.58799340  1
  Hf  Hf2_2  1  0.00000000  0.50000000  0.08799340  1
  Hf  Hf2_3  1  0.00000000  0.50000000  0.58799340  1
  Hf  Hf2_4  1  0.50000000  0.00000000  0.08799340  1
  Hf  Hf2_5  1  0.50000000  0.00000000  0.58799340  1
  Hf  Hf2_6  1  0.50000000  0.50000000  0.08799340  1
  Hf  Hf2_7  1  0.50000000  0.50000000  0.58799340  1
  Hf  Hf3_0  1  0.00000000  0.00000000  0.41200660  1
  Hf  Hf3_1  1  0.00000000  0.00000000  0.91200660  1
  Hf  Hf3_2  1  0.00000000  0.50000000  0.41200660  1
  Hf  Hf3_3  1  0.00000000  0.50000000  0.91200660  1
  Hf  Hf3_4  1  0.50000000  0.00000000  0.41200660  1
  Hf  Hf3_5  1  0.50000000  0.00000000  0.91200660  1
  Hf  Hf3_6  1  0.50000000  0.50000000  0.41200660  1
  Hf  Hf3_7  1  0.50000000  0.50000000  0.91200660  1
  Hf  Hf4_0  1  0.00000000  0.00000000  0.25000000  1
  Hf  Hf4_1  1  0.00000000  0.00000000  0.75000000  1
  Hf  Hf4_2  1  0.00000000  0.50000000  0.25000000  1
  Hf  Hf4_3  1  0.00000000  0.50000000  0.75000000  1
  Hf  Hf4_4  1  0.50000000  0.00000000  0.25000000  1
  Hf  Hf4_5  1  0.50000000  0.00000000  0.75000000  1
  Hf  Hf4_6  1  0.50000000  0.50000000  0.25000000  1
  Hf  Hf4_7  1  0.50000000  0.50000000  0.75000000  1
  Pb  Pb0_0  1  0.25000000  0.25000000  0.00000000  1
  Pb  Pb0_1  1  0.25000000  0.25000000  0.50000000  1
  Pb  Pb0_2  1  0.25000000  0.75000000  0.00000000  1
  Pb  Pb0_3  1  0.25000000  0.75000000  0.50000000  1
  Pb  Pb0_4  1  0.75000000  0.25000000  0.00000000  1
  Pb  Pb0_5  1  0.75000000  0.25000000  0.50000000  1
  Pb  Pb0_6  1  0.75000000  0.75000000  0.00000000  1
  Pb  Pb0_7  1  0.75000000  0.75000000  0.50000000  1
loop_
_geom_bond_atom_site_label_1
_geom_bond_atom_site_label_2
_geom_bond_distance
_geom_bond_site_symmetry_2
Hf0_0 Hf2_4 3.107180 1_555
Hf0_0 Hf2_2 3.107180 1_555
Hf0_0 Hf2_6 3.107180 1_555
Hf0_0 Hf2_0 3.107180 1_555
Hf0_0 Hf4_4 3.173192 1_555
Hf0_0 Hf4_2 3.173192 1_555
Hf0_0 Hf4_0 3.173192 1_555
Hf0_0 Hf4_6 3.173192 1_555
Hf0_0 Hf0_2 3.186636 1_555
Hf0_0 Hf0_4 3.186636 1_455
Hf0_0 Hf0_4 3.186636 1_555
Hf0_0 Hf0_2 3.186636 1_545
Hf0_1 Hf2_5 3.107180 1_555
Hf0_1 Hf2_3 3.107180 1_555
Hf0_1 Hf2_7 3.107180 1_555
Hf0_1 Hf2_1 3.107180 1_555
Hf0_1 Hf4_7 3.173192 1_555
Hf0_1 Hf4_1 3.173192 1_555
Hf0_1 Hf4_5 3.173192 1_555
Hf0_1 Hf4_3 3.173192 1_555
Hf0_1 Hf0_3 3.186636 1_555
Hf0_1 Hf0_3 3.186636 1_545
Hf0_1 Hf0_5 3.186636 1_455
Hf0_1 Hf0_5 3.186636 1_555
Hf0_2 Hf2_0 3.107180 1_565
Hf0_2 Hf2_4 3.107180 1_565
Hf0_2 Hf2_2 3.107180 1_555
Hf0_2 Hf2_6 3.107180 1_555
Hf0_2 Hf4_2 3.173192 1_555
Hf0_2 Hf4_0 3.173192 1_565
Hf0_2 Hf4_4 3.173192 1_565
Hf0_2 Hf4_6 3.173192 1_555
Hf0_2 Hf0_6 3.186636 1_555
Hf0_2 Hf0_6 3.186636 1_455
Hf0_3 Hf2_1 3.107180 1_565
Hf0_3 Hf2_3 3.107180 1_555
Hf0_3 Hf2_5 3.107180 1_565
Hf0_3 Hf2_7 3.107180 1_555
Hf0_3 Hf4_7 3.173192 1_555
Hf0_3 Hf4_1 3.173192 1_565
Hf0_3 Hf4_5 3.173192 1_565
Hf0_3 Hf4_3 3.173192 1_555
Hf0_3 Hf0_7 3.186636 1_455
Hf0_3 Hf0_7 3.186636 1_555
Hf0_4 Hf2_4 3.107180 1_555
Hf0_4 Hf2_6 3.107180 1_555
Hf0_4 Hf2_2 3.107180 1_655
Hf0_4 Hf2_0 3.107180 1_655
Hf0_4 Hf4_4 3.173192 1_555
Hf0_4 Hf4_2 3.173192 1_655
Hf0_4 Hf4_6 3.173192 1_555
Hf0_4 Hf4_0 3.173192 1_655
Hf0_4 Hf0_6 3.186636 1_545
Hf0_4 Hf0_6 3.186636 1_555
Hf0_5 Hf2_5 3.107180 1_555
Hf0_5 Hf2_3 3.107180 1_655
Hf0_5 Hf2_1 3.107180 1_655
Hf0_5 Hf2_7 3.107180 1_555
Hf0_5 Hf4_7 3.173192 1_555
Hf0_5 Hf4_3 3.173192 1_655
Hf0_5 Hf4_5 3.173192 1_555
Hf0_5 Hf4_1 3.173192 1_655
Hf0_5 Hf0_7 3.186636 1_555
Hf0_5 Hf0_7 3.186636 1_545
Hf0_6 Hf2_0 3.107180 1_665
Hf0_6 Hf2_4 3.107180 1_565
Hf0_6 Hf2_2 3.107180 1_655
Hf0_6 Hf2_6 3.107180 1_555
Hf0_6 Hf4_0 3.173192 1_665
Hf0_6 Hf4_2 3.173192 1_655
Hf0_6 Hf4_4 3.173192 1_565
Hf0_6 Hf4_6 3.173192 1_555
Hf0_7 Hf2_3 3.107180 1_655
Hf0_7 Hf2_1 3.107180 1_665
Hf0_7 Hf2_5 3.107180 1_565
Hf0_7 Hf2_7 3.107180 1_555
Hf0_7 Hf4_7 3.173192 1_555
Hf0_7 Hf4_3 3.173192 1_655
Hf0_7 Hf4_5 3.173192 1_565
Hf0_7 Hf4_1 3.173192 1_665
Hf1_0 Hf3_2 3.107180 1_555
Hf1_0 Hf3_0 3.107180 1_555
Hf1_0 Hf3_6 3.107180 1_555
Hf1_0 Hf3_4 3.107180 1_555
Hf1_0 Hf4_4 3.173192 1_555
Hf1_0 Hf4_2 3.173192 1_555
Hf1_0 Hf4_0 3.173192 1_555
Hf1_0 Hf4_6 3.173192 1_555
Hf1_0 Hf1_4 3.186636 1_555
Hf1_0 Hf1_2 3.186636 1_555
Hf1_0 Hf1_2 3.186636 1_545
Hf1_0 Hf1_4 3.186636 1_455
Hf1_1 Hf3_1 3.107180 1_555
Hf1_1 Hf3_5 3.107180 1_555
Hf1_1 Hf3_7 3.107180 1_555
Hf1_1 Hf3_3 3.107180 1_555
Hf1_1 Hf4_1 3.173192 1_555
Hf1_1 Hf4_5 3.173192 1_555
Hf1_1 Hf4_3 3.173192 1_555
Hf1_1 Hf4_7 3.173192 1_555
Hf1_1 Hf1_3 3.186636 1_545
Hf1_1 Hf1_5 3.186636 1_455
Hf1_1 Hf1_5 3.186636 1_555
Hf1_1 Hf1_3 3.186636 1_555
Hf1_2 Hf3_2 3.107180 1_555
Hf1_2 Hf3_6 3.107180 1_555
Hf1_2 Hf3_0 3.107180 1_565
Hf1_2 Hf3_4 3.107180 1_565
Hf1_2 Hf4_2 3.173192 1_555
Hf1_2 Hf4_0 3.173192 1_565
Hf1_2 Hf4_4 3.173192 1_565
Hf1_2 Hf4_6 3.173192 1_555
Hf1_2 Hf1_6 3.186636 1_455
Hf1_2 Hf1_6 3.186636 1_555
Hf1_3 Hf3_1 3.107180 1_565
Hf1_3 Hf3_5 3.107180 1_565
Hf1_3 Hf3_7 3.107180 1_555
Hf1_3 Hf3_3 3.107180 1_555
Hf1_3 Hf4_1 3.173192 1_565
Hf1_3 Hf4_5 3.173192 1_565
Hf1_3 Hf4_3 3.173192 1_555
Hf1_3 Hf4_7 3.173192 1_555
Hf1_3 Hf1_7 3.186636 1_455
Hf1_3 Hf1_7 3.186636 1_555
Hf1_4 Hf3_2 3.107180 1_655
Hf1_4 Hf3_6 3.107180 1_555
Hf1_4 Hf3_4 3.107180 1_555
Hf1_4 Hf3_0 3.107180 1_655
Hf1_4 Hf4_4 3.173192 1_555
Hf1_4 Hf4_2 3.173192 1_655
Hf1_4 Hf4_6 3.173192 1_555
Hf1_4 Hf4_0 3.173192 1_655
Hf1_4 Hf1_6 3.186636 1_545
Hf1_4 Hf1_6 3.186636 1_555
Hf1_5 Hf3_5 3.107180 1_555
Hf1_5 Hf3_7 3.107180 1_555
Hf1_5 Hf3_3 3.107180 1_655
Hf1_5 Hf3_1 3.107180 1_655
Hf1_5 Hf4_3 3.173192 1_655
Hf1_5 Hf4_5 3.173192 1_555
Hf1_5 Hf4_1 3.173192 1_655
Hf1_5 Hf4_7 3.173192 1_555
Hf1_5 Hf1_7 3.186636 1_545
Hf1_5 Hf1_7 3.186636 1_555
Hf1_6 Hf3_0 3.107180 1_665
Hf1_6 Hf3_2 3.107180 1_655
Hf1_6 Hf3_6 3.107180 1_555
Hf1_6 Hf3_4 3.107180 1_565
Hf1_6 Hf4_0 3.173192 1_665
Hf1_6 Hf4_4 3.173192 1_565
Hf1_6 Hf4_2 3.173192 1_655
Hf1_6 Hf4_6 3.173192 1_555
Hf1_7 Hf3_5 3.107180 1_565
Hf1_7 Hf3_1 3.107180 1_665
Hf1_7 Hf3_7 3.107180 1_555
Hf1_7 Hf3_3 3.107180 1_655
Hf1_7 Hf4_3 3.173192 1_655
Hf1_7 Hf4_5 3.173192 1_565
Hf1_7 Hf4_1 3.173192 1_665
Hf1_7 Hf4_7 3.173192 1_555
Hf2_0 Hf2_2 3.186636 1_555
Hf2_0 Hf2_4 3.186636 1_555
Hf2_0 Hf2_2 3.186636 1_545
Hf2_0 Hf2_4 3.186636 1_455
Hf2_0 Pb0_4 3.274232 1_455
Hf2_0 Pb0_0 3.274232 1_555
Hf2_0 Pb0_6 3.274232 1_445
Hf2_0 Pb0_2 3.274232 1_545
Hf2_1 Hf2_5 3.186636 1_555
Hf2_1 Hf2_3 3.186636 1_545
Hf2_1 Hf2_5 3.186636 1_455
Hf2_1 Hf2_3 3.186636 1_555
Hf2_1 Pb0_1 3.274232 1_555
Hf2_1 Pb0_7 3.274232 1_445
Hf2_1 Pb0_5 3.274232 1_455
Hf2_1 Pb0_3 3.274232 1_545
Hf2_2 Hf2_6 3.186636 1_555
Hf2_2 Hf2_6 3.186636 1_455
Hf2_2 Pb0_4 3.274232 1_455
Hf2_2 Pb0_6 3.274232 1_455
Hf2_2 Pb0_2 3.274232 1_555
Hf2_2 Pb0_0 3.274232 1_555
Hf2_3 Hf2_7 3.186636 1_555
Hf2_3 Hf2_7 3.186636 1_455
Hf2_3 Pb0_1 3.274232 1_555
Hf2_3 Pb0_5 3.274232 1_455
Hf2_3 Pb0_3 3.274232 1_555
Hf2_3 Pb0_7 3.274232 1_455
Hf2_4 Hf2_6 3.186636 1_555
Hf2_4 Hf2_6 3.186636 1_545
Hf2_4 Pb0_0 3.274232 1_555
Hf2_4 Pb0_2 3.274232 1_545
Hf2_4 Pb0_6 3.274232 1_545
Hf2_4 Pb0_4 3.274232 1_555
Hf2_5 Hf2_7 3.186636 1_555
Hf2_5 Hf2_7 3.186636 1_545
Hf2_5 Pb0_1 3.274232 1_555
Hf2_5 Pb0_7 3.274232 1_545
Hf2_5 Pb0_5 3.274232 1_555
Hf2_5 Pb0_3 3.274232 1_545
Hf2_6 Pb0_2 3.274232 1_555
Hf2_6 Pb0_0 3.274232 1_555
Hf2_6 Pb0_6 3.274232 1_555
Hf2_6 Pb0_4 3.274232 1_555
Hf2_7 Pb0_1 3.274232 1_555
Hf2_7 Pb0_7 3.274232 1_555
Hf2_7 Pb0_5 3.274232 1_555
Hf2_7 Pb0_3 3.274232 1_555
Hf3_0 Hf3_4 3.186636 1_455
Hf3_0 Hf3_2 3.186636 1_545
Hf3_0 Hf3_2 3.186636 1_555
Hf3_0 Hf3_4 3.186636 1_555
Hf3_0 Pb0_7 3.274232 1_445
Hf3_0 Pb0_5 3.274232 1_455
Hf3_0 Pb0_3 3.274232 1_545
Hf3_0 Pb0_1 3.274232 1_555
Hf3_1 Hf3_3 3.186636 1_545
Hf3_1 Hf3_5 3.186636 1_555
Hf3_1 Hf3_5 3.186636 1_455
Hf3_1 Hf3_3 3.186636 1_555
Hf3_1 Pb0_4 3.274232 1_456
Hf3_1 Pb0_2 3.274232 1_546
Hf3_1 Pb0_6 3.274232 1_446
Hf3_1 Pb0_0 3.274232 1_556
Hf3_2 Hf3_6 3.186636 1_455
Hf3_2 Hf3_6 3.186636 1_555
Hf3_2 Pb0_5 3.274232 1_455
Hf3_2 Pb0_3 3.274232 1_555
Hf3_2 Pb0_7 3.274232 1_455
Hf3_2 Pb0_1 3.274232 1_555
Hf3_3 Hf3_7 3.186636 1_555
Hf3_3 Hf3_7 3.186636 1_455
Hf3_3 Pb0_4 3.274232 1_456
Hf3_3 Pb0_2 3.274232 1_556
Hf3_3 Pb0_6 3.274232 1_456
Hf3_3 Pb0_0 3.274232 1_556
Hf3_4 Hf3_6 3.186636 1_545
Hf3_4 Hf3_6 3.186636 1_555
Hf3_4 Pb0_5 3.274232 1_555
Hf3_4 Pb0_3 3.274232 1_545
Hf3_4 Pb0_1 3.274232 1_555
Hf3_4 Pb0_7 3.274232 1_545
Hf3_5 Hf3_7 3.186636 1_555
Hf3_5 Hf3_7 3.186636 1_545
Hf3_5 Pb0_4 3.274232 1_556
Hf3_5 Pb0_2 3.274232 1_546
Hf3_5 Pb0_6 3.274232 1_546
Hf3_5 Pb0_0 3.274232 1_556
Hf3_6 Pb0_5 3.274232 1_555
Hf3_6 Pb0_3 3.274232 1_555
Hf3_6 Pb0_1 3.274232 1_555
Hf3_6 Pb0_7 3.274232 1_555
Hf3_7 Pb0_2 3.274232 1_556
Hf3_7 Pb0_6 3.274232 1_556
Hf3_7 Pb0_4 3.274232 1_556
Hf3_7 Pb0_0 3.274232 1_556
Hf4_0 Hf4_4 3.186636 1_455
Hf4_0 Hf4_4 3.186636 1_555
Hf4_0 Hf4_2 3.186636 1_545
Hf4_0 Hf4_2 3.186636 1_555
Hf4_1 Hf4_3 3.186636 1_545
Hf4_1 Hf4_3 3.186636 1_555
Hf4_1 Hf4_5 3.186636 1_555
Hf4_1 Hf4_5 3.186636 1_455
Hf4_2 Hf4_6 3.186636 1_455
Hf4_2 Hf4_6 3.186636 1_555
Hf4_3 Hf4_7 3.186636 1_555
Hf4_3 Hf4_7 3.186636 1_455
Hf4_4 Hf4_6 3.186636 1_555
Hf4_4 Hf4_6 3.186636 1_545
Hf4_5 Hf4_7 3.186636 1_555
Hf4_5 Hf4_7 3.186636 1_545
Pb0_0 Pb0_4 3.186636 1_455
Pb0_0 Pb0_2 3.186636 1_545
Pb0_0 Pb0_2 3.186636 1_555
Pb0_0 Pb0_4 3.186636 1_555
Pb0_1 Pb0_5 3.186636 1_455
Pb0_1 Pb0_5 3.186636 1_555
Pb0_1 Pb0_3 3.186636 1_545
Pb0_1 Pb0_3 3.186636 1_555
Pb0_2 Pb0_6 3.186636 1_555
Pb0_2 Pb0_6 3.186636 1_455
Pb0_3 Pb0_7 3.186636 1_555
Pb0_3 Pb0_7 3.186636 1_455
Pb0_4 Pb0_6 3.186636 1_545
Pb0_4 Pb0_6 3.186636 1_555
Pb0_5 Pb0_7 3.186636 1_555
Pb0_5 Pb0_7 3.186636 1_545
