# generated using pymatgen
data_CePIr
_symmetry_space_group_name_H-M   'P 1'
_cell_length_a   4.04149166
_cell_length_b   4.04127422
_cell_length_c   7.70182978
_cell_angle_alpha   105.20845743
_cell_angle_beta   105.21085679
_cell_angle_gamma   89.99999952
_symmetry_Int_Tables_number   1
_chemical_formula_structural   CePIr
_chemical_formula_sum   'Ce2 P2 Ir2'
_cell_volume   116.81374704
_cell_formula_units_Z   2
loop_
 _symmetry_equiv_pos_site_id
 _symmetry_equiv_pos_as_xyz
  1  'x, y, z'
loop_
 _atom_site_type_symbol
 _atom_site_label
 _atom_site_symmetry_multiplicity
 _atom_site_fract_x
 _atom_site_fract_y
 _atom_site_fract_z
 _atom_site_occupancy
  Ce  Ce0  1  0.74997892  0.24998422  0.49995784  1
  Ce  Ce1  1  0.99987297  0.99984960  0.99974593  1
  P  P0  1  0.33026608  0.83028742  0.66053415  1
  P  P1  1  0.58024153  0.58008070  0.16048405  1
  Ir  Ir0  1  0.41424782  0.41426069  0.82849563  1
  Ir  Ir1  1  0.16433169  0.66447636  0.32866239  1
loop_
_geom_bond_atom_site_label_1
_geom_bond_atom_site_label_2
_geom_bond_distance
_geom_bond_site_symmetry_2
Ce0 P0 3.079765 1_645
Ce0 P0 3.079770 1_545
Ce0 P0 3.079888 1_655
Ce0 P0 3.079893 1_555
Ce0 Ir0 3.099141 1_555
Ce0 Ir0 3.099142 1_655
Ce0 Ir1 3.108885 1_545
Ce0 Ir1 3.108887 1_645
Ce0 Ir1 3.109574 1_555
Ce0 Ir1 3.109576 1_655
Ce0 P1 3.158311 1_555
Ce0 P1 3.159261 1_545
Ce1 P1 3.079915 1_666
Ce1 P1 3.079918 1_566
Ce1 P1 3.080604 1_656
Ce1 P1 3.080606 1_556
Ce1 Ir1 3.100637 1_656
Ce1 Ir1 3.101612 1_666
Ce1 Ir0 3.109031 1_655
Ce1 Ir0 3.109031 1_555
Ce1 Ir0 3.109176 1_665
Ce1 Ir0 3.109176 1_565
Ce1 P0 3.157412 1_655
Ce1 P0 3.157418 1_555
Ir0 P0 2.350750 1_555
Ir0 P0 2.350757 1_545
Ir0 P1 2.374416 1_556
Ir1 P1 2.351637 1_555
Ir1 P1 2.351644 1_455
Ir1 P0 2.373582 1_555
