# generated using pymatgen
data_SmBiS3
_symmetry_space_group_name_H-M   'P 1'
_cell_length_a   4.04604410
_cell_length_b   10.90302464
_cell_length_c   11.01537037
_cell_angle_alpha   90.00000000
_cell_angle_beta   90.00000000
_cell_angle_gamma   90.00000000
_symmetry_Int_Tables_number   1
_chemical_formula_structural   SmBiS3
_chemical_formula_sum   'Sm4 Bi4 S12'
_cell_volume   485.93335401
_cell_formula_units_Z   4
loop_
 _symmetry_equiv_pos_site_id
 _symmetry_equiv_pos_as_xyz
  1  'x, y, z'
loop_
 _atom_site_type_symbol
 _atom_site_label
 _atom_site_symmetry_multiplicity
 _atom_site_fract_x
 _atom_site_fract_y
 _atom_site_fract_z
 _atom_site_occupancy
  Sm  Sm0  1  0.25000000  0.17164333  0.49005366  1
  Sm  Sm1  1  0.25000000  0.32835667  0.99005366  1
  Sm  Sm2  1  0.75000000  0.82835667  0.50994634  1
  Sm  Sm3  1  0.75000000  0.67164333  0.00994634  1
  Bi  Bi0  1  0.75000000  0.46679824  0.67188777  1
  Bi  Bi1  1  0.75000000  0.03320176  0.17188777  1
  Bi  Bi2  1  0.25000000  0.53320176  0.32811223  1
  Bi  Bi3  1  0.25000000  0.96679824  0.82811223  1
  S  S0  1  0.25000000  0.63472130  0.54685042  1
  S  S1  1  0.25000000  0.86527870  0.04685042  1
  S  S2  1  0.75000000  0.36527870  0.45314958  1
  S  S3  1  0.75000000  0.13472130  0.95314958  1
  S  S4  1  0.75000000  0.06175746  0.61519646  1
  S  S5  1  0.75000000  0.43824254  0.11519646  1
  S  S6  1  0.25000000  0.93824254  0.38480354  1
  S  S7  1  0.25000000  0.56175746  0.88480354  1
  S  S8  1  0.25000000  0.30605745  0.72336046  1
  S  S9  1  0.25000000  0.19394255  0.22336046  1
  S  S10  1  0.75000000  0.69394255  0.27663954  1
  S  S11  1  0.75000000  0.80605745  0.77663954  1
loop_
_geom_bond_atom_site_label_1
_geom_bond_atom_site_label_2
_geom_bond_distance
_geom_bond_site_symmetry_2
Bi0 S2 2.651559 1_555
Bi0 S8 2.735976 1_555
Bi0 S8 2.735976 1_655
Bi0 S0 3.056427 1_555
Bi0 S0 3.056427 1_655
Bi1 S3 2.651559 1_554
Bi1 S9 2.735976 1_555
Bi1 S9 2.735976 1_655
Bi1 S1 3.056427 1_645
Bi1 S1 3.056427 1_545
Bi2 S0 2.651559 1_555
Bi2 S10 2.735976 1_455
Bi2 S10 2.735976 1_555
Bi2 S2 3.056427 1_555
Bi2 S2 3.056427 1_455
Bi3 S1 2.651559 1_556
Bi3 S11 2.735976 1_455
Bi3 S11 2.735976 1_555
Bi3 S3 3.056427 1_565
Bi3 S3 3.056427 1_465
S0 Sm2 2.952132 1_455
S0 Sm2 2.952132 1_555
S1 Sm3 2.952132 1_555
S1 Sm3 2.952132 1_455
S2 Sm0 2.952132 1_555
S2 Sm0 2.952132 1_655
S3 Sm1 2.952132 1_555
S3 Sm1 2.952132 1_655
S4 Sm0 2.725487 1_655
S4 Sm0 2.725487 1_555
S4 Sm2 2.796429 1_545
S5 Sm1 2.725487 1_654
S5 Sm1 2.725487 1_554
S5 Sm3 2.796429 1_555
S6 Sm2 2.725487 1_555
S6 Sm2 2.725487 1_455
S6 Sm0 2.796429 1_565
S7 Sm3 2.725487 1_556
S7 Sm3 2.725487 1_456
S7 Sm1 2.796429 1_555
S8 Sm1 2.947768 1_555
S8 Sm0 2.958454 1_555
S9 Sm0 2.947768 1_555
S9 Sm1 2.958454 1_554
S10 Sm3 2.947768 1_555
S10 Sm2 2.958454 1_555
S11 Sm2 2.947768 1_555
S11 Sm3 2.958454 1_556
