# generated using pymatgen
data_Mg30NiBiO32
_symmetry_space_group_name_H-M   'P 1'
_cell_length_a   8.62575900
_cell_length_b   8.62575900
_cell_length_c   8.59708700
_cell_angle_alpha   90.00000000
_cell_angle_beta   90.00000000
_cell_angle_gamma   90.00000000
_symmetry_Int_Tables_number   1
_chemical_formula_structural   Mg30NiBiO32
_chemical_formula_sum   'Mg30 Ni1 Bi1 O32'
_cell_volume   639.65523957
_cell_formula_units_Z   1
loop_
 _symmetry_equiv_pos_site_id
 _symmetry_equiv_pos_as_xyz
  1  'x, y, z'
loop_
 _atom_site_type_symbol
 _atom_site_label
 _atom_site_symmetry_multiplicity
 _atom_site_fract_x
 _atom_site_fract_y
 _atom_site_fract_z
 _atom_site_occupancy
  Mg  Mg0  1  0.50000000  0.00000000  0.00000000  1
  Mg  Mg1  1  0.50000000  0.00000000  0.50000000  1
  Mg  Mg2  1  0.00000000  0.50000000  0.00000000  1
  Mg  Mg3  1  0.00000000  0.50000000  0.50000000  1
  Mg  Mg4  1  0.50000000  0.50000000  0.00000000  1
  Mg  Mg5  1  0.50000000  0.50000000  0.50000000  1
  Mg  Mg6  1  0.25519300  0.00000000  0.23916900  1
  Mg  Mg7  1  0.25519300  0.00000000  0.76083100  1
  Mg  Mg8  1  0.74480700  0.00000000  0.23916900  1
  Mg  Mg9  1  0.74480700  0.00000000  0.76083100  1
  Mg  Mg10  1  0.25035600  0.50000000  0.24780000  1
  Mg  Mg11  1  0.25035600  0.50000000  0.75220000  1
  Mg  Mg12  1  0.74964400  0.50000000  0.24780000  1
  Mg  Mg13  1  0.74964400  0.50000000  0.75220000  1
  Mg  Mg14  1  0.00000000  0.25519300  0.23916900  1
  Mg  Mg15  1  0.00000000  0.25519300  0.76083100  1
  Mg  Mg16  1  0.50000000  0.25035600  0.24780000  1
  Mg  Mg17  1  0.50000000  0.25035600  0.75220000  1
  Mg  Mg18  1  0.00000000  0.74480700  0.23916900  1
  Mg  Mg19  1  0.00000000  0.74480700  0.76083100  1
  Mg  Mg20  1  0.50000000  0.74964400  0.24780000  1
  Mg  Mg21  1  0.50000000  0.74964400  0.75220000  1
  Mg  Mg22  1  0.24824400  0.24824400  0.00000000  1
  Mg  Mg23  1  0.25694800  0.25694800  0.50000000  1
  Mg  Mg24  1  0.75175600  0.24824400  0.00000000  1
  Mg  Mg25  1  0.74305200  0.25694800  0.50000000  1
  Mg  Mg26  1  0.24824400  0.75175600  0.00000000  1
  Mg  Mg27  1  0.25694800  0.74305200  0.50000000  1
  Mg  Mg28  1  0.75175600  0.75175600  0.00000000  1
  Mg  Mg29  1  0.74305200  0.74305200  0.50000000  1
  Ni  Ni0  1  0.00000000  0.00000000  0.00000000  1
  Bi  Bi0  1  0.00000000  0.00000000  0.50000000  1
  O  O0  1  0.00000000  0.26737200  0.00000000  1
  O  O1  1  0.00000000  0.26673100  0.50000000  1
  O  O2  1  0.50000000  0.25285800  0.00000000  1
  O  O3  1  0.50000000  0.25288500  0.50000000  1
  O  O4  1  0.00000000  0.73262800  0.00000000  1
  O  O5  1  0.00000000  0.73326900  0.50000000  1
  O  O6  1  0.50000000  0.74714200  0.00000000  1
  O  O7  1  0.50000000  0.74711500  0.50000000  1
  O  O8  1  0.24906100  0.24906100  0.25102600  1
  O  O9  1  0.24906100  0.24906100  0.74897400  1
  O  O10  1  0.75093900  0.24906100  0.25102600  1
  O  O11  1  0.75093900  0.24906100  0.74897400  1
  O  O12  1  0.24906100  0.75093900  0.25102600  1
  O  O13  1  0.24906100  0.75093900  0.74897400  1
  O  O14  1  0.75093900  0.75093900  0.25102600  1
  O  O15  1  0.75093900  0.75093900  0.74897400  1
  O  O16  1  0.00000000  0.00000000  0.23669300  1
  O  O17  1  0.00000000  0.00000000  0.76330700  1
  O  O18  1  0.50000000  0.00000000  0.25066800  1
  O  O19  1  0.50000000  0.00000000  0.74933200  1
  O  O20  1  0.00000000  0.50000000  0.25066800  1
  O  O21  1  0.00000000  0.50000000  0.74933200  1
  O  O22  1  0.50000000  0.50000000  0.25056100  1
  O  O23  1  0.50000000  0.50000000  0.74943900  1
  O  O24  1  0.26737200  0.00000000  0.00000000  1
  O  O25  1  0.26673100  0.00000000  0.50000000  1
  O  O26  1  0.73262800  0.00000000  0.00000000  1
  O  O27  1  0.73326900  0.00000000  0.50000000  1
  O  O28  1  0.25285800  0.50000000  0.00000000  1
  O  O29  1  0.25288500  0.50000000  0.50000000  1
  O  O30  1  0.74714200  0.50000000  0.00000000  1
  O  O31  1  0.74711500  0.50000000  0.50000000  1
loop_
_geom_bond_atom_site_label_1
_geom_bond_atom_site_label_2
_geom_bond_distance
_geom_bond_site_symmetry_2
Mg0 O26 2.006593 1_555
Mg0 O24 2.006593 1_555
Mg0 O19 2.155015 1_554
Mg0 O18 2.155015 1_555
Mg0 O6 2.181092 1_545
Mg0 O2 2.181092 1_555
Mg1 O27 2.012122 1_555
Mg1 O25 2.012122 1_555
Mg1 O18 2.143529 1_555
Mg1 O19 2.143529 1_555
Mg1 O7 2.181325 1_545
Mg1 O3 2.181325 1_555
Mg2 O4 2.006593 1_555
Mg2 O0 2.006593 1_555
Mg2 O21 2.155015 1_554
Mg2 O20 2.155015 1_555
Mg2 O28 2.181092 1_555
Mg2 O30 2.181092 1_455
Mg3 O5 2.012122 1_555
Mg3 O1 2.012122 1_555
Mg3 O21 2.143529 1_555
Mg3 O20 2.143529 1_555
Mg3 O31 2.181325 1_455
Mg3 O29 2.181325 1_555
Mg4 O30 2.131787 1_555
Mg4 O2 2.131787 1_555
Mg4 O28 2.131787 1_555
Mg4 O6 2.131787 1_555
Mg4 O22 2.154095 1_555
Mg4 O23 2.154095 1_554
Mg5 O29 2.131554 1_555
Mg5 O7 2.131554 1_555
Mg5 O31 2.131554 1_555
Mg5 O3 2.131554 1_555
Mg5 O23 2.144449 1_555
Mg5 O22 2.144449 1_555
Mg6 O24 2.058839 1_555
Mg6 O18 2.113959 1_555
Mg6 O12 2.151407 1_545
Mg6 O8 2.151407 1_555
Mg6 O16 2.201336 1_555
Mg6 O25 2.244594 1_555
Mg7 O24 2.058839 1_556
Mg7 O19 2.113959 1_555
Mg7 O13 2.151407 1_545
Mg7 O9 2.151407 1_555
Mg7 O17 2.201336 1_555
Mg7 O25 2.244594 1_555
Mg8 O26 2.058839 1_555
Mg8 O18 2.113959 1_555
Mg8 O14 2.151407 1_545
Mg8 O10 2.151407 1_555
Mg8 O16 2.201336 1_655
Mg8 O27 2.244594 1_555
Mg9 O26 2.058839 1_556
Mg9 O19 2.113959 1_555
Mg9 O15 2.151407 1_545
Mg9 O11 2.151407 1_555
Mg9 O17 2.201336 1_655
Mg9 O27 2.244594 1_555
Mg10 O28 2.130467 1_555
Mg10 O22 2.153500 1_555
Mg10 O20 2.159651 1_555
Mg10 O12 2.164746 1_555
Mg10 O8 2.164746 1_555
Mg10 O29 2.168295 1_555
Mg11 O28 2.130467 1_556
Mg11 O23 2.153500 1_555
Mg11 O21 2.159651 1_555
Mg11 O13 2.164746 1_555
Mg11 O9 2.164746 1_555
Mg11 O29 2.168295 1_555
Mg12 O30 2.130467 1_555
Mg12 O22 2.153500 1_555
Mg12 O20 2.159651 1_655
Mg12 O10 2.164746 1_555
Mg12 O14 2.164746 1_555
Mg12 O31 2.168295 1_555
Mg13 O30 2.130467 1_556
Mg13 O23 2.153500 1_555
Mg13 O21 2.159651 1_655
Mg13 O15 2.164746 1_555
Mg13 O11 2.164746 1_555
Mg13 O31 2.168295 1_555
Mg14 O0 2.058839 1_555
Mg14 O20 2.113959 1_555
Mg14 O10 2.151407 1_455
Mg14 O8 2.151407 1_555
Mg14 O16 2.201336 1_555
Mg14 O1 2.244594 1_555
Mg15 O0 2.058839 1_556
Mg15 O21 2.113959 1_555
Mg15 O11 2.151407 1_455
Mg15 O9 2.151407 1_555
Mg15 O17 2.201336 1_555
Mg15 O1 2.244594 1_555
Mg16 O2 2.130467 1_555
Mg16 O22 2.153500 1_555
Mg16 O18 2.159651 1_555
Mg16 O8 2.164746 1_555
Mg16 O10 2.164746 1_555
Mg16 O3 2.168295 1_555
Mg17 O2 2.130467 1_556
Mg17 O23 2.153500 1_555
Mg17 O19 2.159651 1_555
Mg17 O11 2.164746 1_555
Mg17 O9 2.164746 1_555
Mg17 O3 2.168295 1_555
Mg18 O4 2.058839 1_555
Mg18 O20 2.113959 1_555
Mg18 O14 2.151407 1_455
Mg18 O12 2.151407 1_555
Mg18 O16 2.201336 1_565
Mg18 O5 2.244594 1_555
Mg19 O4 2.058839 1_556
Mg19 O21 2.113959 1_555
Mg19 O15 2.151407 1_455
Mg19 O13 2.151407 1_555
Mg19 O17 2.201336 1_565
Mg19 O5 2.244594 1_555
Mg20 O6 2.130467 1_555
Mg20 O22 2.153500 1_555
Mg20 O18 2.159651 1_565
Mg20 O12 2.164746 1_555
Mg20 O14 2.164746 1_555
Mg20 O7 2.168295 1_555
Mg21 O6 2.130467 1_556
Mg21 O23 2.153500 1_555
Mg21 O19 2.159651 1_565
Mg21 O15 2.164746 1_555
Mg21 O13 2.164746 1_555
Mg21 O7 2.168295 1_555
Mg22 O0 2.147640 1_555
Mg22 O24 2.147640 1_555
Mg22 O9 2.158115 1_554
Mg22 O8 2.158115 1_555
Mg22 O2 2.171951 1_555
Mg22 O28 2.171951 1_555
Mg23 O29 2.096801 1_555
Mg23 O3 2.096801 1_555
Mg23 O8 2.142612 1_555
Mg23 O9 2.142612 1_555
Mg23 O1 2.217977 1_555
Mg23 O25 2.217977 1_555
Mg24 O26 2.147640 1_555
Mg24 O0 2.147640 1_655
Mg24 O11 2.158115 1_554
Mg24 O10 2.158115 1_555
Mg24 O30 2.171951 1_555
Mg24 O2 2.171951 1_555
Mg25 O31 2.096801 1_555
Mg25 O3 2.096801 1_555
Mg25 O10 2.142612 1_555
Mg25 O11 2.142612 1_555
Mg25 O1 2.217977 1_655
Mg25 O27 2.217977 1_555
Mg26 O4 2.147640 1_555
Mg26 O24 2.147640 1_565
Mg26 O13 2.158115 1_554
Mg26 O12 2.158115 1_555
Mg26 O28 2.171951 1_555
Mg26 O6 2.171951 1_555
Mg27 O7 2.096801 1_555
Mg27 O29 2.096801 1_555
Mg27 O12 2.142612 1_555
Mg27 O13 2.142612 1_555
Mg27 O25 2.217977 1_565
Mg27 O5 2.217977 1_555
Mg28 O26 2.147640 1_565
Mg28 O4 2.147640 1_655
Mg28 O15 2.158115 1_554
Mg28 O14 2.158115 1_555
Mg28 O30 2.171951 1_555
Mg28 O6 2.171951 1_555
Mg29 O31 2.096801 1_555
Mg29 O7 2.096801 1_555
Mg29 O14 2.142612 1_555
Mg29 O15 2.142612 1_555
Mg29 O27 2.217977 1_565
Mg29 O5 2.217977 1_655
Ni0 O16 2.034870 1_555
Ni0 O17 2.034870 1_554
Ni0 O24 2.306286 1_555
Ni0 O0 2.306286 1_555
Ni0 O26 2.306286 1_455
Ni0 O4 2.306286 1_545
Bi0 O17 2.263673 1_555
Bi0 O16 2.263673 1_555
Bi0 O25 2.300757 1_555
Bi0 O1 2.300757 1_555
Bi0 O5 2.300757 1_545
Bi0 O27 2.300757 1_455
