# generated using pymatgen
data_MnCr3Te4
_symmetry_space_group_name_H-M   'P 1'
_cell_length_a   4.14537100
_cell_length_b   6.17283500
_cell_length_c   7.17846602
_cell_angle_alpha   89.99537066
_cell_angle_beta   90.00000000
_cell_angle_gamma   90.00000000
_symmetry_Int_Tables_number   1
_chemical_formula_structural   MnCr3Te4
_chemical_formula_sum   'Mn1 Cr3 Te4'
_cell_volume   183.68754974
_cell_formula_units_Z   1
loop_
 _symmetry_equiv_pos_site_id
 _symmetry_equiv_pos_as_xyz
  1  'x, y, z'
loop_
 _atom_site_type_symbol
 _atom_site_label
 _atom_site_symmetry_multiplicity
 _atom_site_fract_x
 _atom_site_fract_y
 _atom_site_fract_z
 _atom_site_occupancy
  Mn  Mn0  1  0.00000000  0.50000000  0.00000000  1
  Cr  Cr0  1  0.50000000  0.50000000  0.50000000  1
  Cr  Cr1  1  0.00000000  0.00000000  0.00000000  1
  Cr  Cr2  1  0.50000000  0.00000000  0.50000000  1
  Te  Te0  1  0.50000000  0.75466300  0.16813700  1
  Te  Te1  1  0.00000000  0.75119300  0.66516700  1
  Te  Te2  1  0.00000000  0.24880700  0.33483300  1
  Te  Te3  1  0.50000000  0.24533700  0.83186300  1
loop_
_geom_bond_atom_site_label_1
_geom_bond_atom_site_label_2
_geom_bond_distance
_geom_bond_site_symmetry_2
Mn0 Te1 2.860228 1_554
Mn0 Te2 2.860228 1_555
Mn0 Te3 2.867797 1_554
Mn0 Te0 2.867797 1_455
Mn0 Te3 2.867797 1_454
Mn0 Te0 2.867797 1_555
Cr0 Te1 2.847166 1_655
Cr0 Te1 2.847166 1_555
Cr0 Te2 2.847166 1_655
Cr0 Te2 2.847166 1_555
Cr0 Te0 2.854077 1_555
Cr0 Te3 2.854077 1_555
Cr1 Te3 2.836543 1_554
Cr1 Te3 2.836543 1_454
Cr1 Te0 2.836543 1_545
Cr1 Te0 2.836543 1_445
Cr1 Te1 2.852481 1_544
Cr1 Te2 2.852481 1_555
Cr2 Te0 2.822988 1_545
Cr2 Te3 2.822988 1_555
Cr2 Te1 2.839068 1_545
Cr2 Te1 2.839068 1_645
Cr2 Te2 2.839068 1_555
Cr2 Te2 2.839068 1_655
