# generated using pymatgen
data_HfMg6BO7
_symmetry_space_group_name_H-M   'P 1'
_cell_length_a   10.24968366
_cell_length_b   4.17639756
_cell_length_c   4.17639756
_cell_angle_alpha   90.00000000
_cell_angle_beta   90.00000000
_cell_angle_gamma   90.00000000
_symmetry_Int_Tables_number   1
_chemical_formula_structural   HfMg6BO7
_chemical_formula_sum   'Hf1 Mg6 B1 O7'
_cell_volume   178.77802224
_cell_formula_units_Z   1
loop_
 _symmetry_equiv_pos_site_id
 _symmetry_equiv_pos_as_xyz
  1  'x, y, z'
loop_
 _atom_site_type_symbol
 _atom_site_label
 _atom_site_symmetry_multiplicity
 _atom_site_fract_x
 _atom_site_fract_y
 _atom_site_fract_z
 _atom_site_occupancy
  Hf  Hf0  1  0.50238411  0.00000000  -0.00000000  1
  Mg  Mg0  1  0.97588164  0.50000000  0.50000000  1
  Mg  Mg1  1  0.55272527  0.50000000  0.50000000  1
  Mg  Mg2  1  0.19167579  0.00000000  0.50000000  1
  Mg  Mg3  1  0.76970934  -0.00000000  0.50000000  1
  Mg  Mg4  1  0.19167579  0.50000000  -0.00000000  1
  Mg  Mg5  1  0.76970934  0.50000000  0.00000000  1
  B  B0  1  0.01870020  0.00000000  -0.00000000  1
  O  O0  1  0.30979592  0.00000000  -0.00000000  1
  O  O1  1  0.71923043  0.00000000  -0.00000000  1
  O  O2  1  0.75163778  0.50000000  0.50000000  1
  O  O3  1  0.96869532  -0.00000000  0.50000000  1
  O  O4  1  0.52974187  0.00000000  0.50000000  1
  O  O5  1  0.96869532  0.50000000  0.00000000  1
  O  O6  1  0.52974187  0.50000000  -0.00000000  1
loop_
_geom_bond_atom_site_label_1
_geom_bond_atom_site_label_2
_geom_bond_distance
_geom_bond_site_symmetry_2
Hf0 O0 1.973968 1_555
Hf0 O6 2.106942 1_555
Hf0 O4 2.106942 1_555
Hf0 O4 2.106942 1_554
Hf0 O6 2.106942 1_545
Hf0 O1 2.222606 1_555
Mg0 O5 2.089497 1_555
Mg0 O3 2.089497 1_555
Mg0 O3 2.089497 1_565
Mg0 O5 2.089497 1_556
Mg0 O2 2.298429 1_555
Mg1 O2 2.038790 1_555
Mg1 O6 2.101444 1_556
Mg1 O6 2.101444 1_555
Mg1 O4 2.101444 1_555
Mg1 O4 2.101444 1_565
Mg2 O3 2.285479 1_455
Mg2 O0 2.413784 1_555
Mg2 O0 2.413784 1_556
Mg3 O3 2.039543 1_555
Mg3 O2 2.096398 1_555
Mg3 O2 2.096398 1_545
Mg3 O1 2.151341 1_555
Mg3 O1 2.151341 1_556
Mg3 O4 2.459591 1_555
Mg4 O5 2.285479 1_455
Mg4 O0 2.413784 1_555
Mg4 O0 2.413784 1_565
Mg5 O5 2.039543 1_555
Mg5 O2 2.096398 1_554
Mg5 O2 2.096398 1_555
Mg5 O1 2.151341 1_555
Mg5 O1 2.151341 1_565
Mg5 O6 2.459591 1_555
B0 O5 2.150178 1_455
B0 O5 2.150178 1_445
B0 O3 2.150178 1_454
B0 O3 2.150178 1_455
