# generated using pymatgen
data_Li4MnCo2O7
_symmetry_space_group_name_H-M   'P 1'
_cell_length_a   5.92035300
_cell_length_b   6.54484095
_cell_length_c   7.73337629
_cell_angle_alpha   104.06153417
_cell_angle_beta   111.62953665
_cell_angle_gamma   104.08921831
_symmetry_Int_Tables_number   1
_chemical_formula_structural   Li4MnCo2O7
_chemical_formula_sum   'Li8 Mn2 Co4 O14'
_cell_volume   251.10654039
_cell_formula_units_Z   2
loop_
 _symmetry_equiv_pos_site_id
 _symmetry_equiv_pos_as_xyz
  1  'x, y, z'
loop_
 _atom_site_type_symbol
 _atom_site_label
 _atom_site_symmetry_multiplicity
 _atom_site_fract_x
 _atom_site_fract_y
 _atom_site_fract_z
 _atom_site_occupancy
  Li  Li0  1  0.63469700  0.14291000  0.70955300  1
  Li  Li1  1  0.79985100  0.28746500  0.43898900  1
  Li  Li2  1  0.35772500  0.85379800  0.28753400  1
  Li  Li3  1  0.49660100  0.00079000  0.99369200  1
  Li  Li4  1  0.06977200  0.56705000  0.85183100  1
  Li  Li5  1  0.21532200  0.72507000  0.57464800  1
  Li  Li6  1  0.92566800  0.42703700  0.14253300  1
  Li  Li7  1  0.14724600  0.14239100  0.71563900  1
  Mn  Mn0  1  0.00042000  0.00177500  0.99796100  1
  Mn  Mn1  1  0.42573200  0.42355300  0.13954200  1
  Co  Co0  1  0.28340900  0.28078100  0.43493900  1
  Co  Co1  1  0.55340500  0.56113300  0.84900400  1
  Co  Co2  1  0.72449000  0.71840900  0.57667100  1
  Co  Co3  1  0.85594100  0.86011100  0.29161600  1
  O  O0  1  0.05885100  0.27896300  0.94572000  1
  O  O1  1  0.20277700  0.44477800  0.64807400  1
  O  O2  1  0.75082200  0.97714100  0.48773100  1
  O  O3  1  0.90711100  0.13225400  0.20818700  1
  O  O4  1  0.46493100  0.69288400  0.07597600  1
  O  O5  1  0.63747000  0.86784000  0.79879100  1
  O  O6  1  0.33441300  0.55038300  0.35064000  1
  O  O7  1  0.24462000  0.01006500  0.48904600  1
  O  O8  1  0.36994900  0.14786400  0.19720900  1
  O  O9  1  0.94670400  0.73483900  0.06963300  1
  O  O10  1  0.09002200  0.86196500  0.79654500  1
  O  O11  1  0.67216500  0.43702000  0.63919600  1
  O  O12  1  0.79468300  0.56472000  0.34506400  1
  O  O13  1  0.53520300  0.30701200  0.94403600  1
loop_
_geom_bond_atom_site_label_1
_geom_bond_atom_site_label_2
_geom_bond_distance
_geom_bond_site_symmetry_2
Li0 O5 2.080221 1_545
Li0 O7 2.096644 1_555
Li0 O11 2.107254 1_555
Li0 O2 2.218255 1_545
Li0 O13 2.222111 1_555
Li0 O0 2.274733 1_655
Li1 O11 2.100801 1_555
Li1 O12 2.114802 1_555
Li1 O1 2.125260 1_655
Li1 O2 2.125331 1_545
Li1 O3 2.211229 1_555
Li1 O8 2.310441 1_555
Li2 O7 2.061831 1_565
Li2 O2 2.070405 1_555
Li2 O4 2.107689 1_555
Li2 O6 2.141907 1_555
Li2 O9 2.187302 1_455
Li2 O8 2.195457 1_565
Li3 O5 2.089778 1_545
Li3 O13 2.105252 1_555
Li3 O8 2.109763 1_556
Li3 O10 2.121478 1_545
Li3 O3 2.171379 1_556
Li3 O4 2.242367 1_546
Li4 O10 2.061278 1_555
Li4 O1 2.086181 1_555
Li4 O11 2.111985 1_455
Li4 O4 2.129505 1_556
Li4 O0 2.174147 1_555
Li4 O9 2.229190 1_456
Li5 O1 2.040624 1_555
Li5 O7 2.115328 1_565
Li5 O10 2.193780 1_555
Li5 O5 2.237476 1_555
Li5 O12 2.240086 1_455
Li5 O6 2.266210 1_555
Li6 O13 2.057007 1_554
Li6 O3 2.099049 1_555
Li6 O12 2.101501 1_555
Li6 O0 2.101782 1_654
Li6 O6 2.155050 1_655
Li6 O9 2.207509 1_555
Li7 O10 2.070333 1_545
Li7 O0 2.092874 1_555
Li7 O7 2.098427 1_555
Li7 O13 2.106122 1_555
Li7 O2 2.138411 1_445
Li7 O1 2.147133 1_555
Mn0 O10 1.922960 1_545
Mn0 O0 1.930715 1_555
Mn0 O5 1.935208 1_445
Mn0 O9 1.946928 1_446
Mn0 O8 1.963470 1_556
Mn0 O3 1.973486 1_456
Mn1 O13 1.921043 1_554
Mn1 O4 1.925804 1_555
Mn1 O0 1.941639 1_554
Mn1 O8 1.942437 1_555
Mn1 O6 1.963938 1_555
Mn1 O12 1.973705 1_555
Co0 O7 1.897384 1_555
Co0 O1 2.016560 1_555
Co0 O6 2.018495 1_555
Co0 O3 2.054366 1_455
Co0 O11 2.055994 1_555
Co0 O8 2.129184 1_555
Co1 O1 1.892347 1_555
Co1 O13 1.970524 1_555
Co1 O4 2.064234 1_556
Co1 O11 2.065283 1_555
Co1 O5 2.112530 1_555
Co1 O9 2.113099 1_556
Co2 O2 1.970110 1_555
Co2 O10 1.994564 1_655
Co2 O11 1.996698 1_555
Co2 O5 2.062500 1_555
Co2 O12 2.066229 1_555
Co2 O6 2.109881 1_555
Co3 O2 1.907241 1_555
Co3 O9 2.029419 1_555
Co3 O3 2.029846 1_565
Co3 O7 2.042482 1_665
Co3 O12 2.048761 1_555
Co3 O4 2.090773 1_555
