# generated using pymatgen
data_ReIr3
_symmetry_space_group_name_H-M   'P 1'
_cell_length_a   18.27364651
_cell_length_b   18.27364651
_cell_length_c   18.27364629
_cell_angle_alpha   17.26966713
_cell_angle_beta   17.26966713
_cell_angle_gamma   17.26966560
_symmetry_Int_Tables_number   1
_chemical_formula_structural   ReIr3
_chemical_formula_sum   'Re8 Ir24'
_cell_volume   469.25847553
_cell_formula_units_Z   8
loop_
 _symmetry_equiv_pos_site_id
 _symmetry_equiv_pos_as_xyz
  1  'x, y, z'
loop_
 _atom_site_type_symbol
 _atom_site_label
 _atom_site_symmetry_multiplicity
 _atom_site_fract_x
 _atom_site_fract_y
 _atom_site_fract_z
 _atom_site_occupancy
  Re  Re0_0  1  0.00000000  0.00000000  0.00000000  1
  Re  Re0_1  1  0.00000000  0.00000000  0.50000000  1
  Re  Re0_2  1  0.00000000  0.50000000  0.00000000  1
  Re  Re0_3  1  0.00000000  0.50000000  0.50000000  1
  Re  Re0_4  1  0.50000000  0.00000000  0.00000000  1
  Re  Re0_5  1  0.50000000  0.00000000  0.50000000  1
  Re  Re0_6  1  0.50000000  0.50000000  0.00000000  1
  Re  Re0_7  1  0.50000000  0.50000000  0.50000000  1
  Ir  Ir0_0  1  0.12561200  0.12561200  0.12561200  1
  Ir  Ir0_1  1  0.12561200  0.12561200  0.62561200  1
  Ir  Ir0_2  1  0.12561200  0.62561200  0.12561200  1
  Ir  Ir0_3  1  0.12561200  0.62561200  0.62561200  1
  Ir  Ir0_4  1  0.62561200  0.12561200  0.12561200  1
  Ir  Ir0_5  1  0.62561200  0.12561200  0.62561200  1
  Ir  Ir0_6  1  0.62561200  0.62561200  0.12561200  1
  Ir  Ir0_7  1  0.62561200  0.62561200  0.62561200  1
  Ir  Ir1_0  1  0.25000000  0.25000000  0.25000000  1
  Ir  Ir1_1  1  0.25000000  0.25000000  0.75000000  1
  Ir  Ir1_2  1  0.25000000  0.75000000  0.25000000  1
  Ir  Ir1_3  1  0.25000000  0.75000000  0.75000000  1
  Ir  Ir1_4  1  0.75000000  0.25000000  0.25000000  1
  Ir  Ir1_5  1  0.75000000  0.25000000  0.75000000  1
  Ir  Ir1_6  1  0.75000000  0.75000000  0.25000000  1
  Ir  Ir1_7  1  0.75000000  0.75000000  0.75000000  1
  Ir  Ir2_0  1  0.37438800  0.37438800  0.37438800  1
  Ir  Ir2_1  1  0.37438800  0.37438800  0.87438800  1
  Ir  Ir2_2  1  0.37438800  0.87438800  0.37438800  1
  Ir  Ir2_3  1  0.37438800  0.87438800  0.87438800  1
  Ir  Ir2_4  1  0.87438800  0.37438800  0.37438800  1
  Ir  Ir2_5  1  0.87438800  0.37438800  0.87438800  1
  Ir  Ir2_6  1  0.87438800  0.87438800  0.37438800  1
  Ir  Ir2_7  1  0.87438800  0.87438800  0.87438800  1
loop_
_geom_bond_atom_site_label_1
_geom_bond_atom_site_label_2
_geom_bond_distance
_geom_bond_site_symmetry_2
Re0_0 Re0_6 2.743540 1_455
Re0_0 Re0_6 2.743540 1_545
Re0_0 Re0_5 2.743540 1_554
Re0_0 Re0_5 2.743540 1_455
Re0_0 Re0_3 2.743540 1_545
Re0_0 Re0_3 2.743540 1_554
Re0_1 Re0_7 2.743540 1_545
Re0_1 Re0_7 2.743540 1_455
Re0_1 Re0_2 2.743540 1_555
Re0_1 Re0_4 2.743540 1_555
Re0_1 Re0_4 2.743540 1_456
Re0_1 Re0_2 2.743540 1_546
Re0_2 Re0_4 2.743540 1_555
Re0_2 Re0_4 2.743540 1_465
Re0_2 Re0_7 2.743540 1_554
Re0_2 Re0_7 2.743540 1_455
Re0_3 Re0_5 2.743540 1_555
Re0_3 Re0_5 2.743540 1_465
Re0_3 Re0_6 2.743540 1_555
Re0_3 Re0_6 2.743540 1_456
Re0_4 Re0_7 2.743540 1_545
Re0_4 Re0_7 2.743540 1_554
Re0_5 Re0_6 2.743540 1_555
Re0_5 Re0_6 2.743540 1_546
Ir0_0 Re0_1 2.724374 1_555
Ir0_0 Re0_2 2.724374 1_555
Ir0_0 Re0_4 2.724374 1_555
Ir0_0 Ir0_6 2.743540 1_455
Ir0_0 Ir0_6 2.743540 1_545
Ir0_0 Ir0_3 2.743540 1_545
Ir0_0 Ir0_5 2.743540 1_554
Ir0_0 Ir0_5 2.743540 1_455
Ir0_0 Ir0_3 2.743540 1_554
Ir0_0 Ir1_1 2.778407 1_554
Ir0_0 Ir1_4 2.778407 1_455
Ir0_0 Ir1_2 2.778407 1_545
Ir0_1 Re0_0 2.724374 1_556
Ir0_1 Re0_5 2.724374 1_555
Ir0_1 Re0_3 2.724374 1_555
Ir0_1 Ir0_7 2.743540 1_455
Ir0_1 Ir0_7 2.743540 1_545
Ir0_1 Ir0_2 2.743540 1_546
Ir0_1 Ir0_2 2.743540 1_555
Ir0_1 Ir0_4 2.743540 1_456
Ir0_1 Ir0_4 2.743540 1_555
Ir0_1 Ir1_0 2.778407 1_555
Ir0_1 Ir1_3 2.778407 1_545
Ir0_1 Ir1_5 2.778407 1_455
Ir0_2 Re0_3 2.724374 1_555
Ir0_2 Re0_0 2.724374 1_565
Ir0_2 Re0_6 2.724374 1_555
Ir0_2 Ir0_4 2.743540 1_555
Ir0_2 Ir0_4 2.743540 1_465
Ir0_2 Ir0_7 2.743540 1_455
Ir0_2 Ir0_7 2.743540 1_554
Ir0_2 Ir1_3 2.778407 1_554
Ir0_2 Ir1_6 2.778407 1_455
Ir0_2 Ir1_0 2.778407 1_555
Ir0_3 Re0_2 2.724374 1_556
Ir0_3 Re0_7 2.724374 1_555
Ir0_3 Re0_1 2.724374 1_565
Ir0_3 Ir0_5 2.743540 1_465
Ir0_3 Ir0_5 2.743540 1_555
Ir0_3 Ir0_6 2.743540 1_555
Ir0_3 Ir0_6 2.743540 1_456
Ir0_3 Ir1_2 2.778407 1_555
Ir0_3 Ir1_1 2.778407 1_555
Ir0_3 Ir1_7 2.778407 1_455
Ir0_4 Re0_5 2.724374 1_555
Ir0_4 Re0_6 2.724374 1_555
Ir0_4 Re0_0 2.724374 1_655
Ir0_4 Ir0_7 2.743540 1_545
Ir0_4 Ir0_7 2.743540 1_554
Ir0_4 Ir1_5 2.778407 1_554
Ir0_4 Ir1_6 2.778407 1_545
Ir0_4 Ir1_0 2.778407 1_555
Ir0_5 Re0_4 2.724374 1_556
Ir0_5 Re0_1 2.724374 1_655
Ir0_5 Re0_7 2.724374 1_555
Ir0_5 Ir0_6 2.743540 1_555
Ir0_5 Ir0_6 2.743540 1_546
Ir0_5 Ir1_4 2.778407 1_555
Ir0_5 Ir1_1 2.778407 1_555
Ir0_5 Ir1_7 2.778407 1_545
Ir0_6 Re0_7 2.724374 1_555
Ir0_6 Re0_4 2.724374 1_565
Ir0_6 Re0_2 2.724374 1_655
Ir0_6 Ir1_7 2.778407 1_554
Ir0_6 Ir1_2 2.778407 1_555
Ir0_6 Ir1_4 2.778407 1_555
Ir0_7 Re0_6 2.724374 1_556
Ir0_7 Re0_5 2.724374 1_565
Ir0_7 Re0_3 2.724374 1_655
Ir0_7 Ir1_6 2.778407 1_555
Ir0_7 Ir1_5 2.778407 1_555
Ir0_7 Ir1_3 2.778407 1_555
Ir1_0 Ir1_6 2.743540 1_455
Ir1_0 Ir1_6 2.743540 1_545
Ir1_0 Ir1_5 2.743540 1_554
Ir1_0 Ir1_3 2.743540 1_554
Ir1_0 Ir1_3 2.743540 1_545
Ir1_0 Ir1_5 2.743540 1_455
Ir1_0 Ir2_1 2.778407 1_554
Ir1_0 Ir2_4 2.778407 1_455
Ir1_0 Ir2_2 2.778407 1_545
Ir1_1 Ir1_7 2.743540 1_545
Ir1_1 Ir1_7 2.743540 1_455
Ir1_1 Ir1_2 2.743540 1_546
Ir1_1 Ir1_4 2.743540 1_456
Ir1_1 Ir1_2 2.743540 1_555
Ir1_1 Ir1_4 2.743540 1_555
Ir1_1 Ir2_0 2.778407 1_555
Ir1_1 Ir2_5 2.778407 1_455
Ir1_1 Ir2_3 2.778407 1_545
Ir1_2 Ir1_4 2.743540 1_465
Ir1_2 Ir1_4 2.743540 1_555
Ir1_2 Ir1_7 2.743540 1_554
Ir1_2 Ir1_7 2.743540 1_455
Ir1_2 Ir2_3 2.778407 1_554
Ir1_2 Ir2_0 2.778407 1_555
Ir1_2 Ir2_6 2.778407 1_455
Ir1_3 Ir1_5 2.743540 1_555
Ir1_3 Ir1_5 2.743540 1_465
Ir1_3 Ir1_6 2.743540 1_456
Ir1_3 Ir1_6 2.743540 1_555
Ir1_3 Ir2_2 2.778407 1_555
Ir1_3 Ir2_7 2.778407 1_455
Ir1_3 Ir2_1 2.778407 1_555
Ir1_4 Ir1_7 2.743540 1_554
Ir1_4 Ir1_7 2.743540 1_545
Ir1_4 Ir2_5 2.778407 1_554
Ir1_4 Ir2_0 2.778407 1_555
Ir1_4 Ir2_6 2.778407 1_545
Ir1_5 Ir1_6 2.743540 1_546
Ir1_5 Ir1_6 2.743540 1_555
Ir1_5 Ir2_4 2.778407 1_555
Ir1_5 Ir2_7 2.778407 1_545
Ir1_5 Ir2_1 2.778407 1_555
Ir1_6 Ir2_7 2.778407 1_554
Ir1_6 Ir2_4 2.778407 1_555
Ir1_6 Ir2_2 2.778407 1_555
Ir1_7 Ir2_6 2.778407 1_555
Ir1_7 Ir2_3 2.778407 1_555
Ir1_7 Ir2_5 2.778407 1_555
Ir2_0 Re0_6 2.724374 1_555
Ir2_0 Re0_5 2.724374 1_555
Ir2_0 Re0_3 2.724374 1_555
Ir2_0 Ir2_6 2.743540 1_455
Ir2_0 Ir2_6 2.743540 1_545
Ir2_0 Ir2_3 2.743540 1_545
Ir2_0 Ir2_5 2.743540 1_455
Ir2_0 Ir2_5 2.743540 1_554
Ir2_0 Ir2_3 2.743540 1_554
Ir2_1 Re0_7 2.724374 1_555
Ir2_1 Re0_4 2.724374 1_556
Ir2_1 Re0_2 2.724374 1_556
Ir2_1 Ir2_7 2.743540 1_455
Ir2_1 Ir2_7 2.743540 1_545
Ir2_1 Ir2_2 2.743540 1_555
Ir2_1 Ir2_4 2.743540 1_456
Ir2_1 Ir2_4 2.743540 1_555
Ir2_1 Ir2_2 2.743540 1_546
Ir2_2 Re0_4 2.724374 1_565
Ir2_2 Re0_1 2.724374 1_565
Ir2_2 Re0_7 2.724374 1_555
Ir2_2 Ir2_4 2.743540 1_555
Ir2_2 Ir2_4 2.743540 1_465
Ir2_2 Ir2_7 2.743540 1_554
Ir2_2 Ir2_7 2.743540 1_455
Ir2_3 Re0_5 2.724374 1_565
Ir2_3 Re0_6 2.724374 1_556
Ir2_3 Re0_0 2.724374 1_566
Ir2_3 Ir2_5 2.743540 1_555
Ir2_3 Ir2_5 2.743540 1_465
Ir2_3 Ir2_6 2.743540 1_555
Ir2_3 Ir2_6 2.743540 1_456
Ir2_4 Re0_2 2.724374 1_655
Ir2_4 Re0_1 2.724374 1_655
Ir2_4 Re0_7 2.724374 1_555
Ir2_4 Ir2_7 2.743540 1_554
Ir2_4 Ir2_7 2.743540 1_545
Ir2_5 Re0_3 2.724374 1_655
Ir2_5 Re0_0 2.724374 1_656
Ir2_5 Re0_6 2.724374 1_556
Ir2_5 Ir2_6 2.743540 1_555
Ir2_5 Ir2_6 2.743540 1_546
Ir2_6 Re0_0 2.724374 1_665
Ir2_6 Re0_3 2.724374 1_655
Ir2_6 Re0_5 2.724374 1_565
Ir2_7 Re0_1 2.724374 1_665
Ir2_7 Re0_2 2.724374 1_656
Ir2_7 Re0_4 2.724374 1_566
