# generated using pymatgen
data_ZnHg3Se3Br2
_symmetry_space_group_name_H-M   'P 1'
_cell_length_a   7.67336100
_cell_length_b   9.66980043
_cell_length_c   9.94116714
_cell_angle_alpha   108.74173674
_cell_angle_beta   107.21706207
_cell_angle_gamma   102.32555483
_symmetry_Int_Tables_number   1
_chemical_formula_structural   ZnHg3Se3Br2
_chemical_formula_sum   'Zn2 Hg6 Se6 Br4'
_cell_volume   627.19760653
_cell_formula_units_Z   2
loop_
 _symmetry_equiv_pos_site_id
 _symmetry_equiv_pos_as_xyz
  1  'x, y, z'
loop_
 _atom_site_type_symbol
 _atom_site_label
 _atom_site_symmetry_multiplicity
 _atom_site_fract_x
 _atom_site_fract_y
 _atom_site_fract_z
 _atom_site_occupancy
  Zn  Zn0  1  0.41196900  0.31600500  0.36122400  1
  Zn  Zn1  1  0.58803100  0.68399500  0.63877600  1
  Hg  Hg0  1  0.00000000  0.00000000  0.50000000  1
  Hg  Hg1  1  0.00000000  0.50000000  0.50000000  1
  Hg  Hg2  1  0.00000000  0.50000000  0.00000000  1
  Hg  Hg3  1  0.50000000  0.00000000  0.50000000  1
  Hg  Hg4  1  0.50000000  0.50000000  0.00000000  1
  Hg  Hg5  1  0.50000000  0.00000000  0.00000000  1
  Se  Se0  1  0.27287100  0.53503200  0.40561600  1
  Se  Se1  1  0.21238300  0.05374000  0.35198000  1
  Se  Se2  1  0.34941300  0.20478600  0.08458400  1
  Se  Se3  1  0.72712900  0.46496800  0.59438400  1
  Se  Se4  1  0.78761700  0.94626000  0.64802000  1
  Se  Se5  1  0.65058700  0.79521400  0.91541600  1
  Br  Br0  1  0.29732800  0.72948000  0.10772800  1
  Br  Br1  1  0.70267200  0.27052000  0.89227200  1
  Br  Br2  1  0.18254000  0.35777100  0.75374800  1
  Br  Br3  1  0.81746000  0.64222900  0.24625200  1
loop_
_geom_bond_atom_site_label_1
_geom_bond_atom_site_label_2
_geom_bond_distance
_geom_bond_site_symmetry_2
Hg0 Se1 2.576950 1_555
Hg0 Se4 2.576950 1_445
Hg1 Se0 2.538454 1_555
Hg1 Se3 2.538454 1_455
Hg3 Se4 2.522823 1_545
Hg3 Se1 2.522823 1_555
Hg5 Se5 2.538834 1_544
Hg5 Se2 2.538834 1_555
Se0 Zn1 2.518880 1_555
Se0 Zn0 2.542248 1_555
Se1 Zn0 2.625684 1_555
Se2 Zn0 2.459214 1_555
Se3 Zn0 2.518880 1_555
Se3 Zn1 2.542248 1_555
Se4 Zn1 2.625684 1_555
Se5 Zn1 2.459214 1_555
Br0 Hg2 2.478158 1_555
Br0 Hg4 3.069483 1_555
Br1 Hg2 2.478158 1_656
Br1 Hg4 3.069483 1_556
Br2 Hg4 2.587332 1_556
Br2 Hg0 3.244282 1_555
Br3 Hg4 2.587332 1_555
Br3 Hg0 3.244282 1_665
