# generated using pymatgen
data_Li7Mn5O12
_symmetry_space_group_name_H-M   'P 1'
_cell_length_a   6.91327186
_cell_length_b   7.76852516
_cell_length_c   8.59955015
_cell_angle_alpha   78.97343210
_cell_angle_beta   102.01478464
_cell_angle_gamma   87.73000063
_symmetry_Int_Tables_number   1
_chemical_formula_structural   Li7Mn5O12
_chemical_formula_sum   'Li14 Mn10 O24'
_cell_volume   441.87008777
_cell_formula_units_Z   2
loop_
 _symmetry_equiv_pos_site_id
 _symmetry_equiv_pos_as_xyz
  1  'x, y, z'
loop_
 _atom_site_type_symbol
 _atom_site_label
 _atom_site_symmetry_multiplicity
 _atom_site_fract_x
 _atom_site_fract_y
 _atom_site_fract_z
 _atom_site_occupancy
  Li  Li0  1  0.25000600  0.25001500  0.16669500  1
  Li  Li1  1  0.74998100  0.75000900  0.16665500  1
  Li  Li2  1  0.36344100  0.87236600  0.91860900  1
  Li  Li3  1  0.86335200  0.37242600  0.91849900  1
  Li  Li4  1  0.63660300  0.12761400  0.41471400  1
  Li  Li5  1  0.13653700  0.62762900  0.41463000  1
  Li  Li6  1  0.63874500  0.11381900  0.08833200  1
  Li  Li7  1  0.13875600  0.61380300  0.08830600  1
  Li  Li8  1  0.36126600  0.88613900  0.24494900  1
  Li  Li9  1  0.86126600  0.38618000  0.24494000  1
  Li  Li10  1  0.62768400  0.12011400  0.75077200  1
  Li  Li11  1  0.12759500  0.62004800  0.75079700  1
  Li  Li12  1  0.37242000  0.87991100  0.58249800  1
  Li  Li13  1  0.87232100  0.37990900  0.58252700  1
  Mn  Mn0  1  0.49998100  0.50004900  0.66668800  1
  Mn  Mn1  1  0.00041600  0.99973600  0.00104400  1
  Mn  Mn2  1  0.99966600  0.00020100  0.33233300  1
  Mn  Mn3  1  0.24969400  0.24985500  0.49700900  1
  Mn  Mn4  1  0.75020100  0.75006000  0.83650800  1
  Mn  Mn5  1  0.99993600  0.00000400  0.66664800  1
  Mn  Mn6  1  0.50039100  0.49979000  0.00102500  1
  Mn  Mn7  1  0.49947900  0.50028000  0.33230000  1
  Mn  Mn8  1  0.74980500  0.74992400  0.49672600  1
  Mn  Mn9  1  0.25027600  0.25002300  0.83649800  1
  O  O0  1  0.56303800  0.33005100  0.87437500  1
  O  O1  1  0.06308500  0.82989700  0.87456000  1
  O  O2  1  0.43689800  0.67010800  0.45878700  1
  O  O3  1  0.93701700  0.17001900  0.45898100  1
  O  O4  1  0.27964100  0.06313000  0.02935800  1
  O  O5  1  0.77961400  0.56312300  0.02932200  1
  O  O6  1  0.72040300  0.93692600  0.30393400  1
  O  O7  1  0.22035800  0.43680200  0.30405300  1
  O  O8  1  0.31199800  0.07957700  0.70611800  1
  O  O9  1  0.81186800  0.57970700  0.70593200  1
  O  O10  1  0.68817700  0.92032300  0.62731900  1
  O  O11  1  0.18808900  0.42032200  0.62738800  1
  O  O12  1  0.56174300  0.32865400  0.53703600  1
  O  O13  1  0.06185700  0.82854100  0.53704300  1
  O  O14  1  0.43815200  0.67150300  0.79632400  1
  O  O15  1  0.93828400  0.17137900  0.79635100  1
  O  O16  1  0.27435400  0.06444500  0.37531800  1
  O  O17  1  0.77433900  0.56440600  0.37519600  1
  O  O18  1  0.72563100  0.93560200  0.95810600  1
  O  O19  1  0.22568500  0.43557300  0.95808300  1
  O  O20  1  0.56340000  0.33413100  0.20587700  1
  O  O21  1  0.06337600  0.83414200  0.20596600  1
  O  O22  1  0.43658400  0.66584900  0.12740900  1
  O  O23  1  0.93659400  0.16589000  0.12746100  1
loop_
_geom_bond_atom_site_label_1
_geom_bond_atom_site_label_2
_geom_bond_distance
_geom_bond_site_symmetry_2
Li0 O19 2.047082 1_554
Li0 O16 2.047177 1_555
Li0 O7 2.067789 1_555
Li0 O4 2.068256 1_555
Li0 O20 2.264299 1_555
Li0 O23 2.264442 1_455
Li1 O17 2.046794 1_555
Li1 O18 2.046809 1_554
Li1 O6 2.068020 1_555
Li1 O5 2.068234 1_555
Li1 O21 2.264358 1_655
Li1 O22 2.264442 1_555
Li2 O4 2.034813 1_566
Li2 O1 2.082921 1_555
Li2 O22 2.123553 1_556
Li2 O14 2.144174 1_555
Li2 O8 2.148418 1_565
Li2 O18 2.536433 1_555
Li3 O5 2.034666 1_556
Li3 O0 2.082474 1_555
Li3 O23 2.124569 1_556
Li3 O15 2.145014 1_555
Li3 O9 2.149162 1_555
Li3 O19 2.537184 1_655
Li4 O6 2.034515 1_545
Li4 O3 2.083202 1_555
Li4 O20 2.123773 1_555
Li4 O12 2.145830 1_555
Li4 O10 2.149401 1_545
Li4 O16 2.536723 1_555
Li5 O7 2.034274 1_555
Li5 O2 2.082977 1_555
Li5 O21 2.122777 1_555
Li5 O13 2.145164 1_555
Li5 O11 2.150365 1_555
Li5 O17 2.536479 1_455
Li6 O6 2.042761 1_545
Li6 O18 2.083029 1_544
Li6 O23 2.084799 1_555
Li6 O0 2.197310 1_554
Li6 O20 2.243370 1_555
Li6 O4 2.491013 1_555
Li7 O7 2.044047 1_555
Li7 O19 2.083198 1_554
Li7 O22 2.084610 1_555
Li7 O1 2.195500 1_554
Li7 O21 2.244255 1_555
Li7 O5 2.491251 1_455
Li8 O4 2.043051 1_565
Li8 O16 2.084510 1_565
Li8 O21 2.084929 1_555
Li8 O2 2.195707 1_555
Li8 O22 2.243143 1_555
Li8 O6 2.491414 1_555
Li9 O5 2.043048 1_555
Li9 O17 2.083375 1_555
Li9 O20 2.084871 1_555
Li9 O3 2.197456 1_555
Li9 O23 2.242825 1_555
Li9 O7 2.490842 1_655
Li10 O18 2.033462 1_545
Li10 O10 2.115341 1_545
Li10 O12 2.159708 1_555
Li10 O15 2.167955 1_555
Li10 O8 2.182062 1_555
Li10 O0 2.189189 1_555
Li11 O19 2.033155 1_555
Li11 O11 2.114669 1_555
Li11 O13 2.159594 1_555
Li11 O14 2.168046 1_555
Li11 O9 2.181998 1_455
Li11 O1 2.189286 1_555
Li12 O16 2.032762 1_565
Li12 O8 2.115391 1_565
Li12 O14 2.159623 1_555
Li12 O13 2.167910 1_555
Li12 O10 2.182320 1_555
Li12 O2 2.188629 1_555
Li13 O17 2.033413 1_555
Li13 O9 2.115028 1_555
Li13 O15 2.160166 1_555
Li13 O12 2.167782 1_555
Li13 O11 2.182394 1_655
Li13 O3 2.188653 1_555
Mn0 O0 1.962638 1_555
Mn0 O2 1.964225 1_555
Mn0 O12 1.979726 1_555
Mn0 O14 1.980120 1_555
Mn0 O9 2.242432 1_555
Mn0 O11 2.242650 1_555
Mn1 O21 1.928454 1_555
Mn1 O23 1.932349 1_465
Mn1 O15 1.950133 1_464
Mn1 O1 1.952307 1_554
Mn1 O18 1.961278 1_454
Mn1 O4 1.988366 1_565
Mn2 O23 1.928500 1_555
Mn2 O21 1.931220 1_645
Mn2 O13 1.950308 1_645
Mn2 O3 1.953171 1_555
Mn2 O16 1.960943 1_655
Mn2 O6 1.988308 1_545
Mn3 O7 1.954080 1_555
Mn3 O16 1.957105 1_555
Mn3 O8 1.972687 1_555
Mn3 O11 1.978454 1_555
Mn3 O12 2.241235 1_555
Mn3 O3 2.248042 1_455
Mn4 O5 1.953144 1_556
Mn4 O18 1.957302 1_555
Mn4 O10 1.973135 1_555
Mn4 O9 1.979157 1_555
Mn4 O14 2.240603 1_555
Mn4 O1 2.249393 1_655
Mn5 O3 1.962571 1_555
Mn5 O1 1.964479 1_645
Mn5 O15 1.979697 1_555
Mn5 O13 1.980173 1_645
Mn5 O10 2.241663 1_545
Mn5 O8 2.243351 1_655
Mn6 O20 1.928256 1_555
Mn6 O22 1.931541 1_555
Mn6 O14 1.950461 1_554
Mn6 O0 1.952705 1_554
Mn6 O19 1.960978 1_554
Mn6 O5 1.988211 1_555
Mn7 O22 1.928159 1_555
Mn7 O20 1.932576 1_555
Mn7 O12 1.950341 1_555
Mn7 O2 1.952071 1_555
Mn7 O17 1.961732 1_555
Mn7 O7 1.987900 1_555
Mn8 O6 1.953314 1_555
Mn8 O17 1.956699 1_555
Mn8 O9 1.973069 1_555
Mn8 O10 1.979458 1_555
Mn8 O13 2.240788 1_655
Mn8 O2 2.249489 1_555
Mn9 O4 1.953252 1_556
Mn9 O19 1.957301 1_555
Mn9 O11 1.972771 1_555
Mn9 O8 1.978583 1_555
Mn9 O15 2.240460 1_455
Mn9 O0 2.249109 1_555
