# generated using pymatgen
data_K2Na6Zn4Si14O45
_symmetry_space_group_name_H-M   'P 1'
_cell_length_a   20.60509759
_cell_length_b   20.60509759
_cell_length_c   7.31330982
_cell_angle_alpha   89.63684154
_cell_angle_beta   89.63684154
_cell_angle_gamma   159.24526940
_symmetry_Int_Tables_number   1
_chemical_formula_structural   K2Na6Zn4Si14O45
_chemical_formula_sum   'K2 Na6 Zn4 Si14 O45'
_cell_volume   1099.63637984
_cell_formula_units_Z   1
loop_
 _symmetry_equiv_pos_site_id
 _symmetry_equiv_pos_as_xyz
  1  'x, y, z'
loop_
 _atom_site_type_symbol
 _atom_site_label
 _atom_site_symmetry_multiplicity
 _atom_site_fract_x
 _atom_site_fract_y
 _atom_site_fract_z
 _atom_site_occupancy
  K  K0  1  0.35471100  0.58554400  0.42643800  1
  K  K1  1  0.58554400  0.35471100  0.42643800  1
  Na  Na0  1  0.11723100  0.11723100  0.21725000  1
  Na  Na1  1  0.14997200  0.14997200  0.80073900  1
  Na  Na2  1  0.25051900  0.75235000  0.82754400  1
  Na  Na3  1  0.75235000  0.25051900  0.82754400  1
  Na  Na4  1  0.10746900  0.84478900  0.57002500  1
  Na  Na5  1  0.84478900  0.10746900  0.57002500  1
  Zn  Zn0  1  0.05494700  0.92755700  0.01073900  1
  Zn  Zn1  1  0.92755700  0.05494700  0.01073900  1
  Zn  Zn2  1  0.43725600  0.07010200  0.66929800  1
  Zn  Zn3  1  0.07010200  0.43725600  0.66929800  1
  Si  Si0  1  0.71868200  0.64231200  0.30889000  1
  Si  Si1  1  0.64231200  0.71868200  0.30889000  1
  Si  Si2  1  0.73515800  0.65797400  0.72395200  1
  Si  Si3  1  0.65797400  0.73515800  0.72395200  1
  Si  Si4  1  0.47744300  0.34802100  0.02255700  1
  Si  Si5  1  0.34802100  0.47744300  0.02255700  1
  Si  Si6  1  0.32700000  0.07001400  0.96529500  1
  Si  Si7  1  0.07001400  0.32700000  0.96529500  1
  Si  Si8  1  0.45060800  0.04831800  0.08746200  1
  Si  Si9  1  0.04831800  0.45060800  0.08746200  1
  Si  Si10  1  0.17677500  0.74486000  0.39593000  1
  Si  Si11  1  0.74486000  0.17677500  0.39593000  1
  Si  Si12  1  0.74562700  0.32351000  0.38342300  1
  Si  Si13  1  0.32351000  0.74562700  0.38342300  1
  O  O0  1  0.61139600  0.61139600  0.31619500  1
  O  O1  1  0.72659000  0.61959800  0.51784800  1
  O  O2  1  0.61959800  0.72659000  0.51784800  1
  O  O3  1  0.92054400  0.83839000  0.21687400  1
  O  O4  1  0.83839000  0.92054400  0.21687400  1
  O  O5  1  0.58189300  0.46315600  0.21120200  1
  O  O6  1  0.46315600  0.58189300  0.21120200  1
  O  O7  1  0.63118100  0.63118100  0.73394900  1
  O  O8  1  0.94596800  0.86113700  0.78700400  1
  O  O9  1  0.86113700  0.94596800  0.78700400  1
  O  O10  1  0.61930400  0.49772400  0.85088200  1
  O  O11  1  0.49772400  0.61930400  0.85088200  1
  O  O12  1  0.27835200  0.19448400  0.00715200  1
  O  O13  1  0.19448400  0.27835200  0.00715200  1
  O  O14  1  0.10955300  0.88622400  0.00091600  1
  O  O15  1  0.88622400  0.10955300  0.00091600  1
  O  O16  1  0.46254900  0.25442200  0.03760200  1
  O  O17  1  0.25442200  0.46254900  0.03760200  1
  O  O18  1  0.38332900  0.06084300  0.09530100  1
  O  O19  1  0.06084300  0.38332900  0.09530100  1
  O  O20  1  0.35946600  0.08551900  0.74896400  1
  O  O21  1  0.08551900  0.35946600  0.74896400  1
  O  O22  1  0.47033900  0.03892400  0.87947100  1
  O  O23  1  0.03892400  0.47033900  0.87947100  1
  O  O24  1  0.29640000  0.86077200  0.20117300  1
  O  O25  1  0.86077200  0.29640000  0.20117300  1
  O  O26  1  0.65078600  0.22887900  0.18215700  1
  O  O27  1  0.22887900  0.65078600  0.18215700  1
  O  O28  1  0.21425800  0.83657500  0.53953100  1
  O  O29  1  0.83657500  0.21425800  0.53953100  1
  O  O30  1  0.65093700  0.28891100  0.51234200  1
  O  O31  1  0.28891100  0.65093700  0.51234200  1
  O  O32  1  0.96226300  0.54139600  0.33975300  1
  O  O33  1  0.54139600  0.96226300  0.33975300  1
  O  O34  1  0.23389100  0.72700300  0.48894400  1
  O  O35  1  0.72700300  0.23389100  0.48894400  1
  O  O36  1  0.14041400  0.04778300  0.54006800  1
  O  O37  1  0.04778300  0.14041400  0.54006800  1
  O  O38  1  0.93039200  0.54055700  0.86667600  1
  O  O39  1  0.54055700  0.93039200  0.86667600  1
  O  O40  1  0.88234600  0.55250800  0.84555000  1
  O  O41  1  0.55250800  0.88234600  0.84555000  1
  O  O42  1  0.98269500  0.75173400  0.28232700  1
  O  O43  1  0.75173400  0.98269500  0.28232700  1
  O  O44  1  0.22446600  0.22446600  0.49949400  1
loop_
_geom_bond_atom_site_label_1
_geom_bond_atom_site_label_2
_geom_bond_distance
_geom_bond_site_symmetry_2
K0 O31 2.732224 1_555
K0 O6 2.783485 1_555
K0 O2 3.014632 1_555
K0 O17 3.025055 1_555
K0 O21 3.066142 1_555
K0 O43 3.095296 1_555
K1 O30 2.732224 1_555
K1 O5 2.783485 1_555
K1 O1 3.014632 1_555
K1 O16 3.025055 1_555
K1 O20 3.066142 1_555
K1 O42 3.095296 1_555
Na0 O44 2.238294 1_555
Na0 O3 2.426529 1_445
Na0 O4 2.426529 1_445
Na0 O13 2.436687 1_555
Na0 O12 2.436687 1_555
Na1 O44 2.252487 1_555
Na1 O12 2.376594 1_556
Na1 O13 2.376594 1_556
Na1 O9 2.515011 1_445
Na1 O8 2.515011 1_445
Na1 O36 2.717854 1_555
Na1 O37 2.717854 1_555
Na2 O23 2.342782 1_555
Na2 O22 2.357465 1_565
Na2 O34 2.492919 1_555
Na2 O39 2.878860 1_555
Na2 O38 2.959915 1_455
Na3 O22 2.342782 1_555
Na3 O23 2.357465 1_655
Na3 O35 2.492919 1_555
Na3 O38 2.878860 1_555
Na3 O39 2.959915 1_545
Na4 O20 2.297312 1_565
Na4 O28 2.368731 1_555
Na4 O42 2.369303 1_455
Na4 O40 3.054276 1_455
Na5 O21 2.297312 1_655
Na5 O29 2.368731 1_555
Na5 O43 2.369303 1_545
Na5 O41 3.054276 1_545
O0 Si0 1.630935 1_555
O0 Si1 1.630935 1_555
O1 Si2 1.638841 1_555
O1 Si0 1.648524 1_555
O2 Si3 1.638841 1_555
O2 Si1 1.648524 1_555
O3 Si0 1.605667 1_555
O3 Zn0 1.927120 1_655
O4 Si1 1.605667 1_555
O4 Zn1 1.927120 1_565
O5 Si0 1.637638 1_555
O5 Si4 1.641227 1_555
O6 Si1 1.637638 1_555
O6 Si5 1.641227 1_555
O7 Si3 1.638805 1_555
O7 Si2 1.638805 1_555
O8 Si2 1.627072 1_555
O8 Zn0 1.979932 1_656
O9 Si3 1.627072 1_555
O9 Zn1 1.979932 1_566
O10 Si2 1.629302 1_555
O10 Si4 1.636170 1_556
O11 Si3 1.629302 1_555
O11 Si5 1.636170 1_556
O12 Si4 1.608893 1_555
O12 Zn0 2.021769 1_545
O13 Si5 1.608893 1_555
O13 Zn1 2.021769 1_455
O14 Si6 1.650372 1_564
O14 Zn0 1.946383 1_555
O15 Si7 1.650372 1_654
O15 Zn1 1.946383 1_555
O16 Si6 1.647653 1_554
O16 Si4 1.647967 1_555
O17 Si7 1.647653 1_554
O17 Si5 1.647967 1_555
O18 Si8 1.630945 1_555
O18 Si6 1.645821 1_554
O19 Si9 1.630945 1_555
O19 Si7 1.645821 1_554
O20 Si6 1.622677 1_555
O20 Zn2 1.988050 1_555
O21 Si7 1.622677 1_555
O21 Zn3 1.988050 1_555
O22 Si8 1.630822 1_556
O22 Zn2 2.014878 1_555
O23 Si9 1.630822 1_556
O23 Zn3 2.014878 1_555
O24 Si8 1.637950 1_565
O24 Si10 1.646506 1_555
O25 Si9 1.637950 1_655
O25 Si11 1.646506 1_555
O26 Si8 1.644252 1_555
O26 Si12 1.653472 1_555
O27 Si9 1.644252 1_555
O27 Si13 1.653472 1_555
O28 Si10 1.605148 1_555
O28 Zn2 1.982547 1_565
O29 Si11 1.605148 1_555
O29 Zn3 1.982547 1_655
O30 Si12 1.603341 1_555
O30 Zn2 1.943066 1_555
O31 Si13 1.603341 1_555
O31 Zn3 1.943066 1_555
O32 Si12 1.633229 1_555
O32 Si10 1.634170 1_655
O33 Si13 1.633229 1_555
O33 Si11 1.634170 1_565
O34 Si10 1.673316 1_555
O34 Si13 1.675005 1_555
O35 Si11 1.673316 1_555
O35 Si12 1.675005 1_555
O38 O40 1.233688 1_555
O39 O41 1.233688 1_555
