# generated using pymatgen
data_Ca(CoO2)2
_symmetry_space_group_name_H-M   'P 1'
_cell_length_a   6.30762685
_cell_length_b   6.30762685
_cell_length_c   6.30762685
_cell_angle_alpha   125.47992776
_cell_angle_beta   125.47992776
_cell_angle_gamma   80.74460927
_symmetry_Int_Tables_number   1
_chemical_formula_structural   Ca(CoO2)2
_chemical_formula_sum   'Ca2 Co4 O8'
_cell_volume   160.44103288
_cell_formula_units_Z   2
loop_
 _symmetry_equiv_pos_site_id
 _symmetry_equiv_pos_as_xyz
  1  'x, y, z'
loop_
 _atom_site_type_symbol
 _atom_site_label
 _atom_site_symmetry_multiplicity
 _atom_site_fract_x
 _atom_site_fract_y
 _atom_site_fract_z
 _atom_site_occupancy
  Ca  Ca0  1  0.25000000  0.75000000  0.50000000  1
  Ca  Ca1  1  0.50000000  0.50000000  0.00000000  1
  Co  Co0  1  0.87500000  0.12500000  0.25000000  1
  Co  Co1  1  0.87500000  0.62500000  0.75000000  1
  Co  Co2  1  0.87500000  0.12500000  0.75000000  1
  Co  Co3  1  0.37500000  0.12500000  0.25000000  1
  O  O0  1  0.83576200  0.92327100  0.36318100  1
  O  O1  1  0.52741900  0.16423800  0.08750900  1
  O  O2  1  0.07672900  0.43991000  0.91249100  1
  O  O3  1  0.18991000  0.77741900  0.86318100  1
  O  O4  1  0.67327100  0.81009000  0.58750900  1
  O  O5  1  0.22258100  0.08576200  0.41249100  1
  O  O6  1  0.56009000  0.47258100  0.63681900  1
  O  O7  1  0.91423800  0.32672900  0.13681900  1
loop_
_geom_bond_atom_site_label_1
_geom_bond_atom_site_label_2
_geom_bond_distance
_geom_bond_site_symmetry_2
Ca0 O5 2.438915 1_565
Ca0 O4 2.438915 1_555
Ca0 O7 2.438915 1_455
Ca0 O3 2.438915 1_555
Ca0 O2 2.514963 1_554
Ca0 O0 2.514963 1_455
Ca0 O6 2.514963 1_555
Ca0 O1 2.514963 1_566
Ca1 O6 2.438915 1_554
Ca1 O1 2.438915 1_555
Ca1 O0 2.438915 1_555
Ca1 O2 2.438915 1_554
Ca1 O4 2.514963 1_555
Ca1 O3 2.514963 1_554
Ca1 O7 2.514963 1_555
Ca1 O5 2.514963 1_554
Co0 O5 1.851986 1_655
Co0 O1 1.851986 1_555
Co0 O7 1.884383 1_555
Co0 O0 1.884383 1_545
Co1 O2 1.851986 1_655
Co1 O4 1.851986 1_555
Co1 O3 1.884383 1_655
Co1 O6 1.884383 1_555
Co2 O0 1.851986 1_545
Co2 O7 1.851986 1_556
Co2 O4 1.884383 1_545
Co2 O2 1.884383 1_655
Co3 O6 1.851986 1_555
Co3 O3 1.851986 1_544
Co3 O1 1.884383 1_555
Co3 O5 1.884383 1_555
