# generated using pymatgen
data_La2Cu2O5
_symmetry_space_group_name_H-M   'P 1'
_cell_length_a   7.22140170
_cell_length_b   7.22140170
_cell_length_c   27.57131721
_cell_angle_alpha   77.59428805
_cell_angle_beta   77.59428805
_cell_angle_gamma   30.27767121
_symmetry_Int_Tables_number   1
_chemical_formula_structural   La2Cu2O5
_chemical_formula_sum   'La12 Cu12 O30'
_cell_volume   706.74804121
_cell_formula_units_Z   6
loop_
 _symmetry_equiv_pos_site_id
 _symmetry_equiv_pos_as_xyz
  1  'x, y, z'
loop_
 _atom_site_type_symbol
 _atom_site_label
 _atom_site_symmetry_multiplicity
 _atom_site_fract_x
 _atom_site_fract_y
 _atom_site_fract_z
 _atom_site_occupancy
  La  La0  1  0.88164500  0.36765100  0.59723800  1
  La  La1  1  0.86681700  0.44055200  0.86538800  1
  La  La2  1  0.11835500  0.63234900  0.40276200  1
  La  La3  1  0.59326800  0.12980100  0.76861500  1
  La  La4  1  0.40673200  0.87019900  0.23138500  1
  La  La5  1  0.12980100  0.59326800  0.26861500  1
  La  La6  1  0.44055200  0.86681700  0.36538800  1
  La  La7  1  0.55944800  0.13318300  0.63461200  1
  La  La8  1  0.63234900  0.11835500  0.90276200  1
  La  La9  1  0.36765100  0.88164500  0.09723800  1
  La  La10  1  0.13318300  0.55944800  0.13461200  1
  La  La11  1  0.87019900  0.40673200  0.73138500  1
  Cu  Cu0  1  0.06817700  0.29963000  0.97121600  1
  Cu  Cu1  1  0.26972400  0.75519800  0.96018300  1
  Cu  Cu2  1  0.73027600  0.24480200  0.03981700  1
  Cu  Cu3  1  0.93182300  0.70037000  0.02878400  1
  Cu  Cu4  1  0.24480200  0.73027600  0.53981700  1
  Cu  Cu5  1  0.75519800  0.26972400  0.46018300  1
  Cu  Cu6  1  0.70037000  0.93182300  0.52878400  1
  Cu  Cu7  1  0.77273200  0.24122100  0.31906200  1
  Cu  Cu8  1  0.22726800  0.75877900  0.68093800  1
  Cu  Cu9  1  0.24122100  0.77273200  0.81906200  1
  Cu  Cu10  1  0.75877900  0.22726800  0.18093800  1
  Cu  Cu11  1  0.29963000  0.06817700  0.47121600  1
  O  O0  1  0.25875500  0.72563200  0.18100100  1
  O  O1  1  0.76656100  0.23343900  0.25000000  1
  O  O2  1  0.96754600  0.40762100  0.29111200  1
  O  O3  1  0.27436800  0.74124500  0.31899900  1
  O  O4  1  0.23343900  0.76656100  0.75000000  1
  O  O5  1  0.60149700  0.99159700  0.08739200  1
  O  O6  1  0.03344400  0.62232100  0.83741900  1
  O  O7  1  0.00840300  0.39850300  0.41260800  1
  O  O8  1  0.37767900  0.96655600  0.66258100  1
  O  O9  1  0.10243400  0.55668000  0.96094400  1
  O  O10  1  0.25730700  0.76743800  0.88905500  1
  O  O11  1  0.99159700  0.60149700  0.58739200  1
  O  O12  1  0.28731900  0.79767800  0.46405000  1
  O  O13  1  0.79767800  0.28731900  0.96405000  1
  O  O14  1  0.72563200  0.25875500  0.68100100  1
  O  O15  1  0.44332000  0.89756600  0.53905600  1
  O  O16  1  0.23256200  0.74269300  0.61094500  1
  O  O17  1  0.71268100  0.20232200  0.53595000  1
  O  O18  1  0.62232100  0.03344400  0.33741900  1
  O  O19  1  0.74124500  0.27436800  0.81899900  1
  O  O20  1  0.55668000  0.10243400  0.46094400  1
  O  O21  1  0.20232200  0.71268100  0.03595000  1
  O  O22  1  0.76743800  0.25730700  0.38905500  1
  O  O23  1  0.74269300  0.23256200  0.11094500  1
  O  O24  1  0.40762100  0.96754600  0.79111200  1
  O  O25  1  0.03245400  0.59237900  0.70888800  1
  O  O26  1  0.89756600  0.44332000  0.03905600  1
  O  O27  1  0.59237900  0.03245400  0.20888800  1
  O  O28  1  0.39850300  0.00840300  0.91260800  1
  O  O29  1  0.96655600  0.37767900  0.16258100  1
loop_
_geom_bond_atom_site_label_1
_geom_bond_atom_site_label_2
_geom_bond_distance
_geom_bond_site_symmetry_2
La0 O11 2.362652 1_555
La0 O15 2.420634 1_555
La0 O15 2.512233 1_645
La0 O14 2.617869 1_555
La0 O16 2.618752 1_645
La0 O8 2.660269 1_645
La0 O16 2.683484 1_555
La0 O8 2.922426 1_555
La0 O17 3.168342 1_555
La1 O6 2.379064 1_655
La1 O28 2.425416 1_655
La1 O28 2.529261 1_565
La1 O10 2.617939 1_555
La1 O19 2.633585 1_555
La1 O24 2.728660 1_555
La1 O24 2.764427 1_645
La1 O10 2.785408 1_645
La1 O13 2.819718 1_555
La2 O7 2.362652 1_555
La2 O20 2.420634 1_555
La2 O20 2.512233 1_465
La2 O3 2.617869 1_555
La2 O22 2.618752 1_465
La2 O18 2.660269 1_465
La2 O22 2.683484 1_555
La2 O18 2.922426 1_555
La2 O12 3.168342 1_555
La3 O24 2.366111 1_545
La3 O6 2.572309 1_645
La3 O25 2.659878 1_645
La3 O4 2.661105 1_555
La3 O4 2.670208 1_645
La3 O14 2.682330 1_555
La3 O19 2.710962 1_555
La3 O6 2.713203 1_555
La3 O25 2.721718 1_555
La4 O27 2.366111 1_565
La4 O29 2.572309 1_465
La4 O2 2.659878 1_465
La4 O1 2.661105 1_555
La4 O1 2.670208 1_465
La4 O3 2.682330 1_555
La4 O0 2.710962 1_555
La4 O29 2.713203 1_555
La4 O2 2.721718 1_555
La5 O2 2.366111 1_455
La5 O18 2.572309 1_465
La5 O27 2.659878 1_465
La5 O1 2.661105 1_555
La5 O1 2.670208 1_465
La5 O0 2.682330 1_555
La5 O3 2.710962 1_555
La5 O18 2.713203 1_555
La5 O27 2.721718 1_555
La6 O18 2.379064 1_565
La6 O7 2.425416 1_565
La6 O7 2.529261 1_655
La6 O22 2.617939 1_555
La6 O3 2.633585 1_555
La6 O2 2.728660 1_555
La6 O2 2.764427 1_465
La6 O22 2.785408 1_465
La6 O12 2.819718 1_555
La7 O8 2.379064 1_545
La7 O11 2.425416 1_545
La7 O11 2.529261 1_455
La7 O16 2.617939 1_555
La7 O14 2.633585 1_555
La7 O25 2.728660 1_555
La7 O25 2.764427 1_645
La7 O16 2.785408 1_645
La7 O17 2.819718 1_555
La8 O28 2.362652 1_555
La8 O9 2.420634 1_555
La8 O9 2.512233 1_645
La8 O19 2.617869 1_555
La8 O10 2.618752 1_645
La8 O6 2.660269 1_645
La8 O10 2.683484 1_555
La8 O6 2.922426 1_555
La8 O13 3.168342 1_555
La9 O5 2.362652 1_555
La9 O26 2.420634 1_555
La9 O26 2.512233 1_465
La9 O0 2.617869 1_555
La9 O23 2.618752 1_465
La9 O29 2.660269 1_465
La9 O23 2.683484 1_555
La9 O29 2.922426 1_555
La9 O21 3.168342 1_555
La10 O29 2.379064 1_455
La10 O5 2.425416 1_455
La10 O5 2.529261 1_545
La10 O23 2.617939 1_555
La10 O0 2.633585 1_555
La10 O27 2.728660 1_555
La10 O27 2.764427 1_465
La10 O23 2.785408 1_465
La10 O21 2.819718 1_555
La11 O25 2.366111 1_655
La11 O8 2.572309 1_645
La11 O24 2.659878 1_645
La11 O4 2.661105 1_555
La11 O4 2.670208 1_645
La11 O19 2.682330 1_555
La11 O14 2.710962 1_555
La11 O8 2.713203 1_555
La11 O24 2.721718 1_555
Cu0 O26 1.931028 1_456
Cu0 O28 1.965567 1_555
Cu0 O9 2.030829 1_555
Cu0 O13 2.082296 1_455
Cu1 O13 1.932297 1_555
Cu1 O13 1.947577 1_465
Cu1 O10 1.961919 1_555
Cu1 O21 2.059306 1_556
Cu1 O9 2.546064 1_555
Cu2 O21 1.932297 1_555
Cu2 O21 1.947577 1_645
Cu2 O23 1.961919 1_555
Cu2 O13 2.059306 1_554
Cu2 O26 2.546064 1_555
Cu3 O9 1.931028 1_654
Cu3 O5 1.965567 1_555
Cu3 O26 2.030829 1_555
Cu3 O21 2.082296 1_655
Cu4 O17 1.932297 1_555
Cu4 O17 1.947577 1_465
Cu4 O16 1.961919 1_555
Cu4 O12 2.059306 1_555
Cu4 O15 2.546064 1_555
Cu5 O12 1.932297 1_555
Cu5 O12 1.947577 1_645
Cu5 O22 1.961919 1_555
Cu5 O17 2.059306 1_555
Cu5 O20 2.546064 1_555
Cu6 O20 1.931028 1_565
Cu6 O11 1.965567 1_555
Cu6 O15 2.030829 1_555
Cu6 O17 2.082296 1_565
Cu7 O3 1.882927 1_555
Cu7 O3 1.889007 1_645
Cu7 O1 1.928112 1_555
Cu7 O22 1.948340 1_555
Cu7 O18 2.437139 1_555
Cu7 O2 2.464365 1_555
Cu8 O14 1.882927 1_555
Cu8 O14 1.889007 1_465
Cu8 O4 1.928112 1_555
Cu8 O16 1.948340 1_555
Cu8 O8 2.437139 1_555
Cu8 O25 2.464365 1_555
Cu9 O19 1.882927 1_555
Cu9 O19 1.889007 1_465
Cu9 O4 1.928112 1_555
Cu9 O10 1.948340 1_555
Cu9 O6 2.437139 1_555
Cu9 O24 2.464365 1_555
Cu10 O0 1.882927 1_555
Cu10 O0 1.889007 1_645
Cu10 O1 1.928112 1_555
Cu10 O23 1.948340 1_555
Cu10 O29 2.437139 1_555
Cu10 O27 2.464365 1_555
Cu11 O15 1.931028 1_545
Cu11 O7 1.965567 1_555
Cu11 O20 2.030829 1_555
Cu11 O12 2.082296 1_545
