# generated using pymatgen
data_BaAlCuBiO5
_symmetry_space_group_name_H-M   'P 1'
_cell_length_a   3.73819000
_cell_length_b   3.73819000
_cell_length_c   9.37159800
_cell_angle_alpha   90.00000000
_cell_angle_beta   90.00000000
_cell_angle_gamma   90.00000000
_symmetry_Int_Tables_number   1
_chemical_formula_structural   BaAlCuBiO5
_chemical_formula_sum   'Ba1 Al1 Cu1 Bi1 O5'
_cell_volume   130.95931470
_cell_formula_units_Z   1
loop_
 _symmetry_equiv_pos_site_id
 _symmetry_equiv_pos_as_xyz
  1  'x, y, z'
loop_
 _atom_site_type_symbol
 _atom_site_label
 _atom_site_symmetry_multiplicity
 _atom_site_fract_x
 _atom_site_fract_y
 _atom_site_fract_z
 _atom_site_occupancy
  Ba  Ba0  1  0.00000000  0.00000000  0.05533400  1
  Al  Al0  1  0.00000000  0.00000000  0.44205800  1
  Cu  Cu0  1  0.50000000  0.50000000  0.27880400  1
  Bi  Bi0  1  0.50000000  0.50000000  0.69746100  1
  O  O0  1  0.00000000  0.50000000  0.56596800  1
  O  O1  1  0.50000000  0.00000000  0.56596800  1
  O  O2  1  0.00000000  0.50000000  0.30625600  1
  O  O3  1  0.50000000  0.00000000  0.30625600  1
  O  O4  1  0.50000000  0.50000000  0.96982100  1
loop_
_geom_bond_atom_site_label_1
_geom_bond_atom_site_label_2
_geom_bond_distance
_geom_bond_site_symmetry_2
Ba0 O4 2.762112 1_554
Ba0 O4 2.762112 1_454
Ba0 O4 2.762112 1_444
Ba0 O4 2.762112 1_544
Ba0 O2 3.003874 1_545
Ba0 O3 3.003874 1_455
Ba0 O3 3.003874 1_555
Ba0 O2 3.003874 1_555
Al0 O0 2.200450 1_555
Al0 O1 2.200450 1_555
Al0 O1 2.200450 1_455
Al0 O0 2.200450 1_545
Al0 O3 2.261246 1_555
Al0 O3 2.261246 1_455
Al0 O2 2.261246 1_545
Al0 O2 2.261246 1_555
Cu0 O3 1.886718 1_565
Cu0 O3 1.886718 1_555
Cu0 O2 1.886718 1_555
Cu0 O2 1.886718 1_655
Bi0 O0 2.238767 1_655
Bi0 O1 2.238767 1_555
Bi0 O0 2.238767 1_555
Bi0 O1 2.238767 1_565
Bi0 O4 2.552448 1_555
