# generated using pymatgen
data_Sr4MgMn2Ga2O11
_symmetry_space_group_name_H-M   'P 1'
_cell_length_a   5.61449856
_cell_length_b   5.62613597
_cell_length_c   9.16082814
_cell_angle_alpha   72.56307147
_cell_angle_beta   73.44040409
_cell_angle_gamma   88.61727249
_symmetry_Int_Tables_number   1
_chemical_formula_structural   Sr4MgMn2Ga2O11
_chemical_formula_sum   'Sr4 Mg1 Mn2 Ga2 O11'
_cell_volume   264.02901699
_cell_formula_units_Z   1
loop_
 _symmetry_equiv_pos_site_id
 _symmetry_equiv_pos_as_xyz
  1  'x, y, z'
loop_
 _atom_site_type_symbol
 _atom_site_label
 _atom_site_symmetry_multiplicity
 _atom_site_fract_x
 _atom_site_fract_y
 _atom_site_fract_z
 _atom_site_occupancy
  Sr  Sr0  1  0.07651500  0.58222800  0.82247100  1
  Sr  Sr1  1  0.62965200  0.13174200  0.74142900  1
  Sr  Sr2  1  0.42348500  0.91777200  0.17752900  1
  Sr  Sr3  1  0.87034800  0.36825800  0.25857100  1
  Mg  Mg0  1  0.25000000  0.75000000  0.50000000  1
  Mn  Mn0  1  0.25000000  0.25000000  0.50000000  1
  Mn  Mn1  1  0.75000000  0.75000000  0.50000000  1
  Ga  Ga0  1  0.50842200  0.49053100  0.99977400  1
  Ga  Ga1  1  0.99157800  0.00946900  0.00022600  1
  O  O0  1  0.16065100  0.05327900  0.77508400  1
  O  O1  1  0.55468300  0.66310200  0.77175100  1
  O  O2  1  0.33934900  0.44672100  0.22491600  1
  O  O3  1  0.94531700  0.83689800  0.22824900  1
  O  O4  1  0.51668500  0.00527700  0.44398600  1
  O  O5  1  0.98331500  0.49472300  0.55601400  1
  O  O6  1  0.00279600  0.00845400  0.49908200  1
  O  O7  1  0.49720400  0.49154600  0.50091800  1
  O  O8  1  0.75000000  0.25000000  0.00000000  1
  O  O9  1  0.75000000  0.75000000  0.00000000  1
  O  O10  1  0.25000000  0.25000000  0.00000000  1
loop_
_geom_bond_atom_site_label_1
_geom_bond_atom_site_label_2
_geom_bond_distance
_geom_bond_site_symmetry_2
Mg0 O4 1.947333 1_565
Mg0 O5 1.947333 1_455
Mg0 O6 1.985632 1_565
Mg0 O7 1.985632 1_555
Mg0 Sr0 2.701756 1_555
Mg0 Sr2 2.701756 1_555
Mn0 O7 1.969199 1_555
Mn0 O6 1.969199 1_555
Mn0 O4 2.070480 1_555
Mn0 O5 2.070480 1_455
Mn0 O0 2.337021 1_555
Mn0 O2 2.337021 1_555
Mn1 O5 1.972989 1_555
Mn1 O4 1.972989 1_565
Mn1 O6 2.052905 1_665
Mn1 O7 2.052905 1_555
Mn1 O1 2.319333 1_555
Mn1 O3 2.319333 1_555
Ga0 O8 1.892700 1_556
Ga0 O2 1.950976 1_556
Ga0 O1 1.964936 1_555
Ga0 O10 2.006944 1_556
Ga0 O9 2.017342 1_556
Ga1 O8 1.892700 1_555
Ga1 O0 1.950976 1_654
Ga1 O3 1.964936 1_545
Ga1 O10 2.006944 1_655
Ga1 O9 2.017342 1_545
O0 Sr0 2.586344 1_545
O0 Sr1 2.595277 1_555
O0 Sr1 3.091423 1_455
O0 Sr0 3.139634 1_555
O1 Sr1 2.598873 1_565
O1 Sr0 2.617555 1_555
O1 Sr1 3.092209 1_555
O1 Sr0 3.097052 1_655
O2 Sr2 2.586344 1_555
O2 Sr3 2.595277 1_455
O2 Sr3 3.091423 1_555
O2 Sr2 3.139634 1_545
O3 Sr3 2.598873 1_555
O3 Sr2 2.617555 1_655
O3 Sr3 3.092209 1_565
O3 Sr2 3.097052 1_555
O4 Sr3 2.681914 1_555
O4 Sr2 2.816954 1_545
O4 Sr1 3.240680 1_555
O5 Sr1 2.681914 1_555
O5 Sr0 2.816954 1_655
O5 Sr3 3.240680 1_555
O6 Sr3 2.773723 1_455
O6 Sr1 2.828527 1_455
O7 Sr1 2.773723 1_555
O7 Sr3 2.828527 1_555
O8 Sr0 2.478596 1_654
O8 Sr2 2.478596 1_545
O8 Sr1 2.896315 1_554
O8 Sr3 2.896315 1_555
O9 Sr2 2.456332 1_555
O9 Sr0 2.456332 1_654
O9 Sr1 2.910936 1_564
O9 Sr3 2.910936 1_555
O10 Sr0 2.465903 1_554
O10 Sr2 2.465903 1_545
O10 Sr1 2.931728 1_554
O10 Sr3 2.931728 1_455
