# generated using pymatgen
data_Sc6Ga16Ir7
_symmetry_space_group_name_H-M   'P 1'
_cell_length_a   8.74034045
_cell_length_b   8.74033686
_cell_length_c   8.74033880
_cell_angle_alpha   60.00117975
_cell_angle_beta   60.00115577
_cell_angle_gamma   60.00115349
_symmetry_Int_Tables_number   1
_chemical_formula_structural   Sc6Ga16Ir7
_chemical_formula_sum   'Sc6 Ga16 Ir7'
_cell_volume   472.15135574
_cell_formula_units_Z   1
loop_
 _symmetry_equiv_pos_site_id
 _symmetry_equiv_pos_as_xyz
  1  'x, y, z'
loop_
 _atom_site_type_symbol
 _atom_site_label
 _atom_site_symmetry_multiplicity
 _atom_site_fract_x
 _atom_site_fract_y
 _atom_site_fract_z
 _atom_site_occupancy
  Sc  Sc0  1  0.72050880  0.72050883  0.27949089  1
  Sc  Sc1  1  0.27949130  0.72050900  0.27949109  1
  Sc  Sc2  1  0.72050908  0.27949100  0.27949145  1
  Sc  Sc3  1  0.27949112  0.27949137  0.72050915  1
  Sc  Sc4  1  0.72050874  0.27949093  0.72050895  1
  Sc  Sc5  1  0.27949100  0.72050880  0.72050877  1
  Ga  Ga0  1  0.87563852  0.87563849  0.37308519  1
  Ga  Ga1  1  0.87563867  0.37308532  0.87563837  1
  Ga  Ga2  1  0.37308550  0.87563852  0.87563840  1
  Ga  Ga3  1  0.87564027  0.87564001  0.87564007  1
  Ga  Ga4  1  0.12436160  0.12436159  0.62691460  1
  Ga  Ga5  1  0.12436133  0.62691476  0.12436157  1
  Ga  Ga6  1  0.62691463  0.12436159  0.12436150  1
  Ga  Ga7  1  0.12435954  0.12436014  0.12435988  1
  Ga  Ga8  1  0.65407210  0.65407226  0.03778142  1
  Ga  Ga9  1  0.65407211  0.03778140  0.65407202  1
  Ga  Ga10  1  0.03778159  0.65407202  0.65407210  1
  Ga  Ga11  1  0.65407338  0.65407356  0.65407322  1
  Ga  Ga12  1  0.34592783  0.34592784  0.96221861  1
  Ga  Ga13  1  0.34592787  0.96221873  0.34592789  1
  Ga  Ga14  1  0.96221861  0.34592778  0.34592787  1
  Ga  Ga15  1  0.34592663  0.34592641  0.34592680  1
  Ir  Ir0  1  -0.00000001  0.00000001  0.00000013  1
  Ir  Ir1  1  -0.00000010  -0.00000010  0.50000013  1
  Ir  Ir2  1  0.49999996  -0.00000013  0.50000004  1
  Ir  Ir3  1  0.00000003  0.50000007  0.49999996  1
  Ir  Ir4  1  0.50000007  0.49999989  0.00000000  1
  Ir  Ir5  1  -0.00000007  0.49999999  -0.00000003  1
  Ir  Ir6  1  0.49999991  -0.00000007  -0.00000007  1
loop_
_geom_bond_atom_site_label_1
_geom_bond_atom_site_label_2
_geom_bond_distance
_geom_bond_site_symmetry_2
Ga0 Ir0 2.662545 1_665
Ga0 Ir1 2.680730 1_665
Ga0 Ir3 2.680797 1_655
Ga0 Ir2 2.680799 1_565
Ga0 Ga9 2.787534 1_565
Ga0 Ga10 2.787537 1_655
Ga0 Ga11 2.787550 1_555
Ga0 Sc0 2.898740 1_555
Ga0 Sc2 2.898795 1_565
Ga0 Sc1 2.898798 1_655
Ga0 Ga7 3.074399 1_665
Ga0 Ga5 3.074426 1_655
Ga0 Ga6 3.074429 1_565
Ga1 Ir0 2.662546 1_656
Ga1 Ir5 2.680728 1_656
Ga1 Ir3 2.680798 1_655
Ga1 Ir4 2.680799 1_556
Ga1 Ga10 2.787535 1_655
Ga1 Ga8 2.787536 1_556
Ga1 Ga11 2.787553 1_555
Ga1 Sc4 2.898740 1_555
Ga1 Sc3 2.898795 1_655
Ga1 Sc2 2.898800 1_556
Ga1 Ga7 3.074397 1_656
Ga1 Ga4 3.074427 1_655
Ga1 Ga6 3.074430 1_556
Ga2 Ir0 2.662548 1_566
Ga2 Ir6 2.680727 1_566
Ga2 Ir2 2.680797 1_565
Ga2 Ir4 2.680799 1_556
Ga2 Ga9 2.787534 1_565
Ga2 Ga8 2.787535 1_556
Ga2 Sc5 2.898741 1_555
Ga2 Sc1 2.898797 1_556
Ga2 Sc3 2.898797 1_565
Ga2 Ga7 3.074400 1_566
Ga2 Ga4 3.074430 1_565
Ga2 Ga5 3.074431 1_556
Ga3 Ir0 2.662444 1_666
Ga3 Ir5 2.680809 1_656
Ga3 Ir1 2.680809 1_665
Ga3 Ir6 2.680811 1_566
Ga3 Ga8 2.787566 1_556
Ga3 Ga9 2.787568 1_565
Ga3 Sc5 2.898794 1_655
Ga3 Sc0 2.898795 1_556
Ga3 Sc4 2.898795 1_565
Ga3 Ga5 3.074398 1_656
Ga3 Ga6 3.074399 1_566
Ga3 Ga4 3.074400 1_665
Ga4 Ir0 2.662548 1_556
Ga4 Ir1 2.680731 1_555
Ga4 Ir2 2.680797 1_555
Ga4 Ir3 2.680798 1_555
Ga4 Sc3 2.898741 1_555
Ga4 Sc5 2.898797 1_545
Ga4 Sc4 2.898798 1_455
Ga5 Ir0 2.662545 1_565
Ga5 Ir5 2.680730 1_555
Ga5 Ir3 2.680798 1_555
Ga5 Ir4 2.680800 1_555
Ga5 Sc1 2.898740 1_555
Ga5 Sc0 2.898796 1_455
Ga5 Sc5 2.898798 1_554
Ga6 Ir0 2.662547 1_655
Ga6 Ir6 2.680731 1_555
Ga6 Ir4 2.680796 1_555
Ga6 Ir2 2.680799 1_555
Ga6 Sc2 2.898740 1_555
Ga6 Sc4 2.898796 1_554
Ga6 Sc0 2.898797 1_545
Ga7 Ir0 2.662442 1_555
Ga7 Ir5 2.680807 1_555
Ga7 Ir1 2.680811 1_555
Ga7 Ir6 2.680811 1_555
Ga7 Sc2 2.898792 1_455
Ga7 Sc3 2.898795 1_554
Ga7 Sc1 2.898797 1_545
Ga8 Ir4 2.537455 1_555
Ga8 Ir6 2.537519 1_565
Ga8 Ir5 2.537521 1_655
Ga8 Sc0 2.815697 1_555
Ga8 Sc1 2.815751 1_555
Ga8 Sc2 2.815754 1_555
Ga9 Ir2 2.537454 1_555
Ga9 Ir1 2.537521 1_655
Ga9 Ir6 2.537522 1_556
Ga9 Sc4 2.815699 1_555
Ga9 Sc2 2.815750 1_555
Ga9 Sc3 2.815752 1_555
Ga10 Ir3 2.537453 1_555
Ga10 Ir1 2.537521 1_565
Ga10 Ir5 2.537521 1_556
Ga10 Ga3 2.787565 1_455
Ga10 Sc5 2.815698 1_555
Ga10 Sc3 2.815749 1_555
Ga10 Sc1 2.815752 1_555
Ga11 Ir2 2.537524 1_565
Ga11 Ir3 2.537526 1_655
Ga11 Ir4 2.537528 1_556
Ga11 Ga2 2.787549 1_555
Ga11 Sc0 2.815739 1_555
Ga11 Sc5 2.815739 1_555
Ga11 Sc4 2.815740 1_555
Ga12 Ir4 2.537454 1_556
Ga12 Ir6 2.537521 1_556
Ga12 Ir5 2.537522 1_556
Ga12 Ga5 2.787535 1_556
Ga12 Ga6 2.787535 1_556
Ga12 Ga7 2.787567 1_556
Ga12 Sc3 2.815696 1_555
Ga12 Sc4 2.815751 1_555
Ga12 Sc5 2.815752 1_555
Ga13 Ir2 2.537453 1_565
Ga13 Ir6 2.537523 1_565
Ga13 Ir1 2.537523 1_565
Ga13 Ga4 2.787533 1_565
Ga13 Ga6 2.787535 1_565
Ga13 Ga7 2.787569 1_565
Ga13 Sc1 2.815699 1_555
Ga13 Sc0 2.815752 1_555
Ga13 Sc5 2.815752 1_555
Ga14 Ir3 2.537455 1_655
Ga14 Ir1 2.537522 1_655
Ga14 Ir5 2.537522 1_655
Ga14 Ga5 2.787535 1_655
Ga14 Ga4 2.787535 1_655
Ga14 Ga7 2.787564 1_655
Ga14 Sc2 2.815697 1_555
Ga14 Sc0 2.815752 1_555
Ga14 Sc4 2.815753 1_555
Ga15 Ir2 2.537526 1_555
Ga15 Ir3 2.537526 1_555
Ga15 Ir4 2.537528 1_555
Ga15 Ga4 2.787549 1_555
Ga15 Ga6 2.787549 1_555
Ga15 Ga5 2.787553 1_555
Ga15 Sc3 2.815739 1_555
Ga15 Sc1 2.815739 1_555
Ga15 Sc2 2.815740 1_555
