# generated using pymatgen
data_CsSi
_symmetry_space_group_name_H-M   'P 1'
_cell_length_a   13.62447282
_cell_length_b   13.62447282
_cell_length_c   13.62447282
_cell_angle_alpha   90.00000000
_cell_angle_beta   90.00000000
_cell_angle_gamma   90.00000000
_symmetry_Int_Tables_number   1
_chemical_formula_structural   CsSi
_chemical_formula_sum   'Cs32 Si32'
_cell_volume   2529.05992891
_cell_formula_units_Z   32
loop_
 _symmetry_equiv_pos_site_id
 _symmetry_equiv_pos_as_xyz
  1  'x, y, z'
loop_
 _atom_site_type_symbol
 _atom_site_label
 _atom_site_symmetry_multiplicity
 _atom_site_fract_x
 _atom_site_fract_y
 _atom_site_fract_z
 _atom_site_occupancy
  Cs  Cs0  1  0.06592868  0.33685973  0.14181900  1
  Cs  Cs1  1  0.83685973  0.43407132  0.35818100  1
  Cs  Cs2  1  0.56592868  0.64181900  0.83685973  1
  Cs  Cs3  1  0.43407132  0.64181900  0.16314027  1
  Cs  Cs4  1  0.64181900  0.83685973  0.56592868  1
  Cs  Cs5  1  0.35818100  0.16314027  0.56592868  1
  Cs  Cs6  1  0.66314027  0.85818100  0.06592868  1
  Cs  Cs7  1  0.66314027  0.14181900  0.93407132  1
  Cs  Cs8  1  0.33685973  0.85818100  0.93407132  1
  Cs  Cs9  1  0.14181900  0.93407132  0.66314027  1
  Cs  Cs10  1  0.93407132  0.33685973  0.85818100  1
  Cs  Cs11  1  0.93407132  0.66314027  0.14181900  1
  Cs  Cs12  1  0.85818100  0.06592868  0.66314027  1
  Cs  Cs13  1  0.06592868  0.66314027  0.85818100  1
  Cs  Cs14  1  0.85818100  0.93407132  0.33685973  1
  Cs  Cs15  1  0.14181900  0.06592868  0.33685973  1
  Cs  Cs16  1  0.83685973  0.56592868  0.64181900  1
  Cs  Cs17  1  0.35818100  0.83685973  0.43407132  1
  Cs  Cs18  1  0.64181900  0.16314027  0.43407132  1
  Cs  Cs19  1  0.56592868  0.35818100  0.16314027  1
  Cs  Cs20  1  0.43407132  0.35818100  0.83685973  1
  Cs  Cs21  1  0.16314027  0.43407132  0.64181900  1
  Cs  Cs22  1  0.16314027  0.56592868  0.35818100  1
  Cs  Cs23  1  0.33685973  0.14181900  0.06592868  1
  Cs  Cs24  1  0.83300325  0.83300325  0.83300325  1
  Cs  Cs25  1  0.66699675  0.33300325  0.66699675  1
  Cs  Cs26  1  0.33300325  0.66699675  0.66699675  1
  Cs  Cs27  1  0.66699675  0.66699675  0.33300325  1
  Cs  Cs28  1  0.83300325  0.16699675  0.16699675  1
  Cs  Cs29  1  0.16699675  0.16699675  0.83300325  1
  Cs  Cs30  1  0.16699675  0.83300325  0.16699675  1
  Cs  Cs31  1  0.33300325  0.33300325  0.33300325  1
  Si  Si0  1  0.55856952  0.93277549  0.81166081  1
  Si  Si1  1  0.55856952  0.06722451  0.18833919  1
  Si  Si2  1  0.93277549  0.81166081  0.55856952  1
  Si  Si3  1  0.06722451  0.81166081  0.44143048  1
  Si  Si4  1  0.81166081  0.55856952  0.93277549  1
  Si  Si5  1  0.18833919  0.44143048  0.93277549  1
  Si  Si6  1  0.94143048  0.68833919  0.43277549  1
  Si  Si7  1  0.94143048  0.31166081  0.56722451  1
  Si  Si8  1  0.05856952  0.68833919  0.56722451  1
  Si  Si9  1  0.31166081  0.56722451  0.94143048  1
  Si  Si10  1  0.56722451  0.05856952  0.68833919  1
  Si  Si11  1  0.56722451  0.94143048  0.31166081  1
  Si  Si12  1  0.68833919  0.43277549  0.94143048  1
  Si  Si13  1  0.43277549  0.94143048  0.68833919  1
  Si  Si14  1  0.68833919  0.56722451  0.05856952  1
  Si  Si15  1  0.06259695  0.06259695  0.06259695  1
  Si  Si16  1  0.43277549  0.05856952  0.31166081  1
  Si  Si17  1  0.18833919  0.55856952  0.06722451  1
  Si  Si18  1  0.81166081  0.44143048  0.06722451  1
  Si  Si19  1  0.93277549  0.18833919  0.44143048  1
  Si  Si20  1  0.06722451  0.18833919  0.55856952  1
  Si  Si21  1  0.44143048  0.06722451  0.81166081  1
  Si  Si22  1  0.44143048  0.93277549  0.18833919  1
  Si  Si23  1  0.05856952  0.31166081  0.43277549  1
  Si  Si24  1  0.56259695  0.56259695  0.56259695  1
  Si  Si25  1  0.93740305  0.06259695  0.93740305  1
  Si  Si26  1  0.06259695  0.93740305  0.93740305  1
  Si  Si27  1  0.93740305  0.93740305  0.06259695  1
  Si  Si28  1  0.56259695  0.43740305  0.43740305  1
  Si  Si29  1  0.43740305  0.43740305  0.56259695  1
  Si  Si30  1  0.43740305  0.56259695  0.43740305  1
  Si  Si31  1  0.31166081  0.43277549  0.05856952  1
loop_
_geom_bond_atom_site_label_1
_geom_bond_atom_site_label_2
_geom_bond_distance
_geom_bond_site_symmetry_2
Cs0 Si5 3.594862 1_554
Cs0 Si17 3.597065 1_555
Cs0 Si31 3.768702 1_555
Cs0 Si18 3.881218 1_455
Cs0 Si15 3.889717 1_555
Cs0 Si23 3.980231 1_555
Cs1 Si7 3.594862 1_555
Cs1 Si23 3.597065 1_655
Cs1 Si19 3.768702 1_555
Cs1 Si6 3.881218 1_555
Cs1 Si28 3.889717 1_555
Cs1 Si18 3.980231 1_555
Cs2 Si12 3.594862 1_555
Cs2 Si14 3.597065 1_556
Cs2 Si4 3.768702 1_555
Cs2 Si9 3.881218 1_555
Cs2 Si24 3.889717 1_555
Cs2 Si0 3.980231 1_555
Cs3 Si31 3.594862 1_555
Cs3 Si9 3.597065 1_554
Cs3 Si17 3.768702 1_555
Cs3 Si14 3.881218 1_555
Cs3 Si30 3.889717 1_555
Cs3 Si22 3.980231 1_555
Cs4 Si13 3.594862 1_555
Cs4 Si10 3.597065 1_565
Cs4 Si0 3.768702 1_555
Cs4 Si11 3.881218 1_555
Cs4 Si24 3.889717 1_555
Cs4 Si2 3.980231 1_555
Cs5 Si10 3.594862 1_555
Cs5 Si13 3.597065 1_545
Cs5 Si21 3.768702 1_555
Cs5 Si16 3.881218 1_555
Cs5 Si29 3.889717 1_555
Cs5 Si20 3.980231 1_555
Cs6 Si1 3.594862 1_565
Cs6 Si22 3.597065 1_555
Cs6 Si11 3.768702 1_555
Cs6 Si0 3.881218 1_554
Cs6 Si27 3.889717 1_555
Cs6 Si14 3.980231 1_555
Cs7 Si0 3.594862 1_545
Cs7 Si21 3.597065 1_555
Cs7 Si10 3.768702 1_555
Cs7 Si1 3.881218 1_556
Cs7 Si25 3.889717 1_555
Cs7 Si12 3.980231 1_555
Cs8 Si21 3.594862 1_565
Cs8 Si0 3.597065 1_555
Cs8 Si13 3.768702 1_555
Cs8 Si22 3.881218 1_556
Cs8 Si26 3.889717 1_555
Cs8 Si9 3.980231 1_555
Cs9 Si2 3.594862 1_455
Cs9 Si3 3.597065 1_555
Cs9 Si8 3.768702 1_555
Cs9 Si20 3.881218 1_565
Cs9 Si26 3.889717 1_555
Cs9 Si13 3.980231 1_555
Cs10 Si18 3.594862 1_556
Cs10 Si4 3.597065 1_555
Cs10 Si12 3.768702 1_555
Cs10 Si5 3.881218 1_655
Cs10 Si25 3.889717 1_555
Cs10 Si7 3.980231 1_555
Cs11 Si4 3.594862 1_554
Cs11 Si18 3.597065 1_555
Cs11 Si14 3.768702 1_555
Cs11 Si17 3.881218 1_655
Cs11 Si27 3.889717 1_555
Cs11 Si6 3.980231 1_555
Cs12 Si20 3.594862 1_655
Cs12 Si19 3.597065 1_555
Cs12 Si7 3.768702 1_555
Cs12 Si2 3.881218 1_545
Cs12 Si25 3.889717 1_555
Cs12 Si10 3.980231 1_555
Cs13 Si17 3.594862 1_556
Cs13 Si5 3.597065 1_555
Cs13 Si9 3.768702 1_555
Cs13 Si4 3.881218 1_455
Cs13 Si26 3.889717 1_555
Cs13 Si8 3.980231 1_555
Cs14 Si3 3.594862 1_655
Cs14 Si2 3.597065 1_555
Cs14 Si6 3.768702 1_555
Cs14 Si19 3.881218 1_565
Cs14 Si27 3.889717 1_555
Cs14 Si11 3.980231 1_555
Cs15 Si19 3.594862 1_455
Cs15 Si20 3.597065 1_555
Cs15 Si23 3.768702 1_555
Cs15 Si3 3.881218 1_545
Cs15 Si15 3.889717 1_555
Cs15 Si16 3.980231 1_555
Cs16 Si6 3.594862 1_555
Cs16 Si8 3.597065 1_655
Cs16 Si2 3.768702 1_555
Cs16 Si7 3.881218 1_555
Cs16 Si24 3.889717 1_555
Cs16 Si4 3.980231 1_555
Cs17 Si11 3.594862 1_555
Cs17 Si16 3.597065 1_565
Cs17 Si22 3.768702 1_555
Cs17 Si13 3.881218 1_555
Cs17 Si30 3.889717 1_555
Cs17 Si3 3.980231 1_555
Cs18 Si16 3.594862 1_555
Cs18 Si11 3.597065 1_545
Cs18 Si1 3.768702 1_555
Cs18 Si10 3.881218 1_555
Cs18 Si28 3.889717 1_555
Cs18 Si19 3.980231 1_555
Cs19 Si14 3.594862 1_555
Cs19 Si12 3.597065 1_554
Cs19 Si18 3.768702 1_555
Cs19 Si31 3.881218 1_555
Cs19 Si28 3.889717 1_555
Cs19 Si1 3.980231 1_555
Cs20 Si9 3.594862 1_555
Cs20 Si31 3.597065 1_556
Cs20 Si5 3.768702 1_555
Cs20 Si12 3.881218 1_555
Cs20 Si29 3.889717 1_555
Cs20 Si21 3.980231 1_555
Cs21 Si23 3.594862 1_555
Cs21 Si7 3.597065 1_455
Cs21 Si20 3.768702 1_555
Cs21 Si8 3.881218 1_555
Cs21 Si29 3.889717 1_555
Cs21 Si5 3.980231 1_555
Cs22 Si8 3.594862 1_555
Cs22 Si6 3.597065 1_455
Cs22 Si3 3.768702 1_555
Cs22 Si23 3.881218 1_555
Cs22 Si30 3.889717 1_555
Cs22 Si17 3.980231 1_555
Cs23 Si22 3.594862 1_545
Cs23 Si1 3.597065 1_555
Cs23 Si16 3.768702 1_555
Cs23 Si21 3.881218 1_554
Cs23 Si15 3.889717 1_555
Cs23 Si31 3.980231 1_555
Cs24 Si25 3.719054 1_565
Cs24 Si27 3.719054 1_556
Cs24 Si26 3.719054 1_655
Cs24 Si2 3.989060 1_555
Cs24 Si0 3.989060 1_555
Cs24 Si4 3.989060 1_555
Cs25 Si24 3.719054 1_555
Cs25 Si28 3.719054 1_555
Cs25 Si29 3.719054 1_555
Cs25 Si12 3.989060 1_555
Cs25 Si10 3.989060 1_555
Cs25 Si7 3.989060 1_555
Cs26 Si24 3.719054 1_555
Cs26 Si29 3.719054 1_555
Cs26 Si30 3.719054 1_555
Cs26 Si13 3.989060 1_555
Cs26 Si9 3.989060 1_555
Cs26 Si8 3.989060 1_555
Cs27 Si24 3.719054 1_555
Cs27 Si28 3.719054 1_555
Cs27 Si30 3.719054 1_555
Cs27 Si6 3.989060 1_555
Cs27 Si14 3.989060 1_555
Cs27 Si11 3.989060 1_555
Cs28 Si25 3.719054 1_554
Cs28 Si27 3.719054 1_545
Cs28 Si15 3.719054 1_655
Cs28 Si1 3.989060 1_555
Cs28 Si18 3.989060 1_555
Cs28 Si19 3.989060 1_555
Cs29 Si26 3.719054 1_545
Cs29 Si25 3.719054 1_455
Cs29 Si15 3.719054 1_556
Cs29 Si20 3.989060 1_555
Cs29 Si21 3.989060 1_555
Cs29 Si5 3.989060 1_555
Cs30 Si26 3.719054 1_554
Cs30 Si27 3.719054 1_455
Cs30 Si15 3.719054 1_565
Cs30 Si17 3.989060 1_555
Cs30 Si3 3.989060 1_555
Cs30 Si22 3.989060 1_555
Cs31 Si28 3.719054 1_555
Cs31 Si29 3.719054 1_555
Cs31 Si30 3.719054 1_555
Cs31 Si16 3.989060 1_555
Cs31 Si31 3.989060 1_555
Cs31 Si23 3.989060 1_555
Si0 Si10 2.402983 1_565
Si0 Si13 2.402983 1_555
Si0 Si21 2.429519 1_565
Si1 Si11 2.402983 1_545
Si1 Si16 2.402983 1_555
Si1 Si22 2.429519 1_545
Si2 Si8 2.402983 1_655
Si2 Si6 2.402983 1_555
Si2 Si3 2.429519 1_655
Si3 Si8 2.402983 1_555
Si3 Si6 2.402983 1_455
Si5 Si9 2.402983 1_555
Si6 Si8 2.429519 1_655
Si10 Si21 2.402983 1_555
Si10 Si13 2.429519 1_545
Si11 Si22 2.402983 1_555
Si11 Si16 2.429519 1_565
Si12 Si18 2.402983 1_556
Si12 Si4 2.402983 1_555
Si12 Si14 2.429519 1_556
Si13 Si21 2.402983 1_565
Si14 Si18 2.402983 1_555
Si14 Si4 2.402983 1_554
Si15 Si25 2.412225 1_454
Si15 Si26 2.412225 1_544
Si15 Si27 2.412225 1_445
Si16 Si22 2.402983 1_545
Si17 Si31 2.402983 1_555
Si17 Si9 2.402983 1_554
Si17 Si5 2.429519 1_554
Si18 Si4 2.429519 1_554
Si19 Si7 2.402983 1_555
Si19 Si23 2.402983 1_655
Si19 Si20 2.429519 1_655
Si20 Si7 2.402983 1_455
Si20 Si23 2.402983 1_555
Si23 Si7 2.429519 1_455
Si24 Si30 2.412225 1_555
Si24 Si28 2.412225 1_555
Si24 Si29 2.412225 1_555
Si25 Si26 2.412225 1_645
Si25 Si27 2.412225 1_546
Si26 Si27 2.412225 1_456
Si28 Si30 2.412225 1_555
Si28 Si29 2.412225 1_555
Si29 Si30 2.412225 1_555
Si31 Si5 2.402983 1_554
Si31 Si9 2.429519 1_554
