# generated using pymatgen
data_Mg5Si9
_symmetry_space_group_name_H-M   'P 1'
_cell_length_a   5.39515000
_cell_length_b   7.35703155
_cell_length_c   12.78879496
_cell_angle_alpha   92.12387899
_cell_angle_beta   95.64674376
_cell_angle_gamma   104.64090880
_symmetry_Int_Tables_number   1
_chemical_formula_structural   Mg5Si9
_chemical_formula_sum   'Mg10 Si18'
_cell_volume   487.73837640
_cell_formula_units_Z   2
loop_
 _symmetry_equiv_pos_site_id
 _symmetry_equiv_pos_as_xyz
  1  'x, y, z'
loop_
 _atom_site_type_symbol
 _atom_site_label
 _atom_site_symmetry_multiplicity
 _atom_site_fract_x
 _atom_site_fract_y
 _atom_site_fract_z
 _atom_site_occupancy
  Mg  Mg0  1  0.12053800  0.04869900  0.71737500  1
  Mg  Mg1  1  0.78830900  0.93654100  0.44431300  1
  Mg  Mg2  1  0.50199800  0.55457800  0.50014700  1
  Mg  Mg3  1  0.53627000  0.61246500  0.26924800  1
  Mg  Mg4  1  0.93331400  0.33017000  0.54739500  1
  Mg  Mg5  1  0.34690000  0.10543200  0.51029500  1
  Mg  Mg6  1  0.24094100  0.93778700  0.27417500  1
  Mg  Mg7  1  0.39487100  0.76388900  0.84881700  1
  Mg  Mg8  1  0.09942900  0.21742000  0.10180500  1
  Mg  Mg9  1  0.84151200  0.51289500  0.93837200  1
  Si  Si0  1  0.80992000  0.76930300  0.09777500  1
  Si  Si1  1  0.30074500  0.33013300  0.91355100  1
  Si  Si2  1  0.09067500  0.29298300  0.34219300  1
  Si  Si3  1  0.79949000  0.68851000  0.74379000  1
  Si  Si4  1  0.01991300  0.55260900  0.19176900  1
  Si  Si5  1  0.67515400  0.15720400  0.76329200  1
  Si  Si6  1  0.60355600  0.28462400  0.35691100  1
  Si  Si7  1  0.08591500  0.42586800  0.75540300  1
  Si  Si8  1  0.62815500  0.27075600  0.15551200  1
  Si  Si9  1  0.54655100  0.87244600  0.64434300  1
  Si  Si10  1  0.97925000  0.96483100  0.91069300  1
  Si  Si11  1  0.30230800  0.91074300  0.04250600  1
  Si  Si12  1  0.75317900  0.00251300  0.22926900  1
  Si  Si13  1  0.47798000  0.38597100  0.68680200  1
  Si  Si14  1  0.64391900  0.12178200  0.95598900  1
  Si  Si15  1  0.35458300  0.58967200  0.05102200  1
  Si  Si16  1  0.08974600  0.71712100  0.60475600  1
  Si  Si17  1  0.03499000  0.64319700  0.40224400  1
loop_
_geom_bond_atom_site_label_1
_geom_bond_atom_site_label_2
_geom_bond_distance
_geom_bond_site_symmetry_2
Mg0 Si10 2.705591 1_445
Mg0 Si16 2.745979 1_545
Mg0 Si13 2.798228 1_555
Mg0 Si5 2.822886 1_455
Mg0 Si3 2.827999 1_445
Mg0 Si7 2.855005 1_555
Mg0 Si5 2.889209 1_555
Mg0 Mg5 3.023228 1_555
Mg0 Si9 3.074852 1_445
Mg0 Si1 3.105476 1_555
Mg0 Si9 3.110583 1_545
Mg0 Mg7 3.278116 1_545
Mg0 Mg4 3.315570 1_455
Mg1 Si12 2.806725 1_565
Mg1 Si17 2.867942 1_655
Mg1 Si9 2.983758 1_555
Mg1 Si2 3.123152 1_665
Mg1 Mg3 3.148407 1_555
Mg2 Si13 2.729982 1_555
Mg2 Si6 2.842212 1_555
Mg2 Si9 2.869896 1_555
Mg2 Si17 2.934470 1_555
Mg2 Mg3 3.015982 1_555
Mg2 Si2 3.062644 1_555
Mg2 Si17 3.175361 1_655
Mg3 Si4 2.782235 1_555
Mg3 Si6 2.787302 1_555
Mg3 Si15 2.849853 1_555
Mg3 Si0 2.878118 1_555
Mg3 Si12 2.897303 1_565
Mg3 Si17 2.991171 1_655
Mg3 Si4 3.006931 1_655
Mg3 Si8 3.030238 1_555
Mg3 Si2 3.149868 1_555
Mg3 Mg6 3.194916 1_555
Mg4 Si7 2.717939 1_655
Mg4 Si16 2.804203 1_655
Mg4 Si6 2.827914 1_555
Mg4 Si2 2.860970 1_655
Mg4 Si17 2.988142 1_655
Mg5 Si6 2.703073 1_555
Mg5 Si9 2.797315 1_545
Mg5 Si13 2.908277 1_555
Mg5 Si2 3.005972 1_555
Mg6 Si12 2.799637 1_465
Mg6 Si12 2.803818 1_565
Mg6 Si17 2.831652 1_555
Mg6 Si6 2.885652 1_565
Mg6 Si4 2.895853 1_555
Mg6 Si11 3.018251 1_555
Mg6 Si2 3.046953 1_565
Mg6 Si0 3.055580 1_455
Mg7 Si7 2.771713 1_555
Mg7 Si11 2.805400 1_556
Mg7 Si3 2.830341 1_555
Mg7 Si14 2.863290 1_565
Mg7 Si9 2.896748 1_555
Mg7 Si15 2.931327 1_556
Mg8 Si8 2.791313 1_555
Mg8 Si1 2.805499 1_554
Mg8 Si8 2.813995 1_455
Mg8 Si12 2.818503 1_455
Mg8 Si4 2.830289 1_555
Mg8 Si14 2.852872 1_454
Mg8 Si11 2.854596 1_545
Mg8 Si15 2.866889 1_555
Mg8 Si10 2.930817 1_444
Mg8 Si2 3.110884 1_555
Mg9 Si0 2.772944 1_556
Mg9 Si14 2.830453 1_555
Mg9 Si3 2.861558 1_555
Mg9 Si1 2.867686 1_555
Mg9 Si15 2.901965 1_656
Mg9 Si7 2.923511 1_655
Mg9 Si1 3.139195 1_655
Mg9 Si4 3.269156 1_656
Si0 Si12 2.453236 1_565
Si0 Si4 2.461134 1_655
Si0 Si15 2.479945 1_555
Si0 Si11 2.768763 1_655
Si1 Si7 2.446834 1_555
Si1 Si15 2.488274 1_556
Si1 Si14 2.714908 1_555
Si1 Si10 2.802938 1_445
Si2 Si6 2.638658 1_455
Si2 Si6 2.771331 1_555
Si2 Si4 2.826904 1_555
Si3 Si9 2.455710 1_555
Si3 Si7 2.762108 1_655
Si4 Si8 2.549981 1_455
Si5 Si9 2.450650 1_545
Si5 Si7 2.583143 1_655
Si6 Si8 2.591647 1_555
Si10 Si11 2.420750 1_656
Si10 Si14 2.480857 1_565
Si11 Si15 2.453744 1_555
Si11 Si14 2.472595 1_564
Si12 Si8 2.434135 1_555
Si12 Si2 2.693428 1_655
Si13 Si5 2.396563 1_555
Si13 Si7 2.447469 1_555
Si13 Si3 2.484626 1_555
Si14 Si5 2.505298 1_555
Si14 Si8 2.757166 1_556
Si15 Si4 2.646041 1_555
Si16 Si9 2.433915 1_555
Si16 Si3 2.463168 1_455
Si16 Si17 2.598918 1_555
Si17 Si4 2.737278 1_555
Si17 Si2 2.758375 1_555
