# generated using pymatgen
data_SrLaMg6
_symmetry_space_group_name_H-M   'P 1'
_cell_length_a   5.39282600
_cell_length_b   7.44995900
_cell_length_c   11.60051500
_cell_angle_alpha   90.00000000
_cell_angle_beta   90.00000000
_cell_angle_gamma   90.00000000
_symmetry_Int_Tables_number   1
_chemical_formula_structural   SrLaMg6
_chemical_formula_sum   'Sr2 La2 Mg12'
_cell_volume   466.06614890
_cell_formula_units_Z   2
loop_
 _symmetry_equiv_pos_site_id
 _symmetry_equiv_pos_as_xyz
  1  'x, y, z'
loop_
 _atom_site_type_symbol
 _atom_site_label
 _atom_site_symmetry_multiplicity
 _atom_site_fract_x
 _atom_site_fract_y
 _atom_site_fract_z
 _atom_site_occupancy
  Sr  Sr0  1  0.50000000  0.50000000  0.83796700  1
  Sr  Sr1  1  0.50000000  0.00000000  0.33796700  1
  La  La0  1  0.50000000  0.50000000  0.34526800  1
  La  La1  1  0.50000000  0.00000000  0.84526800  1
  Mg  Mg0  1  0.50000000  0.25503200  0.08440400  1
  Mg  Mg1  1  0.50000000  0.74496800  0.08440400  1
  Mg  Mg2  1  0.00000000  0.24395100  0.92293700  1
  Mg  Mg3  1  0.00000000  0.75604900  0.92293700  1
  Mg  Mg4  1  0.00000000  0.50000000  0.15649900  1
  Mg  Mg5  1  0.00000000  0.50000000  0.64558900  1
  Mg  Mg6  1  0.50000000  0.75503200  0.58440400  1
  Mg  Mg7  1  0.50000000  0.24496800  0.58440400  1
  Mg  Mg8  1  0.00000000  0.74395100  0.42293700  1
  Mg  Mg9  1  0.00000000  0.25604900  0.42293700  1
  Mg  Mg10  1  0.00000000  0.00000000  0.65649900  1
  Mg  Mg11  1  0.00000000  0.00000000  0.14558900  1
loop_
_geom_bond_atom_site_label_1
_geom_bond_atom_site_label_2
_geom_bond_distance
_geom_bond_site_symmetry_2
La0 Mg7 3.362373 1_555
La0 Mg6 3.362373 1_555
La0 Mg9 3.374237 1_555
La0 Mg9 3.374237 1_655
La0 Mg8 3.374237 1_555
La0 Mg8 3.374237 1_655
La0 Mg4 3.473607 1_655
La0 Mg4 3.473607 1_555
La0 Mg1 3.533873 1_555
La0 Mg0 3.533873 1_555
La0 Sr1 3.725942 1_565
La0 Sr1 3.725942 1_555
La1 Mg0 3.362373 1_556
La1 Mg1 3.362373 1_546
La1 Mg2 3.374237 1_655
La1 Mg2 3.374237 1_555
La1 Mg3 3.374237 1_545
La1 Mg3 3.374237 1_645
La1 Mg10 3.473607 1_655
La1 Mg10 3.473607 1_555
La1 Mg6 3.533873 1_545
La1 Mg7 3.533873 1_555
La1 Sr0 3.725942 1_555
La1 Sr0 3.725942 1_545
Mg0 Mg2 3.284199 1_554
Mg0 Mg2 3.284199 1_654
Mg0 Mg4 3.361657 1_655
Mg0 Mg4 3.361657 1_555
Mg0 Mg11 3.374069 1_555
Mg0 Mg11 3.374069 1_655
Mg0 Sr0 3.391658 1_554
Mg0 Sr1 3.501730 1_555
Mg1 Mg3 3.284199 1_654
Mg1 Mg3 3.284199 1_554
Mg1 Mg4 3.361657 1_655
Mg1 Mg4 3.361657 1_555
Mg1 Mg11 3.374069 1_565
Mg1 Mg11 3.374069 1_665
Mg1 Sr0 3.391658 1_554
Mg1 Sr1 3.501730 1_565
Mg2 Mg4 3.313582 1_556
Mg2 Sr0 3.446883 1_555
Mg2 Sr0 3.446883 1_455
Mg3 Mg4 3.313582 1_556
Mg3 Sr0 3.446883 1_555
Mg3 Sr0 3.446883 1_455
Mg5 Mg9 3.158210 1_555
Mg5 Mg8 3.158210 1_555
Mg5 Mg6 3.374069 1_455
Mg5 Mg6 3.374069 1_555
Mg5 Mg7 3.374069 1_455
Mg5 Mg7 3.374069 1_555
Mg5 Sr0 3.500151 1_455
Mg5 Sr0 3.500151 1_555
Mg6 Mg8 3.284199 1_555
Mg6 Mg8 3.284199 1_655
Mg6 Sr1 3.391658 1_565
Mg6 Sr0 3.501730 1_555
Mg7 Mg9 3.284199 1_655
Mg7 Mg9 3.284199 1_555
Mg7 Sr1 3.391658 1_555
Mg7 Sr0 3.501730 1_555
Mg8 Sr1 3.446883 1_565
Mg8 Sr1 3.446883 1_465
Mg9 Sr1 3.446883 1_455
Mg9 Sr1 3.446883 1_555
Mg10 Mg9 3.313582 1_555
Mg10 Mg8 3.313582 1_545
Mg10 Mg6 3.361657 1_445
Mg10 Mg6 3.361657 1_545
Mg10 Mg7 3.361657 1_455
Mg10 Mg7 3.361657 1_555
Mg11 Mg2 3.158210 1_554
Mg11 Mg3 3.158210 1_544
Mg11 Sr1 3.500151 1_455
Mg11 Sr1 3.500151 1_555
