# generated using pymatgen
data_CdSnAs2
_symmetry_space_group_name_H-M   'P 1'
_cell_length_a   7.04625652
_cell_length_b   7.04625652
_cell_length_c   7.04625729
_cell_angle_alpha   33.38187907
_cell_angle_beta   33.38187907
_cell_angle_gamma   33.38188505
_symmetry_Int_Tables_number   1
_chemical_formula_structural   CdSnAs2
_chemical_formula_sum   'Cd1 Sn1 As2'
_cell_volume   94.31068077
_cell_formula_units_Z   1
loop_
 _symmetry_equiv_pos_site_id
 _symmetry_equiv_pos_as_xyz
  1  'x, y, z'
loop_
 _atom_site_type_symbol
 _atom_site_label
 _atom_site_symmetry_multiplicity
 _atom_site_fract_x
 _atom_site_fract_y
 _atom_site_fract_z
 _atom_site_occupancy
  Cd  Cd0  1  0.50000000  0.50000000  0.50000000  1
  Sn  Sn0  1  0.00000000  0.00000000  0.00000000  1
  As  As0  1  0.25054100  0.25054100  0.25054100  1
  As  As1  1  0.74945900  0.74945900  0.74945900  1
loop_
_geom_bond_atom_site_label_1
_geom_bond_atom_site_label_2
_geom_bond_distance
_geom_bond_site_symmetry_2
As0 Sn0 2.861261 1_565
As0 Sn0 2.861261 1_655
As0 Sn0 2.861261 1_556
As0 Cd0 2.873766 1_545
As0 Cd0 2.873766 1_455
As0 Cd0 2.873767 1_554
As1 Sn0 2.861261 1_656
As1 Sn0 2.861261 1_566
As1 Sn0 2.861261 1_665
As1 Cd0 2.873766 1_565
As1 Cd0 2.873766 1_655
As1 Cd0 2.873767 1_556
