# generated using pymatgen
data_Li7Mn2(CoO4)3
_symmetry_space_group_name_H-M   'P 1'
_cell_length_a   5.05967000
_cell_length_b   5.87785035
_cell_length_c   7.81221670
_cell_angle_alpha   78.52534616
_cell_angle_beta   78.09730007
_cell_angle_gamma   73.17352053
_symmetry_Int_Tables_number   1
_chemical_formula_structural   Li7Mn2(CoO4)3
_chemical_formula_sum   'Li7 Mn2 Co3 O12'
_cell_volume   215.18867714
_cell_formula_units_Z   1
loop_
 _symmetry_equiv_pos_site_id
 _symmetry_equiv_pos_as_xyz
  1  'x, y, z'
loop_
 _atom_site_type_symbol
 _atom_site_label
 _atom_site_symmetry_multiplicity
 _atom_site_fract_x
 _atom_site_fract_y
 _atom_site_fract_z
 _atom_site_occupancy
  Li  Li0  1  0.98900000  0.50332100  0.00619500  1
  Li  Li1  1  0.00302900  0.83401300  0.66653900  1
  Li  Li2  1  0.50097500  0.33464900  0.16662700  1
  Li  Li3  1  0.49634900  0.66439900  0.84207300  1
  Li  Li4  1  0.00638900  0.16406600  0.32728000  1
  Li  Li5  1  0.50491500  0.99817600  0.48938000  1
  Li  Li6  1  0.49788200  0.83627400  0.16754500  1
  Mn  Mn0  1  0.99855000  0.00165600  0.00467700  1
  Mn  Mn1  1  0.50223300  0.49797000  0.49818900  1
  Co  Co0  1  0.00026100  0.33422700  0.66566800  1
  Co  Co1  1  0.00233100  0.67296400  0.32415700  1
  Co  Co2  1  0.50221900  0.15532200  0.84272300  1
  O  O0  1  0.22202000  0.68829600  0.07997100  1
  O  O1  1  0.22632700  0.01516400  0.76408400  1
  O  O2  1  0.74933900  0.50854900  0.27482800  1
  O  O3  1  0.75206600  0.85991600  0.91367100  1
  O  O4  1  0.26583200  0.34151100  0.42445800  1
  O  O5  1  0.74035800  0.18847900  0.58554200  1
  O  O6  1  0.76118600  0.31766000  0.91540000  1
  O  O7  1  0.74454700  0.64526200  0.58097700  1
  O  O8  1  0.23582400  0.16091500  0.07001600  1
  O  O9  1  0.27274500  0.48015100  0.73418500  1
  O  O10  1  0.77566300  0.99763000  0.23357700  1
  O  O11  1  0.24995800  0.79943100  0.42223900  1
loop_
_geom_bond_atom_site_label_1
_geom_bond_atom_site_label_2
_geom_bond_distance
_geom_bond_site_symmetry_2
Li0 O0 2.043558 1_655
Li0 O8 2.064281 1_655
Li0 O6 2.096700 1_554
Li0 O3 2.157034 1_554
Li0 O2 2.197707 1_555
Li0 O9 2.310582 1_654
Li1 O11 2.066025 1_555
Li1 O3 2.087277 1_455
Li1 O1 2.089354 1_565
Li1 O9 2.164402 1_555
Li1 O5 2.174146 1_465
Li1 O7 2.209934 1_455
Li2 O10 2.103097 1_545
Li2 O4 2.119025 1_555
Li2 O6 2.128681 1_554
Li2 O2 2.205459 1_555
Li2 O0 2.215177 1_555
Li2 O8 2.220308 1_555
Li3 O0 2.080207 1_556
Li3 O6 2.132722 1_555
Li3 O9 2.151531 1_555
Li3 O1 2.168261 1_565
Li3 O7 2.168664 1_555
Li3 O3 2.173182 1_555
Li4 O10 2.038222 1_445
Li4 O2 2.079524 1_455
Li4 O8 2.104093 1_555
Li4 O5 2.187741 1_455
Li4 O11 2.208625 1_545
Li4 O4 2.214981 1_555
Li5 O4 2.055647 1_565
Li5 O7 2.143906 1_555
Li5 O11 2.167775 1_555
Li5 O5 2.170166 1_565
Li5 O10 2.177368 1_555
Li5 O1 2.314805 1_565
Li6 O8 2.086446 1_565
Li6 O10 2.099157 1_555
Li6 O2 2.100111 1_555
Li6 O0 2.122803 1_555
Li6 O11 2.129722 1_555
Li6 O3 2.132727 1_554
Mn0 O10 1.907043 1_545
Mn0 O0 1.911688 1_645
Mn0 O8 1.916149 1_655
Mn0 O6 1.979253 1_554
Mn0 O3 1.989431 1_544
Mn0 O1 1.991816 1_654
Mn1 O11 1.925036 1_555
Mn1 O2 1.927119 1_555
Mn1 O4 1.933908 1_555
Mn1 O5 1.950107 1_555
Mn1 O7 1.958412 1_555
Mn1 O9 1.966922 1_555
Co0 O7 1.989102 1_455
Co0 O1 1.990917 1_555
Co0 O5 2.014982 1_455
Co0 O9 2.023524 1_555
Co0 O6 2.073182 1_455
Co0 O4 2.077260 1_555
Co1 O2 1.946496 1_455
Co1 O11 1.967567 1_555
Co1 O10 1.997046 1_455
Co1 O0 1.999413 1_555
Co1 O4 2.122937 1_555
Co1 O7 2.160234 1_455
Co2 O3 1.885606 1_545
Co2 O8 1.995275 1_556
Co2 O9 2.047196 1_555
Co2 O6 2.048409 1_555
Co2 O1 2.055631 1_555
Co2 O5 2.123214 1_555
