# generated using pymatgen
data_Na3NpO10
_symmetry_space_group_name_H-M   'P 1'
_cell_length_a   5.42856800
_cell_length_b   5.97422926
_cell_length_c   7.48597177
_cell_angle_alpha   72.62144679
_cell_angle_beta   73.73566618
_cell_angle_gamma   89.80315483
_symmetry_Int_Tables_number   1
_chemical_formula_structural   Na3NpO10
_chemical_formula_sum   'Na3 Np1 O10'
_cell_volume   221.57206439
_cell_formula_units_Z   1
loop_
 _symmetry_equiv_pos_site_id
 _symmetry_equiv_pos_as_xyz
  1  'x, y, z'
loop_
 _atom_site_type_symbol
 _atom_site_label
 _atom_site_symmetry_multiplicity
 _atom_site_fract_x
 _atom_site_fract_y
 _atom_site_fract_z
 _atom_site_occupancy
  Na  Na0  1  0.50000000  0.50000000  0.00000000  1
  Na  Na1  1  0.70662600  0.15576300  0.64708600  1
  Na  Na2  1  0.29337400  0.84423700  0.35291400  1
  Np  Np0  1  0.00000000  0.00000000  0.00000000  1
  O  O0  1  0.27969600  0.02334400  0.76384000  1
  O  O1  1  0.72030400  0.97665600  0.23616000  1
  O  O2  1  0.20735900  0.15890700  0.11019300  1
  O  O3  1  0.79264100  0.84109300  0.88980700  1
  O  O4  1  0.86061900  0.28364300  0.86955100  1
  O  O5  1  0.13938100  0.71635700  0.13044900  1
  O  O6  1  0.29031400  0.31912900  0.44099800  1
  O  O7  1  0.70968600  0.68087100  0.55900200  1
  O  O8  1  0.52584300  0.36532500  0.35205000  1
  O  O9  1  0.47415700  0.63467500  0.64795000  1
loop_
_geom_bond_atom_site_label_1
_geom_bond_atom_site_label_2
_geom_bond_distance
_geom_bond_site_symmetry_2
Na0 O3 2.375023 1_554
Na0 O2 2.375023 1_555
Na0 O4 2.474376 1_554
Na0 O5 2.474376 1_555
Na0 O9 2.559728 1_554
Na0 O8 2.559728 1_555
Na1 O0 2.286049 1_555
Na1 O3 2.341434 1_545
Na1 O4 2.366472 1_555
Na1 O8 2.638653 1_555
Na2 O1 2.286049 1_555
Na2 O2 2.341434 1_565
Na2 O5 2.366472 1_555
Na2 O9 2.638653 1_555
Np0 O0 1.949581 1_554
Np0 O1 1.949581 1_445
Np0 O5 1.952991 1_545
Np0 O4 1.952991 1_454
Np0 O2 1.960641 1_555
Np0 O3 1.960641 1_444
O6 O8 1.253031 1_555
O7 O9 1.253031 1_555
