# generated using pymatgen
data_Al5Co2
_symmetry_space_group_name_H-M   'P 1'
_cell_length_a   7.60474110
_cell_length_b   7.60474008
_cell_length_c   7.51398438
_cell_angle_alpha   90.00000000
_cell_angle_beta   90.00000000
_cell_angle_gamma   120.00000763
_symmetry_Int_Tables_number   1
_chemical_formula_structural   Al5Co2
_chemical_formula_sum   'Al20 Co8'
_cell_volume   376.33073996
_cell_formula_units_Z   4
loop_
 _symmetry_equiv_pos_site_id
 _symmetry_equiv_pos_as_xyz
  1  'x, y, z'
loop_
 _atom_site_type_symbol
 _atom_site_label
 _atom_site_symmetry_multiplicity
 _atom_site_fract_x
 _atom_site_fract_y
 _atom_site_fract_z
 _atom_site_occupancy
  Al  Al0  1  -0.00000000  0.00000000  -0.00000000  1
  Al  Al1  1  -0.00000000  0.00000000  0.50000000  1
  Al  Al2  1  0.46812806  0.93625612  0.25000000  1
  Al  Al3  1  0.53187194  0.46812806  0.75000000  1
  Al  Al4  1  0.93625612  0.46812806  0.75000000  1
  Al  Al5  1  0.06374388  0.53187194  0.25000000  1
  Al  Al6  1  0.46812806  0.53187194  0.25000000  1
  Al  Al7  1  0.53187194  0.06374388  0.75000000  1
  Al  Al8  1  0.19395997  0.38791993  0.93916405  1
  Al  Al9  1  0.80604003  0.19395997  0.43916405  1
  Al  Al10  1  0.38791993  0.19395997  0.43916405  1
  Al  Al11  1  0.61208007  0.80604003  0.93916405  1
  Al  Al12  1  0.19395997  0.80604003  0.93916405  1
  Al  Al13  1  0.80604003  0.61208007  0.06083595  1
  Al  Al14  1  0.80604003  0.19395997  0.06083595  1
  Al  Al15  1  0.80604003  0.61208007  0.43916405  1
  Al  Al16  1  0.38791993  0.19395997  0.06083595  1
  Al  Al17  1  0.61208007  0.80604003  0.56083595  1
  Al  Al18  1  0.19395997  0.38791993  0.56083595  1
  Al  Al19  1  0.19395997  0.80604003  0.56083595  1
  Co  Co0  1  0.33333300  0.66666700  0.75000000  1
  Co  Co1  1  0.66666700  0.33333300  0.25000000  1
  Co  Co2  1  0.12698852  0.25397705  0.25000000  1
  Co  Co3  1  0.87301148  0.12698952  0.75000000  1
  Co  Co4  1  0.25397705  0.12698952  0.75000000  1
  Co  Co5  1  0.74602295  0.87301048  0.25000000  1
  Co  Co6  1  0.12698852  0.87301048  0.25000000  1
  Co  Co7  1  0.87301148  0.74602295  0.75000000  1
loop_
_geom_bond_atom_site_label_1
_geom_bond_atom_site_label_2
_geom_bond_distance
_geom_bond_site_symmetry_2
Al0 Co2 2.515266 1_555
Al0 Co7 2.515266 1_444
Al0 Co5 2.515266 1_445
Al0 Co4 2.515266 1_554
Al0 Co6 2.515270 1_545
Al0 Co3 2.515270 1_454
Al0 Al8 2.595374 1_554
Al0 Al13 2.595374 1_445
Al0 Al11 2.595374 1_444
Al0 Al16 2.595374 1_555
Al0 Al14 2.595375 1_455
Al0 Al12 2.595375 1_544
Al1 Co2 2.515266 1_555
Al1 Co7 2.515266 1_445
Al1 Co4 2.515266 1_555
Al1 Co5 2.515266 1_445
Al1 Co3 2.515270 1_455
Al1 Co6 2.515270 1_545
Al1 Al15 2.595374 1_445
Al1 Al18 2.595374 1_555
Al1 Al10 2.595374 1_555
Al1 Al17 2.595374 1_445
Al1 Al9 2.595375 1_455
Al1 Al19 2.595375 1_545
Al2 Co6 2.390365 1_555
Al2 Co5 2.390373 1_555
Al2 Co1 2.615108 1_565
Al3 Co4 2.390362 1_555
Al3 Co7 2.390367 1_555
Al3 Co0 2.615115 1_555
Al4 Co3 2.390360 1_555
Al4 Co7 2.390367 1_555
Al4 Co0 2.615108 1_655
Al5 Co6 2.390360 1_555
Al5 Co2 2.390367 1_555
Al5 Co1 2.615108 1_455
Al6 Co5 2.390362 1_555
Al6 Co2 2.390367 1_555
Al6 Co1 2.615115 1_555
Al7 Co3 2.390365 1_555
Al7 Co4 2.390373 1_555
Al7 Co0 2.615108 1_545
Al8 Co0 2.321738 1_555
Al8 Co2 2.496651 1_556
Al8 Co4 2.659280 1_555
Al8 Co3 2.659284 1_455
Al9 Co1 2.321733 1_555
Al9 Co3 2.496649 1_555
Al9 Co2 2.659286 1_655
Al9 Co5 2.659292 1_545
Al10 Co1 2.321739 1_555
Al10 Co4 2.496651 1_555
Al10 Co2 2.659286 1_555
Al10 Co6 2.659290 1_545
Al11 Co0 2.321739 1_555
Al11 Co5 2.496651 1_556
Al11 Co7 2.659286 1_555
Al11 Co3 2.659290 1_565
Al12 Co0 2.321733 1_555
Al12 Co6 2.496649 1_556
Al12 Co7 2.659286 1_455
Al12 Co4 2.659292 1_565
Al13 Co1 2.321738 1_555
Al13 Co7 2.496651 1_554
Al13 Co5 2.659280 1_555
Al13 Co6 2.659284 1_655
Al14 Co1 2.321733 1_555
Al14 Co3 2.496649 1_554
Al14 Co2 2.659286 1_655
Al14 Co5 2.659292 1_545
Al15 Co1 2.321738 1_555
Al15 Co7 2.496651 1_555
Al15 Co5 2.659280 1_555
Al15 Co6 2.659284 1_655
Al16 Co1 2.321739 1_555
Al16 Co4 2.496651 1_554
Al16 Co2 2.659286 1_555
Al16 Co6 2.659290 1_545
Al17 Co0 2.321739 1_555
Al17 Co5 2.496651 1_555
Al17 Co7 2.659286 1_555
Al17 Co3 2.659290 1_565
Al18 Co0 2.321738 1_555
Al18 Co2 2.496651 1_555
Al18 Co4 2.659280 1_555
Al18 Co3 2.659284 1_455
Al19 Co0 2.321733 1_555
Al19 Co6 2.496649 1_555
Al19 Co7 2.659286 1_455
Al19 Co4 2.659292 1_565
