# generated using pymatgen
data_Tl(TeMo)3
_symmetry_space_group_name_H-M   'P 1'
_cell_length_a   4.61173000
_cell_length_b   9.77111585
_cell_length_c   9.68046666
_cell_angle_alpha   119.44189486
_cell_angle_beta   90.00000000
_cell_angle_gamma   90.00000000
_symmetry_Int_Tables_number   1
_chemical_formula_structural   Tl(TeMo)3
_chemical_formula_sum   'Tl2 Te6 Mo6'
_cell_volume   379.88311735
_cell_formula_units_Z   2
loop_
 _symmetry_equiv_pos_site_id
 _symmetry_equiv_pos_as_xyz
  1  'x, y, z'
loop_
 _atom_site_type_symbol
 _atom_site_label
 _atom_site_symmetry_multiplicity
 _atom_site_fract_x
 _atom_site_fract_y
 _atom_site_fract_z
 _atom_site_occupancy
  Tl  Tl0  1  0.75000000  0.66440000  0.33105600  1
  Tl  Tl1  1  0.25000000  0.33560000  0.66894400  1
  Te  Te0  1  0.75000000  0.64781300  0.68960600  1
  Te  Te1  1  0.75000000  0.30990100  0.95263800  1
  Te  Te2  1  0.75000000  0.04297700  0.35787800  1
  Te  Te3  1  0.25000000  0.35218700  0.31039400  1
  Te  Te4  1  0.25000000  0.69009900  0.04736200  1
  Te  Te5  1  0.25000000  0.95702300  0.64212200  1
  Mo  Mo0  1  0.75000000  0.98025800  0.83202400  1
  Mo  Mo1  1  0.75000000  0.16547600  0.14615800  1
  Mo  Mo2  1  0.75000000  0.85440300  0.02192100  1
  Mo  Mo3  1  0.25000000  0.01974200  0.16797600  1
  Mo  Mo4  1  0.25000000  0.83452400  0.85384200  1
  Mo  Mo5  1  0.25000000  0.14559700  0.97807900  1
loop_
_geom_bond_atom_site_label_1
_geom_bond_atom_site_label_2
_geom_bond_distance
_geom_bond_site_symmetry_2
Te0 Tl0 3.553401 1_555
Te1 Tl0 3.597700 1_556
Te2 Tl0 3.578642 1_545
Te3 Tl1 3.553401 1_555
Te4 Tl1 3.597700 1_554
Te5 Tl1 3.578642 1_565
Mo0 Mo1 2.666909 1_566
Mo0 Mo2 2.667202 1_556
Mo0 Mo5 2.771375 1_665
Mo0 Mo5 2.771375 1_565
Mo0 Mo4 2.772187 1_555
Mo0 Mo4 2.772187 1_655
Mo0 Te1 2.835633 1_565
Mo0 Te0 2.837238 1_555
Mo0 Te5 2.887516 1_555
Mo0 Te5 2.887516 1_655
Mo1 Mo2 2.662978 1_545
Mo1 Mo3 2.772187 1_555
Mo1 Mo3 2.772187 1_655
Mo1 Mo5 2.773345 1_654
Mo1 Mo5 2.773345 1_554
Mo1 Te2 2.836379 1_555
Mo1 Te1 2.846034 1_554
Mo1 Te3 2.884721 1_555
Mo1 Te3 2.884721 1_655
Mo2 Mo3 2.771375 1_665
Mo2 Mo3 2.771375 1_565
Mo2 Mo4 2.773345 1_554
Mo2 Mo4 2.773345 1_654
Mo2 Te0 2.835440 1_554
Mo2 Te2 2.842701 1_565
Mo2 Te4 2.888561 1_555
Mo2 Te4 2.888561 1_655
Mo3 Mo4 2.666909 1_544
Mo3 Mo5 2.667202 1_554
Mo3 Te4 2.835633 1_545
Mo3 Te3 2.837238 1_555
Mo3 Te2 2.887516 1_455
Mo3 Te2 2.887516 1_555
Mo4 Mo5 2.662978 1_565
Mo4 Te5 2.836379 1_555
Mo4 Te4 2.846034 1_556
Mo4 Te0 2.884721 1_455
Mo4 Te0 2.884721 1_555
Mo5 Te3 2.835440 1_556
Mo5 Te5 2.842701 1_545
Mo5 Te1 2.888561 1_555
Mo5 Te1 2.888561 1_455
