# generated using pymatgen
data_Mg14GaW
_symmetry_space_group_name_H-M   'P 1'
_cell_length_a   6.22056305
_cell_length_b   6.14996238
_cell_length_c   10.11082586
_cell_angle_alpha   90.00000000
_cell_angle_beta   90.00000000
_cell_angle_gamma   119.62526939
_symmetry_Int_Tables_number   1
_chemical_formula_structural   Mg14GaW
_chemical_formula_sum   'Mg14 Ga1 W1'
_cell_volume   336.23814066
_cell_formula_units_Z   1
loop_
 _symmetry_equiv_pos_site_id
 _symmetry_equiv_pos_as_xyz
  1  'x, y, z'
loop_
 _atom_site_type_symbol
 _atom_site_label
 _atom_site_symmetry_multiplicity
 _atom_site_fract_x
 _atom_site_fract_y
 _atom_site_fract_z
 _atom_site_occupancy
  Mg  Mg0  1  0.16693849  0.33346875  0.62500000  1
  Mg  Mg1  1  0.16816477  0.83408189  0.62500000  1
  Mg  Mg2  1  0.66798654  0.33335785  0.12500000  1
  Mg  Mg3  1  0.66465163  0.33148312  0.62500000  1
  Mg  Mg4  1  0.66798654  0.83462768  0.12500000  1
  Mg  Mg5  1  0.66465163  0.83316752  0.62500000  1
  Mg  Mg6  1  0.32755225  0.16855471  0.36287846  1
  Mg  Mg7  1  0.32755225  0.16855471  0.88712154  1
  Mg  Mg8  1  0.32755225  0.65899853  0.36287846  1
  Mg  Mg9  1  0.32755225  0.65899853  0.88712154  1
  Mg  Mg10  1  0.84466158  0.17233129  0.36729925  1
  Mg  Mg11  1  0.84466158  0.17233129  0.88270075  1
  Mg  Mg12  1  0.83698094  0.66849097  0.37442384  1
  Mg  Mg13  1  0.83698094  0.66849097  0.87557616  1
  Ga  Ga0  1  0.16208588  0.83104244  0.12500000  1
  W  W0  1  0.16404049  0.33201974  0.12500000  1
loop_
_geom_bond_atom_site_label_1
_geom_bond_atom_site_label_2
_geom_bond_distance
_geom_bond_site_symmetry_2
Mg0 Mg1 3.074988 1_555
Mg0 Mg1 3.074988 1_545
Mg0 Mg5 3.102110 1_555
Mg0 Mg3 3.102111 1_555
Mg0 Mg5 3.118488 1_445
Mg0 Mg3 3.118489 1_455
Mg0 Mg10 3.134630 1_455
Mg0 Mg11 3.134630 1_455
Mg0 Mg6 3.170578 1_555
Mg0 Mg7 3.170578 1_555
Mg0 Mg9 3.170584 1_555
Mg0 Mg8 3.170584 1_555
Mg1 Mg3 3.091211 1_565
Mg1 Mg5 3.091211 1_555
Mg1 Mg12 3.102563 1_455
Mg1 Mg13 3.102563 1_455
Mg1 Mg3 3.129359 1_455
Mg1 Mg5 3.129359 1_455
Mg1 Mg9 3.197156 1_555
Mg1 Mg8 3.197156 1_555
Mg1 Mg6 3.197162 1_565
Mg1 Mg7 3.197162 1_565
Mg2 Mg7 3.028963 1_554
Mg2 Mg6 3.028963 1_555
Mg2 Mg4 3.067172 1_545
Mg2 Mg4 3.082791 1_555
Mg2 W0 3.089811 1_655
Mg2 W0 3.130768 1_555
Mg3 Mg5 3.064622 1_545
Mg3 Mg5 3.085340 1_555
Mg3 Mg7 3.216800 1_555
Mg3 Mg6 3.216800 1_555
Mg4 Mg9 3.028963 1_554
Mg4 Mg8 3.028963 1_555
Mg4 W0 3.089811 1_665
Mg4 W0 3.130768 1_555
Mg5 Mg9 3.216800 1_555
Mg5 Mg8 3.216800 1_555
Mg6 W0 2.973358 1_555
Mg7 W0 2.973358 1_556
Mg8 W0 2.973365 1_555
Mg9 W0 2.973365 1_556
Mg10 W0 2.997382 1_655
Mg10 Mg2 3.044061 1_555
Mg10 Mg4 3.044067 1_545
Mg10 Mg12 3.076105 1_545
Mg10 Mg12 3.076105 1_555
Mg10 Mg3 3.175597 1_555
Mg10 Mg5 3.175603 1_545
Mg11 W0 2.997382 1_656
Mg11 Mg2 3.044061 1_556
Mg11 Mg4 3.044067 1_546
Mg11 Mg13 3.076105 1_545
Mg11 Mg13 3.076105 1_555
Mg11 Mg3 3.175597 1_555
Mg11 Mg5 3.175603 1_545
Mg12 Mg6 3.083116 1_665
Mg12 Mg8 3.083116 1_655
Mg12 Mg4 3.093676 1_555
Mg12 Mg2 3.093682 1_555
Mg12 Mg5 3.109171 1_555
Mg12 Mg3 3.109177 1_555
Mg12 Mg6 3.142654 1_555
Mg12 Mg8 3.142654 1_555
Mg13 Mg7 3.083116 1_665
Mg13 Mg9 3.083116 1_655
Mg13 Mg4 3.093676 1_556
Mg13 Mg2 3.093682 1_556
Mg13 Mg5 3.109171 1_555
Mg13 Mg3 3.109177 1_555
Mg13 Mg7 3.142654 1_555
Mg13 Mg9 3.142654 1_555
Ga0 Mg9 3.006722 1_554
Ga0 Mg8 3.006722 1_555
Ga0 Mg7 3.006728 1_564
Ga0 Mg6 3.006728 1_565
Ga0 Mg13 3.074141 1_454
Ga0 Mg12 3.074141 1_455
Ga0 W0 3.074999 1_565
Ga0 W0 3.074999 1_555
Ga0 Mg2 3.084535 1_455
Ga0 Mg4 3.084535 1_455
Ga0 Mg2 3.136146 1_565
Ga0 Mg4 3.136146 1_555
