# generated using pymatgen
data_YMg6TiO8
_symmetry_space_group_name_H-M   'P 1'
_cell_length_a   8.90703224
_cell_length_b   4.45339497
_cell_length_c   4.45339497
_cell_angle_alpha   90.00000000
_cell_angle_beta   90.00000000
_cell_angle_gamma   90.00000000
_symmetry_Int_Tables_number   1
_chemical_formula_structural   YMg6TiO8
_chemical_formula_sum   'Y1 Mg6 Ti1 O8'
_cell_volume   176.65073665
_cell_formula_units_Z   1
loop_
 _symmetry_equiv_pos_site_id
 _symmetry_equiv_pos_as_xyz
  1  'x, y, z'
loop_
 _atom_site_type_symbol
 _atom_site_label
 _atom_site_symmetry_multiplicity
 _atom_site_fract_x
 _atom_site_fract_y
 _atom_site_fract_z
 _atom_site_occupancy
  Y  Y0  1  0.00000000  0.00000000  0.00000000  1
  Mg  Mg0  1  0.00000000  0.50000000  0.50000000  1
  Mg  Mg1  1  0.50000000  0.50000000  0.50000000  1
  Mg  Mg2  1  0.26487280  0.00000000  0.50000000  1
  Mg  Mg3  1  0.73512720  -0.00000000  0.50000000  1
  Mg  Mg4  1  0.26487280  0.50000000  0.00000000  1
  Mg  Mg5  1  0.73512720  0.50000000  -0.00000000  1
  Ti  Ti0  1  0.50000000  0.00000000  0.00000000  1
  O  O0  1  0.25446007  0.00000000  -0.00000000  1
  O  O1  1  0.74553993  -0.00000000  0.00000000  1
  O  O2  1  0.25170885  0.50000000  0.50000000  1
  O  O3  1  0.74829115  0.50000000  0.50000000  1
  O  O4  1  0.00000000  0.00000000  0.50000000  1
  O  O5  1  0.50000000  0.00000000  0.50000000  1
  O  O6  1  0.00000000  0.50000000  0.00000000  1
  O  O7  1  0.50000000  0.50000000  0.00000000  1
loop_
_geom_bond_atom_site_label_1
_geom_bond_atom_site_label_2
_geom_bond_distance
_geom_bond_site_symmetry_2
Mg0 O6 2.226697 1_556
Mg0 O6 2.226697 1_555
Mg0 O4 2.226697 1_555
Mg0 O4 2.226697 1_565
Mg0 O2 2.241979 1_555
Mg0 O3 2.241979 1_455
Mg1 O2 2.211537 1_555
Mg1 O3 2.211537 1_555
Mg1 O5 2.226697 1_555
Mg1 O5 2.226697 1_565
Mg1 O7 2.226697 1_555
Mg1 O7 2.226697 1_556
Mg2 O5 2.094286 1_555
Mg2 O0 2.228628 1_556
Mg2 O0 2.228628 1_555
Mg2 O2 2.229782 1_555
Mg2 O2 2.229782 1_545
Mg2 O4 2.359231 1_555
Mg3 O5 2.094286 1_555
Mg3 O1 2.228628 1_555
Mg3 O1 2.228628 1_556
Mg3 O3 2.229782 1_545
Mg3 O3 2.229782 1_555
Mg3 O4 2.359231 1_655
Mg4 O7 2.094286 1_555
Mg4 O0 2.228628 1_565
Mg4 O0 2.228628 1_555
Mg4 O2 2.229782 1_554
Mg4 O2 2.229782 1_555
Mg4 O6 2.359231 1_555
Mg5 O7 2.094286 1_555
Mg5 O1 2.228628 1_555
Mg5 O1 2.228628 1_565
Mg5 O3 2.229782 1_555
Mg5 O3 2.229782 1_554
Mg5 O6 2.359231 1_655
O0 Ti0 2.187032 1_555
O0 Y0 2.266484 1_555
O1 Ti0 2.187032 1_555
O1 Y0 2.266484 1_655
O4 Y0 2.226697 1_556
O4 Y0 2.226697 1_555
O5 Ti0 2.226697 1_556
O5 Ti0 2.226697 1_555
O6 Y0 2.226697 1_555
O6 Y0 2.226697 1_565
O7 Ti0 2.226697 1_565
O7 Ti0 2.226697 1_555
