# generated using pymatgen
data_RbHo(WO4)2
_symmetry_space_group_name_H-M   'P 1'
_cell_length_a   7.60489081
_cell_length_b   7.60489081
_cell_length_c   7.49555192
_cell_angle_alpha   62.55891469
_cell_angle_beta   62.55891469
_cell_angle_gamma   88.53515106
_symmetry_Int_Tables_number   1
_chemical_formula_structural   RbHo(WO4)2
_chemical_formula_sum   'Rb2 Ho2 W4 O16'
_cell_volume   331.69564101
_cell_formula_units_Z   2
loop_
 _symmetry_equiv_pos_site_id
 _symmetry_equiv_pos_as_xyz
  1  'x, y, z'
loop_
 _atom_site_type_symbol
 _atom_site_label
 _atom_site_symmetry_multiplicity
 _atom_site_fract_x
 _atom_site_fract_y
 _atom_site_fract_z
 _atom_site_occupancy
  Rb  Rb0  1  0.19950300  0.80049700  0.75000000  1
  Rb  Rb1  1  0.80049700  0.19950300  0.25000000  1
  Ho  Ho0  1  0.77614200  0.22385800  0.75000000  1
  Ho  Ho1  1  0.22385800  0.77614200  0.25000000  1
  W  W0  1  0.70011700  0.68951700  0.78116700  1
  W  W1  1  0.29988300  0.31048300  0.21883300  1
  W  W2  1  0.31048300  0.29988300  0.71883300  1
  W  W3  1  0.68951700  0.70011700  0.28116700  1
  O  O0  1  0.62030400  0.75545200  0.55917300  1
  O  O1  1  0.37969600  0.24454800  0.44082700  1
  O  O2  1  0.24454800  0.37969600  0.94082700  1
  O  O3  1  0.75545200  0.62030400  0.05917300  1
  O  O4  1  0.37356500  0.06000600  0.87781100  1
  O  O5  1  0.62643500  0.93999400  0.12218900  1
  O  O6  1  0.93999400  0.62643500  0.62218900  1
  O  O7  1  0.06000600  0.37356500  0.37781100  1
  O  O8  1  0.59090700  0.37016300  0.96522000  1
  O  O9  1  0.40909300  0.62983700  0.03478000  1
  O  O10  1  0.62983700  0.40909300  0.53478000  1
  O  O11  1  0.37016300  0.59090700  0.46522000  1
  O  O12  1  0.78447600  0.95512800  0.69283000  1
  O  O13  1  0.21552400  0.04487200  0.30717000  1
  O  O14  1  0.04487200  0.21552400  0.80717000  1
  O  O15  1  0.95512800  0.78447600  0.19283000  1
loop_
_geom_bond_atom_site_label_1
_geom_bond_atom_site_label_2
_geom_bond_distance
_geom_bond_site_symmetry_2
Ho0 O12 2.267092 1_545
Ho0 O14 2.267092 1_655
Ho0 O8 2.303135 1_555
Ho0 O10 2.303135 1_555
Ho0 O7 2.320943 1_655
Ho0 O5 2.320943 1_546
Ho1 O13 2.267092 1_565
Ho1 O15 2.267092 1_455
Ho1 O9 2.303135 1_555
Ho1 O11 2.303135 1_555
Ho1 O4 2.320943 1_564
Ho1 O6 2.320943 1_455
O0 W0 1.880141 1_555
O0 W3 2.140647 1_555
O0 Rb0 2.929324 1_555
O0 Rb1 2.957863 1_565
O1 W1 1.880141 1_555
O1 W2 2.140647 1_555
O1 Rb1 2.929324 1_555
O1 Rb0 2.957863 1_545
O2 W2 1.880141 1_555
O2 W1 2.140647 1_556
O2 Rb0 2.929324 1_555
O2 Rb1 2.957863 1_456
O3 W3 1.880141 1_555
O3 W0 2.140647 1_554
O3 Rb1 2.929324 1_555
O3 Rb0 2.957863 1_654
O4 W2 1.859183 1_555
O4 Rb0 3.099975 1_545
O5 W3 1.859183 1_555
O5 Rb1 3.099975 1_565
O6 W0 1.859183 1_555
O6 Rb0 3.099975 1_655
O7 W1 1.859183 1_555
O7 Rb1 3.099975 1_455
O8 W1 2.023962 1_556
O8 W0 2.109593 1_555
O8 Rb1 3.042713 1_556
O9 W0 2.023962 1_554
O9 W1 2.109593 1_555
O9 Rb0 3.042713 1_554
O10 W3 2.023962 1_555
O10 W2 2.109593 1_555
O10 Rb1 3.042713 1_555
O11 W2 2.023962 1_555
O11 W3 2.109593 1_555
O11 Rb0 3.042713 1_555
O12 W0 1.836353 1_555
O12 Rb1 2.905079 1_565
O13 W1 1.836353 1_555
O13 Rb0 2.905079 1_545
O14 W2 1.836353 1_555
O14 Rb1 2.905079 1_456
O15 W3 1.836353 1_555
O15 Rb0 2.905079 1_654
