# generated using pymatgen
data_Mn
_symmetry_space_group_name_H-M   'P 1'
_cell_length_a   7.88491236
_cell_length_b   7.88491236
_cell_length_c   7.88491236
_cell_angle_alpha   60.00000000
_cell_angle_beta   60.00000000
_cell_angle_gamma   60.00000000
_symmetry_Int_Tables_number   1
_chemical_formula_structural   Mn
_chemical_formula_sum   Mn22
_cell_volume   346.63755608
_cell_formula_units_Z   22
loop_
 _symmetry_equiv_pos_site_id
 _symmetry_equiv_pos_as_xyz
  1  'x, y, z'
loop_
 _atom_site_type_symbol
 _atom_site_label
 _atom_site_symmetry_multiplicity
 _atom_site_fract_x
 _atom_site_fract_y
 _atom_site_fract_z
 _atom_site_occupancy
  Mn  Mn0  1  0.89990900  0.36669700  0.36669700  1
  Mn  Mn1  1  0.36669700  0.89990900  0.36669700  1
  Mn  Mn2  1  0.36669700  0.36669700  0.89990900  1
  Mn  Mn3  1  0.36669700  0.36669700  0.36669700  1
  Mn  Mn4  1  0.51803500  0.16065500  0.16065500  1
  Mn  Mn5  1  0.16065500  0.51803500  0.16065500  1
  Mn  Mn6  1  0.16065500  0.16065500  0.51803500  1
  Mn  Mn7  1  0.16065500  0.16065500  0.16065500  1
  Mn  Mn8  1  0.27965900  0.57344700  0.57344700  1
  Mn  Mn9  1  0.57344700  0.27965900  0.57344700  1
  Mn  Mn10  1  0.57344700  0.57344700  0.27965900  1
  Mn  Mn11  1  0.57344700  0.57344700  0.57344700  1
  Mn  Mn12  1  0.97806000  0.67398000  0.67398000  1
  Mn  Mn13  1  0.67398000  0.97806000  0.67398000  1
  Mn  Mn14  1  0.67398000  0.67398000  0.97806000  1
  Mn  Mn15  1  0.67398000  0.67398000  0.67398000  1
  Mn  Mn16  1  0.19843900  0.80156100  0.19843900  1
  Mn  Mn17  1  0.19843900  0.80156100  0.80156100  1
  Mn  Mn18  1  0.19843900  0.19843900  0.80156100  1
  Mn  Mn19  1  0.80156100  0.19843900  0.80156100  1
  Mn  Mn20  1  0.80156100  0.19843900  0.19843900  1
  Mn  Mn21  1  0.80156100  0.80156100  0.19843900  1
loop_
_geom_bond_atom_site_label_1
_geom_bond_atom_site_label_2
_geom_bond_distance
_geom_bond_site_symmetry_2
Mn0 Mn6 2.337702 1_655
Mn0 Mn7 2.337702 1_655
Mn0 Mn5 2.337702 1_655
Mn0 Mn10 2.491209 1_555
Mn0 Mn9 2.491209 1_555
Mn0 Mn11 2.491209 1_555
Mn0 Mn20 2.817687 1_555
Mn0 Mn21 2.817687 1_555
Mn0 Mn19 2.817687 1_555
Mn1 Mn4 2.337702 1_565
Mn1 Mn6 2.337702 1_565
Mn1 Mn7 2.337702 1_565
Mn1 Mn10 2.491209 1_555
Mn1 Mn8 2.491209 1_555
Mn1 Mn11 2.491209 1_555
Mn1 Mn21 2.817687 1_555
Mn1 Mn16 2.817687 1_555
Mn1 Mn17 2.817687 1_555
Mn2 Mn4 2.337702 1_556
Mn2 Mn5 2.337702 1_556
Mn2 Mn7 2.337702 1_556
Mn2 Mn8 2.491209 1_555
Mn2 Mn9 2.491209 1_555
Mn3 Mn6 2.337702 1_555
Mn3 Mn4 2.337702 1_555
Mn3 Mn5 2.337702 1_555
Mn3 Mn8 2.491209 1_555
Mn3 Mn9 2.491209 1_555
Mn8 Mn9 2.316493 1_555
Mn10 Mn14 1.941696 1_554
Mn10 Mn8 2.316493 1_555
Mn10 Mn11 2.316493 1_555
Mn10 Mn9 2.316493 1_555
Mn10 Mn3 2.491209 1_555
Mn10 Mn21 2.794974 1_555
Mn10 Mn16 2.794974 1_555
Mn10 Mn20 2.794974 1_555
Mn11 Mn15 1.941696 1_555
Mn11 Mn8 2.316493 1_555
Mn11 Mn9 2.316493 1_555
Mn11 Mn2 2.491209 1_555
Mn11 Mn21 2.794974 1_555
Mn11 Mn19 2.794974 1_555
Mn11 Mn17 2.794974 1_555
Mn12 Mn8 1.941696 1_655
Mn12 Mn17 3.090544 1_655
Mn12 Mn18 3.090544 1_655
Mn12 Mn16 3.090544 1_655
Mn13 Mn9 1.941696 1_565
Mn13 Mn19 3.090544 1_565
Mn13 Mn18 3.090544 1_565
Mn13 Mn20 3.090544 1_565
Mn14 Mn21 3.090544 1_556
Mn14 Mn20 3.090544 1_556
Mn14 Mn16 3.090544 1_556
Mn15 Mn21 3.090544 1_555
Mn15 Mn17 3.090544 1_555
Mn15 Mn19 3.090544 1_555
Mn16 Mn5 2.568296 1_555
Mn16 Mn7 2.568296 1_565
Mn16 Mn8 2.794974 1_555
Mn16 Mn3 2.817687 1_555
Mn16 Mn18 3.129348 1_564
Mn16 Mn17 3.129348 1_554
Mn16 Mn21 3.129348 1_455
Mn16 Mn20 3.129348 1_465
Mn17 Mn6 2.568296 1_565
Mn17 Mn5 2.568296 1_556
Mn17 Mn8 2.794974 1_555
Mn17 Mn2 2.817687 1_555
Mn17 Mn21 3.129348 1_456
Mn17 Mn19 3.129348 1_465
Mn17 Mn18 3.129348 1_565
Mn18 Mn6 2.568296 1_555
Mn18 Mn7 2.568296 1_556
Mn18 Mn8 2.794974 1_555
Mn18 Mn9 2.794974 1_555
Mn18 Mn2 2.817687 1_555
Mn18 Mn3 2.817687 1_555
Mn18 Mn19 3.129348 1_455
Mn18 Mn20 3.129348 1_456
Mn19 Mn4 2.568296 1_556
Mn19 Mn6 2.568296 1_655
Mn19 Mn9 2.794974 1_555
Mn19 Mn2 2.817687 1_555
Mn19 Mn21 3.129348 1_546
Mn19 Mn20 3.129348 1_556
Mn20 Mn4 2.568296 1_555
Mn20 Mn7 2.568296 1_655
Mn20 Mn9 2.794974 1_555
Mn20 Mn3 2.817687 1_555
Mn20 Mn21 3.129348 1_545
Mn21 Mn4 2.568296 1_565
Mn21 Mn5 2.568296 1_655
