# generated using pymatgen
data_Mg2Cr3MoS8
_symmetry_space_group_name_H-M   'P 1'
_cell_length_a   7.31028030
_cell_length_b   7.31040788
_cell_length_c   7.31023768
_cell_angle_alpha   59.59244029
_cell_angle_beta   59.59049693
_cell_angle_gamma   59.59415064
_symmetry_Int_Tables_number   1
_chemical_formula_structural   Mg2Cr3MoS8
_chemical_formula_sum   'Mg2 Cr3 Mo1 S8'
_cell_volume   273.68399403
_cell_formula_units_Z   1
loop_
 _symmetry_equiv_pos_site_id
 _symmetry_equiv_pos_as_xyz
  1  'x, y, z'
loop_
 _atom_site_type_symbol
 _atom_site_label
 _atom_site_symmetry_multiplicity
 _atom_site_fract_x
 _atom_site_fract_y
 _atom_site_fract_z
 _atom_site_occupancy
  Mg  Mg0  1  0.87444848  0.87446879  0.87446835  1
  Mg  Mg1  1  0.12553364  0.12551579  0.12553368  1
  Cr  Cr0  1  0.50015853  0.49993679  0.00001819  1
  Cr  Cr1  1  0.99985111  0.50008565  0.50025251  1
  Cr  Cr2  1  0.50006301  0.00007362  0.49974929  1
  Mo  Mo0  1  0.49999714  0.49999776  0.49997878  1
  S  S0  1  0.73640579  0.73637838  0.73639477  1
  S  S1  1  0.25850984  0.25852780  0.71245757  1
  S  S2  1  0.25851987  0.71244866  0.25852035  1
  S  S3  1  0.71245145  0.25852051  0.25850436  1
  S  S4  1  0.74145470  0.28753667  0.74147471  1
  S  S5  1  0.28752856  0.74145725  0.74148629  1
  S  S6  1  0.26359840  0.26356909  0.26362083  1
  S  S7  1  0.74148349  0.74147823  0.28754133  1
loop_
_geom_bond_atom_site_label_1
_geom_bond_atom_site_label_2
_geom_bond_distance
_geom_bond_site_symmetry_2
Mg0 S7 2.453911 1_556
Mg0 S5 2.454002 1_655
Mg0 S4 2.454020 1_565
Mg0 S0 2.479923 1_555
Mg1 S1 2.453923 1_554
Mg1 S2 2.454018 1_545
Mg1 S3 2.454018 1_455
Mg1 S6 2.479915 1_555
Cr0 S3 2.431904 1_555
Cr0 S4 2.432666 1_554
Cr0 S2 2.433011 1_555
Cr0 S5 2.433793 1_554
Cr0 S0 2.442240 1_554
Cr0 S6 2.443393 1_555
Cr1 S1 2.432420 1_655
Cr1 S4 2.432545 1_555
Cr1 S2 2.433135 1_655
Cr1 S7 2.433308 1_555
Cr1 S0 2.440970 1_555
Cr1 S6 2.444604 1_655
Cr2 S7 2.432041 1_545
Cr2 S3 2.432050 1_555
Cr2 S5 2.433700 1_545
Cr2 S1 2.433723 1_555
Cr2 S6 2.441825 1_555
Cr2 S0 2.443855 1_545
Mo0 S2 2.499602 1_555
Mo0 S1 2.499606 1_555
Mo0 S3 2.499644 1_555
Mo0 S7 2.499687 1_555
Mo0 S4 2.499693 1_555
Mo0 S5 2.499718 1_555
