# generated using pymatgen
data_CrN2
_symmetry_space_group_name_H-M   'P 1'
_cell_length_a   5.54336900
_cell_length_b   6.03780782
_cell_length_c   6.84007736
_cell_angle_alpha   116.05689007
_cell_angle_beta   88.74332655
_cell_angle_gamma   98.42317353
_symmetry_Int_Tables_number   1
_chemical_formula_structural   CrN2
_chemical_formula_sum   'Cr4 N8'
_cell_volume   203.21622745
_cell_formula_units_Z   4
loop_
 _symmetry_equiv_pos_site_id
 _symmetry_equiv_pos_as_xyz
  1  'x, y, z'
loop_
 _atom_site_type_symbol
 _atom_site_label
 _atom_site_symmetry_multiplicity
 _atom_site_fract_x
 _atom_site_fract_y
 _atom_site_fract_z
 _atom_site_occupancy
  Cr  Cr0  1  0.79455500  0.51231700  0.36337800  1
  Cr  Cr1  1  0.95756000  0.52970800  0.79476600  1
  Cr  Cr2  1  0.30093600  0.67699700  0.00948300  1
  Cr  Cr3  1  0.72609800  0.04218700  0.79121000  1
  N  N0  1  0.98728400  0.64497400  0.11234600  1
  N  N1  1  0.26658500  0.51047200  0.84543300  1
  N  N2  1  0.51835800  0.57263500  0.21980400  1
  N  N3  1  0.82792000  0.21439400  0.92892800  1
  N  N4  1  0.88579200  0.67338500  0.51879300  1
  N  N5  1  0.89097300  0.74772500  0.90887400  1
  N  N6  1  0.41368800  0.97109100  0.82893600  1
  N  N7  1  0.77763200  0.19521600  0.51442800  1
loop_
_geom_bond_atom_site_label_1
_geom_bond_atom_site_label_2
_geom_bond_distance
_geom_bond_site_symmetry_2
Cr0 N4 1.141436 1_555
Cr0 N2 1.996181 1_555
Cr0 N0 2.368203 1_555
Cr0 N7 2.534354 1_555
Cr1 N5 1.305871 1_555
Cr1 N1 1.785439 1_655
Cr1 N0 1.970841 1_556
Cr1 N7 2.200468 1_555
Cr2 N1 1.126245 1_554
Cr2 N0 1.876920 1_455
Cr2 N2 2.239242 1_555
Cr3 N3 1.130468 1_555
Cr3 N6 1.763498 1_545
Cr3 N7 2.440342 1_555
N0 N5 1.869521 1_554
