# generated using pymatgen
data_Nb3Re3B4
_symmetry_space_group_name_H-M   'P 1'
_cell_length_a   6.31701101
_cell_length_b   6.31701101
_cell_length_c   3.11272000
_cell_angle_alpha   90.00000000
_cell_angle_beta   90.00000000
_cell_angle_gamma   99.32525027
_symmetry_Int_Tables_number   1
_chemical_formula_structural   Nb3Re3B4
_chemical_formula_sum   'Nb3 Re3 B4'
_cell_volume   122.57039902
_cell_formula_units_Z   1
loop_
 _symmetry_equiv_pos_site_id
 _symmetry_equiv_pos_as_xyz
  1  'x, y, z'
loop_
 _atom_site_type_symbol
 _atom_site_label
 _atom_site_symmetry_multiplicity
 _atom_site_fract_x
 _atom_site_fract_y
 _atom_site_fract_z
 _atom_site_occupancy
  Nb  Nb0  1  0.46487300  0.94532700  0.00000000  1
  Nb  Nb1  1  0.05467300  0.53512700  0.00000000  1
  Nb  Nb2  1  0.81399200  0.18600800  0.50000000  1
  Re  Re0  1  0.10804300  0.89195700  0.50000000  1
  Re  Re1  1  0.69504700  0.65189700  0.50000000  1
  Re  Re2  1  0.34810300  0.30495300  0.50000000  1
  B  B0  1  0.43224800  0.56775200  0.00000000  1
  B  B1  1  0.62394600  0.37605400  0.00000000  1
  B  B2  1  0.10133600  0.14225900  0.00000000  1
  B  B3  1  0.85774100  0.89866400  0.00000000  1
loop_
_geom_bond_atom_site_label_1
_geom_bond_atom_site_label_2
_geom_bond_distance
_geom_bond_site_symmetry_2
Nb0 Re0 2.714885 1_554
Nb0 Re0 2.714885 1_555
Nb1 Re0 2.714885 1_555
Nb1 Re0 2.714885 1_554
B0 B1 1.846097 1_555
B0 Re1 2.274812 1_555
B0 Re1 2.274812 1_554
B0 Re2 2.274812 1_554
B0 Re2 2.274812 1_555
B0 Nb1 2.360527 1_555
B0 Nb0 2.360527 1_555
B1 Re1 2.325225 1_555
B1 Re1 2.325225 1_554
B1 Re2 2.325225 1_554
B1 Re2 2.325225 1_555
B1 Nb2 2.402466 1_555
B1 Nb2 2.402466 1_554
B1 Nb1 2.743541 1_655
B1 Nb0 2.743541 1_545
B2 B3 1.992081 1_445
B2 Re0 2.223922 1_545
B2 Re0 2.223922 1_544
B2 Re2 2.321478 1_554
B2 Re2 2.321478 1_555
B2 Nb2 2.440490 1_454
B2 Nb2 2.440490 1_455
B2 Nb1 2.546185 1_555
B2 Nb0 2.783378 1_545
B3 Re0 2.223922 1_654
B3 Re0 2.223922 1_655
B3 Re1 2.321478 1_555
B3 Re1 2.321478 1_554
B3 Nb2 2.440490 1_565
B3 Nb2 2.440490 1_564
B3 Nb0 2.546185 1_555
B3 Nb1 2.783378 1_655
