# generated using pymatgen
data_Eu2ZnGe3
_symmetry_space_group_name_H-M   'P 1'
_cell_length_a   4.24159271
_cell_length_b   4.24159271
_cell_length_c   17.86911257
_cell_angle_alpha   90.00000000
_cell_angle_beta   90.00000000
_cell_angle_gamma   119.99697262
_symmetry_Int_Tables_number   1
_chemical_formula_structural   Eu2ZnGe3
_chemical_formula_sum   'Eu4 Zn2 Ge6'
_cell_volume   278.42279722
_cell_formula_units_Z   2
loop_
 _symmetry_equiv_pos_site_id
 _symmetry_equiv_pos_as_xyz
  1  'x, y, z'
loop_
 _atom_site_type_symbol
 _atom_site_label
 _atom_site_symmetry_multiplicity
 _atom_site_fract_x
 _atom_site_fract_y
 _atom_site_fract_z
 _atom_site_occupancy
  Eu  Eu0  1  0.00000485  -0.00000485  0.62901734  1
  Eu  Eu1  1  -0.00000485  0.00000485  0.37098266  1
  Eu  Eu2  1  -0.00000485  0.00000485  0.12901734  1
  Eu  Eu3  1  0.00000485  -0.00000485  0.87098266  1
  Zn  Zn0  1  0.66669021  0.33330979  0.75000000  1
  Zn  Zn1  1  0.33330979  0.66669021  0.25000000  1
  Ge  Ge0  1  0.66664391  0.33335609  0.25000000  1
  Ge  Ge1  1  0.33335609  0.66664391  0.75000000  1
  Ge  Ge2  1  0.66666904  0.33333096  0.52458113  1
  Ge  Ge3  1  0.33333096  0.66666904  0.47541887  1
  Ge  Ge4  1  0.33333096  0.66666904  0.02458113  1
  Ge  Ge5  1  0.66666904  0.33333096  0.97541887  1
loop_
_geom_bond_atom_site_label_1
_geom_bond_atom_site_label_2
_geom_bond_distance
_geom_bond_site_symmetry_2
Eu0 Ge2 3.078893 1_455
Eu0 Ge2 3.078960 1_445
Eu0 Ge2 3.078960 1_555
Eu0 Zn0 3.266464 1_455
Eu0 Ge1 3.266602 1_445
Eu0 Ge1 3.266602 1_555
Eu0 Ge1 3.266666 1_545
Eu0 Zn0 3.266703 1_445
Eu0 Zn0 3.266703 1_555
Eu1 Ge3 3.078893 1_545
Eu1 Ge3 3.078960 1_445
Eu1 Ge3 3.078960 1_555
Eu1 Zn1 3.266464 1_545
Eu1 Ge0 3.266602 1_555
Eu1 Ge0 3.266602 1_445
Eu1 Ge0 3.266666 1_455
Eu1 Zn1 3.266703 1_445
Eu1 Zn1 3.266703 1_555
Eu2 Ge4 3.078893 1_545
Eu2 Ge4 3.078960 1_445
Eu2 Ge4 3.078960 1_555
Eu2 Zn1 3.266464 1_545
Eu2 Ge0 3.266602 1_445
Eu2 Ge0 3.266602 1_555
Eu2 Ge0 3.266666 1_455
Eu2 Zn1 3.266703 1_445
Eu2 Zn1 3.266703 1_555
Eu3 Ge5 3.078893 1_455
Eu3 Ge5 3.078960 1_555
Eu3 Ge5 3.078960 1_445
Eu3 Zn0 3.266464 1_455
Eu3 Ge1 3.266602 1_445
Eu3 Ge1 3.266602 1_555
Eu3 Ge1 3.266666 1_545
Eu3 Zn0 3.266703 1_445
Eu3 Zn0 3.266703 1_555
Ge0 Zn1 2.448853 1_555
Ge0 Zn1 2.448957 1_545
Ge0 Zn1 2.448957 1_655
Ge1 Zn0 2.448853 1_555
Ge1 Zn0 2.448957 1_565
Ge1 Zn0 2.448957 1_455
Ge2 Ge3 2.601684 1_555
Ge2 Ge3 2.601741 1_545
Ge2 Ge3 2.601741 1_655
Ge4 Ge5 2.601684 1_554
Ge4 Ge5 2.601741 1_454
Ge4 Ge5 2.601741 1_564
