# generated using pymatgen
data_Ho2Te3
_symmetry_space_group_name_H-M   'P 1'
_cell_length_a   7.51904753
_cell_length_b   7.51904753
_cell_length_c   13.71587448
_cell_angle_alpha   100.56234025
_cell_angle_beta   100.56234025
_cell_angle_gamma   109.34449895
_symmetry_Int_Tables_number   1
_chemical_formula_structural   Ho2Te3
_chemical_formula_sum   'Ho8 Te12'
_cell_volume   693.92859914
_cell_formula_units_Z   4
loop_
 _symmetry_equiv_pos_site_id
 _symmetry_equiv_pos_as_xyz
  1  'x, y, z'
loop_
 _atom_site_type_symbol
 _atom_site_label
 _atom_site_symmetry_multiplicity
 _atom_site_fract_x
 _atom_site_fract_y
 _atom_site_fract_z
 _atom_site_occupancy
  Ho  Ho0  1  0.70808990  0.95808990  0.91617879  1
  Ho  Ho1  1  0.54191010  0.79191010  0.58382121  1
  Ho  Ho2  1  0.29191010  0.04191010  0.08382121  1
  Ho  Ho3  1  0.45808990  0.20808990  0.41617879  1
  Ho  Ho4  1  0.37430535  0.62430535  0.24860969  1
  Ho  Ho5  1  0.87569465  0.12569465  0.25139031  1
  Ho  Ho6  1  0.62569465  0.37569465  0.75139031  1
  Ho  Ho7  1  0.12430535  0.87430535  0.74860969  1
  Te  Te0  1  0.87465483  0.12465483  0.75000000  1
  Te  Te1  1  0.37534517  0.62534517  0.75000000  1
  Te  Te2  1  0.12534517  0.87534517  0.25000000  1
  Te  Te3  1  0.62465483  0.37465483  0.25000000  1
  Te  Te4  1  0.54393147  0.79563651  0.08496712  1
  Te  Te5  1  0.70436349  0.95606853  0.41503288  1
  Te  Te6  1  0.21067039  0.45896535  0.41503288  1
  Te  Te7  1  0.04103465  0.28933061  0.08496712  1
  Te  Te8  1  0.45606853  0.20436349  0.91503288  1
  Te  Te9  1  0.29563651  0.04393147  0.58496712  1
  Te  Te10  1  0.78932961  0.54103465  0.58496712  1
  Te  Te11  1  0.95896535  0.71067039  0.91503288  1
loop_
_geom_bond_atom_site_label_1
_geom_bond_atom_site_label_2
_geom_bond_distance
_geom_bond_site_symmetry_2
Ho0 Te11 3.056878 1_555
Ho0 Te8 3.056878 1_565
Ho0 Te0 3.063678 1_565
Ho0 Te1 3.063684 1_555
Ho0 Te7 3.075808 1_666
Ho0 Te4 3.075817 1_556
Ho1 Te10 3.056878 1_555
Ho1 Te9 3.056878 1_565
Ho1 Te1 3.063678 1_555
Ho1 Te0 3.063684 1_565
Ho1 Te6 3.075805 1_555
Ho1 Te5 3.075817 1_555
Ho2 Te4 3.056878 1_545
Ho2 Te7 3.056885 1_555
Ho2 Te2 3.063678 1_545
Ho2 Te3 3.063684 1_555
Ho2 Te11 3.075805 1_444
Ho2 Te8 3.075817 1_554
Ho3 Te6 3.056878 1_555
Ho3 Te5 3.056878 1_545
Ho3 Te3 3.063678 1_555
Ho3 Te2 3.063684 1_545
Ho3 Te10 3.075805 1_555
Ho3 Te9 3.075817 1_555
Ho4 Te5 3.053924 1_555
Ho4 Te6 3.053924 1_555
Ho4 Te4 3.056975 1_555
Ho4 Te7 3.056984 1_555
Ho4 Te2 3.067291 1_555
Ho4 Te3 3.067291 1_555
Ho5 Te4 3.053924 1_545
Ho5 Te7 3.053927 1_655
Ho5 Te5 3.056975 1_545
Ho5 Te6 3.056987 1_655
Ho5 Te3 3.067291 1_555
Ho5 Te2 3.067291 1_645
Ho6 Te9 3.053924 1_555
Ho6 Te10 3.053924 1_555
Ho6 Te8 3.056975 1_555
Ho6 Te11 3.056987 1_555
Ho6 Te0 3.067291 1_555
Ho6 Te1 3.067291 1_555
Ho7 Te8 3.053924 1_565
Ho7 Te11 3.053924 1_455
Ho7 Te9 3.056975 1_565
Ho7 Te10 3.056987 1_455
Ho7 Te1 3.067291 1_555
Ho7 Te0 3.067291 1_465
