# generated using pymatgen
data_Tb5BiPd2
_symmetry_space_group_name_H-M   'P 1'
_cell_length_a   8.85070798
_cell_length_b   8.85070798
_cell_length_c   8.85070798
_cell_angle_alpha   127.12358216
_cell_angle_beta   127.12358216
_cell_angle_gamma   78.04915633
_symmetry_Int_Tables_number   1
_chemical_formula_structural   Tb5BiPd2
_chemical_formula_sum   'Tb10 Bi2 Pd4'
_cell_volume   427.08982487
_cell_formula_units_Z   2
loop_
 _symmetry_equiv_pos_site_id
 _symmetry_equiv_pos_as_xyz
  1  'x, y, z'
loop_
 _atom_site_type_symbol
 _atom_site_label
 _atom_site_symmetry_multiplicity
 _atom_site_fract_x
 _atom_site_fract_y
 _atom_site_fract_z
 _atom_site_occupancy
  Tb  Tb0  1  0.00000000  0.00000000  0.00000000  1
  Tb  Tb1  1  0.50000000  0.50000000  0.00000000  1
  Tb  Tb2  1  0.79528400  0.29528400  0.81088400  1
  Tb  Tb3  1  0.20471600  0.70471600  0.18911600  1
  Tb  Tb4  1  0.48440000  0.98440000  0.18911600  1
  Tb  Tb5  1  0.29528400  0.48440000  0.50000000  1
  Tb  Tb6  1  0.01560000  0.20471600  0.50000000  1
  Tb  Tb7  1  0.51560000  0.01560000  0.81088400  1
  Tb  Tb8  1  0.70471600  0.51560000  0.50000000  1
  Tb  Tb9  1  0.98440000  0.79528400  0.50000000  1
  Bi  Bi0  1  0.25000000  0.25000000  0.00000000  1
  Bi  Bi1  1  0.75000000  0.75000000  0.00000000  1
  Pd  Pd0  1  0.13576900  0.63576900  0.77153800  1
  Pd  Pd1  1  0.86423100  0.36423100  0.22846200  1
  Pd  Pd2  1  0.63576900  0.86423100  0.50000000  1
  Pd  Pd3  1  0.36423100  0.13576900  0.50000000  1
loop_
_geom_bond_atom_site_label_1
_geom_bond_atom_site_label_2
_geom_bond_distance
_geom_bond_site_symmetry_2
Tb0 Tb3 3.545876 1_545
Tb0 Tb7 3.545876 1_454
Tb0 Tb8 3.545876 1_444
Tb0 Tb5 3.545876 1_555
Tb0 Tb9 3.545876 1_444
Tb0 Tb6 3.545876 1_555
Tb0 Tb4 3.545876 1_545
Tb0 Tb2 3.545876 1_454
Tb1 Tb7 3.545876 1_554
Tb1 Tb8 3.545876 1_555
Tb1 Tb5 3.545876 1_554
Tb1 Tb9 3.545876 1_555
Tb1 Tb6 3.545876 1_554
Tb1 Tb4 3.545876 1_555
Tb1 Tb3 3.545876 1_555
Tb1 Tb2 3.545876 1_554
Tb2 Tb4 3.465039 1_545
Tb2 Tb3 3.690845 1_656
Tb2 Tb6 3.896484 1_655
Tb2 Tb8 3.896484 1_555
Tb3 Tb7 3.465039 1_565
Tb3 Tb9 3.896484 1_455
Tb3 Tb5 3.896484 1_555
Tb4 Tb7 3.690845 1_564
Tb4 Tb6 3.896484 1_665
Tb4 Tb8 3.896484 1_565
Tb5 Tb9 3.465039 1_455
Tb5 Tb8 3.690845 1_555
Tb5 Tb7 3.896484 1_565
Tb6 Tb8 3.465039 1_455
Tb6 Tb9 3.690845 1_445
Tb7 Tb9 3.896484 1_445
Bi0 Tb4 3.342130 1_545
Bi0 Tb6 3.342130 1_554
Bi0 Tb2 3.342130 1_454
Bi0 Tb9 3.342130 1_444
Bi0 Tb5 3.342130 1_555
Bi0 Tb8 3.342130 1_555
Bi0 Tb3 3.342130 1_555
Bi0 Tb7 3.342130 1_554
Bi0 Tb0 3.437951 1_555
Bi0 Tb1 3.437951 1_555
Bi1 Tb3 3.342130 1_655
Bi1 Tb4 3.342130 1_555
Bi1 Tb6 3.342130 1_665
Bi1 Tb2 3.342130 1_554
Bi1 Tb8 3.342130 1_554
Bi1 Tb9 3.342130 1_555
Bi1 Tb5 3.342130 1_554
Bi1 Tb7 3.342130 1_564
Bi1 Tb0 3.437951 1_665
Bi1 Tb1 3.437951 1_555
Pd0 Tb8 2.998297 1_455
Pd0 Tb5 2.998297 1_555
Pd0 Tb6 2.998297 1_555
Pd0 Tb9 2.998297 1_455
Pd0 Tb3 3.018889 1_556
Pd0 Tb4 3.018889 1_556
Pd0 Pd1 3.026498 1_455
Pd0 Tb1 3.063538 1_556
Pd0 Tb0 3.063538 1_566
Pd1 Tb8 2.998297 1_555
Pd1 Tb6 2.998297 1_655
Pd1 Tb5 2.998297 1_655
Pd1 Tb9 2.998297 1_555
Pd1 Tb7 3.018889 1_554
Pd1 Tb2 3.018889 1_554
Pd1 Tb0 3.063538 1_655
Pd1 Tb1 3.063538 1_555
Pd2 Tb7 2.998297 1_565
Pd2 Tb3 2.998297 1_555
Pd2 Tb2 2.998297 1_565
Pd2 Tb4 2.998297 1_555
Pd2 Tb8 3.018889 1_555
Pd2 Tb9 3.018889 1_555
Pd2 Pd3 3.026498 1_565
Pd2 Tb0 3.063538 1_666
Pd2 Tb1 3.063538 1_555
Pd3 Tb7 2.998297 1_555
Pd3 Tb3 2.998297 1_545
Pd3 Tb2 2.998297 1_555
Pd3 Tb4 2.998297 1_545
Pd3 Tb6 3.018889 1_555
Pd3 Tb5 3.018889 1_555
Pd3 Tb0 3.063538 1_555
Pd3 Tb1 3.063538 1_556
