# generated using pymatgen
data_NaMg6Cd
_symmetry_space_group_name_H-M   'P 1'
_cell_length_a   5.24288700
_cell_length_b   6.45843900
_cell_length_c   11.10510300
_cell_angle_alpha   90.00000000
_cell_angle_beta   90.00000000
_cell_angle_gamma   90.00000000
_symmetry_Int_Tables_number   1
_chemical_formula_structural   NaMg6Cd
_chemical_formula_sum   'Na2 Mg12 Cd2'
_cell_volume   376.02840319
_cell_formula_units_Z   2
loop_
 _symmetry_equiv_pos_site_id
 _symmetry_equiv_pos_as_xyz
  1  'x, y, z'
loop_
 _atom_site_type_symbol
 _atom_site_label
 _atom_site_symmetry_multiplicity
 _atom_site_fract_x
 _atom_site_fract_y
 _atom_site_fract_z
 _atom_site_occupancy
  Na  Na0  1  0.00000000  0.50000000  0.33255300  1
  Na  Na1  1  0.00000000  0.00000000  0.83255300  1
  Mg  Mg0  1  0.00000000  0.25133700  0.08317100  1
  Mg  Mg1  1  0.00000000  0.74866300  0.08317100  1
  Mg  Mg2  1  0.00000000  0.50000000  0.83425200  1
  Mg  Mg3  1  0.50000000  0.25245100  0.91706800  1
  Mg  Mg4  1  0.50000000  0.74754900  0.91706800  1
  Mg  Mg5  1  0.50000000  0.50000000  0.66686900  1
  Mg  Mg6  1  0.00000000  0.75133700  0.58317100  1
  Mg  Mg7  1  0.00000000  0.24866300  0.58317100  1
  Mg  Mg8  1  0.00000000  0.00000000  0.33425200  1
  Mg  Mg9  1  0.50000000  0.75245100  0.41706800  1
  Mg  Mg10  1  0.50000000  0.24754900  0.41706800  1
  Mg  Mg11  1  0.50000000  0.00000000  0.16686900  1
  Cd  Cd0  1  0.50000000  0.50000000  0.16584800  1
  Cd  Cd1  1  0.50000000  0.00000000  0.66584800  1
loop_
_geom_bond_atom_site_label_1
_geom_bond_atom_site_label_2
_geom_bond_distance
_geom_bond_site_symmetry_2
Mg0 Mg2 3.196928 1_554
Mg0 Na0 3.201375 1_555
Mg0 Mg3 3.205391 1_554
Mg0 Mg3 3.205391 1_454
Mg0 Mg1 3.211950 1_555
Mg0 Mg11 3.220375 1_455
Mg0 Mg11 3.220375 1_555
Mg0 Na1 3.221922 1_554
Mg0 Mg8 3.226365 1_555
Mg0 Mg1 3.246489 1_545
Mg1 Mg2 3.196928 1_554
Mg1 Na0 3.201375 1_555
Mg1 Mg4 3.205391 1_554
Mg1 Mg4 3.205391 1_454
Mg1 Mg11 3.220375 1_465
Mg1 Mg11 3.220375 1_565
Mg1 Na1 3.221922 1_564
Mg1 Mg8 3.226365 1_565
Mg2 Mg3 3.205289 1_555
Mg2 Mg4 3.205289 1_555
Mg2 Mg3 3.205289 1_455
Mg2 Mg4 3.205289 1_455
Mg2 Mg5 3.213584 1_455
Mg2 Mg5 3.213584 1_555
Mg2 Mg6 3.226365 1_555
Mg2 Mg7 3.226365 1_555
Mg2 Na1 3.229275 1_555
Mg2 Na1 3.229275 1_565
Mg3 Mg4 3.197560 1_555
Mg3 Mg5 3.205633 1_555
Mg3 Na1 3.226635 1_655
Mg3 Na1 3.226635 1_555
Mg3 Mg4 3.260879 1_545
Mg4 Mg5 3.205633 1_555
Mg4 Na1 3.226635 1_565
Mg4 Na1 3.226635 1_665
Mg5 Mg9 3.217728 1_555
Mg5 Mg6 3.220375 1_555
Mg5 Mg6 3.220375 1_655
Mg5 Mg7 3.220375 1_655
Mg5 Mg7 3.220375 1_555
Mg6 Mg8 3.196928 1_565
Mg6 Na1 3.201375 1_565
Mg6 Mg9 3.205391 1_455
Mg6 Mg9 3.205391 1_555
Mg6 Mg7 3.211950 1_565
Mg6 Na0 3.221922 1_555
Mg6 Mg7 3.246489 1_555
Mg7 Mg8 3.196928 1_555
Mg7 Na1 3.201375 1_555
Mg7 Na0 3.221922 1_555
Mg8 Mg9 3.205289 1_445
Mg8 Mg9 3.205289 1_545
Mg8 Na0 3.229275 1_555
Mg8 Na0 3.229275 1_545
Mg9 Na0 3.226635 1_555
Mg9 Na0 3.226635 1_655
Mg10 Mg9 3.197560 1_545
Mg10 Mg8 3.205289 1_655
Mg10 Mg8 3.205289 1_555
Mg10 Mg7 3.205391 1_655
Mg10 Mg7 3.205391 1_555
Mg10 Mg11 3.205633 1_555
Mg10 Mg5 3.217728 1_555
Mg10 Na0 3.226635 1_555
Mg10 Na0 3.226635 1_655
Mg10 Mg9 3.260879 1_555
Mg11 Mg9 3.205633 1_545
Mg11 Mg8 3.213584 1_555
Mg11 Mg8 3.213584 1_655
Mg11 Mg4 3.217728 1_544
Mg11 Mg3 3.217728 1_554
Cd0 Mg4 3.191984 1_554
Cd0 Mg3 3.191984 1_554
Cd0 Mg0 3.208441 1_655
Cd0 Mg1 3.208441 1_555
Cd0 Mg1 3.208441 1_655
Cd0 Mg0 3.208441 1_555
Cd0 Na0 3.209235 1_555
Cd0 Na0 3.209235 1_655
Cd0 Mg11 3.229239 1_555
Cd0 Mg11 3.229239 1_565
Cd0 Mg9 3.231323 1_555
Cd0 Mg10 3.231323 1_555
Cd1 Mg10 3.191984 1_555
Cd1 Mg9 3.191984 1_545
Cd1 Mg7 3.208441 1_655
Cd1 Mg7 3.208441 1_555
Cd1 Mg6 3.208441 1_645
Cd1 Mg6 3.208441 1_545
Cd1 Na1 3.209235 1_555
Cd1 Na1 3.209235 1_655
Cd1 Mg5 3.229239 1_545
Cd1 Mg5 3.229239 1_555
Cd1 Mg3 3.231323 1_555
Cd1 Mg4 3.231323 1_545
