# generated using pymatgen
data_Er2Fe17C3
_symmetry_space_group_name_H-M   'P 1'
_cell_length_a   6.48713183
_cell_length_b   6.48713183
_cell_length_c   6.48713133
_cell_angle_alpha   82.84476296
_cell_angle_beta   82.84476296
_cell_angle_gamma   82.84476864
_symmetry_Int_Tables_number   1
_chemical_formula_structural   Er2Fe17C3
_chemical_formula_sum   'Er2 Fe17 C3'
_cell_volume   267.10799804
_cell_formula_units_Z   1
loop_
 _symmetry_equiv_pos_site_id
 _symmetry_equiv_pos_as_xyz
  1  'x, y, z'
loop_
 _atom_site_type_symbol
 _atom_site_label
 _atom_site_symmetry_multiplicity
 _atom_site_fract_x
 _atom_site_fract_y
 _atom_site_fract_z
 _atom_site_occupancy
  Er  Er0  1  0.65818300  0.65818300  0.65818300  1
  Er  Er1  1  0.34181700  0.34181700  0.34181700  1
  Fe  Fe0  1  0.00000000  0.00000000  0.50000000  1
  Fe  Fe1  1  0.50000000  0.00000000  0.00000000  1
  Fe  Fe2  1  0.00000000  0.50000000  0.00000000  1
  Fe  Fe3  1  0.71602000  0.28398000  0.00000000  1
  Fe  Fe4  1  0.00000000  0.71602000  0.28398000  1
  Fe  Fe5  1  0.28398000  0.00000000  0.71602000  1
  Fe  Fe6  1  0.00000000  0.28398000  0.71602000  1
  Fe  Fe7  1  0.71602000  0.00000000  0.28398000  1
  Fe  Fe8  1  0.28398000  0.71602000  0.00000000  1
  Fe  Fe9  1  0.34392100  0.85458500  0.34392100  1
  Fe  Fe10  1  0.34392100  0.34392100  0.85458500  1
  Fe  Fe11  1  0.85458500  0.34392100  0.34392100  1
  Fe  Fe12  1  0.65607900  0.14541500  0.65607900  1
  Fe  Fe13  1  0.65607900  0.65607900  0.14541500  1
  Fe  Fe14  1  0.14541500  0.65607900  0.65607900  1
  Fe  Fe15  1  0.90420200  0.90420200  0.90420200  1
  Fe  Fe16  1  0.09579800  0.09579800  0.09579800  1
  C  C0  1  0.50000000  0.50000000  0.00000000  1
  C  C1  1  0.00000000  0.50000000  0.50000000  1
  C  C2  1  0.50000000  0.00000000  0.50000000  1
loop_
_geom_bond_atom_site_label_1
_geom_bond_atom_site_label_2
_geom_bond_distance
_geom_bond_site_symmetry_2
Er0 Fe15 3.089466 1_555
Er0 Fe0 3.313310 1_665
Er0 Fe2 3.313310 1_656
Er0 Fe1 3.313310 1_566
Er1 Fe16 3.089466 1_555
Er1 Fe0 3.313310 1_555
Er1 Fe1 3.313310 1_555
Er1 Fe2 3.313310 1_555
Fe0 Fe7 2.449624 1_455
Fe0 Fe4 2.449624 1_545
Fe0 Fe5 2.449624 1_555
Fe0 Fe6 2.449624 1_555
Fe0 Fe14 2.458366 1_545
Fe0 Fe12 2.458366 1_455
Fe0 Fe11 2.458366 1_455
Fe0 Fe9 2.458366 1_545
Fe0 Fe15 2.632909 1_445
Fe0 Fe16 2.632909 1_555
Fe1 Fe5 2.449624 1_554
Fe1 Fe7 2.449624 1_555
Fe1 Fe8 2.449624 1_545
Fe1 Fe3 2.449624 1_555
Fe1 Fe12 2.458366 1_554
Fe1 Fe9 2.458366 1_545
Fe1 Fe13 2.458366 1_545
Fe1 Fe10 2.458366 1_554
Fe1 Fe15 2.632909 1_544
Fe1 Fe16 2.632909 1_555
Fe2 Fe6 2.449624 1_554
Fe2 Fe4 2.449624 1_555
Fe2 Fe3 2.449624 1_455
Fe2 Fe8 2.449624 1_555
Fe10 Fe2 2.458366 1_556
Fe10 Fe16 2.649667 1_556
Fe11 Fe2 2.458366 1_655
Fe11 Fe16 2.649667 1_655
Fe12 Fe15 2.649667 1_545
Fe13 Fe2 2.458366 1_655
Fe13 Fe15 2.649667 1_554
Fe14 Fe2 2.458366 1_556
Fe14 Fe15 2.649667 1_455
Fe15 Fe16 2.406031 1_666
Fe15 Fe2 2.632909 1_656
Fe15 Fe4 2.718331 1_656
Fe15 Fe7 2.718331 1_566
Fe15 Fe5 2.718331 1_665
Fe15 Fe6 2.718331 1_665
Fe15 Fe3 2.718331 1_566
Fe15 Fe8 2.718331 1_656
Fe16 Fe2 2.632909 1_555
Fe16 Fe9 2.649667 1_545
Fe16 Fe5 2.718331 1_554
Fe16 Fe6 2.718331 1_554
Fe16 Fe4 2.718331 1_545
Fe16 Fe7 2.718331 1_455
Fe16 Fe3 2.718331 1_455
Fe16 Fe8 2.718331 1_545
C0 Fe3 1.854280 1_555
C0 Fe8 1.854280 1_555
C0 Fe13 1.916104 1_555
C0 Fe10 1.916104 1_554
C0 Er1 2.480229 1_555
C0 Er0 2.480229 1_554
C1 Fe6 1.854280 1_555
C1 Fe4 1.854280 1_555
C1 Fe14 1.916104 1_555
C1 Fe11 1.916104 1_455
C1 Er1 2.480229 1_555
C1 Er0 2.480229 1_455
C2 Fe7 1.854280 1_555
C2 Fe5 1.854280 1_555
C2 Fe12 1.916104 1_555
C2 Fe9 1.916104 1_545
C2 Er0 2.480229 1_545
C2 Er1 2.480229 1_555
