# generated using pymatgen
data_Sc4CoSi7
_symmetry_space_group_name_H-M   'P 1'
_cell_length_a   3.63923000
_cell_length_b   3.86879600
_cell_length_c   14.11568200
_cell_angle_alpha   90.00000000
_cell_angle_beta   90.00000000
_cell_angle_gamma   90.00000000
_symmetry_Int_Tables_number   1
_chemical_formula_structural   Sc4CoSi7
_chemical_formula_sum   'Sc4 Co1 Si7'
_cell_volume   198.74087614
_cell_formula_units_Z   1
loop_
 _symmetry_equiv_pos_site_id
 _symmetry_equiv_pos_as_xyz
  1  'x, y, z'
loop_
 _atom_site_type_symbol
 _atom_site_label
 _atom_site_symmetry_multiplicity
 _atom_site_fract_x
 _atom_site_fract_y
 _atom_site_fract_z
 _atom_site_occupancy
  Sc  Sc0  1  0.00000000  0.00000000  0.10886400  1
  Sc  Sc1  1  0.00000000  0.50000000  0.59633300  1
  Sc  Sc2  1  0.50000000  0.50000000  0.41447400  1
  Sc  Sc3  1  0.50000000  0.00000000  0.89901900  1
  Co  Co0  1  0.00000000  0.00000000  0.40863800  1
  Si  Si0  1  0.00000000  0.50000000  0.27034000  1
  Si  Si1  1  0.00000000  0.00000000  0.74267800  1
  Si  Si2  1  0.50000000  0.00000000  0.27181100  1
  Si  Si3  1  0.50000000  0.50000000  0.75291900  1
  Si  Si4  1  0.00000000  0.50000000  0.94216500  1
  Si  Si5  1  0.50000000  0.50000000  0.05380500  1
  Si  Si6  1  0.50000000  0.00000000  0.53895400  1
loop_
_geom_bond_atom_site_label_1
_geom_bond_atom_site_label_2
_geom_bond_distance
_geom_bond_site_symmetry_2
Sc0 Si5 2.767115 1_445
Sc0 Si5 2.767115 1_545
Sc0 Si5 2.767115 1_555
Sc0 Si5 2.767115 1_455
Sc0 Si2 2.932831 1_555
Sc0 Si2 2.932831 1_455
Sc0 Si0 2.989532 1_545
Sc0 Si0 2.989532 1_555
Sc0 Si4 3.046118 1_554
Sc0 Si4 3.046118 1_544
Sc1 Si6 2.776491 1_455
Sc1 Si6 2.776491 1_565
Sc1 Si6 2.776491 1_555
Sc1 Si6 2.776491 1_465
Sc1 Si1 2.830063 1_565
Sc1 Si1 2.830063 1_555
Sc1 Si3 2.862954 1_555
Sc1 Si3 2.862954 1_455
Sc2 Si6 2.613306 1_565
Sc2 Si6 2.613306 1_555
Sc2 Si0 2.729540 1_555
Sc2 Si0 2.729540 1_655
Sc2 Si2 2.792352 1_565
Sc2 Si2 2.792352 1_555
Sc3 Si4 2.724668 1_645
Sc3 Si4 2.724668 1_545
Sc3 Si4 2.724668 1_555
Sc3 Si4 2.724668 1_655
Sc3 Si3 2.827540 1_545
Sc3 Si3 2.827540 1_555
Sc3 Si1 2.860285 1_655
Sc3 Si1 2.860285 1_555
Sc3 Si5 2.918172 1_546
Sc3 Si5 2.918172 1_556
Co0 Si6 2.587423 1_555
Co0 Si6 2.587423 1_455
Co0 Si2 2.653550 1_455
Co0 Si2 2.653550 1_555
Co0 Sc2 2.657006 1_555
Co0 Sc2 2.657006 1_545
Co0 Sc2 2.657006 1_455
Co0 Sc2 2.657006 1_445
Co0 Si0 2.748248 1_545
Co0 Si0 2.748248 1_555
Co0 Sc1 3.280464 1_545
Co0 Sc1 3.280464 1_555
Si0 Si2 2.655810 1_555
Si0 Si2 2.655810 1_455
Si0 Si2 2.655810 1_465
Si0 Si2 2.655810 1_565
Si1 Si3 2.659660 1_455
Si1 Si3 2.659660 1_555
Si1 Si3 2.659660 1_545
Si1 Si3 2.659660 1_445
Si4 Si5 2.407152 1_456
Si4 Si5 2.407152 1_556
