# generated using pymatgen
data_SrAl2H6C2O11
_symmetry_space_group_name_H-M   'P 1'
_cell_length_a   5.65124000
_cell_length_b   9.16582200
_cell_length_c   16.18138000
_cell_angle_alpha   90.00000000
_cell_angle_beta   90.00000000
_cell_angle_gamma   90.00000000
_symmetry_Int_Tables_number   1
_chemical_formula_structural   SrAl2H6C2O11
_chemical_formula_sum   'Sr4 Al8 H24 C8 O44'
_cell_volume   838.16732709
_cell_formula_units_Z   4
loop_
 _symmetry_equiv_pos_site_id
 _symmetry_equiv_pos_as_xyz
  1  'x, y, z'
loop_
 _atom_site_type_symbol
 _atom_site_label
 _atom_site_symmetry_multiplicity
 _atom_site_fract_x
 _atom_site_fract_y
 _atom_site_fract_z
 _atom_site_occupancy
  Sr  Sr0  1  0.25000000  0.47558500  0.41420500  1
  Sr  Sr1  1  0.75000000  0.52441500  0.58579500  1
  Sr  Sr2  1  0.75000000  0.97558500  0.08579500  1
  Sr  Sr3  1  0.25000000  0.02441500  0.91420500  1
  Al  Al0  1  0.50183000  0.17226400  0.29581000  1
  Al  Al1  1  0.49817000  0.82773600  0.70419000  1
  Al  Al2  1  0.49817000  0.67226400  0.20419000  1
  Al  Al3  1  0.00183000  0.82773600  0.70419000  1
  Al  Al4  1  0.50183000  0.32773600  0.79581000  1
  Al  Al5  1  0.99817000  0.17226400  0.29581000  1
  Al  Al6  1  0.99817000  0.32773600  0.79581000  1
  Al  Al7  1  0.00183000  0.67226400  0.20419000  1
  H  H0  1  0.25000000  0.86966600  0.28068900  1
  H  H1  1  0.75000000  0.13033400  0.71931100  1
  H  H2  1  0.75000000  0.36966600  0.21931100  1
  H  H3  1  0.25000000  0.63033400  0.78068900  1
  H  H4  1  0.11082500  0.34115500  0.02993500  1
  H  H5  1  0.88917500  0.65884500  0.97006500  1
  H  H6  1  0.88917500  0.84115500  0.47006500  1
  H  H7  1  0.61082500  0.65884500  0.97006500  1
  H  H8  1  0.11082500  0.15884500  0.52993500  1
  H  H9  1  0.38917500  0.34115500  0.02993500  1
  H  H10  1  0.38917500  0.15884500  0.52993500  1
  H  H11  1  0.61082500  0.84115500  0.47006500  1
  H  H12  1  0.25000000  0.03392900  0.39444700  1
  H  H13  1  0.75000000  0.96607100  0.60555300  1
  H  H14  1  0.75000000  0.53392900  0.10555300  1
  H  H15  1  0.25000000  0.46607100  0.89444700  1
  H  H16  1  0.25000000  0.38795000  0.24368600  1
  H  H17  1  0.75000000  0.61205000  0.75631400  1
  H  H18  1  0.75000000  0.88795000  0.25631400  1
  H  H19  1  0.25000000  0.11205000  0.74368600  1
  H  H20  1  0.25000000  0.48380800  0.13214000  1
  H  H21  1  0.75000000  0.51619200  0.86786000  1
  H  H22  1  0.75000000  0.98380800  0.36786000  1
  H  H23  1  0.25000000  0.01619200  0.63214000  1
  C  C0  1  0.25000000  0.08151800  0.14596900  1
  C  C1  1  0.75000000  0.91848200  0.85403100  1
  C  C2  1  0.75000000  0.58151800  0.35403100  1
  C  C3  1  0.25000000  0.41848200  0.64596900  1
  C  C4  1  0.25000000  0.74832500  0.05044500  1
  C  C5  1  0.75000000  0.25167500  0.94955500  1
  C  C6  1  0.75000000  0.24832500  0.44955500  1
  C  C7  1  0.25000000  0.75167500  0.55044500  1
  O  O0  1  0.25000000  0.30586200  0.28543000  1
  O  O1  1  0.75000000  0.69413800  0.71457000  1
  O  O2  1  0.75000000  0.80586200  0.21457000  1
  O  O3  1  0.25000000  0.19413800  0.78543000  1
  O  O4  1  0.25000000  0.78673800  0.24172300  1
  O  O5  1  0.75000000  0.21326200  0.75827700  1
  O  O6  1  0.75000000  0.28673800  0.25827700  1
  O  O7  1  0.25000000  0.71326200  0.74172300  1
  O  O8  1  0.25000000  0.04554500  0.06907800  1
  O  O9  1  0.75000000  0.95445500  0.93092200  1
  O  O10  1  0.75000000  0.54554500  0.43092200  1
  O  O11  1  0.25000000  0.45445500  0.56907800  1
  O  O12  1  0.04967400  0.09830300  0.18437000  1
  O  O13  1  0.95032600  0.90169700  0.81563000  1
  O  O14  1  0.95032600  0.59830300  0.31563000  1
  O  O15  1  0.54967400  0.90169700  0.81563000  1
  O  O16  1  0.04967400  0.40169700  0.68437000  1
  O  O17  1  0.45032600  0.09830300  0.18437000  1
  O  O18  1  0.45032600  0.40169700  0.68437000  1
  O  O19  1  0.54967400  0.59830300  0.31563000  1
  O  O20  1  0.54821400  0.24015000  0.40944300  1
  O  O21  1  0.45178600  0.75985000  0.59055700  1
  O  O22  1  0.45178600  0.74015000  0.09055700  1
  O  O23  1  0.04821400  0.75985000  0.59055700  1
  O  O24  1  0.54821400  0.25985000  0.90944300  1
  O  O25  1  0.95178600  0.24015000  0.40944300  1
  O  O26  1  0.95178600  0.25985000  0.90944300  1
  O  O27  1  0.04821400  0.74015000  0.09055700  1
  O  O28  1  0.25000000  0.40265400  0.04086800  1
  O  O29  1  0.75000000  0.59734600  0.95913200  1
  O  O30  1  0.75000000  0.90265400  0.45913200  1
  O  O31  1  0.25000000  0.09734600  0.54086800  1
  O  O32  1  0.25000000  0.53351200  0.18770200  1
  O  O33  1  0.75000000  0.46648800  0.81229800  1
  O  O34  1  0.75000000  0.03351200  0.31229800  1
  O  O35  1  0.25000000  0.96648800  0.68770200  1
  O  O36  1  0.25000000  0.73530800  0.47223000  1
  O  O37  1  0.75000000  0.26469200  0.52777000  1
  O  O38  1  0.75000000  0.23530800  0.02777000  1
  O  O39  1  0.25000000  0.76469200  0.97223000  1
  O  O40  1  0.25000000  0.04633800  0.33434200  1
  O  O41  1  0.75000000  0.95366200  0.66565800  1
  O  O42  1  0.75000000  0.54633800  0.16565800  1
  O  O43  1  0.25000000  0.45366200  0.83434200  1
loop_
_geom_bond_atom_site_label_1
_geom_bond_atom_site_label_2
_geom_bond_distance
_geom_bond_site_symmetry_2
Al0 O6 1.853833 1_555
Al0 O0 1.884956 1_555
Al0 O34 1.911940 1_555
Al0 O40 1.935543 1_555
Al0 O17 1.948334 1_555
Al0 O20 1.958786 1_555
Al1 O7 1.853833 1_555
Al1 O1 1.884956 1_555
Al1 O35 1.911940 1_555
Al1 O41 1.935543 1_555
Al1 O15 1.948334 1_555
Al1 O21 1.958786 1_555
Al2 O4 1.853833 1_555
Al2 O2 1.884956 1_555
Al2 O32 1.911940 1_555
Al2 O42 1.935543 1_555
Al2 O19 1.948334 1_555
Al2 O22 1.958786 1_555
Al3 O7 1.853833 1_555
Al3 O1 1.884956 1_455
Al3 O35 1.911940 1_555
Al3 O41 1.935543 1_455
Al3 O13 1.948334 1_455
Al3 O23 1.958786 1_555
Al4 O5 1.853833 1_555
Al4 O3 1.884956 1_555
Al4 O33 1.911940 1_555
Al4 O43 1.935543 1_555
Al4 O18 1.948334 1_555
Al4 O24 1.958786 1_555
Al5 O6 1.853833 1_555
Al5 O0 1.884956 1_655
Al5 O34 1.911940 1_555
Al5 O40 1.935543 1_655
Al5 O12 1.948334 1_655
Al5 O25 1.958786 1_555
Al6 O5 1.853833 1_555
Al6 O3 1.884956 1_655
Al6 O33 1.911940 1_555
Al6 O43 1.935543 1_655
Al6 O16 1.948334 1_655
Al6 O26 1.958786 1_555
Al7 O4 1.853833 1_555
Al7 O2 1.884956 1_455
Al7 O32 1.911940 1_555
Al7 O42 1.935543 1_455
Al7 O14 1.948334 1_455
Al7 O27 1.958786 1_555
H0 O4 0.987581 1_555
H1 O5 0.987581 1_555
H2 O6 0.987581 1_555
H3 O7 0.987581 1_555
H4 O28 0.983688 1_555
H5 O29 0.983688 1_555
H6 O30 0.983688 1_555
H7 O29 0.983688 1_555
H8 O31 0.983688 1_555
H9 O28 0.983688 1_555
H10 O31 0.983688 1_555
H11 O30 0.983688 1_555
H12 O40 0.979210 1_555
H13 O41 0.979210 1_555
H14 O42 0.979210 1_555
H15 O43 0.979210 1_555
H16 O0 1.011128 1_555
H16 O32 1.612678 1_555
H17 O1 1.011128 1_555
H17 O33 1.612678 1_555
H18 O2 1.011128 1_555
H18 O34 1.612678 1_565
H19 O3 1.011128 1_555
H19 O35 1.612678 1_545
H20 O32 1.007908 1_555
H21 O33 1.007908 1_555
H22 O34 1.007908 1_565
H23 O35 1.007908 1_545
C0 O8 1.287151 1_555
C0 O17 1.300543 1_555
C0 O12 1.300543 1_555
C1 O9 1.287151 1_555
C1 O13 1.300543 1_555
C1 O15 1.300543 1_555
C2 O10 1.287151 1_555
C2 O14 1.300543 1_555
C2 O19 1.300543 1_555
C3 O11 1.287151 1_555
C3 O18 1.300543 1_555
C3 O16 1.300543 1_555
C4 O39 1.274487 1_554
C4 O22 1.314261 1_555
C4 O27 1.314261 1_555
C5 O38 1.274487 1_556
C5 O26 1.314261 1_555
C5 O24 1.314261 1_555
C6 O37 1.274487 1_555
C6 O25 1.314261 1_555
C6 O20 1.314261 1_555
C7 O36 1.274487 1_555
C7 O21 1.314261 1_555
C7 O23 1.314261 1_555
O0 Sr0 2.600403 1_555
O1 Sr1 2.600403 1_555
O2 Sr2 2.600403 1_555
O3 Sr3 2.600403 1_555
O8 Sr3 2.513531 1_554
O8 Sr2 2.910067 1_545
O8 Sr2 2.910067 1_445
O9 Sr2 2.513531 1_556
O9 Sr3 2.910067 1_565
O9 Sr3 2.910067 1_665
O10 Sr1 2.513531 1_555
O10 Sr0 2.910067 1_655
O10 Sr0 2.910067 1_555
O11 Sr0 2.513531 1_555
O11 Sr1 2.910067 1_455
O11 Sr1 2.910067 1_555
O12 Sr2 2.584090 1_445
O13 Sr3 2.584090 1_665
O14 Sr0 2.584090 1_655
O15 Sr3 2.584090 1_565
O16 Sr1 2.584090 1_455
O17 Sr2 2.584090 1_545
O18 Sr1 2.584090 1_555
O19 Sr0 2.584090 1_555
O20 Sr0 2.739137 1_555
O21 Sr1 2.739137 1_555
O22 Sr2 2.739137 1_555
O23 Sr1 2.739137 1_455
O24 Sr3 2.739137 1_555
O25 Sr0 2.739137 1_655
O26 Sr3 2.739137 1_655
O27 Sr2 2.739137 1_455
O36 Sr0 2.559046 1_555
O37 Sr1 2.559046 1_555
O38 Sr2 2.559046 1_545
O39 Sr3 2.559046 1_565
