# generated using pymatgen
data_ZnTcNiO4
_symmetry_space_group_name_H-M   'P 1'
_cell_length_a   6.09756579
_cell_length_b   10.12917913
_cell_length_c   6.08742296
_cell_angle_alpha   106.82927640
_cell_angle_beta   119.05853607
_cell_angle_gamma   85.87691979
_symmetry_Int_Tables_number   1
_chemical_formula_structural   ZnTcNiO4
_chemical_formula_sum   'Zn4 Tc4 Ni4 O16'
_cell_volume   313.51417662
_cell_formula_units_Z   4
loop_
 _symmetry_equiv_pos_site_id
 _symmetry_equiv_pos_as_xyz
  1  'x, y, z'
loop_
 _atom_site_type_symbol
 _atom_site_label
 _atom_site_symmetry_multiplicity
 _atom_site_fract_x
 _atom_site_fract_y
 _atom_site_fract_z
 _atom_site_occupancy
  Zn  Zn0  1  0.54363300  0.18172200  0.11317800  1
  Zn  Zn1  1  0.04424400  0.68191300  0.11341500  1
  Zn  Zn2  1  0.00014000  0.00022100  0.00171000  1
  Zn  Zn3  1  0.49973100  0.49975600  0.00138900  1
  Tc  Tc0  1  0.04705100  0.20353100  0.62357800  1
  Tc  Tc1  1  0.54771100  0.70400700  0.62448700  1
  Tc  Tc2  1  0.83007500  0.42112000  0.62398800  1
  Tc  Tc3  1  0.33078800  0.92142700  0.62436100  1
  Ni  Ni0  1  0.05409100  0.68499500  0.62820900  1
  Ni  Ni1  1  0.15554300  0.38685700  0.26029900  1
  Ni  Ni2  1  0.55376900  0.18478300  0.62739900  1
  Ni  Ni3  1  0.65683200  0.88575900  0.26091400  1
  O  O0  1  0.18857700  0.06225800  0.84730200  1
  O  O1  1  0.68885900  0.56236800  0.84793400  1
  O  O2  1  0.19835800  0.06567600  0.40603800  1
  O  O3  1  0.69857200  0.56578800  0.40634600  1
  O  O4  1  0.93742700  0.31309900  0.36307500  1
  O  O5  1  0.43781500  0.81346400  0.36352900  1
  O  O6  1  0.91694100  0.30371100  0.86996300  1
  O  O7  1  0.41663700  0.80458000  0.87030200  1
  O  O8  1  0.64565900  0.05172400  0.85049900  1
  O  O9  1  0.14521900  0.55138100  0.85048200  1
  O  O10  1  0.39884400  0.29718500  0.84964100  1
  O  O11  1  0.89941800  0.79757900  0.85061400  1
  O  O12  1  0.48614700  0.31681200  0.40363900  1
  O  O13  1  0.98759800  0.81692300  0.40509300  1
  O  O14  1  0.71961900  0.08533300  0.40554900  1
  O  O15  1  0.22070100  0.58603000  0.40706400  1
loop_
_geom_bond_atom_site_label_1
_geom_bond_atom_site_label_2
_geom_bond_distance
_geom_bond_site_symmetry_2
Ni0 O9 2.047712 1_555
Ni0 O11 2.052960 1_455
Ni0 O13 2.057419 1_455
Ni0 O15 2.061528 1_555
Ni0 O3 2.137626 1_455
Ni0 O7 2.170885 1_555
Ni1 O15 1.937255 1_555
Ni1 O12 1.942330 1_555
Ni1 O4 1.985011 1_455
Ni1 O6 2.032561 1_454
Ni2 O8 2.046216 1_555
Ni2 O10 2.052770 1_555
Ni2 O12 2.060050 1_555
Ni2 O14 2.062456 1_555
Ni2 O2 2.136749 1_555
Ni2 O6 2.170853 1_555
Ni3 O13 1.938253 1_555
Ni3 O14 1.939473 1_565
Ni3 O5 1.981361 1_555
Ni3 O7 2.033045 1_554
O0 Zn2 2.023250 1_556
O0 Tc0 2.111022 1_555
O0 Tc3 2.114938 1_545
O0 Zn0 2.147042 1_556
O1 Zn3 2.024712 1_556
O1 Tc1 2.112930 1_555
O1 Tc2 2.116753 1_555
O1 Zn1 2.148515 1_656
O2 Zn2 2.058881 1_555
O2 Tc3 2.113175 1_545
O2 Tc0 2.117905 1_555
O3 Zn3 2.062235 1_555
O3 Tc2 2.113954 1_555
O3 Tc1 2.120038 1_555
O4 Tc2 2.012213 1_555
O4 Tc0 2.018910 1_655
O4 Zn0 2.364253 1_555
O5 Tc3 2.010325 1_555
O5 Tc1 2.020086 1_555
O5 Zn1 2.364018 1_555
O6 Tc0 2.016806 1_655
O6 Tc2 2.026590 1_555
O7 Tc1 2.019334 1_555
O7 Tc3 2.022856 1_555
O8 Zn2 1.993640 1_656
O8 Tc3 2.016935 1_545
O8 Zn0 2.075370 1_556
O9 Zn3 1.994172 1_556
O9 Tc2 2.017922 1_455
O9 Zn1 2.074599 1_556
O10 Zn3 1.993468 1_556
O10 Tc0 2.015992 1_555
O10 Zn0 2.069552 1_556
O11 Zn2 1.993912 1_666
O11 Tc1 2.015312 1_555
O11 Zn1 2.067841 1_656
O12 Tc2 2.019630 1_555
O12 Zn0 2.062464 1_555
O13 Tc3 2.017000 1_655
O13 Zn1 2.064928 1_655
O14 Tc0 2.007643 1_655
O14 Zn0 2.067045 1_555
O15 Tc1 2.004715 1_555
O15 Zn1 2.069542 1_555
