# generated using pymatgen
data_Mn3V8N9
_symmetry_space_group_name_H-M   'P 1'
_cell_length_a   6.49762461
_cell_length_b   8.19300300
_cell_length_c   14.67490736
_cell_angle_alpha   90.00000000
_cell_angle_beta   106.10797541
_cell_angle_gamma   90.00000000
_symmetry_Int_Tables_number   1
_chemical_formula_structural   Mn3V8N9
_chemical_formula_sum   'Mn12 V32 N36'
_cell_volume   750.54928856
_cell_formula_units_Z   4
loop_
 _symmetry_equiv_pos_site_id
 _symmetry_equiv_pos_as_xyz
  1  'x, y, z'
loop_
 _atom_site_type_symbol
 _atom_site_label
 _atom_site_symmetry_multiplicity
 _atom_site_fract_x
 _atom_site_fract_y
 _atom_site_fract_z
 _atom_site_occupancy
  Mn  Mn0  1  0.50128100  0.11532500  0.75425200  1
  Mn  Mn1  1  0.49871900  0.61532500  0.74574800  1
  Mn  Mn2  1  0.49871900  0.88467500  0.24574800  1
  Mn  Mn3  1  0.50128100  0.38467500  0.25425200  1
  Mn  Mn4  1  0.86174900  0.88495800  0.52209800  1
  Mn  Mn5  1  0.13825100  0.38495800  0.97790200  1
  Mn  Mn6  1  0.13825100  0.11504200  0.47790200  1
  Mn  Mn7  1  0.86174900  0.61504200  0.02209800  1
  Mn  Mn8  1  0.84073300  0.35372800  0.52836400  1
  Mn  Mn9  1  0.15926700  0.85372800  0.97163600  1
  Mn  Mn10  1  0.15926700  0.64627200  0.47163600  1
  Mn  Mn11  1  0.84073300  0.14627200  0.02836400  1
  V  V0  1  0.56565700  0.87420300  0.06991100  1
  V  V1  1  0.43434300  0.37420300  0.43008900  1
  V  V2  1  0.43434300  0.12579700  0.93008900  1
  V  V3  1  0.56565700  0.62579700  0.56991100  1
  V  V4  1  0.59474400  0.11898600  0.56888000  1
  V  V5  1  0.40525600  0.61898600  0.93112000  1
  V  V6  1  0.40525600  0.88101400  0.43112000  1
  V  V7  1  0.59474400  0.38101400  0.06888000  1
  V  V8  1  0.77323000  0.87298800  0.70686300  1
  V  V9  1  0.22677000  0.37298800  0.79313700  1
  V  V10  1  0.22677000  0.12701200  0.29313700  1
  V  V11  1  0.77323000  0.62701200  0.20686300  1
  V  V12  1  0.77486200  0.37640800  0.70254200  1
  V  V13  1  0.22513800  0.87640800  0.79745800  1
  V  V14  1  0.22513800  0.62359200  0.29745800  1
  V  V15  1  0.77486200  0.12359200  0.20254200  1
  V  V16  1  0.70353700  0.37349400  0.89516900  1
  V  V17  1  0.29646300  0.87349400  0.60483100  1
  V  V18  1  0.29646300  0.62650600  0.10483100  1
  V  V19  1  0.70353700  0.12650600  0.39516900  1
  V  V20  1  0.94868100  0.12201100  0.83623300  1
  V  V21  1  0.05131900  0.62201100  0.66376700  1
  V  V22  1  0.05131900  0.87798900  0.16376700  1
  V  V23  1  0.94868100  0.37798900  0.33623300  1
  V  V24  1  0.04149900  0.12005200  0.65447100  1
  V  V25  1  0.95850100  0.62005200  0.84552900  1
  V  V26  1  0.95850100  0.87994800  0.34552900  1
  V  V27  1  0.04149900  0.37994800  0.15447100  1
  V  V28  1  0.31500900  0.37224300  0.62216600  1
  V  V29  1  0.68499100  0.87224300  0.87783400  1
  V  V30  1  0.68499100  0.62775700  0.37783400  1
  V  V31  1  0.31500900  0.12775700  0.12216600  1
  N  N0  1  0.58036400  0.37400200  0.56794900  1
  N  N1  1  0.41963600  0.87400200  0.93205100  1
  N  N2  1  0.41963600  0.62599800  0.43205100  1
  N  N3  1  0.58036400  0.12599800  0.06794900  1
  N  N4  1  0.51010800  0.36615800  0.75506700  1
  N  N5  1  0.48989200  0.86615800  0.74493300  1
  N  N6  1  0.48989200  0.63384200  0.24493300  1
  N  N7  1  0.51010800  0.13384200  0.25506700  1
  N  N8  1  0.70495500  0.12056800  0.89492300  1
  N  N9  1  0.29504500  0.62056800  0.60507700  1
  N  N10  1  0.29504500  0.87943200  0.10507700  1
  N  N11  1  0.70495500  0.37943200  0.39492300  1
  N  N12  1  0.59356500  0.87155600  0.56791800  1
  N  N13  1  0.40643600  0.37155600  0.93208200  1
  N  N14  1  0.40643600  0.12844400  0.43208200  1
  N  N15  1  0.59356500  0.62844400  0.06791800  1
  N  N16  1  0.77190000  0.12327800  0.70469800  1
  N  N17  1  0.22810000  0.62327800  0.79530200  1
  N  N18  1  0.22810000  0.87672200  0.29530200  1
  N  N19  1  0.77190000  0.37672200  0.20469800  1
  N  N20  1  0.03793100  0.37232400  0.65153400  1
  N  N21  1  0.96206900  0.87232400  0.84846600  1
  N  N22  1  0.96206900  0.62767600  0.34846600  1
  N  N23  1  0.03793100  0.12767600  0.15153400  1
  N  N24  1  0.96217100  0.37106700  0.84509400  1
  N  N25  1  0.03782900  0.87106700  0.65490600  1
  N  N26  1  0.03782900  0.62893300  0.15490600  1
  N  N27  1  0.96217100  0.12893300  0.34509400  1
  N  N28  1  0.31292800  0.12268900  0.60831700  1
  N  N29  1  0.68707200  0.62268900  0.89168300  1
  N  N30  1  0.68707200  0.87731100  0.39168300  1
  N  N31  1  0.31292800  0.37731100  0.10831700  1
  N  N32  1  0.22488300  0.12406000  0.79336600  1
  N  N33  1  0.77511700  0.62406000  0.70663400  1
  N  N34  1  0.77511700  0.87594000  0.20663400  1
  N  N35  1  0.22488300  0.37594000  0.29336600  1
loop_
_geom_bond_atom_site_label_1
_geom_bond_atom_site_label_2
_geom_bond_distance
_geom_bond_site_symmetry_2
Mn0 N32 2.032726 1_555
Mn0 N5 2.045967 1_545
Mn0 N4 2.055818 1_555
Mn0 N16 2.081949 1_555
Mn0 N8 2.121028 1_555
Mn0 N28 2.152545 1_555
Mn1 N33 2.032726 1_555
Mn1 N4 2.045967 1_555
Mn1 N5 2.055818 1_555
Mn1 N17 2.081949 1_555
Mn1 N9 2.121028 1_555
Mn1 N29 2.152545 1_555
Mn2 N34 2.032726 1_555
Mn2 N7 2.045967 1_565
Mn2 N6 2.055818 1_555
Mn2 N18 2.081949 1_555
Mn2 N10 2.121028 1_555
Mn2 N30 2.152545 1_555
Mn3 N35 2.032726 1_555
Mn3 N6 2.045967 1_555
Mn3 N7 2.055818 1_555
Mn3 N19 2.081949 1_555
Mn3 N11 2.121028 1_555
Mn3 N31 2.152545 1_555
Mn4 N30 1.936369 1_555
Mn4 N25 1.970534 1_655
Mn4 N12 2.037369 1_555
Mn5 N31 1.936369 1_556
Mn5 N24 1.970534 1_455
Mn5 N13 2.037375 1_555
Mn6 N28 1.936369 1_555
Mn6 N27 1.970534 1_455
Mn6 N14 2.037375 1_555
Mn7 N29 1.936369 1_554
Mn7 N26 1.970534 1_655
Mn7 N15 2.037369 1_555
Mn8 N20 1.909696 1_655
Mn8 N11 1.923205 1_555
Mn8 N0 1.942291 1_555
Mn9 N21 1.909696 1_455
Mn9 N10 1.923205 1_556
Mn9 N1 1.942291 1_555
Mn10 N22 1.909696 1_455
Mn10 N9 1.923205 1_555
Mn10 N2 1.942291 1_555
Mn11 N23 1.909696 1_655
Mn11 N8 1.923205 1_554
Mn11 N3 1.942291 1_555
N0 V1 1.981907 1_555
N0 V12 2.028201 1_555
N0 V3 2.065740 1_555
N0 V28 2.089792 1_555
N0 V4 2.091310 1_555
N1 V0 1.981907 1_556
N1 V13 2.028201 1_555
N1 V2 2.065740 1_565
N1 V29 2.089792 1_555
N1 V5 2.091310 1_555
N2 V3 1.981907 1_555
N2 V14 2.028201 1_555
N2 V1 2.065740 1_555
N2 V30 2.089792 1_555
N2 V6 2.091310 1_555
N3 V2 1.981907 1_554
N3 V15 2.028201 1_555
N3 V0 2.065740 1_545
N3 V31 2.089792 1_555
N3 V7 2.091310 1_555
N4 V28 2.010298 1_555
N4 V9 2.067691 1_555
N4 V12 2.072753 1_555
N4 V16 2.091994 1_555
N5 V29 2.010298 1_555
N5 V8 2.067691 1_555
N5 V13 2.072753 1_555
N5 V17 2.091994 1_555
N6 V30 2.010298 1_555
N6 V11 2.067691 1_555
N6 V14 2.072753 1_555
N6 V18 2.091994 1_555
N7 V31 2.010298 1_555
N7 V10 2.067691 1_555
N7 V15 2.072753 1_555
N7 V19 2.091994 1_555
N8 V2 1.965555 1_555
N8 V20 2.001672 1_555
N8 V29 2.049626 1_545
N8 V16 2.072252 1_555
N9 V3 1.965555 1_555
N9 V21 2.001672 1_555
N9 V28 2.049626 1_555
N9 V17 2.072252 1_555
N10 V0 1.965555 1_555
N10 V22 2.001672 1_555
N10 V31 2.049626 1_565
N10 V18 2.072252 1_555
N11 V1 1.965555 1_555
N11 V23 2.001672 1_555
N11 V30 2.049626 1_555
N11 V19 2.072252 1_555
N12 V3 2.022592 1_555
N12 V4 2.027244 1_565
N12 V6 2.042098 1_555
N12 V8 2.049306 1_555
N12 V17 2.144905 1_555
N13 V2 2.022592 1_555
N13 V5 2.027244 1_555
N13 V7 2.042096 1_556
N13 V9 2.049308 1_555
N13 V16 2.144899 1_555
N14 V1 2.022592 1_555
N14 V6 2.027244 1_545
N14 V4 2.042096 1_555
N14 V10 2.049308 1_555
N14 V19 2.144899 1_555
N15 V0 2.022592 1_555
N15 V7 2.027244 1_555
N15 V5 2.042098 1_554
N15 V11 2.049306 1_555
N15 V18 2.144905 1_555
N16 V20 1.953232 1_555
N16 V4 2.006411 1_555
N16 V8 2.050854 1_545
N16 V12 2.074307 1_555
N16 V24 2.080646 1_655
N17 V21 1.953232 1_555
N17 V5 2.006411 1_555
N17 V9 2.050854 1_555
N17 V13 2.074307 1_555
N17 V25 2.080646 1_455
N18 V22 1.953232 1_555
N18 V6 2.006411 1_555
N18 V10 2.050854 1_565
N18 V14 2.074307 1_555
N18 V26 2.080646 1_455
N19 V23 1.953232 1_555
N19 V7 2.006411 1_555
N19 V11 2.050854 1_555
N19 V15 2.074307 1_555
N19 V27 2.080646 1_655
N20 V28 1.964062 1_555
N20 V12 2.047731 1_455
N20 V21 2.053281 1_555
N20 V24 2.067310 1_555
N20 V9 2.099729 1_555
N21 V29 1.964062 1_555
N21 V13 2.047731 1_655
N21 V20 2.053281 1_565
N21 V25 2.067310 1_555
N21 V8 2.099729 1_555
N22 V30 1.964062 1_555
N22 V14 2.047731 1_655
N22 V23 2.053281 1_555
N22 V26 2.067310 1_555
N22 V11 2.099729 1_555
N23 V31 1.964062 1_555
N23 V15 2.047731 1_455
N23 V22 2.053281 1_545
N23 V27 2.067310 1_555
N23 V10 2.099729 1_555
N24 V16 2.012398 1_555
N24 V25 2.040105 1_555
N24 V20 2.044988 1_555
N24 V9 2.065157 1_655
N24 V12 2.108692 1_555
N25 V17 2.012398 1_555
N25 V24 2.040105 1_565
N25 V21 2.044988 1_555
N25 V8 2.065157 1_455
N25 V13 2.108692 1_555
N26 V18 2.012398 1_555
N26 V27 2.040105 1_555
N26 V22 2.044988 1_555
N26 V11 2.065157 1_455
N26 V14 2.108692 1_555
N27 V19 2.012398 1_555
N27 V26 2.040105 1_545
N27 V23 2.044988 1_555
N27 V10 2.065157 1_655
N27 V15 2.108692 1_555
N28 V17 2.044354 1_545
N28 V28 2.054346 1_555
N28 V24 2.057301 1_555
N28 V4 2.068080 1_555
N29 V16 2.044354 1_555
N29 V29 2.054346 1_555
N29 V25 2.057301 1_555
N29 V5 2.068080 1_555
N30 V19 2.044354 1_565
N30 V30 2.054346 1_555
N30 V26 2.057301 1_555
N30 V6 2.068080 1_555
N31 V18 2.044354 1_555
N31 V31 2.054346 1_555
N31 V27 2.057301 1_555
N31 V7 2.068080 1_555
N32 V13 2.029889 1_545
N32 V9 2.039513 1_555
N32 V24 2.056150 1_555
N32 V20 2.059918 1_455
N32 V2 2.088751 1_555
N33 V12 2.029889 1_555
N33 V8 2.039513 1_555
N33 V25 2.056150 1_555
N33 V21 2.059918 1_655
N33 V3 2.088751 1_555
N34 V15 2.029889 1_565
N34 V11 2.039513 1_555
N34 V26 2.056150 1_555
N34 V22 2.059918 1_655
N34 V0 2.088751 1_555
N35 V14 2.029889 1_555
N35 V10 2.039513 1_555
N35 V27 2.056150 1_555
N35 V23 2.059918 1_455
N35 V1 2.088751 1_555
