# generated using pymatgen
data_RbVP2O7
_symmetry_space_group_name_H-M   'P 1'
_cell_length_a   10.23194000
_cell_length_b   7.65449000
_cell_length_c   8.40523386
_cell_angle_alpha   74.05833543
_cell_angle_beta   90.00000000
_cell_angle_gamma   90.00000000
_symmetry_Int_Tables_number   1
_chemical_formula_structural   RbVP2O7
_chemical_formula_sum   'Rb4 V4 P8 O28'
_cell_volume   632.98326932
_cell_formula_units_Z   4
loop_
 _symmetry_equiv_pos_site_id
 _symmetry_equiv_pos_as_xyz
  1  'x, y, z'
loop_
 _atom_site_type_symbol
 _atom_site_label
 _atom_site_symmetry_multiplicity
 _atom_site_fract_x
 _atom_site_fract_y
 _atom_site_fract_z
 _atom_site_occupancy
  Rb  Rb0  1  0.68457100  0.68747200  0.44765700  1
  Rb  Rb1  1  0.18457100  0.31252800  0.05234300  1
  Rb  Rb2  1  0.31542900  0.31252800  0.55234300  1
  Rb  Rb3  1  0.81542900  0.68747200  0.94765700  1
  V  V0  1  0.60148400  0.26147900  0.25925200  1
  V  V1  1  0.10148400  0.73852100  0.24074800  1
  V  V2  1  0.39851600  0.73852100  0.74074800  1
  V  V3  1  0.89851600  0.26147900  0.75925200  1
  P  P0  1  0.86774100  0.06488300  0.18753400  1
  P  P1  1  0.36774100  0.93511700  0.31246600  1
  P  P2  1  0.13225900  0.93511700  0.81246600  1
  P  P3  1  0.63225900  0.06488300  0.68753400  1
  P  P4  1  0.90284400  0.36807900  0.32983000  1
  P  P5  1  0.40284400  0.63192100  0.17017000  1
  P  P6  1  0.09715600  0.63192100  0.67017000  1
  P  P7  1  0.59715600  0.36807900  0.82983000  1
  O  O0  1  0.94410000  0.17259500  0.30369300  1
  O  O1  1  0.44410000  0.82740500  0.19630700  1
  O  O2  1  0.05590000  0.82740500  0.69630700  1
  O  O3  1  0.55590000  0.17259500  0.80369300  1
  O  O4  1  0.42700000  0.12592900  0.26631900  1
  O  O5  1  0.92700000  0.87407100  0.23368100  1
  O  O6  1  0.57300000  0.87407100  0.73368100  1
  O  O7  1  0.07300000  0.12592900  0.76631900  1
  O  O8  1  0.49817400  0.49356600  0.27456700  1
  O  O9  1  0.99817400  0.50643400  0.22543300  1
  O  O10  1  0.50182600  0.50643400  0.72543300  1
  O  O11  1  0.00182600  0.49356600  0.77456700  1
  O  O12  1  0.76299900  0.41304300  0.26130600  1
  O  O13  1  0.26299900  0.58695700  0.23869400  1
  O  O14  1  0.23700100  0.58695700  0.73869400  1
  O  O15  1  0.73700100  0.41304300  0.76130600  1
  O  O16  1  0.77670100  0.05300700  0.73787100  1
  O  O17  1  0.27670100  0.94699300  0.76212900  1
  O  O18  1  0.22329900  0.94699300  0.26212900  1
  O  O19  1  0.72329900  0.05300700  0.23787100  1
  O  O20  1  0.58855000  0.34827200  0.01342100  1
  O  O21  1  0.08855000  0.65172800  0.48657900  1
  O  O22  1  0.41145000  0.65172800  0.98657900  1
  O  O23  1  0.91145000  0.34827200  0.51342100  1
  O  O24  1  0.89658700  0.17448400  0.01008800  1
  O  O25  1  0.39658700  0.82551600  0.48991200  1
  O  O26  1  0.10341300  0.82551600  0.98991200  1
  O  O27  1  0.60341300  0.17448400  0.51008800  1
loop_
_geom_bond_atom_site_label_1
_geom_bond_atom_site_label_2
_geom_bond_distance
_geom_bond_site_symmetry_2
O0 P4 1.626664 1_555
O0 P0 1.638790 1_555
O0 Rb1 3.228241 1_655
O1 P5 1.626664 1_555
O1 P1 1.638790 1_555
O1 Rb0 3.228241 1_555
O2 P6 1.626664 1_555
O2 P2 1.638790 1_555
O2 Rb3 3.228241 1_455
O3 P7 1.626664 1_555
O3 P3 1.638790 1_555
O3 Rb2 3.228241 1_555
O4 P1 1.529755 1_545
O4 V0 2.057559 1_555
O4 Rb1 3.164905 1_555
O4 Rb2 3.318022 1_555
O5 P0 1.529755 1_565
O5 V1 2.057559 1_655
O5 Rb0 3.164905 1_555
O5 Rb3 3.318022 1_554
O6 P3 1.529755 1_565
O6 V2 2.057559 1_555
O6 Rb3 3.164905 1_555
O6 Rb0 3.318022 1_555
O7 P2 1.529755 1_545
O7 V3 2.057559 1_455
O7 Rb2 3.164905 1_555
O7 Rb1 3.318022 1_556
O8 P5 1.527248 1_555
O8 V0 2.101321 1_555
O8 Rb2 3.015044 1_555
O8 Rb0 3.023778 1_555
O9 P4 1.527248 1_555
O9 V1 2.101321 1_655
O9 Rb3 3.015044 1_554
O9 Rb1 3.023778 1_655
O10 P7 1.527248 1_555
O10 V2 2.101321 1_555
O10 Rb0 3.015044 1_555
O10 Rb2 3.023778 1_555
O11 P6 1.527248 1_555
O11 V3 2.101321 1_455
O11 Rb1 3.015044 1_556
O11 Rb3 3.023778 1_455
O12 P4 1.545551 1_555
O12 V0 2.021970 1_555
O12 Rb3 2.934005 1_554
O12 Rb0 3.052424 1_555
O13 P5 1.545551 1_555
O13 V1 2.021970 1_555
O13 Rb2 2.934005 1_555
O13 Rb1 3.052424 1_555
O14 P6 1.545551 1_555
O14 V2 2.021970 1_555
O14 Rb1 2.934005 1_556
O14 Rb2 3.052424 1_555
O15 P7 1.545551 1_555
O15 V3 2.021970 1_555
O15 Rb0 2.934005 1_555
O15 Rb3 3.052424 1_555
O16 P3 1.533101 1_555
O16 V3 2.071173 1_555
O16 Rb3 2.895653 1_545
O17 P2 1.533101 1_555
O17 V2 2.071173 1_555
O17 Rb2 2.895653 1_565
O18 P1 1.533101 1_555
O18 V1 2.071173 1_555
O18 Rb1 2.895653 1_565
O19 P0 1.533101 1_555
O19 V0 2.071173 1_555
O19 Rb0 2.895653 1_545
O20 P7 1.511112 1_554
O20 V0 1.993558 1_555
O20 Rb3 3.412834 1_554
O21 P6 1.511112 1_555
O21 V1 1.993558 1_555
O21 Rb2 3.412834 1_555
O22 P5 1.511112 1_556
O22 V2 1.993558 1_555
O22 Rb1 3.412834 1_556
O23 P4 1.511112 1_555
O23 V3 1.993558 1_555
O23 Rb0 3.412834 1_555
O24 P0 1.525809 1_555
O24 V3 2.029207 1_554
O24 Rb1 3.182997 1_655
O25 P1 1.525809 1_555
O25 V2 2.029207 1_555
O25 Rb0 3.182997 1_555
O26 P2 1.525809 1_555
O26 V1 2.029207 1_556
O26 Rb3 3.182997 1_455
O27 P3 1.525809 1_555
O27 V0 2.029207 1_555
O27 Rb2 3.182997 1_555
