# generated using pymatgen
data_VFeP2(O4F)2
_symmetry_space_group_name_H-M   'P 1'
_cell_length_a   5.10250300
_cell_length_b   5.28119789
_cell_length_c   7.38743814
_cell_angle_alpha   109.24397532
_cell_angle_beta   106.17831138
_cell_angle_gamma   96.01067434
_symmetry_Int_Tables_number   1
_chemical_formula_structural   VFeP2(O4F)2
_chemical_formula_sum   'V1 Fe1 P2 O8 F2'
_cell_volume   176.21376390
_cell_formula_units_Z   1
loop_
 _symmetry_equiv_pos_site_id
 _symmetry_equiv_pos_as_xyz
  1  'x, y, z'
loop_
 _atom_site_type_symbol
 _atom_site_label
 _atom_site_symmetry_multiplicity
 _atom_site_fract_x
 _atom_site_fract_y
 _atom_site_fract_z
 _atom_site_occupancy
  V  V0  1  0.00000000  0.00000000  0.00000000  1
  Fe  Fe0  1  0.00000000  0.00000000  0.50000000  1
  P  P0  1  0.67125700  0.35654800  0.75896100  1
  P  P1  1  0.32874300  0.64345200  0.24103900  1
  O  O0  1  0.35531100  0.22356200  0.91776800  1
  O  O1  1  0.73880300  0.21260200  0.60723600  1
  O  O2  1  0.69576300  0.66192200  0.66617300  1
  O  O3  1  0.13106100  0.69620000  0.11721700  1
  O  O4  1  0.86893900  0.30380000  0.88278300  1
  O  O5  1  0.30423700  0.33807800  0.33382700  1
  O  O6  1  0.26119700  0.78739800  0.39276400  1
  O  O7  1  0.64468900  0.77643800  0.08223200  1
  F  F0  1  0.88415100  0.05452200  0.24960800  1
  F  F1  1  0.11584900  0.94547800  0.75039200  1
loop_
_geom_bond_atom_site_label_1
_geom_bond_atom_site_label_2
_geom_bond_distance
_geom_bond_site_symmetry_2
Fe0 O6 1.994971 1_545
Fe0 O1 1.994971 1_455
O0 V0 2.384985 1_556
O1 P0 1.288988 1_555
O2 P0 1.954654 1_555
O2 V0 2.462350 1_666
O3 P1 1.282346 1_555
O3 V0 2.142211 1_565
O4 P0 1.282346 1_555
O4 V0 2.142211 1_656
O5 P1 1.954654 1_555
O5 V0 2.462350 1_555
O6 P1 1.288988 1_555
O7 V0 2.384985 1_665
F0 O7 1.662505 1_545
F0 Fe0 1.905610 1_655
F0 V0 2.031156 1_655
F1 O0 1.662505 1_565
F1 Fe0 1.905610 1_565
F1 V0 2.031156 1_566
