# generated using pymatgen
data_Ba2Co4BrO7
_symmetry_space_group_name_H-M   'P 1'
_cell_length_a   5.98256149
_cell_length_b   5.98256149
_cell_length_c   16.15899804
_cell_angle_alpha   79.41570416
_cell_angle_beta   79.41570416
_cell_angle_gamma   60.21789371
_symmetry_Int_Tables_number   1
_chemical_formula_structural   Ba2Co4BrO7
_chemical_formula_sum   'Ba4 Co8 Br2 O14'
_cell_volume   490.51381870
_cell_formula_units_Z   2
loop_
 _symmetry_equiv_pos_site_id
 _symmetry_equiv_pos_as_xyz
  1  'x, y, z'
loop_
 _atom_site_type_symbol
 _atom_site_label
 _atom_site_symmetry_multiplicity
 _atom_site_fract_x
 _atom_site_fract_y
 _atom_site_fract_z
 _atom_site_occupancy
  Ba  Ba0  1  0.43233900  0.43393400  0.70301100  1
  Ba  Ba1  1  0.56606600  0.56766100  0.29698900  1
  Ba  Ba2  1  0.28053600  0.28850300  0.14247800  1
  Ba  Ba3  1  0.71149700  0.71946400  0.85752200  1
  Co  Co0  1  0.00003900  0.49990400  0.49994500  1
  Co  Co1  1  0.99985900  0.00014100  0.50000000  1
  Co  Co2  1  0.50009600  0.99996100  0.50005500  1
  Co  Co3  1  0.10394800  0.10556700  0.69479600  1
  Co  Co4  1  0.89443300  0.89605200  0.30520400  1
  Co  Co5  1  0.78478600  0.78518400  0.65268000  1
  Co  Co6  1  0.21481600  0.21521400  0.34732000  1
  Co  Co7  1  0.49998800  0.50001200  0.50000000  1
  Br  Br0  1  0.60023500  0.66117200  0.08118500  1
  Br  Br1  1  0.33882800  0.39976500  0.91881500  1
  O  O0  1  0.43273400  0.91613600  0.72971200  1
  O  O1  1  0.91413300  0.43359000  0.73031200  1
  O  O2  1  0.91582200  0.91821400  0.73126300  1
  O  O3  1  0.56641000  0.08586700  0.26968800  1
  O  O4  1  0.08386400  0.56726600  0.27028800  1
  O  O5  1  0.08178600  0.08417800  0.26873700  1
  O  O6  1  0.85594300  0.85609900  0.42834900  1
  O  O7  1  0.14390100  0.14405700  0.57165100  1
  O  O8  1  0.12761300  0.65051000  0.57095500  1
  O  O9  1  0.65054100  0.12772600  0.57083600  1
  O  O10  1  0.65075700  0.65073400  0.56970200  1
  O  O11  1  0.87227400  0.34945900  0.42916400  1
  O  O12  1  0.34949000  0.87238700  0.42904500  1
  O  O13  1  0.34926600  0.34924300  0.43029800  1
loop_
_geom_bond_atom_site_label_1
_geom_bond_atom_site_label_2
_geom_bond_distance
_geom_bond_site_symmetry_2
Ba0 O8 2.760918 1_555
Ba0 O10 2.766445 1_555
Ba0 O9 2.767521 1_555
Ba0 O1 2.993917 1_555
Ba0 O0 2.995438 1_555
Ba0 O2 3.032543 1_545
Ba0 O2 3.037273 1_455
Ba0 O0 3.047026 1_545
Ba0 O1 3.051136 1_455
Ba0 Br1 3.413241 1_555
Ba1 O12 2.760918 1_555
Ba1 O13 2.766445 1_555
Ba1 O11 2.767521 1_555
Ba1 O3 2.993917 1_555
Ba1 O4 2.995438 1_555
Ba1 O5 3.032543 1_655
Ba1 O5 3.037273 1_565
Ba1 O4 3.047026 1_655
Ba1 O3 3.051136 1_565
Ba1 Br0 3.413241 1_555
Ba2 O5 2.589794 1_555
Ba2 O4 2.618086 1_555
Ba2 O3 2.633714 1_555
Ba2 Br0 3.501892 1_545
Ba2 Br0 3.512661 1_555
Ba2 Br1 3.537049 1_554
Ba2 Br0 3.764519 1_455
Ba3 O2 2.589794 1_555
Ba3 O0 2.618086 1_555
Ba3 O1 2.633714 1_555
Ba3 Br1 3.501892 1_655
Ba3 Br1 3.512661 1_555
Ba3 Br0 3.537049 1_556
Ba3 Br1 3.764519 1_565
Co0 O13 2.020443 1_555
Co0 O11 2.021203 1_455
Co0 O10 2.021510 1_455
Co0 O8 2.023765 1_555
Co0 O7 2.062872 1_555
Co0 O6 2.063589 1_455
Co1 O9 2.029217 1_555
Co1 O11 2.029217 1_555
Co1 O8 2.031424 1_645
Co1 O12 2.031424 1_645
Co1 O6 2.072247 1_545
Co1 O7 2.072247 1_655
Co2 O10 2.020443 1_555
Co2 O9 2.021203 1_565
Co2 O13 2.021510 1_565
Co2 O12 2.023765 1_555
Co2 O6 2.062872 1_555
Co2 O7 2.063589 1_565
Co3 O0 1.852035 1_545
Co3 O1 1.852168 1_455
Co3 O2 1.907128 1_445
Co3 O7 1.944601 1_555
Co4 O4 1.852035 1_655
Co4 O3 1.852168 1_565
Co4 O5 1.907128 1_665
Co4 O6 1.944601 1_555
Co5 O2 2.053565 1_555
Co5 O9 2.086431 1_565
Co5 O8 2.086609 1_655
Co5 O0 2.086895 1_555
Co5 O1 2.089784 1_555
Co5 O10 2.125951 1_555
Co6 O5 2.053565 1_555
Co6 O11 2.086431 1_455
Co6 O12 2.086609 1_545
Co6 O4 2.086895 1_555
Co6 O3 2.089784 1_555
Co6 O13 2.125951 1_555
Co7 O13 2.109383 1_555
Co7 O10 2.109383 1_555
Co7 O9 2.128697 1_555
Co7 O11 2.128697 1_555
Co7 O8 2.129903 1_555
Co7 O12 2.129903 1_555
