# generated using pymatgen
data_Mg6Si5
_symmetry_space_group_name_H-M   'P 1'
_cell_length_a   4.62707800
_cell_length_b   8.31698640
_cell_length_c   11.81648836
_cell_angle_alpha   79.77909451
_cell_angle_beta   82.22457481
_cell_angle_gamma   76.25348465
_symmetry_Int_Tables_number   1
_chemical_formula_structural   Mg6Si5
_chemical_formula_sum   'Mg12 Si10'
_cell_volume   432.63554041
_cell_formula_units_Z   2
loop_
 _symmetry_equiv_pos_site_id
 _symmetry_equiv_pos_as_xyz
  1  'x, y, z'
loop_
 _atom_site_type_symbol
 _atom_site_label
 _atom_site_symmetry_multiplicity
 _atom_site_fract_x
 _atom_site_fract_y
 _atom_site_fract_z
 _atom_site_occupancy
  Mg  Mg0  1  0.99499600  0.36909400  0.90140200  1
  Mg  Mg1  1  0.09812600  0.63530400  0.64303100  1
  Mg  Mg2  1  0.15675100  0.71874200  0.37636900  1
  Mg  Mg3  1  0.85951400  0.76152600  0.90923800  1
  Mg  Mg4  1  0.58601300  0.34135200  0.71195100  1
  Mg  Mg5  1  0.73461800  0.77971900  0.17059700  1
  Mg  Mg6  1  0.19473800  0.29800700  0.34666500  1
  Mg  Mg7  1  0.71563200  0.13854100  0.50035300  1
  Mg  Mg8  1  0.06483800  0.02581900  0.72989300  1
  Mg  Mg9  1  0.57688800  0.20945900  0.12478200  1
  Mg  Mg10  1  0.39158200  0.59544500  0.05742500  1
  Mg  Mg11  1  0.19865400  0.98466100  0.01690800  1
  Si  Si0  1  0.13753300  0.30791100  0.58379900  1
  Si  Si1  1  0.57471700  0.98544800  0.33030200  1
  Si  Si2  1  0.08017300  0.02181200  0.24937800  1
  Si  Si3  1  0.46510000  0.62243300  0.81754700  1
  Si  Si4  1  0.61932500  0.87351800  0.68914300  1
  Si  Si5  1  0.53425300  0.79855200  0.51143600  1
  Si  Si6  1  0.95591900  0.43286700  0.13017200  1
  Si  Si7  1  0.76554300  0.51498800  0.48356500  1
  Si  Si8  1  0.66845600  0.11476700  0.91445700  1
  Si  Si9  1  0.62314300  0.46983400  0.30508800  1
loop_
_geom_bond_atom_site_label_1
_geom_bond_atom_site_label_2
_geom_bond_distance
_geom_bond_site_symmetry_2
Mg0 Si6 2.820040 1_556
Mg0 Si8 2.849725 1_555
Mg0 Si3 2.982321 1_555
Mg1 Si4 2.664733 1_455
Mg1 Si3 2.816024 1_555
Mg1 Si5 2.835056 1_555
Mg1 Si0 2.888476 1_555
Mg1 Si7 3.017589 1_455
Mg1 Si5 3.119890 1_455
Mg2 Si2 2.666074 1_565
Mg2 Si9 2.766935 1_555
Mg2 Si5 2.778538 1_555
Mg2 Si7 2.797948 1_455
Mg2 Si5 3.083458 1_455
Mg2 Si1 3.098165 1_455
Mg2 Si1 3.206604 1_555
Mg2 Si7 3.216568 1_555
Mg3 Si3 2.797485 1_555
Mg3 Si8 2.869111 1_565
Mg3 Si4 2.880460 1_555
Mg3 Si3 2.906315 1_655
Mg4 Si3 2.749497 1_555
Mg4 Si0 2.765741 1_655
Mg4 Si8 2.779908 1_555
Mg4 Si0 2.819713 1_555
Mg4 Si7 2.939233 1_555
Mg4 Mg7 3.172828 1_555
Mg5 Si1 2.683825 1_555
Mg5 Si9 2.896650 1_555
Mg5 Si6 2.924275 1_555
Mg5 Si2 3.174145 1_665
Mg6 Si9 2.654552 1_555
Mg6 Si9 2.754055 1_455
Mg6 Si0 2.792745 1_555
Mg6 Si1 2.792942 1_545
Mg6 Si6 2.860251 1_455
Mg6 Si7 2.877666 1_455
Mg6 Si2 2.925757 1_555
Mg6 Mg7 3.069973 1_455
Mg6 Mg7 3.110720 1_555
Mg7 Si1 2.782288 1_545
Mg7 Si0 2.846085 1_555
Mg7 Si4 2.913150 1_545
Mg7 Si0 3.014666 1_655
Mg7 Si5 3.111910 1_545
Mg7 Si7 3.163238 1_555
Mg7 Mg8 3.226472 1_655
Mg7 Si9 3.248008 1_555
Mg8 Si4 2.599346 1_545
Mg8 Si0 2.716307 1_555
Mg8 Si8 2.740967 1_455
Mg8 Si4 2.794966 1_445
Mg9 Si8 2.688420 1_554
Mg9 Si1 2.786672 1_545
Mg9 Si6 2.855398 1_555
Mg9 Si2 2.900229 1_655
Mg9 Si6 3.027776 1_455
Mg9 Si2 3.139953 1_555
Mg10 Si6 2.654233 1_455
Mg10 Si3 2.783913 1_554
Mg10 Si6 2.811163 1_555
Mg11 Si8 2.702387 1_564
Mg11 Si8 2.780665 1_464
Mg11 Si2 2.784806 1_565
Si0 Si7 2.398016 1_455
Si1 Si5 2.425199 1_555
Si1 Si2 2.470661 1_665
Si1 Si2 2.530351 1_565
Si3 Si4 2.542255 1_555
Si4 Si5 2.399602 1_555
Si5 Si7 2.407610 1_555
Si6 Si9 2.424229 1_555
Si7 Si9 2.407823 1_555
