# generated using pymatgen
data_HCS(OF)3
_symmetry_space_group_name_H-M   'P 1'
_cell_length_a   11.65965000
_cell_length_b   5.14550200
_cell_length_c   9.33466153
_cell_angle_alpha   67.09261952
_cell_angle_beta   90.00000000
_cell_angle_gamma   90.00000000
_symmetry_Int_Tables_number   1
_chemical_formula_structural   HCS(OF)3
_chemical_formula_sum   'H4 C4 S4 O12 F12'
_cell_volume   515.86403854
_cell_formula_units_Z   4
loop_
 _symmetry_equiv_pos_site_id
 _symmetry_equiv_pos_as_xyz
  1  'x, y, z'
loop_
 _atom_site_type_symbol
 _atom_site_label
 _atom_site_symmetry_multiplicity
 _atom_site_fract_x
 _atom_site_fract_y
 _atom_site_fract_z
 _atom_site_occupancy
  H  H0  1  0.25365700  0.99163200  0.47436900  1
  H  H1  1  0.24634300  0.99163200  0.97436900  1
  H  H2  1  0.74634300  0.00836800  0.52563100  1
  H  H3  1  0.75365700  0.00836800  0.02563100  1
  C  C0  1  0.05532000  0.33177000  0.26116100  1
  C  C1  1  0.44468000  0.33177000  0.76116100  1
  C  C2  1  0.94468000  0.66823000  0.73883900  1
  C  C3  1  0.55532000  0.66823000  0.23883900  1
  S  S0  1  0.20100000  0.20123800  0.23626700  1
  S  S1  1  0.29900000  0.20123800  0.73626700  1
  S  S2  1  0.79900000  0.79876200  0.76373300  1
  S  S3  1  0.70100000  0.79876200  0.26373300  1
  O  O0  1  0.21573900  0.93855900  0.39305700  1
  O  O1  1  0.28426100  0.93855900  0.89305700  1
  O  O2  1  0.78426100  0.06144100  0.60694300  1
  O  O3  1  0.71573900  0.06144100  0.10694300  1
  O  O4  1  0.18652100  0.09293100  0.11624300  1
  O  O5  1  0.31347900  0.09293100  0.61624300  1
  O  O6  1  0.81347900  0.90706900  0.88375700  1
  O  O7  1  0.68652100  0.90706900  0.38375700  1
  O  O8  1  0.28039900  0.42163100  0.22230300  1
  O  O9  1  0.21960100  0.42163100  0.72230300  1
  O  O10  1  0.71960100  0.57836900  0.77769700  1
  O  O11  1  0.78039900  0.57836900  0.27769700  1
  F  F0  1  0.03342300  0.56839100  0.13535000  1
  F  F1  1  0.46657700  0.56839100  0.63535000  1
  F  F2  1  0.96657700  0.43160900  0.86465000  1
  F  F3  1  0.53342300  0.43160900  0.36465000  1
  F  F4  1  0.05372300  0.38977400  0.38985100  1
  F  F5  1  0.44627700  0.38977400  0.88985100  1
  F  F6  1  0.94627700  0.61022600  0.61014900  1
  F  F7  1  0.55372300  0.61022600  0.11014900  1
  F  F8  1  0.97557600  0.13478800  0.27363700  1
  F  F9  1  0.52442400  0.13478800  0.77363700  1
  F  F10  1  0.02442400  0.86521200  0.72636300  1
  F  F11  1  0.47557600  0.86521200  0.22636300  1
loop_
_geom_bond_atom_site_label_1
_geom_bond_atom_site_label_2
_geom_bond_distance
_geom_bond_site_symmetry_2
H0 O0 1.003750 1_555
H1 O1 1.003750 1_555
H2 O2 1.003750 1_555
H3 O3 1.003750 1_555
C0 F4 1.345959 1_555
C0 F8 1.346663 1_455
C0 F0 1.346721 1_555
C1 F5 1.345959 1_555
C1 F9 1.346663 1_555
C1 F1 1.346721 1_555
C2 F6 1.345959 1_555
C2 F10 1.346663 1_655
C2 F2 1.346721 1_555
C3 F7 1.345959 1_555
C3 F11 1.346663 1_555
C3 F3 1.346721 1_555
O0 S0 1.567951 1_565
O1 S1 1.567951 1_565
O2 S2 1.567951 1_545
O3 S3 1.567951 1_545
O4 S0 1.442362 1_555
O5 S1 1.442362 1_555
O6 S2 1.442362 1_555
O7 S3 1.442362 1_555
O8 S0 1.430030 1_555
O9 S1 1.430030 1_555
O10 S2 1.430030 1_555
O11 S3 1.430030 1_555
