# generated using pymatgen
data_Sr3(GaP2)2
_symmetry_space_group_name_H-M   'P 1'
_cell_length_a   8.35469161
_cell_length_b   8.35469161
_cell_length_c   6.66012932
_cell_angle_alpha   89.68277608
_cell_angle_beta   89.68277608
_cell_angle_gamma   75.44201864
_symmetry_Int_Tables_number   1
_chemical_formula_structural   Sr3(GaP2)2
_chemical_formula_sum   'Sr6 Ga4 P8'
_cell_volume   449.94617475
_cell_formula_units_Z   2
loop_
 _symmetry_equiv_pos_site_id
 _symmetry_equiv_pos_as_xyz
  1  'x, y, z'
loop_
 _atom_site_type_symbol
 _atom_site_label
 _atom_site_symmetry_multiplicity
 _atom_site_fract_x
 _atom_site_fract_y
 _atom_site_fract_z
 _atom_site_occupancy
  Sr  Sr0  1  0.00539725  0.74816768  0.53895360  1
  Sr  Sr1  1  0.25183232  0.99460275  0.96104640  1
  Sr  Sr2  1  0.99460275  0.25183232  0.46104640  1
  Sr  Sr3  1  0.74816768  0.00539725  0.03895360  1
  Sr  Sr4  1  0.39992190  0.60007810  0.25000000  1
  Sr  Sr5  1  0.60007810  0.39992190  0.75000000  1
  Ga  Ga0  1  0.82406630  0.58318903  0.08294827  1
  Ga  Ga1  1  0.41681097  0.17593370  0.41705173  1
  Ga  Ga2  1  0.17593370  0.41681097  0.91705173  1
  Ga  Ga3  1  0.58318903  0.82406630  0.58294827  1
  P  P0  1  0.05723509  0.70324106  0.02312956  1
  P  P1  1  0.29675894  0.94276491  0.47687044  1
  P  P2  1  0.94276491  0.29675894  0.97687044  1
  P  P3  1  0.70324106  0.05723509  0.52312956  1
  P  P4  1  0.74009055  0.57665449  0.42448454  1
  P  P5  1  0.42334551  0.25990945  0.07551546  1
  P  P6  1  0.25990945  0.42334551  0.57551546  1
  P  P7  1  0.57665449  0.74009055  0.92448454  1
loop_
_geom_bond_atom_site_label_1
_geom_bond_atom_site_label_2
_geom_bond_distance
_geom_bond_site_symmetry_2
Ga0 P4 2.381086 1_555
Ga0 P7 2.398241 1_554
Ga0 P0 2.434929 1_655
Ga0 P2 2.455022 1_554
Ga1 P5 2.381086 1_555
Ga1 P6 2.398241 1_555
Ga1 P1 2.434929 1_545
Ga1 P3 2.455022 1_555
Ga2 P6 2.381086 1_555
Ga2 P5 2.398241 1_556
Ga2 P2 2.434929 1_455
Ga2 P0 2.455022 1_556
Ga3 P7 2.381086 1_555
Ga3 P4 2.398241 1_555
Ga3 P3 2.434929 1_565
Ga3 P1 2.455022 1_555
P0 Sr3 3.126396 1_465
P0 Sr4 3.164792 1_555
P0 Sr0 3.263023 1_554
P0 Sr1 3.272715 1_554
P0 Sr0 3.470862 1_555
P1 Sr2 3.126396 1_465
P1 Sr4 3.164792 1_555
P1 Sr1 3.263023 1_555
P1 Sr0 3.272715 1_555
P1 Sr1 3.470862 1_554
P2 Sr1 3.126396 1_645
P2 Sr5 3.164792 1_555
P2 Sr2 3.263023 1_556
P2 Sr3 3.272715 1_556
P2 Sr2 3.470862 1_555
P3 Sr0 3.126396 1_645
P3 Sr5 3.164792 1_555
P3 Sr3 3.263023 1_555
P3 Sr2 3.272715 1_555
P3 Sr3 3.470862 1_556
P4 Sr2 3.007135 1_555
P4 Sr5 3.008890 1_555
P4 Sr0 3.029059 1_655
P4 Sr4 3.036477 1_555
P5 Sr3 3.007135 1_555
P5 Sr5 3.008890 1_554
P5 Sr1 3.029059 1_544
P5 Sr4 3.036477 1_555
P6 Sr0 3.007135 1_555
P6 Sr4 3.008890 1_555
P6 Sr2 3.029059 1_455
P6 Sr5 3.036477 1_555
P7 Sr1 3.007135 1_555
P7 Sr4 3.008890 1_556
P7 Sr3 3.029059 1_566
P7 Sr5 3.036477 1_555
