# generated using pymatgen
data_Sc
_symmetry_space_group_name_H-M   'P 1'
_cell_length_a   6.41919428
_cell_length_b   6.41919428
_cell_length_c   6.41919428
_cell_angle_alpha   106.64142828
_cell_angle_beta   106.64142828
_cell_angle_gamma   115.29237643
_symmetry_Int_Tables_number   1
_chemical_formula_structural   Sc
_chemical_formula_sum   Sc8
_cell_volume   202.02731609
_cell_formula_units_Z   8
loop_
 _symmetry_equiv_pos_site_id
 _symmetry_equiv_pos_as_xyz
  1  'x, y, z'
loop_
 _atom_site_type_symbol
 _atom_site_label
 _atom_site_symmetry_multiplicity
 _atom_site_fract_x
 _atom_site_fract_y
 _atom_site_fract_z
 _atom_site_occupancy
  Sc  Sc0_0  1  0.00000000  0.00000000  0.00000000  1
  Sc  Sc0_1  1  0.00000000  0.00000000  0.50000000  1
  Sc  Sc0_2  1  0.00000000  0.50000000  0.00000000  1
  Sc  Sc0_3  1  0.00000000  0.50000000  0.50000000  1
  Sc  Sc0_4  1  0.50000000  0.00000000  0.00000000  1
  Sc  Sc0_5  1  0.50000000  0.00000000  0.50000000  1
  Sc  Sc0_6  1  0.50000000  0.50000000  0.00000000  1
  Sc  Sc0_7  1  0.50000000  0.50000000  0.50000000  1
loop_
_geom_bond_atom_site_label_1
_geom_bond_atom_site_label_2
_geom_bond_distance
_geom_bond_site_symmetry_2
Sc0_0 Sc0_1 3.209597 1_554
Sc0_0 Sc0_7 3.209597 1_444
Sc0_0 Sc0_7 3.209597 1_555
Sc0_0 Sc0_2 3.209597 1_555
Sc0_0 Sc0_4 3.209597 1_555
Sc0_0 Sc0_2 3.209597 1_545
Sc0_0 Sc0_4 3.209597 1_455
Sc0_0 Sc0_1 3.209597 1_555
Sc0_0 Sc0_6 3.435206 1_555
Sc0_0 Sc0_6 3.435206 1_445
Sc0_1 Sc0_5 3.209597 1_455
Sc0_1 Sc0_5 3.209597 1_555
Sc0_1 Sc0_3 3.209597 1_555
Sc0_1 Sc0_6 3.209597 1_445
Sc0_1 Sc0_6 3.209597 1_556
Sc0_1 Sc0_3 3.209597 1_545
Sc0_1 Sc0_7 3.435206 1_445
Sc0_1 Sc0_7 3.435206 1_555
Sc0_2 Sc0_3 3.209597 1_555
Sc0_2 Sc0_6 3.209597 1_455
Sc0_2 Sc0_5 3.209597 1_565
Sc0_2 Sc0_5 3.209597 1_454
Sc0_2 Sc0_6 3.209597 1_555
Sc0_2 Sc0_3 3.209597 1_554
Sc0_2 Sc0_4 3.435206 1_455
Sc0_2 Sc0_4 3.435206 1_565
Sc0_3 Sc0_7 3.209597 1_555
Sc0_3 Sc0_4 3.209597 1_566
Sc0_3 Sc0_7 3.209597 1_455
Sc0_3 Sc0_4 3.209597 1_455
Sc0_3 Sc0_5 3.435206 1_455
Sc0_3 Sc0_5 3.435206 1_565
Sc0_4 Sc0_5 3.209597 1_555
Sc0_4 Sc0_5 3.209597 1_554
Sc0_4 Sc0_6 3.209597 1_555
Sc0_4 Sc0_6 3.209597 1_545
Sc0_5 Sc0_7 3.209597 1_555
Sc0_5 Sc0_7 3.209597 1_545
Sc0_6 Sc0_7 3.209597 1_555
Sc0_6 Sc0_7 3.209597 1_554
