# generated using pymatgen
data_KH4PbI3O2
_symmetry_space_group_name_H-M   'P 1'
_cell_length_a   4.62873300
_cell_length_b   10.39347800
_cell_length_c   22.90977900
_cell_angle_alpha   90.00000000
_cell_angle_beta   90.00000000
_cell_angle_gamma   90.00000000
_symmetry_Int_Tables_number   1
_chemical_formula_structural   KH4PbI3O2
_chemical_formula_sum   'K4 H16 Pb4 I12 O8'
_cell_volume   1102.15818676
_cell_formula_units_Z   4
loop_
 _symmetry_equiv_pos_site_id
 _symmetry_equiv_pos_as_xyz
  1  'x, y, z'
loop_
 _atom_site_type_symbol
 _atom_site_label
 _atom_site_symmetry_multiplicity
 _atom_site_fract_x
 _atom_site_fract_y
 _atom_site_fract_z
 _atom_site_occupancy
  K  K0  1  0.24972300  0.36119400  0.79932700  1
  K  K1  1  0.24972300  0.86119400  0.70067300  1
  K  K2  1  0.74972300  0.63880600  0.20067300  1
  K  K3  1  0.74972300  0.13880600  0.29932700  1
  H  H0  1  0.74962600  0.41773200  0.90675000  1
  H  H1  1  0.74962600  0.91773200  0.59325000  1
  H  H2  1  0.24962600  0.58226800  0.09325000  1
  H  H3  1  0.24962600  0.08226800  0.40675000  1
  H  H4  1  0.75062100  0.53000300  0.86216800  1
  H  H5  1  0.75062100  0.03000300  0.63783200  1
  H  H6  1  0.25062100  0.46999700  0.13783200  1
  H  H7  1  0.25062100  0.96999700  0.36216800  1
  H  H8  1  0.75332800  0.35488400  0.00747800  1
  H  H9  1  0.75332800  0.85488400  0.49252200  1
  H  H10  1  0.25332800  0.64511600  0.99252200  1
  H  H11  1  0.25332800  0.14511600  0.50747800  1
  H  H12  1  0.57231300  0.48111000  0.99631100  1
  H  H13  1  0.07231300  0.51889000  0.00368900  1
  H  H14  1  0.07231300  0.01889000  0.49631100  1
  H  H15  1  0.57231300  0.98111000  0.50368900  1
  Pb  Pb0  1  0.75002000  0.95787300  0.90510000  1
  Pb  Pb1  1  0.75002000  0.45787300  0.59490000  1
  Pb  Pb2  1  0.25002000  0.04212700  0.09490000  1
  Pb  Pb3  1  0.25002000  0.54212700  0.40510000  1
  I  I0  1  0.74855600  0.84314300  0.04853300  1
  I  I1  1  0.74855600  0.34314300  0.45146700  1
  I  I2  1  0.24855600  0.15685700  0.95146700  1
  I  I3  1  0.24855600  0.65685700  0.54853300  1
  I  I4  1  0.24893000  0.75169000  0.86942000  1
  I  I5  1  0.24893000  0.25169000  0.63058000  1
  I  I6  1  0.74893000  0.24831000  0.13058000  1
  I  I7  1  0.74893000  0.74831000  0.36942000  1
  I  I8  1  0.74992100  0.08332700  0.78383600  1
  I  I9  1  0.74992100  0.58332700  0.71616400  1
  I  I10  1  0.24992100  0.91667300  0.21616400  1
  I  I11  1  0.24992100  0.41667300  0.28383600  1
  O  O0  1  0.74913600  0.43586600  0.86418500  1
  O  O1  1  0.74913600  0.93586600  0.63581500  1
  O  O2  1  0.24913600  0.56413400  0.13581500  1
  O  O3  1  0.24913600  0.06413400  0.36418500  1
  O  O4  1  0.75652600  0.43597200  0.98578000  1
  O  O5  1  0.75652600  0.93597200  0.51422000  1
  O  O6  1  0.25652600  0.56402800  0.01422000  1
  O  O7  1  0.25652600  0.06402800  0.48578000  1
loop_
_geom_bond_atom_site_label_1
_geom_bond_atom_site_label_2
_geom_bond_distance
_geom_bond_site_symmetry_2
K0 O0 2.855504 1_555
K0 O0 2.859905 1_455
K1 O1 2.855504 1_555
K1 O1 2.859905 1_455
K2 O2 2.855504 1_655
K2 O2 2.859905 1_555
K3 O3 2.855504 1_655
K3 O3 2.859905 1_555
H0 O0 0.993204 1_555
H1 O1 0.993204 1_555
H2 O2 0.993204 1_555
H3 O3 0.993204 1_555
H4 O0 0.979526 1_555
H5 O1 0.979526 1_545
H6 O2 0.979526 1_555
H7 O3 0.979526 1_565
H8 O4 0.978577 1_554
H9 O5 0.978577 1_555
H10 O6 0.978577 1_556
H11 O7 0.978577 1_555
H12 O4 1.002672 1_555
H13 O6 1.002672 1_555
H14 O7 1.002672 1_555
H15 O5 1.002672 1_555
I0 Pb2 3.275752 1_565
I0 Pb2 3.285313 1_665
I0 Pb0 3.495695 1_554
I0 K2 4.081557 1_555
I1 Pb3 3.275752 1_555
I1 Pb3 3.285313 1_655
I1 Pb1 3.495695 1_555
I1 K3 4.081557 1_555
I2 Pb0 3.275752 1_445
I2 Pb0 3.285313 1_545
I2 Pb2 3.495695 1_556
I2 K0 4.081557 1_555
I3 Pb1 3.275752 1_455
I3 Pb1 3.285313 1_555
I3 Pb3 3.495695 1_555
I3 K1 4.081557 1_555
I4 Pb0 3.254752 1_455
I4 Pb0 3.261920 1_555
I4 K1 4.030008 1_555
I5 Pb1 3.254752 1_455
I5 Pb1 3.261920 1_555
I5 K0 4.030008 1_555
I6 Pb2 3.254752 1_555
I6 Pb2 3.261920 1_655
I6 K3 4.030008 1_555
I7 Pb3 3.254752 1_555
I7 Pb3 3.261920 1_655
I7 K2 4.030008 1_555
I8 Pb0 3.068905 1_545
I8 K0 3.717334 1_655
I8 K0 3.718475 1_555
I8 K1 3.783156 1_645
I8 K1 3.784277 1_545
I9 Pb1 3.068905 1_555
I9 K1 3.717334 1_655
I9 K1 3.718475 1_555
I9 K0 3.783156 1_655
I9 K0 3.784277 1_555
I10 Pb2 3.068905 1_565
I10 K2 3.717334 1_555
I10 K2 3.718475 1_455
I10 K3 3.783156 1_565
I10 K3 3.784277 1_465
I11 Pb3 3.068905 1_555
I11 K3 3.717334 1_555
I11 K3 3.718475 1_455
I11 K2 3.783156 1_555
I11 K2 3.784277 1_455
