# generated using pymatgen
data_LiV4O8
_symmetry_space_group_name_H-M   'P 1'
_cell_length_a   5.47042896
_cell_length_b   5.46116003
_cell_length_c   6.25575900
_cell_angle_alpha   88.81613497
_cell_angle_beta   91.85843934
_cell_angle_gamma   64.34058582
_symmetry_Int_Tables_number   1
_chemical_formula_structural   LiV4O8
_chemical_formula_sum   'Li1 V4 O8'
_cell_volume   168.24616646
_cell_formula_units_Z   1
loop_
 _symmetry_equiv_pos_site_id
 _symmetry_equiv_pos_as_xyz
  1  'x, y, z'
loop_
 _atom_site_type_symbol
 _atom_site_label
 _atom_site_symmetry_multiplicity
 _atom_site_fract_x
 _atom_site_fract_y
 _atom_site_fract_z
 _atom_site_occupancy
  Li  Li0  1  0.15588300  0.15967000  0.25416900  1
  V  V0  1  0.94113000  0.92908800  0.98225700  1
  V  V1  1  0.92705400  0.93808700  0.51718700  1
  V  V2  1  0.41799400  0.41762800  0.24966100  1
  V  V3  1  0.60461900  0.60486300  0.74876100  1
  O  O0  1  0.29515400  0.31001200  0.04302700  1
  O  O1  1  0.31413200  0.30101400  0.46004400  1
  O  O2  1  0.20673900  0.78796800  0.23974700  1
  O  O3  1  0.22147100  0.77915200  0.74011600  1
  O  O4  1  0.78774000  0.20319600  0.25938800  1
  O  O5  1  0.77900300  0.22142000  0.75912200  1
  O  O6  1  0.72057900  0.74298900  0.96658600  1
  O  O7  1  0.74100200  0.71741200  0.52993500  1
loop_
_geom_bond_atom_site_label_1
_geom_bond_atom_site_label_2
_geom_bond_distance
_geom_bond_site_symmetry_2
Li0 O1 1.884523 1_555
Li0 O0 1.887168 1_555
Li0 O4 1.924413 1_455
Li0 O2 1.930348 1_545
O0 V2 1.668831 1_555
O1 V2 1.669658 1_555
O2 V2 1.842772 1_555
O2 V0 2.031481 1_454
O2 V1 2.273770 1_455
O3 V3 1.888069 1_555
O3 V1 1.971260 1_455
O3 V0 2.105067 1_455
O4 V2 1.844987 1_555
O4 V1 2.036187 1_545
O4 V0 2.250401 1_544
O5 V3 1.886692 1_555
O5 V0 1.971084 1_545
O5 V1 2.105177 1_545
O6 V3 1.796962 1_555
O6 V0 1.885883 1_555
O7 V3 1.799162 1_555
O7 V1 1.886311 1_555
