# generated using pymatgen
data_Sr5(FeN2)2
_symmetry_space_group_name_H-M   'P 1'
_cell_length_a   8.73104400
_cell_length_b   8.73104400
_cell_length_c   12.41935200
_cell_angle_alpha   90.00000000
_cell_angle_beta   90.00000000
_cell_angle_gamma   90.00000000
_symmetry_Int_Tables_number   1
_chemical_formula_structural   Sr5(FeN2)2
_chemical_formula_sum   'Sr20 Fe8 N16'
_cell_volume   946.74122851
_cell_formula_units_Z   4
loop_
 _symmetry_equiv_pos_site_id
 _symmetry_equiv_pos_as_xyz
  1  'x, y, z'
loop_
 _atom_site_type_symbol
 _atom_site_label
 _atom_site_symmetry_multiplicity
 _atom_site_fract_x
 _atom_site_fract_y
 _atom_site_fract_z
 _atom_site_occupancy
  Sr  Sr0  1  0.75000000  0.75000000  0.33762100  1
  Sr  Sr1  1  0.75000000  0.75000000  0.83762100  1
  Sr  Sr2  1  0.25000000  0.25000000  0.66237900  1
  Sr  Sr3  1  0.25000000  0.25000000  0.16237900  1
  Sr  Sr4  1  0.13674500  0.56929300  0.39838000  1
  Sr  Sr5  1  0.36325500  0.56929300  0.89838000  1
  Sr  Sr6  1  0.13674500  0.93070700  0.89838000  1
  Sr  Sr7  1  0.36325500  0.93070700  0.39838000  1
  Sr  Sr8  1  0.56929300  0.13674500  0.89838000  1
  Sr  Sr9  1  0.93070700  0.13674500  0.39838000  1
  Sr  Sr10  1  0.56929300  0.36325500  0.39838000  1
  Sr  Sr11  1  0.93070700  0.36325500  0.89838000  1
  Sr  Sr12  1  0.86325500  0.43070700  0.60162000  1
  Sr  Sr13  1  0.63674500  0.43070700  0.10162000  1
  Sr  Sr14  1  0.86325500  0.06929300  0.10162000  1
  Sr  Sr15  1  0.63674500  0.06929300  0.60162000  1
  Sr  Sr16  1  0.43070700  0.86325500  0.10162000  1
  Sr  Sr17  1  0.06929300  0.86325500  0.60162000  1
  Sr  Sr18  1  0.43070700  0.63674500  0.60162000  1
  Sr  Sr19  1  0.06929300  0.63674500  0.10162000  1
  Fe  Fe0  1  0.09187500  0.90812500  0.25000000  1
  Fe  Fe1  1  0.40812500  0.90812500  0.75000000  1
  Fe  Fe2  1  0.09187500  0.59187500  0.75000000  1
  Fe  Fe3  1  0.40812500  0.59187500  0.25000000  1
  Fe  Fe4  1  0.90812500  0.09187500  0.75000000  1
  Fe  Fe5  1  0.59187500  0.09187500  0.25000000  1
  Fe  Fe6  1  0.90812500  0.40812500  0.25000000  1
  Fe  Fe7  1  0.59187500  0.40812500  0.75000000  1
  N  N0  1  0.64219000  0.05819200  0.38353200  1
  N  N1  1  0.85781000  0.05819200  0.88353200  1
  N  N2  1  0.64219000  0.44180800  0.88353200  1
  N  N3  1  0.85781000  0.44180800  0.38353200  1
  N  N4  1  0.05819200  0.64219000  0.88353200  1
  N  N5  1  0.44180800  0.64219000  0.38353200  1
  N  N6  1  0.05819200  0.85781000  0.38353200  1
  N  N7  1  0.44180800  0.85781000  0.88353200  1
  N  N8  1  0.35781000  0.94180800  0.61646800  1
  N  N9  1  0.14219000  0.94180800  0.11646800  1
  N  N10  1  0.35781000  0.55819200  0.11646800  1
  N  N11  1  0.14219000  0.55819200  0.61646800  1
  N  N12  1  0.94180800  0.35781000  0.11646800  1
  N  N13  1  0.55819200  0.35781000  0.61646800  1
  N  N14  1  0.94180800  0.14219000  0.61646800  1
  N  N15  1  0.55819200  0.14219000  0.11646800  1
loop_
_geom_bond_atom_site_label_1
_geom_bond_atom_site_label_2
_geom_bond_distance
_geom_bond_site_symmetry_2
Fe0 N6 1.740604 1_555
Fe0 N9 1.740604 1_555
Fe1 N8 1.740604 1_555
Fe1 N7 1.740604 1_555
Fe2 N4 1.740604 1_555
Fe2 N11 1.740604 1_555
Fe3 N10 1.740604 1_555
Fe3 N5 1.740604 1_555
Fe4 N1 1.740604 1_555
Fe4 N14 1.740604 1_555
Fe5 N15 1.740604 1_555
Fe5 N0 1.740604 1_555
Fe6 N12 1.740604 1_555
Fe6 N3 1.740604 1_555
Fe7 N2 1.740604 1_555
Fe7 N13 1.740604 1_555
N0 Sr9 2.617256 1_555
N0 Sr7 2.684043 1_545
N0 Sr15 2.710662 1_555
N0 Sr10 2.744709 1_555
N0 Sr0 2.907190 1_545
N1 Sr8 2.617256 1_555
N1 Sr6 2.684043 1_645
N1 Sr14 2.710662 1_556
N1 Sr11 2.744709 1_555
N1 Sr1 2.907190 1_545
N2 Sr11 2.617256 1_555
N2 Sr5 2.684043 1_555
N2 Sr13 2.710662 1_556
N2 Sr8 2.744709 1_555
N2 Sr1 2.907190 1_555
N3 Sr10 2.617256 1_555
N3 Sr4 2.684043 1_655
N3 Sr12 2.710662 1_555
N3 Sr9 2.744709 1_555
N3 Sr0 2.907190 1_555
N4 Sr6 2.617256 1_555
N4 Sr11 2.684043 1_455
N4 Sr19 2.710662 1_556
N4 Sr5 2.744709 1_555
N4 Sr1 2.907190 1_455
N5 Sr7 2.617256 1_555
N5 Sr10 2.684043 1_555
N5 Sr18 2.710662 1_555
N5 Sr4 2.744709 1_555
N5 Sr0 2.907190 1_555
N6 Sr4 2.617256 1_555
N6 Sr9 2.684043 1_465
N6 Sr17 2.710662 1_555
N6 Sr7 2.744709 1_555
N6 Sr0 2.907190 1_455
N7 Sr5 2.617256 1_555
N7 Sr8 2.684043 1_565
N7 Sr16 2.710662 1_556
N7 Sr6 2.744709 1_555
N7 Sr1 2.907190 1_555
N8 Sr17 2.617256 1_555
N8 Sr15 2.684043 1_565
N8 Sr7 2.710662 1_555
N8 Sr18 2.744709 1_555
N8 Sr2 2.907190 1_565
N9 Sr16 2.617256 1_555
N9 Sr14 2.684043 1_465
N9 Sr6 2.710662 1_554
N9 Sr19 2.744709 1_555
N9 Sr3 2.907190 1_565
N10 Sr19 2.617256 1_555
N10 Sr13 2.684043 1_555
N10 Sr5 2.710662 1_554
N10 Sr16 2.744709 1_555
N10 Sr3 2.907190 1_555
N11 Sr18 2.617256 1_555
N11 Sr12 2.684043 1_455
N11 Sr4 2.710662 1_555
N11 Sr17 2.744709 1_555
N11 Sr2 2.907190 1_555
N12 Sr14 2.617256 1_555
N12 Sr19 2.684043 1_655
N12 Sr11 2.710662 1_554
N12 Sr13 2.744709 1_555
N12 Sr3 2.907190 1_655
N13 Sr15 2.617256 1_555
N13 Sr18 2.684043 1_555
N13 Sr10 2.710662 1_555
N13 Sr12 2.744709 1_555
N13 Sr2 2.907190 1_555
N14 Sr12 2.617256 1_555
N14 Sr17 2.684043 1_645
N14 Sr9 2.710662 1_555
N14 Sr15 2.744709 1_555
N14 Sr2 2.907190 1_655
N15 Sr13 2.617256 1_555
N15 Sr16 2.684043 1_545
N15 Sr8 2.710662 1_554
N15 Sr14 2.744709 1_555
N15 Sr3 2.907190 1_555
