# generated using pymatgen
data_ZrCrCuS4
_symmetry_space_group_name_H-M   'P 1'
_cell_length_a   11.58657428
_cell_length_b   3.55652000
_cell_length_c   13.07031079
_cell_angle_alpha   90.00000000
_cell_angle_beta   90.36893386
_cell_angle_gamma   90.00000000
_symmetry_Int_Tables_number   1
_chemical_formula_structural   ZrCrCuS4
_chemical_formula_sum   'Zr4 Cr4 Cu4 S16'
_cell_volume   538.58867415
_cell_formula_units_Z   4
loop_
 _symmetry_equiv_pos_site_id
 _symmetry_equiv_pos_as_xyz
  1  'x, y, z'
loop_
 _atom_site_type_symbol
 _atom_site_label
 _atom_site_symmetry_multiplicity
 _atom_site_fract_x
 _atom_site_fract_y
 _atom_site_fract_z
 _atom_site_occupancy
  Zr  Zr0  1  0.38700000  0.75000000  0.56928100  1
  Zr  Zr1  1  0.84105700  0.75000000  0.34185600  1
  Zr  Zr2  1  0.34761400  0.75000000  0.15954900  1
  Zr  Zr3  1  0.66284200  0.25000000  0.84136200  1
  Cr  Cr0  1  0.11326100  0.25000000  0.05831600  1
  Cr  Cr1  1  0.89392400  0.75000000  0.93996400  1
  Cr  Cr2  1  0.60857400  0.25000000  0.43903700  1
  Cr  Cr3  1  0.14895400  0.25000000  0.66431900  1
  Cu  Cu0  1  0.06983300  0.75000000  0.46754700  1
  Cu  Cu1  1  0.90842800  0.25000000  0.51981300  1
  Cu  Cu2  1  0.39646300  0.25000000  0.97864300  1
  Cu  Cu3  1  0.60173400  0.75000000  0.01982100  1
  S  S0  1  0.00970400  0.75000000  0.63127500  1
  S  S1  1  0.00053500  0.25000000  0.35909600  1
  S  S2  1  0.50490200  0.25000000  0.12651100  1
  S  S3  1  0.50266000  0.75000000  0.86747200  1
  S  S4  1  0.01969300  0.25000000  0.89398400  1
  S  S5  1  0.98677700  0.75000000  0.10438800  1
  S  S6  1  0.48189700  0.75000000  0.38440500  1
  S  S7  1  0.53596300  0.25000000  0.61663900  1
  S  S8  1  0.21795300  0.25000000  0.22680500  1
  S  S9  1  0.79206800  0.75000000  0.77322100  1
  S  S10  1  0.26553100  0.75000000  0.72815600  1
  S  S11  1  0.70768000  0.25000000  0.27613600  1
  S  S12  1  0.24802500  0.75000000  0.99183100  1
  S  S13  1  0.75943100  0.25000000  0.00888100  1
  S  S14  1  0.24196100  0.25000000  0.50358300  1
  S  S15  1  0.74553500  0.75000000  0.50810700  1
loop_
_geom_bond_atom_site_label_1
_geom_bond_atom_site_label_2
_geom_bond_distance
_geom_bond_site_symmetry_2
Cr0 S5 2.384099 1_455
Cr0 S5 2.384099 1_445
Cr0 S4 2.399730 1_554
Cr0 S8 2.507333 1_555
Cr0 S12 2.524469 1_544
Cr0 S12 2.524469 1_554
Cr1 S4 2.378693 1_665
Cr1 S4 2.378693 1_655
Cr1 S5 2.397121 1_556
Cr1 S9 2.471714 1_555
Cr1 S13 2.533773 1_566
Cr1 S13 2.533773 1_556
Cr2 S6 2.410993 1_545
Cr2 S6 2.410993 1_555
Cr2 S11 2.425578 1_555
Cr2 S7 2.474157 1_555
Cr2 S15 2.545000 1_545
Cr2 S15 2.545000 1_555
Cr3 S14 2.367298 1_555
Cr3 S10 2.380826 1_555
Cr3 S10 2.380826 1_545
Cr3 S0 2.437812 1_545
Cr3 S0 2.437812 1_555
Cu0 S0 2.254789 1_555
Cu0 S1 2.408634 1_565
Cu0 S1 2.408634 1_555
Cu0 S14 2.710993 1_555
Cu0 S14 2.710993 1_565
Cu1 S1 2.362288 1_655
Cu1 S0 2.576733 1_655
Cu1 S0 2.576733 1_645
Cu1 S15 2.596935 1_545
Cu1 S15 2.596935 1_555
Cu2 S2 2.298394 1_556
Cu2 S12 2.480676 1_555
Cu2 S12 2.480676 1_545
Cu2 S3 2.609710 1_545
Cu2 S3 2.609710 1_555
Cu3 S3 2.292024 1_554
Cu3 S2 2.526991 1_555
Cu3 S2 2.526991 1_565
Cu3 S13 2.554322 1_565
Cu3 S13 2.554322 1_555
S1 Zr1 2.573325 1_445
S1 Zr1 2.573325 1_455
S2 Zr2 2.584581 1_555
S2 Zr2 2.584581 1_545
S3 Zr3 2.594498 1_565
S3 Zr3 2.594498 1_555
S6 Zr0 2.661223 1_555
S6 Zr2 3.316509 1_555
S7 Zr0 2.551581 1_545
S7 Zr0 2.551581 1_555
S7 Zr3 3.276081 1_555
S8 Zr2 2.491775 1_555
S8 Zr2 2.491775 1_545
S9 Zr3 2.492882 1_555
S9 Zr3 2.492882 1_565
S10 Zr0 2.516045 1_555
S11 Zr1 2.504230 1_555
S11 Zr1 2.504230 1_545
S12 Zr2 2.470692 1_556
S13 Zr3 2.452535 1_554
S14 Zr0 2.589416 1_545
S14 Zr0 2.589416 1_555
S15 Zr1 2.444921 1_555
