# generated using pymatgen
data_Hf5GaSn3
_symmetry_space_group_name_H-M   'P 1'
_cell_length_a   8.58560432
_cell_length_b   8.58560432
_cell_length_c   5.80020672
_cell_angle_alpha   90.00000000
_cell_angle_beta   90.00000000
_cell_angle_gamma   120.00000306
_symmetry_Int_Tables_number   1
_chemical_formula_structural   Hf5GaSn3
_chemical_formula_sum   'Hf10 Ga2 Sn6'
_cell_volume   370.26770068
_cell_formula_units_Z   2
loop_
 _symmetry_equiv_pos_site_id
 _symmetry_equiv_pos_as_xyz
  1  'x, y, z'
loop_
 _atom_site_type_symbol
 _atom_site_label
 _atom_site_symmetry_multiplicity
 _atom_site_fract_x
 _atom_site_fract_y
 _atom_site_fract_z
 _atom_site_occupancy
  Hf  Hf0  1  0.73499782  0.73499782  0.75000000  1
  Hf  Hf1  1  0.26500218  0.00000000  0.75000000  1
  Hf  Hf2  1  0.00000000  0.26500218  0.75000000  1
  Hf  Hf3  1  0.26500218  0.26500218  0.25000000  1
  Hf  Hf4  1  0.73499782  -0.00000000  0.25000000  1
  Hf  Hf5  1  -0.00000000  0.73499782  0.25000000  1
  Hf  Hf6  1  0.66666700  0.33333300  0.00000000  1
  Hf  Hf7  1  0.33333300  0.66666700  0.00000000  1
  Hf  Hf8  1  0.33333300  0.66666700  0.50000000  1
  Hf  Hf9  1  0.66666700  0.33333300  0.50000000  1
  Ga  Ga0  1  0.00000000  -0.00000000  0.00000000  1
  Ga  Ga1  1  0.00000000  -0.00000000  0.50000000  1
  Sn  Sn0  1  0.38961987  0.38961987  0.75000000  1
  Sn  Sn1  1  0.61038013  0.00000000  0.75000000  1
  Sn  Sn2  1  0.00000000  0.61038013  0.75000000  1
  Sn  Sn3  1  0.61038013  0.61038013  0.25000000  1
  Sn  Sn4  1  0.38961987  -0.00000000  0.25000000  1
  Sn  Sn5  1  -0.00000000  0.38961987  0.25000000  1
loop_
_geom_bond_atom_site_label_1
_geom_bond_atom_site_label_2
_geom_bond_distance
_geom_bond_site_symmetry_2
Hf0 Sn1 2.958980 1_565
Hf0 Sn2 2.958980 1_655
Hf0 Sn0 2.965278 1_555
Hf0 Sn3 3.091169 1_556
Hf0 Sn3 3.091169 1_555
Hf1 Sn2 2.958979 1_545
Hf1 Sn0 2.958979 1_555
Hf1 Sn1 2.965278 1_555
Hf1 Sn4 3.091169 1_555
Hf1 Sn4 3.091169 1_556
Hf2 Sn1 2.958979 1_455
Hf2 Sn0 2.958979 1_555
Hf2 Sn2 2.965278 1_555
Hf2 Sn5 3.091169 1_555
Hf2 Sn5 3.091169 1_556
Hf3 Sn5 2.958980 1_555
Hf3 Sn4 2.958980 1_555
Hf3 Sn3 2.965278 1_555
Hf3 Sn0 3.091169 1_554
Hf3 Sn0 3.091169 1_555
Hf4 Sn5 2.958979 1_655
Hf4 Sn3 2.958979 1_545
Hf4 Sn4 2.965278 1_555
Hf4 Sn1 3.091169 1_554
Hf4 Sn1 3.091169 1_555
Hf5 Sn4 2.958979 1_565
Hf5 Sn3 2.958979 1_455
Hf5 Sn5 2.965278 1_555
Hf5 Sn2 3.091169 1_555
Hf5 Sn2 3.091169 1_554
Hf6 Sn1 3.023813 1_554
Hf6 Sn5 3.023813 1_655
Hf6 Sn2 3.023815 1_654
Hf6 Sn4 3.023815 1_555
Hf6 Sn0 3.023820 1_554
Hf6 Sn3 3.023820 1_555
Hf7 Sn4 3.023813 1_565
Hf7 Sn2 3.023813 1_554
Hf7 Sn5 3.023815 1_555
Hf7 Sn1 3.023815 1_564
Hf7 Sn0 3.023820 1_554
Hf7 Sn3 3.023820 1_555
Hf8 Sn2 3.023813 1_555
Hf8 Sn4 3.023813 1_565
Hf8 Sn5 3.023815 1_555
Hf8 Sn1 3.023815 1_565
Hf8 Sn3 3.023820 1_555
Hf8 Sn0 3.023820 1_555
Hf9 Sn1 3.023813 1_555
Hf9 Sn5 3.023813 1_655
Hf9 Sn2 3.023815 1_655
Hf9 Sn4 3.023815 1_555
Hf9 Sn3 3.023820 1_555
Hf9 Sn0 3.023820 1_555
Ga0 Hf0 2.698000 1_444
Ga0 Hf3 2.698000 1_555
Ga0 Hf2 2.698000 1_554
Ga0 Hf1 2.698000 1_554
Ga0 Hf5 2.698000 1_545
Ga0 Hf4 2.698000 1_455
Ga1 Hf0 2.698000 1_445
Ga1 Hf3 2.698000 1_555
Ga1 Hf1 2.698000 1_555
Ga1 Hf2 2.698000 1_555
Ga1 Hf5 2.698000 1_545
Ga1 Hf4 2.698000 1_455
