# generated using pymatgen
data_MgTi2Pb4WO12
_symmetry_space_group_name_H-M   'P 1'
_cell_length_a   9.00927117
_cell_length_b   9.00927117
_cell_length_c   9.00927117
_cell_angle_alpha   143.30922702
_cell_angle_beta   143.30922702
_cell_angle_gamma   52.86150262
_symmetry_Int_Tables_number   1
_chemical_formula_structural   MgTi2Pb4WO12
_chemical_formula_sum   'Mg1 Ti2 Pb4 W1 O12'
_cell_volume   259.47623670
_cell_formula_units_Z   1
loop_
 _symmetry_equiv_pos_site_id
 _symmetry_equiv_pos_as_xyz
  1  'x, y, z'
loop_
 _atom_site_type_symbol
 _atom_site_label
 _atom_site_symmetry_multiplicity
 _atom_site_fract_x
 _atom_site_fract_y
 _atom_site_fract_z
 _atom_site_occupancy
  Mg  Mg0  1  0.50000000  0.50000000  0.00000000  1
  Ti  Ti0  1  0.74286700  0.74286700  0.00000000  1
  Ti  Ti1  1  0.25713300  0.25713300  0.00000000  1
  Pb  Pb0  1  0.12714700  0.62714700  0.50000000  1
  Pb  Pb1  1  0.37285300  0.87285300  0.50000000  1
  Pb  Pb2  1  0.62714700  0.12714700  0.50000000  1
  Pb  Pb3  1  0.87285300  0.37285300  0.50000000  1
  W  W0  1  0.00000000  0.00000000  0.00000000  1
  O  O0  1  0.50000000  0.50000000  0.50000000  1
  O  O1  1  0.75809900  0.75809900  0.51619900  1
  O  O2  1  0.00000000  0.00000000  0.50000000  1
  O  O3  1  0.24190100  0.24190100  0.48380100  1
  O  O4  1  0.62950100  0.62950100  0.00000000  1
  O  O5  1  0.87729000  0.87729000  0.00000000  1
  O  O6  1  0.12271000  0.12271000  0.00000000  1
  O  O7  1  0.37049900  0.37049900  0.00000000  1
  O  O8  1  0.50000000  0.00000000  0.00000000  1
  O  O9  1  0.75809900  0.24190100  0.00000000  1
  O  O10  1  0.00000000  0.50000000  0.00000000  1
  O  O11  1  0.24190100  0.75809900  0.00000000  1
loop_
_geom_bond_atom_site_label_1
_geom_bond_atom_site_label_2
_geom_bond_distance
_geom_bond_site_symmetry_2
Mg0 O9 2.070041 1_555
Mg0 O11 2.070041 1_555
Mg0 O1 2.070045 1_555
Mg0 O3 2.070045 1_554
Mg0 O4 2.089514 1_555
Mg0 O7 2.089514 1_555
O0 Ti0 2.008385 1_556
O0 Ti1 2.008385 1_555
O0 Pb3 2.819516 1_555
O0 Pb0 2.819516 1_555
O0 Pb2 2.819516 1_555
O0 Pb1 2.819516 1_555
O1 W0 1.940124 1_666
O1 Pb1 2.869379 1_555
O1 Pb3 2.869379 1_555
O1 Pb0 2.869390 1_655
O1 Pb2 2.869390 1_565
O2 Ti1 2.008385 1_556
O2 Ti0 2.008385 1_445
O2 Pb1 2.819516 1_545
O2 Pb2 2.819516 1_455
O2 Pb0 2.819516 1_545
O2 Pb3 2.819516 1_455
O3 W0 1.940124 1_555
O3 Pb2 2.869379 1_555
O3 Pb0 2.869379 1_555
O3 Pb1 2.869390 1_545
O3 Pb3 2.869390 1_455
O4 Ti0 1.829174 1_555
O4 Pb0 2.835872 1_655
O4 Pb0 2.835872 1_554
O4 Pb2 2.835872 1_554
O4 Pb2 2.835872 1_565
O5 W0 1.979940 1_665
O5 Ti0 2.168931 1_555
O5 Pb3 2.836522 1_565
O5 Pb3 2.836522 1_554
O5 Pb1 2.836522 1_554
O5 Pb1 2.836522 1_655
O6 W0 1.979940 1_555
O6 Ti1 2.168931 1_555
O6 Pb0 2.836522 1_544
O6 Pb0 2.836522 1_555
O6 Pb2 2.836522 1_555
O6 Pb2 2.836522 1_454
O7 Ti1 1.829174 1_555
O7 Pb3 2.835872 1_555
O7 Pb3 2.835872 1_454
O7 Pb1 2.835872 1_544
O7 Pb1 2.835872 1_555
O8 Ti1 2.008385 1_555
O8 Ti0 2.008385 1_545
O8 Pb0 2.819516 1_544
O8 Pb3 2.819516 1_555
O8 Pb2 2.819516 1_555
O8 Pb1 2.819516 1_544
O9 W0 1.940128 1_655
O9 Pb0 2.869384 1_655
O9 Pb3 2.869384 1_555
O9 Pb1 2.869384 1_544
O9 Pb2 2.869384 1_554
O10 Ti1 2.008385 1_555
O10 Ti0 2.008385 1_455
O10 Pb1 2.819516 1_555
O10 Pb2 2.819516 1_454
O10 Pb3 2.819516 1_454
O10 Pb0 2.819516 1_555
O11 W0 1.940128 1_565
O11 Pb2 2.869384 1_565
O11 Pb1 2.869384 1_555
O11 Pb3 2.869384 1_454
O11 Pb0 2.869384 1_554
