# generated using pymatgen
data_ZrGe3N2O9
_symmetry_space_group_name_H-M   'P 1'
_cell_length_a   7.38138481
_cell_length_b   7.38138481
_cell_length_c   10.69918400
_cell_angle_alpha   90.00000000
_cell_angle_beta   90.00000000
_cell_angle_gamma   120.00000730
_symmetry_Int_Tables_number   1
_chemical_formula_structural   ZrGe3N2O9
_chemical_formula_sum   'Zr2 Ge6 N4 O18'
_cell_volume   504.84371072
_cell_formula_units_Z   2
loop_
 _symmetry_equiv_pos_site_id
 _symmetry_equiv_pos_as_xyz
  1  'x, y, z'
loop_
 _atom_site_type_symbol
 _atom_site_label
 _atom_site_symmetry_multiplicity
 _atom_site_fract_x
 _atom_site_fract_y
 _atom_site_fract_z
 _atom_site_occupancy
  Zr  Zr0  1  0.00000000  0.00000000  0.50000000  1
  Zr  Zr1  1  0.00000000  0.00000000  0.00000000  1
  Ge  Ge0  1  0.26302500  0.38939200  0.75000000  1
  Ge  Ge1  1  0.61060800  0.87363300  0.75000000  1
  Ge  Ge2  1  0.12636700  0.73697500  0.75000000  1
  Ge  Ge3  1  0.73697500  0.61060800  0.25000000  1
  Ge  Ge4  1  0.38939200  0.12636700  0.25000000  1
  Ge  Ge5  1  0.87363300  0.26302500  0.25000000  1
  N  N0  1  0.66666700  0.33333300  0.55596700  1
  N  N1  1  0.33333300  0.66666700  0.05596700  1
  N  N2  1  0.33333300  0.66666700  0.44403300  1
  N  N3  1  0.66666700  0.33333300  0.94403300  1
  O  O0  1  0.22219600  0.23382900  0.61767500  1
  O  O1  1  0.76617100  0.98836700  0.61767500  1
  O  O2  1  0.01163300  0.77780400  0.61767500  1
  O  O3  1  0.77780400  0.76617100  0.11767500  1
  O  O4  1  0.23382900  0.01163300  0.11767500  1
  O  O5  1  0.98836700  0.22219600  0.11767500  1
  O  O6  1  0.77780400  0.76617100  0.38232500  1
  O  O7  1  0.23382900  0.01163300  0.38232500  1
  O  O8  1  0.98836700  0.22219600  0.38232500  1
  O  O9  1  0.22219600  0.23382900  0.88232500  1
  O  O10  1  0.76617100  0.98836700  0.88232500  1
  O  O11  1  0.01163300  0.77780400  0.88232500  1
  O  O12  1  0.52323300  0.60055900  0.75000000  1
  O  O13  1  0.39944100  0.92267400  0.75000000  1
  O  O14  1  0.07732600  0.47676700  0.75000000  1
  O  O15  1  0.47676700  0.39944100  0.25000000  1
  O  O16  1  0.60055900  0.07732600  0.25000000  1
  O  O17  1  0.92267400  0.52323300  0.25000000  1
loop_
_geom_bond_atom_site_label_1
_geom_bond_atom_site_label_2
_geom_bond_distance
_geom_bond_site_symmetry_2
Ge0 O9 1.751484 1_555
Ge0 O0 1.751484 1_555
Ge0 O12 1.767720 1_555
Ge0 O14 1.782936 1_555
Ge1 O10 1.751484 1_555
Ge1 O1 1.751484 1_555
Ge1 O13 1.767720 1_555
Ge1 O12 1.782936 1_555
Ge2 O11 1.751484 1_555
Ge2 O2 1.751484 1_555
Ge2 O14 1.767720 1_555
Ge2 O13 1.782936 1_555
Ge3 O6 1.751484 1_555
Ge3 O3 1.751484 1_555
Ge3 O15 1.767720 1_555
Ge3 O17 1.782936 1_555
Ge4 O7 1.751484 1_555
Ge4 O4 1.751484 1_555
Ge4 O16 1.767720 1_555
Ge4 O15 1.782936 1_555
Ge5 O8 1.751484 1_555
Ge5 O5 1.751484 1_555
Ge5 O17 1.767720 1_555
Ge5 O16 1.782936 1_555
O0 Zr0 2.103171 1_555
O1 Zr0 2.103171 1_665
O2 Zr0 2.103171 1_565
O3 Zr1 2.103171 1_665
O4 Zr1 2.103171 1_555
O5 Zr1 2.103171 1_655
O6 Zr0 2.103171 1_665
O7 Zr0 2.103171 1_555
O8 Zr0 2.103171 1_655
O9 Zr1 2.103171 1_556
O10 Zr1 2.103171 1_666
O11 Zr1 2.103171 1_566
