# generated using pymatgen
data_Ta4AlN3
_symmetry_space_group_name_H-M   'P 1'
_cell_length_a   5.95055989
_cell_length_b   5.95055989
_cell_length_c   51.56260400
_cell_angle_alpha   90.00000000
_cell_angle_beta   90.00000000
_cell_angle_gamma   119.99999878
_symmetry_Int_Tables_number   1
_chemical_formula_structural   Ta4AlN3
_chemical_formula_sum   'Ta64 Al16 N48'
_cell_volume   1581.17937239
_cell_formula_units_Z   16
loop_
 _symmetry_equiv_pos_site_id
 _symmetry_equiv_pos_as_xyz
  1  'x, y, z'
loop_
 _atom_site_type_symbol
 _atom_site_label
 _atom_site_symmetry_multiplicity
 _atom_site_fract_x
 _atom_site_fract_y
 _atom_site_fract_z
 _atom_site_occupancy
  Ta  Ta0_0  1  0.16666650  0.33333350  0.22244900  1
  Ta  Ta0_1  1  0.16666650  0.33333350  0.72244900  1
  Ta  Ta0_2  1  0.16666650  0.83333350  0.22244900  1
  Ta  Ta0_3  1  0.16666650  0.83333350  0.72244900  1
  Ta  Ta0_4  1  0.66666650  0.33333350  0.22244900  1
  Ta  Ta0_5  1  0.66666650  0.33333350  0.72244900  1
  Ta  Ta0_6  1  0.66666650  0.83333350  0.22244900  1
  Ta  Ta0_7  1  0.66666650  0.83333350  0.72244900  1
  Ta  Ta1_0  1  0.33333350  0.16666650  0.27755100  1
  Ta  Ta1_1  1  0.33333350  0.16666650  0.77755100  1
  Ta  Ta1_2  1  0.33333350  0.66666650  0.27755100  1
  Ta  Ta1_3  1  0.33333350  0.66666650  0.77755100  1
  Ta  Ta1_4  1  0.83333350  0.16666650  0.27755100  1
  Ta  Ta1_5  1  0.83333350  0.16666650  0.77755100  1
  Ta  Ta1_6  1  0.83333350  0.66666650  0.27755100  1
  Ta  Ta1_7  1  0.83333350  0.66666650  0.77755100  1
  Ta  Ta2_0  1  0.33333350  0.16666650  0.47244900  1
  Ta  Ta2_1  1  0.33333350  0.16666650  0.97244900  1
  Ta  Ta2_2  1  0.33333350  0.66666650  0.47244900  1
  Ta  Ta2_3  1  0.33333350  0.66666650  0.97244900  1
  Ta  Ta2_4  1  0.83333350  0.16666650  0.47244900  1
  Ta  Ta2_5  1  0.83333350  0.16666650  0.97244900  1
  Ta  Ta2_6  1  0.83333350  0.66666650  0.47244900  1
  Ta  Ta2_7  1  0.83333350  0.66666650  0.97244900  1
  Ta  Ta3_0  1  0.16666650  0.33333350  0.02755100  1
  Ta  Ta3_1  1  0.16666650  0.33333350  0.52755100  1
  Ta  Ta3_2  1  0.16666650  0.83333350  0.02755100  1
  Ta  Ta3_3  1  0.16666650  0.83333350  0.52755100  1
  Ta  Ta3_4  1  0.66666650  0.33333350  0.02755100  1
  Ta  Ta3_5  1  0.66666650  0.33333350  0.52755100  1
  Ta  Ta3_6  1  0.66666650  0.83333350  0.02755100  1
  Ta  Ta3_7  1  0.66666650  0.83333350  0.52755100  1
  Ta  Ta4_0  1  0.16666650  0.33333350  0.41813900  1
  Ta  Ta4_1  1  0.16666650  0.33333350  0.91813900  1
  Ta  Ta4_2  1  0.16666650  0.83333350  0.41813900  1
  Ta  Ta4_3  1  0.16666650  0.83333350  0.91813900  1
  Ta  Ta4_4  1  0.66666650  0.33333350  0.41813900  1
  Ta  Ta4_5  1  0.66666650  0.33333350  0.91813900  1
  Ta  Ta4_6  1  0.66666650  0.83333350  0.41813900  1
  Ta  Ta4_7  1  0.66666650  0.83333350  0.91813900  1
  Ta  Ta5_0  1  0.33333350  0.16666650  0.08186100  1
  Ta  Ta5_1  1  0.33333350  0.16666650  0.58186100  1
  Ta  Ta5_2  1  0.33333350  0.66666650  0.08186100  1
  Ta  Ta5_3  1  0.33333350  0.66666650  0.58186100  1
  Ta  Ta5_4  1  0.83333350  0.16666650  0.08186100  1
  Ta  Ta5_5  1  0.83333350  0.16666650  0.58186100  1
  Ta  Ta5_6  1  0.83333350  0.66666650  0.08186100  1
  Ta  Ta5_7  1  0.83333350  0.66666650  0.58186100  1
  Ta  Ta6_0  1  0.33333350  0.16666650  0.16813900  1
  Ta  Ta6_1  1  0.33333350  0.16666650  0.66813900  1
  Ta  Ta6_2  1  0.33333350  0.66666650  0.16813900  1
  Ta  Ta6_3  1  0.33333350  0.66666650  0.66813900  1
  Ta  Ta6_4  1  0.83333350  0.16666650  0.16813900  1
  Ta  Ta6_5  1  0.83333350  0.16666650  0.66813900  1
  Ta  Ta6_6  1  0.83333350  0.66666650  0.16813900  1
  Ta  Ta6_7  1  0.83333350  0.66666650  0.66813900  1
  Ta  Ta7_0  1  0.16666650  0.33333350  0.33186100  1
  Ta  Ta7_1  1  0.16666650  0.33333350  0.83186100  1
  Ta  Ta7_2  1  0.16666650  0.83333350  0.33186100  1
  Ta  Ta7_3  1  0.16666650  0.83333350  0.83186100  1
  Ta  Ta7_4  1  0.66666650  0.33333350  0.33186100  1
  Ta  Ta7_5  1  0.66666650  0.33333350  0.83186100  1
  Ta  Ta7_6  1  0.66666650  0.83333350  0.33186100  1
  Ta  Ta7_7  1  0.66666650  0.83333350  0.83186100  1
  Al  Al0_0  1  0.16666650  0.33333350  0.12500000  1
  Al  Al0_1  1  0.16666650  0.33333350  0.62500000  1
  Al  Al0_2  1  0.16666650  0.83333350  0.12500000  1
  Al  Al0_3  1  0.16666650  0.83333350  0.62500000  1
  Al  Al0_4  1  0.66666650  0.33333350  0.12500000  1
  Al  Al0_5  1  0.66666650  0.33333350  0.62500000  1
  Al  Al0_6  1  0.66666650  0.83333350  0.12500000  1
  Al  Al0_7  1  0.66666650  0.83333350  0.62500000  1
  Al  Al1_0  1  0.33333350  0.16666650  0.37500000  1
  Al  Al1_1  1  0.33333350  0.16666650  0.87500000  1
  Al  Al1_2  1  0.33333350  0.66666650  0.37500000  1
  Al  Al1_3  1  0.33333350  0.66666650  0.87500000  1
  Al  Al1_4  1  0.83333350  0.16666650  0.37500000  1
  Al  Al1_5  1  0.83333350  0.16666650  0.87500000  1
  Al  Al1_6  1  0.83333350  0.66666650  0.37500000  1
  Al  Al1_7  1  0.83333350  0.66666650  0.87500000  1
  N  N0_0  1  0.00000000  0.00000000  0.25000000  1
  N  N0_1  1  0.00000000  0.00000000  0.75000000  1
  N  N0_2  1  0.00000000  0.50000000  0.25000000  1
  N  N0_3  1  0.00000000  0.50000000  0.75000000  1
  N  N0_4  1  0.50000000  0.00000000  0.25000000  1
  N  N0_5  1  0.50000000  0.00000000  0.75000000  1
  N  N0_6  1  0.50000000  0.50000000  0.25000000  1
  N  N0_7  1  0.50000000  0.50000000  0.75000000  1
  N  N1_0  1  0.00000000  0.00000000  0.00000000  1
  N  N1_1  1  0.00000000  0.00000000  0.50000000  1
  N  N1_2  1  0.00000000  0.50000000  0.00000000  1
  N  N1_3  1  0.00000000  0.50000000  0.50000000  1
  N  N1_4  1  0.50000000  0.00000000  0.00000000  1
  N  N1_5  1  0.50000000  0.00000000  0.50000000  1
  N  N1_6  1  0.50000000  0.50000000  0.00000000  1
  N  N1_7  1  0.50000000  0.50000000  0.50000000  1
  N  N2_0  1  0.00000000  0.00000000  0.19557650  1
  N  N2_1  1  0.00000000  0.00000000  0.69557650  1
  N  N2_2  1  0.00000000  0.50000000  0.19557650  1
  N  N2_3  1  0.00000000  0.50000000  0.69557650  1
  N  N2_4  1  0.50000000  0.00000000  0.19557650  1
  N  N2_5  1  0.50000000  0.00000000  0.69557650  1
  N  N2_6  1  0.50000000  0.50000000  0.19557650  1
  N  N2_7  1  0.50000000  0.50000000  0.69557650  1
  N  N3_0  1  0.00000000  0.00000000  0.30442350  1
  N  N3_1  1  0.00000000  0.00000000  0.80442350  1
  N  N3_2  1  0.00000000  0.50000000  0.30442350  1
  N  N3_3  1  0.00000000  0.50000000  0.80442350  1
  N  N3_4  1  0.50000000  0.00000000  0.30442350  1
  N  N3_5  1  0.50000000  0.00000000  0.80442350  1
  N  N3_6  1  0.50000000  0.50000000  0.30442350  1
  N  N3_7  1  0.50000000  0.50000000  0.80442350  1
  N  N4_0  1  0.00000000  0.00000000  0.44557650  1
  N  N4_1  1  0.00000000  0.00000000  0.94557650  1
  N  N4_2  1  0.00000000  0.50000000  0.44557650  1
  N  N4_3  1  0.00000000  0.50000000  0.94557650  1
  N  N4_4  1  0.50000000  0.00000000  0.44557650  1
  N  N4_5  1  0.50000000  0.00000000  0.94557650  1
  N  N4_6  1  0.50000000  0.50000000  0.44557650  1
  N  N4_7  1  0.50000000  0.50000000  0.94557650  1
  N  N5_0  1  0.00000000  0.00000000  0.05442350  1
  N  N5_1  1  0.00000000  0.00000000  0.55442350  1
  N  N5_2  1  0.00000000  0.50000000  0.05442350  1
  N  N5_3  1  0.00000000  0.50000000  0.55442350  1
  N  N5_4  1  0.50000000  0.00000000  0.05442350  1
  N  N5_5  1  0.50000000  0.00000000  0.55442350  1
  N  N5_6  1  0.50000000  0.50000000  0.05442350  1
  N  N5_7  1  0.50000000  0.50000000  0.55442350  1
loop_
_geom_bond_atom_site_label_1
_geom_bond_atom_site_label_2
_geom_bond_distance
_geom_bond_site_symmetry_2
Al0_0 Ta6_4 2.810433 1_455
Al0_0 Ta6_2 2.810433 1_555
Al0_0 Ta5_2 2.810433 1_555
Al0_0 Ta5_4 2.810433 1_455
Al0_0 Ta6_0 2.810436 1_555
Al0_0 Ta5_0 2.810436 1_555
Al0_0 Al0_4 2.975280 1_455
Al0_0 Al0_2 2.975280 1_545
Al0_0 Al0_2 2.975280 1_555
Al0_0 Al0_4 2.975280 1_555
Al0_0 Al0_6 2.975280 1_445
Al0_0 Al0_6 2.975280 1_555
Al0_1 Ta6_5 2.810433 1_455
Al0_1 Ta6_3 2.810433 1_555
Al0_1 Ta5_5 2.810433 1_455
Al0_1 Ta5_3 2.810433 1_555
Al0_1 Ta6_1 2.810436 1_555
Al0_1 Ta5_1 2.810436 1_555
Al0_1 Al0_5 2.975280 1_455
Al0_1 Al0_3 2.975280 1_545
Al0_1 Al0_5 2.975280 1_555
Al0_1 Al0_3 2.975280 1_555
Al0_1 Al0_7 2.975280 1_445
Al0_1 Al0_7 2.975280 1_555
Al0_2 Ta6_6 2.810433 1_455
Al0_2 Ta6_0 2.810433 1_565
Al0_2 Ta5_6 2.810433 1_455
Al0_2 Ta5_0 2.810433 1_565
Al0_2 Ta6_2 2.810436 1_555
Al0_2 Ta5_2 2.810436 1_555
Al0_2 Al0_6 2.975280 1_455
Al0_2 Al0_6 2.975280 1_555
Al0_2 Al0_4 2.975280 1_455
Al0_2 Al0_4 2.975280 1_565
Al0_3 Ta6_7 2.810433 1_455
Al0_3 Ta6_1 2.810433 1_565
Al0_3 Ta5_7 2.810433 1_455
Al0_3 Ta5_1 2.810433 1_565
Al0_3 Ta6_3 2.810436 1_555
Al0_3 Ta5_3 2.810436 1_555
Al0_3 Al0_7 2.975280 1_455
Al0_3 Al0_7 2.975280 1_555
Al0_3 Al0_5 2.975280 1_455
Al0_3 Al0_5 2.975280 1_565
Al0_4 Ta6_6 2.810433 1_555
Al0_4 Ta6_0 2.810433 1_555
Al0_4 Ta5_6 2.810433 1_555
Al0_4 Ta5_0 2.810433 1_555
Al0_4 Ta6_4 2.810436 1_555
Al0_4 Ta5_4 2.810436 1_555
Al0_4 Al0_6 2.975280 1_555
Al0_4 Al0_6 2.975280 1_545
Al0_5 Ta6_7 2.810433 1_555
Al0_5 Ta6_1 2.810433 1_555
Al0_5 Ta5_7 2.810433 1_555
Al0_5 Ta5_1 2.810433 1_555
Al0_5 Ta6_5 2.810436 1_555
Al0_5 Ta5_5 2.810436 1_555
Al0_5 Al0_7 2.975280 1_555
Al0_5 Al0_7 2.975280 1_545
Al0_6 Ta6_2 2.810433 1_555
Al0_6 Ta6_4 2.810433 1_565
Al0_6 Ta5_2 2.810433 1_555
Al0_6 Ta5_4 2.810433 1_565
Al0_6 Ta6_6 2.810436 1_555
Al0_6 Ta5_6 2.810436 1_555
Al0_7 Ta6_3 2.810433 1_555
Al0_7 Ta6_5 2.810433 1_565
Al0_7 Ta5_3 2.810433 1_555
Al0_7 Ta5_5 2.810433 1_565
Al0_7 Ta6_7 2.810436 1_555
Al0_7 Ta5_7 2.810436 1_555
Al1_0 Ta4_4 2.810433 1_555
Al1_0 Ta4_2 2.810433 1_545
Al1_0 Ta7_2 2.810433 1_545
Al1_0 Ta7_4 2.810433 1_555
Al1_0 Ta4_0 2.810436 1_555
Al1_0 Ta7_0 2.810436 1_555
Al1_0 Al1_4 2.975280 1_455
Al1_0 Al1_2 2.975280 1_555
Al1_0 Al1_4 2.975280 1_555
Al1_0 Al1_2 2.975280 1_545
Al1_0 Al1_6 2.975280 1_445
Al1_0 Al1_6 2.975280 1_555
Al1_1 Ta4_3 2.810433 1_545
Al1_1 Ta4_5 2.810433 1_555
Al1_1 Ta7_3 2.810433 1_545
Al1_1 Ta7_5 2.810433 1_555
Al1_1 Ta4_1 2.810436 1_555
Al1_1 Ta7_1 2.810436 1_555
Al1_1 Al1_3 2.975280 1_555
Al1_1 Al1_5 2.975280 1_455
Al1_1 Al1_3 2.975280 1_545
Al1_1 Al1_5 2.975280 1_555
Al1_1 Al1_7 2.975280 1_445
Al1_1 Al1_7 2.975280 1_555
Al1_2 Ta4_0 2.810433 1_555
Al1_2 Ta4_6 2.810433 1_555
Al1_2 Ta7_0 2.810433 1_555
Al1_2 Ta7_6 2.810433 1_555
Al1_2 Ta4_2 2.810436 1_555
Al1_2 Ta7_2 2.810436 1_555
Al1_2 Al1_6 2.975280 1_455
Al1_2 Al1_6 2.975280 1_555
Al1_2 Al1_4 2.975280 1_455
Al1_2 Al1_4 2.975280 1_565
Al1_3 Ta4_1 2.810433 1_555
Al1_3 Ta4_7 2.810433 1_555
Al1_3 Ta7_1 2.810433 1_555
Al1_3 Ta7_7 2.810433 1_555
Al1_3 Ta4_3 2.810436 1_555
Al1_3 Ta7_3 2.810436 1_555
Al1_3 Al1_7 2.975280 1_455
Al1_3 Al1_7 2.975280 1_555
Al1_3 Al1_5 2.975280 1_455
Al1_3 Al1_5 2.975280 1_565
Al1_4 Ta4_6 2.810433 1_545
Al1_4 Ta4_0 2.810433 1_655
Al1_4 Ta7_6 2.810433 1_545
Al1_4 Ta7_0 2.810433 1_655
Al1_4 Ta4_4 2.810436 1_555
Al1_4 Ta7_4 2.810436 1_555
Al1_4 Al1_6 2.975280 1_555
Al1_4 Al1_6 2.975280 1_545
Al1_5 Ta4_7 2.810433 1_545
Al1_5 Ta4_1 2.810433 1_655
Al1_5 Ta7_7 2.810433 1_545
Al1_5 Ta7_1 2.810433 1_655
Al1_5 Ta4_5 2.810436 1_555
Al1_5 Ta7_5 2.810436 1_555
Al1_5 Al1_7 2.975280 1_555
Al1_5 Al1_7 2.975280 1_545
Al1_6 Ta4_2 2.810433 1_655
Al1_6 Ta4_4 2.810433 1_555
Al1_6 Ta7_2 2.810433 1_655
Al1_6 Ta7_4 2.810433 1_555
Al1_6 Ta4_6 2.810436 1_555
Al1_6 Ta7_6 2.810436 1_555
Al1_7 Ta4_5 2.810433 1_555
Al1_7 Ta4_3 2.810433 1_655
Al1_7 Ta7_5 2.810433 1_555
Al1_7 Ta7_3 2.810433 1_655
Al1_7 Ta4_7 2.810436 1_555
Al1_7 Ta7_7 2.810436 1_555
N0_0 Ta1_4 2.229095 1_455
N0_0 Ta0_2 2.229095 1_545
N0_0 Ta1_0 2.229097 1_555
N0_0 Ta1_6 2.229097 1_445
N0_0 Ta0_0 2.229097 1_555
N0_0 Ta0_6 2.229097 1_445
N0_1 Ta1_5 2.229095 1_455
N0_1 Ta0_3 2.229095 1_545
N0_1 Ta1_7 2.229097 1_445
N0_1 Ta1_1 2.229097 1_555
N0_1 Ta0_7 2.229097 1_445
N0_1 Ta0_1 2.229097 1_555
N0_2 Ta1_6 2.229095 1_455
N0_2 Ta0_0 2.229095 1_555
N0_2 Ta1_2 2.229097 1_555
N0_2 Ta1_4 2.229097 1_455
N0_2 Ta0_4 2.229097 1_455
N0_2 Ta0_2 2.229097 1_555
N0_3 Ta1_7 2.229095 1_455
N0_3 Ta0_1 2.229095 1_555
N0_3 Ta1_5 2.229097 1_455
N0_3 Ta1_3 2.229097 1_555
N0_3 Ta0_5 2.229097 1_455
N0_3 Ta0_3 2.229097 1_555
N0_4 Ta1_0 2.229095 1_555
N0_4 Ta0_6 2.229095 1_545
N0_4 Ta1_4 2.229097 1_555
N0_4 Ta1_2 2.229097 1_545
N0_4 Ta0_4 2.229097 1_555
N0_4 Ta0_2 2.229097 1_545
N0_5 Ta1_1 2.229095 1_555
N0_5 Ta0_7 2.229095 1_545
N0_5 Ta1_3 2.229097 1_545
N0_5 Ta1_5 2.229097 1_555
N0_5 Ta0_5 2.229097 1_555
N0_5 Ta0_3 2.229097 1_545
N0_6 Ta1_2 2.229095 1_555
N0_6 Ta0_4 2.229095 1_555
N0_6 Ta1_0 2.229097 1_555
N0_6 Ta1_6 2.229097 1_555
N0_6 Ta0_0 2.229097 1_555
N0_6 Ta0_6 2.229097 1_555
N0_7 Ta1_3 2.229095 1_555
N0_7 Ta0_5 2.229095 1_555
N0_7 Ta1_7 2.229097 1_555
N0_7 Ta1_1 2.229097 1_555
N0_7 Ta0_7 2.229097 1_555
N0_7 Ta0_1 2.229097 1_555
N1_0 Ta3_2 2.229095 1_545
N1_0 Ta2_5 2.229095 1_454
N1_0 Ta3_6 2.229097 1_445
N1_0 Ta3_0 2.229097 1_555
N1_0 Ta2_1 2.229097 1_554
N1_0 Ta2_7 2.229097 1_444
N1_1 Ta3_3 2.229095 1_545
N1_1 Ta2_4 2.229095 1_455
N1_1 Ta3_7 2.229097 1_445
N1_1 Ta3_1 2.229097 1_555
N1_1 Ta2_6 2.229097 1_445
N1_1 Ta2_0 2.229097 1_555
N1_2 Ta3_0 2.229095 1_555
N1_2 Ta2_7 2.229095 1_454
N1_2 Ta3_4 2.229097 1_455
N1_2 Ta3_2 2.229097 1_555
N1_2 Ta2_3 2.229097 1_554
N1_2 Ta2_5 2.229097 1_454
N1_3 Ta3_1 2.229095 1_555
N1_3 Ta2_6 2.229095 1_455
N1_3 Ta3_5 2.229097 1_455
N1_3 Ta3_3 2.229097 1_555
N1_3 Ta2_2 2.229097 1_555
N1_3 Ta2_4 2.229097 1_455
N1_4 Ta3_6 2.229095 1_545
N1_4 Ta2_1 2.229095 1_554
N1_4 Ta3_4 2.229097 1_555
N1_4 Ta3_2 2.229097 1_545
N1_4 Ta2_5 2.229097 1_554
N1_4 Ta2_3 2.229097 1_544
N1_5 Ta3_7 2.229095 1_545
N1_5 Ta2_0 2.229095 1_555
N1_5 Ta3_5 2.229097 1_555
N1_5 Ta3_3 2.229097 1_545
N1_5 Ta2_2 2.229097 1_545
N1_5 Ta2_4 2.229097 1_555
N1_6 Ta3_4 2.229095 1_555
N1_6 Ta2_3 2.229095 1_554
N1_6 Ta3_6 2.229097 1_555
N1_6 Ta3_0 2.229097 1_555
N1_6 Ta2_1 2.229097 1_554
N1_6 Ta2_7 2.229097 1_554
N1_7 Ta3_5 2.229095 1_555
N1_7 Ta2_2 2.229095 1_555
N1_7 Ta3_7 2.229097 1_555
N1_7 Ta3_1 2.229097 1_555
N1_7 Ta2_6 2.229097 1_555
N1_7 Ta2_0 2.229097 1_555
N2_0 Ta0_2 2.206964 1_545
N2_0 Ta0_6 2.206966 1_445
N2_0 Ta0_0 2.206966 1_555
N2_0 Ta6_4 2.225370 1_455
N2_0 Ta6_0 2.225372 1_555
N2_0 Ta6_6 2.225372 1_445
N2_1 Ta0_3 2.206964 1_545
N2_1 Ta0_1 2.206966 1_555
N2_1 Ta0_7 2.206966 1_445
N2_1 Ta6_5 2.225370 1_455
N2_1 Ta6_1 2.225372 1_555
N2_1 Ta6_7 2.225372 1_445
N2_2 Ta0_0 2.206964 1_555
N2_2 Ta0_4 2.206966 1_455
N2_2 Ta0_2 2.206966 1_555
N2_2 Ta6_6 2.225370 1_455
N2_2 Ta6_2 2.225372 1_555
N2_2 Ta6_4 2.225372 1_455
N2_3 Ta0_1 2.206964 1_555
N2_3 Ta0_5 2.206966 1_455
N2_3 Ta0_3 2.206966 1_555
N2_3 Ta6_7 2.225370 1_455
N2_3 Ta6_3 2.225372 1_555
N2_3 Ta6_5 2.225372 1_455
N2_4 Ta0_6 2.206964 1_545
N2_4 Ta0_2 2.206966 1_545
N2_4 Ta0_4 2.206966 1_555
N2_4 Ta6_0 2.225370 1_555
N2_4 Ta6_4 2.225372 1_555
N2_4 Ta6_2 2.225372 1_545
N2_5 Ta0_7 2.206964 1_545
N2_5 Ta0_3 2.206966 1_545
N2_5 Ta0_5 2.206966 1_555
N2_5 Ta6_1 2.225370 1_555
N2_5 Ta6_5 2.225372 1_555
N2_5 Ta6_3 2.225372 1_545
N2_6 Ta0_4 2.206964 1_555
N2_6 Ta0_6 2.206966 1_555
N2_6 Ta0_0 2.206966 1_555
N2_6 Ta6_2 2.225370 1_555
N2_6 Ta6_0 2.225372 1_555
N2_6 Ta6_6 2.225372 1_555
N2_7 Ta0_5 2.206964 1_555
N2_7 Ta0_1 2.206966 1_555
N2_7 Ta0_7 2.206966 1_555
N2_7 Ta6_3 2.225370 1_555
N2_7 Ta6_1 2.225372 1_555
N2_7 Ta6_7 2.225372 1_555
N3_0 Ta1_4 2.206964 1_455
N3_0 Ta1_6 2.206966 1_445
N3_0 Ta1_0 2.206966 1_555
N3_0 Ta7_2 2.225370 1_545
N3_0 Ta7_6 2.225372 1_445
N3_0 Ta7_0 2.225372 1_555
N3_1 Ta1_5 2.206964 1_455
N3_1 Ta1_1 2.206966 1_555
N3_1 Ta1_7 2.206966 1_445
N3_1 Ta7_3 2.225370 1_545
N3_1 Ta7_7 2.225372 1_445
N3_1 Ta7_1 2.225372 1_555
N3_2 Ta1_6 2.206964 1_455
N3_2 Ta1_2 2.206966 1_555
N3_2 Ta1_4 2.206966 1_455
N3_2 Ta7_0 2.225370 1_555
N3_2 Ta7_2 2.225372 1_555
N3_2 Ta7_4 2.225372 1_455
N3_3 Ta1_7 2.206964 1_455
N3_3 Ta1_5 2.206966 1_455
N3_3 Ta1_3 2.206966 1_555
N3_3 Ta7_1 2.225370 1_555
N3_3 Ta7_5 2.225372 1_455
N3_3 Ta7_3 2.225372 1_555
N3_4 Ta1_0 2.206964 1_555
N3_4 Ta1_2 2.206966 1_545
N3_4 Ta1_4 2.206966 1_555
N3_4 Ta7_6 2.225370 1_545
N3_4 Ta7_4 2.225372 1_555
N3_4 Ta7_2 2.225372 1_545
N3_5 Ta1_1 2.206964 1_555
N3_5 Ta1_3 2.206966 1_545
N3_5 Ta1_5 2.206966 1_555
N3_5 Ta7_7 2.225370 1_545
N3_5 Ta7_5 2.225372 1_555
N3_5 Ta7_3 2.225372 1_545
N3_6 Ta1_2 2.206964 1_555
N3_6 Ta1_6 2.206966 1_555
N3_6 Ta1_0 2.206966 1_555
N3_6 Ta7_4 2.225370 1_555
N3_6 Ta7_6 2.225372 1_555
N3_6 Ta7_0 2.225372 1_555
N3_7 Ta1_3 2.206964 1_555
N3_7 Ta1_1 2.206966 1_555
N3_7 Ta1_7 2.206966 1_555
N3_7 Ta7_5 2.225370 1_555
N3_7 Ta7_1 2.225372 1_555
N3_7 Ta7_7 2.225372 1_555
N4_0 Ta2_4 2.206964 1_455
N4_0 Ta2_0 2.206966 1_555
N4_0 Ta2_6 2.206966 1_445
N4_0 Ta4_2 2.225370 1_545
N4_0 Ta4_6 2.225372 1_445
N4_0 Ta4_0 2.225372 1_555
N4_1 Ta2_5 2.206964 1_455
N4_1 Ta2_1 2.206966 1_555
N4_1 Ta2_7 2.206966 1_445
N4_1 Ta4_3 2.225370 1_545
N4_1 Ta4_1 2.225372 1_555
N4_1 Ta4_7 2.225372 1_445
N4_2 Ta2_6 2.206964 1_455
N4_2 Ta2_4 2.206966 1_455
N4_2 Ta2_2 2.206966 1_555
N4_2 Ta4_0 2.225370 1_555
N4_2 Ta4_4 2.225372 1_455
N4_2 Ta4_2 2.225372 1_555
N4_3 Ta2_7 2.206964 1_455
N4_3 Ta2_3 2.206966 1_555
N4_3 Ta2_5 2.206966 1_455
N4_3 Ta4_1 2.225370 1_555
N4_3 Ta4_5 2.225372 1_455
N4_3 Ta4_3 2.225372 1_555
N4_4 Ta2_0 2.206964 1_555
N4_4 Ta2_4 2.206966 1_555
N4_4 Ta2_2 2.206966 1_545
N4_4 Ta4_6 2.225370 1_545
N4_4 Ta4_4 2.225372 1_555
N4_4 Ta4_2 2.225372 1_545
N4_5 Ta2_1 2.206964 1_555
N4_5 Ta2_5 2.206966 1_555
N4_5 Ta2_3 2.206966 1_545
N4_5 Ta4_7 2.225370 1_545
N4_5 Ta4_5 2.225372 1_555
N4_5 Ta4_3 2.225372 1_545
N4_6 Ta2_2 2.206964 1_555
N4_6 Ta2_0 2.206966 1_555
N4_6 Ta2_6 2.206966 1_555
N4_6 Ta4_4 2.225370 1_555
N4_6 Ta4_6 2.225372 1_555
N4_6 Ta4_0 2.225372 1_555
N4_7 Ta2_3 2.206964 1_555
N4_7 Ta2_1 2.206966 1_555
N4_7 Ta2_7 2.206966 1_555
N4_7 Ta4_5 2.225370 1_555
N4_7 Ta4_1 2.225372 1_555
N4_7 Ta4_7 2.225372 1_555
N5_0 Ta3_2 2.206964 1_545
N5_0 Ta3_0 2.206966 1_555
N5_0 Ta3_6 2.206966 1_445
N5_0 Ta5_4 2.225370 1_455
N5_0 Ta5_0 2.225372 1_555
N5_0 Ta5_6 2.225372 1_445
N5_1 Ta3_3 2.206964 1_545
N5_1 Ta3_1 2.206966 1_555
N5_1 Ta3_7 2.206966 1_445
N5_1 Ta5_5 2.225370 1_455
N5_1 Ta5_1 2.225372 1_555
N5_1 Ta5_7 2.225372 1_445
N5_2 Ta3_0 2.206964 1_555
N5_2 Ta3_4 2.206966 1_455
N5_2 Ta3_2 2.206966 1_555
N5_2 Ta5_6 2.225370 1_455
N5_2 Ta5_2 2.225372 1_555
N5_2 Ta5_4 2.225372 1_455
N5_3 Ta3_1 2.206964 1_555
N5_3 Ta3_5 2.206966 1_455
N5_3 Ta3_3 2.206966 1_555
N5_3 Ta5_7 2.225370 1_455
N5_3 Ta5_3 2.225372 1_555
N5_3 Ta5_5 2.225372 1_455
N5_4 Ta3_6 2.206964 1_545
N5_4 Ta3_2 2.206966 1_545
N5_4 Ta3_4 2.206966 1_555
N5_4 Ta5_0 2.225370 1_555
N5_4 Ta5_4 2.225372 1_555
N5_4 Ta5_2 2.225372 1_545
N5_5 Ta3_7 2.206964 1_545
N5_5 Ta3_5 2.206966 1_555
N5_5 Ta3_3 2.206966 1_545
N5_5 Ta5_1 2.225370 1_555
N5_5 Ta5_5 2.225372 1_555
N5_5 Ta5_3 2.225372 1_545
N5_6 Ta3_4 2.206964 1_555
N5_6 Ta3_6 2.206966 1_555
N5_6 Ta3_0 2.206966 1_555
N5_6 Ta5_2 2.225370 1_555
N5_6 Ta5_0 2.225372 1_555
N5_6 Ta5_6 2.225372 1_555
N5_7 Ta3_5 2.206964 1_555
N5_7 Ta3_7 2.206966 1_555
N5_7 Ta3_1 2.206966 1_555
N5_7 Ta5_3 2.225370 1_555
N5_7 Ta5_1 2.225372 1_555
N5_7 Ta5_7 2.225372 1_555
