# generated using pymatgen
data_Al7Cu2Ru
_symmetry_space_group_name_H-M   'P 1'
_cell_length_a   6.38703387
_cell_length_b   6.38703387
_cell_length_c   14.77361327
_cell_angle_alpha   90.00000000
_cell_angle_beta   90.00000000
_cell_angle_gamma   90.00000000
_symmetry_Int_Tables_number   1
_chemical_formula_structural   Al7Cu2Ru
_chemical_formula_sum   'Al28 Cu8 Ru4'
_cell_volume   602.67775893
_cell_formula_units_Z   4
loop_
 _symmetry_equiv_pos_site_id
 _symmetry_equiv_pos_as_xyz
  1  'x, y, z'
loop_
 _atom_site_type_symbol
 _atom_site_label
 _atom_site_symmetry_multiplicity
 _atom_site_fract_x
 _atom_site_fract_y
 _atom_site_fract_z
 _atom_site_occupancy
  Al  Al0  1  0.15747289  0.65747289  0.25000000  1
  Al  Al1  1  0.84252711  0.34252711  0.75000000  1
  Al  Al2  1  0.84252711  0.34252711  0.25000000  1
  Al  Al3  1  0.34252711  0.15747289  0.25000000  1
  Al  Al4  1  0.15747289  0.65747289  0.75000000  1
  Al  Al5  1  0.65747289  0.84252711  0.75000000  1
  Al  Al6  1  0.65747289  0.84252711  0.25000000  1
  Al  Al7  1  0.34252711  0.15747289  0.75000000  1
  Al  Al8  1  -0.00000000  0.00000000  0.12969865  1
  Al  Al9  1  -0.00000000  0.00000000  0.87030135  1
  Al  Al10  1  0.50000000  0.50000000  0.37030135  1
  Al  Al11  1  0.50000000  0.50000000  0.62969865  1
  Al  Al12  1  0.20126615  0.41520386  0.09744297  1
  Al  Al13  1  0.79873385  0.58479614  0.90255703  1
  Al  Al14  1  0.79873385  0.58479614  0.09744297  1
  Al  Al15  1  0.58479614  0.20126615  0.09744297  1
  Al  Al16  1  0.29873385  0.91520386  0.40255703  1
  Al  Al17  1  0.20126615  0.41520386  0.90255703  1
  Al  Al18  1  0.41520386  0.79873385  0.90255703  1
  Al  Al19  1  0.70126615  0.08479614  0.59744297  1
  Al  Al20  1  0.41520386  0.79873385  0.09744297  1
  Al  Al21  1  0.70126615  0.08479614  0.40255703  1
  Al  Al22  1  0.58479614  0.20126615  0.90255703  1
  Al  Al23  1  0.29873385  0.91520386  0.59744297  1
  Al  Al24  1  0.91520386  0.70126615  0.40255703  1
  Al  Al25  1  0.08479614  0.29873385  0.59744297  1
  Al  Al26  1  0.08479614  0.29873385  0.40255703  1
  Al  Al27  1  0.91520386  0.70126615  0.59744297  1
  Cu  Cu0  1  0.26763661  0.08855031  0.00000000  1
  Cu  Cu1  1  0.73236339  0.91144969  0.00000000  1
  Cu  Cu2  1  0.91144969  0.26763661  0.00000000  1
  Cu  Cu3  1  0.23236339  0.58855031  0.50000000  1
  Cu  Cu4  1  0.08855031  0.73236339  0.00000000  1
  Cu  Cu5  1  0.76763661  0.41144969  0.50000000  1
  Cu  Cu6  1  0.58855031  0.76763661  0.50000000  1
  Cu  Cu7  1  0.41144969  0.23236339  0.50000000  1
  Ru  Ru0  1  -0.00000000  0.00000000  0.29944612  1
  Ru  Ru1  1  -0.00000000  0.00000000  0.70055388  1
  Ru  Ru2  1  0.50000000  0.50000000  0.20055388  1
  Ru  Ru3  1  0.50000000  0.50000000  0.79944612  1
loop_
_geom_bond_atom_site_label_1
_geom_bond_atom_site_label_2
_geom_bond_distance
_geom_bond_site_symmetry_2
Al0 Ru2 2.516228 1_555
Al0 Ru0 2.516228 1_565
Al1 Ru1 2.516228 1_655
Al1 Ru3 2.516228 1_555
Al2 Ru2 2.516228 1_555
Al2 Ru0 2.516228 1_655
Al3 Ru0 2.516228 1_555
Al3 Ru2 2.516228 1_555
Al4 Ru1 2.516228 1_565
Al4 Ru3 2.516228 1_555
Al5 Ru1 2.516228 1_665
Al5 Ru3 2.516228 1_555
Al6 Ru0 2.516228 1_665
Al6 Ru2 2.516228 1_555
Al7 Ru1 2.516228 1_555
Al7 Ru3 2.516228 1_555
Al8 Ru0 2.507783 1_555
Al8 Cu1 2.629343 1_445
Al8 Cu4 2.629343 1_545
Al8 Cu2 2.629343 1_455
Al8 Cu0 2.629343 1_555
Al9 Ru1 2.507783 1_555
Al9 Cu1 2.629343 1_446
Al9 Cu4 2.629343 1_546
Al9 Cu0 2.629343 1_556
Al9 Cu2 2.629343 1_456
Al10 Ru2 2.507783 1_555
Al10 Cu5 2.629343 1_555
Al10 Cu7 2.629343 1_555
Al10 Cu3 2.629343 1_555
Al10 Cu6 2.629343 1_555
Al11 Ru3 2.507783 1_555
Al11 Cu5 2.629343 1_555
Al11 Cu7 2.629343 1_555
Al11 Cu6 2.629343 1_555
Al11 Cu3 2.629343 1_555
Al12 Ru2 2.500877 1_555
Al12 Cu2 2.527290 1_455
Al12 Cu0 2.570010 1_555
Al12 Cu4 2.587312 1_555
Al13 Ru3 2.500877 1_555
Al13 Cu4 2.527290 1_656
Al13 Cu1 2.570010 1_556
Al13 Cu2 2.587312 1_556
Al14 Ru2 2.500877 1_555
Al14 Cu4 2.527290 1_655
Al14 Cu1 2.570010 1_555
Al14 Cu2 2.587312 1_555
Al15 Ru2 2.500877 1_555
Al15 Cu1 2.527290 1_545
Al15 Cu2 2.570010 1_555
Al15 Cu0 2.587312 1_555
Al16 Ru0 2.500877 1_565
Al16 Cu6 2.527290 1_555
Al16 Cu3 2.570010 1_555
Al16 Cu7 2.587312 1_565
Al17 Ru3 2.500877 1_555
Al17 Cu2 2.527290 1_456
Al17 Cu0 2.570010 1_556
Al17 Cu4 2.587312 1_556
Al18 Ru3 2.500877 1_555
Al18 Cu0 2.527290 1_566
Al18 Cu4 2.570010 1_556
Al18 Cu1 2.587312 1_556
Al19 Ru1 2.500877 1_655
Al19 Cu7 2.527290 1_555
Al19 Cu5 2.570010 1_555
Al19 Cu6 2.587312 1_545
Al20 Ru2 2.500877 1_555
Al20 Cu0 2.527290 1_565
Al20 Cu4 2.570010 1_555
Al20 Cu1 2.587312 1_555
Al21 Ru0 2.500877 1_655
Al21 Cu7 2.527290 1_555
Al21 Cu5 2.570010 1_555
Al21 Cu6 2.587312 1_545
Al22 Ru3 2.500877 1_555
Al22 Cu1 2.527290 1_546
Al22 Cu2 2.570010 1_556
Al22 Cu0 2.587312 1_556
Al23 Ru1 2.500877 1_565
Al23 Cu6 2.527290 1_555
Al23 Cu3 2.570010 1_555
Al23 Cu7 2.587312 1_565
Al24 Ru0 2.500877 1_665
Al24 Cu5 2.527290 1_555
Al24 Cu6 2.570010 1_555
Al24 Cu3 2.587312 1_655
Al25 Ru1 2.500877 1_555
Al25 Cu3 2.527290 1_555
Al25 Cu7 2.570010 1_555
Al25 Cu5 2.587312 1_455
Al26 Ru0 2.500877 1_555
Al26 Cu3 2.527290 1_555
Al26 Cu7 2.570010 1_555
Al26 Cu5 2.587312 1_455
Al27 Ru1 2.500877 1_665
Al27 Cu5 2.527290 1_555
Al27 Cu6 2.570010 1_555
Al27 Cu3 2.587312 1_655
Cu0 Cu2 2.546345 1_455
Cu0 Cu4 2.546345 1_545
Cu1 Cu4 2.546345 1_655
Cu1 Cu2 2.546345 1_565
Cu3 Cu7 2.546345 1_555
Cu3 Cu6 2.546345 1_555
Cu5 Cu7 2.546345 1_555
Cu5 Cu6 2.546345 1_555
