# generated using pymatgen
data_Tm2MgCu2
_symmetry_space_group_name_H-M   'P 1'
_cell_length_a   3.61652180
_cell_length_b   7.51757461
_cell_length_c   7.51757461
_cell_angle_alpha   90.00000000
_cell_angle_beta   90.00000000
_cell_angle_gamma   90.00000000
_symmetry_Int_Tables_number   1
_chemical_formula_structural   Tm2MgCu2
_chemical_formula_sum   'Tm4 Mg2 Cu4'
_cell_volume   204.38385268
_cell_formula_units_Z   2
loop_
 _symmetry_equiv_pos_site_id
 _symmetry_equiv_pos_as_xyz
  1  'x, y, z'
loop_
 _atom_site_type_symbol
 _atom_site_label
 _atom_site_symmetry_multiplicity
 _atom_site_fract_x
 _atom_site_fract_y
 _atom_site_fract_z
 _atom_site_occupancy
  Tm  Tm0  1  0.50000000  0.16948387  0.66948387  1
  Tm  Tm1  1  0.50000000  0.83051613  0.33051613  1
  Tm  Tm2  1  0.50000000  0.33051613  0.16948387  1
  Tm  Tm3  1  0.50000000  0.66948387  0.83051613  1
  Mg  Mg0  1  -0.00000000  -0.00000000  0.00000000  1
  Mg  Mg1  1  -0.00000000  0.50000000  0.50000000  1
  Cu  Cu0  1  0.00000000  0.62201812  0.12201812  1
  Cu  Cu1  1  -0.00000000  0.37798188  0.87798188  1
  Cu  Cu2  1  -0.00000000  0.87798188  0.62201812  1
  Cu  Cu3  1  0.00000000  0.12201812  0.37798188  1
loop_
_geom_bond_atom_site_label_1
_geom_bond_atom_site_label_2
_geom_bond_distance
_geom_bond_site_symmetry_2
Mg0 Tm3 3.326679 1_444
Mg0 Tm0 3.326679 1_454
Mg0 Tm3 3.326679 1_544
Mg0 Tm1 3.326679 1_445
Mg0 Tm2 3.326679 1_455
Mg0 Tm1 3.326679 1_545
Mg0 Tm2 3.326679 1_555
Mg0 Tm0 3.326679 1_554
Mg1 Tm1 3.326679 1_455
Mg1 Tm3 3.326679 1_555
Mg1 Tm2 3.326679 1_455
Mg1 Tm1 3.326679 1_555
Mg1 Tm2 3.326679 1_555
Mg1 Tm3 3.326679 1_455
Mg1 Tm0 3.326679 1_455
Mg1 Tm0 3.326679 1_555
Cu0 Cu1 2.594461 1_554
Cu0 Tm1 2.860645 1_455
Cu0 Tm1 2.860645 1_555
Cu0 Tm2 2.863444 1_555
Cu0 Tm3 2.863444 1_554
Cu0 Tm3 2.863444 1_454
Cu0 Tm2 2.863444 1_455
Cu0 Mg0 2.985894 1_565
Cu0 Mg1 2.985894 1_555
Cu1 Tm0 2.860645 1_555
Cu1 Tm0 2.860645 1_455
Cu1 Tm2 2.863444 1_556
Cu1 Tm3 2.863444 1_455
Cu1 Tm3 2.863444 1_555
Cu1 Tm2 2.863444 1_456
Cu1 Mg0 2.985894 1_556
Cu1 Mg1 2.985894 1_555
Cu2 Cu3 2.594461 1_565
Cu2 Tm3 2.860645 1_555
Cu2 Tm3 2.860645 1_455
Cu2 Tm0 2.863444 1_565
Cu2 Tm1 2.863444 1_455
Cu2 Tm0 2.863444 1_465
Cu2 Tm1 2.863444 1_555
Cu2 Mg0 2.985894 1_566
Cu2 Mg1 2.985894 1_555
Cu3 Tm2 2.860645 1_455
Cu3 Tm2 2.860645 1_555
Cu3 Tm1 2.863444 1_545
Cu3 Tm0 2.863444 1_455
Cu3 Tm0 2.863444 1_555
Cu3 Tm1 2.863444 1_445
Cu3 Mg0 2.985894 1_555
Cu3 Mg1 2.985894 1_555
