# generated using pymatgen
data_Li7Mn2(CoO4)3
_symmetry_space_group_name_H-M   'P 1'
_cell_length_a   6.54048054
_cell_length_b   6.54048054
_cell_length_c   12.05990224
_cell_angle_alpha   76.17449857
_cell_angle_beta   76.17449857
_cell_angle_gamma   25.99723101
_symmetry_Int_Tables_number   1
_chemical_formula_structural   Li7Mn2(CoO4)3
_chemical_formula_sum   'Li7 Mn2 Co3 O12'
_cell_volume   219.22589722
_cell_formula_units_Z   1
loop_
 _symmetry_equiv_pos_site_id
 _symmetry_equiv_pos_as_xyz
  1  'x, y, z'
loop_
 _atom_site_type_symbol
 _atom_site_label
 _atom_site_symmetry_multiplicity
 _atom_site_fract_x
 _atom_site_fract_y
 _atom_site_fract_z
 _atom_site_occupancy
  Li  Li0  1  0.00042700  0.00042700  0.24131000  1
  Li  Li1  1  0.66396700  0.66396700  0.06845400  1
  Li  Li2  1  0.33603300  0.33603300  0.93154600  1
  Li  Li3  1  0.99957300  0.99957300  0.75869000  1
  Li  Li4  1  0.66285400  0.66285400  0.59508000  1
  Li  Li5  1  0.33714600  0.33714600  0.40492000  1
  Li  Li6  1  0.00000000  0.00000000  0.00000000  1
  Mn  Mn0  1  0.33104600  0.33104600  0.66712200  1
  Mn  Mn1  1  0.66895400  0.66895400  0.33287800  1
  Co  Co0  1  0.00000000  0.00000000  0.50000000  1
  Co  Co1  1  0.34805300  0.34805300  0.15542300  1
  Co  Co2  1  0.65194700  0.65194700  0.84457700  1
  O  O0  1  0.82830400  0.82830400  0.05412700  1
  O  O1  1  0.50755300  0.50755300  0.86857500  1
  O  O2  1  0.17848900  0.17848900  0.70833800  1
  O  O3  1  0.83349500  0.83349500  0.55562600  1
  O  O4  1  0.50777600  0.50777600  0.38406500  1
  O  O5  1  0.16753800  0.16753800  0.22911900  1
  O  O6  1  0.16650500  0.16650500  0.44437400  1
  O  O7  1  0.82151100  0.82151100  0.29166200  1
  O  O8  1  0.49244700  0.49244700  0.13142500  1
  O  O9  1  0.17169600  0.17169600  0.94587300  1
  O  O10  1  0.83246200  0.83246200  0.77088100  1
  O  O11  1  0.49222400  0.49222400  0.61593500  1
loop_
_geom_bond_atom_site_label_1
_geom_bond_atom_site_label_2
_geom_bond_distance
_geom_bond_site_symmetry_2
Li0 O8 1.999214 1_545
Li0 O8 1.999214 1_455
Li0 O5 2.098746 1_555
Li0 O7 2.211298 1_445
Li0 O4 2.283868 1_455
Li0 O4 2.283868 1_545
Li1 O0 2.059051 1_555
Li1 O9 2.070730 1_564
Li1 O9 2.070730 1_654
Li1 O8 2.131117 1_555
Li1 O5 2.442104 1_565
Li1 O5 2.442104 1_655
Li2 O9 2.059051 1_555
Li2 O0 2.070730 1_456
Li2 O0 2.070730 1_546
Li2 O1 2.131117 1_555
Li2 O10 2.442104 1_545
Li2 O10 2.442104 1_455
Li3 O1 1.999214 1_565
Li3 O1 1.999214 1_655
Li3 O10 2.098746 1_555
Li3 O2 2.211298 1_665
Li3 O11 2.283868 1_655
Li3 O11 2.283868 1_565
Li4 O2 2.050143 1_565
Li4 O2 2.050143 1_655
Li4 O3 2.109314 1_555
Li4 O11 2.127149 1_555
Li4 O6 2.329854 1_565
Li4 O6 2.329854 1_655
Li5 O7 2.050143 1_545
Li5 O7 2.050143 1_455
Li5 O6 2.109314 1_555
Li5 O4 2.127149 1_555
Li5 O3 2.329854 1_455
Li5 O3 2.329854 1_545
Li6 O0 2.124736 1_445
Li6 O9 2.124736 1_554
Li6 O8 2.147277 1_455
Li6 O8 2.147277 1_545
Li6 O1 2.147277 1_544
Li6 O1 2.147277 1_454
Mn0 O2 1.885180 1_555
Mn0 O10 1.934282 1_455
Mn0 O10 1.934282 1_545
Mn0 O3 1.988128 1_545
Mn0 O3 1.988128 1_455
Mn0 O11 1.994828 1_555
Mn1 O7 1.885180 1_555
Mn1 O5 1.934282 1_565
Mn1 O5 1.934282 1_655
Mn1 O6 1.988128 1_655
Mn1 O6 1.988128 1_565
Mn1 O4 1.994828 1_555
Co0 O11 2.015181 1_545
Co0 O4 2.015181 1_455
Co0 O11 2.015181 1_455
Co0 O4 2.015181 1_545
Co0 O6 2.062908 1_555
Co0 O3 2.062908 1_445
Co1 O8 1.791541 1_555
Co1 O0 1.967430 1_545
Co1 O0 1.967430 1_455
Co1 O7 2.169237 1_545
Co1 O7 2.169237 1_455
Co1 O5 2.254015 1_555
Co2 O1 1.791541 1_555
Co2 O9 1.967430 1_565
Co2 O9 1.967430 1_655
Co2 O2 2.169237 1_565
Co2 O2 2.169237 1_655
Co2 O10 2.254015 1_555
