# generated using pymatgen
data_LiMn6(OF2)4
_symmetry_space_group_name_H-M   'P 1'
_cell_length_a   5.00387558
_cell_length_b   8.01803847
_cell_length_c   5.77099556
_cell_angle_alpha   94.18845826
_cell_angle_beta   92.59433016
_cell_angle_gamma   87.36896153
_symmetry_Int_Tables_number   1
_chemical_formula_structural   LiMn6(OF2)4
_chemical_formula_sum   'Li1 Mn6 O4 F8'
_cell_volume   230.47362588
_cell_formula_units_Z   1
loop_
 _symmetry_equiv_pos_site_id
 _symmetry_equiv_pos_as_xyz
  1  'x, y, z'
loop_
 _atom_site_type_symbol
 _atom_site_label
 _atom_site_symmetry_multiplicity
 _atom_site_fract_x
 _atom_site_fract_y
 _atom_site_fract_z
 _atom_site_occupancy
  Li  Li0  1  0.01303000  0.16457800  0.67640000  1
  Mn  Mn0  1  0.49615000  0.99226800  0.50903500  1
  Mn  Mn1  1  0.55630800  0.65744000  0.15443200  1
  Mn  Mn2  1  0.49167100  0.34039300  0.81632800  1
  Mn  Mn3  1  0.96091400  0.66866400  0.65660100  1
  Mn  Mn4  1  0.02327200  0.34349800  0.29659300  1
  Mn  Mn5  1  0.97168500  0.96006900  0.04031100  1
  O  O0  1  0.79365200  0.74637100  0.93702800  1
  O  O1  1  0.68569400  0.75750000  0.46334000  1
  O  O2  1  0.67408600  0.42999800  0.10702000  1
  O  O3  1  0.32168600  0.23825200  0.53849800  1
  F  F0  1  0.82021400  0.40439600  0.62914500  1
  F  F1  1  0.84647500  0.09754900  0.34268800  1
  F  F2  1  0.69945200  0.10569500  0.82742700  1
  F  F3  1  0.27635600  0.56700000  0.84901000  1
  F  F4  1  0.34217500  0.88496800  0.17939300  1
  F  F5  1  0.16974900  0.58521200  0.37317700  1
  F  F6  1  0.18379900  0.21843100  0.99743500  1
  F  F7  1  0.15973900  0.92104800  0.69989000  1
loop_
_geom_bond_atom_site_label_1
_geom_bond_atom_site_label_2
_geom_bond_distance
_geom_bond_site_symmetry_2
Li0 O3 1.905626 1_555
Mn0 O1 2.073326 1_555
Mn0 O3 2.118351 1_565
Mn1 O2 1.894965 1_555
Mn1 O0 1.958665 1_554
Mn1 O1 1.993778 1_555
Mn2 O3 1.927080 1_555
Mn2 O2 1.977159 1_556
Mn3 O1 1.880105 1_555
Mn3 O0 1.906617 1_555
Mn4 O2 2.134817 1_455
Mn4 O3 2.181382 1_555
Mn5 O0 2.006901 1_554
F0 Mn2 2.110012 1_555
F0 Li0 2.141295 1_655
F0 Mn4 2.224430 1_655
F0 Mn3 2.255746 1_555
F1 Mn5 2.099362 1_545
F1 Li0 2.106410 1_655
F1 Mn4 2.236158 1_655
F1 Mn0 2.261346 1_545
F2 Li0 1.922646 1_655
F2 Mn2 2.111466 1_555
F2 Mn5 2.154151 1_546
F2 Mn0 2.215811 1_545
F3 Mn3 2.060171 1_455
F3 Mn2 2.070334 1_555
F3 Mn1 2.297382 1_556
F4 Mn5 2.068123 1_455
F4 Mn1 2.071991 1_555
F4 Mn0 2.154502 1_555
F5 Mn3 2.036099 1_455
F5 Mn4 2.112971 1_555
F5 Mn1 2.470053 1_555
F6 Li0 2.030466 1_555
F6 Mn4 2.104781 1_556
F6 Mn2 2.203481 1_555
F6 Mn5 2.404087 1_446
F7 Li0 2.065945 1_565
F7 Mn0 2.172763 1_555
F7 Mn5 2.212111 1_456
F7 Mn3 2.288181 1_455
