# generated using pymatgen
data_Li2FeCoO4
_symmetry_space_group_name_H-M   'P 1'
_cell_length_a   9.60477788
_cell_length_b   9.60477788
_cell_length_c   9.60477812
_cell_angle_alpha   17.20505872
_cell_angle_beta   17.20505872
_cell_angle_gamma   17.20505873
_symmetry_Int_Tables_number   1
_chemical_formula_structural   Li2FeCoO4
_chemical_formula_sum   'Li2 Fe1 Co1 O4'
_cell_volume   67.64213850
_cell_formula_units_Z   1
loop_
 _symmetry_equiv_pos_site_id
 _symmetry_equiv_pos_as_xyz
  1  'x, y, z'
loop_
 _atom_site_type_symbol
 _atom_site_label
 _atom_site_symmetry_multiplicity
 _atom_site_fract_x
 _atom_site_fract_y
 _atom_site_fract_z
 _atom_site_occupancy
  Li  Li0  1  0.24920100  0.24920100  0.24920100  1
  Li  Li1  1  0.75079900  0.75079900  0.75079900  1
  Fe  Fe0  1  0.00000000  0.00000000  0.00000000  1
  Co  Co0  1  0.50000000  0.50000000  0.50000000  1
  O  O0  1  0.62891400  0.62891400  0.62891400  1
  O  O1  1  0.13069800  0.13069800  0.13069800  1
  O  O2  1  0.37108600  0.37108600  0.37108600  1
  O  O3  1  0.86930200  0.86930200  0.86930200  1
loop_
_geom_bond_atom_site_label_1
_geom_bond_atom_site_label_2
_geom_bond_distance
_geom_bond_site_symmetry_2
Li0 O0 2.117716 1_554
Li0 O0 2.117717 1_545
Li0 O0 2.117717 1_455
Li0 O3 2.121002 1_445
Li0 O3 2.121002 1_454
Li0 O3 2.121002 1_544
Li1 O2 2.117716 1_556
Li1 O2 2.117717 1_655
Li1 O2 2.117717 1_565
Li1 O1 2.121002 1_665
Li1 O1 2.121002 1_566
Li1 O1 2.121002 1_656
Fe0 O0 1.974863 1_445
Fe0 O2 1.974863 1_554
Fe0 O2 1.974863 1_455
Fe0 O0 1.974863 1_544
Fe0 O2 1.974863 1_545
Fe0 O0 1.974863 1_454
Co0 O3 1.947857 1_554
Co0 O1 1.947857 1_556
Co0 O1 1.947857 1_655
Co0 O3 1.947857 1_455
Co0 O1 1.947857 1_565
Co0 O3 1.947857 1_545
