# generated using pymatgen
data_Zn3(CrN2)2
_symmetry_space_group_name_H-M   'P 1'
_cell_length_a   6.15901060
_cell_length_b   7.97070804
_cell_length_c   5.65523168
_cell_angle_alpha   90.00000139
_cell_angle_beta   96.67597625
_cell_angle_gamma   130.32158103
_symmetry_Int_Tables_number   1
_chemical_formula_structural   Zn3(CrN2)2
_chemical_formula_sum   'Zn6 Cr4 N8'
_cell_volume   209.19287167
_cell_formula_units_Z   2
loop_
 _symmetry_equiv_pos_site_id
 _symmetry_equiv_pos_as_xyz
  1  'x, y, z'
loop_
 _atom_site_type_symbol
 _atom_site_label
 _atom_site_symmetry_multiplicity
 _atom_site_fract_x
 _atom_site_fract_y
 _atom_site_fract_z
 _atom_site_occupancy
  Zn  Zn0  1  0.18720100  0.94239400  0.07406100  1
  Zn  Zn1  1  0.81279900  0.75519300  0.42593900  1
  Zn  Zn2  1  0.81279900  0.05760600  0.92593900  1
  Zn  Zn3  1  0.18720100  0.24480700  0.57406100  1
  Zn  Zn4  1  0.00000000  0.59252200  0.75000000  1
  Zn  Zn5  1  0.00000000  0.40747800  0.25000000  1
  Cr  Cr0  1  0.53050100  0.16193200  0.57584300  1
  Cr  Cr1  1  0.46949900  0.63143100  0.92415700  1
  Cr  Cr2  1  0.46949900  0.83806800  0.42415700  1
  Cr  Cr3  1  0.53050100  0.36856900  0.07584300  1
  N  N0  1  0.20574000  0.85834000  0.54109000  1
  N  N1  1  0.79426000  0.65259900  0.95891000  1
  N  N2  1  0.79426000  0.14166000  0.45891000  1
  N  N3  1  0.20574000  0.34740100  0.04109000  1
  N  N4  1  0.63903900  0.24334400  0.88229000  1
  N  N5  1  0.36096100  0.60430500  0.61771000  1
  N  N6  1  0.36096100  0.75665600  0.11771000  1
  N  N7  1  0.63903900  0.39569500  0.38229000  1
loop_
_geom_bond_atom_site_label_1
_geom_bond_atom_site_label_2
_geom_bond_distance
_geom_bond_site_symmetry_2
Cr0 N4 1.743731 1_555
Cr0 N0 1.881421 1_545
Cr0 N7 1.917003 1_555
Cr0 N2 1.921422 1_555
Cr1 N5 1.743731 1_555
Cr1 N1 1.881426 1_555
Cr1 N6 1.917003 1_556
Cr1 N3 1.921417 1_556
Cr2 N6 1.743731 1_555
Cr2 N2 1.881421 1_565
Cr2 N5 1.917003 1_555
Cr2 N0 1.921422 1_555
Cr3 N7 1.743731 1_555
Cr3 N3 1.881426 1_555
Cr3 N4 1.917003 1_554
Cr3 N1 1.921417 1_554
N0 Zn1 2.003893 1_455
N0 Zn4 2.089054 1_555
N1 Zn0 2.003896 1_656
N1 Zn4 2.089049 1_655
N2 Zn3 2.003893 1_655
N2 Zn5 2.089054 1_655
N3 Zn2 2.003896 1_454
N3 Zn5 2.089049 1_555
N4 Zn2 2.320995 1_555
N4 Zn4 2.372229 1_655
N4 Zn5 2.477770 1_656
N4 Zn0 2.595630 1_546
N5 Zn3 2.320994 1_555
N5 Zn4 2.372229 1_555
N5 Zn5 2.477770 1_555
N5 Zn1 2.595630 1_555
N6 Zn0 2.320995 1_555
N6 Zn5 2.372229 1_555
N6 Zn4 2.477770 1_554
N6 Zn2 2.595630 1_564
N7 Zn1 2.320994 1_555
N7 Zn5 2.372229 1_655
N7 Zn4 2.477770 1_655
N7 Zn3 2.595630 1_555
