# generated using pymatgen
data_La2MgCo2Sb2(PbO6)2
_symmetry_space_group_name_H-M   'P 1'
_cell_length_a   5.82043520
_cell_length_b   5.88190921
_cell_length_c   8.81982984
_cell_angle_alpha   89.74738112
_cell_angle_beta   84.16897717
_cell_angle_gamma   86.19482061
_symmetry_Int_Tables_number   1
_chemical_formula_structural   La2MgCo2Sb2(PbO6)2
_chemical_formula_sum   'La2 Mg1 Co2 Sb2 Pb2 O12'
_cell_volume   299.72389714
_cell_formula_units_Z   1
loop_
 _symmetry_equiv_pos_site_id
 _symmetry_equiv_pos_as_xyz
  1  'x, y, z'
loop_
 _atom_site_type_symbol
 _atom_site_label
 _atom_site_symmetry_multiplicity
 _atom_site_fract_x
 _atom_site_fract_y
 _atom_site_fract_z
 _atom_site_occupancy
  La  La0  1  0.54769500  0.44547800  0.75848100  1
  La  La1  1  0.00043200  0.07141500  0.27447200  1
  Mg  Mg0  1  0.21042100  0.04039900  0.91635400  1
  Co  Co0  1  0.96955500  0.50667500  0.46668400  1
  Co  Co1  1  0.65188500  0.01127500  0.03747500  1
  Sb  Sb0  1  0.01391400  0.52511900  0.00301800  1
  Sb  Sb1  1  0.46625600  0.01658000  0.49167100  1
  Pb  Pb0  1  0.47054800  0.54995400  0.24147200  1
  Pb  Pb1  1  0.93074400  0.90525400  0.68090100  1
  O  O0  1  0.60383700  0.96464900  0.27298500  1
  O  O1  1  0.16420700  0.58858600  0.79286000  1
  O  O2  1  0.38281000  0.07834100  0.71643900  1
  O  O3  1  0.89461500  0.46489500  0.22123500  1
  O  O4  1  0.19325000  0.82616400  0.45747700  1
  O  O5  1  0.71607600  0.69008400  0.95074400  1
  O  O6  1  0.74208300  0.20648700  0.51998000  1
  O  O7  1  0.30388700  0.31071200  0.02840500  1
  O  O8  1  0.26553100  0.28348400  0.42749400  1
  O  O9  1  0.88333800  0.22804100  0.93116100  1
  O  O10  1  0.65438300  0.72258300  0.55300600  1
  O  O11  1  0.16072100  0.80340800  0.07435200  1
loop_
_geom_bond_atom_site_label_1
_geom_bond_atom_site_label_2
_geom_bond_distance
_geom_bond_site_symmetry_2
La0 O1 2.323351 1_555
La0 O2 2.465007 1_555
La0 O10 2.491204 1_555
La0 O5 2.540146 1_555
La0 O6 2.648100 1_555
La0 O7 2.784954 1_556
La0 O9 2.833287 1_555
La1 O3 2.411699 1_455
La1 O0 2.433449 1_445
La1 O11 2.442431 1_545
La1 O4 2.465430 1_545
La1 O8 2.540018 1_555
La1 O6 2.603081 1_455
Mg0 O2 1.957621 1_555
Mg0 O11 1.980700 1_546
Mg0 O7 2.009600 1_556
Mg0 O9 2.128705 1_455
Co0 O8 2.096057 1_655
Co0 O10 2.230049 1_555
Co0 O3 2.268891 1_555
Co0 O6 2.295218 1_555
Co0 O4 2.352687 1_655
Co1 O5 2.038349 1_544
Co1 O9 2.068924 1_554
Co1 O0 2.086895 1_545
Co1 O7 2.601782 1_555
O0 Sb1 2.028205 1_565
O0 Pb0 2.632444 1_555
O1 Sb0 2.011974 1_556
O1 Pb1 2.492264 1_455
O2 Sb1 2.021170 1_555
O3 Sb0 2.016668 1_655
O3 Pb0 2.474230 1_555
O4 Sb1 2.051075 1_565
O4 Pb1 2.394990 1_455
O4 Pb0 2.815747 1_555
O5 Sb0 2.023473 1_656
O6 Sb1 2.051684 1_555
O6 Pb1 2.528997 1_545
O7 Sb0 2.069038 1_555
O7 Pb0 2.650949 1_555
O8 Sb1 2.008239 1_555
O8 Pb0 2.529847 1_555
O9 Sb0 2.077627 1_656
O10 Sb1 2.083930 1_565
O10 Pb1 2.371293 1_555
O11 Sb0 2.027135 1_555
O11 Pb0 2.794804 1_555
