# generated using pymatgen
data_KTh2V3O12
_symmetry_space_group_name_H-M   'P 1'
_cell_length_a   10.04963846
_cell_length_b   10.04963846
_cell_length_c   8.25308799
_cell_angle_alpha   79.78052567
_cell_angle_beta   79.78052567
_cell_angle_gamma   42.04009656
_symmetry_Int_Tables_number   1
_chemical_formula_structural   KTh2V3O12
_chemical_formula_sum   'K2 Th4 V6 O24'
_cell_volume   547.99397435
_cell_formula_units_Z   2
loop_
 _symmetry_equiv_pos_site_id
 _symmetry_equiv_pos_as_xyz
  1  'x, y, z'
loop_
 _atom_site_type_symbol
 _atom_site_label
 _atom_site_symmetry_multiplicity
 _atom_site_fract_x
 _atom_site_fract_y
 _atom_site_fract_z
 _atom_site_occupancy
  K  K0  1  0.61541500  0.38458500  0.25000000  1
  K  K1  1  0.38458500  0.61541500  0.75000000  1
  Th  Th0  1  0.05863700  0.24938600  0.46318700  1
  Th  Th1  1  0.75061400  0.94136300  0.03681300  1
  Th  Th2  1  0.94136300  0.75061400  0.53681300  1
  Th  Th3  1  0.24938600  0.05863700  0.96318700  1
  V  V0  1  0.10613100  0.89386900  0.25000000  1
  V  V1  1  0.89386900  0.10613100  0.75000000  1
  V  V2  1  0.60518100  0.77570600  0.31687800  1
  V  V3  1  0.22429400  0.39481900  0.18312200  1
  V  V4  1  0.39481900  0.22429400  0.68312200  1
  V  V5  1  0.77570600  0.60518100  0.81687800  1
  O  O0  1  0.26865800  0.79945900  0.07547400  1
  O  O1  1  0.20054100  0.73134200  0.42452600  1
  O  O2  1  0.73134200  0.20054100  0.92452600  1
  O  O3  1  0.79945900  0.26865800  0.57547400  1
  O  O4  1  0.04397800  0.10745000  0.25970900  1
  O  O5  1  0.89255000  0.95602200  0.24029100  1
  O  O6  1  0.95602200  0.89255000  0.74029100  1
  O  O7  1  0.10745000  0.04397800  0.75970900  1
  O  O8  1  0.75488200  0.52428600  0.33698100  1
  O  O9  1  0.47571400  0.24511800  0.16301900  1
  O  O10  1  0.24511800  0.47571400  0.66301900  1
  O  O11  1  0.52428600  0.75488200  0.83698100  1
  O  O12  1  0.91982700  0.38186100  0.93625100  1
  O  O13  1  0.61813900  0.08017300  0.56374900  1
  O  O14  1  0.08017300  0.61813900  0.06374900  1
  O  O15  1  0.38186100  0.91982700  0.43625100  1
  O  O16  1  0.82160000  0.74234400  0.82420900  1
  O  O17  1  0.25765600  0.17840000  0.67579100  1
  O  O18  1  0.17840000  0.25765600  0.17579100  1
  O  O19  1  0.74234400  0.82160000  0.32420900  1
  O  O20  1  0.85658500  0.55417800  0.60929900  1
  O  O21  1  0.44582200  0.14341500  0.89070100  1
  O  O22  1  0.14341500  0.44582200  0.39070100  1
  O  O23  1  0.55417800  0.85658500  0.10929900  1
loop_
_geom_bond_atom_site_label_1
_geom_bond_atom_site_label_2
_geom_bond_distance
_geom_bond_site_symmetry_2
K0 O8 2.843995 1_555
K0 O9 2.843995 1_555
K0 O4 2.922130 1_655
K0 O5 2.922130 1_545
K0 O3 3.073360 1_555
K0 O2 3.073360 1_554
K0 O0 3.109799 1_555
K0 O1 3.109799 1_555
K1 O10 2.843995 1_555
K1 O11 2.843995 1_555
K1 O6 2.922130 1_455
K1 O7 2.922130 1_565
K1 O0 3.073360 1_556
K1 O1 3.073360 1_555
K1 O3 3.109799 1_555
K1 O2 3.109799 1_555
O0 V0 1.729442 1_555
O0 Th3 2.477575 1_564
O1 V0 1.729442 1_555
O1 Th2 2.477575 1_455
O2 V1 1.729442 1_555
O2 Th1 2.477575 1_546
O3 V1 1.729442 1_555
O3 Th0 2.477575 1_655
O4 V0 1.748008 1_545
O4 Th0 2.475145 1_555
O4 Th3 2.760449 1_554
O5 V0 1.748008 1_655
O5 Th1 2.475145 1_555
O5 Th2 2.760449 1_555
O6 V1 1.748008 1_565
O6 Th2 2.475145 1_555
O6 Th1 2.760449 1_556
O7 V1 1.748008 1_455
O7 Th3 2.475145 1_555
O7 Th0 2.760449 1_555
O8 V2 1.722967 1_555
O8 Th0 2.369887 1_655
O9 V3 1.722967 1_555
O9 Th1 2.369887 1_545
O10 V4 1.722967 1_555
O10 Th2 2.369887 1_455
O11 V5 1.722967 1_555
O11 Th3 2.369887 1_565
O12 V5 1.731687 1_555
O12 Th3 2.365406 1_655
O13 V4 1.731687 1_555
O13 Th2 2.365406 1_545
O14 V3 1.731687 1_555
O14 Th1 2.365406 1_455
O15 V2 1.731687 1_555
O15 Th0 2.365406 1_565
O16 V5 1.760767 1_555
O16 Th2 2.479331 1_555
O16 Th1 2.503944 1_556
O17 V4 1.760767 1_555
O17 Th3 2.479331 1_555
O17 Th0 2.503944 1_555
O18 V3 1.760767 1_555
O18 Th0 2.479331 1_555
O18 Th3 2.503944 1_554
O19 V2 1.760767 1_555
O19 Th1 2.479331 1_555
O19 Th2 2.503944 1_555
O20 V5 1.748422 1_555
O20 Th0 2.482524 1_655
O20 Th2 2.622825 1_555
O21 V4 1.748422 1_555
O21 Th1 2.482524 1_546
O21 Th3 2.622825 1_555
O22 V3 1.748422 1_555
O22 Th2 2.482524 1_455
O22 Th0 2.622825 1_555
O23 V2 1.748422 1_555
O23 Th3 2.482524 1_564
O23 Th1 2.622825 1_555
