# generated using pymatgen
data_Mg6Si5
_symmetry_space_group_name_H-M   'P 1'
_cell_length_a   4.03843300
_cell_length_b   6.82661000
_cell_length_c   15.21735223
_cell_angle_alpha   84.98672852
_cell_angle_beta   90.00000000
_cell_angle_gamma   90.00000000
_symmetry_Int_Tables_number   1
_chemical_formula_structural   Mg6Si5
_chemical_formula_sum   'Mg12 Si10'
_cell_volume   417.91935136
_cell_formula_units_Z   2
loop_
 _symmetry_equiv_pos_site_id
 _symmetry_equiv_pos_as_xyz
  1  'x, y, z'
loop_
 _atom_site_type_symbol
 _atom_site_label
 _atom_site_symmetry_multiplicity
 _atom_site_fract_x
 _atom_site_fract_y
 _atom_site_fract_z
 _atom_site_occupancy
  Mg  Mg0  1  0.00000000  0.63986600  0.96878900  1
  Mg  Mg1  1  0.50000000  0.30354700  0.50728800  1
  Mg  Mg2  1  0.00000000  0.45591500  0.65006400  1
  Mg  Mg3  1  0.00000000  0.18118500  0.36138000  1
  Mg  Mg4  1  0.00000000  0.57521200  0.20005900  1
  Mg  Mg5  1  0.50000000  0.41813700  0.83666900  1
  Mg  Mg6  1  0.00000000  0.97536800  0.57443900  1
  Mg  Mg7  1  0.00000000  0.64933100  0.42000200  1
  Mg  Mg8  1  0.50000000  0.38464500  0.06094400  1
  Mg  Mg9  1  0.50000000  0.91921300  0.87636500  1
  Mg  Mg10  1  0.00000000  0.14339800  0.97354400  1
  Mg  Mg11  1  0.50000000  0.86423900  0.08465100  1
  Si  Si0  1  0.50000000  0.94031000  0.43750000  1
  Si  Si1  1  0.50000000  0.67402300  0.55044000  1
  Si  Si2  1  0.00000000  0.73016700  0.78616200  1
  Si  Si3  1  0.50000000  0.23971400  0.22476500  1
  Si  Si4  1  0.50000000  0.47652100  0.33105200  1
  Si  Si5  1  0.50000000  0.14821600  0.68767700  1
  Si  Si6  1  0.00000000  0.13771800  0.78768700  1
  Si  Si7  1  0.50000000  0.84570400  0.28410000  1
  Si  Si8  1  0.00000000  0.01391500  0.19752100  1
  Si  Si9  1  0.50000000  0.78000700  0.69529900  1
loop_
_geom_bond_atom_site_label_1
_geom_bond_atom_site_label_2
_geom_bond_distance
_geom_bond_site_symmetry_2
Mg0 Si2 2.793562 1_555
Mg1 Si1 2.667917 1_555
Mg1 Si0 2.781522 1_545
Mg1 Si4 2.834286 1_555
Mg1 Si5 2.854986 1_555
Mg2 Si1 2.863209 1_555
Mg2 Si1 2.863209 1_455
Mg2 Si6 2.882590 1_555
Mg2 Si2 2.910687 1_555
Mg2 Si5 2.933767 1_555
Mg2 Si5 2.933767 1_455
Mg2 Si9 3.116436 1_555
Mg2 Si9 3.116436 1_455
Mg3 Si0 2.791061 1_445
Mg3 Si0 2.791061 1_545
Mg3 Si8 2.831798 1_555
Mg3 Si4 2.862244 1_455
Mg3 Si4 2.862244 1_555
Mg3 Si3 2.900622 1_555
Mg3 Si3 2.900622 1_455
Mg4 Si4 2.875749 1_455
Mg4 Si4 2.875749 1_555
Mg4 Si8 2.991727 1_565
Mg4 Si3 3.051824 1_555
Mg4 Si3 3.051824 1_455
Mg4 Si7 3.087916 1_555
Mg4 Si7 3.087916 1_455
Mg5 Si6 2.923489 1_555
Mg5 Si6 2.923489 1_655
Mg5 Si2 2.986499 1_555
Mg5 Si2 2.986499 1_655
Mg5 Si5 3.044008 1_555
Mg5 Si9 3.130780 1_555
Mg6 Si0 2.926449 1_555
Mg6 Si0 2.926449 1_455
Mg6 Si1 2.928112 1_455
Mg6 Si1 2.928112 1_555
Mg6 Si5 2.965515 1_565
Mg6 Si5 2.965515 1_465
Mg6 Si9 2.968118 1_555
Mg6 Si9 2.968118 1_455
Mg7 Si4 2.753219 1_555
Mg7 Si4 2.753219 1_455
Mg7 Si1 2.846759 1_455
Mg7 Si1 2.846759 1_555
Mg7 Si0 2.861182 1_555
Mg7 Si0 2.861182 1_455
Mg7 Si7 3.109134 1_455
Mg7 Si7 3.109134 1_555
Mg8 Si3 2.600476 1_555
Mg9 Si6 2.787732 1_565
Mg9 Si6 2.787732 1_665
Mg9 Si2 2.817182 1_555
Mg9 Si2 2.817182 1_655
Mg9 Si9 2.992095 1_555
Mg9 Si5 3.147059 1_565
Mg10 Si6 2.831903 1_555
Mg11 Si8 2.894492 1_565
Mg11 Si8 2.894492 1_665
Mg11 Si7 3.026654 1_555
Si0 Si1 2.390032 1_555
Si0 Si7 2.475833 1_555
Si1 Si9 2.379382 1_555
Si2 Si9 2.454103 1_555
Si2 Si9 2.454103 1_455
Si2 Si6 2.784316 1_565
Si3 Si4 2.384605 1_555
Si3 Si8 2.595543 1_555
Si3 Si8 2.595543 1_655
Si3 Si7 2.761445 1_545
Si4 Si7 2.558814 1_555
Si5 Si9 2.506148 1_545
Si5 Si6 2.525757 1_555
Si5 Si6 2.525757 1_655
Si7 Si8 2.620544 1_565
Si7 Si8 2.620544 1_665
