# generated using pymatgen
data_La3(GeRh)2
_symmetry_space_group_name_H-M   'P 1'
_cell_length_a   5.71038696
_cell_length_b   8.28217657
_cell_length_c   13.64940558
_cell_angle_alpha   90.00000000
_cell_angle_beta   90.00000000
_cell_angle_gamma   90.00000000
_symmetry_Int_Tables_number   1
_chemical_formula_structural   La3(GeRh)2
_chemical_formula_sum   'La12 Ge8 Rh8'
_cell_volume   645.54089886
_cell_formula_units_Z   4
loop_
 _symmetry_equiv_pos_site_id
 _symmetry_equiv_pos_as_xyz
  1  'x, y, z'
loop_
 _atom_site_type_symbol
 _atom_site_label
 _atom_site_symmetry_multiplicity
 _atom_site_fract_x
 _atom_site_fract_y
 _atom_site_fract_z
 _atom_site_occupancy
  La  La0  1  0.65027436  0.25435077  0.25000000  1
  La  La1  1  0.34972564  0.74564923  0.75000000  1
  La  La2  1  0.34972564  0.75435077  0.25000000  1
  La  La3  1  0.65027436  0.24564923  0.75000000  1
  La  La4  1  0.15630530  0.39473776  0.09650110  1
  La  La5  1  0.84369470  0.60526224  0.90349890  1
  La  La6  1  0.84369470  0.60526224  0.59650110  1
  La  La7  1  0.84369470  0.89473776  0.40349890  1
  La  La8  1  0.15630530  0.39473776  0.40349890  1
  La  La9  1  0.15630530  0.10526224  0.59650110  1
  La  La10  1  0.15630530  0.10526224  0.90349890  1
  La  La11  1  0.84369470  0.89473776  0.09650110  1
  Ge  Ge0  1  0.15263374  0.10531800  0.25000000  1
  Ge  Ge1  1  0.84736626  0.89468200  0.75000000  1
  Ge  Ge2  1  0.84736626  0.60531800  0.25000000  1
  Ge  Ge3  1  0.15263374  0.39468200  0.75000000  1
  Ge  Ge4  1  0.65513402  0.25000000  0.00000000  1
  Ge  Ge5  1  0.34486598  0.75000000  0.00000000  1
  Ge  Ge6  1  0.34486598  0.75000000  0.50000000  1
  Ge  Ge7  1  0.65513402  0.25000000  0.50000000  1
  Rh  Rh0  1  0.38771516  0.04239933  0.09192148  1
  Rh  Rh1  1  0.61228484  0.95760067  0.90807852  1
  Rh  Rh2  1  0.61228484  0.95760067  0.59192148  1
  Rh  Rh3  1  0.61228484  0.54239933  0.40807852  1
  Rh  Rh4  1  0.38771516  0.04239933  0.40807852  1
  Rh  Rh5  1  0.38771516  0.45760067  0.59192148  1
  Rh  Rh6  1  0.38771516  0.45760067  0.90807852  1
  Rh  Rh7  1  0.61228484  0.54239933  0.09192148  1
loop_
_geom_bond_atom_site_label_1
_geom_bond_atom_site_label_2
_geom_bond_distance
_geom_bond_site_symmetry_2
La0 Rh4 3.159907 1_555
La0 Rh0 3.159907 1_555
La0 Rh7 3.223981 1_555
La0 Rh3 3.223981 1_555
La1 Rh2 3.159907 1_555
La1 Rh1 3.159907 1_555
La1 Rh6 3.223981 1_555
La1 Rh5 3.223981 1_555
La2 Rh3 3.159907 1_555
La2 Rh7 3.159907 1_555
La2 Rh0 3.223981 1_565
La2 Rh4 3.223981 1_565
La3 Rh5 3.159907 1_555
La3 Rh6 3.159907 1_555
La3 Rh1 3.223981 1_545
La3 Rh2 3.223981 1_545
La4 Rh7 2.877397 1_555
La4 Rh6 2.937978 1_554
La4 Rh0 3.203996 1_555
La4 Rh7 3.339206 1_455
La5 Rh6 2.877397 1_555
La5 Rh7 2.937978 1_556
La5 Rh1 3.203996 1_555
La5 Rh6 3.339206 1_655
La6 Rh5 2.877397 1_555
La6 Rh3 2.937978 1_555
La6 Rh2 3.203996 1_555
La6 Rh5 3.339206 1_655
La7 Rh4 2.877397 1_565
La7 Rh2 2.937978 1_555
La7 Rh3 3.203996 1_555
La7 Rh4 3.339206 1_665
La8 Rh3 2.877397 1_555
La8 Rh5 2.937978 1_555
La8 Rh4 3.203996 1_555
La8 Rh3 3.339206 1_455
La9 Rh2 2.877397 1_545
La9 Rh4 2.937978 1_555
La9 Rh5 3.203996 1_555
La9 Rh2 3.339206 1_445
La10 Rh1 2.877397 1_545
La10 Rh0 2.937978 1_556
La10 Rh6 3.203996 1_555
La10 Rh1 3.339206 1_445
La11 Rh0 2.877397 1_565
La11 Rh1 2.937978 1_554
La11 Rh7 3.203996 1_555
La11 Rh0 3.339206 1_665
Ge0 Rh0 2.594066 1_555
Ge0 Rh4 2.594066 1_555
Ge0 La0 3.098211 1_555
Ge0 La2 3.117052 1_545
Ge0 La0 3.122945 1_455
Ge0 La8 3.183693 1_555
Ge0 La4 3.183693 1_555
Ge0 La7 3.247114 1_445
Ge0 La11 3.247114 1_445
Ge1 Rh1 2.594066 1_555
Ge1 Rh2 2.594066 1_555
Ge1 La1 3.098211 1_555
Ge1 La3 3.117052 1_565
Ge1 La1 3.122945 1_655
Ge1 La5 3.183693 1_555
Ge1 La6 3.183693 1_555
Ge1 La10 3.247114 1_665
Ge1 La9 3.247114 1_665
Ge2 Rh3 2.594066 1_555
Ge2 Rh7 2.594066 1_555
Ge2 La2 3.098211 1_555
Ge2 La0 3.117052 1_555
Ge2 La2 3.122945 1_655
Ge2 La7 3.183693 1_555
Ge2 La11 3.183693 1_555
Ge2 La8 3.247114 1_655
Ge2 La4 3.247114 1_655
Ge3 Rh5 2.594066 1_555
Ge3 Rh6 2.594066 1_555
Ge3 La3 3.098211 1_555
Ge3 La1 3.117052 1_555
Ge3 La3 3.122945 1_455
Ge3 La10 3.183693 1_555
Ge3 La9 3.183693 1_555
Ge3 La5 3.247114 1_455
Ge3 La6 3.247114 1_455
Ge4 Rh0 2.619622 1_555
Ge4 Rh6 2.619622 1_554
Ge4 Rh1 2.738379 1_544
Ge4 Rh7 2.738379 1_555
Ge4 La4 3.359455 1_555
Ge4 La10 3.359455 1_554
Ge4 La4 3.370805 1_655
Ge4 La10 3.370805 1_654
Ge4 La11 3.398788 1_545
Ge4 La5 3.398788 1_554
Ge4 La3 3.412654 1_554
Ge4 La0 3.412654 1_555
Ge5 Rh1 2.619622 1_554
Ge5 Rh7 2.619622 1_555
Ge5 Rh6 2.738379 1_554
Ge5 Rh0 2.738379 1_565
Ge5 La11 3.359455 1_555
Ge5 La5 3.359455 1_554
Ge5 La11 3.370805 1_455
Ge5 La5 3.370805 1_454
Ge5 La4 3.398788 1_555
Ge5 La10 3.398788 1_564
Ge5 La2 3.412654 1_555
Ge5 La1 3.412654 1_554
Ge6 Rh3 2.619622 1_555
Ge6 Rh2 2.619622 1_555
Ge6 Rh5 2.738379 1_555
Ge6 Rh4 2.738379 1_565
Ge6 La6 3.359455 1_555
Ge6 La7 3.359455 1_555
Ge6 La6 3.370805 1_455
Ge6 La7 3.370805 1_455
Ge6 La8 3.398788 1_555
Ge6 La9 3.398788 1_565
Ge6 La2 3.412654 1_555
Ge6 La1 3.412654 1_555
Ge7 Rh5 2.619622 1_555
Ge7 Rh4 2.619622 1_555
Ge7 Rh3 2.738379 1_555
Ge7 Rh2 2.738379 1_545
Ge7 La9 3.359455 1_555
Ge7 La8 3.359455 1_555
Ge7 La9 3.370805 1_655
Ge7 La8 3.370805 1_655
Ge7 La7 3.398788 1_545
Ge7 La6 3.398788 1_555
Ge7 La3 3.412654 1_555
Ge7 La0 3.412654 1_555
