# generated using pymatgen
data_Li5Mn5(SeO3)8
_symmetry_space_group_name_H-M   'P 1'
_cell_length_a   7.66721300
_cell_length_b   8.52171647
_cell_length_c   10.64435251
_cell_angle_alpha   106.21872208
_cell_angle_beta   88.42396113
_cell_angle_gamma   115.71983644
_symmetry_Int_Tables_number   1
_chemical_formula_structural   Li5Mn5(SeO3)8
_chemical_formula_sum   'Li5 Mn5 Se8 O24'
_cell_volume   598.09914899
_cell_formula_units_Z   1
loop_
 _symmetry_equiv_pos_site_id
 _symmetry_equiv_pos_as_xyz
  1  'x, y, z'
loop_
 _atom_site_type_symbol
 _atom_site_label
 _atom_site_symmetry_multiplicity
 _atom_site_fract_x
 _atom_site_fract_y
 _atom_site_fract_z
 _atom_site_occupancy
  Li  Li0  1  0.25179200  0.45748600  0.07161700  1
  Li  Li1  1  0.75235800  0.54618000  0.92368100  1
  Li  Li2  1  0.65239000  0.54711100  0.41930200  1
  Li  Li3  1  0.35352000  0.45749900  0.58528200  1
  Li  Li4  1  0.94222000  0.62153600  0.66821200  1
  Mn  Mn0  1  0.06129800  0.71673400  0.22024600  1
  Mn  Mn1  1  0.94098500  0.28759900  0.77778700  1
  Mn  Mn2  1  0.99830900  0.99863600  0.50211400  1
  Mn  Mn3  1  0.99962000  0.99932800  0.99764900  1
  Mn  Mn4  1  0.05857400  0.37856900  0.33517100  1
  Se  Se0  1  0.28687300  0.78806300  0.52575900  1
  Se  Se1  1  0.71030200  0.21319100  0.47972100  1
  Se  Se2  1  0.32431800  0.25818900  0.79617200  1
  Se  Se3  1  0.67509500  0.74098400  0.20395800  1
  Se  Se4  1  0.26049200  0.75337500  0.93143000  1
  Se  Se5  1  0.73565600  0.24350100  0.06669700  1
  Se  Se6  1  0.68408700  0.82098000  0.73565200  1
  Se  Se7  1  0.31811000  0.17715100  0.26308200  1
  O  O0  1  0.85711400  0.75260000  0.09511500  1
  O  O1  1  0.14207900  0.24700900  0.90508100  1
  O  O2  1  0.21562100  0.66334800  0.35811600  1
  O  O3  1  0.78474200  0.33942500  0.64131400  1
  O  O4  1  0.19238300  0.26014400  0.66256400  1
  O  O5  1  0.80868500  0.74034500  0.33730200  1
  O  O6  1  0.76954600  0.04590000  0.02283900  1
  O  O7  1  0.22950200  0.95423700  0.97940700  1
  O  O8  1  0.35055000  0.36837500  0.38869300  1
  O  O9  1  0.64426200  0.63084700  0.60965100  1
  O  O10  1  0.80083500  0.99417600  0.66294900  1
  O  O11  1  0.20130400  0.00723400  0.33649900  1
  O  O12  1  0.77314800  0.37954600  0.40115700  1
  O  O13  1  0.22460900  0.61259100  0.59212800  1
  O  O14  1  0.87764500  0.82284200  0.82455200  1
  O  O15  1  0.12229700  0.17665500  0.17551700  1
  O  O16  1  0.26609200  0.70986200  0.07938900  1
  O  O17  1  0.73569800  0.29142000  0.92123300  1
  O  O18  1  0.03688700  0.58748000  0.85180500  1
  O  O19  1  0.96230500  0.41062400  0.15001800  1
  O  O20  1  0.90247200  0.15997200  0.42736900  1
  O  O21  1  0.09749200  0.84026100  0.57274100  1
  O  O22  1  0.51286000  0.51886500  0.15061800  1
  O  O23  1  0.48587200  0.48012900  0.85041000  1
loop_
_geom_bond_atom_site_label_1
_geom_bond_atom_site_label_2
_geom_bond_distance
_geom_bond_site_symmetry_2
Li0 O22 1.981301 1_555
Li0 O1 2.015796 1_554
Li0 O16 2.083440 1_555
Li0 O19 2.257723 1_455
Li1 O23 1.985960 1_555
Li1 O0 2.032373 1_556
Li1 O17 2.111420 1_555
Li1 O18 2.204665 1_655
Li2 O9 1.960187 1_555
Li2 O12 1.979186 1_555
Li2 O5 1.985470 1_555
Li2 O8 2.118198 1_555
Li3 O13 1.950644 1_555
Li3 O4 1.986213 1_555
Li3 O8 2.013947 1_555
Li3 O9 2.044101 1_555
Li4 O3 2.105828 1_555
Li4 O21 2.233780 1_655
Li4 O18 2.237797 1_655
Li4 O14 2.248219 1_555
Li4 O13 2.315560 1_655
Li4 O9 2.424277 1_555
Mn0 O16 2.149002 1_555
Mn0 O2 2.167104 1_555
Mn0 O11 2.206203 1_565
Mn0 O0 2.252940 1_455
Mn0 O19 2.272236 1_455
Mn0 O5 2.325888 1_455
Mn1 O3 2.157240 1_555
Mn1 O17 2.166651 1_555
Mn1 O10 2.221261 1_545
Mn1 O18 2.228954 1_655
Mn1 O1 2.274295 1_655
Mn1 O4 2.318491 1_655
Mn2 O21 2.110446 1_655
Mn2 O20 2.140843 1_565
Mn2 O10 2.251350 1_555
Mn2 O4 2.287540 1_665
Mn2 O5 2.289529 1_555
Mn2 O11 2.314672 1_665
Mn3 O7 1.954296 1_655
Mn3 O14 1.964030 1_555
Mn3 O6 1.965546 1_566
Mn3 O15 2.004717 1_666
Mn3 O1 2.391737 1_665
Mn3 O0 2.419316 1_556
Mn4 O2 2.132546 1_555
Mn4 O20 2.210703 1_455
Mn4 O19 2.249304 1_455
Mn4 O15 2.266697 1_555
Mn4 O12 2.282672 1_455
Mn4 O8 2.368591 1_555
O0 Se3 1.776212 1_555
O1 Se2 1.778308 1_555
O2 Se0 1.761398 1_555
O3 Se1 1.711443 1_555
O4 Se2 1.775704 1_555
O5 Se3 1.775628 1_555
O6 Se5 1.747838 1_555
O7 Se4 1.762147 1_555
O8 Se7 1.718844 1_555
O9 Se6 1.701912 1_555
O10 Se6 1.741194 1_555
O11 Se7 1.725542 1_555
O12 Se1 1.728694 1_555
O13 Se0 1.707319 1_555
O14 Se6 1.773846 1_555
O15 Se7 1.786635 1_555
O16 Se4 1.721482 1_554
O17 Se5 1.707998 1_556
O18 Se4 1.721383 1_555
O19 Se5 1.750953 1_555
O20 Se1 1.755214 1_555
O21 Se0 1.718346 1_555
O22 Se3 1.687428 1_555
O23 Se2 1.685442 1_555
