# generated using pymatgen
data_YbCoGe2
_symmetry_space_group_name_H-M   'P 1'
_cell_length_a   8.64700442
_cell_length_b   8.64700442
_cell_length_c   4.11568700
_cell_angle_alpha   90.00000000
_cell_angle_beta   90.00000000
_cell_angle_gamma   151.84357302
_symmetry_Int_Tables_number   1
_chemical_formula_structural   YbCoGe2
_chemical_formula_sum   'Yb2 Co2 Ge4'
_cell_volume   145.21304855
_cell_formula_units_Z   2
loop_
 _symmetry_equiv_pos_site_id
 _symmetry_equiv_pos_as_xyz
  1  'x, y, z'
loop_
 _atom_site_type_symbol
 _atom_site_label
 _atom_site_symmetry_multiplicity
 _atom_site_fract_x
 _atom_site_fract_y
 _atom_site_fract_z
 _atom_site_occupancy
  Yb  Yb0  1  0.89163200  0.10836800  0.75000000  1
  Yb  Yb1  1  0.10836800  0.89163200  0.25000000  1
  Co  Co0  1  0.68060800  0.31939200  0.75000000  1
  Co  Co1  1  0.31939200  0.68060800  0.25000000  1
  Ge  Ge0  1  0.54464000  0.45536000  0.75000000  1
  Ge  Ge1  1  0.45536000  0.54464000  0.25000000  1
  Ge  Ge2  1  0.24920400  0.75079600  0.75000000  1
  Ge  Ge3  1  0.75079600  0.24920400  0.25000000  1
loop_
_geom_bond_atom_site_label_1
_geom_bond_atom_site_label_2
_geom_bond_distance
_geom_bond_site_symmetry_2
Co0 Ge0 2.280806 1_555
Co0 Ge3 2.370850 1_555
Co0 Ge3 2.370850 1_556
Co0 Ge2 2.397525 1_655
Co0 Ge2 2.397525 1_545
Co0 Yb1 3.182335 1_655
Co0 Yb1 3.182335 1_656
Co0 Yb1 3.182335 1_545
Co0 Yb1 3.182335 1_546
Co1 Ge1 2.280806 1_555
Co1 Ge2 2.370850 1_555
Co1 Ge2 2.370850 1_554
Co1 Ge3 2.397525 1_455
Co1 Ge3 2.397525 1_565
Co1 Yb0 3.182335 1_565
Co1 Yb0 3.182335 1_455
Co1 Yb0 3.182335 1_454
Co1 Yb0 3.182335 1_564
Ge0 Ge1 2.545118 1_555
Ge0 Ge1 2.545118 1_556
Ge0 Yb1 3.130749 1_655
Ge0 Yb1 3.130749 1_656
Ge0 Yb1 3.130749 1_545
Ge0 Yb1 3.130749 1_546
Ge0 Yb0 3.318395 1_565
Ge0 Yb0 3.318395 1_455
Ge1 Yb0 3.130749 1_454
Ge1 Yb0 3.130749 1_564
Ge1 Yb0 3.130749 1_565
Ge1 Yb0 3.130749 1_455
Ge1 Yb1 3.318395 1_545
Ge1 Yb1 3.318395 1_655
Ge2 Yb1 3.133043 1_556
Ge2 Yb1 3.133043 1_555
Ge2 Yb0 3.183114 1_455
Ge2 Yb0 3.183114 1_565
Ge3 Yb0 3.133043 1_555
Ge3 Yb0 3.133043 1_554
Ge3 Yb1 3.183114 1_655
Ge3 Yb1 3.183114 1_545
