# generated using pymatgen
data_Tl3Bi3(PS4)4
_symmetry_space_group_name_H-M   'P 1'
_cell_length_a   13.46686783
_cell_length_b   21.21832243
_cell_length_c   22.65050972
_cell_angle_alpha   118.32055130
_cell_angle_beta   90.00000000
_cell_angle_gamma   90.00000000
_symmetry_Int_Tables_number   1
_chemical_formula_structural   Tl3Bi3(PS4)4
_chemical_formula_sum   'Tl24 Bi24 P32 S128'
_cell_volume   5697.57301316
_cell_formula_units_Z   8
loop_
 _symmetry_equiv_pos_site_id
 _symmetry_equiv_pos_as_xyz
  1  'x, y, z'
loop_
 _atom_site_type_symbol
 _atom_site_label
 _atom_site_symmetry_multiplicity
 _atom_site_fract_x
 _atom_site_fract_y
 _atom_site_fract_z
 _atom_site_occupancy
  Tl  Tl0  1  0.54165964  0.47904387  0.34885386  1
  Tl  Tl1  1  0.04165964  0.52095613  0.15114614  1
  Tl  Tl2  1  0.45834036  0.52095613  0.65114614  1
  Tl  Tl3  1  0.95834036  0.47904387  0.84885386  1
  Tl  Tl4  1  0.73929351  0.58916868  0.16814191  1
  Tl  Tl5  1  0.23929351  0.41083132  0.33185809  1
  Tl  Tl6  1  0.26070649  0.41083132  0.83185809  1
  Tl  Tl7  1  0.76070649  0.58916868  0.66814191  1
  Tl  Tl8  1  0.95829738  0.37324505  0.35689609  1
  Tl  Tl9  1  0.45829738  0.62675495  0.14310391  1
  Tl  Tl10  1  0.04170262  0.62675495  0.64310391  1
  Tl  Tl11  1  0.54170262  0.37324505  0.85689609  1
  Tl  Tl12  1  0.98665137  0.86209361  0.34933125  1
  Tl  Tl13  1  0.48665137  0.13790639  0.15066875  1
  Tl  Tl14  1  0.01334863  0.13790639  0.65066875  1
  Tl  Tl15  1  0.51334863  0.86209361  0.84933125  1
  Tl  Tl16  1  0.67754105  0.10695671  0.66855900  1
  Tl  Tl17  1  0.17754105  0.89304329  0.83144100  1
  Tl  Tl18  1  0.32245895  0.89304329  0.33144100  1
  Tl  Tl19  1  0.82245895  0.10695671  0.16855900  1
  Tl  Tl20  1  0.53863679  0.00938982  0.34476068  1
  Tl  Tl21  1  0.03863679  0.99061018  0.15523932  1
  Tl  Tl22  1  0.46136321  0.99061018  0.65523932  1
  Tl  Tl23  1  0.96136321  0.00938982  0.84476068  1
  Bi  Bi0  1  0.73893942  0.33722381  0.15693150  1
  Bi  Bi1  1  0.23893942  0.66277619  0.34306850  1
  Bi  Bi2  1  0.26106058  0.66277619  0.84306850  1
  Bi  Bi3  1  0.76106058  0.33722381  0.65693150  1
  Bi  Bi4  1  0.23670180  0.18078894  0.84151575  1
  Bi  Bi5  1  0.73670180  0.81921106  0.65848425  1
  Bi  Bi6  1  0.76329820  0.81921106  0.15848425  1
  Bi  Bi7  1  0.26329820  0.18078894  0.34151575  1
  Bi  Bi8  1  0.89572007  0.12907099  0.43946673  1
  Bi  Bi9  1  0.39572007  0.87092901  0.06053327  1
  Bi  Bi10  1  0.10427993  0.87092901  0.56053327  1
  Bi  Bi11  1  0.60427993  0.12907099  0.93946673  1
  Bi  Bi12  1  0.65253040  0.29214326  0.43782369  1
  Bi  Bi13  1  0.15253040  0.70785674  0.06217631  1
  Bi  Bi14  1  0.34746960  0.70785674  0.56217631  1
  Bi  Bi15  1  0.84746960  0.29214326  0.93782369  1
  Bi  Bi16  1  0.15180245  0.35174919  0.56616944  1
  Bi  Bi17  1  0.65180245  0.64825081  0.93383056  1
  Bi  Bi18  1  0.84819755  0.64825081  0.43383056  1
  Bi  Bi19  1  0.34819755  0.35174919  0.06616944  1
  Bi  Bi20  1  0.11049060  0.19386800  0.06455766  1
  Bi  Bi21  1  0.61049060  0.80613200  0.43544234  1
  Bi  Bi22  1  0.88950940  0.80613200  0.93544234  1
  Bi  Bi23  1  0.38950940  0.19386800  0.56455766  1
  P  P0  1  0.15644002  0.13702911  0.48931252  1
  P  P1  1  0.65644002  0.86297089  0.01068748  1
  P  P2  1  0.84355998  0.86297089  0.51068748  1
  P  P3  1  0.34355998  0.13702911  0.98931252  1
  P  P4  1  0.84803770  0.15629781  0.01427937  1
  P  P5  1  0.34803770  0.84370219  0.48572063  1
  P  P6  1  0.15196230  0.84370219  0.98572063  1
  P  P7  1  0.65196230  0.15629781  0.51427937  1
  P  P8  1  0.60921220  0.34495030  0.01398173  1
  P  P9  1  0.10921220  0.65504970  0.48601827  1
  P  P10  1  0.39078780  0.65504970  0.98601827  1
  P  P11  1  0.89078780  0.34495030  0.51398173  1
  P  P12  1  0.11151822  0.33530282  0.99070577  1
  P  P13  1  0.61151822  0.66469718  0.50929423  1
  P  P14  1  0.88848178  0.66469718  0.00929423  1
  P  P15  1  0.38848178  0.33530282  0.49070577  1
  P  P16  1  0.84744360  0.98487517  0.28550111  1
  P  P17  1  0.34744360  0.01512483  0.21449889  1
  P  P18  1  0.15255640  0.01512483  0.71449889  1
  P  P19  1  0.65255640  0.98487517  0.78550111  1
  P  P20  1  0.68653258  0.28797467  0.28396440  1
  P  P21  1  0.18653258  0.71202533  0.21603560  1
  P  P22  1  0.31346742  0.71202533  0.71603560  1
  P  P23  1  0.81346742  0.28797467  0.78396440  1
  P  P24  1  0.35027533  0.22194458  0.72810342  1
  P  P25  1  0.85027533  0.77805542  0.77189658  1
  P  P26  1  0.64972467  0.77805542  0.27189658  1
  P  P27  1  0.14972467  0.22194458  0.22810342  1
  P  P28  1  0.31778767  0.49514956  0.22768801  1
  P  P29  1  0.81778767  0.50485044  0.27231199  1
  P  P30  1  0.68221233  0.50485044  0.77231199  1
  P  P31  1  0.18221233  0.49514956  0.72768801  1
  S  S0  1  0.10547621  0.18892586  0.43749529  1
  S  S1  1  0.60547621  0.81107414  0.06250471  1
  S  S2  1  0.89452379  0.81107414  0.56250471  1
  S  S3  1  0.39452379  0.18892586  0.93749529  1
  S  S4  1  0.04969111  0.06492136  0.48183391  1
  S  S5  1  0.54969111  0.93507864  0.01816609  1
  S  S6  1  0.95030889  0.93507864  0.51816609  1
  S  S7  1  0.45030889  0.06492136  0.98183391  1
  S  S8  1  0.20961584  0.08712591  0.95438252  1
  S  S9  1  0.70961584  0.91287409  0.54561748  1
  S  S10  1  0.79038416  0.91287409  0.04561748  1
  S  S11  1  0.29038416  0.08712591  0.45438252  1
  S  S12  1  0.17951473  0.21436263  0.58760261  1
  S  S13  1  0.67951473  0.78563737  0.91239739  1
  S  S14  1  0.82048527  0.78563737  0.41239739  1
  S  S15  1  0.32048527  0.21436263  0.08760261  1
  S  S16  1  0.95321580  0.08522057  0.01163855  1
  S  S17  1  0.45321580  0.91477943  0.48836145  1
  S  S18  1  0.04678420  0.91477943  0.98836145  1
  S  S19  1  0.54678420  0.08522057  0.51163855  1
  S  S20  1  0.78200490  0.14508862  0.55562382  1
  S  S21  1  0.28200490  0.85491138  0.94437618  1
  S  S22  1  0.21799510  0.85491138  0.44437618  1
  S  S23  1  0.71799510  0.14508862  0.05562382  1
  S  S24  1  0.59653543  0.25823073  0.56810574  1
  S  S25  1  0.09653543  0.74176927  0.93189426  1
  S  S26  1  0.40346457  0.74176927  0.43189426  1
  S  S27  1  0.90346457  0.25823073  0.06810574  1
  S  S28  1  0.81719982  0.14009780  0.91824959  1
  S  S29  1  0.31719982  0.85990220  0.58175041  1
  S  S30  1  0.18280018  0.85990220  0.08175041  1
  S  S31  1  0.68280018  0.14009780  0.41824959  1
  S  S32  1  0.99640069  0.41465182  0.51584833  1
  S  S33  1  0.49640069  0.58534818  0.98415167  1
  S  S34  1  0.00359931  0.58534818  0.48415167  1
  S  S35  1  0.50359931  0.41465182  0.01584833  1
  S  S36  1  0.56181030  0.29892545  0.07123019  1
  S  S37  1  0.06181030  0.70107455  0.42876981  1
  S  S38  1  0.43818970  0.70107455  0.92876981  1
  S  S39  1  0.93818970  0.29892545  0.57123019  1
  S  S40  1  0.75604967  0.39574505  0.55218781  1
  S  S41  1  0.25604967  0.60425495  0.94781219  1
  S  S42  1  0.24395033  0.60425495  0.44781219  1
  S  S43  1  0.74395033  0.39574505  0.05218781  1
  S  S44  1  0.63759950  0.26589933  0.91759707  1
  S  S45  1  0.13759950  0.73410067  0.58240293  1
  S  S46  1  0.36240050  0.73410067  0.08240293  1
  S  S47  1  0.86240050  0.26589933  0.41759707  1
  S  S48  1  0.00584642  0.40344716  0.98926283  1
  S  S49  1  0.50584642  0.59655284  0.51073717  1
  S  S50  1  0.99415358  0.59655284  0.01073717  1
  S  S51  1  0.49415358  0.40344716  0.48926283  1
  S  S52  1  0.13930676  0.35240734  0.08735239  1
  S  S53  1  0.63930676  0.64759266  0.41264761  1
  S  S54  1  0.86069324  0.64759266  0.91264761  1
  S  S55  1  0.36069324  0.35240734  0.58735239  1
  S  S56  1  0.43611971  0.23185546  0.43340168  1
  S  S57  1  0.93611971  0.76814454  0.06659832  1
  S  S58  1  0.56388029  0.76814454  0.56659832  1
  S  S59  1  0.06388029  0.23185546  0.93340168  1
  S  S60  1  0.25401459  0.34854754  0.45397323  1
  S  S61  1  0.75401459  0.65145246  0.04602677  1
  S  S62  1  0.74598541  0.65145246  0.54602677  1
  S  S63  1  0.24598541  0.34854754  0.95397323  1
  S  S64  1  0.06064857  0.09730128  0.77503723  1
  S  S65  1  0.56064857  0.90269872  0.72496277  1
  S  S66  1  0.93935143  0.90269872  0.22496277  1
  S  S67  1  0.43935143  0.09730128  0.27503723  1
  S  S68  1  0.28819482  0.03645926  0.76312529  1
  S  S69  1  0.78819482  0.96354074  0.73687471  1
  S  S70  1  0.71180518  0.96354074  0.23687471  1
  S  S71  1  0.21180518  0.03645926  0.26312529  1
  S  S72  1  0.83487185  0.98970726  0.37877061  1
  S  S73  1  0.33487185  0.01029274  0.12122939  1
  S  S74  1  0.16512815  0.01029274  0.62122939  1
  S  S75  1  0.66512815  0.98970726  0.87877061  1
  S  S76  1  0.09584915  0.91860434  0.69909092  1
  S  S77  1  0.59584915  0.08139566  0.80090908  1
  S  S78  1  0.90415085  0.08139566  0.30090908  1
  S  S79  1  0.40415085  0.91860434  0.19909092  1
  S  S80  1  0.58224448  0.30773810  0.22870685  1
  S  S81  1  0.08224448  0.69226190  0.27129315  1
  S  S82  1  0.41775552  0.69226190  0.77129315  1
  S  S83  1  0.91775552  0.30773810  0.72870685  1
  S  S84  1  0.65387084  0.19880158  0.29294708  1
  S  S85  1  0.15387084  0.80119842  0.20705292  1
  S  S86  1  0.34612916  0.80119842  0.70705292  1
  S  S87  1  0.84612916  0.19880158  0.79294708  1
  S  S88  1  0.69570597  0.37429918  0.37885006  1
  S  S89  1  0.19570597  0.62570082  0.12114994  1
  S  S90  1  0.30429403  0.62570082  0.62114994  1
  S  S91  1  0.80429403  0.37429918  0.87885006  1
  S  S92  1  0.82147406  0.27602525  0.23534461  1
  S  S93  1  0.32147406  0.72397475  0.26465539  1
  S  S94  1  0.17852594  0.72397475  0.76465539  1
  S  S95  1  0.67852594  0.27602525  0.73534461  1
  S  S96  1  0.39698095  0.30415560  0.71220926  1
  S  S97  1  0.89698095  0.69584440  0.78779074  1
  S  S98  1  0.60301905  0.69584440  0.28779074  1
  S  S99  1  0.10301905  0.30415560  0.21220926  1
  S  S100  1  0.42236838  0.21734906  0.80517734  1
  S  S101  1  0.92236838  0.78265094  0.69482266  1
  S  S102  1  0.57763162  0.78265094  0.19482266  1
  S  S103  1  0.07763162  0.21734906  0.30517734  1
  S  S104  1  0.30008127  0.23327520  0.25318136  1
  S  S105  1  0.80008127  0.76672480  0.24681864  1
  S  S106  1  0.69991873  0.76672480  0.74681864  1
  S  S107  1  0.19991873  0.23327520  0.75318136  1
  S  S108  1  0.12253337  0.12840033  0.14126265  1
  S  S109  1  0.62253337  0.87159967  0.35873735  1
  S  S110  1  0.87746663  0.87159967  0.85873735  1
  S  S111  1  0.37746663  0.12840033  0.64126265  1
  S  S112  1  0.36480459  0.39597382  0.21038802  1
  S  S113  1  0.86480459  0.60402618  0.28961198  1
  S  S114  1  0.63519541  0.60402618  0.78961198  1
  S  S115  1  0.13519541  0.39597382  0.71038802  1
  S  S116  1  0.31848054  0.49509922  0.13641890  1
  S  S117  1  0.81848054  0.50490078  0.36358110  1
  S  S118  1  0.68151946  0.50490078  0.86358110  1
  S  S119  1  0.18151946  0.49509922  0.63641890  1
  S  S120  1  0.59210373  0.42564059  0.70551080  1
  S  S121  1  0.09210373  0.57435941  0.79448920  1
  S  S122  1  0.40789627  0.57435941  0.29448920  1
  S  S123  1  0.90789627  0.42564059  0.20551080  1
  S  S124  1  0.82396656  0.48213465  0.73240619  1
  S  S125  1  0.32396656  0.51786535  0.76759381  1
  S  S126  1  0.17603344  0.51786535  0.26759381  1
  S  S127  1  0.67603344  0.48213465  0.23240619  1
loop_
_geom_bond_atom_site_label_1
_geom_bond_atom_site_label_2
_geom_bond_distance
_geom_bond_site_symmetry_2
Bi0 S123 2.819360 1_555
Bi0 S127 2.847282 1_555
Bi0 S92 2.874778 1_555
Bi0 S80 2.907308 1_555
Bi0 S27 2.926894 1_555
Bi0 S36 2.936298 1_555
Bi0 S43 3.157586 1_555
Bi1 S122 2.819360 1_555
Bi1 S126 2.847282 1_555
Bi1 S93 2.874778 1_555
Bi1 S81 2.907308 1_555
Bi1 S26 2.926894 1_555
Bi1 S37 2.936298 1_555
Bi1 S42 3.157586 1_555
Bi2 S121 2.819360 1_555
Bi2 S125 2.847282 1_555
Bi2 S94 2.874778 1_555
Bi2 S82 2.907308 1_555
Bi2 S25 2.926894 1_555
Bi2 S38 2.936298 1_555
Bi2 S41 3.157586 1_555
Bi3 S120 2.819360 1_555
Bi3 S124 2.847282 1_555
Bi3 S95 2.874778 1_555
Bi3 S83 2.907308 1_555
Bi3 S24 2.926894 1_555
Bi3 S39 2.936298 1_555
Bi3 S40 3.157586 1_555
Bi4 S107 2.757371 1_555
Bi4 S68 2.802289 1_555
Bi4 S100 2.852507 1_555
Bi4 S64 2.914733 1_555
Bi4 S59 2.963554 1_555
Bi4 S3 2.986148 1_555
Bi5 S106 2.757371 1_555
Bi5 S69 2.802289 1_555
Bi5 S101 2.852507 1_555
Bi5 S65 2.914733 1_555
Bi5 S58 2.963554 1_555
Bi5 S2 2.986148 1_555
Bi6 S105 2.757371 1_555
Bi6 S70 2.802289 1_555
Bi6 S102 2.852507 1_555
Bi6 S66 2.914733 1_555
Bi6 S57 2.963554 1_555
Bi6 S1 2.986148 1_555
Bi7 S104 2.757371 1_555
Bi7 S71 2.802289 1_555
Bi7 S103 2.852507 1_555
Bi7 S67 2.914733 1_555
Bi7 S56 2.963554 1_555
Bi7 S0 2.986148 1_555
Bi8 S72 2.729198 1_545
Bi8 S78 2.805978 1_555
Bi8 S4 2.883124 1_655
Bi8 S20 2.921385 1_555
Bi8 S31 2.934989 1_555
Bi8 S0 3.106125 1_655
Bi8 S47 3.200035 1_555
Bi9 S73 2.729198 1_565
Bi9 S79 2.805978 1_555
Bi9 S5 2.883124 1_555
Bi9 S21 2.921385 1_554
Bi9 S30 2.934989 1_555
Bi9 S1 3.106125 1_555
Bi9 S46 3.200035 1_555
Bi10 S74 2.729198 1_565
Bi10 S76 2.805978 1_555
Bi10 S6 2.883124 1_455
Bi10 S22 2.921385 1_555
Bi10 S29 2.934989 1_555
Bi10 S2 3.106125 1_455
Bi10 S45 3.200035 1_555
Bi11 S75 2.729198 1_545
Bi11 S77 2.805978 1_555
Bi11 S7 2.883124 1_555
Bi11 S23 2.921385 1_556
Bi11 S28 2.934989 1_555
Bi11 S3 3.106125 1_555
Bi11 S44 3.200035 1_555
Bi12 S88 2.714870 1_555
Bi12 S40 2.843083 1_555
Bi12 S47 2.875040 1_555
Bi12 S84 2.919729 1_555
Bi12 S51 2.978804 1_555
Bi12 S31 3.068167 1_555
Bi12 S56 3.165187 1_555
Bi13 S89 2.714870 1_555
Bi13 S41 2.843083 1_554
Bi13 S46 2.875040 1_555
Bi13 S85 2.919729 1_555
Bi13 S50 2.978804 1_455
Bi13 S30 3.068167 1_555
Bi13 S57 3.165187 1_455
Bi14 S90 2.714870 1_555
Bi14 S42 2.843083 1_555
Bi14 S45 2.875040 1_555
Bi14 S86 2.919729 1_555
Bi14 S49 2.978804 1_555
Bi14 S29 3.068167 1_555
Bi14 S58 3.165187 1_555
Bi15 S91 2.714870 1_555
Bi15 S43 2.843083 1_556
Bi15 S44 2.875040 1_555
Bi15 S87 2.919729 1_555
Bi15 S48 2.978804 1_655
Bi15 S28 3.068167 1_555
Bi15 S59 3.165187 1_655
Bi16 S119 2.711380 1_555
Bi16 S55 2.852649 1_555
Bi16 S60 2.862467 1_555
Bi16 S115 2.948390 1_555
Bi16 S32 2.983897 1_455
Bi16 S39 3.109128 1_455
Bi16 S12 3.196185 1_555
Bi17 S118 2.711380 1_555
Bi17 S54 2.852649 1_555
Bi17 S61 2.862467 1_556
Bi17 S114 2.948390 1_555
Bi17 S33 2.983897 1_555
Bi17 S38 3.109128 1_555
Bi17 S13 3.196185 1_555
Bi18 S117 2.711380 1_555
Bi18 S53 2.852649 1_555
Bi18 S62 2.862467 1_555
Bi18 S113 2.948390 1_555
Bi18 S34 2.983897 1_655
Bi18 S37 3.109128 1_655
Bi18 S14 3.196185 1_555
Bi19 S116 2.711380 1_555
Bi19 S52 2.852649 1_555
Bi19 S63 2.862467 1_554
Bi19 S112 2.948390 1_555
Bi19 S35 2.983897 1_555
Bi19 S36 3.109128 1_555
Bi19 S15 3.196185 1_555
Bi20 S108 2.695261 1_555
Bi20 S8 2.788654 1_554
Bi20 S15 2.871170 1_555
Bi20 S16 2.935192 1_455
Bi20 S99 3.040653 1_555
Bi20 S27 3.088734 1_455
Bi20 S52 3.175740 1_555
Bi21 S109 2.695261 1_555
Bi21 S9 2.788654 1_555
Bi21 S14 2.871170 1_555
Bi21 S17 2.935192 1_555
Bi21 S98 3.040653 1_555
Bi21 S26 3.088734 1_555
Bi21 S53 3.175740 1_555
Bi22 S110 2.695261 1_555
Bi22 S10 2.788654 1_556
Bi22 S13 2.871170 1_555
Bi22 S18 2.935192 1_655
Bi22 S97 3.040653 1_555
Bi22 S25 3.088734 1_655
Bi22 S54 3.175740 1_555
Bi23 S111 2.695261 1_555
Bi23 S11 2.788654 1_555
Bi23 S12 2.871170 1_555
Bi23 S19 2.935192 1_555
Bi23 S96 3.040653 1_555
Bi23 S24 3.088734 1_555
Bi23 S55 3.175740 1_555
P0 S4 2.047028 1_555
P0 S11 2.050857 1_555
P0 S12 2.068682 1_555
P0 S0 2.070603 1_555
P1 S5 2.047028 1_555
P1 S10 2.050857 1_555
P1 S13 2.068682 1_554
P1 S1 2.070603 1_555
P2 S6 2.047028 1_555
P2 S9 2.050857 1_555
P2 S14 2.068682 1_555
P2 S2 2.070603 1_555
P3 S7 2.047028 1_555
P3 S8 2.050857 1_555
P3 S15 2.068682 1_556
P3 S3 2.070603 1_555
P4 S16 2.049077 1_555
P4 S23 2.052270 1_555
P4 S27 2.054154 1_555
P4 S28 2.076629 1_554
P5 S17 2.049077 1_555
P5 S22 2.052270 1_555
P5 S26 2.054154 1_555
P5 S29 2.076629 1_555
P6 S18 2.049077 1_555
P6 S21 2.052270 1_555
P6 S25 2.054154 1_555
P6 S30 2.076629 1_556
P7 S19 2.049077 1_555
P7 S20 2.052270 1_555
P7 S24 2.054154 1_555
P7 S31 2.076629 1_555
P8 S35 2.037797 1_555
P8 S36 2.060130 1_555
P8 S44 2.061880 1_554
P8 S43 2.077972 1_555
P9 S34 2.037797 1_555
P9 S37 2.060130 1_555
P9 S45 2.061880 1_555
P9 S42 2.077972 1_555
P10 S33 2.037797 1_555
P10 S38 2.060130 1_555
P10 S46 2.061880 1_556
P10 S41 2.077972 1_555
P11 S32 2.037797 1_555
P11 S39 2.060130 1_555
P11 S47 2.061880 1_555
P11 S40 2.077972 1_555
P12 S48 2.040020 1_555
P12 S59 2.052085 1_555
P12 S63 2.066944 1_555
P12 S52 2.076074 1_556
P13 S49 2.040020 1_555
P13 S58 2.052085 1_555
P13 S62 2.066944 1_555
P13 S53 2.076074 1_555
P14 S50 2.040020 1_555
P14 S57 2.052085 1_555
P14 S61 2.066944 1_555
P14 S54 2.076074 1_554
P15 S51 2.040020 1_555
P15 S56 2.052085 1_555
P15 S60 2.066944 1_555
P15 S55 2.076074 1_555
P16 S66 2.045471 1_555
P16 S78 2.054543 1_565
P16 S70 2.069184 1_555
P16 S72 2.072860 1_555
P17 S67 2.045471 1_555
P17 S79 2.054543 1_545
P17 S71 2.069184 1_555
P17 S73 2.072860 1_555
P18 S64 2.045471 1_555
P18 S76 2.054543 1_545
P18 S68 2.069184 1_555
P18 S74 2.072860 1_555
P19 S65 2.045471 1_555
P19 S77 2.054543 1_565
P19 S69 2.069184 1_555
P19 S75 2.072860 1_555
P20 S84 2.044550 1_555
P20 S80 2.052513 1_555
P20 S88 2.062582 1_555
P20 S92 2.077137 1_555
P21 S85 2.044550 1_555
P21 S81 2.052513 1_555
P21 S89 2.062582 1_555
P21 S93 2.077137 1_555
P22 S86 2.044550 1_555
P22 S82 2.052513 1_555
P22 S90 2.062582 1_555
P22 S94 2.077137 1_555
P23 S87 2.044550 1_555
P23 S83 2.052513 1_555
P23 S91 2.062582 1_555
P23 S95 2.077137 1_555
P24 S100 2.039926 1_555
P24 S96 2.040571 1_555
P24 S111 2.058750 1_555
P24 S107 2.085864 1_555
P25 S101 2.039926 1_555
P25 S97 2.040571 1_555
P25 S110 2.058750 1_555
P25 S106 2.085864 1_555
P26 S102 2.039926 1_555
P26 S98 2.040571 1_555
P26 S109 2.058750 1_555
P26 S105 2.085864 1_555
P27 S103 2.039926 1_555
P27 S99 2.040571 1_555
P27 S108 2.058750 1_555
P27 S104 2.085864 1_555
P28 S122 2.043000 1_555
P28 S112 2.049471 1_555
P28 S116 2.066806 1_555
P28 S126 2.068862 1_555
P29 S123 2.043000 1_555
P29 S113 2.049471 1_555
P29 S117 2.066806 1_555
P29 S127 2.068862 1_555
P30 S120 2.043000 1_555
P30 S114 2.049471 1_555
P30 S118 2.066806 1_555
P30 S124 2.068862 1_555
P31 S121 2.043000 1_555
P31 S115 2.049471 1_555
P31 S119 2.066806 1_555
P31 S125 2.068862 1_555
S28 Tl23 3.138711 1_555
S29 Tl22 3.138711 1_555
S30 Tl21 3.138711 1_555
S31 Tl20 3.138711 1_555
S68 Tl22 3.178166 1_545
S69 Tl23 3.178166 1_565
S70 Tl20 3.178166 1_565
S71 Tl21 3.178166 1_545
S72 Tl12 3.200206 1_555
S73 Tl13 3.200206 1_555
S74 Tl14 3.200206 1_555
S75 Tl15 3.200206 1_555
S92 Tl8 3.137175 1_555
S92 Tl19 3.163657 1_555
S93 Tl9 3.137175 1_555
S93 Tl18 3.163657 1_555
S94 Tl10 3.137175 1_555
S94 Tl17 3.163657 1_555
S95 Tl11 3.137175 1_555
S95 Tl16 3.163657 1_555
S96 Tl6 3.164759 1_555
S97 Tl7 3.164759 1_555
S98 Tl4 3.164759 1_555
S99 Tl5 3.164759 1_555
S112 Tl5 3.115013 1_555
S113 Tl4 3.115013 1_555
S114 Tl7 3.115013 1_555
S115 Tl6 3.115013 1_555
S124 Tl3 3.224900 1_555
S125 Tl2 3.224900 1_555
S126 Tl1 3.224900 1_555
S127 Tl0 3.224900 1_555
