# generated using pymatgen
data_Ca2NdRuO6
_symmetry_space_group_name_H-M   'P 1'
_cell_length_a   5.61089468
_cell_length_b   5.90082600
_cell_length_c   8.11438503
_cell_angle_alpha   90.00000000
_cell_angle_beta   90.06092293
_cell_angle_gamma   90.00000000
_symmetry_Int_Tables_number   1
_chemical_formula_structural   Ca2NdRuO6
_chemical_formula_sum   'Ca4 Nd2 Ru2 O12'
_cell_volume   268.65831786
_cell_formula_units_Z   2
loop_
 _symmetry_equiv_pos_site_id
 _symmetry_equiv_pos_as_xyz
  1  'x, y, z'
loop_
 _atom_site_type_symbol
 _atom_site_label
 _atom_site_symmetry_multiplicity
 _atom_site_fract_x
 _atom_site_fract_y
 _atom_site_fract_z
 _atom_site_occupancy
  Ca  Ca0  1  0.50043200  0.00371200  0.49963700  1
  Ca  Ca1  1  0.00043200  0.49628800  0.99963700  1
  Ca  Ca2  1  0.98522600  0.05907900  0.24538300  1
  Ca  Ca3  1  0.48522600  0.44092100  0.74538300  1
  Nd  Nd0  1  0.01643300  0.93985300  0.75421000  1
  Nd  Nd1  1  0.51643300  0.56014700  0.25421000  1
  Ru  Ru0  1  0.00015700  0.49944100  0.50080800  1
  Ru  Ru1  1  0.50015700  0.00055900  0.00080800  1
  O  O0  1  0.16978200  0.21617600  0.56867600  1
  O  O1  1  0.66978200  0.28382400  0.06867600  1
  O  O2  1  0.82610600  0.78013700  0.43235600  1
  O  O3  1  0.32610600  0.71986300  0.93235600  1
  O  O4  1  0.11637400  0.44891800  0.27046200  1
  O  O5  1  0.61637400  0.05108200  0.77046200  1
  O  O6  1  0.88706300  0.55158000  0.72943100  1
  O  O7  1  0.38706300  0.94842000  0.22943100  1
  O  O8  1  0.28803200  0.67940900  0.55178500  1
  O  O9  1  0.78803200  0.82059100  0.05178500  1
  O  O10  1  0.71039500  0.32347400  0.44725300  1
  O  O11  1  0.21039500  0.17652600  0.94725300  1
loop_
_geom_bond_atom_site_label_1
_geom_bond_atom_site_label_2
_geom_bond_distance
_geom_bond_site_symmetry_2
Ca0 O10 2.264919 1_555
Ca0 O8 2.294010 1_545
Ca0 O7 2.305517 1_545
Ca0 O5 2.308169 1_555
Ca0 O0 2.308628 1_555
Ca0 O2 2.319434 1_545
Ca1 O11 2.264919 1_555
Ca1 O9 2.294010 1_456
Ca1 O6 2.305517 1_455
Ca1 O4 2.308169 1_556
Ca1 O1 2.308628 1_456
Ca1 O3 2.319434 1_555
Ca2 O7 2.351015 1_645
Ca2 O9 2.380913 1_545
Ca2 O2 2.410616 1_545
Ca2 O4 2.423694 1_655
Ca2 O1 2.634761 1_555
Ca2 O10 2.738715 1_555
Ca2 O11 2.816952 1_654
Ca2 O0 2.967776 1_655
Ca3 O6 2.351015 1_555
Ca3 O8 2.380913 1_555
Ca3 O3 2.410616 1_555
Ca3 O5 2.423694 1_555
Ca3 O0 2.634761 1_555
Ca3 O11 2.738715 1_555
Ca3 O10 2.816952 1_555
Ca3 O1 2.967776 1_556
Nd0 O5 2.342527 1_465
Nd0 O11 2.363230 1_565
Nd0 O0 2.380807 1_565
Nd0 O6 2.411702 1_455
Nd0 O3 2.605463 1_555
Nd0 O8 2.717992 1_555
Nd0 O9 2.823941 1_456
Nd0 O2 2.973788 1_455
Nd1 O4 2.342527 1_555
Nd1 O10 2.363230 1_555
Nd1 O1 2.380807 1_555
Nd1 O7 2.411702 1_555
Nd1 O2 2.605463 1_555
Nd1 O9 2.717992 1_555
Nd1 O8 2.823941 1_555
Nd1 O3 2.973788 1_554
O0 Ru0 2.000473 1_555
O1 Ru1 2.000473 1_555
O2 Ru0 2.001133 1_655
O3 Ru1 2.001133 1_566
O4 Ru0 2.002568 1_555
O5 Ru1 2.002568 1_556
O6 Ru0 1.985284 1_655
O7 Ru1 1.985284 1_565
O8 Ru0 1.976469 1_555
O9 Ru1 1.976469 1_565
O10 Ru0 1.977074 1_655
O11 Ru1 1.977074 1_556
