# generated using pymatgen
data_La(MnAl2)4
_symmetry_space_group_name_H-M   'P 1'
_cell_length_a   5.20504100
_cell_length_b   6.82487916
_cell_length_c   6.82487916
_cell_angle_alpha   81.63889496
_cell_angle_beta   67.58400209
_cell_angle_gamma   67.58400209
_symmetry_Int_Tables_number   1
_chemical_formula_structural   La(MnAl2)4
_chemical_formula_sum   'La1 Mn4 Al8'
_cell_volume   207.19113347
_cell_formula_units_Z   1
loop_
 _symmetry_equiv_pos_site_id
 _symmetry_equiv_pos_as_xyz
  1  'x, y, z'
loop_
 _atom_site_type_symbol
 _atom_site_label
 _atom_site_symmetry_multiplicity
 _atom_site_fract_x
 _atom_site_fract_y
 _atom_site_fract_z
 _atom_site_occupancy
  La  La0  1  0.00000000  0.00000000  0.00000000  1
  Mn  Mn0  1  0.00000000  0.00000000  0.50000000  1
  Mn  Mn1  1  0.50000000  0.00000000  0.50000000  1
  Mn  Mn2  1  0.50000000  0.50000000  0.00000000  1
  Mn  Mn3  1  0.00000000  0.50000000  0.00000000  1
  Al  Al0  1  0.00000000  0.34182500  0.65817500  1
  Al  Al1  1  0.00000000  0.65817500  0.34182500  1
  Al  Al2  1  0.65817500  0.34182500  0.34182500  1
  Al  Al3  1  0.34182500  0.65817500  0.65817500  1
  Al  Al4  1  0.50000000  0.77069400  0.22930600  1
  Al  Al5  1  0.50000000  0.22930600  0.77069400  1
  Al  Al6  1  0.72930600  0.77069400  0.77069400  1
  Al  Al7  1  0.27069400  0.22930600  0.22930600  1
loop_
_geom_bond_atom_site_label_1
_geom_bond_atom_site_label_2
_geom_bond_distance
_geom_bond_site_symmetry_2
La0 Mn1 3.412439 1_554
La0 Mn2 3.412439 1_545
La0 Mn1 3.412439 1_455
La0 Mn2 3.412439 1_455
La0 Mn0 3.412440 1_555
La0 Mn3 3.412440 1_545
La0 Mn0 3.412440 1_554
La0 Mn3 3.412440 1_555
Mn0 Mn1 2.602520 1_555
Mn0 Mn1 2.602520 1_455
Mn2 Mn3 2.602520 1_655
Mn2 Mn3 2.602520 1_555
Al0 Mn1 2.709296 1_555
Al0 Mn2 2.709296 1_456
Al0 Mn3 2.709296 1_556
Al0 Mn0 2.709296 1_555
Al0 Al5 2.789451 1_555
Al0 Al5 2.789451 1_455
Al0 Al6 2.797392 1_455
Al0 Al7 2.797392 1_555
Al0 Al1 2.822646 1_555
Al0 La0 3.049947 1_556
Al1 Mn2 2.709296 1_555
Al1 Mn1 2.709296 1_465
Al1 Mn3 2.709296 1_555
Al1 Mn0 2.709296 1_565
Al1 Al4 2.789451 1_555
Al1 Al4 2.789451 1_455
Al1 Al6 2.797392 1_455
Al1 Al7 2.797392 1_555
Al1 La0 3.049947 1_565
Al2 Mn3 2.709296 1_655
Al2 Mn0 2.709296 1_655
Al2 Mn1 2.709296 1_555
Al2 Mn2 2.709296 1_555
Al2 Al7 2.789451 1_655
Al2 Al7 2.789452 1_555
Al2 Al4 2.797392 1_555
Al2 Al5 2.797392 1_555
Al2 Al3 2.822646 1_555
Al2 La0 3.049947 1_655
Al3 Mn0 2.709296 1_565
Al3 Mn3 2.709296 1_556
Al3 Mn1 2.709296 1_565
Al3 Mn2 2.709296 1_556
Al3 Al6 2.789451 1_455
Al3 Al6 2.789452 1_555
Al3 Al5 2.797392 1_555
Al3 Al4 2.797392 1_555
Al3 La0 3.049947 1_566
Al4 Mn3 2.589035 1_655
Al4 Mn0 2.589035 1_565
Al4 Mn2 2.589035 1_555
Al4 Mn1 2.589035 1_565
Al4 Al7 2.893470 1_565
Al4 Al6 2.893470 1_554
Al4 La0 3.310468 1_565
Al4 La0 3.310468 1_665
Al5 Mn0 2.589035 1_655
Al5 Mn3 2.589035 1_556
Al5 Mn1 2.589035 1_555
Al5 Mn2 2.589035 1_556
Al5 Al7 2.893470 1_556
Al5 Al6 2.893470 1_545
Al5 La0 3.310468 1_556
Al5 La0 3.310468 1_656
Al6 Mn3 2.589035 1_656
Al6 Mn0 2.589035 1_665
Al6 Mn2 2.589035 1_556
Al6 Mn1 2.589035 1_565
Al6 La0 3.310467 1_566
Al6 La0 3.310468 1_666
Al7 Mn3 2.589035 1_555
Al7 Mn0 2.589035 1_555
Al7 Mn1 2.589035 1_555
Al7 Mn2 2.589035 1_555
Al7 La0 3.310467 1_655
Al7 La0 3.310468 1_555
