# generated using pymatgen
data_La2MgSe4
_symmetry_space_group_name_H-M   'P 1'
_cell_length_a   6.97360800
_cell_length_b   8.74563200
_cell_length_c   14.89608900
_cell_angle_alpha   90.00000000
_cell_angle_beta   90.00000000
_cell_angle_gamma   90.00000000
_symmetry_Int_Tables_number   1
_chemical_formula_structural   La2MgSe4
_chemical_formula_sum   'La8 Mg4 Se16'
_cell_volume   908.49175182
_cell_formula_units_Z   4
loop_
 _symmetry_equiv_pos_site_id
 _symmetry_equiv_pos_as_xyz
  1  'x, y, z'
loop_
 _atom_site_type_symbol
 _atom_site_label
 _atom_site_symmetry_multiplicity
 _atom_site_fract_x
 _atom_site_fract_y
 _atom_site_fract_z
 _atom_site_occupancy
  La  La0  1  0.50000000  0.00000000  0.00000000  1
  La  La1  1  0.00000000  0.00000000  0.50000000  1
  La  La2  1  0.00000000  0.50000000  0.50000000  1
  La  La3  1  0.50000000  0.50000000  0.00000000  1
  La  La4  1  0.00068200  0.75000000  0.23185800  1
  La  La5  1  0.99931800  0.25000000  0.76814200  1
  La  La6  1  0.50068200  0.25000000  0.26814200  1
  La  La7  1  0.49931800  0.75000000  0.73185800  1
  Mg  Mg0  1  0.91825700  0.25000000  0.09269800  1
  Mg  Mg1  1  0.08174300  0.75000000  0.90730200  1
  Mg  Mg2  1  0.41825700  0.75000000  0.40730200  1
  Mg  Mg3  1  0.58174300  0.25000000  0.59269800  1
  Se  Se0  1  0.74932300  0.01755500  0.16809700  1
  Se  Se1  1  0.25067700  0.98244500  0.83190300  1
  Se  Se2  1  0.24932300  0.98244500  0.33190300  1
  Se  Se3  1  0.75067700  0.01755500  0.66809700  1
  Se  Se4  1  0.75067700  0.48244500  0.66809700  1
  Se  Se5  1  0.24932300  0.51755500  0.33190300  1
  Se  Se6  1  0.25067700  0.51755500  0.83190300  1
  Se  Se7  1  0.74932300  0.48244500  0.16809700  1
  Se  Se8  1  0.24211000  0.75000000  0.06640000  1
  Se  Se9  1  0.75789000  0.25000000  0.93360000  1
  Se  Se10  1  0.74211000  0.25000000  0.43360000  1
  Se  Se11  1  0.25789000  0.75000000  0.56640000  1
  Se  Se12  1  0.28382400  0.25000000  0.09321700  1
  Se  Se13  1  0.71617600  0.75000000  0.90678300  1
  Se  Se14  1  0.78382400  0.75000000  0.40678300  1
  Se  Se15  1  0.21617600  0.25000000  0.59321700  1
loop_
_geom_bond_atom_site_label_1
_geom_bond_atom_site_label_2
_geom_bond_distance
_geom_bond_site_symmetry_2
La0 Se13 2.996855 1_544
La0 Se12 2.996855 1_555
La0 Se9 2.998838 1_554
La0 Se8 2.998838 1_545
La0 Se0 3.052300 1_555
La0 Se1 3.052300 1_544
La1 Se15 2.996855 1_555
La1 Se14 2.996855 1_445
La1 Se10 2.998838 1_455
La1 Se11 2.998838 1_545
La1 Se3 3.052300 1_455
La1 Se2 3.052300 1_545
La2 Se15 2.996855 1_555
La2 Se14 2.996855 1_455
La2 Se10 2.998838 1_455
La2 Se11 2.998838 1_555
La2 Se4 3.052300 1_455
La2 Se5 3.052300 1_555
La3 Se13 2.996855 1_554
La3 Se12 2.996855 1_555
La3 Se9 2.998838 1_554
La3 Se8 2.998838 1_555
La3 Se7 3.052300 1_555
La3 Se6 3.052300 1_554
La4 Se8 2.984832 1_555
La4 Se14 3.012750 1_455
La4 Se2 3.059415 1_555
La4 Se5 3.059415 1_555
La4 Se0 3.074084 1_465
La4 Se7 3.074084 1_455
La5 Se9 2.984832 1_555
La5 Se15 3.012750 1_655
La5 Se4 3.059415 1_555
La5 Se3 3.059415 1_555
La5 Se6 3.074084 1_655
La5 Se1 3.074084 1_645
La6 Se10 2.984832 1_555
La6 Se12 3.012750 1_555
La6 Se7 3.059415 1_555
La6 Se0 3.059415 1_555
La6 Se5 3.074084 1_555
La6 Se2 3.074084 1_545
La7 Se11 2.984832 1_555
La7 Se13 3.012750 1_555
La7 Se1 3.059415 1_555
La7 Se6 3.059415 1_555
La7 Se3 3.074084 1_565
La7 Se4 3.074084 1_555
Mg0 Se12 2.549333 1_655
Mg0 Se7 2.604214 1_555
Mg0 Se0 2.604214 1_555
Mg0 Se9 2.620550 1_554
Mg1 Se13 2.549333 1_455
Mg1 Se1 2.604214 1_555
Mg1 Se6 2.604214 1_555
Mg1 Se8 2.620550 1_556
Mg2 Se14 2.549333 1_555
Mg2 Se2 2.604214 1_555
Mg2 Se5 2.604214 1_555
Mg2 Se11 2.620550 1_555
Mg3 Se15 2.549333 1_555
Mg3 Se4 2.604214 1_555
Mg3 Se3 2.604214 1_555
Mg3 Se10 2.620550 1_555
