# generated using pymatgen
data_Yb(HoSe2)2
_symmetry_space_group_name_H-M   'P 1'
_cell_length_a   4.02628107
_cell_length_b   6.91079489
_cell_length_c   6.87381789
_cell_angle_alpha   71.45555732
_cell_angle_beta   90.00000000
_cell_angle_gamma   90.00000000
_symmetry_Int_Tables_number   1
_chemical_formula_structural   Yb(HoSe2)2
_chemical_formula_sum   'Yb1 Ho2 Se4'
_cell_volume   181.33174378
_cell_formula_units_Z   1
loop_
 _symmetry_equiv_pos_site_id
 _symmetry_equiv_pos_as_xyz
  1  'x, y, z'
loop_
 _atom_site_type_symbol
 _atom_site_label
 _atom_site_symmetry_multiplicity
 _atom_site_fract_x
 _atom_site_fract_y
 _atom_site_fract_z
 _atom_site_occupancy
  Yb  Yb0  1  0.00000000  0.50000000  0.50000000  1
  Ho  Ho0  1  0.00000000  0.00000000  0.00000000  1
  Ho  Ho1  1  0.50000000  0.50000000  0.00000000  1
  Se  Se0  1  0.50000000  0.75282859  0.25870246  1
  Se  Se1  1  0.00000000  0.25380479  0.24970136  1
  Se  Se2  1  0.50000000  0.24717141  0.74129754  1
  Se  Se3  1  0.00000000  0.74619521  0.75029864  1
loop_
_geom_bond_atom_site_label_1
_geom_bond_atom_site_label_2
_geom_bond_distance
_geom_bond_site_symmetry_2
Ho0 Se1 2.817354 1_555
Ho0 Se3 2.817354 1_544
Ho0 Se0 2.863676 1_445
Ho0 Se0 2.863676 1_545
Ho0 Se2 2.863676 1_454
Ho0 Se2 2.863676 1_554
Ho1 Se1 2.834785 1_555
Ho1 Se1 2.834785 1_655
Ho1 Se3 2.834785 1_654
Ho1 Se3 2.834785 1_554
Ho1 Se0 2.862076 1_555
Ho1 Se2 2.862076 1_554
Se0 Yb0 2.830775 1_655
Se0 Yb0 2.830775 1_555
Se1 Yb0 2.777932 1_555
Se2 Yb0 2.830775 1_655
Se2 Yb0 2.830775 1_555
Se3 Yb0 2.777932 1_555
