# generated using pymatgen
data_Li7Mn2(CoO4)3
_symmetry_space_group_name_H-M   'P 1'
_cell_length_a   3.02163600
_cell_length_b   7.80980396
_cell_length_c   10.09199303
_cell_angle_alpha   111.56506936
_cell_angle_beta   91.60548088
_cell_angle_gamma   97.71113565
_symmetry_Int_Tables_number   1
_chemical_formula_structural   Li7Mn2(CoO4)3
_chemical_formula_sum   'Li7 Mn2 Co3 O12'
_cell_volume   218.70709397
_cell_formula_units_Z   1
loop_
 _symmetry_equiv_pos_site_id
 _symmetry_equiv_pos_as_xyz
  1  'x, y, z'
loop_
 _atom_site_type_symbol
 _atom_site_label
 _atom_site_symmetry_multiplicity
 _atom_site_fract_x
 _atom_site_fract_y
 _atom_site_fract_z
 _atom_site_occupancy
  Li  Li0  1  0.16473600  0.33231000  0.91265100  1
  Li  Li1  1  0.83451600  0.66554300  0.57981800  1
  Li  Li2  1  0.49631900  0.99798300  0.25693900  1
  Li  Li3  1  0.83682800  0.66769700  0.08584100  1
  Li  Li4  1  0.50254000  0.00170700  0.74318200  1
  Li  Li5  1  0.16454400  0.33534400  0.42191200  1
  Li  Li6  1  0.00047500  0.00101500  0.50023100  1
  Mn  Mn0  1  0.99157200  0.99763300  0.99843900  1
  Mn  Mn1  1  0.67146600  0.33818700  0.17069500  1
  Co  Co0  1  0.65928500  0.31812900  0.66116800  1
  Co  Co1  1  0.34919300  0.68362200  0.34102600  1
  Co  Co2  1  0.32555300  0.66065300  0.82764900  1
  O  O0  1  0.61415300  0.16996300  0.96939600  1
  O  O1  1  0.27850100  0.49660700  0.63548800  1
  O  O2  1  0.93971400  0.82182300  0.29633400  1
  O  O3  1  0.28262800  0.50880400  0.14268700  1
  O  O4  1  0.89847900  0.83109900  0.79787600  1
  O  O5  1  0.59736900  0.18730600  0.47849000  1
  O  O6  1  0.75915100  0.49256000  0.85691800  1
  O  O7  1  0.40352700  0.81539000  0.52292500  1
  O  O8  1  0.05195000  0.16510900  0.20182300  1
  O  O9  1  0.37618000  0.82579600  0.02763700  1
  O  O10  1  0.07094600  0.17884900  0.70390200  1
  O  O11  1  0.73037500  0.50687400  0.36697000  1
loop_
_geom_bond_atom_site_label_1
_geom_bond_atom_site_label_2
_geom_bond_distance
_geom_bond_site_symmetry_2
Li0 O10 1.993539 1_555
Li0 O6 2.067615 1_455
Li0 O0 2.173561 1_455
Li0 O0 2.175280 1_555
Li0 O3 2.210399 1_556
Li0 O6 2.253775 1_555
Li1 O11 2.037026 1_555
Li1 O7 2.063058 1_555
Li1 O4 2.090304 1_555
Li1 O7 2.159780 1_655
Li1 O1 2.198588 1_655
Li1 O1 2.209512 1_555
Li2 O5 2.165404 1_565
Li2 O2 2.167506 1_455
Li2 O2 2.170879 1_555
Li2 O8 2.185875 1_565
Li2 O9 2.197628 1_555
Li2 O8 2.197660 1_665
Li3 O2 2.010233 1_555
Li3 O9 2.138310 1_655
Li3 O3 2.147592 1_655
Li3 O3 2.166280 1_555
Li3 O9 2.180719 1_555
Li3 O6 2.196333 1_554
Li4 O4 2.107786 1_545
Li4 O7 2.148494 1_545
Li4 O10 2.151775 1_555
Li4 O0 2.164480 1_555
Li4 O10 2.196493 1_655
Li4 O4 2.314304 1_445
Li5 O1 2.048662 1_555
Li5 O5 2.054837 1_555
Li5 O8 2.117131 1_555
Li5 O5 2.146669 1_455
Li5 O11 2.190888 1_455
Li5 O11 2.238239 1_555
Li6 O10 1.999169 1_555
Li6 O2 2.004842 1_445
Li6 O7 2.083155 1_545
Li6 O5 2.084163 1_455
Li6 O5 2.229457 1_555
Li6 O7 2.230047 1_445
Mn0 O4 1.949948 1_555
Mn0 O0 1.970017 1_565
Mn0 O8 1.974449 1_666
Mn0 O9 1.982033 1_656
Mn0 O9 2.235455 1_556
Mn0 O0 2.253366 1_665
Mn1 O11 1.920899 1_555
Mn1 O0 1.959666 1_554
Mn1 O3 1.978449 1_555
Mn1 O8 1.989100 1_655
Mn1 O3 2.216194 1_655
Mn1 O8 2.257447 1_555
Co0 O5 1.738505 1_555
Co0 O10 1.895877 1_655
Co0 O6 1.930655 1_555
Co0 O1 2.003285 1_555
Co0 O10 2.097250 1_555
Co0 O1 2.259141 1_655
Co1 O7 1.733466 1_555
Co1 O2 1.893208 1_455
Co1 O3 1.950856 1_555
Co1 O11 1.994001 1_555
Co1 O2 2.106743 1_555
Co1 O11 2.251832 1_455
Co2 O1 1.879275 1_555
Co2 O9 1.943316 1_556
Co2 O6 2.062067 1_555
Co2 O4 2.064174 1_455
Co2 O6 2.109543 1_455
Co2 O4 2.136342 1_555
