# generated using pymatgen
data_Li9Mn7O16
_symmetry_space_group_name_H-M   'P 1'
_cell_length_a   3.02123000
_cell_length_b   6.50296103
_cell_length_c   15.72148632
_cell_angle_alpha   87.68139610
_cell_angle_beta   85.12212558
_cell_angle_gamma   76.74245269
_symmetry_Int_Tables_number   1
_chemical_formula_structural   Li9Mn7O16
_chemical_formula_sum   'Li9 Mn7 O16'
_cell_volume   299.48837179
_cell_formula_units_Z   1
loop_
 _symmetry_equiv_pos_site_id
 _symmetry_equiv_pos_as_xyz
  1  'x, y, z'
loop_
 _atom_site_type_symbol
 _atom_site_label
 _atom_site_symmetry_multiplicity
 _atom_site_fract_x
 _atom_site_fract_y
 _atom_site_fract_z
 _atom_site_occupancy
  Li  Li0  1  0.55050200  0.87906400  0.68485600  1
  Li  Li1  1  0.81246600  0.37487800  0.43694000  1
  Li  Li2  1  0.03972200  0.88069100  0.17903500  1
  Li  Li3  1  0.18753400  0.62512200  0.56306000  1
  Li  Li4  1  0.44949800  0.12093600  0.31514400  1
  Li  Li5  1  0.70082300  0.64137600  0.06581700  1
  Li  Li6  1  0.29917700  0.35862400  0.93418300  1
  Li  Li7  1  0.96027800  0.11930900  0.82096500  1
  Li  Li8  1  0.00000000  0.00000000  0.00000000  1
  Mn  Mn0  1  0.62909400  0.75745000  0.88036000  1
  Mn  Mn1  1  0.37090600  0.24255000  0.11964000  1
  Mn  Mn2  1  0.87869300  0.25205100  0.62576500  1
  Mn  Mn3  1  0.12130700  0.74794900  0.37423500  1
  Mn  Mn4  1  0.50000000  0.00000000  0.50000000  1
  Mn  Mn5  1  0.73125300  0.50359300  0.24624100  1
  Mn  Mn6  1  0.26874700  0.49640700  0.75375900  1
  O  O0  1  0.14056000  0.79181100  0.79324500  1
  O  O1  1  0.31963900  0.29809400  0.53183000  1
  O  O2  1  0.56671100  0.79894000  0.28375300  1
  O  O3  1  0.70114300  0.55091200  0.65969700  1
  O  O4  1  0.94370300  0.04837300  0.40642400  1
  O  O5  1  0.18627400  0.54797900  0.15682100  1
  O  O6  1  0.86935100  0.30643200  0.04406700  1
  O  O7  1  0.47558000  0.04024000  0.90208900  1
  O  O8  1  0.05629700  0.95162700  0.59357600  1
  O  O9  1  0.29885700  0.44908800  0.34030300  1
  O  O10  1  0.52442000  0.95976000  0.09791100  1
  O  O11  1  0.68036100  0.70190600  0.46817000  1
  O  O12  1  0.85944000  0.20818900  0.20675500  1
  O  O13  1  0.13064900  0.69356800  0.95593300  1
  O  O14  1  0.81372600  0.45202100  0.84317900  1
  O  O15  1  0.43328900  0.20106000  0.71624700  1
loop_
_geom_bond_atom_site_label_1
_geom_bond_atom_site_label_2
_geom_bond_distance
_geom_bond_site_symmetry_2
Li0 O15 2.113595 1_565
Li0 O8 2.120820 1_555
Li0 O3 2.123581 1_555
Li0 O8 2.126079 1_655
Li0 O0 2.155181 1_555
Li0 O0 2.525502 1_655
Li1 O4 2.135301 1_555
Li1 O11 2.141228 1_555
Li1 O9 2.141676 1_655
Li1 O1 2.143537 1_555
Li1 O1 2.190955 1_655
Li1 O9 2.224209 1_555
Li2 O10 2.002521 1_555
Li2 O10 2.057239 1_455
Li2 O12 2.127188 1_465
Li2 O5 2.143523 1_555
Li2 O2 2.216480 1_455
Li2 O2 2.348339 1_555
Li3 O8 2.135301 1_555
Li3 O1 2.141228 1_555
Li3 O3 2.141676 1_455
Li3 O11 2.143537 1_555
Li3 O11 2.190955 1_455
Li3 O3 2.224209 1_555
Li4 O2 2.113595 1_545
Li4 O4 2.120820 1_555
Li4 O9 2.123581 1_555
Li4 O4 2.126079 1_455
Li4 O12 2.155181 1_555
Li4 O12 2.525502 1_455
Li5 O10 2.087590 1_555
Li5 O5 2.108296 1_655
Li5 O13 2.135216 1_654
Li5 O6 2.154624 1_555
Li5 O5 2.194772 1_555
Li5 O13 2.501504 1_554
Li6 O7 2.087590 1_555
Li6 O14 2.108296 1_455
Li6 O6 2.135216 1_456
Li6 O13 2.154624 1_555
Li6 O14 2.194772 1_555
Li6 O6 2.501504 1_556
Li7 O7 2.002521 1_555
Li7 O7 2.057239 1_655
Li7 O0 2.127188 1_645
Li7 O14 2.143523 1_555
Li7 O15 2.216480 1_655
Li7 O15 2.348339 1_555
Li8 O7 2.065469 1_554
Li8 O10 2.065469 1_445
Li8 O6 2.076324 1_455
Li8 O13 2.076324 1_544
Li8 O7 2.267213 1_454
Li8 O10 2.267213 1_545
Mn0 O7 1.829294 1_565
Mn0 O13 1.948000 1_555
Mn0 O13 1.964153 1_655
Mn0 O0 2.021677 1_655
Mn0 O14 2.031782 1_555
Mn0 O0 2.066862 1_555
Mn1 O10 1.829294 1_545
Mn1 O6 1.948000 1_555
Mn1 O6 1.964153 1_455
Mn1 O12 2.021677 1_455
Mn1 O5 2.031782 1_555
Mn1 O12 2.066862 1_555
Mn2 O15 1.945576 1_555
Mn2 O1 1.964160 1_655
Mn2 O3 1.976489 1_555
Mn2 O8 1.978321 1_645
Mn2 O15 2.247966 1_655
Mn2 O1 2.297798 1_555
Mn3 O2 1.945576 1_555
Mn3 O11 1.964160 1_455
Mn3 O9 1.976489 1_555
Mn3 O4 1.978321 1_465
Mn3 O2 2.247966 1_455
Mn3 O11 2.297798 1_555
Mn4 O11 1.962838 1_545
Mn4 O1 1.962838 1_555
Mn4 O8 1.969985 1_545
Mn4 O4 1.969985 1_555
Mn4 O8 2.286606 1_645
Mn4 O4 2.286606 1_455
Mn5 O5 1.941646 1_655
Mn5 O9 1.964812 1_555
Mn5 O2 1.971704 1_555
Mn5 O12 1.984937 1_555
Mn5 O5 2.216631 1_555
Mn5 O9 2.315879 1_655
Mn6 O14 1.941646 1_455
Mn6 O3 1.964812 1_555
Mn6 O15 1.971704 1_555
Mn6 O0 1.984937 1_555
Mn6 O14 2.216631 1_555
Mn6 O3 2.315879 1_455
