# generated using pymatgen
data_Ca2B3H4ClO8
_symmetry_space_group_name_H-M   'P 1'
_cell_length_a   7.22859361
_cell_length_b   7.93274174
_cell_length_c   12.55627139
_cell_angle_alpha   86.44647157
_cell_angle_beta   90.00000000
_cell_angle_gamma   90.00000000
_symmetry_Int_Tables_number   1
_chemical_formula_structural   Ca2B3H4ClO8
_chemical_formula_sum   'Ca8 B12 H16 Cl4 O32'
_cell_volume   718.62448330
_cell_formula_units_Z   4
loop_
 _symmetry_equiv_pos_site_id
 _symmetry_equiv_pos_as_xyz
  1  'x, y, z'
loop_
 _atom_site_type_symbol
 _atom_site_label
 _atom_site_symmetry_multiplicity
 _atom_site_fract_x
 _atom_site_fract_y
 _atom_site_fract_z
 _atom_site_occupancy
  Ca  Ca0  1  0.34310849  0.09142890  0.73739635  1
  Ca  Ca1  1  0.84310849  0.90857110  0.76260365  1
  Ca  Ca2  1  0.65689151  0.90857110  0.26260365  1
  Ca  Ca3  1  0.15689151  0.09142890  0.23739635  1
  Ca  Ca4  1  0.14362290  0.51810528  0.79906426  1
  Ca  Ca5  1  0.64362290  0.48189472  0.70093574  1
  Ca  Ca6  1  0.85637710  0.48189472  0.20093574  1
  Ca  Ca7  1  0.35637710  0.51810528  0.29906426  1
  B  B0  1  0.49963633  0.79778546  0.89001619  1
  B  B1  1  0.99963633  0.20221454  0.60998381  1
  B  B2  1  0.50036367  0.20221454  0.10998381  1
  B  B3  1  0.00036367  0.79778546  0.39001619  1
  B  B4  1  0.27358150  0.39984491  0.58580533  1
  B  B5  1  0.77358150  0.60015509  0.91419467  1
  B  B6  1  0.72641850  0.60015509  0.41419467  1
  B  B7  1  0.22641850  0.39984491  0.08580533  1
  B  B8  1  0.41399744  0.32989914  0.92845909  1
  B  B9  1  0.91399744  0.67010086  0.57154091  1
  B  B10  1  0.58600256  0.67010086  0.07154091  1
  B  B11  1  0.08600256  0.32989914  0.42845909  1
  H  H0  1  0.45779132  0.23051962  0.52978794  1
  H  H1  1  0.95779132  0.76948038  0.97021206  1
  H  H2  1  0.54220868  0.76948038  0.47021206  1
  H  H3  1  0.04220868  0.23051962  0.02978794  1
  H  H4  1  0.07060878  0.94782210  0.58113320  1
  H  H5  1  0.57060878  0.05217790  0.91886680  1
  H  H6  1  0.92939122  0.05217790  0.41886680  1
  H  H7  1  0.42939122  0.94782210  0.08113320  1
  H  H8  1  0.22354132  0.82912436  0.88283883  1
  H  H9  1  0.72354132  0.17087564  0.61716117  1
  H  H10  1  0.77645868  0.17087564  0.11716117  1
  H  H11  1  0.27645868  0.82912436  0.38283883  1
  H  H12  1  0.29268208  0.65775677  0.59351291  1
  H  H13  1  0.79268208  0.34224323  0.90648709  1
  H  H14  1  0.70731792  0.34224323  0.40648709  1
  H  H15  1  0.20731792  0.65775677  0.09351291  1
  Cl  Cl0  1  0.06492558  0.10356850  0.88632100  1
  Cl  Cl1  1  0.56492558  0.89643150  0.61367900  1
  Cl  Cl2  1  0.93507442  0.89643150  0.11367900  1
  Cl  Cl3  1  0.43507442  0.10356850  0.38632100  1
  O  O0  1  0.44260873  0.28930818  0.59533770  1
  O  O1  1  0.94260973  0.71069182  0.90466230  1
  O  O2  1  0.55739027  0.71069182  0.40466230  1
  O  O3  1  0.05739027  0.28930818  0.09533770  1
  O  O4  1  0.42751975  0.33831420  0.82122641  1
  O  O5  1  0.92751975  0.66168580  0.67877359  1
  O  O6  1  0.57248025  0.66168580  0.17877359  1
  O  O7  1  0.07248025  0.33831420  0.32122641  1
  O  O8  1  0.33059070  0.55677052  0.63471497  1
  O  O9  1  0.83059070  0.44322948  0.86528503  1
  O  O10  1  0.66940930  0.44322948  0.36528503  1
  O  O11  1  0.16940930  0.55677052  0.13471497  1
  O  O12  1  0.31659049  0.78433088  0.83657277  1
  O  O13  1  0.81659049  0.21566912  0.66342723  1
  O  O14  1  0.68340951  0.21566912  0.16342723  1
  O  O15  1  0.18340951  0.78433088  0.33657277  1
  O  O16  1  0.28024528  0.42855841  0.97497294  1
  O  O17  1  0.78024528  0.57144159  0.52502706  1
  O  O18  1  0.71975472  0.57144159  0.02502706  1
  O  O19  1  0.21975472  0.42855841  0.47497294  1
  O  O20  1  0.12654210  0.32186073  0.65282154  1
  O  O21  1  0.62654210  0.67813927  0.84717846  1
  O  O22  1  0.87345790  0.67813927  0.34717846  1
  O  O23  1  0.37345790  0.32186073  0.15282154  1
  O  O24  1  0.07362918  0.02674708  0.63865887  1
  O  O25  1  0.57362918  0.97325292  0.86134113  1
  O  O26  1  0.92637082  0.97325292  0.36134113  1
  O  O27  1  0.42637082  0.02674708  0.13865887  1
  O  O28  1  0.47687118  0.77713361  0.00640732  1
  O  O29  1  0.97687118  0.22286639  0.49359268  1
  O  O30  1  0.52312882  0.22286639  0.99359268  1
  O  O31  1  0.02312882  0.77713361  0.50640732  1
loop_
_geom_bond_atom_site_label_1
_geom_bond_atom_site_label_2
_geom_bond_distance
_geom_bond_site_symmetry_2
Ca0 O4 2.360391 1_555
Ca0 O24 2.381955 1_555
Ca0 O0 2.411627 1_555
Ca0 O25 2.428309 1_545
Ca0 O20 2.584417 1_555
Ca0 O12 2.673228 1_545
Ca0 Cl0 2.751703 1_555
Ca0 Cl1 2.770339 1_545
Ca1 O5 2.360391 1_555
Ca1 O25 2.381955 1_555
Ca1 O1 2.411629 1_555
Ca1 O24 2.428309 1_665
Ca1 O21 2.584417 1_555
Ca1 O13 2.673228 1_565
Ca1 Cl1 2.751703 1_555
Ca1 Cl0 2.770339 1_665
Ca2 O6 2.360391 1_555
Ca2 O26 2.381955 1_555
Ca2 O2 2.411629 1_555
Ca2 O27 2.428309 1_565
Ca2 O22 2.584417 1_555
Ca2 O14 2.673228 1_565
Ca2 Cl2 2.751703 1_555
Ca2 Cl3 2.770339 1_565
Ca3 O7 2.360391 1_555
Ca3 O27 2.381955 1_555
Ca3 O3 2.411629 1_555
Ca3 O26 2.428309 1_445
Ca3 O23 2.584417 1_555
Ca3 O15 2.673228 1_545
Ca3 Cl3 2.751703 1_555
Ca3 Cl2 2.770339 1_445
Ca4 O5 2.409476 1_455
Ca4 O8 2.469962 1_555
Ca4 O9 2.470452 1_455
Ca4 O16 2.482749 1_555
Ca4 O20 2.482934 1_555
Ca4 O4 2.504757 1_555
Ca4 O12 2.523590 1_555
Ca4 O1 2.540567 1_455
Ca5 O4 2.409476 1_555
Ca5 O9 2.469962 1_555
Ca5 O8 2.470452 1_555
Ca5 O17 2.482749 1_555
Ca5 O21 2.482934 1_555
Ca5 O5 2.504757 1_555
Ca5 O13 2.523590 1_555
Ca5 O0 2.540571 1_555
Ca6 O7 2.409476 1_655
Ca6 O10 2.469962 1_555
Ca6 O11 2.470452 1_655
Ca6 O18 2.482749 1_555
Ca6 O22 2.482934 1_555
Ca6 O6 2.504757 1_555
Ca6 O14 2.523590 1_555
Ca6 O3 2.540567 1_655
Ca7 O6 2.409476 1_555
Ca7 O11 2.469962 1_555
Ca7 O10 2.470452 1_555
Ca7 O19 2.482749 1_555
Ca7 O23 2.482934 1_555
Ca7 O7 2.504757 1_555
Ca7 O15 2.523590 1_555
Ca7 O2 2.540567 1_555
B0 O21 1.447400 1_555
B0 O28 1.469708 1_556
B0 O12 1.490416 1_555
B0 O25 1.513632 1_555
B1 O20 1.447400 1_655
B1 O29 1.469708 1_555
B1 O13 1.490416 1_555
B1 O24 1.513632 1_655
B2 O23 1.447400 1_555
B2 O30 1.469708 1_554
B2 O14 1.490416 1_555
B2 O27 1.513632 1_555
B3 O22 1.447400 1_455
B3 O31 1.469708 1_555
B3 O15 1.490416 1_555
B3 O26 1.513632 1_455
B4 O19 1.449361 1_555
B4 O20 1.468326 1_555
B4 O8 1.480335 1_555
B4 O0 1.504349 1_555
B5 O18 1.449361 1_556
B5 O21 1.468326 1_555
B5 O9 1.480335 1_555
B5 O1 1.504354 1_555
B6 O17 1.449361 1_555
B6 O22 1.468326 1_555
B6 O10 1.480335 1_555
B6 O2 1.504354 1_555
B7 O16 1.449361 1_554
B7 O23 1.468326 1_555
B7 O11 1.480335 1_555
B7 O3 1.504354 1_555
B8 O4 1.347508 1_555
B8 O30 1.387802 1_555
B8 O16 1.394657 1_555
B9 O5 1.347508 1_555
B9 O31 1.387802 1_655
B9 O17 1.394657 1_555
B10 O6 1.347508 1_555
B10 O28 1.387802 1_555
B10 O18 1.394657 1_555
B11 O7 1.347508 1_555
B11 O29 1.387802 1_455
B11 O19 1.394657 1_555
H0 O0 0.977006 1_555
H1 O1 0.977005 1_555
H2 O2 0.977005 1_555
H3 O3 0.977005 1_555
H4 O24 0.985015 1_565
H5 O25 0.985015 1_545
H6 O26 0.985015 1_545
H7 O27 0.985015 1_565
H8 O12 0.970433 1_555
H9 O13 0.970433 1_555
H10 O14 0.970433 1_555
H11 O15 0.970433 1_555
H12 O8 0.965980 1_555
H13 O9 0.965980 1_555
H14 O10 0.965980 1_555
H15 O11 0.965980 1_555
Cl0 H3 2.123939 1_556
Cl1 H2 2.123939 1_555
Cl2 H1 2.123939 1_554
Cl3 H0 2.123939 1_555
