# generated using pymatgen
data_CsMg14Nb
_symmetry_space_group_name_H-M   'P 1'
_cell_length_a   6.47671838
_cell_length_b   6.58967345
_cell_length_c   10.49006186
_cell_angle_alpha   90.00000000
_cell_angle_beta   90.00000000
_cell_angle_gamma   120.57861845
_symmetry_Int_Tables_number   1
_chemical_formula_structural   CsMg14Nb
_chemical_formula_sum   'Cs1 Mg14 Nb1'
_cell_volume   385.44797796
_cell_formula_units_Z   1
loop_
 _symmetry_equiv_pos_site_id
 _symmetry_equiv_pos_as_xyz
  1  'x, y, z'
loop_
 _atom_site_type_symbol
 _atom_site_label
 _atom_site_symmetry_multiplicity
 _atom_site_fract_x
 _atom_site_fract_y
 _atom_site_fract_z
 _atom_site_occupancy
  Cs  Cs0  1  0.16064872  0.33032386  0.12500000  1
  Mg  Mg0  1  0.17038800  0.33519350  0.62500000  1
  Mg  Mg1  1  0.16468007  0.83233954  0.62500000  1
  Mg  Mg2  1  0.66431119  0.33174102  0.12500000  1
  Mg  Mg3  1  0.66639327  0.33809128  0.62500000  1
  Mg  Mg4  1  0.66431119  0.83256917  0.12500000  1
  Mg  Mg5  1  0.66639327  0.82830099  0.62500000  1
  Mg  Mg6  1  0.33367675  0.15022222  0.38396873  1
  Mg  Mg7  1  0.33367675  0.15022222  0.86603127  1
  Mg  Mg8  1  0.33367675  0.68345553  0.38396873  1
  Mg  Mg9  1  0.33367675  0.68345553  0.86603127  1
  Mg  Mg10  1  0.81820313  0.15910207  0.39431734  1
  Mg  Mg11  1  0.81820313  0.15910207  0.85568266  1
  Mg  Mg12  1  0.84278527  0.67139314  0.36641897  1
  Mg  Mg13  1  0.84278527  0.67139314  0.88358103  1
  Nb  Nb0  1  0.18619046  0.84309473  0.12500000  1
loop_
_geom_bond_atom_site_label_1
_geom_bond_atom_site_label_2
_geom_bond_distance
_geom_bond_site_symmetry_2
Cs0 Mg4 3.219399 1_445
Cs0 Mg2 3.219399 1_455
Cs0 Mg4 3.257339 1_555
Cs0 Mg2 3.257339 1_555
Cs0 Nb0 3.297913 1_555
Cs0 Nb0 3.297913 1_545
Cs0 Mg7 3.376017 1_554
Cs0 Mg6 3.376017 1_555
Cs0 Mg9 3.376024 1_554
Cs0 Mg8 3.376024 1_555
Cs0 Mg11 3.409930 1_454
Cs0 Mg10 3.409930 1_455
Mg0 Mg10 3.116450 1_455
Mg0 Mg11 3.116450 1_455
Mg0 Mg5 3.202814 1_555
Mg0 Mg3 3.202814 1_555
Mg0 Mg6 3.210719 1_555
Mg0 Mg7 3.210719 1_555
Mg0 Mg8 3.210726 1_555
Mg0 Mg9 3.210726 1_555
Mg0 Mg5 3.273987 1_445
Mg0 Mg3 3.273987 1_455
Mg0 Mg1 3.294990 1_545
Mg0 Mg1 3.294990 1_555
Mg1 Mg9 3.105822 1_555
Mg1 Mg8 3.105822 1_555
Mg1 Mg6 3.105829 1_565
Mg1 Mg7 3.105829 1_565
Mg1 Mg3 3.213806 1_455
Mg1 Mg5 3.213807 1_455
Mg1 Mg12 3.252607 1_455
Mg1 Mg13 3.252607 1_455
Mg1 Mg3 3.263074 1_565
Mg1 Mg5 3.263074 1_555
Mg2 Nb0 3.132507 1_545
Mg2 Mg6 3.284851 1_555
Mg2 Mg7 3.284851 1_554
Mg2 Mg4 3.289379 1_545
Mg2 Mg4 3.300294 1_555
Mg2 Nb0 3.345313 1_655
Mg3 Mg6 3.139260 1_555
Mg3 Mg7 3.139260 1_555
Mg3 Mg5 3.230322 1_555
Mg3 Mg5 3.359352 1_545
Mg4 Nb0 3.132507 1_555
Mg4 Mg8 3.284851 1_555
Mg4 Mg9 3.284851 1_554
Mg4 Nb0 3.345313 1_655
Mg5 Mg8 3.139260 1_555
Mg5 Mg9 3.139260 1_555
Mg6 Mg8 3.075840 1_545
Mg6 Nb0 3.228226 1_545
Mg6 Mg8 3.513833 1_555
Mg7 Mg9 3.075840 1_545
Mg7 Nb0 3.228226 1_546
Mg7 Mg9 3.513833 1_555
Mg8 Nb0 3.228219 1_555
Mg9 Nb0 3.228219 1_556
Mg10 Mg3 3.064904 1_555
Mg10 Mg5 3.064911 1_545
Mg10 Mg8 3.110676 1_545
Mg10 Mg6 3.110676 1_555
Mg10 Mg12 3.310647 1_555
Mg10 Mg12 3.310647 1_545
Mg10 Mg8 3.370470 1_655
Mg10 Mg6 3.370471 1_655
Mg10 Mg2 3.379768 1_555
Mg10 Mg4 3.379774 1_545
Mg11 Mg3 3.064904 1_555
Mg11 Mg5 3.064911 1_545
Mg11 Mg9 3.110676 1_545
Mg11 Mg7 3.110676 1_555
Mg11 Mg13 3.310647 1_555
Mg11 Mg13 3.310647 1_545
Mg11 Mg9 3.370470 1_655
Mg11 Mg7 3.370471 1_655
Mg11 Mg2 3.379768 1_556
Mg11 Mg4 3.379774 1_546
Mg12 Mg6 3.145067 1_665
Mg12 Mg8 3.145068 1_655
Mg12 Nb0 3.174923 1_655
Mg12 Mg4 3.182278 1_555
Mg12 Mg2 3.182284 1_555
Mg12 Mg5 3.306652 1_555
Mg12 Mg3 3.306658 1_555
Mg12 Mg6 3.343563 1_555
Mg12 Mg8 3.343563 1_555
Mg13 Mg7 3.145067 1_665
Mg13 Mg9 3.145068 1_655
Mg13 Nb0 3.174923 1_656
Mg13 Mg4 3.182278 1_556
Mg13 Mg2 3.182284 1_556
Mg13 Mg5 3.306652 1_555
Mg13 Mg3 3.306658 1_555
Mg13 Mg7 3.343563 1_555
Mg13 Mg9 3.343563 1_555
