# generated using pymatgen
data_Mg6NbV
_symmetry_space_group_name_H-M   'P 1'
_cell_length_a   5.00661000
_cell_length_b   6.01864900
_cell_length_c   10.87911600
_cell_angle_alpha   90.00000000
_cell_angle_beta   90.00000000
_cell_angle_gamma   90.00000000
_symmetry_Int_Tables_number   1
_chemical_formula_structural   Mg6NbV
_chemical_formula_sum   'Mg12 Nb2 V2'
_cell_volume   327.82070998
_cell_formula_units_Z   2
loop_
 _symmetry_equiv_pos_site_id
 _symmetry_equiv_pos_as_xyz
  1  'x, y, z'
loop_
 _atom_site_type_symbol
 _atom_site_label
 _atom_site_symmetry_multiplicity
 _atom_site_fract_x
 _atom_site_fract_y
 _atom_site_fract_z
 _atom_site_occupancy
  Mg  Mg0  1  0.50000000  0.25186800  0.41880600  1
  Mg  Mg1  1  0.50000000  0.74813200  0.41880600  1
  Mg  Mg2  1  0.00000000  0.74851100  0.08884700  1
  Mg  Mg3  1  0.00000000  0.25148900  0.08884700  1
  Mg  Mg4  1  0.00000000  0.00000000  0.32488700  1
  Mg  Mg5  1  0.00000000  0.50000000  0.32428500  1
  Mg  Mg6  1  0.50000000  0.75186800  0.91880600  1
  Mg  Mg7  1  0.50000000  0.24813200  0.91880600  1
  Mg  Mg8  1  0.00000000  0.24851100  0.58884700  1
  Mg  Mg9  1  0.00000000  0.75148900  0.58884700  1
  Mg  Mg10  1  0.00000000  0.50000000  0.82488700  1
  Mg  Mg11  1  0.00000000  0.00000000  0.82428500  1
  Nb  Nb0  1  0.50000000  0.50000000  0.16815100  1
  Nb  Nb1  1  0.50000000  0.00000000  0.66815100  1
  V  V0  1  0.50000000  0.00000000  0.16736700  1
  V  V1  1  0.50000000  0.50000000  0.66736700  1
loop_
_geom_bond_atom_site_label_1
_geom_bond_atom_site_label_2
_geom_bond_distance
_geom_bond_site_symmetry_2
Mg0 Mg1 2.986839 1_555
Mg0 Mg1 3.031810 1_545
Mg0 V1 3.089108 1_555
Mg0 Mg5 3.090995 1_555
Mg0 Mg5 3.090995 1_655
Mg0 Mg4 3.099756 1_655
Mg0 Mg4 3.099756 1_555
Mg0 Nb1 3.107484 1_555
Mg0 Nb0 3.109069 1_555
Mg0 Mg8 3.112725 1_655
Mg0 Mg8 3.112725 1_555
Mg0 V0 3.127390 1_555
Mg1 V1 3.089108 1_555
Mg1 Mg5 3.090995 1_555
Mg1 Mg5 3.090995 1_655
Mg1 Mg4 3.099756 1_665
Mg1 Mg4 3.099756 1_565
Mg1 Nb1 3.107484 1_565
Mg1 Nb0 3.109069 1_555
Mg1 Mg9 3.112725 1_555
Mg1 Mg9 3.112725 1_655
Mg1 V0 3.127390 1_565
Mg2 Mg5 2.966087 1_555
Mg2 Mg4 2.980806 1_565
Mg2 Mg3 2.991401 1_555
Mg2 Mg3 3.027248 1_565
Mg2 Nb0 3.041053 1_455
Mg2 Nb0 3.041053 1_555
Mg2 V0 3.047507 1_465
Mg2 V0 3.047507 1_565
Mg2 Mg6 3.112725 1_554
Mg2 Mg6 3.112725 1_454
Mg3 Mg5 2.966087 1_555
Mg3 Mg4 2.980806 1_555
Mg3 Nb0 3.041053 1_455
Mg3 Nb0 3.041053 1_555
Mg3 V0 3.047507 1_455
Mg3 V0 3.047507 1_555
Mg3 Mg7 3.112725 1_554
Mg3 Mg7 3.112725 1_454
Mg4 Mg5 3.009332 1_555
Mg4 Mg5 3.009332 1_545
Mg4 V0 3.033682 1_555
Mg4 V0 3.033682 1_455
Mg4 Mg8 3.237824 1_555
Mg4 Mg9 3.237824 1_545
Mg5 Nb0 3.025190 1_555
Mg5 Nb0 3.025190 1_455
Mg5 Mg8 3.251937 1_555
Mg5 Mg9 3.251937 1_555
Mg6 Mg7 2.986839 1_565
Mg6 Mg7 3.031810 1_555
Mg6 V0 3.089108 1_566
Mg6 Nb0 3.107484 1_556
Mg6 Nb1 3.109069 1_565
Mg6 V1 3.127390 1_555
Mg7 V0 3.089108 1_556
Mg7 Nb0 3.107484 1_556
Mg7 Nb1 3.109069 1_555
Mg7 V1 3.127390 1_555
Mg8 Mg9 2.991401 1_545
Mg8 Mg9 3.027248 1_555
Mg8 Nb1 3.041053 1_455
Mg8 Nb1 3.041053 1_555
Mg8 V1 3.047507 1_555
Mg8 V1 3.047507 1_455
Mg9 Nb1 3.041053 1_465
Mg9 Nb1 3.041053 1_565
Mg9 V1 3.047507 1_555
Mg9 V1 3.047507 1_455
Mg10 Mg8 2.980806 1_555
Mg10 Mg9 2.980806 1_555
Mg10 Mg11 3.009332 1_565
Mg10 Mg11 3.009332 1_555
Mg10 V1 3.033682 1_555
Mg10 V1 3.033682 1_455
Mg10 Mg6 3.099756 1_555
Mg10 Mg7 3.099756 1_455
Mg10 Mg7 3.099756 1_555
Mg10 Mg6 3.099756 1_455
Mg10 Mg3 3.237824 1_556
Mg10 Mg2 3.237824 1_556
Mg11 Mg9 2.966087 1_545
Mg11 Mg8 2.966087 1_555
Mg11 Nb1 3.025190 1_555
Mg11 Nb1 3.025190 1_455
Mg11 Mg6 3.090995 1_445
Mg11 Mg7 3.090995 1_455
Mg11 Mg6 3.090995 1_545
Mg11 Mg7 3.090995 1_555
Mg11 Mg2 3.251937 1_546
Mg11 Mg3 3.251937 1_556
Nb0 V0 3.009337 1_565
Nb0 V0 3.009337 1_555
Nb1 V1 3.009337 1_555
Nb1 V1 3.009337 1_545
