# generated using pymatgen
data_CaTiP2O7
_symmetry_space_group_name_H-M   'P 1'
_cell_length_a   6.60708000
_cell_length_b   6.67047142
_cell_length_c   6.79186374
_cell_angle_alpha   65.69434357
_cell_angle_beta   85.62819269
_cell_angle_gamma   82.60032348
_symmetry_Int_Tables_number   1
_chemical_formula_structural   CaTiP2O7
_chemical_formula_sum   'Ca2 Ti2 P4 O14'
_cell_volume   270.43999896
_cell_formula_units_Z   2
loop_
 _symmetry_equiv_pos_site_id
 _symmetry_equiv_pos_as_xyz
  1  'x, y, z'
loop_
 _atom_site_type_symbol
 _atom_site_label
 _atom_site_symmetry_multiplicity
 _atom_site_fract_x
 _atom_site_fract_y
 _atom_site_fract_z
 _atom_site_occupancy
  Ca  Ca0  1  0.85788000  0.27164100  0.17344800  1
  Ca  Ca1  1  0.14212000  0.72835900  0.82655200  1
  Ti  Ti0  1  0.64075500  0.09408000  0.79133500  1
  Ti  Ti1  1  0.35924500  0.90592000  0.20866500  1
  P  P0  1  0.13937400  0.23184300  0.74567100  1
  P  P1  1  0.86062600  0.76815700  0.25432900  1
  P  P2  1  0.62631800  0.64130500  0.67280100  1
  P  P3  1  0.37368200  0.35869500  0.32719900  1
  O  O0  1  0.77438600  0.60644200  0.48194600  1
  O  O1  1  0.22561400  0.39355800  0.51805400  1
  O  O2  1  0.97328800  0.10506300  0.71577800  1
  O  O3  1  0.02671200  0.89493700  0.28422200  1
  O  O4  1  0.58405200  0.25713900  0.42722100  1
  O  O5  1  0.41594800  0.74286100  0.57277900  1
  O  O6  1  0.37341000  0.59600500  0.15401700  1
  O  O7  1  0.62659000  0.40399500  0.84598300  1
  O  O8  1  0.93222600  0.61890400  0.13904200  1
  O  O9  1  0.06777400  0.38109600  0.86095800  1
  O  O10  1  0.68266400  0.94941900  0.14330200  1
  O  O11  1  0.31733600  0.05058100  0.85669800  1
  O  O12  1  0.27094100  0.20733800  0.25714900  1
  O  O13  1  0.72905900  0.79266200  0.74285100  1
loop_
_geom_bond_atom_site_label_1
_geom_bond_atom_site_label_2
_geom_bond_distance
_geom_bond_site_symmetry_2
Ca0 O8 2.343421 1_555
Ca0 O9 2.344616 1_654
Ca0 O4 2.384483 1_555
Ca0 O3 2.444206 1_645
Ca0 O7 2.572066 1_554
Ca0 O10 2.653536 1_545
Ca0 O12 2.773007 1_655
Ca1 O9 2.343421 1_555
Ca1 O8 2.344616 1_456
Ca1 O5 2.384483 1_555
Ca1 O2 2.444206 1_465
Ca1 O6 2.572066 1_556
Ca1 O11 2.653536 1_565
Ca1 O13 2.773007 1_455
O0 P1 1.590425 1_555
O0 P2 1.639408 1_555
O1 P0 1.590425 1_555
O1 P3 1.639408 1_555
O2 P0 1.541073 1_655
O2 Ti0 2.221364 1_555
O3 P1 1.541073 1_455
O3 Ti1 2.221364 1_555
O4 P3 1.541070 1_555
O4 Ti0 2.293726 1_555
O5 P2 1.541070 1_555
O5 Ti1 2.293726 1_555
O6 P3 1.534972 1_555
O6 Ti1 2.235325 1_555
O7 P2 1.534972 1_555
O7 Ti0 2.235325 1_555
O8 P1 1.513952 1_555
O9 P0 1.513952 1_555
O10 P1 1.559329 1_555
O10 Ti1 2.180932 1_555
O10 Ti0 2.203525 1_564
O11 P0 1.559329 1_555
O11 Ti0 2.180932 1_555
O11 Ti1 2.203525 1_546
O12 P3 1.525675 1_555
O12 Ti1 2.169085 1_545
O13 P2 1.525675 1_555
O13 Ti0 2.169085 1_565
