# generated using pymatgen
data_Nd2MnFe3Ge4
_symmetry_space_group_name_H-M   'P 1'
_cell_length_a   4.12414437
_cell_length_b   4.12414437
_cell_length_c   10.56218627
_cell_angle_alpha   90.00000000
_cell_angle_beta   90.00000000
_cell_angle_gamma   90.00000000
_symmetry_Int_Tables_number   1
_chemical_formula_structural   Nd2MnFe3Ge4
_chemical_formula_sum   'Nd2 Mn1 Fe3 Ge4'
_cell_volume   179.64765056
_cell_formula_units_Z   1
loop_
 _symmetry_equiv_pos_site_id
 _symmetry_equiv_pos_as_xyz
  1  'x, y, z'
loop_
 _atom_site_type_symbol
 _atom_site_label
 _atom_site_symmetry_multiplicity
 _atom_site_fract_x
 _atom_site_fract_y
 _atom_site_fract_z
 _atom_site_occupancy
  Nd  Nd0  1  0.00000000  0.00000000  0.99233306  1
  Nd  Nd1  1  0.50000000  0.50000000  0.50766694  1
  Mn  Mn0  1  0.00000000  0.50000000  0.25000000  1
  Fe  Fe0  1  0.50000000  0.00000000  0.75000000  1
  Fe  Fe1  1  0.50000000  0.00000000  0.25000000  1
  Fe  Fe2  1  -0.00000000  0.50000000  0.75000000  1
  Ge  Ge0  1  0.50000000  0.50000000  0.11638601  1
  Ge  Ge1  1  -0.00000000  0.00000000  0.63307954  1
  Ge  Ge2  1  -0.00000000  0.00000000  0.38361399  1
  Ge  Ge3  1  0.50000000  0.50000000  0.86692046  1
loop_
_geom_bond_atom_site_label_1
_geom_bond_atom_site_label_2
_geom_bond_distance
_geom_bond_site_symmetry_2
Mn0 Nd1 3.414505 1_455
Mn0 Nd1 3.414505 1_555
Mn0 Nd0 3.414505 1_554
Mn0 Nd0 3.414505 1_564
Fe0 Ge1 2.403582 1_655
Fe0 Ge1 2.403582 1_555
Fe0 Ge3 2.403582 1_545
Fe0 Ge3 2.403582 1_555
Fe0 Nd0 3.286872 1_655
Fe0 Nd1 3.286872 1_555
Fe0 Nd1 3.286872 1_545
Fe0 Nd0 3.286872 1_555
Fe1 Ge2 2.498757 1_555
Fe1 Ge0 2.498757 1_545
Fe1 Ge2 2.498757 1_655
Fe1 Ge0 2.498757 1_555
Fe1 Mn0 2.916210 1_655
Fe1 Mn0 2.916210 1_645
Fe1 Mn0 2.916210 1_555
Fe1 Mn0 2.916210 1_545
Fe1 Nd1 3.414505 1_555
Fe1 Nd1 3.414505 1_545
Fe1 Nd0 3.414505 1_554
Fe1 Nd0 3.414505 1_654
Fe2 Ge3 2.403582 1_455
Fe2 Ge1 2.403582 1_555
Fe2 Ge1 2.403582 1_565
Fe2 Ge3 2.403582 1_555
Fe2 Nd1 3.286872 1_555
Fe2 Nd0 3.286872 1_565
Fe2 Nd1 3.286872 1_455
Fe2 Nd0 3.286872 1_555
Ge0 Mn0 2.498757 1_655
Ge0 Mn0 2.498757 1_555
Ge0 Ge3 2.634902 1_554
Ge0 Nd0 3.197044 1_564
Ge0 Nd0 3.197044 1_554
Ge0 Nd0 3.197044 1_654
Ge0 Nd0 3.197044 1_664
Ge1 Ge2 2.634902 1_555
Ge1 Nd1 3.202957 1_555
Ge1 Nd1 3.202957 1_545
Ge1 Nd1 3.202957 1_455
Ge1 Nd1 3.202957 1_445
Ge2 Mn0 2.498757 1_545
Ge2 Mn0 2.498757 1_555
Ge2 Nd1 3.197044 1_445
Ge2 Nd1 3.197044 1_555
Ge2 Nd1 3.197044 1_545
Ge2 Nd1 3.197044 1_455
Ge3 Nd0 3.202957 1_565
Ge3 Nd0 3.202957 1_655
Ge3 Nd0 3.202957 1_665
Ge3 Nd0 3.202957 1_555
