# generated using pymatgen
data_Y2Pt2Se7
_symmetry_space_group_name_H-M   'P 1'
_cell_length_a   9.09565312
_cell_length_b   9.09565312
_cell_length_c   9.09565312
_cell_angle_alpha   60.00000000
_cell_angle_beta   60.00000000
_cell_angle_gamma   60.00000000
_symmetry_Int_Tables_number   1
_chemical_formula_structural   Y2Pt2Se7
_chemical_formula_sum   'Y4 Pt4 Se14'
_cell_volume   532.09192743
_cell_formula_units_Z   2
loop_
 _symmetry_equiv_pos_site_id
 _symmetry_equiv_pos_as_xyz
  1  'x, y, z'
loop_
 _atom_site_type_symbol
 _atom_site_label
 _atom_site_symmetry_multiplicity
 _atom_site_fract_x
 _atom_site_fract_y
 _atom_site_fract_z
 _atom_site_occupancy
  Y  Y0  1  0.50000000  0.00000000  0.50000000  1
  Y  Y1  1  0.50000000  0.50000000  0.00000000  1
  Y  Y2  1  0.00000000  0.50000000  0.50000000  1
  Y  Y3  1  0.50000000  0.50000000  0.50000000  1
  Pt  Pt0  1  0.00000000  0.00000000  0.00000000  1
  Pt  Pt1  1  0.50000000  0.00000000  0.00000000  1
  Pt  Pt2  1  0.00000000  0.00000000  0.50000000  1
  Pt  Pt3  1  0.00000000  0.50000000  0.00000000  1
  Se  Se0  1  0.66159100  0.08840900  0.08840900  1
  Se  Se1  1  0.91159100  0.33840900  0.33840900  1
  Se  Se2  1  0.08840900  0.08840900  0.66159100  1
  Se  Se3  1  0.66159100  0.66159100  0.08840900  1
  Se  Se4  1  0.37500000  0.37500000  0.37500000  1
  Se  Se5  1  0.66159100  0.08840900  0.66159100  1
  Se  Se6  1  0.08840900  0.66159100  0.08840900  1
  Se  Se7  1  0.33840900  0.91159100  0.33840900  1
  Se  Se8  1  0.91159100  0.91159100  0.33840900  1
  Se  Se9  1  0.33840900  0.33840900  0.91159100  1
  Se  Se10  1  0.62500000  0.62500000  0.62500000  1
  Se  Se11  1  0.91159100  0.33840900  0.91159100  1
  Se  Se12  1  0.08840900  0.66159100  0.66159100  1
  Se  Se13  1  0.33840900  0.91159100  0.91159100  1
loop_
_geom_bond_atom_site_label_1
_geom_bond_atom_site_label_2
_geom_bond_distance
_geom_bond_site_symmetry_2
Pt0 Se11 2.542431 1_454
Pt0 Se8 2.542431 1_445
Pt0 Se13 2.542431 1_544
Pt0 Se0 2.542431 1_455
Pt0 Se2 2.542431 1_554
Pt0 Se6 2.542431 1_545
Pt1 Se0 2.542431 1_555
Pt1 Se7 2.542431 1_545
Pt1 Se9 2.542431 1_554
Pt1 Se5 2.542431 1_554
Pt1 Se3 2.542431 1_545
Pt1 Se13 2.542431 1_544
Pt2 Se2 2.542431 1_555
Pt2 Se7 2.542431 1_545
Pt2 Se1 2.542431 1_455
Pt2 Se12 2.542431 1_545
Pt2 Se5 2.542431 1_455
Pt2 Se8 2.542431 1_445
Pt3 Se6 2.542431 1_555
Pt3 Se9 2.542431 1_554
Pt3 Se1 2.542431 1_455
Pt3 Se3 2.542431 1_455
Pt3 Se12 2.542431 1_554
Pt3 Se11 2.542431 1_454
Se0 Y0 3.080773 1_555
Se0 Y1 3.080773 1_555
Se1 Y3 3.080773 1_555
Se1 Y2 3.080773 1_655
Se2 Y2 3.080773 1_555
Se2 Y0 3.080773 1_555
Se3 Y1 3.080773 1_555
Se3 Y3 3.080773 1_555
Se4 Y1 2.784964 1_555
Se4 Y3 2.784964 1_555
Se4 Y2 2.784964 1_555
Se4 Y0 2.784964 1_555
Se5 Y0 3.080773 1_555
Se5 Y3 3.080773 1_555
Se6 Y2 3.080773 1_555
Se6 Y1 3.080773 1_555
Se7 Y3 3.080773 1_555
Se7 Y0 3.080773 1_565
Se8 Y0 3.080773 1_565
Se8 Y2 3.080773 1_655
Se9 Y3 3.080773 1_555
Se9 Y1 3.080773 1_556
Se10 Y1 2.784964 1_556
Se10 Y0 2.784964 1_565
Se10 Y2 2.784964 1_655
Se10 Y3 2.784964 1_555
Se11 Y1 3.080773 1_556
Se11 Y2 3.080773 1_655
Se12 Y2 3.080773 1_555
Se12 Y3 3.080773 1_555
Se13 Y1 3.080773 1_556
Se13 Y0 3.080773 1_565
