# generated using pymatgen
data_YTl(WO4)2
_symmetry_space_group_name_H-M   'P 1'
_cell_length_a   7.64877850
_cell_length_b   7.64877850
_cell_length_c   7.49091614
_cell_angle_alpha   62.38680517
_cell_angle_beta   62.38680517
_cell_angle_gamma   88.47068733
_symmetry_Int_Tables_number   1
_chemical_formula_structural   YTl(WO4)2
_chemical_formula_sum   'Y2 Tl2 W4 O16'
_cell_volume   334.07258261
_cell_formula_units_Z   2
loop_
 _symmetry_equiv_pos_site_id
 _symmetry_equiv_pos_as_xyz
  1  'x, y, z'
loop_
 _atom_site_type_symbol
 _atom_site_label
 _atom_site_symmetry_multiplicity
 _atom_site_fract_x
 _atom_site_fract_y
 _atom_site_fract_z
 _atom_site_occupancy
  Y  Y0  1  0.77599400  0.22400600  0.75000000  1
  Y  Y1  1  0.22400600  0.77599400  0.25000000  1
  Tl  Tl0  1  0.20594400  0.79405600  0.75000000  1
  Tl  Tl1  1  0.79405600  0.20594400  0.25000000  1
  W  W0  1  0.70066900  0.69008200  0.78205200  1
  W  W1  1  0.29933100  0.30991800  0.21794800  1
  W  W2  1  0.30991800  0.29933100  0.71794800  1
  W  W3  1  0.69008200  0.70066900  0.28205200  1
  O  O0  1  0.62046600  0.75371300  0.55948300  1
  O  O1  1  0.37953400  0.24628700  0.44051700  1
  O  O2  1  0.24628700  0.37953400  0.94051700  1
  O  O3  1  0.75371300  0.62046600  0.05948300  1
  O  O4  1  0.37474000  0.06204300  0.87557900  1
  O  O5  1  0.62526000  0.93795700  0.12442100  1
  O  O6  1  0.93795700  0.62526000  0.62442100  1
  O  O7  1  0.06204300  0.37474000  0.37557900  1
  O  O8  1  0.59013200  0.37033000  0.96675300  1
  O  O9  1  0.40986800  0.62967000  0.03324700  1
  O  O10  1  0.62967000  0.40986800  0.53324700  1
  O  O11  1  0.37033000  0.59013200  0.46675300  1
  O  O12  1  0.78282800  0.95524800  0.69000700  1
  O  O13  1  0.21717200  0.04475200  0.30999300  1
  O  O14  1  0.04475200  0.21717200  0.80999300  1
  O  O15  1  0.95524800  0.78282800  0.19000700  1
loop_
_geom_bond_atom_site_label_1
_geom_bond_atom_site_label_2
_geom_bond_distance
_geom_bond_site_symmetry_2
O0 W0 1.890206 1_555
O0 W3 2.124002 1_555
O1 W1 1.890206 1_555
O1 W2 2.124002 1_555
O2 W2 1.890206 1_555
O2 W1 2.124002 1_556
O3 W3 1.890206 1_555
O3 W0 2.124002 1_554
O4 W2 1.855324 1_555
O4 Y1 2.330517 1_546
O5 W3 1.855324 1_555
O5 Y0 2.330517 1_564
O6 W0 1.855324 1_555
O6 Y1 2.330517 1_655
O7 W1 1.855324 1_555
O7 Y0 2.330517 1_455
O8 W1 2.017582 1_556
O8 W0 2.121272 1_555
O8 Y0 2.317289 1_555
O9 W0 2.017582 1_554
O9 W1 2.121272 1_555
O9 Y1 2.317289 1_555
O10 W3 2.017582 1_555
O10 W2 2.121272 1_555
O10 Y0 2.317289 1_555
O11 W2 2.017582 1_555
O11 W3 2.121272 1_555
O11 Y1 2.317289 1_555
O12 W0 1.831368 1_555
O12 Y0 2.293327 1_565
O13 W1 1.831368 1_555
O13 Y1 2.293327 1_545
O14 W2 1.831368 1_555
O14 Y0 2.293327 1_455
O15 W3 1.831368 1_555
O15 Y1 2.293327 1_655
