# generated using pymatgen
data_Mn7BiO12
_symmetry_space_group_name_H-M   'P 1'
_cell_length_a   6.55757006
_cell_length_b   6.55757006
_cell_length_c   7.62523871
_cell_angle_alpha   54.85423167
_cell_angle_beta   54.85423167
_cell_angle_gamma   69.99874848
_symmetry_Int_Tables_number   1
_chemical_formula_structural   Mn7BiO12
_chemical_formula_sum   'Mn7 Bi1 O12'
_cell_volume   219.21065533
_cell_formula_units_Z   1
loop_
 _symmetry_equiv_pos_site_id
 _symmetry_equiv_pos_as_xyz
  1  'x, y, z'
loop_
 _atom_site_type_symbol
 _atom_site_label
 _atom_site_symmetry_multiplicity
 _atom_site_fract_x
 _atom_site_fract_y
 _atom_site_fract_z
 _atom_site_occupancy
  Mn  Mn0  1  0.00553100  0.00553100  0.48972600  1
  Mn  Mn1  1  0.50034000  0.50034000  0.00256500  1
  Mn  Mn2  1  0.49664500  0.49664500  0.50202400  1
  Mn  Mn3  1  0.51421200  0.99814300  0.99912100  1
  Mn  Mn4  1  0.99814300  0.51421200  0.99912100  1
  Mn  Mn5  1  0.50012900  0.99782300  0.49705800  1
  Mn  Mn6  1  0.99782300  0.50012900  0.49705800  1
  Bi  Bi0  1  0.03263800  0.03263800  0.98769800  1
  O  O0  1  0.83495400  0.83495400  0.85030300  1
  O  O1  1  0.18942700  0.18942700  0.48762600  1
  O  O2  1  0.17424100  0.17424100  0.12219200  1
  O  O3  1  0.82630500  0.82630500  0.48096600  1
  O  O4  1  0.68260000  0.30020000  0.83705700  1
  O  O5  1  0.30020000  0.68260000  0.83705700  1
  O  O6  1  0.47568500  0.13002000  0.68739200  1
  O  O7  1  0.13002000  0.47568500  0.68739200  1
  O  O8  1  0.32304100  0.70666600  0.16201200  1
  O  O9  1  0.70666600  0.32304100  0.16201200  1
  O  O10  1  0.49969300  0.86010400  0.32830900  1
  O  O11  1  0.86010400  0.49969300  0.32830900  1
loop_
_geom_bond_atom_site_label_1
_geom_bond_atom_site_label_2
_geom_bond_distance
_geom_bond_site_symmetry_2
Mn0 O0 1.958636 1_445
Mn0 O1 1.964444 1_555
Mn0 O3 1.973006 1_445
Mn0 O2 2.000011 1_555
Mn1 O5 1.959846 1_554
Mn1 O4 1.959846 1_554
Mn1 O8 1.962377 1_555
Mn1 O9 1.962377 1_555
Mn2 O10 1.950108 1_555
Mn2 O11 1.950108 1_555
Mn2 O6 1.971488 1_555
Mn2 O7 1.971488 1_555
Mn3 O4 1.943411 1_565
Mn3 O8 1.969977 1_556
Mn3 O0 1.991775 1_555
Mn3 O2 2.064498 1_566
Mn3 O10 2.072932 1_556
Mn3 O6 2.153402 1_565
Mn4 O5 1.943411 1_655
Mn4 O9 1.969977 1_556
Mn4 O0 1.991775 1_555
Mn4 O2 2.064498 1_656
Mn4 O11 2.072932 1_556
Mn4 O7 2.153402 1_655
Mn5 O10 1.953264 1_555
Mn5 O6 1.992291 1_565
Mn5 O1 2.012089 1_565
Mn5 O3 2.016456 1_555
Mn5 O5 2.117484 1_555
Mn5 O9 2.151451 1_565
Mn6 O11 1.953264 1_555
Mn6 O7 1.992291 1_655
Mn6 O1 2.012089 1_655
Mn6 O3 2.016456 1_555
Mn6 O4 2.117484 1_555
Mn6 O8 2.151451 1_655
Bi0 O2 2.357727 1_556
Bi0 O6 2.453224 1_555
Bi0 O7 2.453224 1_555
Bi0 O9 2.611683 1_456
Bi0 O8 2.611683 1_546
Bi0 O3 2.709717 1_446
Bi0 O5 2.761695 1_545
Bi0 O4 2.761695 1_455
