# generated using pymatgen
data_FeNiPt2
_symmetry_space_group_name_H-M   'P 1'
_cell_length_a   5.37675400
_cell_length_b   5.37675400
_cell_length_c   14.61522000
_cell_angle_alpha   90.00000000
_cell_angle_beta   90.00000000
_cell_angle_gamma   90.00000000
_symmetry_Int_Tables_number   1
_chemical_formula_structural   FeNiPt2
_chemical_formula_sum   'Fe8 Ni8 Pt16'
_cell_volume   422.51846256
_cell_formula_units_Z   8
loop_
 _symmetry_equiv_pos_site_id
 _symmetry_equiv_pos_as_xyz
  1  'x, y, z'
loop_
 _atom_site_type_symbol
 _atom_site_label
 _atom_site_symmetry_multiplicity
 _atom_site_fract_x
 _atom_site_fract_y
 _atom_site_fract_z
 _atom_site_occupancy
  Fe  Fe0_0  1  0.00000000  0.00000000  0.00000000  1
  Fe  Fe0_1  1  0.00000000  0.00000000  0.50000000  1
  Fe  Fe0_2  1  0.00000000  0.50000000  0.00000000  1
  Fe  Fe0_3  1  0.00000000  0.50000000  0.50000000  1
  Fe  Fe0_4  1  0.50000000  0.00000000  0.00000000  1
  Fe  Fe0_5  1  0.50000000  0.00000000  0.50000000  1
  Fe  Fe0_6  1  0.50000000  0.50000000  0.00000000  1
  Fe  Fe0_7  1  0.50000000  0.50000000  0.50000000  1
  Ni  Ni0_0  1  0.00000000  0.00000000  0.25000000  1
  Ni  Ni0_1  1  0.00000000  0.00000000  0.75000000  1
  Ni  Ni0_2  1  0.00000000  0.50000000  0.25000000  1
  Ni  Ni0_3  1  0.00000000  0.50000000  0.75000000  1
  Ni  Ni0_4  1  0.50000000  0.00000000  0.25000000  1
  Ni  Ni0_5  1  0.50000000  0.00000000  0.75000000  1
  Ni  Ni0_6  1  0.50000000  0.50000000  0.25000000  1
  Ni  Ni0_7  1  0.50000000  0.50000000  0.75000000  1
  Pt  Pt0_0  1  0.25000000  0.25000000  0.12295450  1
  Pt  Pt0_1  1  0.25000000  0.25000000  0.62295450  1
  Pt  Pt0_2  1  0.25000000  0.75000000  0.12295450  1
  Pt  Pt0_3  1  0.25000000  0.75000000  0.62295450  1
  Pt  Pt0_4  1  0.75000000  0.25000000  0.12295450  1
  Pt  Pt0_5  1  0.75000000  0.25000000  0.62295450  1
  Pt  Pt0_6  1  0.75000000  0.75000000  0.12295450  1
  Pt  Pt0_7  1  0.75000000  0.75000000  0.62295450  1
  Pt  Pt1_0  1  0.25000000  0.25000000  0.37704550  1
  Pt  Pt1_1  1  0.25000000  0.25000000  0.87704550  1
  Pt  Pt1_2  1  0.25000000  0.75000000  0.37704550  1
  Pt  Pt1_3  1  0.25000000  0.75000000  0.87704550  1
  Pt  Pt1_4  1  0.75000000  0.25000000  0.37704550  1
  Pt  Pt1_5  1  0.75000000  0.25000000  0.87704550  1
  Pt  Pt1_6  1  0.75000000  0.75000000  0.37704550  1
  Pt  Pt1_7  1  0.75000000  0.75000000  0.87704550  1
loop_
_geom_bond_atom_site_label_1
_geom_bond_atom_site_label_2
_geom_bond_distance
_geom_bond_site_symmetry_2
Fe0_0 Pt0_6 2.615898 1_445
Fe0_0 Pt0_4 2.615898 1_455
Fe0_0 Pt0_2 2.615898 1_545
Fe0_0 Pt1_7 2.615898 1_444
Fe0_0 Pt0_0 2.615898 1_555
Fe0_0 Pt1_5 2.615898 1_454
Fe0_0 Pt1_1 2.615898 1_554
Fe0_0 Pt1_3 2.615898 1_544
Fe0_1 Pt0_7 2.615898 1_445
Fe0_1 Pt0_5 2.615898 1_455
Fe0_1 Pt0_3 2.615898 1_545
Fe0_1 Pt0_1 2.615898 1_555
Fe0_1 Pt1_6 2.615898 1_445
Fe0_1 Pt1_0 2.615898 1_555
Fe0_1 Pt1_4 2.615898 1_455
Fe0_1 Pt1_2 2.615898 1_545
Fe0_2 Pt0_4 2.615898 1_455
Fe0_2 Pt0_2 2.615898 1_555
Fe0_2 Pt0_6 2.615898 1_455
Fe0_2 Pt0_0 2.615898 1_555
Fe0_2 Pt1_5 2.615898 1_454
Fe0_2 Pt1_7 2.615898 1_454
Fe0_2 Pt1_1 2.615898 1_554
Fe0_2 Pt1_3 2.615898 1_554
Fe0_3 Pt0_5 2.615898 1_455
Fe0_3 Pt0_7 2.615898 1_455
Fe0_3 Pt0_1 2.615898 1_555
Fe0_3 Pt1_0 2.615898 1_555
Fe0_3 Pt1_4 2.615898 1_455
Fe0_3 Pt0_3 2.615898 1_555
Fe0_3 Pt1_6 2.615898 1_455
Fe0_3 Pt1_2 2.615898 1_555
Fe0_4 Pt0_2 2.615898 1_545
Fe0_4 Pt0_0 2.615898 1_555
Fe0_4 Pt0_4 2.615898 1_555
Fe0_4 Pt0_6 2.615898 1_545
Fe0_4 Pt1_3 2.615898 1_544
Fe0_4 Pt1_7 2.615898 1_544
Fe0_4 Pt1_1 2.615898 1_554
Fe0_4 Pt1_5 2.615898 1_554
Fe0_5 Pt0_3 2.615898 1_545
Fe0_5 Pt0_7 2.615898 1_545
Fe0_5 Pt0_1 2.615898 1_555
Fe0_5 Pt1_0 2.615898 1_555
Fe0_5 Pt1_6 2.615898 1_545
Fe0_5 Pt0_5 2.615898 1_555
Fe0_5 Pt1_2 2.615898 1_545
Fe0_5 Pt1_4 2.615898 1_555
Fe0_6 Pt0_2 2.615898 1_555
Fe0_6 Pt0_0 2.615898 1_555
Fe0_6 Pt0_4 2.615898 1_555
Fe0_6 Pt1_1 2.615898 1_554
Fe0_6 Pt0_6 2.615898 1_555
Fe0_6 Pt1_5 2.615898 1_554
Fe0_6 Pt1_3 2.615898 1_554
Fe0_6 Pt1_7 2.615898 1_554
Fe0_7 Pt0_1 2.615898 1_555
Fe0_7 Pt1_0 2.615898 1_555
Fe0_7 Pt0_5 2.615898 1_555
Fe0_7 Pt0_3 2.615898 1_555
Fe0_7 Pt0_7 2.615898 1_555
Fe0_7 Pt1_2 2.615898 1_555
Fe0_7 Pt1_4 2.615898 1_555
Fe0_7 Pt1_6 2.615898 1_555
Ni0_0 Pt1_6 2.657326 1_445
Ni0_0 Pt1_2 2.657326 1_545
Ni0_0 Pt1_0 2.657326 1_555
Ni0_0 Pt1_4 2.657326 1_455
Ni0_0 Pt0_4 2.657326 1_455
Ni0_0 Pt0_2 2.657326 1_545
Ni0_0 Pt0_6 2.657326 1_445
Ni0_0 Pt0_0 2.657326 1_555
Ni0_0 Ni0_2 2.688377 1_555
Ni0_0 Ni0_4 2.688377 1_555
Ni0_0 Ni0_4 2.688377 1_455
Ni0_0 Ni0_2 2.688377 1_545
Ni0_1 Pt1_7 2.657326 1_445
Ni0_1 Pt1_1 2.657326 1_555
Ni0_1 Pt1_5 2.657326 1_455
Ni0_1 Pt1_3 2.657326 1_545
Ni0_1 Pt0_7 2.657326 1_445
Ni0_1 Pt0_5 2.657326 1_455
Ni0_1 Pt0_3 2.657326 1_545
Ni0_1 Pt0_1 2.657326 1_555
Ni0_1 Ni0_3 2.688377 1_555
Ni0_1 Ni0_3 2.688377 1_545
Ni0_1 Ni0_5 2.688377 1_455
Ni0_1 Ni0_5 2.688377 1_555
Ni0_2 Pt1_0 2.657326 1_555
Ni0_2 Pt1_4 2.657326 1_455
Ni0_2 Pt1_6 2.657326 1_455
Ni0_2 Pt0_4 2.657326 1_455
Ni0_2 Pt1_2 2.657326 1_555
Ni0_2 Pt0_0 2.657326 1_555
Ni0_2 Pt0_6 2.657326 1_455
Ni0_2 Pt0_2 2.657326 1_555
Ni0_2 Ni0_6 2.688377 1_555
Ni0_2 Ni0_6 2.688377 1_455
Ni0_3 Pt1_7 2.657326 1_455
Ni0_3 Pt1_1 2.657326 1_555
Ni0_3 Pt1_5 2.657326 1_455
Ni0_3 Pt1_3 2.657326 1_555
Ni0_3 Pt0_5 2.657326 1_455
Ni0_3 Pt0_7 2.657326 1_455
Ni0_3 Pt0_1 2.657326 1_555
Ni0_3 Pt0_3 2.657326 1_555
Ni0_3 Ni0_7 2.688377 1_555
Ni0_3 Ni0_7 2.688377 1_455
Ni0_4 Pt1_2 2.657326 1_545
Ni0_4 Pt1_0 2.657326 1_555
Ni0_4 Pt1_6 2.657326 1_545
Ni0_4 Pt0_2 2.657326 1_545
Ni0_4 Pt1_4 2.657326 1_555
Ni0_4 Pt0_6 2.657326 1_545
Ni0_4 Pt0_0 2.657326 1_555
Ni0_4 Pt0_4 2.657326 1_555
Ni0_4 Ni0_6 2.688377 1_555
Ni0_4 Ni0_6 2.688377 1_545
Ni0_5 Pt1_1 2.657326 1_555
Ni0_5 Pt1_7 2.657326 1_545
Ni0_5 Pt1_3 2.657326 1_545
Ni0_5 Pt1_5 2.657326 1_555
Ni0_5 Pt0_3 2.657326 1_545
Ni0_5 Pt0_7 2.657326 1_545
Ni0_5 Pt0_1 2.657326 1_555
Ni0_5 Pt0_5 2.657326 1_555
Ni0_5 Ni0_7 2.688377 1_555
Ni0_5 Ni0_7 2.688377 1_545
Ni0_6 Pt1_0 2.657326 1_555
Ni0_6 Pt1_4 2.657326 1_555
Ni0_6 Pt1_2 2.657326 1_555
Ni0_6 Pt0_0 2.657326 1_555
Ni0_6 Pt0_2 2.657326 1_555
Ni0_6 Pt1_6 2.657326 1_555
Ni0_6 Pt0_4 2.657326 1_555
Ni0_6 Pt0_6 2.657326 1_555
Ni0_7 Pt1_1 2.657326 1_555
Ni0_7 Pt1_3 2.657326 1_555
Ni0_7 Pt1_5 2.657326 1_555
Ni0_7 Pt1_7 2.657326 1_555
Ni0_7 Pt0_1 2.657326 1_555
Ni0_7 Pt0_5 2.657326 1_555
Ni0_7 Pt0_3 2.657326 1_555
Ni0_7 Pt0_7 2.657326 1_555
Pt0_0 Pt0_4 2.688377 1_455
Pt0_0 Pt0_2 2.688377 1_545
Pt0_0 Pt0_4 2.688377 1_555
Pt0_0 Pt0_2 2.688377 1_555
Pt0_1 Pt0_5 2.688377 1_455
Pt0_1 Pt0_3 2.688377 1_545
Pt0_1 Pt0_3 2.688377 1_555
Pt0_1 Pt0_5 2.688377 1_555
Pt0_2 Pt0_6 2.688377 1_455
Pt0_2 Pt0_6 2.688377 1_555
Pt0_3 Pt0_7 2.688377 1_455
Pt0_3 Pt0_7 2.688377 1_555
Pt0_4 Pt0_6 2.688377 1_545
Pt0_4 Pt0_6 2.688377 1_555
Pt0_5 Pt0_7 2.688377 1_545
Pt0_5 Pt0_7 2.688377 1_555
Pt1_0 Pt1_2 2.688377 1_545
Pt1_0 Pt1_4 2.688377 1_455
Pt1_0 Pt1_4 2.688377 1_555
Pt1_0 Pt1_2 2.688377 1_555
Pt1_1 Pt1_5 2.688377 1_455
Pt1_1 Pt1_3 2.688377 1_545
Pt1_1 Pt1_5 2.688377 1_555
Pt1_1 Pt1_3 2.688377 1_555
Pt1_2 Pt1_6 2.688377 1_455
Pt1_2 Pt1_6 2.688377 1_555
Pt1_3 Pt1_7 2.688377 1_455
Pt1_3 Pt1_7 2.688377 1_555
Pt1_4 Pt1_6 2.688377 1_545
Pt1_4 Pt1_6 2.688377 1_555
Pt1_5 Pt1_7 2.688377 1_545
Pt1_5 Pt1_7 2.688377 1_555
