# generated using pymatgen
data_SrMg14Nb
_symmetry_space_group_name_H-M   'P 1'
_cell_length_a   6.52650427
_cell_length_b   6.54267111
_cell_length_c   10.35178443
_cell_angle_alpha   90.00000000
_cell_angle_beta   90.00000000
_cell_angle_gamma   120.08198151
_symmetry_Int_Tables_number   1
_chemical_formula_structural   SrMg14Nb
_chemical_formula_sum   'Sr1 Mg14 Nb1'
_cell_volume   382.49186550
_cell_formula_units_Z   1
loop_
 _symmetry_equiv_pos_site_id
 _symmetry_equiv_pos_as_xyz
  1  'x, y, z'
loop_
 _atom_site_type_symbol
 _atom_site_label
 _atom_site_symmetry_multiplicity
 _atom_site_fract_x
 _atom_site_fract_y
 _atom_site_fract_z
 _atom_site_occupancy
  Sr  Sr0  1  0.16398043  0.33198971  0.12500000  1
  Mg  Mg0  1  0.16795868  0.33397884  0.62500000  1
  Mg  Mg1  1  0.16494465  0.83247182  0.62500000  1
  Mg  Mg2  1  0.66226039  0.32795532  0.12500000  1
  Mg  Mg3  1  0.66612048  0.33597069  0.62500000  1
  Mg  Mg4  1  0.66226039  0.83430407  0.12500000  1
  Mg  Mg5  1  0.66612048  0.83014879  0.62500000  1
  Mg  Mg6  1  0.33354785  0.15226999  0.37989482  1
  Mg  Mg7  1  0.33354785  0.15226999  0.87010518  1
  Mg  Mg8  1  0.33354785  0.68127886  0.37989482  1
  Mg  Mg9  1  0.33354785  0.68127886  0.87010518  1
  Mg  Mg10  1  0.82223163  0.16111631  0.38705820  1
  Mg  Mg11  1  0.82223163  0.16111631  0.86294180  1
  Mg  Mg12  1  0.84261913  0.67131007  0.36557850  1
  Mg  Mg13  1  0.84261913  0.67131007  0.88442150  1
  Nb  Nb0  1  0.18246157  0.84123029  0.12500000  1
loop_
_geom_bond_atom_site_label_1
_geom_bond_atom_site_label_2
_geom_bond_distance
_geom_bond_site_symmetry_2
Mg0 Mg11 3.143108 1_455
Mg0 Mg10 3.143108 1_455
Mg0 Mg6 3.210470 1_555
Mg0 Mg7 3.210470 1_555
Mg0 Mg8 3.210477 1_555
Mg0 Mg9 3.210477 1_555
Mg0 Mg5 3.244742 1_555
Mg0 Mg3 3.244743 1_555
Mg0 Mg1 3.271380 1_555
Mg0 Mg1 3.271380 1_545
Mg0 Mg5 3.281800 1_445
Mg0 Mg3 3.281801 1_455
Mg1 Mg8 3.117429 1_555
Mg1 Mg9 3.117429 1_555
Mg1 Mg6 3.117435 1_565
Mg1 Mg7 3.117435 1_565
Mg1 Mg13 3.244276 1_455
Mg1 Mg12 3.244276 1_455
Mg1 Mg3 3.247986 1_455
Mg1 Mg5 3.247986 1_455
Mg1 Mg3 3.278571 1_565
Mg1 Mg5 3.278571 1_555
Mg2 Nb0 3.154367 1_545
Mg2 Mg7 3.227066 1_554
Mg2 Mg6 3.227066 1_555
Mg2 Mg4 3.229798 1_545
Mg2 Sr0 3.261327 1_655
Mg2 Sr0 3.265337 1_555
Mg2 Mg4 3.312873 1_555
Mg2 Nb0 3.372609 1_655
Mg3 Mg6 3.158850 1_555
Mg3 Mg7 3.158850 1_555
Mg3 Mg5 3.233245 1_555
Mg3 Mg5 3.309426 1_545
Mg4 Nb0 3.154367 1_555
Mg4 Mg9 3.227067 1_554
Mg4 Mg8 3.227067 1_555
Mg4 Sr0 3.261327 1_665
Mg4 Sr0 3.265336 1_555
Mg4 Nb0 3.372609 1_655
Mg5 Mg8 3.158850 1_555
Mg5 Mg9 3.158850 1_555
Mg6 Mg8 3.081540 1_545
Mg6 Nb0 3.172432 1_545
Mg6 Sr0 3.297601 1_555
Mg6 Mg8 3.461131 1_555
Mg7 Mg9 3.081540 1_545
Mg7 Nb0 3.172432 1_546
Mg7 Sr0 3.297601 1_556
Mg7 Mg9 3.461131 1_555
Mg8 Nb0 3.172426 1_555
Mg8 Sr0 3.297608 1_555
Mg9 Nb0 3.172426 1_556
Mg9 Sr0 3.297608 1_556
Mg10 Mg3 3.095528 1_555
Mg10 Mg5 3.095535 1_545
Mg10 Mg8 3.161652 1_545
Mg10 Mg6 3.161652 1_555
Mg10 Mg12 3.280904 1_545
Mg10 Mg12 3.280904 1_555
Mg10 Mg2 3.283776 1_555
Mg10 Mg4 3.283782 1_545
Mg10 Sr0 3.329271 1_655
Mg10 Mg8 3.367307 1_655
Mg10 Mg6 3.367308 1_655
Mg11 Mg3 3.095528 1_555
Mg11 Mg5 3.095535 1_545
Mg11 Mg9 3.161652 1_545
Mg11 Mg7 3.161652 1_555
Mg11 Mg13 3.280904 1_545
Mg11 Mg13 3.280904 1_555
Mg11 Mg2 3.283776 1_556
Mg11 Mg4 3.283782 1_546
Mg11 Sr0 3.329271 1_656
Mg11 Mg9 3.367307 1_655
Mg11 Mg7 3.367308 1_655
Mg12 Nb0 3.144147 1_655
Mg12 Mg4 3.159654 1_555
Mg12 Mg2 3.159661 1_555
Mg12 Mg6 3.175318 1_665
Mg12 Mg8 3.175319 1_655
Mg12 Mg5 3.289190 1_555
Mg12 Mg3 3.289196 1_555
Mg12 Mg6 3.358893 1_555
Mg12 Mg8 3.358894 1_555
Mg13 Nb0 3.144147 1_656
Mg13 Mg4 3.159654 1_556
Mg13 Mg2 3.159661 1_556
Mg13 Mg7 3.175318 1_665
Mg13 Mg9 3.175319 1_655
Mg13 Mg5 3.289190 1_555
Mg13 Mg3 3.289196 1_555
Mg13 Mg7 3.358893 1_555
Mg13 Mg9 3.358894 1_555
Nb0 Sr0 3.273000 1_565
Nb0 Sr0 3.273000 1_555
