# generated using pymatgen
data_CdHg2SeO6
_symmetry_space_group_name_H-M   'P 1'
_cell_length_a   6.93614600
_cell_length_b   7.35176834
_cell_length_c   8.05382672
_cell_angle_alpha   95.55743242
_cell_angle_beta   112.79322930
_cell_angle_gamma   114.63596284
_symmetry_Int_Tables_number   1
_chemical_formula_structural   CdHg2SeO6
_chemical_formula_sum   'Cd2 Hg4 Se2 O12'
_cell_volume   327.39189453
_cell_formula_units_Z   2
loop_
 _symmetry_equiv_pos_site_id
 _symmetry_equiv_pos_as_xyz
  1  'x, y, z'
loop_
 _atom_site_type_symbol
 _atom_site_label
 _atom_site_symmetry_multiplicity
 _atom_site_fract_x
 _atom_site_fract_y
 _atom_site_fract_z
 _atom_site_occupancy
  Cd  Cd0  1  0.44936900  0.09676500  0.78388900  1
  Cd  Cd1  1  0.55063100  0.90323500  0.21611100  1
  Hg  Hg0  1  0.49204900  0.60627500  0.78877700  1
  Hg  Hg1  1  0.50795100  0.39372500  0.21122300  1
  Hg  Hg2  1  0.01527300  0.40394600  0.20259600  1
  Hg  Hg3  1  0.98472700  0.59605400  0.79740400  1
  Se  Se0  1  0.90530000  0.06902000  0.69814600  1
  Se  Se1  1  0.09470000  0.93098000  0.30185400  1
  O  O0  1  0.77543300  0.14973000  0.51963300  1
  O  O1  1  0.22456700  0.85027000  0.48036700  1
  O  O2  1  0.20735800  0.23379200  0.81831300  1
  O  O3  1  0.79264200  0.76620800  0.18168700  1
  O  O4  1  0.34673200  0.77613300  0.86808700  1
  O  O5  1  0.65326900  0.22386700  0.13191300  1
  O  O6  1  0.14776200  0.17081500  0.38537300  1
  O  O7  1  0.85223800  0.82918500  0.61462700  1
  O  O8  1  0.63224100  0.42127600  0.73961400  1
  O  O9  1  0.36775900  0.57872400  0.26038600  1
  O  O10  1  0.80178700  0.08108100  0.85461200  1
  O  O11  1  0.19821300  0.91891900  0.14538800  1
loop_
_geom_bond_atom_site_label_1
_geom_bond_atom_site_label_2
_geom_bond_distance
_geom_bond_site_symmetry_2
Cd0 O8 2.328110 1_555
Cd0 O10 2.341334 1_555
Cd0 O1 2.350287 1_545
Cd0 O2 2.371875 1_555
Cd0 O4 2.409917 1_545
Cd0 O5 2.459515 1_556
Cd1 O9 2.328110 1_555
Cd1 O11 2.341334 1_555
Cd1 O0 2.350287 1_565
Cd1 O3 2.371875 1_555
Cd1 O5 2.409917 1_565
Cd1 O4 2.459515 1_554
Hg0 O8 2.061241 1_555
Hg0 O4 2.092138 1_555
Hg1 O9 2.061241 1_555
Hg1 O5 2.092144 1_555
Hg2 O9 2.056349 1_555
Hg2 O5 2.087244 1_455
Hg2 O6 2.588941 1_555
Hg3 O8 2.056349 1_555
Hg3 O4 2.087250 1_655
Hg3 O7 2.588941 1_555
O0 Se0 1.684607 1_555
O1 Se1 1.684607 1_555
O2 Se0 1.696921 1_455
O3 Se1 1.696921 1_655
O6 Se1 1.653562 1_545
O7 Se0 1.653562 1_565
O10 Se0 1.686356 1_555
O11 Se1 1.686356 1_555
