# generated using pymatgen
data_BaBPF10
_symmetry_space_group_name_H-M   'P 1'
_cell_length_a   10.54552068
_cell_length_b   10.54552068
_cell_length_c   6.30707700
_cell_angle_alpha   90.00000000
_cell_angle_beta   90.00000000
_cell_angle_gamma   120.00000426
_symmetry_Int_Tables_number   1
_chemical_formula_structural   BaBPF10
_chemical_formula_sum   'Ba3 B3 P3 F30'
_cell_volume   607.42799184
_cell_formula_units_Z   3
loop_
 _symmetry_equiv_pos_site_id
 _symmetry_equiv_pos_as_xyz
  1  'x, y, z'
loop_
 _atom_site_type_symbol
 _atom_site_label
 _atom_site_symmetry_multiplicity
 _atom_site_fract_x
 _atom_site_fract_y
 _atom_site_fract_z
 _atom_site_occupancy
  Ba  Ba0  1  0.00000000  0.00000000  0.50000000  1
  Ba  Ba1  1  0.66666700  0.33333300  0.00000000  1
  Ba  Ba2  1  0.33333300  0.66666700  0.00000000  1
  B  B0  1  0.75228600  0.00000000  0.00000000  1
  B  B1  1  0.00000000  0.75228600  0.00000000  1
  B  B2  1  0.24771400  0.24771400  0.00000000  1
  P  P0  1  0.43898600  0.00000000  0.50000000  1
  P  P1  1  0.00000000  0.43898600  0.50000000  1
  P  P2  1  0.56101400  0.56101400  0.50000000  1
  F  F0  1  0.59154800  0.00000000  0.50000000  1
  F  F1  1  0.00000000  0.59154800  0.50000000  1
  F  F2  1  0.40845200  0.40845200  0.50000000  1
  F  F3  1  0.28422300  0.00000000  0.50000000  1
  F  F4  1  0.00000000  0.28422300  0.50000000  1
  F  F5  1  0.71577700  0.71577700  0.50000000  1
  F  F6  1  0.50136600  0.12758700  0.68459100  1
  F  F7  1  0.87241300  0.37377900  0.68459100  1
  F  F8  1  0.62622100  0.49863400  0.68459100  1
  F  F9  1  0.50136600  0.12758700  0.31540900  1
  F  F10  1  0.87241300  0.37377900  0.31540900  1
  F  F11  1  0.62622100  0.49863400  0.31540900  1
  F  F12  1  0.37377900  0.87241300  0.68459100  1
  F  F13  1  0.49863400  0.62622100  0.68459100  1
  F  F14  1  0.12758700  0.50136600  0.68459100  1
  F  F15  1  0.37377900  0.87241300  0.31540900  1
  F  F16  1  0.49863400  0.62622100  0.31540900  1
  F  F17  1  0.12758700  0.50136600  0.31540900  1
  F  F18  1  0.82900500  0.00000000  0.81691100  1
  F  F19  1  0.00000000  0.82900500  0.81691100  1
  F  F20  1  0.17099500  0.17099500  0.81691100  1
  F  F21  1  0.82900500  0.00000000  0.18308900  1
  F  F22  1  0.00000000  0.82900500  0.18308900  1
  F  F23  1  0.17099500  0.17099500  0.18308900  1
  F  F24  1  0.38909100  0.26273000  0.00000000  1
  F  F25  1  0.73727000  0.12636000  0.00000000  1
  F  F26  1  0.87364000  0.61090900  0.00000000  1
  F  F27  1  0.12636000  0.73727000  0.00000000  1
  F  F28  1  0.61090900  0.87364000  0.00000000  1
  F  F29  1  0.26273000  0.38909100  0.00000000  1
loop_
_geom_bond_atom_site_label_1
_geom_bond_atom_site_label_2
_geom_bond_distance
_geom_bond_site_symmetry_2
Ba0 F20 2.691983 1_555
Ba0 F23 2.691983 1_555
Ba0 F18 2.691983 1_455
Ba0 F19 2.691983 1_545
Ba0 F21 2.691983 1_455
Ba0 F22 2.691983 1_545
Ba0 F5 2.997279 1_445
Ba0 F4 2.997280 1_555
Ba0 F3 2.997280 1_555
Ba1 F26 2.635020 1_555
Ba1 F24 2.635020 1_555
Ba1 F25 2.635020 1_555
Ba1 F10 2.814505 1_555
Ba1 F7 2.814505 1_554
Ba1 F9 2.814507 1_555
Ba1 F6 2.814507 1_554
Ba1 F11 2.814512 1_555
Ba1 F8 2.814512 1_554
Ba2 F28 2.635020 1_555
Ba2 F29 2.635020 1_555
Ba2 F27 2.635020 1_555
Ba2 F15 2.814505 1_555
Ba2 F12 2.814505 1_554
Ba2 F17 2.814507 1_555
Ba2 F14 2.814507 1_554
Ba2 F16 2.814512 1_555
Ba2 F13 2.814512 1_554
B0 F21 1.409968 1_555
B0 F18 1.409968 1_554
B0 F25 1.418353 1_555
B0 F28 1.418359 1_545
B1 F22 1.409968 1_555
B1 F19 1.409968 1_554
B1 F27 1.418353 1_555
B1 F26 1.418359 1_455
B2 F23 1.409968 1_555
B2 F20 1.409968 1_554
B2 F29 1.418363 1_555
B2 F24 1.418363 1_555
F0 P0 1.608846 1_555
F1 P1 1.608846 1_555
F2 P2 1.608846 1_555
F3 P0 1.632056 1_555
F4 P1 1.632056 1_555
F5 P2 1.632056 1_555
F6 P0 1.647232 1_555
F7 P1 1.647232 1_655
F8 P2 1.647232 1_555
F9 P0 1.647232 1_555
F10 P1 1.647232 1_655
F11 P2 1.647232 1_555
F12 P0 1.647232 1_565
F13 P2 1.647232 1_555
F14 P1 1.647232 1_555
F15 P0 1.647232 1_565
F16 P2 1.647232 1_555
F17 P1 1.647232 1_555
