# generated using pymatgen
data_Lu(MnAl)6
_symmetry_space_group_name_H-M   'P 1'
_cell_length_a   6.60846517
_cell_length_b   6.60846517
_cell_length_c   6.60846517
_cell_angle_alpha   136.23994950
_cell_angle_beta   99.25112669
_cell_angle_gamma   96.71872870
_symmetry_Int_Tables_number   1
_chemical_formula_structural   Lu(MnAl)6
_chemical_formula_sum   'Lu1 Mn6 Al6'
_cell_volume   185.17129348
_cell_formula_units_Z   1
loop_
 _symmetry_equiv_pos_site_id
 _symmetry_equiv_pos_as_xyz
  1  'x, y, z'
loop_
 _atom_site_type_symbol
 _atom_site_label
 _atom_site_symmetry_multiplicity
 _atom_site_fract_x
 _atom_site_fract_y
 _atom_site_fract_z
 _atom_site_occupancy
  Lu  Lu0  1  0.00000000  0.00000000  0.00000000  1
  Mn  Mn0  1  0.50000000  0.50000000  0.50000000  1
  Mn  Mn1  1  0.50000000  0.00000000  0.00000000  1
  Mn  Mn2  1  0.00000000  0.50000000  0.00000000  1
  Mn  Mn3  1  0.00000000  0.00000000  0.50000000  1
  Mn  Mn4  1  0.76535600  0.50000000  0.26535600  1
  Mn  Mn5  1  0.23464400  0.50000000  0.73464400  1
  Al  Al0  1  0.65361300  0.65361300  0.00000000  1
  Al  Al1  1  0.34638700  0.34638700  0.00000000  1
  Al  Al2  1  0.33676300  0.00000000  0.33676300  1
  Al  Al3  1  0.66323700  0.00000000  0.66323700  1
  Al  Al4  1  0.19390100  0.69390100  0.50000000  1
  Al  Al5  1  0.80609900  0.30609900  0.50000000  1
loop_
_geom_bond_atom_site_label_1
_geom_bond_atom_site_label_2
_geom_bond_distance
_geom_bond_site_symmetry_2
Lu0 Mn5 3.178197 1_544
Lu0 Mn5 3.178197 1_555
Lu0 Mn4 3.178197 1_444
Lu0 Mn4 3.178197 1_455
Lu0 Mn1 3.304233 1_555
Lu0 Mn2 3.304233 1_555
Lu0 Mn0 3.304233 1_444
Lu0 Mn3 3.304233 1_555
Lu0 Mn1 3.304233 1_455
Lu0 Mn0 3.304233 1_555
Lu0 Mn3 3.304233 1_554
Lu0 Mn2 3.304233 1_545
Mn0 Mn1 2.462739 1_566
Mn0 Mn1 2.462739 1_555
Mn0 Mn4 2.520686 1_555
Mn0 Mn5 2.520686 1_555
Mn1 Mn4 2.520686 1_555
Mn1 Mn5 2.520686 1_544
Mn2 Mn3 2.462739 1_565
Mn2 Mn3 2.462739 1_554
Mn2 Mn5 2.520686 1_554
Mn2 Mn4 2.520686 1_455
Mn3 Mn5 2.520686 1_555
Mn3 Mn4 2.520686 1_445
Al0 Mn1 2.610398 1_565
Al0 Mn2 2.610398 1_655
Al0 Mn3 2.610398 1_665
Al0 Mn0 2.610398 1_554
Al0 Mn4 2.642232 1_555
Al0 Mn5 2.642232 1_554
Al0 Al1 2.698081 1_555
Al0 Al5 2.803282 1_554
Al0 Al5 2.803282 1_565
Al0 Lu0 3.041996 1_665
Al1 Mn3 2.610398 1_554
Al1 Mn0 2.610398 1_555
Al1 Mn1 2.610398 1_555
Al1 Mn2 2.610398 1_555
Al1 Mn4 2.642232 1_555
Al1 Mn5 2.642232 1_554
Al1 Al4 2.803282 1_544
Al1 Al4 2.803282 1_555
Al1 Lu0 3.041996 1_555
Al2 Mn5 2.613331 1_555
Al2 Mn5 2.613331 1_544
Al2 Mn0 2.624572 1_555
Al2 Mn1 2.624572 1_555
Al2 Mn3 2.624572 1_555
Al2 Mn2 2.624572 1_545
Al2 Al3 2.795161 1_555
Al2 Lu0 2.883252 1_555
Al3 Mn4 2.613331 1_545
Al3 Mn4 2.613331 1_556
Al3 Mn0 2.624572 1_545
Al3 Mn1 2.624572 1_556
Al3 Mn3 2.624572 1_655
Al3 Mn2 2.624572 1_656
Al3 Lu0 2.883252 1_656
Al4 Mn1 2.518009 1_566
Al4 Mn3 2.518009 1_565
Al4 Mn0 2.518009 1_555
Al4 Mn2 2.518009 1_555
Al4 Mn5 2.633545 1_555
Al4 Mn4 2.633545 1_455
Al4 Lu0 2.994126 1_566
Al4 Lu0 2.994126 1_555
Al5 Mn0 2.518009 1_555
Al5 Mn1 2.518009 1_555
Al5 Mn2 2.518009 1_656
Al5 Mn3 2.518009 1_655
Al5 Mn4 2.633545 1_555
Al5 Mn5 2.633545 1_655
Al5 Lu0 2.994126 1_666
Al5 Lu0 2.994126 1_655
