# generated using pymatgen
data_Sr3Sc3N5
_symmetry_space_group_name_H-M   'P 1'
_cell_length_a   6.22965294
_cell_length_b   7.81454905
_cell_length_c   9.15485205
_cell_angle_alpha   108.25120141
_cell_angle_beta   105.62299954
_cell_angle_gamma   98.36071590
_symmetry_Int_Tables_number   1
_chemical_formula_structural   Sr3Sc3N5
_chemical_formula_sum   'Sr6 Sc6 N10'
_cell_volume   394.54772590
_cell_formula_units_Z   2
loop_
 _symmetry_equiv_pos_site_id
 _symmetry_equiv_pos_as_xyz
  1  'x, y, z'
loop_
 _atom_site_type_symbol
 _atom_site_label
 _atom_site_symmetry_multiplicity
 _atom_site_fract_x
 _atom_site_fract_y
 _atom_site_fract_z
 _atom_site_occupancy
  Sr  Sr0  1  0.77826700  0.43318800  0.59787400  1
  Sr  Sr1  1  0.22173300  0.56681200  0.40212600  1
  Sr  Sr2  1  0.67573200  0.85389700  0.89118800  1
  Sr  Sr3  1  0.32426800  0.14610300  0.10881200  1
  Sr  Sr4  1  0.67708900  0.62454700  0.20245500  1
  Sr  Sr5  1  0.32291100  0.37545300  0.79754500  1
  Sc  Sc0  1  0.89551500  0.30761400  0.96543100  1
  Sc  Sc1  1  0.10448500  0.69238600  0.03456900  1
  Sc  Sc2  1  0.71769000  0.96057000  0.57399500  1
  Sc  Sc3  1  0.28231000  0.03943000  0.42600500  1
  Sc  Sc4  1  0.13851500  0.86802100  0.70887400  1
  Sc  Sc5  1  0.86148500  0.13197900  0.29112600  1
  N  N0  1  0.99130600  0.09082200  0.80327000  1
  N  N1  1  0.00869400  0.90917800  0.19673000  1
  N  N2  1  0.82584300  0.71049400  0.51400400  1
  N  N3  1  0.17415700  0.28950600  0.48599600  1
  N  N4  1  0.76930500  0.51361800  0.88849900  1
  N  N5  1  0.23069500  0.48638200  0.11150100  1
  N  N6  1  0.39740000  0.92058200  0.60744500  1
  N  N7  1  0.60260000  0.07941800  0.39255500  1
  N  N8  1  0.26768200  0.75626200  0.88199400  1
  N  N9  1  0.73231800  0.24373800  0.11800600  1
loop_
_geom_bond_atom_site_label_1
_geom_bond_atom_site_label_2
_geom_bond_distance
_geom_bond_site_symmetry_2
N0 Sc4 2.137275 1_645
N0 Sc2 2.139482 1_545
N0 Sc0 2.150796 1_555
N0 Sr5 2.830666 1_655
N0 Sr3 2.858468 1_656
N0 Sr2 2.944103 1_545
N1 Sc5 2.137275 1_465
N1 Sc3 2.139482 1_565
N1 Sc1 2.150796 1_555
N1 Sr4 2.830666 1_455
N1 Sr2 2.858468 1_454
N1 Sr3 2.944103 1_565
N2 Sc2 2.117672 1_555
N2 Sc4 2.132507 1_655
N2 Sr0 2.520190 1_555
N2 Sr4 2.576881 1_555
N2 Sr1 3.136506 1_655
N3 Sc3 2.117672 1_555
N3 Sc5 2.132507 1_455
N3 Sr1 2.520190 1_555
N3 Sr5 2.576881 1_555
N3 Sr0 3.136506 1_455
N4 Sc0 2.117964 1_555
N4 Sc1 2.139493 1_656
N4 Sr0 2.553402 1_555
N4 Sr5 2.628480 1_555
N4 Sr2 2.798012 1_555
N4 Sr4 2.969199 1_556
N5 Sc1 2.117964 1_555
N5 Sc0 2.139493 1_454
N5 Sr1 2.553402 1_555
N5 Sr4 2.628480 1_555
N5 Sr3 2.798012 1_555
N5 Sr5 2.969199 1_554
N6 Sc2 2.092929 1_555
N6 Sc4 2.117738 1_555
N6 Sc3 2.157362 1_565
N6 Sr1 2.670369 1_555
N6 Sr2 2.951335 1_555
N7 Sc3 2.092929 1_555
N7 Sc5 2.117738 1_555
N7 Sc2 2.157362 1_545
N7 Sr0 2.670369 1_555
N7 Sr3 2.951335 1_555
N8 Sc1 2.070707 1_556
N8 Sc4 2.075223 1_555
N8 Sr2 2.516255 1_555
N8 Sr5 2.927750 1_555
N8 Sr3 3.007977 1_566
N9 Sc0 2.070707 1_554
N9 Sc5 2.075223 1_555
N9 Sr3 2.516255 1_555
N9 Sr4 2.927750 1_555
N9 Sr2 3.007977 1_544
