# generated using pymatgen
data_NbNi3
_symmetry_space_group_name_H-M   'P 1'
_cell_length_a   4.21909961
_cell_length_b   4.52733326
_cell_length_c   5.08268979
_cell_angle_alpha   90.00000000
_cell_angle_beta   90.00000000
_cell_angle_gamma   90.00000000
_symmetry_Int_Tables_number   1
_chemical_formula_structural   NbNi3
_chemical_formula_sum   'Nb2 Ni6'
_cell_volume   97.08582996
_cell_formula_units_Z   2
loop_
 _symmetry_equiv_pos_site_id
 _symmetry_equiv_pos_as_xyz
  1  'x, y, z'
loop_
 _atom_site_type_symbol
 _atom_site_label
 _atom_site_symmetry_multiplicity
 _atom_site_fract_x
 _atom_site_fract_y
 _atom_site_fract_z
 _atom_site_occupancy
  Nb  Nb0  1  0.25000000  0.34969528  0.75000000  1
  Nb  Nb1  1  0.75000000  0.65030472  0.25000000  1
  Ni  Ni0  1  0.25000000  0.31511924  0.25000000  1
  Ni  Ni1  1  0.75000000  0.68488076  0.75000000  1
  Ni  Ni2  1  0.75000000  0.15775269  0.49898026  1
  Ni  Ni3  1  0.25000000  0.84224731  0.50101974  1
  Ni  Ni4  1  0.25000000  0.84224731  0.99898026  1
  Ni  Ni5  1  0.75000000  0.15775269  0.00101974  1
loop_
_geom_bond_atom_site_label_1
_geom_bond_atom_site_label_2
_geom_bond_distance
_geom_bond_site_symmetry_2
Nb0 Ni0 2.546161 1_556
Nb0 Ni0 2.546161 1_555
Nb0 Ni3 2.564006 1_555
Nb0 Ni4 2.564006 1_555
Nb0 Ni1 2.598653 1_455
Nb0 Ni1 2.598653 1_555
Nb0 Ni2 2.614029 1_455
Nb0 Ni2 2.614029 1_555
Nb0 Ni5 2.614029 1_556
Nb0 Ni5 2.614029 1_456
Nb0 Ni3 2.622870 1_545
Nb0 Ni4 2.622870 1_545
Nb1 Ni1 2.546161 1_555
Nb1 Ni1 2.546161 1_554
Nb1 Ni5 2.564006 1_555
Nb1 Ni2 2.564006 1_555
Nb1 Ni0 2.598653 1_655
Nb1 Ni0 2.598653 1_555
Nb1 Ni4 2.614029 1_654
Nb1 Ni4 2.614029 1_554
Nb1 Ni3 2.614029 1_555
Nb1 Ni3 2.614029 1_655
Nb1 Ni5 2.622870 1_565
Nb1 Ni2 2.622870 1_565
Ni0 Ni4 2.492196 1_544
Ni0 Ni3 2.492196 1_545
Ni0 Ni5 2.561103 1_455
Ni0 Ni5 2.561103 1_555
Ni0 Ni2 2.561103 1_455
Ni0 Ni2 2.561103 1_555
Ni0 Ni4 2.706125 1_554
Ni0 Ni3 2.706125 1_555
Ni1 Ni2 2.492196 1_565
Ni1 Ni5 2.492196 1_566
Ni1 Ni4 2.561103 1_655
Ni1 Ni3 2.561103 1_555
Ni1 Ni4 2.561103 1_555
Ni1 Ni3 2.561103 1_655
Ni1 Ni2 2.706125 1_555
Ni1 Ni5 2.706125 1_556
Ni2 Ni5 2.530979 1_555
Ni2 Ni3 2.547671 1_645
Ni2 Ni3 2.547671 1_545
Ni2 Ni5 2.551711 1_556
Ni3 Ni4 2.530979 1_555
Ni3 Ni4 2.551711 1_554
Ni4 Ni5 2.547671 1_466
Ni4 Ni5 2.547671 1_566
