# generated using pymatgen
data_Na2Zr4As3(PO8)3
_symmetry_space_group_name_H-M   'P 1'
_cell_length_a   9.13538570
_cell_length_b   9.13538600
_cell_length_c   9.41243325
_cell_angle_alpha   90.00000000
_cell_angle_beta   60.96899419
_cell_angle_gamma   120.00000110
_symmetry_Int_Tables_number   1
_chemical_formula_structural   Na2Zr4As3(PO8)3
_chemical_formula_sum   'Na2 Zr4 As3 P3 O24'
_cell_volume   563.44122016
_cell_formula_units_Z   1
loop_
 _symmetry_equiv_pos_site_id
 _symmetry_equiv_pos_as_xyz
  1  'x, y, z'
loop_
 _atom_site_type_symbol
 _atom_site_label
 _atom_site_symmetry_multiplicity
 _atom_site_fract_x
 _atom_site_fract_y
 _atom_site_fract_z
 _atom_site_occupancy
  Na  Na0  1  0.99701800  0.49850900  0.50447200  1
  Na  Na1  1  0.00298200  0.00149100  0.99552800  1
  Zr  Zr0  1  0.28132500  0.64066300  0.07801200  1
  Zr  Zr1  1  0.29614000  0.14807000  0.55579100  1
  Zr  Zr2  1  0.70386000  0.35193000  0.94420900  1
  Zr  Zr3  1  0.71867500  0.85933700  0.42198800  1
  As  As0  1  0.50000000  0.03937600  0.75000000  1
  As  As1  1  0.78937600  0.75000000  0.75000000  1
  As  As2  1  0.21062400  0.46062400  0.75000000  1
  P  P0  1  0.20992000  0.25000000  0.25000000  1
  P  P1  1  0.79008000  0.54008000  0.25000000  1
  P  P2  1  0.50000000  0.95992000  0.25000000  1
  O  O0  1  0.34437900  0.78431800  0.24342100  1
  O  O1  1  0.19651800  0.41220000  0.24342100  1
  O  O2  1  0.97226100  0.56006100  0.24342100  1
  O  O3  1  0.99063500  0.92860900  0.74113200  1
  O  O4  1  0.19684200  0.26823300  0.74113200  1
  O  O5  1  0.33025900  0.06202600  0.74113200  1
  O  O6  1  0.66974100  0.23176700  0.75886800  1
  O  O7  1  0.80315800  0.57139100  0.75886800  1
  O  O8  1  0.00936500  0.43797400  0.75886800  1
  O  O9  1  0.02773900  0.08780000  0.25657900  1
  O  O10  1  0.80348200  0.71568200  0.25657900  1
  O  O11  1  0.65562100  0.93993900  0.25657900  1
  O  O12  1  0.35968600  0.86664200  0.93119300  1
  O  O13  1  0.57576400  0.70912200  0.93119300  1
  O  O14  1  0.20216500  0.49304400  0.93119300  1
  O  O15  1  0.20867400  0.20991800  0.41088800  1
  O  O16  1  0.59035600  0.38043800  0.41088800  1
  O  O17  1  0.37919400  0.99875600  0.41088800  1
  O  O18  1  0.62080600  0.11956200  0.08911200  1
  O  O19  1  0.40964400  0.29008200  0.08911200  1
  O  O20  1  0.79132600  0.50124400  0.08911200  1
  O  O21  1  0.79783500  0.79087800  0.56880700  1
  O  O22  1  0.42423600  0.63335800  0.56880700  1
  O  O23  1  0.64031400  0.00695600  0.56880700  1
loop_
_geom_bond_atom_site_label_1
_geom_bond_atom_site_label_2
_geom_bond_distance
_geom_bond_site_symmetry_2
Na0 O6 2.525191 1_555
Na0 O7 2.525193 1_555
Na0 O8 2.525196 1_655
Na0 O2 2.659197 1_555
Na0 O1 2.659200 1_655
Na0 O0 2.659203 1_655
Na1 O5 2.525191 1_555
Na1 O4 2.525193 1_555
Na1 O3 2.525196 1_445
Na1 O9 2.659197 1_556
Na1 O10 2.659200 1_446
Na1 O11 2.659203 1_446
As0 O12 1.702140 1_545
As0 O23 1.702140 1_555
As0 O6 1.703165 1_555
As0 O5 1.703165 1_555
As1 O21 1.702138 1_555
As1 O13 1.702138 1_555
As1 O3 1.703165 1_555
As1 O7 1.703166 1_555
As2 O22 1.702138 1_555
As2 O14 1.702140 1_555
As2 O8 1.703165 1_555
As2 O4 1.703166 1_555
O0 P2 1.550229 1_555
O0 Zr0 2.143003 1_555
O1 P0 1.550229 1_555
O1 Zr0 2.143008 1_555
O2 P1 1.550229 1_555
O2 Zr0 2.143001 1_655
O3 Zr1 2.128639 1_665
O4 Zr1 2.128635 1_555
O5 Zr1 2.128633 1_555
O6 Zr2 2.128633 1_555
O7 Zr2 2.128635 1_555
O8 Zr2 2.128639 1_455
O9 P0 1.550229 1_555
O9 Zr3 2.143003 1_445
O10 P1 1.550229 1_555
O10 Zr3 2.143001 1_555
O11 P2 1.550229 1_555
O11 Zr3 2.143008 1_555
O12 Zr0 2.060576 1_556
O13 Zr0 2.060588 1_556
O14 Zr0 2.060580 1_556
O15 P0 1.551308 1_555
O15 Zr1 2.080159 1_555
O16 P1 1.551308 1_555
O16 Zr1 2.080152 1_555
O17 P2 1.551308 1_555
O17 Zr1 2.080156 1_565
O18 P2 1.551308 1_545
O18 Zr2 2.080156 1_554
O19 P0 1.551308 1_555
O19 Zr2 2.080152 1_554
O20 P1 1.551308 1_555
O20 Zr2 2.080159 1_554
O21 Zr3 2.060580 1_555
O22 Zr3 2.060584 1_555
O23 Zr3 2.060583 1_545
