# generated using pymatgen
data_MgSiO3
_symmetry_space_group_name_H-M   'P 1'
_cell_length_a   6.21283243
_cell_length_b   11.40838000
_cell_length_c   7.79394463
_cell_angle_alpha   90.00000000
_cell_angle_beta   110.66908700
_cell_angle_gamma   90.00000000
_symmetry_Int_Tables_number   1
_chemical_formula_structural   MgSiO3
_chemical_formula_sum   'Mg8 Si8 O24'
_cell_volume   516.86510386
_cell_formula_units_Z   8
loop_
 _symmetry_equiv_pos_site_id
 _symmetry_equiv_pos_as_xyz
  1  'x, y, z'
loop_
 _atom_site_type_symbol
 _atom_site_label
 _atom_site_symmetry_multiplicity
 _atom_site_fract_x
 _atom_site_fract_y
 _atom_site_fract_z
 _atom_site_occupancy
  Mg  Mg0  1  0.91871100  0.95800500  0.72968500  1
  Mg  Mg1  1  0.59303000  0.81555700  0.35838300  1
  Mg  Mg2  1  0.58128900  0.45800500  0.27031500  1
  Mg  Mg3  1  0.08128900  0.04199500  0.27031500  1
  Mg  Mg4  1  0.40697100  0.18444300  0.64161700  1
  Mg  Mg5  1  0.09302900  0.68444300  0.35838300  1
  Mg  Mg6  1  0.90697000  0.31555700  0.64161700  1
  Mg  Mg7  1  0.41871100  0.54199500  0.72968500  1
  Si  Si0  1  0.16842800  0.39645400  0.38178300  1
  Si  Si1  1  0.69123300  0.87631700  0.00102900  1
  Si  Si2  1  0.30876700  0.12368300  0.99897100  1
  Si  Si3  1  0.33157200  0.89645400  0.61821700  1
  Si  Si4  1  0.83157200  0.60354600  0.61821700  1
  Si  Si5  1  0.66842800  0.10354600  0.38178300  1
  Si  Si6  1  0.19123300  0.62368300  0.00102900  1
  Si  Si7  1  0.80876700  0.37631700  0.99897100  1
  O  O0  1  0.22284200  0.52965600  0.46502200  1
  O  O1  1  0.61475500  0.90062800  0.78105900  1
  O  O2  1  0.66621200  0.19267400  0.54699500  1
  O  O3  1  0.38524500  0.09937200  0.21894100  1
  O  O4  1  0.11475500  0.59937200  0.78105900  1
  O  O5  1  0.33224000  0.35772500  0.27353100  1
  O  O6  1  0.51360100  0.84366600  0.09398800  1
  O  O7  1  0.88524500  0.40062800  0.21894100  1
  O  O8  1  0.66776000  0.64227500  0.72646900  1
  O  O9  1  0.45021800  0.59284100  0.10872400  1
  O  O10  1  0.72284200  0.97034400  0.46502200  1
  O  O11  1  0.16776000  0.85772500  0.72646900  1
  O  O12  1  0.77715800  0.47034400  0.53497800  1
  O  O13  1  0.01360100  0.65633400  0.09398800  1
  O  O14  1  0.83378800  0.69267400  0.45300500  1
  O  O15  1  0.83224000  0.14227500  0.27353100  1
  O  O16  1  0.16621200  0.30732600  0.54699500  1
  O  O17  1  0.04978200  0.09284100  0.89127600  1
  O  O18  1  0.48639900  0.15633400  0.90601200  1
  O  O19  1  0.27715800  0.02965600  0.53497800  1
  O  O20  1  0.54978200  0.40715900  0.89127600  1
  O  O21  1  0.33378800  0.80732600  0.45300500  1
  O  O22  1  0.98639900  0.34366600  0.90601200  1
  O  O23  1  0.95021800  0.90715900  0.10872400  1
loop_
_geom_bond_atom_site_label_1
_geom_bond_atom_site_label_2
_geom_bond_distance
_geom_bond_site_symmetry_2
Mg0 O11 1.931568 1_655
Mg0 O17 1.972697 1_665
Mg0 O10 1.995905 1_555
Mg0 O1 2.165351 1_555
Mg1 O6 1.968473 1_555
Mg1 O14 1.991944 1_555
Mg1 O21 1.996329 1_555
Mg1 O10 1.996578 1_555
Mg2 O5 1.931568 1_555
Mg2 O9 1.972697 1_555
Mg2 O12 1.995905 1_555
Mg2 O7 2.165351 1_555
Mg3 O15 1.931568 1_455
Mg3 O23 1.972697 1_445
Mg3 O19 1.995905 1_555
Mg3 O3 2.165351 1_555
Mg4 O18 1.968474 1_555
Mg4 O16 1.991948 1_555
Mg4 O2 1.996323 1_555
Mg4 O19 1.996580 1_555
Mg5 O13 1.968474 1_555
Mg5 O21 1.991948 1_555
Mg5 O14 1.996323 1_455
Mg5 O0 1.996580 1_555
Mg6 O22 1.968473 1_555
Mg6 O2 1.991944 1_555
Mg6 O16 1.996329 1_655
Mg6 O12 1.996578 1_555
Mg7 O8 1.931568 1_555
Mg7 O20 1.972697 1_555
Mg7 O0 1.995905 1_555
Mg7 O4 2.165351 1_555
O0 Si0 1.639997 1_555
O1 Si1 1.633067 1_556
O1 Si3 1.769783 1_555
O2 Si5 1.644582 1_555
O3 Si2 1.633067 1_554
O3 Si5 1.769783 1_555
O4 Si6 1.633067 1_556
O4 Si4 1.769783 1_455
O5 Si0 1.596567 1_555
O6 Si1 1.563988 1_555
O7 Si7 1.633067 1_554
O7 Si0 1.769783 1_655
O8 Si4 1.596567 1_555
O9 Si6 1.569682 1_555
O10 Si5 1.639997 1_565
O11 Si3 1.596567 1_555
O12 Si4 1.639997 1_555
O13 Si6 1.563988 1_555
O14 Si4 1.644582 1_555
O15 Si5 1.596567 1_555
O16 Si0 1.644582 1_555
O17 Si2 1.569682 1_555
O18 Si2 1.563988 1_555
O19 Si3 1.639997 1_545
O20 Si7 1.569682 1_555
O21 Si3 1.644582 1_555
O22 Si7 1.563988 1_555
O23 Si1 1.569682 1_555
