# generated using pymatgen
data_ZrAu3
_symmetry_space_group_name_H-M   'P 1'
_cell_length_a   4.85546140
_cell_length_b   4.91746747
_cell_length_c   6.12116902
_cell_angle_alpha   90.00000000
_cell_angle_beta   90.00000000
_cell_angle_gamma   90.00000000
_symmetry_Int_Tables_number   1
_chemical_formula_structural   ZrAu3
_chemical_formula_sum   'Zr2 Au6'
_cell_volume   146.15254193
_cell_formula_units_Z   2
loop_
 _symmetry_equiv_pos_site_id
 _symmetry_equiv_pos_as_xyz
  1  'x, y, z'
loop_
 _atom_site_type_symbol
 _atom_site_label
 _atom_site_symmetry_multiplicity
 _atom_site_fract_x
 _atom_site_fract_y
 _atom_site_fract_z
 _atom_site_occupancy
  Zr  Zr0  1  0.75000000  0.33908846  0.75000000  1
  Zr  Zr1  1  0.25000000  0.66091154  0.25000000  1
  Au  Au0  1  0.75000000  0.83469553  0.00364038  1
  Au  Au1  1  0.75000000  0.83469553  0.49635962  1
  Au  Au2  1  0.25000000  0.16530447  0.99635962  1
  Au  Au3  1  0.25000000  0.16530447  0.50364038  1
  Au  Au4  1  0.25000000  0.66010364  0.75000000  1
  Au  Au5  1  0.75000000  0.33989636  0.25000000  1
loop_
_geom_bond_atom_site_label_1
_geom_bond_atom_site_label_2
_geom_bond_distance
_geom_bond_site_symmetry_2
Au0 Au5 2.862578 1_555
Au0 Zr0 2.889654 1_554
Au0 Au5 2.906180 1_565
Au0 Au2 2.922149 1_564
Au0 Au2 2.922149 1_664
Au0 Zr0 2.926185 1_564
Au0 Zr1 2.982997 1_555
Au0 Zr1 2.982997 1_655
Au0 Au4 3.006905 1_654
Au0 Au4 3.006905 1_554
Au0 Au1 3.016018 1_555
Au0 Au1 3.105151 1_554
Au1 Au5 2.862578 1_555
Au1 Zr0 2.889654 1_555
Au1 Au5 2.906180 1_565
Au1 Au3 2.922149 1_665
Au1 Au3 2.922149 1_565
Au1 Zr0 2.926185 1_565
Au1 Zr1 2.982997 1_555
Au1 Zr1 2.982997 1_655
Au1 Au4 3.006905 1_655
Au1 Au4 3.006905 1_555
Au2 Au4 2.862578 1_555
Au2 Zr1 2.889654 1_556
Au2 Au4 2.906180 1_545
Au2 Zr1 2.926185 1_546
Au2 Zr0 2.982997 1_455
Au2 Zr0 2.982997 1_555
Au2 Au5 3.006905 1_456
Au2 Au5 3.006905 1_556
Au2 Au3 3.016018 1_555
Au2 Au3 3.105151 1_556
Au3 Au4 2.862578 1_555
Au3 Zr1 2.889654 1_555
Au3 Au4 2.906180 1_545
Au3 Zr1 2.926185 1_545
Au3 Zr0 2.982997 1_455
Au3 Zr0 2.982997 1_555
Au3 Au5 3.006905 1_455
Au3 Au5 3.006905 1_555
Au4 Zr0 2.895824 1_455
Au4 Zr0 2.895824 1_555
Au4 Zr1 3.060587 1_555
Au4 Zr1 3.060587 1_556
Au5 Zr1 2.895824 1_655
Au5 Zr1 2.895824 1_555
Au5 Zr0 3.060587 1_555
Au5 Zr0 3.060587 1_554
