# generated using pymatgen
data_CsSm(NbBr3)6
_symmetry_space_group_name_H-M   'P 1'
_cell_length_a   10.05313399
_cell_length_b   10.05313399
_cell_length_c   18.66805228
_cell_angle_alpha   90.00000000
_cell_angle_beta   90.00000000
_cell_angle_gamma   119.99999743
_symmetry_Int_Tables_number   1
_chemical_formula_structural   CsSm(NbBr3)6
_chemical_formula_sum   'Cs2 Sm2 Nb12 Br36'
_cell_volume   1633.92678889
_cell_formula_units_Z   2
loop_
 _symmetry_equiv_pos_site_id
 _symmetry_equiv_pos_as_xyz
  1  'x, y, z'
loop_
 _atom_site_type_symbol
 _atom_site_label
 _atom_site_symmetry_multiplicity
 _atom_site_fract_x
 _atom_site_fract_y
 _atom_site_fract_z
 _atom_site_occupancy
  Cs  Cs0  1  0.33333300  0.66666700  0.75000000  1
  Cs  Cs1  1  0.66666700  0.33333300  0.25000000  1
  Sm  Sm0  1  0.66666700  0.33333300  0.75000000  1
  Sm  Sm1  1  0.33333300  0.66666700  0.25000000  1
  Nb  Nb0  1  0.96186845  0.14774768  0.93553624  1
  Nb  Nb1  1  0.03813155  0.85225232  0.06446376  1
  Nb  Nb2  1  0.18587923  0.03813155  0.93553624  1
  Nb  Nb3  1  0.18587923  0.14774768  0.56446376  1
  Nb  Nb4  1  0.81412077  0.96186845  0.06446376  1
  Nb  Nb5  1  0.81412077  0.85225232  0.43553624  1
  Nb  Nb6  1  0.85225232  0.81412077  0.93553624  1
  Nb  Nb7  1  0.85225232  0.03813155  0.56446376  1
  Nb  Nb8  1  0.14774768  0.18587923  0.06446376  1
  Nb  Nb9  1  0.14774768  0.96186845  0.43553624  1
  Nb  Nb10  1  0.96186845  0.81412077  0.56446376  1
  Nb  Nb11  1  0.03813155  0.18587923  0.43553624  1
  Br  Br0  1  0.91257448  0.35667651  0.83923137  1
  Br  Br1  1  0.08742552  0.64332349  0.16076863  1
  Br  Br2  1  0.44410203  0.08742552  0.83923137  1
  Br  Br3  1  0.44410203  0.35667651  0.66076863  1
  Br  Br4  1  0.55589797  0.91257448  0.16076863  1
  Br  Br5  1  0.55589797  0.64332349  0.33923137  1
  Br  Br6  1  0.64332349  0.55589797  0.83923137  1
  Br  Br7  1  0.64332349  0.08742552  0.66076863  1
  Br  Br8  1  0.35667651  0.44410203  0.16076863  1
  Br  Br9  1  0.35667651  0.91257448  0.33923137  1
  Br  Br10  1  0.91257448  0.55589797  0.66076863  1
  Br  Br11  1  0.08742552  0.44410203  0.33923137  1
  Br  Br12  1  0.77198868  0.95388433  0.84195051  1
  Br  Br13  1  0.22801132  0.04611567  0.15804949  1
  Br  Br14  1  0.18189564  0.22801132  0.84195051  1
  Br  Br15  1  0.18189564  0.95388433  0.65804949  1
  Br  Br16  1  0.81810436  0.77198868  0.15804949  1
  Br  Br17  1  0.81810436  0.04611567  0.34195051  1
  Br  Br18  1  0.04611567  0.81810436  0.84195051  1
  Br  Br19  1  0.04611567  0.22801132  0.65804949  1
  Br  Br20  1  0.95388433  0.18189564  0.15804949  1
  Br  Br21  1  0.95388433  0.77198868  0.34195051  1
  Br  Br22  1  0.77198868  0.81810436  0.65804949  1
  Br  Br23  1  0.22801132  0.18189564  0.34195051  1
  Br  Br24  1  0.59003365  0.72677449  0.99950272  1
  Br  Br25  1  0.40996635  0.27322551  0.00049728  1
  Br  Br26  1  0.13674084  0.40996635  0.99950272  1
  Br  Br27  1  0.13674084  0.72677449  0.50049728  1
  Br  Br28  1  0.86325916  0.59003365  0.00049728  1
  Br  Br29  1  0.86325916  0.27322551  0.49950272  1
  Br  Br30  1  0.27322551  0.86325916  0.99950272  1
  Br  Br31  1  0.27322551  0.40996635  0.50049728  1
  Br  Br32  1  0.72677449  0.13674084  0.00049728  1
  Br  Br33  1  0.72677449  0.59003365  0.49950272  1
  Br  Br34  1  0.59003365  0.86325916  0.50049728  1
  Br  Br35  1  0.40996635  0.13674084  0.49950272  1
loop_
_geom_bond_atom_site_label_1
_geom_bond_atom_site_label_2
_geom_bond_distance
_geom_bond_site_symmetry_2
Br0 Sm0 2.891576 1_555
Br0 Nb0 2.988353 1_555
Br0 Cs0 4.146918 1_655
Br1 Sm1 2.891576 1_555
Br1 Nb1 2.988353 1_555
Br1 Cs1 4.146918 1_455
Br2 Sm0 2.891580 1_555
Br2 Nb2 2.988353 1_555
Br2 Cs0 4.146915 1_545
Br3 Sm0 2.891584 1_555
Br3 Nb3 2.988353 1_555
Br3 Cs0 4.146924 1_555
Br4 Sm1 2.891580 1_555
Br4 Nb4 2.988353 1_555
Br4 Cs1 4.146915 1_565
Br5 Sm1 2.891584 1_555
Br5 Nb5 2.988353 1_555
Br5 Cs1 4.146924 1_555
Br6 Sm0 2.891584 1_555
Br6 Nb6 2.988353 1_555
Br6 Cs0 4.146924 1_555
Br7 Sm0 2.891576 1_555
Br7 Nb7 2.988353 1_555
Br7 Cs0 4.146918 1_545
Br8 Sm1 2.891584 1_555
Br8 Nb8 2.988353 1_555
Br8 Cs1 4.146924 1_555
Br9 Sm1 2.891576 1_555
Br9 Nb9 2.988353 1_555
Br9 Cs1 4.146918 1_565
Br10 Sm0 2.891580 1_555
Br10 Nb10 2.988353 1_555
Br10 Cs0 4.146915 1_655
Br11 Sm1 2.891580 1_555
Br11 Nb11 2.988353 1_555
Br11 Cs1 4.146915 1_455
Br12 Nb0 2.602716 1_565
Br12 Nb6 2.609840 1_555
Br12 Cs0 4.242344 1_555
Br13 Nb1 2.602716 1_545
Br13 Nb8 2.609840 1_555
Br13 Cs1 4.242344 1_555
Br14 Nb2 2.602716 1_555
Br14 Nb0 2.609840 1_455
Br14 Cs0 4.242346 1_555
Br15 Nb3 2.602716 1_565
Br15 Nb10 2.609840 1_455
Br15 Cs0 4.242337 1_555
Br16 Nb4 2.602716 1_555
Br16 Nb1 2.609840 1_655
Br16 Cs1 4.242346 1_555
Br17 Nb5 2.602716 1_545
Br17 Nb11 2.609840 1_655
Br17 Cs1 4.242337 1_555
Br18 Nb6 2.602716 1_455
Br18 Nb2 2.609840 1_565
Br18 Cs0 4.242337 1_555
Br19 Nb7 2.602716 1_455
Br19 Nb3 2.609840 1_555
Br19 Cs0 4.242344 1_555
Br20 Nb8 2.602716 1_655
Br20 Nb4 2.609840 1_545
Br20 Cs1 4.242337 1_555
Br21 Nb9 2.602716 1_655
Br21 Nb5 2.609840 1_555
Br21 Cs1 4.242344 1_555
Br22 Nb10 2.602716 1_555
Br22 Nb7 2.609840 1_565
Br22 Cs0 4.242346 1_555
Br23 Nb11 2.602716 1_555
Br23 Nb9 2.609840 1_545
Br23 Cs1 4.242346 1_555
Br24 Nb4 2.609054 1_556
Br24 Nb6 2.613685 1_555
Br25 Nb2 2.609054 1_554
Br25 Nb8 2.613685 1_555
Br26 Nb8 2.609054 1_556
Br26 Nb0 2.613685 1_455
Br27 Nb9 2.609054 1_555
Br27 Nb10 2.613685 1_455
Br28 Nb6 2.609054 1_554
Br28 Nb1 2.613685 1_655
Br29 Nb7 2.609054 1_555
Br29 Nb11 2.613685 1_655
Br30 Nb1 2.609054 1_556
Br30 Nb2 2.613685 1_565
Br31 Nb11 2.609054 1_555
Br31 Nb3 2.613685 1_555
Br32 Nb0 2.609054 1_554
Br32 Nb4 2.613685 1_545
Br33 Nb10 2.609054 1_555
Br33 Nb5 2.613685 1_555
Br34 Nb5 2.609054 1_555
Br34 Nb7 2.613685 1_565
Br35 Nb3 2.609054 1_555
Br35 Nb9 2.613685 1_545
