# generated using pymatgen
data_Rb2Ba6Sb5HO
_symmetry_space_group_name_H-M   'P 1'
_cell_length_a   15.57788699
_cell_length_b   15.57788699
_cell_length_c   15.57788699
_cell_angle_alpha   146.80662714
_cell_angle_beta   146.80662714
_cell_angle_gamma   47.65018785
_symmetry_Int_Tables_number   1
_chemical_formula_structural   Rb2Ba6Sb5HO
_chemical_formula_sum   'Rb4 Ba12 Sb10 H2 O2'
_cell_volume   1128.54853283
_cell_formula_units_Z   2
loop_
 _symmetry_equiv_pos_site_id
 _symmetry_equiv_pos_as_xyz
  1  'x, y, z'
loop_
 _atom_site_type_symbol
 _atom_site_label
 _atom_site_symmetry_multiplicity
 _atom_site_fract_x
 _atom_site_fract_y
 _atom_site_fract_z
 _atom_site_occupancy
  Rb  Rb0  1  0.66746967  0.16746967  0.83494034  1
  Rb  Rb1  1  0.33253033  0.83253033  0.16505966  1
  Rb  Rb2  1  0.16746967  0.33253033  0.50000000  1
  Rb  Rb3  1  0.83253033  0.66746967  0.50000000  1
  Ba  Ba0  1  0.46468437  0.96468437  0.81683872  1
  Ba  Ba1  1  0.14784565  0.64784565  0.18316128  1
  Ba  Ba2  1  0.96468437  0.14784565  0.50000000  1
  Ba  Ba3  1  0.64784565  0.46468437  0.50000000  1
  Ba  Ba4  1  0.53531563  0.03531563  0.18316128  1
  Ba  Ba5  1  0.85215435  0.35215435  0.81683872  1
  Ba  Ba6  1  0.03531563  0.85215435  0.50000000  1
  Ba  Ba7  1  0.35215435  0.53531563  0.50000000  1
  Ba  Ba8  1  0.40728357  0.40728357  0.00000000  1
  Ba  Ba9  1  0.90728357  0.90728357  0.00000000  1
  Ba  Ba10  1  0.59271643  0.59271643  0.00000000  1
  Ba  Ba11  1  0.09271643  0.09271643  0.00000000  1
  Sb  Sb0  1  0.01287708  0.51287708  0.73103220  1
  Sb  Sb1  1  0.78184488  0.28184488  0.26896780  1
  Sb  Sb2  1  0.51287708  0.78184488  0.50000000  1
  Sb  Sb3  1  0.28184488  0.01287708  0.50000000  1
  Sb  Sb4  1  0.98712292  0.48712292  0.26896780  1
  Sb  Sb5  1  0.21815512  0.71815512  0.73103220  1
  Sb  Sb6  1  0.48712292  0.21815512  0.50000000  1
  Sb  Sb7  1  0.71815512  0.98712292  0.50000000  1
  Sb  Sb8  1  0.25000000  0.25000000  0.00000000  1
  Sb  Sb9  1  0.75000000  0.75000000  0.00000000  1
  H  H0  1  0.50000000  0.50000000  0.00000000  1
  H  H1  1  -0.00000000  0.00000000  0.00000000  1
  O  O0  1  0.25000000  0.75000000  0.50000000  1
  O  O1  1  0.75000000  0.25000000  0.50000000  1
loop_
_geom_bond_atom_site_label_1
_geom_bond_atom_site_label_2
_geom_bond_distance
_geom_bond_site_symmetry_2
Rb0 Sb3 3.887542 1_555
Rb0 Sb2 3.887542 1_545
Rb0 Sb6 3.887563 1_555
Rb0 Sb7 3.887563 1_545
Rb0 Sb1 4.002067 1_556
Rb0 Sb4 4.002088 1_556
Rb1 Sb6 3.887542 1_565
Rb1 Sb7 3.887542 1_555
Rb1 Sb3 3.887563 1_565
Rb1 Sb2 3.887563 1_555
Rb1 Sb5 4.002067 1_554
Rb1 Sb0 4.002088 1_554
Rb2 Sb0 3.887549 1_555
Rb2 Sb5 3.887549 1_555
Rb2 Sb4 3.887549 1_455
Rb2 Sb1 3.887549 1_455
Rb2 Sb3 4.002082 1_555
Rb2 Sb6 4.002082 1_555
Rb3 Sb1 3.887549 1_555
Rb3 Sb4 3.887549 1_555
Rb3 Sb0 3.887549 1_655
Rb3 Sb5 3.887549 1_655
Rb3 Sb7 4.002082 1_555
Rb3 Sb2 4.002082 1_555
Ba0 O0 2.558622 1_555
Ba0 Sb3 3.581810 1_565
Ba0 Sb2 3.581810 1_555
Ba0 Sb8 3.714729 1_566
Ba0 Sb9 3.714729 1_556
Ba0 Sb1 3.851658 1_566
Ba1 O0 2.558622 1_555
Ba1 Sb3 3.581810 1_565
Ba1 Sb2 3.581810 1_555
Ba1 Sb8 3.714729 1_555
Ba1 Sb9 3.714729 1_455
Ba1 Sb0 3.851658 1_554
Ba2 O1 2.558622 1_555
Ba2 Sb1 3.581810 1_555
Ba2 Sb0 3.581810 1_655
Ba2 Sb8 3.714729 1_656
Ba2 Sb9 3.714729 1_545
Ba2 Sb3 3.851658 1_655
Ba3 O1 2.558622 1_555
Ba3 Sb0 3.581810 1_655
Ba3 Sb1 3.581810 1_555
Ba3 Sb9 3.714729 1_556
Ba3 Sb8 3.714729 1_555
Ba3 Sb2 3.851658 1_555
Ba4 O1 2.558622 1_555
Ba4 Sb7 3.581810 1_545
Ba4 Sb6 3.581810 1_555
Ba4 Sb9 3.714729 1_545
Ba4 Sb8 3.714729 1_555
Ba4 Sb5 3.851658 1_544
Ba5 O1 2.558622 1_555
Ba5 Sb7 3.581810 1_545
Ba5 Sb6 3.581810 1_555
Ba5 Sb8 3.714729 1_656
Ba5 Sb9 3.714729 1_556
Ba5 Sb4 3.851658 1_556
Ba6 O0 2.558622 1_555
Ba6 Sb5 3.581810 1_555
Ba6 Sb4 3.581810 1_455
Ba6 Sb9 3.714729 1_455
Ba6 Sb8 3.714729 1_566
Ba6 Sb7 3.851658 1_455
Ba7 O0 2.558622 1_555
Ba7 Sb4 3.581810 1_455
Ba7 Sb5 3.581810 1_555
Ba7 Sb8 3.714729 1_555
Ba7 Sb9 3.714729 1_556
Ba7 Sb6 3.851658 1_555
Ba8 H0 2.642489 1_555
Ba8 Sb1 3.583833 1_555
Ba8 Sb3 3.583833 1_554
Ba8 Sb2 3.583833 1_555
Ba8 Sb0 3.583833 1_554
Ba9 H1 2.642489 1_665
Ba9 Sb0 3.583833 1_654
Ba9 Sb3 3.583833 1_665
Ba9 Sb1 3.583833 1_565
Ba9 Sb2 3.583833 1_554
Ba10 H0 2.642489 1_555
Ba10 Sb4 3.583833 1_555
Ba10 Sb7 3.583833 1_555
Ba10 Sb6 3.583833 1_554
Ba10 Sb5 3.583833 1_554
Ba11 H1 2.642489 1_555
Ba11 Sb7 3.583833 1_444
Ba11 Sb5 3.583833 1_544
Ba11 Sb6 3.583833 1_555
Ba11 Sb4 3.583833 1_455
Sb0 Sb1 2.907598 1_455
Sb2 Sb3 2.907598 1_565
Sb4 Sb5 2.907598 1_655
Sb6 Sb7 2.907598 1_545
