# generated using pymatgen
data_NaMn2(SiO3)3
_symmetry_space_group_name_H-M   'P 1'
_cell_length_a   6.59149532
_cell_length_b   7.21770076
_cell_length_c   7.50413649
_cell_angle_alpha   99.34530283
_cell_angle_beta   92.98185604
_cell_angle_gamma   88.74935322
_symmetry_Int_Tables_number   1
_chemical_formula_structural   NaMn2(SiO3)3
_chemical_formula_sum   'Na2 Mn4 Si6 O18'
_cell_volume   351.76481205
_cell_formula_units_Z   2
loop_
 _symmetry_equiv_pos_site_id
 _symmetry_equiv_pos_as_xyz
  1  'x, y, z'
loop_
 _atom_site_type_symbol
 _atom_site_label
 _atom_site_symmetry_multiplicity
 _atom_site_fract_x
 _atom_site_fract_y
 _atom_site_fract_z
 _atom_site_occupancy
  Na  Na0  1  0.37662400  0.27768300  0.58311500  1
  Na  Na1  1  0.62345200  0.72222600  0.41707800  1
  Mn  Mn0  1  0.14608900  0.58604600  0.85790100  1
  Mn  Mn1  1  0.85377800  0.41351100  0.14178200  1
  Mn  Mn2  1  0.13355400  0.06826800  0.84121400  1
  Mn  Mn3  1  0.86656000  0.93135500  0.15815800  1
  Si  Si0  1  0.34623500  0.40522100  0.21477300  1
  Si  Si1  1  0.65368400  0.59475700  0.78508300  1
  Si  Si2  1  0.35507800  0.96894200  0.21186200  1
  Si  Si3  1  0.64505900  0.03102100  0.78833800  1
  Si  Si4  1  0.14435500  0.73688500  0.45626000  1
  Si  Si5  1  0.85568600  0.26336700  0.54360000  1
  O  O0  1  0.11091700  0.77737700  0.67349500  1
  O  O1  1  0.88883400  0.22244300  0.32631900  1
  O  O2  1  0.94052100  0.73309100  0.32219000  1
  O  O3  1  0.05951000  0.26812900  0.67762200  1
  O  O4  1  0.56783700  0.47262100  0.18085600  1
  O  O5  1  0.43204700  0.52750300  0.81926000  1
  O  O6  1  0.57382400  0.88422100  0.15703800  1
  O  O7  1  0.42655900  0.11596000  0.84303300  1
  O  O8  1  0.15527500  0.41604000  0.06441200  1
  O  O9  1  0.84461000  0.58394500  0.93550400  1
  O  O10  1  0.16348100  0.91145400  0.06027100  1
  O  O11  1  0.83614100  0.08789600  0.94074500  1
  O  O12  1  0.27215100  0.53555000  0.40743600  1
  O  O13  1  0.72738100  0.46449700  0.59231000  1
  O  O14  1  0.29671700  0.89890400  0.40403200  1
  O  O15  1  0.70396900  0.10112800  0.59635300  1
  O  O16  1  0.35704100  0.19622100  0.27183100  1
  O  O17  1  0.64303200  0.80373900  0.72813100  1
loop_
_geom_bond_atom_site_label_1
_geom_bond_atom_site_label_2
_geom_bond_distance
_geom_bond_site_symmetry_2
Na0 O3 2.247950 1_555
Na0 O16 2.311876 1_555
Na0 O5 2.334228 1_555
Na0 O7 2.435362 1_555
Na0 O15 2.487607 1_555
Na0 O12 2.514507 1_555
Na0 O13 2.693981 1_555
Na0 O14 2.890275 1_545
Na1 O2 2.249714 1_555
Na1 O17 2.310235 1_555
Na1 O4 2.333747 1_555
Na1 O6 2.437184 1_555
Na1 O14 2.484506 1_555
Na1 O13 2.510753 1_555
Na1 O12 2.696246 1_555
Na1 O15 2.892207 1_565
Mn0 O5 1.948780 1_555
Mn0 O9 2.100688 1_455
Mn0 O0 2.109272 1_555
Mn0 O8 2.124949 1_556
Mn0 O3 2.527816 1_555
Mn0 O10 2.582823 1_556
Mn1 O4 1.949912 1_555
Mn1 O8 2.100457 1_655
Mn1 O1 2.108529 1_555
Mn1 O9 2.125666 1_554
Mn1 O2 2.538333 1_555
Mn1 O11 2.579734 1_554
Mn2 O7 1.968123 1_555
Mn2 O3 2.075624 1_555
Mn2 O11 2.127657 1_455
Mn2 O10 2.140776 1_546
Mn2 O0 2.269453 1_545
Mn3 O6 1.965980 1_555
Mn3 O2 2.068767 1_555
Mn3 O10 2.119832 1_655
Mn3 O11 2.129161 1_564
Mn3 O1 2.271838 1_565
O0 Si4 1.634399 1_555
O1 Si5 1.634434 1_555
O2 Si4 1.634060 1_655
O3 Si5 1.633362 1_455
O4 Si0 1.595292 1_555
O5 Si1 1.595639 1_555
O6 Si2 1.601147 1_555
O7 Si3 1.599951 1_555
O8 Si0 1.655338 1_555
O9 Si1 1.655461 1_555
O10 Si2 1.667713 1_555
O11 Si3 1.668273 1_555
O12 Si4 1.661716 1_555
O12 Si0 1.680862 1_555
O13 Si5 1.662081 1_555
O13 Si1 1.680481 1_555
O14 Si4 1.664567 1_555
O14 Si2 1.669146 1_555
O15 Si5 1.664593 1_555
O15 Si3 1.669110 1_555
O16 Si2 1.629193 1_545
O16 Si0 1.632752 1_555
O17 Si3 1.629422 1_565
O17 Si1 1.632290 1_555
