# generated using pymatgen
data_NaMg6MnO8
_symmetry_space_group_name_H-M   'P 1'
_cell_length_a   8.50143848
_cell_length_b   4.33231012
_cell_length_c   4.33231012
_cell_angle_alpha   90.00000000
_cell_angle_beta   90.00000000
_cell_angle_gamma   90.00000000
_symmetry_Int_Tables_number   1
_chemical_formula_structural   NaMg6MnO8
_chemical_formula_sum   'Na1 Mg6 Mn1 O8'
_cell_volume   159.56274200
_cell_formula_units_Z   1
loop_
 _symmetry_equiv_pos_site_id
 _symmetry_equiv_pos_as_xyz
  1  'x, y, z'
loop_
 _atom_site_type_symbol
 _atom_site_label
 _atom_site_symmetry_multiplicity
 _atom_site_fract_x
 _atom_site_fract_y
 _atom_site_fract_z
 _atom_site_occupancy
  Na  Na0  1  0.50000000  0.00000000  0.00000000  1
  Mg  Mg0  1  0.00000000  0.50000000  0.50000000  1
  Mg  Mg1  1  0.50000000  0.50000000  0.50000000  1
  Mg  Mg2  1  0.25929985  0.00000000  0.50000000  1
  Mg  Mg3  1  0.74070015  0.00000000  0.50000000  1
  Mg  Mg4  1  0.25929985  0.50000000  0.00000000  1
  Mg  Mg5  1  0.74070015  0.50000000  0.00000000  1
  Mn  Mn0  1  0.00000000  0.00000000  0.00000000  1
  O  O0  1  0.22557648  0.00000000  0.00000000  1
  O  O1  1  0.77442352  0.00000000  0.00000000  1
  O  O2  1  0.24600346  0.50000000  0.50000000  1
  O  O3  1  0.75399654  0.50000000  0.50000000  1
  O  O4  1  0.00000000  0.00000000  0.50000000  1
  O  O5  1  0.50000000  0.00000000  0.50000000  1
  O  O6  1  0.00000000  0.50000000  0.00000000  1
  O  O7  1  0.50000000  0.50000000  0.00000000  1
loop_
_geom_bond_atom_site_label_1
_geom_bond_atom_site_label_2
_geom_bond_distance
_geom_bond_site_symmetry_2
Na0 O5 2.166155 1_554
Na0 O5 2.166155 1_555
Na0 O7 2.166155 1_545
Na0 O7 2.166155 1_555
Na0 O0 2.332995 1_555
Na0 O1 2.332995 1_555
Mg0 O3 2.091383 1_455
Mg0 O2 2.091383 1_555
Mg0 O4 2.166155 1_555
Mg0 O4 2.166155 1_565
Mg0 O6 2.166155 1_556
Mg0 O6 2.166155 1_555
Mg1 O2 2.159336 1_555
Mg1 O3 2.159336 1_555
Mg1 O7 2.166155 1_556
Mg1 O5 2.166155 1_555
Mg1 O5 2.166155 1_565
Mg1 O7 2.166155 1_555
Mg2 O5 2.046298 1_555
Mg2 O2 2.169102 1_555
Mg2 O2 2.169102 1_545
Mg2 O0 2.185045 1_555
Mg2 O0 2.185045 1_556
Mg2 O4 2.204422 1_555
Mg3 O5 2.046298 1_555
Mg3 O3 2.169102 1_555
Mg3 O3 2.169102 1_545
Mg3 O1 2.185045 1_555
Mg3 O1 2.185045 1_556
Mg3 O4 2.204422 1_655
Mg4 O7 2.046298 1_555
Mg4 O2 2.169102 1_555
Mg4 O2 2.169102 1_554
Mg4 O0 2.185045 1_555
Mg4 O0 2.185045 1_565
Mg4 O6 2.204422 1_555
Mg5 O7 2.046298 1_555
Mg5 O3 2.169102 1_555
Mg5 O3 2.169102 1_554
Mg5 O1 2.185045 1_555
Mg5 O1 2.185045 1_565
Mg5 O6 2.204422 1_655
Mn0 O1 1.917725 1_455
Mn0 O0 1.917725 1_555
Mn0 O4 2.166155 1_555
Mn0 O4 2.166155 1_554
Mn0 O6 2.166155 1_545
Mn0 O6 2.166155 1_555
