# generated using pymatgen
data_KGdF4
_symmetry_space_group_name_H-M   'P 1'
_cell_length_a   3.64344346
_cell_length_b   6.13430024
_cell_length_c   15.38148563
_cell_angle_alpha   90.00000000
_cell_angle_beta   90.00000000
_cell_angle_gamma   90.00000000
_symmetry_Int_Tables_number   1
_chemical_formula_structural   KGdF4
_chemical_formula_sum   'K4 Gd4 F16'
_cell_volume   343.77583608
_cell_formula_units_Z   4
loop_
 _symmetry_equiv_pos_site_id
 _symmetry_equiv_pos_as_xyz
  1  'x, y, z'
loop_
 _atom_site_type_symbol
 _atom_site_label
 _atom_site_symmetry_multiplicity
 _atom_site_fract_x
 _atom_site_fract_y
 _atom_site_fract_z
 _atom_site_occupancy
  K  K0  1  0.75000000  0.77586332  0.79819064  1
  K  K1  1  0.25000000  0.22413668  0.20180936  1
  K  K2  1  0.25000000  0.72413668  0.29819064  1
  K  K3  1  0.75000000  0.27586332  0.70180936  1
  Gd  Gd0  1  0.75000000  0.24890560  0.44011530  1
  Gd  Gd1  1  0.25000000  0.75109440  0.55988470  1
  Gd  Gd2  1  0.25000000  0.25109440  0.94011530  1
  Gd  Gd3  1  0.75000000  0.74890560  0.05988470  1
  F  F0  1  0.75000000  0.89406113  0.63301551  1
  F  F1  1  0.25000000  0.10593887  0.36698449  1
  F  F2  1  0.25000000  0.60593887  0.13301551  1
  F  F3  1  0.75000000  0.39406113  0.86698449  1
  F  F4  1  0.75000000  0.86441433  0.46316478  1
  F  F5  1  0.25000000  0.13558567  0.53683522  1
  F  F6  1  0.25000000  0.63558567  0.96316478  1
  F  F7  1  0.75000000  0.36441433  0.03683522  1
  F  F8  1  0.75000000  0.99568211  0.94223071  1
  F  F9  1  0.25000000  0.00431789  0.05776929  1
  F  F10  1  0.25000000  0.50431789  0.44223071  1
  F  F11  1  0.75000000  0.49568211  0.55776929  1
  F  F12  1  0.75000000  0.90924007  0.19116695  1
  F  F13  1  0.25000000  0.09075993  0.80883305  1
  F  F14  1  0.25000000  0.59075993  0.69116695  1
  F  F15  1  0.75000000  0.40924007  0.30883305  1
loop_
_geom_bond_atom_site_label_1
_geom_bond_atom_site_label_2
_geom_bond_distance
_geom_bond_site_symmetry_2
F0 Gd1 2.313679 1_655
F0 Gd1 2.313679 1_555
F0 K3 2.570032 1_565
F0 K0 2.642075 1_555
F1 Gd0 2.313679 1_455
F1 Gd0 2.313679 1_555
F1 K2 2.570032 1_545
F1 K1 2.642075 1_555
F2 Gd3 2.313679 1_455
F2 Gd3 2.313679 1_555
F2 K1 2.570032 1_555
F2 K2 2.642075 1_555
F3 Gd2 2.313679 1_555
F3 Gd2 2.313679 1_655
F3 K0 2.570032 1_555
F3 K3 2.642075 1_555
F4 Gd0 2.385082 1_565
F4 Gd1 2.452576 1_655
F4 Gd1 2.452576 1_555
F5 Gd1 2.385082 1_545
F5 Gd0 2.452576 1_555
F5 Gd0 2.452576 1_455
F6 Gd2 2.385082 1_555
F6 Gd3 2.452576 1_456
F6 Gd3 2.452576 1_556
F7 Gd3 2.385082 1_555
F7 Gd2 2.452576 1_554
F7 Gd2 2.452576 1_654
F8 Gd3 2.359361 1_556
F8 Gd2 2.403022 1_565
F8 Gd2 2.403022 1_665
F8 K0 2.593634 1_555
F9 Gd2 2.359361 1_554
F9 Gd3 2.403022 1_445
F9 Gd3 2.403022 1_545
F9 K1 2.593634 1_555
F10 Gd1 2.359361 1_555
F10 Gd0 2.403022 1_555
F10 Gd0 2.403022 1_455
F10 K2 2.593634 1_555
F11 Gd0 2.359361 1_555
F11 Gd1 2.403022 1_555
F11 Gd1 2.403022 1_655
F11 K3 2.593634 1_555
F12 Gd3 2.246105 1_555
F12 K1 2.660229 1_565
F12 K1 2.660229 1_665
F12 K2 2.705162 1_655
F12 K2 2.705162 1_555
F13 Gd2 2.246105 1_555
F13 K0 2.660229 1_545
F13 K0 2.660229 1_445
F13 K3 2.705162 1_455
F13 K3 2.705162 1_555
F14 Gd1 2.246105 1_555
F14 K3 2.660229 1_455
F14 K3 2.660229 1_555
F14 K0 2.705162 1_455
F14 K0 2.705162 1_555
F15 Gd0 2.246105 1_555
F15 K2 2.660229 1_655
F15 K2 2.660229 1_555
F15 K1 2.705162 1_655
F15 K1 2.705162 1_555
