# generated using pymatgen
data_Ca19Mg(AsO4)14
_symmetry_space_group_name_H-M   'P 1'
_cell_length_a   10.89974738
_cell_length_b   10.89974749
_cell_length_c   14.20154735
_cell_angle_alpha   89.99999997
_cell_angle_beta   67.43370756
_cell_angle_gamma   119.99999754
_symmetry_Int_Tables_number   1
_chemical_formula_structural   Ca19Mg(AsO4)14
_chemical_formula_sum   'Ca19 Mg1 As14 O56'
_cell_volume   1309.87998079
_cell_formula_units_Z   1
loop_
 _symmetry_equiv_pos_site_id
 _symmetry_equiv_pos_as_xyz
  1  'x, y, z'
loop_
 _atom_site_type_symbol
 _atom_site_label
 _atom_site_symmetry_multiplicity
 _atom_site_fract_x
 _atom_site_fract_y
 _atom_site_fract_z
 _atom_site_occupancy
  Ca  Ca0  1  0.23452998  0.40696806  0.93168133  1
  Ca  Ca1  1  0.24075674  0.83378868  0.93168133  1
  Ca  Ca2  1  0.66135061  0.82756193  0.93168133  1
  Ca  Ca3  1  0.66010460  0.33241086  0.43547554  1
  Ca  Ca4  1  0.23683072  0.90441987  0.43547554  1
  Ca  Ca5  1  0.23211361  0.32769374  0.43547554  1
  Ca  Ca6  1  0.80092163  0.09940474  0.53771524  1
  Ca  Ca7  1  0.76076787  0.66136313  0.53771524  1
  Ca  Ca8  1  0.36288002  0.70151689  0.53771524  1
  Ca  Ca9  1  0.36322513  0.16188268  0.03507431  1
  Ca  Ca10  1  0.76358324  0.60170056  0.03507431  1
  Ca  Ca11  1  0.80304301  0.20134245  0.03507431  1
  Ca  Ca12  1  0.00224034  0.28948417  0.25571320  1
  Ca  Ca13  1  0.03153063  0.74204645  0.25571320  1
  Ca  Ca14  1  0.45480263  0.71275617  0.25571320  1
  Ca  Ca15  1  0.45405590  0.24076622  0.75614265  1
  Ca  Ca16  1  0.03056766  0.78980145  0.75614265  1
  Ca  Ca17  1  0.00309113  0.21328968  0.75614265  1
  Ca  Ca18  1  0.51077341  0.25538670  0.23383989  1
  Mg  Mg0  1  0.51038515  0.75519258  0.73442227  1
  As  As0  1  0.64031642  0.07454842  0.82628587  1
  As  As1  1  0.60794613  0.53339771  0.82628587  1
  As  As2  1  0.09916571  0.56576800  0.82628587  1
  As  As3  1  0.09126507  0.02937065  0.33027709  1
  As  As4  1  0.60782849  0.57845784  0.33027709  1
  As  As5  1  0.64035226  0.06189442  0.33027709  1
  As  As6  1  0.42182767  0.93210209  0.13338350  1
  As  As7  1  0.37689092  0.44478883  0.13338350  1
  As  As8  1  0.93451441  0.48972558  0.13338350  1
  As  As9  1  0.92564939  0.94168761  0.63793477  1
  As  As10  1  0.37810344  0.43641583  0.63793477  1
  As  As11  1  0.42037761  0.98396178  0.63793477  1
  As  As12  1  0.99780916  0.49890458  0.50328627  1
  As  As13  1  0.99831514  0.99915757  0.00252729  1
  O  O0  1  0.88622027  0.53156018  0.46024046  1
  O  O1  1  0.18509945  0.65353927  0.46024046  1
  O  O2  1  0.00819935  0.35466009  0.46024046  1
  O  O3  1  0.00802080  0.15284299  0.95897603  1
  O  O4  1  0.18584616  0.03300317  0.95897603  1
  O  O5  1  0.88818099  0.85517782  0.95897603  1
  O  O6  1  0.56360218  0.89115800  0.10113267  1
  O  O7  1  0.22642314  0.33526515  0.10113267  1
  O  O8  1  0.00770933  0.67244418  0.10113267  1
  O  O9  1  0.00234968  0.83480762  0.60220144  1
  O  O10  1  0.23025651  0.39544888  0.60220144  1
  O  O11  1  0.56299094  0.16754206  0.60220144  1
  O  O12  1  0.51964321  0.88807787  0.84272162  1
  O  O13  1  0.52571304  0.63763517  0.84272162  1
  O  O14  1  0.26920051  0.63156534  0.84272162  1
  O  O15  1  0.25255467  0.13044536  0.35598189  1
  O  O16  1  0.52190880  0.39146344  0.35598189  1
  O  O17  1  0.51357275  0.12210931  0.35598189  1
  O  O18  1  0.31036215  0.88618949  0.06679063  1
  O  O19  1  0.50903672  0.62284722  0.06679063  1
  O  O20  1  0.04701988  0.42417265  0.06679063  1
  O  O21  1  0.03693234  0.11862352  0.56859216  1
  O  O22  1  0.51309901  0.39447549  0.56859216  1
  O  O23  1  0.31278432  0.91830883  0.56859216  1
  O  O24  1  0.52250793  0.14294805  0.86498971  1
  O  O25  1  0.75545041  0.61250237  0.86498971  1
  O  O26  1  0.99206225  0.37955988  0.86498971  1
  O  O27  1  0.98350030  0.10756098  0.36562436  1
  O  O28  1  0.75843632  0.65087534  0.36562436  1
  O  O29  1  0.52681466  0.87593932  0.36562436  1
  O  O30  1  0.52105220  0.12007459  0.11047459  1
  O  O31  1  0.48854780  0.36847321  0.11047459  1
  O  O32  1  0.76945082  0.40097761  0.11047459  1
  O  O33  1  0.75280718  0.86115218  0.62359136  1
  O  O34  1  0.48475364  0.62360147  0.62359136  1
  O  O35  1  0.51525647  0.89165500  0.62359136  1
  O  O36  1  0.73842101  0.08762243  0.90078835  1
  O  O37  1  0.44841308  0.36079064  0.90078835  1
  O  O38  1  0.01158922  0.65079858  0.90078835  1
  O  O39  1  0.00465339  0.85565721  0.40243105  1
  O  O40  1  0.44857277  0.59291556  0.40243105  1
  O  O41  1  0.74191174  0.14899618  0.40243105  1
  O  O42  1  0.79014379  0.15445132  0.70128586  1
  O  O43  1  0.66302167  0.50857034  0.70128586  1
  O  O44  1  0.14426282  0.63569247  0.70128586  1
  O  O45  1  0.14876426  0.01158606  0.20329037  1
  O  O46  1  0.65953142  0.64794536  0.20329037  1
  O  O47  1  0.78512357  0.13717820  0.20329037  1
  O  O48  1  0.90641266  0.45320633  0.64038100  1
  O  O49  1  0.90703931  0.95351965  0.13944104  1
  O  O50  1  0.29004064  0.83534114  0.26283293  1
  O  O51  1  0.28246757  0.44712643  0.26283293  1
  O  O52  1  0.90182593  0.45469950  0.26283293  1
  O  O53  1  0.90388313  0.94856444  0.76473843  1
  O  O54  1  0.27994288  0.33137844  0.76473843  1
  O  O55  1  0.28669714  0.95531870  0.76473843  1
loop_
_geom_bond_atom_site_label_1
_geom_bond_atom_site_label_2
_geom_bond_distance
_geom_bond_site_symmetry_2
Ca0 O20 2.295084 1_556
Ca0 O54 2.460057 1_555
Ca0 O7 2.485450 1_556
Ca0 O37 2.503802 1_555
Ca0 O3 2.518915 1_555
Ca0 O14 2.537779 1_555
Ca0 O13 2.633132 1_555
Ca1 O18 2.295085 1_556
Ca1 O55 2.460057 1_555
Ca1 O8 2.485450 1_556
Ca1 O38 2.503802 1_555
Ca1 O4 2.518915 1_565
Ca1 O12 2.537779 1_555
Ca1 O14 2.633131 1_555
Ca2 O19 2.295085 1_556
Ca2 O53 2.460057 1_555
Ca2 O6 2.485450 1_556
Ca2 O36 2.503802 1_565
Ca2 O5 2.518915 1_555
Ca2 O13 2.537779 1_555
Ca2 O12 2.633131 1_555
Ca3 O22 2.314737 1_555
Ca3 O11 2.475942 1_555
Ca3 O0 2.495039 1_555
Ca3 O16 2.496480 1_555
Ca3 O52 2.501977 1_555
Ca3 O41 2.544301 1_555
Ca3 O17 2.608171 1_555
Ca4 O23 2.314737 1_555
Ca4 O9 2.475942 1_555
Ca4 O1 2.495039 1_555
Ca4 O17 2.496480 1_565
Ca4 O50 2.501977 1_555
Ca4 O39 2.544301 1_555
Ca4 O15 2.608171 1_565
Ca5 O21 2.314737 1_555
Ca5 O10 2.475942 1_555
Ca5 O2 2.495039 1_555
Ca5 O15 2.496480 1_555
Ca5 O51 2.501977 1_555
Ca5 O40 2.544301 1_555
Ca5 O16 2.608171 1_555
Ca6 O42 2.372964 1_555
Ca6 O41 2.386033 1_555
Ca6 O2 2.421154 1_655
Ca6 O27 2.455891 1_555
Ca6 O35 2.518886 1_545
Ca6 O33 2.579429 1_545
Ca6 O21 2.679661 1_655
Ca6 O11 2.866901 1_555
Ca7 O43 2.372964 1_555
Ca7 O39 2.386033 1_655
Ca7 O0 2.421154 1_555
Ca7 O28 2.455891 1_555
Ca7 O33 2.518886 1_555
Ca7 O34 2.579429 1_555
Ca7 O22 2.679661 1_555
Ca7 O9 2.866901 1_655
Ca8 O44 2.372964 1_555
Ca8 O40 2.386033 1_555
Ca8 O1 2.421154 1_555
Ca8 O29 2.455891 1_555
Ca8 O34 2.518885 1_555
Ca8 O35 2.579429 1_555
Ca8 O23 2.679661 1_555
Ca8 O10 2.866901 1_555
Ca9 O45 2.395733 1_555
Ca9 O4 2.401453 1_554
Ca9 O37 2.413988 1_554
Ca9 O24 2.455802 1_554
Ca9 O31 2.475841 1_555
Ca9 O30 2.551734 1_555
Ca9 O18 2.763001 1_545
Ca9 O7 2.901592 1_555
Ca10 O46 2.395733 1_555
Ca10 O5 2.401453 1_554
Ca10 O38 2.413988 1_654
Ca10 O25 2.455802 1_554
Ca10 O32 2.475840 1_555
Ca10 O31 2.551734 1_555
Ca10 O19 2.763001 1_555
Ca10 O8 2.901592 1_655
Ca11 O47 2.395733 1_555
Ca11 O3 2.401453 1_654
Ca11 O36 2.413988 1_554
Ca11 O26 2.455802 1_554
Ca11 O30 2.475840 1_555
Ca11 O32 2.551734 1_555
Ca11 O20 2.763001 1_655
Ca11 O6 2.901592 1_545
Ca12 O7 2.388037 1_555
Ca12 O27 2.400079 1_455
Ca12 O41 2.419719 1_455
Ca12 O47 2.516775 1_455
Ca12 O52 2.517353 1_455
Ca12 O51 2.698297 1_555
Ca12 O20 2.805405 1_555
Ca12 O2 3.007368 1_555
Ca13 O8 2.388037 1_555
Ca13 O28 2.400079 1_455
Ca13 O39 2.419719 1_555
Ca13 O45 2.516775 1_565
Ca13 O50 2.517353 1_555
Ca13 O52 2.698297 1_455
Ca13 O18 2.805405 1_555
Ca13 O0 3.007368 1_455
Ca14 O6 2.388038 1_555
Ca14 O29 2.400079 1_555
Ca14 O40 2.419719 1_555
Ca14 O46 2.516775 1_555
Ca14 O51 2.517353 1_555
Ca14 O50 2.698297 1_555
Ca14 O19 2.805405 1_555
Ca14 O1 3.007368 1_555
Ca15 O24 2.400754 1_555
Ca15 O11 2.404513 1_555
Ca15 O37 2.432790 1_555
Ca15 O54 2.507688 1_555
Ca15 O43 2.510949 1_555
Ca15 O55 2.678854 1_545
Ca15 O22 2.814530 1_555
Ca15 O4 2.981397 1_555
Ca16 O25 2.400754 1_455
Ca16 O9 2.404513 1_555
Ca16 O38 2.432790 1_555
Ca16 O55 2.507688 1_555
Ca16 O44 2.510949 1_555
Ca16 O53 2.678854 1_455
Ca16 O23 2.814530 1_555
Ca16 O5 2.981397 1_455
Ca17 O26 2.400754 1_455
Ca17 O10 2.404514 1_555
Ca17 O36 2.432790 1_455
Ca17 O53 2.507688 1_445
Ca17 O42 2.510949 1_455
Ca17 O54 2.678855 1_555
Ca17 O21 2.814529 1_555
Ca17 O3 2.981397 1_555
Ca18 O17 2.281456 1_555
Ca18 O16 2.281456 1_555
Ca18 O15 2.281456 1_555
Ca18 O30 2.296041 1_555
Ca18 O32 2.296041 1_555
Ca18 O31 2.296041 1_555
Mg0 O12 2.108685 1_555
Mg0 O14 2.108685 1_555
Mg0 O13 2.108685 1_555
Mg0 O35 2.132947 1_555
Mg0 O34 2.132947 1_555
Mg0 O33 2.132947 1_555
As0 O24 1.709516 1_555
As0 O42 1.711567 1_555
As0 O36 1.731814 1_555
As0 O12 1.733934 1_545
As1 O25 1.709516 1_555
As1 O43 1.711567 1_555
As1 O37 1.731814 1_555
As1 O13 1.733934 1_555
As2 O26 1.709516 1_455
As2 O44 1.711567 1_555
As2 O38 1.731814 1_555
As2 O14 1.733934 1_555
As3 O27 1.704861 1_455
As3 O45 1.713670 1_555
As3 O15 1.730135 1_555
As3 O39 1.731004 1_545
As4 O28 1.704861 1_555
As4 O46 1.713670 1_555
As4 O16 1.730135 1_555
As4 O40 1.731004 1_555
As5 O29 1.704861 1_545
As5 O47 1.713670 1_555
As5 O17 1.730134 1_555
As5 O41 1.731004 1_555
As6 O18 1.701405 1_555
As6 O6 1.715616 1_555
As6 O30 1.728409 1_565
As6 O50 1.735973 1_555
As7 O19 1.701405 1_555
As7 O7 1.715616 1_555
As7 O31 1.728409 1_555
As7 O51 1.735973 1_555
As8 O20 1.701405 1_655
As8 O8 1.715616 1_655
As8 O32 1.728409 1_555
As8 O52 1.735973 1_555
As9 O21 1.704213 1_665
As9 O9 1.721017 1_655
As9 O53 1.730518 1_555
As9 O33 1.732644 1_555
As10 O22 1.704213 1_555
As10 O10 1.721017 1_555
As10 O54 1.730518 1_555
As10 O34 1.732644 1_555
As11 O23 1.704213 1_555
As11 O11 1.721017 1_565
As11 O55 1.730518 1_555
As11 O35 1.732644 1_555
As12 O2 1.727240 1_655
As12 O1 1.727240 1_655
As12 O0 1.727240 1_555
As12 O48 1.745375 1_555
As13 O5 1.724055 1_554
As13 O4 1.724055 1_664
As13 O3 1.724055 1_664
As13 O49 1.743071 1_555
