# generated using pymatgen
data_Ba2TbCl7
_symmetry_space_group_name_H-M   'P 1'
_cell_length_a   15.64894264
_cell_length_b   6.86994987
_cell_length_c   10.60238590
_cell_angle_alpha   89.38119263
_cell_angle_beta   90.00000000
_cell_angle_gamma   90.00000000
_symmetry_Int_Tables_number   1
_chemical_formula_structural   Ba2TbCl7
_chemical_formula_sum   'Ba8 Tb4 Cl28'
_cell_volume   1139.76901122
_cell_formula_units_Z   4
loop_
 _symmetry_equiv_pos_site_id
 _symmetry_equiv_pos_as_xyz
  1  'x, y, z'
loop_
 _atom_site_type_symbol
 _atom_site_label
 _atom_site_symmetry_multiplicity
 _atom_site_fract_x
 _atom_site_fract_y
 _atom_site_fract_z
 _atom_site_occupancy
  Ba  Ba0  1  0.27978725  0.23496427  0.54892812  1
  Ba  Ba1  1  0.72021275  0.76503573  0.45107188  1
  Ba  Ba2  1  0.77978725  0.76503573  0.95107188  1
  Ba  Ba3  1  0.22021275  0.23496427  0.04892812  1
  Ba  Ba4  1  0.43916942  0.76516176  0.82353745  1
  Ba  Ba5  1  0.56083058  0.23483824  0.17646255  1
  Ba  Ba6  1  0.93916942  0.23483824  0.67646255  1
  Ba  Ba7  1  0.06083058  0.76516176  0.32353745  1
  Tb  Tb0  1  0.12720580  0.71799562  0.78153304  1
  Tb  Tb1  1  0.87279420  0.28200438  0.21846696  1
  Tb  Tb2  1  0.62720580  0.28200438  0.71846696  1
  Tb  Tb3  1  0.37279420  0.71799562  0.28153304  1
  Cl  Cl0  1  0.07075504  0.37027259  0.87639591  1
  Cl  Cl1  1  0.92924496  0.62972741  0.12360409  1
  Cl  Cl2  1  0.57075504  0.62972741  0.62360409  1
  Cl  Cl3  1  0.42924496  0.37027259  0.37639591  1
  Cl  Cl4  1  0.10490814  0.98756811  0.58505004  1
  Cl  Cl5  1  0.89509186  0.01243189  0.41494996  1
  Cl  Cl6  1  0.60490814  0.01243189  0.91494996  1
  Cl  Cl7  1  0.39509186  0.98756811  0.08505004  1
  Cl  Cl8  1  0.95938445  0.79552219  0.78761817  1
  Cl  Cl9  1  0.04061555  0.20447781  0.21238183  1
  Cl  Cl10  1  0.45938445  0.20447781  0.71238183  1
  Cl  Cl11  1  0.54061555  0.79552219  0.28761817  1
  Cl  Cl12  1  0.36037360  0.79166481  0.52932809  1
  Cl  Cl13  1  0.63962640  0.20833519  0.47067191  1
  Cl  Cl14  1  0.86037360  0.20833519  0.97067191  1
  Cl  Cl15  1  0.13962640  0.79166481  0.02932809  1
  Cl  Cl16  1  0.25773772  0.98891976  0.80195206  1
  Cl  Cl17  1  0.74226228  0.01108024  0.19804794  1
  Cl  Cl18  1  0.75773772  0.01108024  0.69804794  1
  Cl  Cl19  1  0.24226228  0.98891976  0.30195206  1
  Cl  Cl20  1  0.27272796  0.50006031  0.79464129  1
  Cl  Cl21  1  0.72727204  0.49993969  0.20535871  1
  Cl  Cl22  1  0.77272796  0.49993969  0.70535871  1
  Cl  Cl23  1  0.22727204  0.50006031  0.29464129  1
  Cl  Cl24  1  0.10431080  0.49876164  0.57046898  1
  Cl  Cl25  1  0.89568920  0.50123836  0.42953102  1
  Cl  Cl26  1  0.60431080  0.50123836  0.92953102  1
  Cl  Cl27  1  0.39568920  0.49876164  0.07046898  1
loop_
_geom_bond_atom_site_label_1
_geom_bond_atom_site_label_2
_geom_bond_distance
_geom_bond_site_symmetry_2
Ba0 Cl3 3.105441 1_555
Ba0 Cl16 3.174102 1_545
Ba0 Cl19 3.186585 1_545
Ba0 Cl20 3.196596 1_555
Ba0 Cl4 3.242010 1_545
Ba0 Cl24 3.299404 1_555
Ba0 Cl12 3.304836 1_545
Ba0 Cl10 3.307304 1_555
Ba0 Cl23 3.339871 1_555
Ba1 Cl2 3.105441 1_555
Ba1 Cl17 3.174102 1_565
Ba1 Cl18 3.186585 1_565
Ba1 Cl21 3.196596 1_555
Ba1 Cl5 3.242010 1_565
Ba1 Cl25 3.299404 1_555
Ba1 Cl13 3.304836 1_565
Ba1 Cl11 3.307304 1_555
Ba1 Cl22 3.339871 1_555
Ba2 Cl1 3.105441 1_556
Ba2 Cl18 3.174102 1_565
Ba2 Cl17 3.186585 1_566
Ba2 Cl22 3.196596 1_555
Ba2 Cl6 3.242010 1_565
Ba2 Cl26 3.299404 1_555
Ba2 Cl14 3.304836 1_565
Ba2 Cl8 3.307304 1_555
Ba2 Cl21 3.339871 1_556
Ba3 Cl0 3.105441 1_554
Ba3 Cl19 3.174102 1_545
Ba3 Cl16 3.186585 1_544
Ba3 Cl23 3.196596 1_555
Ba3 Cl7 3.242010 1_545
Ba3 Cl27 3.299404 1_555
Ba3 Cl15 3.304836 1_545
Ba3 Cl9 3.307304 1_555
Ba3 Cl20 3.339871 1_554
Ba4 Cl2 3.105146 1_555
Ba4 Cl20 3.194827 1_555
Ba4 Cl16 3.235571 1_555
Ba4 Cl10 3.243601 1_565
Ba4 Cl27 3.250108 1_556
Ba4 Cl6 3.253849 1_565
Ba4 Cl7 3.254144 1_556
Ba4 Cl26 3.344384 1_555
Ba4 Cl12 3.357307 1_555
Ba5 Cl3 3.105146 1_555
Ba5 Cl21 3.194827 1_555
Ba5 Cl17 3.235571 1_555
Ba5 Cl11 3.243601 1_545
Ba5 Cl26 3.250108 1_554
Ba5 Cl7 3.253849 1_545
Ba5 Cl6 3.254144 1_554
Ba5 Cl27 3.344384 1_555
Ba5 Cl13 3.357307 1_555
Ba6 Cl0 3.105146 1_655
Ba6 Cl22 3.194827 1_555
Ba6 Cl18 3.235571 1_555
Ba6 Cl8 3.243601 1_545
Ba6 Cl25 3.250108 1_555
Ba6 Cl4 3.253849 1_645
Ba6 Cl5 3.254144 1_555
Ba6 Cl24 3.344384 1_655
Ba6 Cl14 3.357307 1_555
Ba7 Cl1 3.105146 1_455
Ba7 Cl23 3.194827 1_555
Ba7 Cl19 3.235571 1_555
Ba7 Cl9 3.243601 1_565
Ba7 Cl24 3.250108 1_555
Ba7 Cl5 3.253849 1_465
Ba7 Cl4 3.254144 1_555
Ba7 Cl25 3.344384 1_455
Ba7 Cl15 3.357307 1_555
Cl0 Tb0 2.728850 1_555
Cl1 Tb1 2.728850 1_555
Cl2 Tb2 2.728850 1_555
Cl3 Tb3 2.728850 1_555
Cl4 Tb0 2.794247 1_555
Cl5 Tb1 2.794247 1_555
Cl6 Tb2 2.794247 1_555
Cl7 Tb3 2.794247 1_555
Cl8 Tb0 2.680604 1_655
Cl9 Tb1 2.680604 1_455
Cl10 Tb2 2.680604 1_555
Cl11 Tb3 2.680604 1_555
Cl12 Tb3 2.687921 1_555
Cl13 Tb2 2.687921 1_555
Cl14 Tb1 2.687921 1_556
Cl15 Tb0 2.687921 1_554
Cl16 Tb0 2.773506 1_555
Cl17 Tb1 2.773506 1_555
Cl18 Tb2 2.773506 1_555
Cl19 Tb3 2.773506 1_555
Cl20 Tb0 2.728075 1_555
Cl21 Tb1 2.728075 1_555
Cl22 Tb2 2.728075 1_555
Cl23 Tb3 2.728075 1_555
Cl24 Tb0 2.734457 1_555
Cl25 Tb1 2.734457 1_555
Cl26 Tb2 2.734457 1_555
Cl27 Tb3 2.734457 1_555
