# generated using pymatgen
data_SmCo4Ag
_symmetry_space_group_name_H-M   'P 1'
_cell_length_a   4.14045400
_cell_length_b   5.10234100
_cell_length_c   5.10434596
_cell_angle_alpha   60.01411789
_cell_angle_beta   90.00000000
_cell_angle_gamma   90.00000000
_symmetry_Int_Tables_number   1
_chemical_formula_structural   SmCo4Ag
_chemical_formula_sum   'Sm1 Co4 Ag1'
_cell_volume   93.40065963
_cell_formula_units_Z   1
loop_
 _symmetry_equiv_pos_site_id
 _symmetry_equiv_pos_as_xyz
  1  'x, y, z'
loop_
 _atom_site_type_symbol
 _atom_site_label
 _atom_site_symmetry_multiplicity
 _atom_site_fract_x
 _atom_site_fract_y
 _atom_site_fract_z
 _atom_site_occupancy
  Sm  Sm0  1  0.00000000  0.00001400  0.99996400  1
  Co  Co0  1  0.00000000  0.66651700  0.66685900  1
  Co  Co1  1  0.50000000  0.50879600  0.50875700  1
  Co  Co2  1  0.50000000  0.50876900  0.98245700  1
  Co  Co3  1  0.50000000  0.98243400  0.50876300  1
  Ag  Ag0  1  0.00000000  0.33337000  0.33330000  1
loop_
_geom_bond_atom_site_label_1
_geom_bond_atom_site_label_2
_geom_bond_distance
_geom_bond_site_symmetry_2
Co0 Co2 2.496536 1_555
Co0 Co2 2.496536 1_455
Co0 Co1 2.496773 1_455
Co0 Co1 2.496773 1_555
Co0 Co3 2.497019 1_455
Co0 Co3 2.497019 1_555
Co0 Sm0 2.945534 1_555
Co0 Sm0 2.945921 1_565
Co0 Sm0 2.948424 1_564
Co1 Co3 2.416678 1_555
Co1 Co2 2.417860 1_555
Co1 Co3 2.685663 1_545
Co1 Co2 2.686486 1_554
Co1 Sm0 3.287150 1_555
Co1 Sm0 3.287150 1_655
Co1 Sm0 3.287249 1_664
Co1 Sm0 3.287249 1_564
Co2 Co3 2.417865 1_555
Co2 Co3 2.686568 1_546
Co2 Sm0 3.286374 1_565
Co2 Sm0 3.286374 1_665
Co2 Sm0 3.286388 1_655
Co2 Sm0 3.286388 1_555
Co3 Sm0 3.287102 1_565
Co3 Sm0 3.287102 1_665
Co3 Sm0 3.287231 1_664
Co3 Sm0 3.287231 1_564
Ag0 Co1 2.586579 1_555
Ag0 Co1 2.586579 1_455
Ag0 Co3 2.586735 1_445
Ag0 Co3 2.586735 1_545
Ag0 Co2 2.586854 1_454
Ag0 Co2 2.586854 1_554
Ag0 Sm0 2.946157 1_564
Ag0 Sm0 2.946319 1_554
Ag0 Co0 2.946382 1_555
Ag0 Co0 2.946417 1_554
Ag0 Co0 2.947081 1_545
Ag0 Sm0 2.947403 1_555
