# generated using pymatgen
data_Mg6ZrMn
_symmetry_space_group_name_H-M   'P 1'
_cell_length_a   4.99401800
_cell_length_b   6.14064800
_cell_length_c   11.18471400
_cell_angle_alpha   90.00000000
_cell_angle_beta   90.00000000
_cell_angle_gamma   90.00000000
_symmetry_Int_Tables_number   1
_chemical_formula_structural   Mg6ZrMn
_chemical_formula_sum   'Mg12 Zr2 Mn2'
_cell_volume   342.99610619
_cell_formula_units_Z   2
loop_
 _symmetry_equiv_pos_site_id
 _symmetry_equiv_pos_as_xyz
  1  'x, y, z'
loop_
 _atom_site_type_symbol
 _atom_site_label
 _atom_site_symmetry_multiplicity
 _atom_site_fract_x
 _atom_site_fract_y
 _atom_site_fract_z
 _atom_site_occupancy
  Mg  Mg0  1  0.50000000  0.25161300  0.42180100  1
  Mg  Mg1  1  0.50000000  0.74838700  0.42180100  1
  Mg  Mg2  1  0.00000000  0.75214800  0.08510800  1
  Mg  Mg3  1  0.00000000  0.24785200  0.08510800  1
  Mg  Mg4  1  0.00000000  0.00000000  0.31955500  1
  Mg  Mg5  1  0.00000000  0.50000000  0.33155100  1
  Mg  Mg6  1  0.50000000  0.75161300  0.92180100  1
  Mg  Mg7  1  0.50000000  0.24838700  0.92180100  1
  Mg  Mg8  1  0.00000000  0.25214800  0.58510800  1
  Mg  Mg9  1  0.00000000  0.74785200  0.58510800  1
  Mg  Mg10  1  0.00000000  0.50000000  0.81955500  1
  Mg  Mg11  1  0.00000000  0.00000000  0.83155100  1
  Zr  Zr0  1  0.50000000  0.50000000  0.17433600  1
  Zr  Zr1  1  0.50000000  0.00000000  0.67433600  1
  Mn  Mn0  1  0.50000000  0.00000000  0.16073500  1
  Mn  Mn1  1  0.50000000  0.50000000  0.66073500  1
loop_
_geom_bond_atom_site_label_1
_geom_bond_atom_site_label_2
_geom_bond_distance
_geom_bond_site_symmetry_2
Mg0 Mg1 3.050514 1_555
Mg0 Mn1 3.077040 1_555
Mg0 Mg1 3.090134 1_545
Mg0 Mg8 3.093755 1_555
Mg0 Mg8 3.093755 1_655
Mg0 Mg5 3.095221 1_655
Mg0 Mg5 3.095221 1_555
Mg0 Mg4 3.151204 1_655
Mg0 Mg4 3.151204 1_555
Mg0 Zr0 3.160264 1_555
Mg0 Zr1 3.219505 1_555
Mg0 Mn0 3.303533 1_555
Mg1 Mn1 3.077040 1_555
Mg1 Mg9 3.093755 1_555
Mg1 Mg9 3.093755 1_655
Mg1 Mg5 3.095221 1_655
Mg1 Mg5 3.095221 1_555
Mg1 Mg4 3.151204 1_665
Mg1 Mg4 3.151204 1_565
Mg1 Zr0 3.160264 1_555
Mg1 Zr1 3.219505 1_565
Mg1 Mn0 3.303533 1_565
Mg2 Mg4 3.031905 1_565
Mg2 Mg3 3.043944 1_565
Mg2 Mn0 3.044165 1_565
Mg2 Mn0 3.044165 1_465
Mg2 Mg6 3.093755 1_554
Mg2 Mg6 3.093755 1_454
Mg2 Mg3 3.096704 1_555
Mg2 Zr0 3.102971 1_455
Mg2 Zr0 3.102971 1_555
Mg2 Mg5 3.161504 1_555
Mg3 Mg4 3.031905 1_555
Mg3 Mn0 3.044165 1_455
Mg3 Mn0 3.044165 1_555
Mg3 Mg7 3.093755 1_554
Mg3 Mg7 3.093755 1_454
Mg3 Zr0 3.102971 1_455
Mg3 Zr0 3.102971 1_555
Mg3 Mg5 3.161504 1_555
Mg4 Mn0 3.064392 1_455
Mg4 Mn0 3.064392 1_555
Mg4 Mg5 3.073254 1_545
Mg4 Mg5 3.073254 1_555
Mg4 Mg8 3.349491 1_555
Mg4 Mg9 3.349491 1_545
Mg5 Zr0 3.054021 1_455
Mg5 Zr0 3.054021 1_555
Mg5 Mg9 3.218553 1_555
Mg5 Mg8 3.218553 1_555
Mg6 Mg7 3.050514 1_565
Mg6 Mn0 3.077040 1_566
Mg6 Mg7 3.090134 1_555
Mg6 Zr1 3.160264 1_565
Mg6 Zr0 3.219505 1_556
Mg6 Mn1 3.303533 1_555
Mg7 Mn0 3.077040 1_556
Mg7 Zr1 3.160264 1_555
Mg7 Zr0 3.219505 1_556
Mg7 Mn1 3.303533 1_555
Mg8 Mg9 3.043944 1_555
Mg8 Mn1 3.044165 1_455
Mg8 Mn1 3.044165 1_555
Mg8 Mg9 3.096704 1_545
Mg8 Zr1 3.102971 1_455
Mg8 Zr1 3.102971 1_555
Mg9 Mn1 3.044165 1_455
Mg9 Mn1 3.044165 1_555
Mg9 Zr1 3.102971 1_565
Mg9 Zr1 3.102971 1_465
Mg10 Mg9 3.031905 1_555
Mg10 Mg8 3.031905 1_555
Mg10 Mn1 3.064392 1_555
Mg10 Mn1 3.064392 1_455
Mg10 Mg11 3.073254 1_555
Mg10 Mg11 3.073254 1_565
Mg10 Mg7 3.151204 1_555
Mg10 Mg6 3.151204 1_455
Mg10 Mg6 3.151204 1_555
Mg10 Mg7 3.151204 1_455
Mg10 Mg2 3.349491 1_556
Mg10 Mg3 3.349491 1_556
Mg11 Zr1 3.054021 1_455
Mg11 Zr1 3.054021 1_555
Mg11 Mg6 3.095221 1_445
Mg11 Mg7 3.095221 1_455
Mg11 Mg6 3.095221 1_545
Mg11 Mg7 3.095221 1_555
Mg11 Mg8 3.161504 1_555
Mg11 Mg9 3.161504 1_545
Mg11 Mg3 3.218553 1_556
Mg11 Mg2 3.218553 1_546
Mn0 Zr0 3.074090 1_545
Mn0 Zr0 3.074090 1_555
Mn1 Zr1 3.074090 1_565
Mn1 Zr1 3.074090 1_555
