# generated using pymatgen
data_Mg6TiMo
_symmetry_space_group_name_H-M   'P 1'
_cell_length_a   4.77464200
_cell_length_b   6.01936400
_cell_length_c   11.08216400
_cell_angle_alpha   90.00000000
_cell_angle_beta   90.00000000
_cell_angle_gamma   90.00000000
_symmetry_Int_Tables_number   1
_chemical_formula_structural   Mg6TiMo
_chemical_formula_sum   'Mg12 Ti2 Mo2'
_cell_volume   318.50480852
_cell_formula_units_Z   2
loop_
 _symmetry_equiv_pos_site_id
 _symmetry_equiv_pos_as_xyz
  1  'x, y, z'
loop_
 _atom_site_type_symbol
 _atom_site_label
 _atom_site_symmetry_multiplicity
 _atom_site_fract_x
 _atom_site_fract_y
 _atom_site_fract_z
 _atom_site_occupancy
  Mg  Mg0  1  0.00000000  0.25887700  0.07537300  1
  Mg  Mg1  1  0.00000000  0.74112300  0.07537300  1
  Mg  Mg2  1  0.00000000  0.00000000  0.32947800  1
  Mg  Mg3  1  0.50000000  0.74329400  0.42407100  1
  Mg  Mg4  1  0.50000000  0.25670600  0.42407100  1
  Mg  Mg5  1  0.50000000  0.00000000  0.17241100  1
  Mg  Mg6  1  0.00000000  0.75887700  0.57537300  1
  Mg  Mg7  1  0.00000000  0.24112300  0.57537300  1
  Mg  Mg8  1  0.00000000  0.50000000  0.82947800  1
  Mg  Mg9  1  0.50000000  0.24329400  0.92407100  1
  Mg  Mg10  1  0.50000000  0.75670600  0.92407100  1
  Mg  Mg11  1  0.50000000  0.50000000  0.67241100  1
  Ti  Ti0  1  0.00000000  0.50000000  0.29989600  1
  Ti  Ti1  1  0.00000000  0.00000000  0.79989600  1
  Mo  Mo0  1  0.50000000  0.50000000  0.19932700  1
  Mo  Mo1  1  0.50000000  0.00000000  0.69932700  1
loop_
_geom_bond_atom_site_label_1
_geom_bond_atom_site_label_2
_geom_bond_distance
_geom_bond_site_symmetry_2
Mg0 Ti0 2.880577 1_555
Mg0 Mg1 2.902814 1_555
Mg0 Mg9 2.918836 1_554
Mg0 Mg9 2.918836 1_454
Mg0 Mg5 3.046964 1_455
Mg0 Mg5 3.046964 1_555
Mg0 Mg8 3.087470 1_554
Mg0 Mo0 3.113339 1_455
Mg0 Mo0 3.113339 1_555
Mg0 Mg1 3.116550 1_545
Mg0 Mg2 3.218426 1_555
Mg0 Ti1 3.427580 1_554
Mg1 Ti0 2.880577 1_555
Mg1 Mg10 2.918836 1_554
Mg1 Mg10 2.918836 1_454
Mg1 Mg5 3.046964 1_565
Mg1 Mg5 3.046964 1_465
Mg1 Mg8 3.087470 1_554
Mg1 Mo0 3.113339 1_455
Mg1 Mo0 3.113339 1_555
Mg1 Mg2 3.218426 1_565
Mg1 Ti1 3.427580 1_564
Mg2 Mg5 2.954511 1_555
Mg2 Mg5 2.954511 1_455
Mg2 Ti0 3.027484 1_555
Mg2 Ti0 3.027484 1_545
Mg2 Mg3 3.030823 1_545
Mg2 Mg4 3.030823 1_455
Mg2 Mg3 3.030823 1_445
Mg2 Mg4 3.030823 1_555
Mg2 Mg6 3.087470 1_545
Mg2 Mg7 3.087470 1_555
Mg3 Mo0 2.889295 1_555
Mg3 Mg6 2.918836 1_655
Mg3 Mg6 2.918836 1_555
Mg3 Mo1 3.419474 1_565
Mg4 Mo0 2.889295 1_555
Mg4 Mg7 2.918836 1_555
Mg4 Mg7 2.918836 1_655
Mg4 Mo1 3.419474 1_555
Mg5 Mo0 3.024427 1_545
Mg5 Mo0 3.024427 1_555
Mg6 Ti1 2.880577 1_565
Mg6 Mg7 2.902814 1_565
Mg6 Mo1 3.113339 1_465
Mg6 Mo1 3.113339 1_565
Mg6 Mg7 3.116550 1_555
Mg6 Mg8 3.218426 1_555
Mg6 Ti0 3.427580 1_555
Mg7 Ti1 2.880577 1_555
Mg7 Mo1 3.113339 1_555
Mg7 Mo1 3.113339 1_455
Mg7 Mg8 3.218426 1_555
Mg7 Ti0 3.427580 1_555
Mg8 Ti1 3.027484 1_565
Mg8 Ti1 3.027484 1_555
Mg8 Mg9 3.030823 1_555
Mg8 Mg9 3.030823 1_455
Mg9 Mo1 2.889295 1_555
Mg9 Mo0 3.419474 1_556
Mg10 Mo1 2.889295 1_565
Mg10 Mg8 3.030823 1_555
Mg10 Mg8 3.030823 1_655
Mg10 Mo0 3.419474 1_556
Mg11 Mg8 2.954511 1_655
Mg11 Mg8 2.954511 1_555
Mg11 Mo1 3.024427 1_555
Mg11 Mo1 3.024427 1_565
Mg11 Mg7 3.046964 1_555
Mg11 Mg7 3.046964 1_655
Mg11 Mg6 3.046964 1_555
Mg11 Mg6 3.046964 1_655
Mo0 Ti0 2.634665 1_655
Mo0 Ti0 2.634665 1_555
Mo1 Ti1 2.634665 1_655
Mo1 Ti1 2.634665 1_555
