# generated using pymatgen
data_Sr4Tb2Mg(RuO6)2
_symmetry_space_group_name_H-M   'P 1'
_cell_length_a   5.81705048
_cell_length_b   6.13650843
_cell_length_c   8.36926100
_cell_angle_alpha   87.35512531
_cell_angle_beta   92.19720275
_cell_angle_gamma   92.03648305
_symmetry_Int_Tables_number   1
_chemical_formula_structural   Sr4Tb2Mg(RuO6)2
_chemical_formula_sum   'Sr4 Tb2 Mg1 Ru2 O12'
_cell_volume   298.04398003
_cell_formula_units_Z   1
loop_
 _symmetry_equiv_pos_site_id
 _symmetry_equiv_pos_as_xyz
  1  'x, y, z'
loop_
 _atom_site_type_symbol
 _atom_site_label
 _atom_site_symmetry_multiplicity
 _atom_site_fract_x
 _atom_site_fract_y
 _atom_site_fract_z
 _atom_site_occupancy
  Sr  Sr0  1  0.98729500  0.44531000  0.73501900  1
  Sr  Sr1  1  0.50754600  0.92421900  0.74290900  1
  Sr  Sr2  1  0.45195000  0.12075700  0.30507400  1
  Sr  Sr3  1  0.06532000  0.56349500  0.24352700  1
  Tb  Tb0  1  0.51686800  0.42435800  0.97640500  1
  Tb  Tb1  1  0.98410500  0.00161200  0.50443800  1
  Mg  Mg0  1  0.63516100  0.80510900  0.13055700  1
  Ru  Ru0  1  0.02205400  0.99121400  0.99688900  1
  Ru  Ru1  1  0.49533600  0.51664800  0.50316200  1
  O  O0  1  0.72309400  0.14776900  0.95463900  1
  O  O1  1  0.76599600  0.70757100  0.55018500  1
  O  O2  1  0.31290400  0.82156900  0.05287100  1
  O  O3  1  0.20779200  0.31639300  0.46533600  1
  O  O4  1  0.81489800  0.69293500  0.95964200  1
  O  O5  1  0.69019700  0.23491500  0.54353500  1
  O  O6  1  0.19089600  0.26990700  0.05310900  1
  O  O7  1  0.29728200  0.79184300  0.46503000  1
  O  O8  1  0.41446300  0.51258400  0.73389500  1
  O  O9  1  0.08773000  0.02183900  0.76848000  1
  O  O10  1  0.57638900  0.51403300  0.25134800  1
  O  O11  1  0.89855800  0.95717000  0.23582400  1
loop_
_geom_bond_atom_site_label_1
_geom_bond_atom_site_label_2
_geom_bond_distance
_geom_bond_site_symmetry_2
Mg0 O2 1.964927 1_555
Mg0 O11 1.966027 1_555
Mg0 O4 1.967187 1_554
Mg0 O10 2.036121 1_555
Mg0 O0 2.558594 1_564
Mg0 Sr2 2.747391 1_565
O0 Ru0 2.027946 1_645
O0 Tb0 2.131452 1_555
O0 Sr1 2.554571 1_545
O0 Sr0 2.963383 1_555
O1 Ru1 1.967318 1_555
O1 Tb1 2.196112 1_565
O1 Sr0 2.530806 1_555
O1 Sr1 2.674932 1_555
O2 Ru0 2.045759 1_554
O2 Sr3 2.628538 1_555
O2 Tb0 2.857681 1_554
O2 Sr1 2.903810 1_554
O2 Sr2 2.932828 1_565
O3 Ru1 2.063330 1_555
O3 Tb1 2.308069 1_455
O3 Sr2 2.381875 1_555
O3 Sr3 2.478678 1_555
O3 Sr0 2.797170 1_455
O4 Ru0 2.183281 1_655
O4 Tb0 2.352828 1_555
O4 Sr0 2.713922 1_555
O4 Sr3 2.835590 1_656
O4 Sr1 2.862719 1_555
O5 Ru1 2.108073 1_555
O5 Tb1 2.310806 1_555
O5 Sr2 2.498476 1_555
O5 Sr0 2.653672 1_555
O5 Sr1 2.691950 1_545
O6 Ru0 2.007554 1_544
O6 Tb0 2.194408 1_554
O6 Sr3 2.601328 1_555
O6 Sr2 2.695500 1_555
O6 Sr0 3.038558 1_454
O7 Ru1 2.083587 1_555
O7 Tb1 2.310096 1_465
O7 Sr2 2.527731 1_565
O7 Sr3 2.671034 1_555
O7 Sr1 2.729492 1_555
O8 Ru1 2.003829 1_555
O8 Tb0 2.143866 1_555
O8 Sr0 2.504708 1_455
O8 Sr1 2.568426 1_555
O9 Ru0 1.962978 1_545
O9 Tb1 2.275961 1_455
O9 Sr1 2.554279 1_545
O9 Sr0 2.683439 1_455
O10 Ru1 2.178062 1_555
O10 Tb0 2.399970 1_554
O10 Sr2 2.520126 1_555
O10 Sr3 2.852474 1_655
O10 Sr3 2.997000 1_555
O11 Ru0 2.149299 1_654
O11 Tb1 2.310222 1_565
O11 Sr3 2.632224 1_655
O11 Sr2 2.906445 1_565
