# generated using pymatgen
data_Ho2Si3Rh
_symmetry_space_group_name_H-M   'P 1'
_cell_length_a   8.11398094
_cell_length_b   8.11398487
_cell_length_c   7.86026949
_cell_angle_alpha   90.00001055
_cell_angle_beta   90.00000445
_cell_angle_gamma   120.00003330
_symmetry_Int_Tables_number   1
_chemical_formula_structural   Ho2Si3Rh
_chemical_formula_sum   'Ho8 Si12 Rh4'
_cell_volume   448.16310329
_cell_formula_units_Z   4
loop_
 _symmetry_equiv_pos_site_id
 _symmetry_equiv_pos_as_xyz
  1  'x, y, z'
loop_
 _atom_site_type_symbol
 _atom_site_label
 _atom_site_symmetry_multiplicity
 _atom_site_fract_x
 _atom_site_fract_y
 _atom_site_fract_z
 _atom_site_occupancy
  Ho  Ho0  1  0.00000014  0.00000019  0.25000015  1
  Ho  Ho1  1  -0.00000000  -0.00000018  0.75000023  1
  Ho  Ho2  1  0.50814254  0.49185803  0.24999981  1
  Ho  Ho3  1  0.50814200  0.01628411  0.24999977  1
  Ho  Ho4  1  0.98371445  0.49185693  0.25000015  1
  Ho  Ho5  1  0.49185706  0.50814372  0.75000050  1
  Ho  Ho6  1  0.49185713  0.98371535  0.74999991  1
  Ho  Ho7  1  0.01628490  0.50814289  0.75000030  1
  Si  Si0  1  0.16697425  0.83302566  0.49984068  1
  Si  Si1  1  0.16697275  0.33394616  0.49984019  1
  Si  Si2  1  0.66605268  0.83302667  0.49984027  1
  Si  Si3  1  0.83302621  0.16697407  0.50015930  1
  Si  Si4  1  0.83302659  0.66605241  0.50015954  1
  Si  Si5  1  0.33394702  0.16697314  0.50015984  1
  Si  Si6  1  0.83302570  0.16697426  0.99984068  1
  Si  Si7  1  0.83302657  0.66605282  0.99984018  1
  Si  Si8  1  0.33394703  0.16697315  0.99984019  1
  Si  Si9  1  0.16697423  0.83302563  0.00015932  1
  Si  Si10  1  0.16697278  0.33394688  0.00015952  1
  Si  Si11  1  0.66605304  0.83302711  0.00015986  1
  Rh  Rh0  1  0.33333446  0.66666644  0.46910910  1
  Rh  Rh1  1  0.66666627  0.33333396  0.53089009  1
  Rh  Rh2  1  0.66666572  0.33333281  0.96910898  1
  Rh  Rh3  1  0.33333448  0.66666677  0.03089147  1
loop_
_geom_bond_atom_site_label_1
_geom_bond_atom_site_label_2
_geom_bond_distance
_geom_bond_site_symmetry_2
Ho0 Si1 3.059922 1_555
Ho0 Si11 3.059929 1_445
Ho0 Si10 3.059930 1_555
Ho0 Si2 3.059931 1_445
Ho0 Si0 3.059940 1_545
Ho0 Si9 3.059942 1_545
Ho0 Si5 3.061540 1_555
Ho0 Si8 3.061542 1_554
Ho0 Si3 3.061543 1_455
Ho0 Si7 3.061544 1_444
Ho0 Si4 3.061545 1_445
Ho0 Si6 3.061549 1_454
Ho1 Si8 3.059927 1_555
Ho1 Si7 3.059928 1_445
Ho1 Si5 3.059930 1_555
Ho1 Si4 3.059933 1_445
Ho1 Si3 3.059939 1_455
Ho1 Si6 3.059940 1_455
Ho1 Si10 3.061539 1_556
Ho1 Si1 3.061540 1_555
Ho1 Si11 3.061540 1_446
Ho1 Si2 3.061543 1_445
Ho1 Si9 3.061547 1_546
Ho1 Si0 3.061549 1_545
Ho2 Rh3 3.000277 1_555
Ho2 Rh0 3.000279 1_555
Ho2 Si4 3.014514 1_555
Ho2 Si7 3.014514 1_554
Ho2 Si8 3.014518 1_554
Ho2 Si5 3.014521 1_555
Ho2 Si2 3.100723 1_555
Ho2 Si11 3.100724 1_555
Ho2 Si10 3.100728 1_555
Ho2 Si1 3.100729 1_555
Ho2 Rh1 3.136575 1_555
Ho2 Rh2 3.136581 1_554
Ho3 Rh3 3.000279 1_545
Ho3 Rh0 3.000286 1_545
Ho3 Si6 3.014509 1_554
Ho3 Si3 3.014514 1_555
Ho3 Si8 3.014515 1_554
Ho3 Si5 3.014517 1_555
Ho3 Si11 3.100718 1_545
Ho3 Si9 3.100718 1_545
Ho3 Si0 3.100721 1_545
Ho3 Si2 3.100722 1_545
Ho3 Rh2 3.136582 1_554
Ho3 Rh1 3.136585 1_555
Ho4 Rh3 3.000296 1_655
Ho4 Rh0 3.000296 1_655
Ho4 Si6 3.014506 1_554
Ho4 Si3 3.014506 1_555
Ho4 Si4 3.014510 1_555
Ho4 Si7 3.014516 1_554
Ho4 Si10 3.100723 1_655
Ho4 Si1 3.100724 1_655
Ho4 Si0 3.100724 1_655
Ho4 Si9 3.100727 1_655
Ho4 Rh1 3.136574 1_555
Ho4 Rh2 3.136583 1_554
Ho5 Rh2 3.000293 1_555
Ho5 Rh1 3.000298 1_555
Ho5 Si11 3.014509 1_556
Ho5 Si2 3.014512 1_555
Ho5 Si10 3.014512 1_556
Ho5 Si1 3.014519 1_555
Ho5 Si7 3.100724 1_555
Ho5 Si4 3.100731 1_555
Ho5 Si8 3.100731 1_555
Ho5 Si5 3.100735 1_555
Ho5 Rh3 3.136568 1_556
Ho5 Rh0 3.136569 1_555
Ho6 Rh2 3.000283 1_565
Ho6 Rh1 3.000294 1_565
Ho6 Si0 3.014505 1_555
Ho6 Si9 3.014506 1_556
Ho6 Si2 3.014516 1_555
Ho6 Si11 3.014517 1_556
Ho6 Si5 3.100718 1_565
Ho6 Si8 3.100719 1_565
Ho6 Si6 3.100724 1_565
Ho6 Si3 3.100726 1_565
Ho6 Rh0 3.136583 1_555
Ho6 Rh3 3.136586 1_556
Ho7 Rh2 3.000291 1_455
Ho7 Rh1 3.000294 1_455
Ho7 Si9 3.014504 1_556
Ho7 Si0 3.014508 1_555
Ho7 Si10 3.014512 1_556
Ho7 Si1 3.014521 1_555
Ho7 Si7 3.100719 1_455
Ho7 Si4 3.100721 1_455
Ho7 Si6 3.100724 1_455
Ho7 Si3 3.100727 1_455
Ho7 Rh3 3.136587 1_556
Ho7 Rh0 3.136588 1_555
Si0 Si5 2.346622 1_565
Si0 Si4 2.346622 1_455
Si1 Si3 2.346614 1_455
Si1 Si5 2.346621 1_555
Si2 Si3 2.346621 1_565
Si2 Si4 2.346627 1_555
Si7 Si9 2.346622 1_656
Si8 Si9 2.346622 1_546
Si10 Si6 2.346618 1_454
Si10 Si8 2.346626 1_554
Si11 Si6 2.346619 1_564
Si11 Si7 2.346625 1_554
Rh0 Si2 2.350427 1_555
Rh0 Si0 2.350437 1_555
Rh0 Si1 2.350442 1_555
Rh1 Si4 2.350429 1_555
Rh1 Si5 2.350433 1_555
Rh1 Si3 2.350439 1_555
Rh2 Si8 2.350430 1_555
Rh2 Si6 2.350431 1_555
Rh2 Si7 2.350440 1_555
Rh3 Si11 2.350430 1_555
Rh3 Si9 2.350436 1_555
Rh3 Si10 2.350440 1_555
