# generated using pymatgen
data_CaTiAs2O7
_symmetry_space_group_name_H-M   'P 1'
_cell_length_a   8.61248700
_cell_length_b   8.19592000
_cell_length_c   10.64550429
_cell_angle_alpha   60.62572725
_cell_angle_beta   90.00000000
_cell_angle_gamma   90.00000000
_symmetry_Int_Tables_number   1
_chemical_formula_structural   CaTiAs2O7
_chemical_formula_sum   'Ca4 Ti4 As8 O28'
_cell_volume   654.82779500
_cell_formula_units_Z   4
loop_
 _symmetry_equiv_pos_site_id
 _symmetry_equiv_pos_as_xyz
  1  'x, y, z'
loop_
 _atom_site_type_symbol
 _atom_site_label
 _atom_site_symmetry_multiplicity
 _atom_site_fract_x
 _atom_site_fract_y
 _atom_site_fract_z
 _atom_site_occupancy
  Ca  Ca0  1  0.07020400  0.73874000  0.90476300  1
  Ca  Ca1  1  0.57020400  0.26126000  0.59523700  1
  Ca  Ca2  1  0.92979600  0.26126000  0.09523700  1
  Ca  Ca3  1  0.42979600  0.73874000  0.40476300  1
  Ti  Ti0  1  0.93887100  0.19609300  0.71765600  1
  Ti  Ti1  1  0.43887100  0.80390700  0.78234400  1
  Ti  Ti2  1  0.06112900  0.80390700  0.28234400  1
  Ti  Ti3  1  0.56112900  0.19609300  0.21765600  1
  As  As0  1  0.76052000  0.54785800  0.75428400  1
  As  As1  1  0.26052000  0.45214200  0.74571600  1
  As  As2  1  0.23948000  0.45214200  0.24571600  1
  As  As3  1  0.73948000  0.54785800  0.25428400  1
  As  As4  1  0.68263900  0.94909200  0.95995900  1
  As  As5  1  0.18263900  0.05090800  0.54004100  1
  As  As6  1  0.31736100  0.05090800  0.04004100  1
  As  As7  1  0.81736100  0.94909200  0.45995900  1
  O  O0  1  0.67110500  0.23508000  0.07275400  1
  O  O1  1  0.17110500  0.76492000  0.42724600  1
  O  O2  1  0.32889500  0.76492000  0.92724600  1
  O  O3  1  0.82889500  0.23508000  0.57275400  1
  O  O4  1  0.58070000  0.62960800  0.76519800  1
  O  O5  1  0.08070000  0.37039200  0.73480200  1
  O  O6  1  0.41930000  0.37039200  0.23480200  1
  O  O7  1  0.91930000  0.62960800  0.26519800  1
  O  O8  1  0.88988500  0.55355600  0.87297300  1
  O  O9  1  0.38988500  0.44644400  0.62702700  1
  O  O10  1  0.11011500  0.44644400  0.12702700  1
  O  O11  1  0.61011500  0.55355600  0.37297300  1
  O  O12  1  0.81811400  0.68737200  0.57237800  1
  O  O13  1  0.31811400  0.31262800  0.92762200  1
  O  O14  1  0.18188600  0.31262800  0.42762200  1
  O  O15  1  0.68188600  0.68737200  0.07237800  1
  O  O16  1  0.90119000  0.95861200  0.30194200  1
  O  O17  1  0.40119000  0.04138800  0.19805800  1
  O  O18  1  0.09881000  0.04138800  0.69805800  1
  O  O19  1  0.59881000  0.95861200  0.80194200  1
  O  O20  1  0.75050000  0.33153000  0.26676100  1
  O  O21  1  0.25050000  0.66847000  0.23323900  1
  O  O22  1  0.24950000  0.66847000  0.73323900  1
  O  O23  1  0.74950000  0.33153000  0.76676100  1
  O  O24  1  0.61865100  0.97360200  0.39588300  1
  O  O25  1  0.11865100  0.02639800  0.10411700  1
  O  O26  1  0.38134900  0.02639800  0.60411700  1
  O  O27  1  0.88134900  0.97360200  0.89588300  1
loop_
_geom_bond_atom_site_label_1
_geom_bond_atom_site_label_2
_geom_bond_distance
_geom_bond_site_symmetry_2
Ca0 O2 2.262205 1_555
Ca0 O8 2.309500 1_455
Ca0 O18 2.387658 1_565
Ca0 O10 2.427946 1_556
Ca0 O27 2.486210 1_455
Ca0 O22 2.661201 1_555
Ca1 O3 2.262205 1_555
Ca1 O9 2.309500 1_555
Ca1 O19 2.387658 1_545
Ca1 O11 2.427946 1_555
Ca1 O26 2.486210 1_555
Ca1 O23 2.661201 1_555
Ca2 O0 2.262205 1_555
Ca2 O10 2.309500 1_655
Ca2 O16 2.387658 1_545
Ca2 O8 2.427946 1_554
Ca2 O25 2.486210 1_655
Ca2 O20 2.661201 1_555
Ca3 O1 2.262205 1_555
Ca3 O11 2.309500 1_555
Ca3 O17 2.387658 1_565
Ca3 O9 2.427946 1_555
Ca3 O24 2.486210 1_555
Ca3 O21 2.661201 1_555
As0 O8 1.702307 1_555
As0 O4 1.713842 1_555
As0 O23 1.714402 1_555
As0 O12 1.769527 1_555
As1 O9 1.702307 1_555
As1 O5 1.713842 1_555
As1 O22 1.714402 1_555
As1 O13 1.769527 1_555
As2 O10 1.702307 1_555
As2 O6 1.713842 1_555
As2 O21 1.714402 1_555
As2 O14 1.769527 1_555
As3 O11 1.702307 1_555
As3 O7 1.713842 1_555
As3 O20 1.714402 1_555
As3 O15 1.769527 1_555
As4 O19 1.796740 1_555
As4 O27 1.816608 1_555
As4 O15 1.874853 1_556
As5 O18 1.796740 1_555
As5 O26 1.816608 1_555
As5 O14 1.874853 1_555
As6 O17 1.796740 1_555
As6 O25 1.816608 1_555
As6 O13 1.874853 1_554
As7 O16 1.796740 1_555
As7 O24 1.816608 1_555
As7 O12 1.874853 1_555
O0 Ti3 1.701516 1_555
O1 Ti2 1.701516 1_555
O2 Ti1 1.701516 1_555
O3 Ti0 1.701516 1_555
O4 Ti1 1.954970 1_555
O5 Ti0 1.954970 1_455
O6 Ti3 1.954970 1_555
O7 Ti2 1.954970 1_655
O16 Ti2 1.951453 1_655
O17 Ti3 1.951453 1_555
O18 Ti0 1.951453 1_455
O19 Ti1 1.951453 1_555
O20 Ti3 2.175937 1_555
O21 Ti2 2.175937 1_555
O22 Ti1 2.175937 1_555
O23 Ti0 2.175937 1_555
O24 Ti3 1.943274 1_565
O25 Ti2 1.943274 1_545
O26 Ti1 1.943274 1_545
O27 Ti0 1.943274 1_565
