# generated using pymatgen
data_Mg15Zr
_symmetry_space_group_name_H-M   'P 1'
_cell_length_a   6.38622190
_cell_length_b   6.38622190
_cell_length_c   10.16660353
_cell_angle_alpha   90.00000000
_cell_angle_beta   90.00000000
_cell_angle_gamma   119.99999631
_symmetry_Int_Tables_number   1
_chemical_formula_structural   Mg15Zr
_chemical_formula_sum   'Mg15 Zr1'
_cell_volume   359.08275242
_cell_formula_units_Z   1
loop_
 _symmetry_equiv_pos_site_id
 _symmetry_equiv_pos_as_xyz
  1  'x, y, z'
loop_
 _atom_site_type_symbol
 _atom_site_label
 _atom_site_symmetry_multiplicity
 _atom_site_fract_x
 _atom_site_fract_y
 _atom_site_fract_z
 _atom_site_occupancy
  Mg  Mg0  1  0.00000000  0.00000000  0.00000000  1
  Mg  Mg1  1  0.00731755  0.50365928  0.50000000  1
  Mg  Mg2  1  0.99964354  0.49982127  0.00000000  1
  Mg  Mg3  1  0.49634072  0.50365928  0.50000000  1
  Mg  Mg4  1  0.50017873  0.49982127  0.00000000  1
  Mg  Mg5  1  0.49634072  0.99268245  0.50000000  1
  Mg  Mg6  1  0.50017873  0.00035646  0.00000000  1
  Mg  Mg7  1  0.16373997  0.32748193  0.25197583  1
  Mg  Mg8  1  0.16373997  0.32748193  0.74802417  1
  Mg  Mg9  1  0.16373997  0.83626003  0.25197583  1
  Mg  Mg10  1  0.16373997  0.83626003  0.74802417  1
  Mg  Mg11  1  0.67251807  0.83626003  0.25197583  1
  Mg  Mg12  1  0.67251807  0.83626003  0.74802417  1
  Mg  Mg13  1  0.66666700  0.33333300  0.25542606  1
  Mg  Mg14  1  0.66666700  0.33333300  0.74457394  1
  Zr  Zr0  1  0.00000000  0.00000000  0.50000000  1
loop_
_geom_bond_atom_site_label_1
_geom_bond_atom_site_label_2
_geom_bond_distance
_geom_bond_site_symmetry_2
Mg0 Mg9 3.137330 1_545
Mg0 Mg10 3.137330 1_544
Mg0 Mg8 3.137337 1_554
Mg0 Mg7 3.137337 1_555
Mg0 Mg11 3.137337 1_445
Mg0 Mg12 3.137337 1_444
Mg0 Mg2 3.193108 1_455
Mg0 Mg6 3.193108 1_455
Mg0 Mg4 3.193112 1_555
Mg0 Mg4 3.193112 1_445
Mg0 Mg2 3.193115 1_445
Mg0 Mg6 3.193115 1_555
Mg1 Mg13 3.119634 1_455
Mg1 Mg14 3.119634 1_455
Mg1 Mg7 3.121854 1_555
Mg1 Mg8 3.121854 1_555
Mg1 Mg9 3.121857 1_555
Mg1 Mg10 3.121857 1_555
Mg1 Mg3 3.123010 1_555
Mg1 Mg5 3.123011 1_555
Mg1 Zr0 3.193364 1_565
Mg1 Zr0 3.193371 1_555
Mg1 Mg3 3.263211 1_455
Mg1 Mg5 3.263212 1_445
Mg2 Mg8 3.166292 1_654
Mg2 Mg7 3.166292 1_655
Mg2 Mg9 3.166302 1_655
Mg2 Mg4 3.189693 1_555
Mg2 Mg6 3.189693 1_555
Mg2 Mg4 3.196529 1_655
Mg2 Mg6 3.196529 1_665
Mg3 Mg7 3.121857 1_555
Mg3 Mg8 3.121857 1_555
Mg3 Mg5 3.123010 1_555
Mg3 Zr0 3.193368 1_665
Mg3 Zr0 3.193368 1_555
Mg3 Mg5 3.263211 1_545
Mg4 Mg7 3.166302 1_555
Mg4 Mg8 3.166302 1_554
Mg4 Mg6 3.189693 1_555
Mg4 Mg6 3.196529 1_565
Mg5 Mg9 3.121857 1_555
Mg5 Zr0 3.193364 1_565
Mg5 Zr0 3.193371 1_665
Mg6 Mg9 3.166302 1_545
Mg7 Zr0 3.104619 1_555
Mg7 Mg9 3.137052 1_545
Mg7 Mg9 3.249170 1_555
Mg8 Zr0 3.104619 1_555
Mg9 Zr0 3.104613 1_565
Mg10 Zr0 3.104613 1_565
Mg10 Mg5 3.121857 1_555
Mg10 Mg12 3.137052 1_455
Mg10 Mg8 3.137052 1_565
Mg10 Mg6 3.166302 1_566
Mg10 Mg2 3.166302 1_456
Mg10 Mg14 3.193468 1_565
Mg10 Mg14 3.193468 1_455
Mg10 Mg12 3.249170 1_555
Mg10 Mg8 3.249170 1_555
Mg11 Zr0 3.104619 1_665
Mg11 Mg5 3.121854 1_555
Mg11 Mg3 3.121857 1_555
Mg11 Mg9 3.137052 1_655
Mg11 Mg7 3.137052 1_665
Mg11 Mg6 3.166292 1_565
Mg11 Mg4 3.166302 1_555
Mg11 Mg13 3.193458 1_565
Mg11 Mg13 3.193477 1_555
Mg11 Mg9 3.249170 1_555
Mg11 Mg7 3.249170 1_555
Mg12 Zr0 3.104619 1_665
Mg12 Mg5 3.121854 1_555
Mg12 Mg3 3.121857 1_555
Mg12 Mg8 3.137052 1_665
Mg12 Mg6 3.166292 1_566
Mg12 Mg4 3.166302 1_556
Mg12 Mg14 3.193458 1_565
Mg12 Mg14 3.193477 1_555
Mg12 Mg8 3.249170 1_555
Mg13 Mg5 3.119634 1_545
Mg13 Mg3 3.119641 1_555
Mg13 Mg4 3.183525 1_555
Mg13 Mg2 3.183525 1_555
Mg13 Mg6 3.183525 1_555
Mg13 Mg7 3.193458 1_655
Mg13 Mg9 3.193468 1_545
Mg13 Mg9 3.193468 1_655
Mg13 Mg7 3.193477 1_555
Mg14 Mg5 3.119634 1_545
Mg14 Mg3 3.119641 1_555
Mg14 Mg4 3.183525 1_556
Mg14 Mg2 3.183525 1_556
Mg14 Mg6 3.183525 1_556
Mg14 Mg8 3.193458 1_655
Mg14 Mg8 3.193477 1_555
