# generated using pymatgen
data_BaMg6Mn
_symmetry_space_group_name_H-M   'P 1'
_cell_length_a   5.25660200
_cell_length_b   6.79034300
_cell_length_c   11.79822800
_cell_angle_alpha   90.00000000
_cell_angle_beta   90.00000000
_cell_angle_gamma   90.00000000
_symmetry_Int_Tables_number   1
_chemical_formula_structural   BaMg6Mn
_chemical_formula_sum   'Ba2 Mg12 Mn2'
_cell_volume   421.12749102
_cell_formula_units_Z   2
loop_
 _symmetry_equiv_pos_site_id
 _symmetry_equiv_pos_as_xyz
  1  'x, y, z'
loop_
 _atom_site_type_symbol
 _atom_site_label
 _atom_site_symmetry_multiplicity
 _atom_site_fract_x
 _atom_site_fract_y
 _atom_site_fract_z
 _atom_site_occupancy
  Ba  Ba0  1  0.50000000  0.50000000  0.16578300  1
  Ba  Ba1  1  0.50000000  0.00000000  0.66578300  1
  Mg  Mg0  1  0.50000000  0.25809800  0.41993700  1
  Mg  Mg1  1  0.50000000  0.74190200  0.41993700  1
  Mg  Mg2  1  0.00000000  0.77878300  0.08128700  1
  Mg  Mg3  1  0.00000000  0.22121700  0.08128700  1
  Mg  Mg4  1  0.00000000  0.00000000  0.32703200  1
  Mg  Mg5  1  0.00000000  0.50000000  0.34749800  1
  Mg  Mg6  1  0.50000000  0.75809800  0.91993700  1
  Mg  Mg7  1  0.50000000  0.24190200  0.91993700  1
  Mg  Mg8  1  0.00000000  0.27878300  0.58128700  1
  Mg  Mg9  1  0.00000000  0.72121700  0.58128700  1
  Mg  Mg10  1  0.00000000  0.50000000  0.82703200  1
  Mg  Mg11  1  0.00000000  0.00000000  0.84749800  1
  Mn  Mn0  1  0.50000000  0.00000000  0.15723500  1
  Mn  Mn1  1  0.50000000  0.50000000  0.65723500  1
loop_
_geom_bond_atom_site_label_1
_geom_bond_atom_site_label_2
_geom_bond_distance
_geom_bond_site_symmetry_2
Ba0 Mg6 3.388907 1_554
Ba0 Mg7 3.388907 1_554
Ba0 Mg2 3.389005 1_655
Ba0 Mg3 3.389005 1_555
Ba0 Mg2 3.389005 1_555
Ba0 Mg3 3.389005 1_655
Ba0 Mg5 3.391804 1_655
Ba0 Mg5 3.391804 1_555
Ba0 Mn0 3.396669 1_565
Ba0 Mn0 3.396669 1_555
Ba0 Mg1 3.418995 1_555
Ba0 Mg0 3.418995 1_555
Ba1 Mg1 3.388907 1_545
Ba1 Mg0 3.388907 1_555
Ba1 Mg8 3.389005 1_655
Ba1 Mg9 3.389005 1_645
Ba1 Mg9 3.389005 1_545
Ba1 Mg8 3.389005 1_555
Ba1 Mg11 3.391804 1_555
Ba1 Mg11 3.391804 1_655
Ba1 Mn1 3.396669 1_545
Ba1 Mn1 3.396669 1_555
Ba1 Mg7 3.418995 1_555
Ba1 Mg6 3.418995 1_545
Mg0 Mg5 3.215046 1_655
Mg0 Mg5 3.215046 1_555
Mg0 Mn1 3.245986 1_555
Mg0 Mg8 3.248316 1_555
Mg0 Mg8 3.248316 1_655
Mg0 Mg1 3.285195 1_555
Mg0 Mg4 3.343793 1_555
Mg0 Mg4 3.343793 1_655
Mg0 Mg1 3.505148 1_545
Mg0 Mn0 3.560605 1_555
Mg1 Mg5 3.215046 1_655
Mg1 Mg5 3.215046 1_555
Mg1 Mn1 3.245986 1_555
Mg1 Mg9 3.248316 1_555
Mg1 Mg9 3.248316 1_655
Mg1 Mg4 3.343793 1_665
Mg1 Mg4 3.343793 1_565
Mg1 Mn0 3.560605 1_565
Mg2 Mg3 3.004279 1_565
Mg2 Mn0 3.157103 1_465
Mg2 Mn0 3.157103 1_565
Mg2 Mg6 3.248316 1_454
Mg2 Mg6 3.248316 1_554
Mg2 Mg4 3.265377 1_565
Mg3 Mn0 3.157103 1_555
Mg3 Mn0 3.157103 1_455
Mg3 Mg7 3.248316 1_454
Mg3 Mg7 3.248316 1_554
Mg3 Mg4 3.265377 1_555
Mg4 Mn0 3.304723 1_555
Mg4 Mn0 3.304723 1_455
Mg4 Mg5 3.403747 1_555
Mg4 Mg5 3.403747 1_545
Mg5 Mg9 3.140799 1_555
Mg5 Mg8 3.140799 1_555
Mg6 Mn0 3.245986 1_566
Mg6 Mg7 3.285195 1_565
Mg6 Mg7 3.505148 1_555
Mg6 Mn1 3.560605 1_555
Mg7 Mn0 3.245986 1_556
Mg7 Mn1 3.560605 1_555
Mg8 Mg9 3.004279 1_555
Mg8 Mn1 3.157103 1_555
Mg8 Mn1 3.157103 1_455
Mg9 Mn1 3.157103 1_555
Mg9 Mn1 3.157103 1_455
Mg10 Mg8 3.265377 1_555
Mg10 Mg9 3.265377 1_555
Mg10 Mn1 3.304723 1_455
Mg10 Mn1 3.304723 1_555
Mg10 Mg6 3.343793 1_455
Mg10 Mg6 3.343793 1_555
Mg10 Mg7 3.343793 1_455
Mg10 Mg7 3.343793 1_555
Mg10 Mg11 3.403747 1_555
Mg10 Mg11 3.403747 1_565
Mg11 Mg3 3.140799 1_556
Mg11 Mg2 3.140799 1_546
Mg11 Mg7 3.215046 1_555
Mg11 Mg7 3.215046 1_455
Mg11 Mg6 3.215046 1_445
Mg11 Mg6 3.215046 1_545
