# generated using pymatgen
data_FeSiW
_symmetry_space_group_name_H-M   'P 1'
_cell_length_a   4.79059318
_cell_length_b   4.79059318
_cell_length_c   7.54937900
_cell_angle_alpha   90.00000000
_cell_angle_beta   90.00000000
_cell_angle_gamma   119.60019165
_symmetry_Int_Tables_number   1
_chemical_formula_structural   FeSiW
_chemical_formula_sum   'Fe4 Si4 W4'
_cell_volume   150.64545746
_cell_formula_units_Z   4
loop_
 _symmetry_equiv_pos_site_id
 _symmetry_equiv_pos_as_xyz
  1  'x, y, z'
loop_
 _atom_site_type_symbol
 _atom_site_label
 _atom_site_symmetry_multiplicity
 _atom_site_fract_x
 _atom_site_fract_y
 _atom_site_fract_z
 _atom_site_occupancy
  Fe  Fe0  1  0.99817300  0.00182700  0.25852200  1
  Fe  Fe1  1  0.99817300  0.00182700  0.74147800  1
  Fe  Fe2  1  0.83009200  0.65368300  0.00000000  1
  Fe  Fe3  1  0.34631700  0.16990800  0.00000000  1
  Si  Si0  1  0.83535400  0.16464600  0.00000000  1
  Si  Si1  1  0.16735100  0.33820600  0.50000000  1
  Si  Si2  1  0.66179400  0.83264900  0.50000000  1
  Si  Si3  1  0.16727600  0.83272400  0.50000000  1
  W  W0  1  0.33203600  0.66796400  0.18907500  1
  W  W1  1  0.66564000  0.33436000  0.31960000  1
  W  W2  1  0.66564000  0.33436000  0.68040000  1
  W  W3  1  0.33203600  0.66796400  0.81092500  1
loop_
_geom_bond_atom_site_label_1
_geom_bond_atom_site_label_2
_geom_bond_distance
_geom_bond_site_symmetry_2
Fe0 Si3 2.298743 1_645
Fe0 Si2 2.299302 1_545
Fe0 Si1 2.299302 1_655
Fe0 Si0 2.372106 1_555
Fe0 Fe3 2.431533 1_655
Fe0 Fe2 2.431533 1_545
Fe0 W1 2.791974 1_555
Fe0 W0 2.813921 1_645
Fe0 W1 2.818269 1_545
Fe0 W1 2.818269 1_655
Fe0 W0 2.823911 1_655
Fe0 W0 2.823911 1_545
Fe1 Si3 2.298743 1_645
Fe1 Si2 2.299302 1_545
Fe1 Si1 2.299302 1_655
Fe1 Si0 2.372106 1_556
Fe1 Fe3 2.431533 1_656
Fe1 Fe2 2.431533 1_546
Fe1 W2 2.791974 1_555
Fe1 W3 2.813921 1_645
Fe1 W2 2.818269 1_545
Fe1 W2 2.818269 1_655
Fe1 W3 2.823911 1_545
Fe1 W3 2.823911 1_655
Fe2 Fe3 2.331560 1_555
Fe2 Si0 2.355331 1_555
Fe2 Si0 2.435463 1_565
Fe2 Fe3 2.487954 1_665
Fe2 W1 2.755309 1_555
Fe2 W2 2.755309 1_554
Fe2 W3 2.767992 1_654
Fe2 W0 2.767992 1_655
Fe2 W3 2.810040 1_554
Fe2 W0 2.810040 1_555
Fe3 Si0 2.355331 1_555
Fe3 Si0 2.435463 1_455
Fe3 W1 2.755309 1_555
Fe3 W2 2.755309 1_554
Fe3 W0 2.767992 1_545
Fe3 W3 2.767992 1_544
Fe3 W0 2.810040 1_555
Fe3 W3 2.810040 1_554
Si0 W2 2.792233 1_554
Si0 W1 2.792233 1_555
Si0 W0 2.800920 1_545
Si0 W3 2.800920 1_654
Si0 W0 2.800920 1_655
Si0 W3 2.800920 1_544
Si1 Si3 2.369212 1_555
Si1 Si2 2.382975 1_555
Si1 Si3 2.421381 1_545
Si1 Si2 2.436539 1_445
Si1 W3 2.719659 1_555
Si1 W0 2.719659 1_555
Si1 W2 2.754663 1_455
Si1 W1 2.754663 1_455
Si1 W1 2.756234 1_555
Si1 W2 2.756234 1_555
Si2 Si3 2.369212 1_555
Si2 Si3 2.421381 1_655
Si2 W3 2.719659 1_555
Si2 W0 2.719659 1_555
Si2 W1 2.754663 1_565
Si2 W2 2.754663 1_565
Si2 W1 2.756234 1_555
Si2 W2 2.756234 1_555
Si3 W0 2.714996 1_555
Si3 W3 2.714996 1_555
Si3 W1 2.768015 1_565
Si3 W2 2.768015 1_565
Si3 W1 2.768015 1_455
Si3 W2 2.768015 1_455
W0 W3 2.854798 1_554
W0 W1 2.932985 1_555
W0 W1 2.945588 1_565
W0 W1 2.945588 1_455
W1 W2 2.723816 1_555
W2 W3 2.932985 1_555
W2 W3 2.945588 1_545
W2 W3 2.945588 1_655
