# generated using pymatgen
data_Mg30CdCoO32
_symmetry_space_group_name_H-M   'P 1'
_cell_length_a   8.54901700
_cell_length_b   8.56062200
_cell_length_c   8.56062200
_cell_angle_alpha   90.00000000
_cell_angle_beta   90.00000000
_cell_angle_gamma   90.00000000
_symmetry_Int_Tables_number   1
_chemical_formula_structural   Mg30CdCoO32
_chemical_formula_sum   'Mg30 Cd1 Co1 O32'
_cell_volume   626.50829076
_cell_formula_units_Z   1
loop_
 _symmetry_equiv_pos_site_id
 _symmetry_equiv_pos_as_xyz
  1  'x, y, z'
loop_
 _atom_site_type_symbol
 _atom_site_label
 _atom_site_symmetry_multiplicity
 _atom_site_fract_x
 _atom_site_fract_y
 _atom_site_fract_z
 _atom_site_occupancy
  Mg  Mg0  1  0.00000000  0.00000000  0.50000000  1
  Mg  Mg1  1  0.00000000  0.50000000  0.00000000  1
  Mg  Mg2  1  0.50000000  0.00000000  0.00000000  1
  Mg  Mg3  1  0.50000000  0.00000000  0.50000000  1
  Mg  Mg4  1  0.50000000  0.50000000  0.00000000  1
  Mg  Mg5  1  0.50000000  0.50000000  0.50000000  1
  Mg  Mg6  1  0.00000000  0.24718100  0.24718100  1
  Mg  Mg7  1  0.00000000  0.24718100  0.75281900  1
  Mg  Mg8  1  0.00000000  0.75281900  0.24718100  1
  Mg  Mg9  1  0.00000000  0.75281900  0.75281900  1
  Mg  Mg10  1  0.50000000  0.25001000  0.25001000  1
  Mg  Mg11  1  0.50000000  0.25001000  0.74999000  1
  Mg  Mg12  1  0.50000000  0.74999000  0.25001000  1
  Mg  Mg13  1  0.50000000  0.74999000  0.74999000  1
  Mg  Mg14  1  0.24937500  0.00000000  0.25014500  1
  Mg  Mg15  1  0.24937500  0.00000000  0.74985500  1
  Mg  Mg16  1  0.25199900  0.50000000  0.24775200  1
  Mg  Mg17  1  0.25199900  0.50000000  0.75224800  1
  Mg  Mg18  1  0.75062500  0.00000000  0.25014500  1
  Mg  Mg19  1  0.75062500  0.00000000  0.74985500  1
  Mg  Mg20  1  0.74800100  0.50000000  0.24775200  1
  Mg  Mg21  1  0.74800100  0.50000000  0.75224800  1
  Mg  Mg22  1  0.24937500  0.25014500  0.00000000  1
  Mg  Mg23  1  0.25199900  0.24775200  0.50000000  1
  Mg  Mg24  1  0.24937500  0.74985500  0.00000000  1
  Mg  Mg25  1  0.25199900  0.75224800  0.50000000  1
  Mg  Mg26  1  0.75062500  0.25014500  0.00000000  1
  Mg  Mg27  1  0.74800100  0.24775200  0.50000000  1
  Mg  Mg28  1  0.75062500  0.74985500  0.00000000  1
  Mg  Mg29  1  0.74800100  0.75224800  0.50000000  1
  Cd  Cd0  1  0.00000000  0.50000000  0.50000000  1
  Co  Co0  1  0.00000000  0.00000000  0.00000000  1
  O  O0  1  0.25058900  0.00000000  0.00000000  1
  O  O1  1  0.25202400  0.00000000  0.50000000  1
  O  O2  1  0.25202400  0.50000000  0.00000000  1
  O  O3  1  0.26387600  0.50000000  0.50000000  1
  O  O4  1  0.74941100  0.00000000  0.00000000  1
  O  O5  1  0.74797600  0.00000000  0.50000000  1
  O  O6  1  0.74797600  0.50000000  0.00000000  1
  O  O7  1  0.73612400  0.50000000  0.50000000  1
  O  O8  1  0.24938400  0.25019000  0.25019000  1
  O  O9  1  0.24938400  0.25019000  0.74981000  1
  O  O10  1  0.24938400  0.74981000  0.25019000  1
  O  O11  1  0.24938400  0.74981000  0.74981000  1
  O  O12  1  0.75061600  0.25019000  0.25019000  1
  O  O13  1  0.75061600  0.25019000  0.74981000  1
  O  O14  1  0.75061600  0.74981000  0.25019000  1
  O  O15  1  0.75061600  0.74981000  0.74981000  1
  O  O16  1  0.00000000  0.00000000  0.25139900  1
  O  O17  1  0.00000000  0.00000000  0.74860100  1
  O  O18  1  0.00000000  0.50000000  0.23638900  1
  O  O19  1  0.00000000  0.50000000  0.76361100  1
  O  O20  1  0.50000000  0.00000000  0.24935500  1
  O  O21  1  0.50000000  0.00000000  0.75064500  1
  O  O22  1  0.50000000  0.50000000  0.24813500  1
  O  O23  1  0.50000000  0.50000000  0.75186500  1
  O  O24  1  0.00000000  0.25139900  0.00000000  1
  O  O25  1  0.00000000  0.23638900  0.50000000  1
  O  O26  1  0.00000000  0.74860100  0.00000000  1
  O  O27  1  0.00000000  0.76361100  0.50000000  1
  O  O28  1  0.50000000  0.24935500  0.00000000  1
  O  O29  1  0.50000000  0.24813500  0.50000000  1
  O  O30  1  0.50000000  0.75064500  0.00000000  1
  O  O31  1  0.50000000  0.75186500  0.50000000  1
loop_
_geom_bond_atom_site_label_1
_geom_bond_atom_site_label_2
_geom_bond_distance
_geom_bond_site_symmetry_2
Mg0 O25 2.023637 1_555
Mg0 O27 2.023637 1_545
Mg0 O17 2.128179 1_555
Mg0 O16 2.128179 1_555
Mg0 O1 2.154557 1_555
Mg0 O5 2.154557 1_455
Mg1 O18 2.023637 1_555
Mg1 O19 2.023637 1_554
Mg1 O26 2.128179 1_555
Mg1 O24 2.128179 1_555
Mg1 O2 2.154557 1_555
Mg1 O6 2.154557 1_455
Mg2 O4 2.132219 1_555
Mg2 O0 2.132219 1_555
Mg2 O21 2.134634 1_554
Mg2 O20 2.134634 1_555
Mg2 O28 2.134634 1_555
Mg2 O30 2.134634 1_545
Mg3 O5 2.119951 1_555
Mg3 O1 2.119951 1_555
Mg3 O29 2.124190 1_555
Mg3 O31 2.124190 1_545
Mg3 O21 2.145677 1_555
Mg3 O20 2.145677 1_555
Mg4 O6 2.119951 1_555
Mg4 O2 2.119951 1_555
Mg4 O22 2.124190 1_555
Mg4 O23 2.124190 1_554
Mg4 O30 2.145677 1_555
Mg4 O28 2.145677 1_555
Mg5 O3 2.018628 1_555
Mg5 O7 2.018628 1_555
Mg5 O31 2.156121 1_555
Mg5 O22 2.156121 1_555
Mg5 O23 2.156121 1_555
Mg5 O29 2.156121 1_555
Mg6 O24 2.116331 1_555
Mg6 O16 2.116331 1_555
Mg6 O8 2.132299 1_555
Mg6 O12 2.132299 1_455
Mg6 O25 2.166259 1_555
Mg6 O18 2.166259 1_555
Mg7 O17 2.116331 1_555
Mg7 O24 2.116331 1_556
Mg7 O9 2.132299 1_555
Mg7 O13 2.132299 1_455
Mg7 O25 2.166259 1_555
Mg7 O19 2.166259 1_555
Mg8 O26 2.116331 1_555
Mg8 O16 2.116331 1_565
Mg8 O10 2.132299 1_555
Mg8 O14 2.132299 1_455
Mg8 O18 2.166259 1_555
Mg8 O27 2.166259 1_555
Mg9 O17 2.116331 1_565
Mg9 O26 2.116331 1_556
Mg9 O11 2.132299 1_555
Mg9 O15 2.132299 1_455
Mg9 O19 2.166259 1_555
Mg9 O27 2.166259 1_555
Mg10 O22 2.140130 1_555
Mg10 O29 2.140130 1_555
Mg10 O20 2.140248 1_555
Mg10 O28 2.140248 1_555
Mg10 O12 2.142522 1_555
Mg10 O8 2.142522 1_555
Mg11 O23 2.140130 1_555
Mg11 O29 2.140130 1_555
Mg11 O28 2.140248 1_556
Mg11 O21 2.140248 1_555
Mg11 O13 2.142522 1_555
Mg11 O9 2.142522 1_555
Mg12 O31 2.140130 1_555
Mg12 O22 2.140130 1_555
Mg12 O20 2.140248 1_565
Mg12 O30 2.140248 1_555
Mg12 O14 2.142522 1_555
Mg12 O10 2.142522 1_555
Mg13 O23 2.140130 1_555
Mg13 O31 2.140130 1_555
Mg13 O21 2.140248 1_565
Mg13 O30 2.140248 1_556
Mg13 O15 2.142522 1_555
Mg13 O11 2.142522 1_555
Mg14 O16 2.131938 1_555
Mg14 O1 2.139034 1_555
Mg14 O0 2.141422 1_555
Mg14 O10 2.141782 1_545
Mg14 O8 2.141782 1_555
Mg14 O20 2.142608 1_555
Mg15 O17 2.131938 1_555
Mg15 O1 2.139034 1_555
Mg15 O0 2.141422 1_556
Mg15 O11 2.141782 1_545
Mg15 O9 2.141782 1_555
Mg15 O21 2.142608 1_555
Mg16 O22 2.120167 1_555
Mg16 O2 2.120911 1_555
Mg16 O8 2.138748 1_555
Mg16 O10 2.138748 1_555
Mg16 O18 2.156539 1_555
Mg16 O3 2.161786 1_555
Mg17 O23 2.120167 1_555
Mg17 O2 2.120911 1_556
Mg17 O9 2.138748 1_555
Mg17 O11 2.138748 1_555
Mg17 O19 2.156539 1_555
Mg17 O3 2.161786 1_555
Mg18 O16 2.131938 1_655
Mg18 O5 2.139034 1_555
Mg18 O4 2.141422 1_555
Mg18 O14 2.141782 1_545
Mg18 O12 2.141782 1_555
Mg18 O20 2.142608 1_555
Mg19 O17 2.131938 1_655
Mg19 O5 2.139034 1_555
Mg19 O4 2.141422 1_556
Mg19 O15 2.141782 1_545
Mg19 O13 2.141782 1_555
Mg19 O21 2.142608 1_555
Mg20 O22 2.120167 1_555
Mg20 O6 2.120911 1_555
Mg20 O12 2.138748 1_555
Mg20 O14 2.138748 1_555
Mg20 O18 2.156539 1_655
Mg20 O7 2.161786 1_555
Mg21 O23 2.120167 1_555
Mg21 O6 2.120911 1_556
Mg21 O13 2.138748 1_555
Mg21 O15 2.138748 1_555
Mg21 O19 2.156539 1_655
Mg21 O7 2.161786 1_555
Mg22 O24 2.131938 1_555
Mg22 O2 2.139034 1_555
Mg22 O0 2.141422 1_555
Mg22 O9 2.141782 1_554
Mg22 O8 2.141782 1_555
Mg22 O28 2.142608 1_555
Mg23 O29 2.120167 1_555
Mg23 O1 2.120911 1_555
Mg23 O8 2.138748 1_555
Mg23 O9 2.138748 1_555
Mg23 O25 2.156539 1_555
Mg23 O3 2.161786 1_555
Mg24 O26 2.131938 1_555
Mg24 O2 2.139034 1_555
Mg24 O0 2.141422 1_565
Mg24 O11 2.141782 1_554
Mg24 O10 2.141782 1_555
Mg24 O30 2.142608 1_555
Mg25 O31 2.120167 1_555
Mg25 O1 2.120911 1_565
Mg25 O10 2.138748 1_555
Mg25 O11 2.138748 1_555
Mg25 O27 2.156539 1_555
Mg25 O3 2.161786 1_555
Mg26 O24 2.131938 1_655
Mg26 O6 2.139034 1_555
Mg26 O4 2.141422 1_555
Mg26 O13 2.141782 1_554
Mg26 O12 2.141782 1_555
Mg26 O28 2.142608 1_555
Mg27 O29 2.120167 1_555
Mg27 O5 2.120911 1_555
Mg27 O12 2.138748 1_555
Mg27 O13 2.138748 1_555
Mg27 O25 2.156539 1_655
Mg27 O7 2.161786 1_555
Mg28 O26 2.131938 1_655
Mg28 O6 2.139034 1_555
Mg28 O4 2.141422 1_565
Mg28 O15 2.141782 1_554
Mg28 O14 2.141782 1_555
Mg28 O30 2.142608 1_555
Mg29 O31 2.120167 1_555
Mg29 O5 2.120911 1_565
Mg29 O14 2.138748 1_555
Mg29 O15 2.138748 1_555
Mg29 O27 2.156539 1_655
Mg29 O7 2.161786 1_555
Cd0 O3 2.255880 1_555
Cd0 O7 2.255880 1_455
Cd0 O27 2.256674 1_555
Cd0 O19 2.256674 1_555
Cd0 O25 2.256674 1_555
Cd0 O18 2.256674 1_555
Co0 O0 2.142290 1_555
Co0 O4 2.142290 1_455
Co0 O24 2.152132 1_555
Co0 O16 2.152132 1_555
Co0 O17 2.152132 1_554
Co0 O26 2.152132 1_545
