# generated using pymatgen
data_BaCa3Zr16(PO4)24
_symmetry_space_group_name_H-M   'P 1'
_cell_length_a   8.93566185
_cell_length_b   16.29892571
_cell_length_c   15.68629524
_cell_angle_alpha   78.04300330
_cell_angle_beta   73.45104769
_cell_angle_gamma   90.00025902
_symmetry_Int_Tables_number   1
_chemical_formula_structural   BaCa3Zr16(PO4)24
_chemical_formula_sum   'Ba1 Ca3 Zr16 P24 O96'
_cell_volume   2138.18280107
_cell_formula_units_Z   1
loop_
 _symmetry_equiv_pos_site_id
 _symmetry_equiv_pos_as_xyz
  1  'x, y, z'
loop_
 _atom_site_type_symbol
 _atom_site_label
 _atom_site_symmetry_multiplicity
 _atom_site_fract_x
 _atom_site_fract_y
 _atom_site_fract_z
 _atom_site_occupancy
  Ba  Ba0  1  0.25000000  0.75000000  0.50000000  1
  Ca  Ca0  1  0.00013888  0.00016144  0.99981870  1
  Ca  Ca1  1  0.75000000  0.25000000  0.50000000  1
  Ca  Ca2  1  0.49986112  0.49983856  0.00018130  1
  Zr  Zr0  1  0.28786389  0.56050672  0.42424015  1
  Zr  Zr1  1  0.03605214  0.81356386  0.92661925  1
  Zr  Zr2  1  0.53722281  0.31339288  0.92535011  1
  Zr  Zr3  1  0.78837470  0.06519542  0.42486301  1
  Zr  Zr4  1  0.96277719  0.18660712  0.07464989  1
  Zr  Zr5  1  0.71162530  0.43480458  0.57513699  1
  Zr  Zr6  1  0.21213611  0.93949328  0.57575985  1
  Zr  Zr7  1  0.46394786  0.68643614  0.07338075  1
  Zr  Zr8  1  0.16002910  0.19962608  0.67990081  1
  Zr  Zr9  1  0.91013627  0.44960246  0.17993397  1
  Zr  Zr10  1  0.41010781  0.94972487  0.17946759  1
  Zr  Zr11  1  0.66010584  0.69920629  0.67996908  1
  Zr  Zr12  1  0.08989319  0.55027413  0.82053241  1
  Zr  Zr13  1  0.83989516  0.80079271  0.32003092  1
  Zr  Zr14  1  0.33997190  0.30037292  0.32009919  1
  Zr  Zr15  1  0.58986473  0.05039654  0.82006603  1
  P  P0  1  0.77352686  0.25723988  0.72721404  1
  P  P1  1  0.52426554  0.50707605  0.22632300  1
  P  P2  1  0.02358635  0.00748371  0.22708298  1
  P  P3  1  0.27408404  0.75857828  0.72945963  1
  P  P4  1  0.39379358  0.36234797  0.51560468  1
  P  P5  1  0.14354419  0.61325368  0.01550925  1
  P  P6  1  0.64362560  0.11318791  0.01544992  1
  P  P7  1  0.88978679  0.86516237  0.51638963  1
  P  P8  1  0.27239287  0.18168520  0.87842176  1
  P  P9  1  0.02159047  0.43109653  0.37826138  1
  P  P10  1  0.52431285  0.93468826  0.37748582  1
  P  P11  1  0.77273602  0.68171518  0.87823797  1
  P  P12  1  0.47641365  0.49251629  0.77291702  1
  P  P13  1  0.22591596  0.74142172  0.27054037  1
  P  P14  1  0.72647314  0.24276012  0.27278596  1
  P  P15  1  0.97573446  0.99292395  0.77367700  1
  P  P16  1  0.85637440  0.38681209  0.98455008  1
  P  P17  1  0.61021321  0.63483763  0.48361037  1
  P  P18  1  0.10620642  0.13765203  0.48439532  1
  P  P19  1  0.35645581  0.88674632  0.98449075  1
  P  P20  1  0.97568715  0.56531174  0.62251418  1
  P  P21  1  0.72726398  0.81828482  0.12176203  1
  P  P22  1  0.22760713  0.31831480  0.12157824  1
  P  P23  1  0.47840953  0.06890347  0.62173862  1
  O  O0  1  0.12237140  0.39237830  0.13153169  1
  O  O1  1  0.87553473  0.64208080  0.63028496  1
  O  O2  1  0.37229987  0.14271581  0.63179463  1
  O  O3  1  0.62194431  0.89231291  0.13174547  1
  O  O4  1  0.80909116  0.32958943  0.25718716  1
  O  O5  1  0.55922593  0.57949705  0.75708478  1
  O  O6  1  0.05874691  0.07978956  0.75764056  1
  O  O7  1  0.30821643  0.82784127  0.25895484  1
  O  O8  1  0.83969694  0.42361049  0.06917371  1
  O  O9  1  0.58752796  0.67324190  0.56806539  1
  O  O10  1  0.08955080  0.17395216  0.56935253  1
  O  O11  1  0.33973320  0.92338898  0.06933952  1
  O  O12  1  0.12770013  0.35728419  0.36820537  1
  O  O13  1  0.87805569  0.60768709  0.86825453  1
  O  O14  1  0.37762860  0.10762170  0.86846831  1
  O  O15  1  0.62446527  0.85791920  0.36971504  1
  O  O16  1  0.44125309  0.42021044  0.24235944  1
  O  O17  1  0.19178357  0.67215873  0.74104516  1
  O  O18  1  0.69090884  0.17041057  0.74281284  1
  O  O19  1  0.94077407  0.92050295  0.24291522  1
  O  O20  1  0.41044920  0.32604784  0.43064747  1
  O  O21  1  0.16026680  0.57661102  0.93066048  1
  O  O22  1  0.66030306  0.07638951  0.93082629  1
  O  O23  1  0.91247204  0.82675810  0.43193461  1
  O  O24  1  0.23146776  0.21818959  0.78991016  1
  O  O25  1  0.98121275  0.46791957  0.28974689  1
  O  O26  1  0.48328333  0.96858849  0.28861452  1
  O  O27  1  0.73178574  0.71802667  0.78960830  1
  O  O28  1  0.94612067  0.25066583  0.72495640  1
  O  O29  1  0.69652777  0.50052517  0.22448548  1
  O  O30  1  0.19616120  0.00034737  0.22478743  1
  O  O31  1  0.44678586  0.74996942  0.72604711  1
  O  O32  1  0.26576406  0.31353519  0.59856352  1
  O  O33  1  0.01583637  0.56381852  0.09835938  1
  O  O34  1  0.51582968  0.06387387  0.09836222  1
  O  O35  1  0.76330447  0.81365733  0.59833650  1
  O  O36  1  0.01671667  0.53141151  0.71138548  1
  O  O37  1  0.76821426  0.78197333  0.21039170  1
  O  O38  1  0.26853224  0.28181041  0.21008984  1
  O  O39  1  0.51878725  0.03208043  0.71025311  1
  O  O40  1  0.30383880  0.49965263  0.77521257  1
  O  O41  1  0.05321414  0.75003058  0.27395289  1
  O  O42  1  0.55387933  0.24933417  0.27504360  1
  O  O43  1  0.80347223  0.99947483  0.77551452  1
  O  O44  1  0.98417032  0.43612613  0.90163778  1
  O  O45  1  0.73669553  0.68634267  0.40166350  1
  O  O46  1  0.23423594  0.18646481  0.40143648  1
  O  O47  1  0.48416363  0.93618148  0.90164062  1
  O  O48  1  0.48574073  0.44077878  0.86688717  1
  O  O49  1  0.23469420  0.68346714  0.36082884  1
  O  O50  1  0.73570805  0.19119417  0.36669349  1
  O  O51  1  0.98534891  0.94079866  0.86733681  1
  O  O52  1  0.69559260  0.39245608  0.96314986  1
  O  O53  1  0.45364539  0.63440664  0.45909478  1
  O  O54  1  0.94564728  0.14323425  0.46318064  1
  O  O55  1  0.19544751  0.89254899  0.96345991  1
  O  O56  1  0.12970078  0.59199788  0.54393142  1
  O  O57  1  0.88129398  0.85225267  0.04447136  1
  O  O58  1  0.38163692  0.35206145  0.04394105  1
  O  O59  1  0.63194355  0.10260672  0.54409151  1
  O  O60  1  0.76429195  0.30880583  0.63330651  1
  O  O61  1  0.51465109  0.55920134  0.13266319  1
  O  O62  1  0.01425927  0.05922122  0.13311283  1
  O  O63  1  0.26530580  0.81653286  0.63917116  1
  O  O64  1  0.55435272  0.35676575  0.53681936  1
  O  O65  1  0.30455249  0.60745101  0.03654009  1
  O  O66  1  0.80440740  0.10754392  0.03685014  1
  O  O67  1  0.04635461  0.86559336  0.54090522  1
  O  O68  1  0.11836308  0.14793855  0.95605895  1
  O  O69  1  0.86805645  0.39739328  0.45590849  1
  O  O70  1  0.37029922  0.90800212  0.45606858  1
  O  O71  1  0.61870602  0.64774733  0.95552864  1
  O  O72  1  0.94204558  0.05315950  0.30363363  1
  O  O73  1  0.69115608  0.30296144  0.80386114  1
  O  O74  1  0.44226906  0.55256484  0.30273767  1
  O  O75  1  0.19149909  0.80176729  0.80779686  1
  O  O76  1  0.84516492  0.95728969  0.49673593  1
  O  O77  1  0.60143248  0.20635808  0.99717990  1
  O  O78  1  0.35236177  0.45520270  0.49741465  1
  O  O79  1  0.10121406  0.70625217  0.99745023  1
  O  O80  1  0.61020868  0.00520902  0.40103806  1
  O  O81  1  0.35480880  0.25289938  0.90396047  1
  O  O82  1  0.10348124  0.50206328  0.40375587  1
  O  O83  1  0.85452629  0.75294993  0.90391434  1
  O  O84  1  0.30850091  0.69823271  0.19220314  1
  O  O85  1  0.05773094  0.94743516  0.69726233  1
  O  O86  1  0.80884392  0.19703856  0.19613886  1
  O  O87  1  0.55795442  0.44684050  0.69636637  1
  O  O88  1  0.39878594  0.79374783  0.00254977  1
  O  O89  1  0.14763823  0.04479730  0.50258535  1
  O  O90  1  0.89856752  0.29364192  0.00282010  1
  O  O91  1  0.65483508  0.54271031  0.50326407  1
  O  O92  1  0.64547371  0.74705007  0.09608566  1
  O  O93  1  0.39651876  0.99793672  0.59624413  1
  O  O94  1  0.14519120  0.24710062  0.09603953  1
  O  O95  1  0.88979132  0.49479098  0.59896194  1
loop_
_geom_bond_atom_site_label_1
_geom_bond_atom_site_label_2
_geom_bond_distance
_geom_bond_site_symmetry_2
Ba0 O56 2.665528 1_555
Ba0 O70 2.665528 1_555
Ba0 O67 2.666172 1_555
Ba0 O53 2.666172 1_555
Ba0 O63 2.666742 1_555
Ba0 O49 2.666742 1_555
Ca0 O51 2.502385 1_445
Ca0 O68 2.508066 1_555
Ca0 O55 2.508974 1_545
Ca0 O62 2.509708 1_556
Ca0 O66 2.510417 1_456
Ca0 O57 2.511308 1_446
Ca1 O59 2.501672 1_555
Ca1 O69 2.501672 1_555
Ca1 O54 2.501872 1_555
Ca1 O64 2.501872 1_555
Ca1 O50 2.508030 1_555
Ca1 O60 2.508030 1_555
Ca2 O61 2.502385 1_555
Ca2 O58 2.508066 1_555
Ca2 O65 2.508974 1_555
Ca2 O48 2.509708 1_554
Ca2 O52 2.510417 1_554
Ca2 O71 2.511308 1_554
O0 P22 1.536336 1_555
O0 Zr9 2.125117 1_455
O1 P20 1.543520 1_555
O1 Zr11 2.150809 1_555
O2 P23 1.537755 1_555
O2 Zr8 2.121855 1_555
O3 P21 1.536351 1_555
O3 Zr10 2.121822 1_555
O4 P14 1.536665 1_555
O4 Zr9 2.122377 1_555
O5 P12 1.538999 1_555
O5 Zr11 2.117453 1_555
O6 P15 1.537582 1_445
O6 Zr8 2.122615 1_555
O7 P13 1.541312 1_555
O7 Zr10 2.158011 1_555
O8 P16 1.536624 1_554
O8 Zr9 2.126551 1_555
O9 P17 1.542266 1_555
O9 Zr11 2.153431 1_555
O10 P18 1.536853 1_555
O10 Zr8 2.121695 1_555
O11 P19 1.538361 1_554
O11 Zr10 2.118976 1_555
O12 P9 1.537755 1_555
O12 Zr14 2.121871 1_555
O13 P11 1.536351 1_555
O13 Zr12 2.121838 1_655
O14 P8 1.536336 1_555
O14 Zr15 2.125133 1_555
O15 P10 1.543520 1_555
O15 Zr13 2.150825 1_555
O16 P1 1.537582 1_555
O16 Zr14 2.122626 1_555
O17 P3 1.541312 1_555
O17 Zr12 2.158022 1_555
O18 P0 1.536665 1_555
O18 Zr15 2.122388 1_555
O19 P2 1.538999 1_665
O19 Zr13 2.117464 1_555
O20 P4 1.536853 1_555
O20 Zr14 2.121697 1_555
O21 P5 1.538361 1_556
O21 Zr12 2.118977 1_555
O22 P6 1.536624 1_556
O22 Zr15 2.126552 1_555
O23 P7 1.542266 1_555
O23 Zr13 2.153433 1_555
O24 P8 1.537008 1_555
O24 Zr8 2.078638 1_555
O25 P9 1.535680 1_655
O25 Zr9 2.072686 1_555
O26 P10 1.534638 1_555
O26 Zr10 2.075876 1_555
O27 P11 1.538145 1_555
O27 Zr11 2.075644 1_555
O28 P0 1.536782 1_555
O28 Zr8 2.078248 1_655
O29 P1 1.535450 1_555
O29 Zr9 2.073883 1_555
O30 P2 1.537177 1_555
O30 Zr10 2.076006 1_545
O31 P3 1.536259 1_555
O31 Zr11 2.074456 1_555
O32 P4 1.535614 1_555
O32 Zr8 2.073460 1_555
O33 P5 1.536779 1_555
O33 Zr9 2.078333 1_455
O34 P6 1.536999 1_555
O34 Zr10 2.075345 1_545
O35 P7 1.536126 1_555
O35 Zr11 2.075435 1_555
O36 P20 1.534638 1_455
O36 Zr12 2.075876 1_555
O37 P21 1.538145 1_555
O37 Zr13 2.075643 1_555
O38 P22 1.537008 1_555
O38 Zr14 2.078638 1_555
O39 P23 1.535680 1_555
O39 Zr15 2.072686 1_555
O40 P12 1.537177 1_555
O40 Zr12 2.075991 1_555
O41 P13 1.536259 1_555
O41 Zr13 2.074441 1_455
O42 P14 1.536782 1_555
O42 Zr14 2.078233 1_555
O43 P15 1.535450 1_555
O43 Zr15 2.073868 1_565
O44 P16 1.536999 1_555
O44 Zr12 2.075335 1_655
O45 P17 1.536126 1_555
O45 Zr13 2.075425 1_555
O46 P18 1.535614 1_555
O46 Zr14 2.073450 1_555
O47 P19 1.536779 1_555
O47 Zr15 2.078323 1_565
O48 P12 1.563901 1_555
O48 Zr2 2.194275 1_555
O49 P13 1.553464 1_555
O49 Zr0 2.162142 1_555
O50 P14 1.561845 1_555
O50 Zr3 2.177086 1_555
O51 P15 1.562806 1_555
O51 Zr1 2.193532 1_655
O52 P16 1.564347 1_555
O52 Zr2 2.193032 1_555
O53 P17 1.553334 1_555
O53 Zr0 2.162963 1_555
O54 P18 1.561035 1_655
O54 Zr3 2.179921 1_555
O55 P19 1.563692 1_555
O55 Zr1 2.190221 1_555
O56 P20 1.553727 1_455
O56 Zr0 2.161852 1_555
O57 P21 1.562710 1_555
O57 Zr1 2.180417 1_654
O58 P22 1.564481 1_555
O58 Zr2 2.191599 1_554
O59 P23 1.561505 1_555
O59 Zr3 2.192447 1_555
O60 P0 1.561845 1_555
O60 Zr5 2.177086 1_555
O61 P1 1.562806 1_555
O61 Zr7 2.193532 1_555
O62 P2 1.563901 1_555
O62 Zr4 2.194275 1_455
O63 P3 1.553464 1_555
O63 Zr6 2.162142 1_555
O64 P4 1.561035 1_555
O64 Zr5 2.179921 1_555
O65 P5 1.563692 1_555
O65 Zr7 2.190221 1_555
O66 P6 1.564347 1_555
O66 Zr4 2.193032 1_555
O67 P7 1.553334 1_455
O67 Zr6 2.162963 1_555
O68 P8 1.564481 1_555
O68 Zr4 2.191599 1_456
O69 P9 1.561505 1_655
O69 Zr5 2.192447 1_555
O70 P10 1.553727 1_555
O70 Zr6 2.161852 1_555
O71 P11 1.562710 1_555
O71 Zr7 2.180417 1_556
O72 P2 1.548880 1_655
O72 Zr3 2.051170 1_555
O73 P0 1.552344 1_555
O73 Zr2 2.047833 1_555
O74 P1 1.546372 1_555
O74 Zr0 2.038901 1_555
O75 P3 1.546590 1_555
O75 Zr1 2.028311 1_555
O76 P7 1.544984 1_555
O76 Zr3 2.031282 1_565
O77 P6 1.552924 1_556
O77 Zr2 2.048417 1_555
O78 P4 1.546029 1_555
O78 Zr0 2.038644 1_555
O79 P5 1.550490 1_556
O79 Zr1 2.048431 1_555
O80 P10 1.544097 1_545
O80 Zr3 2.029899 1_555
O81 P8 1.552682 1_555
O81 Zr2 2.047001 1_555
O82 P9 1.546502 1_555
O82 Zr0 2.038026 1_555
O83 P11 1.551079 1_555
O83 Zr1 2.051540 1_655
O84 P13 1.546590 1_555
O84 Zr7 2.028311 1_555
O85 P15 1.546372 1_455
O85 Zr6 2.038901 1_555
O86 P14 1.552344 1_555
O86 Zr4 2.047833 1_555
O87 P12 1.548880 1_555
O87 Zr5 2.051170 1_555
O88 P19 1.550490 1_554
O88 Zr7 2.048431 1_555
O89 P18 1.546029 1_555
O89 Zr6 2.038644 1_545
O90 P16 1.552924 1_554
O90 Zr4 2.048417 1_555
O91 P17 1.544984 1_555
O91 Zr5 2.031282 1_555
O92 P21 1.551079 1_555
O92 Zr7 2.051540 1_555
O93 P23 1.546502 1_565
O93 Zr6 2.038026 1_555
O94 P22 1.552682 1_555
O94 Zr4 2.047001 1_455
O95 P20 1.544097 1_555
O95 Zr5 2.029899 1_555
