# generated using pymatgen
data_NaCr12Si8ClO28
_symmetry_space_group_name_H-M   'P 1'
_cell_length_a   9.91012810
_cell_length_b   9.91012810
_cell_length_c   9.91012810
_cell_angle_alpha   116.35193203
_cell_angle_beta   116.35193203
_cell_angle_gamma   96.44404618
_symmetry_Int_Tables_number   1
_chemical_formula_structural   NaCr12Si8ClO28
_chemical_formula_sum   'Na1 Cr12 Si8 Cl1 O28'
_cell_volume   721.22049817
_cell_formula_units_Z   1
loop_
 _symmetry_equiv_pos_site_id
 _symmetry_equiv_pos_as_xyz
  1  'x, y, z'
loop_
 _atom_site_type_symbol
 _atom_site_label
 _atom_site_symmetry_multiplicity
 _atom_site_fract_x
 _atom_site_fract_y
 _atom_site_fract_z
 _atom_site_occupancy
  Na  Na0  1  0.04068600  0.04068600  0.00000000  1
  Cr  Cr0  1  0.28539000  0.05764900  0.77226000  1
  Cr  Cr1  1  0.28539000  0.51313000  0.22774000  1
  Cr  Cr2  1  0.51313000  0.28539000  0.22774000  1
  Cr  Cr3  1  0.05764900  0.28539000  0.77226000  1
  Cr  Cr4  1  0.71775700  0.94983300  0.23207600  1
  Cr  Cr5  1  0.71775700  0.48568100  0.76792400  1
  Cr  Cr6  1  0.48568100  0.71775700  0.76792400  1
  Cr  Cr7  1  0.94983300  0.71775700  0.23207600  1
  Cr  Cr8  1  0.49944100  0.17552700  0.67608600  1
  Cr  Cr9  1  0.49944100  0.82335500  0.32391400  1
  Cr  Cr10  1  0.82335500  0.49944100  0.32391400  1
  Cr  Cr11  1  0.17552700  0.49944100  0.67608600  1
  Si  Si0  1  0.89246400  0.89246400  0.56244200  1
  Si  Si1  1  0.33002100  0.33002100  0.43755800  1
  Si  Si2  1  0.33002100  0.89246400  0.00000000  1
  Si  Si3  1  0.89246400  0.33002100  0.00000000  1
  Si  Si4  1  0.10649800  0.10649800  0.43496100  1
  Si  Si5  1  0.67153700  0.67153700  0.56503900  1
  Si  Si6  1  0.67153700  0.10649800  0.00000000  1
  Si  Si7  1  0.10649800  0.67153700  0.00000000  1
  Cl  Cl0  1  0.43729700  0.43729700  0.00000000  1
  O  O0  1  0.25432200  0.06883000  0.55741200  1
  O  O1  1  0.51141800  0.69691100  0.44258800  1
  O  O2  1  0.51141800  0.06883000  0.81450700  1
  O  O3  1  0.25432300  0.69691100  0.18549300  1
  O  O4  1  0.69691100  0.25432300  0.18549300  1
  O  O5  1  0.06883000  0.51141800  0.81450700  1
  O  O6  1  0.06883000  0.25432300  0.55741200  1
  O  O7  1  0.69691100  0.51141800  0.44258800  1
  O  O8  1  0.74402700  0.92833200  0.43852600  1
  O  O9  1  0.48980600  0.30550200  0.56147400  1
  O  O10  1  0.48980600  0.92833200  0.18430500  1
  O  O11  1  0.74402700  0.30550200  0.81569500  1
  O  O12  1  0.30550200  0.74402700  0.81569500  1
  O  O13  1  0.92833200  0.48980600  0.18430500  1
  O  O14  1  0.92833200  0.74402700  0.43852600  1
  O  O15  1  0.30550200  0.48980600  0.56147400  1
  O  O16  1  0.05836500  0.05836500  0.71560400  1
  O  O17  1  0.34276100  0.34276100  0.28439600  1
  O  O18  1  0.34276100  0.05836500  0.00000000  1
  O  O19  1  0.05836500  0.34276100  0.00000000  1
  O  O20  1  0.94053800  0.94053800  0.28672000  1
  O  O21  1  0.65381800  0.65381800  0.71328000  1
  O  O22  1  0.65381800  0.94053800  0.00000000  1
  O  O23  1  0.94053800  0.65381800  0.00000000  1
  O  O24  1  0.83588700  0.83588700  0.67079100  1
  O  O25  1  0.16509700  0.16509700  0.32920900  1
  O  O26  1  0.16509700  0.83588700  0.00000000  1
  O  O27  1  0.83588700  0.16509700  0.00000000  1
loop_
_geom_bond_atom_site_label_1
_geom_bond_atom_site_label_2
_geom_bond_distance
_geom_bond_site_symmetry_2
Na0 O25 2.490175 1_555
Na0 O24 2.490178 1_444
Na0 O26 2.490184 1_545
Na0 O27 2.490184 1_455
Cr0 O18 2.064644 1_556
Cr0 O16 2.064651 1_555
Cr0 O2 2.067742 1_555
Cr0 O0 2.067746 1_555
Cr1 O19 2.064649 1_555
Cr1 O17 2.064649 1_555
Cr1 O1 2.067744 1_555
Cr1 O3 2.067744 1_555
Cr2 O18 2.064649 1_555
Cr2 O17 2.064649 1_555
Cr2 O7 2.067744 1_555
Cr2 O4 2.067744 1_555
Cr3 O19 2.064644 1_556
Cr3 O16 2.064651 1_555
Cr3 O5 2.067742 1_555
Cr3 O6 2.067749 1_555
Cr4 O22 2.050513 1_555
Cr4 O20 2.050513 1_555
Cr4 O8 2.055647 1_555
Cr4 O10 2.055647 1_555
Cr5 O21 2.050513 1_555
Cr5 O23 2.050513 1_556
Cr5 O11 2.055637 1_555
Cr5 O9 2.055644 1_555
Cr6 O21 2.050513 1_555
Cr6 O22 2.050513 1_556
Cr6 O12 2.055637 1_555
Cr6 O15 2.055644 1_555
Cr7 O20 2.050513 1_555
Cr7 O23 2.050513 1_555
Cr7 O14 2.055647 1_555
Cr7 O13 2.055647 1_555
Cr8 O2 2.045779 1_555
Cr8 O0 2.045788 1_555
Cr8 O11 2.046568 1_555
Cr8 O9 2.046574 1_555
Cr9 O1 2.045779 1_555
Cr9 O3 2.045779 1_555
Cr9 O10 2.046566 1_555
Cr9 O8 2.046566 1_555
Cr10 O7 2.045779 1_555
Cr10 O4 2.045779 1_555
Cr10 O13 2.046566 1_555
Cr10 O14 2.046566 1_555
Cr11 O5 2.045779 1_555
Cr11 O6 2.045779 1_555
Cr11 O12 2.046568 1_555
Cr11 O15 2.046574 1_555
Cl0 Cr1 3.112763 1_555
Cl0 Cr2 3.112763 1_555
Cl0 Cr0 3.112771 1_554
Cl0 Cr3 3.112771 1_554
O0 Si4 1.644607 1_555
O1 Si5 1.644613 1_555
O2 Si6 1.644613 1_556
O3 Si7 1.644613 1_555
O4 Si6 1.644613 1_555
O5 Si7 1.644613 1_556
O6 Si4 1.644613 1_555
O7 Si5 1.644613 1_555
O8 Si0 1.643013 1_555
O9 Si1 1.643008 1_555
O10 Si2 1.643018 1_555
O11 Si3 1.643022 1_556
O12 Si2 1.643022 1_556
O13 Si3 1.643018 1_555
O14 Si0 1.643013 1_555
O15 Si1 1.643008 1_555
O16 Si0 1.634752 1_445
O17 Si1 1.634761 1_555
O18 Si2 1.634751 1_545
O19 Si3 1.634751 1_455
O20 Si4 1.634318 1_665
O21 Si5 1.634318 1_555
O22 Si6 1.634318 1_565
O23 Si7 1.634318 1_655
O24 Si5 1.666638 1_555
O24 Si0 1.667349 1_555
O25 Si4 1.666650 1_555
O25 Si1 1.667326 1_555
O26 Si7 1.666641 1_555
O26 Si2 1.667331 1_555
O27 Si6 1.666641 1_555
O27 Si3 1.667331 1_555
