# generated using pymatgen
data_YbSbO4
_symmetry_space_group_name_H-M   'P 1'
_cell_length_a   5.36164021
_cell_length_b   7.32552497
_cell_length_c   8.12366371
_cell_angle_alpha   83.68098302
_cell_angle_beta   88.29632195
_cell_angle_gamma   93.08672974
_symmetry_Int_Tables_number   1
_chemical_formula_structural   YbSbO4
_chemical_formula_sum   'Yb4 Sb4 O16'
_cell_volume   316.46867730
_cell_formula_units_Z   4
loop_
 _symmetry_equiv_pos_site_id
 _symmetry_equiv_pos_as_xyz
  1  'x, y, z'
loop_
 _atom_site_type_symbol
 _atom_site_label
 _atom_site_symmetry_multiplicity
 _atom_site_fract_x
 _atom_site_fract_y
 _atom_site_fract_z
 _atom_site_occupancy
  Yb  Yb0  1  0.25316100  0.12825500  0.58861500  1
  Yb  Yb1  1  0.74683900  0.87174500  0.41138500  1
  Yb  Yb2  1  0.24379900  0.14037300  0.11129200  1
  Yb  Yb3  1  0.75620100  0.85962700  0.88870800  1
  Sb  Sb0  1  0.20571000  0.63072500  0.21878600  1
  Sb  Sb1  1  0.79429000  0.36927500  0.78121400  1
  Sb  Sb2  1  0.73722900  0.33567000  0.33583600  1
  Sb  Sb3  1  0.26277100  0.66433000  0.66416400  1
  O  O0  1  0.10482000  0.41991700  0.62425400  1
  O  O1  1  0.89518000  0.58008300  0.37574600  1
  O  O2  1  0.62785800  0.30280300  0.57730200  1
  O  O3  1  0.37214200  0.69719700  0.42269800  1
  O  O4  1  0.00414800  0.41503900  0.12605700  1
  O  O5  1  0.99585200  0.58496100  0.87394300  1
  O  O6  1  0.46763800  0.44655500  0.19901300  1
  O  O7  1  0.53236200  0.55344500  0.80098700  1
  O  O8  1  0.00528100  0.84816300  0.14457900  1
  O  O9  1  0.99471900  0.15183700  0.85542100  1
  O  O10  1  0.50880100  0.11541200  0.32875000  1
  O  O11  1  0.49119900  0.88458800  0.67125000  1
  O  O12  1  0.57417800  0.18516100  0.91943300  1
  O  O13  1  0.42582200  0.81483900  0.08056700  1
  O  O14  1  0.99838200  0.15644200  0.36412500  1
  O  O15  1  0.00161800  0.84355800  0.63587500  1
loop_
_geom_bond_atom_site_label_1
_geom_bond_atom_site_label_2
_geom_bond_distance
_geom_bond_site_symmetry_2
O0 Sb3 2.002212 1_555
O0 Sb1 2.058801 1_455
O0 Yb0 2.363652 1_555
O1 Sb2 2.002212 1_555
O1 Sb0 2.058801 1_655
O1 Yb1 2.363652 1_555
O2 Sb1 1.999023 1_555
O2 Sb2 2.015467 1_555
O2 Yb0 2.316453 1_555
O3 Sb0 1.999023 1_555
O3 Sb3 2.015467 1_555
O3 Yb1 2.316453 1_555
O4 Sb0 2.087663 1_555
O4 Sb2 2.199462 1_455
O4 Yb2 2.456876 1_555
O5 Sb1 2.087663 1_555
O5 Sb3 2.199462 1_655
O5 Yb3 2.456876 1_555
O6 Sb2 2.001953 1_555
O6 Sb0 2.014091 1_555
O6 Yb2 2.663036 1_555
O7 Sb3 2.001953 1_555
O7 Sb1 2.014091 1_555
O7 Yb3 2.663036 1_555
O8 Sb0 2.016653 1_555
O8 Yb2 2.418245 1_565
O8 Yb3 2.499977 1_454
O8 Yb1 2.564636 1_455
O9 Sb1 2.016653 1_555
O9 Yb3 2.418245 1_545
O9 Yb2 2.499977 1_656
O9 Yb0 2.564636 1_655
O10 Sb2 1.979530 1_555
O10 Yb2 2.297624 1_555
O10 Yb1 2.301786 1_545
O10 Yb0 2.495926 1_555
O11 Sb3 1.979530 1_555
O11 Yb3 2.297624 1_555
O11 Yb0 2.301786 1_565
O11 Yb1 2.495926 1_555
O12 Sb1 1.972069 1_555
O12 Yb2 2.309831 1_556
O12 Yb3 2.658717 1_545
O13 Sb0 1.972069 1_555
O13 Yb3 2.309831 1_554
O13 Yb2 2.658717 1_565
O14 Sb2 1.971777 1_555
O14 Yb0 2.308703 1_655
O14 Yb1 2.409548 1_545
O14 Yb2 2.423451 1_655
O15 Sb3 1.971777 1_555
O15 Yb1 2.308703 1_455
O15 Yb0 2.409548 1_565
O15 Yb3 2.423451 1_455
