# generated using pymatgen
data_HoTa5Ag2O15
_symmetry_space_group_name_H-M   'P 1'
_cell_length_a   12.57960500
_cell_length_b   12.57960500
_cell_length_c   3.91571300
_cell_angle_alpha   90.00000000
_cell_angle_beta   90.00000000
_cell_angle_gamma   90.00000000
_symmetry_Int_Tables_number   1
_chemical_formula_structural   HoTa5Ag2O15
_chemical_formula_sum   'Ho2 Ta10 Ag4 O30'
_cell_volume   619.64772829
_cell_formula_units_Z   2
loop_
 _symmetry_equiv_pos_site_id
 _symmetry_equiv_pos_as_xyz
  1  'x, y, z'
loop_
 _atom_site_type_symbol
 _atom_site_label
 _atom_site_symmetry_multiplicity
 _atom_site_fract_x
 _atom_site_fract_y
 _atom_site_fract_z
 _atom_site_occupancy
  Ho  Ho0  1  0.00000000  0.00000000  0.50000000  1
  Ho  Ho1  1  0.50000000  0.50000000  0.50000000  1
  Ta  Ta0  1  0.50000000  0.00000000  0.00000000  1
  Ta  Ta1  1  0.00000000  0.50000000  0.00000000  1
  Ta  Ta2  1  0.21091200  0.07854000  0.00000000  1
  Ta  Ta3  1  0.78908800  0.92146000  0.00000000  1
  Ta  Ta4  1  0.07854000  0.78908800  0.00000000  1
  Ta  Ta5  1  0.71091200  0.42146000  0.00000000  1
  Ta  Ta6  1  0.92146000  0.21091200  0.00000000  1
  Ta  Ta7  1  0.28908800  0.57854000  0.00000000  1
  Ta  Ta8  1  0.57854000  0.71091200  0.00000000  1
  Ta  Ta9  1  0.42146000  0.28908800  0.00000000  1
  Ag  Ag0  1  0.67221800  0.17221800  0.50000000  1
  Ag  Ag1  1  0.32778200  0.82778200  0.50000000  1
  Ag  Ag2  1  0.17221800  0.32778200  0.50000000  1
  Ag  Ag3  1  0.82778200  0.67221800  0.50000000  1
  O  O0  1  0.18998500  0.07996100  0.50000000  1
  O  O1  1  0.81001500  0.92003900  0.50000000  1
  O  O2  1  0.07996100  0.81001500  0.50000000  1
  O  O3  1  0.68998500  0.42003900  0.50000000  1
  O  O4  1  0.92003900  0.18998500  0.50000000  1
  O  O5  1  0.31001500  0.57996100  0.50000000  1
  O  O6  1  0.57996100  0.68998500  0.50000000  1
  O  O7  1  0.42003900  0.31001500  0.50000000  1
  O  O8  1  0.22566000  0.72566000  0.00000000  1
  O  O9  1  0.77434000  0.27434000  0.00000000  1
  O  O10  1  0.72566000  0.77434000  0.00000000  1
  O  O11  1  0.27434000  0.22566000  0.00000000  1
  O  O12  1  0.50000000  0.00000000  0.50000000  1
  O  O13  1  0.00000000  0.50000000  0.50000000  1
  O  O14  1  0.05670400  0.12904000  0.00000000  1
  O  O15  1  0.94329600  0.87096000  0.00000000  1
  O  O16  1  0.12904000  0.94329600  0.00000000  1
  O  O17  1  0.55670400  0.37096000  0.00000000  1
  O  O18  1  0.87096000  0.05670400  0.00000000  1
  O  O19  1  0.44329600  0.62904000  0.00000000  1
  O  O20  1  0.62904000  0.55670400  0.00000000  1
  O  O21  1  0.37096000  0.44329600  0.00000000  1
  O  O22  1  0.34102900  0.99774800  0.00000000  1
  O  O23  1  0.65897100  0.00225200  0.00000000  1
  O  O24  1  0.99774800  0.65897100  0.00000000  1
  O  O25  1  0.84102900  0.50225200  0.00000000  1
  O  O26  1  0.00225200  0.34102900  0.00000000  1
  O  O27  1  0.15897100  0.49774800  0.00000000  1
  O  O28  1  0.49774800  0.84102900  0.00000000  1
  O  O29  1  0.50225200  0.15897100  0.00000000  1
loop_
_geom_bond_atom_site_label_1
_geom_bond_atom_site_label_2
_geom_bond_distance
_geom_bond_site_symmetry_2
Ho0 O1 2.592988 1_445
Ho0 O2 2.592988 1_545
Ho0 O0 2.592988 1_555
Ho0 O4 2.592988 1_455
Ho0 O14 2.641407 1_556
Ho0 O16 2.641407 1_545
Ho0 O16 2.641407 1_546
Ho0 O14 2.641407 1_555
Ho0 O18 2.641407 1_456
Ho0 O18 2.641407 1_455
Ho0 O15 2.641407 1_446
Ho0 O15 2.641407 1_445
Ho1 O6 2.592988 1_555
Ho1 O3 2.592988 1_555
Ho1 O5 2.592988 1_555
Ho1 O7 2.592988 1_555
Ho1 O17 2.641407 1_555
Ho1 O17 2.641407 1_556
Ho1 O21 2.641407 1_555
Ho1 O21 2.641407 1_556
Ho1 O19 2.641407 1_556
Ho1 O19 2.641407 1_555
Ho1 O20 2.641407 1_555
Ho1 O20 2.641407 1_556
Ag0 O9 2.670932 1_555
Ag0 O9 2.670932 1_556
Ag1 O8 2.670932 1_555
Ag1 O8 2.670932 1_556
Ag2 O11 2.670932 1_556
Ag2 O11 2.670932 1_555
Ag3 O10 2.670932 1_555
Ag3 O10 2.670932 1_556
O0 Ta2 1.975557 1_555
O0 Ta2 1.975557 1_556
O1 Ta3 1.975557 1_556
O1 Ta3 1.975557 1_555
O2 Ta4 1.975557 1_555
O2 Ta4 1.975557 1_556
O3 Ta5 1.975557 1_556
O3 Ta5 1.975557 1_555
O4 Ta6 1.975557 1_556
O4 Ta6 1.975557 1_555
O5 Ta7 1.975557 1_556
O5 Ta7 1.975557 1_555
O6 Ta8 1.975557 1_556
O6 Ta8 1.975557 1_555
O7 Ta9 1.975557 1_556
O7 Ta9 1.975557 1_555
O8 Ta7 2.015385 1_555
O8 Ta4 2.015385 1_555
O9 Ta6 2.015385 1_555
O9 Ta5 2.015385 1_555
O10 Ta3 2.015385 1_555
O10 Ta8 2.015385 1_555
O11 Ta2 2.015385 1_555
O11 Ta9 2.015385 1_555
O12 Ta0 1.957857 1_556
O12 Ta0 1.957857 1_555
O13 Ta1 1.957857 1_555
O13 Ta1 1.957857 1_556
O14 Ta6 1.988770 1_455
O14 Ta2 2.041246 1_555
O15 Ta4 1.988770 1_655
O15 Ta3 2.041246 1_555
O16 Ta2 1.988770 1_565
O16 Ta4 2.041246 1_555
O17 Ta9 1.988770 1_555
O17 Ta5 2.041246 1_555
O18 Ta3 1.988770 1_545
O18 Ta6 2.041246 1_555
O19 Ta8 1.988770 1_555
O19 Ta7 2.041246 1_555
O20 Ta5 1.988770 1_555
O20 Ta8 2.041246 1_555
O21 Ta7 1.988770 1_555
O21 Ta9 2.041246 1_555
O22 Ta2 1.926684 1_565
O22 Ta0 1.999993 1_565
O23 Ta3 1.926684 1_545
O23 Ta0 1.999993 1_555
O24 Ta4 1.926684 1_655
O24 Ta1 1.999993 1_655
O25 Ta5 1.926684 1_555
O25 Ta1 1.999993 1_655
O26 Ta6 1.926684 1_455
O26 Ta1 1.999993 1_555
O27 Ta7 1.926684 1_555
O27 Ta1 1.999993 1_555
O28 Ta8 1.926684 1_555
O28 Ta0 1.999993 1_565
O29 Ta9 1.926684 1_555
O29 Ta0 1.999993 1_555
