# generated using pymatgen
data_Ge19(PCl)4
_symmetry_space_group_name_H-M   'P 1'
_cell_length_a   10.51468146
_cell_length_b   10.51468146
_cell_length_c   10.51468146
_cell_angle_alpha   90.00000000
_cell_angle_beta   90.00000000
_cell_angle_gamma   90.00000000
_symmetry_Int_Tables_number   1
_chemical_formula_structural   Ge19(PCl)4
_chemical_formula_sum   'Ge38 P8 Cl8'
_cell_volume   1162.48768574
_cell_formula_units_Z   2
loop_
 _symmetry_equiv_pos_site_id
 _symmetry_equiv_pos_as_xyz
  1  'x, y, z'
loop_
 _atom_site_type_symbol
 _atom_site_label
 _atom_site_symmetry_multiplicity
 _atom_site_fract_x
 _atom_site_fract_y
 _atom_site_fract_z
 _atom_site_occupancy
  Ge  Ge0  1  0.31527656  0.31527656  0.31527656  1
  Ge  Ge1  1  0.68472344  0.68472344  0.31527656  1
  Ge  Ge2  1  0.68472344  0.31527656  0.68472344  1
  Ge  Ge3  1  0.81527656  0.81527656  0.81527656  1
  Ge  Ge4  1  0.31527656  0.68472344  0.68472344  1
  Ge  Ge5  1  0.18472344  0.18472344  0.81527656  1
  Ge  Ge6  1  0.81527656  0.18472344  0.18472344  1
  Ge  Ge7  1  0.18472344  0.81527656  0.18472344  1
  Ge  Ge8  1  0.00202431  0.11822780  0.30718480  1
  Ge  Ge9  1  0.99797569  0.88177220  0.30718480  1
  Ge  Ge10  1  0.99797569  0.11822780  0.69281520  1
  Ge  Ge11  1  0.30718480  0.00202431  0.11822780  1
  Ge  Ge12  1  0.61822780  0.50202431  0.80718480  1
  Ge  Ge13  1  0.00202431  0.88177220  0.69281520  1
  Ge  Ge14  1  0.30718480  0.99797569  0.88177220  1
  Ge  Ge15  1  0.38177220  0.49797569  0.80718480  1
  Ge  Ge16  1  0.69281520  0.99797569  0.11822780  1
  Ge  Ge17  1  0.61822780  0.49797569  0.19281520  1
  Ge  Ge18  1  0.69281520  0.00202431  0.88177220  1
  Ge  Ge19  1  0.38177220  0.50202431  0.19281520  1
  Ge  Ge20  1  0.11822780  0.30718480  0.00202431  1
  Ge  Ge21  1  0.50202431  0.80718480  0.61822780  1
  Ge  Ge22  1  0.11822780  0.69281520  0.99797569  1
  Ge  Ge23  1  0.49797569  0.19281520  0.61822780  1
  Ge  Ge24  1  0.88177220  0.69281520  0.00202431  1
  Ge  Ge25  1  0.50202431  0.19281520  0.38177220  1
  Ge  Ge26  1  0.88177220  0.30718480  0.99797569  1
  Ge  Ge27  1  0.49797569  0.80718480  0.38177220  1
  Ge  Ge28  1  0.80718480  0.61822780  0.50202431  1
  Ge  Ge29  1  0.80718480  0.38177220  0.49797569  1
  Ge  Ge30  1  0.19281520  0.38177220  0.50202431  1
  Ge  Ge31  1  0.19281520  0.61822780  0.49797569  1
  Ge  Ge32  1  0.25000000  0.50000000  0.00000000  1
  Ge  Ge33  1  0.75000000  0.50000000  0.00000000  1
  Ge  Ge34  1  -0.00000000  0.25000000  0.50000000  1
  Ge  Ge35  1  -0.00000000  0.75000000  0.50000000  1
  Ge  Ge36  1  0.50000000  0.00000000  0.25000000  1
  Ge  Ge37  1  0.50000000  0.00000000  0.75000000  1
  P  P0  1  0.18444359  0.18444359  0.18444359  1
  P  P1  1  0.81555641  0.81555641  0.18444359  1
  P  P2  1  0.81555641  0.18444359  0.81555641  1
  P  P3  1  0.68444359  0.68444359  0.68444359  1
  P  P4  1  0.18444359  0.81555641  0.81555641  1
  P  P5  1  0.31555641  0.31555641  0.68444359  1
  P  P6  1  0.68444359  0.31555641  0.31555641  1
  P  P7  1  0.31555641  0.68444359  0.31555641  1
  Cl  Cl0  1  0.25000000  0.00000000  0.50000000  1
  Cl  Cl1  1  0.75000000  0.00000000  0.50000000  1
  Cl  Cl2  1  0.50000000  0.25000000  0.00000000  1
  Cl  Cl3  1  0.50000000  0.75000000  0.00000000  1
  Cl  Cl4  1  -0.00000000  0.50000000  0.25000000  1
  Cl  Cl5  1  -0.00000000  0.50000000  0.75000000  1
  Cl  Cl6  1  -0.00000000  0.00000000  0.00000000  1
  Cl  Cl7  1  0.50000000  0.50000000  0.50000000  1
loop_
_geom_bond_atom_site_label_1
_geom_bond_atom_site_label_2
_geom_bond_distance
_geom_bond_site_symmetry_2
Ge0 P0 2.382725 1_555
Ge0 Ge30 2.450015 1_555
Ge0 Ge19 2.450015 1_555
Ge0 Ge25 2.450015 1_555
Ge1 P1 2.382725 1_555
Ge1 Ge27 2.450015 1_555
Ge1 Ge28 2.450015 1_555
Ge1 Ge17 2.450015 1_555
Ge2 P2 2.382725 1_555
Ge2 Ge29 2.450015 1_555
Ge2 Ge23 2.450015 1_555
Ge3 P3 2.382725 1_555
Ge4 P4 2.382725 1_555
Ge5 P5 2.382725 1_555
Ge6 P6 2.382725 1_555
Ge6 Ge8 2.450015 1_655
Ge7 P7 2.382725 1_555
Ge7 Ge9 2.450015 1_455
Ge8 P0 2.414413 1_555
Ge8 Ge9 2.486620 1_445
Ge9 P1 2.414413 1_555
Ge10 P2 2.414413 1_555
Ge10 Ge5 2.450015 1_655
Ge10 Ge34 2.455706 1_655
Ge10 Ge13 2.486620 1_645
Ge11 P0 2.414413 1_555
Ge11 Ge7 2.450015 1_545
Ge11 Ge36 2.455706 1_555
Ge11 Ge14 2.486620 1_544
Ge12 P3 2.414413 1_555
Ge12 Ge2 2.450015 1_555
Ge12 Ge33 2.455706 1_556
Ge12 Ge15 2.486620 1_555
Ge13 P4 2.414413 1_555
Ge13 Ge3 2.450015 1_455
Ge13 Ge35 2.455706 1_555
Ge14 P4 2.414413 1_555
Ge14 Ge5 2.450015 1_565
Ge14 Ge37 2.455706 1_565
Ge15 P5 2.414413 1_555
Ge15 Ge4 2.450015 1_555
Ge15 Ge32 2.455706 1_556
Ge16 P1 2.414413 1_555
Ge16 Ge6 2.450015 1_565
Ge16 Ge36 2.455706 1_565
Ge16 Ge18 2.486620 1_564
Ge17 P6 2.414413 1_555
Ge17 Ge33 2.455706 1_555
Ge17 Ge19 2.486620 1_555
Ge18 P2 2.414413 1_555
Ge18 Ge3 2.450015 1_545
Ge18 Ge37 2.455706 1_555
Ge19 P7 2.414413 1_555
Ge19 Ge32 2.455706 1_555
Ge20 P0 2.414413 1_555
Ge20 Ge5 2.450015 1_554
Ge20 Ge32 2.455706 1_555
Ge20 Ge26 2.486620 1_454
Ge21 P3 2.414413 1_555
Ge21 Ge4 2.450015 1_555
Ge21 Ge37 2.455706 1_565
Ge21 Ge27 2.486620 1_555
Ge22 P4 2.414413 1_555
Ge22 Ge7 2.450015 1_556
Ge22 Ge32 2.455706 1_556
Ge22 Ge24 2.486620 1_456
Ge23 P5 2.414413 1_555
Ge23 Ge37 2.455706 1_555
Ge23 Ge25 2.486620 1_555
Ge24 P1 2.414413 1_555
Ge24 Ge3 2.450015 1_554
Ge24 Ge33 2.455706 1_555
Ge25 P6 2.414413 1_555
Ge25 Ge36 2.455706 1_555
Ge26 P2 2.414413 1_555
Ge26 Ge6 2.450015 1_556
Ge26 Ge33 2.455706 1_556
Ge27 P7 2.414413 1_555
Ge27 Ge36 2.455706 1_565
Ge28 P3 2.414413 1_555
Ge28 Ge35 2.455706 1_655
Ge28 Ge29 2.486620 1_555
Ge29 P6 2.414413 1_555
Ge29 Ge34 2.455706 1_655
Ge30 P5 2.414413 1_555
Ge30 Ge34 2.455706 1_555
Ge30 Ge31 2.486620 1_555
Ge31 P7 2.414413 1_555
Ge31 Ge4 2.450015 1_555
Ge31 Ge35 2.455706 1_555
Ge34 Ge8 2.455706 1_555
Ge35 Ge9 2.455706 1_455
