# generated using pymatgen
data_LiFeF3
_symmetry_space_group_name_H-M   'P 1'
_cell_length_a   7.02104200
_cell_length_b   7.23659074
_cell_length_c   7.87495474
_cell_angle_alpha   94.44735984
_cell_angle_beta   102.93816258
_cell_angle_gamma   90.09398880
_symmetry_Int_Tables_number   1
_chemical_formula_structural   LiFeF3
_chemical_formula_sum   'Li6 Fe6 F18'
_cell_volume   388.70742028
_cell_formula_units_Z   6
loop_
 _symmetry_equiv_pos_site_id
 _symmetry_equiv_pos_as_xyz
  1  'x, y, z'
loop_
 _atom_site_type_symbol
 _atom_site_label
 _atom_site_symmetry_multiplicity
 _atom_site_fract_x
 _atom_site_fract_y
 _atom_site_fract_z
 _atom_site_occupancy
  Li  Li0  1  0.26609100  0.45365000  0.08195000  1
  Li  Li1  1  0.59352700  0.24161000  0.33070200  1
  Li  Li2  1  0.07377400  0.24512200  0.33651700  1
  Li  Li3  1  0.92622600  0.75487800  0.66348300  1
  Li  Li4  1  0.40647300  0.75839000  0.66929800  1
  Li  Li5  1  0.73390900  0.54635000  0.91805000  1
  Fe  Fe0  1  0.76105200  0.03992800  0.03737500  1
  Fe  Fe1  1  0.23894800  0.96007200  0.96262500  1
  Fe  Fe2  1  0.56281200  0.73962400  0.26408800  1
  Fe  Fe3  1  0.07527500  0.74556200  0.27357800  1
  Fe  Fe4  1  0.92472500  0.25443800  0.72642200  1
  Fe  Fe5  1  0.43718800  0.26037600  0.73591200  1
  F  F0  1  0.77814300  0.75171700  0.08316600  1
  F  F1  1  0.26832400  0.70897700  0.07687000  1
  F  F2  1  0.50125000  0.00425000  0.17494800  1
  F  F3  1  0.51958000  0.46462800  0.23099000  1
  F  F4  1  0.81908000  0.18841400  0.26962700  1
  F  F5  1  0.09986600  0.47053100  0.24341000  1
  F  F6  1  0.09396800  0.00688000  0.17661700  1
  F  F7  1  0.85036400  0.76983000  0.42088100  1
  F  F8  1  0.36579600  0.77824800  0.42950300  1
  F  F9  1  0.63420400  0.22175200  0.57049700  1
  F  F10  1  0.14963600  0.23017000  0.57911900  1
  F  F11  1  0.90603200  0.99312000  0.82338300  1
  F  F12  1  0.90013400  0.52946900  0.75659000  1
  F  F13  1  0.18092000  0.81158600  0.73037300  1
  F  F14  1  0.48042000  0.53537200  0.76901000  1
  F  F15  1  0.49875000  0.99575000  0.82505200  1
  F  F16  1  0.73167600  0.29102300  0.92313000  1
  F  F17  1  0.22185700  0.24828300  0.91683400  1
loop_
_geom_bond_atom_site_label_1
_geom_bond_atom_site_label_2
_geom_bond_distance
_geom_bond_site_symmetry_2
F0 Li5 1.874515 1_554
F0 Fe0 2.143016 1_565
F0 Fe3 2.283076 1_655
F0 Fe2 2.303634 1_555
F1 Li0 1.851345 1_555
F1 Fe1 2.079752 1_554
F1 Fe2 2.254020 1_555
F1 Fe3 2.276972 1_555
F2 Li1 2.046549 1_555
F2 Fe2 2.102879 1_545
F2 Fe1 2.196768 1_544
F2 Fe0 2.344016 1_555
F3 Li1 1.872833 1_555
F3 Li0 1.897646 1_555
F3 Fe2 2.000613 1_555
F4 Li2 1.784898 1_655
F4 Li1 1.789334 1_555
F4 Fe0 2.006452 1_555
F5 Li2 1.864565 1_555
F5 Li0 1.906449 1_555
F5 Fe3 1.998413 1_555
F6 Li2 2.078978 1_555
F6 Fe3 2.108157 1_545
F6 Fe1 2.161352 1_544
F6 Fe0 2.370203 1_455
F7 Li3 1.876676 1_555
F7 Fe2 2.118675 1_555
F7 Fe3 2.158616 1_655
F8 Li4 1.862496 1_555
F8 Fe2 2.107147 1_555
F8 Fe3 2.134507 1_555
F9 Li1 1.862496 1_555
F9 Fe5 2.107147 1_555
F9 Fe4 2.134507 1_555
F10 Li2 1.876676 1_555
F10 Fe5 2.118675 1_555
F10 Fe4 2.158616 1_455
F11 Li3 2.078978 1_555
F11 Fe4 2.108157 1_565
F11 Fe0 2.161352 1_566
F11 Fe1 2.370203 1_655
F12 Li3 1.864565 1_555
F12 Li5 1.906449 1_555
F12 Fe4 1.998413 1_555
F13 Li3 1.784898 1_455
F13 Li4 1.789334 1_555
F13 Fe1 2.006452 1_555
F14 Li4 1.872833 1_555
F14 Li5 1.897646 1_555
F14 Fe5 2.000613 1_555
F15 Li4 2.046549 1_555
F15 Fe5 2.102879 1_565
F15 Fe0 2.196768 1_566
F15 Fe1 2.344016 1_555
F16 Li5 1.851345 1_555
F16 Fe0 2.079752 1_556
F16 Fe5 2.254020 1_555
F16 Fe4 2.276972 1_555
F17 Li0 1.874515 1_556
F17 Fe1 2.143016 1_545
F17 Fe4 2.283076 1_455
F17 Fe5 2.303634 1_555
