# generated using pymatgen
data_Zn2Cr9O13
_symmetry_space_group_name_H-M   'P 1'
_cell_length_a   3.07874400
_cell_length_b   5.23711806
_cell_length_c   16.93665304
_cell_angle_alpha   97.77827258
_cell_angle_beta   92.88869306
_cell_angle_gamma   95.52669183
_symmetry_Int_Tables_number   1
_chemical_formula_structural   Zn2Cr9O13
_chemical_formula_sum   'Zn2 Cr9 O13'
_cell_volume   268.75433333
_cell_formula_units_Z   1
loop_
 _symmetry_equiv_pos_site_id
 _symmetry_equiv_pos_as_xyz
  1  'x, y, z'
loop_
 _atom_site_type_symbol
 _atom_site_label
 _atom_site_symmetry_multiplicity
 _atom_site_fract_x
 _atom_site_fract_y
 _atom_site_fract_z
 _atom_site_occupancy
  Zn  Zn0  1  0.52095900  0.54474600  0.77431700  1
  Zn  Zn1  1  0.47904100  0.45525400  0.22568300  1
  Cr  Cr0  1  0.50000000  0.00000000  0.50000000  1
  Cr  Cr1  1  0.39032600  0.71983100  0.95821000  1
  Cr  Cr2  1  0.60967400  0.28016900  0.04179000  1
  Cr  Cr3  1  0.23561400  0.49449600  0.58403000  1
  Cr  Cr4  1  0.76438600  0.50550400  0.41597000  1
  Cr  Cr5  1  0.00516400  0.13093500  0.87802800  1
  Cr  Cr6  1  0.99483600  0.86906500  0.12197200  1
  Cr  Cr7  1  0.00331200  0.00456000  0.67034200  1
  Cr  Cr8  1  0.99668800  0.99544000  0.32965800  1
  O  O0  1  0.00000000  0.00000000  0.00000000  1
  O  O1  1  0.98641700  0.29210900  0.77702500  1
  O  O2  1  0.01358300  0.70789100  0.22297500  1
  O  O3  1  0.56777700  0.36204400  0.92505400  1
  O  O4  1  0.43222300  0.63795600  0.07494600  1
  O  O5  1  0.45390000  0.87083300  0.85396600  1
  O  O6  1  0.54610000  0.12916700  0.14603400  1
  O  O7  1  0.46167900  0.74959900  0.68312100  1
  O  O8  1  0.53832100  0.25040100  0.31687900  1
  O  O9  1  0.52668500  0.18640100  0.61479400  1
  O  O10  1  0.47331500  0.81359900  0.38520600  1
  O  O11  1  0.96283800  0.76136300  0.52223900  1
  O  O12  1  0.03716200  0.23863700  0.47776100  1
loop_
_geom_bond_atom_site_label_1
_geom_bond_atom_site_label_2
_geom_bond_distance
_geom_bond_site_symmetry_2
Cr0 O11 2.037315 1_545
Cr0 O12 2.037315 1_555
Cr0 O9 2.048036 1_555
Cr0 O10 2.048036 1_545
Cr0 O11 2.056911 1_445
Cr0 O12 2.056911 1_655
Cr1 O3 2.016960 1_555
Cr1 O5 2.040537 1_555
Cr1 O0 2.059669 1_566
Cr1 O4 2.079402 1_556
Cr1 O0 2.287269 1_666
Cr2 O4 2.016960 1_555
Cr2 O6 2.040537 1_555
Cr2 O0 2.059669 1_655
Cr2 O3 2.079402 1_554
Cr2 O0 2.287269 1_555
Cr3 O9 2.033970 1_555
Cr3 O7 2.045032 1_555
Cr3 O11 2.070565 1_455
Cr3 O12 2.118229 1_555
Cr4 O10 2.033970 1_555
Cr4 O8 2.045032 1_555
Cr4 O12 2.070565 1_655
Cr4 O11 2.118229 1_555
Cr5 O1 2.008090 1_455
Cr5 O3 2.018350 1_455
Cr5 O5 2.049212 1_545
Cr5 O5 2.058355 1_445
Cr5 O3 2.072630 1_555
Cr5 O0 2.263323 1_556
Cr6 O2 2.008090 1_655
Cr6 O4 2.018350 1_655
Cr6 O6 2.049212 1_565
Cr6 O6 2.058355 1_665
Cr6 O4 2.072630 1_555
Cr6 O0 2.263323 1_665
Cr7 O7 2.057093 1_545
Cr7 O7 2.072728 1_445
Cr7 O9 2.077946 1_455
Cr7 O9 2.118523 1_555
Cr7 O1 2.196198 1_455
Cr7 O11 2.646279 1_445
Cr8 O8 2.057093 1_565
Cr8 O8 2.072728 1_665
Cr8 O10 2.077946 1_655
Cr8 O10 2.118523 1_555
Cr8 O2 2.196198 1_655
Cr8 O12 2.646279 1_665
O1 Zn0 2.016352 1_655
O1 Zn0 2.044809 1_555
O2 Zn1 2.016352 1_455
O2 Zn1 2.044809 1_555
O5 Zn0 2.061851 1_555
O6 Zn1 2.061851 1_555
O7 Zn0 2.006933 1_555
O8 Zn1 2.006933 1_555
