# generated using pymatgen
data_Te4Mo3WS4
_symmetry_space_group_name_H-M   'P 1'
_cell_length_a   3.36116228
_cell_length_b   3.36116228
_cell_length_c   41.19133100
_cell_angle_alpha   90.00000000
_cell_angle_beta   90.00000000
_cell_angle_gamma   120.00000548
_symmetry_Int_Tables_number   1
_chemical_formula_structural   Te4Mo3WS4
_chemical_formula_sum   'Te4 Mo3 W1 S4'
_cell_volume   403.00960320
_cell_formula_units_Z   1
loop_
 _symmetry_equiv_pos_site_id
 _symmetry_equiv_pos_as_xyz
  1  'x, y, z'
loop_
 _atom_site_type_symbol
 _atom_site_label
 _atom_site_symmetry_multiplicity
 _atom_site_fract_x
 _atom_site_fract_y
 _atom_site_fract_z
 _atom_site_occupancy
  Te  Te0  1  0.33333300  0.66666700  0.33067500  1
  Te  Te1  1  0.66666700  0.33333300  0.04486700  1
  Te  Te2  1  0.66666700  0.33333300  0.13663400  1
  Te  Te3  1  0.33333300  0.66666700  0.23886300  1
  Mo  Mo0  1  0.33333300  0.66666700  0.09073900  1
  Mo  Mo1  1  0.33333300  0.66666700  0.46992100  1
  Mo  Mo2  1  0.66666700  0.33333300  0.28476200  1
  W  W0  1  0.66666700  0.33333300  0.65747300  1
  S  S0  1  0.33333300  0.66666700  0.69434200  1
  S  S1  1  0.66666700  0.33333300  0.43317400  1
  S  S2  1  0.66666700  0.33333300  0.50669400  1
  S  S3  1  0.33333300  0.66666700  0.62060400  1
loop_
_geom_bond_atom_site_label_1
_geom_bond_atom_site_label_2
_geom_bond_distance
_geom_bond_site_symmetry_2
Mo0 Te1 2.708526 1_455
Mo0 Te1 2.708526 1_565
Mo0 Te1 2.708531 1_555
Mo0 Te2 2.709187 1_455
Mo0 Te2 2.709187 1_565
Mo0 Te2 2.709192 1_555
Mo1 S1 2.461088 1_455
Mo1 S1 2.461088 1_565
Mo1 S1 2.461093 1_555
Mo1 S2 2.461747 1_455
Mo1 S2 2.461747 1_565
Mo1 S2 2.461752 1_555
Mo2 Te3 2.709302 1_545
Mo2 Te3 2.709302 1_655
Mo2 Te3 2.709307 1_555
Mo2 Te0 2.709705 1_545
Mo2 Te0 2.709705 1_655
Mo2 Te0 2.709709 1_555
S0 W0 2.464182 1_455
S0 W0 2.464182 1_565
S0 W0 2.464187 1_555
S3 W0 2.464182 1_455
S3 W0 2.464182 1_565
S3 W0 2.464187 1_555
