# generated using pymatgen
data_Te2MoWS2
_symmetry_space_group_name_H-M   'P 1'
_cell_length_a   3.36117704
_cell_length_b   3.36117704
_cell_length_c   38.30634600
_cell_angle_alpha   90.00000000
_cell_angle_beta   90.00000000
_cell_angle_gamma   120.00002041
_symmetry_Int_Tables_number   1
_chemical_formula_structural   Te2MoWS2
_chemical_formula_sum   'Te4 Mo2 W2 S4'
_cell_volume   374.78659163
_cell_formula_units_Z   2
loop_
 _symmetry_equiv_pos_site_id
 _symmetry_equiv_pos_as_xyz
  1  'x, y, z'
loop_
 _atom_site_type_symbol
 _atom_site_label
 _atom_site_symmetry_multiplicity
 _atom_site_fract_x
 _atom_site_fract_y
 _atom_site_fract_z
 _atom_site_occupancy
  Te  Te0  1  0.00000000  0.00000000  0.33139300  1
  Te  Te1  1  0.00000000  0.00000000  0.70680400  1
  Te  Te2  1  0.00000000  0.00000000  0.23214500  1
  Te  Te3  1  0.00000000  0.00000000  0.60827100  1
  Mo  Mo0  1  0.00000000  0.00000000  0.09391900  1
  Mo  Mo1  1  0.33333300  0.66666700  0.65756200  1
  W  W0  1  0.00000000  0.00000000  0.46968200  1
  W  W1  1  0.33333300  0.66666700  0.28179900  1
  S  S0  1  0.33333300  0.66666700  0.05441000  1
  S  S1  1  0.33333300  0.66666700  0.43004100  1
  S  S2  1  0.33333300  0.66666700  0.13343700  1
  S  S3  1  0.33333300  0.66666700  0.50928500  1
loop_
_geom_bond_atom_site_label_1
_geom_bond_atom_site_label_2
_geom_bond_distance
_geom_bond_site_symmetry_2
Te0 W1 2.715684 1_545
Te0 W1 2.715685 1_555
Te0 W1 2.715685 1_445
Te2 W1 2.717292 1_545
Te2 W1 2.717294 1_445
Te2 W1 2.717294 1_555
Mo0 S0 2.460965 1_545
Mo0 S0 2.460967 1_445
Mo0 S0 2.460967 1_555
Mo0 S2 2.461177 1_545
Mo0 S2 2.461179 1_555
Mo0 S2 2.461179 1_445
Mo1 Te1 2.706268 1_565
Mo1 Te1 2.706270 1_665
Mo1 Te1 2.706270 1_555
Mo1 Te3 2.707577 1_565
Mo1 Te3 2.707578 1_665
Mo1 Te3 2.707578 1_555
S1 W0 2.464078 1_565
S1 W0 2.464079 1_665
S1 W0 2.464079 1_555
S3 W0 2.463181 1_565
S3 W0 2.463183 1_665
S3 W0 2.463183 1_555
