# generated using pymatgen
data_CaCo(SiO3)2
_symmetry_space_group_name_H-M   'P 1'
_cell_length_a   5.42842800
_cell_length_b   9.77238200
_cell_length_c   18.98905300
_cell_angle_alpha   90.00000000
_cell_angle_beta   90.00000000
_cell_angle_gamma   90.00000000
_symmetry_Int_Tables_number   1
_chemical_formula_structural   CaCo(SiO3)2
_chemical_formula_sum   'Ca8 Co8 Si16 O48'
_cell_volume   1007.34404562
_cell_formula_units_Z   8
loop_
 _symmetry_equiv_pos_site_id
 _symmetry_equiv_pos_as_xyz
  1  'x, y, z'
loop_
 _atom_site_type_symbol
 _atom_site_label
 _atom_site_symmetry_multiplicity
 _atom_site_fract_x
 _atom_site_fract_y
 _atom_site_fract_z
 _atom_site_occupancy
  Ca  Ca0  1  0.61192600  0.14600000  0.37859700  1
  Ca  Ca1  1  0.38807400  0.85400000  0.62140300  1
  Ca  Ca2  1  0.61192600  0.64600000  0.12140300  1
  Ca  Ca3  1  0.11192600  0.85400000  0.12140300  1
  Ca  Ca4  1  0.88807400  0.14600000  0.87859700  1
  Ca  Ca5  1  0.38807400  0.35400000  0.87859700  1
  Ca  Ca6  1  0.11192600  0.35400000  0.37859700  1
  Ca  Ca7  1  0.88807400  0.64600000  0.62140300  1
  Co  Co0  1  0.38453100  0.99326600  0.87187700  1
  Co  Co1  1  0.61546900  0.00673400  0.12812300  1
  Co  Co2  1  0.88453100  0.00673400  0.62812300  1
  Co  Co3  1  0.11546900  0.99326600  0.37187700  1
  Co  Co4  1  0.38453100  0.49326600  0.62812300  1
  Co  Co5  1  0.61546900  0.50673400  0.37187700  1
  Co  Co6  1  0.88453100  0.50673400  0.87187700  1
  Co  Co7  1  0.11546900  0.49326600  0.12812300  1
  Si  Si0  1  0.56239700  0.66516600  0.77473800  1
  Si  Si1  1  0.74903800  0.83234000  0.47422400  1
  Si  Si2  1  0.75096200  0.83234000  0.97422400  1
  Si  Si3  1  0.93760300  0.16516600  0.22526200  1
  Si  Si4  1  0.06239700  0.33483400  0.72526200  1
  Si  Si5  1  0.43760300  0.83483400  0.27473800  1
  Si  Si6  1  0.24903800  0.66766000  0.47422400  1
  Si  Si7  1  0.74903800  0.33234000  0.02577600  1
  Si  Si8  1  0.75096200  0.33234000  0.52577600  1
  Si  Si9  1  0.93760300  0.66516600  0.27473800  1
  Si  Si10  1  0.43760300  0.33483400  0.22526200  1
  Si  Si11  1  0.56239700  0.16516600  0.72526200  1
  Si  Si12  1  0.25096200  0.16766000  0.52577600  1
  Si  Si13  1  0.06239700  0.83483400  0.77473800  1
  Si  Si14  1  0.25096200  0.66766000  0.97422400  1
  Si  Si15  1  0.24903800  0.16766000  0.02577600  1
  O  O0  1  0.91747600  0.51848400  0.31457800  1
  O  O1  1  0.32095900  0.03248400  0.07042000  1
  O  O2  1  0.08252400  0.48151600  0.68542200  1
  O  O3  1  0.75265800  0.34927200  0.93983600  1
  O  O4  1  0.25265800  0.15072800  0.93983600  1
  O  O5  1  0.95907300  0.21223700  0.04601100  1
  O  O6  1  0.95807700  0.65498300  0.18887100  1
  O  O7  1  0.04192300  0.84501700  0.68887100  1
  O  O8  1  0.75265800  0.84927200  0.56016400  1
  O  O9  1  0.95807700  0.15498300  0.31112900  1
  O  O10  1  0.41747600  0.48151600  0.18542200  1
  O  O11  1  0.74734200  0.34927200  0.43983600  1
  O  O12  1  0.67904100  0.96751600  0.92958000  1
  O  O13  1  0.45807700  0.84501700  0.18887100  1
  O  O14  1  0.58252400  0.01848400  0.68542200  1
  O  O15  1  0.32095900  0.53248400  0.42958000  1
  O  O16  1  0.41747600  0.98151600  0.31457800  1
  O  O17  1  0.17514000  0.75936100  0.30077200  1
  O  O18  1  0.32486000  0.75936100  0.80077200  1
  O  O19  1  0.54092700  0.71223700  0.95398900  1
  O  O20  1  0.74734200  0.84927200  0.06016400  1
  O  O21  1  0.54192300  0.65498300  0.68887100  1
  O  O22  1  0.82095900  0.46751600  0.07042000  1
  O  O23  1  0.17514000  0.25936100  0.19922800  1
  O  O24  1  0.24734200  0.15072800  0.43983600  1
  O  O25  1  0.54192300  0.15498300  0.81112900  1
  O  O26  1  0.67904100  0.46751600  0.57042000  1
  O  O27  1  0.25265800  0.65072800  0.56016400  1
  O  O28  1  0.17904100  0.53248400  0.92958000  1
  O  O29  1  0.67514000  0.74063900  0.30077200  1
  O  O30  1  0.08252400  0.98151600  0.81457800  1
  O  O31  1  0.82486000  0.74063900  0.80077200  1
  O  O32  1  0.82486000  0.24063900  0.69922800  1
  O  O33  1  0.82095900  0.96751600  0.42958000  1
  O  O34  1  0.24734200  0.65072800  0.06016400  1
  O  O35  1  0.17904100  0.03248400  0.57042000  1
  O  O36  1  0.32486000  0.25936100  0.69922800  1
  O  O37  1  0.04092700  0.78776300  0.95398900  1
  O  O38  1  0.45907300  0.78776300  0.45398900  1
  O  O39  1  0.67514000  0.24063900  0.19922800  1
  O  O40  1  0.45907300  0.28776300  0.04601100  1
  O  O41  1  0.54092700  0.21223700  0.54601100  1
  O  O42  1  0.04092700  0.28776300  0.54601100  1
  O  O43  1  0.45807700  0.34501700  0.31112900  1
  O  O44  1  0.58252400  0.51848400  0.81457800  1
  O  O45  1  0.95907300  0.71223700  0.45398900  1
  O  O46  1  0.04192300  0.34501700  0.81112900  1
  O  O47  1  0.91747600  0.01848400  0.18542200  1
loop_
_geom_bond_atom_site_label_1
_geom_bond_atom_site_label_2
_geom_bond_distance
_geom_bond_site_symmetry_2
Ca0 O16 2.275031 1_545
Ca0 O9 2.275942 1_555
Ca0 O33 2.295022 1_545
Ca0 O24 2.295934 1_555
Ca0 O11 2.416325 1_555
Ca0 O43 2.474139 1_555
Ca1 O14 2.275031 1_565
Ca1 O7 2.275942 1_555
Ca1 O35 2.295022 1_565
Ca1 O8 2.295934 1_555
Ca1 O27 2.416325 1_555
Ca1 O21 2.474139 1_555
Ca2 O10 2.275031 1_555
Ca2 O6 2.275942 1_555
Ca2 O22 2.295022 1_555
Ca2 O34 2.295934 1_555
Ca2 O20 2.416325 1_555
Ca2 O13 2.474139 1_555
Ca3 O47 2.275031 1_465
Ca3 O13 2.275942 1_555
Ca3 O1 2.295022 1_565
Ca3 O20 2.295934 1_455
Ca3 O34 2.416325 1_555
Ca3 O6 2.474139 1_455
Ca4 O30 2.275031 1_645
Ca4 O25 2.275942 1_555
Ca4 O12 2.295022 1_545
Ca4 O4 2.295934 1_655
Ca4 O3 2.416325 1_555
Ca4 O46 2.474139 1_655
Ca5 O44 2.275031 1_555
Ca5 O46 2.275942 1_555
Ca5 O28 2.295022 1_555
Ca5 O3 2.295934 1_555
Ca5 O4 2.416325 1_555
Ca5 O25 2.474139 1_555
Ca6 O0 2.275031 1_455
Ca6 O43 2.275942 1_555
Ca6 O15 2.295022 1_555
Ca6 O11 2.295934 1_455
Ca6 O24 2.416325 1_555
Ca6 O9 2.474139 1_455
Ca7 O2 2.275031 1_655
Ca7 O21 2.275942 1_555
Ca7 O26 2.295022 1_555
Ca7 O27 2.295934 1_655
Ca7 O8 2.416325 1_555
Ca7 O7 2.474139 1_655
Co0 O12 1.954447 1_555
Co0 O30 1.970978 1_555
Co0 O4 2.132049 1_565
Co0 O25 2.134993 1_565
Co1 O1 1.954447 1_555
Co1 O47 1.970978 1_555
Co1 O20 2.132049 1_545
Co1 O13 2.134993 1_545
Co2 O35 1.954447 1_655
Co2 O14 1.970978 1_555
Co2 O8 2.132049 1_545
Co2 O7 2.134993 1_645
Co3 O33 1.954447 1_455
Co3 O16 1.970978 1_555
Co3 O24 2.132049 1_565
Co3 O9 2.134993 1_465
Co4 O26 1.954447 1_555
Co4 O2 1.970978 1_555
Co4 O27 2.132049 1_555
Co4 O21 2.134993 1_555
Co5 O15 1.954447 1_555
Co5 O0 1.970978 1_555
Co5 O11 2.132049 1_555
Co5 O43 2.134993 1_555
Co6 O28 1.954447 1_655
Co6 O44 1.970978 1_555
Co6 O3 2.132049 1_555
Co6 O46 2.134993 1_655
Co7 O22 1.954447 1_455
Co7 O10 1.970978 1_555
Co7 O34 2.132049 1_555
Co7 O6 2.134993 1_455
O0 Si9 1.624498 1_555
O1 Si15 1.617442 1_555
O2 Si4 1.624498 1_555
O3 Si7 1.640404 1_556
O4 Si15 1.640404 1_556
O5 Si15 1.677813 1_655
O5 Si7 1.680822 1_555
O6 Si9 1.637343 1_555
O7 Si13 1.637343 1_555
O8 Si1 1.640404 1_555
O9 Si3 1.637343 1_555
O10 Si10 1.624498 1_555
O11 Si8 1.640404 1_555
O12 Si2 1.617442 1_555
O13 Si5 1.637343 1_555
O14 Si11 1.624498 1_555
O15 Si6 1.617442 1_555
O16 Si5 1.624498 1_555
O17 Si9 1.659644 1_455
O17 Si5 1.678785 1_555
O18 Si0 1.659644 1_555
O18 Si13 1.678785 1_555
O19 Si14 1.677813 1_555
O19 Si2 1.680822 1_555
O20 Si2 1.640404 1_554
O21 Si0 1.637343 1_555
O22 Si7 1.617442 1_555
O23 Si3 1.659644 1_455
O23 Si10 1.678785 1_555
O24 Si12 1.640404 1_555
O25 Si11 1.637343 1_555
O26 Si8 1.617442 1_555
O27 Si6 1.640404 1_555
O28 Si14 1.617442 1_555
O29 Si5 1.659644 1_555
O29 Si9 1.678785 1_555
O30 Si13 1.624498 1_555
O31 Si13 1.659644 1_655
O31 Si0 1.678785 1_555
O32 Si4 1.659644 1_655
O32 Si11 1.678785 1_555
O33 Si1 1.617442 1_555
O34 Si14 1.640404 1_554
O35 Si12 1.617442 1_555
O36 Si11 1.659644 1_555
O36 Si4 1.678785 1_555
O37 Si2 1.677813 1_455
O37 Si14 1.680822 1_555
O38 Si1 1.677813 1_555
O38 Si6 1.680822 1_555
O39 Si10 1.659644 1_555
O39 Si3 1.678785 1_555
O40 Si7 1.677813 1_555
O40 Si15 1.680822 1_555
O41 Si12 1.677813 1_555
O41 Si8 1.680822 1_555
O42 Si8 1.677813 1_455
O42 Si12 1.680822 1_555
O43 Si10 1.637343 1_555
O44 Si0 1.624498 1_555
O45 Si6 1.677813 1_655
O45 Si1 1.680822 1_555
O46 Si4 1.637343 1_555
O47 Si3 1.624498 1_555
