# generated using pymatgen
data_Cs3Rb5Mo12(P3O17)4
_symmetry_space_group_name_H-M   'P 1'
_cell_length_a   9.70480900
_cell_length_b   11.00089559
_cell_length_c   15.78719163
_cell_angle_alpha   70.95214788
_cell_angle_beta   89.98804160
_cell_angle_gamma   89.98119810
_symmetry_Int_Tables_number   1
_chemical_formula_structural   Cs3Rb5Mo12(P3O17)4
_chemical_formula_sum   'Cs3 Rb5 Mo12 P12 O68'
_cell_volume   1593.18017629
_cell_formula_units_Z   1
loop_
 _symmetry_equiv_pos_site_id
 _symmetry_equiv_pos_as_xyz
  1  'x, y, z'
loop_
 _atom_site_type_symbol
 _atom_site_label
 _atom_site_symmetry_multiplicity
 _atom_site_fract_x
 _atom_site_fract_y
 _atom_site_fract_z
 _atom_site_occupancy
  Cs  Cs0  1  0.88254600  0.83089900  0.48953700  1
  Cs  Cs1  1  0.38256300  0.66905700  0.01046400  1
  Cs  Cs2  1  0.11745500  0.16910600  0.51046100  1
  Rb  Rb0  1  0.87056400  0.40113500  0.71049200  1
  Rb  Rb1  1  0.62937700  0.90124700  0.21039600  1
  Rb  Rb2  1  0.12939000  0.59881700  0.28956300  1
  Rb  Rb3  1  0.37062400  0.09883300  0.78956900  1
  Rb  Rb4  1  0.62028100  0.33070000  0.99007100  1
  Mo  Mo0  1  0.75870400  0.02358300  0.90008900  1
  Mo  Mo1  1  0.74113900  0.52330700  0.40002900  1
  Mo  Mo2  1  0.24110600  0.97674200  0.09987700  1
  Mo  Mo3  1  0.25886700  0.47666200  0.59994000  1
  Mo  Mo4  1  0.62122700  0.69827300  0.75496200  1
  Mo  Mo5  1  0.87866900  0.19851000  0.25477700  1
  Mo  Mo6  1  0.37896700  0.30143600  0.24485000  1
  Mo  Mo7  1  0.12120400  0.80144700  0.74519900  1
  Mo  Mo8  1  0.62349600  0.18582700  0.56066800  1
  Mo  Mo9  1  0.87643000  0.68581300  0.06067200  1
  Mo  Mo10  1  0.37649300  0.81417200  0.43934000  1
  Mo  Mo11  1  0.12343200  0.31423200  0.93932300  1
  P  P0  1  0.09682100  0.42176500  0.12230400  1
  P  P1  1  0.40317900  0.92174900  0.62232600  1
  P  P2  1  0.90295100  0.57798900  0.87780800  1
  P  P3  1  0.59681400  0.07819000  0.37769500  1
  P  P4  1  0.90365800  0.10027900  0.06813100  1
  P  P5  1  0.59606200  0.59998600  0.56823200  1
  P  P6  1  0.09599700  0.90000500  0.93176900  1
  P  P7  1  0.40393500  0.39998900  0.43170100  1
  P  P8  1  0.82655100  0.96093600  0.70053000  1
  P  P9  1  0.67335900  0.46092400  0.20040300  1
  P  P10  1  0.17341800  0.03905500  0.29947700  1
  P  P11  1  0.32675800  0.53884500  0.79966000  1
  O  O0  1  0.57699500  0.75875000  0.83842600  1
  O  O1  1  0.92286100  0.25875700  0.33834900  1
  O  O2  1  0.42401800  0.24227300  0.16079000  1
  O  O3  1  0.07702200  0.74127900  0.66158700  1
  O  O4  1  0.48621000  0.54295600  0.79889100  1
  O  O5  1  0.01404300  0.04341300  0.29843200  1
  O  O6  1  0.51399400  0.45671400  0.20157000  1
  O  O7  1  0.98592600  0.95660400  0.70155800  1
  O  O8  1  0.77062800  0.57048400  0.82262100  1
  O  O9  1  0.72900900  0.07105400  0.32230300  1
  O  O10  1  0.22900800  0.42886200  0.17769900  1
  O  O11  1  0.27096100  0.92890500  0.67771700  1
  O  O12  1  0.47550500  0.79131100  0.66548400  1
  O  O13  1  0.02455000  0.29134400  0.16544800  1
  O  O14  1  0.52446500  0.20861900  0.33448700  1
  O  O15  1  0.97522600  0.70843100  0.83461200  1
  O  O16  1  0.63717300  0.06384400  0.47387000  1
  O  O17  1  0.86236200  0.56341400  0.97400900  1
  O  O18  1  0.36281400  0.93615700  0.52613000  1
  O  O19  1  0.13719500  0.43618200  0.02610500  1
  O  O20  1  0.71619700  0.30717500  0.47881400  1
  O  O21  1  0.78381100  0.80721700  0.97880800  1
  O  O22  1  0.28380300  0.69281600  0.52118900  1
  O  O23  1  0.21594800  0.19277100  0.02122900  1
  O  O24  1  0.76624800  0.98545500  0.78392200  1
  O  O25  1  0.73377700  0.48518300  0.28383600  1
  O  O26  1  0.23377200  0.01468600  0.21607400  1
  O  O27  1  0.26643100  0.51464000  0.71618600  1
  O  O28  1  0.76592200  0.83618200  0.69166600  1
  O  O29  1  0.73383200  0.33624700  0.19120900  1
  O  O30  1  0.23419400  0.16381500  0.30826600  1
  O  O31  1  0.26604700  0.66366600  0.80843100  1
  O  O32  1  0.61707000  0.24694400  0.64855800  1
  O  O33  1  0.88286800  0.74692400  0.14855100  1
  O  O34  1  0.38292300  0.75305700  0.35144900  1
  O  O35  1  0.11709300  0.25307100  0.85146100  1
  O  O36  1  0.79132200  0.07523500  0.61459900  1
  O  O37  1  0.70857300  0.57533000  0.11453900  1
  O  O38  1  0.20864800  0.92477700  0.38540400  1
  O  O39  1  0.29158800  0.42449800  0.88559700  1
  O  O40  1  0.58561300  0.98517900  0.92017600  1
  O  O41  1  0.91432300  0.48519800  0.42017500  1
  O  O42  1  0.41428700  0.01488100  0.07976200  1
  O  O43  1  0.08568200  0.51479700  0.57983700  1
  O  O44  1  0.67201200  0.62010000  0.64794500  1
  O  O45  1  0.82753300  0.12041800  0.14779900  1
  O  O46  1  0.32805100  0.37986900  0.35198300  1
  O  O47  1  0.17199200  0.87984700  0.85206900  1
  O  O48  1  0.44417800  0.26698800  0.50118500  1
  O  O49  1  0.05581000  0.76696600  0.00118800  1
  O  O50  1  0.55582700  0.73301500  0.49880600  1
  O  O51  1  0.94354000  0.23340900  0.99868100  1
  O  O52  1  0.97177000  0.98969700  0.90214300  1
  O  O53  1  0.52817100  0.48964500  0.40213900  1
  O  O54  1  0.02796500  0.01065500  0.09776900  1
  O  O55  1  0.47184900  0.51036000  0.59786200  1
  O  O56  1  0.75581500  0.18986700  0.85083800  1
  O  O57  1  0.74367100  0.68949700  0.35046300  1
  O  O58  1  0.24368700  0.81055200  0.14950000  1
  O  O59  1  0.25632200  0.31048100  0.64952700  1
  O  O60  1  0.79278900  0.03645900  0.02375400  1
  O  O61  1  0.70700000  0.53635900  0.52373400  1
  O  O62  1  0.20694400  0.96361200  0.97624200  1
  O  O63  1  0.29301600  0.46362300  0.47624000  1
  O  O64  1  0.49423600  0.03390100  0.62999400  1
  O  O65  1  0.00574800  0.53392200  0.12999700  1
  O  O66  1  0.50574400  0.96607300  0.37001000  1
  O  O67  1  0.99436000  0.46607900  0.86999200  1
loop_
_geom_bond_atom_site_label_1
_geom_bond_atom_site_label_2
_geom_bond_distance
_geom_bond_site_symmetry_2
Cs0 O3 3.188226 1_655
Cs0 O50 3.336729 1_555
Cs0 O57 3.359857 1_555
Cs0 O28 3.403920 1_555
Cs0 O5 3.404848 1_665
Cs0 O9 3.408331 1_565
Cs0 O16 3.446915 1_565
Cs0 O44 3.467281 1_555
Cs0 O61 3.543193 1_555
Cs0 O38 3.560432 1_655
Cs1 O0 3.187568 1_554
Cs1 O49 3.336507 1_555
Cs1 O58 3.359293 1_555
Cs1 O31 3.402982 1_554
Cs1 O6 3.403769 1_555
Cs1 O10 3.408922 1_555
Cs1 O19 3.447488 1_555
Cs1 O47 3.467065 1_554
Cs1 O62 3.542705 1_554
Cs1 O37 3.559078 1_555
Cs2 O1 3.189650 1_455
Cs2 O48 3.336752 1_555
Cs2 O59 3.359524 1_555
Cs2 O7 3.404829 1_445
Cs2 O30 3.405302 1_555
Cs2 O11 3.408645 1_545
Cs2 O18 3.446848 1_545
Cs2 O46 3.468020 1_555
Cs2 O63 3.542989 1_555
Cs2 O36 3.560717 1_455
Mo0 O40 1.735980 1_545
Mo0 O56 1.738732 1_555
Mo0 O24 2.011637 1_545
Mo0 O60 2.030235 1_556
Mo0 O52 2.099356 1_545
Mo0 O21 2.310465 1_545
Mo1 O41 1.736218 1_555
Mo1 O57 1.738280 1_555
Mo1 O25 2.011991 1_555
Mo1 O61 2.031537 1_555
Mo1 O53 2.098185 1_555
Mo1 O20 2.308417 1_555
Mo2 O42 1.736337 1_565
Mo2 O58 1.738371 1_555
Mo2 O26 2.011005 1_565
Mo2 O62 2.030964 1_554
Mo2 O54 2.100088 1_565
Mo2 O23 2.307123 1_565
Mo3 O43 1.736209 1_555
Mo3 O59 1.738228 1_555
Mo3 O27 2.012069 1_555
Mo3 O63 2.031420 1_555
Mo3 O55 2.098408 1_555
Mo3 O22 2.308509 1_555
Mo4 O0 1.713155 1_555
Mo4 O12 2.024641 1_555
Mo4 O8 2.058791 1_555
Mo4 O28 2.069629 1_555
Mo4 O4 2.084452 1_555
Mo4 O44 2.187370 1_555
Mo5 O1 1.713217 1_555
Mo5 O13 2.023901 1_655
Mo5 O9 2.058399 1_555
Mo5 O29 2.070137 1_555
Mo5 O5 2.084110 1_655
Mo5 O45 2.187298 1_555
Mo6 O2 1.714411 1_555
Mo6 O14 2.023790 1_555
Mo6 O10 2.058201 1_555
Mo6 O30 2.068785 1_555
Mo6 O6 2.083565 1_555
Mo6 O46 2.191151 1_555
Mo7 O3 1.713204 1_555
Mo7 O15 2.025821 1_455
Mo7 O11 2.058869 1_555
Mo7 O31 2.069156 1_555
Mo7 O7 2.083978 1_455
Mo7 O47 2.187185 1_555
Mo8 O32 1.729174 1_555
Mo8 O20 1.770774 1_555
Mo8 O48 2.039578 1_555
Mo8 O36 2.044737 1_555
Mo8 O64 2.090849 1_555
Mo8 O16 2.212719 1_555
Mo9 O33 1.729011 1_555
Mo9 O21 1.770593 1_554
Mo9 O49 2.040237 1_655
Mo9 O37 2.044555 1_555
Mo9 O65 2.090557 1_655
Mo9 O17 2.215000 1_554
Mo10 O34 1.729176 1_555
Mo10 O22 1.770727 1_555
Mo10 O50 2.039613 1_555
Mo10 O38 2.044967 1_555
Mo10 O66 2.090641 1_555
Mo10 O18 2.212635 1_555
Mo11 O35 1.729085 1_555
Mo11 O23 1.770730 1_556
Mo11 O51 2.042809 1_455
Mo11 O39 2.045281 1_555
Mo11 O67 2.088846 1_455
Mo11 O19 2.212357 1_556
O2 Rb4 3.182122 1_554
O4 P11 1.548056 1_555
O4 Rb4 3.413845 1_555
O5 P10 1.547356 1_555
O6 P9 1.547241 1_555
O7 P8 1.547348 1_555
O8 P2 1.569225 1_555
O8 Rb0 3.113783 1_555
O8 Rb4 3.394835 1_555
O9 P3 1.568777 1_555
O9 Rb1 3.114753 1_545
O10 P0 1.568982 1_555
O10 Rb2 3.114861 1_555
O11 P1 1.569001 1_555
O11 Rb3 3.115229 1_565
O12 P1 1.541861 1_555
O13 P0 1.541739 1_555
O14 P3 1.541994 1_555
O15 P2 1.542052 1_555
O16 P3 1.525600 1_555
O17 P2 1.525877 1_555
O17 Rb4 3.423104 1_555
O18 P1 1.525783 1_555
O19 P0 1.525693 1_555
O24 P8 1.542675 1_555
O25 P9 1.542669 1_555
O26 P10 1.542274 1_555
O27 P11 1.542655 1_555
O28 P8 1.541170 1_555
O29 P9 1.541443 1_555
O29 Rb4 3.380722 1_554
O30 P10 1.541325 1_555
O31 P11 1.541227 1_555
O32 Rb3 3.311147 1_555
O32 Rb0 3.312353 1_555
O33 Rb1 3.311435 1_555
O33 Rb2 3.311575 1_655
O34 Rb1 3.311780 1_555
O34 Rb2 3.312612 1_555
O35 Rb0 3.311148 1_455
O35 Rb3 3.311497 1_555
O36 P8 1.557186 1_545
O37 P9 1.557185 1_555
O38 P10 1.557029 1_565
O39 P11 1.557451 1_555
O39 Rb4 3.584656 1_555
O40 Rb3 2.912954 1_565
O41 Rb2 2.913436 1_655
O42 Rb1 2.913855 1_545
O43 Rb0 2.914270 1_455
O44 P5 1.535636 1_555
O44 Rb0 2.989250 1_555
O45 P4 1.535628 1_555
O45 Rb1 2.989164 1_545
O45 Rb4 3.440425 1_554
O46 P7 1.535425 1_555
O46 Rb2 2.989667 1_555
O47 P6 1.535546 1_555
O47 Rb3 2.990615 1_565
O48 P7 1.564863 1_555
O49 P6 1.564742 1_554
O50 P5 1.564699 1_555
O51 P4 1.564908 1_556
O51 Rb4 3.302851 1_555
O52 P6 1.531019 1_655
O53 P7 1.531133 1_555
O54 P4 1.531242 1_455
O55 P5 1.530879 1_555
O56 Rb0 2.861895 1_555
O56 Rb4 3.343995 1_555
O57 Rb1 2.860681 1_555
O58 Rb2 2.860802 1_555
O59 Rb3 2.859880 1_555
O60 P4 1.569487 1_555
O60 Rb1 3.247853 1_545
O60 Rb4 3.526543 1_554
O61 P5 1.569305 1_555
O61 Rb0 3.250107 1_555
O62 P6 1.569516 1_555
O62 Rb3 3.249511 1_565
O63 P7 1.569608 1_555
O63 Rb2 3.249379 1_555
O64 P1 1.554351 1_545
O64 Rb3 3.077122 1_555
O65 P0 1.554128 1_555
O65 Rb2 3.077498 1_555
O66 P3 1.554197 1_565
O66 Rb1 3.077170 1_555
O67 P2 1.554416 1_555
O67 Rb0 3.077419 1_555
