# generated using pymatgen
data_Ba2AlV2F11
_symmetry_space_group_name_H-M   'P 1'
_cell_length_a   7.48095605
_cell_length_b   7.48095605
_cell_length_c   14.56996600
_cell_angle_alpha   90.00000000
_cell_angle_beta   90.00000000
_cell_angle_gamma   120.00000045
_symmetry_Int_Tables_number   1
_chemical_formula_structural   Ba2AlV2F11
_chemical_formula_sum   'Ba6 Al3 V6 F33'
_cell_volume   706.16042475
_cell_formula_units_Z   3
loop_
 _symmetry_equiv_pos_site_id
 _symmetry_equiv_pos_as_xyz
  1  'x, y, z'
loop_
 _atom_site_type_symbol
 _atom_site_label
 _atom_site_symmetry_multiplicity
 _atom_site_fract_x
 _atom_site_fract_y
 _atom_site_fract_z
 _atom_site_occupancy
  Ba  Ba0  1  0.87069300  0.85939000  0.66555100  1
  Ba  Ba1  1  0.51878700  0.16432800  0.79794000  1
  Ba  Ba2  1  0.98869600  0.12930700  0.99888400  1
  Ba  Ba3  1  0.83567200  0.35445900  0.46460700  1
  Ba  Ba4  1  0.64554100  0.48121300  0.13127300  1
  Ba  Ba5  1  0.14061000  0.01130400  0.33221700  1
  Al  Al0  1  0.49962200  0.67782500  0.87413300  1
  Al  Al1  1  0.17820300  0.50037800  0.20746600  1
  Al  Al2  1  0.32217500  0.82179700  0.54079900  1
  V  V0  1  0.97854600  0.66498800  0.88379500  1
  V  V1  1  0.14334300  0.43743900  0.72475500  1
  V  V2  1  0.56256100  0.70590400  0.39142100  1
  V  V3  1  0.68644200  0.02145400  0.21712800  1
  V  V4  1  0.29409600  0.85665700  0.05808800  1
  V  V5  1  0.33501200  0.31355800  0.55046100  1
  F  F0  1  0.98488200  0.74079800  0.02271000  1
  F  F1  1  0.83829200  0.35762100  0.92343200  1
  F  F2  1  0.75591600  0.01511800  0.35604300  1
  F  F3  1  0.42038500  0.09011400  0.49979000  1
  F  F4  1  0.87069900  0.90093000  0.17772600  1
  F  F5  1  0.24219400  0.29917300  0.19410200  1
  F  F6  1  0.90988600  0.33027000  0.16645600  1
  F  F7  1  0.70082700  0.94302000  0.86076800  1
  F  F8  1  0.03023100  0.12930100  0.51106000  1
  F  F9  1  0.60785800  0.00720900  0.08059500  1
  F  F10  1  0.66973000  0.57961500  0.83312300  1
  F  F11  1  0.25920200  0.24408400  0.68937700  1
  F  F12  1  0.58279000  0.66711000  0.98632300  1
  F  F13  1  0.35632800  0.15485700  0.02354100  1
  F  F14  1  0.08431900  0.41721000  0.31965600  1
  F  F15  1  0.64237900  0.48067100  0.59009900  1
  F  F16  1  0.32220400  0.78368400  0.91262800  1
  F  F17  1  0.39935100  0.39214200  0.41392900  1
  F  F18  1  0.30963100  0.75102800  0.42019400  1
  F  F19  1  0.33289000  0.91568100  0.65299000  1
  F  F20  1  0.44139600  0.69036900  0.75352800  1
  F  F21  1  0.84514300  0.20147100  0.69020700  1
  F  F22  1  0.79852900  0.64367200  0.35687400  1
  F  F23  1  0.46148000  0.67779600  0.24596100  1
  F  F24  1  0.99279100  0.60064900  0.74726200  1
  F  F25  1  0.09907000  0.96976900  0.84439300  1
  F  F26  1  0.51932900  0.16170800  0.25676500  1
  F  F27  1  0.26520600  0.42498000  0.87075600  1
  F  F28  1  0.15977400  0.73479400  0.20408900  1
  F  F29  1  0.24897200  0.55860400  0.08686100  1
  F  F30  1  0.05698000  0.75780600  0.52743500  1
  F  F31  1  0.21631600  0.53852000  0.57929400  1
  F  F32  1  0.57502000  0.84022600  0.53742300  1
loop_
_geom_bond_atom_site_label_1
_geom_bond_atom_site_label_2
_geom_bond_distance
_geom_bond_site_symmetry_2
Ba0 F21 2.683968 1_565
Ba0 F15 2.704374 1_555
Ba0 F30 2.761929 1_655
Ba0 F24 2.786819 1_555
Ba0 F32 2.842716 1_555
Ba0 F8 2.856283 1_665
Ba0 F11 2.913013 1_665
Ba0 F25 2.996627 1_655
Ba0 F10 3.074933 1_555
Ba0 F20 3.081417 1_555
Ba0 F19 3.272657 1_655
Ba0 F7 3.300204 1_555
Ba1 F19 2.695811 1_545
Ba1 F10 2.771568 1_555
Ba1 F7 2.772759 1_545
Ba1 F1 2.773240 1_555
Ba1 F11 2.790657 1_555
Ba1 F21 2.797028 1_555
Ba1 F25 2.804521 1_545
Ba1 F16 2.979257 1_545
Ba2 F13 2.683977 1_656
Ba2 F1 2.704369 1_555
Ba2 F7 2.761921 1_545
Ba2 F9 2.786812 1_556
Ba2 F27 2.842719 1_655
Ba2 F25 2.856287 1_645
Ba2 F0 2.913017 1_546
Ba2 F4 2.996627 1_546
Ba2 F6 3.074926 1_556
Ba2 F29 3.081417 1_656
Ba2 F12 3.272657 1_545
Ba2 F5 3.300222 1_656
Ba3 F14 2.695821 1_655
Ba3 F3 2.771569 1_555
Ba3 F30 2.772753 1_655
Ba3 F15 2.773240 1_555
Ba3 F2 2.790665 1_555
Ba3 F22 2.797028 1_555
Ba3 F8 2.804521 1_655
Ba3 F31 2.979249 1_655
Ba4 F12 2.695814 1_554
Ba4 F6 2.771575 1_555
Ba4 F5 2.772757 1_555
Ba4 F26 2.773240 1_555
Ba4 F0 2.790657 1_555
Ba4 F13 2.797020 1_555
Ba4 F4 2.804521 1_555
Ba4 F23 2.979257 1_555
Ba5 F22 2.683974 1_445
Ba5 F26 2.704375 1_555
Ba5 F5 2.761908 1_555
Ba5 F17 2.786820 1_555
Ba5 F28 2.842722 1_545
Ba5 F4 2.856282 1_445
Ba5 F2 2.913009 1_455
Ba5 F8 2.996636 1_555
Ba5 F3 3.074946 1_555
Ba5 F18 3.081417 1_545
Ba5 F14 3.272657 1_555
Ba5 F30 3.300224 1_545
Al0 F12 1.765031 1_555
Al0 F7 1.803684 1_555
Al0 F20 1.824063 1_555
Al0 F27 1.827158 1_555
Al0 F10 1.857744 1_555
Al0 F16 1.937633 1_555
Al1 F14 1.765032 1_555
Al1 F5 1.803687 1_555
Al1 F29 1.824062 1_555
Al1 F28 1.827158 1_555
Al1 F6 1.857739 1_455
Al1 F23 1.937633 1_555
Al2 F19 1.765047 1_555
Al2 F30 1.803680 1_555
Al2 F18 1.824061 1_555
Al2 F32 1.827158 1_555
Al2 F3 1.857733 1_565
Al2 F31 1.937633 1_555
F0 V4 2.088767 1_655
F0 V0 2.096074 1_554
F1 V0 2.075822 1_555
F2 V2 2.088767 1_545
F2 V3 2.096074 1_555
F3 V5 2.194243 1_555
F4 V3 2.070118 1_565
F6 V3 2.194242 1_555
F8 V5 2.070114 1_555
F9 V4 2.059594 1_545
F9 V3 2.061930 1_555
F10 V0 2.194241 1_555
F11 V1 2.088767 1_555
F11 V5 2.096088 1_555
F13 V4 2.099546 1_545
F15 V5 2.075826 1_555
F16 V4 2.224557 1_556
F16 V0 2.300344 1_455
F17 V2 2.059596 1_555
F17 V5 2.061916 1_555
F18 V2 2.123370 1_555
F20 V1 2.123366 1_555
F21 V1 2.099550 1_655
F22 V2 2.099546 1_555
F23 V2 2.224557 1_555
F23 V3 2.300344 1_565
F24 V1 2.059594 1_655
F24 V0 2.061930 1_555
F25 V0 2.070118 1_455
F26 V3 2.075822 1_555
F27 V1 2.334496 1_555
F28 V4 2.334496 1_555
F29 V4 2.123363 1_555
F31 V1 2.224571 1_555
F31 V5 2.300344 1_555
F32 V2 2.334510 1_555
