# generated using pymatgen
data_Ti3VS4
_symmetry_space_group_name_H-M   'P 1'
_cell_length_a   3.25082500
_cell_length_b   5.61024700
_cell_length_c   6.37541010
_cell_angle_alpha   89.98962002
_cell_angle_beta   90.00000000
_cell_angle_gamma   90.00000000
_symmetry_Int_Tables_number   1
_chemical_formula_structural   Ti3VS4
_chemical_formula_sum   'Ti3 V1 S4'
_cell_volume   116.27428898
_cell_formula_units_Z   1
loop_
 _symmetry_equiv_pos_site_id
 _symmetry_equiv_pos_as_xyz
  1  'x, y, z'
loop_
 _atom_site_type_symbol
 _atom_site_label
 _atom_site_symmetry_multiplicity
 _atom_site_fract_x
 _atom_site_fract_y
 _atom_site_fract_z
 _atom_site_occupancy
  Ti  Ti0  1  0.50000000  0.50000000  0.50000000  1
  Ti  Ti1  1  0.00000000  0.00000000  0.00000000  1
  Ti  Ti2  1  0.50000000  0.50000000  0.00000000  1
  V  V0  1  0.00000000  0.00000000  0.50000000  1
  S  S0  1  0.50000000  0.83702400  0.25411300  1
  S  S1  1  0.00000000  0.33029100  0.25251300  1
  S  S2  1  0.00000000  0.66970900  0.74748700  1
  S  S3  1  0.50000000  0.16297600  0.74588700  1
loop_
_geom_bond_atom_site_label_1
_geom_bond_atom_site_label_2
_geom_bond_distance
_geom_bond_site_symmetry_2
S0 V0 2.436383 1_565
S0 V0 2.436383 1_665
S0 Ti0 2.455905 1_555
S0 Ti1 2.470239 1_565
S0 Ti1 2.470239 1_665
S0 Ti2 2.490147 1_555
S1 V0 2.433547 1_555
S1 Ti1 2.454880 1_555
S1 Ti0 2.457351 1_555
S1 Ti0 2.457351 1_455
S1 Ti2 2.477825 1_455
S1 Ti2 2.477825 1_555
S2 V0 2.433547 1_565
S2 Ti1 2.454880 1_566
S2 Ti0 2.457351 1_555
S2 Ti0 2.457351 1_455
S2 Ti2 2.477825 1_456
S2 Ti2 2.477825 1_556
S3 V0 2.436383 1_655
S3 V0 2.436383 1_555
S3 Ti0 2.455905 1_555
S3 Ti1 2.470239 1_656
S3 Ti1 2.470239 1_556
S3 Ti2 2.490147 1_556
