# generated using pymatgen
data_Li2MnCo3O8
_symmetry_space_group_name_H-M   'P 1'
_cell_length_a   5.74903785
_cell_length_b   5.73527298
_cell_length_c   10.28710670
_cell_angle_alpha   104.60606144
_cell_angle_beta   75.24561182
_cell_angle_gamma   118.71404976
_symmetry_Int_Tables_number   1
_chemical_formula_structural   Li2MnCo3O8
_chemical_formula_sum   'Li4 Mn2 Co6 O16'
_cell_volume   284.28010197
_cell_formula_units_Z   2
loop_
 _symmetry_equiv_pos_site_id
 _symmetry_equiv_pos_as_xyz
  1  'x, y, z'
loop_
 _atom_site_type_symbol
 _atom_site_label
 _atom_site_symmetry_multiplicity
 _atom_site_fract_x
 _atom_site_fract_y
 _atom_site_fract_z
 _atom_site_occupancy
  Li  Li0  1  0.25715100  0.75552300  0.25190400  1
  Li  Li1  1  0.74291500  0.24452500  0.74806900  1
  Li  Li2  1  0.74590600  0.24264500  0.25095000  1
  Li  Li3  1  0.25413200  0.75740200  0.74905200  1
  Mn  Mn0  1  0.49990200  0.50005400  0.50013900  1
  Mn  Mn1  1  0.99997800  0.99990300  0.99997900  1
  Co  Co0  1  0.49997300  0.49997200  0.00000400  1
  Co  Co1  1  0.00003400  0.00003800  0.49998500  1
  Co  Co2  1  0.49989500  0.99998700  0.00001600  1
  Co  Co3  1  0.00006700  0.49993000  0.50001800  1
  Co  Co4  1  0.99999900  0.50006100  0.00000400  1
  Co  Co5  1  0.50009900  0.00003600  0.50004000  1
  O  O0  1  0.64912000  0.35073100  0.09790500  1
  O  O1  1  0.14544700  0.87235600  0.60134800  1
  O  O2  1  0.85467600  0.12764100  0.39860000  1
  O  O3  1  0.35088200  0.64924900  0.90208500  1
  O  O4  1  0.37345600  0.64539000  0.39763500  1
  O  O5  1  0.86149700  0.13878300  0.89822700  1
  O  O6  1  0.13842300  0.86118500  0.10169100  1
  O  O7  1  0.62662600  0.35459600  0.60237200  1
  O  O8  1  0.86068900  0.61060500  0.39303900  1
  O  O9  1  0.35985700  0.11047700  0.89420600  1
  O  O10  1  0.38152900  0.14270200  0.39300200  1
  O  O11  1  0.89112300  0.64115200  0.89396800  1
  O  O12  1  0.10878400  0.35877800  0.10604600  1
  O  O13  1  0.61855400  0.85733700  0.60700000  1
  O  O14  1  0.64001800  0.88951500  0.10581400  1
  O  O15  1  0.13926800  0.38942700  0.60690200  1
loop_
_geom_bond_atom_site_label_1
_geom_bond_atom_site_label_2
_geom_bond_distance
_geom_bond_site_symmetry_2
Li0 O4 2.118366 1_555
Li0 O6 2.151264 1_555
Li0 O10 2.219563 1_565
Li0 O14 2.228507 1_555
Li0 O8 2.257560 1_455
Li0 O12 2.285076 1_555
Li1 O7 2.117782 1_555
Li1 O5 2.150520 1_555
Li1 O13 2.219453 1_545
Li1 O9 2.229481 1_555
Li1 O15 2.257294 1_655
Li1 O11 2.284790 1_555
Li2 O0 2.107715 1_555
Li2 O14 2.110632 1_545
Li2 O2 2.125668 1_555
Li2 O10 2.135812 1_555
Li2 O12 2.144639 1_655
Li2 O8 2.150118 1_555
Li3 O3 2.107716 1_555
Li3 O9 2.110523 1_565
Li3 O1 2.125664 1_555
Li3 O13 2.135988 1_555
Li3 O11 2.145204 1_455
Li3 O15 2.150499 1_555
Mn0 O7 1.936367 1_555
Mn0 O4 1.936776 1_555
Mn0 O13 1.943041 1_555
Mn0 O10 1.944460 1_555
Mn0 O15 1.958308 1_555
Mn0 O8 1.960291 1_555
Mn1 O11 1.947584 1_555
Mn1 O12 1.948354 1_666
Mn1 O9 1.951237 1_665
Mn1 O14 1.951875 1_556
Mn1 O6 1.952874 1_656
Mn1 O5 1.954019 1_565
Co0 O0 2.015432 1_555
Co0 O3 2.015476 1_554
Co0 O9 2.077224 1_554
Co0 O14 2.077474 1_555
Co0 O11 2.085368 1_554
Co0 O12 2.085559 1_555
Co1 O2 1.933449 1_455
Co1 O1 1.933846 1_545
Co1 O10 2.047269 1_555
Co1 O13 2.047330 1_445
Co1 O15 2.080815 1_555
Co1 O8 2.081114 1_445
Co2 O9 1.875887 1_564
Co2 O14 1.876081 1_555
Co2 O0 1.885937 1_565
Co2 O3 1.885982 1_554
Co2 O6 1.941520 1_555
Co2 O5 1.942503 1_564
Co3 O15 1.880966 1_555
Co3 O8 1.883154 1_455
Co3 O2 1.987945 1_455
Co3 O1 1.988197 1_555
Co3 O4 1.996012 1_555
Co3 O7 1.996101 1_455
Co4 O11 1.875118 1_554
Co4 O12 1.875619 1_655
Co4 O0 1.886036 1_555
Co4 O3 1.886062 1_654
Co4 O6 1.940305 1_655
Co4 O5 1.941316 1_554
Co5 O1 1.909825 1_545
Co5 O2 1.910004 1_555
Co5 O7 1.913506 1_555
Co5 O4 1.914163 1_545
Co5 O13 1.927595 1_545
Co5 O10 1.928536 1_555
