# generated using pymatgen
data_SrAl3PSO14
_symmetry_space_group_name_H-M   'P 1'
_cell_length_a   7.10788088
_cell_length_b   7.10788088
_cell_length_c   7.10787990
_cell_angle_alpha   58.65385806
_cell_angle_beta   58.65385806
_cell_angle_gamma   58.65385598
_symmetry_Int_Tables_number   1
_chemical_formula_structural   SrAl3PSO14
_chemical_formula_sum   'Sr1 Al3 P1 S1 O14'
_cell_volume   246.11232660
_cell_formula_units_Z   1
loop_
 _symmetry_equiv_pos_site_id
 _symmetry_equiv_pos_as_xyz
  1  'x, y, z'
loop_
 _atom_site_type_symbol
 _atom_site_label
 _atom_site_symmetry_multiplicity
 _atom_site_fract_x
 _atom_site_fract_y
 _atom_site_fract_z
 _atom_site_occupancy
  Sr  Sr0  1  0.00067700  0.00067700  0.00067700  1
  Al  Al0  1  0.99887800  0.99887800  0.50091500  1
  Al  Al1  1  0.50091500  0.99887800  0.99887800  1
  Al  Al2  1  0.99887800  0.50091500  0.99887800  1
  P  P0  1  0.69356300  0.69356300  0.69356300  1
  S  S0  1  0.30678900  0.30678900  0.30678900  1
  O  O0  1  0.75018700  0.09200100  0.75018700  1
  O  O1  1  0.09200100  0.75018700  0.75018700  1
  O  O2  1  0.75018700  0.75018700  0.09200100  1
  O  O3  1  0.25126600  0.91038900  0.25126600  1
  O  O4  1  0.91038900  0.25126600  0.25126600  1
  O  O5  1  0.25126600  0.25126600  0.91038900  1
  O  O6  1  0.60614200  0.60614200  0.60614200  1
  O  O7  1  0.38818300  0.38818300  0.38818300  1
  O  O8  1  0.84567000  0.48434000  0.84567000  1
  O  O9  1  0.48434000  0.84567000  0.84567000  1
  O  O10  1  0.84567000  0.84567000  0.48434000  1
  O  O11  1  0.15854300  0.50791300  0.15854300  1
  O  O12  1  0.50791300  0.15854300  0.15854300  1
  O  O13  1  0.15854300  0.15854300  0.50791300  1
loop_
_geom_bond_atom_site_label_1
_geom_bond_atom_site_label_2
_geom_bond_distance
_geom_bond_site_symmetry_2
Al0 O4 1.854157 1_565
Al0 O3 1.854157 1_655
Al0 O0 1.856435 1_565
Al0 O1 1.856435 1_655
Al0 O10 1.971403 1_555
Al0 O13 2.008941 1_665
Al1 O5 1.854157 1_565
Al1 O3 1.854157 1_556
Al1 O2 1.856435 1_556
Al1 O0 1.856435 1_565
Al1 O9 1.971403 1_555
Al1 O12 2.008941 1_566
Al2 O5 1.854157 1_655
Al2 O4 1.854157 1_556
Al2 O2 1.856435 1_556
Al2 O1 1.856435 1_655
Al2 O8 1.971403 1_555
Al2 O11 2.008941 1_656
O0 Sr0 2.766702 1_656
O1 Sr0 2.766702 1_566
O2 Sr0 2.766702 1_665
O3 Sr0 2.771118 1_565
O4 Sr0 2.771118 1_655
O5 Sr0 2.771118 1_556
O6 P0 1.537360 1_555
O7 S0 1.431371 1_555
O8 P0 1.555604 1_555
O8 Sr0 2.761852 1_656
O9 P0 1.555604 1_555
O9 Sr0 2.761852 1_566
O10 P0 1.555604 1_555
O10 Sr0 2.761851 1_665
O11 S0 1.511625 1_555
O11 Sr0 2.813855 1_565
O12 S0 1.511625 1_555
O12 Sr0 2.813855 1_655
O13 S0 1.511625 1_555
O13 Sr0 2.813854 1_556
