# generated using pymatgen
data_BaMg6C
_symmetry_space_group_name_H-M   'P 1'
_cell_length_a   21.22133241
_cell_length_b   21.22133241
_cell_length_c   7.34501800
_cell_angle_alpha   90.00000000
_cell_angle_beta   90.00000000
_cell_angle_gamma   148.51817761
_symmetry_Int_Tables_number   1
_chemical_formula_structural   BaMg6C
_chemical_formula_sum   'Ba8 Mg48 C8'
_cell_volume   1727.42157487
_cell_formula_units_Z   8
loop_
 _symmetry_equiv_pos_site_id
 _symmetry_equiv_pos_as_xyz
  1  'x, y, z'
loop_
 _atom_site_type_symbol
 _atom_site_label
 _atom_site_symmetry_multiplicity
 _atom_site_fract_x
 _atom_site_fract_y
 _atom_site_fract_z
 _atom_site_occupancy
  Ba  Ba0_0  1  0.39351450  0.10648550  0.25000000  1
  Ba  Ba0_1  1  0.39351450  0.10648550  0.75000000  1
  Ba  Ba0_2  1  0.39351450  0.60648550  0.25000000  1
  Ba  Ba0_3  1  0.39351450  0.60648550  0.75000000  1
  Ba  Ba0_4  1  0.89351450  0.10648550  0.25000000  1
  Ba  Ba0_5  1  0.89351450  0.10648550  0.75000000  1
  Ba  Ba0_6  1  0.89351450  0.60648550  0.25000000  1
  Ba  Ba0_7  1  0.89351450  0.60648550  0.75000000  1
  Mg  Mg0_0  1  0.14752450  0.10404400  0.25000000  1
  Mg  Mg0_1  1  0.14752450  0.10404400  0.75000000  1
  Mg  Mg0_2  1  0.14752450  0.60404400  0.25000000  1
  Mg  Mg0_3  1  0.14752450  0.60404400  0.75000000  1
  Mg  Mg0_4  1  0.64752450  0.10404400  0.25000000  1
  Mg  Mg0_5  1  0.64752450  0.10404400  0.75000000  1
  Mg  Mg0_6  1  0.64752450  0.60404400  0.25000000  1
  Mg  Mg0_7  1  0.64752450  0.60404400  0.75000000  1
  Mg  Mg1_0  1  0.39595600  0.35247550  0.25000000  1
  Mg  Mg1_1  1  0.39595600  0.35247550  0.75000000  1
  Mg  Mg1_2  1  0.39595600  0.85247550  0.25000000  1
  Mg  Mg1_3  1  0.39595600  0.85247550  0.75000000  1
  Mg  Mg1_4  1  0.89595600  0.35247550  0.25000000  1
  Mg  Mg1_5  1  0.89595600  0.35247550  0.75000000  1
  Mg  Mg1_6  1  0.89595600  0.85247550  0.25000000  1
  Mg  Mg1_7  1  0.89595600  0.85247550  0.75000000  1
  Mg  Mg2_0  1  0.10016200  0.16927050  0.00000000  1
  Mg  Mg2_1  1  0.10016200  0.16927050  0.50000000  1
  Mg  Mg2_2  1  0.10016200  0.66927050  0.00000000  1
  Mg  Mg2_3  1  0.10016200  0.66927050  0.50000000  1
  Mg  Mg2_4  1  0.60016200  0.16927050  0.00000000  1
  Mg  Mg2_5  1  0.60016200  0.16927050  0.50000000  1
  Mg  Mg2_6  1  0.60016200  0.66927050  0.00000000  1
  Mg  Mg2_7  1  0.60016200  0.66927050  0.50000000  1
  Mg  Mg3_0  1  0.33072950  0.39983800  0.00000000  1
  Mg  Mg3_1  1  0.33072950  0.39983800  0.50000000  1
  Mg  Mg3_2  1  0.33072950  0.89983800  0.00000000  1
  Mg  Mg3_3  1  0.33072950  0.89983800  0.50000000  1
  Mg  Mg3_4  1  0.83072950  0.39983800  0.00000000  1
  Mg  Mg3_5  1  0.83072950  0.39983800  0.50000000  1
  Mg  Mg3_6  1  0.83072950  0.89983800  0.00000000  1
  Mg  Mg3_7  1  0.83072950  0.89983800  0.50000000  1
  Mg  Mg4_0  1  0.32005500  0.17994500  0.00000000  1
  Mg  Mg4_1  1  0.32005500  0.17994500  0.50000000  1
  Mg  Mg4_2  1  0.32005500  0.67994500  0.00000000  1
  Mg  Mg4_3  1  0.32005500  0.67994500  0.50000000  1
  Mg  Mg4_4  1  0.82005500  0.17994500  0.00000000  1
  Mg  Mg4_5  1  0.82005500  0.17994500  0.50000000  1
  Mg  Mg4_6  1  0.82005500  0.67994500  0.00000000  1
  Mg  Mg4_7  1  0.82005500  0.67994500  0.50000000  1
  Mg  Mg5_0  1  0.08436850  0.41563150  0.00000000  1
  Mg  Mg5_1  1  0.08436850  0.41563150  0.50000000  1
  Mg  Mg5_2  1  0.08436850  0.91563150  0.00000000  1
  Mg  Mg5_3  1  0.08436850  0.91563150  0.50000000  1
  Mg  Mg5_4  1  0.58436850  0.41563150  0.00000000  1
  Mg  Mg5_5  1  0.58436850  0.41563150  0.50000000  1
  Mg  Mg5_6  1  0.58436850  0.91563150  0.00000000  1
  Mg  Mg5_7  1  0.58436850  0.91563150  0.50000000  1
  C  C0_0  1  0.22769400  0.27230600  0.25000000  1
  C  C0_1  1  0.22769400  0.27230600  0.75000000  1
  C  C0_2  1  0.22769400  0.77230600  0.25000000  1
  C  C0_3  1  0.22769400  0.77230600  0.75000000  1
  C  C0_4  1  0.72769400  0.27230600  0.25000000  1
  C  C0_5  1  0.72769400  0.27230600  0.75000000  1
  C  C0_6  1  0.72769400  0.77230600  0.25000000  1
  C  C0_7  1  0.72769400  0.77230600  0.75000000  1
loop_
_geom_bond_atom_site_label_1
_geom_bond_atom_site_label_2
_geom_bond_distance
_geom_bond_site_symmetry_2
Ba0_0 Mg4_0 3.518123 1_555
Ba0_0 Mg4_1 3.518123 1_555
Ba0_0 Ba0_1 3.672509 1_555
Ba0_0 Ba0_1 3.672509 1_554
Ba0_0 Mg2_5 3.796373 1_555
Ba0_0 Mg2_4 3.796373 1_555
Ba0_0 Mg3_3 3.796373 1_545
Ba0_0 Mg3_2 3.796373 1_545
Ba0_0 Mg5_5 4.182791 1_555
Ba0_0 Mg5_4 4.182791 1_555
Ba0_0 Mg5_2 4.182791 1_545
Ba0_0 Mg5_3 4.182791 1_545
Ba0_1 Mg4_1 3.518123 1_555
Ba0_1 Mg4_0 3.518123 1_556
Ba0_1 Mg2_4 3.796373 1_556
Ba0_1 Mg2_5 3.796373 1_555
Ba0_1 Mg3_3 3.796373 1_545
Ba0_1 Mg3_2 3.796373 1_546
Ba0_1 Mg5_4 4.182791 1_556
Ba0_1 Mg5_5 4.182791 1_555
Ba0_1 Mg5_3 4.182791 1_545
Ba0_1 Mg5_2 4.182791 1_546
Ba0_2 Mg4_2 3.518123 1_555
Ba0_2 Mg4_3 3.518123 1_555
Ba0_2 Ba0_3 3.672509 1_555
Ba0_2 Ba0_3 3.672509 1_554
Ba0_2 Mg2_7 3.796373 1_555
Ba0_2 Mg2_6 3.796373 1_555
Ba0_2 Mg3_0 3.796373 1_555
Ba0_2 Mg3_1 3.796373 1_555
Ba0_2 Mg5_1 4.182791 1_555
Ba0_2 Mg5_0 4.182791 1_555
Ba0_2 Mg5_6 4.182791 1_555
Ba0_2 Mg5_7 4.182791 1_555
Ba0_3 Mg4_3 3.518123 1_555
Ba0_3 Mg4_2 3.518123 1_556
Ba0_3 Mg2_7 3.796373 1_555
Ba0_3 Mg2_6 3.796373 1_556
Ba0_3 Mg3_1 3.796373 1_555
Ba0_3 Mg3_0 3.796373 1_556
Ba0_3 Mg5_1 4.182791 1_555
Ba0_3 Mg5_0 4.182791 1_556
Ba0_3 Mg5_6 4.182791 1_556
Ba0_3 Mg5_7 4.182791 1_555
Ba0_4 Mg4_4 3.518123 1_555
Ba0_4 Mg4_5 3.518123 1_555
Ba0_4 Ba0_5 3.672509 1_555
Ba0_4 Ba0_5 3.672509 1_554
Ba0_4 Mg2_0 3.796373 1_655
Ba0_4 Mg2_1 3.796373 1_655
Ba0_4 Mg3_6 3.796373 1_545
Ba0_4 Mg3_7 3.796373 1_545
Ba0_4 Mg5_1 4.182791 1_655
Ba0_4 Mg5_0 4.182791 1_655
Ba0_4 Mg5_7 4.182791 1_545
Ba0_4 Mg5_6 4.182791 1_545
Ba0_5 Mg4_4 3.518123 1_556
Ba0_5 Mg4_5 3.518123 1_555
Ba0_5 Mg2_0 3.796373 1_656
Ba0_5 Mg2_1 3.796373 1_655
Ba0_5 Mg3_7 3.796373 1_545
Ba0_5 Mg3_6 3.796373 1_546
Ba0_5 Mg5_1 4.182791 1_655
Ba0_5 Mg5_0 4.182791 1_656
Ba0_5 Mg5_6 4.182791 1_546
Ba0_5 Mg5_7 4.182791 1_545
Ba0_6 Mg4_7 3.518123 1_555
Ba0_6 Mg4_6 3.518123 1_555
Ba0_6 Ba0_7 3.672509 1_555
Ba0_6 Ba0_7 3.672509 1_554
Ba0_6 Mg2_3 3.796373 1_655
Ba0_6 Mg2_2 3.796373 1_655
Ba0_6 Mg3_4 3.796373 1_555
Ba0_6 Mg3_5 3.796373 1_555
Ba0_6 Mg5_3 4.182791 1_655
Ba0_6 Mg5_2 4.182791 1_655
Ba0_6 Mg5_5 4.182791 1_555
Ba0_6 Mg5_4 4.182791 1_555
Ba0_7 Mg4_7 3.518123 1_555
Ba0_7 Mg4_6 3.518123 1_556
Ba0_7 Mg2_3 3.796373 1_655
Ba0_7 Mg2_2 3.796373 1_656
Ba0_7 Mg3_4 3.796373 1_556
Ba0_7 Mg3_5 3.796373 1_555
Ba0_7 Mg5_2 4.182791 1_656
Ba0_7 Mg5_3 4.182791 1_655
Ba0_7 Mg5_5 4.182791 1_555
Ba0_7 Mg5_4 4.182791 1_556
Mg0_0 Mg4_1 3.051710 1_555
Mg0_0 Mg4_0 3.051710 1_555
Mg0_1 Mg4_1 3.051710 1_555
Mg0_1 Mg4_0 3.051710 1_556
Mg0_2 Mg4_2 3.051710 1_555
Mg0_2 Mg4_3 3.051710 1_555
Mg0_3 Mg4_2 3.051710 1_556
Mg0_3 Mg4_3 3.051710 1_555
Mg0_4 Mg4_4 3.051710 1_555
Mg0_4 Mg4_5 3.051710 1_555
Mg0_5 Mg4_5 3.051710 1_555
Mg0_5 Mg4_4 3.051710 1_556
Mg0_6 Mg4_7 3.051710 1_555
Mg0_6 Mg4_6 3.051710 1_555
Mg0_7 Mg4_7 3.051710 1_555
Mg0_7 Mg4_6 3.051710 1_556
Mg1_0 Mg4_1 3.051710 1_555
Mg1_0 Mg4_0 3.051710 1_555
Mg1_1 Mg4_1 3.051710 1_555
Mg1_1 Mg4_0 3.051710 1_556
Mg1_2 Mg4_3 3.051710 1_555
Mg1_2 Mg4_2 3.051710 1_555
Mg1_3 Mg4_3 3.051710 1_555
Mg1_3 Mg4_2 3.051710 1_556
Mg1_4 Mg4_5 3.051710 1_555
Mg1_4 Mg4_4 3.051710 1_555
Mg1_5 Mg4_5 3.051710 1_555
Mg1_5 Mg4_4 3.051710 1_556
Mg1_6 Mg4_6 3.051710 1_555
Mg1_6 Mg4_7 3.051710 1_555
Mg1_7 Mg4_6 3.051710 1_556
Mg1_7 Mg4_7 3.051710 1_555
Mg4_0 Mg5_4 2.937331 1_555
Mg4_0 Mg5_2 2.937331 1_545
Mg4_1 Mg5_5 2.937331 1_555
Mg4_1 Mg5_3 2.937331 1_545
Mg4_2 Mg5_0 2.937331 1_555
Mg4_2 Mg5_6 2.937331 1_555
Mg4_3 Mg5_1 2.937331 1_555
Mg4_3 Mg5_7 2.937331 1_555
Mg4_4 Mg5_6 2.937331 1_545
Mg4_4 Mg5_0 2.937331 1_655
Mg4_5 Mg5_7 2.937331 1_545
Mg4_5 Mg5_1 2.937331 1_655
Mg4_6 Mg5_2 2.937331 1_655
Mg4_6 Mg5_4 2.937331 1_555
Mg4_7 Mg5_3 2.937331 1_655
Mg4_7 Mg5_5 2.937331 1_555
C0_0 Mg0_0 2.298519 1_555
C0_0 Mg1_0 2.298519 1_555
C0_0 Mg3_1 2.320381 1_555
C0_0 Mg2_0 2.320381 1_555
C0_0 Mg2_1 2.320381 1_555
C0_0 Mg3_0 2.320381 1_555
C0_1 Mg0_1 2.298519 1_555
C0_1 Mg1_1 2.298519 1_555
C0_1 Mg3_1 2.320381 1_555
C0_1 Mg3_0 2.320381 1_556
C0_1 Mg2_0 2.320381 1_556
C0_1 Mg2_1 2.320381 1_555
C0_2 Mg0_2 2.298519 1_555
C0_2 Mg1_2 2.298519 1_555
C0_2 Mg2_3 2.320381 1_555
C0_2 Mg2_2 2.320381 1_555
C0_2 Mg3_3 2.320381 1_555
C0_2 Mg3_2 2.320381 1_555
C0_3 Mg0_3 2.298519 1_555
C0_3 Mg1_3 2.298519 1_555
C0_3 Mg2_3 2.320381 1_555
C0_3 Mg2_2 2.320381 1_556
C0_3 Mg3_2 2.320381 1_556
C0_3 Mg3_3 2.320381 1_555
C0_4 Mg0_4 2.298519 1_555
C0_4 Mg1_4 2.298519 1_555
C0_4 Mg2_4 2.320381 1_555
C0_4 Mg2_5 2.320381 1_555
C0_4 Mg3_5 2.320381 1_555
C0_4 Mg3_4 2.320381 1_555
C0_5 Mg0_5 2.298519 1_555
C0_5 Mg1_5 2.298519 1_555
C0_5 Mg2_4 2.320381 1_556
C0_5 Mg2_5 2.320381 1_555
C0_5 Mg3_5 2.320381 1_555
C0_5 Mg3_4 2.320381 1_556
C0_6 Mg0_6 2.298519 1_555
C0_6 Mg1_6 2.298519 1_555
C0_6 Mg3_7 2.320381 1_555
C0_6 Mg3_6 2.320381 1_555
C0_6 Mg2_7 2.320381 1_555
C0_6 Mg2_6 2.320381 1_555
C0_7 Mg0_7 2.298519 1_555
C0_7 Mg1_7 2.298519 1_555
C0_7 Mg3_7 2.320381 1_555
C0_7 Mg3_6 2.320381 1_556
C0_7 Mg2_7 2.320381 1_555
C0_7 Mg2_6 2.320381 1_556
