# generated using pymatgen
data_BaAl2Si3(NO)4
_symmetry_space_group_name_H-M   'P 1'
_cell_length_a   7.41806058
_cell_length_b   7.41806058
_cell_length_c   9.57923100
_cell_angle_alpha   90.00000000
_cell_angle_beta   90.00000000
_cell_angle_gamma   134.17459390
_symmetry_Int_Tables_number   1
_chemical_formula_structural   BaAl2Si3(NO)4
_chemical_formula_sum   'Ba2 Al4 Si6 N8 O8'
_cell_volume   378.06249138
_cell_formula_units_Z   2
loop_
 _symmetry_equiv_pos_site_id
 _symmetry_equiv_pos_as_xyz
  1  'x, y, z'
loop_
 _atom_site_type_symbol
 _atom_site_label
 _atom_site_symmetry_multiplicity
 _atom_site_fract_x
 _atom_site_fract_y
 _atom_site_fract_z
 _atom_site_occupancy
  Ba  Ba0  1  0.98329000  0.01671000  0.00099700  1
  Ba  Ba1  1  0.01671000  0.98329000  0.50099700  1
  Al  Al0  1  0.47345400  0.52654600  0.75493400  1
  Al  Al1  1  0.52654600  0.47345400  0.25493400  1
  Al  Al2  1  0.28718700  0.71281300  0.53903400  1
  Al  Al3  1  0.71281300  0.28718700  0.03903400  1
  Si  Si0  1  0.29761800  0.70238200  0.98617600  1
  Si  Si1  1  0.70238200  0.29761800  0.48617600  1
  Si  Si2  1  0.42911100  0.08259100  0.76146000  1
  Si  Si3  1  0.91740900  0.57088900  0.76146000  1
  Si  Si4  1  0.57088900  0.91740900  0.26146000  1
  Si  Si5  1  0.08259100  0.42911100  0.26146000  1
  N  N0  1  0.20758100  0.79241900  0.85108700  1
  N  N1  1  0.79241900  0.20758100  0.35108700  1
  N  N2  1  0.71194600  0.28805400  0.84586800  1
  N  N3  1  0.28805400  0.71194600  0.34586800  1
  N  N4  1  0.46507500  0.04318100  0.58915300  1
  N  N5  1  0.95681900  0.53492500  0.58915300  1
  N  N6  1  0.53492500  0.95681900  0.08915300  1
  N  N7  1  0.04318100  0.46507500  0.08915300  1
  O  O0  1  0.29897000  0.19898400  0.75948500  1
  O  O1  1  0.80101600  0.70103000  0.75948500  1
  O  O2  1  0.70103000  0.80101600  0.25948500  1
  O  O3  1  0.19898400  0.29897000  0.25948500  1
  O  O4  1  0.40647200  0.59352800  0.91120900  1
  O  O5  1  0.59352800  0.40647200  0.41120900  1
  O  O6  1  0.40631500  0.59368500  0.60279800  1
  O  O7  1  0.59368500  0.40631500  0.10279800  1
loop_
_geom_bond_atom_site_label_1
_geom_bond_atom_site_label_2
_geom_bond_distance
_geom_bond_site_symmetry_2
Ba0 O0 2.872518 1_654
Ba0 O1 2.872518 1_544
Ba0 O2 2.899347 1_545
Ba0 O3 2.899347 1_655
Ba0 N6 3.148550 1_545
Ba0 N7 3.148550 1_655
Ba0 O4 3.191028 1_654
Ba0 O4 3.191028 1_544
Ba0 N0 3.384780 1_644
Ba0 O7 3.401140 1_655
Ba0 O7 3.401140 1_545
Ba1 O3 2.872518 1_565
Ba1 O2 2.872518 1_455
Ba1 O1 2.899347 1_455
Ba1 O0 2.899347 1_565
Ba1 N5 3.148550 1_455
Ba1 N4 3.148550 1_565
Ba1 O5 3.191028 1_565
Ba1 O5 3.191028 1_455
Ba1 N1 3.384780 1_465
Ba1 O6 3.401140 1_565
Ba1 O6 3.401140 1_455
Al0 O6 1.722105 1_555
Al0 O4 1.754665 1_555
Al0 O1 1.788359 1_555
Al0 O0 1.788359 1_555
Al1 O7 1.722105 1_555
Al1 O5 1.754665 1_555
Al1 O2 1.788359 1_555
Al1 O3 1.788359 1_555
Al2 O6 1.738765 1_555
Al2 N3 1.850420 1_555
Al2 N4 1.862961 1_565
Al2 N5 1.862961 1_455
Al3 O7 1.738765 1_555
Al3 N2 1.850420 1_554
Al3 N7 1.862961 1_655
Al3 N6 1.862961 1_545
N0 Si3 1.772305 1_455
N0 Si2 1.772305 1_565
N0 Si0 1.785625 1_555
N1 Si4 1.772305 1_545
N1 Si5 1.772305 1_655
N1 Si1 1.785625 1_555
N2 Si2 1.709392 1_555
N2 Si3 1.709392 1_555
N3 Si5 1.709392 1_555
N3 Si4 1.709392 1_555
N4 Si2 1.729079 1_555
N4 Si1 1.733117 1_555
N5 Si3 1.729079 1_555
N5 Si1 1.733117 1_555
N6 Si4 1.729079 1_555
N6 Si0 1.733117 1_554
N7 Si5 1.729079 1_555
N7 Si0 1.733117 1_554
O0 Si2 1.685084 1_555
O1 Si3 1.685084 1_555
O2 Si4 1.685084 1_555
O3 Si5 1.685084 1_555
O4 Si0 1.651819 1_555
O5 Si1 1.651819 1_555
