# generated using pymatgen
data_AlAu4
_symmetry_space_group_name_H-M   'P 1'
_cell_length_a   5.93881179
_cell_length_b   5.93881179
_cell_length_c   21.83590153
_cell_angle_alpha   85.85175533
_cell_angle_beta   85.85175533
_cell_angle_gamma   70.51505966
_symmetry_Int_Tables_number   1
_chemical_formula_structural   AlAu4
_chemical_formula_sum   'Al8 Au32'
_cell_volume   723.17995606
_cell_formula_units_Z   8
loop_
 _symmetry_equiv_pos_site_id
 _symmetry_equiv_pos_as_xyz
  1  'x, y, z'
loop_
 _atom_site_type_symbol
 _atom_site_label
 _atom_site_symmetry_multiplicity
 _atom_site_fract_x
 _atom_site_fract_y
 _atom_site_fract_z
 _atom_site_occupancy
  Al  Al0_0  1  0.00000000  0.00000000  0.00000000  1
  Al  Al0_1  1  0.00000000  0.00000000  0.50000000  1
  Al  Al0_2  1  0.00000000  0.50000000  0.00000000  1
  Al  Al0_3  1  0.00000000  0.50000000  0.50000000  1
  Al  Al0_4  1  0.50000000  0.00000000  0.00000000  1
  Al  Al0_5  1  0.50000000  0.00000000  0.50000000  1
  Al  Al0_6  1  0.50000000  0.50000000  0.00000000  1
  Al  Al0_7  1  0.50000000  0.50000000  0.50000000  1
  Au  Au0_0  1  0.19347200  0.19347200  0.41097350  1
  Au  Au0_1  1  0.19347200  0.19347200  0.91097350  1
  Au  Au0_2  1  0.19347200  0.69347200  0.41097350  1
  Au  Au0_3  1  0.19347200  0.69347200  0.91097350  1
  Au  Au0_4  1  0.69347200  0.19347200  0.41097350  1
  Au  Au0_5  1  0.69347200  0.19347200  0.91097350  1
  Au  Au0_6  1  0.69347200  0.69347200  0.41097350  1
  Au  Au0_7  1  0.69347200  0.69347200  0.91097350  1
  Au  Au1_0  1  0.40064500  0.40064500  0.30297450  1
  Au  Au1_1  1  0.40064500  0.40064500  0.80297450  1
  Au  Au1_2  1  0.40064500  0.90064500  0.30297450  1
  Au  Au1_3  1  0.40064500  0.90064500  0.80297450  1
  Au  Au1_4  1  0.90064500  0.40064500  0.30297450  1
  Au  Au1_5  1  0.90064500  0.40064500  0.80297450  1
  Au  Au1_6  1  0.90064500  0.90064500  0.30297450  1
  Au  Au1_7  1  0.90064500  0.90064500  0.80297450  1
  Au  Au2_0  1  0.09935500  0.09935500  0.19702550  1
  Au  Au2_1  1  0.09935500  0.09935500  0.69702550  1
  Au  Au2_2  1  0.09935500  0.59935500  0.19702550  1
  Au  Au2_3  1  0.09935500  0.59935500  0.69702550  1
  Au  Au2_4  1  0.59935500  0.09935500  0.19702550  1
  Au  Au2_5  1  0.59935500  0.09935500  0.69702550  1
  Au  Au2_6  1  0.59935500  0.59935500  0.19702550  1
  Au  Au2_7  1  0.59935500  0.59935500  0.69702550  1
  Au  Au3_0  1  0.30652800  0.30652800  0.08902650  1
  Au  Au3_1  1  0.30652800  0.30652800  0.58902650  1
  Au  Au3_2  1  0.30652800  0.80652800  0.08902650  1
  Au  Au3_3  1  0.30652800  0.80652800  0.58902650  1
  Au  Au3_4  1  0.80652800  0.30652800  0.08902650  1
  Au  Au3_5  1  0.80652800  0.30652800  0.58902650  1
  Au  Au3_6  1  0.80652800  0.80652800  0.08902650  1
  Au  Au3_7  1  0.80652800  0.80652800  0.58902650  1
loop_
_geom_bond_atom_site_label_1
_geom_bond_atom_site_label_2
_geom_bond_distance
_geom_bond_site_symmetry_2
Al0_0 Au0_1 2.579503 1_554
Al0_0 Au3_6 2.579503 1_445
Al0_0 Au3_4 2.684508 1_455
Al0_0 Au3_2 2.684508 1_545
Al0_0 Au0_3 2.684508 1_544
Al0_0 Au0_5 2.684508 1_454
Al0_1 Au0_0 2.579503 1_555
Al0_1 Au3_7 2.579503 1_445
Al0_1 Au3_5 2.684508 1_455
Al0_1 Au3_3 2.684508 1_545
Al0_1 Au0_4 2.684508 1_455
Al0_1 Au0_2 2.684508 1_545
Al0_2 Au0_3 2.579503 1_554
Al0_2 Au3_4 2.579503 1_455
Al0_2 Au3_0 2.684508 1_555
Al0_2 Au3_6 2.684508 1_455
Al0_2 Au0_7 2.684508 1_454
Al0_2 Au0_1 2.684508 1_554
Al0_3 Au0_2 2.579503 1_555
Al0_3 Au3_5 2.579503 1_455
Al0_3 Au3_1 2.684508 1_555
Al0_3 Au0_0 2.684508 1_555
Al0_3 Au3_7 2.684508 1_455
Al0_3 Au0_6 2.684508 1_455
Al0_4 Au0_5 2.579503 1_554
Al0_4 Au3_2 2.579503 1_545
Al0_4 Au3_6 2.684508 1_545
Al0_4 Au3_0 2.684508 1_555
Al0_4 Au0_7 2.684508 1_544
Al0_4 Au0_1 2.684508 1_554
Al0_5 Au0_4 2.579503 1_555
Al0_5 Au3_3 2.579503 1_545
Al0_5 Au3_1 2.684508 1_555
Al0_5 Au0_0 2.684508 1_555
Al0_5 Au3_7 2.684508 1_545
Al0_5 Au0_6 2.684508 1_545
Al0_6 Au0_7 2.579503 1_554
Al0_6 Au3_0 2.579503 1_555
Al0_6 Au3_2 2.684508 1_555
Al0_6 Au3_4 2.684508 1_555
Al0_6 Au0_3 2.684508 1_554
Al0_6 Au0_5 2.684508 1_554
Al0_7 Au0_6 2.579503 1_555
Al0_7 Au3_1 2.579503 1_555
Al0_7 Au3_3 2.684508 1_555
Al0_7 Au3_5 2.684508 1_555
Al0_7 Au0_4 2.684508 1_555
Al0_7 Au0_2 2.684508 1_555
Au0_0 Au1_0 2.959607 1_555
Au0_0 Au1_2 2.974153 1_545
Au0_0 Au1_4 2.974153 1_455
Au0_1 Au1_1 2.959607 1_555
Au0_1 Au1_5 2.974153 1_455
Au0_1 Au1_3 2.974153 1_545
Au0_2 Au1_2 2.959607 1_555
Au0_2 Au1_6 2.974153 1_455
Au0_2 Au1_0 2.974153 1_555
Au0_3 Au1_3 2.959607 1_555
Au0_3 Au1_1 2.974153 1_555
Au0_3 Au1_7 2.974153 1_455
Au0_4 Au1_4 2.959607 1_555
Au0_4 Au1_6 2.974153 1_545
Au0_4 Au1_0 2.974153 1_555
Au0_5 Au1_5 2.959607 1_555
Au0_5 Au1_7 2.974153 1_545
Au0_5 Au1_1 2.974153 1_555
Au0_6 Au1_6 2.959607 1_555
Au0_6 Au1_4 2.974153 1_555
Au0_6 Au1_2 2.974153 1_555
Au0_7 Au1_7 2.959607 1_555
Au0_7 Au1_5 2.974153 1_555
Au0_7 Au1_3 2.974153 1_555
Au1_0 Au2_6 2.876910 1_555
Au1_0 Au2_4 2.956643 1_555
Au1_0 Au2_2 2.956643 1_555
Au1_0 Au1_2 2.969406 1_555
Au1_0 Au1_2 2.969406 1_545
Au1_0 Au1_4 2.969406 1_455
Au1_0 Au1_4 2.969406 1_555
Au1_1 Au2_7 2.876910 1_555
Au1_1 Au2_3 2.956643 1_555
Au1_1 Au2_5 2.956643 1_555
Au1_1 Au1_5 2.969406 1_555
Au1_1 Au1_3 2.969406 1_555
Au1_1 Au1_5 2.969406 1_455
Au1_1 Au1_3 2.969406 1_545
Au1_2 Au2_4 2.876910 1_565
Au1_2 Au2_0 2.956643 1_565
Au1_2 Au2_6 2.956643 1_555
Au1_2 Au1_6 2.969406 1_455
Au1_2 Au1_6 2.969406 1_555
Au1_3 Au2_5 2.876910 1_565
Au1_3 Au2_1 2.956643 1_565
Au1_3 Au2_7 2.956643 1_555
Au1_3 Au1_7 2.969406 1_455
Au1_3 Au1_7 2.969406 1_555
Au1_4 Au2_2 2.876910 1_655
Au1_4 Au2_6 2.956643 1_555
Au1_4 Au2_0 2.956643 1_655
Au1_4 Au1_6 2.969406 1_555
Au1_4 Au1_6 2.969406 1_545
Au1_5 Au2_3 2.876910 1_655
Au1_5 Au2_7 2.956643 1_555
Au1_5 Au2_1 2.956643 1_655
Au1_5 Au1_7 2.969406 1_555
Au1_5 Au1_7 2.969406 1_545
Au1_6 Au2_0 2.876910 1_665
Au1_6 Au2_2 2.956643 1_655
Au1_6 Au2_4 2.956643 1_565
Au1_7 Au2_1 2.876910 1_665
Au1_7 Au2_3 2.956643 1_655
Au1_7 Au2_5 2.956643 1_565
Au2_0 Au3_0 2.959607 1_555
Au2_0 Au2_4 2.969406 1_555
Au2_0 Au2_2 2.969406 1_555
Au2_0 Au2_2 2.969406 1_545
Au2_0 Au2_4 2.969406 1_455
Au2_0 Au3_2 2.974153 1_545
Au2_0 Au3_4 2.974153 1_455
Au2_1 Au3_1 2.959607 1_555
Au2_1 Au2_5 2.969406 1_455
Au2_1 Au2_3 2.969406 1_555
Au2_1 Au2_5 2.969406 1_555
Au2_1 Au2_3 2.969406 1_545
Au2_1 Au3_5 2.974153 1_455
Au2_1 Au3_3 2.974153 1_545
Au2_2 Au3_2 2.959607 1_555
Au2_2 Au2_6 2.969406 1_555
Au2_2 Au2_6 2.969406 1_455
Au2_2 Au3_0 2.974153 1_555
Au2_2 Au3_6 2.974153 1_455
Au2_3 Au3_3 2.959607 1_555
Au2_3 Au2_7 2.969406 1_455
Au2_3 Au2_7 2.969406 1_555
Au2_3 Au3_7 2.974153 1_455
Au2_3 Au3_1 2.974153 1_555
Au2_4 Au3_4 2.959607 1_555
Au2_4 Au2_6 2.969406 1_555
Au2_4 Au2_6 2.969406 1_545
Au2_4 Au3_6 2.974153 1_545
Au2_4 Au3_0 2.974153 1_555
Au2_5 Au3_5 2.959607 1_555
Au2_5 Au2_7 2.969406 1_545
Au2_5 Au2_7 2.969406 1_555
Au2_5 Au3_7 2.974153 1_545
Au2_5 Au3_1 2.974153 1_555
Au2_6 Au3_6 2.959607 1_555
Au2_6 Au3_2 2.974153 1_555
Au2_6 Au3_4 2.974153 1_555
Au2_7 Au3_7 2.959607 1_555
Au2_7 Au3_5 2.974153 1_555
Au2_7 Au3_3 2.974153 1_555
