# generated using pymatgen
data_MgSi2
_symmetry_space_group_name_H-M   'P 1'
_cell_length_a   5.63238016
_cell_length_b   3.77415774
_cell_length_c   11.74132558
_cell_angle_alpha   81.48784435
_cell_angle_beta   104.04435274
_cell_angle_gamma   110.63614494
_symmetry_Int_Tables_number   1
_chemical_formula_structural   MgSi2
_chemical_formula_sum   'Mg4 Si8'
_cell_volume   226.05718844
_cell_formula_units_Z   4
loop_
 _symmetry_equiv_pos_site_id
 _symmetry_equiv_pos_as_xyz
  1  'x, y, z'
loop_
 _atom_site_type_symbol
 _atom_site_label
 _atom_site_symmetry_multiplicity
 _atom_site_fract_x
 _atom_site_fract_y
 _atom_site_fract_z
 _atom_site_occupancy
  Mg  Mg0  1  0.76425900  0.62550100  0.13863800  1
  Mg  Mg1  1  0.25577400  0.32776000  0.87099500  1
  Mg  Mg2  1  0.80139000  0.69709000  0.65934600  1
  Mg  Mg3  1  0.14064100  0.21779400  0.31975600  1
  Si  Si0  1  0.64453500  0.05521600  0.81754700  1
  Si  Si1  1  0.40645300  0.92149100  0.18458900  1
  Si  Si2  1  0.56292600  0.88786800  0.40127000  1
  Si  Si3  1  0.29846000  0.12053700  0.65900500  1
  Si  Si4  1  0.16368500  0.34303300  0.08962500  1
  Si  Si5  1  0.86371200  0.61074000  0.92345200  1
  Si  Si6  1  0.26009100  0.66577000  0.53050500  1
  Si  Si7  1  0.83814500  0.52712000  0.40540300  1
loop_
_geom_bond_atom_site_label_1
_geom_bond_atom_site_label_2
_geom_bond_distance
_geom_bond_site_symmetry_2
Mg0 Si5 2.729651 1_554
Mg0 Si1 2.782333 1_545
Mg0 Si1 2.809534 1_555
Mg0 Si4 2.932367 1_665
Mg0 Si4 3.004904 1_655
Mg0 Si7 3.041967 1_555
Mg0 Si4 3.099201 1_555
Mg1 Si4 2.751902 1_556
Mg1 Si3 2.804296 1_555
Mg1 Si5 2.921208 1_445
Mg1 Si0 2.940362 1_565
Mg1 Si0 2.948229 1_555
Mg1 Si5 2.985557 1_455
Mg1 Si5 3.136586 1_555
Mg1 Si0 3.154469 1_455
Mg2 Si3 2.691117 1_665
Mg2 Si0 2.838173 1_555
Mg2 Si3 2.900255 1_555
Mg2 Si0 2.905007 1_565
Mg2 Si5 3.016373 1_555
Mg2 Si6 3.026229 1_555
Mg2 Si2 3.092688 1_555
Mg2 Si7 3.209967 1_555
Mg3 Si4 2.700033 1_555
Mg3 Si7 2.762989 1_445
Mg3 Si7 2.803238 1_455
Mg3 Si2 2.888025 1_555
Mg3 Si2 2.958640 1_545
Mg3 Si1 2.978167 1_545
Mg3 Si1 2.986048 1_555
Mg3 Si6 3.010477 1_555
Mg3 Si6 3.093564 1_545
Si0 Si5 2.380848 1_555
Si0 Si3 2.401503 1_555
Si0 Si5 2.445689 1_545
Si1 Si4 2.399112 1_555
Si1 Si4 2.431532 1_565
Si1 Si2 2.482016 1_555
Si2 Si7 2.363920 1_565
Si2 Si7 2.385497 1_555
Si2 Si6 2.405473 1_555
Si3 Si6 2.369784 1_545
Si3 Si6 2.407005 1_555
Si4 Si5 2.588814 1_454
Si6 Si7 2.395020 1_455
