# generated using pymatgen
data_LiY(CN2)2
_symmetry_space_group_name_H-M   'P 1'
_cell_length_a   6.22206600
_cell_length_b   7.09364600
_cell_length_c   9.86364200
_cell_angle_alpha   90.00000000
_cell_angle_beta   90.00000000
_cell_angle_gamma   90.00000000
_symmetry_Int_Tables_number   1
_chemical_formula_structural   LiY(CN2)2
_chemical_formula_sum   'Li4 Y4 C8 N16'
_cell_volume   435.35288466
_cell_formula_units_Z   4
loop_
 _symmetry_equiv_pos_site_id
 _symmetry_equiv_pos_as_xyz
  1  'x, y, z'
loop_
 _atom_site_type_symbol
 _atom_site_label
 _atom_site_symmetry_multiplicity
 _atom_site_fract_x
 _atom_site_fract_y
 _atom_site_fract_z
 _atom_site_occupancy
  Li  Li0  1  0.25000000  0.61329400  0.00000000  1
  Li  Li1  1  0.75000000  0.88670600  0.50000000  1
  Li  Li2  1  0.75000000  0.38670600  0.00000000  1
  Li  Li3  1  0.25000000  0.11329400  0.50000000  1
  Y  Y0  1  0.25000000  0.13918600  0.00000000  1
  Y  Y1  1  0.75000000  0.36081400  0.50000000  1
  Y  Y2  1  0.75000000  0.86081400  0.00000000  1
  Y  Y3  1  0.25000000  0.63918600  0.50000000  1
  C  C0  1  0.91779600  0.11362200  0.25007000  1
  C  C1  1  0.41779600  0.38637800  0.24993000  1
  C  C2  1  0.08220400  0.38637800  0.75007000  1
  C  C3  1  0.58220400  0.11362200  0.74993000  1
  C  C4  1  0.08220400  0.88637800  0.74993000  1
  C  C5  1  0.58220400  0.61362200  0.75007000  1
  C  C6  1  0.91779600  0.61362200  0.24993000  1
  C  C7  1  0.41779600  0.88637800  0.25007000  1
  N  N0  1  0.92768900  0.10600000  0.12425300  1
  N  N1  1  0.42768900  0.39400000  0.37574700  1
  N  N2  1  0.07231100  0.39400000  0.62425300  1
  N  N3  1  0.57231100  0.10600000  0.87574700  1
  N  N4  1  0.07231100  0.89400000  0.87574700  1
  N  N5  1  0.57231100  0.60600000  0.62425300  1
  N  N6  1  0.92768900  0.60600000  0.37574700  1
  N  N7  1  0.42768900  0.89400000  0.12425300  1
  N  N8  1  0.40812400  0.37958800  0.12619600  1
  N  N9  1  0.90812400  0.12041200  0.37380400  1
  N  N10  1  0.59187600  0.12041200  0.62619600  1
  N  N11  1  0.09187600  0.37958800  0.87380400  1
  N  N12  1  0.59187600  0.62041200  0.87380400  1
  N  N13  1  0.09187600  0.87958800  0.62619600  1
  N  N14  1  0.40812400  0.87958800  0.37380400  1
  N  N15  1  0.90812400  0.62041200  0.12619600  1
loop_
_geom_bond_atom_site_label_1
_geom_bond_atom_site_label_2
_geom_bond_distance
_geom_bond_site_symmetry_2
Li0 N8 2.294728 1_555
Li0 N11 2.294728 1_554
Li0 N12 2.465123 1_554
Li0 N15 2.465123 1_455
Li0 N7 2.586386 1_555
Li0 N4 2.586386 1_554
Li1 N10 2.294728 1_565
Li1 N9 2.294728 1_565
Li1 N13 2.465123 1_655
Li1 N14 2.465123 1_555
Li1 N5 2.586386 1_555
Li1 N6 2.586386 1_555
Li2 N15 2.294728 1_555
Li2 N12 2.294728 1_554
Li2 N8 2.465123 1_555
Li2 N11 2.465123 1_654
Li2 N0 2.586386 1_555
Li2 N3 2.586386 1_554
Li3 N13 2.294728 1_545
Li3 N14 2.294728 1_545
Li3 N10 2.465123 1_555
Li3 N9 2.465123 1_455
Li3 N2 2.586386 1_555
Li3 N1 2.586386 1_555
C0 N9 1.222900 1_555
C0 N0 1.243715 1_555
C1 N8 1.222900 1_555
C1 N1 1.243715 1_555
C2 N11 1.222900 1_555
C2 N2 1.243715 1_555
C3 N10 1.222900 1_555
C3 N3 1.243715 1_555
C4 N13 1.222900 1_555
C4 N4 1.243715 1_555
C5 N12 1.222900 1_555
C5 N5 1.243715 1_555
C6 N15 1.222900 1_555
C6 N6 1.243715 1_555
C7 N14 1.222900 1_555
C7 N7 1.243715 1_555
N0 Y0 2.362048 1_655
N0 Y2 2.397798 1_545
N1 Y1 2.362048 1_555
N1 Y3 2.397798 1_555
N2 Y1 2.362048 1_455
N2 Y3 2.397798 1_555
N3 Y0 2.362048 1_556
N3 Y2 2.397798 1_546
N4 Y2 2.362048 1_456
N4 Y0 2.397798 1_566
N5 Y3 2.362048 1_555
N5 Y1 2.397798 1_555
N6 Y3 2.362048 1_655
N6 Y1 2.397798 1_555
N7 Y2 2.362048 1_555
N7 Y0 2.397798 1_565
N8 Y0 2.329275 1_555
N9 Y1 2.329275 1_555
N10 Y1 2.329275 1_555
N11 Y0 2.329275 1_556
N12 Y2 2.329275 1_556
N13 Y3 2.329275 1_555
N14 Y3 2.329275 1_555
N15 Y2 2.329275 1_555
