# generated using pymatgen
data_CsMg6SiO8
_symmetry_space_group_name_H-M   'P 1'
_cell_length_a   8.36524844
_cell_length_b   4.89826292
_cell_length_c   4.89826292
_cell_angle_alpha   90.00000000
_cell_angle_beta   90.00000000
_cell_angle_gamma   90.00000000
_symmetry_Int_Tables_number   1
_chemical_formula_structural   CsMg6SiO8
_chemical_formula_sum   'Cs1 Mg6 Si1 O8'
_cell_volume   200.70723545
_cell_formula_units_Z   1
loop_
 _symmetry_equiv_pos_site_id
 _symmetry_equiv_pos_as_xyz
  1  'x, y, z'
loop_
 _atom_site_type_symbol
 _atom_site_label
 _atom_site_symmetry_multiplicity
 _atom_site_fract_x
 _atom_site_fract_y
 _atom_site_fract_z
 _atom_site_occupancy
  Cs  Cs0  1  0.50000000  0.00000000  -0.00000000  1
  Mg  Mg0  1  0.00000000  0.50000000  0.50000000  1
  Mg  Mg1  1  0.50000000  0.50000000  0.50000000  1
  Mg  Mg2  1  0.24721107  -0.00000000  0.50000000  1
  Mg  Mg3  1  0.75278893  0.00000000  0.50000000  1
  Mg  Mg4  1  0.24721107  0.50000000  -0.00000000  1
  Mg  Mg5  1  0.75278893  0.50000000  0.00000000  1
  Si  Si0  1  0.00000000  0.00000000  -0.00000000  1
  O  O0  1  0.19508130  -0.00000000  0.00000000  1
  O  O1  1  0.80491870  0.00000000  -0.00000000  1
  O  O2  1  0.24825767  0.50000000  0.50000000  1
  O  O3  1  0.75174233  0.50000000  0.50000000  1
  O  O4  1  0.00000000  0.00000000  0.50000000  1
  O  O5  1  0.50000000  0.00000000  0.50000000  1
  O  O6  1  0.00000000  0.50000000  -0.00000000  1
  O  O7  1  0.50000000  0.50000000  -0.00000000  1
loop_
_geom_bond_atom_site_label_1
_geom_bond_atom_site_label_2
_geom_bond_distance
_geom_bond_site_symmetry_2
Cs0 O7 2.449131 1_555
Cs0 O5 2.449131 1_554
Cs0 O5 2.449131 1_555
Cs0 O7 2.449131 1_545
Cs0 O0 2.550721 1_555
Cs0 O1 2.550721 1_555
Mg0 O2 2.076737 1_555
Mg0 O3 2.076737 1_455
Mg0 O6 2.449131 1_555
Mg0 O4 2.449131 1_555
Mg0 O4 2.449131 1_565
Mg0 O6 2.449131 1_556
Mg1 O2 2.105887 1_555
Mg1 O3 2.105887 1_555
Mg1 O7 2.449131 1_555
Mg1 O7 2.449131 1_556
Mg1 O5 2.449131 1_555
Mg1 O5 2.449131 1_565
Mg2 O4 2.067982 1_555
Mg2 O5 2.114642 1_555
Mg2 O2 2.449147 1_555
Mg2 O2 2.449147 1_545
Mg2 O0 2.487651 1_555
Mg2 O0 2.487651 1_556
Mg3 O4 2.067982 1_655
Mg3 O5 2.114642 1_555
Mg3 O3 2.449147 1_555
Mg3 O3 2.449147 1_545
Mg3 O1 2.487651 1_555
Mg3 O1 2.487651 1_556
Mg4 O6 2.067982 1_555
Mg4 O7 2.114642 1_555
Mg4 O2 2.449147 1_555
Mg4 O2 2.449147 1_554
Mg4 O0 2.487651 1_555
Mg4 O0 2.487651 1_565
Mg5 O6 2.067982 1_655
Mg5 O7 2.114642 1_555
Mg5 O3 2.449147 1_555
Mg5 O3 2.449147 1_554
Mg5 O1 2.487651 1_555
Mg5 O1 2.487651 1_565
O0 Si0 1.631904 1_555
O1 Si0 1.631904 1_655
O4 Si0 2.449131 1_555
O4 Si0 2.449131 1_556
O6 Si0 2.449131 1_565
O6 Si0 2.449131 1_555
