# generated using pymatgen
data_MgZnCu
_symmetry_space_group_name_H-M   'P 1'
_cell_length_a   5.00854795
_cell_length_b   5.00854795
_cell_length_c   5.00854795
_cell_angle_alpha   120.17810283
_cell_angle_beta   119.37120362
_cell_angle_gamma   90.39216803
_symmetry_Int_Tables_number   1
_chemical_formula_structural   MgZnCu
_chemical_formula_sum   'Mg2 Zn2 Cu2'
_cell_volume   89.13731420
_cell_formula_units_Z   2
loop_
 _symmetry_equiv_pos_site_id
 _symmetry_equiv_pos_as_xyz
  1  'x, y, z'
loop_
 _atom_site_type_symbol
 _atom_site_label
 _atom_site_symmetry_multiplicity
 _atom_site_fract_x
 _atom_site_fract_y
 _atom_site_fract_z
 _atom_site_occupancy
  Mg  Mg0  1  0.12315374  0.87315374  0.25000000  1
  Mg  Mg1  1  0.87684626  0.12684626  0.75000000  1
  Zn  Zn0  1  0.50000000  0.50000000  0.50000000  1
  Zn  Zn1  1  0.50000000  -0.00000000  0.00000000  1
  Cu  Cu0  1  0.50000000  0.50000000  0.00000000  1
  Cu  Cu1  1  -0.00000000  0.50000000  0.50000000  1
loop_
_geom_bond_atom_site_label_1
_geom_bond_atom_site_label_2
_geom_bond_distance
_geom_bond_site_symmetry_2
Mg0 Zn1 2.938639 1_565
Mg0 Zn0 2.938639 1_565
Mg0 Zn0 2.950613 1_555
Mg0 Zn1 2.950613 1_465
Mg0 Zn1 2.950613 1_566
Mg0 Zn0 2.950613 1_454
Mg0 Mg1 3.043118 1_454
Mg0 Mg1 3.043118 1_465
Mg0 Mg1 3.098044 1_565
Mg0 Mg1 3.098044 1_464
Mg1 Zn0 2.938639 1_545
Mg1 Zn1 2.938639 1_556
Mg1 Zn0 2.950613 1_656
Mg1 Zn0 2.950613 1_555
Mg1 Zn1 2.950613 1_656
Mg1 Zn1 2.950613 1_555
Zn0 Zn1 2.497529 1_555
Zn0 Zn1 2.497529 1_566
Cu0 Zn0 2.504274 1_555
Cu0 Zn0 2.504274 1_554
Cu0 Zn1 2.504274 1_565
Cu0 Zn1 2.504274 1_555
Cu0 Cu1 2.528037 1_554
Cu0 Cu1 2.528037 1_655
Cu0 Mg1 2.921633 1_454
Cu0 Mg0 2.921633 1_655
Cu0 Mg1 2.938898 1_565
Cu0 Mg0 2.938898 1_544
Cu0 Mg0 2.938898 1_555
Cu0 Mg1 2.938898 1_554
Cu1 Zn0 2.504274 1_455
Cu1 Zn0 2.504274 1_555
Cu1 Zn1 2.504274 1_455
Cu1 Zn1 2.504274 1_566
Cu1 Mg1 2.921633 1_455
Cu1 Mg0 2.921633 1_555
Cu1 Mg1 2.938898 1_465
Cu1 Mg0 2.938898 1_556
Cu1 Mg1 2.938898 1_454
Cu1 Mg0 2.938898 1_545
