# generated using pymatgen
data_Ca9Si6(WO7)4
_symmetry_space_group_name_H-M   'P 1'
_cell_length_a   7.51732500
_cell_length_b   10.13594455
_cell_length_c   10.35900740
_cell_angle_alpha   86.83940677
_cell_angle_beta   107.83409146
_cell_angle_gamma   107.02779928
_symmetry_Int_Tables_number   1
_chemical_formula_structural   Ca9Si6(WO7)4
_chemical_formula_sum   'Ca9 Si6 W4 O28'
_cell_volume   717.92217743
_cell_formula_units_Z   1
loop_
 _symmetry_equiv_pos_site_id
 _symmetry_equiv_pos_as_xyz
  1  'x, y, z'
loop_
 _atom_site_type_symbol
 _atom_site_label
 _atom_site_symmetry_multiplicity
 _atom_site_fract_x
 _atom_site_fract_y
 _atom_site_fract_z
 _atom_site_occupancy
  Ca  Ca0  1  0.79263800  0.84964900  0.46029200  1
  Ca  Ca1  1  0.20736200  0.15035100  0.53970800  1
  Ca  Ca2  1  0.66171400  0.11276300  0.91975600  1
  Ca  Ca3  1  0.33828600  0.88723700  0.08024400  1
  Ca  Ca4  1  0.88805400  0.83788500  0.08877500  1
  Ca  Ca5  1  0.11194600  0.16211500  0.91122500  1
  Ca  Ca6  1  0.29907700  0.83843100  0.44524100  1
  Ca  Ca7  1  0.70092300  0.16156900  0.55475900  1
  Ca  Ca8  1  0.00000000  0.50000000  0.00000000  1
  Si  Si0  1  0.41462700  0.66348900  0.85357300  1
  Si  Si1  1  0.58537300  0.33651100  0.14642700  1
  Si  Si2  1  0.74100900  0.85607800  0.74809200  1
  Si  Si3  1  0.25899100  0.14392200  0.25190800  1
  Si  Si4  1  0.15843600  0.86940300  0.74189900  1
  Si  Si5  1  0.84156400  0.13059700  0.25810100  1
  W  W0  1  0.88823000  0.57732300  0.38738700  1
  W  W1  1  0.11177000  0.42267700  0.61261300  1
  W  W2  1  0.49442400  0.35935500  0.78411100  1
  W  W3  1  0.50557600  0.64064500  0.21588900  1
  O  O0  1  0.91822100  0.80656700  0.72012100  1
  O  O1  1  0.08177900  0.19343300  0.27987900  1
  O  O2  1  0.82566700  0.97019100  0.87207600  1
  O  O3  1  0.17433300  0.02980900  0.12792400  1
  O  O4  1  0.84746500  0.39212400  0.49485200  1
  O  O5  1  0.15253500  0.60787600  0.50514800  1
  O  O6  1  0.60515300  0.71543900  0.79950600  1
  O  O7  1  0.39484700  0.28456100  0.20049400  1
  O  O8  1  0.27837600  0.98512600  0.86428500  1
  O  O9  1  0.72162400  0.01487400  0.13571500  1
  O  O10  1  0.62524500  0.90748600  0.60320100  1
  O  O11  1  0.37475500  0.09251400  0.39679900  1
  O  O12  1  0.06667200  0.71757600  0.04644800  1
  O  O13  1  0.93332800  0.28242400  0.95355200  1
  O  O14  1  0.32655400  0.49551100  0.81822200  1
  O  O15  1  0.67344600  0.50448900  0.18177800  1
  O  O16  1  0.24202800  0.73238200  0.77563400  1
  O  O17  1  0.75797200  0.26761800  0.22436600  1
  O  O18  1  0.45418100  0.79275300  0.29210500  1
  O  O19  1  0.54581900  0.20724700  0.70789500  1
  O  O20  1  0.95145900  0.76786400  0.31708700  1
  O  O21  1  0.04854100  0.23213600  0.68291300  1
  O  O22  1  0.64443500  0.59748800  0.40590900  1
  O  O23  1  0.35556500  0.40251200  0.59409100  1
  O  O24  1  0.48457500  0.70259500  0.01723500  1
  O  O25  1  0.51542500  0.29740500  0.98276500  1
  O  O26  1  0.15755500  0.92193900  0.59007700  1
  O  O27  1  0.84244500  0.07806100  0.40992300  1
loop_
_geom_bond_atom_site_label_1
_geom_bond_atom_site_label_2
_geom_bond_distance
_geom_bond_site_symmetry_2
Ca0 O27 2.291556 1_565
Ca0 O10 2.405713 1_555
Ca0 O20 2.472522 1_555
Ca0 O22 2.489534 1_555
Ca0 O18 2.525409 1_555
Ca0 O26 2.557723 1_655
Ca0 O0 2.623337 1_555
Ca1 O26 2.291556 1_545
Ca1 O11 2.405713 1_555
Ca1 O21 2.472522 1_555
Ca1 O23 2.489534 1_555
Ca1 O19 2.525409 1_555
Ca1 O27 2.557723 1_455
Ca1 O1 2.623337 1_555
Ca2 O13 2.195664 1_555
Ca2 O2 2.312142 1_545
Ca2 O19 2.361881 1_555
Ca2 O9 2.364701 1_556
Ca2 O25 2.630154 1_555
Ca2 O8 2.681836 1_545
Ca3 O12 2.195664 1_555
Ca3 O3 2.312142 1_565
Ca3 O18 2.361881 1_555
Ca3 O8 2.364701 1_554
Ca3 O24 2.630154 1_555
Ca3 O9 2.681836 1_565
Ca4 O12 2.204715 1_655
Ca4 O20 2.376356 1_555
Ca4 O3 2.383408 1_665
Ca4 O2 2.539481 1_554
Ca4 O9 2.608312 1_565
Ca4 O24 2.815766 1_555
Ca5 O13 2.204715 1_455
Ca5 O21 2.376356 1_555
Ca5 O2 2.383408 1_445
Ca5 O3 2.539481 1_556
Ca5 O8 2.608312 1_545
Ca5 O25 2.815766 1_555
Ca6 O18 2.370736 1_555
Ca6 O26 2.396760 1_555
Ca6 O5 2.410566 1_555
Ca6 O10 2.417222 1_555
Ca6 O20 2.446979 1_455
Ca6 O11 2.526316 1_565
Ca7 O19 2.370736 1_555
Ca7 O27 2.396760 1_555
Ca7 O4 2.410566 1_555
Ca7 O11 2.417222 1_555
Ca7 O21 2.446979 1_655
Ca7 O10 2.526316 1_545
Ca8 O12 2.160596 1_555
Ca8 O13 2.160596 1_454
O0 Si2 1.659656 1_555
O0 Si4 1.676333 1_655
O1 Si3 1.659656 1_555
O1 Si5 1.676333 1_455
O2 Si2 1.620011 1_555
O3 Si3 1.620011 1_555
O4 W1 1.930895 1_655
O4 W0 2.120982 1_555
O5 W0 1.930895 1_455
O5 W1 2.120982 1_555
O6 Si0 1.630773 1_555
O6 Si2 1.659984 1_555
O7 Si1 1.630773 1_555
O7 Si3 1.659984 1_555
O8 Si4 1.624964 1_555
O9 Si5 1.624964 1_555
O10 Si2 1.631222 1_555
O11 Si3 1.631222 1_555
O14 Si0 1.652691 1_555
O14 W2 2.229083 1_555
O14 W1 2.248840 1_555
O15 Si1 1.652691 1_555
O15 W3 2.229083 1_555
O15 W0 2.248840 1_555
O16 Si0 1.627803 1_555
O16 Si4 1.664022 1_555
O17 Si1 1.627803 1_555
O17 Si5 1.664022 1_555
O18 W3 1.954370 1_555
O19 W2 1.954370 1_555
O20 W0 2.001380 1_555
O21 W1 2.001380 1_555
O22 W0 1.968863 1_555
O22 W3 2.017313 1_555
O23 W1 1.968863 1_555
O23 W2 2.017313 1_555
O24 Si0 1.647390 1_554
O24 W3 2.090590 1_555
O25 Si1 1.647390 1_556
O25 W2 2.090590 1_555
O26 Si4 1.631074 1_555
O27 Si5 1.631074 1_555
