# generated using pymatgen
data_Nd2ThS5
_symmetry_space_group_name_H-M   'P 1'
_cell_length_a   7.58202264
_cell_length_b   8.24522792
_cell_length_c   12.09700061
_cell_angle_alpha   90.00000000
_cell_angle_beta   90.00000000
_cell_angle_gamma   90.00000000
_symmetry_Int_Tables_number   1
_chemical_formula_structural   Nd2ThS5
_chemical_formula_sum   'Nd8 Th4 S20'
_cell_volume   756.25009923
_cell_formula_units_Z   4
loop_
 _symmetry_equiv_pos_site_id
 _symmetry_equiv_pos_as_xyz
  1  'x, y, z'
loop_
 _atom_site_type_symbol
 _atom_site_label
 _atom_site_symmetry_multiplicity
 _atom_site_fract_x
 _atom_site_fract_y
 _atom_site_fract_z
 _atom_site_occupancy
  Nd  Nd0  1  0.51830841  0.49948767  0.32189459  1
  Nd  Nd1  1  0.98169159  0.00051233  0.82189459  1
  Nd  Nd2  1  0.48169159  -0.00051233  0.67810541  1
  Nd  Nd3  1  0.01830841  0.50051233  0.17810541  1
  Nd  Nd4  1  0.48169159  0.50051233  0.67810541  1
  Nd  Nd5  1  0.01830841  -0.00051233  0.17810541  1
  Nd  Nd6  1  0.51830841  0.00051233  0.32189459  1
  Nd  Nd7  1  0.98169159  0.49948767  0.82189459  1
  Th  Th0  1  0.07515066  0.75000000  0.49132063  1
  Th  Th1  1  0.42484934  0.75000000  0.99132063  1
  Th  Th2  1  0.92484934  0.25000000  0.50867937  1
  Th  Th3  1  0.57515066  0.25000000  0.00867937  1
  S  S0  1  0.83814853  0.95777572  0.60054015  1
  S  S1  1  0.66185147  0.54222428  0.10054015  1
  S  S2  1  0.16185147  0.45777572  0.39945985  1
  S  S3  1  0.33814853  0.04222428  0.89945985  1
  S  S4  1  0.16185147  0.04222428  0.39945985  1
  S  S5  1  0.33814853  0.45777572  0.89945985  1
  S  S6  1  0.83814853  0.54222428  0.60054015  1
  S  S7  1  0.66185147  0.95777572  0.10054015  1
  S  S8  1  0.82805723  0.75000000  0.31327734  1
  S  S9  1  0.67194277  0.75000000  0.81327734  1
  S  S10  1  0.17194277  0.25000000  0.68672266  1
  S  S11  1  0.32805723  0.25000000  0.18672266  1
  S  S12  1  0.45850456  0.75000000  0.49900342  1
  S  S13  1  0.04149544  0.75000000  0.99900342  1
  S  S14  1  0.54149544  0.25000000  0.50099658  1
  S  S15  1  0.95850456  0.25000000  0.00099658  1
  S  S16  1  0.20003068  0.75000000  0.71676411  1
  S  S17  1  0.29996932  0.75000000  0.21676411  1
  S  S18  1  0.79996932  0.25000000  0.28323589  1
  S  S19  1  0.70003068  0.25000000  0.78323589  1
loop_
_geom_bond_atom_site_label_1
_geom_bond_atom_site_label_2
_geom_bond_distance
_geom_bond_site_symmetry_2
Nd0 S2 2.881510 1_555
Nd0 S1 2.911851 1_555
Nd0 S17 2.936720 1_555
Nd0 S14 2.992764 1_555
Nd0 S11 2.997692 1_555
Nd0 S18 3.001817 1_555
Nd0 S12 3.010360 1_555
Nd0 S8 3.129352 1_555
Nd1 S3 2.881510 1_655
Nd1 S0 2.911851 1_545
Nd1 S16 2.936720 1_645
Nd1 S15 2.992764 1_556
Nd1 S10 2.997692 1_655
Nd1 S19 3.001817 1_555
Nd1 S13 3.010360 1_645
Nd1 S9 3.129352 1_545
Nd2 S0 2.881510 1_545
Nd2 S3 2.911851 1_555
Nd2 S19 2.936720 1_555
Nd2 S12 2.992764 1_545
Nd2 S9 2.997692 1_545
Nd2 S16 3.001817 1_545
Nd2 S14 3.010360 1_555
Nd2 S10 3.129352 1_555
Nd3 S1 2.881510 1_455
Nd3 S2 2.911851 1_555
Nd3 S18 2.936720 1_455
Nd3 S13 2.992764 1_554
Nd3 S8 2.997692 1_455
Nd3 S17 3.001817 1_555
Nd3 S15 3.010360 1_455
Nd3 S11 3.129352 1_555
Nd4 S6 2.881510 1_555
Nd4 S5 2.911851 1_555
Nd4 S19 2.936720 1_555
Nd4 S12 2.992764 1_555
Nd4 S9 2.997692 1_555
Nd4 S16 3.001817 1_555
Nd4 S14 3.010360 1_555
Nd4 S10 3.129352 1_555
Nd5 S7 2.881510 1_445
Nd5 S4 2.911851 1_555
Nd5 S18 2.936720 1_455
Nd5 S13 2.992764 1_544
Nd5 S8 2.997692 1_445
Nd5 S17 3.001817 1_545
Nd5 S15 3.010360 1_455
Nd5 S11 3.129352 1_555
Nd6 S4 2.881510 1_555
Nd6 S7 2.911851 1_545
Nd6 S17 2.936720 1_545
Nd6 S14 2.992764 1_555
Nd6 S11 2.997692 1_555
Nd6 S18 3.001817 1_555
Nd6 S12 3.010360 1_545
Nd6 S8 3.129352 1_545
Nd7 S5 2.881510 1_655
Nd7 S6 2.911851 1_555
Nd7 S16 2.936720 1_655
Nd7 S15 2.992764 1_556
Nd7 S10 2.997692 1_655
Nd7 S19 3.001817 1_555
Nd7 S13 3.010360 1_655
Nd7 S9 3.129352 1_555
S0 Th2 2.733581 1_565
S0 Th0 2.812402 1_655
S1 Th3 2.733581 1_555
S1 Th1 2.812402 1_554
S2 Th0 2.733581 1_555
S2 Th2 2.812402 1_455
S3 Th1 2.733581 1_545
S3 Th3 2.812402 1_556
S4 Th0 2.733581 1_545
S4 Th2 2.812402 1_455
S5 Th1 2.733581 1_555
S5 Th3 2.812402 1_556
S6 Th2 2.733581 1_555
S6 Th0 2.812402 1_655
S7 Th3 2.733581 1_565
S7 Th1 2.812402 1_554
S8 Th0 2.854592 1_655
S9 Th1 2.854592 1_555
S10 Th2 2.854592 1_455
S11 Th3 2.854592 1_555
S12 Th0 2.908083 1_555
S13 Th1 2.908083 1_555
S14 Th2 2.908083 1_555
S15 Th3 2.908083 1_555
S16 Th0 2.886880 1_555
S17 Th1 2.886880 1_554
S18 Th2 2.886880 1_555
S19 Th3 2.886880 1_556
