# generated using pymatgen
data_ErIn2Sn
_symmetry_space_group_name_H-M   'P 1'
_cell_length_a   4.52116749
_cell_length_b   4.52116749
_cell_length_c   4.80888981
_cell_angle_alpha   90.00000000
_cell_angle_beta   90.00000000
_cell_angle_gamma   90.00000000
_symmetry_Int_Tables_number   1
_chemical_formula_structural   ErIn2Sn
_chemical_formula_sum   'Er1 In2 Sn1'
_cell_volume   98.29830248
_cell_formula_units_Z   1
loop_
 _symmetry_equiv_pos_site_id
 _symmetry_equiv_pos_as_xyz
  1  'x, y, z'
loop_
 _atom_site_type_symbol
 _atom_site_label
 _atom_site_symmetry_multiplicity
 _atom_site_fract_x
 _atom_site_fract_y
 _atom_site_fract_z
 _atom_site_occupancy
  Er  Er0  1  0.00000000  -0.00000000  0.00000000  1
  In  In0  1  0.50000000  -0.00000000  0.50000000  1
  In  In1  1  0.00000000  0.50000000  0.50000000  1
  Sn  Sn0  1  0.50000000  0.50000000  0.00000000  1
loop_
_geom_bond_atom_site_label_1
_geom_bond_atom_site_label_2
_geom_bond_distance
_geom_bond_site_symmetry_2
Er0 Sn0 3.196948 1_555
Er0 Sn0 3.196948 1_545
Er0 Sn0 3.196948 1_445
Er0 Sn0 3.196948 1_455
Er0 In0 3.300242 1_554
Er0 In0 3.300242 1_455
Er0 In0 3.300242 1_454
Er0 In1 3.300242 1_555
Er0 In0 3.300242 1_555
Er0 In1 3.300242 1_544
Er0 In1 3.300242 1_545
Er0 In1 3.300242 1_554
In0 In1 3.196948 1_645
In0 In1 3.196948 1_545
In0 In1 3.196948 1_555
In0 In1 3.196948 1_655
In0 Sn0 3.300242 1_545
In0 Sn0 3.300242 1_555
In0 Sn0 3.300242 1_556
In0 Sn0 3.300242 1_546
In1 Sn0 3.300242 1_555
In1 Sn0 3.300242 1_456
In1 Sn0 3.300242 1_556
In1 Sn0 3.300242 1_455
