# generated using pymatgen
data_LiFeP2O7
_symmetry_space_group_name_H-M   'P 1'
_cell_length_a   4.81360900
_cell_length_b   8.03543235
_cell_length_c   8.70689039
_cell_angle_alpha   107.54340853
_cell_angle_beta   90.30490937
_cell_angle_gamma   107.04263150
_symmetry_Int_Tables_number   1
_chemical_formula_structural   LiFeP2O7
_chemical_formula_sum   'Li2 Fe2 P4 O14'
_cell_volume   305.38773566
_cell_formula_units_Z   2
loop_
 _symmetry_equiv_pos_site_id
 _symmetry_equiv_pos_as_xyz
  1  'x, y, z'
loop_
 _atom_site_type_symbol
 _atom_site_label
 _atom_site_symmetry_multiplicity
 _atom_site_fract_x
 _atom_site_fract_y
 _atom_site_fract_z
 _atom_site_occupancy
  Li  Li0  1  0.12973200  0.09458300  0.44801700  1
  Li  Li1  1  0.46157000  0.09242800  0.94964900  1
  Fe  Fe0  1  0.62309400  0.51234700  0.05173700  1
  Fe  Fe1  1  0.39026300  0.51472300  0.55340700  1
  P  P0  1  0.22854600  0.70554800  0.29707700  1
  P  P1  1  0.77064100  0.30034400  0.69065500  1
  P  P2  1  0.03482500  0.30306600  0.18854800  1
  P  P3  1  0.97257400  0.70176100  0.79443200  1
  O  O0  1  0.44979300  0.69174500  0.17147200  1
  O  O1  1  0.81905100  0.68059900  0.94415700  1
  O  O2  1  0.28622600  0.31407400  0.07772900  1
  O  O3  1  0.75994900  0.15209800  0.11949600  1
  O  O4  1  0.15194100  0.31687500  0.35925200  1
  O  O5  1  0.33851300  0.68673800  0.45417700  1
  O  O6  1  0.95155900  0.50236700  0.21299900  1
  O  O7  1  0.75495300  0.69158900  0.65973600  1
  O  O8  1  0.52785000  0.31530700  0.58257700  1
  O  O9  1  0.25687100  0.84851200  0.82550300  1
  O  O10  1  0.89350400  0.14867300  0.61869800  1
  O  O11  1  0.05168900  0.49898400  0.71617700  1
  O  O12  1  0.67234400  0.31235000  0.86150800  1
  O  O13  1  0.09377100  0.85380700  0.31632000  1
loop_
_geom_bond_atom_site_label_1
_geom_bond_atom_site_label_2
_geom_bond_distance
_geom_bond_site_symmetry_2
Li0 O13 1.884720 1_545
Li0 O10 1.899662 1_455
Li0 O4 2.126147 1_555
Li0 O8 2.218542 1_555
Li1 O9 1.886854 1_545
Li1 O3 1.904211 1_556
Li1 O12 2.125119 1_555
Li1 O2 2.195874 1_556
Fe0 O1 1.902708 1_554
Fe0 O0 1.915445 1_555
Fe0 O2 1.981385 1_555
Fe0 O12 2.001254 1_554
Fe0 O6 2.143912 1_555
Fe1 O5 1.907489 1_555
Fe1 O7 1.919812 1_555
Fe1 O8 1.984043 1_555
Fe1 O4 1.997837 1_555
Fe1 O11 2.166207 1_555
O0 P0 1.533315 1_555
O1 P3 1.531256 1_555
O2 P2 1.550621 1_555
O3 P2 1.481476 1_655
O4 P2 1.547323 1_555
O5 P0 1.529017 1_555
O6 P2 1.715313 1_655
O6 P0 1.724023 1_655
O7 P3 1.535706 1_555
O8 P1 1.550714 1_555
O9 P3 1.481323 1_455
O10 P1 1.481132 1_555
O11 P1 1.715966 1_455
O11 P3 1.720879 1_455
O12 P1 1.547214 1_555
O13 P0 1.483937 1_555
