# generated using pymatgen
data_EuMnNbSnO6
_symmetry_space_group_name_H-M   'P 1'
_cell_length_a   5.82785007
_cell_length_b   5.84652405
_cell_length_c   7.90994398
_cell_angle_alpha   90.50698688
_cell_angle_beta   89.47396636
_cell_angle_gamma   86.80953663
_symmetry_Int_Tables_number   1
_chemical_formula_structural   EuMnNbSnO6
_chemical_formula_sum   'Eu2 Mn2 Nb2 Sn2 O12'
_cell_volume   269.07197791
_cell_formula_units_Z   2
loop_
 _symmetry_equiv_pos_site_id
 _symmetry_equiv_pos_as_xyz
  1  'x, y, z'
loop_
 _atom_site_type_symbol
 _atom_site_label
 _atom_site_symmetry_multiplicity
 _atom_site_fract_x
 _atom_site_fract_y
 _atom_site_fract_z
 _atom_site_occupancy
  Eu  Eu0  1  0.49953213  0.53095511  0.25071477  1
  Eu  Eu1  1  0.50046787  0.46904489  0.74928523  1
  Mn  Mn0  1  0.00000000  0.50000000  -0.00000000  1
  Mn  Mn1  1  0.50000000  0.00000000  0.50000000  1
  Nb  Nb0  1  0.50000000  0.00000000  -0.00000000  1
  Nb  Nb1  1  0.00000000  0.50000000  0.50000000  1
  Sn  Sn0  1  0.98018991  -0.00200620  0.24980495  1
  Sn  Sn1  1  0.01981009  0.00200620  0.75019505  1
  O  O0  1  0.21626712  0.21054388  0.94953860  1
  O  O1  1  0.27694345  0.68874586  0.54058692  1
  O  O2  1  0.78373288  0.78945612  0.05046140  1
  O  O3  1  0.72305655  0.31125414  0.45941308  1
  O  O4  1  0.31606632  0.72251013  0.95987014  1
  O  O5  1  0.21223157  0.21179045  0.55032873  1
  O  O6  1  0.68393368  0.27748987  0.04012986  1
  O  O7  1  0.78776843  0.78820955  0.44967127  1
  O  O8  1  0.42148045  0.98569061  0.25399183  1
  O  O9  1  0.08689385  0.49376321  0.25114888  1
  O  O10  1  0.57851955  0.01430939  0.74600817  1
  O  O11  1  0.91310615  0.50623679  0.74885112  1
loop_
_geom_bond_atom_site_label_1
_geom_bond_atom_site_label_2
_geom_bond_distance
_geom_bond_site_symmetry_2
Eu0 O6 2.423157 1_555
Eu0 O9 2.426601 1_555
Eu0 O3 2.441868 1_555
Eu0 O8 2.672041 1_555
Eu0 O1 2.750605 1_555
Eu0 O4 2.765417 1_554
Eu0 O2 2.794503 1_555
Eu0 O7 2.801498 1_555
Eu1 O4 2.423157 1_555
Eu1 O11 2.426601 1_555
Eu1 O1 2.441868 1_555
Eu1 O10 2.672041 1_555
Eu1 O3 2.750605 1_555
Eu1 O6 2.765417 1_556
Eu1 O0 2.794503 1_555
Eu1 O5 2.801498 1_555
Mn0 O9 2.054738 1_555
Mn0 O11 2.054738 1_454
Mn0 O0 2.086424 1_554
Mn0 O2 2.086424 1_455
Mn0 O6 2.334383 1_455
Mn0 O4 2.334383 1_554
Mn1 O10 2.005167 1_555
Mn1 O8 2.005167 1_545
Mn1 O7 2.062074 1_545
Mn1 O5 2.062074 1_555
Mn1 O1 2.317414 1_545
Mn1 O3 2.317414 1_555
Nb0 O4 2.018054 1_544
Nb0 O6 2.018054 1_555
Nb0 O0 2.050132 1_554
Nb0 O2 2.050132 1_545
Nb0 O8 2.059873 1_545
Nb0 O10 2.059873 1_554
Nb1 O11 2.027496 1_455
Nb1 O9 2.027496 1_555
Nb1 O3 2.031560 1_455
Nb1 O1 2.031560 1_555
Nb1 O7 2.077624 1_455
Nb1 O5 2.077624 1_555
O0 Sn1 2.331982 1_555
O2 Sn0 2.331982 1_565
O5 Sn1 2.327246 1_555
O7 Sn0 2.327246 1_565
O8 Sn0 2.569302 1_465
O10 Sn1 2.569302 1_655
