# generated using pymatgen
data_Zr2FeCo3
_symmetry_space_group_name_H-M   'P 1'
_cell_length_a   5.00991939
_cell_length_b   5.00991939
_cell_length_c   4.88508088
_cell_angle_alpha   90.00001631
_cell_angle_beta   59.15023253
_cell_angle_gamma   119.99928304
_symmetry_Int_Tables_number   1
_chemical_formula_structural   Zr2FeCo3
_chemical_formula_sum   'Zr2 Fe1 Co3'
_cell_volume   85.57046074
_cell_formula_units_Z   1
loop_
 _symmetry_equiv_pos_site_id
 _symmetry_equiv_pos_as_xyz
  1  'x, y, z'
loop_
 _atom_site_type_symbol
 _atom_site_label
 _atom_site_symmetry_multiplicity
 _atom_site_fract_x
 _atom_site_fract_y
 _atom_site_fract_z
 _atom_site_occupancy
  Zr  Zr0  1  0.49648609  0.74822943  0.75528547  1
  Zr  Zr1  1  0.00351391  0.00177057  0.99471453  1
  Fe  Fe0  1  0.75000000  0.37500000  0.87500000  1
  Co  Co0  1  0.25000000  0.37500000  0.37500000  1
  Co  Co1  1  0.25000000  0.87500000  0.37500000  1
  Co  Co2  1  0.75000000  0.37500000  0.37500000  1
loop_
_geom_bond_atom_site_label_1
_geom_bond_atom_site_label_2
_geom_bond_distance
_geom_bond_site_symmetry_2
Zr0 Zr1 2.994114 1_664
Zr0 Zr1 3.042120 1_665
Zr0 Zr1 3.042129 1_555
Zr0 Zr1 3.042309 1_565
Fe0 Zr1 2.930535 1_655
Fe0 Zr0 2.930535 1_555
Fe0 Zr1 2.930675 1_665
Fe0 Zr0 2.930675 1_545
Fe0 Zr0 2.930680 1_655
Fe0 Zr1 2.930680 1_555
Co0 Fe0 2.442512 1_455
Co0 Fe0 2.442512 1_554
Co0 Co2 2.504960 1_555
Co0 Co2 2.504960 1_455
Co0 Co1 2.504960 1_545
Co0 Co1 2.504960 1_555
Co0 Zr0 2.836042 1_554
Co0 Zr1 2.836042 1_555
Co0 Zr1 2.918241 1_664
Co0 Zr0 2.918241 1_445
Co0 Zr1 2.918244 1_554
Co0 Zr0 2.918244 1_555
Co1 Fe0 2.442541 1_564
Co1 Fe0 2.442541 1_455
Co1 Co2 2.504987 1_565
Co1 Co2 2.504987 1_455
Co1 Zr1 2.836089 1_565
Co1 Zr0 2.836089 1_554
Co1 Zr1 2.918146 1_664
Co1 Zr0 2.918146 1_455
Co1 Zr1 2.918292 1_564
Co1 Zr0 2.918292 1_555
Co2 Fe0 2.442540 1_555
Co2 Fe0 2.442540 1_554
Co2 Zr0 2.836092 1_654
Co2 Zr1 2.836092 1_555
Co2 Zr0 2.918148 1_555
Co2 Zr1 2.918148 1_654
Co2 Zr1 2.918290 1_664
Co2 Zr0 2.918290 1_545
