# generated using pymatgen
data_Lu2S3
_symmetry_space_group_name_H-M   'P 1'
_cell_length_a   3.75593742
_cell_length_b   10.34510555
_cell_length_c   10.36529668
_cell_angle_alpha   90.00000000
_cell_angle_beta   90.00000000
_cell_angle_gamma   90.00000000
_symmetry_Int_Tables_number   1
_chemical_formula_structural   Lu2S3
_chemical_formula_sum   'Lu8 S12'
_cell_volume   402.74950086
_cell_formula_units_Z   4
loop_
 _symmetry_equiv_pos_site_id
 _symmetry_equiv_pos_as_xyz
  1  'x, y, z'
loop_
 _atom_site_type_symbol
 _atom_site_label
 _atom_site_symmetry_multiplicity
 _atom_site_fract_x
 _atom_site_fract_y
 _atom_site_fract_z
 _atom_site_occupancy
  Lu  Lu0  1  0.25000000  0.18730238  0.48929530  1
  Lu  Lu1  1  0.25000000  0.31269762  0.98929530  1
  Lu  Lu2  1  0.75000000  0.81269762  0.51070470  1
  Lu  Lu3  1  0.75000000  0.68730238  0.01070470  1
  Lu  Lu4  1  0.75000000  0.49589408  0.69158993  1
  Lu  Lu5  1  0.75000000  0.00410592  0.19158993  1
  Lu  Lu6  1  0.25000000  0.50410592  0.30841007  1
  Lu  Lu7  1  0.25000000  0.99589408  0.80841007  1
  S  S0  1  0.25000000  0.62702755  0.54637428  1
  S  S1  1  0.25000000  0.87297245  0.04637428  1
  S  S2  1  0.75000000  0.37297245  0.45362572  1
  S  S3  1  0.75000000  0.12702755  0.95362572  1
  S  S4  1  0.75000000  0.05575717  0.61801649  1
  S  S5  1  0.75000000  0.44424283  0.11801549  1
  S  S6  1  0.25000000  0.94424283  0.38198451  1
  S  S7  1  0.25000000  0.55575717  0.88198351  1
  S  S8  1  0.25000000  0.30790411  0.72590262  1
  S  S9  1  0.25000000  0.19209589  0.22590262  1
  S  S10  1  0.75000000  0.69209589  0.27409738  1
  S  S11  1  0.75000000  0.80790411  0.77409738  1
loop_
_geom_bond_atom_site_label_1
_geom_bond_atom_site_label_2
_geom_bond_distance
_geom_bond_site_symmetry_2
Lu0 S4 2.675604 1_455
Lu0 S4 2.675604 1_555
Lu0 S2 2.711613 1_455
Lu0 S2 2.711613 1_555
Lu0 S9 2.730594 1_555
Lu0 S6 2.749513 1_545
Lu0 S8 2.751614 1_555
Lu1 S5 2.675599 1_556
Lu1 S5 2.675599 1_456
Lu1 S3 2.711613 1_455
Lu1 S3 2.711613 1_555
Lu1 S8 2.730594 1_555
Lu1 S7 2.749517 1_555
Lu1 S9 2.751614 1_556
Lu2 S6 2.675599 1_555
Lu2 S6 2.675599 1_655
Lu2 S0 2.711613 1_655
Lu2 S0 2.711613 1_555
Lu2 S11 2.730594 1_555
Lu2 S4 2.749517 1_565
Lu2 S10 2.751614 1_555
Lu3 S7 2.675604 1_654
Lu3 S7 2.675604 1_554
Lu3 S1 2.711613 1_655
Lu3 S1 2.711613 1_555
Lu3 S10 2.730594 1_555
Lu3 S5 2.749513 1_555
Lu3 S11 2.751614 1_554
Lu4 S8 2.726796 1_555
Lu4 S8 2.726796 1_655
Lu4 S0 2.762741 1_655
Lu4 S0 2.762741 1_555
Lu4 S2 2.775072 1_555
Lu4 S7 2.793731 1_555
Lu4 S7 2.793731 1_655
Lu4 S11 3.339152 1_555
Lu5 S9 2.726796 1_555
Lu5 S9 2.726796 1_655
Lu5 S1 2.762741 1_545
Lu5 S1 2.762741 1_645
Lu5 S3 2.775072 1_554
Lu5 S6 2.793738 1_645
Lu5 S6 2.793738 1_545
Lu5 S10 3.339152 1_545
Lu6 S10 2.726796 1_555
Lu6 S10 2.726796 1_455
Lu6 S2 2.762741 1_455
Lu6 S2 2.762741 1_555
Lu6 S0 2.775072 1_555
Lu6 S5 2.793738 1_555
Lu6 S5 2.793738 1_455
Lu6 S9 3.339152 1_555
Lu7 S11 2.726796 1_455
Lu7 S11 2.726796 1_555
Lu7 S3 2.762741 1_465
Lu7 S3 2.762741 1_565
Lu7 S1 2.775072 1_556
Lu7 S4 2.793731 1_465
Lu7 S4 2.793731 1_565
Lu7 S8 3.339152 1_565
