# generated using pymatgen
data_Dy6GaCo2
_symmetry_space_group_name_H-M   'P 1'
_cell_length_a   8.30264251
_cell_length_b   8.30264251
_cell_length_c   8.30264251
_cell_angle_alpha   106.54120184
_cell_angle_beta   109.83188114
_cell_angle_gamma   112.08822433
_symmetry_Int_Tables_number   1
_chemical_formula_structural   Dy6GaCo2
_chemical_formula_sum   'Dy12 Ga2 Co4'
_cell_volume   439.54367949
_cell_formula_units_Z   2
loop_
 _symmetry_equiv_pos_site_id
 _symmetry_equiv_pos_as_xyz
  1  'x, y, z'
loop_
 _atom_site_type_symbol
 _atom_site_label
 _atom_site_symmetry_multiplicity
 _atom_site_fract_x
 _atom_site_fract_y
 _atom_site_fract_z
 _atom_site_occupancy
  Dy  Dy0  1  0.30023100  0.26717800  0.56740800  1
  Dy  Dy1  1  0.69976900  0.73282200  0.43259200  1
  Dy  Dy2  1  0.30023100  0.73282200  0.03305300  1
  Dy  Dy3  1  0.69976900  0.26717800  0.96694700  1
  Dy  Dy4  1  0.19281000  0.51436300  0.32155300  1
  Dy  Dy5  1  0.19281000  0.87125700  0.67844700  1
  Dy  Dy6  1  0.80719000  0.48563700  0.67844700  1
  Dy  Dy7  1  0.80719000  0.12874300  0.32155300  1
  Dy  Dy8  1  0.40050300  0.21749000  0.18301300  1
  Dy  Dy9  1  0.03447600  0.21749000  0.81698700  1
  Dy  Dy10  1  0.96552400  0.78251000  0.18301300  1
  Dy  Dy11  1  0.59949700  0.78251000  0.81698700  1
  Ga  Ga0  1  0.50000000  0.50000000  0.00000000  1
  Ga  Ga1  1  0.50000000  0.00000000  0.50000000  1
  Co  Co0  1  0.13532300  0.50000000  0.63532300  1
  Co  Co1  1  0.86467700  0.50000000  0.36467700  1
  Co  Co2  1  0.00000000  0.11304500  0.11304500  1
  Co  Co3  1  0.00000000  0.88695500  0.88695500  1
loop_
_geom_bond_atom_site_label_1
_geom_bond_atom_site_label_2
_geom_bond_distance
_geom_bond_site_symmetry_2
Dy0 Ga0 2.996833 1_556
Dy0 Ga1 3.267259 1_555
Dy1 Ga0 2.996833 1_555
Dy1 Ga1 3.267259 1_565
Dy2 Ga0 2.996826 1_555
Dy2 Ga1 3.267261 1_565
Dy3 Ga0 2.996826 1_556
Dy3 Ga1 3.267261 1_555
Dy4 Ga1 3.355303 1_565
Dy5 Ga1 3.355303 1_565
Dy6 Ga1 3.355303 1_555
Dy7 Ga1 3.355303 1_555
Dy8 Ga0 3.149111 1_555
Dy8 Ga1 3.636260 1_555
Dy9 Ga0 3.149118 1_556
Dy9 Ga1 3.636253 1_455
Dy10 Ga0 3.149118 1_555
Dy10 Ga1 3.636253 1_665
Dy11 Ga0 3.149111 1_556
Dy11 Ga1 3.636260 1_565
Co0 Co1 2.583139 1_455
Co0 Dy2 2.796941 1_556
Co0 Dy0 2.796942 1_555
Co0 Dy5 2.829567 1_555
Co0 Dy6 2.829567 1_455
Co0 Dy7 2.829567 1_455
Co0 Dy4 2.829567 1_555
Co0 Dy11 3.141988 1_555
Co0 Dy9 3.141989 1_555
Co1 Dy3 2.796941 1_554
Co1 Dy1 2.796942 1_555
Co1 Dy6 2.829567 1_555
Co1 Dy5 2.829567 1_655
Co1 Dy7 2.829567 1_555
Co1 Dy4 2.829567 1_655
Co1 Dy8 3.141988 1_555
Co1 Dy10 3.141989 1_555
Co2 Co3 2.245202 1_544
Co2 Dy7 2.735951 1_455
Co2 Dy4 2.735951 1_555
Co2 Dy9 2.894902 1_554
Co2 Dy11 2.894904 1_444
Co2 Dy8 2.894904 1_555
Co2 Dy10 2.894905 1_445
Co2 Dy0 3.248680 1_555
Co2 Dy3 3.248686 1_454
Co3 Dy5 2.735951 1_555
Co3 Dy6 2.735951 1_455
Co3 Dy10 2.894902 1_456
Co3 Dy8 2.894904 1_566
Co3 Dy11 2.894904 1_455
Co3 Dy9 2.894905 1_565
Co3 Dy1 3.248680 1_455
Co3 Dy2 3.248686 1_556
