# generated using pymatgen
data_WNCl6
_symmetry_space_group_name_H-M   'P 1'
_cell_length_a   6.99962984
_cell_length_b   6.99962984
_cell_length_c   12.64925183
_cell_angle_alpha   79.58969197
_cell_angle_beta   79.58969197
_cell_angle_gamma   55.87133954
_symmetry_Int_Tables_number   1
_chemical_formula_structural   WNCl6
_chemical_formula_sum   'W2 N2 Cl12'
_cell_volume   502.16982134
_cell_formula_units_Z   2
loop_
 _symmetry_equiv_pos_site_id
 _symmetry_equiv_pos_as_xyz
  1  'x, y, z'
loop_
 _atom_site_type_symbol
 _atom_site_label
 _atom_site_symmetry_multiplicity
 _atom_site_fract_x
 _atom_site_fract_y
 _atom_site_fract_z
 _atom_site_occupancy
  W  W0  1  0.50000000  0.00000000  0.50000000  1
  W  W1  1  0.00000000  0.50000000  0.00000000  1
  N  N0  1  0.88094200  0.11905800  0.75000000  1
  N  N1  1  0.11905800  0.88094200  0.25000000  1
  Cl  Cl0  1  0.46673100  0.70741200  0.59944400  1
  Cl  Cl1  1  0.53326900  0.29258800  0.40055600  1
  Cl  Cl2  1  0.29258800  0.53326900  0.90055600  1
  Cl  Cl3  1  0.70741200  0.46673100  0.09944400  1
  Cl  Cl4  1  0.37821000  0.19124600  0.65305200  1
  Cl  Cl5  1  0.62179000  0.80875400  0.34694800  1
  Cl  Cl6  1  0.80875400  0.62179000  0.84694800  1
  Cl  Cl7  1  0.19124600  0.37821000  0.15305200  1
  Cl  Cl8  1  0.80558500  0.87933300  0.03879800  1
  Cl  Cl9  1  0.19441500  0.12066700  0.96120200  1
  Cl  Cl10  1  0.12066700  0.19441500  0.46120200  1
  Cl  Cl11  1  0.87933300  0.80558500  0.53879800  1
loop_
_geom_bond_atom_site_label_1
_geom_bond_atom_site_label_2
_geom_bond_distance
_geom_bond_site_symmetry_2
Cl0 W0 2.308494 1_565
Cl1 W0 2.308494 1_555
Cl2 W1 2.308494 1_556
Cl3 W1 2.308494 1_655
Cl4 W0 2.307902 1_555
Cl5 W0 2.307902 1_565
Cl6 W1 2.307902 1_656
Cl7 W1 2.307902 1_555
Cl8 W1 2.306046 1_655
Cl9 W1 2.306046 1_556
Cl10 W0 2.306046 1_555
Cl11 W0 2.306046 1_565
