# generated using pymatgen
data_Ca7Mg(CoO3)8
_symmetry_space_group_name_H-M   'P 1'
_cell_length_a   7.54794700
_cell_length_b   7.54794700
_cell_length_c   7.54794700
_cell_angle_alpha   90.00000000
_cell_angle_beta   90.00000000
_cell_angle_gamma   90.00000000
_symmetry_Int_Tables_number   1
_chemical_formula_structural   Ca7Mg(CoO3)8
_chemical_formula_sum   'Ca7 Mg1 Co8 O24'
_cell_volume   430.01789206
_cell_formula_units_Z   1
loop_
 _symmetry_equiv_pos_site_id
 _symmetry_equiv_pos_as_xyz
  1  'x, y, z'
loop_
 _atom_site_type_symbol
 _atom_site_label
 _atom_site_symmetry_multiplicity
 _atom_site_fract_x
 _atom_site_fract_y
 _atom_site_fract_z
 _atom_site_occupancy
  Ca  Ca0  1  0.50000000  0.00000000  0.50000000  1
  Ca  Ca1  1  0.50000000  0.00000000  0.00000000  1
  Ca  Ca2  1  0.50000000  0.50000000  0.00000000  1
  Ca  Ca3  1  0.00000000  0.00000000  0.50000000  1
  Ca  Ca4  1  0.00000000  0.00000000  0.00000000  1
  Ca  Ca5  1  0.00000000  0.50000000  0.50000000  1
  Ca  Ca6  1  0.00000000  0.50000000  0.00000000  1
  Mg  Mg0  1  0.50000000  0.50000000  0.50000000  1
  Co  Co0  1  0.25029200  0.74970800  0.25029200  1
  Co  Co1  1  0.25029200  0.74970800  0.74970800  1
  Co  Co2  1  0.25029200  0.25029200  0.25029200  1
  Co  Co3  1  0.25029200  0.25029200  0.74970800  1
  Co  Co4  1  0.74970800  0.74970800  0.25029200  1
  Co  Co5  1  0.74970800  0.74970800  0.74970800  1
  Co  Co6  1  0.74970800  0.25029200  0.25029200  1
  Co  Co7  1  0.74970800  0.25029200  0.74970800  1
  O  O0  1  0.50000000  0.74918900  0.25081100  1
  O  O1  1  0.50000000  0.74918900  0.74918900  1
  O  O2  1  0.50000000  0.25081100  0.25081100  1
  O  O3  1  0.50000000  0.25081100  0.74918900  1
  O  O4  1  0.00000000  0.75003900  0.24996100  1
  O  O5  1  0.00000000  0.75003900  0.75003900  1
  O  O6  1  0.00000000  0.24996100  0.24996100  1
  O  O7  1  0.00000000  0.24996100  0.75003900  1
  O  O8  1  0.24996100  0.00000000  0.24996100  1
  O  O9  1  0.24996100  0.00000000  0.75003900  1
  O  O10  1  0.25081100  0.50000000  0.25081100  1
  O  O11  1  0.25081100  0.50000000  0.74918900  1
  O  O12  1  0.75003900  0.00000000  0.24996100  1
  O  O13  1  0.75003900  0.00000000  0.75003900  1
  O  O14  1  0.74918900  0.50000000  0.25081100  1
  O  O15  1  0.74918900  0.50000000  0.74918900  1
  O  O16  1  0.25081100  0.74918900  0.50000000  1
  O  O17  1  0.24996100  0.75003900  0.00000000  1
  O  O18  1  0.25081100  0.25081100  0.50000000  1
  O  O19  1  0.24996100  0.24996100  0.00000000  1
  O  O20  1  0.74918900  0.74918900  0.50000000  1
  O  O21  1  0.75003900  0.75003900  0.00000000  1
  O  O22  1  0.74918900  0.25081100  0.50000000  1
  O  O23  1  0.75003900  0.24996100  0.00000000  1
loop_
_geom_bond_atom_site_label_1
_geom_bond_atom_site_label_2
_geom_bond_distance
_geom_bond_site_symmetry_2
Ca0 O22 2.668616 1_555
Ca0 O1 2.668616 1_545
Ca0 O2 2.668616 1_555
Ca0 O3 2.668616 1_555
Ca0 O16 2.668616 1_545
Ca0 O0 2.668616 1_545
Ca0 O18 2.668616 1_555
Ca0 O20 2.668616 1_545
Ca0 O12 2.669019 1_555
Ca0 O9 2.669019 1_555
Ca0 O8 2.669019 1_555
Ca0 O13 2.669019 1_555
Ca1 O13 2.668602 1_554
Ca1 O21 2.668602 1_545
Ca1 O12 2.668602 1_555
Ca1 O17 2.668602 1_545
Ca1 O23 2.668602 1_555
Ca1 O9 2.668602 1_554
Ca1 O8 2.668602 1_555
Ca1 O19 2.668602 1_555
Ca1 O0 2.677259 1_545
Ca1 O3 2.677259 1_554
Ca1 O1 2.677259 1_544
Ca1 O2 2.677259 1_555
Ca2 O10 2.668616 1_555
Ca2 O2 2.668616 1_555
Ca2 O0 2.668616 1_555
Ca2 O1 2.668616 1_554
Ca2 O11 2.668616 1_554
Ca2 O14 2.668616 1_555
Ca2 O15 2.668616 1_554
Ca2 O3 2.668616 1_554
Ca2 O19 2.669019 1_555
Ca2 O17 2.669019 1_555
Ca2 O23 2.669019 1_555
Ca2 O21 2.669019 1_555
Ca3 O9 2.668602 1_555
Ca3 O4 2.668602 1_545
Ca3 O12 2.668602 1_455
Ca3 O6 2.668602 1_555
Ca3 O8 2.668602 1_555
Ca3 O13 2.668602 1_455
Ca3 O7 2.668602 1_555
Ca3 O5 2.668602 1_545
Ca3 O16 2.677259 1_545
Ca3 O20 2.677259 1_445
Ca3 O18 2.677259 1_555
Ca3 O22 2.677259 1_455
Ca4 O19 2.668186 1_555
Ca4 O7 2.668186 1_554
Ca4 O5 2.668186 1_544
Ca4 O23 2.668186 1_455
Ca4 O12 2.668186 1_455
Ca4 O4 2.668186 1_545
Ca4 O17 2.668186 1_545
Ca4 O8 2.668186 1_555
Ca4 O9 2.668186 1_554
Ca4 O6 2.668186 1_555
Ca4 O21 2.668186 1_445
Ca4 O13 2.668186 1_454
Ca5 O10 2.668616 1_555
Ca5 O16 2.668616 1_555
Ca5 O14 2.668616 1_455
Ca5 O20 2.668616 1_455
Ca5 O11 2.668616 1_555
Ca5 O15 2.668616 1_455
Ca5 O18 2.668616 1_555
Ca5 O22 2.668616 1_455
Ca5 O4 2.669019 1_555
Ca5 O5 2.669019 1_555
Ca5 O6 2.669019 1_555
Ca5 O7 2.669019 1_555
Ca6 O23 2.668602 1_455
Ca6 O7 2.668602 1_554
Ca6 O17 2.668602 1_555
Ca6 O4 2.668602 1_555
Ca6 O5 2.668602 1_554
Ca6 O21 2.668602 1_455
Ca6 O6 2.668602 1_555
Ca6 O19 2.668602 1_555
Ca6 O11 2.677259 1_554
Ca6 O15 2.677259 1_454
Ca6 O10 2.677259 1_555
Ca6 O14 2.677259 1_455
Mg0 O3 2.659945 1_555
Mg0 O20 2.659945 1_555
Mg0 O11 2.659945 1_555
Mg0 O1 2.659945 1_555
Mg0 O14 2.659945 1_555
Mg0 O18 2.659945 1_555
Mg0 O15 2.659945 1_555
Mg0 O22 2.659945 1_555
Mg0 O0 2.659945 1_555
Mg0 O16 2.659945 1_555
Mg0 O10 2.659945 1_555
Mg0 O2 2.659945 1_555
Co0 O10 1.884791 1_555
Co0 O0 1.884791 1_555
Co0 O16 1.884791 1_555
Co0 O4 1.889194 1_555
Co0 O17 1.889194 1_555
Co0 O8 1.889194 1_565
Co1 O11 1.884791 1_555
Co1 O16 1.884791 1_555
Co1 O1 1.884791 1_555
Co1 O5 1.889194 1_555
Co1 O9 1.889194 1_565
Co1 O17 1.889194 1_556
Co2 O2 1.884791 1_555
Co2 O18 1.884791 1_555
Co2 O10 1.884791 1_555
Co2 O6 1.889194 1_555
Co2 O8 1.889194 1_555
Co2 O19 1.889194 1_555
Co3 O18 1.884791 1_555
Co3 O11 1.884791 1_555
Co3 O3 1.884791 1_555
Co3 O9 1.889194 1_555
Co3 O7 1.889194 1_555
Co3 O19 1.889194 1_556
Co4 O0 1.884791 1_555
Co4 O14 1.884791 1_555
Co4 O20 1.884791 1_555
Co4 O21 1.889194 1_555
Co4 O12 1.889194 1_565
Co4 O4 1.889194 1_655
Co5 O20 1.884791 1_555
Co5 O1 1.884791 1_555
Co5 O15 1.884791 1_555
Co5 O21 1.889194 1_556
Co5 O5 1.889194 1_655
Co5 O13 1.889194 1_565
Co6 O2 1.884791 1_555
Co6 O14 1.884791 1_555
Co6 O22 1.884791 1_555
Co6 O23 1.889194 1_555
Co6 O12 1.889194 1_555
Co6 O6 1.889194 1_655
Co7 O22 1.884791 1_555
Co7 O3 1.884791 1_555
Co7 O15 1.884791 1_555
Co7 O13 1.889194 1_555
Co7 O23 1.889194 1_556
Co7 O7 1.889194 1_655
