# generated using pymatgen
data_CoO2
_symmetry_space_group_name_H-M   'P 1'
_cell_length_a   2.86917000
_cell_length_b   8.30860100
_cell_length_c   9.92563400
_cell_angle_alpha   90.00000000
_cell_angle_beta   90.00000000
_cell_angle_gamma   90.00000000
_symmetry_Int_Tables_number   1
_chemical_formula_structural   CoO2
_chemical_formula_sum   'Co8 O16'
_cell_volume   236.61509195
_cell_formula_units_Z   8
loop_
 _symmetry_equiv_pos_site_id
 _symmetry_equiv_pos_as_xyz
  1  'x, y, z'
loop_
 _atom_site_type_symbol
 _atom_site_label
 _atom_site_symmetry_multiplicity
 _atom_site_fract_x
 _atom_site_fract_y
 _atom_site_fract_z
 _atom_site_occupancy
  Co  Co0  1  0.75000000  0.91216600  0.60136300  1
  Co  Co1  1  0.25000000  0.58783400  0.10136300  1
  Co  Co2  1  0.75000000  0.41216600  0.89863700  1
  Co  Co3  1  0.25000000  0.08783400  0.39863700  1
  Co  Co4  1  0.25000000  0.05255800  0.88418100  1
  Co  Co5  1  0.75000000  0.94744200  0.11581900  1
  Co  Co6  1  0.25000000  0.55255800  0.61581900  1
  Co  Co7  1  0.75000000  0.44744200  0.38418100  1
  O  O0  1  0.75000000  0.41395000  0.56889800  1
  O  O1  1  0.25000000  0.58605000  0.43110200  1
  O  O2  1  0.75000000  0.91395000  0.93110200  1
  O  O3  1  0.25000000  0.08605000  0.06889800  1
  O  O4  1  0.75000000  0.53665000  0.21402000  1
  O  O5  1  0.25000000  0.46335000  0.78598000  1
  O  O6  1  0.75000000  0.03665000  0.28598000  1
  O  O7  1  0.25000000  0.96335000  0.71402000  1
  O  O8  1  0.75000000  0.11572300  0.52217100  1
  O  O9  1  0.25000000  0.88427700  0.47782900  1
  O  O10  1  0.75000000  0.61572300  0.97782900  1
  O  O11  1  0.25000000  0.38427700  0.02217100  1
  O  O12  1  0.25000000  0.30596000  0.35193100  1
  O  O13  1  0.75000000  0.69404000  0.64806900  1
  O  O14  1  0.75000000  0.19404000  0.85193100  1
  O  O15  1  0.25000000  0.80596000  0.14806900  1
loop_
_geom_bond_atom_site_label_1
_geom_bond_atom_site_label_2
_geom_bond_distance
_geom_bond_site_symmetry_2
Co0 O8 1.865007 1_565
Co0 O7 1.867951 1_555
Co0 O7 1.867951 1_655
Co0 O13 1.870675 1_555
Co0 O9 1.901363 1_655
Co0 O9 1.901363 1_555
Co1 O11 1.865007 1_555
Co1 O4 1.867951 1_555
Co1 O4 1.867951 1_455
Co1 O15 1.870675 1_555
Co1 O10 1.901363 1_554
Co1 O10 1.901363 1_454
Co2 O10 1.865007 1_555
Co2 O5 1.867951 1_655
Co2 O5 1.867951 1_555
Co2 O14 1.870675 1_555
Co2 O11 1.901363 1_656
Co2 O11 1.901363 1_556
Co3 O9 1.865007 1_545
Co3 O6 1.867951 1_555
Co3 O6 1.867951 1_455
Co3 O12 1.870675 1_555
Co3 O8 1.901363 1_455
Co3 O8 1.901363 1_555
Co4 O7 1.844435 1_545
Co4 O3 1.854431 1_556
Co4 O14 1.882111 1_455
Co4 O14 1.882111 1_555
Co4 O2 1.897683 1_545
Co4 O2 1.897683 1_445
Co5 O6 1.844435 1_565
Co5 O2 1.854431 1_554
Co5 O15 1.882111 1_655
Co5 O15 1.882111 1_555
Co5 O3 1.897683 1_565
Co5 O3 1.897683 1_665
Co6 O5 1.844435 1_555
Co6 O1 1.854431 1_555
Co6 O13 1.882111 1_555
Co6 O13 1.882111 1_455
Co6 O0 1.897683 1_555
Co6 O0 1.897683 1_455
Co7 O4 1.844435 1_555
Co7 O0 1.854431 1_555
Co7 O12 1.882111 1_555
Co7 O12 1.882111 1_655
Co7 O1 1.897683 1_555
Co7 O1 1.897683 1_655
