# generated using pymatgen
data_TbCO4
_symmetry_space_group_name_H-M   'P 1'
_cell_length_a   4.89401100
_cell_length_b   7.16941600
_cell_length_c   8.77824400
_cell_angle_alpha   90.00000000
_cell_angle_beta   90.00000000
_cell_angle_gamma   90.00000000
_symmetry_Int_Tables_number   1
_chemical_formula_structural   TbCO4
_chemical_formula_sum   'Tb4 C4 O16'
_cell_volume   308.00400961
_cell_formula_units_Z   4
loop_
 _symmetry_equiv_pos_site_id
 _symmetry_equiv_pos_as_xyz
  1  'x, y, z'
loop_
 _atom_site_type_symbol
 _atom_site_label
 _atom_site_symmetry_multiplicity
 _atom_site_fract_x
 _atom_site_fract_y
 _atom_site_fract_z
 _atom_site_occupancy
  Tb  Tb0  1  0.02800300  0.87814400  0.34003100  1
  Tb  Tb1  1  0.47199700  0.12185600  0.84003100  1
  Tb  Tb2  1  0.97199700  0.37814400  0.15996900  1
  Tb  Tb3  1  0.52800300  0.62185600  0.65996900  1
  C  C0  1  0.00718400  0.95154200  0.67506300  1
  C  C1  1  0.49281600  0.04845800  0.17506300  1
  C  C2  1  0.99281600  0.45154200  0.82493700  1
  C  C3  1  0.50718400  0.54845800  0.32493700  1
  O  O0  1  0.96374700  0.69200100  0.14006500  1
  O  O1  1  0.53625300  0.30799900  0.64006500  1
  O  O2  1  0.03625300  0.19200100  0.35993500  1
  O  O3  1  0.46374700  0.80799900  0.85993500  1
  O  O4  1  0.54178800  0.95052200  0.29351100  1
  O  O5  1  0.95821200  0.04947800  0.79351100  1
  O  O6  1  0.45821200  0.45052200  0.20648900  1
  O  O7  1  0.04178800  0.54947800  0.70648900  1
  O  O8  1  0.76269500  0.57598400  0.36573600  1
  O  O9  1  0.73730500  0.42401600  0.86573600  1
  O  O10  1  0.23730500  0.07598400  0.13426400  1
  O  O11  1  0.26269500  0.92401600  0.63426400  1
  O  O12  1  0.31859900  0.61700800  0.41209900  1
  O  O13  1  0.18140100  0.38299200  0.91209900  1
  O  O14  1  0.68140100  0.11700800  0.08790100  1
  O  O15  1  0.81859900  0.88299200  0.58790100  1
loop_
_geom_bond_atom_site_label_1
_geom_bond_atom_site_label_2
_geom_bond_distance
_geom_bond_site_symmetry_2
C0 O5 1.277325 1_465
C0 O15 1.295674 1_455
C0 O11 1.315635 1_555
C1 O4 1.277325 1_545
C1 O14 1.295674 1_555
C1 O10 1.315635 1_555
C2 O7 1.277325 1_655
C2 O13 1.295674 1_655
C2 O9 1.315635 1_555
C3 O6 1.277325 1_555
C3 O12 1.295674 1_555
C3 O8 1.315635 1_555
O0 Tb0 2.227360 1_655
O0 Tb2 2.257306 1_555
O1 Tb1 2.227360 1_555
O1 Tb3 2.257306 1_555
O2 Tb2 2.227360 1_455
O2 Tb0 2.257306 1_545
O3 Tb3 2.227360 1_555
O3 Tb1 2.257306 1_565
O4 Tb0 2.469462 1_655
O4 Tb0 2.599728 1_555
O5 Tb1 2.469462 1_555
O5 Tb1 2.599728 1_655
O6 Tb2 2.469462 1_455
O6 Tb2 2.599728 1_555
O7 Tb3 2.469462 1_555
O7 Tb3 2.599728 1_455
O8 Tb2 2.514700 1_555
O8 Tb0 2.535688 1_655
O8 Tb3 2.845789 1_555
O9 Tb3 2.514700 1_555
O9 Tb1 2.535688 1_555
O9 Tb2 2.845789 1_556
O10 Tb0 2.514700 1_545
O10 Tb2 2.535688 1_455
O10 Tb1 2.845789 1_554
O11 Tb1 2.514700 1_565
O11 Tb3 2.535688 1_555
O11 Tb0 2.845789 1_555
O12 Tb3 2.405381 1_555
O12 Tb0 2.434733 1_555
O13 Tb2 2.405381 1_456
O13 Tb1 2.434733 1_555
O14 Tb1 2.405381 1_554
O14 Tb2 2.434733 1_555
O15 Tb0 2.405381 1_655
O15 Tb3 2.434733 1_555
