# generated using pymatgen
data_MnAl2Cr3
_symmetry_space_group_name_H-M   'P 1'
_cell_length_a   6.10540814
_cell_length_b   6.10540814
_cell_length_c   17.62214390
_cell_angle_alpha   90.00000000
_cell_angle_beta   90.00000000
_cell_angle_gamma   90.00000000
_symmetry_Int_Tables_number   1
_chemical_formula_structural   MnAl2Cr3
_chemical_formula_sum   'Mn8 Al16 Cr24'
_cell_volume   656.88318679
_cell_formula_units_Z   8
loop_
 _symmetry_equiv_pos_site_id
 _symmetry_equiv_pos_as_xyz
  1  'x, y, z'
loop_
 _atom_site_type_symbol
 _atom_site_label
 _atom_site_symmetry_multiplicity
 _atom_site_fract_x
 _atom_site_fract_y
 _atom_site_fract_z
 _atom_site_occupancy
  Mn  Mn0_0  1  0.25000000  0.25000000  0.08566773  1
  Mn  Mn0_1  1  0.25000000  0.25000000  0.58566773  1
  Mn  Mn0_2  1  0.25000000  0.75000000  0.08566773  1
  Mn  Mn0_3  1  0.25000000  0.75000000  0.58566773  1
  Mn  Mn0_4  1  0.75000000  0.25000000  0.08566773  1
  Mn  Mn0_5  1  0.75000000  0.25000000  0.58566773  1
  Mn  Mn0_6  1  0.75000000  0.75000000  0.08566773  1
  Mn  Mn0_7  1  0.75000000  0.75000000  0.58566773  1
  Al  Al0_0  1  0.00000000  0.00000000  0.99997163  1
  Al  Al0_1  1  0.00000000  0.00000000  0.49997164  1
  Al  Al0_2  1  0.00000000  0.50000000  0.99997163  1
  Al  Al0_3  1  0.00000000  0.50000000  0.49997164  1
  Al  Al0_4  1  0.50000000  0.00000000  0.99997163  1
  Al  Al0_5  1  0.50000000  0.00000000  0.49997164  1
  Al  Al0_6  1  0.50000000  0.50000000  0.99997163  1
  Al  Al0_7  1  0.50000000  0.50000000  0.49997164  1
  Al  Al1_0  1  0.25000000  0.25000000  0.25078874  1
  Al  Al1_1  1  0.25000000  0.25000000  0.75078874  1
  Al  Al1_2  1  0.25000000  0.75000000  0.25078874  1
  Al  Al1_3  1  0.25000000  0.75000000  0.75078874  1
  Al  Al1_4  1  0.75000000  0.25000000  0.25078874  1
  Al  Al1_5  1  0.75000000  0.25000000  0.75078874  1
  Al  Al1_6  1  0.75000000  0.75000000  0.25078874  1
  Al  Al1_7  1  0.75000000  0.75000000  0.75078874  1
  Cr  Cr0_0  1  0.00000000  0.00000000  0.33734621  1
  Cr  Cr0_1  1  0.00000000  0.00000000  0.83734621  1
  Cr  Cr0_2  1  0.00000000  0.50000000  0.33734621  1
  Cr  Cr0_3  1  0.00000000  0.50000000  0.83734621  1
  Cr  Cr0_4  1  0.50000000  0.00000000  0.33734621  1
  Cr  Cr0_5  1  0.50000000  0.00000000  0.83734621  1
  Cr  Cr0_6  1  0.50000000  0.50000000  0.33734621  1
  Cr  Cr0_7  1  0.50000000  0.50000000  0.83734621  1
  Cr  Cr1_0  1  0.00000000  0.00000000  0.16373483  1
  Cr  Cr1_1  1  0.00000000  0.00000000  0.66373483  1
  Cr  Cr1_2  1  0.00000000  0.50000000  0.16373483  1
  Cr  Cr1_3  1  0.00000000  0.50000000  0.66373483  1
  Cr  Cr1_4  1  0.50000000  0.00000000  0.16373483  1
  Cr  Cr1_5  1  0.50000000  0.00000000  0.66373483  1
  Cr  Cr1_6  1  0.50000000  0.50000000  0.16373483  1
  Cr  Cr1_7  1  0.50000000  0.50000000  0.66373483  1
  Cr  Cr2_0  1  0.25000000  0.25000000  0.41249087  1
  Cr  Cr2_1  1  0.25000000  0.25000000  0.91249087  1
  Cr  Cr2_2  1  0.25000000  0.75000000  0.41249087  1
  Cr  Cr2_3  1  0.25000000  0.75000000  0.91249087  1
  Cr  Cr2_4  1  0.75000000  0.25000000  0.41249087  1
  Cr  Cr2_5  1  0.75000000  0.25000000  0.91249087  1
  Cr  Cr2_6  1  0.75000000  0.75000000  0.41249087  1
  Cr  Cr2_7  1  0.75000000  0.75000000  0.91249087  1
loop_
_geom_bond_atom_site_label_1
_geom_bond_atom_site_label_2
_geom_bond_distance
_geom_bond_site_symmetry_2
Al0_0 Mn0_0 2.634398 1_556
Al0_0 Mn0_2 2.634398 1_546
Al0_0 Mn0_4 2.634398 1_456
Al0_0 Mn0_6 2.634398 1_446
Al0_0 Cr2_1 2.652551 1_555
Al0_0 Cr2_3 2.652551 1_545
Al0_0 Cr2_5 2.652551 1_455
Al0_0 Cr2_7 2.652551 1_445
Al0_1 Mn0_1 2.634398 1_555
Al0_1 Mn0_5 2.634398 1_455
Al0_1 Mn0_3 2.634398 1_545
Al0_1 Mn0_7 2.634398 1_445
Al0_1 Cr2_0 2.652551 1_555
Al0_1 Cr2_4 2.652551 1_455
Al0_1 Cr2_2 2.652551 1_545
Al0_1 Cr2_6 2.652551 1_445
Al0_2 Mn0_2 2.634398 1_556
Al0_2 Mn0_0 2.634398 1_556
Al0_2 Mn0_4 2.634398 1_456
Al0_2 Mn0_6 2.634398 1_456
Al0_2 Cr2_3 2.652551 1_555
Al0_2 Cr2_1 2.652551 1_555
Al0_2 Cr2_7 2.652551 1_455
Al0_2 Cr2_5 2.652551 1_455
Al0_3 Mn0_3 2.634398 1_555
Al0_3 Mn0_7 2.634398 1_455
Al0_3 Mn0_1 2.634398 1_555
Al0_3 Mn0_5 2.634398 1_455
Al0_3 Cr2_0 2.652551 1_555
Al0_3 Cr2_6 2.652551 1_455
Al0_3 Cr2_2 2.652551 1_555
Al0_3 Cr2_4 2.652551 1_455
Al0_4 Mn0_4 2.634398 1_556
Al0_4 Mn0_0 2.634398 1_556
Al0_4 Mn0_2 2.634398 1_546
Al0_4 Mn0_6 2.634398 1_546
Al0_4 Cr2_5 2.652551 1_555
Al0_4 Cr2_7 2.652551 1_545
Al0_4 Cr2_1 2.652551 1_555
Al0_4 Cr2_3 2.652551 1_545
Al0_5 Mn0_5 2.634398 1_555
Al0_5 Mn0_1 2.634398 1_555
Al0_5 Mn0_7 2.634398 1_545
Al0_5 Mn0_3 2.634398 1_545
Al0_5 Cr2_4 2.652551 1_555
Al0_5 Cr2_0 2.652551 1_555
Al0_5 Cr2_6 2.652551 1_545
Al0_5 Cr2_2 2.652551 1_545
Al0_6 Mn0_6 2.634398 1_556
Al0_6 Mn0_4 2.634398 1_556
Al0_6 Mn0_2 2.634398 1_556
Al0_6 Mn0_0 2.634398 1_556
Al0_6 Cr2_7 2.652551 1_555
Al0_6 Cr2_5 2.652551 1_555
Al0_6 Cr2_3 2.652551 1_555
Al0_6 Cr2_1 2.652551 1_555
Al0_7 Mn0_7 2.634398 1_555
Al0_7 Mn0_5 2.634398 1_555
Al0_7 Mn0_3 2.634398 1_555
Al0_7 Mn0_1 2.634398 1_555
Al0_7 Cr2_6 2.652551 1_555
Al0_7 Cr2_4 2.652551 1_555
Al0_7 Cr2_0 2.652551 1_555
Al0_7 Cr2_2 2.652551 1_555
Al1_0 Cr0_0 2.643128 1_555
Al1_0 Cr0_4 2.643128 1_555
Al1_0 Cr0_2 2.643128 1_555
Al1_0 Cr0_6 2.643128 1_555
Al1_0 Cr1_2 2.648187 1_555
Al1_0 Cr1_4 2.648187 1_555
Al1_0 Cr1_6 2.648187 1_555
Al1_0 Cr1_0 2.648187 1_555
Al1_0 Cr2_0 2.849538 1_555
Al1_0 Mn0_0 2.909786 1_555
Al1_0 Al1_4 3.052704 1_555
Al1_0 Al1_2 3.052704 1_555
Al1_0 Al1_4 3.052704 1_455
Al1_0 Al1_2 3.052704 1_545
Al1_1 Cr0_7 2.643128 1_555
Al1_1 Cr0_3 2.643128 1_555
Al1_1 Cr0_1 2.643128 1_555
Al1_1 Cr0_5 2.643128 1_555
Al1_1 Cr1_1 2.648187 1_555
Al1_1 Cr1_7 2.648187 1_555
Al1_1 Cr1_5 2.648187 1_555
Al1_1 Cr1_3 2.648187 1_555
Al1_1 Cr2_1 2.849538 1_555
Al1_1 Mn0_1 2.909786 1_555
Al1_1 Al1_3 3.052704 1_555
Al1_1 Al1_5 3.052704 1_555
Al1_1 Al1_5 3.052704 1_455
Al1_1 Al1_3 3.052704 1_545
Al1_2 Cr0_2 2.643128 1_555
Al1_2 Cr0_6 2.643128 1_555
Al1_2 Cr0_4 2.643128 1_565
Al1_2 Cr0_0 2.643128 1_565
Al1_2 Cr1_6 2.648187 1_555
Al1_2 Cr1_2 2.648187 1_555
Al1_2 Cr1_0 2.648187 1_565
Al1_2 Cr1_4 2.648187 1_565
Al1_2 Cr2_2 2.849538 1_555
Al1_2 Mn0_2 2.909786 1_555
Al1_2 Al1_6 3.052704 1_555
Al1_2 Al1_6 3.052704 1_455
Al1_3 Cr0_7 2.643128 1_555
Al1_3 Cr0_3 2.643128 1_555
Al1_3 Cr0_1 2.643128 1_565
Al1_3 Cr0_5 2.643128 1_565
Al1_3 Cr1_3 2.648187 1_555
Al1_3 Cr1_7 2.648187 1_555
Al1_3 Cr1_1 2.648187 1_565
Al1_3 Cr1_5 2.648187 1_565
Al1_3 Cr2_3 2.849538 1_555
Al1_3 Mn0_3 2.909786 1_555
Al1_3 Al1_7 3.052704 1_555
Al1_3 Al1_7 3.052704 1_455
Al1_4 Cr0_6 2.643128 1_555
Al1_4 Cr0_4 2.643128 1_555
Al1_4 Cr0_2 2.643128 1_655
Al1_4 Cr0_0 2.643128 1_655
Al1_4 Cr1_6 2.648187 1_555
Al1_4 Cr1_4 2.648187 1_555
Al1_4 Cr1_0 2.648187 1_655
Al1_4 Cr1_2 2.648187 1_655
Al1_4 Cr2_4 2.849538 1_555
Al1_4 Mn0_4 2.909786 1_555
Al1_4 Al1_6 3.052704 1_555
Al1_4 Al1_6 3.052704 1_545
Al1_5 Cr0_7 2.643128 1_555
Al1_5 Cr0_5 2.643128 1_555
Al1_5 Cr0_1 2.643128 1_655
Al1_5 Cr0_3 2.643128 1_655
Al1_5 Cr1_5 2.648187 1_555
Al1_5 Cr1_7 2.648187 1_555
Al1_5 Cr1_1 2.648187 1_655
Al1_5 Cr1_3 2.648187 1_655
Al1_5 Cr2_5 2.849538 1_555
Al1_5 Mn0_5 2.909786 1_555
Al1_5 Al1_7 3.052704 1_555
Al1_5 Al1_7 3.052704 1_545
Al1_6 Cr0_6 2.643128 1_555
Al1_6 Cr0_2 2.643128 1_655
Al1_6 Cr0_4 2.643128 1_565
Al1_6 Cr0_0 2.643128 1_665
Al1_6 Cr1_6 2.648187 1_555
Al1_6 Cr1_2 2.648187 1_655
Al1_6 Cr1_4 2.648187 1_565
Al1_6 Cr1_0 2.648187 1_665
Al1_6 Cr2_6 2.849538 1_555
Al1_6 Mn0_6 2.909786 1_555
Al1_7 Cr0_7 2.643128 1_555
Al1_7 Cr0_5 2.643128 1_565
Al1_7 Cr0_3 2.643128 1_655
Al1_7 Cr0_1 2.643128 1_665
Al1_7 Cr1_7 2.648187 1_555
Al1_7 Cr1_3 2.648187 1_655
Al1_7 Cr1_5 2.648187 1_565
Al1_7 Cr1_1 2.648187 1_665
Al1_7 Cr2_7 2.849538 1_555
Al1_7 Mn0_7 2.909786 1_555
Cr0_0 Cr2_0 2.532397 1_555
Cr0_0 Cr2_4 2.532397 1_455
Cr0_0 Cr2_6 2.532397 1_445
Cr0_0 Cr2_2 2.532397 1_545
Cr0_1 Cr2_1 2.532397 1_555
Cr0_1 Cr2_3 2.532397 1_545
Cr0_1 Cr2_5 2.532397 1_455
Cr0_1 Cr2_7 2.532397 1_445
Cr0_2 Cr2_2 2.532397 1_555
Cr0_2 Cr2_0 2.532397 1_555
Cr0_2 Cr2_6 2.532397 1_455
Cr0_2 Cr2_4 2.532397 1_455
Cr0_3 Cr2_3 2.532397 1_555
Cr0_3 Cr2_1 2.532397 1_555
Cr0_3 Cr2_7 2.532397 1_455
Cr0_3 Cr2_5 2.532397 1_455
Cr0_4 Cr2_4 2.532397 1_555
Cr0_4 Cr2_6 2.532397 1_545
Cr0_4 Cr2_0 2.532397 1_555
Cr0_4 Cr2_2 2.532397 1_545
Cr0_5 Cr2_5 2.532397 1_555
Cr0_5 Cr2_7 2.532397 1_545
Cr0_5 Cr2_1 2.532397 1_555
Cr0_5 Cr2_3 2.532397 1_545
Cr0_6 Cr2_6 2.532397 1_555
Cr0_6 Cr2_4 2.532397 1_555
Cr0_6 Cr2_2 2.532397 1_555
Cr0_6 Cr2_0 2.532397 1_555
Cr0_7 Cr2_7 2.532397 1_555
Cr0_7 Cr2_5 2.532397 1_555
Cr0_7 Cr2_3 2.532397 1_555
Cr0_7 Cr2_1 2.532397 1_555
Cr1_0 Mn0_0 2.559703 1_555
Cr1_0 Mn0_2 2.559703 1_545
Cr1_0 Mn0_4 2.559703 1_455
Cr1_0 Mn0_6 2.559703 1_445
Cr1_1 Mn0_1 2.559703 1_555
Cr1_1 Mn0_3 2.559703 1_545
Cr1_1 Mn0_5 2.559703 1_455
Cr1_1 Mn0_7 2.559703 1_445
Cr1_2 Mn0_2 2.559703 1_555
Cr1_2 Mn0_0 2.559703 1_555
Cr1_2 Mn0_6 2.559703 1_455
Cr1_2 Mn0_4 2.559703 1_455
Cr1_3 Mn0_3 2.559703 1_555
Cr1_3 Mn0_7 2.559703 1_455
Cr1_3 Mn0_1 2.559703 1_555
Cr1_3 Mn0_5 2.559703 1_455
Cr1_4 Mn0_4 2.559703 1_555
Cr1_4 Mn0_0 2.559703 1_555
Cr1_4 Mn0_6 2.559703 1_545
Cr1_4 Mn0_2 2.559703 1_545
Cr1_5 Mn0_5 2.559703 1_555
Cr1_5 Mn0_7 2.559703 1_545
Cr1_5 Mn0_1 2.559703 1_555
Cr1_5 Mn0_3 2.559703 1_545
Cr1_6 Mn0_6 2.559703 1_555
Cr1_6 Mn0_2 2.559703 1_555
Cr1_6 Mn0_4 2.559703 1_555
Cr1_6 Mn0_0 2.559703 1_555
Cr1_7 Mn0_7 2.559703 1_555
Cr1_7 Mn0_3 2.559703 1_555
Cr1_7 Mn0_5 2.559703 1_555
Cr1_7 Mn0_1 2.559703 1_555
