# generated using pymatgen
data_SrCoF5
_symmetry_space_group_name_H-M   'P 1'
_cell_length_a   7.35619500
_cell_length_b   7.06136200
_cell_length_c   14.92272654
_cell_angle_alpha   85.47069676
_cell_angle_beta   90.00000000
_cell_angle_gamma   90.00000000
_symmetry_Int_Tables_number   1
_chemical_formula_structural   SrCoF5
_chemical_formula_sum   'Sr8 Co8 F40'
_cell_volume   772.73662899
_cell_formula_units_Z   8
loop_
 _symmetry_equiv_pos_site_id
 _symmetry_equiv_pos_as_xyz
  1  'x, y, z'
loop_
 _atom_site_type_symbol
 _atom_site_label
 _atom_site_symmetry_multiplicity
 _atom_site_fract_x
 _atom_site_fract_y
 _atom_site_fract_z
 _atom_site_occupancy
  Sr  Sr0  1  0.34543500  0.99692500  0.13549000  1
  Sr  Sr1  1  0.65456500  0.00307500  0.86451000  1
  Sr  Sr2  1  0.84543500  0.00307500  0.36451000  1
  Sr  Sr3  1  0.15456500  0.99692500  0.63549000  1
  Sr  Sr4  1  0.84229300  0.30974500  0.08602500  1
  Sr  Sr5  1  0.15770700  0.69025500  0.91397500  1
  Sr  Sr6  1  0.34229300  0.69025500  0.41397500  1
  Sr  Sr7  1  0.65770700  0.30974500  0.58602500  1
  Co  Co0  1  0.87842400  0.50647300  0.33725700  1
  Co  Co1  1  0.12157600  0.49352700  0.66274300  1
  Co  Co2  1  0.37842400  0.49352700  0.16274300  1
  Co  Co3  1  0.62157600  0.50647300  0.83725700  1
  Co  Co4  1  0.81595300  0.80855500  0.12641900  1
  Co  Co5  1  0.18404700  0.19144500  0.87358100  1
  Co  Co6  1  0.31595300  0.19144500  0.37358100  1
  Co  Co7  1  0.68404700  0.80855500  0.62641900  1
  F  F0  1  0.30421600  0.67959500  0.06757200  1
  F  F1  1  0.69578400  0.32040500  0.93242800  1
  F  F2  1  0.80421600  0.32040500  0.43242800  1
  F  F3  1  0.19578400  0.67959500  0.56757200  1
  F  F4  1  0.91701000  0.65563800  0.04097600  1
  F  F5  1  0.08299000  0.34436200  0.95902400  1
  F  F6  1  0.41701000  0.34436200  0.45902400  1
  F  F7  1  0.58299000  0.65563800  0.54097600  1
  F  F8  1  0.49138600  0.99740900  0.61003500  1
  F  F9  1  0.50861400  0.00259100  0.38996500  1
  F  F10  1  0.99138600  0.00259100  0.88996500  1
  F  F11  1  0.00861400  0.99740900  0.11003500  1
  F  F12  1  0.69631500  0.96742800  0.20659400  1
  F  F13  1  0.30368500  0.03257200  0.79340600  1
  F  F14  1  0.19631500  0.03257200  0.29340600  1
  F  F15  1  0.80368500  0.96742800  0.70659400  1
  F  F16  1  0.94739500  0.68545700  0.22816600  1
  F  F17  1  0.05260500  0.31454300  0.77183400  1
  F  F18  1  0.44739500  0.31454300  0.27183400  1
  F  F19  1  0.55260500  0.68545700  0.72816600  1
  F  F20  1  0.68003200  0.95727600  0.03441900  1
  F  F21  1  0.31996800  0.04272400  0.96558100  1
  F  F22  1  0.18003200  0.04272400  0.46558100  1
  F  F23  1  0.81996800  0.95727600  0.53441900  1
  F  F24  1  0.67041500  0.65711200  0.35086900  1
  F  F25  1  0.32958500  0.34288800  0.64913100  1
  F  F26  1  0.17041500  0.34288800  0.14913100  1
  F  F27  1  0.82958500  0.65711200  0.85086900  1
  F  F28  1  0.83873500  0.31636400  0.25946600  1
  F  F29  1  0.16126500  0.68363600  0.74053400  1
  F  F30  1  0.33873500  0.68363600  0.24053400  1
  F  F31  1  0.66126500  0.31636400  0.75946600  1
  F  F32  1  0.49882800  0.30481300  0.09841600  1
  F  F33  1  0.50117200  0.69518700  0.90158400  1
  F  F34  1  0.99882800  0.69518700  0.40158400  1
  F  F35  1  0.00117200  0.30481300  0.59841600  1
  F  F36  1  0.63398700  0.60605900  0.14674100  1
  F  F37  1  0.36601300  0.39394100  0.85325900  1
  F  F38  1  0.13398700  0.39394100  0.35325900  1
  F  F39  1  0.86601300  0.60605900  0.64674100  1
loop_
_geom_bond_atom_site_label_1
_geom_bond_atom_site_label_2
_geom_bond_distance
_geom_bond_site_symmetry_2
Co0 F28 1.865760 1_555
Co0 F24 1.883681 1_555
Co0 F34 1.919313 1_555
Co0 F2 1.935613 1_555
Co0 F16 2.044506 1_555
Co0 F38 2.047628 1_655
Co1 F29 1.865760 1_555
Co1 F25 1.883681 1_555
Co1 F35 1.919313 1_555
Co1 F3 1.935613 1_555
Co1 F17 2.044506 1_555
Co1 F39 2.047628 1_455
Co2 F30 1.865760 1_555
Co2 F26 1.883681 1_555
Co2 F32 1.919313 1_555
Co2 F0 1.935613 1_555
Co2 F18 2.044506 1_555
Co2 F36 2.047628 1_555
Co3 F31 1.865760 1_555
Co3 F27 1.883681 1_555
Co3 F33 1.919313 1_555
Co3 F1 1.935613 1_555
Co3 F19 2.044506 1_555
Co3 F37 2.047628 1_555
Co4 F4 1.887271 1_555
Co4 F12 1.917431 1_555
Co4 F20 1.938996 1_555
Co4 F16 1.946128 1_555
Co4 F11 1.948149 1_655
Co4 F36 1.964657 1_555
Co5 F5 1.887271 1_555
Co5 F13 1.917431 1_555
Co5 F21 1.938996 1_555
Co5 F17 1.946128 1_555
Co5 F10 1.948149 1_455
Co5 F37 1.964657 1_555
Co6 F6 1.887271 1_555
Co6 F14 1.917431 1_555
Co6 F22 1.938996 1_555
Co6 F18 1.946128 1_555
Co6 F9 1.948149 1_555
Co6 F38 1.964657 1_555
Co7 F7 1.887271 1_555
Co7 F15 1.917431 1_555
Co7 F23 1.938996 1_555
Co7 F19 1.946128 1_555
Co7 F8 1.948149 1_555
Co7 F39 1.964657 1_555
F0 Sr5 2.528560 1_554
F0 Sr0 2.549306 1_555
F1 Sr4 2.528560 1_556
F1 Sr1 2.549306 1_555
F2 Sr7 2.528560 1_555
F2 Sr2 2.549306 1_555
F3 Sr6 2.528560 1_555
F3 Sr3 2.549306 1_555
F4 Sr4 2.541728 1_555
F4 Sr5 2.591032 1_654
F5 Sr5 2.541728 1_555
F5 Sr4 2.591032 1_456
F6 Sr6 2.541728 1_555
F6 Sr7 2.591032 1_555
F7 Sr7 2.541728 1_555
F7 Sr6 2.591032 1_555
F8 Sr3 2.506631 1_555
F8 Sr7 2.522856 1_565
F9 Sr2 2.506631 1_555
F9 Sr6 2.522856 1_545
F10 Sr1 2.506631 1_555
F10 Sr5 2.522856 1_645
F11 Sr0 2.506631 1_555
F11 Sr4 2.522856 1_465
F12 Sr2 2.629378 1_565
F12 Sr0 2.792245 1_555
F12 Sr4 3.089726 1_565
F13 Sr3 2.629378 1_545
F13 Sr1 2.792245 1_555
F13 Sr5 3.089726 1_545
F14 Sr0 2.629378 1_545
F14 Sr2 2.792245 1_455
F14 Sr6 3.089726 1_545
F15 Sr1 2.629378 1_565
F15 Sr3 2.792245 1_655
F15 Sr7 3.089726 1_565
F20 Sr1 2.537512 1_564
F20 Sr0 2.911737 1_555
F20 Sr4 2.918081 1_565
F21 Sr0 2.537512 1_546
F21 Sr1 2.911737 1_555
F21 Sr5 2.918081 1_545
F22 Sr3 2.537512 1_545
F22 Sr2 2.911737 1_455
F22 Sr6 2.918081 1_545
F23 Sr2 2.537512 1_565
F23 Sr3 2.911737 1_655
F23 Sr7 2.918081 1_565
F24 Sr6 2.608159 1_555
F24 Sr2 2.783108 1_565
F25 Sr7 2.608159 1_555
F25 Sr3 2.783108 1_545
F26 Sr4 2.608159 1_455
F26 Sr0 2.783108 1_545
F27 Sr5 2.608159 1_655
F27 Sr1 2.783108 1_565
F28 Sr4 2.592454 1_555
F28 Sr2 2.608824 1_555
F29 Sr5 2.592454 1_555
F29 Sr3 2.608824 1_555
F30 Sr6 2.592454 1_555
F30 Sr0 2.608824 1_555
F31 Sr7 2.592454 1_555
F31 Sr1 2.608824 1_555
F32 Sr0 2.473079 1_545
F32 Sr4 2.533391 1_555
F33 Sr1 2.473079 1_565
F33 Sr5 2.533391 1_555
F34 Sr2 2.473079 1_565
F34 Sr6 2.533391 1_655
F35 Sr3 2.473079 1_545
F35 Sr7 2.533391 1_455
F36 Sr4 2.801154 1_555
F37 Sr5 2.801154 1_555
F38 Sr6 2.801154 1_555
F39 Sr7 2.801154 1_555
