# generated using pymatgen
data_SrMg2(GaN2)2
_symmetry_space_group_name_H-M   'P 1'
_cell_length_a   3.34544475
_cell_length_b   6.10961640
_cell_length_c   6.13250226
_cell_angle_alpha   94.22109954
_cell_angle_beta   105.82876887
_cell_angle_gamma   74.11037342
_symmetry_Int_Tables_number   1
_chemical_formula_structural   SrMg2(GaN2)2
_chemical_formula_sum   'Sr1 Mg2 Ga2 N4'
_cell_volume   115.98387113
_cell_formula_units_Z   1
loop_
 _symmetry_equiv_pos_site_id
 _symmetry_equiv_pos_as_xyz
  1  'x, y, z'
loop_
 _atom_site_type_symbol
 _atom_site_label
 _atom_site_symmetry_multiplicity
 _atom_site_fract_x
 _atom_site_fract_y
 _atom_site_fract_z
 _atom_site_occupancy
  Sr  Sr0  1  0.99694379  0.00932813  0.00321571  1
  Mg  Mg0  1  0.82208454  0.54244056  0.18661065  1
  Mg  Mg1  1  0.63034555  0.19468346  0.45537457  1
  Ga  Ga0  1  0.19167879  0.44292552  0.82628410  1
  Ga  Ga1  1  0.35861679  0.83035516  0.54758774  1
  N  N0  1  0.58938314  0.63340954  0.81217481  1
  N  N1  1  0.39994511  0.34637354  0.14626376  1
  N  N2  1  0.76458525  0.83754543  0.36671493  1
  N  N3  1  0.24641704  0.16293866  0.65577373  1
loop_
_geom_bond_atom_site_label_1
_geom_bond_atom_site_label_2
_geom_bond_distance
_geom_bond_site_symmetry_2
Mg0 N2 2.034815 1_555
Mg0 N1 2.045161 1_555
Mg0 N1 2.045164 1_655
Mg0 N0 2.272308 1_554
Mg1 N1 2.028986 1_555
Mg1 N3 2.056751 1_655
Mg1 N3 2.056754 1_555
Mg1 N2 2.163403 1_545
Ga0 N3 1.929440 1_555
Ga0 N1 1.970649 1_556
Ga0 N0 2.014342 1_455
Ga0 N0 2.014347 1_555
Ga1 N0 1.942167 1_555
Ga1 N2 1.984559 1_555
Ga1 N2 1.984559 1_455
Ga1 N3 2.056617 1_565
N0 Sr0 2.992276 1_566
N0 Sr0 2.992278 1_466
N1 Sr0 2.727032 1_455
N1 Sr0 2.727032 1_555
N2 Sr0 2.900235 1_565
N2 Sr0 2.900237 1_465
N3 Sr0 2.794734 1_456
N3 Sr0 2.794736 1_556
