# generated using pymatgen
data_CeMg6V
_symmetry_space_group_name_H-M   'P 1'
_cell_length_a   6.57045129
_cell_length_b   6.57045129
_cell_length_c   5.15905800
_cell_angle_alpha   90.00000000
_cell_angle_beta   90.00000000
_cell_angle_gamma   125.29148913
_symmetry_Int_Tables_number   1
_chemical_formula_structural   CeMg6V
_chemical_formula_sum   'Ce1 Mg6 V1'
_cell_volume   181.78994608
_cell_formula_units_Z   1
loop_
 _symmetry_equiv_pos_site_id
 _symmetry_equiv_pos_as_xyz
  1  'x, y, z'
loop_
 _atom_site_type_symbol
 _atom_site_label
 _atom_site_symmetry_multiplicity
 _atom_site_fract_x
 _atom_site_fract_y
 _atom_site_fract_z
 _atom_site_occupancy
  Ce  Ce0  1  0.32495000  0.67505000  0.50000000  1
  Mg  Mg0  1  0.32547400  0.17224700  0.50000000  1
  Mg  Mg1  1  0.82775300  0.67452600  0.50000000  1
  Mg  Mg2  1  0.16217000  0.32050000  0.00000000  1
  Mg  Mg3  1  0.67950000  0.83783000  0.00000000  1
  Mg  Mg4  1  0.68313700  0.31686300  0.00000000  1
  Mg  Mg5  1  0.16386100  0.83613900  0.00000000  1
  V  V0  1  0.83315800  0.16684200  0.50000000  1
loop_
_geom_bond_atom_site_label_1
_geom_bond_atom_site_label_2
_geom_bond_distance
_geom_bond_site_symmetry_2
Ce0 V0 3.020582 1_565
Ce0 V0 3.020582 1_455
Ce0 Mg5 3.192013 1_555
Ce0 Mg5 3.192013 1_556
Ce0 Mg3 3.216487 1_556
Ce0 Mg2 3.216487 1_556
Ce0 Mg2 3.216487 1_555
Ce0 Mg3 3.216487 1_555
Ce0 Mg0 3.264821 1_565
Ce0 Mg1 3.264821 1_455
Ce0 Mg1 3.305633 1_555
Ce0 Mg0 3.305633 1_555
Mg0 Mg1 3.005301 1_445
Mg0 Mg1 3.032823 1_555
Mg0 Mg5 3.154185 1_545
Mg0 Mg5 3.154185 1_546
Mg0 Mg2 3.156229 1_556
Mg0 Mg2 3.156229 1_555
Mg0 V0 3.214352 1_455
Mg0 Mg4 3.240254 1_555
Mg0 Mg4 3.240254 1_556
Mg0 V0 3.356355 1_555
Mg1 Mg5 3.154185 1_655
Mg1 Mg5 3.154185 1_656
Mg1 Mg3 3.156229 1_555
Mg1 Mg3 3.156229 1_556
Mg1 V0 3.214352 1_565
Mg1 Mg4 3.240254 1_556
Mg1 Mg4 3.240254 1_555
Mg1 V0 3.356355 1_555
Mg2 Mg3 2.914421 1_445
Mg2 Mg3 3.123703 1_555
Mg2 Mg4 3.133718 1_455
Mg2 V0 3.134426 1_455
Mg2 V0 3.134426 1_454
Mg2 Mg5 3.188902 1_545
Mg2 Mg5 3.381574 1_555
Mg2 Mg4 3.436850 1_555
Mg3 Mg4 3.133718 1_565
Mg3 V0 3.134426 1_564
Mg3 V0 3.134426 1_565
Mg3 Mg5 3.188902 1_655
Mg3 Mg5 3.381574 1_555
Mg3 Mg4 3.436850 1_555
Mg4 Mg5 3.027433 1_655
Mg4 Mg5 3.027433 1_545
Mg4 V0 3.117672 1_555
Mg4 V0 3.117672 1_554
