# generated using pymatgen
data_LiNbN2
_symmetry_space_group_name_H-M   'P 1'
_cell_length_a   6.13353759
_cell_length_b   7.36250723
_cell_length_c   4.24402026
_cell_angle_alpha   90.00000000
_cell_angle_beta   90.00000000
_cell_angle_gamma   90.00000000
_symmetry_Int_Tables_number   1
_chemical_formula_structural   LiNbN2
_chemical_formula_sum   'Li4 Nb4 N8'
_cell_volume   191.65237874
_cell_formula_units_Z   4
loop_
 _symmetry_equiv_pos_site_id
 _symmetry_equiv_pos_as_xyz
  1  'x, y, z'
loop_
 _atom_site_type_symbol
 _atom_site_label
 _atom_site_symmetry_multiplicity
 _atom_site_fract_x
 _atom_site_fract_y
 _atom_site_fract_z
 _atom_site_occupancy
  Li  Li0  1  0.57697804  0.39240879  0.94264668  1
  Li  Li1  1  0.42302196  0.60759121  0.44264668  1
  Li  Li2  1  0.92302196  0.89240879  0.44264668  1
  Li  Li3  1  0.07697804  0.10759121  0.94264668  1
  Nb  Nb0  1  0.58205765  0.86552135  0.94234035  1
  Nb  Nb1  1  0.41794235  0.13447865  0.44234035  1
  Nb  Nb2  1  0.91794235  0.36552135  0.44234035  1
  Nb  Nb3  1  0.08205765  0.63447865  0.94234035  1
  N  N0  1  0.58978118  0.35514693  0.44250180  1
  N  N1  1  0.41021882  0.64485307  0.94250180  1
  N  N2  1  0.91021882  0.85514693  0.94250180  1
  N  N3  1  0.08978118  0.14485307  0.44250180  1
  N  N4  1  0.57975187  0.89655940  0.44251117  1
  N  N5  1  0.42024813  0.10344060  0.94251117  1
  N  N6  1  0.92024813  0.39655940  0.94251117  1
  N  N7  1  0.07975187  0.60344060  0.44251117  1
loop_
_geom_bond_atom_site_label_1
_geom_bond_atom_site_label_2
_geom_bond_distance
_geom_bond_site_symmetry_2
Li0 N6 2.105682 1_555
Li0 N1 2.121473 1_555
Li0 N0 2.140502 1_556
Li0 N0 2.141720 1_555
Li0 N5 2.334631 1_555
Li1 N7 2.105682 1_555
Li1 N0 2.121473 1_555
Li1 N1 2.140502 1_555
Li1 N1 2.141720 1_554
Li1 N4 2.334631 1_555
Li2 N4 2.105682 1_555
Li2 N3 2.121473 1_665
Li2 N2 2.140502 1_555
Li2 N2 2.141720 1_554
Li2 N7 2.334631 1_655
Li3 N5 2.105682 1_555
Li3 N2 2.121473 1_445
Li3 N3 2.140502 1_556
Li3 N3 2.141720 1_555
Li3 N6 2.334631 1_455
N0 Nb1 1.936603 1_555
N0 Nb2 2.014238 1_555
N1 Nb0 1.936603 1_555
N1 Nb3 2.014238 1_555
N2 Nb3 1.936603 1_655
N2 Nb0 2.014238 1_555
N3 Nb2 1.936603 1_455
N3 Nb1 2.014238 1_555
N4 Nb1 2.013300 1_565
N4 Nb0 2.133605 1_555
N4 Nb0 2.135047 1_554
N5 Nb0 2.013300 1_545
N5 Nb1 2.133605 1_556
N5 Nb1 2.135047 1_555
N6 Nb3 2.013300 1_655
N6 Nb2 2.133605 1_556
N6 Nb2 2.135047 1_555
N7 Nb2 2.013300 1_455
N7 Nb3 2.133605 1_555
N7 Nb3 2.135047 1_554
