# generated using pymatgen
data_Ba4YCu(WO6)2
_symmetry_space_group_name_H-M   'P 1'
_cell_length_a   5.96643600
_cell_length_b   5.96643600
_cell_length_c   8.48870600
_cell_angle_alpha   90.00000000
_cell_angle_beta   90.00000000
_cell_angle_gamma   90.00000000
_symmetry_Int_Tables_number   1
_chemical_formula_structural   Ba4YCu(WO6)2
_chemical_formula_sum   'Ba4 Y1 Cu1 W2 O12'
_cell_volume   302.18399975
_cell_formula_units_Z   1
loop_
 _symmetry_equiv_pos_site_id
 _symmetry_equiv_pos_as_xyz
  1  'x, y, z'
loop_
 _atom_site_type_symbol
 _atom_site_label
 _atom_site_symmetry_multiplicity
 _atom_site_fract_x
 _atom_site_fract_y
 _atom_site_fract_z
 _atom_site_occupancy
  Ba  Ba0  1  0.50000000  0.00000000  0.73386500  1
  Ba  Ba1  1  0.00000000  0.50000000  0.26613500  1
  Ba  Ba2  1  0.50000000  0.00000000  0.26613500  1
  Ba  Ba3  1  0.00000000  0.50000000  0.73386500  1
  Y  Y0  1  0.50000000  0.50000000  0.00000000  1
  Cu  Cu0  1  0.00000000  0.00000000  0.50000000  1
  W  W0  1  0.00000000  0.00000000  0.00000000  1
  W  W1  1  0.50000000  0.50000000  0.50000000  1
  O  O0  1  0.00000000  0.00000000  0.77187700  1
  O  O1  1  0.50000000  0.50000000  0.26486700  1
  O  O2  1  0.73081900  0.73081900  0.50000000  1
  O  O3  1  0.23433900  0.23433900  0.00000000  1
  O  O4  1  0.73081900  0.26918100  0.50000000  1
  O  O5  1  0.23433900  0.76566100  0.00000000  1
  O  O6  1  0.00000000  0.00000000  0.22812300  1
  O  O7  1  0.50000000  0.50000000  0.73513300  1
  O  O8  1  0.26918100  0.26918100  0.50000000  1
  O  O9  1  0.76566100  0.76566100  0.00000000  1
  O  O10  1  0.26918100  0.73081900  0.50000000  1
  O  O11  1  0.76566100  0.23433900  0.00000000  1
loop_
_geom_bond_atom_site_label_1
_geom_bond_atom_site_label_2
_geom_bond_distance
_geom_bond_site_symmetry_2
Ba0 O8 2.901216 1_555
Ba0 O10 2.901216 1_545
Ba0 O2 2.901216 1_545
Ba0 O4 2.901216 1_555
Ba0 O7 2.983237 1_555
Ba0 O7 2.983237 1_545
Ba0 O0 3.000618 1_555
Ba0 O0 3.000618 1_655
Ba0 O11 3.093700 1_556
Ba0 O3 3.093700 1_556
Ba0 O5 3.093700 1_546
Ba0 O9 3.093700 1_546
Ba1 O2 2.901216 1_455
Ba1 O8 2.901216 1_555
Ba1 O10 2.901216 1_555
Ba1 O4 2.901216 1_455
Ba1 O1 2.983237 1_455
Ba1 O1 2.983237 1_555
Ba1 O6 3.000618 1_555
Ba1 O6 3.000618 1_565
Ba1 O11 3.093700 1_455
Ba1 O3 3.093700 1_555
Ba1 O9 3.093700 1_455
Ba1 O5 3.093700 1_555
Ba2 O8 2.901216 1_555
Ba2 O10 2.901216 1_545
Ba2 O2 2.901216 1_545
Ba2 O4 2.901216 1_555
Ba2 O1 2.983237 1_555
Ba2 O1 2.983237 1_545
Ba2 O6 3.000618 1_555
Ba2 O6 3.000618 1_655
Ba2 O3 3.093700 1_555
Ba2 O5 3.093700 1_545
Ba2 O9 3.093700 1_545
Ba2 O11 3.093700 1_555
Ba3 O2 2.901216 1_455
Ba3 O8 2.901216 1_555
Ba3 O10 2.901216 1_555
Ba3 O4 2.901216 1_455
Ba3 O7 2.983237 1_555
Ba3 O7 2.983237 1_455
Ba3 O0 3.000618 1_555
Ba3 O0 3.000618 1_565
Ba3 O3 3.093700 1_556
Ba3 O11 3.093700 1_456
Ba3 O5 3.093700 1_556
Ba3 O9 3.093700 1_456
Cu0 O4 2.271299 1_455
Cu0 O2 2.271299 1_445
Cu0 O8 2.271299 1_555
Cu0 O10 2.271299 1_545
Cu0 O6 2.307884 1_555
Cu0 O0 2.307884 1_555
O0 W0 1.936469 1_556
O1 W1 1.995975 1_555
O1 Y0 2.248378 1_555
O2 W1 1.947608 1_555
O3 W0 1.977309 1_555
O3 Y0 2.241598 1_555
O4 W1 1.947608 1_555
O5 W0 1.977309 1_565
O5 Y0 2.241598 1_555
O6 W0 1.936469 1_555
O7 W1 1.995975 1_555
O7 Y0 2.248378 1_556
O8 W1 1.947608 1_555
O9 W0 1.977309 1_665
O9 Y0 2.241598 1_555
O10 W1 1.947608 1_555
O11 W0 1.977309 1_655
O11 Y0 2.241598 1_555
