# generated using pymatgen
data_TiBi8W(BrO8)2
_symmetry_space_group_name_H-M   'P 1'
_cell_length_a   15.21690326
_cell_length_b   15.21690326
_cell_length_c   5.54212136
_cell_angle_alpha   80.04403590
_cell_angle_beta   80.04403590
_cell_angle_gamma   21.23505974
_symmetry_Int_Tables_number   1
_chemical_formula_structural   TiBi8W(BrO8)2
_chemical_formula_sum   'Ti1 Bi8 W1 Br2 O16'
_cell_volume   457.55780413
_cell_formula_units_Z   1
loop_
 _symmetry_equiv_pos_site_id
 _symmetry_equiv_pos_as_xyz
  1  'x, y, z'
loop_
 _atom_site_type_symbol
 _atom_site_label
 _atom_site_symmetry_multiplicity
 _atom_site_fract_x
 _atom_site_fract_y
 _atom_site_fract_z
 _atom_site_occupancy
  Ti  Ti0  1  0.38575700  0.61424300  0.50000000  1
  Bi  Bi0  1  0.56751400  0.78745600  0.31414500  1
  Bi  Bi1  1  0.21254400  0.43248600  0.68585500  1
  Bi  Bi2  1  0.71017900  0.93536700  0.16707900  1
  Bi  Bi3  1  0.06463300  0.28982100  0.83292100  1
  Bi  Bi4  1  0.03229800  0.14384600  0.42737500  1
  Bi  Bi5  1  0.85615400  0.96770200  0.57262500  1
  Bi  Bi6  1  0.33736900  0.48126200  0.12172800  1
  Bi  Bi7  1  0.51873800  0.66263100  0.87827200  1
  W  W0  1  0.86044400  0.13955600  0.00000000  1
  Br  Br0  1  0.12983100  0.36945100  0.24881500  1
  Br  Br1  1  0.63054900  0.87016900  0.75118500  1
  O  O0  1  0.37581300  0.74937100  0.52480900  1
  O  O1  1  0.25062900  0.62418700  0.47519100  1
  O  O2  1  0.75256900  0.11988900  0.15282400  1
  O  O3  1  0.88011100  0.24743100  0.84717600  1
  O  O4  1  0.49023900  0.22960700  0.90028100  1
  O  O5  1  0.77039300  0.50976100  0.09971900  1
  O  O6  1  0.27129700  0.00581500  0.11754700  1
  O  O7  1  0.99418500  0.72870300  0.88245300  1
  O  O8  1  0.77586000  0.50721100  0.60275600  1
  O  O9  1  0.49278900  0.22414000  0.39724400  1
  O  O10  1  0.99579400  0.72287800  0.38531500  1
  O  O11  1  0.27712200  0.00420600  0.61468500  1
  O  O12  1  0.06544400  0.90591500  0.77177800  1
  O  O13  1  0.09408500  0.93455600  0.22822200  1
  O  O14  1  0.60364200  0.42198100  0.23473900  1
  O  O15  1  0.57801900  0.39635800  0.76526100  1
loop_
_geom_bond_atom_site_label_1
_geom_bond_atom_site_label_2
_geom_bond_distance
_geom_bond_site_symmetry_2
Bi0 O5 2.224335 1_555
Bi0 O8 2.233001 1_555
Bi0 O6 2.251893 1_565
Bi0 O11 2.315994 1_565
Bi1 O4 2.224335 1_555
Bi1 O9 2.233001 1_555
Bi1 O7 2.251893 1_455
Bi1 O10 2.315994 1_455
Bi2 O4 2.218438 1_564
Bi2 O10 2.252730 1_555
Bi2 O7 2.253225 1_554
Bi2 O9 2.293492 1_565
Bi3 O5 2.218438 1_456
Bi3 O11 2.252730 1_555
Bi3 O6 2.253225 1_556
Bi3 O8 2.293492 1_455
Bi4 O0 2.238088 1_545
Bi4 O11 2.299782 1_555
Bi4 O6 2.331117 1_555
Bi4 O3 2.420886 1_455
Bi4 O8 2.658764 1_455
Bi4 O13 2.742156 1_545
Bi4 O5 2.796807 1_455
Bi5 O1 2.238088 1_655
Bi5 O10 2.299782 1_555
Bi5 O7 2.331117 1_555
Bi5 O2 2.420886 1_565
Bi5 O9 2.658764 1_565
Bi5 O12 2.742156 1_655
Bi5 O4 2.796807 1_565
Bi6 O9 2.272892 1_555
Bi6 O2 2.338230 1_555
Bi6 O1 2.353153 1_555
Bi6 O4 2.369268 1_554
Bi6 O10 2.504876 1_455
Bi6 O7 2.686878 1_454
Bi7 O8 2.272892 1_555
Bi7 O3 2.338230 1_555
Bi7 O0 2.353153 1_555
Bi7 O5 2.369268 1_556
Bi7 O11 2.504876 1_565
Bi7 O6 2.686878 1_566
O0 Ti0 1.944329 1_555
O1 Ti0 1.944329 1_555
O2 W0 1.961870 1_555
O3 W0 1.961870 1_556
O12 W0 1.867195 1_466
O12 Ti0 2.273624 1_555
O13 W0 1.867195 1_465
O13 Ti0 2.273624 1_555
O14 Ti0 1.852636 1_555
O14 W0 2.073751 1_555
O15 Ti0 1.852636 1_555
O15 W0 2.073751 1_556
