# generated using pymatgen
data_NaLiCoPO4F
_symmetry_space_group_name_H-M   'P 1'
_cell_length_a   6.35230357
_cell_length_b   11.02338087
_cell_length_c   11.45747780
_cell_angle_alpha   90.00000000
_cell_angle_beta   90.00000000
_cell_angle_gamma   90.00000000
_symmetry_Int_Tables_number   1
_chemical_formula_structural   NaLiCoPO4F
_chemical_formula_sum   'Na8 Li8 Co8 P8 O32 F8'
_cell_volume   802.29684037
_cell_formula_units_Z   8
loop_
 _symmetry_equiv_pos_site_id
 _symmetry_equiv_pos_as_xyz
  1  'x, y, z'
loop_
 _atom_site_type_symbol
 _atom_site_label
 _atom_site_symmetry_multiplicity
 _atom_site_fract_x
 _atom_site_fract_y
 _atom_site_fract_z
 _atom_site_occupancy
  Na  Na0  1  0.99200361  0.27670989  0.84661608  1
  Na  Na1  1  0.50799639  0.77670989  0.65338392  1
  Na  Na2  1  0.49200361  0.72329011  0.15338392  1
  Na  Na3  1  0.00799639  0.22329011  0.34661608  1
  Na  Na4  1  0.00799639  0.72329011  0.15338392  1
  Na  Na5  1  0.49200361  0.22329011  0.34661608  1
  Na  Na6  1  0.50799639  0.27670989  0.84661608  1
  Na  Na7  1  0.99200361  0.77670989  0.65338392  1
  Li  Li0  1  0.75000000  0.22621137  0.09034536  1
  Li  Li1  1  0.75000000  0.72621137  0.40965464  1
  Li  Li2  1  0.25000000  0.77378863  0.90965464  1
  Li  Li3  1  0.25000000  0.27378863  0.59034536  1
  Li  Li4  1  0.75000000  0.55069997  0.76819319  1
  Li  Li5  1  0.75000000  0.05069997  0.73180681  1
  Li  Li6  1  0.25000000  0.44930003  0.23180681  1
  Li  Li7  1  0.25000000  0.94930003  0.26819319  1
  Co  Co0  1  -0.00000000  0.50000000  0.50000000  1
  Co  Co1  1  0.50000000  -0.00000000  -0.00000000  1
  Co  Co2  1  0.50000000  0.50000000  0.50000000  1
  Co  Co3  1  -0.00000000  -0.00000000  -0.00000000  1
  Co  Co4  1  -0.00000000  0.50000000  -0.00000000  1
  Co  Co5  1  0.50000000  -0.00000000  0.50000000  1
  Co  Co6  1  0.50000000  0.50000000  -0.00000000  1
  Co  Co7  1  -0.00000000  -0.00000000  0.50000000  1
  P  P0  1  0.75000000  0.45812619  0.24257162  1
  P  P1  1  0.75000000  0.95812619  0.25742838  1
  P  P2  1  0.25000000  0.54187381  0.75742838  1
  P  P3  1  0.25000000  0.04187381  0.74257162  1
  P  P4  1  0.75000000  0.25328217  0.57844978  1
  P  P5  1  0.75000000  0.75328217  0.92155022  1
  P  P6  1  0.25000000  0.74671783  0.42155022  1
  P  P7  1  0.25000000  0.24671783  0.07844978  1
  O  O0  1  0.95187215  0.31966103  0.53549828  1
  O  O1  1  0.54812785  0.81966103  0.96450172  1
  O  O2  1  0.45187215  0.68033897  0.46450172  1
  O  O3  1  0.04812785  0.18033897  0.03549828  1
  O  O4  1  0.04812785  0.68033897  0.46450172  1
  O  O5  1  0.45187215  0.18033897  0.03549828  1
  O  O6  1  0.54812785  0.31966103  0.53549828  1
  O  O7  1  0.95187215  0.81966103  0.96450172  1
  O  O8  1  0.75000000  0.23390472  0.70997367  1
  O  O9  1  0.75000000  0.73390472  0.79002633  1
  O  O10  1  0.25000000  0.76609528  0.29002633  1
  O  O11  1  0.25000000  0.26609528  0.20997367  1
  O  O12  1  0.75000000  0.31841159  0.24171446  1
  O  O13  1  0.75000000  0.81841159  0.25828554  1
  O  O14  1  0.25000000  0.68158841  0.75828554  1
  O  O15  1  0.25000000  0.18158841  0.74171446  1
  O  O16  1  0.75000000  0.12462951  0.51610780  1
  O  O17  1  0.75000000  0.62462951  0.98389220  1
  O  O18  1  0.25000000  0.87537049  0.48389220  1
  O  O19  1  0.25000000  0.37537049  0.01610780  1
  O  O20  1  0.75000000  0.00808481  0.12880808  1
  O  O21  1  0.75000000  0.50808481  0.37119192  1
  O  O22  1  0.25000000  0.99191519  0.87119192  1
  O  O23  1  0.25000000  0.49191519  0.62880808  1
  O  O24  1  0.45258753  0.49257283  0.81993534  1
  O  O25  1  0.04741247  0.99257283  0.68006466  1
  O  O26  1  0.95258753  0.50742717  0.18006466  1
  O  O27  1  0.54741247  0.00742717  0.31993534  1
  O  O28  1  0.54741247  0.50742717  0.18006466  1
  O  O29  1  0.95258753  0.00742717  0.31993534  1
  O  O30  1  0.04741247  0.49257283  0.81993534  1
  O  O31  1  0.45258753  0.99257283  0.68006466  1
  F  F0  1  0.75000000  0.37219718  0.97318137  1
  F  F1  1  0.75000000  0.87219718  0.52681863  1
  F  F2  1  0.25000000  0.62780282  0.02681863  1
  F  F3  1  0.25000000  0.12780282  0.47318137  1
  F  F4  1  0.75000000  0.05895227  0.89395736  1
  F  F5  1  0.75000000  0.55895227  0.60604264  1
  F  F6  1  0.25000000  0.94104773  0.10604264  1
  F  F7  1  0.25000000  0.44104773  0.39395736  1
loop_
_geom_bond_atom_site_label_1
_geom_bond_atom_site_label_2
_geom_bond_distance
_geom_bond_site_symmetry_2
Na0 O8 2.244307 1_555
Na0 O15 2.286911 1_655
Na0 O30 2.424777 1_655
Na0 O3 2.437016 1_656
Na1 O9 2.244307 1_555
Na1 O14 2.286911 1_555
Na1 O31 2.424777 1_555
Na1 O2 2.437016 1_555
Na2 O10 2.244307 1_555
Na2 O13 2.286911 1_555
Na2 O28 2.424777 1_555
Na2 O1 2.437016 1_554
Na3 O11 2.244307 1_555
Na3 O12 2.286911 1_455
Na3 O29 2.424777 1_455
Na3 O0 2.437016 1_455
Na4 O10 2.244307 1_555
Na4 O13 2.286911 1_455
Na4 O26 2.424777 1_455
Na4 O7 2.437016 1_454
Na5 O11 2.244307 1_555
Na5 O12 2.286911 1_555
Na5 O27 2.424777 1_555
Na5 O6 2.437016 1_555
Na6 O8 2.244307 1_555
Na6 O15 2.286911 1_555
Na6 O24 2.424777 1_555
Na6 O5 2.437016 1_556
Na7 O9 2.244307 1_555
Na7 O14 2.286911 1_655
Na7 O25 2.424777 1_655
Na7 O4 2.437016 1_655
Li0 O12 2.010176 1_555
Li0 O3 2.058415 1_655
Li0 O5 2.058415 1_555
Li0 O20 2.444542 1_555
Li1 O13 2.010176 1_555
Li1 O4 2.058415 1_655
Li1 O2 2.058415 1_555
Li1 O21 2.444542 1_555
Li2 O14 2.010176 1_555
Li2 O7 2.058415 1_455
Li2 O1 2.058415 1_555
Li2 O22 2.444542 1_555
Li3 O15 2.010176 1_555
Li3 O0 2.058415 1_455
Li3 O6 2.058415 1_555
Li3 O23 2.444542 1_555
Li4 O9 2.034970 1_555
Li4 O24 2.081179 1_555
Li4 O30 2.081179 1_655
Li5 O8 2.034970 1_555
Li5 O31 2.081179 1_545
Li5 O25 2.081179 1_645
Li6 O11 2.034970 1_555
Li6 O26 2.081179 1_455
Li6 O28 2.081179 1_555
Li7 O10 2.034970 1_555
Li7 O29 2.081179 1_465
Li7 O27 2.081179 1_565
Co0 O4 2.052027 1_555
Co0 O0 2.052027 1_455
Co0 F7 2.102492 1_555
Co0 F5 2.102492 1_455
Co0 O23 2.169783 1_555
Co0 O21 2.169783 1_455
Co1 O1 2.052027 1_544
Co1 O5 2.052027 1_555
Co1 F4 2.102492 1_554
Co1 F6 2.102492 1_545
Co1 O20 2.169783 1_555
Co1 O22 2.169783 1_544
Co2 O2 2.052027 1_555
Co2 O6 2.052027 1_555
Co2 F7 2.102492 1_555
Co2 F5 2.102492 1_555
Co2 O23 2.169783 1_555
Co2 O21 2.169783 1_555
Co3 O7 2.052027 1_444
Co3 O3 2.052027 1_555
Co3 F6 2.102492 1_545
Co3 F4 2.102492 1_454
Co3 O20 2.169783 1_455
Co3 O22 2.169783 1_544
Co4 O30 2.086561 1_554
Co4 O26 2.086561 1_455
Co4 O17 2.107956 1_454
Co4 O19 2.107956 1_555
Co4 F0 2.145035 1_454
Co4 F2 2.145035 1_555
Co5 O31 2.086561 1_545
Co5 O27 2.086561 1_555
Co5 O18 2.107956 1_545
Co5 O16 2.107956 1_555
Co5 F1 2.145035 1_545
Co5 F3 2.145035 1_555
Co6 O24 2.086561 1_554
Co6 O28 2.086561 1_555
Co6 O17 2.107956 1_554
Co6 O19 2.107956 1_555
Co6 F0 2.145035 1_554
Co6 F2 2.145035 1_555
Co7 O25 2.086561 1_545
Co7 O29 2.086561 1_455
Co7 O18 2.107956 1_545
Co7 O16 2.107956 1_455
Co7 F1 2.145035 1_445
Co7 F3 2.145035 1_555
O0 P4 1.556284 1_555
O1 P5 1.556284 1_555
O2 P6 1.556284 1_555
O3 P7 1.556284 1_555
O4 P6 1.556284 1_555
O5 P7 1.556284 1_555
O6 P4 1.556284 1_555
O7 P5 1.556284 1_555
O8 P4 1.521996 1_555
O9 P5 1.521996 1_555
O10 P6 1.521996 1_555
O11 P7 1.521996 1_555
O12 P0 1.540159 1_555
O13 P1 1.540159 1_555
O14 P2 1.540159 1_555
O15 P3 1.540159 1_555
O16 P4 1.587909 1_555
O17 P5 1.587909 1_555
O18 P6 1.587909 1_555
O19 P7 1.587909 1_555
O20 P1 1.573204 1_545
O21 P0 1.573204 1_555
O22 P3 1.573204 1_565
O23 P2 1.573204 1_555
O24 P2 1.569828 1_555
O25 P3 1.569828 1_565
O26 P0 1.569828 1_555
O27 P1 1.569828 1_545
O28 P0 1.569828 1_555
O29 P1 1.569828 1_545
O30 P2 1.569828 1_555
O31 P3 1.569828 1_565
F0 Li0 2.095652 1_556
F0 Na6 2.360938 1_555
F0 Na0 2.360938 1_555
F1 Li1 2.095652 1_555
F1 Na7 2.360938 1_555
F1 Na1 2.360938 1_555
F2 Li2 2.095652 1_554
F2 Na4 2.360938 1_555
F2 Na2 2.360938 1_555
F3 Li3 2.095652 1_555
F3 Na3 2.360938 1_555
F3 Na5 2.360938 1_555
F4 Li5 1.860062 1_555
F5 Li4 1.860062 1_555
F6 Li7 1.860062 1_555
F7 Li6 1.860062 1_555
