# generated using pymatgen
data_NiH8S2(NO2)4
_symmetry_space_group_name_H-M   'P 1'
_cell_length_a   5.20980801
_cell_length_b   5.91168872
_cell_length_c   7.29836529
_cell_angle_alpha   89.45625457
_cell_angle_beta   105.23583069
_cell_angle_gamma   98.04399660
_symmetry_Int_Tables_number   1
_chemical_formula_structural   NiH8S2(NO2)4
_chemical_formula_sum   'Ni1 H8 S2 N4 O8'
_cell_volume   214.65861965
_cell_formula_units_Z   1
loop_
 _symmetry_equiv_pos_site_id
 _symmetry_equiv_pos_as_xyz
  1  'x, y, z'
loop_
 _atom_site_type_symbol
 _atom_site_label
 _atom_site_symmetry_multiplicity
 _atom_site_fract_x
 _atom_site_fract_y
 _atom_site_fract_z
 _atom_site_occupancy
  Ni  Ni0  1  0.50000000  0.00000000  0.00000000  1
  H  H0  1  0.35696500  0.75539300  0.24081800  1
  H  H1  1  0.64303500  0.24460700  0.75918200  1
  H  H2  1  0.62824900  0.92961500  0.38385600  1
  H  H3  1  0.37175100  0.07038500  0.61614400  1
  H  H4  1  0.65492300  0.52024500  0.19130600  1
  H  H5  1  0.34507700  0.47975500  0.80869400  1
  H  H6  1  0.84627500  0.64210800  0.41795900  1
  H  H7  1  0.15372500  0.35789200  0.58204100  1
  S  S0  1  0.86628600  0.76759200  0.78171400  1
  S  S1  1  0.13371400  0.23240800  0.21828600  1
  N  N0  1  0.56056600  0.81994900  0.26659900  1
  N  N1  1  0.43943400  0.18005100  0.73340100  1
  N  N2  1  0.71668700  0.65690600  0.28567500  1
  N  N3  1  0.28331300  0.34309400  0.71432500  1
  O  O0  1  0.13718300  0.78759300  0.92127100  1
  O  O1  1  0.86281700  0.21240700  0.07872900  1
  O  O2  1  0.84145200  0.96839300  0.65893900  1
  O  O3  1  0.15854800  0.03160700  0.34106100  1
  O  O4  1  0.65372500  0.74740200  0.89094300  1
  O  O5  1  0.34627500  0.25259800  0.10905700  1
  O  O6  1  0.82377700  0.55409100  0.66624800  1
  O  O7  1  0.17622300  0.44590900  0.33375200  1
loop_
_geom_bond_atom_site_label_1
_geom_bond_atom_site_label_2
_geom_bond_distance
_geom_bond_site_symmetry_2
Ni0 O5 2.048684 1_555
Ni0 O4 2.048684 1_544
Ni0 O1 2.063583 1_555
Ni0 O0 2.063583 1_544
H0 N0 1.043720 1_555
H1 N1 1.043720 1_555
H2 N0 1.031970 1_555
H3 N1 1.031970 1_555
H4 N2 1.025635 1_555
H5 N3 1.025635 1_555
H6 N2 1.033395 1_555
H7 N3 1.033395 1_555
N0 Ni0 2.179545 1_565
N1 Ni0 2.179545 1_556
O0 S0 1.497762 1_455
O1 S1 1.497762 1_655
O2 S0 1.480088 1_555
O3 S1 1.480088 1_555
O4 S0 1.517003 1_555
O5 S1 1.517003 1_555
O6 S0 1.481927 1_555
O7 S1 1.481927 1_555
