# generated using pymatgen
data_Li4Mg
_symmetry_space_group_name_H-M   'P 1'
_cell_length_a   25.76715055
_cell_length_b   25.76715055
_cell_length_c   25.76714952
_cell_angle_alpha   13.67408292
_cell_angle_beta   13.67408292
_cell_angle_gamma   13.67408193
_symmetry_Int_Tables_number   1
_chemical_formula_structural   Li4Mg
_chemical_formula_sum   'Li32 Mg8'
_cell_volume   831.90960101
_cell_formula_units_Z   8
loop_
 _symmetry_equiv_pos_site_id
 _symmetry_equiv_pos_as_xyz
  1  'x, y, z'
loop_
 _atom_site_type_symbol
 _atom_site_label
 _atom_site_symmetry_multiplicity
 _atom_site_fract_x
 _atom_site_fract_y
 _atom_site_fract_z
 _atom_site_occupancy
  Li  Li0_0  1  0.29999308  0.29999307  0.29999307  1
  Li  Li0_1  1  0.29999308  0.29999307  0.79999308  1
  Li  Li0_2  1  0.29999308  0.79999307  0.29999307  1
  Li  Li0_3  1  0.29999308  0.79999308  0.79999308  1
  Li  Li0_4  1  0.79999308  0.29999307  0.29999307  1
  Li  Li0_5  1  0.79999308  0.29999307  0.79999308  1
  Li  Li0_6  1  0.79999308  0.79999308  0.29999307  1
  Li  Li0_7  1  0.79999307  0.79999307  0.79999308  1
  Li  Li1_0  1  0.09999260  0.09999260  0.09999260  1
  Li  Li1_1  1  0.09999260  0.09999259  0.59999260  1
  Li  Li1_2  1  0.09999260  0.59999260  0.09999259  1
  Li  Li1_3  1  0.09999260  0.59999259  0.59999260  1
  Li  Li1_4  1  0.59999260  0.09999259  0.09999259  1
  Li  Li1_5  1  0.59999260  0.09999259  0.59999260  1
  Li  Li1_6  1  0.59999259  0.59999259  0.09999260  1
  Li  Li1_7  1  0.59999260  0.59999259  0.59999260  1
  Li  Li2_0  1  0.40000740  0.40000740  0.40000740  1
  Li  Li2_1  1  0.40000740  0.40000740  0.90000741  1
  Li  Li2_2  1  0.40000740  0.90000740  0.40000741  1
  Li  Li2_3  1  0.40000740  0.90000740  0.90000740  1
  Li  Li2_4  1  0.90000741  0.40000740  0.40000741  1
  Li  Li2_5  1  0.90000740  0.40000740  0.90000740  1
  Li  Li2_6  1  0.90000740  0.90000740  0.40000741  1
  Li  Li2_7  1  0.90000740  0.90000740  0.90000741  1
  Li  Li3_0  1  0.20000693  0.20000693  0.20000693  1
  Li  Li3_1  1  0.20000693  0.20000692  0.70000693  1
  Li  Li3_2  1  0.20000692  0.70000692  0.20000693  1
  Li  Li3_3  1  0.20000693  0.70000693  0.70000693  1
  Li  Li3_4  1  0.70000692  0.20000692  0.20000693  1
  Li  Li3_5  1  0.70000693  0.20000692  0.70000693  1
  Li  Li3_6  1  0.70000692  0.70000692  0.20000692  1
  Li  Li3_7  1  0.70000692  0.70000692  0.70000693  1
  Mg  Mg0_0  1  0.00000000  0.00000000  0.00000000  1
  Mg  Mg0_1  1  0.00000000  1.00000000  0.50000000  1
  Mg  Mg0_2  1  0.00000000  0.50000000  0.00000000  1
  Mg  Mg0_3  1  0.00000000  0.50000000  0.50000000  1
  Mg  Mg0_4  1  0.50000000  0.00000000  0.00000000  1
  Mg  Mg0_5  1  0.50000000  0.00000000  0.50000000  1
  Mg  Mg0_6  1  0.50000000  0.50000000  0.00000000  1
  Mg  Mg0_7  1  0.50000000  0.50000000  0.50000000  1
loop_
_geom_bond_atom_site_label_1
_geom_bond_atom_site_label_2
_geom_bond_distance
_geom_bond_site_symmetry_2
Li0_0 Li0_6 3.067473 1_455
Li0_0 Li0_6 3.067473 1_545
Li0_0 Li0_5 3.067473 1_455
Li0_0 Li0_5 3.067473 1_554
Li0_0 Li0_3 3.067473 1_554
Li0_0 Li0_3 3.067473 1_545
Li0_0 Li1_4 3.106550 1_555
Li0_0 Li1_2 3.106550 1_555
Li0_0 Li1_1 3.106550 1_555
Li0_0 Mg0_5 3.106955 1_555
Li0_0 Mg0_3 3.106955 1_555
Li0_0 Mg0_6 3.106956 1_555
Li0_1 Li0_7 3.067473 1_455
Li0_1 Li0_7 3.067473 1_545
Li0_1 Li0_2 3.067473 1_546
Li0_1 Li0_4 3.067473 1_555
Li0_1 Li0_2 3.067473 1_555
Li0_1 Li0_4 3.067473 1_456
Li0_1 Li1_3 3.106550 1_555
Li0_1 Li1_5 3.106550 1_555
Li0_1 Li1_0 3.106550 1_556
Li0_1 Mg0_4 3.106955 1_556
Li0_1 Mg0_2 3.106955 1_556
Li0_1 Mg0_7 3.106956 1_555
Li0_2 Li0_4 3.067473 1_555
Li0_2 Li0_4 3.067473 1_465
Li0_2 Li0_7 3.067473 1_554
Li0_2 Li0_7 3.067473 1_455
Li0_2 Li1_0 3.106550 1_565
Li0_2 Li1_6 3.106550 1_555
Li0_2 Li1_3 3.106550 1_555
Li0_2 Mg0_1 3.106955 1_555
Li0_2 Mg0_7 3.106955 1_555
Li0_2 Mg0_4 3.106956 1_565
Li0_3 Li0_5 3.067473 1_465
Li0_3 Li0_5 3.067473 1_555
Li0_3 Li0_6 3.067473 1_555
Li0_3 Li0_6 3.067473 1_456
Li0_3 Li1_1 3.106550 1_565
Li0_3 Li1_7 3.106550 1_555
Li0_3 Li1_2 3.106550 1_556
Li0_3 Mg0_0 3.106955 1_566
Li0_3 Mg0_6 3.106955 1_556
Li0_3 Mg0_5 3.106956 1_565
Li0_4 Li0_7 3.067473 1_554
Li0_4 Li0_7 3.067473 1_545
Li0_4 Li1_0 3.106550 1_655
Li0_4 Li1_6 3.106550 1_555
Li0_4 Li1_5 3.106550 1_555
Li0_4 Mg0_1 3.106955 1_645
Li0_4 Mg0_7 3.106955 1_555
Li0_4 Mg0_2 3.106956 1_655
Li0_5 Li0_6 3.067473 1_546
Li0_5 Li0_6 3.067473 1_555
Li0_5 Li1_1 3.106550 1_655
Li0_5 Li1_7 3.106550 1_555
Li0_5 Li1_4 3.106550 1_556
Li0_5 Mg0_0 3.106955 1_656
Li0_5 Mg0_6 3.106955 1_556
Li0_5 Mg0_3 3.106956 1_655
Li0_6 Li1_4 3.106550 1_565
Li0_6 Li1_2 3.106550 1_655
Li0_6 Li1_7 3.106550 1_555
Li0_6 Mg0_3 3.106955 1_655
Li0_6 Mg0_5 3.106955 1_565
Li0_6 Mg0_0 3.106956 1_665
Li0_7 Li1_5 3.106550 1_565
Li0_7 Li1_3 3.106550 1_655
Li0_7 Li1_6 3.106550 1_556
Li0_7 Mg0_4 3.106955 1_566
Li0_7 Mg0_2 3.106955 1_656
Li0_7 Mg0_1 3.106956 1_655
Li1_0 Li1_6 3.067473 1_455
Li1_0 Li1_6 3.067473 1_545
Li1_0 Li1_3 3.067473 1_554
Li1_0 Li1_5 3.067473 1_554
Li1_0 Li1_5 3.067473 1_455
Li1_0 Li1_3 3.067473 1_545
Li1_0 Li2_5 3.105588 1_454
Li1_0 Li2_3 3.105588 1_544
Li1_0 Li2_6 3.105589 1_445
Li1_1 Li1_7 3.067473 1_455
Li1_1 Li1_7 3.067473 1_545
Li1_1 Li1_4 3.067473 1_456
Li1_1 Li1_2 3.067473 1_555
Li1_1 Li1_2 3.067473 1_546
Li1_1 Li1_4 3.067473 1_555
Li1_1 Li2_4 3.105588 1_455
Li1_1 Li2_2 3.105588 1_545
Li1_1 Li2_7 3.105589 1_445
Li1_2 Li1_4 3.067473 1_555
Li1_2 Li1_4 3.067473 1_465
Li1_2 Li1_7 3.067473 1_554
Li1_2 Li1_7 3.067473 1_455
Li1_2 Li2_7 3.105588 1_454
Li1_2 Li2_1 3.105588 1_554
Li1_2 Li2_4 3.105589 1_455
Li1_3 Li1_5 3.067473 1_555
Li1_3 Li1_5 3.067473 1_465
Li1_3 Li1_6 3.067473 1_555
Li1_3 Li1_6 3.067473 1_456
Li1_3 Li2_0 3.105588 1_555
Li1_3 Li2_6 3.105588 1_455
Li1_3 Li2_5 3.105589 1_455
Li1_4 Li1_7 3.067473 1_554
Li1_4 Li1_7 3.067473 1_545
Li1_4 Li2_7 3.105588 1_544
Li1_4 Li2_1 3.105588 1_554
Li1_4 Li2_2 3.105589 1_545
Li1_5 Li1_6 3.067473 1_555
Li1_5 Li1_6 3.067473 1_546
Li1_5 Li2_0 3.105588 1_555
Li1_5 Li2_6 3.105588 1_545
Li1_5 Li2_3 3.105589 1_545
Li1_6 Li2_5 3.105588 1_554
Li1_6 Li2_3 3.105588 1_554
Li1_6 Li2_0 3.105589 1_555
Li1_7 Li2_4 3.105588 1_555
Li1_7 Li2_2 3.105588 1_555
Li1_7 Li2_1 3.105589 1_555
Li2_0 Li2_6 3.067473 1_455
Li2_0 Li2_6 3.067473 1_545
Li2_0 Li2_3 3.067473 1_554
Li2_0 Li2_5 3.067473 1_455
Li2_0 Li2_5 3.067473 1_554
Li2_0 Li2_3 3.067473 1_545
Li2_0 Li3_2 3.106550 1_555
Li2_0 Li3_4 3.106550 1_555
Li2_0 Li3_1 3.106550 1_555
Li2_1 Li2_7 3.067473 1_545
Li2_1 Li2_7 3.067473 1_455
Li2_1 Li2_2 3.067473 1_546
Li2_1 Li2_4 3.067473 1_456
Li2_1 Li2_4 3.067473 1_555
Li2_1 Li2_2 3.067473 1_555
Li2_1 Li3_5 3.106550 1_555
Li2_1 Li3_3 3.106550 1_555
Li2_1 Li3_0 3.106550 1_556
Li2_2 Li2_4 3.067473 1_465
Li2_2 Li2_4 3.067473 1_555
Li2_2 Li2_7 3.067473 1_554
Li2_2 Li2_7 3.067473 1_455
Li2_2 Li3_0 3.106550 1_565
Li2_2 Li3_6 3.106550 1_555
Li2_2 Li3_3 3.106550 1_555
Li2_3 Li2_5 3.067473 1_465
Li2_3 Li2_5 3.067473 1_555
Li2_3 Li2_6 3.067473 1_555
Li2_3 Li2_6 3.067473 1_456
Li2_3 Li3_1 3.106550 1_565
Li2_3 Li3_7 3.106550 1_555
Li2_3 Li3_2 3.106550 1_556
Li2_4 Li2_7 3.067473 1_554
Li2_4 Li2_7 3.067473 1_545
Li2_4 Li3_0 3.106550 1_655
Li2_4 Li3_6 3.106550 1_555
Li2_4 Li3_5 3.106550 1_555
Li2_5 Li2_6 3.067473 1_555
Li2_5 Li2_6 3.067473 1_546
Li2_5 Li3_1 3.106550 1_655
Li2_5 Li3_7 3.106550 1_555
Li2_5 Li3_4 3.106550 1_556
Li2_6 Li3_2 3.106550 1_655
Li2_6 Li3_4 3.106550 1_565
Li2_6 Li3_7 3.106550 1_555
Li2_7 Li3_3 3.106550 1_655
Li2_7 Li3_5 3.106550 1_565
Li2_7 Li3_6 3.106550 1_556
Li3_0 Li3_6 3.067473 1_545
Li3_0 Li3_6 3.067473 1_455
Li3_0 Li3_5 3.067473 1_455
Li3_0 Li3_3 3.067473 1_554
Li3_0 Li3_5 3.067473 1_554
Li3_0 Li3_3 3.067473 1_545
Li3_0 Mg0_4 3.106955 1_555
Li3_0 Mg0_2 3.106955 1_555
Li3_0 Mg0_1 3.106956 1_545
Li3_1 Li3_7 3.067473 1_545
Li3_1 Li3_7 3.067473 1_455
Li3_1 Li3_4 3.067473 1_555
Li3_1 Li3_2 3.067473 1_555
Li3_1 Li3_2 3.067473 1_546
Li3_1 Li3_4 3.067473 1_456
Li3_1 Mg0_5 3.106955 1_555
Li3_1 Mg0_3 3.106955 1_555
Li3_1 Mg0_0 3.106956 1_556
Li3_2 Li3_4 3.067473 1_465
Li3_2 Li3_4 3.067473 1_555
Li3_2 Li3_7 3.067473 1_554
Li3_2 Li3_7 3.067473 1_455
Li3_2 Mg0_6 3.106955 1_555
Li3_2 Mg0_0 3.106955 1_565
Li3_2 Mg0_3 3.106956 1_555
Li3_3 Li3_5 3.067473 1_465
Li3_3 Li3_5 3.067473 1_555
Li3_3 Li3_6 3.067473 1_456
Li3_3 Li3_6 3.067473 1_555
Li3_3 Mg0_7 3.106955 1_555
Li3_3 Mg0_1 3.106955 1_555
Li3_3 Mg0_2 3.106956 1_556
Li3_4 Li3_7 3.067473 1_554
Li3_4 Li3_7 3.067473 1_545
Li3_4 Mg0_0 3.106955 1_655
Li3_4 Mg0_6 3.106955 1_555
Li3_4 Mg0_5 3.106956 1_555
Li3_5 Li3_6 3.067473 1_546
Li3_5 Li3_6 3.067473 1_555
Li3_5 Mg0_7 3.106955 1_555
Li3_5 Mg0_1 3.106955 1_645
Li3_5 Mg0_4 3.106956 1_556
Li3_6 Mg0_2 3.106955 1_655
Li3_6 Mg0_4 3.106955 1_565
Li3_6 Mg0_7 3.106956 1_555
Li3_7 Mg0_5 3.106955 1_565
Li3_7 Mg0_3 3.106955 1_655
Li3_7 Mg0_6 3.106956 1_556
Mg0_0 Mg0_6 3.067473 1_455
Mg0_0 Mg0_6 3.067473 1_545
Mg0_0 Mg0_5 3.067473 1_554
Mg0_0 Mg0_3 3.067473 1_545
Mg0_0 Mg0_5 3.067473 1_455
Mg0_0 Mg0_3 3.067473 1_554
Mg0_1 Mg0_7 3.067473 1_555
Mg0_1 Mg0_7 3.067473 1_465
Mg0_1 Mg0_4 3.067473 1_565
Mg0_1 Mg0_4 3.067473 1_466
Mg0_1 Mg0_2 3.067473 1_556
Mg0_1 Mg0_2 3.067473 1_565
Mg0_2 Mg0_4 3.067473 1_465
Mg0_2 Mg0_4 3.067473 1_555
Mg0_2 Mg0_7 3.067473 1_554
Mg0_2 Mg0_7 3.067473 1_455
Mg0_3 Mg0_5 3.067473 1_555
Mg0_3 Mg0_5 3.067473 1_465
Mg0_3 Mg0_6 3.067473 1_555
Mg0_3 Mg0_6 3.067473 1_456
Mg0_4 Mg0_7 3.067473 1_554
Mg0_4 Mg0_7 3.067473 1_545
Mg0_5 Mg0_6 3.067473 1_546
Mg0_5 Mg0_6 3.067473 1_555
