# generated using pymatgen
data_Li4V2Si(PO6)2
_symmetry_space_group_name_H-M   'P 1'
_cell_length_a   15.57615294
_cell_length_b   9.01897683
_cell_length_c   8.48787491
_cell_angle_alpha   122.15065821
_cell_angle_beta   72.42790938
_cell_angle_gamma   89.95888568
_symmetry_Int_Tables_number   1
_chemical_formula_structural   Li4V2Si(PO6)2
_chemical_formula_sum   'Li16 V8 Si4 P8 O48'
_cell_volume   942.99560573
_cell_formula_units_Z   4
loop_
 _symmetry_equiv_pos_site_id
 _symmetry_equiv_pos_as_xyz
  1  'x, y, z'
loop_
 _atom_site_type_symbol
 _atom_site_label
 _atom_site_symmetry_multiplicity
 _atom_site_fract_x
 _atom_site_fract_y
 _atom_site_fract_z
 _atom_site_occupancy
  Li  Li0  1  0.99969300  0.49403700  0.50491500  1
  Li  Li1  1  0.08090000  0.09121500  0.27520400  1
  Li  Li2  1  0.16797200  0.57063500  0.24624000  1
  Li  Li3  1  0.25408700  0.76401400  0.99545300  1
  Li  Li4  1  0.12753900  0.51816300  0.71445400  1
  Li  Li5  1  0.37767100  0.95231700  0.21992700  1
  Li  Li6  1  0.33049000  0.93231600  0.77358000  1
  Li  Li7  1  0.41893700  0.42478700  0.75041400  1
  Li  Li8  1  0.49809400  0.99742400  0.50735500  1
  Li  Li9  1  0.57921400  0.58895800  0.27142200  1
  Li  Li10  1  0.67163300  0.06862000  0.22683100  1
  Li  Li11  1  0.75440400  0.24277300  0.98725100  1
  Li  Li12  1  0.62507000  0.03575200  0.75981200  1
  Li  Li13  1  0.87449800  0.46395300  0.25303300  1
  Li  Li14  1  0.83104000  0.42551000  0.75503900  1
  Li  Li15  1  0.91901000  0.91595000  0.74084900  1
  V  V0  1  0.06794900  0.28453900  0.07596600  1
  V  V1  1  0.17911700  0.96595500  0.42572600  1
  V  V2  1  0.31960500  0.54112800  0.57652700  1
  V  V3  1  0.57093400  0.78873900  0.07222900  1
  V  V4  1  0.42774100  0.21142300  0.92737100  1
  V  V5  1  0.67966600  0.46453000  0.42706200  1
  V  V6  1  0.82003600  0.03785200  0.57500500  1
  V  V7  1  0.93048100  0.71257200  0.92173700  1
  Si  Si0  1  0.22707400  0.22557300  0.24773000  1
  Si  Si1  1  0.47807500  0.77300100  0.74669300  1
  Si  Si2  1  0.77360700  0.77287700  0.74990000  1
  Si  Si3  1  0.97693300  0.27315400  0.74829000  1
  P  P0  1  0.02320400  0.72566800  0.25352300  1
  P  P1  1  0.12644400  0.83017300  0.75024200  1
  P  P2  1  0.27273200  0.27941600  0.75426200  1
  P  P3  1  0.37633600  0.67390700  0.25285000  1
  P  P4  1  0.52297600  0.22694400  0.25535000  1
  P  P5  1  0.62293800  0.32845400  0.75202100  1
  P  P6  1  0.72780100  0.72005600  0.24197200  1
  P  P7  1  0.87256500  0.16983800  0.25026400  1
  O  O0  1  0.00447100  0.68498500  0.06802900  1
  O  O1  1  0.03008100  0.56137500  0.27109400  1
  O  O2  1  0.12106200  0.77254900  0.23019400  1
  O  O3  1  0.06173800  0.12489900  0.54564100  1
  O  O4  1  0.05187800  0.71196100  0.72749300  1
  O  O5  1  0.12402600  0.30275200  0.27063100  1
  O  O6  1  0.15822100  0.82973300  0.56055600  1
  O  O7  1  0.21978800  0.03165500  0.22380900  1
  O  O8  1  0.09177100  0.02018500  0.93970000  1
  O  O9  1  0.24165700  0.38458700  0.44920700  1
  O  O10  1  0.31091700  0.17184200  0.04568200  1
  O  O11  1  0.20180300  0.73995300  0.77637300  1
  O  O12  1  0.30083900  0.77276000  0.23429700  1
  O  O13  1  0.19458000  0.32564800  0.94476000  1
  O  O14  1  0.25619500  0.13716600  0.56483300  1
  O  O15  1  0.40551700  0.48417900  0.06318700  1
  O  O16  1  0.28153700  0.46181100  0.77444000  1
  O  O17  1  0.34330700  0.67357600  0.44177000  1
  O  O18  1  0.37015700  0.20633900  0.73124200  1
  O  O19  1  0.45354200  0.78697000  0.27316100  1
  O  O20  1  0.44510800  0.37274300  0.44494200  1
  O  O21  1  0.37590900  0.71621000  0.76915700  1
  O  O22  1  0.50694300  0.17814300  0.06452800  1
  O  O23  1  0.53111300  0.06775400  0.27967100  1
  O  O24  1  0.46820300  0.94396600  0.72551400  1
  O  O25  1  0.49109500  0.81930800  0.95064200  1
  O  O26  1  0.62012500  0.27910700  0.23030700  1
  O  O27  1  0.56405400  0.62884400  0.54528600  1
  O  O28  1  0.54476100  0.21692800  0.73598800  1
  O  O29  1  0.63004400  0.79727600  0.26954100  1
  O  O30  1  0.65356900  0.32751800  0.56252800  1
  O  O31  1  0.72084100  0.53728400  0.21983200  1
  O  O32  1  0.59440000  0.51698600  0.94211600  1
  O  O33  1  0.74581900  0.86373500  0.43005400  1
  O  O34  1  0.80391700  0.67578300  0.05041900  1
  O  O35  1  0.69725900  0.22550900  0.76850000  1
  O  O36  1  0.79584700  0.25564600  0.22186800  1
  O  O37  1  0.68720500  0.83352500  0.95209000  1
  O  O38  1  0.76103000  0.61236400  0.54728900  1
  O  O39  1  0.91023000  0.97996000  0.06155600  1
  O  O40  1  0.78297900  0.96337500  0.76614400  1
  O  O41  1  0.83748900  0.16805000  0.43862200  1
  O  O42  1  0.87634700  0.70235700  0.73325000  1
  O  O43  1  0.94562900  0.29103300  0.27918100  1
  O  O44  1  0.94643200  0.87056700  0.44649600  1
  O  O45  1  0.87401100  0.22064700  0.76335900  1
  O  O46  1  0.97048600  0.44589000  0.72900200  1
  O  O47  1  0.98960300  0.31234500  0.94952300  1
loop_
_geom_bond_atom_site_label_1
_geom_bond_atom_site_label_2
_geom_bond_distance
_geom_bond_site_symmetry_2
Li0 O46 2.090468 1_555
Li0 O5 2.167915 1_655
Li0 O42 2.201919 1_555
Li0 O43 2.230535 1_555
Li0 O4 2.251770 1_655
Li0 O1 2.290785 1_655
Li1 O5 2.039002 1_555
Li1 O3 2.072296 1_555
Li1 O7 2.082786 1_555
Li1 O8 2.513095 1_554
Li2 O2 2.047153 1_555
Li2 O1 2.099999 1_555
Li2 O13 2.223210 1_554
Li2 O6 2.391853 1_555
Li3 O7 2.064546 1_566
Li3 O21 2.095846 1_555
Li3 O11 2.157154 1_555
Li3 O16 2.280994 1_555
Li3 O12 2.316823 1_556
Li3 O2 2.369138 1_556
Li4 O4 2.041703 1_555
Li4 O9 2.091298 1_555
Li4 O11 2.206145 1_555
Li4 O46 2.515945 1_455
Li4 O0 2.580981 1_556
Li5 O12 2.048040 1_555
Li5 O25 2.103588 1_554
Li5 O19 2.204916 1_555
Li5 O14 2.527116 1_565
Li5 O7 2.546421 1_565
Li6 O21 2.050567 1_555
Li6 O24 2.072730 1_555
Li6 O10 2.087500 1_566
Li6 O17 2.466252 1_555
Li7 O18 2.054500 1_555
Li7 O16 2.096750 1_555
Li7 O20 2.274953 1_555
Li7 O15 2.351543 1_556
Li8 O24 2.075567 1_555
Li8 O19 2.203375 1_555
Li8 O28 2.231261 1_565
Li8 O18 2.242720 1_565
Li8 O23 2.259775 1_565
Li8 O29 2.273503 1_555
Li9 O29 2.045354 1_555
Li9 O27 2.089750 1_555
Li9 O31 2.115054 1_555
Li9 O32 2.441209 1_554
Li10 O26 2.042620 1_555
Li10 O37 2.094746 1_544
Li10 O23 2.098310 1_555
Li10 O30 2.466610 1_555
Li10 O36 2.573221 1_555
Li11 O40 2.128580 1_545
Li11 O45 2.140132 1_555
Li11 O36 2.219479 1_556
Li11 O35 2.225845 1_555
Li11 O31 2.240506 1_556
Li11 O26 2.326405 1_556
Li12 O35 2.029094 1_555
Li12 O28 2.185670 1_555
Li12 O22 2.304823 1_556
Li12 O33 2.444194 1_545
Li12 O40 2.567791 1_545
Li12 O24 2.629842 1_545
Li13 O43 2.055096 1_555
Li13 O36 2.184130 1_555
Li13 O38 2.219583 1_555
Li13 O47 2.275812 1_554
Li13 O1 2.598525 1_655
Li13 O31 2.616956 1_555
Li14 O45 2.008094 1_555
Li14 O46 2.134084 1_555
Li14 O34 2.212538 1_556
Li14 O41 2.411316 1_555
Li15 O42 2.013011 1_555
Li15 O40 2.084420 1_555
Li15 O44 2.204347 1_555
Li15 O39 2.421673 1_556
O0 P0 1.536676 1_555
O0 V7 2.030869 1_454
O1 P0 1.572873 1_555
O1 V0 2.081300 1_555
O2 P0 1.564965 1_555
O2 V1 2.107645 1_555
O3 Si3 1.633741 1_455
O3 V1 1.937366 1_545
O4 P1 1.562377 1_555
O4 V7 2.098023 1_455
O5 Si0 1.662717 1_555
O5 V0 2.025529 1_555
O6 P1 1.532717 1_555
O6 V1 2.048689 1_555
O7 Si0 1.658061 1_555
O7 V1 2.028669 1_545
O8 P1 1.534840 1_545
O8 V0 1.991119 1_556
O9 Si0 1.630224 1_555
O9 V2 1.950932 1_555
O10 Si0 1.625943 1_555
O10 V4 1.930328 1_554
O11 P1 1.561092 1_555
O11 V2 2.082873 1_555
O12 P3 1.569161 1_555
O12 V1 2.095890 1_555
O13 P2 1.537330 1_555
O13 V0 2.093399 1_556
O14 P2 1.533825 1_555
O14 V1 2.034219 1_545
O15 P3 1.533457 1_555
O15 V4 2.059104 1_554
O16 P2 1.571265 1_555
O16 V2 2.088874 1_555
O17 P3 1.530675 1_555
O17 V2 2.017757 1_555
O18 P2 1.567757 1_555
O18 V4 2.097209 1_555
O19 P3 1.567022 1_555
O19 V3 2.097241 1_555
O20 P4 1.535217 1_555
O20 V2 2.060924 1_555
O21 Si1 1.659218 1_555
O21 V2 2.013916 1_555
O22 P4 1.537891 1_555
O22 V4 2.050820 1_554
O23 P4 1.565560 1_555
O23 V3 2.107136 1_545
O24 Si1 1.656763 1_555
O24 V4 2.024495 1_565
O25 Si1 1.629380 1_555
O25 V3 1.940317 1_556
O26 P4 1.571479 1_555
O26 V5 2.100192 1_555
O27 Si1 1.629707 1_555
O27 V5 1.941215 1_555
O28 P5 1.571360 1_555
O28 V4 2.064392 1_555
O29 P6 1.571059 1_555
O29 V3 2.110063 1_555
O30 P5 1.528667 1_555
O30 V5 2.060337 1_555
O31 P6 1.564357 1_555
O31 V5 2.117445 1_555
O32 P5 1.529096 1_555
O32 V3 2.057794 1_556
O33 P6 1.541381 1_555
O33 V6 2.030077 1_565
O34 P6 1.533948 1_555
O34 V7 2.067830 1_554
O35 P5 1.567214 1_555
O35 V6 2.087960 1_555
O36 P7 1.567185 1_555
O36 V5 2.111228 1_555
O37 Si2 1.631230 1_555
O37 V3 1.951213 1_556
O38 Si2 1.626580 1_555
O38 V5 1.939192 1_555
O39 P7 1.534350 1_565
O39 V7 2.012576 1_554
O40 Si2 1.659088 1_555
O40 V6 2.002839 1_565
O41 P7 1.534543 1_555
O41 V6 2.012454 1_555
O42 Si2 1.658840 1_555
O42 V7 1.984134 1_555
O43 P7 1.560480 1_555
O43 V0 2.125241 1_655
O44 P0 1.535440 1_655
O44 V6 2.071154 1_565
O45 Si3 1.659031 1_555
O45 V6 1.997274 1_555
O46 Si3 1.656833 1_555
O46 V7 2.011004 1_555
O47 Si3 1.625538 1_555
O47 V0 1.944414 1_656
