# generated using pymatgen
data_Sb2Te3(SeF4)3
_symmetry_space_group_name_H-M   'P 1'
_cell_length_a   8.94098000
_cell_length_b   12.63167200
_cell_length_c   16.21529700
_cell_angle_alpha   90.00000000
_cell_angle_beta   90.00000000
_cell_angle_gamma   90.00000000
_symmetry_Int_Tables_number   1
_chemical_formula_structural   Sb2Te3(SeF4)3
_chemical_formula_sum   'Sb8 Te12 Se12 F48'
_cell_volume   1831.34796878
_cell_formula_units_Z   4
loop_
 _symmetry_equiv_pos_site_id
 _symmetry_equiv_pos_as_xyz
  1  'x, y, z'
loop_
 _atom_site_type_symbol
 _atom_site_label
 _atom_site_symmetry_multiplicity
 _atom_site_fract_x
 _atom_site_fract_y
 _atom_site_fract_z
 _atom_site_occupancy
  Sb  Sb0  1  0.01956100  0.04743400  0.05467100  1
  Sb  Sb1  1  0.48043900  0.95256600  0.55467100  1
  Sb  Sb2  1  0.98043900  0.54743400  0.44532900  1
  Sb  Sb3  1  0.51956100  0.45256600  0.94532900  1
  Sb  Sb4  1  0.54259500  0.21668400  0.23204600  1
  Sb  Sb5  1  0.95740500  0.78331600  0.73204600  1
  Sb  Sb6  1  0.45740500  0.71668400  0.26795400  1
  Sb  Sb7  1  0.04259500  0.28331600  0.76795400  1
  Te  Te0  1  0.14710800  0.66510400  0.05411200  1
  Te  Te1  1  0.35289200  0.33489600  0.55411200  1
  Te  Te2  1  0.85289200  0.16510400  0.44588800  1
  Te  Te3  1  0.64710800  0.83489600  0.94588800  1
  Te  Te4  1  0.53665000  0.61153600  0.54593700  1
  Te  Te5  1  0.96335000  0.38846400  0.04593700  1
  Te  Te6  1  0.46335000  0.11153600  0.95406300  1
  Te  Te7  1  0.03665000  0.88846400  0.45406300  1
  Te  Te8  1  0.13399500  0.00568300  0.31250800  1
  Te  Te9  1  0.36600500  0.99431700  0.81250800  1
  Te  Te10  1  0.86600500  0.50568300  0.18749200  1
  Te  Te11  1  0.63399500  0.49431700  0.68749200  1
  Se  Se0  1  0.09459300  0.19696800  0.36919200  1
  Se  Se1  1  0.40540700  0.80303200  0.86919200  1
  Se  Se2  1  0.90540700  0.69696800  0.13080800  1
  Se  Se3  1  0.59459300  0.30303200  0.63080800  1
  Se  Se4  1  0.13101800  0.43465600  0.16746500  1
  Se  Se5  1  0.36898200  0.56534400  0.66746500  1
  Se  Se6  1  0.86898200  0.93465600  0.33253500  1
  Se  Se7  1  0.63101800  0.06534400  0.83253500  1
  Se  Se8  1  0.48479700  0.44703200  0.45065100  1
  Se  Se9  1  0.01520300  0.55296800  0.95065100  1
  Se  Se10  1  0.51520300  0.94703200  0.04934900  1
  Se  Se11  1  0.98479700  0.05296800  0.54934900  1
  F  F0  1  0.49257400  0.18739600  0.11858200  1
  F  F1  1  0.00742600  0.81260400  0.61858200  1
  F  F2  1  0.50742600  0.68739600  0.38141800  1
  F  F3  1  0.99257400  0.31260400  0.88141800  1
  F  F4  1  0.65188700  0.08737300  0.23751400  1
  F  F5  1  0.84811300  0.91262700  0.73751400  1
  F  F6  1  0.34811300  0.58737300  0.26248600  1
  F  F7  1  0.15188700  0.41262700  0.76248600  1
  F  F8  1  0.32450700  0.02636100  0.61349100  1
  F  F9  1  0.17549300  0.97363900  0.11349100  1
  F  F10  1  0.67549300  0.52636100  0.88650900  1
  F  F11  1  0.82450700  0.47363900  0.38650900  1
  F  F12  1  0.97163000  0.11614000  0.15705800  1
  F  F13  1  0.52837000  0.88386000  0.65705800  1
  F  F14  1  0.02837000  0.61614000  0.34294200  1
  F  F15  1  0.47163000  0.38386000  0.84294200  1
  F  F16  1  0.11451900  0.43134600  0.42226600  1
  F  F17  1  0.38548100  0.56865400  0.92226600  1
  F  F18  1  0.88548100  0.93134600  0.07773400  1
  F  F19  1  0.61451900  0.06865400  0.57773400  1
  F  F20  1  0.42759300  0.34415200  0.22746100  1
  F  F21  1  0.07240700  0.65584800  0.72746100  1
  F  F22  1  0.57240700  0.84415200  0.27253900  1
  F  F23  1  0.92759300  0.15584800  0.77253900  1
  F  F24  1  0.59095600  0.24490900  0.34584100  1
  F  F25  1  0.90904400  0.75509100  0.84584100  1
  F  F26  1  0.40904400  0.74490900  0.15415900  1
  F  F27  1  0.09095600  0.25509100  0.65415900  1
  F  F28  1  0.57945000  0.51913000  0.04652100  1
  F  F29  1  0.92055000  0.48087000  0.54652100  1
  F  F30  1  0.42055000  0.01913000  0.45347900  1
  F  F31  1  0.07945000  0.98087000  0.95347900  1
  F  F32  1  0.71906600  0.29350800  0.19789600  1
  F  F33  1  0.78093400  0.70649200  0.69789600  1
  F  F34  1  0.28093400  0.79350800  0.30210400  1
  F  F35  1  0.21906600  0.20649200  0.80210400  1
  F  F36  1  0.36242900  0.14159700  0.26627200  1
  F  F37  1  0.13757100  0.85840300  0.76627200  1
  F  F38  1  0.63757100  0.64159700  0.23372800  1
  F  F39  1  0.86242900  0.35840300  0.73372800  1
  F  F40  1  0.36090900  0.37761600  0.99967700  1
  F  F41  1  0.13909100  0.62238400  0.49967700  1
  F  F42  1  0.63909100  0.87761600  0.50032300  1
  F  F43  1  0.86090900  0.12238400  0.00032300  1
  F  F44  1  0.15656300  0.16236100  0.03087800  1
  F  F45  1  0.34343700  0.83763900  0.53087800  1
  F  F46  1  0.84343700  0.66236100  0.46912200  1
  F  F47  1  0.65656300  0.33763900  0.96912200  1
loop_
_geom_bond_atom_site_label_1
_geom_bond_atom_site_label_2
_geom_bond_distance
_geom_bond_site_symmetry_2
Se0 Te2 2.525624 1_455
Se0 Te8 2.609062 1_555
Se1 Te3 2.525624 1_555
Se1 Te9 2.609062 1_555
Se2 Te0 2.525624 1_655
Se2 Te10 2.609062 1_555
Se3 Te1 2.525624 1_555
Se3 Te11 2.609062 1_555
Se4 Te5 2.543839 1_455
Se4 Te10 2.554374 1_455
Se5 Te4 2.543839 1_555
Se5 Te11 2.554374 1_555
Se6 Te7 2.543839 1_655
Se6 Te8 2.554374 1_665
Se7 Te6 2.543839 1_555
Se7 Te9 2.554374 1_545
Se8 Te1 2.492343 1_555
Se8 Te4 2.630621 1_555
Se9 Te0 2.492343 1_556
Se9 Te5 2.630621 1_456
Se10 Te3 2.492343 1_554
Se10 Te6 2.630621 1_564
Se11 Te2 2.492343 1_555
Se11 Te7 2.630621 1_645
F0 Sb4 1.929234 1_555
F1 Sb5 1.929234 1_455
F2 Sb6 1.929234 1_555
F3 Sb7 1.929234 1_655
F4 Sb4 1.905460 1_555
F5 Sb5 1.905460 1_555
F6 Sb6 1.905460 1_555
F7 Sb7 1.905460 1_555
F8 Sb1 1.929344 1_545
F9 Sb0 1.929344 1_565
F10 Sb3 1.929344 1_555
F11 Sb2 1.929344 1_555
F12 Sb0 1.921780 1_655
F13 Sb1 1.921780 1_555
F14 Sb2 1.921780 1_455
F15 Sb3 1.921780 1_555
F16 Sb2 1.930616 1_455
F17 Sb3 1.930616 1_555
F18 Sb0 1.930616 1_665
F19 Sb1 1.930616 1_545
F20 Sb4 1.911888 1_555
F21 Sb5 1.911888 1_455
F22 Sb6 1.911888 1_555
F23 Sb7 1.911888 1_655
F24 Sb4 1.928449 1_555
F25 Sb5 1.928449 1_555
F26 Sb6 1.928449 1_555
F27 Sb7 1.928449 1_555
F28 Sb3 1.919924 1_554
F29 Sb2 1.919924 1_555
F30 Sb1 1.919924 1_545
F31 Sb0 1.919924 1_566
F32 Sb4 1.933359 1_555
F33 Sb5 1.933359 1_555
F34 Sb6 1.933359 1_555
F35 Sb7 1.933359 1_555
F36 Sb4 1.949996 1_555
F37 Sb5 1.949996 1_455
F38 Sb6 1.949996 1_555
F39 Sb7 1.949996 1_655
F40 Sb3 1.919665 1_555
F41 Sb2 1.919665 1_455
F42 Sb1 1.919665 1_555
F43 Sb0 1.919665 1_655
F44 Sb0 1.938247 1_555
F45 Sb1 1.938247 1_555
F46 Sb2 1.938247 1_555
F47 Sb3 1.938247 1_555
