# generated using pymatgen
data_La3Co2CuO9
_symmetry_space_group_name_H-M   'P 1'
_cell_length_a   5.58744758
_cell_length_b   13.17938400
_cell_length_c   5.58744600
_cell_angle_alpha   90.00000000
_cell_angle_beta   60.00000934
_cell_angle_gamma   90.00000000
_symmetry_Int_Tables_number   1
_chemical_formula_structural   La3Co2CuO9
_chemical_formula_sum   'La6 Co4 Cu2 O18'
_cell_volume   356.33016174
_cell_formula_units_Z   2
loop_
 _symmetry_equiv_pos_site_id
 _symmetry_equiv_pos_as_xyz
  1  'x, y, z'
loop_
 _atom_site_type_symbol
 _atom_site_label
 _atom_site_symmetry_multiplicity
 _atom_site_fract_x
 _atom_site_fract_y
 _atom_site_fract_z
 _atom_site_occupancy
  La  La0  1  0.66666700  0.58438400  0.66666700  1
  La  La1  1  0.00000000  0.25000000  0.00000000  1
  La  La2  1  0.33333300  0.91561600  0.33333300  1
  La  La3  1  0.66666700  0.08438400  0.66666700  1
  La  La4  1  0.00000000  0.75000000  0.00000000  1
  La  La5  1  0.33333300  0.41561600  0.33333300  1
  Co  Co0  1  0.66666700  0.83499600  0.66666700  1
  Co  Co1  1  0.33333300  0.16500400  0.33333300  1
  Co  Co2  1  0.66666700  0.33499600  0.66666700  1
  Co  Co3  1  0.33333300  0.66500400  0.33333300  1
  Cu  Cu0  1  0.00000000  0.50000000  0.00000000  1
  Cu  Cu1  1  0.00000000  0.00000000  0.00000000  1
  O  O0  1  0.33612600  0.41536400  0.89553100  1
  O  O1  1  0.00000000  0.75000000  0.56587700  1
  O  O2  1  0.66387400  0.08463600  0.23165800  1
  O  O3  1  0.76834200  0.41536400  0.33612600  1
  O  O4  1  0.43412300  0.75000000  0.00000000  1
  O  O5  1  0.10446900  0.08463600  0.66387400  1
  O  O6  1  0.89553100  0.41536400  0.76834200  1
  O  O7  1  0.56587700  0.75000000  0.43412300  1
  O  O8  1  0.23165800  0.08463600  0.10446900  1
  O  O9  1  0.23165800  0.58463600  0.66387400  1
  O  O10  1  0.89553100  0.91536400  0.33612600  1
  O  O11  1  0.56587700  0.25000000  0.00000000  1
  O  O12  1  0.10446900  0.58463600  0.23165800  1
  O  O13  1  0.76834300  0.91536400  0.89553100  1
  O  O14  1  0.43412300  0.25000000  0.56587700  1
  O  O15  1  0.66387400  0.58463600  0.10446900  1
  O  O16  1  0.33612600  0.91536400  0.76834200  1
  O  O17  1  0.00000000  0.25000000  0.43412300  1
loop_
_geom_bond_atom_site_label_1
_geom_bond_atom_site_label_2
_geom_bond_distance
_geom_bond_site_symmetry_2
La0 O15 2.438432 1_556
La0 O9 2.438433 1_555
La0 O12 2.438433 1_655
La0 O1 2.738862 1_655
La0 O4 2.738862 1_556
La0 O7 2.738865 1_555
La0 O6 2.765242 1_555
La0 O0 2.765247 1_555
La0 O3 2.765248 1_555
La1 O17 2.425639 1_555
La1 O14 2.425640 1_554
La1 O11 2.425640 1_455
La1 O5 2.742522 1_554
La1 O0 2.742523 1_554
La1 O3 2.742523 1_455
La1 O2 2.742523 1_455
La1 O6 2.742526 1_454
La1 O8 2.742526 1_555
La2 O16 2.438432 1_555
La2 O10 2.438433 1_455
La2 O13 2.438435 1_554
La2 O4 2.738861 1_555
La2 O1 2.738862 1_555
La2 O7 2.738865 1_555
La2 O8 2.765242 1_565
La2 O5 2.765247 1_565
La2 O2 2.765249 1_565
La3 O2 2.438432 1_555
La3 O8 2.438433 1_556
La3 O5 2.438433 1_655
La3 O11 2.738861 1_556
La3 O17 2.738862 1_655
La3 O14 2.738865 1_555
La3 O13 2.765245 1_545
La3 O10 2.765247 1_545
La3 O16 2.765249 1_545
La4 O1 2.425639 1_554
La4 O7 2.425640 1_455
La4 O4 2.425640 1_555
La4 O10 2.742522 1_455
La4 O13 2.742522 1_454
La4 O15 2.742523 1_455
La4 O9 2.742523 1_554
La4 O16 2.742523 1_554
La4 O12 2.742526 1_555
La5 O0 2.438432 1_554
La5 O3 2.438433 1_555
La5 O6 2.438433 1_455
La5 O17 2.738862 1_555
La5 O11 2.738862 1_555
La5 O14 2.738865 1_555
La5 O12 2.765242 1_555
La5 O15 2.765247 1_555
La5 O9 2.765248 1_555
Co0 O13 1.950993 1_555
Co0 O10 1.950997 1_555
Co0 O16 1.950999 1_555
Co0 O1 1.997986 1_655
Co0 O4 1.997986 1_556
Co0 O7 1.997990 1_555
Co1 O8 1.950989 1_555
Co1 O5 1.950997 1_555
Co1 O2 1.950999 1_555
Co1 O17 1.997986 1_555
Co1 O11 1.997986 1_555
Co1 O14 1.997990 1_555
Co2 O6 1.950990 1_555
Co2 O0 1.950997 1_555
Co2 O3 1.950998 1_555
Co2 O11 1.997985 1_556
Co2 O17 1.997987 1_655
Co2 O14 1.997990 1_555
Co3 O12 1.950990 1_555
Co3 O15 1.950997 1_555
Co3 O9 1.950998 1_555
Co3 O4 1.997985 1_555
Co3 O1 1.997987 1_555
Co3 O7 1.997990 1_555
Cu0 O15 2.003970 1_455
Cu0 O0 2.003970 1_554
Cu0 O9 2.003970 1_554
Cu0 O3 2.003970 1_455
Cu0 O12 2.003974 1_555
Cu0 O6 2.003974 1_454
Cu1 O10 2.003969 1_445
Cu1 O5 2.003969 1_554
Cu1 O13 2.003969 1_444
Cu1 O16 2.003971 1_544
Cu1 O2 2.003971 1_455
Cu1 O8 2.003974 1_555
