# generated using pymatgen
data_Mg14GaBO16
_symmetry_space_group_name_H-M   'P 1'
_cell_length_a   8.45631272
_cell_length_b   8.46279832
_cell_length_c   4.20625339
_cell_angle_alpha   90.00000000
_cell_angle_beta   90.00000000
_cell_angle_gamma   90.00000000
_symmetry_Int_Tables_number   1
_chemical_formula_structural   Mg14GaBO16
_chemical_formula_sum   'Mg14 Ga1 B1 O16'
_cell_volume   301.01660817
_cell_formula_units_Z   1
loop_
 _symmetry_equiv_pos_site_id
 _symmetry_equiv_pos_as_xyz
  1  'x, y, z'
loop_
 _atom_site_type_symbol
 _atom_site_label
 _atom_site_symmetry_multiplicity
 _atom_site_fract_x
 _atom_site_fract_y
 _atom_site_fract_z
 _atom_site_occupancy
  Mg  Mg0  1  0.50000000  0.00000000  -0.00000000  1
  Mg  Mg1  1  0.50000000  0.50000000  -0.00000000  1
  Mg  Mg2  1  -0.00000000  0.24303818  0.50000000  1
  Mg  Mg3  1  -0.00000000  0.75696182  0.50000000  1
  Mg  Mg4  1  0.50000000  0.24687792  0.50000000  1
  Mg  Mg5  1  0.50000000  0.75312208  0.50000000  1
  Mg  Mg6  1  0.24651161  0.00000000  0.50000000  1
  Mg  Mg7  1  0.25257723  0.50000000  0.50000000  1
  Mg  Mg8  1  0.75348839  0.00000000  0.50000000  1
  Mg  Mg9  1  0.74742277  0.50000000  0.50000000  1
  Mg  Mg10  1  0.24931031  0.24473791  0.00000000  1
  Mg  Mg11  1  0.24931031  0.75526209  0.00000000  1
  Mg  Mg12  1  0.75068969  0.24473791  -0.00000000  1
  Mg  Mg13  1  0.75068969  0.75526209  -0.00000000  1
  Ga  Ga0  1  -0.00000000  0.50000000  -0.00000000  1
  B  B0  1  -0.00000000  0.00000000  -0.00000000  1
  O  O0  1  0.26483708  0.00000000  0.00000000  1
  O  O1  1  0.24534623  0.50000000  -0.00000000  1
  O  O2  1  0.73516292  0.00000000  -0.00000000  1
  O  O3  1  0.75465377  0.50000000  0.00000000  1
  O  O4  1  0.24797323  0.25073105  0.50000000  1
  O  O5  1  0.24797323  0.74926895  0.50000000  1
  O  O6  1  0.75202677  0.25073105  0.50000000  1
  O  O7  1  0.75202677  0.74926895  0.50000000  1
  O  O8  1  -0.00000000  0.00000000  0.50000000  1
  O  O9  1  -0.00000000  0.50000000  0.50000000  1
  O  O10  1  0.50000000  0.00000000  0.50000000  1
  O  O11  1  0.50000000  0.50000000  0.50000000  1
  O  O12  1  -0.00000000  0.27591196  0.00000000  1
  O  O13  1  -0.00000000  0.72408804  -0.00000000  1
  O  O14  1  0.50000000  0.25486324  -0.00000000  1
  O  O15  1  0.50000000  0.74513676  0.00000000  1
loop_
_geom_bond_atom_site_label_1
_geom_bond_atom_site_label_2
_geom_bond_distance
_geom_bond_site_symmetry_2
Mg0 O0 1.988611 1_555
Mg0 O2 1.988611 1_555
Mg0 O10 2.103127 1_555
Mg0 O10 2.103127 1_554
Mg0 O15 2.156856 1_545
Mg0 O14 2.156856 1_555
Mg1 O14 2.074543 1_555
Mg1 O15 2.074543 1_555
Mg1 O11 2.103127 1_554
Mg1 O11 2.103127 1_555
Mg1 O3 2.153432 1_555
Mg1 O1 2.153432 1_555
Mg2 O8 2.056783 1_555
Mg2 O6 2.097950 1_455
Mg2 O4 2.097950 1_555
Mg2 O12 2.121447 1_556
Mg2 O12 2.121447 1_555
Mg2 O9 2.174616 1_555
Mg3 O8 2.056783 1_565
Mg3 O7 2.097950 1_455
Mg3 O5 2.097950 1_555
Mg3 O13 2.121447 1_555
Mg3 O13 2.121447 1_556
Mg3 O9 2.174616 1_555
Mg4 O10 2.089278 1_555
Mg4 O14 2.104212 1_556
Mg4 O14 2.104212 1_555
Mg4 O4 2.131467 1_555
Mg4 O6 2.131467 1_555
Mg4 O11 2.142121 1_555
Mg5 O10 2.089278 1_565
Mg5 O15 2.104212 1_556
Mg5 O15 2.104212 1_555
Mg5 O5 2.131467 1_555
Mg5 O7 2.131467 1_555
Mg5 O11 2.142121 1_555
Mg6 O8 2.084579 1_555
Mg6 O0 2.108828 1_555
Mg6 O0 2.108828 1_556
Mg6 O5 2.121922 1_545
Mg6 O4 2.121922 1_555
Mg6 O10 2.143577 1_555
Mg7 O11 2.092284 1_555
Mg7 O1 2.104015 1_556
Mg7 O1 2.104015 1_555
Mg7 O4 2.109872 1_555
Mg7 O5 2.109872 1_555
Mg7 O9 2.135872 1_555
Mg8 O8 2.084579 1_655
Mg8 O2 2.108828 1_556
Mg8 O2 2.108828 1_555
Mg8 O7 2.121922 1_545
Mg8 O6 2.121922 1_555
Mg8 O10 2.143577 1_555
Mg9 O11 2.092284 1_555
Mg9 O3 2.104015 1_556
Mg9 O3 2.104015 1_555
Mg9 O6 2.109872 1_555
Mg9 O7 2.109872 1_555
Mg9 O9 2.135872 1_655
Mg10 O0 2.075325 1_555
Mg10 O4 2.103769 1_554
Mg10 O4 2.103769 1_555
Mg10 O14 2.121642 1_555
Mg10 O12 2.124689 1_555
Mg10 O1 2.160492 1_555
Mg11 O0 2.075325 1_565
Mg11 O5 2.103769 1_554
Mg11 O5 2.103769 1_555
Mg11 O15 2.121642 1_555
Mg11 O13 2.124689 1_555
Mg11 O1 2.160492 1_555
Mg12 O2 2.075325 1_555
Mg12 O6 2.103769 1_554
Mg12 O6 2.103769 1_555
Mg12 O14 2.121642 1_555
Mg12 O12 2.124689 1_655
Mg12 O3 2.160492 1_555
Mg13 O2 2.075325 1_565
Mg13 O7 2.103769 1_555
Mg13 O7 2.103769 1_554
Mg13 O15 2.121642 1_555
Mg13 O13 2.124689 1_655
Mg13 O3 2.160492 1_555
Ga0 O12 1.896412 1_555
Ga0 O13 1.896412 1_555
Ga0 O1 2.074724 1_555
Ga0 O3 2.074724 1_455
Ga0 O9 2.103127 1_554
Ga0 O9 2.103127 1_555
B0 O8 2.103127 1_555
B0 O8 2.103127 1_554
