# generated using pymatgen
data_Ba2YCr3O7
_symmetry_space_group_name_H-M   'P 1'
_cell_length_a   5.62234459
_cell_length_b   12.44856294
_cell_length_c   5.62234670
_cell_angle_alpha   102.69537061
_cell_angle_beta   91.54529385
_cell_angle_gamma   102.69469372
_symmetry_Int_Tables_number   1
_chemical_formula_structural   Ba2YCr3O7
_chemical_formula_sum   'Ba4 Y2 Cr6 O14'
_cell_volume   373.33120565
_cell_formula_units_Z   2
loop_
 _symmetry_equiv_pos_site_id
 _symmetry_equiv_pos_as_xyz
  1  'x, y, z'
loop_
 _atom_site_type_symbol
 _atom_site_label
 _atom_site_symmetry_multiplicity
 _atom_site_fract_x
 _atom_site_fract_y
 _atom_site_fract_z
 _atom_site_occupancy
  Ba  Ba0  1  0.40987600  0.81975800  0.90987500  1
  Ba  Ba1  1  0.90986700  0.81976700  0.40986400  1
  Ba  Ba2  1  0.09025800  0.18053300  0.59028500  1
  Ba  Ba3  1  0.59027600  0.18054300  0.09029400  1
  Y  Y0  1  0.25003700  0.50006400  0.75004100  1
  Y  Y1  1  0.75004700  0.50006700  0.25004400  1
  Cr  Cr0  1  0.50057400  0.00109700  0.50056200  1
  Cr  Cr1  1  0.82372400  0.64741300  0.82365000  1
  Cr  Cr2  1  0.32780600  0.65557200  0.32777700  1
  Cr  Cr3  1  0.99961300  0.99931100  0.99966400  1
  Cr  Cr4  1  0.67217800  0.34438200  0.67219200  1
  Cr  Cr5  1  0.17650000  0.35301400  0.17649600  1
  O  O0  1  0.74778300  0.99988100  0.25204700  1
  O  O1  1  0.25202600  0.99987300  0.74777400  1
  O  O2  1  0.06439900  0.62005700  0.06438100  1
  O  O3  1  0.55571400  0.62006400  0.55569000  1
  O  O4  1  0.93564100  0.37984700  0.93564300  1
  O  O5  1  0.44422500  0.37985700  0.44422500  1
  O  O6  1  0.06537000  0.62196600  0.55661100  1
  O  O7  1  0.55662500  0.62196600  0.06535000  1
  O  O8  1  0.93459300  0.37794500  0.44336800  1
  O  O9  1  0.44336700  0.37794300  0.93461400  1
  O  O10  1  0.41152500  0.82288300  0.41153300  1
  O  O11  1  0.91405800  0.82806500  0.91406600  1
  O  O12  1  0.08529200  0.17068400  0.08531600  1
  O  O13  1  0.58862700  0.17745100  0.58863800  1
loop_
_geom_bond_atom_site_label_1
_geom_bond_atom_site_label_2
_geom_bond_distance
_geom_bond_site_symmetry_2
Ba0 O10 2.810893 1_555
Ba0 O10 2.811938 1_556
Ba0 O11 2.812733 1_455
Ba0 O11 2.813037 1_555
Ba0 O0 2.893569 1_556
Ba0 O1 2.893915 1_555
Ba0 O6 3.050581 1_555
Ba0 O7 3.050805 1_556
Ba0 O2 3.102507 1_556
Ba0 O3 3.102517 1_555
Ba1 O10 2.810869 1_555
Ba1 O10 2.811958 1_655
Ba1 O11 2.812594 1_554
Ba1 O11 2.813170 1_555
Ba1 O1 2.893440 1_655
Ba1 O0 2.893771 1_555
Ba1 O7 3.050604 1_555
Ba1 O6 3.050975 1_655
Ba1 O3 3.102507 1_555
Ba1 O2 3.102647 1_655
Ba2 O13 2.810919 1_555
Ba2 O13 2.811897 1_455
Ba2 O12 2.813341 1_556
Ba2 O12 2.813820 1_555
Ba2 O1 2.898259 1_545
Ba2 O0 2.898446 1_445
Ba2 O9 3.047253 1_555
Ba2 O8 3.047312 1_455
Ba2 O4 3.098978 1_455
Ba2 O5 3.099228 1_555
Ba3 O13 2.810809 1_555
Ba3 O13 2.812012 1_554
Ba3 O12 2.813288 1_655
Ba3 O12 2.813880 1_555
Ba3 O0 2.898289 1_545
Ba3 O1 2.898707 1_544
Ba3 O8 3.047081 1_555
Ba3 O9 3.047193 1_554
Ba3 O5 3.098993 1_555
Ba3 O4 3.099022 1_554
Cr0 O0 1.997248 1_545
Cr0 O1 1.997394 1_545
Cr0 O13 2.083543 1_555
Cr0 O10 2.105518 1_545
Cr1 O3 2.020610 1_555
Cr1 O2 2.021196 1_656
Cr1 O6 2.071346 1_655
Cr1 O7 2.071806 1_556
Cr1 O11 2.134322 1_555
Cr2 O2 1.971792 1_555
Cr2 O3 1.971967 1_555
Cr2 O10 1.976704 1_555
Cr2 O7 2.018584 1_555
Cr2 O6 2.018686 1_555
Cr3 O11 2.023194 1_555
Cr3 O12 2.024695 1_666
Cr3 O0 2.031408 1_556
Cr3 O1 2.031771 1_655
Cr4 O5 1.972137 1_555
Cr4 O13 1.972215 1_555
Cr4 O4 1.972283 1_555
Cr4 O9 2.018428 1_555
Cr4 O8 2.018463 1_555
Cr5 O4 2.019377 1_454
Cr5 O5 2.019624 1_555
Cr5 O9 2.070727 1_554
Cr5 O8 2.070845 1_455
Cr5 O12 2.154147 1_555
O2 Y0 2.463418 1_554
O2 Y1 2.463539 1_455
O3 Y1 2.463449 1_555
O3 Y0 2.463650 1_555
O4 Y1 2.465012 1_556
O4 Y0 2.465020 1_655
O5 Y0 2.464954 1_555
O5 Y1 2.464990 1_555
O6 Y1 2.433059 1_455
O6 Y0 2.433206 1_555
O7 Y0 2.433091 1_554
O7 Y1 2.433233 1_555
O8 Y0 2.434622 1_655
O8 Y1 2.434724 1_555
O9 Y1 2.434617 1_556
O9 Y0 2.434816 1_555
