# generated using pymatgen
data_HfMnSi2
_symmetry_space_group_name_H-M   'P 1'
_cell_length_a   7.84124276
_cell_length_b   8.95791153
_cell_length_c   9.75632054
_cell_angle_alpha   90.00000000
_cell_angle_beta   90.00000000
_cell_angle_gamma   90.00000000
_symmetry_Int_Tables_number   1
_chemical_formula_structural   HfMnSi2
_chemical_formula_sum   'Hf12 Mn12 Si24'
_cell_volume   685.29526162
_cell_formula_units_Z   12
loop_
 _symmetry_equiv_pos_site_id
 _symmetry_equiv_pos_as_xyz
  1  'x, y, z'
loop_
 _atom_site_type_symbol
 _atom_site_label
 _atom_site_symmetry_multiplicity
 _atom_site_fract_x
 _atom_site_fract_y
 _atom_site_fract_z
 _atom_site_occupancy
  Hf  Hf0  1  0.74448365  0.82713508  0.04779712  1
  Hf  Hf1  1  0.74448365  0.17286492  0.95220288  1
  Hf  Hf2  1  0.25551635  0.67286492  0.54779712  1
  Hf  Hf3  1  0.25551635  0.32713508  0.45220288  1
  Hf  Hf4  1  0.25551635  0.17286492  0.95220288  1
  Hf  Hf5  1  0.25551635  0.82713508  0.04779712  1
  Hf  Hf6  1  0.74448365  0.32713508  0.45220288  1
  Hf  Hf7  1  0.74448365  0.67286492  0.54779712  1
  Hf  Hf8  1  0.50000000  0.83376669  0.32227885  1
  Hf  Hf9  1  0.50000000  0.16623331  0.67772115  1
  Hf  Hf10  1  0.50000000  0.66623331  0.82227885  1
  Hf  Hf11  1  0.50000000  0.33376669  0.17772115  1
  Mn  Mn0  1  0.74976656  0.58385057  0.25125664  1
  Mn  Mn1  1  0.74976656  0.41614943  0.74874336  1
  Mn  Mn2  1  0.25023344  0.91614943  0.75125664  1
  Mn  Mn3  1  0.25023344  0.08385057  0.24874336  1
  Mn  Mn4  1  0.25023344  0.41614943  0.74874336  1
  Mn  Mn5  1  0.25023344  0.58385057  0.25125664  1
  Mn  Mn6  1  0.74976656  0.08385057  0.24874336  1
  Mn  Mn7  1  0.74976656  0.91614943  0.75125664  1
  Mn  Mn8  1  0.74562023  -0.00000000  0.50000000  1
  Mn  Mn9  1  0.25437977  0.50000000  -0.00000000  1
  Mn  Mn10  1  0.25437977  -0.00000000  0.50000000  1
  Mn  Mn11  1  0.74562023  0.50000000  -0.00000000  1
  Si  Si0  1  0.84947247  0.83411197  0.31768311  1
  Si  Si1  1  0.84947247  0.16588803  0.68231689  1
  Si  Si2  1  0.15052753  0.66588803  0.81768311  1
  Si  Si3  1  0.15052753  0.33411197  0.18231689  1
  Si  Si4  1  0.15052753  0.16588803  0.68231689  1
  Si  Si5  1  0.15052753  0.83411197  0.31768311  1
  Si  Si6  1  0.84947247  0.33411197  0.18231689  1
  Si  Si7  1  0.84947247  0.66588803  0.81768311  1
  Si  Si8  1  0.50000000  0.53899051  0.38120979  1
  Si  Si9  1  0.50000000  0.46100949  0.61879021  1
  Si  Si10  1  0.50000000  0.96100949  0.88120979  1
  Si  Si11  1  0.50000000  0.03899051  0.11879021  1
  Si  Si12  1  -0.00000000  0.54056237  0.37886483  1
  Si  Si13  1  -0.00000000  0.45943763  0.62113517  1
  Si  Si14  1  -0.00000000  0.95943763  0.87886483  1
  Si  Si15  1  -0.00000000  0.04056237  0.12113517  1
  Si  Si16  1  0.50000000  0.62729113  0.11004461  1
  Si  Si17  1  0.50000000  0.37270887  0.88995539  1
  Si  Si18  1  0.50000000  0.87270887  0.61004461  1
  Si  Si19  1  0.50000000  0.12729113  0.38995539  1
  Si  Si20  1  -0.00000000  0.61134082  0.11091416  1
  Si  Si21  1  -0.00000000  0.38865918  0.88908584  1
  Si  Si22  1  -0.00000000  0.88865918  0.61091416  1
  Si  Si23  1  -0.00000000  0.11134082  0.38908584  1
loop_
_geom_bond_atom_site_label_1
_geom_bond_atom_site_label_2
_geom_bond_distance
_geom_bond_site_symmetry_2
Hf0 Si16 2.692338 1_555
Hf0 Si0 2.759496 1_555
Hf0 Si10 2.784744 1_554
Hf0 Si11 2.785035 1_565
Hf0 Si7 2.793644 1_554
Hf0 Si20 2.851353 1_655
Hf0 Si14 2.852243 1_654
Hf0 Si15 2.860323 1_665
Hf1 Si17 2.692338 1_555
Hf1 Si1 2.759496 1_555
Hf1 Si11 2.784744 1_556
Hf1 Si10 2.785035 1_545
Hf1 Si6 2.793644 1_556
Hf1 Si21 2.851353 1_655
Hf1 Si15 2.852243 1_656
Hf1 Si14 2.860323 1_645
Hf2 Si18 2.692338 1_555
Hf2 Si2 2.759496 1_555
Hf2 Si8 2.784744 1_555
Hf2 Si9 2.785035 1_555
Hf2 Si5 2.793644 1_555
Hf2 Si22 2.851353 1_555
Hf2 Si12 2.852243 1_555
Hf2 Si13 2.860323 1_555
Hf3 Si19 2.692338 1_555
Hf3 Si3 2.759496 1_555
Hf3 Si9 2.784744 1_555
Hf3 Si8 2.785035 1_555
Hf3 Si4 2.793644 1_555
Hf3 Si23 2.851353 1_555
Hf3 Si13 2.852243 1_555
Hf3 Si12 2.860323 1_555
Hf4 Si17 2.692338 1_555
Hf4 Si4 2.759496 1_555
Hf4 Si11 2.784744 1_556
Hf4 Si10 2.785035 1_545
Hf4 Si3 2.793644 1_556
Hf4 Si21 2.851353 1_555
Hf4 Si15 2.852243 1_556
Hf4 Si14 2.860323 1_545
Hf5 Si16 2.692338 1_555
Hf5 Si5 2.759496 1_555
Hf5 Si10 2.784744 1_554
Hf5 Si11 2.785035 1_565
Hf5 Si2 2.793644 1_554
Hf5 Si20 2.851353 1_555
Hf5 Si14 2.852243 1_554
Hf5 Si15 2.860323 1_565
Hf6 Si19 2.692338 1_555
Hf6 Si6 2.759496 1_555
Hf6 Si9 2.784744 1_555
Hf6 Si8 2.785035 1_555
Hf6 Si1 2.793644 1_555
Hf6 Si23 2.851353 1_655
Hf6 Si13 2.852243 1_655
Hf6 Si12 2.860323 1_655
Hf7 Si18 2.692338 1_555
Hf7 Si7 2.759496 1_555
Hf7 Si8 2.784744 1_555
Hf7 Si9 2.785035 1_555
Hf7 Si0 2.793644 1_555
Hf7 Si22 2.851353 1_655
Hf7 Si12 2.852243 1_655
Hf7 Si13 2.860323 1_655
Hf8 Si8 2.702448 1_555
Hf8 Si11 2.705743 1_565
Hf8 Si19 2.711001 1_565
Hf8 Si5 2.740667 1_555
Hf8 Si0 2.740667 1_555
Hf8 Si16 2.776413 1_555
Hf8 Si18 2.829124 1_555
Hf9 Si9 2.702448 1_555
Hf9 Si10 2.705743 1_545
Hf9 Si18 2.711001 1_545
Hf9 Si4 2.740667 1_555
Hf9 Si1 2.740667 1_555
Hf9 Si17 2.776413 1_555
Hf9 Si19 2.829124 1_555
Hf10 Si10 2.702448 1_555
Hf10 Si9 2.705743 1_555
Hf10 Si17 2.711001 1_555
Hf10 Si7 2.740667 1_555
Hf10 Si2 2.740667 1_555
Hf10 Si18 2.776413 1_555
Hf10 Si16 2.829124 1_556
Hf11 Si11 2.702448 1_555
Hf11 Si8 2.705743 1_555
Hf11 Si16 2.711001 1_555
Hf11 Si6 2.740667 1_555
Hf11 Si3 2.740667 1_555
Hf11 Si19 2.776413 1_555
Hf11 Si17 2.829124 1_554
Mn0 Si12 2.355919 1_655
Mn0 Si8 2.367406 1_555
Mn0 Si20 2.405290 1_655
Mn0 Si16 2.425934 1_555
Mn0 Si0 2.461097 1_555
Mn0 Si6 2.463414 1_555
Mn1 Si13 2.355919 1_655
Mn1 Si9 2.367406 1_555
Mn1 Si21 2.405290 1_655
Mn1 Si17 2.425934 1_555
Mn1 Si1 2.461097 1_555
Mn1 Si7 2.463414 1_555
Mn2 Si14 2.355919 1_555
Mn2 Si10 2.367406 1_555
Mn2 Si22 2.405290 1_555
Mn2 Si18 2.425934 1_555
Mn2 Si2 2.461097 1_555
Mn2 Si4 2.463414 1_565
Mn3 Si15 2.355919 1_555
Mn3 Si11 2.367406 1_555
Mn3 Si23 2.405290 1_555
Mn3 Si19 2.425934 1_555
Mn3 Si3 2.461097 1_555
Mn3 Si5 2.463414 1_545
Mn4 Si13 2.355919 1_555
Mn4 Si9 2.367406 1_555
Mn4 Si21 2.405290 1_555
Mn4 Si17 2.425934 1_555
Mn4 Si4 2.461097 1_555
Mn4 Si2 2.463414 1_555
Mn5 Si12 2.355919 1_555
Mn5 Si8 2.367406 1_555
Mn5 Si20 2.405290 1_555
Mn5 Si16 2.425934 1_555
Mn5 Si5 2.461097 1_555
Mn5 Si3 2.463414 1_555
Mn6 Si15 2.355919 1_655
Mn6 Si11 2.367406 1_555
Mn6 Si23 2.405290 1_655
Mn6 Si19 2.425934 1_555
Mn6 Si6 2.461097 1_555
Mn6 Si0 2.463414 1_545
Mn7 Si14 2.355919 1_655
Mn7 Si10 2.367406 1_555
Mn7 Si22 2.405290 1_655
Mn7 Si18 2.425934 1_555
Mn7 Si7 2.461097 1_555
Mn7 Si1 2.463414 1_565
Mn8 Si1 2.456682 1_555
Mn8 Si0 2.456682 1_545
Mn8 Si22 2.478787 1_645
Mn8 Si23 2.478787 1_655
Mn8 Si19 2.482385 1_555
Mn8 Si18 2.482385 1_545
Mn9 Si2 2.456682 1_554
Mn9 Si3 2.456682 1_555
Mn9 Si21 2.478787 1_554
Mn9 Si20 2.478787 1_555
Mn9 Si17 2.482385 1_554
Mn9 Si16 2.482385 1_555
Mn10 Si4 2.456682 1_555
Mn10 Si5 2.456682 1_545
Mn10 Si23 2.478787 1_555
Mn10 Si22 2.478787 1_545
Mn10 Si19 2.482385 1_555
Mn10 Si18 2.482385 1_545
Mn11 Si7 2.456682 1_554
Mn11 Si6 2.456682 1_555
Mn11 Si20 2.478787 1_655
Mn11 Si21 2.478787 1_654
Mn11 Si17 2.482385 1_554
Mn11 Si16 2.482385 1_555
Si0 Si5 2.360646 1_655
Si1 Si4 2.360646 1_655
Si2 Si7 2.360646 1_455
Si3 Si6 2.360646 1_455
Si8 Si9 2.420884 1_555
Si10 Si11 2.420884 1_566
