# generated using pymatgen
data_Th2P3NO12
_symmetry_space_group_name_H-M   'P 1'
_cell_length_a   9.43109922
_cell_length_b   9.43109922
_cell_length_c   8.28212527
_cell_angle_alpha   79.79280405
_cell_angle_beta   79.79280405
_cell_angle_gamma   43.37023334
_symmetry_Int_Tables_number   1
_chemical_formula_structural   Th2P3NO12
_chemical_formula_sum   'Th4 P6 N2 O24'
_cell_volume   496.58693990
_cell_formula_units_Z   2
loop_
 _symmetry_equiv_pos_site_id
 _symmetry_equiv_pos_as_xyz
  1  'x, y, z'
loop_
 _atom_site_type_symbol
 _atom_site_label
 _atom_site_symmetry_multiplicity
 _atom_site_fract_x
 _atom_site_fract_y
 _atom_site_fract_z
 _atom_site_occupancy
  Th  Th0  1  0.94613900  0.75372200  0.53467400  1
  Th  Th1  1  0.24627800  0.05386100  0.96532600  1
  Th  Th2  1  0.05386100  0.24627800  0.46532600  1
  Th  Th3  1  0.75372200  0.94613900  0.03467400  1
  P  P0  1  0.78497000  0.59287300  0.81376000  1
  P  P1  1  0.40712700  0.21503000  0.68624000  1
  P  P2  1  0.21503000  0.40712700  0.18624000  1
  P  P3  1  0.59287300  0.78497000  0.31376000  1
  P  P4  1  0.91456800  0.08543200  0.75000000  1
  P  P5  1  0.08543200  0.91456800  0.25000000  1
  N  N0  1  0.41772800  0.58227200  0.75000000  1
  N  N1  1  0.58227200  0.41772800  0.25000000  1
  O  O0  1  0.91512900  0.39449700  0.92706600  1
  O  O1  1  0.60550300  0.08487100  0.57293400  1
  O  O2  1  0.08487100  0.60550300  0.07293400  1
  O  O3  1  0.39449700  0.91512900  0.42706600  1
  O  O4  1  0.86162900  0.54185900  0.62857400  1
  O  O5  1  0.45814100  0.13837100  0.87142600  1
  O  O6  1  0.13837100  0.45814100  0.37142600  1
  O  O7  1  0.54185900  0.86162900  0.12857400  1
  O  O8  1  0.82329100  0.72503200  0.83174200  1
  O  O9  1  0.27496800  0.17670900  0.66825800  1
  O  O10  1  0.17670900  0.27496800  0.16825800  1
  O  O11  1  0.72503200  0.82329100  0.33174200  1
  O  O12  1  0.55110600  0.72962800  0.84018600  1
  O  O13  1  0.27037200  0.44889400  0.65981400  1
  O  O14  1  0.44889400  0.27037200  0.15981400  1
  O  O15  1  0.72962800  0.55110600  0.34018600  1
  O  O16  1  0.96465600  0.88745600  0.74570000  1
  O  O17  1  0.11254400  0.03534400  0.75430000  1
  O  O18  1  0.03534400  0.11254400  0.25430000  1
  O  O19  1  0.88745600  0.96465600  0.24570000  1
  O  O20  1  0.77303100  0.17690800  0.91005300  1
  O  O21  1  0.82309200  0.22696900  0.58994700  1
  O  O22  1  0.22696900  0.82309200  0.08994700  1
  O  O23  1  0.17690800  0.77303100  0.41005300  1
loop_
_geom_bond_atom_site_label_1
_geom_bond_atom_site_label_2
_geom_bond_distance
_geom_bond_site_symmetry_2
O0 P0 1.528014 1_555
O0 Th1 2.361749 1_655
O1 P1 1.528014 1_555
O1 Th0 2.361749 1_545
O2 P2 1.528014 1_555
O2 Th3 2.361749 1_455
O3 P3 1.528014 1_555
O3 Th2 2.361749 1_565
O4 P0 1.571411 1_555
O4 Th2 2.450556 1_655
O4 Th0 2.603338 1_555
O5 P1 1.571411 1_555
O5 Th3 2.450556 1_546
O5 Th1 2.603338 1_555
O6 P2 1.571411 1_555
O6 Th0 2.450556 1_455
O6 Th2 2.603338 1_555
O7 P3 1.571411 1_555
O7 Th1 2.450556 1_564
O7 Th3 2.603338 1_555
O8 P0 1.564000 1_555
O8 Th3 2.542801 1_556
O8 Th0 2.584268 1_555
O9 P1 1.564000 1_555
O9 Th2 2.542801 1_555
O9 Th1 2.584268 1_555
O10 P2 1.564000 1_555
O10 Th1 2.542801 1_554
O10 Th2 2.584268 1_555
O11 P3 1.564000 1_555
O11 Th0 2.542801 1_555
O11 Th3 2.584268 1_555
O12 P0 1.539223 1_555
O12 Th1 2.444579 1_565
O13 P1 1.539223 1_555
O13 Th0 2.444579 1_455
O14 P2 1.539223 1_555
O14 Th3 2.444579 1_545
O15 P3 1.539223 1_555
O15 Th2 2.444579 1_655
O16 P4 1.563933 1_565
O16 Th0 2.426014 1_555
O16 Th3 2.678262 1_556
O17 P4 1.563933 1_455
O17 Th1 2.426014 1_555
O17 Th2 2.678262 1_555
O18 P5 1.563933 1_545
O18 Th2 2.426014 1_555
O18 Th1 2.678262 1_554
O19 P5 1.563933 1_655
O19 Th3 2.426014 1_555
O19 Th0 2.678262 1_555
O20 P4 1.545053 1_555
O20 Th3 2.355558 1_546
O21 P4 1.545053 1_555
O21 Th2 2.355558 1_655
O22 P5 1.545053 1_555
O22 Th1 2.355558 1_564
O23 P5 1.545053 1_555
O23 Th0 2.355558 1_455
