# generated using pymatgen
data_Li2Ce5Sn7
_symmetry_space_group_name_H-M   'P 1'
_cell_length_a   6.26094732
_cell_length_b   13.77381385
_cell_length_c   17.27637587
_cell_angle_alpha   90.00000000
_cell_angle_beta   90.00000000
_cell_angle_gamma   90.00000000
_symmetry_Int_Tables_number   1
_chemical_formula_structural   Li2Ce5Sn7
_chemical_formula_sum   'Li8 Ce20 Sn28'
_cell_volume   1489.86494935
_cell_formula_units_Z   4
loop_
 _symmetry_equiv_pos_site_id
 _symmetry_equiv_pos_as_xyz
  1  'x, y, z'
loop_
 _atom_site_type_symbol
 _atom_site_label
 _atom_site_symmetry_multiplicity
 _atom_site_fract_x
 _atom_site_fract_y
 _atom_site_fract_z
 _atom_site_occupancy
  Li  Li0  1  0.41671369  0.23220712  0.01992158  1
  Li  Li1  1  0.08328631  0.76779288  0.51992158  1
  Li  Li2  1  0.58328631  0.73220712  0.48007842  1
  Li  Li3  1  0.91671369  0.26779288  0.98007842  1
  Li  Li4  1  0.12259364  0.76814376  0.22990112  1
  Li  Li5  1  0.37740636  0.23185624  0.72990112  1
  Li  Li6  1  0.87740636  0.26814376  0.27009888  1
  Li  Li7  1  0.62259364  0.73185624  0.77009888  1
  Ce  Ce0  1  0.35841806  0.18086555  0.54144882  1
  Ce  Ce1  1  0.14158194  0.81913445  0.04144882  1
  Ce  Ce2  1  0.64158194  0.68086555  0.95855118  1
  Ce  Ce3  1  0.85841806  0.31913445  0.45855118  1
  Ce  Ce4  1  0.63715491  0.00086634  0.01720410  1
  Ce  Ce5  1  0.86284509  0.99913366  0.51720410  1
  Ce  Ce6  1  0.36284509  0.50086634  0.48279590  1
  Ce  Ce7  1  0.13715491  0.49913366  0.98279590  1
  Ce  Ce8  1  0.14372455  0.49754551  0.26305559  1
  Ce  Ce9  1  0.35627545  0.50245449  0.76305559  1
  Ce  Ce10  1  0.85627545  0.99754551  0.23694441  1
  Ce  Ce11  1  0.64372455  0.00245449  0.73694441  1
  Ce  Ce12  1  0.64597301  0.42393902  0.12279366  1
  Ce  Ce13  1  0.85402699  0.57606098  0.62279366  1
  Ce  Ce14  1  0.35402699  0.92393902  0.37720634  1
  Ce  Ce15  1  0.14597301  0.07606098  0.87720634  1
  Ce  Ce16  1  0.36300455  0.17753464  0.21708377  1
  Ce  Ce17  1  0.13699545  0.82246536  0.71708377  1
  Ce  Ce18  1  0.63699545  0.67753464  0.28291623  1
  Ce  Ce19  1  0.86300455  0.32246536  0.78291623  1
  Sn  Sn0  1  0.13558565  0.06154676  0.06485246  1
  Sn  Sn1  1  0.36441435  0.93845324  0.56485246  1
  Sn  Sn2  1  0.86441435  0.56154676  0.43514754  1
  Sn  Sn3  1  0.63558565  0.43845324  0.93514754  1
  Sn  Sn4  1  0.09628263  0.12076589  0.37884691  1
  Sn  Sn5  1  0.40371737  0.87923411  0.87884691  1
  Sn  Sn6  1  0.90371737  0.62076589  0.12115309  1
  Sn  Sn7  1  0.59628263  0.37923411  0.62115309  1
  Sn  Sn8  1  0.14805762  0.05750726  0.68994256  1
  Sn  Sn9  1  0.35194238  0.94249274  0.18994256  1
  Sn  Sn10  1  0.85194238  0.55750726  0.81005744  1
  Sn  Sn11  1  0.64805762  0.44249274  0.31005744  1
  Sn  Sn12  1  0.20255147  0.68883473  0.37210793  1
  Sn  Sn13  1  0.29744853  0.31116527  0.87210793  1
  Sn  Sn14  1  0.79744853  0.18883473  0.12789207  1
  Sn  Sn15  1  0.70255147  0.81116527  0.62789207  1
  Sn  Sn16  1  0.13732324  0.34886983  0.12127648  1
  Sn  Sn17  1  0.36267676  0.65113017  0.62127648  1
  Sn  Sn18  1  0.86267676  0.84886983  0.37872352  1
  Sn  Sn19  1  0.63732324  0.15113017  0.87872352  1
  Sn  Sn20  1  0.32705843  0.31319459  0.37842581  1
  Sn  Sn21  1  0.17294157  0.68680541  0.87842581  1
  Sn  Sn22  1  0.67294157  0.81319459  0.12157419  1
  Sn  Sn23  1  0.82705843  0.18680541  0.62157419  1
  Sn  Sn24  1  0.61551712  0.12541897  0.37880199  1
  Sn  Sn25  1  0.88448288  0.87458103  0.87880199  1
  Sn  Sn26  1  0.38448288  0.62541897  0.12119801  1
  Sn  Sn27  1  0.11551712  0.37458103  0.62119801  1
loop_
_geom_bond_atom_site_label_1
_geom_bond_atom_site_label_2
_geom_bond_distance
_geom_bond_site_symmetry_2
Li0 Sn13 2.874310 1_554
Li0 Sn16 2.950954 1_555
Li0 Sn19 3.017535 1_554
Li0 Sn0 3.037455 1_555
Li0 Sn14 3.085238 1_555
Li1 Sn12 2.874310 1_555
Li1 Sn17 2.950954 1_555
Li1 Sn18 3.017535 1_455
Li1 Sn1 3.037455 1_555
Li1 Sn15 3.085238 1_455
Li2 Sn15 2.874310 1_555
Li2 Sn18 2.950954 1_555
Li2 Sn17 3.017535 1_555
Li2 Sn2 3.037455 1_555
Li2 Sn12 3.085238 1_555
Li3 Sn14 2.874310 1_556
Li3 Sn19 2.950954 1_555
Li3 Sn16 3.017535 1_656
Li3 Sn3 3.037455 1_555
Li3 Sn13 3.085238 1_655
Li4 Sn12 2.734937 1_555
Li4 Sn9 2.881919 1_555
Li4 Sn6 3.086815 1_455
Li4 Sn26 3.174906 1_555
Li4 Sn18 3.239620 1_455
Li4 Sn22 3.437029 1_455
Li5 Sn13 2.734937 1_555
Li5 Sn8 2.881919 1_555
Li5 Sn7 3.086815 1_555
Li5 Sn27 3.174906 1_555
Li5 Sn19 3.239620 1_555
Li5 Sn23 3.437029 1_555
Li6 Sn14 2.734937 1_555
Li6 Sn11 2.881919 1_555
Li6 Sn4 3.086815 1_655
Li6 Sn24 3.174906 1_555
Li6 Sn16 3.239620 1_655
Li6 Sn20 3.437029 1_655
Li7 Sn15 2.734937 1_555
Li7 Sn10 2.881919 1_555
Li7 Sn5 3.086815 1_555
Li7 Sn25 3.174906 1_555
Li7 Sn17 3.239620 1_555
Li7 Sn21 3.437029 1_555
Ce0 Sn23 3.245312 1_555
Ce0 Sn24 3.327182 1_555
Ce0 Li5 3.332787 1_555
Ce0 Sn8 3.347099 1_555
Ce0 Sn4 3.357125 1_555
Ce0 Sn20 3.360516 1_555
Ce0 Sn1 3.363544 1_545
Ce0 Sn27 3.366061 1_555
Ce0 Sn7 3.402857 1_555
Ce0 Sn23 3.604249 1_455
Ce1 Sn22 3.245312 1_455
Ce1 Sn25 3.327182 1_454
Ce1 Li4 3.332787 1_555
Ce1 Sn9 3.347099 1_555
Ce1 Sn5 3.357125 1_554
Ce1 Sn21 3.360516 1_554
Ce1 Sn0 3.363544 1_565
Ce1 Sn26 3.366061 1_555
Ce1 Sn6 3.402857 1_455
Ce1 Sn22 3.604249 1_555
Ce2 Sn21 3.245312 1_555
Ce2 Sn26 3.327182 1_556
Ce2 Li7 3.332787 1_555
Ce2 Sn10 3.347099 1_555
Ce2 Sn6 3.357125 1_556
Ce2 Sn22 3.360516 1_556
Ce2 Sn3 3.363544 1_555
Ce2 Sn25 3.366061 1_555
Ce2 Sn5 3.402857 1_555
Ce2 Sn21 3.604249 1_655
Ce3 Sn20 3.245312 1_655
Ce3 Sn27 3.327182 1_655
Ce3 Li6 3.332787 1_555
Ce3 Sn11 3.347099 1_555
Ce3 Sn7 3.357125 1_555
Ce3 Sn23 3.360516 1_555
Ce3 Sn2 3.363544 1_555
Ce3 Sn24 3.366061 1_555
Ce3 Sn4 3.402857 1_655
Ce3 Sn20 3.604249 1_555
Ce4 Sn22 3.159668 1_545
Ce4 Sn19 3.163458 1_554
Ce4 Sn5 3.264422 1_544
Ce4 Sn0 3.333865 1_655
Ce4 Sn25 3.337782 1_544
Ce4 Sn0 3.352265 1_555
Ce4 Sn14 3.371523 1_555
Ce4 Li0 3.472824 1_555
Ce4 Sn9 3.569482 1_545
Ce5 Sn23 3.159668 1_565
Ce5 Sn18 3.163458 1_555
Ce5 Sn4 3.264422 1_665
Ce5 Sn1 3.333865 1_555
Ce5 Sn24 3.337782 1_565
Ce5 Sn1 3.352265 1_655
Ce5 Sn15 3.371523 1_555
Ce5 Li1 3.472824 1_655
Ce5 Sn8 3.569482 1_665
Ce6 Sn20 3.159668 1_555
Ce6 Sn17 3.163458 1_555
Ce6 Sn7 3.264422 1_555
Ce6 Sn2 3.333865 1_455
Ce6 Sn27 3.337782 1_555
Ce6 Sn2 3.352265 1_555
Ce6 Sn12 3.371523 1_555
Ce6 Li2 3.472824 1_555
Ce6 Sn11 3.569482 1_555
Ce7 Sn21 3.159668 1_555
Ce7 Sn16 3.163458 1_556
Ce7 Sn6 3.264422 1_456
Ce7 Sn3 3.333865 1_555
Ce7 Sn26 3.337782 1_556
Ce7 Sn3 3.352265 1_455
Ce7 Sn13 3.371523 1_555
Ce7 Li3 3.472824 1_455
Ce7 Sn10 3.569482 1_455
Ce8 Sn16 3.192949 1_555
Ce8 Sn12 3.259953 1_555
Ce8 Sn11 3.296229 1_455
Ce8 Sn6 3.338969 1_455
Ce8 Sn11 3.347362 1_555
Ce8 Sn26 3.373533 1_555
Ce8 Sn20 3.426065 1_555
Ce8 Sn2 3.560155 1_455
Ce9 Sn17 3.192949 1_555
Ce9 Sn13 3.259953 1_555
Ce9 Sn10 3.296229 1_555
Ce9 Sn7 3.338969 1_555
Ce9 Sn10 3.347362 1_455
Ce9 Sn27 3.373533 1_555
Ce9 Sn21 3.426065 1_555
Ce9 Sn3 3.560155 1_555
Ce10 Sn18 3.192949 1_555
Ce10 Sn14 3.259953 1_565
Ce10 Sn9 3.296229 1_655
Ce10 Sn4 3.338969 1_665
Ce10 Sn9 3.347362 1_555
Ce10 Sn24 3.373533 1_565
Ce10 Sn22 3.426065 1_555
Ce10 Sn0 3.560155 1_665
Ce11 Sn19 3.192949 1_555
Ce11 Sn15 3.259953 1_545
Ce11 Sn8 3.296229 1_555
Ce11 Sn5 3.338969 1_545
Ce11 Sn8 3.347362 1_655
Ce11 Sn25 3.373533 1_545
Ce11 Sn23 3.426065 1_555
Ce11 Sn1 3.560155 1_545
Ce12 Sn6 3.155113 1_555
Ce12 Sn26 3.222196 1_555
Ce12 Sn11 3.245343 1_555
Ce12 Sn16 3.245543 1_655
Ce12 Sn3 3.248654 1_554
Ce12 Sn16 3.348385 1_555
Ce12 Sn14 3.375449 1_555
Ce13 Sn7 3.155113 1_555
Ce13 Sn27 3.222196 1_655
Ce13 Sn10 3.245343 1_555
Ce13 Sn17 3.245543 1_555
Ce13 Sn2 3.248654 1_555
Ce13 Sn17 3.348385 1_655
Ce13 Sn15 3.375449 1_555
Ce14 Sn4 3.155113 1_565
Ce14 Sn24 3.222196 1_565
Ce14 Sn9 3.245343 1_555
Ce14 Sn18 3.245543 1_455
Ce14 Sn1 3.248654 1_555
Ce14 Sn18 3.348385 1_555
Ce14 Sn12 3.375449 1_555
Ce15 Sn5 3.155113 1_545
Ce15 Sn25 3.222196 1_445
Ce15 Sn8 3.245343 1_555
Ce15 Sn19 3.245543 1_555
Ce15 Sn0 3.248654 1_556
Ce15 Sn19 3.348385 1_455
Ce15 Sn13 3.375449 1_555
Ce16 Sn14 3.130047 1_555
Ce16 Sn16 3.210221 1_555
Ce16 Sn9 3.271938 1_545
Ce16 Sn24 3.289475 1_555
Ce16 Sn4 3.348181 1_555
Ce16 Sn20 3.363299 1_555
Ce16 Sn0 3.390665 1_555
Ce16 Sn14 3.864805 1_455
Ce17 Sn15 3.130047 1_455
Ce17 Sn17 3.210221 1_555
Ce17 Sn8 3.271938 1_565
Ce17 Sn25 3.289475 1_455
Ce17 Sn5 3.348181 1_555
Ce17 Sn21 3.363299 1_555
Ce17 Sn1 3.390665 1_555
Ce17 Sn15 3.864805 1_555
Ce18 Sn12 3.130047 1_555
Ce18 Sn18 3.210221 1_555
Ce18 Sn11 3.271938 1_555
Ce18 Sn26 3.289475 1_555
Ce18 Sn6 3.348181 1_555
Ce18 Sn22 3.363299 1_555
Ce18 Sn2 3.390665 1_555
Ce18 Sn12 3.864805 1_655
Ce19 Sn13 3.130047 1_655
Ce19 Sn19 3.210221 1_555
Ce19 Sn10 3.271938 1_555
Ce19 Sn27 3.289475 1_655
Ce19 Sn7 3.348181 1_555
Ce19 Sn23 3.363299 1_555
Ce19 Sn3 3.390665 1_555
Ce19 Sn13 3.864805 1_555
Sn0 Sn14 2.956674 1_455
Sn0 Sn9 3.032217 1_545
Sn1 Sn15 2.956674 1_555
Sn1 Sn8 3.032217 1_565
Sn10 Sn21 2.933594 1_655
Sn10 Sn3 3.032217 1_555
Sn11 Sn20 2.933594 1_555
Sn11 Sn2 3.032217 1_555
Sn12 Sn2 2.956674 1_455
Sn12 Sn18 3.065957 1_455
Sn13 Sn3 2.956674 1_555
Sn13 Sn19 3.065957 1_555
Sn14 Sn16 3.065957 1_655
Sn15 Sn17 3.065957 1_555
Sn20 Sn4 3.018732 1_555
Sn20 Sn24 3.154546 1_555
Sn21 Sn5 3.018732 1_555
Sn21 Sn25 3.154546 1_455
Sn22 Sn9 2.933594 1_555
Sn22 Sn6 3.018732 1_555
Sn22 Sn26 3.154546 1_555
Sn23 Sn8 2.933594 1_655
Sn23 Sn7 3.018732 1_555
Sn23 Sn27 3.154546 1_655
Sn24 Sn4 3.010730 1_655
Sn24 Sn4 3.251532 1_555
Sn25 Sn5 3.010730 1_555
Sn25 Sn5 3.251532 1_655
Sn26 Sn6 3.010730 1_455
Sn26 Sn6 3.251532 1_555
Sn27 Sn7 3.010730 1_555
Sn27 Sn7 3.251532 1_455
