# generated using pymatgen
data_Nb2FeCo3
_symmetry_space_group_name_H-M   'P 1'
_cell_length_a   4.80198029
_cell_length_b   4.80198029
_cell_length_c   7.68057900
_cell_angle_alpha   90.00000000
_cell_angle_beta   90.00000000
_cell_angle_gamma   120.00000396
_symmetry_Int_Tables_number   1
_chemical_formula_structural   Nb2FeCo3
_chemical_formula_sum   'Nb4 Fe2 Co6'
_cell_volume   153.37879472
_cell_formula_units_Z   2
loop_
 _symmetry_equiv_pos_site_id
 _symmetry_equiv_pos_as_xyz
  1  'x, y, z'
loop_
 _atom_site_type_symbol
 _atom_site_label
 _atom_site_symmetry_multiplicity
 _atom_site_fract_x
 _atom_site_fract_y
 _atom_site_fract_z
 _atom_site_occupancy
  Nb  Nb0  1  0.33333300  0.66666700  0.43625900  1
  Nb  Nb1  1  0.66666700  0.33333300  0.56374100  1
  Nb  Nb2  1  0.66666700  0.33333300  0.93625900  1
  Nb  Nb3  1  0.33333300  0.66666700  0.06374100  1
  Fe  Fe0  1  0.00000000  0.00000000  0.50000000  1
  Fe  Fe1  1  0.00000000  0.00000000  0.00000000  1
  Co  Co0  1  0.83074700  0.16925300  0.25000000  1
  Co  Co1  1  0.83074700  0.66149400  0.25000000  1
  Co  Co2  1  0.33850600  0.16925300  0.25000000  1
  Co  Co3  1  0.16925300  0.83074700  0.75000000  1
  Co  Co4  1  0.16925300  0.33850600  0.75000000  1
  Co  Co5  1  0.66149400  0.83074700  0.75000000  1
loop_
_geom_bond_atom_site_label_1
_geom_bond_atom_site_label_2
_geom_bond_distance
_geom_bond_site_symmetry_2
Nb0 Nb3 2.861154 1_555
Nb0 Nb1 2.940243 1_455
Nb0 Nb1 2.940243 1_565
Nb0 Nb1 2.940251 1_555
Nb1 Nb2 2.861154 1_555
Nb2 Nb3 2.940243 1_546
Nb2 Nb3 2.940243 1_656
Nb2 Nb3 2.940251 1_556
Fe0 Nb0 2.815315 1_545
Fe0 Nb1 2.815315 1_455
Fe0 Nb1 2.815319 1_555
Fe0 Nb0 2.815319 1_445
Fe0 Nb0 2.815319 1_555
Fe0 Nb1 2.815319 1_445
Fe1 Nb3 2.815315 1_545
Fe1 Nb2 2.815315 1_454
Fe1 Nb3 2.815319 1_445
Fe1 Nb2 2.815319 1_554
Fe1 Nb2 2.815319 1_444
Fe1 Nb3 2.815319 1_555
Co0 Co1 2.363732 1_555
Co0 Co2 2.363732 1_555
Co0 Fe0 2.380891 1_655
Co0 Fe1 2.380891 1_655
Co0 Co2 2.438249 1_655
Co0 Co1 2.438249 1_545
Co0 Nb1 2.769317 1_555
Co0 Nb2 2.769317 1_554
Co0 Nb3 2.794954 1_655
Co0 Nb0 2.794954 1_545
Co0 Nb3 2.794954 1_545
Co0 Nb0 2.794954 1_655
Co1 Co2 2.363731 1_555
Co1 Fe0 2.380891 1_665
Co1 Fe1 2.380891 1_665
Co1 Co2 2.438249 1_665
Co1 Nb1 2.769319 1_555
Co1 Nb2 2.769319 1_554
Co1 Nb0 2.794952 1_655
Co1 Nb3 2.794952 1_655
Co1 Nb3 2.794956 1_555
Co1 Nb0 2.794956 1_555
Co2 Fe1 2.380891 1_555
Co2 Fe0 2.380891 1_555
Co2 Nb1 2.769319 1_555
Co2 Nb2 2.769319 1_554
Co2 Nb0 2.794952 1_545
Co2 Nb3 2.794952 1_545
Co2 Nb3 2.794956 1_555
Co2 Nb0 2.794956 1_555
Co3 Co4 2.363732 1_555
Co3 Co5 2.363732 1_555
Co3 Fe0 2.380891 1_565
Co3 Fe1 2.380891 1_566
Co3 Co4 2.438249 1_565
Co3 Co5 2.438249 1_455
Co3 Nb0 2.769317 1_555
Co3 Nb3 2.769317 1_556
Co3 Nb1 2.794954 1_455
Co3 Nb2 2.794954 1_455
Co3 Nb1 2.794954 1_565
Co3 Nb2 2.794954 1_565
Co4 Co5 2.363731 1_555
Co4 Fe0 2.380891 1_555
Co4 Fe1 2.380891 1_556
Co4 Co5 2.438249 1_445
Co4 Nb0 2.769319 1_555
Co4 Nb3 2.769319 1_556
Co4 Nb2 2.794952 1_455
Co4 Nb1 2.794952 1_455
Co4 Nb1 2.794956 1_555
Co4 Nb2 2.794956 1_555
Co5 Fe0 2.380891 1_665
Co5 Fe1 2.380891 1_666
Co5 Nb0 2.769319 1_555
Co5 Nb3 2.769319 1_556
Co5 Nb1 2.794952 1_565
Co5 Nb2 2.794952 1_565
Co5 Nb1 2.794956 1_555
Co5 Nb2 2.794956 1_555
