# generated using pymatgen
data_Ho2Ni7
_symmetry_space_group_name_H-M   'P 1'
_cell_length_a   4.92357832
_cell_length_b   4.92357900
_cell_length_c   12.33415688
_cell_angle_alpha   78.48694627
_cell_angle_beta   78.48694465
_cell_angle_gamma   60.00000218
_symmetry_Int_Tables_number   1
_chemical_formula_structural   Ho2Ni7
_chemical_formula_sum   'Ho4 Ni14'
_cell_volume   251.97088862
_cell_formula_units_Z   2
loop_
 _symmetry_equiv_pos_site_id
 _symmetry_equiv_pos_as_xyz
  1  'x, y, z'
loop_
 _atom_site_type_symbol
 _atom_site_label
 _atom_site_symmetry_multiplicity
 _atom_site_fract_x
 _atom_site_fract_y
 _atom_site_fract_z
 _atom_site_occupancy
  Ho  Ho0  1  0.94839600  0.94839600  0.15481100  1
  Ho  Ho1  1  0.05160400  0.05160400  0.84518900  1
  Ho  Ho2  1  0.85195800  0.85195800  0.44412600  1
  Ho  Ho3  1  0.14804200  0.14804200  0.55587400  1
  Ni  Ni0  1  0.50000000  0.50000000  0.50000000  1
  Ni  Ni1  1  0.72192100  0.72192100  0.83423800  1
  Ni  Ni2  1  0.27807900  0.27807900  0.16576200  1
  Ni  Ni3  1  0.61130400  0.61130400  0.16608800  1
  Ni  Ni4  1  0.38869600  0.38869600  0.83391200  1
  Ni  Ni5  1  0.00000000  0.50000000  0.00000000  1
  Ni  Ni6  1  0.50000000  0.00000000  0.00000000  1
  Ni  Ni7  1  0.50000000  0.50000000  0.00000000  1
  Ni  Ni8  1  0.38904100  0.38904100  0.33043900  1
  Ni  Ni9  1  0.89148000  0.38904100  0.33043900  1
  Ni  Ni10  1  0.38904100  0.89148000  0.33043900  1
  Ni  Ni11  1  0.61095900  0.61095900  0.66956100  1
  Ni  Ni12  1  0.10852000  0.61095900  0.66956100  1
  Ni  Ni13  1  0.61095900  0.10852000  0.66956100  1
loop_
_geom_bond_atom_site_label_1
_geom_bond_atom_site_label_2
_geom_bond_distance
_geom_bond_site_symmetry_2
Ho0 Ni2 2.845666 1_565
Ho0 Ni2 2.845666 1_665
Ho0 Ni2 2.845667 1_655
Ho0 Ni3 2.845847 1_555
Ho0 Ni3 2.845851 1_655
Ho0 Ni3 2.845852 1_565
Ho0 Ni6 3.084280 1_565
Ho0 Ni5 3.084280 1_655
Ho0 Ni7 3.084282 1_655
Ho0 Ni7 3.084282 1_565
Ho0 Ni6 3.084284 1_665
Ho0 Ni5 3.084284 1_665
Ho0 Ni10 3.240942 1_555
Ho0 Ni9 3.240943 1_555
Ho0 Ni8 3.240946 1_565
Ho0 Ni8 3.240946 1_655
Ho0 Ni10 3.240950 1_655
Ho0 Ni9 3.240950 1_565
Ho1 Ni1 2.845666 1_545
Ho1 Ni1 2.845666 1_445
Ho1 Ni1 2.845667 1_455
Ho1 Ni4 2.845847 1_555
Ho1 Ni4 2.845851 1_455
Ho1 Ni4 2.845852 1_545
Ho1 Ni6 3.084280 1_556
Ho1 Ni5 3.084280 1_556
Ho1 Ni7 3.084282 1_456
Ho1 Ni7 3.084282 1_546
Ho1 Ni6 3.084284 1_456
Ho1 Ni5 3.084284 1_546
Ho1 Ni13 3.240942 1_555
Ho1 Ni12 3.240943 1_555
Ho1 Ni11 3.240946 1_545
Ho1 Ni11 3.240946 1_455
Ho1 Ni13 3.240950 1_455
Ho1 Ni12 3.240950 1_545
Ho2 Ni10 2.814651 1_555
Ho2 Ni9 2.814651 1_555
Ho2 Ni8 2.814653 1_655
Ho2 Ni8 2.814654 1_565
Ho2 Ni10 2.814655 1_655
Ho2 Ni9 2.814656 1_565
Ho2 Ni0 2.920660 1_655
Ho2 Ni0 2.920660 1_555
Ho2 Ni0 2.920660 1_565
Ho2 Ni12 3.053076 1_655
Ho2 Ni13 3.053076 1_565
Ho2 Ni11 3.053078 1_555
Ho3 Ni13 2.814651 1_555
Ho3 Ni12 2.814651 1_555
Ho3 Ni11 2.814653 1_455
Ho3 Ni11 2.814654 1_545
Ho3 Ni13 2.814655 1_455
Ho3 Ni12 2.814656 1_545
Ho3 Ni0 2.920660 1_455
Ho3 Ni0 2.920660 1_555
Ho3 Ni0 2.920660 1_545
Ho3 Ni9 3.053076 1_455
Ho3 Ni10 3.053076 1_545
Ho3 Ni8 3.053078 1_555
Ni0 Ni11 2.486258 1_555
Ni0 Ni8 2.486258 1_555
Ni0 Ni12 2.486261 1_555
Ni0 Ni9 2.486261 1_555
Ni0 Ni13 2.486261 1_555
Ni0 Ni10 2.486261 1_555
Ni1 Ni12 2.430414 1_655
Ni1 Ni13 2.430414 1_565
Ni1 Ni11 2.430419 1_555
Ni1 Ni5 2.445041 1_656
Ni1 Ni6 2.445041 1_566
Ni1 Ni7 2.445043 1_556
Ni2 Ni9 2.430414 1_455
Ni2 Ni8 2.430419 1_555
Ni2 Ni5 2.445041 1_555
Ni2 Ni6 2.445041 1_555
Ni2 Ni7 2.445043 1_555
Ni3 Ni8 2.435340 1_555
Ni3 Ni9 2.435342 1_555
Ni3 Ni5 2.448226 1_655
Ni3 Ni7 2.448226 1_555
Ni3 Ni6 2.448226 1_565
Ni4 Ni5 2.448226 1_556
Ni4 Ni7 2.448226 1_556
Ni4 Ni6 2.448226 1_556
Ni5 Ni7 2.461789 1_555
Ni5 Ni7 2.461789 1_455
Ni5 Ni6 2.461789 1_465
Ni5 Ni6 2.461789 1_555
Ni6 Ni7 2.461790 1_555
Ni6 Ni7 2.461790 1_545
Ni8 Ni9 2.449781 1_455
Ni8 Ni9 2.473798 1_555
Ni10 Ni2 2.430414 1_565
Ni10 Ni3 2.435342 1_555
Ni10 Ni9 2.449781 1_465
Ni10 Ni8 2.449781 1_565
Ni10 Ni9 2.473798 1_555
Ni10 Ni8 2.473798 1_555
Ni11 Ni4 2.435340 1_555
Ni11 Ni12 2.449781 1_655
Ni11 Ni13 2.449781 1_565
Ni11 Ni12 2.473798 1_555
Ni11 Ni13 2.473798 1_555
Ni12 Ni4 2.435342 1_555
Ni12 Ni13 2.449781 1_465
Ni12 Ni13 2.473798 1_555
Ni13 Ni4 2.435342 1_555
