# generated using pymatgen
data_SrMg14Ti
_symmetry_space_group_name_H-M   'P 1'
_cell_length_a   6.56254804
_cell_length_b   6.56254747
_cell_length_c   10.32638393
_cell_angle_alpha   90.00000000
_cell_angle_beta   90.00000000
_cell_angle_gamma   120.00000286
_symmetry_Int_Tables_number   1
_chemical_formula_structural   SrMg14Ti
_chemical_formula_sum   'Sr1 Mg14 Ti1'
_cell_volume   385.14462439
_cell_formula_units_Z   1
loop_
 _symmetry_equiv_pos_site_id
 _symmetry_equiv_pos_as_xyz
  1  'x, y, z'
loop_
 _atom_site_type_symbol
 _atom_site_label
 _atom_site_symmetry_multiplicity
 _atom_site_fract_x
 _atom_site_fract_y
 _atom_site_fract_z
 _atom_site_occupancy
  Sr  Sr0  1  0.16666700  0.33333300  0.62500000  1
  Mg  Mg0  1  0.16679080  0.83339490  0.12500000  1
  Mg  Mg1  1  0.17647724  0.83823812  0.62500000  1
  Mg  Mg2  1  0.66660510  0.33320920  0.12500000  1
  Mg  Mg3  1  0.66176188  0.32352276  0.62500000  1
  Mg  Mg4  1  0.66660510  0.83339490  0.12500000  1
  Mg  Mg5  1  0.66176188  0.83823812  0.62500000  1
  Mg  Mg6  1  0.33465796  0.16534204  0.36096977  1
  Mg  Mg7  1  0.33465796  0.16534204  0.88903023  1
  Mg  Mg8  1  0.33465796  0.66931692  0.36096977  1
  Mg  Mg9  1  0.33465796  0.66931692  0.88903023  1
  Mg  Mg10  1  0.83068308  0.16534204  0.36096977  1
  Mg  Mg11  1  0.83068308  0.16534204  0.88903023  1
  Mg  Mg12  1  0.83333300  0.66666700  0.37992118  1
  Mg  Mg13  1  0.83333300  0.66666700  0.87007882  1
  Ti  Ti0  1  0.16666700  0.33333300  0.12500000  1
loop_
_geom_bond_atom_site_label_1
_geom_bond_atom_site_label_2
_geom_bond_distance
_geom_bond_site_symmetry_2
Mg0 Mg9 3.081691 1_554
Mg0 Mg8 3.081691 1_555
Mg0 Mg7 3.081698 1_564
Mg0 Mg6 3.081698 1_565
Mg0 Mg13 3.243640 1_454
Mg0 Mg12 3.243640 1_455
Mg0 Mg2 3.280055 1_565
Mg0 Mg4 3.280055 1_555
Mg0 Ti0 3.281274 1_555
Mg0 Ti0 3.281274 1_565
Mg0 Mg2 3.282492 1_455
Mg0 Mg4 3.282493 1_455
Mg1 Mg3 3.184703 1_565
Mg1 Mg5 3.184704 1_555
Mg1 Mg12 3.195016 1_455
Mg1 Mg13 3.195016 1_455
Mg1 Sr0 3.281747 1_555
Mg1 Sr0 3.281747 1_565
Mg1 Mg8 3.300138 1_555
Mg1 Mg9 3.300138 1_555
Mg1 Mg6 3.300144 1_565
Mg1 Mg7 3.300144 1_565
Mg1 Mg3 3.377844 1_455
Mg1 Mg5 3.377844 1_455
Mg2 Mg7 3.081698 1_554
Mg2 Mg6 3.081698 1_555
Mg2 Mg4 3.280055 1_545
Mg2 Ti0 3.281274 1_655
Mg2 Ti0 3.281274 1_555
Mg2 Mg4 3.282492 1_555
Mg3 Mg5 3.184703 1_545
Mg3 Sr0 3.281748 1_655
Mg3 Sr0 3.281748 1_555
Mg3 Mg6 3.300145 1_555
Mg3 Mg7 3.300145 1_555
Mg3 Mg5 3.377844 1_555
Mg4 Mg9 3.081698 1_554
Mg4 Mg8 3.081698 1_555
Mg4 Ti0 3.281274 1_555
Mg4 Ti0 3.281274 1_665
Mg5 Sr0 3.281747 1_555
Mg5 Sr0 3.281747 1_665
Mg5 Mg8 3.300144 1_555
Mg5 Mg9 3.300144 1_555
Mg6 Ti0 3.095764 1_555
Mg6 Mg8 3.255188 1_545
Mg6 Mg8 3.307359 1_555
Mg6 Sr0 3.328642 1_555
Mg7 Ti0 3.095764 1_556
Mg7 Mg9 3.255188 1_545
Mg7 Mg9 3.307359 1_555
Mg7 Sr0 3.328642 1_555
Mg8 Ti0 3.095771 1_555
Mg8 Sr0 3.328649 1_555
Mg9 Ti0 3.095771 1_556
Mg9 Sr0 3.328649 1_555
Mg10 Mg2 3.081691 1_555
Mg10 Mg4 3.081698 1_545
Mg10 Ti0 3.095771 1_655
Mg10 Mg8 3.255188 1_545
Mg10 Mg6 3.255189 1_555
Mg10 Mg12 3.287139 1_555
Mg10 Mg12 3.287139 1_545
Mg10 Mg3 3.300138 1_555
Mg10 Mg5 3.300144 1_545
Mg10 Mg8 3.307359 1_655
Mg10 Mg6 3.307359 1_655
Mg10 Sr0 3.328649 1_655
Mg11 Mg2 3.081691 1_556
Mg11 Mg4 3.081698 1_546
Mg11 Ti0 3.095771 1_656
Mg11 Mg9 3.255188 1_545
Mg11 Mg7 3.255189 1_555
Mg11 Mg13 3.287139 1_555
Mg11 Mg13 3.287139 1_545
Mg11 Mg3 3.300138 1_555
Mg11 Mg5 3.300144 1_545
Mg11 Mg9 3.307359 1_655
Mg11 Mg7 3.307359 1_655
Mg11 Sr0 3.328649 1_655
Mg12 Mg5 3.195009 1_555
Mg12 Mg3 3.195016 1_555
Mg12 Mg4 3.243634 1_555
Mg12 Mg2 3.243640 1_555
Mg12 Mg6 3.287139 1_555
Mg12 Mg6 3.287139 1_665
Mg12 Mg8 3.287139 1_655
Mg12 Mg8 3.287139 1_555
Mg13 Mg5 3.195009 1_555
Mg13 Mg3 3.195016 1_555
Mg13 Mg4 3.243634 1_556
Mg13 Mg2 3.243640 1_556
Mg13 Mg7 3.287139 1_555
Mg13 Mg7 3.287139 1_665
Mg13 Mg9 3.287139 1_555
Mg13 Mg9 3.287139 1_655
