# generated using pymatgen
data_Sr2LiLaTaO6
_symmetry_space_group_name_H-M   'P 1'
_cell_length_a   5.89939168
_cell_length_b   5.89939168
_cell_length_c   6.71953705
_cell_angle_alpha   63.79932742
_cell_angle_beta   63.79932742
_cell_angle_gamma   59.85660142
_symmetry_Int_Tables_number   1
_chemical_formula_structural   Sr2LiLaTaO6
_chemical_formula_sum   'Sr2 Li1 La1 Ta1 O6'
_cell_volume   174.02259185
_cell_formula_units_Z   1
loop_
 _symmetry_equiv_pos_site_id
 _symmetry_equiv_pos_as_xyz
  1  'x, y, z'
loop_
 _atom_site_type_symbol
 _atom_site_label
 _atom_site_symmetry_multiplicity
 _atom_site_fract_x
 _atom_site_fract_y
 _atom_site_fract_z
 _atom_site_occupancy
  Sr  Sr0  1  0.71753900  0.71753900  0.84679600  1
  Sr  Sr1  1  0.19137400  0.19137400  0.42963100  1
  Li  Li0  1  0.36585000  0.36585000  0.90163800  1
  La  La0  1  0.51675600  0.51675600  0.44922100  1
  Ta  Ta0  1  0.00296900  0.00296900  0.98948500  1
  O  O0  1  0.78003200  0.78003200  0.17416400  1
  O  O1  1  0.24179000  0.24179000  0.75293500  1
  O  O2  1  0.76305000  0.24194000  0.75230000  1
  O  O3  1  0.26439400  0.77889000  0.17368200  1
  O  O4  1  0.24194000  0.76305000  0.75230000  1
  O  O5  1  0.77889000  0.26439400  0.17368200  1
loop_
_geom_bond_atom_site_label_1
_geom_bond_atom_site_label_2
_geom_bond_distance
_geom_bond_site_symmetry_2
Li0 O4 1.970573 1_555
Li0 O2 1.970573 1_555
Li0 O1 1.974645 1_555
La0 O0 2.365108 1_555
La0 O5 2.372642 1_555
La0 O3 2.372642 1_555
La0 O4 2.493732 1_555
La0 O2 2.493732 1_555
La0 O1 2.494746 1_555
O0 Ta0 1.963230 1_664
O0 Sr0 2.584483 1_554
O1 Ta0 2.129576 1_555
O1 Sr1 2.475165 1_555
O1 Sr0 2.993817 1_545
O1 Sr0 2.993817 1_455
O2 Ta0 2.129494 1_655
O2 Sr1 2.480167 1_655
O2 Sr0 2.999163 1_545
O2 Sr0 3.002256 1_555
O3 Ta0 1.962447 1_564
O3 Sr0 2.578236 1_554
O4 Ta0 2.129494 1_565
O4 Sr1 2.480167 1_565
O4 Sr0 2.999163 1_455
O4 Sr0 3.002256 1_555
O5 Ta0 1.962447 1_654
O5 Sr0 2.578236 1_554
