# generated using pymatgen
data_LaMg14Ti
_symmetry_space_group_name_H-M   'P 1'
_cell_length_a   6.55757915
_cell_length_b   6.36332447
_cell_length_c   10.41713179
_cell_angle_alpha   90.00000000
_cell_angle_beta   90.00000000
_cell_angle_gamma   119.02483115
_symmetry_Int_Tables_number   1
_chemical_formula_structural   LaMg14Ti
_chemical_formula_sum   'La1 Mg14 Ti1'
_cell_volume   380.09367578
_cell_formula_units_Z   1
loop_
 _symmetry_equiv_pos_site_id
 _symmetry_equiv_pos_as_xyz
  1  'x, y, z'
loop_
 _atom_site_type_symbol
 _atom_site_label
 _atom_site_symmetry_multiplicity
 _atom_site_fract_x
 _atom_site_fract_y
 _atom_site_fract_z
 _atom_site_occupancy
  La  La0  1  0.16294906  0.83147403  0.12500000  1
  Mg  Mg0  1  0.16563490  0.33281695  0.62500000  1
  Mg  Mg1  1  0.16623633  0.83311766  0.62500000  1
  Mg  Mg2  1  0.66144827  0.33493148  0.12500000  1
  Mg  Mg3  1  0.66552635  0.33228284  0.62500000  1
  Mg  Mg4  1  0.66144827  0.82651579  0.12500000  1
  Mg  Mg5  1  0.66552635  0.83324251  0.62500000  1
  Mg  Mg6  1  0.33568949  0.17556751  0.38014845  1
  Mg  Mg7  1  0.33568949  0.17556751  0.86985155  1
  Mg  Mg8  1  0.33568949  0.66012298  0.38014845  1
  Mg  Mg9  1  0.33568949  0.66012298  0.86985155  1
  Mg  Mg10  1  0.83904031  0.16952065  0.36956855  1
  Mg  Mg11  1  0.83904031  0.16952065  0.88043145  1
  Mg  Mg12  1  0.82810002  0.66405051  0.38257494  1
  Mg  Mg13  1  0.82810002  0.66405051  0.86742506  1
  Ti  Ti0  1  0.17419185  0.33709543  0.12500000  1
loop_
_geom_bond_atom_site_label_1
_geom_bond_atom_site_label_2
_geom_bond_distance
_geom_bond_site_symmetry_2
La0 Ti0 3.182315 1_555
La0 Ti0 3.182315 1_565
La0 Mg2 3.273439 1_455
La0 Mg4 3.273439 1_455
La0 Mg9 3.276443 1_554
La0 Mg8 3.276443 1_555
La0 Mg7 3.276449 1_564
La0 Mg6 3.276449 1_565
La0 Mg2 3.284372 1_565
La0 Mg4 3.284372 1_555
La0 Mg12 3.299398 1_455
La0 Mg13 3.299398 1_454
Mg0 Mg6 3.135829 1_555
Mg0 Mg7 3.135829 1_555
Mg0 Mg8 3.135835 1_555
Mg0 Mg9 3.135835 1_555
Mg0 Mg1 3.181664 1_555
Mg0 Mg1 3.181664 1_545
Mg0 Mg10 3.253795 1_455
Mg0 Mg11 3.253795 1_455
Mg0 Mg5 3.277853 1_445
Mg0 Mg3 3.277854 1_455
Mg0 Mg5 3.279728 1_555
Mg0 Mg3 3.279728 1_555
Mg1 Mg12 3.183827 1_455
Mg1 Mg13 3.183827 1_455
Mg1 Mg8 3.184242 1_555
Mg1 Mg9 3.184242 1_555
Mg1 Mg6 3.184249 1_565
Mg1 Mg7 3.184249 1_565
Mg1 Mg3 3.273748 1_565
Mg1 Mg5 3.273748 1_555
Mg1 Mg3 3.283831 1_455
Mg1 Mg5 3.283831 1_455
Mg2 Mg4 3.128110 1_555
Mg2 Ti0 3.201926 1_555
Mg2 Mg4 3.235214 1_545
Mg2 Mg7 3.248704 1_554
Mg2 Mg6 3.248704 1_555
Mg2 Ti0 3.355697 1_655
Mg3 Mg5 3.175556 1_545
Mg3 Mg6 3.175770 1_555
Mg3 Mg7 3.175770 1_555
Mg3 Mg5 3.187769 1_555
Mg4 Ti0 3.201926 1_555
Mg4 Mg9 3.248704 1_554
Mg4 Mg8 3.248704 1_555
Mg4 Ti0 3.355697 1_665
Mg5 Mg8 3.175770 1_555
Mg5 Mg9 3.175770 1_555
Mg6 Mg8 3.083384 1_555
Mg6 Ti0 3.209180 1_555
Mg6 Mg8 3.279941 1_545
Mg7 Mg9 3.083384 1_555
Mg7 Ti0 3.209180 1_556
Mg7 Mg9 3.279941 1_545
Mg8 Ti0 3.209186 1_555
Mg9 Ti0 3.209186 1_556
Mg10 Mg2 3.185025 1_555
Mg10 Mg4 3.185032 1_545
Mg10 Mg12 3.185164 1_545
Mg10 Mg12 3.185164 1_555
Mg10 Ti0 3.191232 1_655
Mg10 Mg8 3.240197 1_655
Mg10 Mg6 3.240197 1_655
Mg10 Mg3 3.254397 1_555
Mg10 Mg5 3.254403 1_545
Mg10 Mg8 3.321431 1_545
Mg10 Mg6 3.321432 1_555
Mg11 Mg2 3.185025 1_556
Mg11 Mg4 3.185032 1_546
Mg11 Mg13 3.185164 1_545
Mg11 Mg13 3.185164 1_555
Mg11 Ti0 3.191232 1_656
Mg11 Mg9 3.240197 1_655
Mg11 Mg7 3.240197 1_655
Mg11 Mg3 3.254397 1_555
Mg11 Mg5 3.254403 1_545
Mg11 Mg9 3.321431 1_545
Mg11 Mg7 3.321432 1_555
Mg12 Mg5 3.128411 1_555
Mg12 Mg3 3.128417 1_555
Mg12 Mg6 3.217068 1_555
Mg12 Mg8 3.217069 1_555
Mg12 Mg4 3.249447 1_555
Mg12 Mg2 3.249453 1_555
Mg12 Mg6 3.340851 1_665
Mg12 Mg8 3.340851 1_655
Mg13 Mg5 3.128411 1_555
Mg13 Mg3 3.128417 1_555
Mg13 Mg7 3.217068 1_555
Mg13 Mg9 3.217069 1_555
Mg13 Mg4 3.249447 1_556
Mg13 Mg2 3.249453 1_556
Mg13 Mg7 3.340851 1_665
Mg13 Mg9 3.340851 1_655
