# generated using pymatgen
data_Re(H3C)6
_symmetry_space_group_name_H-M   'P 1'
_cell_length_a   6.45728500
_cell_length_b   7.58076319
_cell_length_c   11.19703647
_cell_angle_alpha   73.21597323
_cell_angle_beta   73.24092672
_cell_angle_gamma   64.79239835
_symmetry_Int_Tables_number   1
_chemical_formula_structural   Re(H3C)6
_chemical_formula_sum   'Re2 H36 C12'
_cell_volume   466.05437921
_cell_formula_units_Z   2
loop_
 _symmetry_equiv_pos_site_id
 _symmetry_equiv_pos_as_xyz
  1  'x, y, z'
loop_
 _atom_site_type_symbol
 _atom_site_label
 _atom_site_symmetry_multiplicity
 _atom_site_fract_x
 _atom_site_fract_y
 _atom_site_fract_z
 _atom_site_occupancy
  Re  Re0  1  0.60801700  0.73887000  0.24658200  1
  Re  Re1  1  0.40653100  0.23887000  0.74658200  1
  H  H0  1  0.60432700  0.82012500  0.47194200  1
  H  H1  1  0.10360600  0.32012500  0.97194200  1
  H  H2  1  0.63156000  0.56966300  0.48873200  1
  H  H3  1  0.31004400  0.06966300  0.98873200  1
  H  H4  1  0.88147300  0.63473700  0.42290800  1
  H  H5  1  0.06088100  0.13473700  0.92290800  1
  H  H6  1  0.27683000  0.00025500  0.39337700  1
  H  H7  1  0.32953700  0.50025500  0.89337700  1
  H  H8  1  0.15994500  0.99612300  0.26789000  1
  H  H9  1  0.57604100  0.49612300  0.76789000  1
  H  H10  1  0.18511100  0.80274900  0.40537500  1
  H  H11  1  0.60676500  0.30274900  0.90537500  1
  H  H12  1  0.60483300  0.06871300  0.30138900  1
  H  H13  1  0.02506400  0.56871300  0.80138900  1
  H  H14  1  0.83907700  0.99571300  0.17078200  1
  H  H15  1  0.99442800  0.49571300  0.67078200  1
  H  H16  1  0.54591400  0.12320600  0.14575300  1
  H  H17  1  0.18512700  0.62320600  0.64575300  1
  H  H18  1  0.85745200  0.36512400  0.18971900  1
  H  H19  1  0.58770500  0.86512400  0.68971900  1
  H  H20  1  0.00242700  0.41644100  0.28286400  1
  H  H21  1  0.29826800  0.91644100  0.78286400  1
  H  H22  1  0.75234800  0.35352600  0.35680100  1
  H  H23  1  0.53732500  0.85352600  0.85680100  1
  H  H24  1  0.52181600  0.51996400  0.12213500  1
  H  H25  1  0.83608500  0.01996400  0.62213500  1
  H  H26  1  0.30214800  0.57250600  0.26112800  1
  H  H27  1  0.86421800  0.07250600  0.76112800  1
  H  H28  1  0.29200100  0.75902900  0.12006200  1
  H  H29  1  0.82890700  0.25902900  0.62006200  1
  H  H30  1  0.80407600  0.63032100  0.01258400  1
  H  H31  1  0.55301900  0.13032100  0.51258400  1
  H  H32  1  0.74228200  0.89041700  0.99209600  1
  H  H33  1  0.37520500  0.39041700  0.49209600  1
  H  H34  1  0.97801500  0.71152200  0.06685800  1
  H  H35  1  0.24360500  0.21152200  0.56685800  1
  C  C0  1  0.69218700  0.68826500  0.42818000  1
  C  C1  1  0.19136700  0.18826500  0.92818000  1
  C  C2  1  0.26868500  0.90355500  0.33979700  1
  C  C3  1  0.48796300  0.40355500  0.83979700  1
  C  C4  1  0.65649700  0.01247800  0.21292000  1
  C  C5  1  0.11810400  0.51247800  0.71292000  1
  C  C6  1  0.83203500  0.43265200  0.26968400  1
  C  C7  1  0.46562900  0.93265200  0.76968400  1
  C  C8  1  0.40974300  0.63498200  0.17862100  1
  C  C9  1  0.77665400  0.13498200  0.67862100  1
  C  C10  1  0.79960500  0.74516200  0.05571900  1
  C  C11  1  0.39951400  0.24516200  0.55571900  1
loop_
_geom_bond_atom_site_label_1
_geom_bond_atom_site_label_2
_geom_bond_distance
_geom_bond_site_symmetry_2
C0 H0 1.095751 1_555
C0 H4 1.100840 1_555
C0 H2 1.102728 1_555
C0 Re0 2.141577 1_555
C1 H1 1.095751 1_555
C1 H5 1.100840 1_555
C1 H3 1.102728 1_555
C1 Re1 2.141580 1_555
C2 H6 1.097769 1_565
C2 H10 1.101397 1_555
C2 H8 1.101701 1_555
C2 Re0 2.133704 1_555
C3 H7 1.097772 1_555
C3 H11 1.101397 1_555
C3 H9 1.101698 1_555
C3 Re1 2.133704 1_555
C4 H12 1.098392 1_555
C4 H16 1.102113 1_555
C4 H14 1.102246 1_545
C4 Re0 2.139096 1_545
C5 H13 1.098392 1_555
C5 H17 1.102116 1_555
C5 H15 1.102240 1_455
C5 Re1 2.139099 1_555
C6 H18 1.095026 1_555
C6 H22 1.100733 1_555
C6 H20 1.102482 1_655
C6 Re0 2.134675 1_555
C7 H19 1.095026 1_555
C7 H23 1.100733 1_555
C7 H21 1.102482 1_555
C7 Re1 2.134675 1_565
C8 H24 1.095922 1_555
C8 H28 1.102117 1_555
C8 H26 1.103598 1_555
C8 Re0 2.146006 1_555
C9 H25 1.095922 1_555
C9 H29 1.102114 1_555
C9 H27 1.103598 1_555
C9 Re1 2.146006 1_555
C10 H30 1.097911 1_555
C10 H32 1.099488 1_554
C10 H34 1.105459 1_555
C10 Re0 2.136974 1_555
C11 H31 1.097911 1_555
C11 H33 1.099488 1_555
C11 H35 1.105459 1_555
C11 Re1 2.136974 1_555
