# generated using pymatgen
data_Ba8Li13GaSb12
_symmetry_space_group_name_H-M   'P 1'
_cell_length_a   9.48724943
_cell_length_b   9.48724943
_cell_length_c   21.20573383
_cell_angle_alpha   83.27825160
_cell_angle_beta   83.27825160
_cell_angle_gamma   30.40401608
_symmetry_Int_Tables_number   1
_chemical_formula_structural   Ba8Li13GaSb12
_chemical_formula_sum   'Ba8 Li13 Ga1 Sb12'
_cell_volume   958.84182401
_cell_formula_units_Z   1
loop_
 _symmetry_equiv_pos_site_id
 _symmetry_equiv_pos_as_xyz
  1  'x, y, z'
loop_
 _atom_site_type_symbol
 _atom_site_label
 _atom_site_symmetry_multiplicity
 _atom_site_fract_x
 _atom_site_fract_y
 _atom_site_fract_z
 _atom_site_occupancy
  Ba  Ba0  1  0.11733500  0.11733500  0.95963900  1
  Ba  Ba1  1  0.61451900  0.61451900  0.45415900  1
  Ba  Ba2  1  0.38738500  0.38738500  0.54142200  1
  Ba  Ba3  1  0.88407100  0.88407100  0.04424100  1
  Ba  Ba4  1  0.56691000  0.56691000  0.66916100  1
  Ba  Ba5  1  0.06952300  0.06952300  0.17228800  1
  Ba  Ba6  1  0.92833800  0.92833800  0.83088400  1
  Ba  Ba7  1  0.43103600  0.43103600  0.32750500  1
  Li  Li0  1  0.88709200  0.88709200  0.65828400  1
  Li  Li1  1  0.38383600  0.38383600  0.15898200  1
  Li  Li2  1  0.61715400  0.61715400  0.84159100  1
  Li  Li3  1  0.11593000  0.11593000  0.34086200  1
  Li  Li4  1  0.18781700  0.18781700  0.54473700  1
  Li  Li5  1  0.69023000  0.69023000  0.04570700  1
  Li  Li6  1  0.30963700  0.30963700  0.95508400  1
  Li  Li7  1  0.81115000  0.81115000  0.45250400  1
  Li  Li8  1  0.75030300  0.75030300  0.75323800  1
  Li  Li9  1  0.24995500  0.24995500  0.24894800  1
  Li  Li10  1  0.74102400  0.74102400  0.17326800  1
  Li  Li11  1  0.25923800  0.25923800  0.82955700  1
  Li  Li12  1  0.75891500  0.75891500  0.32656200  1
  Ga  Ga0  1  0.24060500  0.24060500  0.67215100  1
  Sb  Sb0  1  0.74882500  0.74882500  0.59815000  1
  Sb  Sb1  1  0.24934800  0.24934800  0.09100900  1
  Sb  Sb2  1  0.75044900  0.75044900  0.90473600  1
  Sb  Sb3  1  0.25048700  0.25048700  0.41263600  1
  Sb  Sb4  1  0.02341500  0.02341500  0.56314700  1
  Sb  Sb5  1  0.52369800  0.52369800  0.06076900  1
  Sb  Sb6  1  0.47809500  0.47809500  0.93555000  1
  Sb  Sb7  1  0.97593100  0.97593100  0.43869400  1
  Sb  Sb8  1  0.37169400  0.37169400  0.72466700  1
  Sb  Sb9  1  0.87584300  0.87584300  0.22721400  1
  Sb  Sb10  1  0.12569000  0.12569000  0.76870600  1
  Sb  Sb11  1  0.62451900  0.62451900  0.27394300  1
loop_
_geom_bond_atom_site_label_1
_geom_bond_atom_site_label_2
_geom_bond_distance
_geom_bond_site_symmetry_2
Ba0 Li5 3.448572 1_546
Ba0 Li5 3.448572 1_456
Ba0 Li6 3.510745 1_555
Ba0 Li2 3.529523 1_455
Ba0 Li2 3.529523 1_545
Ba0 Li11 3.552717 1_555
Ba0 Sb2 3.577288 1_545
Ba0 Sb2 3.577288 1_455
Ba0 Sb5 3.582703 1_546
Ba0 Sb5 3.582703 1_456
Ba0 Sb6 3.642273 1_545
Ba0 Sb6 3.642273 1_455
Ba0 Sb1 3.903485 1_556
Ba0 Sb10 4.033178 1_555
Ba1 Li3 3.456423 1_565
Ba1 Li3 3.456423 1_655
Ba1 Li4 3.507856 1_655
Ba1 Li4 3.507856 1_565
Ba1 Li12 3.546322 1_555
Ba1 Sb3 3.553997 1_655
Ba1 Sb3 3.553997 1_565
Ba1 Li7 3.596330 1_555
Ba1 Sb7 3.596939 1_455
Ba1 Sb7 3.596939 1_545
Ba1 Sb4 3.657600 1_565
Ba1 Sb4 3.657600 1_655
Ba1 Sb11 3.803748 1_555
Ba2 Li0 3.510987 1_455
Ba2 Li0 3.510987 1_545
Ba2 Li7 3.511616 1_545
Ba2 Li7 3.511616 1_455
Ba2 Sb7 3.564611 1_455
Ba2 Sb7 3.564611 1_545
Ba2 Sb4 3.589376 1_565
Ba2 Sb4 3.589376 1_655
Ba2 Ga0 3.619532 1_555
Ba2 Li4 3.646337 1_555
Ba2 Sb0 3.651393 1_455
Ba2 Sb0 3.651393 1_545
Ba2 Sb8 3.861542 1_555
Ba2 Sb3 3.924596 1_555
Ba3 Li1 3.479483 1_565
Ba3 Li1 3.479483 1_655
Ba3 Li6 3.499457 1_564
Ba3 Li6 3.499457 1_654
Ba3 Li5 3.545695 1_555
Ba3 Li10 3.550825 1_555
Ba3 Sb1 3.558716 1_565
Ba3 Sb1 3.558716 1_655
Ba3 Sb5 3.614647 1_565
Ba3 Sb5 3.614647 1_655
Ba3 Sb6 3.674624 1_564
Ba3 Sb6 3.674624 1_654
Ba3 Sb9 3.864697 1_555
Ba3 Sb2 4.061244 1_554
Ba4 Sb0 3.485122 1_555
Ba4 Sb4 3.508790 1_565
Ba4 Sb4 3.508790 1_655
Ba4 Sb10 3.514908 1_565
Ba4 Sb10 3.514908 1_655
Ba4 Sb8 3.625177 1_555
Ba4 Li8 3.988417 1_555
Ba5 Sb11 3.518038 1_545
Ba5 Sb11 3.518038 1_455
Ba5 Sb1 3.526447 1_555
Ba5 Sb9 3.596031 1_445
Ba5 Sb5 3.600960 1_455
Ba5 Sb5 3.600960 1_545
Ba5 Li9 3.854954 1_555
Ba6 Sb2 3.438721 1_555
Ba6 Sb6 3.526456 1_565
Ba6 Sb6 3.526456 1_655
Ba6 Sb8 3.592330 1_565
Ba6 Sb8 3.592330 1_655
Ba6 Sb10 3.693364 1_665
Ba6 Li8 3.826256 1_555
Ba7 Sb9 3.500685 1_455
Ba7 Sb9 3.500685 1_545
Ba7 Sb3 3.569384 1_555
Ba7 Sb11 3.586810 1_555
Ba7 Sb7 3.590880 1_455
Ba7 Sb7 3.590880 1_545
Ba7 Li9 3.887002 1_555
Li0 Sb8 2.855496 1_565
Li0 Sb8 2.855496 1_655
Li0 Sb0 2.969678 1_555
Li0 Sb4 3.013177 1_665
Li0 Li8 3.017357 1_555
Li1 Sb9 2.872738 1_455
Li1 Sb9 2.872738 1_545
Li1 Li9 2.917992 1_555
Li1 Sb1 3.000481 1_555
Li1 Sb5 3.098733 1_555
Li2 Li8 2.888985 1_555
Li2 Sb2 2.922816 1_555
Li2 Sb10 2.922956 1_655
Li2 Sb10 2.922956 1_565
Li2 Sb6 3.036871 1_555
Li3 Sb11 2.858910 1_545
Li3 Sb11 2.858910 1_455
Li3 Li9 2.942979 1_555
Li3 Sb3 3.049031 1_555
Li3 Sb7 3.095993 1_445
Li4 Sb3 2.895562 1_555
Li4 Sb4 2.988169 1_555
Li4 Sb0 3.004459 1_455
Li4 Sb0 3.004459 1_545
Li5 Sb1 2.921631 1_655
Li5 Sb1 2.921631 1_565
Li5 Sb5 3.027196 1_555
Li5 Sb2 3.058215 1_554
Li6 Sb1 2.958873 1_556
Li6 Sb2 2.963811 1_545
Li6 Sb2 2.963811 1_455
Li6 Sb6 3.062044 1_555
Li7 Sb3 2.892299 1_565
Li7 Sb3 2.892299 1_655
Li7 Sb7 2.995843 1_555
Li7 Sb0 3.160118 1_555
Li8 Sb2 3.212952 1_555
Li8 Sb0 3.292147 1_555
Li8 Sb8 3.342149 1_655
Li8 Sb8 3.342149 1_565
Li8 Sb10 3.364721 1_565
Li8 Sb10 3.364721 1_655
Li9 Sb1 3.350579 1_555
Li9 Sb11 3.383775 1_545
Li9 Sb11 3.383775 1_455
Li9 Sb9 3.384834 1_455
Li9 Sb9 3.384834 1_545
Li9 Sb3 3.472319 1_555
Li10 Sb11 2.829095 1_555
Li10 Sb9 2.843894 1_555
Li10 Li9 2.975731 1_655
Li10 Li9 2.975731 1_565
Li10 Sb1 3.031594 1_565
Li10 Sb1 3.031594 1_655
Li11 Sb8 2.841890 1_555
Li11 Sb10 2.900039 1_555
Li11 Sb2 2.948600 1_545
Li11 Sb2 2.948600 1_455
Li11 Li8 2.983160 1_545
Li11 Li8 2.983160 1_455
Li12 Sb9 2.815693 1_555
Li12 Sb11 2.822590 1_555
Li12 Li9 2.998384 1_655
Li12 Li9 2.998384 1_565
Li12 Sb3 3.078326 1_655
Li12 Sb3 3.078326 1_565
Ga0 Sb10 2.752213 1_555
Ga0 Sb8 2.765886 1_555
Ga0 Sb0 2.935458 1_455
Ga0 Sb0 2.935458 1_545
Ga0 Li4 2.977936 1_555
Ga0 Li8 3.041602 1_455
Ga0 Li8 3.041602 1_545
Sb4 Sb7 2.877069 1_445
Sb5 Sb6 2.878553 1_554
