# generated using pymatgen
data_MgGa5
_symmetry_space_group_name_H-M   'P 1'
_cell_length_a   5.09779082
_cell_length_b   5.09779082
_cell_length_c   4.86189928
_cell_angle_alpha   90.00000000
_cell_angle_beta   90.00000000
_cell_angle_gamma   119.99999634
_symmetry_Int_Tables_number   1
_chemical_formula_structural   MgGa5
_chemical_formula_sum   'Mg1 Ga5'
_cell_volume   109.42098673
_cell_formula_units_Z   1
loop_
 _symmetry_equiv_pos_site_id
 _symmetry_equiv_pos_as_xyz
  1  'x, y, z'
loop_
 _atom_site_type_symbol
 _atom_site_label
 _atom_site_symmetry_multiplicity
 _atom_site_fract_x
 _atom_site_fract_y
 _atom_site_fract_z
 _atom_site_occupancy
  Mg  Mg0  1  -0.00000000  0.00000000  0.50000000  1
  Ga  Ga0  1  0.00000000  0.65828488  -0.00000000  1
  Ga  Ga1  1  0.65828488  0.00000000  0.00000000  1
  Ga  Ga2  1  0.34171512  0.34171512  -0.00000000  1
  Ga  Ga3  1  0.66666700  0.33333300  0.50000000  1
  Ga  Ga4  1  0.33333300  0.66666700  0.50000000  1
loop_
_geom_bond_atom_site_label_1
_geom_bond_atom_site_label_2
_geom_bond_distance
_geom_bond_site_symmetry_2
Ga0 Ga2 2.906913 1_555
Ga0 Ga2 2.906914 1_455
Ga0 Ga1 2.906914 1_455
Ga0 Ga1 2.906914 1_565
Ga0 Ga4 2.954018 1_555
Ga0 Ga4 2.954018 1_554
Ga0 Ga3 2.954020 1_454
Ga0 Ga3 2.954020 1_455
Ga0 Mg0 2.990661 1_564
Ga0 Mg0 2.990661 1_565
Ga0 Ga1 3.017219 1_465
Ga0 Ga2 3.017219 1_565
Ga1 Ga2 2.906913 1_555
Ga1 Ga2 2.906914 1_545
Ga1 Ga3 2.954018 1_554
Ga1 Ga3 2.954018 1_555
Ga1 Ga4 2.954020 1_545
Ga1 Ga4 2.954020 1_544
Ga1 Mg0 2.990661 1_654
Ga1 Mg0 2.990661 1_655
Ga1 Ga2 3.017219 1_655
Ga2 Ga4 2.954021 1_554
Ga2 Ga3 2.954021 1_554
Ga2 Ga4 2.954021 1_555
Ga2 Ga3 2.954021 1_555
Ga2 Mg0 2.990661 1_554
Ga2 Mg0 2.990661 1_555
Ga3 Mg0 2.943208 1_655
Ga3 Ga4 2.943208 1_545
Ga3 Ga4 2.943208 1_655
Ga3 Mg0 2.943212 1_665
Ga3 Mg0 2.943212 1_555
Ga3 Ga4 2.943217 1_555
Ga4 Mg0 2.943208 1_565
Ga4 Mg0 2.943212 1_665
Ga4 Mg0 2.943212 1_555
