# generated using pymatgen
data_CsGaP3HO10
_symmetry_space_group_name_H-M   'P 1'
_cell_length_a   4.97646529
_cell_length_b   8.80194014
_cell_length_c   11.02081237
_cell_angle_alpha   107.89533534
_cell_angle_beta   90.00000000
_cell_angle_gamma   90.00000000
_symmetry_Int_Tables_number   1
_chemical_formula_structural   CsGaP3HO10
_chemical_formula_sum   'Cs2 Ga2 P6 H2 O20'
_cell_volume   459.38445687
_cell_formula_units_Z   2
loop_
 _symmetry_equiv_pos_site_id
 _symmetry_equiv_pos_as_xyz
  1  'x, y, z'
loop_
 _atom_site_type_symbol
 _atom_site_label
 _atom_site_symmetry_multiplicity
 _atom_site_fract_x
 _atom_site_fract_y
 _atom_site_fract_z
 _atom_site_occupancy
  Cs  Cs0  1  0.50920168  0.75000000  0.25000000  1
  Cs  Cs1  1  0.49079832  0.25000000  0.75000000  1
  Ga  Ga0  1  0.50000000  0.50000000  0.50000000  1
  Ga  Ga1  1  0.50000000  -0.00000000  0.00000000  1
  P  P0  1  0.00030862  0.72854089  0.50515853  1
  P  P1  1  0.99969138  0.27145911  0.49484147  1
  P  P2  1  0.00030862  0.77145911  0.99484147  1
  P  P3  1  0.99969138  0.22854089  0.00515853  1
  P  P4  1  0.73841025  0.25000000  0.25000000  1
  P  P5  1  0.26158975  0.75000000  0.75000000  1
  H  H0  1  0.00000000  -0.00000000  0.50000000  1
  H  H1  1  0.00000000  0.50000000  0.00000000  1
  O  O0  1  0.18461507  0.59060091  0.44500233  1
  O  O1  1  0.81538493  0.40939909  0.55499767  1
  O  O2  1  0.18461507  0.90939909  0.05499767  1
  O  O3  1  0.81538493  0.09060091  0.94500233  1
  O  O4  1  0.70527335  0.68800704  0.49619588  1
  O  O5  1  0.29472665  0.31199296  0.50380412  1
  O  O6  1  0.70527335  0.81199296  0.00380412  1
  O  O7  1  0.29472665  0.18800704  0.99619588  1
  O  O8  1  0.58520701  0.39673667  0.31892566  1
  O  O9  1  0.41479299  0.60326333  0.68107434  1
  O  O10  1  0.58520701  0.10326333  0.18107434  1
  O  O11  1  0.41479299  0.89673667  0.81892566  1
  O  O12  1  0.93273890  0.29862216  0.15523429  1
  O  O13  1  0.06726110  0.70137784  0.84476571  1
  O  O14  1  0.93273890  0.20137784  0.34476571  1
  O  O15  1  0.06726110  0.79862216  0.65523429  1
  O  O16  1  0.05538844  0.86378909  0.45003673  1
  O  O17  1  0.94461156  0.13621091  0.54996327  1
  O  O18  1  0.05538844  0.63621091  0.04996327  1
  O  O19  1  0.94461156  0.36378909  0.95003673  1
loop_
_geom_bond_atom_site_label_1
_geom_bond_atom_site_label_2
_geom_bond_distance
_geom_bond_site_symmetry_2
Cs0 O6 3.085704 1_555
Cs0 O4 3.085704 1_555
Cs0 O16 3.099452 1_555
Cs0 O18 3.099452 1_555
Cs0 O2 3.324038 1_555
Cs0 O0 3.324038 1_555
Cs0 O8 3.440934 1_555
Cs0 O10 3.440934 1_565
Cs0 O16 3.448804 1_655
Cs0 O18 3.448804 1_655
Cs1 O5 3.085704 1_555
Cs1 O7 3.085704 1_555
Cs1 O17 3.099452 1_555
Cs1 O19 3.099452 1_555
Cs1 O3 3.324038 1_555
Cs1 O1 3.324038 1_555
Cs1 O9 3.440934 1_555
Cs1 O11 3.440934 1_545
Cs1 O19 3.448804 1_455
Cs1 O17 3.448804 1_455
Ga0 O1 1.940030 1_555
Ga0 O0 1.940030 1_555
Ga0 O5 1.956114 1_555
Ga0 O4 1.956114 1_555
Ga0 O9 1.968146 1_555
Ga0 O8 1.968146 1_555
Ga1 O3 1.940030 1_554
Ga1 O2 1.940030 1_545
Ga1 O7 1.956114 1_554
Ga1 O6 1.956114 1_545
Ga1 O11 1.968146 1_544
Ga1 O10 1.968146 1_555
H0 O16 1.187802 1_545
H0 O17 1.187802 1_455
H1 O18 1.187802 1_555
H1 O19 1.187802 1_454
O0 P0 1.503406 1_555
O1 P1 1.503406 1_555
O2 P2 1.503406 1_554
O3 P3 1.503406 1_556
O4 P0 1.507016 1_655
O5 P1 1.507016 1_455
O6 P2 1.507016 1_654
O7 P3 1.507016 1_456
O8 P4 1.491138 1_555
O9 P5 1.491138 1_555
O10 P4 1.491138 1_555
O11 P5 1.491138 1_555
O12 P4 1.576018 1_555
O12 P3 1.612480 1_555
O13 P5 1.576018 1_555
O13 P2 1.612480 1_555
O14 P4 1.576018 1_555
O14 P1 1.612480 1_555
O15 P5 1.576018 1_555
O15 P0 1.612480 1_555
O16 P0 1.518477 1_555
O17 P1 1.518477 1_555
O18 P2 1.518477 1_554
O19 P3 1.518477 1_556
