# generated using pymatgen
data_Rb2Mn2(SO4)3
_symmetry_space_group_name_H-M   'P 1'
_cell_length_a   10.19025014
_cell_length_b   10.19025180
_cell_length_c   10.19025126
_cell_angle_alpha   90.00000000
_cell_angle_beta   90.00000000
_cell_angle_gamma   90.00000000
_symmetry_Int_Tables_number   1
_chemical_formula_structural   Rb2Mn2(SO4)3
_chemical_formula_sum   'Rb8 Mn8 S12 O48'
_cell_volume   1058.16807028
_cell_formula_units_Z   4
loop_
 _symmetry_equiv_pos_site_id
 _symmetry_equiv_pos_as_xyz
  1  'x, y, z'
loop_
 _atom_site_type_symbol
 _atom_site_label
 _atom_site_symmetry_multiplicity
 _atom_site_fract_x
 _atom_site_fract_y
 _atom_site_fract_z
 _atom_site_occupancy
  Rb  Rb0  1  0.79888098  0.70111902  0.29888100  1
  Rb  Rb1  1  0.70111902  0.29888098  0.79888100  1
  Rb  Rb2  1  0.29888098  0.79888098  0.70111900  1
  Rb  Rb3  1  0.20111902  0.20111902  0.20111900  1
  Rb  Rb4  1  0.43386555  0.43386556  0.43386548  1
  Rb  Rb5  1  0.93386555  0.06613444  0.56613452  1
  Rb  Rb6  1  0.06613445  0.56613444  0.93386548  1
  Rb  Rb7  1  0.56613445  0.93386556  0.06613452  1
  Mn  Mn0  1  0.91578803  0.91578807  0.91578801  1
  Mn  Mn1  1  0.58421197  0.08421193  0.41578801  1
  Mn  Mn2  1  0.08421197  0.41578807  0.58421199  1
  Mn  Mn3  1  0.41578803  0.58421193  0.08421199  1
  Mn  Mn4  1  0.65478120  0.65478110  0.65478128  1
  Mn  Mn5  1  0.15478120  0.84521890  0.34521872  1
  Mn  Mn6  1  0.84521880  0.34521890  0.15478128  1
  Mn  Mn7  1  0.34521880  0.15478110  0.84521872  1
  S  S0  1  0.62621028  0.96769216  0.73276856  1
  S  S1  1  0.12621028  0.53230784  0.26723144  1
  S  S2  1  0.37378972  0.46769216  0.76723144  1
  S  S3  1  0.53230788  0.26723146  0.12621038  1
  S  S4  1  0.76723159  0.37378960  0.46769213  1
  S  S5  1  0.26723159  0.12621040  0.53230787  1
  S  S6  1  0.96769212  0.73276854  0.62621038  1
  S  S7  1  0.73276841  0.62621040  0.96769213  1
  S  S8  1  0.46769212  0.76723146  0.37378962  1
  S  S9  1  0.03230788  0.23276854  0.87378962  1
  S  S10  1  0.23276841  0.87378960  0.03230787  1
  S  S11  1  0.87378972  0.03230784  0.23276856  1
  O  O0  1  0.65094096  -0.00296925  0.59406129  1
  O  O1  1  0.15094096  0.50296925  0.40593871  1
  O  O2  1  0.34905904  0.49703075  0.90593871  1
  O  O3  1  0.50296925  0.40593871  0.15094088  1
  O  O4  1  0.90593874  0.34905912  0.49703071  1
  O  O5  1  0.40593874  0.15094088  0.50296929  1
  O  O6  1  -0.00296925  0.59406129  0.65094088  1
  O  O7  1  0.59406126  0.65094088  -0.00296929  1
  O  O8  1  0.49703075  0.90593871  0.34905912  1
  O  O9  1  0.00296925  0.09406129  0.84905912  1
  O  O10  1  0.09406126  0.84905912  0.00296929  1
  O  O11  1  0.84905904  0.00296925  0.09406129  1
  O  O12  1  0.58298979  0.83017946  0.74886219  1
  O  O13  1  0.08298979  0.66982054  0.25113781  1
  O  O14  1  0.41701021  0.33017946  0.75113781  1
  O  O15  1  0.66982057  0.25113784  0.08298984  1
  O  O16  1  0.75113783  0.41701020  0.33017942  1
  O  O17  1  0.25113783  0.08298980  0.66982058  1
  O  O18  1  0.71295128  0.47564756  0.55480709  1
  O  O19  1  0.83017943  0.74886216  0.58298984  1
  O  O20  1  0.33017943  0.75113784  0.41701016  1
  O  O21  1  0.16982057  0.24886216  0.91701016  1
  O  O22  1  0.24886217  0.91701020  0.16982058  1
  O  O23  1  0.91701021  0.16982054  0.24886219  1
  O  O24  1  0.52435250  0.05480708  0.78704871  1
  O  O25  1  0.02435250  0.44519292  0.21295129  1
  O  O26  1  0.47564750  0.55480708  0.71295129  1
  O  O27  1  0.44519296  0.21295126  0.02435243  1
  O  O28  1  0.75145744  0.00893436  0.30737551  1
  O  O29  1  0.30737546  0.75145745  0.00893435  1
  O  O30  1  0.00893434  0.30737550  0.75145752  1
  O  O31  1  0.49106566  0.69262450  0.25145752  1
  O  O32  1  0.80737546  0.74854255  0.99106565  1
  O  O33  1  0.99106566  0.80737550  0.74854248  1
  O  O34  1  0.19262454  0.24854255  0.50893435  1
  O  O35  1  0.69262454  0.25145745  0.49106565  1
  O  O36  1  0.50893434  0.19262450  0.24854248  1
  O  O37  1  0.25145744  0.49106564  0.69262449  1
  O  O38  1  0.24854256  0.50893436  0.19262449  1
  O  O39  1  0.74854256  0.99106564  0.80737551  1
  O  O40  1  0.97564750  0.94519292  0.28704871  1
  O  O41  1  0.28704872  0.97564756  0.94519291  1
  O  O42  1  0.94519296  0.28704874  0.97564757  1
  O  O43  1  0.55480704  0.71295126  0.47564757  1
  O  O44  1  0.78704872  0.52435244  0.05480709  1
  O  O45  1  0.05480704  0.78704874  0.52435243  1
  O  O46  1  0.21295128  0.02435244  0.44519291  1
  O  O47  1  0.74886217  0.58298980  0.83017942  1
loop_
_geom_bond_atom_site_label_1
_geom_bond_atom_site_label_2
_geom_bond_distance
_geom_bond_site_symmetry_2
Mn0 O9 2.133505 1_665
Mn0 O10 2.133505 1_656
Mn0 O11 2.133506 1_566
Mn0 O39 2.171050 1_555
Mn0 O32 2.171051 1_555
Mn0 O33 2.171051 1_555
Mn1 O8 2.133505 1_545
Mn1 O5 2.133505 1_555
Mn1 O0 2.133506 1_555
Mn1 O28 2.171050 1_555
Mn1 O35 2.171051 1_555
Mn1 O36 2.171051 1_555
Mn2 O6 2.133505 1_555
Mn2 O4 2.133505 1_455
Mn2 O1 2.133506 1_555
Mn2 O37 2.171050 1_555
Mn2 O34 2.171051 1_555
Mn2 O30 2.171051 1_555
Mn3 O3 2.133505 1_555
Mn3 O7 2.133505 1_555
Mn3 O2 2.133506 1_554
Mn3 O38 2.171050 1_555
Mn3 O29 2.171051 1_555
Mn3 O31 2.171051 1_555
Mn4 O47 2.156141 1_555
Mn4 O19 2.156142 1_555
Mn4 O12 2.156143 1_555
Mn4 O18 2.172877 1_555
Mn4 O26 2.172877 1_555
Mn4 O43 2.172878 1_555
Mn5 O22 2.156141 1_555
Mn5 O20 2.156142 1_555
Mn5 O13 2.156143 1_555
Mn5 O46 2.172877 1_565
Mn5 O40 2.172877 1_455
Mn5 O45 2.172878 1_555
Mn6 O16 2.156141 1_555
Mn6 O15 2.156142 1_555
Mn6 O23 2.156143 1_555
Mn6 O44 2.172877 1_555
Mn6 O25 2.172877 1_655
Mn6 O42 2.172878 1_554
Mn7 O17 2.156141 1_555
Mn7 O21 2.156142 1_555
Mn7 O14 2.156143 1_555
Mn7 O41 2.172877 1_545
Mn7 O24 2.172877 1_555
Mn7 O27 2.172878 1_556
O0 S0 1.466549 1_545
O0 Rb5 2.981437 1_555
O1 S1 1.466549 1_555
O1 Rb4 2.981437 1_555
O2 S2 1.466549 1_555
O2 Rb6 2.981437 1_555
O3 S3 1.466549 1_555
O3 Rb4 2.981438 1_555
O4 S4 1.466547 1_555
O4 Rb5 2.981439 1_555
O5 S5 1.466547 1_555
O5 Rb4 2.981439 1_555
O6 S6 1.466549 1_455
O6 Rb6 2.981438 1_555
O7 S7 1.466547 1_554
O7 Rb7 2.981439 1_555
O8 S8 1.466549 1_555
O8 Rb7 2.981438 1_555
O9 S9 1.466549 1_555
O9 Rb5 2.981438 1_455
O10 S10 1.466547 1_555
O10 Rb6 2.981439 1_554
O11 S11 1.466549 1_555
O11 Rb7 2.981437 1_545
O12 S0 1.478000 1_555
O12 Rb2 2.953008 1_555
O12 Rb7 3.405689 1_556
O13 S1 1.478000 1_555
O13 Rb0 2.953008 1_455
O13 Rb6 3.405689 1_554
O14 S2 1.478000 1_555
O14 Rb1 2.953008 1_555
O14 Rb4 3.405689 1_555
O15 S3 1.477999 1_555
O15 Rb1 2.953008 1_554
O15 Rb7 3.405688 1_545
O16 S4 1.478000 1_555
O16 Rb0 2.953008 1_555
O16 Rb4 3.405688 1_555
O17 S5 1.478000 1_555
O17 Rb2 2.953008 1_545
O17 Rb5 3.405688 1_455
O18 S4 1.473554 1_555
O18 Rb1 3.073311 1_555
O18 Rb4 3.128614 1_555
O19 S6 1.477999 1_555
O19 Rb0 2.953008 1_555
O19 Rb5 3.405688 1_565
O20 S8 1.477999 1_555
O20 Rb2 2.953008 1_555
O20 Rb4 3.405688 1_555
O21 S9 1.477999 1_555
O21 Rb3 2.953008 1_556
O21 Rb6 3.405688 1_555
O22 S10 1.478000 1_555
O22 Rb3 2.953008 1_565
O22 Rb7 3.405688 1_555
O23 S11 1.478000 1_555
O23 Rb3 2.953008 1_655
O23 Rb5 3.405689 1_555
O24 S0 1.473552 1_545
O24 Rb1 3.073311 1_555
O24 Rb7 3.128614 1_546
O25 S1 1.473552 1_555
O25 Rb3 3.073311 1_555
O25 Rb6 3.128614 1_554
O26 S2 1.473552 1_555
O26 Rb2 3.073311 1_555
O26 Rb4 3.128614 1_555
O27 S3 1.473554 1_555
O27 Rb3 3.073311 1_555
O27 Rb7 3.128613 1_545
O28 S11 1.479437 1_555
O28 Rb0 3.174904 1_545
O28 Rb7 3.192935 1_545
O28 Rb5 3.278361 1_555
O29 S10 1.479437 1_555
O29 Rb2 3.174904 1_554
O29 Rb6 3.192935 1_554
O29 Rb7 3.278360 1_555
O30 S9 1.479436 1_555
O30 Rb1 3.174903 1_455
O30 Rb5 3.192936 1_455
O30 Rb6 3.278359 1_555
O31 S8 1.479436 1_555
O31 Rb0 3.174903 1_555
O31 Rb7 3.192936 1_555
O31 Rb4 3.278359 1_555
O32 S7 1.479437 1_555
O32 Rb0 3.174904 1_556
O32 Rb7 3.192935 1_556
O32 Rb6 3.278360 1_655
O33 S6 1.479436 1_555
O33 Rb2 3.174903 1_655
O33 Rb6 3.192936 1_655
O33 Rb5 3.278359 1_565
O34 S5 1.479437 1_555
O34 Rb3 3.174904 1_555
O34 Rb4 3.192935 1_555
O34 Rb5 3.278360 1_455
O35 S4 1.479437 1_555
O35 Rb1 3.174904 1_555
O35 Rb5 3.192935 1_555
O35 Rb4 3.278360 1_555
O36 S3 1.479436 1_555
O36 Rb3 3.174903 1_555
O36 Rb4 3.192936 1_555
O36 Rb7 3.278359 1_545
O37 S2 1.479437 1_555
O37 Rb2 3.174904 1_555
O37 Rb6 3.192935 1_555
O37 Rb4 3.278361 1_555
O38 S1 1.479437 1_555
O38 Rb3 3.174904 1_555
O38 Rb4 3.192935 1_555
O38 Rb6 3.278361 1_554
O39 S0 1.479437 1_555
O39 Rb1 3.174904 1_565
O39 Rb5 3.192935 1_565
O39 Rb7 3.278361 1_556
O40 S11 1.473552 1_565
O40 Rb0 3.073311 1_555
O40 Rb5 3.128614 1_565
O41 S10 1.473554 1_556
O41 Rb2 3.073311 1_555
O41 Rb7 3.128614 1_556
O42 S9 1.473554 1_655
O42 Rb1 3.073311 1_555
O42 Rb6 3.128613 1_655
O43 S8 1.473554 1_555
O43 Rb0 3.073311 1_555
O43 Rb4 3.128613 1_555
O44 S7 1.473554 1_554
O44 Rb0 3.073311 1_555
O44 Rb6 3.128614 1_654
O45 S6 1.473554 1_455
O45 Rb2 3.073311 1_555
O45 Rb5 3.128613 1_465
O46 S5 1.473554 1_555
O46 Rb3 3.073311 1_555
O46 Rb5 3.128614 1_455
O47 S7 1.478000 1_555
O47 Rb1 2.953008 1_555
O47 Rb6 3.405688 1_655
