# generated using pymatgen
data_TiP2(S4Cl)2
_symmetry_space_group_name_H-M   'P 1'
_cell_length_a   13.04109700
_cell_length_b   7.17838000
_cell_length_c   17.56307235
_cell_angle_alpha   66.58659882
_cell_angle_beta   90.00000000
_cell_angle_gamma   90.00000000
_symmetry_Int_Tables_number   1
_chemical_formula_structural   TiP2(S4Cl)2
_chemical_formula_sum   'Ti4 P8 S32 Cl8'
_cell_volume   1508.77219209
_cell_formula_units_Z   4
loop_
 _symmetry_equiv_pos_site_id
 _symmetry_equiv_pos_as_xyz
  1  'x, y, z'
loop_
 _atom_site_type_symbol
 _atom_site_label
 _atom_site_symmetry_multiplicity
 _atom_site_fract_x
 _atom_site_fract_y
 _atom_site_fract_z
 _atom_site_occupancy
  Ti  Ti0  1  0.25571800  0.18121700  0.53324900  1
  Ti  Ti1  1  0.24428200  0.18121700  0.03324900  1
  Ti  Ti2  1  0.74428200  0.81878300  0.46675100  1
  Ti  Ti3  1  0.75571800  0.81878300  0.96675100  1
  P  P0  1  0.09020800  0.94115400  0.66287700  1
  P  P1  1  0.40979200  0.94115400  0.16287700  1
  P  P2  1  0.90979200  0.05884600  0.33712300  1
  P  P3  1  0.59020800  0.05884600  0.83712300  1
  P  P4  1  0.85421900  0.76507900  0.63207300  1
  P  P5  1  0.64578100  0.76507900  0.13207300  1
  P  P6  1  0.14578100  0.23492100  0.36792700  1
  P  P7  1  0.35421900  0.23492100  0.86792700  1
  S  S0  1  0.93409600  0.02695800  0.63058300  1
  S  S1  1  0.56590400  0.02695800  0.13058300  1
  S  S2  1  0.06590400  0.97304200  0.36941700  1
  S  S3  1  0.43409600  0.97304200  0.86941700  1
  S  S4  1  0.16171000  0.83689200  0.58794900  1
  S  S5  1  0.33829000  0.83689200  0.08794900  1
  S  S6  1  0.83829000  0.16310800  0.41205100  1
  S  S7  1  0.66171000  0.16310800  0.91205100  1
  S  S8  1  0.15930700  0.20022200  0.65337300  1
  S  S9  1  0.34069300  0.20022200  0.15337300  1
  S  S10  1  0.84069300  0.79977800  0.34662700  1
  S  S11  1  0.65930700  0.79977800  0.84662700  1
  S  S12  1  0.08393800  0.73319400  0.78922100  1
  S  S13  1  0.41606200  0.73319400  0.28922100  1
  S  S14  1  0.91606200  0.26680600  0.21077900  1
  S  S15  1  0.58393800  0.26680600  0.71077900  1
  S  S16  1  0.01176300  0.50179400  0.76852700  1
  S  S17  1  0.48823700  0.50179400  0.26852700  1
  S  S18  1  0.98823700  0.49820600  0.23147300  1
  S  S19  1  0.51176300  0.49820600  0.73147300  1
  S  S20  1  0.85613400  0.55784700  0.75868800  1
  S  S21  1  0.64386600  0.55784700  0.25868800  1
  S  S22  1  0.14386600  0.44215300  0.24131200  1
  S  S23  1  0.35613400  0.44215300  0.74131200  1
  S  S24  1  0.71187400  0.87463100  0.59684100  1
  S  S25  1  0.78812600  0.87463100  0.09684100  1
  S  S26  1  0.28812600  0.12536900  0.40315900  1
  S  S27  1  0.21187400  0.12536900  0.90315900  1
  S  S28  1  0.90432700  0.64890100  0.55344500  1
  S  S29  1  0.59567300  0.64890100  0.05344500  1
  S  S30  1  0.09567300  0.35109900  0.44655500  1
  S  S31  1  0.40432700  0.35109900  0.94655500  1
  Cl  Cl0  1  0.40411600  0.01510200  0.57694100  1
  Cl  Cl1  1  0.09588400  0.01510200  0.07694100  1
  Cl  Cl2  1  0.59588400  0.98489800  0.42305900  1
  Cl  Cl3  1  0.90411600  0.98489800  0.92305900  1
  Cl  Cl4  1  0.31785300  0.48763500  0.51626600  1
  Cl  Cl5  1  0.18214700  0.48763500  0.01626600  1
  Cl  Cl6  1  0.68214700  0.51236500  0.48373400  1
  Cl  Cl7  1  0.81785300  0.51236500  0.98373400  1
loop_
_geom_bond_atom_site_label_1
_geom_bond_atom_site_label_2
_geom_bond_distance
_geom_bond_site_symmetry_2
P0 S4 1.985986 1_555
P0 S8 2.012868 1_565
P0 S12 2.127566 1_555
P0 S0 2.137337 1_465
P1 S5 1.985986 1_555
P1 S9 2.012868 1_565
P1 S13 2.127566 1_555
P1 S1 2.137337 1_565
P2 S6 1.985986 1_555
P2 S10 2.012868 1_545
P2 S14 2.127566 1_555
P2 S2 2.137337 1_645
P3 S7 1.985986 1_555
P3 S11 2.012868 1_545
P3 S15 2.127566 1_555
P3 S3 2.137337 1_545
P4 S28 1.986153 1_555
P4 S24 2.015088 1_555
P4 S20 2.128294 1_555
P4 S0 2.140232 1_565
P5 S29 1.986153 1_555
P5 S25 2.015088 1_555
P5 S21 2.128294 1_555
P5 S1 2.140232 1_565
P6 S30 1.986153 1_555
P6 S26 2.015088 1_555
P6 S22 2.128294 1_555
P6 S2 2.140232 1_545
P7 S31 1.986153 1_555
P7 S27 2.015088 1_555
P7 S23 2.128294 1_555
P7 S3 2.140232 1_545
S4 Ti0 2.578391 1_565
S5 Ti1 2.578391 1_565
S6 Ti2 2.578391 1_545
S7 Ti3 2.578391 1_545
S8 Ti0 2.505833 1_555
S9 Ti1 2.505833 1_555
S10 Ti2 2.505833 1_555
S11 Ti3 2.505833 1_555
S12 S16 2.063250 1_555
S13 S17 2.063250 1_555
S14 S18 2.063250 1_555
S15 S19 2.063250 1_555
S16 S20 2.062928 1_455
S17 S21 2.062928 1_555
S18 S22 2.062928 1_655
S19 S23 2.062928 1_555
S24 Ti2 2.507489 1_555
S25 Ti3 2.507489 1_554
S26 Ti0 2.507489 1_555
S27 Ti1 2.507489 1_556
S28 Ti2 2.585746 1_555
S29 Ti3 2.585746 1_554
S30 Ti0 2.585746 1_555
S31 Ti1 2.585746 1_556
Cl0 Ti0 2.242506 1_555
Cl1 Ti1 2.242506 1_555
Cl2 Ti2 2.242506 1_555
Cl3 Ti3 2.242506 1_555
Cl4 Ti0 2.249964 1_555
Cl5 Ti1 2.249964 1_555
Cl6 Ti2 2.249964 1_555
Cl7 Ti3 2.249964 1_555
