# generated using pymatgen
data_K6Na14MgTl18
_symmetry_space_group_name_H-M   'P 1'
_cell_length_a   10.60143563
_cell_length_b   10.60143563
_cell_length_c   10.60143563
_cell_angle_alpha   90.00000000
_cell_angle_beta   90.00000000
_cell_angle_gamma   90.00000000
_symmetry_Int_Tables_number   1
_chemical_formula_structural   K6Na14MgTl18
_chemical_formula_sum   'K6 Na14 Mg1 Tl18'
_cell_volume   1191.49998770
_cell_formula_units_Z   1
loop_
 _symmetry_equiv_pos_site_id
 _symmetry_equiv_pos_as_xyz
  1  'x, y, z'
loop_
 _atom_site_type_symbol
 _atom_site_label
 _atom_site_symmetry_multiplicity
 _atom_site_fract_x
 _atom_site_fract_y
 _atom_site_fract_z
 _atom_site_occupancy
  K  K0  1  0.50000000  0.18739276  -0.00000000  1
  K  K1  1  0.50000000  0.81260724  -0.00000000  1
  K  K2  1  0.00000000  0.50000000  0.18739276  1
  K  K3  1  -0.00000000  0.50000000  0.81260724  1
  K  K4  1  0.18739276  -0.00000000  0.50000000  1
  K  K5  1  0.81260724  -0.00000000  0.50000000  1
  Na  Na0  1  0.71898645  0.28101355  0.28101355  1
  Na  Na1  1  0.28101355  0.28101355  0.71898645  1
  Na  Na2  1  0.28101355  0.71898645  0.28101355  1
  Na  Na3  1  0.71898645  0.71898645  0.71898645  1
  Na  Na4  1  0.28101355  0.71898645  0.71898645  1
  Na  Na5  1  0.71898645  0.71898645  0.28101355  1
  Na  Na6  1  0.71898645  0.28101355  0.71898645  1
  Na  Na7  1  0.28101355  0.28101355  0.28101355  1
  Na  Na8  1  -0.00000000  0.33087146  0.50000000  1
  Na  Na9  1  0.00000000  0.66912854  0.50000000  1
  Na  Na10  1  0.50000000  -0.00000000  0.33087146  1
  Na  Na11  1  0.50000000  -0.00000000  0.66912854  1
  Na  Na12  1  0.33087146  0.50000000  -0.00000000  1
  Na  Na13  1  0.66912854  0.50000000  -0.00000000  1
  Mg  Mg0  1  0.00000000  -0.00000000  -0.00000000  1
  Tl  Tl0  1  0.50000000  0.27953195  0.50000000  1
  Tl  Tl1  1  0.50000000  0.72046805  0.50000000  1
  Tl  Tl2  1  0.50000000  0.50000000  0.27953195  1
  Tl  Tl3  1  0.50000000  0.50000000  0.72046805  1
  Tl  Tl4  1  0.27953195  0.50000000  0.50000000  1
  Tl  Tl5  1  0.72046805  0.50000000  0.50000000  1
  Tl  Tl6  1  0.74622494  -0.00000000  0.15488897  1
  Tl  Tl7  1  0.25377506  -0.00000000  0.84511103  1
  Tl  Tl8  1  0.25377506  -0.00000000  0.15488897  1
  Tl  Tl9  1  0.74622494  -0.00000000  0.84511103  1
  Tl  Tl10  1  0.15488897  0.74622494  -0.00000000  1
  Tl  Tl11  1  0.84511103  0.25377506  -0.00000000  1
  Tl  Tl12  1  0.15488897  0.25377506  -0.00000000  1
  Tl  Tl13  1  0.84511103  0.74622494  -0.00000000  1
  Tl  Tl14  1  -0.00000000  0.15488897  0.74622494  1
  Tl  Tl15  1  0.00000000  0.84511103  0.25377506  1
  Tl  Tl16  1  -0.00000000  0.15488897  0.25377506  1
  Tl  Tl17  1  0.00000000  0.84511103  0.74622494  1
loop_
_geom_bond_atom_site_label_1
_geom_bond_atom_site_label_2
_geom_bond_distance
_geom_bond_site_symmetry_2
K0 Tl8 3.668363 1_555
K0 Tl6 3.668363 1_555
K0 Tl9 3.668363 1_554
K0 Tl7 3.668363 1_554
K0 Tl12 3.725741 1_555
K0 Tl11 3.725741 1_555
K0 Na12 3.768027 1_555
K0 Na13 3.768027 1_555
K0 Na1 3.905137 1_554
K0 Na7 3.905137 1_555
K0 Na6 3.905137 1_554
K0 Na0 3.905137 1_555
K0 K1 3.973265 1_545
K0 Na10 4.031222 1_555
K0 Na11 4.031222 1_554
K1 Tl7 3.668363 1_564
K1 Tl8 3.668363 1_565
K1 Tl9 3.668363 1_564
K1 Tl6 3.668363 1_565
K1 Tl13 3.725741 1_555
K1 Tl10 3.725741 1_555
K1 Na12 3.768027 1_555
K1 Na13 3.768027 1_555
K1 Na2 3.905137 1_555
K1 Na4 3.905137 1_554
K1 Na3 3.905137 1_554
K1 Na5 3.905137 1_555
K1 Na10 4.031222 1_565
K1 Na11 4.031222 1_564
K2 Tl11 3.668363 1_455
K2 Tl12 3.668363 1_555
K2 Tl13 3.668363 1_455
K2 Tl10 3.668363 1_555
K2 Tl15 3.725741 1_555
K2 Tl16 3.725741 1_555
K2 Na8 3.768027 1_555
K2 Na9 3.768027 1_555
K2 Na0 3.905137 1_455
K2 Na7 3.905137 1_555
K2 Na5 3.905137 1_455
K2 Na2 3.905137 1_555
K2 K3 3.973265 1_554
K2 Na13 4.031222 1_455
K2 Na12 4.031222 1_555
K3 Tl11 3.668363 1_456
K3 Tl12 3.668363 1_556
K3 Tl13 3.668363 1_456
K3 Tl10 3.668363 1_556
K3 Tl17 3.725741 1_555
K3 Tl14 3.725741 1_555
K3 Na9 3.768027 1_555
K3 Na8 3.768027 1_555
K3 Na6 3.905137 1_455
K3 Na4 3.905137 1_555
K3 Na1 3.905137 1_555
K3 Na3 3.905137 1_455
K3 Na13 4.031222 1_456
K3 Na12 4.031222 1_556
K4 Tl15 3.668363 1_545
K4 Tl16 3.668363 1_555
K4 Tl17 3.668363 1_545
K4 Tl14 3.668363 1_555
K4 Tl7 3.725741 1_555
K4 Tl8 3.725741 1_555
K4 Na10 3.768027 1_555
K4 Na11 3.768027 1_555
K4 Na4 3.905137 1_545
K4 Na2 3.905137 1_545
K4 Na7 3.905137 1_555
K4 Na1 3.905137 1_555
K4 K5 3.973265 1_455
K4 Na9 4.031222 1_545
K4 Na8 4.031222 1_555
K5 Tl15 3.668363 1_645
K5 Tl16 3.668363 1_655
K5 Tl14 3.668363 1_655
K5 Tl17 3.668363 1_645
K5 Tl9 3.725741 1_555
K5 Tl6 3.725741 1_555
K5 Na10 3.768027 1_555
K5 Na11 3.768027 1_555
K5 Na5 3.905137 1_545
K5 Na3 3.905137 1_545
K5 Na6 3.905137 1_555
K5 Na0 3.905137 1_555
K5 Na9 4.031222 1_645
K5 Na8 4.031222 1_655
Na0 Tl11 3.278192 1_555
Na0 Tl16 3.278192 1_655
Na0 Tl6 3.278192 1_555
Na0 Tl5 3.283234 1_555
Na0 Tl2 3.283234 1_555
Na0 Tl0 3.283234 1_555
Na0 Na8 3.813711 1_655
Na0 Na13 3.813711 1_555
Na0 Na10 3.813711 1_555
Na1 Tl12 3.278192 1_556
Na1 Tl7 3.278192 1_555
Na1 Tl14 3.278192 1_555
Na1 Tl0 3.283234 1_555
Na1 Tl3 3.283234 1_555
Na1 Tl4 3.283234 1_555
Na1 Na12 3.813711 1_556
Na1 Na8 3.813711 1_555
Na1 Na11 3.813711 1_555
Na2 Tl8 3.278192 1_565
Na2 Tl15 3.278192 1_555
Na2 Tl10 3.278192 1_555
Na2 Tl4 3.283234 1_555
Na2 Tl1 3.283234 1_555
Na2 Tl2 3.283234 1_555
Na2 Na9 3.813711 1_555
Na3 Tl13 3.278192 1_556
Na3 Tl9 3.278192 1_565
Na3 Tl17 3.278192 1_655
Na3 Tl5 3.283234 1_555
Na3 Tl3 3.283234 1_555
Na3 Tl1 3.283234 1_555
Na3 Na9 3.813711 1_655
Na4 Tl10 3.278192 1_556
Na4 Tl7 3.278192 1_565
Na4 Tl17 3.278192 1_555
Na4 Tl3 3.283234 1_555
Na4 Tl1 3.283234 1_555
Na4 Tl4 3.283234 1_555
Na4 Na9 3.813711 1_555
Na5 Tl15 3.278192 1_655
Na5 Tl13 3.278192 1_555
Na5 Tl6 3.278192 1_565
Na5 Tl5 3.283234 1_555
Na5 Tl2 3.283234 1_555
Na5 Tl1 3.283234 1_555
Na5 Na9 3.813711 1_655
Na6 Tl11 3.278192 1_556
Na6 Tl14 3.278192 1_655
Na6 Tl9 3.278192 1_555
Na6 Tl5 3.283234 1_555
Na6 Tl3 3.283234 1_555
Na6 Tl0 3.283234 1_555
Na6 Na8 3.813711 1_655
Na7 Tl16 3.278192 1_555
Na7 Tl8 3.278192 1_555
Na7 Tl12 3.278192 1_555
Na7 Tl0 3.283234 1_555
Na7 Tl4 3.283234 1_555
Na7 Tl2 3.283234 1_555
Na7 Na8 3.813711 1_555
Na8 Tl14 3.208516 1_555
Na8 Tl16 3.208516 1_555
Na8 Tl5 3.463646 1_455
Na8 Tl4 3.463646 1_555
Na8 Na9 3.586011 1_555
Na9 Tl17 3.208516 1_555
Na9 Tl15 3.208516 1_555
Na9 Tl5 3.463646 1_455
Na9 Tl4 3.463646 1_555
Na10 Tl8 3.208516 1_555
Na10 Tl6 3.208516 1_555
Na10 Tl1 3.463646 1_545
Na10 Tl0 3.463646 1_555
Na10 Na11 3.586011 1_555
Na10 Na2 3.813711 1_545
Na10 Na5 3.813711 1_545
Na10 Na7 3.813711 1_555
Na11 Tl9 3.208516 1_555
Na11 Tl7 3.208516 1_555
Na11 Tl1 3.463646 1_545
Na11 Tl0 3.463646 1_555
Na11 Na4 3.813711 1_545
Na11 Na6 3.813711 1_555
Na11 Na3 3.813711 1_545
Na12 Tl12 3.208516 1_555
Na12 Tl10 3.208516 1_555
Na12 Tl3 3.463646 1_554
Na12 Tl2 3.463646 1_555
Na12 Na13 3.586011 1_555
Na12 Na7 3.813711 1_555
Na12 Na4 3.813711 1_554
Na12 Na2 3.813711 1_555
Na13 Tl11 3.208516 1_555
Na13 Tl13 3.208516 1_555
Na13 Tl3 3.463646 1_554
Na13 Tl2 3.463646 1_555
Na13 Na6 3.813711 1_554
Na13 Na3 3.813711 1_554
Na13 Na5 3.813711 1_555
Mg0 Tl9 3.151897 1_454
Mg0 Tl6 3.151897 1_455
Mg0 Tl17 3.151897 1_544
Mg0 Tl10 3.151897 1_545
Mg0 Tl14 3.151897 1_554
Mg0 Tl13 3.151897 1_445
Mg0 Tl11 3.151897 1_455
Mg0 Tl12 3.151897 1_555
Mg0 Tl15 3.151897 1_545
Mg0 Tl16 3.151897 1_555
Mg0 Tl7 3.151897 1_554
Mg0 Tl8 3.151897 1_555
Tl0 Tl4 3.305410 1_555
Tl0 Tl2 3.305410 1_555
Tl0 Tl3 3.305410 1_555
Tl0 Tl5 3.305410 1_555
Tl1 Tl2 3.305410 1_555
Tl1 Tl3 3.305410 1_555
Tl1 Tl4 3.305410 1_555
Tl1 Tl5 3.305410 1_555
Tl2 Tl4 3.305410 1_555
Tl2 Tl5 3.305410 1_555
Tl3 Tl5 3.305410 1_555
Tl3 Tl4 3.305410 1_555
Tl6 Tl9 3.284091 1_554
Tl7 Tl8 3.284091 1_556
Tl10 Tl13 3.284091 1_455
Tl10 Tl8 3.321666 1_565
Tl10 Tl7 3.321666 1_564
Tl10 Tl15 3.321666 1_555
Tl10 Tl17 3.321666 1_554
Tl11 Tl12 3.284091 1_655
Tl11 Tl14 3.321666 1_654
Tl11 Tl6 3.321666 1_555
Tl11 Tl9 3.321666 1_554
Tl11 Tl16 3.321666 1_655
Tl12 Tl14 3.321666 1_554
Tl12 Tl16 3.321666 1_555
Tl12 Tl8 3.321666 1_555
Tl12 Tl7 3.321666 1_554
Tl13 Tl6 3.321666 1_565
Tl13 Tl17 3.321666 1_654
Tl13 Tl15 3.321666 1_655
Tl13 Tl9 3.321666 1_564
Tl14 Tl17 3.284091 1_545
Tl14 Tl9 3.321666 1_455
Tl14 Tl7 3.321666 1_555
Tl15 Tl16 3.284091 1_565
Tl15 Tl6 3.321666 1_465
Tl15 Tl8 3.321666 1_565
Tl16 Tl6 3.321666 1_455
Tl16 Tl8 3.321666 1_555
Tl17 Tl9 3.321666 1_465
Tl17 Tl7 3.321666 1_565
