# generated using pymatgen
data_ZrGa2Co
_symmetry_space_group_name_H-M   'P 1'
_cell_length_a   9.62645046
_cell_length_b   9.62645046
_cell_length_c   9.62645046
_cell_angle_alpha   100.37271713
_cell_angle_beta   100.37271713
_cell_angle_gamma   129.78424807
_symmetry_Int_Tables_number   1
_chemical_formula_structural   ZrGa2Co
_chemical_formula_sum   'Zr10 Ga20 Co10'
_cell_volume   620.74465943
_cell_formula_units_Z   10
loop_
 _symmetry_equiv_pos_site_id
 _symmetry_equiv_pos_as_xyz
  1  'x, y, z'
loop_
 _atom_site_type_symbol
 _atom_site_label
 _atom_site_symmetry_multiplicity
 _atom_site_fract_x
 _atom_site_fract_y
 _atom_site_fract_z
 _atom_site_occupancy
  Zr  Zr0  1  0.12363900  0.40646700  0.28282800  1
  Zr  Zr1  1  0.12363900  0.84081100  0.71717200  1
  Zr  Zr2  1  0.40646700  0.12363900  0.28282800  1
  Zr  Zr3  1  0.84081100  0.12363900  0.71717200  1
  Zr  Zr4  1  0.83601700  0.43358900  0.00000000  1
  Zr  Zr5  1  0.43358900  0.83601700  0.00000000  1
  Zr  Zr6  1  0.83601700  0.83601700  0.40242800  1
  Zr  Zr7  1  0.43358900  0.43358900  0.59757200  1
  Zr  Zr8  1  0.05417000  0.05417000  0.00000000  1
  Zr  Zr9  1  0.51241900  0.51241900  0.00000000  1
  Ga  Ga0  1  0.52654300  0.73799800  0.49292900  1
  Ga  Ga1  1  0.24506900  0.03361400  0.50707100  1
  Ga  Ga2  1  0.52654300  0.03361400  0.78854600  1
  Ga  Ga3  1  0.24506900  0.73799800  0.21145400  1
  Ga  Ga4  1  0.73799800  0.52654300  0.49292900  1
  Ga  Ga5  1  0.03361400  0.24506900  0.50707100  1
  Ga  Ga6  1  0.03361400  0.52654300  0.78854600  1
  Ga  Ga7  1  0.73799800  0.24506900  0.21145400  1
  Ga  Ga8  1  0.79641100  0.95811900  0.16170900  1
  Ga  Ga9  1  0.79641100  0.63470200  0.83829100  1
  Ga  Ga10  1  0.95811900  0.79641100  0.16170900  1
  Ga  Ga11  1  0.63470200  0.79641100  0.83829100  1
  Ga  Ga12  1  0.64768900  0.03035400  0.38266500  1
  Ga  Ga13  1  0.64768900  0.26502400  0.61733500  1
  Ga  Ga14  1  0.03035400  0.64768900  0.38266500  1
  Ga  Ga15  1  0.26502400  0.64768900  0.61733500  1
  Ga  Ga16  1  0.42201800  0.15602100  0.00000000  1
  Ga  Ga17  1  0.15602100  0.42201800  0.00000000  1
  Ga  Ga18  1  0.42201800  0.42201800  0.26599700  1
  Ga  Ga19  1  0.15602100  0.15602100  0.73400300  1
  Co  Co0  1  0.48411600  0.70041700  0.21630100  1
  Co  Co1  1  0.48411600  0.26781600  0.78369900  1
  Co  Co2  1  0.70041700  0.48411600  0.21630100  1
  Co  Co3  1  0.26781600  0.48411600  0.78369900  1
  Co  Co4  1  0.14058700  0.81648000  0.00000000  1
  Co  Co5  1  0.81648000  0.14058700  0.00000000  1
  Co  Co6  1  0.14058700  0.14058700  0.32410700  1
  Co  Co7  1  0.81648000  0.81648000  0.67589300  1
  Co  Co8  1  0.89706100  0.39706100  0.50000000  1
  Co  Co9  1  0.39706100  0.89706100  0.50000000  1
loop_
_geom_bond_atom_site_label_1
_geom_bond_atom_site_label_2
_geom_bond_distance
_geom_bond_site_symmetry_2
Ga0 Ga15 2.680938 1_555
Ga0 Ga12 2.779988 1_565
Ga0 Ga18 2.817033 1_555
Ga0 Zr3 2.825424 1_565
Ga0 Zr6 2.856162 1_555
Ga0 Zr0 2.885883 1_555
Ga0 Zr7 2.904186 1_555
Ga1 Ga14 2.680938 1_545
Ga1 Ga13 2.779988 1_555
Ga1 Ga19 2.817033 1_555
Ga1 Zr2 2.825424 1_555
Ga1 Zr7 2.856162 1_555
Ga1 Zr1 2.885883 1_545
Ga1 Zr6 2.904186 1_445
Ga2 Zr3 2.825429 1_555
Ga2 Zr4 2.856159 1_556
Ga2 Zr1 2.885882 1_545
Ga2 Zr5 2.904178 1_546
Ga3 Zr2 2.825423 1_565
Ga3 Zr5 2.856154 1_555
Ga3 Zr0 2.885888 1_555
Ga3 Zr4 2.904183 1_455
Ga4 Zr1 2.825424 1_655
Ga4 Zr6 2.856162 1_555
Ga4 Zr2 2.885883 1_555
Ga4 Zr7 2.904186 1_555
Ga5 Zr0 2.825424 1_555
Ga5 Zr7 2.856162 1_555
Ga5 Zr3 2.885883 1_455
Ga5 Zr6 2.904186 1_445
Ga6 Zr1 2.825429 1_555
Ga6 Zr5 2.856159 1_556
Ga6 Zr3 2.885882 1_455
Ga6 Zr4 2.904178 1_456
Ga7 Zr0 2.825423 1_655
Ga7 Zr4 2.856154 1_555
Ga7 Zr2 2.885888 1_555
Ga7 Zr5 2.904183 1_545
Ga8 Zr6 2.851823 1_555
Ga8 Zr5 2.851834 1_555
Ga8 Zr8 2.899672 1_665
Ga8 Zr9 3.058849 1_555
Ga8 Zr0 3.061990 1_665
Ga9 Zr4 2.851829 1_556
Ga9 Zr7 2.851829 1_555
Ga9 Zr8 2.899673 1_666
Ga9 Zr9 3.058856 1_556
Ga9 Zr1 3.061983 1_655
Ga10 Ga8 2.819169 1_555
Ga10 Ga9 2.819187 1_554
Ga10 Zr6 2.851823 1_555
Ga10 Zr4 2.851834 1_555
Ga10 Zr8 2.899672 1_665
Ga10 Ga14 2.982526 1_655
Ga10 Zr9 3.058849 1_555
Ga10 Zr2 3.061990 1_665
Ga11 Ga9 2.819187 1_555
Ga11 Ga8 2.819187 1_556
Ga11 Zr7 2.851829 1_555
Ga11 Zr5 2.851829 1_556
Ga11 Zr8 2.899673 1_666
Ga11 Ga15 2.982522 1_555
Ga11 Zr9 3.058856 1_556
Ga11 Zr3 3.061983 1_565
Ga12 Ga5 2.680938 1_655
Ga12 Ga7 2.680946 1_555
Ga12 Ga3 2.779990 1_545
Ga12 Ga13 2.892892 1_555
Ga12 Ga8 2.982526 1_545
Ga12 Zr2 3.049284 1_555
Ga12 Zr3 3.049284 1_555
Ga12 Zr5 3.341738 1_545
Ga12 Zr6 3.341738 1_545
Ga13 Ga4 2.680938 1_555
Ga13 Ga6 2.680940 1_655
Ga13 Ga2 2.779996 1_555
Ga13 Ga9 2.982522 1_555
Ga13 Zr2 3.049284 1_555
Ga13 Zr3 3.049284 1_555
Ga13 Zr7 3.341738 1_555
Ga13 Zr4 3.341738 1_556
Ga14 Ga3 2.680946 1_555
Ga14 Ga4 2.779988 1_455
Ga14 Ga7 2.779990 1_455
Ga14 Ga15 2.892892 1_555
Ga14 Zr0 3.049284 1_555
Ga14 Zr1 3.049284 1_555
Ga14 Zr4 3.341738 1_455
Ga14 Zr6 3.341738 1_455
Ga15 Ga2 2.680940 1_565
Ga15 Ga5 2.779988 1_555
Ga15 Ga6 2.779996 1_555
Ga15 Zr0 3.049284 1_555
Ga15 Zr1 3.049284 1_555
Ga15 Zr7 3.341738 1_555
Ga15 Zr5 3.341738 1_556
Ga16 Zr1 2.815131 1_544
Ga16 Zr2 2.815131 1_555
Ga16 Ga2 2.817026 1_554
Ga16 Ga7 2.817028 1_555
Ga16 Zr9 2.950761 1_555
Ga16 Zr8 3.009514 1_555
Ga16 Zr4 3.064993 1_555
Ga16 Zr5 3.152942 1_545
Ga17 Zr3 2.815131 1_454
Ga17 Zr0 2.815131 1_555
Ga17 Ga6 2.817026 1_554
Ga17 Ga3 2.817028 1_555
Ga17 Zr9 2.950761 1_555
Ga17 Zr8 3.009514 1_555
Ga17 Zr5 3.064993 1_555
Ga17 Zr4 3.152942 1_455
Ga18 Zr0 2.815131 1_555
Ga18 Zr2 2.815131 1_555
Ga18 Ga4 2.817033 1_555
Ga18 Zr9 2.950761 1_555
Ga18 Zr8 3.009514 1_555
Ga18 Zr6 3.064993 1_555
Ga18 Zr7 3.152942 1_555
Ga19 Zr1 2.815131 1_545
Ga19 Zr3 2.815131 1_455
Ga19 Ga5 2.817033 1_555
Ga19 Zr9 2.950761 1_556
Ga19 Zr8 3.009514 1_556
Ga19 Zr7 3.064993 1_555
Ga19 Zr6 3.152942 1_445
Co0 Ga12 2.447794 1_565
Co0 Ga18 2.506579 1_555
Co0 Ga17 2.506579 1_555
Co0 Ga3 2.541909 1_555
Co0 Ga0 2.541910 1_555
Co0 Ga8 2.638549 1_555
Co0 Zr9 2.676455 1_555
Co0 Zr6 2.775379 1_555
Co0 Zr5 2.775379 1_555
Co0 Zr0 3.056967 1_555
Co1 Ga13 2.447797 1_555
Co1 Ga19 2.506575 1_555
Co1 Ga16 2.506583 1_556
Co1 Ga1 2.541911 1_555
Co1 Ga2 2.541921 1_555
Co1 Ga9 2.638546 1_555
Co1 Zr9 2.676448 1_556
Co1 Zr7 2.775372 1_555
Co1 Zr4 2.775383 1_556
Co1 Zr1 3.056972 1_545
Co2 Ga14 2.447794 1_655
Co2 Ga18 2.506579 1_555
Co2 Ga16 2.506579 1_555
Co2 Ga7 2.541909 1_555
Co2 Ga4 2.541910 1_555
Co2 Ga10 2.638549 1_555
Co2 Zr9 2.676455 1_555
Co2 Zr6 2.775379 1_555
Co2 Zr4 2.775379 1_555
Co2 Zr2 3.056967 1_555
Co3 Ga15 2.447797 1_555
Co3 Ga19 2.506575 1_555
Co3 Ga17 2.506583 1_556
Co3 Ga5 2.541911 1_555
Co3 Ga6 2.541921 1_555
Co3 Ga11 2.638546 1_555
Co3 Zr9 2.676448 1_556
Co3 Zr7 2.775372 1_555
Co3 Zr5 2.775383 1_556
Co3 Zr3 3.056972 1_455
Co4 Ga9 2.490894 1_454
Co4 Ga10 2.490901 1_455
Co4 Ga3 2.552430 1_555
Co4 Ga6 2.552432 1_554
Co4 Ga16 2.586588 1_565
Co4 Zr5 2.704087 1_555
Co4 Zr1 2.759126 1_554
Co4 Zr2 2.759126 1_565
Co4 Zr4 2.889895 1_455
Co4 Zr8 2.891976 1_565
Co5 Ga11 2.490894 1_544
Co5 Ga8 2.490901 1_545
Co5 Ga7 2.552430 1_555
Co5 Ga2 2.552432 1_554
Co5 Ga17 2.586588 1_655
Co5 Zr4 2.704087 1_555
Co5 Zr3 2.759126 1_554
Co5 Zr0 2.759126 1_655
Co5 Zr5 2.889895 1_545
Co5 Zr8 2.891976 1_655
Co6 Ga8 2.490892 1_445
Co6 Ga10 2.490892 1_445
Co6 Ga1 2.552437 1_555
Co6 Ga5 2.552437 1_555
Co6 Ga18 2.586588 1_555
Co6 Zr7 2.704087 1_555
Co6 Zr2 2.759126 1_555
Co6 Zr0 2.759126 1_555
Co6 Zr6 2.889895 1_445
Co6 Zr8 2.891976 1_555
Co7 Ga9 2.490894 1_555
Co7 Ga11 2.490894 1_555
Co7 Ga0 2.552437 1_555
Co7 Ga4 2.552437 1_555
Co7 Ga19 2.586588 1_665
Co7 Zr6 2.704087 1_555
Co7 Zr3 2.759126 1_565
Co7 Zr1 2.759126 1_655
Co7 Zr7 2.889895 1_555
Co7 Zr8 2.891976 1_666
Co8 Ga13 2.498507 1_555
Co8 Ga12 2.498507 1_555
Co8 Ga15 2.506880 1_655
Co8 Ga14 2.506880 1_655
Co8 Ga4 2.517639 1_555
Co8 Ga5 2.517639 1_655
Co8 Ga7 2.517647 1_555
Co8 Ga6 2.517648 1_655
Co9 Ga15 2.498507 1_555
Co9 Ga14 2.498507 1_555
Co9 Ga12 2.506880 1_565
Co9 Ga13 2.506880 1_565
Co9 Ga0 2.517639 1_555
Co9 Ga1 2.517639 1_565
Co9 Ga3 2.517647 1_555
Co9 Ga2 2.517648 1_565
