# generated using pymatgen
data_InPO6
_symmetry_space_group_name_H-M   'P 1'
_cell_length_a   8.77290200
_cell_length_b   10.12641700
_cell_length_c   10.34246200
_cell_angle_alpha   90.00000000
_cell_angle_beta   90.00000000
_cell_angle_gamma   90.00000000
_symmetry_Int_Tables_number   1
_chemical_formula_structural   InPO6
_chemical_formula_sum   'In8 P8 O48'
_cell_volume   918.80430058
_cell_formula_units_Z   8
loop_
 _symmetry_equiv_pos_site_id
 _symmetry_equiv_pos_as_xyz
  1  'x, y, z'
loop_
 _atom_site_type_symbol
 _atom_site_label
 _atom_site_symmetry_multiplicity
 _atom_site_fract_x
 _atom_site_fract_y
 _atom_site_fract_z
 _atom_site_occupancy
  In  In0  1  0.14189500  0.32070000  0.62350400  1
  In  In1  1  0.35810500  0.67930000  0.12350400  1
  In  In2  1  0.64189500  0.17930000  0.37649600  1
  In  In3  1  0.85810500  0.82070000  0.87649600  1
  In  In4  1  0.85810500  0.67930000  0.37649600  1
  In  In5  1  0.64189500  0.32070000  0.87649600  1
  In  In6  1  0.35810500  0.82070000  0.62350400  1
  In  In7  1  0.14189500  0.17930000  0.12350400  1
  P  P0  1  0.45890900  0.13482100  0.66323700  1
  P  P1  1  0.04109100  0.86517900  0.16323700  1
  P  P2  1  0.95890900  0.36517900  0.33676300  1
  P  P3  1  0.54109100  0.63482100  0.83676300  1
  P  P4  1  0.54109100  0.86517900  0.33676300  1
  P  P5  1  0.95890900  0.13482100  0.83676300  1
  P  P6  1  0.04109100  0.63482100  0.66323700  1
  P  P7  1  0.45890900  0.36517900  0.16323700  1
  O  O0  1  0.46053800  0.20209300  0.79864700  1
  O  O1  1  0.03946200  0.79790700  0.29864700  1
  O  O2  1  0.96053800  0.29790700  0.20135300  1
  O  O3  1  0.53946200  0.70209300  0.70135300  1
  O  O4  1  0.53946200  0.79790700  0.20135300  1
  O  O5  1  0.96053800  0.20209300  0.70135300  1
  O  O6  1  0.03946200  0.70209300  0.79864700  1
  O  O7  1  0.46053800  0.29790700  0.29864700  1
  O  O8  1  0.57448800  0.20844100  0.57413400  1
  O  O9  1  0.92551200  0.79155900  0.07413400  1
  O  O10  1  0.07448800  0.29155900  0.42586600  1
  O  O11  1  0.42551200  0.70844100  0.92586600  1
  O  O12  1  0.42551200  0.79155900  0.42586600  1
  O  O13  1  0.07448800  0.20844100  0.92586600  1
  O  O14  1  0.92551200  0.70844100  0.57413400  1
  O  O15  1  0.57448800  0.29155900  0.07413400  1
  O  O16  1  0.29320400  0.15056900  0.60694500  1
  O  O17  1  0.20679600  0.84943100  0.10694500  1
  O  O18  1  0.79320400  0.34943100  0.39305500  1
  O  O19  1  0.70679600  0.65056900  0.89305500  1
  O  O20  1  0.70679600  0.84943100  0.39305500  1
  O  O21  1  0.79320400  0.15056900  0.89305500  1
  O  O22  1  0.20679600  0.65056900  0.60694500  1
  O  O23  1  0.29320400  0.34943100  0.10694500  1
  O  O24  1  0.49721300  0.98777400  0.67275600  1
  O  O25  1  0.00278700  0.01222600  0.17275600  1
  O  O26  1  0.99721300  0.51222600  0.32724400  1
  O  O27  1  0.50278700  0.48777400  0.82724400  1
  O  O28  1  0.50278700  0.01222600  0.32724400  1
  O  O29  1  0.99721300  0.98777400  0.82724400  1
  O  O30  1  0.00278700  0.48777400  0.67275600  1
  O  O31  1  0.49721300  0.51222600  0.17275600  1
  O  O32  1  0.31699600  0.03053600  0.05235100  1
  O  O33  1  0.18300400  0.96946400  0.55235100  1
  O  O34  1  0.81699600  0.46946400  0.94764900  1
  O  O35  1  0.68300400  0.53053600  0.44764900  1
  O  O36  1  0.68300400  0.96946400  0.94764900  1
  O  O37  1  0.81699600  0.03053600  0.44764900  1
  O  O38  1  0.18300400  0.53053600  0.05235100  1
  O  O39  1  0.31699600  0.46946400  0.55235100  1
  O  O40  1  0.25084000  0.15254700  0.31955300  1
  O  O41  1  0.24916000  0.84745300  0.81955300  1
  O  O42  1  0.75084000  0.34745300  0.68044700  1
  O  O43  1  0.74916000  0.65254700  0.18044700  1
  O  O44  1  0.74916000  0.84745300  0.68044700  1
  O  O45  1  0.75084000  0.15254700  0.18044700  1
  O  O46  1  0.24916000  0.65254700  0.31955300  1
  O  O47  1  0.25084000  0.34745300  0.81955300  1
loop_
_geom_bond_atom_site_label_1
_geom_bond_atom_site_label_2
_geom_bond_distance
_geom_bond_site_symmetry_2
In0 O30 2.147370 1_555
In0 O10 2.148250 1_555
In0 O5 2.149928 1_455
In0 O16 2.181621 1_555
In0 O47 2.257910 1_555
In0 O39 2.273909 1_555
In1 O31 2.147370 1_555
In1 O11 2.148250 1_554
In1 O4 2.149928 1_555
In1 O17 2.181621 1_555
In1 O46 2.257910 1_555
In1 O38 2.273909 1_555
In2 O28 2.147370 1_555
In2 O8 2.148250 1_555
In2 O7 2.149928 1_555
In2 O18 2.181621 1_555
In2 O45 2.257910 1_555
In2 O37 2.273909 1_555
In3 O29 2.147370 1_555
In3 O9 2.148250 1_556
In3 O6 2.149928 1_655
In3 O19 2.181621 1_555
In3 O44 2.257910 1_555
In3 O36 2.273909 1_555
In4 O26 2.147370 1_555
In4 O14 2.148250 1_555
In4 O1 2.149928 1_655
In4 O20 2.181621 1_555
In4 O43 2.257910 1_555
In4 O35 2.273909 1_555
In5 O27 2.147370 1_555
In5 O15 2.148250 1_556
In5 O0 2.149928 1_555
In5 O21 2.181621 1_555
In5 O42 2.257910 1_555
In5 O34 2.273909 1_555
In6 O24 2.147370 1_555
In6 O12 2.148250 1_555
In6 O3 2.149928 1_555
In6 O22 2.181621 1_555
In6 O41 2.257910 1_555
In6 O33 2.273909 1_555
In7 O25 2.147370 1_555
In7 O13 2.148250 1_554
In7 O2 2.149928 1_455
In7 O23 2.181621 1_555
In7 O40 2.257910 1_555
In7 O32 2.273909 1_555
O0 P0 1.557432 1_555
O1 P1 1.557432 1_555
O2 P2 1.557432 1_555
O3 P3 1.557432 1_555
O4 P4 1.557432 1_555
O5 P5 1.557432 1_555
O6 P6 1.557432 1_555
O7 P7 1.557432 1_555
O8 P0 1.559854 1_555
O9 P1 1.559854 1_655
O10 P2 1.559854 1_455
O11 P3 1.559854 1_555
O12 P4 1.559854 1_555
O13 P5 1.559854 1_455
O14 P6 1.559854 1_655
O15 P7 1.559854 1_555
O16 P0 1.574061 1_555
O17 P1 1.574061 1_555
O18 P2 1.574061 1_555
O19 P3 1.574061 1_555
O20 P4 1.574061 1_555
O21 P5 1.574061 1_555
O22 P6 1.574061 1_555
O23 P7 1.574061 1_555
O24 P0 1.529677 1_565
O25 P1 1.529677 1_545
O26 P2 1.529677 1_555
O27 P3 1.529677 1_555
O28 P4 1.529677 1_545
O29 P5 1.529677 1_565
O30 P6 1.529677 1_555
O31 P7 1.529677 1_555
