# generated using pymatgen
data_U(Al10Cr)2
_symmetry_space_group_name_H-M   'P 1'
_cell_length_a   10.15316101
_cell_length_b   10.15316101
_cell_length_c   10.15316101
_cell_angle_alpha   60.00000000
_cell_angle_beta   60.00000000
_cell_angle_gamma   60.00000000
_symmetry_Int_Tables_number   1
_chemical_formula_structural   U(Al10Cr)2
_chemical_formula_sum   'U2 Al40 Cr4'
_cell_volume   740.09730377
_cell_formula_units_Z   2
loop_
 _symmetry_equiv_pos_site_id
 _symmetry_equiv_pos_as_xyz
  1  'x, y, z'
loop_
 _atom_site_type_symbol
 _atom_site_label
 _atom_site_symmetry_multiplicity
 _atom_site_fract_x
 _atom_site_fract_y
 _atom_site_fract_z
 _atom_site_occupancy
  U  U0  1  0.12500000  0.12500000  0.12500000  1
  U  U1  1  0.87500000  0.87500000  0.87500000  1
  Al  Al0  1  0.00000000  0.00000000  0.50000000  1
  Al  Al1  1  0.00000000  0.50000000  0.00000000  1
  Al  Al2  1  0.50000000  0.00000000  0.00000000  1
  Al  Al3  1  0.00000000  0.00000000  0.00000000  1
  Al  Al4  1  0.48860200  0.76139800  0.76139800  1
  Al  Al5  1  0.76139800  0.48860200  0.48860200  1
  Al  Al6  1  0.76139800  0.48860200  0.76139800  1
  Al  Al7  1  0.48860200  0.76139800  0.48860200  1
  Al  Al8  1  0.76139800  0.76139800  0.48860200  1
  Al  Al9  1  0.48860200  0.48860200  0.76139800  1
  Al  Al10  1  0.51139800  0.23860200  0.23860200  1
  Al  Al11  1  0.23860200  0.51139800  0.51139800  1
  Al  Al12  1  0.23860200  0.51139800  0.23860200  1
  Al  Al13  1  0.51139800  0.23860200  0.51139800  1
  Al  Al14  1  0.23860200  0.23860200  0.51139800  1
  Al  Al15  1  0.51139800  0.51139800  0.23860200  1
  Al  Al16  1  0.32516700  0.32516700  0.05687700  1
  Al  Al17  1  0.79278900  0.05687700  0.32516700  1
  Al  Al18  1  0.05687700  0.79278900  0.32516700  1
  Al  Al19  1  0.32516700  0.32516700  0.79278900  1
  Al  Al20  1  0.05687700  0.32516700  0.32516700  1
  Al  Al21  1  0.32516700  0.79278900  0.05687700  1
  Al  Al22  1  0.32516700  0.05687700  0.79278900  1
  Al  Al23  1  0.79278900  0.32516700  0.32516700  1
  Al  Al24  1  0.32516700  0.05687700  0.32516700  1
  Al  Al25  1  0.05687700  0.32516700  0.79278900  1
  Al  Al26  1  0.79278900  0.32516700  0.05687700  1
  Al  Al27  1  0.32516700  0.79278900  0.32516700  1
  Al  Al28  1  0.67483300  0.67483300  0.94312300  1
  Al  Al29  1  0.20721100  0.94312300  0.67483300  1
  Al  Al30  1  0.94312300  0.20721100  0.67483300  1
  Al  Al31  1  0.67483300  0.67483300  0.20721100  1
  Al  Al32  1  0.94312300  0.67483300  0.67483300  1
  Al  Al33  1  0.67483300  0.20721100  0.94312300  1
  Al  Al34  1  0.67483300  0.94312300  0.20721100  1
  Al  Al35  1  0.20721100  0.67483300  0.67483300  1
  Al  Al36  1  0.67483300  0.94312300  0.67483300  1
  Al  Al37  1  0.94312300  0.67483300  0.20721100  1
  Al  Al38  1  0.20721100  0.67483300  0.94312300  1
  Al  Al39  1  0.67483300  0.20721100  0.67483300  1
  Cr  Cr0  1  0.50000000  0.50000000  0.00000000  1
  Cr  Cr1  1  0.50000000  0.00000000  0.50000000  1
  Cr  Cr2  1  0.00000000  0.50000000  0.50000000  1
  Cr  Cr3  1  0.50000000  0.50000000  0.50000000  1
loop_
_geom_bond_atom_site_label_1
_geom_bond_atom_site_label_2
_geom_bond_distance
_geom_bond_site_symmetry_2
Al0 Al32 3.066789 1_445
Al0 Al36 3.066789 1_445
Al0 Al35 3.066789 1_545
Al0 Al24 3.066789 1_555
Al0 Al39 3.066789 1_455
Al0 Al23 3.066789 1_455
Al0 Al27 3.066789 1_545
Al0 Al30 3.066789 1_455
Al0 Al29 3.066789 1_545
Al0 Al20 3.066789 1_555
Al0 Al18 3.066789 1_545
Al0 Al17 3.066789 1_455
Al0 U0 3.108758 1_555
Al0 U1 3.108758 1_445
Al1 Al32 3.066789 1_454
Al1 Al28 3.066789 1_454
Al1 Al31 3.066789 1_455
Al1 Al19 3.066789 1_554
Al1 Al38 3.066789 1_554
Al1 Al35 3.066789 1_554
Al1 Al23 3.066789 1_455
Al1 Al16 3.066789 1_555
Al1 Al20 3.066789 1_555
Al1 Al25 3.066789 1_554
Al1 Al26 3.066789 1_455
Al1 Al37 3.066789 1_455
Al1 U0 3.108758 1_555
Al1 U1 3.108758 1_454
Al2 Al28 3.066789 1_544
Al2 Al36 3.066789 1_544
Al2 Al24 3.066789 1_555
Al2 Al27 3.066789 1_545
Al2 Al31 3.066789 1_545
Al2 Al39 3.066789 1_554
Al2 Al21 3.066789 1_545
Al2 Al22 3.066789 1_554
Al2 Al34 3.066789 1_545
Al2 Al33 3.066789 1_554
Al2 U0 3.108758 1_555
Al2 U1 3.108758 1_544
Al3 Al38 3.066789 1_544
Al3 Al33 3.066789 1_454
Al3 Al37 3.066789 1_445
Al3 Al34 3.066789 1_445
Al3 Al30 3.066789 1_454
Al3 U0 3.108758 1_555
Al3 U1 3.108758 1_444
Al4 Cr0 2.543561 1_556
Al4 Cr1 2.543561 1_565
Al4 Al8 2.769742 1_555
Al4 Al9 2.769742 1_555
Al4 Al6 2.769742 1_555
Al4 Al7 2.769742 1_555
Al5 Cr2 2.543561 1_655
Al5 Cr3 2.543561 1_555
Al5 Al8 2.769742 1_555
Al5 Al9 2.769742 1_555
Al5 Al6 2.769742 1_555
Al5 Al7 2.769742 1_555
Al6 Cr0 2.543561 1_556
Al6 Cr2 2.543561 1_655
Al6 Al9 2.769742 1_555
Al6 Al8 2.769742 1_555
Al7 Cr3 2.543561 1_555
Al7 Cr1 2.543561 1_565
Al7 Al8 2.769742 1_555
Al7 Al9 2.769742 1_555
Al8 Cr2 2.543561 1_655
Al8 Cr1 2.543561 1_565
Al9 Cr0 2.543561 1_556
Al9 Cr3 2.543561 1_555
Al10 Cr0 2.543561 1_555
Al10 Cr1 2.543561 1_555
Al10 Al34 2.702679 1_545
Al10 Al33 2.702679 1_554
Al10 Al13 2.769742 1_555
Al10 Al12 2.769742 1_555
Al10 Al14 2.769742 1_555
Al10 Al15 2.769742 1_555
Al10 Al26 2.820865 1_555
Al10 Al17 2.820865 1_555
Al10 Al24 2.820865 1_555
Al10 Al16 2.820865 1_555
Al11 Cr3 2.543561 1_555
Al11 Cr2 2.543561 1_555
Al11 Al32 2.702679 1_455
Al11 Al35 2.702679 1_555
Al11 Al13 2.769742 1_555
Al11 Al12 2.769742 1_555
Al11 Al14 2.769742 1_555
Al11 Al15 2.769742 1_555
Al11 Al27 2.820865 1_555
Al11 Al19 2.820865 1_555
Al11 Al25 2.820865 1_555
Al11 Al18 2.820865 1_555
Al12 Cr0 2.543561 1_555
Al12 Cr2 2.543561 1_555
Al12 Al38 2.702679 1_554
Al12 Al37 2.702679 1_455
Al12 Al14 2.769742 1_555
Al12 Al15 2.769742 1_555
Al12 Al21 2.820865 1_555
Al12 Al18 2.820865 1_555
Al12 Al20 2.820865 1_555
Al12 Al16 2.820865 1_555
Al13 Cr3 2.543561 1_555
Al13 Cr1 2.543561 1_555
Al13 Al39 2.702679 1_555
Al13 Al36 2.702679 1_545
Al13 Al14 2.769742 1_555
Al13 Al15 2.769742 1_555
Al13 Al19 2.820865 1_555
Al13 Al23 2.820865 1_555
Al13 Al17 2.820865 1_555
Al13 Al22 2.820865 1_555
Al14 Cr1 2.543561 1_555
Al14 Cr2 2.543561 1_555
Al14 Al29 2.702679 1_545
Al14 Al30 2.702679 1_455
Al14 Al25 2.820865 1_555
Al14 Al22 2.820865 1_555
Al14 Al20 2.820865 1_555
Al14 Al24 2.820865 1_555
Al15 Cr0 2.543561 1_555
Al15 Cr3 2.543561 1_555
Al15 Al31 2.702679 1_555
Al15 Al28 2.702679 1_554
Al15 Al23 2.820865 1_555
Al15 Al21 2.820865 1_555
Al15 Al27 2.820865 1_555
Al15 Al26 2.820865 1_555
Al16 Al19 2.681328 1_554
Al16 Al9 2.702679 1_554
Al16 Al20 2.723992 1_555
Al16 Al24 2.723992 1_555
Al16 Cr0 2.781425 1_555
Al16 Al38 2.898843 1_554
Al16 Al33 2.898843 1_554
Al16 Al2 3.066789 1_555
Al16 U0 3.171450 1_555
Al17 Al18 2.681328 1_645
Al17 Al8 2.702679 1_545
Al17 Al23 2.723992 1_555
Al17 Al26 2.723992 1_555
Al17 Cr1 2.781425 1_555
Al17 Al34 2.898843 1_545
Al17 Al36 2.898843 1_545
Al17 Al3 3.066789 1_655
Al17 U0 3.171450 1_655
Al18 Al8 2.702679 1_455
Al18 Al21 2.723992 1_555
Al18 Al27 2.723992 1_555
Al18 Cr2 2.781425 1_555
Al18 Al37 2.898843 1_455
Al18 Al32 2.898843 1_455
Al18 Al3 3.066789 1_565
Al18 U0 3.171450 1_565
Al19 Al9 2.702679 1_555
Al19 Al22 2.723992 1_555
Al19 Al25 2.723992 1_555
Al19 Cr3 2.781425 1_555
Al19 Al35 2.898843 1_555
Al19 Al39 2.898843 1_555
Al19 Al2 3.066789 1_556
Al19 U0 3.171450 1_556
Al20 Al23 2.681328 1_455
Al20 Al5 2.702679 1_455
Al20 Al24 2.723992 1_555
Al20 Cr2 2.781425 1_555
Al20 Al37 2.898843 1_455
Al20 Al30 2.898843 1_455
Al20 U0 3.171450 1_555
Al21 Al22 2.681328 1_564
Al21 Al4 2.702679 1_554
Al21 Al27 2.723992 1_555
Al21 Cr0 2.781425 1_555
Al21 Al38 2.898843 1_554
Al21 Al28 2.898843 1_554
Al21 Al3 3.066789 1_565
Al21 U0 3.171450 1_565
Al22 Al4 2.702679 1_545
Al22 Al25 2.723992 1_555
Al22 Cr1 2.781425 1_555
Al22 Al29 2.898843 1_545
Al22 Al36 2.898843 1_545
Al22 Al3 3.066789 1_556
Al22 U0 3.171450 1_556
Al23 Al5 2.702679 1_555
Al23 Al26 2.723992 1_555
Al23 Cr3 2.781425 1_555
Al23 Al39 2.898843 1_555
Al23 Al31 2.898843 1_555
Al23 U0 3.171450 1_655
Al24 Al27 2.681328 1_545
Al24 Al7 2.702679 1_545
Al24 Cr1 2.781425 1_555
Al24 Al29 2.898843 1_545
Al24 Al34 2.898843 1_545
Al24 U0 3.171450 1_555
Al25 Al26 2.681328 1_456
Al25 Al6 2.702679 1_455
Al25 Cr2 2.781425 1_555
Al25 Al30 2.898843 1_455
Al25 Al32 2.898843 1_455
Al25 Al3 3.066789 1_556
Al25 U0 3.171450 1_556
Al26 Al6 2.702679 1_554
Al26 Cr0 2.781425 1_555
Al26 Al33 2.898843 1_554
Al26 Al28 2.898843 1_554
Al26 Al3 3.066789 1_655
Al26 U0 3.171450 1_655
Al27 Al7 2.702679 1_555
Al27 Cr3 2.781425 1_555
Al27 Al35 2.898843 1_555
Al27 Al31 2.898843 1_555
Al27 U0 3.171450 1_565
Al28 Al31 2.681328 1_556
Al28 Al36 2.723992 1_555
Al28 Al32 2.723992 1_555
Al28 Cr0 2.781425 1_556
Al28 Al4 2.820865 1_555
Al28 Al6 2.820865 1_555
Al28 U1 3.171450 1_555
Al29 Al30 2.681328 1_465
Al29 Al35 2.723992 1_555
Al29 Al38 2.723992 1_555
Al29 Cr1 2.781425 1_565
Al29 Al7 2.820865 1_555
Al29 Al4 2.820865 1_555
Al29 Al3 3.066789 1_566
Al29 U1 3.171450 1_455
Al30 Al39 2.723992 1_555
Al30 Al33 2.723992 1_555
Al30 Cr2 2.781425 1_655
Al30 Al5 2.820865 1_555
Al30 Al6 2.820865 1_555
Al30 U1 3.171450 1_545
Al31 Al37 2.723992 1_555
Al31 Al34 2.723992 1_555
Al31 Cr3 2.781425 1_555
Al31 Al5 2.820865 1_555
Al31 Al7 2.820865 1_555
Al31 U1 3.171450 1_554
Al32 Al35 2.681328 1_655
Al32 Al36 2.723992 1_555
Al32 Cr2 2.781425 1_655
Al32 Al8 2.820865 1_555
Al32 Al6 2.820865 1_555
Al32 U1 3.171450 1_555
Al33 Al34 2.681328 1_546
Al33 Al39 2.723992 1_555
Al33 Cr0 2.781425 1_556
Al33 Al9 2.820865 1_555
Al33 Al6 2.820865 1_555
Al33 U1 3.171450 1_545
Al34 Al37 2.723992 1_555
Al34 Cr1 2.781425 1_565
Al34 Al8 2.820865 1_555
Al34 Al7 2.820865 1_555
Al34 U1 3.171450 1_554
Al35 Al38 2.723992 1_555
Al35 Cr3 2.781425 1_555
Al35 Al7 2.820865 1_555
Al35 Al9 2.820865 1_555
Al35 U1 3.171450 1_455
Al36 Al39 2.681328 1_565
Al36 Cr1 2.781425 1_565
Al36 Al4 2.820865 1_555
Al36 Al8 2.820865 1_555
Al36 U1 3.171450 1_555
Al37 Al38 2.681328 1_654
Al37 Cr2 2.781425 1_655
Al37 Al5 2.820865 1_555
Al37 Al8 2.820865 1_555
Al37 U1 3.171450 1_554
Al38 Cr0 2.781425 1_556
Al38 Al9 2.820865 1_555
Al38 Al4 2.820865 1_555
Al38 U1 3.171450 1_455
Al39 Cr3 2.781425 1_555
Al39 Al5 2.820865 1_555
Al39 Al9 2.820865 1_555
Al39 U1 3.171450 1_545
