# generated using pymatgen
data_CeZnPt
_symmetry_space_group_name_H-M   'P 1'
_cell_length_a   4.30531583
_cell_length_b   7.06964954
_cell_length_c   8.13582962
_cell_angle_alpha   90.02232517
_cell_angle_beta   90.00214109
_cell_angle_gamma   90.01492235
_symmetry_Int_Tables_number   1
_chemical_formula_structural   CeZnPt
_chemical_formula_sum   'Ce4 Zn4 Pt4'
_cell_volume   247.63082154
_cell_formula_units_Z   4
loop_
 _symmetry_equiv_pos_site_id
 _symmetry_equiv_pos_as_xyz
  1  'x, y, z'
loop_
 _atom_site_type_symbol
 _atom_site_label
 _atom_site_symmetry_multiplicity
 _atom_site_fract_x
 _atom_site_fract_y
 _atom_site_fract_z
 _atom_site_occupancy
  Ce  Ce0  1  0.74879172  0.46414544  0.80770736  1
  Ce  Ce1  1  0.25121922  0.03590216  0.30756797  1
  Ce  Ce2  1  0.74877452  0.96425944  0.69232059  1
  Ce  Ce3  1  0.25120420  0.53573142  0.19247712  1
  Zn  Zn0  1  0.25013493  0.64483801  0.56615121  1
  Zn  Zn1  1  0.25014503  0.14511877  0.93376955  1
  Zn  Zn2  1  0.74987040  0.35510085  0.43420656  1
  Zn  Zn3  1  0.74984796  0.85492862  0.06589720  1
  Pt  Pt0  1  0.24958581  0.76209598  0.88644232  1
  Pt  Pt1  1  0.24960183  0.26212562  0.61345988  1
  Pt  Pt2  1  0.75040378  0.73802906  0.38674160  1
  Pt  Pt3  1  0.75042059  0.23772463  0.11325865  1
loop_
_geom_bond_atom_site_label_1
_geom_bond_atom_site_label_2
_geom_bond_distance
_geom_bond_site_symmetry_2
Ce0 Pt3 2.957230 1_556
Ce0 Pt1 3.025335 1_555
Ce0 Pt1 3.030907 1_655
Ce0 Pt0 3.076998 1_555
Ce0 Pt0 3.080978 1_655
Ce1 Pt1 2.957758 1_555
Ce1 Pt3 3.025640 1_555
Ce1 Pt3 3.030973 1_455
Ce1 Pt2 3.077613 1_545
Ce1 Pt2 3.081788 1_445
Ce2 Pt2 2.955643 1_555
Ce2 Pt0 3.025942 1_555
Ce2 Pt0 3.031353 1_655
Ce2 Pt1 3.077012 1_565
Ce2 Pt1 3.081259 1_665
Ce3 Pt0 2.960323 1_554
Ce3 Pt2 3.026364 1_555
Ce3 Pt2 3.031875 1_455
Ce3 Pt3 3.078123 1_555
Ce3 Pt3 3.082038 1_455
Pt0 Zn3 2.681728 1_456
Pt0 Zn3 2.683178 1_556
Pt0 Zn0 2.734207 1_555
Pt0 Zn1 2.734928 1_565
Pt1 Zn2 2.681252 1_455
Pt1 Zn2 2.682920 1_555
Pt1 Zn0 2.733031 1_555
Pt1 Zn1 2.734428 1_555
Pt2 Zn0 2.682318 1_655
Pt2 Zn0 2.683987 1_555
Pt2 Zn2 2.734721 1_555
Pt2 Zn3 2.738346 1_555
Pt3 Zn1 2.681441 1_654
Pt3 Zn1 2.682984 1_554
Pt3 Zn3 2.733380 1_545
Pt3 Zn2 2.739553 1_555
