# generated using pymatgen
data_MgZn3Cu2H14(SO9)2
_symmetry_space_group_name_H-M   'P 1'
_cell_length_a   6.03779294
_cell_length_b   6.52874076
_cell_length_c   10.60579526
_cell_angle_alpha   95.90112191
_cell_angle_beta   88.93731002
_cell_angle_gamma   90.27094013
_symmetry_Int_Tables_number   1
_chemical_formula_structural   MgZn3Cu2H14(SO9)2
_chemical_formula_sum   'Mg1 Zn3 Cu2 H14 S2 O18'
_cell_volume   415.78315901
_cell_formula_units_Z   1
loop_
 _symmetry_equiv_pos_site_id
 _symmetry_equiv_pos_as_xyz
  1  'x, y, z'
loop_
 _atom_site_type_symbol
 _atom_site_label
 _atom_site_symmetry_multiplicity
 _atom_site_fract_x
 _atom_site_fract_y
 _atom_site_fract_z
 _atom_site_occupancy
  Mg  Mg0  1  0.80594570  0.70296299  0.55138973  1
  Zn  Zn0  1  0.00778313  0.99357169  0.00349531  1
  Zn  Zn1  1  0.33673342  0.81728496  0.49523256  1
  Zn  Zn2  1  0.53729695  0.27282770  0.46776537  1
  Cu  Cu0  1  0.98482505  0.14838076  0.53792179  1
  Cu  Cu1  1  0.09346755  0.38639626  0.38058036  1
  H  H0  1  0.77977022  0.33521472  0.06733513  1
  H  H1  1  0.23864283  0.65364180  0.94669381  1
  H  H2  1  0.65530142  0.24118134  0.94279117  1
  H  H3  1  0.36249942  0.75267260  0.07008681  1
  H  H4  1  0.86836690  0.64537318  0.87551150  1
  H  H5  1  0.16564053  0.33816063  0.13016412  1
  H  H6  1  0.64767680  0.76996149  0.92065704  1
  H  H7  1  0.37967489  0.20840402  0.08103216  1
  H  H8  1  0.84720341  0.10169188  0.30991388  1
  H  H9  1  0.10449077  0.90516067  0.69321053  1
  H  H10  1  0.33873951  0.03781750  0.29824793  1
  H  H11  1  0.56121341  0.97138617  0.68344332  1
  H  H12  1  0.42348650  0.56855155  0.31463422  1
  H  H13  1  0.61620084  0.42359724  0.68519385  1
  S  S0  1  0.22562613  0.29534603  0.79907803  1
  S  S1  1  0.79761510  0.69960666  0.21965461  1
  O  O0  1  0.20149261  0.29818296  0.65974030  1
  O  O1  1  0.82501290  0.70789937  0.36004935  1
  O  O2  1  0.46509029  0.31810847  0.82956662  1
  O  O3  1  0.55838226  0.67126143  0.18964970  1
  O  O4  1  0.09684653  0.46505761  0.87054846  1
  O  O5  1  0.92777220  0.52715971  0.15342860  1
  O  O6  1  0.13762240  0.09133462  0.83439527  1
  O  O7  1  0.88191494  0.90036902  0.17983504  1
  O  O8  1  0.35688161  0.04930908  0.38969547  1
  O  O9  1  0.59322625  0.92728967  0.59461976  1
  O  O10  1  0.36079908  0.53784255  0.39829976  1
  O  O11  1  0.67772662  0.44888665  0.60194825  1
  O  O12  1  0.83812338  0.21678833  0.37809894  1
  O  O13  1  0.07389829  0.84820655  0.60549766  1
  O  O14  1  0.29649232  0.78687559  0.99029649  1
  O  O15  1  0.72291547  0.20410889  0.02211119  1
  O  O16  1  0.80052525  0.78408017  0.88930456  1
  O  O17  1  0.22850611  0.19804749  0.11638036  1
loop_
_geom_bond_atom_site_label_1
_geom_bond_atom_site_label_2
_geom_bond_distance
_geom_bond_site_symmetry_2
Mg0 O13 1.937512 1_655
Mg0 O11 1.947772 1_555
Mg0 O9 1.965356 1_555
Mg0 O1 2.034003 1_555
Cu0 O12 2.017997 1_555
Cu0 O0 2.031719 1_655
Cu0 O13 2.226347 1_645
Cu1 O10 1.891083 1_555
Cu1 O12 1.892912 1_455
H0 O15 0.999730 1_555
H1 O14 1.006426 1_555
H1 O4 1.646899 1_555
H2 O15 0.994227 1_556
H3 O14 0.988446 1_554
H4 O16 0.991619 1_555
H5 O17 0.987908 1_555
H6 O16 0.982275 1_555
H7 O17 0.984948 1_555
H8 O12 0.988836 1_555
H9 O13 0.986089 1_555
H10 O8 0.973234 1_555
H11 O9 0.972469 1_555
H12 O10 0.997112 1_555
H13 O11 0.980803 1_555
O0 S0 1.489655 1_555
O1 S1 1.496625 1_555
O2 S0 1.490809 1_555
O3 S1 1.491419 1_555
O4 S0 1.490101 1_555
O5 S1 1.484510 1_555
O6 S0 1.511688 1_555
O6 Zn0 2.101636 1_546
O7 S1 1.501652 1_555
O7 Zn0 2.149991 1_655
O8 Zn2 1.942082 1_555
O8 Zn1 1.975902 1_545
O9 Zn1 1.979791 1_555
O10 Zn1 2.004435 1_555
O10 Zn2 2.231752 1_555
O11 Zn2 1.940250 1_555
O12 Zn2 2.051328 1_555
O13 Zn1 1.952538 1_555
O14 Zn0 2.203096 1_556
O15 Zn0 2.200139 1_645
O16 Zn0 2.145402 1_656
O17 Zn0 2.169162 1_545
