# generated using pymatgen
data_PrN2Cl5
_symmetry_space_group_name_H-M   'P 1'
_cell_length_a   10.20342800
_cell_length_b   8.70598200
_cell_length_c   9.96253200
_cell_angle_alpha   90.00000000
_cell_angle_beta   90.00000000
_cell_angle_gamma   90.00000000
_symmetry_Int_Tables_number   1
_chemical_formula_structural   PrN2Cl5
_chemical_formula_sum   'Pr4 N8 Cl20'
_cell_volume   884.98029038
_cell_formula_units_Z   4
loop_
 _symmetry_equiv_pos_site_id
 _symmetry_equiv_pos_as_xyz
  1  'x, y, z'
loop_
 _atom_site_type_symbol
 _atom_site_label
 _atom_site_symmetry_multiplicity
 _atom_site_fract_x
 _atom_site_fract_y
 _atom_site_fract_z
 _atom_site_occupancy
  Pr  Pr0  1  0.55170500  0.75000000  0.95868900  1
  Pr  Pr1  1  0.44829500  0.25000000  0.04131200  1
  Pr  Pr2  1  0.05170500  0.25000000  0.54131100  1
  Pr  Pr3  1  0.94829500  0.75000000  0.45868800  1
  N  N0  1  0.43672700  0.40311300  0.59512100  1
  N  N1  1  0.56327300  0.59688700  0.40487900  1
  N  N2  1  0.93672700  0.59688700  0.90487900  1
  N  N3  1  0.56327300  0.90311300  0.40487900  1
  N  N4  1  0.06327300  0.40311300  0.09512100  1
  N  N5  1  0.43672700  0.09688700  0.59512100  1
  N  N6  1  0.06327300  0.09688700  0.09512100  1
  N  N7  1  0.93672700  0.90311300  0.90487900  1
  Cl  Cl0  1  0.41139500  0.75000000  0.73718600  1
  Cl  Cl1  1  0.58860500  0.25000000  0.26281400  1
  Cl  Cl2  1  0.91139500  0.25000000  0.76281400  1
  Cl  Cl3  1  0.08860500  0.75000000  0.23718600  1
  Cl  Cl4  1  0.64243500  0.44628700  0.92821000  1
  Cl  Cl5  1  0.35756500  0.55371300  0.07179000  1
  Cl  Cl6  1  0.14243500  0.55371300  0.57179000  1
  Cl  Cl7  1  0.35756500  0.94628700  0.07179000  1
  Cl  Cl8  1  0.85756500  0.44628700  0.42821000  1
  Cl  Cl9  1  0.64243500  0.05371300  0.92821000  1
  Cl  Cl10  1  0.85756500  0.05371300  0.42821000  1
  Cl  Cl11  1  0.14243500  0.94628700  0.57179000  1
  Cl  Cl12  1  0.00024700  0.75000000  0.94398900  1
  Cl  Cl13  1  0.99975300  0.25000000  0.05601100  1
  Cl  Cl14  1  0.50024700  0.25000000  0.55601100  1
  Cl  Cl15  1  0.49975300  0.75000000  0.44398900  1
  Cl  Cl16  1  0.77082100  0.75000000  0.73819800  1
  Cl  Cl17  1  0.22917900  0.25000000  0.26180200  1
  Cl  Cl18  1  0.27082100  0.25000000  0.76180200  1
  Cl  Cl19  1  0.72917900  0.75000000  0.23819800  1
loop_
_geom_bond_atom_site_label_1
_geom_bond_atom_site_label_2
_geom_bond_distance
_geom_bond_site_symmetry_2
Cl0 Pr0 2.630449 1_555
Cl1 Pr1 2.630441 1_555
Cl2 Pr2 2.630449 1_655
Cl3 Pr3 2.630441 1_455
Cl4 Pr0 2.817907 1_555
Cl4 Pr1 2.848476 1_556
Cl5 Pr1 2.817906 1_555
Cl5 Pr0 2.848472 1_554
Cl6 Pr2 2.817907 1_555
Cl6 Pr3 2.848476 1_455
Cl7 Pr1 2.817906 1_565
Cl7 Pr0 2.848472 1_554
Cl8 Pr3 2.817906 1_555
Cl8 Pr2 2.848472 1_655
Cl9 Pr0 2.817907 1_545
Cl9 Pr1 2.848476 1_556
Cl10 Pr3 2.817906 1_545
Cl10 Pr2 2.848472 1_655
Cl11 Pr2 2.817907 1_565
Cl11 Pr3 2.848476 1_455
Cl12 N7 1.532568 1_455
Cl12 N2 1.532568 1_455
Cl13 N4 1.532568 1_655
Cl13 N6 1.532568 1_655
Cl14 N0 1.532568 1_555
Cl14 N5 1.532568 1_555
Cl15 N3 1.532568 1_555
Cl15 N1 1.532568 1_555
Cl16 Pr0 3.134290 1_555
Cl16 Pr3 3.321642 1_555
Cl17 Pr1 3.134283 1_555
Cl17 Pr2 3.321633 1_555
Cl18 Pr2 3.134290 1_555
Cl18 Pr1 3.321642 1_556
Cl19 Pr3 3.134283 1_555
Cl19 Pr0 3.321633 1_554
