# generated using pymatgen
data_Mg6TiBi
_symmetry_space_group_name_H-M   'P 1'
_cell_length_a   5.33898900
_cell_length_b   6.11951500
_cell_length_c   11.17327600
_cell_angle_alpha   90.00000000
_cell_angle_beta   90.00000000
_cell_angle_gamma   90.00000000
_symmetry_Int_Tables_number   1
_chemical_formula_structural   Mg6TiBi
_chemical_formula_sum   'Mg12 Ti2 Bi2'
_cell_volume   365.05353348
_cell_formula_units_Z   2
loop_
 _symmetry_equiv_pos_site_id
 _symmetry_equiv_pos_as_xyz
  1  'x, y, z'
loop_
 _atom_site_type_symbol
 _atom_site_label
 _atom_site_symmetry_multiplicity
 _atom_site_fract_x
 _atom_site_fract_y
 _atom_site_fract_z
 _atom_site_occupancy
  Mg  Mg0  1  0.50000000  0.24829700  0.41673400  1
  Mg  Mg1  1  0.50000000  0.75170300  0.41673400  1
  Mg  Mg2  1  0.00000000  0.76027900  0.08235000  1
  Mg  Mg3  1  0.00000000  0.23972100  0.08235000  1
  Mg  Mg4  1  0.00000000  0.00000000  0.32954500  1
  Mg  Mg5  1  0.00000000  0.50000000  0.33763500  1
  Mg  Mg6  1  0.50000000  0.74829700  0.91673400  1
  Mg  Mg7  1  0.50000000  0.25170300  0.91673400  1
  Mg  Mg8  1  0.00000000  0.26027900  0.58235000  1
  Mg  Mg9  1  0.00000000  0.73972100  0.58235000  1
  Mg  Mg10  1  0.00000000  0.50000000  0.82954500  1
  Mg  Mg11  1  0.00000000  0.00000000  0.83763500  1
  Ti  Ti0  1  0.50000000  0.00000000  0.16711400  1
  Ti  Ti1  1  0.50000000  0.50000000  0.66711400  1
  Bi  Bi0  1  0.50000000  0.50000000  0.16753400  1
  Bi  Bi1  1  0.50000000  0.00000000  0.66753400  1
loop_
_geom_bond_atom_site_label_1
_geom_bond_atom_site_label_2
_geom_bond_distance
_geom_bond_site_symmetry_2
Mg0 Mg1 3.038914 1_545
Mg0 Mg1 3.080601 1_555
Mg0 Ti0 3.176111 1_555
Mg0 Ti1 3.193571 1_555
Mg0 Mg5 3.206216 1_655
Mg0 Mg5 3.206216 1_555
Mg0 Mg4 3.222420 1_555
Mg0 Mg4 3.222420 1_655
Mg0 Mg8 3.248973 1_655
Mg0 Mg8 3.248973 1_555
Mg1 Ti0 3.176111 1_565
Mg1 Ti1 3.193571 1_555
Mg1 Mg5 3.206216 1_655
Mg1 Mg5 3.206216 1_555
Mg1 Mg4 3.222420 1_565
Mg1 Mg4 3.222420 1_665
Mg1 Mg9 3.248973 1_655
Mg1 Mg9 3.248973 1_555
Mg2 Mg3 2.933953 1_565
Mg2 Mg4 3.127386 1_565
Mg2 Mg3 3.185562 1_555
Mg2 Ti0 3.189859 1_565
Mg2 Ti0 3.189859 1_465
Mg2 Mg6 3.248973 1_554
Mg2 Mg6 3.248973 1_454
Mg2 Mg5 3.266950 1_555
Mg3 Mg4 3.127386 1_555
Mg3 Ti0 3.189859 1_555
Mg3 Ti0 3.189859 1_455
Mg3 Mg7 3.248973 1_554
Mg3 Mg7 3.248973 1_454
Mg3 Mg5 3.266950 1_555
Mg4 Mg5 3.061092 1_545
Mg4 Mg5 3.061092 1_555
Mg4 Ti0 3.228005 1_555
Mg4 Ti0 3.228005 1_455
Mg4 Mg8 3.242785 1_555
Mg4 Mg9 3.242785 1_545
Mg5 Mg8 3.102941 1_555
Mg5 Mg9 3.102941 1_555
Mg6 Mg7 3.038914 1_555
Mg6 Mg7 3.080601 1_565
Mg6 Ti1 3.176111 1_555
Mg6 Ti0 3.193571 1_566
Mg7 Ti1 3.176111 1_555
Mg7 Ti0 3.193571 1_556
Mg8 Mg9 2.933953 1_555
Mg8 Mg9 3.185562 1_545
Mg8 Ti1 3.189859 1_455
Mg8 Ti1 3.189859 1_555
Mg9 Ti1 3.189859 1_455
Mg9 Ti1 3.189859 1_555
Mg10 Mg11 3.061092 1_565
Mg10 Mg11 3.061092 1_555
Mg10 Mg9 3.127386 1_555
Mg10 Mg8 3.127386 1_555
Mg10 Mg6 3.222420 1_555
Mg10 Mg7 3.222420 1_455
Mg10 Mg7 3.222420 1_555
Mg10 Mg6 3.222420 1_455
Mg10 Ti1 3.228005 1_455
Mg10 Ti1 3.228005 1_555
Mg10 Mg2 3.242785 1_556
Mg10 Mg3 3.242785 1_556
Mg11 Mg3 3.102941 1_556
Mg11 Mg2 3.102941 1_546
Mg11 Mg7 3.206216 1_555
Mg11 Mg6 3.206216 1_445
Mg11 Mg7 3.206216 1_455
Mg11 Mg6 3.206216 1_545
Mg11 Mg8 3.266950 1_555
Mg11 Mg9 3.266950 1_545
Bi0 Ti0 3.059761 1_565
Bi0 Ti0 3.059761 1_555
Bi0 Mg0 3.182028 1_555
Bi0 Mg1 3.182028 1_555
Bi0 Mg6 3.187695 1_554
Bi0 Mg7 3.187695 1_554
Bi0 Mg2 3.251007 1_655
Bi0 Mg2 3.251007 1_555
Bi0 Mg3 3.251007 1_555
Bi0 Mg3 3.251007 1_655
Bi0 Mg5 3.276954 1_555
Bi0 Mg5 3.276954 1_655
Bi1 Ti1 3.059761 1_545
Bi1 Ti1 3.059761 1_555
Bi1 Mg6 3.182028 1_545
Bi1 Mg7 3.182028 1_555
Bi1 Mg1 3.187695 1_545
Bi1 Mg0 3.187695 1_555
Bi1 Mg8 3.251007 1_655
Bi1 Mg8 3.251007 1_555
Bi1 Mg9 3.251007 1_645
Bi1 Mg9 3.251007 1_545
Bi1 Mg11 3.276954 1_555
Bi1 Mg11 3.276954 1_655
