# generated using pymatgen
data_Li9Mn2Co5O16
_symmetry_space_group_name_H-M   'P 1'
_cell_length_a   5.77532200
_cell_length_b   6.61323879
_cell_length_c   7.73642780
_cell_angle_alpha   89.46183196
_cell_angle_beta   101.26858988
_cell_angle_gamma   102.46655681
_symmetry_Int_Tables_number   1
_chemical_formula_structural   Li9Mn2Co5O16
_chemical_formula_sum   'Li9 Mn2 Co5 O16'
_cell_volume   282.78713450
_cell_formula_units_Z   1
loop_
 _symmetry_equiv_pos_site_id
 _symmetry_equiv_pos_as_xyz
  1  'x, y, z'
loop_
 _atom_site_type_symbol
 _atom_site_label
 _atom_site_symmetry_multiplicity
 _atom_site_fract_x
 _atom_site_fract_y
 _atom_site_fract_z
 _atom_site_occupancy
  Li  Li0  1  0.37608800  0.38086000  0.13230900  1
  Li  Li1  1  0.62520300  0.12672700  0.38493400  1
  Li  Li2  1  0.61833900  0.61574400  0.85868200  1
  Li  Li3  1  0.87578100  0.38100400  0.12658800  1
  Li  Li4  1  0.87030300  0.86822900  0.62310500  1
  Li  Li5  1  0.12648600  0.62396000  0.86883200  1
  Li  Li6  1  0.13519000  0.13388300  0.38477700  1
  Li  Li7  1  0.37437200  0.86653600  0.61897300  1
  Li  Li8  1  0.49922800  0.50207200  0.49947700  1
  Mn  Mn0  1  0.99950400  0.99746500  0.00134200  1
  Mn  Mn1  1  0.74896700  0.74763500  0.25680100  1
  Co  Co0  1  0.25081000  0.75147700  0.25302800  1
  Co  Co1  1  0.74121500  0.25532900  0.73886100  1
  Co  Co2  1  0.49775000  0.00297100  0.99553700  1
  Co  Co3  1  0.00637300  0.50157900  0.50167300  1
  Co  Co4  1  0.24460500  0.25972700  0.73945500  1
  O  O0  1  0.30178800  0.04511000  0.17519500  1
  O  O1  1  0.56092900  0.81092200  0.41530100  1
  O  O2  1  0.55196600  0.30353500  0.92958800  1
  O  O3  1  0.81237900  0.04350700  0.17487900  1
  O  O4  1  0.82937500  0.54805700  0.67766600  1
  O  O5  1  0.04427400  0.28392100  0.93478000  1
  O  O6  1  0.05772900  0.81608300  0.41610100  1
  O  O7  1  0.30035300  0.55170400  0.68406000  1
  O  O8  1  0.44318500  0.69614600  0.08427600  1
  O  O9  1  0.70940900  0.46560100  0.31690400  1
  O  O10  1  0.69758300  0.93651100  0.83218200  1
  O  O11  1  0.94636700  0.70933100  0.07712200  1
  O  O12  1  0.94292600  0.18138600  0.56931200  1
  O  O13  1  0.18317800  0.94404800  0.83118700  1
  O  O14  1  0.18180900  0.46834000  0.32253900  1
  O  O15  1  0.44653700  0.18059900  0.57453400  1
loop_
_geom_bond_atom_site_label_1
_geom_bond_atom_site_label_2
_geom_bond_distance
_geom_bond_site_symmetry_2
Li0 O8 2.080534 1_555
Li0 O9 2.129358 1_555
Li0 O2 2.148217 1_554
Li0 O14 2.168208 1_555
Li0 O5 2.182228 1_554
Li0 O0 2.203364 1_555
Li1 O15 2.025656 1_555
Li1 O12 2.057375 1_555
Li1 O1 2.060327 1_545
Li1 O0 2.193112 1_555
Li1 O3 2.252228 1_555
Li1 O9 2.267855 1_555
Li2 O7 2.020496 1_555
Li2 O10 2.088249 1_555
Li2 O2 2.104779 1_555
Li2 O4 2.135742 1_555
Li2 O11 2.256144 1_556
Li2 O8 2.300364 1_556
Li3 O9 2.050500 1_555
Li3 O14 2.069799 1_655
Li3 O5 2.100735 1_654
Li3 O2 2.137706 1_554
Li3 O11 2.165735 1_555
Li3 O3 2.222656 1_555
Li4 O12 2.077278 1_565
Li4 O1 2.125349 1_555
Li4 O4 2.126838 1_555
Li4 O13 2.143631 1_655
Li4 O10 2.157326 1_555
Li4 O6 2.168950 1_655
Li5 O4 2.008452 1_455
Li5 O7 2.015191 1_555
Li5 O13 2.097474 1_555
Li5 O8 2.190417 1_556
Li5 O11 2.218852 1_456
Li5 O5 2.270420 1_555
Li6 O12 2.036755 1_455
Li6 O15 2.054480 1_555
Li6 O6 2.074325 1_545
Li6 O0 2.184227 1_555
Li6 O3 2.196334 1_455
Li6 O14 2.229380 1_555
Li7 O15 2.067505 1_565
Li7 O7 2.109841 1_555
Li7 O6 2.131563 1_555
Li7 O1 2.150438 1_555
Li7 O10 2.203944 1_555
Li7 O13 2.268514 1_555
Li8 O14 2.032888 1_555
Li8 O7 2.068510 1_555
Li8 O9 2.080759 1_555
Li8 O4 2.087744 1_555
Li8 O1 2.115264 1_555
Li8 O15 2.171663 1_555
Mn0 O13 1.923326 1_654
Mn0 O10 1.931385 1_554
Mn0 O5 1.934690 1_664
Mn0 O3 1.944193 1_565
Mn0 O0 1.951636 1_665
Mn0 O11 1.966132 1_555
Mn1 O1 1.893265 1_555
Mn1 O9 1.894326 1_555
Mn1 O6 1.925268 1_655
Mn1 O8 1.960581 1_555
Mn1 O11 2.011673 1_555
Mn1 O3 2.030371 1_565
Co0 O14 1.922696 1_555
Co0 O1 1.940350 1_555
Co0 O6 1.945065 1_555
Co0 O8 1.955525 1_555
Co0 O11 1.970168 1_455
Co0 O0 2.005141 1_565
Co1 O15 1.886769 1_555
Co1 O4 1.970392 1_555
Co1 O12 2.042542 1_555
Co1 O5 2.054815 1_655
Co1 O2 2.064707 1_555
Co1 O10 2.200749 1_545
Co2 O13 1.967230 1_545
Co2 O10 1.980334 1_545
Co2 O0 2.012104 1_556
Co2 O2 2.020888 1_555
Co2 O3 2.027337 1_556
Co2 O8 2.114287 1_546
Co3 O14 1.909486 1_555
Co3 O4 1.918517 1_455
Co3 O7 1.952697 1_555
Co3 O9 1.978249 1_455
Co3 O12 2.147344 1_455
Co3 O6 2.153305 1_555
Co4 O12 1.939961 1_455
Co4 O7 1.945694 1_555
Co4 O15 2.029626 1_555
Co4 O2 2.040625 1_555
Co4 O5 2.101288 1_555
Co4 O13 2.176840 1_545
