# generated using pymatgen
data_Ce4Zn3Sb8
_symmetry_space_group_name_H-M   'P 1'
_cell_length_a   4.46205100
_cell_length_b   4.46205100
_cell_length_c   19.96459300
_cell_angle_alpha   90.00000000
_cell_angle_beta   90.00000000
_cell_angle_gamma   90.00000000
_symmetry_Int_Tables_number   1
_chemical_formula_structural   Ce4Zn3Sb8
_chemical_formula_sum   'Ce4 Zn3 Sb8'
_cell_volume   397.49303273
_cell_formula_units_Z   1
loop_
 _symmetry_equiv_pos_site_id
 _symmetry_equiv_pos_as_xyz
  1  'x, y, z'
loop_
 _atom_site_type_symbol
 _atom_site_label
 _atom_site_symmetry_multiplicity
 _atom_site_fract_x
 _atom_site_fract_y
 _atom_site_fract_z
 _atom_site_occupancy
  Ce  Ce0  1  0.50000000  0.00000000  0.12477400  1
  Ce  Ce1  1  0.50000000  0.00000000  0.62941900  1
  Ce  Ce2  1  0.00000000  0.50000000  0.37058100  1
  Ce  Ce3  1  0.00000000  0.50000000  0.87522600  1
  Zn  Zn0  1  0.00000000  0.00000000  0.50000000  1
  Zn  Zn1  1  0.50000000  0.50000000  0.00000000  1
  Zn  Zn2  1  0.50000000  0.50000000  0.50000000  1
  Sb  Sb0  1  0.50000000  0.00000000  0.41147600  1
  Sb  Sb1  1  0.50000000  0.00000000  0.92019800  1
  Sb  Sb2  1  0.00000000  0.50000000  0.07980200  1
  Sb  Sb3  1  0.00000000  0.50000000  0.58852400  1
  Sb  Sb4  1  0.00000000  0.00000000  0.24869700  1
  Sb  Sb5  1  0.00000000  0.00000000  0.75130300  1
  Sb  Sb6  1  0.50000000  0.50000000  0.24836600  1
  Sb  Sb7  1  0.50000000  0.50000000  0.75163400  1
loop_
_geom_bond_atom_site_label_1
_geom_bond_atom_site_label_2
_geom_bond_distance
_geom_bond_site_symmetry_2
Ce0 Sb2 3.280409 1_655
Ce0 Sb2 3.280409 1_545
Ce0 Sb2 3.280409 1_645
Ce0 Sb2 3.280409 1_555
Ce0 Sb6 3.326538 1_545
Ce0 Sb6 3.326538 1_555
Ce0 Sb4 3.331442 1_655
Ce0 Sb4 3.331442 1_555
Ce0 Zn1 3.344079 1_545
Ce0 Zn1 3.344079 1_555
Ce1 Sb3 3.259071 1_645
Ce1 Sb3 3.259071 1_555
Ce1 Sb3 3.259071 1_655
Ce1 Sb3 3.259071 1_545
Ce1 Sb5 3.301324 1_555
Ce1 Sb5 3.301324 1_655
Ce1 Sb7 3.306197 1_545
Ce1 Sb7 3.306197 1_555
Ce1 Zn2 3.413720 1_545
Ce1 Zn0 3.413720 1_655
Ce1 Zn2 3.413720 1_555
Ce1 Zn0 3.413720 1_555
Ce2 Sb0 3.259071 1_465
Ce2 Sb0 3.259071 1_555
Ce2 Sb0 3.259071 1_455
Ce2 Sb0 3.259071 1_565
Ce2 Sb4 3.301324 1_555
Ce2 Sb4 3.301324 1_565
Ce2 Sb6 3.306197 1_455
Ce2 Sb6 3.306197 1_555
Ce2 Zn0 3.413720 1_565
Ce2 Zn2 3.413720 1_455
Ce2 Zn2 3.413720 1_555
Ce2 Zn0 3.413720 1_555
Ce3 Sb1 3.280409 1_565
Ce3 Sb1 3.280409 1_465
Ce3 Sb1 3.280409 1_455
Ce3 Sb1 3.280409 1_555
Ce3 Sb7 3.326538 1_455
Ce3 Sb7 3.326538 1_555
Ce3 Sb5 3.331442 1_555
Ce3 Sb5 3.331442 1_565
Ce3 Zn1 3.344079 1_456
Ce3 Zn1 3.344079 1_556
Sb0 Zn2 2.846223 1_555
Sb0 Zn0 2.846223 1_555
Sb0 Zn2 2.846223 1_545
Sb0 Zn0 2.846223 1_655
Sb1 Zn1 2.741497 1_556
Sb1 Zn1 2.741497 1_546
Sb2 Zn1 2.741497 1_555
Sb2 Zn1 2.741497 1_455
Sb3 Zn2 2.846223 1_555
Sb3 Zn2 2.846223 1_455
Sb3 Zn0 2.846223 1_555
Sb3 Zn0 2.846223 1_565
Sb4 Sb6 3.155153 1_555
Sb4 Sb6 3.155153 1_445
Sb4 Sb6 3.155153 1_545
Sb4 Sb6 3.155153 1_455
Sb5 Sb7 3.155153 1_455
Sb5 Sb7 3.155153 1_545
Sb5 Sb7 3.155153 1_555
Sb5 Sb7 3.155153 1_445
