# generated using pymatgen
data_Ba2MoO3F4
_symmetry_space_group_name_H-M   'P 1'
_cell_length_a   7.53776252
_cell_length_b   7.53776252
_cell_length_c   7.30957985
_cell_angle_alpha   63.06860831
_cell_angle_beta   63.06860831
_cell_angle_gamma   78.88613976
_symmetry_Int_Tables_number   1
_chemical_formula_structural   Ba2MoO3F4
_chemical_formula_sum   'Ba4 Mo2 O6 F8'
_cell_volume   330.07722985
_cell_formula_units_Z   2
loop_
 _symmetry_equiv_pos_site_id
 _symmetry_equiv_pos_as_xyz
  1  'x, y, z'
loop_
 _atom_site_type_symbol
 _atom_site_label
 _atom_site_symmetry_multiplicity
 _atom_site_fract_x
 _atom_site_fract_y
 _atom_site_fract_z
 _atom_site_occupancy
  Ba  Ba0  1  0.55873800  0.32335600  0.17888200  1
  Ba  Ba1  1  0.32335600  0.55873800  0.67888200  1
  Ba  Ba2  1  0.32317200  0.97190800  0.00642200  1
  Ba  Ba3  1  0.97190800  0.32317200  0.50642200  1
  Mo  Mo0  1  0.79447800  0.85432600  0.12180200  1
  Mo  Mo1  1  0.85432600  0.79447800  0.62180200  1
  O  O0  1  0.90836600  0.08914100  0.99965700  1
  O  O1  1  0.08914100  0.90836600  0.49965700  1
  O  O2  1  0.54437300  0.90360200  0.28178600  1
  O  O3  1  0.90360200  0.54437300  0.78178600  1
  O  O4  1  0.87327200  0.74834900  0.38104200  1
  O  O5  1  0.74834900  0.87327200  0.88104200  1
  F  F0  1  0.29434100  0.59259600  0.30096500  1
  F  F1  1  0.59259600  0.29434100  0.80096500  1
  F  F2  1  0.54236600  0.72003500  0.78155700  1
  F  F3  1  0.72003500  0.54236600  0.28155700  1
  F  F4  1  0.74098400  0.07578300  0.47817200  1
  F  F5  1  0.07578300  0.74098400  0.97817200  1
  F  F6  1  0.22161900  0.29779500  0.12321500  1
  F  F7  1  0.29779500  0.22161900  0.62321500  1
loop_
_geom_bond_atom_site_label_1
_geom_bond_atom_site_label_2
_geom_bond_distance
_geom_bond_site_symmetry_2
Ba0 F0 2.712414 1_555
Ba0 F3 2.736686 1_555
Ba0 F7 2.746653 1_555
Ba0 F1 2.762433 1_554
Ba0 F6 2.802928 1_555
Ba0 F4 2.862072 1_555
Ba0 O3 2.900394 1_554
Ba0 O2 2.913915 1_545
Ba0 O0 2.992056 1_554
Ba0 F2 3.115547 1_554
Ba1 F1 2.712414 1_555
Ba1 F2 2.736686 1_555
Ba1 F6 2.746653 1_556
Ba1 F0 2.762433 1_555
Ba1 F7 2.802928 1_555
Ba1 F5 2.862072 1_555
Ba1 O2 2.900394 1_555
Ba1 O3 2.913915 1_455
Ba1 O1 2.992056 1_555
Ba1 F3 3.115547 1_555
Ba2 F7 2.645025 1_564
Ba2 F0 2.664010 1_555
Ba2 F6 2.816333 1_565
Ba2 F1 2.849642 1_564
Ba2 F2 2.862426 1_554
Ba2 F5 2.911286 1_554
Ba2 O5 2.949908 1_554
Ba2 O2 2.977731 1_555
Ba2 O1 3.056153 1_555
Ba2 O0 3.097567 1_464
Ba3 F6 2.645025 1_655
Ba3 F1 2.664010 1_555
Ba3 F7 2.816333 1_655
Ba3 F0 2.849642 1_655
Ba3 F3 2.862426 1_555
Ba3 F4 2.911286 1_555
Ba3 O4 2.949908 1_555
Ba3 O3 2.977731 1_555
Ba3 O0 3.056153 1_555
Ba3 O1 3.097567 1_645
Mo0 O0 1.768308 1_564
Mo0 O2 1.784952 1_555
Mo0 O5 1.883051 1_554
Mo0 O4 2.011726 1_555
Mo1 O1 1.768308 1_655
Mo1 O3 1.784952 1_555
Mo1 O4 1.883051 1_555
Mo1 O5 2.011726 1_555
F2 Mo1 2.153066 1_555
F3 Mo0 2.153066 1_555
F4 Mo1 2.103766 1_545
F5 Mo0 2.103766 1_456
