# generated using pymatgen
data_MgCu(PO3)4
_symmetry_space_group_name_H-M   'P 1'
_cell_length_a   7.28866474
_cell_length_b   7.28866474
_cell_length_c   10.04927529
_cell_angle_alpha   66.87622359
_cell_angle_beta   66.87622359
_cell_angle_gamma   70.16056297
_symmetry_Int_Tables_number   1
_chemical_formula_structural   MgCu(PO3)4
_chemical_formula_sum   'Mg2 Cu2 P8 O24'
_cell_volume   440.57435388
_cell_formula_units_Z   2
loop_
 _symmetry_equiv_pos_site_id
 _symmetry_equiv_pos_as_xyz
  1  'x, y, z'
loop_
 _atom_site_type_symbol
 _atom_site_label
 _atom_site_symmetry_multiplicity
 _atom_site_fract_x
 _atom_site_fract_y
 _atom_site_fract_z
 _atom_site_occupancy
  Mg  Mg0  1  0.95145400  0.04854600  0.25000000  1
  Mg  Mg1  1  0.04854600  0.95145400  0.75000000  1
  Cu  Cu0  1  0.50000000  0.00000000  0.50000000  1
  Cu  Cu1  1  0.00000000  0.50000000  0.00000000  1
  P  P0  1  0.31660500  0.29341700  0.19604500  1
  P  P1  1  0.70658300  0.68339500  0.30395500  1
  P  P2  1  0.68339500  0.70658300  0.80395500  1
  P  P3  1  0.29341700  0.31660500  0.69604500  1
  P  P4  1  0.73237500  0.25303600  0.97675800  1
  P  P5  1  0.74696400  0.26762500  0.52324200  1
  P  P6  1  0.26762500  0.74696400  0.02324200  1
  P  P7  1  0.25303600  0.73237500  0.47675800  1
  O  O0  1  0.31652200  0.53080200  0.14993500  1
  O  O1  1  0.46919800  0.68347800  0.35006500  1
  O  O2  1  0.68347800  0.46919800  0.85006500  1
  O  O3  1  0.53080200  0.31652200  0.64993500  1
  O  O4  1  0.50604200  0.21138100  0.06662700  1
  O  O5  1  0.78861900  0.49395800  0.43337300  1
  O  O6  1  0.49395800  0.78861900  0.93337300  1
  O  O7  1  0.21138100  0.50604200  0.56662700  1
  O  O8  1  0.34637500  0.19041000  0.34859100  1
  O  O9  1  0.80959000  0.65362500  0.15140900  1
  O  O10  1  0.65362500  0.80959000  0.65140900  1
  O  O11  1  0.19041000  0.34637500  0.84859100  1
  O  O12  1  0.12582200  0.27740200  0.17729500  1
  O  O13  1  0.72259800  0.87417800  0.32270500  1
  O  O14  1  0.87417800  0.72259800  0.82270500  1
  O  O15  1  0.27740200  0.12582200  0.67729500  1
  O  O16  1  0.81376500  0.28435900  0.08312400  1
  O  O17  1  0.71564100  0.18623500  0.41687600  1
  O  O18  1  0.18623500  0.71564100  0.91687600  1
  O  O19  1  0.28435900  0.81376500  0.58312400  1
  O  O20  1  0.84981500  0.09233400  0.90227800  1
  O  O21  1  0.90766600  0.15018500  0.59772200  1
  O  O22  1  0.15018500  0.90766600  0.09772200  1
  O  O23  1  0.09233400  0.84981500  0.40227800  1
loop_
_geom_bond_atom_site_label_1
_geom_bond_atom_site_label_2
_geom_bond_distance
_geom_bond_site_symmetry_2
Mg0 O23 1.994461 1_645
Mg0 O22 1.994461 1_645
Mg0 O17 2.158872 1_555
Mg0 O16 2.158872 1_555
Mg0 O13 2.164215 1_545
Mg0 O12 2.164215 1_655
Mg1 O20 1.994461 1_465
Mg1 O21 1.994461 1_465
Mg1 O18 2.158872 1_555
Mg1 O19 2.158872 1_555
Mg1 O14 2.164215 1_455
Mg1 O15 2.164215 1_565
Cu0 O10 2.029719 1_545
Cu0 O8 2.029719 1_555
Cu0 O17 2.130025 1_555
Cu0 O19 2.130025 1_545
Cu0 O15 2.156551 1_555
Cu0 O13 2.156551 1_545
Cu1 O9 2.029719 1_455
Cu1 O11 2.029719 1_554
Cu1 O18 2.130025 1_554
Cu1 O16 2.130025 1_455
Cu1 O12 2.156551 1_555
Cu1 O14 2.156551 1_454
O0 P0 1.605668 1_555
O0 P6 1.621732 1_555
O1 P1 1.605668 1_555
O1 P7 1.621732 1_555
O2 P2 1.605668 1_555
O2 P4 1.621732 1_555
O3 P3 1.605668 1_555
O3 P5 1.621732 1_555
O4 P4 1.607364 1_554
O4 P0 1.611022 1_555
O5 P5 1.607364 1_555
O5 P1 1.611022 1_555
O6 P6 1.607364 1_556
O6 P2 1.611022 1_555
O7 P7 1.607364 1_555
O7 P3 1.611022 1_555
O8 P0 1.485757 1_555
O9 P1 1.485757 1_555
O10 P2 1.485757 1_555
O11 P3 1.485757 1_555
O12 P0 1.521845 1_555
O13 P1 1.521845 1_555
O14 P2 1.521845 1_555
O15 P3 1.521845 1_555
O16 P4 1.525855 1_554
O17 P5 1.525855 1_555
O18 P6 1.525855 1_556
O19 P7 1.525855 1_555
O20 P4 1.472986 1_555
O21 P5 1.472986 1_555
O22 P6 1.472986 1_555
O23 P7 1.472986 1_555
