# generated using pymatgen
data_U3Ag2(GeO8)2
_symmetry_space_group_name_H-M   'P 1'
_cell_length_a   7.46280842
_cell_length_b   9.99794940
_cell_length_c   18.35943630
_cell_angle_alpha   90.00000000
_cell_angle_beta   90.00000000
_cell_angle_gamma   90.00000000
_symmetry_Int_Tables_number   1
_chemical_formula_structural   U3Ag2(GeO8)2
_chemical_formula_sum   'U12 Ag8 Ge8 O64'
_cell_volume   1369.84859929
_cell_formula_units_Z   4
loop_
 _symmetry_equiv_pos_site_id
 _symmetry_equiv_pos_as_xyz
  1  'x, y, z'
loop_
 _atom_site_type_symbol
 _atom_site_label
 _atom_site_symmetry_multiplicity
 _atom_site_fract_x
 _atom_site_fract_y
 _atom_site_fract_z
 _atom_site_occupancy
  U  U0  1  0.25000000  0.02006037  0.51332561  1
  U  U1  1  0.25000000  0.52006037  0.98667439  1
  U  U2  1  0.75000000  0.97993963  0.48667439  1
  U  U3  1  0.75000000  0.47993963  0.01332561  1
  U  U4  1  0.75000000  0.90910562  0.77089349  1
  U  U5  1  0.75000000  0.40910562  0.72910651  1
  U  U6  1  0.25000000  0.09089438  0.22910651  1
  U  U7  1  0.25000000  0.59089438  0.27089349  1
  U  U8  1  0.25000000  0.87635393  0.78979306  1
  U  U9  1  0.25000000  0.37635393  0.71020694  1
  U  U10  1  0.75000000  0.12364607  0.21020694  1
  U  U11  1  0.75000000  0.62364607  0.28979306  1
  Ag  Ag0  1  0.99843712  0.69597565  0.61457052  1
  Ag  Ag1  1  0.50156288  0.19597565  0.88542948  1
  Ag  Ag2  1  0.49843712  0.30402435  0.38542948  1
  Ag  Ag3  1  0.00156288  0.80402435  0.11457052  1
  Ag  Ag4  1  0.00156288  0.30402435  0.38542948  1
  Ag  Ag5  1  0.49843712  0.80402435  0.11457052  1
  Ag  Ag6  1  0.50156288  0.69597565  0.61457052  1
  Ag  Ag7  1  0.99843712  0.19597565  0.88542948  1
  Ge  Ge0  1  0.99429585  0.11113251  0.65791621  1
  Ge  Ge1  1  0.50570415  0.61113251  0.84208379  1
  Ge  Ge2  1  0.49429585  0.88886749  0.34208379  1
  Ge  Ge3  1  0.00570415  0.38886749  0.15791621  1
  Ge  Ge4  1  0.00570415  0.88886749  0.34208379  1
  Ge  Ge5  1  0.49429585  0.38886749  0.15791621  1
  Ge  Ge6  1  0.50570415  0.11113251  0.65791621  1
  Ge  Ge7  1  0.99429585  0.61113251  0.84208379  1
  O  O0  1  0.25000000  0.85315282  0.55880152  1
  O  O1  1  0.25000000  0.35315282  0.94119848  1
  O  O2  1  0.75000000  0.14684718  0.44119848  1
  O  O3  1  0.75000000  0.64684718  0.05880152  1
  O  O4  1  0.25000000  0.18557756  0.46736239  1
  O  O5  1  0.25000000  0.68557756  0.03263761  1
  O  O6  1  0.75000000  0.81442244  0.53263761  1
  O  O7  1  0.75000000  0.31442244  0.96736239  1
  O  O8  1  0.96818504  0.05855312  0.56451495  1
  O  O9  1  0.53181496  0.55855312  0.93548505  1
  O  O10  1  0.46818504  0.94144688  0.43548505  1
  O  O11  1  0.03181496  0.44144688  0.06451495  1
  O  O12  1  0.03181496  0.94144688  0.43548505  1
  O  O13  1  0.46818504  0.44144688  0.06451495  1
  O  O14  1  0.53181496  0.05855312  0.56451495  1
  O  O15  1  0.96818504  0.55855312  0.93548505  1
  O  O16  1  0.25000000  0.13676002  0.63474145  1
  O  O17  1  0.25000000  0.63676002  0.86525855  1
  O  O18  1  0.75000000  0.86323998  0.36525855  1
  O  O19  1  0.75000000  0.36323998  0.13474145  1
  O  O20  1  0.75000000  0.02407461  0.85047998  1
  O  O21  1  0.75000000  0.52407461  0.64952002  1
  O  O22  1  0.25000000  0.97592539  0.14952002  1
  O  O23  1  0.25000000  0.47592539  0.35047998  1
  O  O24  1  0.75000000  0.79187215  0.69235908  1
  O  O25  1  0.75000000  0.29187215  0.80764092  1
  O  O26  1  0.25000000  0.20812785  0.30764092  1
  O  O27  1  0.25000000  0.70812785  0.19235908  1
  O  O28  1  0.97807737  0.28921042  0.67407952  1
  O  O29  1  0.52192263  0.78921042  0.82592048  1
  O  O30  1  0.47807737  0.71078958  0.32592048  1
  O  O31  1  0.02192263  0.21078958  0.17407952  1
  O  O32  1  0.02192263  0.71078958  0.32592048  1
  O  O33  1  0.47807737  0.21078958  0.17407952  1
  O  O34  1  0.52192263  0.28921042  0.67407952  1
  O  O35  1  0.97807737  0.78921042  0.82592048  1
  O  O36  1  0.03408078  0.99290843  0.73086149  1
  O  O37  1  0.46591922  0.49290843  0.76913851  1
  O  O38  1  0.53408078  0.00709157  0.26913851  1
  O  O39  1  0.96591922  0.50709157  0.23086149  1
  O  O40  1  0.96591922  0.00709157  0.26913851  1
  O  O41  1  0.53408078  0.50709157  0.23086149  1
  O  O42  1  0.46591922  0.99290843  0.73086149  1
  O  O43  1  0.03408078  0.49290843  0.76913851  1
  O  O44  1  0.75000000  0.08284258  0.68316071  1
  O  O45  1  0.75000000  0.58284258  0.81683929  1
  O  O46  1  0.25000000  0.91715742  0.31683929  1
  O  O47  1  0.25000000  0.41715742  0.18316071  1
  O  O48  1  0.25000000  0.99835588  0.86563849  1
  O  O49  1  0.25000000  0.49835588  0.63436151  1
  O  O50  1  0.75000000  0.00164412  0.13436151  1
  O  O51  1  0.75000000  0.50164412  0.36563849  1
  O  O52  1  0.25000000  0.75586091  0.71257545  1
  O  O53  1  0.25000000  0.25586091  0.78742455  1
  O  O54  1  0.75000000  0.24413909  0.28742455  1
  O  O55  1  0.75000000  0.74413909  0.21257545  1
  O  O56  1  0.04406228  0.55225277  0.50323124  1
  O  O57  1  0.45593772  0.05225277  0.99676876  1
  O  O58  1  0.54406228  0.44774723  0.49676876  1
  O  O59  1  0.95593772  0.94774723  0.00323124  1
  O  O60  1  0.95593772  0.44774723  0.49676876  1
  O  O61  1  0.54406228  0.94774723  0.00323124  1
  O  O62  1  0.45593772  0.55225277  0.50323124  1
  O  O63  1  0.04406228  0.05225277  0.99676876  1
loop_
_geom_bond_atom_site_label_1
_geom_bond_atom_site_label_2
_geom_bond_distance
_geom_bond_site_symmetry_2
Ag0 O56 2.521739 1_655
Ag0 O24 2.529095 1_555
Ag0 O21 2.608249 1_555
Ag0 O0 2.653733 1_655
Ag0 O6 2.665069 1_555
Ag0 O52 2.668429 1_655
Ag0 O49 2.749597 1_655
Ag1 O57 2.521739 1_555
Ag1 O25 2.529095 1_555
Ag1 O20 2.608249 1_555
Ag1 O1 2.653733 1_555
Ag1 O7 2.665069 1_555
Ag1 O53 2.668429 1_555
Ag1 O48 2.749597 1_545
Ag2 O58 2.521739 1_555
Ag2 O26 2.529095 1_555
Ag2 O23 2.608249 1_555
Ag2 O2 2.653733 1_555
Ag2 O4 2.665069 1_555
Ag2 O54 2.668429 1_555
Ag2 O51 2.749597 1_555
Ag3 O59 2.521739 1_455
Ag3 O27 2.529095 1_555
Ag3 O22 2.608249 1_555
Ag3 O3 2.653733 1_455
Ag3 O5 2.665069 1_555
Ag3 O55 2.668429 1_455
Ag3 O50 2.749597 1_465
Ag4 O60 2.521739 1_455
Ag4 O26 2.529095 1_555
Ag4 O23 2.608249 1_555
Ag4 O2 2.653733 1_455
Ag4 O4 2.665069 1_555
Ag4 O54 2.668429 1_455
Ag4 O51 2.749597 1_455
Ag5 O61 2.521739 1_555
Ag5 O27 2.529095 1_555
Ag5 O22 2.608249 1_555
Ag5 O3 2.653733 1_555
Ag5 O5 2.665069 1_555
Ag5 O55 2.668429 1_555
Ag5 O50 2.749597 1_565
Ag6 O62 2.521739 1_555
Ag6 O24 2.529095 1_555
Ag6 O21 2.608249 1_555
Ag6 O0 2.653733 1_555
Ag6 O6 2.665069 1_555
Ag6 O52 2.668429 1_555
Ag6 O49 2.749597 1_555
Ag7 O63 2.521739 1_655
Ag7 O25 2.529095 1_555
Ag7 O20 2.608249 1_555
Ag7 O1 2.653733 1_655
Ag7 O7 2.665069 1_555
Ag7 O53 2.668429 1_655
Ag7 O48 2.749597 1_645
Ge0 O8 1.804117 1_555
Ge0 O28 1.809028 1_555
Ge0 O36 1.810752 1_645
Ge0 O44 1.902268 1_555
Ge0 O16 1.971846 1_655
Ge1 O9 1.804117 1_555
Ge1 O29 1.809028 1_555
Ge1 O37 1.810752 1_555
Ge1 O45 1.902268 1_555
Ge1 O17 1.971846 1_555
Ge2 O10 1.804117 1_555
Ge2 O30 1.809028 1_555
Ge2 O38 1.810752 1_565
Ge2 O46 1.902268 1_555
Ge2 O18 1.971846 1_555
Ge3 O11 1.804117 1_555
Ge3 O31 1.809028 1_555
Ge3 O39 1.810752 1_455
Ge3 O47 1.902268 1_555
Ge3 O19 1.971846 1_455
Ge4 O12 1.804117 1_555
Ge4 O32 1.809028 1_555
Ge4 O40 1.810752 1_465
Ge4 O46 1.902268 1_555
Ge4 O18 1.971846 1_455
Ge5 O13 1.804117 1_555
Ge5 O33 1.809028 1_555
Ge5 O41 1.810752 1_555
Ge5 O47 1.902268 1_555
Ge5 O19 1.971846 1_555
Ge6 O14 1.804117 1_555
Ge6 O34 1.809028 1_555
Ge6 O42 1.810752 1_545
Ge6 O44 1.902268 1_555
Ge6 O16 1.971846 1_555
Ge7 O15 1.804117 1_555
Ge7 O35 1.809028 1_555
Ge7 O43 1.810752 1_655
Ge7 O45 1.902268 1_555
Ge7 O17 1.971846 1_655
O0 U0 1.865944 1_565
O1 U1 1.865944 1_555
O2 U2 1.865944 1_545
O3 U3 1.865944 1_555
O4 U0 1.857571 1_555
O5 U1 1.857571 1_554
O6 U2 1.857571 1_555
O7 U3 1.857571 1_556
O8 U2 2.304643 1_545
O8 U0 2.335489 1_655
O9 U3 2.304643 1_556
O9 U1 2.335489 1_555
O10 U0 2.304643 1_565
O10 U2 2.335489 1_555
O11 U1 2.304643 1_554
O11 U3 2.335489 1_455
O12 U0 2.304643 1_565
O12 U2 2.335489 1_455
O13 U1 2.304643 1_554
O13 U3 2.335489 1_555
O14 U2 2.304643 1_545
O14 U0 2.335489 1_555
O15 U3 2.304643 1_556
O15 U1 2.335489 1_655
O16 U0 2.516014 1_555
O16 U9 2.767271 1_555
O17 U1 2.516014 1_555
O17 U8 2.767271 1_555
O18 U2 2.516014 1_555
O18 U11 2.767271 1_555
O19 U3 2.516014 1_555
O19 U10 2.767271 1_555
O20 U4 1.859097 1_545
O21 U5 1.859097 1_555
O22 U6 1.859097 1_565
O23 U7 1.859097 1_555
O24 U4 1.858152 1_555
O25 U5 1.858152 1_555
O26 U6 1.858152 1_555
O27 U7 1.858152 1_555
O28 U9 2.305886 1_655
O28 U5 2.314015 1_555
O29 U8 2.305886 1_555
O29 U4 2.314015 1_555
O30 U11 2.305886 1_555
O30 U7 2.314015 1_555
O31 U10 2.305886 1_455
O31 U6 2.314015 1_555
O32 U11 2.305886 1_455
O32 U7 2.314015 1_555
O33 U10 2.305886 1_555
O33 U6 2.314015 1_555
O34 U9 2.305886 1_555
O34 U5 2.314015 1_555
O35 U8 2.305886 1_655
O35 U4 2.314015 1_555
O36 U8 2.263857 1_555
O36 U4 2.395151 1_455
O37 U9 2.263857 1_555
O37 U5 2.395151 1_555
O38 U10 2.263857 1_555
O38 U6 2.395151 1_555
O39 U11 2.263857 1_555
O39 U7 2.395151 1_655
O40 U10 2.263857 1_555
O40 U6 2.395151 1_655
O41 U11 2.263857 1_555
O41 U7 2.395151 1_555
O42 U8 2.263857 1_555
O42 U4 2.395151 1_555
O43 U9 2.263857 1_555
O43 U5 2.395151 1_455
O44 U4 2.368892 1_545
O45 U5 2.368892 1_555
O46 U6 2.368892 1_565
O47 U7 2.368892 1_555
O48 U8 1.851171 1_555
O49 U9 1.851171 1_555
O50 U10 1.851171 1_555
O51 U11 1.851171 1_555
O52 U8 1.860391 1_555
O53 U9 1.860391 1_555
O54 U10 1.860391 1_555
O55 U11 1.860391 1_555
O56 O60 1.240275 1_455
O57 O61 1.240275 1_546
O58 O62 1.240275 1_555
O59 O63 1.240275 1_664
