# generated using pymatgen
data_Lu5(Co2Si7)2
_symmetry_space_group_name_H-M   'P 1'
_cell_length_a   7.70302431
_cell_length_b   7.63456400
_cell_length_c   12.22747922
_cell_angle_alpha   81.25345796
_cell_angle_beta   90.00000000
_cell_angle_gamma   90.00000000
_symmetry_Int_Tables_number   1
_chemical_formula_structural   Lu5(Co2Si7)2
_chemical_formula_sum   'Lu10 Co8 Si28'
_cell_volume   710.72615845
_cell_formula_units_Z   2
loop_
 _symmetry_equiv_pos_site_id
 _symmetry_equiv_pos_as_xyz
  1  'x, y, z'
loop_
 _atom_site_type_symbol
 _atom_site_label
 _atom_site_symmetry_multiplicity
 _atom_site_fract_x
 _atom_site_fract_y
 _atom_site_fract_z
 _atom_site_occupancy
  Lu  Lu0  1  0.74803273  0.34214743  0.63564459  1
  Lu  Lu1  1  0.24803273  0.15785257  0.36435541  1
  Lu  Lu2  1  0.75196727  0.84214743  0.63564459  1
  Lu  Lu3  1  0.25196727  0.65785257  0.36435541  1
  Lu  Lu4  1  0.74907012  0.16022343  0.36467419  1
  Lu  Lu5  1  0.24907012  0.33977657  0.63532581  1
  Lu  Lu6  1  0.25092988  0.83977657  0.63532581  1
  Lu  Lu7  1  0.75092988  0.66022343  0.36467419  1
  Lu  Lu8  1  0.00000000  0.50000000  -0.00000000  1
  Lu  Lu9  1  0.50000000  -0.00000000  -0.00000000  1
  Co  Co0  1  0.87218112  0.12895981  0.00032414  1
  Co  Co1  1  0.62781888  0.62895981  0.00032414  1
  Co  Co2  1  0.37218112  0.37104019  0.99967586  1
  Co  Co3  1  0.12781888  0.87104019  0.99967586  1
  Co  Co4  1  0.00022284  0.56081889  0.75004064  1
  Co  Co5  1  0.50022284  0.93918111  0.24995936  1
  Co  Co6  1  0.99977716  0.43918111  0.24995936  1
  Co  Co7  1  0.49977716  0.06081889  0.75004064  1
  Si  Si0  1  0.00591174  0.81789580  0.82192051  1
  Si  Si1  1  0.99933799  0.60839908  0.56070423  1
  Si  Si2  1  0.49933799  0.89160092  0.43929577  1
  Si  Si3  1  0.00066201  0.39160092  0.43929577  1
  Si  Si4  1  0.66446540  0.33597394  0.99999232  1
  Si  Si5  1  0.16446540  0.16402606  0.00000768  1
  Si  Si6  1  0.33553460  0.66402606  0.00000768  1
  Si  Si7  1  0.83553460  0.83597394  0.99999232  1
  Si  Si8  1  0.77359796  0.04994836  0.82255659  1
  Si  Si9  1  0.27359796  0.45005164  0.17744341  1
  Si  Si10  1  0.22640204  0.95005164  0.17744341  1
  Si  Si11  1  0.72640204  0.54994836  0.82255659  1
  Si  Si12  1  0.22616735  0.03779082  0.82240005  1
  Si  Si13  1  0.72616735  0.46220918  0.17759995  1
  Si  Si14  1  0.77383265  0.96220918  0.17759995  1
  Si  Si15  1  0.27383265  0.53779082  0.82240005  1
  Si  Si16  1  0.99419956  0.26888719  0.82231670  1
  Si  Si17  1  0.49419956  0.23111281  0.17768330  1
  Si  Si18  1  0.00580044  0.73111281  0.17768330  1
  Si  Si19  1  0.50580044  0.76888719  0.82231670  1
  Si  Si20  1  0.49408826  0.31789580  0.82192051  1
  Si  Si21  1  0.99408826  0.18210420  0.17807949  1
  Si  Si22  1  0.50591174  0.68210420  0.17807949  1
  Si  Si23  1  0.99974719  0.11302744  0.55824787  1
  Si  Si24  1  0.50025281  0.61302744  0.55824787  1
  Si  Si25  1  0.00025281  0.88697256  0.44175213  1
  Si  Si26  1  0.49974719  0.38697256  0.44175213  1
  Si  Si27  1  0.50066201  0.10839908  0.56070423  1
loop_
_geom_bond_atom_site_label_1
_geom_bond_atom_site_label_2
_geom_bond_distance
_geom_bond_site_symmetry_2
Lu0 Si1 2.855254 1_555
Lu0 Si27 2.855277 1_555
Lu0 Si23 2.866784 1_555
Lu0 Si24 2.867087 1_555
Lu0 Si8 2.947553 1_555
Lu0 Si16 2.954690 1_555
Lu0 Si11 2.978372 1_555
Lu0 Si20 2.986697 1_555
Lu0 Si26 3.024728 1_555
Lu0 Si3 3.068861 1_655
Lu1 Si2 2.855254 1_545
Lu1 Si3 2.855277 1_555
Lu1 Si26 2.866784 1_555
Lu1 Si25 2.867087 1_545
Lu1 Si9 2.947553 1_555
Lu1 Si17 2.954690 1_555
Lu1 Si10 2.978372 1_545
Lu1 Si21 2.986697 1_455
Lu1 Si23 3.024728 1_455
Lu1 Si27 3.068861 1_555
Lu2 Si27 2.855254 1_565
Lu2 Si1 2.855277 1_555
Lu2 Si24 2.866784 1_555
Lu2 Si23 2.867087 1_565
Lu2 Si11 2.947553 1_555
Lu2 Si19 2.954690 1_555
Lu2 Si8 2.978372 1_565
Lu2 Si0 2.986697 1_655
Lu2 Si25 3.024728 1_655
Lu2 Si2 3.068861 1_555
Lu3 Si3 2.855254 1_555
Lu3 Si2 2.855277 1_555
Lu3 Si25 2.866784 1_555
Lu3 Si26 2.867087 1_555
Lu3 Si10 2.947553 1_555
Lu3 Si18 2.954690 1_555
Lu3 Si9 2.978372 1_555
Lu3 Si22 2.986697 1_555
Lu3 Si24 3.024728 1_555
Lu3 Si1 3.068861 1_455
Lu4 Si26 2.840727 1_555
Lu4 Si2 2.858300 1_545
Lu4 Si3 2.863397 1_655
Lu4 Si25 2.895864 1_645
Lu4 Si14 2.933578 1_545
Lu4 Si21 2.946153 1_555
Lu4 Si13 2.995847 1_555
Lu4 Si17 2.999794 1_555
Lu4 Si23 3.033382 1_555
Lu4 Si27 3.045482 1_555
Lu5 Si23 2.840727 1_455
Lu5 Si1 2.858300 1_455
Lu5 Si27 2.863397 1_555
Lu5 Si24 2.895864 1_555
Lu5 Si15 2.933578 1_555
Lu5 Si20 2.946153 1_555
Lu5 Si12 2.995847 1_555
Lu5 Si16 2.999794 1_455
Lu5 Si26 3.033382 1_555
Lu5 Si3 3.045482 1_555
Lu6 Si24 2.840727 1_555
Lu6 Si27 2.858300 1_565
Lu6 Si1 2.863397 1_455
Lu6 Si23 2.895864 1_465
Lu6 Si12 2.933578 1_565
Lu6 Si0 2.946153 1_555
Lu6 Si15 2.995847 1_555
Lu6 Si19 2.999794 1_555
Lu6 Si25 3.033382 1_555
Lu6 Si2 3.045482 1_555
Lu7 Si25 2.840727 1_655
Lu7 Si3 2.858300 1_655
Lu7 Si2 2.863397 1_555
Lu7 Si26 2.895864 1_555
Lu7 Si13 2.933578 1_555
Lu7 Si22 2.946153 1_555
Lu7 Si14 2.995847 1_555
Lu7 Si18 2.999794 1_655
Lu7 Si24 3.033382 1_555
Lu7 Si1 3.045482 1_555
Lu8 Si5 2.860806 1_555
Lu8 Si7 2.860806 1_454
Lu8 Si6 2.872025 1_555
Lu8 Si4 2.872025 1_454
Lu8 Si16 3.000233 1_454
Lu8 Si18 3.000233 1_555
Lu8 Si0 3.004415 1_554
Lu8 Si21 3.004415 1_455
Lu8 Si11 3.007160 1_454
Lu8 Si9 3.007160 1_555
Lu8 Si13 3.009626 1_455
Lu8 Si15 3.009626 1_554
Lu9 Si4 2.860806 1_554
Lu9 Si6 2.860806 1_545
Lu9 Si7 2.872025 1_544
Lu9 Si5 2.872025 1_555
Lu9 Si17 3.000233 1_555
Lu9 Si19 3.000233 1_544
Lu9 Si20 3.004415 1_554
Lu9 Si22 3.004415 1_545
Lu9 Si10 3.007160 1_545
Lu9 Si8 3.007160 1_554
Lu9 Si12 3.009626 1_554
Lu9 Si14 3.009626 1_545
Co0 Si4 2.248567 1_554
Co0 Si7 2.255177 1_544
Co0 Si5 2.267267 1_655
Co0 Si21 2.457385 1_555
Co0 Si14 2.460493 1_545
Co0 Si16 2.460694 1_554
Co0 Si8 2.462531 1_554
Co0 Co3 2.785653 1_644
Co0 Lu8 2.998397 1_655
Co0 Lu9 3.031464 1_555
Co1 Si7 2.248567 1_554
Co1 Si4 2.255177 1_554
Co1 Si6 2.267267 1_555
Co1 Si22 2.457385 1_555
Co1 Si13 2.460493 1_555
Co1 Si19 2.460694 1_554
Co1 Si11 2.462531 1_554
Co1 Co2 2.785653 1_554
Co1 Lu9 2.998397 1_565
Co1 Lu8 3.031464 1_655
Co2 Si5 2.248567 1_556
Co2 Si6 2.255177 1_556
Co2 Si4 2.267267 1_555
Co2 Si20 2.457385 1_555
Co2 Si15 2.460493 1_555
Co2 Si17 2.460694 1_556
Co2 Si9 2.462531 1_556
Co2 Lu9 2.998397 1_556
Co2 Lu8 3.031464 1_556
Co3 Si6 2.248567 1_556
Co3 Si5 2.255177 1_566
Co3 Si7 2.267267 1_455
Co3 Si0 2.457385 1_555
Co3 Si12 2.460493 1_565
Co3 Si18 2.460694 1_556
Co3 Si10 2.462531 1_556
Co3 Lu8 2.998397 1_556
Co3 Lu9 3.031464 1_566
Co4 Si0 2.269603 1_555
Co4 Si16 2.269705 1_455
Co4 Si15 2.282214 1_555
Co4 Si11 2.284655 1_455
Co4 Si1 2.288222 1_455
Co4 Lu8 3.020830 1_556
Co4 Lu5 3.034744 1_555
Co4 Lu0 3.037708 1_455
Co4 Lu2 3.051716 1_455
Co4 Lu6 3.053559 1_555
Co5 Si22 2.269603 1_555
Co5 Si17 2.269705 1_565
Co5 Si14 2.282214 1_555
Co5 Si10 2.284655 1_555
Co5 Si2 2.288222 1_555
Co5 Lu9 3.020830 1_565
Co5 Lu4 3.034744 1_565
Co5 Lu1 3.037708 1_565
Co5 Lu3 3.051716 1_555
Co5 Lu7 3.053559 1_555
Co6 Si21 2.269603 1_555
Co6 Si18 2.269705 1_655
Co6 Si13 2.282214 1_555
Co6 Si9 2.284655 1_655
Co6 Si3 2.288222 1_655
Co6 Lu8 3.020830 1_655
Co6 Lu7 3.034744 1_555
Co6 Lu3 3.037708 1_655
Co6 Lu1 3.051716 1_655
Co6 Lu4 3.053559 1_555
Co7 Si20 2.269603 1_555
Co7 Si19 2.269705 1_545
Co7 Si12 2.282214 1_555
Co7 Si8 2.284655 1_555
Co7 Si27 2.288222 1_555
Co7 Lu9 3.020830 1_556
Co7 Lu6 3.034744 1_545
Co7 Lu2 3.037708 1_545
Co7 Lu0 3.051716 1_555
Co7 Lu5 3.053559 1_555
Si0 Si12 2.387462 1_565
Si0 Si8 2.518981 1_465
Si0 Si7 2.563947 1_455
Si1 Si3 2.385525 1_655
Si1 Si25 2.387052 1_655
Si2 Si27 2.385525 1_565
Si2 Si24 2.387052 1_555
Si6 Si9 2.554506 1_555
Si7 Si8 2.554506 1_565
Si10 Si18 2.383287 1_555
Si10 Si21 2.518981 1_465
Si10 Si5 2.554506 1_565
Si11 Si19 2.383287 1_555
Si11 Si20 2.518981 1_555
Si11 Si4 2.554506 1_555
Si12 Si16 2.511001 1_455
Si12 Si5 2.550981 1_556
Si13 Si22 2.387462 1_555
Si13 Si17 2.511001 1_555
Si13 Si4 2.550981 1_554
Si14 Si21 2.387462 1_565
Si14 Si18 2.511001 1_655
Si14 Si7 2.550981 1_554
Si15 Si20 2.387462 1_555
Si15 Si19 2.511001 1_555
Si15 Si6 2.550981 1_556
Si16 Si8 2.383287 1_555
Si16 Si5 2.559841 1_656
Si17 Si9 2.383287 1_555
Si17 Si4 2.559841 1_554
Si18 Si7 2.559841 1_454
Si19 Si6 2.559841 1_556
Si20 Si4 2.563947 1_555
Si21 Si5 2.563947 1_655
Si22 Si9 2.518981 1_555
Si22 Si6 2.563947 1_555
Si23 Si3 2.387052 1_655
Si23 Si25 2.399003 1_645
Si24 Si26 2.399003 1_555
Si26 Si27 2.387052 1_555
