# generated using pymatgen
data_Si48O107
_symmetry_space_group_name_H-M   'P 1'
_cell_length_a   17.35864621
_cell_length_b   17.35557037
_cell_length_c   17.34889104
_cell_angle_alpha   89.99997665
_cell_angle_beta   60.01851015
_cell_angle_gamma   119.99416832
_symmetry_Int_Tables_number   1
_chemical_formula_structural   Si48O107
_chemical_formula_sum   'Si48 O107'
_cell_volume   3697.18413456
_cell_formula_units_Z   1
loop_
 _symmetry_equiv_pos_site_id
 _symmetry_equiv_pos_as_xyz
  1  'x, y, z'
loop_
 _atom_site_type_symbol
 _atom_site_label
 _atom_site_symmetry_multiplicity
 _atom_site_fract_x
 _atom_site_fract_y
 _atom_site_fract_z
 _atom_site_occupancy
  Si  Si0  1  0.60752900  0.39209800  0.85684800  1
  Si  Si1  1  0.60752800  0.21543100  0.03562400  1
  Si  Si2  1  0.89242400  0.85675800  0.39211700  1
  Si  Si3  1  0.89242300  0.03566500  0.21546000  1
  Si  Si4  1  0.07237600  0.21561300  0.39213100  1
  Si  Si5  1  0.42758800  0.39204900  0.21555900  1
  Si  Si6  1  0.42758800  0.03553900  0.85685300  1
  Si  Si7  1  0.07237600  0.85676200  0.03549300  1
  Si  Si8  1  0.24886300  0.85677400  0.21557300  1
  Si  Si9  1  0.25113600  0.03557000  0.39211300  1
  Si  Si10  1  0.24886300  0.39208900  0.03556400  1
  Si  Si11  1  0.25113600  0.21556500  0.85675100  1
  Si  Si12  1  0.24886300  0.39208900  0.21557200  1
  Si  Si13  1  0.25113600  0.21556600  0.39211300  1
  Si  Si14  1  0.24886300  0.85677400  0.03556500  1
  Si  Si15  1  0.25113600  0.03557000  0.85675100  1
  Si  Si16  1  0.60752900  0.21543200  0.85684800  1
  Si  Si17  1  0.60752800  0.39209700  0.03562400  1
  Si  Si18  1  0.89242300  0.03566500  0.39211700  1
  Si  Si19  1  0.89242300  0.85675800  0.21546000  1
  Si  Si20  1  0.07237600  0.85676200  0.39213100  1
  Si  Si21  1  0.42758800  0.03553900  0.21556000  1
  Si  Si22  1  0.42758800  0.39204900  0.85685200  1
  Si  Si23  1  0.07237600  0.21561400  0.03549300  1
  Si  Si24  1  0.39252300  0.60793000  0.14318500  1
  Si  Si25  1  0.39252300  0.78459300  0.96429200  1
  Si  Si26  1  0.10753000  0.14318700  0.60792500  1
  Si  Si27  1  0.10753000  0.96434200  0.78454500  1
  Si  Si28  1  0.92759300  0.78440400  0.60803600  1
  Si  Si29  1  0.57240100  0.60789500  0.78448000  1
  Si  Si30  1  0.57240100  0.96450600  0.14311900  1
  Si  Si31  1  0.92759300  0.14319000  0.96437100  1
  Si  Si32  1  0.75113400  0.14319900  0.78450800  1
  Si  Si33  1  0.74890200  0.96446600  0.60799400  1
  Si  Si34  1  0.75113400  0.60793500  0.96435900  1
  Si  Si35  1  0.74890200  0.78443600  0.14310500  1
  Si  Si36  1  0.75113500  0.60793600  0.78450700  1
  Si  Si37  1  0.74890300  0.78443600  0.60799400  1
  Si  Si38  1  0.75113400  0.14319900  0.96435900  1
  Si  Si39  1  0.74890300  0.96446700  0.14310400  1
  Si  Si40  1  0.39252300  0.78459300  0.14318400  1
  Si  Si41  1  0.39252300  0.60793000  0.96429300  1
  Si  Si42  1  0.10752900  0.96434200  0.60792500  1
  Si  Si43  1  0.10752900  0.14318700  0.78454500  1
  Si  Si44  1  0.92759300  0.14318900  0.60803600  1
  Si  Si45  1  0.57240000  0.96450500  0.78448000  1
  Si  Si46  1  0.57240100  0.60789500  0.14311900  1
  Si  Si47  1  0.92759300  0.78440300  0.96437100  1
  O  O0  1  0.50604400  0.36427000  0.14179500  1
  O  O1  1  0.50604400  0.14177400  0.85216100  1
  O  O2  1  0.99385400  0.14167300  0.36434800  1
  O  O3  1  0.99385400  0.85218100  0.14179800  1
  O  O4  1  0.28338900  0.14169500  0.36434000  1
  O  O5  1  0.21656100  0.36423000  0.14172000  1
  O  O6  1  0.21656100  0.85233100  0.14171900  1
  O  O7  1  0.28338800  0.14169400  0.85227100  1
  O  O8  1  0.50604400  0.14177400  0.14179500  1
  O  O9  1  0.99385300  0.85218100  0.36434700  1
  O  O10  1  0.50604300  0.36426900  0.85216100  1
  O  O11  1  0.99385300  0.14167200  0.14179900  1
  O  O12  1  0.49415300  0.63596000  0.85809500  1
  O  O13  1  0.49415400  0.85819400  0.14775200  1
  O  O14  1  0.00603600  0.85816500  0.63580300  1
  O  O15  1  0.00603600  0.14787000  0.85816100  1
  O  O16  1  0.71635200  0.85817500  0.63578300  1
  O  O17  1  0.78375800  0.63593100  0.85812100  1
  O  O18  1  0.78375700  0.14782600  0.85812100  1
  O  O19  1  0.71635300  0.85817600  0.14786500  1
  O  O20  1  0.49415400  0.85819400  0.85809500  1
  O  O21  1  0.00603500  0.14787000  0.63580300  1
  O  O22  1  0.49415400  0.63596000  0.14775100  1
  O  O23  1  0.00603500  0.85816500  0.85816100  1
  O  O24  1  0.35705800  0.03504600  0.32205900  1
  O  O25  1  0.35705700  0.32201200  0.82088300  1
  O  O26  1  0.14291900  0.32204100  0.03502600  1
  O  O27  1  0.14291900  0.82087900  0.32205500  1
  O  O28  1  0.64432900  0.32216400  0.03462900  1
  O  O29  1  0.85589100  0.03507700  0.32205300  1
  O  O30  1  0.85589100  0.82081500  0.32205400  1
  O  O31  1  0.64433000  0.32216500  0.82104200  1
  O  O32  1  0.35705700  0.32201200  0.32206000  1
  O  O33  1  0.14291900  0.82087900  0.03502600  1
  O  O34  1  0.35705700  0.03504600  0.82088300  1
  O  O35  1  0.14291900  0.32204000  0.32205500  1
  O  O36  1  0.64315200  0.96521900  0.67781600  1
  O  O37  1  0.64315300  0.67793300  0.17903200  1
  O  O38  1  0.85686500  0.67784900  0.96523500  1
  O  O39  1  0.85686400  0.17901500  0.67790100  1
  O  O40  1  0.35568200  0.67784100  0.96540300  1
  O  O41  1  0.14442300  0.96541300  0.67778900  1
  O  O42  1  0.14442300  0.17900900  0.67778900  1
  O  O43  1  0.35568200  0.67784100  0.17891600  1
  O  O44  1  0.64315100  0.67793200  0.67781600  1
  O  O45  1  0.85686500  0.17901500  0.96523500  1
  O  O46  1  0.64315200  0.96521900  0.17903300  1
  O  O47  1  0.85686400  0.67784900  0.67790100  1
  O  O48  1  0.75052100  0.87526000  0.87474000  1
  O  O49  1  0.24998500  0.12499200  0.12500800  1
  O  O50  1  0.34732700  0.38132000  0.96607200  1
  O  O51  1  0.34732800  0.96600800  0.18660100  1
  O  O52  1  0.15247700  0.96593900  0.38157300  1
  O  O53  1  0.15247800  0.18653800  0.96594900  1
  O  O54  1  0.93163000  0.96581500  0.38180500  1
  O  O55  1  0.56789500  0.38154500  0.96605300  1
  O  O56  1  0.56789500  0.18635000  0.96605200  1
  O  O57  1  0.93162900  0.96581500  0.18656500  1
  O  O58  1  0.34732700  0.96600800  0.96607200  1
  O  O59  1  0.15247700  0.18653800  0.38157200  1
  O  O60  1  0.34732600  0.38131900  0.18660100  1
  O  O61  1  0.15247800  0.96594000  0.96594900  1
  O  O62  1  0.65244300  0.61840600  0.03403400  1
  O  O63  1  0.65244200  0.03403800  0.81352400  1
  O  O64  1  0.84756800  0.03389300  0.61846700  1
  O  O65  1  0.84756700  0.81367500  0.03396600  1
  O  O66  1  0.06792200  0.03396000  0.61859800  1
  O  O67  1  0.43209200  0.61851500  0.03395400  1
  O  O68  1  0.43209300  0.81357800  0.03395400  1
  O  O69  1  0.06792100  0.03396100  0.81348100  1
  O  O70  1  0.65244200  0.03403800  0.03403500  1
  O  O71  1  0.84756700  0.81367400  0.61846700  1
  O  O72  1  0.65244200  0.61840500  0.81352400  1
  O  O73  1  0.84756700  0.03389300  0.03396700  1
  O  O74  1  0.49972300  0.49998700  0.21215400  1
  O  O75  1  0.49972300  0.99973600  0.78812300  1
  O  O76  1  0.99993100  0.21206800  0.50004700  1
  O  O77  1  0.99993000  0.78786100  0.00002200  1
  O  O78  1  0.21200100  0.99993900  0.50005800  1
  O  O79  1  0.28811900  0.50009500  0.99990600  1
  O  O80  1  0.28811900  0.78802300  0.21197600  1
  O  O81  1  0.21200200  0.21206300  0.78794000  1
  O  O82  1  0.71197500  0.21207200  0.99988200  1
  O  O83  1  0.78793900  0.78780500  0.49997600  1
  O  O84  1  0.71197500  0.49990300  0.78814200  1
  O  O85  1  0.78793800  0.00013300  0.21208600  1
  O  O86  1  0.71197600  0.49990300  0.99988200  1
  O  O87  1  0.78793800  0.00013400  0.49997500  1
  O  O88  1  0.71197600  0.21207200  0.78814200  1
  O  O89  1  0.78793700  0.78780400  0.21208600  1
  O  O90  1  0.49972400  0.99973700  0.21215400  1
  O  O91  1  0.49972400  0.49998700  0.78812200  1
  O  O92  1  0.99993000  0.78786200  0.50004800  1
  O  O93  1  0.99993000  0.21206900  0.00002200  1
  O  O94  1  0.21200100  0.21206300  0.50005900  1
  O  O95  1  0.28811900  0.78802300  0.99990600  1
  O  O96  1  0.28811900  0.50009500  0.21197600  1
  O  O97  1  0.21200100  0.99993900  0.78793900  1
  O  O98  1  0.75008300  0.55176100  0.55156300  1
  O  O99  1  0.75008300  0.19832200  0.19835500  1
  O  O100  1  0.75008300  0.19832200  0.55156300  1
  O  O101  1  0.75008300  0.55176100  0.19835500  1
  O  O102  1  0.60358400  0.80179200  0.44820800  1
  O  O103  1  0.24995600  0.44825600  0.44825200  1
  O  O104  1  0.24995600  0.80170000  0.80179200  1
  O  O105  1  0.24995600  0.80170000  0.44825200  1
  O  O106  1  0.24995600  0.44825500  0.80179200  1
loop_
_geom_bond_atom_site_label_1
_geom_bond_atom_site_label_2
_geom_bond_distance
_geom_bond_site_symmetry_2
O0 Si17 1.623484 1_555
O0 Si5 1.624650 1_555
O1 Si16 1.623503 1_555
O1 Si6 1.624651 1_555
O2 Si18 1.621899 1_555
O2 Si4 1.626273 1_655
O3 Si19 1.621899 1_555
O3 Si7 1.626278 1_655
O4 Si13 1.624002 1_555
O4 Si9 1.624017 1_555
O5 Si12 1.623805 1_555
O5 Si10 1.623837 1_555
O6 Si14 1.623804 1_555
O6 Si8 1.623839 1_555
O7 Si11 1.623989 1_555
O7 Si15 1.624005 1_555
O8 Si1 1.623484 1_555
O8 Si21 1.624655 1_555
O9 Si2 1.621863 1_555
O9 Si20 1.626309 1_655
O10 Si0 1.623512 1_555
O10 Si22 1.624654 1_555
O11 Si3 1.621881 1_555
O11 Si23 1.626293 1_655
O12 Si41 1.623838 1_555
O12 Si29 1.625114 1_555
O13 Si40 1.623857 1_555
O13 Si30 1.625098 1_555
O14 Si42 1.623570 1_555
O14 Si28 1.624114 1_455
O15 Si43 1.623564 1_555
O15 Si31 1.624125 1_455
O16 Si37 1.624896 1_555
O16 Si33 1.624918 1_555
O17 Si36 1.623427 1_555
O17 Si34 1.623438 1_555
O18 Si32 1.623413 1_555
O18 Si38 1.623445 1_555
O19 Si35 1.624892 1_555
O19 Si39 1.624919 1_555
O20 Si25 1.623833 1_555
O20 Si45 1.625092 1_555
O21 Si26 1.623595 1_555
O21 Si44 1.624104 1_455
O22 Si24 1.623837 1_555
O22 Si46 1.625105 1_555
O23 Si27 1.623577 1_555
O23 Si47 1.624120 1_455
O24 Si9 1.625175 1_555
O24 Si21 1.625265 1_555
O25 Si11 1.625178 1_555
O25 Si22 1.625277 1_555
O26 Si23 1.624800 1_555
O26 Si10 1.625403 1_555
O27 Si20 1.624787 1_555
O27 Si8 1.625404 1_555
O28 Si1 1.626546 1_555
O28 Si17 1.626563 1_555
O29 Si3 1.625892 1_555
O29 Si18 1.625942 1_555
O30 Si19 1.625905 1_555
O30 Si2 1.625933 1_555
O31 Si16 1.626545 1_555
O31 Si0 1.626563 1_555
O32 Si13 1.625167 1_555
O32 Si5 1.625287 1_555
O33 Si7 1.624788 1_555
O33 Si14 1.625416 1_555
O34 Si15 1.625160 1_555
O34 Si6 1.625297 1_555
O35 Si4 1.624798 1_555
O35 Si12 1.625413 1_555
O36 Si33 1.624445 1_555
O36 Si45 1.626724 1_555
O37 Si35 1.624442 1_555
O37 Si46 1.626739 1_555
O38 Si47 1.624513 1_555
O38 Si34 1.625524 1_555
O39 Si44 1.624530 1_555
O39 Si32 1.625518 1_555
O40 Si25 1.626358 1_555
O40 Si41 1.626361 1_555
O41 Si27 1.625853 1_555
O41 Si42 1.625884 1_555
O42 Si43 1.625846 1_555
O42 Si26 1.625870 1_555
O43 Si24 1.626361 1_555
O43 Si40 1.626364 1_555
O44 Si37 1.624460 1_555
O44 Si29 1.626723 1_555
O45 Si31 1.624501 1_555
O45 Si38 1.625527 1_555
O46 Si39 1.624449 1_555
O46 Si30 1.626743 1_555
O47 Si28 1.624528 1_555
O47 Si36 1.625501 1_555
O50 Si22 1.633504 1_555
O50 Si10 1.633927 1_556
O51 Si21 1.633490 1_565
O51 Si8 1.633943 1_555
O52 Si20 1.633563 1_555
O52 Si9 1.634179 1_565
O53 Si23 1.633580 1_556
O53 Si11 1.634163 1_555
O54 Si18 1.633419 1_565
O54 Si2 1.633422 1_555
O55 Si17 1.633274 1_556
O55 Si0 1.633284 1_555
O56 Si16 1.633269 1_555
O56 Si1 1.633291 1_556
O57 Si3 1.633408 1_565
O57 Si19 1.633424 1_555
O58 Si6 1.633485 1_565
O58 Si14 1.633940 1_556
O59 Si4 1.633546 1_555
O59 Si13 1.634190 1_555
O60 Si5 1.633505 1_555
O60 Si12 1.633926 1_555
O61 Si7 1.633578 1_556
O61 Si15 1.634159 1_565
O62 Si46 1.632148 1_555
O62 Si34 1.634214 1_554
O63 Si45 1.632174 1_545
O63 Si32 1.634208 1_555
O64 Si33 1.632769 1_545
O64 Si44 1.635489 1_555
O65 Si35 1.632761 1_555
O65 Si47 1.635518 1_554
O66 Si42 1.634073 1_545
O66 Si26 1.634102 1_555
O67 Si41 1.633885 1_554
O67 Si24 1.633900 1_555
O68 Si40 1.633880 1_555
O68 Si25 1.633915 1_554
O69 Si43 1.634087 1_555
O69 Si27 1.634115 1_545
O70 Si30 1.632141 1_545
O70 Si38 1.634207 1_554
O71 Si37 1.632740 1_555
O71 Si28 1.635493 1_555
O72 Si29 1.632152 1_555
O72 Si36 1.634222 1_555
O73 Si39 1.632737 1_545
O73 Si31 1.635509 1_554
O74 Si46 1.631261 1_555
O74 Si5 1.631419 1_555
O75 Si45 1.631260 1_555
O75 Si6 1.631419 1_565
O76 Si4 1.630945 1_655
O76 Si44 1.632099 1_555
O77 Si7 1.630963 1_655
O77 Si47 1.632092 1_554
O78 Si9 1.630796 1_565
O78 Si42 1.631093 1_555
O79 Si41 1.630505 1_555
O79 Si10 1.631681 1_556
O80 Si40 1.630498 1_555
O80 Si8 1.631701 1_555
O81 Si11 1.630807 1_555
O81 Si43 1.631112 1_555
O82 Si1 1.630074 1_556
O82 Si38 1.632291 1_555
O83 Si2 1.631289 1_555
O83 Si37 1.632692 1_555
O84 Si0 1.630062 1_555
O84 Si36 1.632307 1_555
O85 Si3 1.631293 1_555
O85 Si39 1.632680 1_545
O86 Si17 1.630079 1_556
O86 Si34 1.632296 1_555
O87 Si18 1.631283 1_555
O87 Si33 1.632711 1_545
O88 Si16 1.630087 1_555
O88 Si32 1.632284 1_555
O89 Si19 1.631309 1_555
O89 Si35 1.632667 1_555
O90 Si30 1.631265 1_555
O90 Si21 1.631417 1_565
O91 Si29 1.631265 1_555
O91 Si22 1.631415 1_555
O92 Si20 1.630954 1_655
O92 Si28 1.632089 1_555
O93 Si23 1.630963 1_655
O93 Si31 1.632091 1_554
O94 Si13 1.630816 1_555
O94 Si26 1.631082 1_555
O95 Si25 1.630493 1_555
O95 Si14 1.631701 1_556
O96 Si24 1.630504 1_555
O96 Si12 1.631687 1_555
O97 Si15 1.630831 1_565
O97 Si27 1.631069 1_555
