# generated using pymatgen
data_ThTlCuSe3
_symmetry_space_group_name_H-M   'P 1'
_cell_length_a   7.54876298
_cell_length_b   7.54876298
_cell_length_c   10.97762400
_cell_angle_alpha   90.00000000
_cell_angle_beta   90.00000000
_cell_angle_gamma   147.57642555
_symmetry_Int_Tables_number   1
_chemical_formula_structural   ThTlCuSe3
_chemical_formula_sum   'Th2 Tl2 Cu2 Se6'
_cell_volume   335.40211856
_cell_formula_units_Z   2
loop_
 _symmetry_equiv_pos_site_id
 _symmetry_equiv_pos_as_xyz
  1  'x, y, z'
loop_
 _atom_site_type_symbol
 _atom_site_label
 _atom_site_symmetry_multiplicity
 _atom_site_fract_x
 _atom_site_fract_y
 _atom_site_fract_z
 _atom_site_occupancy
  Th  Th0  1  0.00000000  0.00000000  0.50000000  1
  Th  Th1  1  0.00000000  0.00000000  0.00000000  1
  Tl  Tl0  1  0.25152400  0.74847600  0.25000000  1
  Tl  Tl1  1  0.74847600  0.25152400  0.75000000  1
  Cu  Cu0  1  0.53464200  0.46535800  0.25000000  1
  Cu  Cu1  1  0.46535800  0.53464200  0.75000000  1
  Se  Se0  1  0.63045400  0.36954600  0.43482800  1
  Se  Se1  1  0.36954600  0.63045400  0.56517200  1
  Se  Se2  1  0.63045400  0.36954600  0.06517200  1
  Se  Se3  1  0.36954600  0.63045400  0.93482800  1
  Se  Se4  1  0.93352700  0.06647300  0.25000000  1
  Se  Se5  1  0.06647300  0.93352700  0.75000000  1
loop_
_geom_bond_atom_site_label_1
_geom_bond_atom_site_label_2
_geom_bond_distance
_geom_bond_site_symmetry_2
Cu0 Se2 2.458874 1_555
Cu0 Se0 2.458874 1_555
Cu0 Se4 2.567196 1_455
Cu0 Se4 2.567196 1_565
Cu1 Se1 2.458874 1_555
Cu1 Se3 2.458874 1_555
Cu1 Se5 2.567196 1_545
Cu1 Se5 2.567196 1_655
Se0 Th0 2.920655 1_555
Se0 Th0 2.920655 1_665
Se0 Tl0 3.411605 1_545
Se0 Tl0 3.411605 1_655
Se1 Th0 2.920655 1_555
Se1 Th0 2.920655 1_665
Se1 Tl1 3.411605 1_455
Se1 Tl1 3.411605 1_565
Se2 Th1 2.920655 1_555
Se2 Th1 2.920655 1_665
Se2 Tl0 3.411605 1_545
Se2 Tl0 3.411605 1_655
Se3 Th1 2.920655 1_556
Se3 Th1 2.920655 1_666
Se3 Tl1 3.411605 1_455
Se3 Tl1 3.411605 1_565
Se4 Th0 2.908681 1_655
Se4 Th1 2.908681 1_655
Se4 Tl0 3.376912 1_545
Se4 Tl0 3.376912 1_655
Se5 Th0 2.908681 1_565
Se5 Th1 2.908681 1_566
Se5 Tl1 3.376912 1_455
Se5 Tl1 3.376912 1_565
