# generated using pymatgen
data_Ba2SrN2
_symmetry_space_group_name_H-M   'P 1'
_cell_length_a   3.81415834
_cell_length_b   6.03499795
_cell_length_c   11.96017438
_cell_angle_alpha   90.00000000
_cell_angle_beta   90.00000000
_cell_angle_gamma   90.00000000
_symmetry_Int_Tables_number   1
_chemical_formula_structural   Ba2SrN2
_chemical_formula_sum   'Ba4 Sr2 N4'
_cell_volume   275.30452960
_cell_formula_units_Z   2
loop_
 _symmetry_equiv_pos_site_id
 _symmetry_equiv_pos_as_xyz
  1  'x, y, z'
loop_
 _atom_site_type_symbol
 _atom_site_label
 _atom_site_symmetry_multiplicity
 _atom_site_fract_x
 _atom_site_fract_y
 _atom_site_fract_z
 _atom_site_occupancy
  Ba  Ba0  1  0.23553639  0.25000000  0.93977036  1
  Ba  Ba1  1  0.23553639  0.25000000  0.56022964  1
  Ba  Ba2  1  0.76446361  0.75000000  0.06022964  1
  Ba  Ba3  1  0.76446361  0.75000000  0.43977036  1
  Sr  Sr0  1  0.23184926  0.25000000  0.25000000  1
  Sr  Sr1  1  0.76815074  0.75000000  0.75000000  1
  N  N0  1  0.71786640  0.25000000  0.40942344  1
  N  N1  1  0.71786640  0.25000000  0.09057656  1
  N  N2  1  0.28213360  0.75000000  0.59057656  1
  N  N3  1  0.28213360  0.75000000  0.90942344  1
loop_
_geom_bond_atom_site_label_1
_geom_bond_atom_site_label_2
_geom_bond_distance
_geom_bond_site_symmetry_2
Ba0 N1 2.576364 1_556
Ba0 N1 2.674280 1_456
Ba0 N3 3.044441 1_555
Ba0 N3 3.044441 1_545
Ba1 N0 2.576364 1_555
Ba1 N0 2.674280 1_455
Ba1 N2 3.044441 1_555
Ba1 N2 3.044441 1_545
Ba2 N3 2.576364 1_554
Ba2 N3 2.674280 1_654
Ba2 N1 3.044441 1_555
Ba2 N1 3.044441 1_565
Ba3 N2 2.576364 1_555
Ba3 N2 2.674280 1_655
Ba3 N0 3.044441 1_565
Ba3 N0 3.044441 1_555
N0 Sr0 2.659324 1_555
N0 Sr0 2.734747 1_655
N1 Sr0 2.659324 1_555
N1 Sr0 2.734747 1_655
N2 Sr1 2.659324 1_555
N2 Sr1 2.734747 1_455
N3 Sr1 2.659324 1_555
N3 Sr1 2.734747 1_455
