# generated using pymatgen
data_CaYMg6
_symmetry_space_group_name_H-M   'P 1'
_cell_length_a   6.68688221
_cell_length_b   6.68688221
_cell_length_c   5.22650000
_cell_angle_alpha   90.00000000
_cell_angle_beta   90.00000000
_cell_angle_gamma   117.36911387
_symmetry_Int_Tables_number   1
_chemical_formula_structural   CaYMg6
_chemical_formula_sum   'Ca1 Y1 Mg6'
_cell_volume   207.54020465
_cell_formula_units_Z   1
loop_
 _symmetry_equiv_pos_site_id
 _symmetry_equiv_pos_as_xyz
  1  'x, y, z'
loop_
 _atom_site_type_symbol
 _atom_site_label
 _atom_site_symmetry_multiplicity
 _atom_site_fract_x
 _atom_site_fract_y
 _atom_site_fract_z
 _atom_site_occupancy
  Ca  Ca0  1  0.90417200  0.09582800  0.00000000  1
  Y  Y0  1  0.59405000  0.40595000  0.50000000  1
  Mg  Mg0  1  0.92567300  0.60322500  0.00000000  1
  Mg  Mg1  1  0.39677500  0.07432700  0.00000000  1
  Mg  Mg2  1  0.41516700  0.58483300  0.00000000  1
  Mg  Mg3  1  0.56759200  0.89370800  0.50000000  1
  Mg  Mg4  1  0.10629200  0.43240800  0.50000000  1
  Mg  Mg5  1  0.09027900  0.90972100  0.50000000  1
loop_
_geom_bond_atom_site_label_1
_geom_bond_atom_site_label_2
_geom_bond_distance
_geom_bond_site_symmetry_2
Ca0 Mg3 3.305214 1_544
Ca0 Mg4 3.305214 1_654
Ca0 Mg4 3.305214 1_655
Ca0 Mg3 3.305214 1_545
Ca0 Mg1 3.329257 1_555
Ca0 Mg0 3.329257 1_555
Ca0 Mg1 3.362500 1_655
Ca0 Mg0 3.362500 1_545
Ca0 Mg5 3.369046 1_644
Ca0 Mg5 3.369046 1_645
Ca0 Mg2 3.477773 1_545
Ca0 Mg2 3.477773 1_655
Mg0 Mg5 3.188561 1_655
Mg0 Mg5 3.188561 1_654
Mg0 Mg1 3.274633 1_665
Mg0 Y0 3.285887 1_555
Mg0 Y0 3.285887 1_554
Mg0 Mg4 3.295592 1_655
Mg0 Mg4 3.295592 1_654
Mg0 Mg2 3.331518 1_655
Mg0 Mg2 3.358931 1_555
Mg1 Mg5 3.188561 1_545
Mg1 Mg5 3.188561 1_544
Mg1 Y0 3.285887 1_555
Mg1 Y0 3.285887 1_554
Mg1 Mg3 3.295592 1_545
Mg1 Mg3 3.295592 1_544
Mg1 Mg2 3.331518 1_545
Mg1 Mg2 3.358931 1_555
Mg2 Mg3 3.193475 1_555
Mg2 Mg3 3.193475 1_554
Mg2 Mg4 3.193475 1_555
Mg2 Mg4 3.193475 1_554
Mg2 Y0 3.317571 1_554
Mg2 Y0 3.317571 1_555
Mg3 Mg4 3.206499 1_555
Mg3 Mg5 3.242356 1_555
Mg3 Y0 3.346605 1_555
Mg3 Y0 3.347656 1_565
Mg3 Mg5 3.447233 1_655
Mg4 Mg5 3.242356 1_555
Mg4 Y0 3.346605 1_555
Mg4 Y0 3.347656 1_455
Mg4 Mg5 3.447233 1_545
Mg5 Y0 3.475770 1_455
Mg5 Y0 3.475770 1_565
