# generated using pymatgen
data_AlGa3
_symmetry_space_group_name_H-M   'P 1'
_cell_length_a   5.07056429
_cell_length_b   5.07056429
_cell_length_c   5.07056429
_cell_angle_alpha   133.09455581
_cell_angle_beta   133.09455581
_cell_angle_gamma   68.50569267
_symmetry_Int_Tables_number   1
_chemical_formula_structural   AlGa3
_chemical_formula_sum   'Al1 Ga3'
_cell_volume   68.27368647
_cell_formula_units_Z   1
loop_
 _symmetry_equiv_pos_site_id
 _symmetry_equiv_pos_as_xyz
  1  'x, y, z'
loop_
 _atom_site_type_symbol
 _atom_site_label
 _atom_site_symmetry_multiplicity
 _atom_site_fract_x
 _atom_site_fract_y
 _atom_site_fract_z
 _atom_site_occupancy
  Al  Al0  1  0.00000000  -0.00000000  0.00000000  1
  Ga  Ga0  1  0.75000000  0.25000000  0.50000000  1
  Ga  Ga1  1  0.25000000  0.75000000  0.50000000  1
  Ga  Ga2  1  0.50000000  0.50000000  0.00000000  1
loop_
_geom_bond_atom_site_label_1
_geom_bond_atom_site_label_2
_geom_bond_distance
_geom_bond_site_symmetry_2
Al0 Ga2 2.853947 1_455
Al0 Ga2 2.853947 1_545
Al0 Ga2 2.853947 1_556
Al0 Ga2 2.853947 1_444
Al0 Ga0 2.909280 1_555
Al0 Ga1 2.909280 1_444
Al0 Ga1 2.909280 1_545
Al0 Ga0 2.909280 1_455
Al0 Ga1 2.909280 1_544
Al0 Ga1 2.909280 1_555
Al0 Ga0 2.909280 1_444
Al0 Ga0 2.909280 1_454
Ga0 Ga1 2.853947 1_656
Ga0 Ga1 2.853947 1_544
Ga0 Ga1 2.853947 1_555
Ga0 Ga1 2.853947 1_645
Ga0 Ga2 2.909280 1_545
Ga0 Ga2 2.909280 1_556
Ga0 Ga2 2.909280 1_656
Ga0 Ga2 2.909280 1_555
Ga1 Ga2 2.909280 1_566
Ga1 Ga2 2.909280 1_455
Ga1 Ga2 2.909280 1_556
Ga1 Ga2 2.909280 1_555
