# generated using pymatgen
data_Sm23Mg4Pt7
_symmetry_space_group_name_H-M   'P 1'
_cell_length_a   10.01704902
_cell_length_b   10.01704902
_cell_length_c   22.63074708
_cell_angle_alpha   90.00000000
_cell_angle_beta   90.00000000
_cell_angle_gamma   120.00000158
_symmetry_Int_Tables_number   1
_chemical_formula_structural   Sm23Mg4Pt7
_chemical_formula_sum   'Sm46 Mg8 Pt14'
_cell_volume   1966.56866010
_cell_formula_units_Z   2
loop_
 _symmetry_equiv_pos_site_id
 _symmetry_equiv_pos_as_xyz
  1  'x, y, z'
loop_
 _atom_site_type_symbol
 _atom_site_label
 _atom_site_symmetry_multiplicity
 _atom_site_fract_x
 _atom_site_fract_y
 _atom_site_fract_z
 _atom_site_occupancy
  Sm  Sm0  1  0.20664064  0.41328127  0.72022536  1
  Sm  Sm1  1  0.20664064  0.79335936  0.72022536  1
  Sm  Sm2  1  0.79335936  0.58671873  0.22022536  1
  Sm  Sm3  1  0.58671873  0.79335936  0.72022536  1
  Sm  Sm4  1  0.79335936  0.20664064  0.22022536  1
  Sm  Sm5  1  0.41328127  0.20664064  0.22022536  1
  Sm  Sm6  1  0.79337688  0.58675375  0.94625786  1
  Sm  Sm7  1  0.79337688  0.20662312  0.94625786  1
  Sm  Sm8  1  0.20662312  0.41324625  0.44625786  1
  Sm  Sm9  1  0.41324625  0.20662312  0.94625786  1
  Sm  Sm10  1  0.20662312  0.79337688  0.44625786  1
  Sm  Sm11  1  0.58675375  0.79337688  0.44625786  1
  Sm  Sm12  1  0.21220978  0.42441956  0.98984886  1
  Sm  Sm13  1  0.21220978  0.78779022  0.98984886  1
  Sm  Sm14  1  0.78779022  0.57558044  0.48984886  1
  Sm  Sm15  1  0.57558044  0.78779022  0.98984886  1
  Sm  Sm16  1  0.78779022  0.21220978  0.48984886  1
  Sm  Sm17  1  0.42441956  0.21220978  0.48984886  1
  Sm  Sm18  1  0.86985532  0.73971064  0.63520449  1
  Sm  Sm19  1  0.86985532  0.13014468  0.63520449  1
  Sm  Sm20  1  0.13014468  0.26028936  0.13520449  1
  Sm  Sm21  1  0.26028936  0.13014468  0.63520449  1
  Sm  Sm22  1  0.13014468  0.86985532  0.13520449  1
  Sm  Sm23  1  0.73971064  0.86985532  0.13520449  1
  Sm  Sm24  1  0.45605125  0.91210251  0.85675207  1
  Sm  Sm25  1  0.45605125  0.54394875  0.85675207  1
  Sm  Sm26  1  0.54394875  0.08789749  0.35675207  1
  Sm  Sm27  1  0.08789749  0.54394875  0.85675207  1
  Sm  Sm28  1  0.54394875  0.45605125  0.35675207  1
  Sm  Sm29  1  0.91210251  0.45605125  0.35675207  1
  Sm  Sm30  1  -0.00000000  0.00000000  0.99867327  1
  Sm  Sm31  1  -0.00000000  0.00000000  0.49867327  1
  Sm  Sm32  1  0.46188857  0.92377713  0.58509881  1
  Sm  Sm33  1  0.46188857  0.53811143  0.58509881  1
  Sm  Sm34  1  0.53811143  0.07622287  0.08509881  1
  Sm  Sm35  1  0.07622287  0.53811143  0.58509881  1
  Sm  Sm36  1  0.53811143  0.46188857  0.08509881  1
  Sm  Sm37  1  0.92377713  0.46188857  0.08509881  1
  Sm  Sm38  1  0.79918824  0.59837648  0.78289546  1
  Sm  Sm39  1  0.79918824  0.20081176  0.78289546  1
  Sm  Sm40  1  0.20081176  0.40162352  0.28289546  1
  Sm  Sm41  1  0.40162352  0.20081176  0.78289546  1
  Sm  Sm42  1  0.20081176  0.79918824  0.28289546  1
  Sm  Sm43  1  0.59837648  0.79918824  0.28289546  1
  Sm  Sm44  1  0.66666700  0.33333300  0.64185598  1
  Sm  Sm45  1  0.33333300  0.66666700  0.14185598  1
  Mg  Mg0  1  -0.00000000  0.00000000  0.74937629  1
  Mg  Mg1  1  -0.00000000  0.00000000  0.24937629  1
  Mg  Mg2  1  0.10634579  0.21269158  0.86352506  1
  Mg  Mg3  1  0.10634579  0.89365421  0.86352506  1
  Mg  Mg4  1  0.89365421  0.78730842  0.36352506  1
  Mg  Mg5  1  0.78730842  0.89365421  0.86352506  1
  Mg  Mg6  1  0.89365421  0.10634579  0.36352506  1
  Mg  Mg7  1  0.21269158  0.10634579  0.36352506  1
  Pt  Pt0  1  0.52264470  0.04528941  0.71026461  1
  Pt  Pt1  1  0.52264470  0.47735530  0.71026461  1
  Pt  Pt2  1  0.47735530  0.95471059  0.21026461  1
  Pt  Pt3  1  0.95471059  0.47735530  0.71026461  1
  Pt  Pt4  1  0.47735530  0.52264470  0.21026461  1
  Pt  Pt5  1  0.04528941  0.52264470  0.21026461  1
  Pt  Pt6  1  0.66666700  0.33333300  0.86160768  1
  Pt  Pt7  1  0.33333300  0.66666700  0.36160768  1
  Pt  Pt8  1  0.14368676  0.28737352  0.56499634  1
  Pt  Pt9  1  0.14368676  0.85631324  0.56499634  1
  Pt  Pt10  1  0.85631324  0.71262648  0.06499634  1
  Pt  Pt11  1  0.71262648  0.85631324  0.56499634  1
  Pt  Pt12  1  0.85631324  0.14368676  0.06499634  1
  Pt  Pt13  1  0.28737352  0.14368676  0.06499634  1
loop_
_geom_bond_atom_site_label_1
_geom_bond_atom_site_label_2
_geom_bond_distance
_geom_bond_site_symmetry_2
Sm10 Sm17 3.765859 1_565
Sm10 Sm14 3.765859 1_455
Sm11 Sm16 3.765859 1_565
Sm11 Sm14 3.765860 1_555
Sm12 Sm20 3.584432 1_556
Sm12 Sm15 3.639902 1_555
Sm12 Sm13 3.639902 1_555
Sm12 Sm25 3.680736 1_555
Sm12 Sm27 3.680736 1_555
Sm12 Sm30 3.687260 1_555
Sm12 Sm7 3.765859 1_455
Sm12 Sm9 3.765860 1_555
Sm12 Sm36 3.770880 1_556
Sm12 Sm37 3.770880 1_456
Sm12 Sm45 4.031147 1_556
Sm13 Sm22 3.584432 1_556
Sm13 Sm15 3.639902 1_555
Sm13 Sm27 3.680736 1_555
Sm13 Sm24 3.680736 1_555
Sm13 Sm30 3.687260 1_565
Sm13 Sm9 3.765859 1_565
Sm13 Sm6 3.765859 1_455
Sm13 Sm37 3.770880 1_456
Sm13 Sm34 3.770880 1_566
Sm13 Sm45 4.031142 1_556
Sm14 Sm18 3.584432 1_555
Sm14 Sm17 3.639902 1_555
Sm14 Sm16 3.639902 1_555
Sm14 Sm28 3.680736 1_555
Sm14 Sm29 3.680736 1_555
Sm14 Sm31 3.687260 1_665
Sm14 Sm33 3.770880 1_555
Sm14 Sm35 3.770880 1_655
Sm14 Sm44 4.031147 1_555
Sm15 Sm23 3.584432 1_556
Sm15 Sm25 3.680736 1_555
Sm15 Sm24 3.680736 1_555
Sm15 Sm30 3.687260 1_665
Sm15 Sm7 3.765859 1_565
Sm15 Sm6 3.765860 1_555
Sm15 Sm36 3.770880 1_556
Sm15 Sm34 3.770880 1_566
Sm15 Sm45 4.031147 1_556
Sm16 Sm19 3.584432 1_555
Sm16 Sm17 3.639902 1_555
Sm16 Sm29 3.680736 1_555
Sm16 Sm26 3.680736 1_555
Sm16 Sm31 3.687260 1_655
Sm16 Sm8 3.765859 1_655
Sm16 Sm32 3.770880 1_545
Sm16 Sm35 3.770880 1_655
Sm16 Sm44 4.031142 1_555
Sm17 Sm21 3.584432 1_555
Sm17 Sm28 3.680736 1_555
Sm17 Sm26 3.680736 1_555
Sm17 Sm31 3.687260 1_555
Sm17 Sm8 3.765860 1_555
Sm17 Sm33 3.770880 1_555
Sm17 Sm32 3.770880 1_545
Sm17 Sm44 4.031147 1_555
Mg0 Mg5 3.174539 1_445
Mg0 Mg2 3.174539 1_555
Mg0 Mg3 3.174539 1_545
Mg0 Sm18 3.431416 1_445
Mg0 Sm21 3.431416 1_555
Mg0 Sm19 3.431417 1_455
Mg0 Sm41 3.565714 1_555
Mg0 Sm38 3.565714 1_445
Mg0 Sm39 3.565714 1_455
Mg0 Sm0 3.645413 1_555
Mg0 Sm3 3.645413 1_445
Mg0 Sm1 3.645413 1_545
Mg1 Mg7 3.174539 1_555
Mg1 Mg4 3.174539 1_445
Mg1 Mg6 3.174539 1_455
Mg1 Sm23 3.431416 1_445
Mg1 Sm20 3.431416 1_555
Mg1 Sm22 3.431417 1_545
Mg1 Sm40 3.565714 1_555
Mg1 Sm43 3.565714 1_445
Mg1 Sm42 3.565714 1_545
Mg1 Sm2 3.645413 1_445
Mg1 Sm5 3.645413 1_555
Mg1 Sm4 3.645413 1_455
Mg2 Mg5 3.195813 1_445
Mg2 Mg3 3.195813 1_545
Mg2 Sm12 3.397996 1_555
Mg2 Sm25 3.417809 1_555
Mg2 Sm27 3.417810 1_555
Mg2 Sm39 3.527655 1_455
Mg2 Sm41 3.527655 1_555
Mg2 Sm30 3.571955 1_555
Mg2 Sm7 3.625883 1_455
Mg2 Sm9 3.625884 1_555
Mg2 Sm0 3.680344 1_555
Mg3 Mg5 3.195813 1_455
Mg3 Sm13 3.397996 1_555
Mg3 Sm27 3.417809 1_555
Mg3 Sm24 3.417809 1_555
Mg3 Sm38 3.527655 1_455
Mg3 Sm41 3.527655 1_565
Mg3 Sm30 3.571955 1_565
Mg3 Sm6 3.625883 1_455
Mg3 Sm9 3.625883 1_565
Mg3 Sm1 3.680344 1_555
Mg4 Mg7 3.195813 1_665
Mg4 Mg6 3.195813 1_565
Mg4 Sm14 3.397996 1_555
Mg4 Sm28 3.417809 1_555
Mg4 Sm29 3.417810 1_555
Mg4 Sm42 3.527655 1_655
Mg4 Sm43 3.527655 1_555
Mg4 Sm31 3.571955 1_665
Mg4 Sm10 3.625883 1_655
Mg4 Sm11 3.625884 1_555
Mg4 Sm2 3.680344 1_555
Mg5 Sm15 3.397996 1_555
Mg5 Sm25 3.417809 1_555
Mg5 Sm24 3.417810 1_555
Mg5 Sm39 3.527655 1_565
Mg5 Sm38 3.527655 1_555
Mg5 Sm30 3.571955 1_665
Mg5 Sm7 3.625883 1_565
Mg5 Sm6 3.625884 1_555
Mg5 Sm3 3.680344 1_555
Mg6 Mg7 3.195813 1_655
Mg6 Sm16 3.397996 1_555
Mg6 Sm29 3.417809 1_555
Mg6 Sm26 3.417809 1_555
Mg6 Sm40 3.527655 1_655
Mg6 Sm43 3.527655 1_545
Mg6 Sm31 3.571955 1_655
Mg6 Sm8 3.625883 1_655
Mg6 Sm11 3.625883 1_545
Mg6 Sm4 3.680344 1_555
Mg7 Sm17 3.397996 1_555
Mg7 Sm28 3.417809 1_555
Mg7 Sm26 3.417810 1_555
Mg7 Sm42 3.527655 1_545
Mg7 Sm40 3.527655 1_555
Mg7 Sm31 3.571955 1_555
Mg7 Sm10 3.625883 1_545
Mg7 Sm8 3.625884 1_555
Mg7 Sm5 3.680344 1_555
Pt0 Sm1 2.907064 1_545
Pt0 Sm3 2.907065 1_545
Pt0 Sm41 2.913224 1_555
Pt0 Sm39 2.913224 1_555
Pt0 Sm44 2.939499 1_555
Pt0 Sm32 3.022378 1_545
Pt0 Sm24 3.510694 1_545
Pt0 Sm21 3.570478 1_555
Pt0 Sm19 3.570478 1_555
Pt1 Sm0 2.907064 1_555
Pt1 Sm3 2.907064 1_555
Pt1 Sm41 2.913224 1_555
Pt1 Sm38 2.913224 1_555
Pt1 Sm44 2.939506 1_555
Pt1 Sm33 3.022378 1_555
Pt1 Sm25 3.510694 1_555
Pt1 Sm21 3.570478 1_555
Pt1 Sm18 3.570478 1_555
Pt2 Sm4 2.907064 1_565
Pt2 Sm5 2.907065 1_565
Pt2 Sm43 2.913224 1_555
Pt2 Sm42 2.913224 1_555
Pt2 Sm45 2.939499 1_555
Pt2 Sm34 3.022378 1_565
Pt2 Sm26 3.510694 1_565
Pt2 Sm23 3.570478 1_555
Pt2 Sm22 3.570478 1_555
Pt3 Sm1 2.907064 1_655
Pt3 Sm0 2.907065 1_655
Pt3 Sm38 2.913224 1_555
Pt3 Sm39 2.913224 1_555
Pt3 Sm44 2.939499 1_555
Pt3 Sm35 3.022378 1_655
Pt3 Sm27 3.510694 1_655
Pt3 Sm18 3.570478 1_555
Pt3 Sm19 3.570478 1_555
Pt4 Sm5 2.907064 1_555
Pt4 Sm2 2.907064 1_555
Pt4 Sm40 2.913224 1_555
Pt4 Sm43 2.913224 1_555
Pt4 Sm45 2.939506 1_555
Pt4 Sm36 3.022378 1_555
Pt4 Sm28 3.510694 1_555
Pt4 Sm20 3.570478 1_555
Pt4 Sm23 3.570478 1_555
Pt5 Sm4 2.907064 1_455
Pt5 Sm2 2.907065 1_455
Pt5 Sm40 2.913224 1_555
Pt5 Sm42 2.913224 1_555
Pt5 Sm45 2.939499 1_555
Pt5 Sm37 3.022378 1_455
Pt5 Sm29 3.510694 1_455
Pt5 Sm20 3.570478 1_555
Pt5 Sm22 3.570478 1_555
Pt6 Sm39 2.908545 1_555
Pt6 Sm41 2.908551 1_555
Pt6 Sm38 2.908551 1_555
Pt6 Sm7 2.915982 1_555
Pt6 Sm6 2.915988 1_555
Pt6 Sm9 2.915988 1_555
Pt6 Sm24 3.655834 1_545
Pt6 Sm27 3.655834 1_655
Pt6 Sm25 3.655843 1_555
Pt7 Sm42 2.908545 1_555
Pt7 Sm43 2.908551 1_555
Pt7 Sm40 2.908551 1_555
Pt7 Sm10 2.915982 1_555
Pt7 Sm11 2.915988 1_555
Pt7 Sm8 2.915988 1_555
Pt7 Sm29 3.655834 1_455
Pt7 Sm26 3.655834 1_565
Pt7 Sm28 3.655843 1_555
Pt8 Sm19 2.865110 1_455
Pt8 Sm21 2.865110 1_555
Pt8 Sm8 2.900530 1_555
Pt8 Sm31 2.909936 1_555
Pt8 Sm33 2.944386 1_555
Pt8 Sm35 2.944386 1_555
Pt8 Sm16 3.672105 1_455
Pt8 Sm17 3.672105 1_555
Pt9 Sm21 2.865110 1_565
Pt9 Sm18 2.865110 1_455
Pt9 Sm10 2.900530 1_555
Pt9 Sm31 2.909936 1_565
Pt9 Sm35 2.944386 1_555
Pt9 Sm32 2.944386 1_555
Pt9 Sm17 3.672105 1_565
Pt9 Sm14 3.672105 1_455
Pt10 Sm22 2.865110 1_655
Pt10 Sm23 2.865110 1_555
Pt10 Sm6 2.900530 1_554
Pt10 Sm30 2.909936 1_664
Pt10 Sm36 2.944386 1_555
Pt10 Sm37 2.944386 1_555
Pt10 Sm13 3.672105 1_654
Pt10 Sm15 3.672105 1_554
Pt11 Sm19 2.865110 1_565
Pt11 Sm18 2.865110 1_555
Pt11 Sm11 2.900530 1_555
Pt11 Sm31 2.909936 1_665
Pt11 Sm33 2.944386 1_555
Pt11 Sm32 2.944386 1_555
Pt11 Sm16 3.672105 1_565
Pt11 Sm14 3.672105 1_555
Pt12 Sm20 2.865110 1_655
Pt12 Sm23 2.865110 1_545
Pt12 Sm7 2.900530 1_554
Pt12 Sm30 2.909936 1_654
Pt12 Sm34 2.944386 1_555
Pt12 Sm37 2.944386 1_555
Pt12 Sm15 3.672105 1_544
Pt12 Sm12 3.672105 1_654
Pt13 Sm22 2.865110 1_545
Pt13 Sm20 2.865110 1_555
Pt13 Sm9 2.900530 1_554
Pt13 Sm30 2.909936 1_554
Pt13 Sm36 2.944386 1_555
Pt13 Sm34 2.944386 1_555
Pt13 Sm13 3.672105 1_544
Pt13 Sm12 3.672105 1_554
