# generated using pymatgen
data_Ta2FeB2
_symmetry_space_group_name_H-M   'P 1'
_cell_length_a   5.72141900
_cell_length_b   5.72141900
_cell_length_c   3.41385900
_cell_angle_alpha   90.00000000
_cell_angle_beta   90.00000000
_cell_angle_gamma   90.00000000
_symmetry_Int_Tables_number   1
_chemical_formula_structural   Ta2FeB2
_chemical_formula_sum   'Ta4 Fe2 B4'
_cell_volume   111.75142958
_cell_formula_units_Z   2
loop_
 _symmetry_equiv_pos_site_id
 _symmetry_equiv_pos_as_xyz
  1  'x, y, z'
loop_
 _atom_site_type_symbol
 _atom_site_label
 _atom_site_symmetry_multiplicity
 _atom_site_fract_x
 _atom_site_fract_y
 _atom_site_fract_z
 _atom_site_occupancy
  Ta  Ta0  1  0.67982700  0.17982700  0.50000000  1
  Ta  Ta1  1  0.32017300  0.82017300  0.50000000  1
  Ta  Ta2  1  0.17982700  0.32017300  0.50000000  1
  Ta  Ta3  1  0.82017300  0.67982700  0.50000000  1
  Fe  Fe0  1  0.50000000  0.50000000  0.00000000  1
  Fe  Fe1  1  0.00000000  0.00000000  0.00000000  1
  B  B0  1  0.11560800  0.61560800  0.00000000  1
  B  B1  1  0.88439200  0.38439200  0.00000000  1
  B  B2  1  0.61560800  0.88439200  0.00000000  1
  B  B3  1  0.38439200  0.11560800  0.00000000  1
loop_
_geom_bond_atom_site_label_1
_geom_bond_atom_site_label_2
_geom_bond_distance
_geom_bond_site_symmetry_2
Fe0 Ta3 2.706996 1_555
Fe0 Ta1 2.706996 1_554
Fe0 Ta1 2.706996 1_555
Fe0 Ta3 2.706996 1_554
Fe0 Ta0 2.706996 1_555
Fe0 Ta0 2.706996 1_554
Fe0 Ta2 2.706996 1_554
Fe0 Ta2 2.706996 1_555
Fe1 Ta2 2.706996 1_555
Fe1 Ta2 2.706996 1_554
Fe1 Ta0 2.706996 1_454
Fe1 Ta0 2.706996 1_455
Fe1 Ta1 2.706996 1_544
Fe1 Ta1 2.706996 1_545
Fe1 Ta3 2.706996 1_444
Fe1 Ta3 2.706996 1_445
B0 B1 1.870840 1_455
B0 Fe1 2.296581 1_565
B0 Fe0 2.296581 1_555
B0 Ta1 2.377665 1_554
B0 Ta1 2.377665 1_555
B0 Ta2 2.430174 1_554
B0 Ta2 2.430174 1_555
B0 Ta3 2.430174 1_454
B0 Ta3 2.430174 1_455
B1 Fe1 2.296581 1_655
B1 Fe0 2.296581 1_555
B1 Ta0 2.377665 1_555
B1 Ta0 2.377665 1_554
B1 Ta2 2.430174 1_655
B1 Ta2 2.430174 1_654
B1 Ta3 2.430174 1_554
B1 Ta3 2.430174 1_555
B2 B3 1.870840 1_565
B2 Fe0 2.296581 1_555
B2 Fe1 2.296581 1_665
B2 Ta3 2.377665 1_555
B2 Ta3 2.377665 1_554
B2 Ta1 2.430174 1_554
B2 Ta1 2.430174 1_555
B2 Ta0 2.430174 1_565
B2 Ta0 2.430174 1_564
B3 Fe1 2.296581 1_555
B3 Fe0 2.296581 1_555
B3 Ta2 2.377665 1_555
B3 Ta2 2.377665 1_554
B3 Ta1 2.430174 1_545
B3 Ta1 2.430174 1_544
B3 Ta0 2.430174 1_555
B3 Ta0 2.430174 1_554
