# generated using pymatgen
data_ZrCrW
_symmetry_space_group_name_H-M   'P 1'
_cell_length_a   5.23980480
_cell_length_b   5.23980480
_cell_length_c   5.23980480
_cell_angle_alpha   120.48064397
_cell_angle_beta   118.83304375
_cell_angle_gamma   90.60125963
_symmetry_Int_Tables_number   1
_chemical_formula_structural   ZrCrW
_chemical_formula_sum   'Zr2 Cr2 W2'
_cell_volume   102.22106585
_cell_formula_units_Z   2
loop_
 _symmetry_equiv_pos_site_id
 _symmetry_equiv_pos_as_xyz
  1  'x, y, z'
loop_
 _atom_site_type_symbol
 _atom_site_label
 _atom_site_symmetry_multiplicity
 _atom_site_fract_x
 _atom_site_fract_y
 _atom_site_fract_z
 _atom_site_occupancy
  Zr  Zr0  1  0.37314200  0.12314200  0.25000000  1
  Zr  Zr1  1  0.62685800  0.87685800  0.75000000  1
  Cr  Cr0  1  0.00000000  0.50000000  0.00000000  1
  Cr  Cr1  1  0.00000000  0.00000000  0.50000000  1
  W  W0  1  0.50000000  0.50000000  0.00000000  1
  W  W1  1  0.00000000  0.50000000  0.50000000  1
loop_
_geom_bond_atom_site_label_1
_geom_bond_atom_site_label_2
_geom_bond_distance
_geom_bond_site_symmetry_2
Zr0 Zr1 3.203441 1_555
Zr0 Zr1 3.203441 1_544
Zr0 Zr1 3.225393 1_444
Zr0 Zr1 3.225393 1_545
Cr0 Cr1 2.600846 1_554
Cr0 Cr1 2.600846 1_565
Cr0 W1 2.619902 1_554
Cr0 W1 2.619902 1_555
Cr0 W0 2.619902 1_555
Cr0 W0 2.619902 1_455
Cr0 Zr1 3.042436 1_444
Cr0 Zr0 3.042436 1_565
Cr0 Zr0 3.110135 1_454
Cr0 Zr1 3.110135 1_555
Cr0 Zr0 3.110135 1_555
Cr0 Zr1 3.110135 1_454
Cr1 W0 2.619902 1_445
Cr1 W1 2.619902 1_555
Cr1 W1 2.619902 1_545
Cr1 W0 2.619902 1_556
Cr1 Zr1 3.042436 1_445
Cr1 Zr0 3.042436 1_555
Cr1 Zr1 3.110135 1_444
Cr1 Zr0 3.110135 1_455
Cr1 Zr0 3.110135 1_556
Cr1 Zr1 3.110135 1_545
W0 W1 2.665977 1_655
W0 W1 2.665977 1_554
W0 Zr1 3.060260 1_544
W0 Zr0 3.060260 1_554
W0 Zr1 3.060260 1_555
W0 Zr0 3.060260 1_565
W0 Zr0 3.081169 1_555
W0 Zr1 3.081169 1_554
W1 Zr0 3.060260 1_555
W1 Zr1 3.060260 1_455
W1 Zr1 3.060260 1_444
W1 Zr0 3.060260 1_566
W1 Zr1 3.081169 1_555
W1 Zr0 3.081169 1_455
