# generated using pymatgen
data_Na4Au
_symmetry_space_group_name_H-M   'P 1'
_cell_length_a   8.11471499
_cell_length_b   8.11471499
_cell_length_c   8.11471499
_cell_angle_alpha   60.00000000
_cell_angle_beta   60.00000000
_cell_angle_gamma   60.00000000
_symmetry_Int_Tables_number   1
_chemical_formula_structural   Na4Au
_chemical_formula_sum   'Na8 Au2'
_cell_volume   377.83728814
_cell_formula_units_Z   2
loop_
 _symmetry_equiv_pos_site_id
 _symmetry_equiv_pos_as_xyz
  1  'x, y, z'
loop_
 _atom_site_type_symbol
 _atom_site_label
 _atom_site_symmetry_multiplicity
 _atom_site_fract_x
 _atom_site_fract_y
 _atom_site_fract_z
 _atom_site_occupancy
  Na  Na0  1  0.60931000  0.60931000  0.60931000  1
  Na  Na1  1  0.17207100  0.60931000  0.60931000  1
  Na  Na2  1  0.60931000  0.17207100  0.60931000  1
  Na  Na3  1  0.57792900  0.14069000  0.14069000  1
  Na  Na4  1  0.14069000  0.14069000  0.14069000  1
  Na  Na5  1  0.60931000  0.60931000  0.17207100  1
  Na  Na6  1  0.14069000  0.57792900  0.14069000  1
  Na  Na7  1  0.14069000  0.14069000  0.57792900  1
  Au  Au0  1  0.00000000  0.00000000  0.00000000  1
  Au  Au1  1  0.75000000  0.75000000  0.75000000  1
loop_
_geom_bond_atom_site_label_1
_geom_bond_atom_site_label_2
_geom_bond_distance
_geom_bond_site_symmetry_2
Au0 Na4 2.796483 1_555
Au0 Na6 2.796489 1_545
Au0 Na3 2.796489 1_455
Au0 Na7 2.796489 1_554
Au1 Na0 2.796483 1_555
Au1 Na2 2.796489 1_565
Au1 Na1 2.796489 1_655
Au1 Na5 2.796489 1_556
