# generated using pymatgen
data_NaO2
_symmetry_space_group_name_H-M   'P 1'
_cell_length_a   5.08844605
_cell_length_b   6.33364450
_cell_length_c   9.14499487
_cell_angle_alpha   90.00116795
_cell_angle_beta   89.99727376
_cell_angle_gamma   90.00541525
_symmetry_Int_Tables_number   1
_chemical_formula_structural   NaO2
_chemical_formula_sum   'Na8 O16'
_cell_volume   294.72862702
_cell_formula_units_Z   8
loop_
 _symmetry_equiv_pos_site_id
 _symmetry_equiv_pos_as_xyz
  1  'x, y, z'
loop_
 _atom_site_type_symbol
 _atom_site_label
 _atom_site_symmetry_multiplicity
 _atom_site_fract_x
 _atom_site_fract_y
 _atom_site_fract_z
 _atom_site_occupancy
  Na  Na0  1  0.33190294  0.72564541  0.62075651  1
  Na  Na1  1  0.83188055  0.77438743  0.37925491  1
  Na  Na2  1  0.66808018  0.22553795  0.87933392  1
  Na  Na3  1  0.16807889  0.27446094  0.12068307  1
  Na  Na4  1  0.66809706  0.27435459  0.37924349  1
  Na  Na5  1  0.16811945  0.22561257  0.62074509  1
  Na  Na6  1  0.33191982  0.77446205  0.12066608  1
  Na  Na7  1  0.83192111  0.72553906  0.87931693  1
  O  O0  1  0.27595412  0.02778078  0.93137422  1
  O  O1  1  0.77597375  0.47220752  0.06864671  1
  O  O2  1  0.72399936  0.52775484  0.56861624  1
  O  O3  1  0.22401020  0.97222761  0.43141302  1
  O  O4  1  0.72404588  0.97221922  0.06862578  1
  O  O5  1  0.22402625  0.52779248  0.93135329  1
  O  O6  1  0.27600064  0.47224516  0.43138376  1
  O  O7  1  0.77598980  0.02777239  0.56858698  1
  O  O8  1  0.57639020  0.03583715  0.66416526  1
  O  O9  1  0.07640197  0.46422675  0.33580679  1
  O  O10  1  0.42360568  0.53565904  0.83577545  1
  O  O11  1  0.92361894  0.96433328  0.16422068  1
  O  O12  1  0.42360980  0.96416285  0.33583474  1
  O  O13  1  0.92359803  0.53577325  0.66419321  1
  O  O14  1  0.57639432  0.46434096  0.16422455  1
  O  O15  1  0.07638106  0.03566672  0.83577932  1
loop_
_geom_bond_atom_site_label_1
_geom_bond_atom_site_label_2
_geom_bond_distance
_geom_bond_site_symmetry_2
Na0 O10 2.352126 1_555
Na0 O8 2.358952 1_565
Na0 O6 2.378191 1_555
Na0 O3 2.395647 1_555
Na0 O2 2.404022 1_555
Na0 O13 2.433114 1_455
Na1 O11 2.352065 1_555
Na1 O9 2.359116 1_655
Na1 O7 2.377864 1_565
Na1 O2 2.395855 1_555
Na1 O3 2.403869 1_655
Na1 O12 2.432864 1_555
Na2 O8 2.352247 1_555
Na2 O10 2.358985 1_555
Na2 O4 2.377427 1_546
Na2 O1 2.395693 1_556
Na2 O0 2.403339 1_555
Na2 O15 2.433456 1_655
Na3 O9 2.352108 1_555
Na3 O11 2.358733 1_445
Na3 O5 2.377667 1_554
Na3 O0 2.395719 1_554
Na3 O1 2.403442 1_455
Na3 O14 2.433365 1_555
Na4 O14 2.352126 1_555
Na4 O12 2.358952 1_545
Na4 O2 2.378191 1_555
Na4 O7 2.395647 1_555
Na4 O6 2.404022 1_555
Na4 O9 2.433114 1_655
Na5 O15 2.352065 1_555
Na5 O13 2.359116 1_455
Na5 O3 2.377864 1_545
Na5 O6 2.395855 1_555
Na5 O7 2.403869 1_455
Na5 O8 2.432864 1_555
Na6 O12 2.352247 1_555
Na6 O14 2.358985 1_555
Na6 O0 2.377427 1_564
Na6 O5 2.395693 1_554
Na6 O4 2.403339 1_555
Na6 O11 2.433456 1_455
Na7 O13 2.352108 1_555
Na7 O15 2.358733 1_665
Na7 O1 2.377667 1_556
Na7 O4 2.395719 1_556
Na7 O5 2.403442 1_655
Na7 O10 2.433365 1_555
O0 O15 1.340939 1_555
O1 O14 1.340787 1_555
O6 O9 1.340953 1_555
O7 O8 1.340920 1_555
O10 O5 1.340787 1_555
O11 O4 1.340939 1_555
O12 O3 1.340920 1_555
O13 O2 1.340953 1_555
