# generated using pymatgen
data_Mg3(Ni10P3)2
_symmetry_space_group_name_H-M   'P 1'
_cell_length_a   7.84313084
_cell_length_b   7.84313084
_cell_length_c   7.84313084
_cell_angle_alpha   60.00000000
_cell_angle_beta   60.00000000
_cell_angle_gamma   60.00000000
_symmetry_Int_Tables_number   1
_chemical_formula_structural   Mg3(Ni10P3)2
_chemical_formula_sum   'Mg3 Ni20 P6'
_cell_volume   341.15628897
_cell_formula_units_Z   1
loop_
 _symmetry_equiv_pos_site_id
 _symmetry_equiv_pos_as_xyz
  1  'x, y, z'
loop_
 _atom_site_type_symbol
 _atom_site_label
 _atom_site_symmetry_multiplicity
 _atom_site_fract_x
 _atom_site_fract_y
 _atom_site_fract_z
 _atom_site_occupancy
  Mg  Mg0  1  0.00000000  0.00000000  0.00000000  1
  Mg  Mg1  1  0.25000000  0.25000000  0.25000000  1
  Mg  Mg2  1  0.75000000  0.75000000  0.75000000  1
  Ni  Ni0  1  0.38415300  0.38415300  0.84754200  1
  Ni  Ni1  1  0.61584800  0.61584800  0.61584700  1
  Ni  Ni2  1  0.00000000  0.34918700  0.00000000  1
  Ni  Ni3  1  0.34918700  0.00000000  0.00000000  1
  Ni  Ni4  1  0.00000000  0.34918700  0.65081300  1
  Ni  Ni5  1  0.84754200  0.38415300  0.38415200  1
  Ni  Ni6  1  0.34918700  0.00000000  0.65081300  1
  Ni  Ni7  1  0.00000000  0.00000000  0.34918700  1
  Ni  Ni8  1  0.65081300  0.34918700  0.00000000  1
  Ni  Ni9  1  0.00000000  0.65081300  0.34918700  1
  Ni  Ni10  1  0.00000000  0.00000000  0.65081300  1
  Ni  Ni11  1  0.34918700  0.65081300  0.00000000  1
  Ni  Ni12  1  0.65081300  0.00000000  0.00000000  1
  Ni  Ni13  1  0.00000000  0.65081300  0.00000000  1
  Ni  Ni14  1  0.38415300  0.84754300  0.38415300  1
  Ni  Ni15  1  0.61584700  0.61584800  0.15245700  1
  Ni  Ni16  1  0.61584700  0.15245800  0.61584700  1
  Ni  Ni17  1  0.15245800  0.61584800  0.61584800  1
  Ni  Ni18  1  0.38415200  0.38415300  0.38415200  1
  Ni  Ni19  1  0.65081300  0.00000000  0.34918700  1
  P  P0  1  0.26436100  0.26436100  0.73563900  1
  P  P1  1  0.73563900  0.73563900  0.26436100  1
  P  P2  1  0.73563900  0.26436100  0.26436100  1
  P  P3  1  0.26436100  0.73563900  0.73563900  1
  P  P4  1  0.26436100  0.73563900  0.26436100  1
  P  P5  1  0.73563900  0.26436100  0.73563900  1
loop_
_geom_bond_atom_site_label_1
_geom_bond_atom_site_label_2
_geom_bond_distance
_geom_bond_site_symmetry_2
Mg0 Ni10 2.738719 1_554
Mg0 Ni4 2.738719 1_554
Mg0 Ni3 2.738719 1_555
Mg0 Ni9 2.738719 1_545
Mg0 Ni19 2.738719 1_455
Mg0 Ni13 2.738719 1_545
Mg0 Ni8 2.738719 1_455
Mg0 Ni12 2.738719 1_455
Mg0 Ni7 2.738719 1_555
Mg0 Ni6 2.738719 1_554
Mg0 Ni11 2.738719 1_545
Mg0 Ni2 2.738719 1_555
Mg0 P5 2.932256 1_454
Mg0 P1 2.932256 1_445
Mg0 P3 2.932256 1_544
Mg0 P2 2.932256 1_455
Mg0 P4 2.932256 1_545
Mg0 P0 2.932256 1_554
Mg1 Ni18 2.577290 1_555
Mg1 Ni14 2.577290 1_545
Mg1 Ni0 2.577297 1_554
Mg1 Ni5 2.577297 1_455
Mg2 Ni1 2.577290 1_555
Mg2 Ni15 2.577290 1_556
Mg2 Ni16 2.577297 1_565
Mg2 Ni17 2.577297 1_655
Ni0 P5 2.251161 1_555
Ni0 P3 2.251161 1_555
Ni0 P0 2.251167 1_555
Ni1 P1 2.251161 1_555
Ni1 P3 2.251167 1_555
Ni1 P5 2.251167 1_555
Ni2 P0 2.177542 1_554
Ni2 P2 2.177542 1_455
Ni3 P0 2.177542 1_554
Ni3 P4 2.177542 1_545
Ni4 P5 2.177542 1_455
Ni4 P0 2.177542 1_555
Ni5 P2 2.251161 1_555
Ni5 P1 2.251161 1_555
Ni5 P5 2.251167 1_555
Ni6 P3 2.177542 1_545
Ni6 P0 2.177542 1_555
Ni7 P4 2.177542 1_545
Ni7 P2 2.177542 1_455
Ni8 P5 2.177542 1_554
Ni8 P2 2.177542 1_555
Ni9 P1 2.177542 1_455
Ni9 P4 2.177542 1_555
Ni10 P3 2.177542 1_545
Ni10 P5 2.177542 1_455
Ni11 P3 2.177542 1_554
Ni11 P4 2.177542 1_555
Ni12 P5 2.177542 1_554
Ni12 P1 2.177542 1_545
Ni13 P3 2.177542 1_554
Ni13 P1 2.177542 1_455
Ni14 P1 2.251161 1_555
Ni14 P3 2.251161 1_555
Ni14 P4 2.251174 1_555
Ni15 P4 2.251161 1_555
Ni15 P2 2.251167 1_555
Ni15 P1 2.251167 1_555
Ni16 P0 2.251161 1_555
Ni16 P2 2.251161 1_555
Ni16 P5 2.251167 1_555
Ni17 P3 2.251154 1_555
Ni17 P0 2.251167 1_555
Ni17 P4 2.251167 1_555
Ni18 P4 2.251161 1_555
Ni18 P2 2.251167 1_555
Ni18 P0 2.251167 1_555
Ni19 P1 2.177542 1_545
Ni19 P2 2.177542 1_555
