# generated using pymatgen
data_Ba3LiIn11
_symmetry_space_group_name_H-M   'P 1'
_cell_length_a   10.52478596
_cell_length_b   10.52478596
_cell_length_c   9.61598800
_cell_angle_alpha   90.00000000
_cell_angle_beta   90.00000000
_cell_angle_gamma   119.99999975
_symmetry_Int_Tables_number   1
_chemical_formula_structural   Ba3LiIn11
_chemical_formula_sum   'Ba6 Li2 In22'
_cell_volume   922.46753447
_cell_formula_units_Z   2
loop_
 _symmetry_equiv_pos_site_id
 _symmetry_equiv_pos_as_xyz
  1  'x, y, z'
loop_
 _atom_site_type_symbol
 _atom_site_label
 _atom_site_symmetry_multiplicity
 _atom_site_fract_x
 _atom_site_fract_y
 _atom_site_fract_z
 _atom_site_occupancy
  Ba  Ba0  1  0.51690800  0.03381700  0.25000000  1
  Ba  Ba1  1  0.48309200  0.96618300  0.75000000  1
  Ba  Ba2  1  0.96618300  0.48309200  0.25000000  1
  Ba  Ba3  1  0.03381700  0.51690800  0.75000000  1
  Ba  Ba4  1  0.51690800  0.48309200  0.25000000  1
  Ba  Ba5  1  0.48309200  0.51690800  0.75000000  1
  Li  Li0  1  0.00000000  0.00000000  0.00000000  1
  Li  Li1  1  0.00000000  0.00000000  0.50000000  1
  In  In0  1  0.16937400  0.33874800  0.04727900  1
  In  In1  1  0.83062600  0.66125200  0.95272100  1
  In  In2  1  0.66125200  0.83062600  0.04727900  1
  In  In3  1  0.83062600  0.66125200  0.54727900  1
  In  In4  1  0.33874800  0.16937400  0.95272100  1
  In  In5  1  0.16937400  0.33874800  0.45272100  1
  In  In6  1  0.16937400  0.83062600  0.04727900  1
  In  In7  1  0.33874800  0.16937400  0.54727900  1
  In  In8  1  0.83062600  0.16937400  0.95272100  1
  In  In9  1  0.66125200  0.83062600  0.45272100  1
  In  In10  1  0.83062600  0.16937400  0.54727900  1
  In  In11  1  0.16937400  0.83062600  0.45272100  1
  In  In12  1  0.89735300  0.79470600  0.25000000  1
  In  In13  1  0.10264700  0.20529400  0.75000000  1
  In  In14  1  0.20529400  0.10264700  0.25000000  1
  In  In15  1  0.79470600  0.89735300  0.75000000  1
  In  In16  1  0.89735300  0.10264700  0.25000000  1
  In  In17  1  0.10264700  0.89735300  0.75000000  1
  In  In18  1  0.33333300  0.66666700  0.04561800  1
  In  In19  1  0.66666700  0.33333300  0.95438200  1
  In  In20  1  0.66666700  0.33333300  0.54561800  1
  In  In21  1  0.33333300  0.66666700  0.45438200  1
loop_
_geom_bond_atom_site_label_1
_geom_bond_atom_site_label_2
_geom_bond_distance
_geom_bond_site_symmetry_2
Ba0 In14 3.695523 1_555
Ba0 In16 3.695533 1_555
Ba0 In11 3.732306 1_545
Ba0 In6 3.732306 1_545
Ba0 In9 3.732313 1_545
Ba0 In2 3.732313 1_545
Ba0 In21 3.880906 1_545
Ba0 In18 3.880906 1_545
Ba0 In20 3.941276 1_555
Ba0 In19 3.941276 1_554
Ba0 In4 4.049502 1_554
Ba0 In7 4.049502 1_555
Ba0 In8 4.049509 1_554
Ba0 In10 4.049509 1_555
Ba1 In15 3.695523 1_555
Ba1 In17 3.695533 1_555
Ba1 In10 3.732306 1_565
Ba1 In8 3.732306 1_565
Ba1 In4 3.732313 1_565
Ba1 In7 3.732313 1_565
Ba1 In20 3.880906 1_565
Ba1 In19 3.880906 1_565
Ba1 In18 3.941276 1_556
Ba1 In21 3.941276 1_555
Ba1 In9 4.049502 1_555
Ba1 In2 4.049502 1_556
Ba1 In11 4.049509 1_555
Ba1 In6 4.049509 1_556
Ba2 In12 3.695523 1_555
Ba2 In16 3.695533 1_555
Ba2 In11 3.732306 1_655
Ba2 In6 3.732306 1_655
Ba2 In0 3.732313 1_655
Ba2 In5 3.732313 1_655
Ba2 In21 3.880906 1_655
Ba2 In18 3.880906 1_655
Ba2 In20 3.941276 1_555
Ba2 In19 3.941276 1_554
Ba2 In1 4.049502 1_554
Ba2 In3 4.049502 1_555
Ba2 In8 4.049509 1_554
Ba2 In10 4.049509 1_555
Ba3 In13 3.695523 1_555
Ba3 In17 3.695533 1_555
Ba3 In8 3.732306 1_455
Ba3 In10 3.732306 1_455
Ba3 In3 3.732313 1_455
Ba3 In1 3.732313 1_455
Ba3 In19 3.880906 1_455
Ba3 In20 3.880906 1_455
Ba3 In18 3.941276 1_556
Ba3 In21 3.941276 1_555
Ba3 In5 4.049502 1_555
Ba3 In0 4.049502 1_556
Ba3 In11 4.049509 1_555
Ba3 In6 4.049509 1_556
Ba4 In12 3.695529 1_555
Ba4 In14 3.695529 1_555
Ba4 In5 3.732305 1_555
Ba4 In2 3.732305 1_555
Ba4 In0 3.732305 1_555
Ba4 In9 3.732305 1_555
Ba4 In18 3.880906 1_555
Ba4 In21 3.880906 1_555
Ba4 In20 3.941288 1_555
Ba4 In19 3.941288 1_554
Ba4 In3 4.049509 1_555
Ba4 In1 4.049509 1_554
Ba4 In4 4.049509 1_554
Ba4 In7 4.049509 1_555
Ba5 In15 3.695529 1_555
Ba5 In13 3.695529 1_555
Ba5 In3 3.732305 1_555
Ba5 In7 3.732305 1_555
Ba5 In4 3.732305 1_555
Ba5 In1 3.732305 1_555
Ba5 In19 3.880906 1_555
Ba5 In20 3.880906 1_555
Ba5 In21 3.941288 1_555
Ba5 In18 3.941288 1_556
Ba5 In2 4.049509 1_556
Ba5 In9 4.049509 1_555
Ba5 In5 4.049509 1_555
Ba5 In0 4.049509 1_556
In0 In18 2.988936 1_555
In0 In13 3.106670 1_554
In0 Li0 3.120889 1_555
In0 In4 3.218699 1_554
In0 In8 3.218699 1_454
In0 In14 3.325229 1_555
In0 In16 3.325229 1_455
In1 In19 2.988936 1_555
In1 In12 3.106670 1_556
In1 Li0 3.120889 1_666
In1 In2 3.218699 1_556
In1 In6 3.218699 1_656
In1 In15 3.325229 1_555
In1 In17 3.325229 1_655
In2 Li0 3.120889 1_665
In2 In8 3.218699 1_564
In3 Li1 3.120889 1_665
In3 In9 3.218699 1_555
In4 Li0 3.120889 1_556
In4 In6 3.218699 1_546
In5 Li1 3.120889 1_555
In5 In7 3.218699 1_555
In6 Li0 3.120889 1_565
In7 Li1 3.120889 1_555
In8 Li0 3.120889 1_656
In9 Li1 3.120889 1_665
In10 In20 2.988927 1_555
In10 In16 3.106670 1_555
In10 Li1 3.120889 1_655
In10 In5 3.218699 1_655
In10 In9 3.218699 1_545
In10 In13 3.325229 1_655
In10 In15 3.325229 1_545
In11 In21 2.988927 1_555
In11 In17 3.106670 1_555
In11 Li1 3.120889 1_565
In11 In7 3.218699 1_565
In11 In3 3.218699 1_455
In11 In14 3.325229 1_565
In11 In12 3.325229 1_455
In12 Li0 3.046406 1_665
In12 Li1 3.046406 1_665
In12 In3 3.106670 1_555
In12 In16 3.241013 1_565
In12 In14 3.241013 1_665
In12 In2 3.325229 1_555
In12 In9 3.325229 1_555
In12 In6 3.325229 1_655
In13 Li0 3.046406 1_556
In13 Li1 3.046406 1_555
In13 In5 3.106670 1_555
In13 In17 3.241013 1_545
In13 In15 3.241013 1_445
In13 In7 3.325229 1_555
In13 In4 3.325229 1_555
In13 In8 3.325229 1_455
In14 Li0 3.046406 1_555
In14 Li1 3.046406 1_555
In14 In7 3.106670 1_555
In14 In4 3.106670 1_554
In14 In16 3.241013 1_455
In14 In5 3.325229 1_555
In14 In6 3.325229 1_545
In15 Li0 3.046406 1_666
In15 Li1 3.046406 1_665
In15 In9 3.106670 1_555
In15 In2 3.106670 1_556
In15 In17 3.241013 1_655
In15 In3 3.325229 1_555
In15 In8 3.325229 1_565
In16 Li1 3.046406 1_655
In16 Li0 3.046406 1_655
In16 In8 3.106670 1_554
In16 In2 3.325229 1_545
In16 In9 3.325229 1_545
In16 In5 3.325229 1_655
In17 Li0 3.046406 1_566
In17 Li1 3.046406 1_565
In17 In6 3.106670 1_556
In17 In7 3.325229 1_565
In17 In4 3.325229 1_565
In17 In3 3.325229 1_455
In18 In6 2.988927 1_555
In18 In2 2.988936 1_555
In19 In8 2.988927 1_555
In19 In4 2.988936 1_555
In20 In3 2.988936 1_555
In20 In7 2.988936 1_555
In21 In9 2.988936 1_555
In21 In5 2.988936 1_555
