# generated using pymatgen
data_K2Zn3Se4
_symmetry_space_group_name_H-M   'P 1'
_cell_length_a   9.41840603
_cell_length_b   9.41840603
_cell_length_c   9.41840603
_cell_angle_alpha   143.46094040
_cell_angle_beta   105.49980631
_cell_angle_gamma   85.94659358
_symmetry_Int_Tables_number   1
_chemical_formula_structural   K2Zn3Se4
_chemical_formula_sum   'K4 Zn6 Se8'
_cell_volume   463.97640852
_cell_formula_units_Z   2
loop_
 _symmetry_equiv_pos_site_id
 _symmetry_equiv_pos_as_xyz
  1  'x, y, z'
loop_
 _atom_site_type_symbol
 _atom_site_label
 _atom_site_symmetry_multiplicity
 _atom_site_fract_x
 _atom_site_fract_y
 _atom_site_fract_z
 _atom_site_occupancy
  K  K0  1  0.62318835  0.73423249  0.35742085  1
  K  K1  1  0.37681165  0.26576751  0.64257915  1
  K  K2  1  0.12318835  0.76576751  0.88895586  1
  K  K3  1  0.87681165  0.23423249  0.11104414  1
  Zn  Zn0  1  0.75000000  0.25000000  0.50000000  1
  Zn  Zn1  1  0.25000000  0.75000000  0.50000000  1
  Zn  Zn2  1  0.97705729  0.75000000  0.22705729  1
  Zn  Zn3  1  0.52294271  0.75000000  0.77294271  1
  Zn  Zn4  1  0.02294271  0.25000000  0.77294271  1
  Zn  Zn5  1  0.47705729  0.25000000  0.22705729  1
  Se  Se0  1  0.01417590  0.87118239  0.59595803  1
  Se  Se1  1  0.27522436  0.41821786  0.40404197  1
  Se  Se2  1  0.22477564  0.62881761  0.14299350  1
  Se  Se3  1  0.48582410  0.08178214  0.85700650  1
  Se  Se4  1  0.98582410  0.12881761  0.40404197  1
  Se  Se5  1  0.72477564  0.58178214  0.59595803  1
  Se  Se6  1  0.77522436  0.37118239  0.85700650  1
  Se  Se7  1  0.51417590  0.91821786  0.14299350  1
loop_
_geom_bond_atom_site_label_1
_geom_bond_atom_site_label_2
_geom_bond_distance
_geom_bond_site_symmetry_2
K0 Se5 3.444553 1_555
K0 Se0 3.444553 1_655
K0 Se2 3.521266 1_555
K0 Se7 3.521266 1_555
K0 Se3 3.526141 1_565
K0 Se6 3.526141 1_565
K0 Se3 3.601969 1_554
K0 Se6 3.601969 1_554
K1 Se1 3.444553 1_555
K1 Se4 3.444553 1_455
K1 Se6 3.521266 1_555
K1 Se3 3.521266 1_555
K1 Se7 3.526141 1_545
K1 Se2 3.526141 1_545
K1 Se7 3.601969 1_556
K1 Se2 3.601969 1_556
K2 Se2 3.444553 1_556
K2 Se7 3.444553 1_556
K2 Se0 3.521266 1_555
K2 Se5 3.521266 1_455
K2 Se1 3.526141 1_555
K2 Se4 3.526141 1_455
K2 Se1 3.601969 1_566
K2 Se4 3.601969 1_466
K3 Se6 3.444553 1_554
K3 Se3 3.444553 1_554
K3 Se4 3.521266 1_555
K3 Se1 3.521266 1_655
K3 Se5 3.526141 1_555
K3 Se0 3.526141 1_655
K3 Se5 3.601969 1_544
K3 Se0 3.601969 1_644
Se0 Zn4 2.434413 1_565
Se0 Zn1 2.471769 1_555
Se0 Zn2 2.555717 1_455
Se1 Zn5 2.434413 1_555
Se1 Zn1 2.471769 1_555
Se1 Zn3 2.555717 1_555
Se2 Zn4 2.434413 1_554
Se2 Zn1 2.471769 1_555
Se2 Zn2 2.555717 1_455
Se3 Zn5 2.434413 1_556
Se3 Zn1 2.471769 1_545
Se3 Zn3 2.555717 1_545
Se4 Zn2 2.434413 1_545
Se4 Zn0 2.471769 1_555
Se4 Zn4 2.555717 1_655
Se5 Zn3 2.434413 1_555
Se5 Zn0 2.471769 1_555
Se5 Zn5 2.555717 1_555
Se6 Zn2 2.434413 1_556
Se6 Zn0 2.471769 1_555
Se6 Zn4 2.555717 1_655
Se7 Zn3 2.434413 1_554
Se7 Zn0 2.471769 1_565
Se7 Zn5 2.555717 1_565
