# generated using pymatgen
data_Ba6Bi2(TeO6)3
_symmetry_space_group_name_H-M   'P 1'
_cell_length_a   10.54176910
_cell_length_b   10.54176910
_cell_length_c   10.54176910
_cell_angle_alpha   146.54214169
_cell_angle_beta   131.65386129
_cell_angle_gamma   60.07139717
_symmetry_Int_Tables_number   1
_chemical_formula_structural   Ba6Bi2(TeO6)3
_chemical_formula_sum   'Ba6 Bi2 Te3 O18'
_cell_volume   478.16736781
_cell_formula_units_Z   1
loop_
 _symmetry_equiv_pos_site_id
 _symmetry_equiv_pos_as_xyz
  1  'x, y, z'
loop_
 _atom_site_type_symbol
 _atom_site_label
 _atom_site_symmetry_multiplicity
 _atom_site_fract_x
 _atom_site_fract_y
 _atom_site_fract_z
 _atom_site_occupancy
  Ba  Ba0  1  0.77869900  0.50000000  0.27869900  1
  Ba  Ba1  1  0.38751100  0.15421500  0.23329600  1
  Ba  Ba2  1  0.07908100  0.84578500  0.23329600  1
  Ba  Ba3  1  0.22130100  0.50000000  0.72130100  1
  Ba  Ba4  1  0.92091900  0.15421500  0.76670400  1
  Ba  Ba5  1  0.61248900  0.84578500  0.76670400  1
  Bi  Bi0  1  0.66592300  0.66592300  0.00000000  1
  Bi  Bi1  1  0.33407700  0.33407700  0.00000000  1
  Te  Te0  1  0.50000000  0.00000000  0.50000000  1
  Te  Te1  1  0.16876700  0.66876700  0.50000000  1
  Te  Te2  1  0.83123300  0.33123300  0.50000000  1
  O  O0  1  0.72174000  0.00000000  0.72174000  1
  O  O1  1  0.39938100  0.66864000  0.73074100  1
  O  O2  1  0.06210200  0.33136000  0.73074100  1
  O  O3  1  0.57762300  0.84706400  0.26944000  1
  O  O4  1  0.24480100  0.51508100  0.27028000  1
  O  O5  1  0.90582000  0.18008900  0.27426900  1
  O  O6  1  0.42237700  0.69181700  0.26944000  1
  O  O7  1  0.09418000  0.36844900  0.27426900  1
  O  O8  1  0.75519900  0.02547900  0.27028000  1
  O  O9  1  0.27826000  0.00000000  0.27826000  1
  O  O10  1  0.93789800  0.66864000  0.26925900  1
  O  O11  1  0.60061900  0.33136000  0.26925900  1
  O  O12  1  0.42237700  0.15293600  0.73056000  1
  O  O13  1  0.09418000  0.81991100  0.72573100  1
  O  O14  1  0.75519900  0.48491900  0.72972000  1
  O  O15  1  0.57762300  0.30818300  0.73056000  1
  O  O16  1  0.24480100  0.97452100  0.72972000  1
  O  O17  1  0.90582000  0.63155200  0.72573100  1
loop_
_geom_bond_atom_site_label_1
_geom_bond_atom_site_label_2
_geom_bond_distance
_geom_bond_site_symmetry_2
Ba0 O17 2.912397 1_555
Ba0 O5 2.912404 1_555
Ba0 O13 2.912404 1_655
Ba0 O7 2.912404 1_655
Ba0 O0 3.073976 1_565
Ba0 O0 3.073976 1_554
Ba0 O10 3.079139 1_555
Ba0 O11 3.079148 1_555
Ba0 O6 3.235856 1_555
Ba0 O15 3.235856 1_554
Ba0 O12 3.235858 1_554
Ba0 O3 3.235865 1_555
Ba1 O13 2.833396 1_544
Ba1 O7 2.833396 1_555
Ba1 O9 2.841423 1_555
Ba1 O3 3.035478 1_545
Ba1 O15 3.035487 1_555
Ba1 O1 3.045867 1_544
Ba1 O1 3.045867 1_555
Ba1 O16 3.079147 1_544
Ba1 O4 3.079147 1_555
Ba1 O11 3.248179 1_555
Ba1 O8 3.262352 1_555
Ba1 O14 3.262352 1_555
Ba2 O5 2.833396 1_465
Ba2 O17 2.833401 1_454
Ba2 O9 2.841423 1_565
Ba2 O12 3.035484 1_565
Ba2 O6 3.035487 1_555
Ba2 O2 3.045863 1_565
Ba2 O2 3.045869 1_554
Ba2 O14 3.079147 1_454
Ba2 O8 3.079147 1_465
Ba2 O10 3.248188 1_455
Ba2 O4 3.262352 1_555
Ba2 O16 3.262352 1_555
Ba3 O17 2.912403 1_455
Ba3 O7 2.912404 1_555
Ba3 O13 2.912404 1_555
Ba3 O5 2.912404 1_455
Ba3 O9 3.073976 1_555
Ba3 O9 3.073976 1_566
Ba3 O2 3.079139 1_555
Ba3 O1 3.079148 1_555
Ba3 O6 3.235856 1_556
Ba3 O15 3.235856 1_555
Ba3 O3 3.235858 1_556
Ba3 O12 3.235865 1_555
Ba4 O13 2.833396 1_645
Ba4 O7 2.833396 1_656
Ba4 O0 2.841423 1_555
Ba4 O3 3.035484 1_545
Ba4 O15 3.035487 1_555
Ba4 O10 3.045863 1_545
Ba4 O10 3.045869 1_556
Ba4 O16 3.079147 1_645
Ba4 O4 3.079147 1_656
Ba4 O2 3.248188 1_655
Ba4 O8 3.262352 1_555
Ba4 O14 3.262352 1_555
Ba5 O17 2.833395 1_555
Ba5 O5 2.833396 1_566
Ba5 O0 2.841423 1_565
Ba5 O12 3.035478 1_565
Ba5 O6 3.035487 1_555
Ba5 O11 3.045867 1_555
Ba5 O11 3.045867 1_566
Ba5 O14 3.079147 1_555
Ba5 O8 3.079147 1_566
Ba5 O1 3.248179 1_555
Ba5 O4 3.262352 1_555
Ba5 O16 3.262352 1_555
Bi0 O3 2.295925 1_555
Bi0 O15 2.295929 1_554
Bi0 O8 2.312083 1_565
Bi0 O14 2.312083 1_554
Bi0 O10 2.325196 1_555
Bi0 O1 2.325200 1_554
Bi1 O12 2.295925 1_554
Bi1 O6 2.295929 1_555
Bi1 O4 2.312083 1_555
Bi1 O16 2.312083 1_544
Bi1 O2 2.325196 1_554
Bi1 O11 2.325200 1_555
O0 Te0 1.914412 1_555
O1 Te1 1.992124 1_555
O2 Te2 1.992128 1_455
O3 Te0 1.991266 1_565
O4 Te1 1.967116 1_555
O5 Te2 1.931327 1_555
O6 Te0 1.991262 1_565
O7 Te1 1.931327 1_555
O8 Te2 1.967116 1_555
O9 Te0 1.914412 1_555
O10 Te1 1.992128 1_655
O11 Te2 1.992124 1_555
O12 Te0 1.991266 1_555
O13 Te1 1.931327 1_555
O14 Te2 1.967116 1_555
O15 Te0 1.991262 1_555
O16 Te1 1.967116 1_555
O17 Te2 1.931335 1_555
