# generated using pymatgen
data_K5La2
_symmetry_space_group_name_H-M   'P 1'
_cell_length_a   10.68803472
_cell_length_b   10.68803472
_cell_length_c   12.71486817
_cell_angle_alpha   72.95058866
_cell_angle_beta   72.95058866
_cell_angle_gamma   39.22542571
_symmetry_Int_Tables_number   1
_chemical_formula_structural   K5La2
_chemical_formula_sum   'K10 La4'
_cell_volume   872.87868486
_cell_formula_units_Z   2
loop_
 _symmetry_equiv_pos_site_id
 _symmetry_equiv_pos_as_xyz
  1  'x, y, z'
loop_
 _atom_site_type_symbol
 _atom_site_label
 _atom_site_symmetry_multiplicity
 _atom_site_fract_x
 _atom_site_fract_y
 _atom_site_fract_z
 _atom_site_occupancy
  K  K0  1  0.01011200  0.54881500  0.32051100  1
  K  K1  1  0.45118500  0.98988800  0.17948900  1
  K  K2  1  0.98988800  0.45118500  0.67948900  1
  K  K3  1  0.54881500  0.01011200  0.82051100  1
  K  K4  1  0.15948900  0.84051100  0.25000000  1
  K  K5  1  0.84051100  0.15948900  0.75000000  1
  K  K6  1  0.61842100  0.25209900  0.11711800  1
  K  K7  1  0.74790100  0.38157900  0.38288200  1
  K  K8  1  0.38157900  0.74790100  0.88288200  1
  K  K9  1  0.25209900  0.61842100  0.61711800  1
  La  La0  1  0.91197200  0.43660800  0.03092300  1
  La  La1  1  0.56339200  0.08802800  0.46907700  1
  La  La2  1  0.08802800  0.56339200  0.96907700  1
  La  La3  1  0.43660800  0.91197200  0.53092300  1
loop_
_geom_bond_atom_site_label_1
_geom_bond_atom_site_label_2
_geom_bond_distance
_geom_bond_site_symmetry_2
K0 K7 4.159865 1_455
K0 La1 4.247526 1_465
K0 La2 4.277315 1_554
K0 K4 4.278541 1_555
K0 La1 4.331937 1_555
K0 K1 4.337969 1_545
K0 K1 4.337969 1_455
K0 K2 4.352812 1_455
K0 La3 4.405364 1_455
K0 K6 4.692644 1_555
K0 La3 4.761098 1_545
K0 La0 4.785321 1_455
K1 K6 4.159865 1_565
K1 La0 4.247526 1_465
K1 La3 4.277315 1_555
K1 K4 4.278541 1_555
K1 La0 4.331937 1_555
K1 K3 4.352812 1_564
K1 La2 4.405364 1_564
K1 K7 4.692644 1_555
K1 La2 4.761098 1_654
K1 La1 4.785321 1_565
K2 K9 4.159865 1_655
K2 La3 4.247526 1_645
K2 La0 4.277315 1_556
K2 K5 4.278541 1_555
K2 La3 4.331937 1_555
K2 K3 4.337969 1_655
K2 K3 4.337969 1_565
K2 La1 4.405364 1_655
K2 K8 4.692644 1_555
K2 La1 4.761098 1_565
K2 La2 4.785321 1_655
K3 K8 4.159865 1_545
K3 La2 4.247526 1_645
K3 La1 4.277315 1_555
K3 K5 4.278541 1_555
K3 La2 4.331937 1_555
K3 La0 4.405364 1_546
K3 K9 4.692644 1_555
K3 La0 4.761098 1_456
K3 La3 4.785321 1_545
K4 K7 4.195930 1_465
K4 K6 4.195930 1_465
K4 K7 4.476963 1_555
K4 K6 4.476963 1_555
K4 K9 4.579840 1_555
K4 K8 4.579840 1_554
K5 K8 4.195930 1_645
K5 K9 4.195930 1_645
K5 K8 4.476963 1_555
K5 K9 4.476963 1_555
K5 K6 4.579840 1_556
K5 K7 4.579840 1_555
K6 K8 4.212166 1_554
K6 La1 4.347465 1_555
K6 La2 4.484617 1_554
K6 La0 4.608278 1_555
K7 K9 4.212166 1_555
K7 La0 4.347465 1_555
K7 La3 4.484617 1_555
K7 La1 4.608278 1_555
K8 La3 4.347465 1_555
K8 La0 4.484617 1_556
K8 La2 4.608278 1_555
K9 La2 4.347465 1_555
K9 La1 4.484617 1_555
K9 La3 4.608278 1_555
La0 La2 2.907464 1_654
La1 La3 2.907464 1_545
