# generated using pymatgen
data_CeNdS2
_symmetry_space_group_name_H-M   'P 1'
_cell_length_a   7.11717165
_cell_length_b   7.11717165
_cell_length_c   7.11717177
_cell_angle_alpha   33.02791942
_cell_angle_beta   33.02791942
_cell_angle_gamma   33.02792835
_symmetry_Int_Tables_number   1
_chemical_formula_structural   CeNdS2
_chemical_formula_sum   'Ce1 Nd1 S2'
_cell_volume   95.31448491
_cell_formula_units_Z   1
loop_
 _symmetry_equiv_pos_site_id
 _symmetry_equiv_pos_as_xyz
  1  'x, y, z'
loop_
 _atom_site_type_symbol
 _atom_site_label
 _atom_site_symmetry_multiplicity
 _atom_site_fract_x
 _atom_site_fract_y
 _atom_site_fract_z
 _atom_site_occupancy
  Ce  Ce0  1  -0.00000000  -0.00000000  0.00000000  1
  Nd  Nd0  1  0.50000000  0.50000000  0.50000000  1
  S  S0  1  0.24981328  0.24981328  0.24981328  1
  S  S1  1  0.75018672  0.75018672  0.75018672  1
loop_
_geom_bond_atom_site_label_1
_geom_bond_atom_site_label_2
_geom_bond_distance
_geom_bond_site_symmetry_2
Ce0 S1 2.880011 1_445
Ce0 S0 2.880011 1_554
Ce0 S1 2.880011 1_454
Ce0 S1 2.880011 1_544
Ce0 S0 2.880011 1_545
Ce0 S0 2.880011 1_455
Nd0 S0 2.875612 1_556
Nd0 S1 2.875612 1_554
Nd0 S0 2.875612 1_655
Nd0 S0 2.875612 1_565
Nd0 S1 2.875612 1_545
Nd0 S1 2.875612 1_455
