# generated using pymatgen
data_Cs2ErSi6O14F
_symmetry_space_group_name_H-M   'P 1'
_cell_length_a   14.68463990
_cell_length_b   15.28679061
_cell_length_c   15.28679061
_cell_angle_alpha   109.99335729
_cell_angle_beta   90.00000000
_cell_angle_gamma   90.00000000
_symmetry_Int_Tables_number   1
_chemical_formula_structural   Cs2ErSi6O14F
_chemical_formula_sum   'Cs16 Er8 Si48 O112 F8'
_cell_volume   3224.77987010
_cell_formula_units_Z   8
loop_
 _symmetry_equiv_pos_site_id
 _symmetry_equiv_pos_as_xyz
  1  'x, y, z'
loop_
 _atom_site_type_symbol
 _atom_site_label
 _atom_site_symmetry_multiplicity
 _atom_site_fract_x
 _atom_site_fract_y
 _atom_site_fract_z
 _atom_site_occupancy
  Cs  Cs0  1  0.98040354  0.09373806  0.90626194  1
  Cs  Cs1  1  0.01959646  0.90626194  0.09373806  1
  Cs  Cs2  1  0.48040354  0.40626194  0.59373806  1
  Cs  Cs3  1  0.51959646  0.59373806  0.40626194  1
  Cs  Cs4  1  0.99779288  0.61341383  0.38658617  1
  Cs  Cs5  1  0.00220712  0.38658617  0.61341383  1
  Cs  Cs6  1  0.49779288  0.88658617  0.11341383  1
  Cs  Cs7  1  0.50220712  0.11341383  0.88658617  1
  Cs  Cs8  1  0.98855842  0.89519887  0.60209767  1
  Cs  Cs9  1  0.01144158  0.60209767  0.89519887  1
  Cs  Cs10  1  0.48855842  0.10209767  0.39519887  1
  Cs  Cs11  1  0.51144158  0.39519887  0.10209767  1
  Cs  Cs12  1  0.01144158  0.10480113  0.39790233  1
  Cs  Cs13  1  0.98855842  0.39790233  0.10480113  1
  Cs  Cs14  1  0.51144158  0.89790233  0.60480113  1
  Cs  Cs15  1  0.48855842  0.60480113  0.89790233  1
  Er  Er0  1  0.74829316  0.74979145  0.49965446  1
  Er  Er1  1  0.25170684  0.49965446  0.74979145  1
  Er  Er2  1  0.24829316  0.99965446  0.24979145  1
  Er  Er3  1  0.75170684  0.24979145  0.99965446  1
  Er  Er4  1  0.25170684  0.25020855  0.50034554  1
  Er  Er5  1  0.74829316  0.50034554  0.25020855  1
  Er  Er6  1  0.75170684  0.00034554  0.75020855  1
  Er  Er7  1  0.24829316  0.75020855  0.00034554  1
  Si  Si0  1  0.10243447  0.63059919  0.65553562  1
  Si  Si1  1  0.89756553  0.65553562  0.63059919  1
  Si  Si2  1  0.60243447  0.15553562  0.13059919  1
  Si  Si3  1  0.39756553  0.13059919  0.15553562  1
  Si  Si4  1  0.89756553  0.36940081  0.34446438  1
  Si  Si5  1  0.10243447  0.34446438  0.36940081  1
  Si  Si6  1  0.39756553  0.84446438  0.86940081  1
  Si  Si7  1  0.60243447  0.86940081  0.84446438  1
  Si  Si8  1  0.24862747  0.83996849  0.47953382  1
  Si  Si9  1  0.75137253  0.47953382  0.83996849  1
  Si  Si10  1  0.74862747  0.97953382  0.33996849  1
  Si  Si11  1  0.25137253  0.33996849  0.97953382  1
  Si  Si12  1  0.75137253  0.16003151  0.52046618  1
  Si  Si13  1  0.24862747  0.52046618  0.16003151  1
  Si  Si14  1  0.25137253  0.02046618  0.66003151  1
  Si  Si15  1  0.74862747  0.66003151  0.02046618  1
  Si  Si16  1  0.39364173  0.67368902  0.68126270  1
  Si  Si17  1  0.60635827  0.68126270  0.67368902  1
  Si  Si18  1  0.89364173  0.18126270  0.17368902  1
  Si  Si19  1  0.10635827  0.17368902  0.18126270  1
  Si  Si20  1  0.60635827  0.32631098  0.31873730  1
  Si  Si21  1  0.39364173  0.31873730  0.32631098  1
  Si  Si22  1  0.10635827  0.81873730  0.82631098  1
  Si  Si23  1  0.89364173  0.82631098  0.81873730  1
  Si  Si24  1  0.89407041  0.83632762  0.34205517  1
  Si  Si25  1  0.10592959  0.34205517  0.83632762  1
  Si  Si26  1  0.39407041  0.84205517  0.33632762  1
  Si  Si27  1  0.60592959  0.33632762  0.84205517  1
  Si  Si28  1  0.10592959  0.16367238  0.65794483  1
  Si  Si29  1  0.89407041  0.65794483  0.16367238  1
  Si  Si30  1  0.60592959  0.15794483  0.66367238  1
  Si  Si31  1  0.39407041  0.66367238  0.15794483  1
  Si  Si32  1  0.10466517  0.85148160  0.32745516  1
  Si  Si33  1  0.89533483  0.32745516  0.85148160  1
  Si  Si34  1  0.60466517  0.82745516  0.35148160  1
  Si  Si35  1  0.39533483  0.35148160  0.82745516  1
  Si  Si36  1  0.89533483  0.14851840  0.67254484  1
  Si  Si37  1  0.10466517  0.67254484  0.14851840  1
  Si  Si38  1  0.39533483  0.17254484  0.64851840  1
  Si  Si39  1  0.60466517  0.64851840  0.17254484  1
  Si  Si40  1  0.25684902  0.65465392  0.52176375  1
  Si  Si41  1  0.74315098  0.52176375  0.65465392  1
  Si  Si42  1  0.75684902  0.02176375  0.15465392  1
  Si  Si43  1  0.24315098  0.15465392  0.02176375  1
  Si  Si44  1  0.74315098  0.34534608  0.47823625  1
  Si  Si45  1  0.25684902  0.47823625  0.34534608  1
  Si  Si46  1  0.24315098  0.97823625  0.84534608  1
  Si  Si47  1  0.75684902  0.84534608  0.97823625  1
  O  O0  1  0.16999024  0.61993431  0.56615822  1
  O  O1  1  0.83000976  0.56615822  0.61993431  1
  O  O2  1  0.66999024  0.06615822  0.11993431  1
  O  O3  1  0.33000976  0.11993431  0.06615822  1
  O  O4  1  0.83000976  0.38006569  0.43384178  1
  O  O5  1  0.16999024  0.43384178  0.38006569  1
  O  O6  1  0.33000976  0.93384178  0.88006569  1
  O  O7  1  0.66999024  0.88006569  0.93384178  1
  O  O8  1  0.34818761  0.59405409  0.71222575  1
  O  O9  1  0.65181239  0.71222575  0.59405409  1
  O  O10  1  0.84818761  0.21222575  0.09405409  1
  O  O11  1  0.15181239  0.09405409  0.21222575  1
  O  O12  1  0.65181239  0.40594591  0.28777425  1
  O  O13  1  0.34818761  0.28777425  0.40594591  1
  O  O14  1  0.15181239  0.78777425  0.90594591  1
  O  O15  1  0.84818761  0.90594591  0.78777425  1
  O  O16  1  0.11608356  0.74164525  0.25835475  1
  O  O17  1  0.88391644  0.25835475  0.74164525  1
  O  O18  1  0.61608356  0.75835475  0.24164525  1
  O  O19  1  0.38391644  0.24164525  0.75835475  1
  O  O20  1  0.22231989  0.73834653  0.48576197  1
  O  O21  1  0.77768011  0.48576197  0.73834653  1
  O  O22  1  0.72231989  0.98576197  0.23834653  1
  O  O23  1  0.27768011  0.23834653  0.98576197  1
  O  O24  1  0.77768011  0.26165347  0.51423803  1
  O  O25  1  0.22231989  0.51423803  0.26165347  1
  O  O26  1  0.27768011  0.01423803  0.76165347  1
  O  O27  1  0.72231989  0.76165347  0.01423803  1
  O  O28  1  0.84482236  0.79573694  0.41277355  1
  O  O29  1  0.15517764  0.41277355  0.79573694  1
  O  O30  1  0.34482236  0.91277355  0.29573694  1
  O  O31  1  0.65517764  0.29573694  0.91277355  1
  O  O32  1  0.15517764  0.20426306  0.58722645  1
  O  O33  1  0.84482236  0.58722645  0.20426306  1
  O  O34  1  0.65517764  0.08722645  0.70426306  1
  O  O35  1  0.34482236  0.70426306  0.08722645  1
  O  O36  1  0.00122558  0.86332100  0.37420801  1
  O  O37  1  0.99877442  0.37420801  0.86332100  1
  O  O38  1  0.50122558  0.87420801  0.36332100  1
  O  O39  1  0.49877442  0.36332100  0.87420801  1
  O  O40  1  0.99877442  0.13667900  0.62579199  1
  O  O41  1  0.00122558  0.62579199  0.13667900  1
  O  O42  1  0.49877442  0.12579199  0.63667900  1
  O  O43  1  0.50122558  0.63667900  0.12579199  1
  O  O44  1  0.00000000  0.60733112  0.60733112  1
  O  O45  1  0.50000000  0.10733112  0.10733112  1
  O  O46  1  0.00000000  0.39266888  0.39266888  1
  O  O47  1  0.50000000  0.89266888  0.89266888  1
  O  O48  1  0.16910134  0.86663439  0.42001979  1
  O  O49  1  0.83089866  0.42001979  0.86663439  1
  O  O50  1  0.66910134  0.92001979  0.36663439  1
  O  O51  1  0.33089866  0.36663439  0.92001979  1
  O  O52  1  0.83089866  0.13336561  0.57998021  1
  O  O53  1  0.16910134  0.57998021  0.13336561  1
  O  O54  1  0.33089866  0.07998021  0.63336561  1
  O  O55  1  0.66910134  0.63336561  0.07998021  1
  O  O56  1  0.12448349  0.92815184  0.28016805  1
  O  O57  1  0.87551651  0.28016805  0.92815184  1
  O  O58  1  0.62448349  0.78016805  0.42815184  1
  O  O59  1  0.37551651  0.42815184  0.78016805  1
  O  O60  1  0.87551651  0.07184816  0.71983195  1
  O  O61  1  0.12448349  0.71983195  0.07184816  1
  O  O62  1  0.37551651  0.21983195  0.57184816  1
  O  O63  1  0.62448349  0.57184816  0.21983195  1
  O  O64  1  0.50000000  0.64554986  0.64554986  1
  O  O65  1  0.00000000  0.14554986  0.14554986  1
  O  O66  1  0.50000000  0.35445014  0.35445014  1
  O  O67  1  0.00000000  0.85445014  0.85445014  1
  O  O68  1  0.35015150  0.83886564  0.43575853  1
  O  O69  1  0.64984850  0.43575853  0.83886564  1
  O  O70  1  0.85015150  0.93575853  0.33886564  1
  O  O71  1  0.14984850  0.33886564  0.93575853  1
  O  O72  1  0.64984850  0.16113436  0.56424147  1
  O  O73  1  0.35015150  0.56424147  0.16113436  1
  O  O74  1  0.14984850  0.06424147  0.66113436  1
  O  O75  1  0.85015150  0.66113436  0.06424147  1
  O  O76  1  0.25000000  0.91412783  0.58587217  1
  O  O77  1  0.75000000  0.58587217  0.91412783  1
  O  O78  1  0.75000000  0.08587217  0.41412783  1
  O  O79  1  0.25000000  0.41412783  0.08587217  1
  O  O80  1  0.34375631  0.69034996  0.59051241  1
  O  O81  1  0.65624369  0.59051241  0.69034996  1
  O  O82  1  0.84375631  0.09051241  0.19034996  1
  O  O83  1  0.15624369  0.19034996  0.09051241  1
  O  O84  1  0.65624369  0.30965004  0.40948759  1
  O  O85  1  0.34375631  0.40948759  0.30965004  1
  O  O86  1  0.15624369  0.90948759  0.80965004  1
  O  O87  1  0.84375631  0.80965004  0.90948759  1
  O  O88  1  0.10376399  0.74151592  0.72036176  1
  O  O89  1  0.89623601  0.72036176  0.74151592  1
  O  O90  1  0.60376399  0.22036176  0.24151592  1
  O  O91  1  0.39623601  0.24151592  0.22036176  1
  O  O92  1  0.89623601  0.25848408  0.27963824  1
  O  O93  1  0.10376399  0.27963824  0.25848408  1
  O  O94  1  0.39623601  0.77963824  0.75848408  1
  O  O95  1  0.60376399  0.75848408  0.77963824  1
  O  O96  1  0.89617684  0.76784231  0.23215769  1
  O  O97  1  0.10382316  0.23215769  0.76784231  1
  O  O98  1  0.39617684  0.73215769  0.26784231  1
  O  O99  1  0.60382316  0.26784231  0.73215769  1
  O  O100  1  0.29327620  0.56879739  0.43120261  1
  O  O101  1  0.70672380  0.43120261  0.56879739  1
  O  O102  1  0.79327620  0.93120261  0.06879739  1
  O  O103  1  0.20672380  0.06879739  0.93120261  1
  O  O104  1  0.12721582  0.56069693  0.70951545  1
  O  O105  1  0.87278418  0.70951545  0.56069693  1
  O  O106  1  0.62721582  0.20951545  0.06069693  1
  O  O107  1  0.37278418  0.06069693  0.20951545  1
  O  O108  1  0.87278418  0.43930307  0.29048455  1
  O  O109  1  0.12721582  0.29048455  0.43930307  1
  O  O110  1  0.37278418  0.79048455  0.93930307  1
  O  O111  1  0.62721582  0.93930307  0.79048455  1
  F  F0  1  0.75000000  0.89389639  0.60610361  1
  F  F1  1  0.25000000  0.60610361  0.89389639  1
  F  F2  1  0.25000000  0.10610361  0.39389639  1
  F  F3  1  0.75000000  0.39389639  0.10610361  1
  F  F4  1  0.74129083  0.60533063  0.39466937  1
  F  F5  1  0.25870917  0.39466937  0.60533063  1
  F  F6  1  0.24129083  0.89466937  0.10533063  1
  F  F7  1  0.75870917  0.10533063  0.89466937  1
loop_
_geom_bond_atom_site_label_1
_geom_bond_atom_site_label_2
_geom_bond_distance
_geom_bond_site_symmetry_2
Cs0 O57 3.155023 1_555
Cs0 O60 3.155023 1_555
Cs0 F7 3.268421 1_555
Cs0 O103 3.381615 1_655
Cs0 O10 3.425758 1_556
Cs0 O15 3.425758 1_545
Cs0 O65 3.479871 1_656
Cs0 O67 3.479871 1_645
Cs1 O56 3.155023 1_555
Cs1 O61 3.155023 1_555
Cs1 F6 3.268421 1_555
Cs1 O102 3.381615 1_455
Cs1 O11 3.425758 1_565
Cs1 O14 3.425758 1_554
Cs1 O65 3.479871 1_565
Cs1 O67 3.479871 1_554
Cs2 O62 3.155023 1_555
Cs2 O59 3.155023 1_555
Cs2 F5 3.268421 1_555
Cs2 O101 3.381615 1_555
Cs2 O13 3.425758 1_555
Cs2 O8 3.425758 1_555
Cs2 O66 3.479871 1_555
Cs2 O64 3.479871 1_555
Cs3 O63 3.155023 1_555
Cs3 O58 3.155023 1_555
Cs3 F4 3.268421 1_555
Cs3 O100 3.381615 1_555
Cs3 O12 3.425758 1_555
Cs3 O9 3.425758 1_555
Cs3 O66 3.479871 1_555
Cs3 O64 3.479871 1_555
Cs4 O105 3.152507 1_555
Cs4 O108 3.152507 1_555
Cs4 O44 3.407549 1_655
Cs4 O46 3.407549 1_655
Cs4 O28 3.494474 1_555
Cs4 O33 3.494474 1_555
Cs4 O16 3.651045 1_655
Cs5 O109 3.152507 1_555
Cs5 O104 3.152507 1_555
Cs5 O44 3.407549 1_555
Cs5 O46 3.407549 1_555
Cs5 O29 3.494474 1_555
Cs5 O32 3.494474 1_555
Cs5 O17 3.651045 1_455
Cs6 O110 3.152507 1_554
Cs6 O107 3.152507 1_565
Cs6 O47 3.407549 1_554
Cs6 O45 3.407549 1_565
Cs6 O35 3.494474 1_555
Cs6 O30 3.494474 1_555
Cs6 O18 3.651045 1_555
Cs7 O111 3.152507 1_545
Cs7 O106 3.152507 1_556
Cs7 O47 3.407549 1_545
Cs7 O45 3.407549 1_556
Cs7 O34 3.494474 1_555
Cs7 O31 3.494474 1_555
Cs7 O19 3.651045 1_555
Cs8 O60 3.156492 1_565
Cs8 O105 3.181123 1_555
Cs8 O36 3.353709 1_655
Cs8 O74 3.392214 1_665
Cs8 O15 3.466058 1_555
Cs8 O28 3.483378 1_555
Cs8 F0 3.503855 1_555
Cs8 O40 3.586952 1_565
Cs8 O48 3.759748 1_655
Cs8 O88 3.814989 1_655
Cs9 O61 3.156492 1_556
Cs9 O104 3.181123 1_555
Cs9 O37 3.353709 1_455
Cs9 O75 3.392214 1_456
Cs9 O14 3.466058 1_555
Cs9 O29 3.483378 1_555
Cs9 F1 3.503855 1_555
Cs9 O41 3.586952 1_556
Cs9 O49 3.759748 1_455
Cs9 O89 3.814989 1_455
Cs10 O62 3.156492 1_555
Cs10 O107 3.181123 1_555
Cs10 O38 3.353709 1_545
Cs10 O72 3.392214 1_555
Cs10 O13 3.466058 1_555
Cs10 O30 3.483378 1_545
Cs10 F2 3.503855 1_555
Cs10 O42 3.586952 1_555
Cs10 O50 3.759748 1_545
Cs10 O90 3.814989 1_555
Cs11 O63 3.156492 1_555
Cs11 O106 3.181123 1_555
Cs11 O39 3.353709 1_554
Cs11 O73 3.392214 1_555
Cs11 O12 3.466058 1_555
Cs11 O31 3.483378 1_554
Cs11 F3 3.503855 1_555
Cs11 O43 3.586952 1_555
Cs11 O51 3.759748 1_554
Cs11 O91 3.814989 1_555
Cs12 O56 3.156492 1_545
Cs12 O109 3.181123 1_555
Cs12 O40 3.353709 1_455
Cs12 O70 3.392214 1_445
Cs12 O11 3.466058 1_555
Cs12 O32 3.483378 1_555
Cs12 F2 3.503855 1_555
Cs12 O36 3.586952 1_545
Cs12 O52 3.759748 1_455
Cs12 O92 3.814989 1_455
Cs13 O57 3.156492 1_554
Cs13 O108 3.181123 1_555
Cs13 O41 3.353709 1_655
Cs13 O71 3.392214 1_654
Cs13 O10 3.466058 1_555
Cs13 O33 3.483378 1_555
Cs13 F3 3.503855 1_555
Cs13 O37 3.586952 1_554
Cs13 O53 3.759748 1_655
Cs13 O93 3.814989 1_655
Cs14 O58 3.156492 1_555
Cs14 O111 3.181123 1_555
Cs14 O42 3.353709 1_565
Cs14 O68 3.392214 1_555
Cs14 O9 3.466058 1_555
Cs14 O34 3.483378 1_565
Cs14 F0 3.503855 1_555
Cs14 O38 3.586952 1_555
Cs14 O54 3.759748 1_565
Cs14 O94 3.814989 1_555
Cs15 O59 3.156492 1_555
Cs15 O110 3.181123 1_555
Cs15 O43 3.353709 1_556
Cs15 O69 3.392214 1_555
Cs15 O8 3.466058 1_555
Cs15 O35 3.483378 1_556
Cs15 F1 3.503855 1_555
Cs15 O39 3.586952 1_555
Cs15 O55 3.759748 1_556
Cs15 O95 3.814989 1_555
Er0 O28 2.214593 1_555
Er0 O105 2.232639 1_555
Er0 O9 2.232975 1_555
Er0 F4 2.244871 1_555
Er0 F0 2.247242 1_555
Er0 O58 2.250101 1_555
Er1 O29 2.214593 1_555
Er1 O104 2.232639 1_555
Er1 O8 2.232975 1_555
Er1 F5 2.244871 1_555
Er1 F1 2.247242 1_555
Er1 O59 2.250101 1_555
Er2 O30 2.214593 1_555
Er2 O107 2.232639 1_565
Er2 O11 2.232975 1_565
Er2 F6 2.244871 1_555
Er2 F2 2.247242 1_565
Er2 O56 2.250101 1_555
Er3 O31 2.214593 1_555
Er3 O106 2.232639 1_556
Er3 O10 2.232975 1_556
Er3 F7 2.244871 1_555
Er3 F3 2.247242 1_556
Er3 O57 2.250101 1_555
Er4 O32 2.214593 1_555
Er4 O109 2.232639 1_555
Er4 O13 2.232975 1_555
Er4 F5 2.244871 1_555
Er4 F2 2.247242 1_555
Er4 O62 2.250101 1_555
Er5 O33 2.214593 1_555
Er5 O108 2.232639 1_555
Er5 O12 2.232975 1_555
Er5 F4 2.244871 1_555
Er5 F3 2.247242 1_555
Er5 O63 2.250101 1_555
Er6 O34 2.214593 1_555
Er6 O111 2.232639 1_545
Er6 O15 2.232975 1_545
Er6 F7 2.244871 1_555
Er6 F0 2.247242 1_545
Er6 O60 2.250101 1_555
Er7 O35 2.214593 1_555
Er7 O110 2.232639 1_554
Er7 O14 2.232975 1_554
Er7 F6 2.244871 1_555
Er7 F1 2.247242 1_554
Er7 O61 2.250101 1_555
O0 Si40 1.617234 1_555
O0 Si0 1.650801 1_555
O1 Si41 1.617234 1_555
O1 Si1 1.650801 1_555
O2 Si42 1.617234 1_555
O2 Si2 1.650801 1_555
O3 Si43 1.617234 1_555
O3 Si3 1.650801 1_555
O4 Si44 1.617234 1_555
O4 Si4 1.650801 1_555
O5 Si45 1.617234 1_555
O5 Si5 1.650801 1_555
O6 Si46 1.617234 1_555
O6 Si6 1.650801 1_555
O7 Si47 1.617234 1_555
O7 Si7 1.650801 1_555
O8 Si16 1.595481 1_555
O9 Si17 1.595481 1_555
O10 Si18 1.595481 1_555
O11 Si19 1.595481 1_555
O12 Si20 1.595481 1_555
O13 Si21 1.595481 1_555
O14 Si22 1.595481 1_555
O15 Si23 1.595481 1_555
O16 Si32 1.658400 1_555
O16 Si37 1.658400 1_555
O17 Si33 1.658400 1_555
O17 Si36 1.658400 1_555
O18 Si39 1.658400 1_555
O18 Si34 1.658400 1_555
O19 Si38 1.658400 1_555
O19 Si35 1.658400 1_555
O20 Si8 1.634847 1_555
O20 Si40 1.636556 1_555
O21 Si9 1.634847 1_555
O21 Si41 1.636556 1_555
O22 Si10 1.634847 1_555
O22 Si42 1.636556 1_565
O23 Si11 1.634847 1_555
O23 Si43 1.636556 1_556
O24 Si12 1.634847 1_555
O24 Si44 1.636556 1_555
O25 Si13 1.634847 1_555
O25 Si45 1.636556 1_555
O26 Si14 1.634847 1_555
O26 Si46 1.636556 1_545
O27 Si15 1.634847 1_555
O27 Si47 1.636556 1_554
O28 Si24 1.592299 1_555
O29 Si25 1.592299 1_555
O30 Si26 1.592299 1_555
O31 Si27 1.592299 1_555
O32 Si28 1.592299 1_555
O33 Si29 1.592299 1_555
O34 Si30 1.592299 1_555
O35 Si31 1.592299 1_555
O36 Si24 1.658065 1_455
O36 Si32 1.662041 1_555
O37 Si25 1.658065 1_655
O37 Si33 1.662041 1_555
O38 Si26 1.658065 1_555
O38 Si34 1.662041 1_555
O39 Si27 1.658065 1_555
O39 Si35 1.662041 1_555
O40 Si28 1.658065 1_655
O40 Si36 1.662041 1_555
O41 Si29 1.658065 1_455
O41 Si37 1.662041 1_555
O42 Si30 1.658065 1_555
O42 Si38 1.662041 1_555
O43 Si31 1.658065 1_555
O43 Si39 1.662041 1_555
O44 Si0 1.659202 1_555
O44 Si1 1.659202 1_455
O45 Si3 1.659202 1_555
O45 Si2 1.659202 1_555
O46 Si5 1.659202 1_555
O46 Si4 1.659202 1_455
O47 Si6 1.659202 1_555
O47 Si7 1.659202 1_555
O48 Si8 1.615937 1_555
O48 Si32 1.651401 1_555
O49 Si9 1.615937 1_555
O49 Si33 1.651401 1_555
O50 Si10 1.615937 1_555
O50 Si34 1.651401 1_555
O51 Si11 1.615937 1_555
O51 Si35 1.651401 1_555
O52 Si12 1.615937 1_555
O52 Si36 1.651401 1_555
O53 Si13 1.615937 1_555
O53 Si37 1.651401 1_555
O54 Si14 1.615937 1_555
O54 Si38 1.651401 1_555
O55 Si15 1.615937 1_555
O55 Si39 1.651401 1_555
O56 Si32 1.600085 1_555
O57 Si33 1.600085 1_555
O58 Si34 1.600085 1_555
O59 Si35 1.600085 1_555
O60 Si36 1.600085 1_555
O61 Si37 1.600085 1_555
O62 Si38 1.600085 1_555
O63 Si39 1.600085 1_555
O64 Si16 1.661871 1_555
O64 Si17 1.661871 1_555
O65 Si18 1.661871 1_455
O65 Si19 1.661871 1_555
O66 Si21 1.661871 1_555
O66 Si20 1.661871 1_555
O67 Si23 1.661871 1_455
O67 Si22 1.661871 1_555
O68 Si8 1.631868 1_555
O68 Si26 1.667133 1_555
O69 Si9 1.631868 1_555
O69 Si27 1.667133 1_555
O70 Si10 1.631868 1_555
O70 Si24 1.667133 1_555
O71 Si11 1.631868 1_555
O71 Si25 1.667133 1_555
O72 Si12 1.631868 1_555
O72 Si30 1.667133 1_555
O73 Si13 1.631868 1_555
O73 Si31 1.667133 1_555
O74 Si14 1.631868 1_555
O74 Si28 1.667133 1_555
O75 Si15 1.631868 1_555
O75 Si29 1.667133 1_555
O76 Si8 1.633369 1_555
O76 Si14 1.633369 1_565
O77 Si9 1.633369 1_555
O77 Si15 1.633369 1_556
O78 Si10 1.633369 1_545
O78 Si12 1.633369 1_555
O79 Si11 1.633369 1_554
O79 Si13 1.633369 1_555
O80 Si40 1.624435 1_555
O80 Si16 1.663628 1_555
O81 Si41 1.624435 1_555
O81 Si17 1.663628 1_555
O82 Si42 1.624435 1_555
O82 Si18 1.663628 1_555
O83 Si43 1.624435 1_555
O83 Si19 1.663628 1_555
O84 Si44 1.624435 1_555
O84 Si20 1.663628 1_555
O85 Si45 1.624435 1_555
O85 Si21 1.663628 1_555
O86 Si46 1.624435 1_555
O86 Si22 1.663628 1_555
O87 Si47 1.624435 1_555
O87 Si23 1.663628 1_555
O88 Si0 1.645706 1_555
O88 Si22 1.646428 1_555
O89 Si1 1.645706 1_555
O89 Si23 1.646428 1_555
O90 Si2 1.645706 1_555
O90 Si20 1.646428 1_555
O91 Si3 1.645706 1_555
O91 Si21 1.646428 1_555
O92 Si4 1.645706 1_555
O92 Si18 1.646428 1_555
O93 Si5 1.645706 1_555
O93 Si19 1.646428 1_555
O94 Si6 1.645706 1_555
O94 Si16 1.646428 1_555
O95 Si7 1.645706 1_555
O95 Si17 1.646428 1_555
O96 Si29 1.648218 1_555
O96 Si24 1.648218 1_555
O97 Si28 1.648218 1_555
O97 Si25 1.648218 1_555
O98 Si31 1.648218 1_555
O98 Si26 1.648218 1_555
O99 Si30 1.648218 1_555
O99 Si27 1.648218 1_555
O100 Si45 1.637916 1_555
O100 Si40 1.637916 1_555
O101 Si44 1.637916 1_555
O101 Si41 1.637916 1_555
O102 Si47 1.637916 1_554
O102 Si42 1.637916 1_565
O103 Si46 1.637916 1_545
O103 Si43 1.637916 1_556
O104 Si0 1.599433 1_555
O105 Si1 1.599433 1_555
O106 Si2 1.599433 1_555
O107 Si3 1.599433 1_555
O108 Si4 1.599433 1_555
O109 Si5 1.599433 1_555
O110 Si6 1.599433 1_555
O111 Si7 1.599433 1_555
