# generated using pymatgen
data_Cs3U2PO10
_symmetry_space_group_name_H-M   'P 1'
_cell_length_a   8.03827863
_cell_length_b   8.03827863
_cell_length_c   12.59744133
_cell_angle_alpha   69.24493011
_cell_angle_beta   69.24493011
_cell_angle_gamma   62.00962052
_symmetry_Int_Tables_number   1
_chemical_formula_structural   Cs3U2PO10
_chemical_formula_sum   'Cs6 U4 P2 O20'
_cell_volume   654.44920550
_cell_formula_units_Z   2
loop_
 _symmetry_equiv_pos_site_id
 _symmetry_equiv_pos_as_xyz
  1  'x, y, z'
loop_
 _atom_site_type_symbol
 _atom_site_label
 _atom_site_symmetry_multiplicity
 _atom_site_fract_x
 _atom_site_fract_y
 _atom_site_fract_z
 _atom_site_occupancy
  Cs  Cs0  1  0.91353900  0.48560000  0.18317400  1
  Cs  Cs1  1  0.51440000  0.08646100  0.31682600  1
  Cs  Cs2  1  0.08646100  0.51440000  0.81682600  1
  Cs  Cs3  1  0.48560000  0.91353900  0.68317400  1
  Cs  Cs4  1  0.50000000  0.50000000  0.00000000  1
  Cs  Cs5  1  0.50000000  0.50000000  0.50000000  1
  U  U0  1  0.50000000  0.00000000  0.00000000  1
  U  U1  1  0.00000000  0.50000000  0.50000000  1
  U  U2  1  0.00000000  0.00000000  0.00000000  1
  U  U3  1  0.00000000  0.00000000  0.50000000  1
  P  P0  1  0.23233300  0.76766700  0.25000000  1
  P  P1  1  0.76766700  0.23233300  0.75000000  1
  O  O0  1  0.71497000  0.99094900  0.06806500  1
  O  O1  1  0.00905100  0.28503000  0.43193500  1
  O  O2  1  0.28503000  0.00905100  0.93193500  1
  O  O3  1  0.99094900  0.71497000  0.56806500  1
  O  O4  1  0.31633600  0.20365300  0.07205300  1
  O  O5  1  0.79634700  0.68366400  0.42794700  1
  O  O6  1  0.68366400  0.79634700  0.92794700  1
  O  O7  1  0.20365300  0.31633600  0.57205300  1
  O  O8  1  0.43438000  0.75440200  0.16710600  1
  O  O9  1  0.24559800  0.56562000  0.33289400  1
  O  O10  1  0.56562000  0.24559800  0.83289400  1
  O  O11  1  0.75440200  0.43438000  0.66710600  1
  O  O12  1  0.90014300  0.23785400  0.04229500  1
  O  O13  1  0.76214600  0.09985700  0.45770500  1
  O  O14  1  0.09985700  0.76214600  0.95770500  1
  O  O15  1  0.23785400  0.90014300  0.54229500  1
  O  O16  1  0.08548600  0.83102700  0.17560100  1
  O  O17  1  0.16897300  0.91451400  0.32439900  1
  O  O18  1  0.91451400  0.16897300  0.82439900  1
  O  O19  1  0.83102700  0.08548600  0.67560100  1
loop_
_geom_bond_atom_site_label_1
_geom_bond_atom_site_label_2
_geom_bond_distance
_geom_bond_site_symmetry_2
Cs0 O4 3.118924 1_655
Cs0 O12 3.157327 1_555
Cs0 O1 3.157794 1_655
Cs0 O14 3.299565 1_654
Cs0 O8 3.460566 1_555
Cs0 O0 3.539916 1_555
Cs0 O5 3.597658 1_555
Cs0 O16 3.598650 1_655
Cs1 O5 3.118924 1_545
Cs1 O13 3.157327 1_555
Cs1 O0 3.157794 1_545
Cs1 O15 3.299565 1_545
Cs1 O9 3.460566 1_555
Cs1 O1 3.539916 1_555
Cs1 O4 3.597658 1_555
Cs1 O17 3.598650 1_545
Cs2 O6 3.118924 1_455
Cs2 O14 3.157327 1_555
Cs2 O3 3.157794 1_455
Cs2 O12 3.299565 1_456
Cs2 O10 3.460566 1_555
Cs2 O2 3.539916 1_555
Cs2 O7 3.597658 1_555
Cs2 O18 3.598650 1_455
Cs3 O7 3.118924 1_565
Cs3 O15 3.157327 1_555
Cs3 O2 3.157794 1_565
Cs3 O13 3.299565 1_565
Cs3 O11 3.460566 1_555
Cs3 O3 3.539916 1_555
Cs3 O6 3.597658 1_555
Cs3 O19 3.598650 1_565
Cs4 O14 3.021059 1_554
Cs4 O12 3.021059 1_555
Cs4 O6 3.081689 1_554
Cs4 O4 3.081689 1_555
Cs4 O10 3.184829 1_554
Cs4 O8 3.184829 1_555
Cs5 O15 3.021059 1_555
Cs5 O13 3.021059 1_555
Cs5 O7 3.081689 1_555
Cs5 O5 3.081689 1_555
Cs5 O9 3.184829 1_555
Cs5 O11 3.184829 1_555
O0 U0 2.148104 1_565
O0 U2 2.170200 1_665
O1 U1 2.148104 1_555
O1 U3 2.170200 1_555
O2 U0 2.148104 1_556
O2 U2 2.170200 1_556
O3 U1 2.148104 1_655
O3 U3 2.170200 1_665
O4 U0 1.875674 1_555
O5 U1 1.875674 1_655
O6 U0 1.875674 1_566
O7 U1 1.875674 1_555
O8 P0 1.566496 1_555
O8 U0 2.419112 1_565
O9 P0 1.566496 1_555
O9 U1 2.419112 1_555
O10 P1 1.566496 1_555
O10 U0 2.419112 1_556
O11 P1 1.566496 1_555
O11 U1 2.419112 1_655
O12 U2 1.887340 1_655
O13 U3 1.887340 1_655
O14 U2 1.887340 1_566
O15 U3 1.887340 1_565
O16 P0 1.553263 1_555
O16 U2 2.298324 1_565
O17 P0 1.553263 1_555
O17 U3 2.298324 1_565
O18 P1 1.553263 1_555
O18 U2 2.298324 1_656
O19 P1 1.553263 1_555
O19 U3 2.298324 1_655
