# generated using pymatgen
data_SrCaEuBiO6
_symmetry_space_group_name_H-M   'P 1'
_cell_length_a   5.98315646
_cell_length_b   5.98315646
_cell_length_c   8.68918173
_cell_angle_alpha   90.00000000
_cell_angle_beta   90.00000000
_cell_angle_gamma   90.00000000
_symmetry_Int_Tables_number   1
_chemical_formula_structural   SrCaEuBiO6
_chemical_formula_sum   'Sr2 Ca2 Eu2 Bi2 O12'
_cell_volume   311.05672848
_cell_formula_units_Z   2
loop_
 _symmetry_equiv_pos_site_id
 _symmetry_equiv_pos_as_xyz
  1  'x, y, z'
loop_
 _atom_site_type_symbol
 _atom_site_label
 _atom_site_symmetry_multiplicity
 _atom_site_fract_x
 _atom_site_fract_y
 _atom_site_fract_z
 _atom_site_occupancy
  Sr  Sr0  1  0.50000000  0.50000000  0.50000000  1
  Sr  Sr1  1  0.00000000  0.00000000  0.50000000  1
  Ca  Ca0  1  0.50000000  0.50000000  -0.00000000  1
  Ca  Ca1  1  0.00000000  -0.00000000  -0.00000000  1
  Eu  Eu0  1  0.50000000  0.00000000  0.24706598  1
  Eu  Eu1  1  0.00000000  0.50000000  0.75293402  1
  Bi  Bi0  1  0.50000000  -0.00000000  0.75446663  1
  Bi  Bi1  1  0.00000000  0.50000000  0.24553337  1
  O  O0  1  0.50000000  -0.00000000  0.99510226  1
  O  O1  1  0.00000000  0.50000000  0.00489774  1
  O  O2  1  0.50000000  -0.00000000  0.50830111  1
  O  O3  1  0.00000000  0.50000000  0.49169889  1
  O  O4  1  0.66001781  0.68054485  0.75887856  1
  O  O5  1  0.33998219  0.31945515  0.75887856  1
  O  O6  1  0.81945515  0.16001781  0.75887856  1
  O  O7  1  0.18054485  0.83998219  0.75887856  1
  O  O8  1  0.83998219  0.18054485  0.24112144  1
  O  O9  1  0.16001781  0.81945515  0.24112144  1
  O  O10  1  0.68054485  0.66001781  0.24112144  1
  O  O11  1  0.31945515  0.33998219  0.24112144  1
loop_
_geom_bond_atom_site_label_1
_geom_bond_atom_site_label_2
_geom_bond_distance
_geom_bond_site_symmetry_2
Ca0 O11 2.544243 1_555
Ca0 O5 2.544243 1_554
Ca0 O10 2.544243 1_555
Ca0 O4 2.544243 1_554
Ca0 O0 2.991881 1_564
Ca0 O0 2.991881 1_554
Ca0 O1 2.991881 1_555
Ca0 O1 2.991881 1_655
Ca1 O8 2.544243 1_455
Ca1 O9 2.544243 1_545
Ca1 O6 2.544243 1_454
Ca1 O7 2.544243 1_544
Ca1 O0 2.991881 1_554
Ca1 O1 2.991881 1_545
Ca1 O0 2.991881 1_454
Ca1 O1 2.991881 1_555
Eu0 O0 2.189359 1_554
Eu0 O2 2.269920 1_555
Eu0 O9 2.303778 1_545
Eu0 O8 2.303778 1_555
Eu0 O10 2.303778 1_545
Eu0 O11 2.303778 1_555
Eu1 O1 2.189359 1_556
Eu1 O3 2.269920 1_555
Eu1 O4 2.303778 1_455
Eu1 O7 2.303778 1_555
Eu1 O6 2.303778 1_455
Eu1 O5 2.303778 1_555
Bi0 O0 2.090927 1_555
Bi0 O5 2.138075 1_555
Bi0 O7 2.138075 1_545
Bi0 O4 2.138075 1_545
Bi0 O6 2.138075 1_555
Bi0 O2 2.138977 1_555
Bi1 O1 2.090927 1_555
Bi1 O8 2.138075 1_455
Bi1 O11 2.138075 1_555
Bi1 O10 2.138075 1_455
Bi1 O9 2.138075 1_555
Bi1 O3 2.138977 1_555
O2 Sr1 2.992448 1_655
O2 Sr1 2.992448 1_555
O2 Sr0 2.992448 1_545
O2 Sr0 2.992448 1_555
O3 Sr1 2.992448 1_565
O3 Sr1 2.992448 1_555
O3 Sr0 2.992448 1_555
O3 Sr0 2.992448 1_455
O4 Sr0 2.672737 1_555
O5 Sr0 2.672737 1_555
O6 Sr1 2.672737 1_655
O7 Sr1 2.672737 1_565
O8 Sr1 2.672737 1_655
O9 Sr1 2.672737 1_565
O10 Sr0 2.672737 1_555
O11 Sr0 2.672737 1_555
