# generated using pymatgen
data_Li2Al(NiO2)3
_symmetry_space_group_name_H-M   'P 1'
_cell_length_a   5.04081722
_cell_length_b   5.04103776
_cell_length_c   9.71674579
_cell_angle_alpha   94.89432484
_cell_angle_beta   85.10150794
_cell_angle_gamma   60.26195522
_symmetry_Int_Tables_number   1
_chemical_formula_structural   Li2Al(NiO2)3
_chemical_formula_sum   'Li4 Al2 Ni6 O12'
_cell_volume   211.27199788
_cell_formula_units_Z   2
loop_
 _symmetry_equiv_pos_site_id
 _symmetry_equiv_pos_as_xyz
  1  'x, y, z'
loop_
 _atom_site_type_symbol
 _atom_site_label
 _atom_site_symmetry_multiplicity
 _atom_site_fract_x
 _atom_site_fract_y
 _atom_site_fract_z
 _atom_site_occupancy
  Li  Li0  1  0.91875800  0.41889200  0.24999800  1
  Li  Li1  1  0.41441300  0.91432500  0.74999300  1
  Li  Li2  1  0.58994800  0.09016700  0.24999700  1
  Li  Li3  1  0.08550800  0.58566100  0.75001800  1
  Al  Al0  1  0.66890700  0.66591100  0.00002700  1
  Al  Al1  1  0.16588900  0.16899000  0.49991500  1
  Ni  Ni0  1  0.74657700  0.24579600  0.74999500  1
  Ni  Ni1  1  0.50223300  0.49742600  0.49932000  1
  Ni  Ni2  1  0.99746000  0.00211000  0.00069100  1
  Ni  Ni3  1  0.83085300  0.83188200  0.49980300  1
  Ni  Ni4  1  0.33179000  0.33061200  0.00030300  1
  Ni  Ni5  1  0.24925000  0.74941300  0.24997900  1
  O  O0  1  0.32152800  0.01685200  0.11388900  1
  O  O1  1  0.81716000  0.50638900  0.61323600  1
  O  O2  1  0.51682600  0.82162300  0.38610600  1
  O  O3  1  0.00644200  0.31708800  0.88675100  1
  O  O4  1  0.62028100  0.40432000  0.12091700  1
  O  O5  1  0.11649300  0.88936500  0.61439200  1
  O  O6  1  0.90424500  0.12039700  0.37908200  1
  O  O7  1  0.38934200  0.61638400  0.88561800  1
  O  O8  1  0.96067000  0.69961800  0.11564500  1
  O  O9  1  0.45336800  0.19259400  0.61299900  1
  O  O10  1  0.19948800  0.46083400  0.38434400  1
  O  O11  1  0.69256900  0.95335200  0.88698200  1
loop_
_geom_bond_atom_site_label_1
_geom_bond_atom_site_label_2
_geom_bond_distance
_geom_bond_site_symmetry_2
Li0 O6 2.063576 1_555
Li0 O4 2.063604 1_555
Li0 O8 2.077570 1_555
Li0 O10 2.077627 1_655
Li0 O2 2.231418 1_555
Li0 O0 2.231723 1_655
Li1 O11 2.079470 1_555
Li1 O9 2.079780 1_565
Li1 O5 2.122330 1_555
Li1 O7 2.122748 1_555
Li1 O1 2.246657 1_555
Li1 O3 2.246764 1_565
Li2 O0 2.105881 1_555
Li2 O2 2.105909 1_545
Li2 O10 2.136804 1_555
Li2 O8 2.137135 1_545
Li2 O4 2.156587 1_555
Li2 O6 2.157031 1_555
Li3 O1 2.123344 1_455
Li3 O3 2.123408 1_555
Li3 O11 2.148651 1_455
Li3 O9 2.149501 1_555
Li3 O7 2.156590 1_555
Li3 O5 2.156703 1_555
Al0 O3 1.892154 1_654
Al0 O0 1.918836 1_565
Al0 O4 1.927345 1_555
Al0 O11 1.934180 1_554
Al0 O7 1.962998 1_554
Al0 O8 1.987843 1_555
Al1 O1 1.891862 1_455
Al1 O2 1.918585 1_545
Al1 O6 1.927153 1_455
Al1 O9 1.934478 1_555
Al1 O5 1.963347 1_545
Al1 O10 1.987662 1_555
Ni0 O3 2.072118 1_655
Ni0 O5 2.072232 1_645
Ni0 O1 2.073392 1_555
Ni0 O7 2.075228 1_555
Ni0 O11 2.165711 1_545
Ni0 O9 2.167202 1_555
Ni1 O1 2.027337 1_555
Ni1 O10 2.036259 1_555
Ni1 O9 2.064177 1_555
Ni1 O2 2.073329 1_555
Ni1 O5 2.091692 1_555
Ni1 O6 2.116520 1_555
Ni2 O3 2.027723 1_654
Ni2 O8 2.035456 1_545
Ni2 O11 2.064379 1_544
Ni2 O0 2.072975 1_655
Ni2 O7 2.091537 1_644
Ni2 O4 2.117238 1_555
Ni3 O9 2.001419 1_565
Ni3 O5 2.007376 1_655
Ni3 O10 2.011959 1_655
Ni3 O2 2.024610 1_555
Ni3 O1 2.078430 1_555
Ni3 O6 2.092596 1_565
Ni4 O11 2.001522 1_544
Ni4 O7 2.008631 1_554
Ni4 O8 2.012434 1_455
Ni4 O0 2.022818 1_555
Ni4 O3 2.078179 1_554
Ni4 O4 2.092651 1_555
Ni5 O6 2.023886 1_465
Ni5 O4 2.023943 1_555
Ni5 O0 2.099558 1_565
Ni5 O2 2.100227 1_555
Ni5 O8 2.124501 1_455
Ni5 O10 2.124599 1_555
