# generated using pymatgen
data_CeMgSn
_symmetry_space_group_name_H-M   'P 1'
_cell_length_a   4.67293630
_cell_length_b   7.90528048
_cell_length_c   8.96181492
_cell_angle_alpha   89.99852673
_cell_angle_beta   90.00007460
_cell_angle_gamma   90.00005332
_symmetry_Int_Tables_number   1
_chemical_formula_structural   CeMgSn
_chemical_formula_sum   'Ce4 Mg4 Sn4'
_cell_volume   331.05725884
_cell_formula_units_Z   4
loop_
 _symmetry_equiv_pos_site_id
 _symmetry_equiv_pos_as_xyz
  1  'x, y, z'
loop_
 _atom_site_type_symbol
 _atom_site_label
 _atom_site_symmetry_multiplicity
 _atom_site_fract_x
 _atom_site_fract_y
 _atom_site_fract_z
 _atom_site_occupancy
  Ce  Ce0  1  0.24999968  0.01550955  0.32090237  1
  Ce  Ce1  1  0.25000029  0.51549233  0.17905722  1
  Ce  Ce2  1  0.75000001  0.98449332  0.67908248  1
  Ce  Ce3  1  0.75000017  0.48450062  0.82093705  1
  Mg  Mg0  1  0.25000017  0.15371496  0.93392513  1
  Mg  Mg1  1  0.24999982  0.65372524  0.56609432  1
  Mg  Mg2  1  0.75000014  0.84628533  0.06606767  1
  Mg  Mg3  1  0.74999982  0.34627737  0.43391079  1
  Sn  Sn0  1  0.24999978  0.27806195  0.61626142  1
  Sn  Sn1  1  0.25000007  0.77808876  0.88376358  1
  Sn  Sn2  1  0.75000000  0.72194534  0.38373534  1
  Sn  Sn3  1  0.75000005  0.22190621  0.11626263  1
loop_
_geom_bond_atom_site_label_1
_geom_bond_atom_site_label_2
_geom_bond_distance
_geom_bond_site_symmetry_2
Ce0 Sn2 3.340923 1_445
Ce0 Sn2 3.340927 1_545
Ce0 Sn0 3.363711 1_555
Ce0 Sn3 3.388873 1_455
Ce0 Sn3 3.388877 1_555
Ce0 Mg2 3.530508 1_445
Ce0 Mg2 3.530516 1_545
Ce0 Mg1 3.606623 1_545
Ce0 Mg0 3.636018 1_554
Ce0 Mg3 3.649950 1_555
Ce0 Mg3 3.649954 1_455
Ce0 Ce2 3.977800 1_545
Ce0 Ce2 3.977803 1_445
Ce0 Ce1 4.151862 1_555
Ce0 Ce1 4.152183 1_545
Ce1 Sn3 3.341006 1_455
Ce1 Sn3 3.341008 1_555
Ce1 Sn1 3.363381 1_554
Ce1 Sn2 3.389317 1_555
Ce1 Sn2 3.389325 1_455
Ce1 Mg3 3.530546 1_555
Ce1 Mg3 3.530551 1_455
Ce1 Mg0 3.606342 1_554
Ce1 Mg1 3.636649 1_555
Ce1 Mg2 3.650009 1_555
Ce1 Mg2 3.650011 1_455
Ce1 Ce3 3.977364 1_454
Ce1 Ce3 3.977368 1_554
Ce2 Sn0 3.340929 1_665
Ce2 Sn0 3.340933 1_565
Ce2 Sn2 3.363606 1_555
Ce2 Sn1 3.389105 1_655
Ce2 Sn1 3.389106 1_555
Ce2 Mg0 3.530548 1_665
Ce2 Mg0 3.530552 1_565
Ce2 Mg3 3.606510 1_565
Ce2 Mg2 3.636092 1_556
Ce2 Mg1 3.649901 1_555
Ce2 Mg1 3.649905 1_655
Ce2 Ce3 4.151962 1_555
Ce2 Ce3 4.152134 1_565
Ce3 Sn1 3.341064 1_655
Ce3 Sn1 3.341069 1_555
Ce3 Sn3 3.363596 1_556
Ce3 Sn0 3.389253 1_555
Ce3 Sn0 3.389256 1_655
Ce3 Mg1 3.530515 1_555
Ce3 Mg1 3.530515 1_655
Ce3 Mg2 3.606380 1_556
Ce3 Mg3 3.636533 1_555
Ce3 Mg0 3.649964 1_555
Ce3 Mg0 3.649966 1_655
Mg0 Sn3 2.901708 1_556
Mg0 Sn3 2.901714 1_456
Mg0 Sn1 3.003277 1_545
Mg0 Sn0 3.011753 1_555
Mg1 Sn2 2.901844 1_455
Mg1 Sn2 2.901848 1_555
Mg1 Sn0 3.003551 1_555
Mg1 Sn1 3.011891 1_555
Mg2 Sn1 2.901548 1_554
Mg2 Sn1 2.901552 1_654
Mg2 Sn3 3.003280 1_565
Mg2 Sn2 3.011769 1_555
Mg3 Sn0 2.901796 1_655
Mg3 Sn0 2.901799 1_555
Mg3 Sn2 3.003599 1_555
Mg3 Sn3 3.011732 1_555
