# generated using pymatgen
data_Sb3IO4
_symmetry_space_group_name_H-M   'P 1'
_cell_length_a   4.59489346
_cell_length_b   15.81208074
_cell_length_c   19.05310834
_cell_angle_alpha   90.00000000
_cell_angle_beta   90.00000000
_cell_angle_gamma   90.00000000
_symmetry_Int_Tables_number   1
_chemical_formula_structural   Sb3IO4
_chemical_formula_sum   'Sb24 I8 O32'
_cell_volume   1384.30027847
_cell_formula_units_Z   8
loop_
 _symmetry_equiv_pos_site_id
 _symmetry_equiv_pos_as_xyz
  1  'x, y, z'
loop_
 _atom_site_type_symbol
 _atom_site_label
 _atom_site_symmetry_multiplicity
 _atom_site_fract_x
 _atom_site_fract_y
 _atom_site_fract_z
 _atom_site_occupancy
  Sb  Sb0  1  0.64695407  0.17881613  0.04070632  1
  Sb  Sb1  1  0.35304593  0.67881613  0.95929368  1
  Sb  Sb2  1  0.85304593  0.17881613  0.54070632  1
  Sb  Sb3  1  0.14695407  0.67881613  0.45929368  1
  Sb  Sb4  1  0.13072663  0.06060492  0.37231743  1
  Sb  Sb5  1  0.86927337  0.56060492  0.62768257  1
  Sb  Sb6  1  0.36927337  0.06060492  0.87231743  1
  Sb  Sb7  1  0.63072663  0.56060492  0.12768257  1
  Sb  Sb8  1  0.15288346  0.14591166  0.21059373  1
  Sb  Sb9  1  0.84711654  0.64591166  0.78940627  1
  Sb  Sb10  1  0.34711654  0.14591166  0.71059373  1
  Sb  Sb11  1  0.65288346  0.64591166  0.28940627  1
  Sb  Sb12  1  0.15861244  0.34016272  0.00884562  1
  Sb  Sb13  1  0.84138756  0.84016272  0.99115438  1
  Sb  Sb14  1  0.34138756  0.34016272  0.50884562  1
  Sb  Sb15  1  0.65861244  0.84016272  0.49115438  1
  Sb  Sb16  1  0.16601575  0.48456767  0.25727629  1
  Sb  Sb17  1  0.83398425  0.98456767  0.74272371  1
  Sb  Sb18  1  0.33398425  0.48456767  0.75727629  1
  Sb  Sb19  1  0.66601575  0.98456767  0.24272371  1
  Sb  Sb20  1  0.37741602  0.76444502  0.12089544  1
  Sb  Sb21  1  0.62258398  0.26444502  0.87910456  1
  Sb  Sb22  1  0.12258398  0.76444502  0.62089544  1
  Sb  Sb23  1  0.87741602  0.26444502  0.37910456  1
  I  I0  1  0.26756054  0.00264056  0.07247403  1
  I  I1  1  0.73243946  0.50264056  0.92752597  1
  I  I2  1  0.23243946  0.00264056  0.57247403  1
  I  I3  1  0.76756054  0.50264056  0.42752597  1
  I  I4  1  0.75466214  0.32167100  0.17833177  1
  I  I5  1  0.24533786  0.82167100  0.82166823  1
  I  I6  1  0.74533786  0.32167100  0.67833177  1
  I  I7  1  0.25466214  0.82167100  0.32166823  1
  O  O0  1  0.24798692  0.22475190  0.04468866  1
  O  O1  1  0.75201308  0.72475190  0.95531134  1
  O  O2  1  0.25201308  0.22475190  0.54468866  1
  O  O3  1  0.74798692  0.72475190  0.45531134  1
  O  O4  1  0.24860546  0.79315030  0.00829824  1
  O  O5  1  0.75139454  0.29315030  0.99170176  1
  O  O6  1  0.25139454  0.79315030  0.50829824  1
  O  O7  1  0.74860546  0.29315030  0.49170176  1
  O  O8  1  0.25144074  0.51917605  0.15957356  1
  O  O9  1  0.74855926  0.01917605  0.84042644  1
  O  O10  1  0.24855926  0.51917605  0.65957356  1
  O  O11  1  0.75144074  0.01917605  0.34042644  1
  O  O12  1  0.25747451  0.30494999  0.41123826  1
  O  O13  1  0.74252549  0.80494999  0.58876174  1
  O  O14  1  0.24252549  0.30494999  0.91123826  1
  O  O15  1  0.75747451  0.80494999  0.08876174  1
  O  O16  1  0.25401181  0.60014836  0.29304754  1
  O  O17  1  0.74598819  0.10014836  0.70695246  1
  O  O18  1  0.24598819  0.60014836  0.79304754  1
  O  O19  1  0.75401181  0.10014836  0.20695246  1
  O  O20  1  0.25846408  0.03174650  0.25965404  1
  O  O21  1  0.74153592  0.53174650  0.74034596  1
  O  O22  1  0.24153592  0.03174650  0.75965404  1
  O  O23  1  0.75846408  0.53174650  0.24034596  1
  O  O24  1  0.11961977  0.17240000  0.31634631  1
  O  O25  1  0.88038023  0.67240000  0.68365369  1
  O  O26  1  0.38038023  0.17240000  0.81634631  1
  O  O27  1  0.61961977  0.67240000  0.18365369  1
  O  O28  1  0.38688689  0.65247622  0.06513052  1
  O  O29  1  0.61311311  0.15247622  0.93486948  1
  O  O30  1  0.11311311  0.65247622  0.56513052  1
  O  O31  1  0.88688689  0.15247622  0.43486948  1
loop_
_geom_bond_atom_site_label_1
_geom_bond_atom_site_label_2
_geom_bond_distance
_geom_bond_site_symmetry_2
I0 Sb0 3.341481 1_555
I1 Sb1 3.341481 1_555
I2 Sb2 3.341481 1_455
I3 Sb3 3.341481 1_655
I4 Sb8 3.383706 1_655
I4 Sb0 3.496163 1_555
I4 Sb16 3.531207 1_655
I5 Sb9 3.383706 1_455
I5 Sb1 3.496163 1_555
I5 Sb17 3.531207 1_455
I6 Sb10 3.383706 1_555
I6 Sb2 3.496163 1_555
I6 Sb18 3.531207 1_555
I7 Sb11 3.383706 1_555
I7 Sb3 3.496163 1_555
I7 Sb19 3.531207 1_555
O0 Sb0 1.973320 1_555
O0 Sb12 1.991290 1_555
O1 Sb1 1.973320 1_555
O1 Sb13 1.991290 1_555
O2 Sb2 1.973320 1_455
O2 Sb14 1.991290 1_555
O3 Sb3 1.973320 1_655
O3 Sb15 1.991290 1_555
O4 Sb13 2.039703 1_454
O4 Sb1 2.090558 1_554
O4 Sb20 2.271289 1_555
O5 Sb12 2.039703 1_656
O5 Sb0 2.090558 1_556
O5 Sb21 2.271289 1_555
O6 Sb15 2.039703 1_555
O6 Sb3 2.090558 1_555
O6 Sb22 2.271289 1_555
O7 Sb14 2.039703 1_555
O7 Sb2 2.090558 1_555
O7 Sb23 2.271289 1_555
O8 Sb7 1.958470 1_555
O8 Sb16 1.979613 1_555
O9 Sb6 1.958470 1_555
O9 Sb17 1.979613 1_545
O10 Sb5 1.958470 1_455
O10 Sb18 1.979613 1_555
O11 Sb4 1.958470 1_655
O11 Sb19 1.979613 1_545
O12 Sb23 1.958241 1_455
O12 Sb14 1.979204 1_555
O13 Sb22 1.958241 1_655
O13 Sb15 1.979204 1_555
O14 Sb21 1.958241 1_555
O14 Sb12 1.979204 1_556
O15 Sb20 1.958241 1_555
O15 Sb13 1.979204 1_554
O16 Sb11 1.971671 1_555
O16 Sb16 1.991988 1_555
O17 Sb10 1.971671 1_555
O17 Sb17 1.991988 1_545
O18 Sb9 1.971671 1_455
O18 Sb18 1.991988 1_555
O19 Sb8 1.971671 1_655
O19 Sb19 1.991988 1_545
O20 Sb19 2.041423 1_545
O20 Sb8 2.089933 1_555
O20 Sb4 2.271686 1_555
O21 Sb18 2.041423 1_555
O21 Sb9 2.089933 1_555
O21 Sb5 2.271686 1_555
O22 Sb17 2.041423 1_445
O22 Sb10 2.089933 1_555
O22 Sb6 2.271686 1_555
O23 Sb16 2.041423 1_655
O23 Sb11 2.089933 1_555
O23 Sb7 2.271686 1_555
O24 Sb8 2.063654 1_555
O24 Sb4 2.065108 1_555
O24 Sb23 2.187829 1_455
O25 Sb9 2.063654 1_555
O25 Sb5 2.065108 1_555
O25 Sb22 2.187829 1_655
O26 Sb10 2.063654 1_555
O26 Sb6 2.065108 1_555
O26 Sb21 2.187829 1_555
O27 Sb11 2.063654 1_555
O27 Sb7 2.065108 1_555
O27 Sb20 2.187829 1_555
O28 Sb1 2.064945 1_554
O28 Sb20 2.065264 1_555
O28 Sb7 2.187697 1_555
O29 Sb0 2.064945 1_556
O29 Sb21 2.065264 1_555
O29 Sb6 2.187697 1_555
O30 Sb3 2.064945 1_555
O30 Sb22 2.065264 1_555
O30 Sb5 2.187697 1_455
O31 Sb2 2.064945 1_555
O31 Sb23 2.065264 1_555
O31 Sb4 2.187697 1_655
