# generated using pymatgen
data_PtBr3N2
_symmetry_space_group_name_H-M   'P 1'
_cell_length_a   10.89811409
_cell_length_b   9.99313133
_cell_length_c   9.02811618
_cell_angle_alpha   69.69993729
_cell_angle_beta   59.31725656
_cell_angle_gamma   50.98280615
_symmetry_Int_Tables_number   1
_chemical_formula_structural   PtBr3N2
_chemical_formula_sum   'Pt4 Br12 N8'
_cell_volume   656.48903565
_cell_formula_units_Z   4
loop_
 _symmetry_equiv_pos_site_id
 _symmetry_equiv_pos_as_xyz
  1  'x, y, z'
loop_
 _atom_site_type_symbol
 _atom_site_label
 _atom_site_symmetry_multiplicity
 _atom_site_fract_x
 _atom_site_fract_y
 _atom_site_fract_z
 _atom_site_occupancy
  Pt  Pt0  1  0.00000000  0.00000000  0.00000000  1
  Pt  Pt1  1  0.25000000  0.25000000  0.25000000  1
  Pt  Pt2  1  0.50000000  0.50000000  0.50000000  1
  Pt  Pt3  1  0.75000000  0.75000000  0.75000000  1
  Br  Br0  1  0.65393200  0.65393200  0.34606800  1
  Br  Br1  1  0.34606800  0.34606800  0.65393200  1
  Br  Br2  1  0.59606800  0.59606800  0.90393200  1
  Br  Br3  1  0.90393200  0.90393200  0.59606800  1
  Br  Br4  1  0.84772900  0.84772900  0.15227100  1
  Br  Br5  1  0.15227100  0.15227100  0.84772900  1
  Br  Br6  1  0.40227100  0.40227100  0.09772900  1
  Br  Br7  1  0.09772900  0.09772900  0.40227100  1
  Br  Br8  1  0.72977800  0.27022200  0.27022200  1
  Br  Br9  1  0.27022200  0.72977800  0.72977800  1
  Br  Br10  1  0.52022200  0.97977800  0.97977800  1
  Br  Br11  1  0.97977800  0.52022200  0.52022200  1
  N  N0  1  0.36987600  0.63012400  0.36987600  1
  N  N1  1  0.88012400  0.61987600  0.88012400  1
  N  N2  1  0.63012400  0.36987600  0.63012400  1
  N  N3  1  0.61987600  0.88012400  0.61987600  1
  N  N4  1  0.12744300  0.87255700  0.12744300  1
  N  N5  1  0.12255700  0.37744300  0.12255700  1
  N  N6  1  0.87255700  0.12744300  0.87255700  1
  N  N7  1  0.37744300  0.12255700  0.37744300  1
loop_
_geom_bond_atom_site_label_1
_geom_bond_atom_site_label_2
_geom_bond_distance
_geom_bond_site_symmetry_2
Br0 Pt2 2.549187 1_555
Br1 Pt2 2.549187 1_555
Br2 Pt3 2.549187 1_555
Br3 Pt3 2.549187 1_555
Br4 Pt0 2.521680 1_665
Br5 Pt0 2.521680 1_556
Br6 Pt1 2.521680 1_555
Br7 Pt1 2.521680 1_555
Br8 Pt2 2.571064 1_555
Br8 Pt0 3.023606 1_655
Br9 Pt2 2.571064 1_555
Br9 Pt0 3.023606 1_566
Br10 Pt3 2.571064 1_555
Br10 Pt1 3.023606 1_566
Br11 Pt3 2.571064 1_555
Br11 Pt1 3.023606 1_655
N0 Pt2 1.844028 1_555
N1 Pt3 1.844028 1_555
N2 Pt2 1.844028 1_555
N3 Pt3 1.844028 1_555
N4 Pt0 1.806035 1_565
N5 Pt1 1.806035 1_555
N6 Pt0 1.806035 1_656
N7 Pt1 1.806035 1_555
