# generated using pymatgen
data_Li4V5Cr3O16
_symmetry_space_group_name_H-M   'P 1'
_cell_length_a   5.86686700
_cell_length_b   5.90281444
_cell_length_c   9.52198016
_cell_angle_alpha   89.96243121
_cell_angle_beta   90.14585138
_cell_angle_gamma   119.68798162
_symmetry_Int_Tables_number   1
_chemical_formula_structural   Li4V5Cr3O16
_chemical_formula_sum   'Li4 V5 Cr3 O16'
_cell_volume   286.46968089
_cell_formula_units_Z   1
loop_
 _symmetry_equiv_pos_site_id
 _symmetry_equiv_pos_as_xyz
  1  'x, y, z'
loop_
 _atom_site_type_symbol
 _atom_site_label
 _atom_site_symmetry_multiplicity
 _atom_site_fract_x
 _atom_site_fract_y
 _atom_site_fract_z
 _atom_site_occupancy
  Li  Li0  1  0.32953300  0.66740300  0.89519100  1
  Li  Li1  1  0.00057500  0.99957900  0.99499700  1
  Li  Li2  1  0.00264200  0.00175000  0.49624100  1
  Li  Li3  1  0.66445400  0.33429500  0.39197700  1
  V  V0  1  0.34858400  0.17579900  0.71639000  1
  V  V1  1  0.33625000  0.66817800  0.48974300  1
  V  V2  1  0.17335200  0.82896200  0.21533900  1
  V  V3  1  0.67163900  0.33023000  0.99113800  1
  V  V4  1  0.82962600  0.65775300  0.71244000  1
  Cr  Cr0  1  0.17154300  0.33949800  0.21445500  1
  Cr  Cr1  1  0.66016400  0.82775500  0.21396000  1
  Cr  Cr2  1  0.83159400  0.17023600  0.71315400  1
  O  O0  1  0.17156000  0.33789000  0.59636200  1
  O  O1  1  0.47939600  0.52280800  0.34116200  1
  O  O2  1  0.32330100  0.67402500  0.10454000  1
  O  O3  1  0.00615700  0.99491700  0.30839400  1
  O  O4  1  0.01397500  0.00698000  0.80692700  1
  O  O5  1  0.66291900  0.82918400  0.59596700  1
  O  O6  1  0.04153400  0.52722400  0.34443600  1
  O  O7  1  0.47454500  0.95952100  0.34335400  1
  O  O8  1  0.82843200  0.16912300  0.09536500  1
  O  O9  1  0.17311300  0.83588400  0.59713100  1
  O  O10  1  0.51781500  0.03997800  0.84226200  1
  O  O11  1  0.95719600  0.47855100  0.84278900  1
  O  O12  1  0.64949000  0.32204100  0.60137100  1
  O  O13  1  0.33342300  0.16393100  0.09798000  1
  O  O14  1  0.51168400  0.46963600  0.84839000  1
  O  O15  1  0.83520300  0.66657000  0.09638800  1
loop_
_geom_bond_atom_site_label_1
_geom_bond_atom_site_label_2
_geom_bond_distance
_geom_bond_site_symmetry_2
Li0 O11 1.961259 1_455
Li0 O10 1.976324 1_565
Li0 O14 1.985510 1_555
Li0 O2 1.994609 1_556
Li1 O4 1.792278 1_565
Li1 O13 1.957297 1_566
Li1 O15 1.962267 1_456
Li1 O8 1.985516 1_466
Li2 O3 1.789558 1_545
Li2 O9 1.961013 1_545
Li2 O0 1.969220 1_555
Li2 O5 1.977149 1_445
Li3 O1 1.960728 1_555
Li3 O6 1.976068 1_655
Li3 O7 1.976580 1_545
Li3 O12 1.995688 1_555
Cr0 O3 1.981369 1_545
Cr0 O1 1.985786 1_555
Cr0 O2 2.011932 1_555
Cr0 O6 2.045816 1_555
Cr0 O13 2.046421 1_555
Cr0 O8 2.081821 1_455
Cr1 O3 1.977499 1_655
Cr1 O1 1.986113 1_555
Cr1 O2 2.007280 1_555
Cr1 O7 2.038633 1_555
Cr1 O15 2.046520 1_555
Cr1 O8 2.083840 1_565
Cr2 O4 1.971357 1_655
Cr2 O12 2.004643 1_555
Cr2 O11 2.012147 1_555
Cr2 O10 2.024758 1_555
Cr2 O0 2.061293 1_655
Cr2 O5 2.073931 1_545
O0 V1 1.975282 1_555
O0 V0 2.068130 1_555
O1 V1 2.040762 1_555
O2 V2 1.877870 1_555
O3 V2 1.914238 1_555
O4 V0 1.913044 1_555
O4 V4 2.004417 1_445
O5 V1 1.945897 1_555
O5 V4 2.045468 1_555
O6 V2 1.979657 1_555
O6 V1 2.039752 1_555
O7 V2 1.960509 1_555
O7 V1 2.044329 1_555
O8 V3 1.896353 1_554
O9 V1 1.971409 1_555
O9 V4 2.069537 1_455
O9 V0 2.079947 1_565
O10 V0 1.961176 1_555
O10 V3 2.055361 1_555
O11 V4 1.999345 1_555
O11 V3 2.031286 1_555
O12 V0 1.886869 1_555
O12 V4 2.021114 1_555
O13 V3 2.003863 1_554
O13 V2 2.050217 1_545
O14 V0 1.963805 1_555
O14 V3 2.040176 1_555
O14 V4 2.084925 1_555
O15 V3 1.994343 1_554
O15 V2 2.060043 1_655
