# generated using pymatgen
data_MnBPbO4
_symmetry_space_group_name_H-M   'P 1'
_cell_length_a   6.07646700
_cell_length_b   6.81441801
_cell_length_c   8.76399201
_cell_angle_alpha   90.00545692
_cell_angle_beta   90.00054805
_cell_angle_gamma   89.99884466
_symmetry_Int_Tables_number   1
_chemical_formula_structural   MnBPbO4
_chemical_formula_sum   'Mn4 B4 Pb4 O16'
_cell_volume   362.89575246
_cell_formula_units_Z   4
loop_
 _symmetry_equiv_pos_site_id
 _symmetry_equiv_pos_as_xyz
  1  'x, y, z'
loop_
 _atom_site_type_symbol
 _atom_site_label
 _atom_site_symmetry_multiplicity
 _atom_site_fract_x
 _atom_site_fract_y
 _atom_site_fract_z
 _atom_site_occupancy
  Mn  Mn0  1  0.49993000  0.00000600  0.00018000  1
  Mn  Mn1  1  0.99990000  0.00011800  0.00002400  1
  Mn  Mn2  1  0.99983100  0.49981700  0.50003900  1
  Mn  Mn3  1  0.50001700  0.49996700  0.49978400  1
  B  B0  1  0.24997700  0.79746700  0.73715300  1
  B  B1  1  0.25002300  0.29746900  0.76287600  1
  B  B2  1  0.74997700  0.20253900  0.26281900  1
  B  B3  1  0.75002000  0.70257600  0.23712700  1
  Pb  Pb0  1  0.25000200  0.53620000  0.14955100  1
  Pb  Pb1  1  0.25005800  0.03624600  0.35039200  1
  Pb  Pb2  1  0.75002200  0.46375600  0.85032000  1
  Pb  Pb3  1  0.75004800  0.96378600  0.64968800  1
  O  O0  1  0.25001700  0.89043400  0.10234800  1
  O  O1  1  0.24998100  0.39047300  0.39761100  1
  O  O2  1  0.75001900  0.10948800  0.89776600  1
  O  O3  1  0.74998300  0.60950300  0.60226400  1
  O  O4  1  0.25004200  0.72072200  0.59282100  1
  O  O5  1  0.25005400  0.22078000  0.90716700  1
  O  O6  1  0.75004200  0.27930500  0.40716600  1
  O  O7  1  0.75005100  0.77928900  0.09288900  1
  O  O8  1  0.04997500  0.83853900  0.81102400  1
  O  O9  1  0.44999900  0.33846600  0.68905600  1
  O  O10  1  0.55003700  0.16147500  0.18902100  1
  O  O11  1  0.95000700  0.66155300  0.31091400  1
  O  O12  1  0.94997300  0.16161400  0.18912400  1
  O  O13  1  0.54998500  0.66151800  0.31094300  1
  O  O14  1  0.45003200  0.83839600  0.81090800  1
  O  O15  1  0.04999800  0.33850000  0.68902300  1
loop_
_geom_bond_atom_site_label_1
_geom_bond_atom_site_label_2
_geom_bond_distance
_geom_bond_site_symmetry_2
Mn0 O0 1.914566 1_545
Mn0 O2 1.916185 1_554
Mn0 O10 2.010494 1_555
Mn0 O14 2.013938 1_544
Mn0 O7 2.287447 1_545
Mn0 O5 2.287662 1_554
Mn1 O2 1.914207 1_554
Mn1 O0 1.916449 1_645
Mn1 O8 2.012020 1_644
Mn1 O12 2.012297 1_555
Mn1 O7 2.287388 1_545
Mn1 O5 2.287846 1_654
Mn2 O3 1.914699 1_555
Mn2 O1 1.916080 1_655
Mn2 O15 2.011181 1_655
Mn2 O11 2.013446 1_555
Mn2 O6 2.285638 1_555
Mn2 O4 2.288819 1_655
Mn3 O1 1.914893 1_555
Mn3 O3 1.915926 1_555
Mn3 O13 2.010850 1_555
Mn3 O9 2.013820 1_555
Mn3 O6 2.286439 1_555
Mn3 O4 2.287959 1_555
B0 O4 1.368725 1_555
B0 O14 1.404750 1_555
B0 O8 1.405134 1_555
B1 O5 1.368339 1_555
B1 O9 1.404724 1_555
B1 O15 1.405140 1_555
B2 O6 1.368901 1_555
B2 O12 1.404193 1_555
B2 O10 1.404502 1_555
B3 O7 1.367972 1_555
B3 O11 1.404663 1_555
B3 O13 1.405101 1_555
O0 Pb1 2.390089 1_565
O0 Pb0 2.449129 1_555
O1 Pb0 2.390148 1_555
O1 Pb1 2.449028 1_555
O2 Pb3 2.390049 1_545
O2 Pb2 2.449718 1_555
O3 Pb2 2.390173 1_555
O3 Pb3 2.449708 1_555
O8 Pb3 2.459532 1_455
O9 Pb2 2.459635 1_555
O10 Pb1 2.459945 1_555
O11 Pb0 2.460151 1_655
O12 Pb1 2.460187 1_655
O13 Pb0 2.460166 1_555
O14 Pb3 2.459732 1_555
O15 Pb2 2.459504 1_455
