# generated using pymatgen
data_ZrGaIr2
_symmetry_space_group_name_H-M   'P 1'
_cell_length_a   10.84037607
_cell_length_b   10.84037607
_cell_length_c   10.84037607
_cell_angle_alpha   128.85957297
_cell_angle_beta   117.51945144
_cell_angle_gamma   84.86725636
_symmetry_Int_Tables_number   1
_chemical_formula_structural   ZrGaIr2
_chemical_formula_sum   'Zr1 Ga1 Ir2'
_cell_volume   841.85800872
_cell_formula_units_Z   1
loop_
 _symmetry_equiv_pos_site_id
 _symmetry_equiv_pos_as_xyz
  1  'x, y, z'
loop_
 _atom_site_type_symbol
 _atom_site_label
 _atom_site_symmetry_multiplicity
 _atom_site_fract_x
 _atom_site_fract_y
 _atom_site_fract_z
 _atom_site_occupancy
  Zr  Zr0  1  0.00000000  0.50000000  0.50000000  1
  Ga  Ga0  1  0.00000000  0.00000000  0.00000000  1
  Ir  Ir0  1  0.00000000  0.26041100  0.26041100  1
  Ir  Ir1  1  0.00000000  0.73958900  0.73958900  1
loop_
_geom_bond_atom_site_label_1
_geom_bond_atom_site_label_2
_geom_bond_distance
_geom_bond_site_symmetry_2
Ga0 Ir0 2.436868 1_555
Ga0 Ir1 2.436868 1_544
Ir0 Zr0 2.242021 1_555
Ir1 Zr0 2.242021 1_555
