# generated using pymatgen
data_Cs3KZr2(Si3O10)2
_symmetry_space_group_name_H-M   'P 1'
_cell_length_a   7.46609500
_cell_length_b   10.84153000
_cell_length_c   13.55065237
_cell_angle_alpha   89.94900709
_cell_angle_beta   90.00000000
_cell_angle_gamma   90.00000000
_symmetry_Int_Tables_number   1
_chemical_formula_structural   Cs3KZr2(Si3O10)2
_chemical_formula_sum   'Cs6 K2 Zr4 Si12 O40'
_cell_volume   1096.84211984
_cell_formula_units_Z   2
loop_
 _symmetry_equiv_pos_site_id
 _symmetry_equiv_pos_as_xyz
  1  'x, y, z'
loop_
 _atom_site_type_symbol
 _atom_site_label
 _atom_site_symmetry_multiplicity
 _atom_site_fract_x
 _atom_site_fract_y
 _atom_site_fract_z
 _atom_site_occupancy
  Cs  Cs0  1  0.24190500  0.68346800  0.39721400  1
  Cs  Cs1  1  0.74190500  0.31653200  0.60278600  1
  Cs  Cs2  1  0.73531600  0.16866200  0.08037800  1
  Cs  Cs3  1  0.23531600  0.83133800  0.91962200  1
  Cs  Cs4  1  0.69663300  0.04019900  0.38419900  1
  Cs  Cs5  1  0.19663300  0.95980100  0.61580100  1
  K  K0  1  0.51873100  0.49736600  0.91087600  1
  K  K1  1  0.01873100  0.50263400  0.08912400  1
  Zr  Zr0  1  0.74249500  0.69251500  0.28311500  1
  Zr  Zr1  1  0.24249500  0.30748500  0.71688500  1
  Zr  Zr2  1  0.24277800  0.19211500  0.21130300  1
  Zr  Zr3  1  0.74277800  0.80788500  0.78869700  1
  Si  Si0  1  0.03368400  0.90586500  0.17907400  1
  Si  Si1  1  0.53368400  0.09413500  0.82092600  1
  Si  Si2  1  0.94587000  0.40241000  0.32019700  1
  Si  Si3  1  0.44587000  0.59759000  0.67980300  1
  Si  Si4  1  0.24516200  0.30075200  0.44851900  1
  Si  Si5  1  0.74516200  0.69924800  0.55148100  1
  Si  Si6  1  0.74162500  0.79571600  0.05233400  1
  Si  Si7  1  0.24162500  0.20428400  0.94766600  1
  Si  Si8  1  0.53947200  0.40162500  0.31845500  1
  Si  Si9  1  0.03947200  0.59837500  0.68154500  1
  Si  Si10  1  0.44029300  0.90051600  0.17621100  1
  Si  Si11  1  0.94029300  0.09948400  0.82378900  1
  O  O0  1  0.73994600  0.73218100  0.43558400  1
  O  O1  1  0.23994600  0.26781900  0.56441600  1
  O  O2  1  0.24307600  0.24121100  0.06301300  1
  O  O3  1  0.74307600  0.75878900  0.93698700  1
  O  O4  1  0.93228800  0.54783600  0.29253000  1
  O  O5  1  0.43228800  0.45216400  0.70747000  1
  O  O6  1  0.04601100  0.05273800  0.20241000  1
  O  O7  1  0.54601100  0.94726200  0.79759000  1
  O  O8  1  0.75619700  0.67773400  0.12656900  1
  O  O9  1  0.25619700  0.32226600  0.87343100  1
  O  O10  1  0.26102000  0.18390000  0.37155900  1
  O  O11  1  0.76102000  0.81610000  0.62844100  1
  O  O12  1  0.06527600  0.38325400  0.42172200  1
  O  O13  1  0.56527600  0.61674600  0.57827800  1
  O  O14  1  0.91445100  0.88865300  0.07618800  1
  O  O15  1  0.41445100  0.11134700  0.92381200  1
  O  O16  1  0.94170000  0.82758100  0.26779900  1
  O  O17  1  0.44170000  0.17241900  0.73220100  1
  O  O18  1  0.03184700  0.32266300  0.23020800  1
  O  O19  1  0.53184700  0.67733700  0.76979200  1
  O  O20  1  0.54735700  0.54812100  0.29040700  1
  O  O21  1  0.04735700  0.45187900  0.70959300  1
  O  O22  1  0.43304400  0.04822100  0.19746300  1
  O  O23  1  0.93304400  0.95177900  0.80253700  1
  O  O24  1  0.53364400  0.82295200  0.26530500  1
  O  O25  1  0.03364400  0.17704800  0.73469500  1
  O  O26  1  0.45624100  0.31878100  0.23015200  1
  O  O27  1  0.95624100  0.68121900  0.76984800  1
  O  O28  1  0.42370400  0.38633300  0.42236300  1
  O  O29  1  0.92370400  0.61366700  0.57763700  1
  O  O30  1  0.55622900  0.87576000  0.07357100  1
  O  O31  1  0.05622900  0.12424000  0.92642900  1
  O  O32  1  0.74204600  0.34952300  0.34709600  1
  O  O33  1  0.24204600  0.65047700  0.65290400  1
  O  O34  1  0.23485600  0.84950900  0.15315900  1
  O  O35  1  0.73485600  0.15049100  0.84684100  1
  O  O36  1  0.39194000  0.53245900  0.13814800  1
  O  O37  1  0.89194000  0.46754100  0.86185200  1
  O  O38  1  0.62516000  0.99175500  0.59621800  1
  O  O39  1  0.12516000  0.00824500  0.40378200  1
loop_
_geom_bond_atom_site_label_1
_geom_bond_atom_site_label_2
_geom_bond_distance
_geom_bond_site_symmetry_2
Cs0 O20 3.074488 1_555
Cs0 O4 3.085748 1_455
Cs0 O24 3.197081 1_555
Cs0 O16 3.245803 1_455
Cs0 O33 3.482862 1_555
Cs0 O29 3.491519 1_455
Cs0 O28 3.511969 1_555
Cs0 O13 3.516941 1_555
Cs0 O12 3.527180 1_555
Cs0 O39 3.628528 1_565
Cs1 O21 3.074488 1_655
Cs1 O5 3.085748 1_555
Cs1 O25 3.197081 1_655
Cs1 O17 3.245803 1_555
Cs1 O32 3.482862 1_555
Cs1 O28 3.491519 1_555
Cs1 O29 3.511969 1_555
Cs1 O12 3.516941 1_655
Cs1 O13 3.527180 1_555
Cs1 O38 3.628528 1_545
Cs2 O22 3.051503 1_555
Cs2 O6 3.113065 1_655
Cs2 O35 3.170881 1_554
Cs2 O31 3.213447 1_654
Cs2 O15 3.260133 1_554
Cs2 O14 3.317816 1_545
Cs2 O26 3.333932 1_555
Cs2 O18 3.437615 1_655
Cs2 O30 3.446832 1_545
Cs3 O23 3.051503 1_455
Cs3 O7 3.113065 1_555
Cs3 O34 3.170881 1_556
Cs3 O30 3.213447 1_556
Cs3 O14 3.260133 1_456
Cs3 O15 3.317816 1_565
Cs3 O27 3.333932 1_455
Cs3 O19 3.437615 1_555
Cs3 O31 3.446832 1_565
Cs4 O38 2.968504 1_545
Cs4 O24 3.103318 1_545
Cs4 O22 3.206714 1_555
Cs4 O39 3.229021 1_655
Cs4 O16 3.340003 1_545
Cs4 O32 3.407492 1_555
Cs4 O0 3.425897 1_545
Cs4 O6 3.590298 1_655
Cs4 O10 3.610218 1_555
Cs5 O39 2.968504 1_565
Cs5 O25 3.103318 1_565
Cs5 O23 3.206714 1_455
Cs5 O38 3.229021 1_555
Cs5 O17 3.340003 1_565
Cs5 O33 3.407492 1_555
Cs5 O1 3.425897 1_565
Cs5 O7 3.590298 1_555
Cs5 O11 3.610218 1_455
K0 O19 2.732194 1_555
K0 O9 2.775774 1_555
K0 O5 2.873359 1_555
K0 O37 2.882767 1_555
K0 O36 3.244596 1_556
K0 O3 3.311400 1_555
K1 O18 2.732194 1_555
K1 O8 2.775774 1_455
K1 O4 2.873359 1_455
K1 O36 2.882767 1_555
K1 O37 3.244596 1_454
K1 O2 3.311400 1_555
O0 Si5 1.610716 1_555
O0 Zr0 2.110796 1_555
O1 Si4 1.610716 1_555
O1 Zr1 2.110796 1_555
O2 Si7 1.613865 1_554
O2 Zr2 2.078271 1_555
O3 Si6 1.613865 1_556
O3 Zr3 2.078271 1_555
O4 Si2 1.623447 1_555
O4 Zr0 2.117585 1_555
O5 Si3 1.623447 1_555
O5 Zr1 2.117585 1_555
O6 Si0 1.626305 1_545
O6 Zr2 2.111006 1_555
O7 Si1 1.626305 1_565
O7 Zr3 2.111006 1_555
O8 Si6 1.630202 1_555
O8 Zr0 2.129945 1_555
O9 Si7 1.630202 1_555
O9 Zr1 2.129945 1_555
O10 Si4 1.645856 1_555
O10 Zr2 2.177583 1_555
O11 Si5 1.645856 1_555
O11 Zr3 2.177583 1_555
O12 Si2 1.652278 1_455
O12 Si4 1.653809 1_555
O13 Si3 1.652278 1_555
O13 Si5 1.653809 1_555
O14 Si0 1.664772 1_655
O14 Si6 1.668905 1_555
O15 Si1 1.664772 1_555
O15 Si7 1.668905 1_555
O16 Si0 1.623462 1_655
O16 Zr0 2.097328 1_555
O17 Si1 1.623462 1_555
O17 Zr1 2.097328 1_555
O18 Si2 1.627386 1_455
O18 Zr2 2.132968 1_555
O19 Si3 1.627386 1_555
O19 Zr3 2.132968 1_555
O20 Si8 1.633815 1_555
O20 Zr0 2.140734 1_555
O21 Si9 1.633815 1_555
O21 Zr1 2.140734 1_555
O22 Si10 1.628188 1_545
O22 Zr2 2.118333 1_555
O23 Si11 1.628188 1_565
O23 Zr3 2.118333 1_555
O24 Si10 1.627458 1_555
O24 Zr0 2.118688 1_555
O25 Si11 1.627458 1_455
O25 Zr1 2.118688 1_555
O26 Si8 1.620652 1_555
O26 Zr2 2.119358 1_555
O27 Si9 1.620652 1_655
O27 Zr3 2.119358 1_555
O28 Si8 1.660322 1_555
O28 Si4 1.662174 1_555
O29 Si9 1.660322 1_655
O29 Si5 1.662174 1_555
O30 Si6 1.659006 1_555
O30 Si10 1.660234 1_555
O31 Si7 1.659006 1_555
O31 Si11 1.660234 1_455
O32 Si8 1.660353 1_555
O32 Si2 1.666442 1_555
O33 Si9 1.660353 1_555
O33 Si3 1.666442 1_555
O34 Si0 1.659191 1_555
O34 Si10 1.660200 1_555
O35 Si1 1.659191 1_555
O35 Si11 1.660200 1_555
