# generated using pymatgen
data_Li8(FeO2)5
_symmetry_space_group_name_H-M   'P 1'
_cell_length_a   5.50505758
_cell_length_b   9.56278204
_cell_length_c   10.34223045
_cell_angle_alpha   76.45565633
_cell_angle_beta   83.21279824
_cell_angle_gamma   83.89379671
_symmetry_Int_Tables_number   1
_chemical_formula_structural   Li8(FeO2)5
_chemical_formula_sum   'Li16 Fe10 O20'
_cell_volume   523.85247889
_cell_formula_units_Z   2
loop_
 _symmetry_equiv_pos_site_id
 _symmetry_equiv_pos_as_xyz
  1  'x, y, z'
loop_
 _atom_site_type_symbol
 _atom_site_label
 _atom_site_symmetry_multiplicity
 _atom_site_fract_x
 _atom_site_fract_y
 _atom_site_fract_z
 _atom_site_occupancy
  Li  Li0  1  0.68729000  0.20882400  0.85563100  1
  Li  Li1  1  0.19420000  0.70385800  0.35839000  1
  Li  Li2  1  0.41264800  0.09111300  0.04437300  1
  Li  Li3  1  0.90576900  0.59612500  0.54165000  1
  Li  Li4  1  0.40885600  0.30063700  0.13897000  1
  Li  Li5  1  0.90049400  0.80325500  0.63977200  1
  Li  Li6  1  0.19956500  0.49676300  0.26022600  1
  Li  Li7  1  0.69116300  0.99932500  0.76098400  1
  Li  Li8  1  0.75646300  0.49026400  0.77869700  1
  Li  Li9  1  0.27417000  0.98684300  0.28103400  1
  Li  Li10  1  0.34347500  0.80966300  0.12129700  1
  Li  Li11  1  0.82578200  0.31311300  0.61895900  1
  Li  Li12  1  0.61058500  0.71755100  0.83872500  1
  Li  Li13  1  0.11125100  0.21675400  0.33906600  1
  Li  Li14  1  0.48938000  0.58237600  0.06125900  1
  Li  Li15  1  0.98885500  0.08327800  0.56085300  1
  Fe  Fe0  1  0.55014500  0.15001900  0.44998300  1
  Fe  Fe1  1  0.04989700  0.65000500  0.94990500  1
  Fe  Fe2  1  0.34473700  0.55364400  0.65192200  1
  Fe  Fe3  1  0.86077900  0.04386800  0.14588000  1
  Fe  Fe4  1  0.23921300  0.25608600  0.75410100  1
  Fe  Fe5  1  0.75530100  0.74633700  0.24805000  1
  Fe  Fe6  1  0.94266200  0.35083900  0.04999000  1
  Fe  Fe7  1  0.43639300  0.85189400  0.55344600  1
  Fe  Fe8  1  0.66373400  0.44817300  0.34643100  1
  Fe  Fe9  1  0.15734200  0.94909200  0.84989800  1
  O  O0  1  0.69389400  0.21426900  0.03880200  1
  O  O1  1  0.17783400  0.72522300  0.53983000  1
  O  O2  1  0.92241200  0.57509800  0.36024300  1
  O  O3  1  0.40669200  0.08560300  0.86122600  1
  O  O4  1  0.52953400  0.36298600  0.72614500  1
  O  O5  1  0.04815900  0.87006400  0.22100600  1
  O  O6  1  0.05143700  0.43042300  0.67881900  1
  O  O7  1  0.57025800  0.93724200  0.17390400  1
  O  O8  1  0.19752200  0.47764000  0.07135500  1
  O  O9  1  0.68544200  0.98900700  0.57247200  1
  O  O10  1  0.90213700  0.82179600  0.82871100  1
  O  O11  1  0.41425000  0.31091700  0.32792900  1
  O  O12  1  0.12110000  0.16818800  0.15968700  1
  O  O13  1  0.62552900  0.67346000  0.65901700  1
  O  O14  1  0.47484800  0.62633200  0.24128200  1
  O  O15  1  0.97920600  0.13173800  0.74047500  1
  O  O16  1  0.77746600  0.53695800  0.94817000  1
  O  O17  1  0.28336000  0.04343400  0.44877000  1
  O  O18  1  0.32211500  0.76310300  0.95147300  1
  O  O19  1  0.81666000  0.25682000  0.45119000  1
loop_
_geom_bond_atom_site_label_1
_geom_bond_atom_site_label_2
_geom_bond_distance
_geom_bond_site_symmetry_2
Li0 O0 1.911977 1_556
Li0 O4 1.949030 1_555
Li0 O3 2.027835 1_555
Li0 O15 2.061825 1_555
Li1 O1 1.925302 1_555
Li1 O2 2.032048 1_455
Li1 O5 2.032668 1_555
Li1 O14 2.034235 1_555
Li2 O3 1.911399 1_554
Li2 O7 1.947410 1_545
Li2 O0 2.030404 1_555
Li2 O12 2.061351 1_555
Li3 O2 1.923780 1_555
Li3 O6 2.027830 1_655
Li3 O13 2.033587 1_555
Li3 O1 2.035548 1_655
Li4 O8 1.981538 1_555
Li4 O11 1.983429 1_555
Li4 O0 1.989577 1_555
Li4 O12 2.092621 1_555
Li5 O1 1.924089 1_655
Li5 O10 2.004154 1_555
Li5 O13 2.020954 1_555
Li5 O9 2.051720 1_555
Li6 O2 1.925041 1_455
Li6 O8 2.005512 1_555
Li6 O14 2.021330 1_555
Li6 O11 2.052169 1_555
Li7 O9 1.979162 1_555
Li7 O10 1.984302 1_555
Li7 O3 1.987458 1_565
Li7 O15 2.093950 1_565
Li8 O16 1.926208 1_555
Li8 O6 1.927193 1_655
Li8 O13 2.011765 1_555
Li8 O4 2.032552 1_555
Li9 O7 1.940159 1_555
Li9 O17 1.941939 1_565
Li9 O5 1.995861 1_555
Li9 O12 2.052338 1_565
Li10 O5 1.929505 1_555
Li10 O18 1.929536 1_554
Li10 O14 2.014905 1_555
Li10 O7 2.034348 1_555
Li11 O19 1.940810 1_555
Li11 O4 1.941876 1_555
Li11 O6 1.997108 1_655
Li11 O15 2.054102 1_555
Li12 O18 1.929872 1_555
Li12 O10 1.957876 1_555
Li12 O13 1.990578 1_555
Li12 O16 2.024916 1_555
Li13 O19 1.937254 1_455
Li13 O11 1.957538 1_555
Li13 O17 1.992792 1_555
Li13 O12 2.008670 1_555
Li14 O16 1.929954 1_554
Li14 O8 1.961943 1_555
Li14 O14 1.993425 1_555
Li14 O18 2.028144 1_554
Li15 O17 1.936142 1_655
Li15 O9 1.959391 1_545
Li15 O19 1.994200 1_555
Li15 O15 2.010787 1_555
Fe0 O17 1.877449 1_555
Fe0 O19 1.877484 1_555
Fe0 O11 1.894487 1_555
Fe0 O9 1.896240 1_545
Fe1 O18 1.942799 1_555
Fe1 O16 1.943859 1_455
Fe1 O10 1.980840 1_455
Fe1 O8 1.985337 1_556
Fe2 O1 1.979995 1_555
Fe2 O4 2.020586 1_555
Fe2 O13 2.037299 1_555
Fe2 O6 2.053768 1_555
Fe3 O5 1.910495 1_645
Fe3 O7 1.944348 1_545
Fe3 O0 1.949990 1_555
Fe3 O12 1.994444 1_655
Fe4 O6 1.915662 1_555
Fe4 O4 1.944964 1_555
Fe4 O3 1.952181 1_555
Fe4 O15 1.992709 1_455
Fe5 O2 1.978886 1_555
Fe5 O7 2.022812 1_555
Fe5 O14 2.036075 1_555
Fe5 O5 2.054639 1_655
Fe6 O8 2.012044 1_655
Fe6 O0 2.020696 1_555
Fe6 O16 2.026774 1_554
Fe6 O12 2.067141 1_655
Fe7 O1 2.001810 1_555
Fe7 O17 2.048213 1_565
Fe7 O9 2.050535 1_555
Fe7 O13 2.050821 1_555
Fe8 O2 2.004619 1_555
Fe8 O14 2.046706 1_555
Fe8 O19 2.047007 1_555
Fe8 O11 2.051576 1_555
Fe9 O10 2.016228 1_455
Fe9 O3 2.023116 1_565
Fe9 O18 2.023994 1_555
Fe9 O15 2.065209 1_465
