# generated using pymatgen
data_Pr4MnSb9
_symmetry_space_group_name_H-M   'P 1'
_cell_length_a   12.36897629
_cell_length_b   12.36897629
_cell_length_c   15.78779316
_cell_angle_alpha   82.21585552
_cell_angle_beta   82.21585552
_cell_angle_gamma   19.71873191
_symmetry_Int_Tables_number   1
_chemical_formula_structural   Pr4MnSb9
_chemical_formula_sum   'Pr8 Mn2 Sb18'
_cell_volume   807.22556395
_cell_formula_units_Z   2
loop_
 _symmetry_equiv_pos_site_id
 _symmetry_equiv_pos_as_xyz
  1  'x, y, z'
loop_
 _atom_site_type_symbol
 _atom_site_label
 _atom_site_symmetry_multiplicity
 _atom_site_fract_x
 _atom_site_fract_y
 _atom_site_fract_z
 _atom_site_occupancy
  Pr  Pr0  1  0.06619600  0.06619600  0.60735500  1
  Pr  Pr1  1  0.93380400  0.93380400  0.39264500  1
  Pr  Pr2  1  0.05909000  0.05909000  0.18053400  1
  Pr  Pr3  1  0.94091000  0.94091000  0.81946600  1
  Pr  Pr4  1  0.11305400  0.11305400  0.85782900  1
  Pr  Pr5  1  0.88694600  0.88694600  0.14217100  1
  Pr  Pr6  1  0.20580200  0.20580200  0.38713000  1
  Pr  Pr7  1  0.79419800  0.79419800  0.61287000  1
  Mn  Mn0  1  0.27027900  0.27027900  0.87546500  1
  Mn  Mn1  1  0.72972100  0.72972100  0.12453500  1
  Sb  Sb0  1  0.07212500  0.07212500  0.38557800  1
  Sb  Sb1  1  0.92787500  0.92787500  0.61442200  1
  Sb  Sb2  1  0.50000000  0.50000000  0.50000000  1
  Sb  Sb3  1  0.19187200  0.19187200  0.66642200  1
  Sb  Sb4  1  0.80812800  0.80812800  0.33357800  1
  Sb  Sb5  1  0.40852200  0.40852200  0.98014700  1
  Sb  Sb6  1  0.59147800  0.59147800  0.01985300  1
  Sb  Sb7  1  0.00000000  0.00000000  0.00000000  1
  Sb  Sb8  1  0.35827200  0.35827200  0.72936100  1
  Sb  Sb9  1  0.64172800  0.64172800  0.27063900  1
  Sb  Sb10  1  0.33416400  0.33416400  0.45791200  1
  Sb  Sb11  1  0.66583600  0.66583600  0.54208800  1
  Sb  Sb12  1  0.71784700  0.71784700  0.80588300  1
  Sb  Sb13  1  0.28215300  0.28215300  0.19411700  1
  Sb  Sb14  1  0.80663100  0.80663100  0.97123100  1
  Sb  Sb15  1  0.19336900  0.19336900  0.02876900  1
  Sb  Sb16  1  0.53990900  0.53990900  0.76255000  1
  Sb  Sb17  1  0.46009100  0.46009100  0.23745000  1
loop_
_geom_bond_atom_site_label_1
_geom_bond_atom_site_label_2
_geom_bond_distance
_geom_bond_site_symmetry_2
Pr0 Sb16 3.235425 1_545
Pr0 Sb16 3.235425 1_455
Pr0 Sb2 3.273097 1_545
Pr0 Sb2 3.273097 1_455
Pr0 Sb11 3.279786 1_545
Pr0 Sb11 3.279786 1_455
Pr0 Sb3 3.322237 1_555
Pr0 Sb1 3.357723 1_445
Pr0 Sb0 3.484445 1_555
Pr1 Sb17 3.235425 1_565
Pr1 Sb17 3.235425 1_655
Pr1 Sb2 3.273097 1_655
Pr1 Sb2 3.273097 1_565
Pr1 Sb10 3.279786 1_565
Pr1 Sb10 3.279786 1_655
Pr1 Sb4 3.322237 1_555
Pr1 Sb0 3.357723 1_665
Pr1 Sb1 3.484445 1_555
Pr2 Sb17 3.243289 1_455
Pr2 Sb17 3.243289 1_545
Pr2 Sb0 3.295923 1_555
Pr2 Sb6 3.315657 1_545
Pr2 Sb6 3.315657 1_455
Pr2 Sb7 3.365492 1_555
Pr2 Sb9 3.369531 1_455
Pr2 Sb9 3.369531 1_545
Pr2 Sb15 3.780971 1_555
Pr3 Sb16 3.243289 1_565
Pr3 Sb16 3.243289 1_655
Pr3 Sb1 3.295923 1_555
Pr3 Sb5 3.315657 1_655
Pr3 Sb5 3.315657 1_565
Pr3 Sb7 3.365492 1_666
Pr3 Sb8 3.369531 1_565
Pr3 Sb8 3.369531 1_655
Pr3 Sb14 3.780971 1_555
Pr4 Sb16 3.265561 1_545
Pr4 Sb16 3.265561 1_455
Pr4 Sb7 3.306050 1_556
Pr4 Sb6 3.306925 1_546
Pr4 Sb6 3.306925 1_456
Pr4 Sb12 3.332519 1_455
Pr4 Sb12 3.332519 1_545
Pr4 Sb3 3.350525 1_555
Pr4 Sb15 3.545074 1_556
Pr5 Sb17 3.265561 1_565
Pr5 Sb17 3.265561 1_655
Pr5 Sb7 3.306050 1_665
Pr5 Sb5 3.306925 1_654
Pr5 Sb5 3.306925 1_564
Pr5 Sb13 3.332519 1_565
Pr5 Sb13 3.332519 1_655
Pr5 Sb4 3.350525 1_555
Pr5 Sb14 3.545074 1_554
Pr6 Sb0 3.261515 1_555
Pr6 Sb11 3.280916 1_545
Pr6 Sb11 3.280916 1_455
Pr6 Sb4 3.292501 1_455
Pr6 Sb4 3.292501 1_545
Pr6 Sb9 3.331144 1_455
Pr6 Sb9 3.331144 1_545
Pr6 Sb13 3.345070 1_555
Pr6 Sb10 3.463759 1_555
Pr7 Sb1 3.261515 1_555
Pr7 Sb10 3.280916 1_565
Pr7 Sb10 3.280916 1_655
Pr7 Sb3 3.292501 1_565
Pr7 Sb3 3.292501 1_655
Pr7 Sb8 3.331144 1_565
Pr7 Sb8 3.331144 1_655
Pr7 Sb12 3.345070 1_555
Pr7 Sb11 3.463759 1_555
Mn0 Sb12 2.776960 1_455
Mn0 Sb12 2.776960 1_545
Mn0 Sb14 2.815124 1_455
Mn0 Sb14 2.815124 1_545
Mn0 Sb15 2.850325 1_556
Mn0 Sb8 2.925739 1_555
Mn1 Sb13 2.776960 1_565
Mn1 Sb13 2.776960 1_655
Mn1 Sb15 2.815124 1_655
Mn1 Sb15 2.815124 1_565
Mn1 Sb14 2.850325 1_554
Mn1 Sb9 2.925739 1_555
Sb0 Sb9 3.132093 1_455
Sb0 Sb9 3.132093 1_545
Sb0 Sb2 3.156905 1_545
Sb0 Sb2 3.156905 1_455
Sb1 Sb8 3.132093 1_565
Sb1 Sb8 3.132093 1_655
Sb1 Sb2 3.156905 1_565
Sb1 Sb2 3.156905 1_655
Sb5 Sb7 3.122017 1_566
Sb5 Sb7 3.122017 1_656
Sb6 Sb7 3.122017 1_565
Sb6 Sb7 3.122017 1_655
Sb10 Sb4 3.013976 1_455
Sb10 Sb4 3.013976 1_545
Sb11 Sb3 3.013976 1_565
Sb11 Sb3 3.013976 1_655
Sb12 Sb3 3.180812 1_565
Sb12 Sb3 3.180812 1_655
Sb13 Sb4 3.180812 1_455
Sb13 Sb4 3.180812 1_545
Sb14 Sb5 3.281560 1_655
Sb14 Sb5 3.281560 1_565
Sb15 Sb6 3.281560 1_545
Sb15 Sb6 3.281560 1_455
