# generated using pymatgen
data_In2H5(SeO4)3
_symmetry_space_group_name_H-M   'P 1'
_cell_length_a   6.10644000
_cell_length_b   11.38253930
_cell_length_c   11.72762239
_cell_angle_alpha   91.30467331
_cell_angle_beta   91.91819696
_cell_angle_gamma   105.37808841
_symmetry_Int_Tables_number   1
_chemical_formula_structural   In2H5(SeO4)3
_chemical_formula_sum   'In4 H10 Se6 O24'
_cell_volume   785.10044888
_cell_formula_units_Z   2
loop_
 _symmetry_equiv_pos_site_id
 _symmetry_equiv_pos_as_xyz
  1  'x, y, z'
loop_
 _atom_site_type_symbol
 _atom_site_label
 _atom_site_symmetry_multiplicity
 _atom_site_fract_x
 _atom_site_fract_y
 _atom_site_fract_z
 _atom_site_occupancy
  In  In0  1  0.00000000  0.00000000  0.50000000  1
  In  In1  1  0.70763100  0.39586900  0.26611000  1
  In  In2  1  0.29236900  0.60413100  0.73389000  1
  In  In3  1  0.00000000  0.00000000  0.00000000  1
  H  H0  1  0.22332800  0.58666600  0.09127100  1
  H  H1  1  0.77667200  0.41333400  0.90872900  1
  H  H2  1  0.29611300  0.54980600  0.39588400  1
  H  H3  1  0.70388700  0.45019400  0.60411600  1
  H  H4  1  0.39574300  0.99696900  0.16231800  1
  H  H5  1  0.60425700  0.00303100  0.83768200  1
  H  H6  1  0.85773600  0.09977700  0.54535900  1
  H  H7  1  0.14226400  0.90022300  0.45464100  1
  H  H8  1  0.93337700  0.51421100  0.23874300  1
  H  H9  1  0.06662300  0.48578900  0.76125700  1
  Se  Se0  1  0.73672000  0.10321600  0.23955700  1
  Se  Se1  1  0.26328000  0.89678400  0.76044300  1
  Se  Se2  1  0.41373100  0.31133500  0.51311400  1
  Se  Se3  1  0.58626900  0.68866500  0.48688600  1
  Se  Se4  1  0.45958200  0.30005800  0.99227400  1
  Se  Se5  1  0.54041800  0.69994200  0.00772600  1
  O  O0  1  0.77730300  0.64538500  0.41564900  1
  O  O1  1  0.22269700  0.35461500  0.58435100  1
  O  O2  1  0.77921300  0.23038500  0.32356400  1
  O  O3  1  0.22078700  0.76961500  0.67643600  1
  O  O4  1  0.80707600  0.13695700  0.10754300  1
  O  O5  1  0.19292400  0.86304300  0.89245700  1
  O  O6  1  0.43522300  0.03901000  0.23760700  1
  O  O7  1  0.56477700  0.96099000  0.76239300  1
  O  O8  1  0.86171800  0.00675100  0.29784600  1
  O  O9  1  0.13828200  0.99324900  0.70215400  1
  O  O10  1  0.37075400  0.15468500  0.95328000  1
  O  O11  1  0.62924600  0.84531500  0.04672000  1
  O  O12  1  0.45408600  0.39196800  0.38924200  1
  O  O13  1  0.54591400  0.60803200  0.61075800  1
  O  O14  1  0.67226600  0.60831700  0.06744400  1
  O  O15  1  0.32773400  0.39168300  0.93255600  1
  O  O16  1  0.38176300  0.16528600  0.48925300  1
  O  O17  1  0.61823700  0.83471400  0.51074700  1
  O  O18  1  0.24316000  0.65472000  0.03913600  1
  O  O19  1  0.75684000  0.34528000  0.96086400  1
  O  O20  1  0.68520900  0.36234000  0.58781400  1
  O  O21  1  0.31479100  0.63766000  0.41218600  1
  O  O22  1  0.45946200  0.30943200  0.13706300  1
  O  O23  1  0.54053800  0.69056800  0.86293700  1
loop_
_geom_bond_atom_site_label_1
_geom_bond_atom_site_label_2
_geom_bond_distance
_geom_bond_site_symmetry_2
In0 O9 2.499650 1_545
In0 O8 2.499650 1_455
In0 O16 2.587337 1_555
In0 O17 2.587337 1_445
In1 O22 2.131391 1_555
In1 O12 2.144871 1_555
In1 O2 2.160530 1_555
In2 O23 2.131391 1_555
In2 O13 2.144871 1_555
In2 O3 2.160530 1_555
In3 O4 2.528392 1_455
In3 O5 2.528392 1_544
In3 O10 2.557093 1_554
In3 O11 2.557093 1_445
H0 O18 0.982506 1_555
H1 O19 0.982506 1_555
H2 O21 0.989396 1_555
H3 O20 0.989396 1_555
H4 O6 0.985929 1_565
H5 O7 0.985929 1_545
H6 In0 1.689443 1_655
H7 In0 1.689443 1_565
H8 In1 1.697715 1_555
H9 In2 1.697715 1_555
O0 Se3 1.628729 1_555
O1 Se2 1.628729 1_555
O2 Se0 1.688776 1_555
O3 Se1 1.688776 1_555
O4 Se0 1.647157 1_555
O5 Se1 1.647157 1_555
O6 Se0 1.790804 1_555
O7 Se1 1.790804 1_555
O8 Se0 1.642959 1_555
O9 Se1 1.642959 1_555
O10 Se4 1.647521 1_555
O11 Se5 1.647521 1_555
O12 Se2 1.725755 1_555
O13 Se3 1.725755 1_555
O14 Se5 1.633176 1_555
O15 Se4 1.633176 1_555
O16 Se2 1.638004 1_555
O17 Se3 1.638004 1_555
O18 Se5 1.803718 1_555
O19 Se4 1.803718 1_555
O20 Se2 1.794957 1_555
O21 Se3 1.794957 1_555
O22 Se4 1.698990 1_554
O23 Se5 1.698990 1_556
