# generated using pymatgen
data_MgCo6Ag2P6(HO6)4
_symmetry_space_group_name_H-M   'P 1'
_cell_length_a   6.70615010
_cell_length_b   8.71399976
_cell_length_c   8.77102622
_cell_angle_alpha   91.05335558
_cell_angle_beta   107.61181418
_cell_angle_gamma   106.40245141
_symmetry_Int_Tables_number   1
_chemical_formula_structural   MgCo6Ag2P6(HO6)4
_chemical_formula_sum   'Mg1 Co6 Ag2 P6 H4 O24'
_cell_volume   465.61812528
_cell_formula_units_Z   1
loop_
 _symmetry_equiv_pos_site_id
 _symmetry_equiv_pos_as_xyz
  1  'x, y, z'
loop_
 _atom_site_type_symbol
 _atom_site_label
 _atom_site_symmetry_multiplicity
 _atom_site_fract_x
 _atom_site_fract_y
 _atom_site_fract_z
 _atom_site_occupancy
  Mg  Mg0  1  0.11183735  0.62775441  0.39862045  1
  Co  Co0  1  0.27433802  0.80234496  0.18191386  1
  Co  Co1  1  0.62904351  0.55221947  0.87891910  1
  Co  Co2  1  0.10109979  0.91103344  0.54860063  1
  Co  Co3  1  0.38198936  0.45747028  0.12171647  1
  Co  Co4  1  0.88698572  0.12117116  0.46438165  1
  Co  Co5  1  0.75652547  0.22407875  0.78706022  1
  Ag  Ag0  1  0.27397140  0.40904015  0.56597564  1
  Ag  Ag1  1  0.71149310  0.53539137  0.48618368  1
  P  P0  1  0.25475616  0.18234626  0.82789712  1
  P  P1  1  0.74663014  0.81000897  0.18063546  1
  P  P2  1  0.40071700  0.17206986  0.38686744  1
  P  P3  1  0.10360097  0.59980381  0.81563515  1
  P  P4  1  0.59671423  0.83239131  0.61408532  1
  P  P5  1  0.89075455  0.38909300  0.15830562  1
  H  H0  1  0.32181877  0.12273819  0.12327486  1
  H  H1  1  0.18299834  0.87422803  0.86630645  1
  H  H2  1  0.68840328  0.89718932  0.87482124  1
  H  H3  1  0.79966699  0.07647896  0.14055928  1
  O  O0  1  0.29971165  0.53593203  0.89052944  1
  O  O1  1  0.13842817  0.76194969  0.91853938  1
  O  O2  1  0.65172343  0.95484655  0.77148754  1
  O  O3  1  0.85015656  0.23380421  0.05067604  1
  O  O4  1  0.41168401  0.34303323  0.33204813  1
  O  O5  1  0.08762449  0.63619118  0.63811607  1
  O  O6  1  0.58313876  0.66339513  0.67171614  1
  O  O7  1  0.91705241  0.36539439  0.34082161  1
  O  O8  1  0.20425637  0.11799923  0.45064436  1
  O  O9  1  0.35639996  0.05781164  0.22896600  1
  O  O10  1  0.74014139  0.78761432  0.00461513  1
  O  O11  1  0.76490587  0.99503135  0.21900490  1
  O  O12  1  0.28071385  0.22056811  0.00729661  1
  O  O13  1  0.23881125  0.00409590  0.79209400  1
  O  O14  1  0.53722854  0.70661087  0.21211964  1
  O  O15  1  0.95227901  0.78052668  0.30052192  1
  O  O16  1  0.46190784  0.28817061  0.78721293  1
  O  O17  1  0.78007244  0.88866901  0.53990610  1
  O  O18  1  0.88281799  0.48158663  0.81832249  1
  O  O19  1  0.61690815  0.17267214  0.51581034  1
  O  O20  1  0.11501609  0.52155315  0.17358088  1
  O  O21  1  0.37179968  0.82686451  0.49333940  1
  O  O22  1  0.70212336  0.46632884  0.09708943  1
  O  O23  1  0.04175160  0.21749887  0.72221787  1
loop_
_geom_bond_atom_site_label_1
_geom_bond_atom_site_label_2
_geom_bond_distance
_geom_bond_site_symmetry_2
Mg0 O15 1.986707 1_455
Mg0 O21 2.025366 1_555
Mg0 O5 2.156815 1_555
Mg0 O20 2.173092 1_555
Mg0 O7 2.249468 1_455
Co0 O14 2.104836 1_555
Co0 O9 2.136763 1_565
Co0 O1 2.192222 1_554
Co0 O20 2.367181 1_555
Co0 O21 2.598725 1_555
Co0 O15 2.630217 1_455
Co1 O22 2.038248 1_556
Co1 O6 2.056892 1_555
Co1 O10 2.129507 1_556
Co1 O18 2.164376 1_555
Co1 O0 2.206310 1_555
Co1 O16 2.264375 1_555
Co2 O8 2.044843 1_565
Co2 O17 2.083685 1_455
Co2 O13 2.095591 1_565
Co2 O15 2.231104 1_455
Co2 O21 2.310788 1_555
Co2 O5 2.519993 1_555
Co3 O4 2.096409 1_555
Co3 O12 2.109404 1_555
Co3 O0 2.114393 1_554
Co3 O14 2.141624 1_555
Co3 O20 2.184562 1_555
Co3 O22 2.202111 1_555
Co4 O17 2.138692 1_545
Co4 O19 2.152034 1_555
Co4 O8 2.174963 1_655
Co4 O11 2.202045 1_545
Co4 O23 2.216746 1_655
Co4 O7 2.391427 1_555
Co5 O18 2.142712 1_555
Co5 O23 2.168979 1_655
Co5 O3 2.198140 1_556
Co5 O16 2.200062 1_555
Co5 O2 2.239564 1_545
Co5 O19 2.261323 1_555
Ag0 O16 2.410009 1_555
Ag0 O6 2.497390 1_555
Ag0 O7 2.524199 1_455
Ag0 O8 2.573648 1_555
Ag0 O4 2.607068 1_555
Ag0 O23 2.645111 1_555
Ag0 Mg0 2.697523 1_555
Ag0 O5 2.776596 1_555
Ag1 O4 2.246836 1_555
Ag1 O5 2.362508 1_655
Ag1 O6 2.440564 1_555
H0 O9 1.093862 1_555
H0 O12 1.353674 1_555
H1 O1 1.091177 1_555
H1 O13 1.334076 1_565
H2 O2 1.042125 1_555
H2 O10 1.521892 1_556
H3 O11 1.026182 1_545
H3 O3 1.598354 1_555
O0 P3 1.541092 1_555
O1 P3 1.582645 1_555
O2 P4 1.611230 1_555
O3 P5 1.544620 1_555
O4 P2 1.562653 1_555
O5 P3 1.572493 1_555
O6 P4 1.553044 1_555
O7 P5 1.580619 1_555
O8 P2 1.541360 1_555
O9 P2 1.590866 1_555
O10 P1 1.538509 1_555
O11 P1 1.603507 1_555
O12 P0 1.549008 1_554
O13 P0 1.546173 1_555
O14 P1 1.545739 1_555
O15 P1 1.551176 1_555
O16 P0 1.579917 1_555
O17 P4 1.526791 1_555
O18 P3 1.553883 1_655
O19 P2 1.544122 1_555
O20 P5 1.582424 1_455
O21 P4 1.545769 1_555
O22 P5 1.557102 1_555
O23 P0 1.565178 1_555
