# generated using pymatgen
data_CsHPt2(SO4)4
_symmetry_space_group_name_H-M   'P 1'
_cell_length_a   9.06606500
_cell_length_b   9.58601600
_cell_length_c   17.58153759
_cell_angle_alpha   79.94197895
_cell_angle_beta   90.00000000
_cell_angle_gamma   90.00000000
_symmetry_Int_Tables_number   1
_chemical_formula_structural   CsHPt2(SO4)4
_chemical_formula_sum   'Cs4 H4 Pt8 S16 O64'
_cell_volume   1504.48379272
_cell_formula_units_Z   4
loop_
 _symmetry_equiv_pos_site_id
 _symmetry_equiv_pos_as_xyz
  1  'x, y, z'
loop_
 _atom_site_type_symbol
 _atom_site_label
 _atom_site_symmetry_multiplicity
 _atom_site_fract_x
 _atom_site_fract_y
 _atom_site_fract_z
 _atom_site_occupancy
  Cs  Cs0  1  0.10998600  0.49644600  0.26508100  1
  Cs  Cs1  1  0.60998600  0.00355400  0.73491900  1
  Cs  Cs2  1  0.89001400  0.50355400  0.73491900  1
  Cs  Cs3  1  0.39001400  0.99644600  0.26508100  1
  H  H0  1  0.93644600  0.96607100  0.24579600  1
  H  H1  1  0.43644600  0.53392900  0.75420400  1
  H  H2  1  0.06355400  0.03392900  0.75420400  1
  H  H3  1  0.56355400  0.46607100  0.24579600  1
  Pt  Pt0  1  0.12332100  0.06059500  0.49421800  1
  Pt  Pt1  1  0.62332100  0.43940500  0.50578200  1
  Pt  Pt2  1  0.87667900  0.93940500  0.50578200  1
  Pt  Pt3  1  0.37667900  0.56059500  0.49421800  1
  Pt  Pt4  1  0.06490700  0.11148300  0.00972400  1
  Pt  Pt5  1  0.56490700  0.38851700  0.99027600  1
  Pt  Pt6  1  0.93509300  0.88851700  0.99027600  1
  Pt  Pt7  1  0.43509300  0.61148300  0.00972400  1
  S  S0  1  0.38844400  0.27882500  0.42562700  1
  S  S1  1  0.88844400  0.22117500  0.57437300  1
  S  S2  1  0.61155600  0.72117500  0.57437300  1
  S  S3  1  0.11155600  0.77882500  0.42562700  1
  S  S4  1  0.91912000  0.14357700  0.35109900  1
  S  S5  1  0.41912000  0.35642300  0.64890100  1
  S  S6  1  0.08088000  0.85642300  0.64890100  1
  S  S7  1  0.58088000  0.64357700  0.35109900  1
  S  S8  1  0.27523200  0.33142200  0.08524900  1
  S  S9  1  0.77523200  0.16857800  0.91475100  1
  S  S10  1  0.72476800  0.66857800  0.91475100  1
  S  S11  1  0.22476800  0.83142200  0.08524900  1
  S  S12  1  0.82641900  0.00466500  0.13497500  1
  S  S13  1  0.32641900  0.49533500  0.86502500  1
  S  S14  1  0.17358100  0.99533500  0.86502500  1
  S  S15  1  0.67358100  0.50466500  0.13497500  1
  O  O0  1  0.30350600  0.41722700  0.42911900  1
  O  O1  1  0.80350600  0.08277300  0.57088100  1
  O  O2  1  0.69649400  0.58277300  0.57088100  1
  O  O3  1  0.19649400  0.91722700  0.42911900  1
  O  O4  1  0.55279400  0.30027300  0.43904100  1
  O  O5  1  0.05279400  0.19972700  0.56095900  1
  O  O6  1  0.44720600  0.69972700  0.56095900  1
  O  O7  1  0.94720600  0.80027300  0.43904100  1
  O  O8  1  0.36757400  0.24687200  0.34914100  1
  O  O9  1  0.86757400  0.25312800  0.65085900  1
  O  O10  1  0.63242600  0.75312800  0.65085900  1
  O  O11  1  0.13242600  0.74687200  0.34914100  1
  O  O12  1  0.33993200  0.16429100  0.48950800  1
  O  O13  1  0.83993200  0.33570900  0.51049200  1
  O  O14  1  0.66006800  0.83570900  0.51049200  1
  O  O15  1  0.16006800  0.66429100  0.48950800  1
  O  O16  1  0.98313700  0.04202800  0.30628100  1
  O  O17  1  0.48313700  0.45797200  0.69371900  1
  O  O18  1  0.01686300  0.95797200  0.69371900  1
  O  O19  1  0.51686300  0.54202800  0.30628100  1
  O  O20  1  0.04575500  0.19442300  0.39908900  1
  O  O21  1  0.54575500  0.30557700  0.60091100  1
  O  O22  1  0.95424500  0.80557700  0.60091100  1
  O  O23  1  0.45424500  0.69442300  0.39908900  1
  O  O24  1  0.80278000  0.07085400  0.40877500  1
  O  O25  1  0.30278000  0.42914600  0.59122500  1
  O  O26  1  0.19722000  0.92914600  0.59122500  1
  O  O27  1  0.69722000  0.57085400  0.40877500  1
  O  O28  1  0.85408900  0.26797600  0.30589600  1
  O  O29  1  0.35408900  0.23202400  0.69410400  1
  O  O30  1  0.14591100  0.73202400  0.69410400  1
  O  O31  1  0.64591100  0.76797600  0.30589600  1
  O  O32  1  0.16860100  0.31497600  0.02273400  1
  O  O33  1  0.66860100  0.18502400  0.97726600  1
  O  O34  1  0.83139900  0.68502400  0.97726600  1
  O  O35  1  0.33139900  0.81497600  0.02273400  1
  O  O36  1  0.22993500  0.26549400  0.16168200  1
  O  O37  1  0.72993500  0.23450600  0.83831800  1
  O  O38  1  0.77006500  0.73450600  0.83831800  1
  O  O39  1  0.27006500  0.76549400  0.16168200  1
  O  O40  1  0.29229600  0.49164500  0.08443800  1
  O  O41  1  0.79229600  0.00835500  0.91556200  1
  O  O42  1  0.70770400  0.50835500  0.91556200  1
  O  O43  1  0.20770400  0.99164500  0.08443800  1
  O  O44  1  0.42690100  0.27129200  0.06848300  1
  O  O45  1  0.92690100  0.22870800  0.93151700  1
  O  O46  1  0.57309900  0.72870800  0.93151700  1
  O  O47  1  0.07309900  0.77129200  0.06848300  1
  O  O48  1  0.69456900  0.05587300  0.16494500  1
  O  O49  1  0.19456900  0.44412700  0.83505500  1
  O  O50  1  0.30543100  0.94412700  0.83505500  1
  O  O51  1  0.80543100  0.55587300  0.16494500  1
  O  O52  1  0.92089700  0.91466300  0.19755200  1
  O  O53  1  0.42089700  0.58533700  0.80244800  1
  O  O54  1  0.07910300  0.08533700  0.80244800  1
  O  O55  1  0.57910300  0.41466300  0.19755200  1
  O  O56  1  0.79280900  0.90630200  0.07815900  1
  O  O57  1  0.29280900  0.59369800  0.92184100  1
  O  O58  1  0.20719100  0.09369800  0.92184100  1
  O  O59  1  0.70719100  0.40630200  0.07815900  1
  O  O60  1  0.91952800  0.13081500  0.09592200  1
  O  O61  1  0.41952800  0.36918500  0.90407800  1
  O  O62  1  0.08047200  0.86918500  0.90407800  1
  O  O63  1  0.58047200  0.63081500  0.09592200  1
loop_
_geom_bond_atom_site_label_1
_geom_bond_atom_site_label_2
_geom_bond_distance
_geom_bond_site_symmetry_2
Cs0 O11 3.037703 1_555
Cs0 O28 3.185106 1_455
Cs0 O39 3.228795 1_555
Cs0 O51 3.270701 1_455
Cs0 O36 3.285510 1_555
Cs0 O0 3.347764 1_555
Cs0 O20 3.448146 1_555
Cs0 O8 3.482318 1_555
Cs0 O40 3.587742 1_555
Cs1 O10 3.037703 1_545
Cs1 O29 3.185106 1_555
Cs1 O38 3.228795 1_545
Cs1 O50 3.270701 1_545
Cs1 O37 3.285510 1_555
Cs1 O1 3.347764 1_555
Cs1 O21 3.448146 1_555
Cs1 O9 3.482318 1_555
Cs1 O41 3.587742 1_555
Cs2 O9 3.037703 1_555
Cs2 O30 3.185106 1_655
Cs2 O37 3.228795 1_555
Cs2 O49 3.270701 1_655
Cs2 O38 3.285510 1_555
Cs2 O2 3.347764 1_555
Cs2 O22 3.448146 1_555
Cs2 O10 3.482318 1_555
Cs2 O42 3.587742 1_555
Cs3 O8 3.037703 1_565
Cs3 O31 3.185106 1_555
Cs3 O36 3.228795 1_565
Cs3 O48 3.270701 1_565
Cs3 O39 3.285510 1_555
Cs3 O3 3.347764 1_555
Cs3 O23 3.448146 1_555
Cs3 O11 3.482318 1_555
Cs3 O43 3.587742 1_555
H0 O52 1.062155 1_555
H0 O16 1.452814 1_565
H1 O53 1.062155 1_555
H1 O17 1.452814 1_555
H2 O54 1.062155 1_555
H2 O18 1.452814 1_545
H3 O55 1.062155 1_555
H3 O19 1.452814 1_555
O0 S0 1.544474 1_555
O0 Pt3 2.046525 1_555
O1 S1 1.544474 1_555
O1 Pt2 2.046525 1_545
O2 S2 1.544474 1_555
O2 Pt1 2.046525 1_555
O3 S3 1.544474 1_555
O3 Pt0 2.046525 1_565
O4 S0 1.528055 1_555
O4 Pt1 2.027604 1_555
O5 S1 1.528055 1_455
O5 Pt0 2.027604 1_555
O6 S2 1.528055 1_555
O6 Pt3 2.027604 1_555
O7 S3 1.528055 1_655
O7 Pt2 2.027604 1_555
O8 S0 1.442852 1_555
O9 S1 1.442852 1_555
O10 S2 1.442852 1_555
O11 S3 1.442852 1_555
O12 S0 1.493176 1_555
O12 Pt0 2.196076 1_555
O13 S1 1.493176 1_555
O13 Pt1 2.196076 1_555
O14 S2 1.493176 1_555
O14 Pt2 2.196076 1_555
O15 S3 1.493176 1_555
O15 Pt3 2.196076 1_555
O16 S4 1.474201 1_555
O17 S5 1.474201 1_555
O18 S6 1.474201 1_555
O19 S7 1.474201 1_555
O20 S4 1.552803 1_455
O20 Pt0 2.046496 1_555
O21 S5 1.552803 1_555
O21 Pt1 2.046496 1_555
O22 S6 1.552803 1_655
O22 Pt2 2.046496 1_555
O23 S7 1.552803 1_555
O23 Pt3 2.046496 1_555
O24 S4 1.542666 1_555
O24 Pt2 2.048128 1_545
O25 S5 1.542666 1_555
O25 Pt3 2.048128 1_555
O26 S6 1.542666 1_555
O26 Pt0 2.048128 1_565
O27 S7 1.542666 1_555
O27 Pt1 2.048128 1_555
O28 S4 1.438824 1_555
O29 S5 1.438824 1_555
O30 S6 1.438824 1_555
O31 S7 1.438824 1_555
O32 S8 1.492640 1_555
O32 Pt4 2.212947 1_555
O33 S9 1.492640 1_555
O33 Pt5 2.212947 1_555
O34 S10 1.492640 1_555
O34 Pt6 2.212947 1_555
O35 S11 1.492640 1_555
O35 Pt7 2.212947 1_555
O36 S8 1.441262 1_555
O37 S9 1.441262 1_555
O38 S10 1.441262 1_555
O39 S11 1.441262 1_555
O40 S8 1.541258 1_555
O40 Pt7 2.047952 1_555
O41 S9 1.541258 1_555
O41 Pt6 2.047952 1_545
O42 S10 1.541258 1_555
O42 Pt5 2.047952 1_555
O43 S11 1.541258 1_555
O43 Pt4 2.047952 1_565
O44 S8 1.539227 1_555
O44 Pt5 2.044286 1_554
O45 S9 1.539227 1_555
O45 Pt4 2.044286 1_656
O46 S10 1.539227 1_555
O46 Pt7 2.044286 1_556
O47 S11 1.539227 1_555
O47 Pt6 2.044286 1_454
O48 S12 1.427529 1_555
O49 S13 1.427529 1_555
O50 S14 1.427529 1_555
O51 S15 1.427529 1_555
O52 S12 1.535224 1_565
O53 S13 1.535224 1_555
O54 S14 1.535224 1_545
O55 S15 1.535224 1_555
O56 S12 1.519455 1_565
O56 Pt6 2.042659 1_554
O57 S13 1.519455 1_555
O57 Pt7 2.042659 1_556
O58 S14 1.519455 1_545
O58 Pt4 2.042659 1_556
O59 S15 1.519455 1_555
O59 Pt5 2.042659 1_554
O60 S12 1.535033 1_555
O60 Pt4 2.041158 1_655
O61 S13 1.535033 1_555
O61 Pt5 2.041158 1_555
O62 S14 1.535033 1_555
O62 Pt6 2.041158 1_455
O63 S15 1.535033 1_555
O63 Pt7 2.041158 1_555
