# generated using pymatgen
data_Cs3HoCl6
_symmetry_space_group_name_H-M   'P 1'
_cell_length_a   8.32126720
_cell_length_b   13.43991334
_cell_length_c   26.74855517
_cell_angle_alpha   90.00000000
_cell_angle_beta   90.00000000
_cell_angle_gamma   90.00000000
_symmetry_Int_Tables_number   1
_chemical_formula_structural   Cs3HoCl6
_chemical_formula_sum   'Cs24 Ho8 Cl48'
_cell_volume   2991.48110815
_cell_formula_units_Z   8
loop_
 _symmetry_equiv_pos_site_id
 _symmetry_equiv_pos_as_xyz
  1  'x, y, z'
loop_
 _atom_site_type_symbol
 _atom_site_label
 _atom_site_symmetry_multiplicity
 _atom_site_fract_x
 _atom_site_fract_y
 _atom_site_fract_z
 _atom_site_occupancy
  Cs  Cs0  1  0.30896507  0.40849725  0.15275736  1
  Cs  Cs1  1  0.69103493  0.59150275  0.84724264  1
  Cs  Cs2  1  0.69103493  0.59150275  0.65275736  1
  Cs  Cs3  1  0.69103493  0.90849725  0.34724264  1
  Cs  Cs4  1  0.30896507  0.40849725  0.34724264  1
  Cs  Cs5  1  0.30896507  0.09150275  0.65275736  1
  Cs  Cs6  1  0.30896507  0.09150275  0.84724264  1
  Cs  Cs7  1  0.69103493  0.90849725  0.15275736  1
  Cs  Cs8  1  0.18350571  0.75564063  0.16311626  1
  Cs  Cs9  1  0.81649429  0.24435937  0.83688374  1
  Cs  Cs10  1  0.81649429  0.24435937  0.66311626  1
  Cs  Cs11  1  0.81649429  0.25564063  0.33688374  1
  Cs  Cs12  1  0.18350571  0.75564063  0.33688374  1
  Cs  Cs13  1  0.18350571  0.74435937  0.66311626  1
  Cs  Cs14  1  0.18350571  0.74435937  0.83688374  1
  Cs  Cs15  1  0.81649429  0.25564063  0.16311626  1
  Cs  Cs16  1  0.26173406  0.08592488  0.05009874  1
  Cs  Cs17  1  0.73826594  0.91407512  0.94990126  1
  Cs  Cs18  1  0.73826594  0.91407512  0.55009874  1
  Cs  Cs19  1  0.73826594  0.58592488  0.44990126  1
  Cs  Cs20  1  0.26173406  0.08592488  0.44990126  1
  Cs  Cs21  1  0.26173406  0.41407512  0.55009874  1
  Cs  Cs22  1  0.26173406  0.41407512  0.94990126  1
  Cs  Cs23  1  0.73826594  0.58592488  0.05009874  1
  Ho  Ho0  1  0.78714366  0.25000000  -0.00000000  1
  Ho  Ho1  1  0.21285634  0.75000000  -0.00000000  1
  Ho  Ho2  1  0.21285634  0.75000000  0.50000000  1
  Ho  Ho3  1  0.78714366  0.25000000  0.50000000  1
  Ho  Ho4  1  0.25828528  0.08213969  0.25000000  1
  Ho  Ho5  1  0.74171472  0.91786031  0.75000000  1
  Ho  Ho6  1  0.74171472  0.58213969  0.25000000  1
  Ho  Ho7  1  0.25828528  0.41786031  0.75000000  1
  Cl  Cl0  1  0.60282447  0.40461262  0.25000000  1
  Cl  Cl1  1  0.39717553  0.59538738  0.75000000  1
  Cl  Cl2  1  0.39717553  0.90461262  0.25000000  1
  Cl  Cl3  1  0.60282447  0.09538738  0.75000000  1
  Cl  Cl4  1  0.45198689  0.13621351  0.17596786  1
  Cl  Cl5  1  0.54801311  0.86378649  0.82403214  1
  Cl  Cl6  1  0.54801311  0.86378649  0.67596786  1
  Cl  Cl7  1  0.54801311  0.63621351  0.32403214  1
  Cl  Cl8  1  0.45198689  0.13621351  0.32403214  1
  Cl  Cl9  1  0.45198689  0.36378649  0.67596786  1
  Cl  Cl10  1  0.45198689  0.36378649  0.82403214  1
  Cl  Cl11  1  0.54801311  0.63621351  0.17596786  1
  Cl  Cl12  1  0.13055618  0.26322316  0.25000000  1
  Cl  Cl13  1  0.86944382  0.73677684  0.75000000  1
  Cl  Cl14  1  0.86944382  0.76322316  0.25000000  1
  Cl  Cl15  1  0.13055618  0.23677684  0.75000000  1
  Cl  Cl16  1  0.22305243  0.58940560  0.05577954  1
  Cl  Cl17  1  0.77694757  0.41059440  0.94422046  1
  Cl  Cl18  1  0.77694757  0.41059440  0.55577954  1
  Cl  Cl19  1  0.77694757  0.08940560  0.44422046  1
  Cl  Cl20  1  0.22305243  0.58940560  0.44422046  1
  Cl  Cl21  1  0.22305243  0.91059440  0.55577954  1
  Cl  Cl22  1  0.22305243  0.91059440  0.94422046  1
  Cl  Cl23  1  0.77694757  0.08940560  0.05577954  1
  Cl  Cl24  1  0.56836507  0.33644478  0.05719528  1
  Cl  Cl25  1  0.43163493  0.66355522  0.94280472  1
  Cl  Cl26  1  0.43163493  0.66355522  0.55719528  1
  Cl  Cl27  1  0.43163493  0.83644478  0.44280472  1
  Cl  Cl28  1  0.56836507  0.33644478  0.44280472  1
  Cl  Cl29  1  0.56836507  0.16355522  0.55719528  1
  Cl  Cl30  1  0.56836507  0.16355522  0.94280472  1
  Cl  Cl31  1  0.43163493  0.83644478  0.05719528  1
  Cl  Cl32  1  0.02387558  0.31992658  0.05689883  1
  Cl  Cl33  1  0.97612442  0.68007342  0.94310117  1
  Cl  Cl34  1  0.97612442  0.68007342  0.55689883  1
  Cl  Cl35  1  0.97612442  0.81992658  0.44310117  1
  Cl  Cl36  1  0.02387558  0.31992658  0.44310117  1
  Cl  Cl37  1  0.02387558  0.18007342  0.55689883  1
  Cl  Cl38  1  0.02387558  0.18007342  0.94310117  1
  Cl  Cl39  1  0.97612442  0.81992658  0.05689883  1
  Cl  Cl40  1  0.05704311  0.02624496  0.17878947  1
  Cl  Cl41  1  0.94295689  0.97375504  0.82121053  1
  Cl  Cl42  1  0.94295689  0.97375504  0.67878947  1
  Cl  Cl43  1  0.94295689  0.52624496  0.32121053  1
  Cl  Cl44  1  0.05704311  0.02624496  0.32121053  1
  Cl  Cl45  1  0.05704311  0.47375504  0.67878947  1
  Cl  Cl46  1  0.05704311  0.47375504  0.82121053  1
  Cl  Cl47  1  0.94295689  0.52624496  0.17878947  1
loop_
_geom_bond_atom_site_label_1
_geom_bond_atom_site_label_2
_geom_bond_distance
_geom_bond_site_symmetry_2
Cl0 Ho6 2.651130 1_555
Cl0 Cs15 3.545565 1_555
Cl0 Cs11 3.545565 1_555
Cl0 Cs0 3.570414 1_555
Cl0 Cs4 3.570414 1_555
Cl1 Ho7 2.651130 1_555
Cl1 Cs13 3.545565 1_555
Cl1 Cs14 3.545565 1_555
Cl1 Cs2 3.570414 1_555
Cl1 Cs1 3.570414 1_555
Cl2 Ho4 2.651130 1_565
Cl2 Cs8 3.545565 1_555
Cl2 Cs12 3.545565 1_555
Cl2 Cs3 3.570414 1_555
Cl2 Cs7 3.570414 1_555
Cl3 Ho5 2.651130 1_545
Cl3 Cs10 3.545565 1_555
Cl3 Cs9 3.545565 1_555
Cl3 Cs5 3.570414 1_555
Cl3 Cs6 3.570414 1_555
Cl4 Ho4 2.654732 1_555
Cl4 Cs15 3.448850 1_555
Cl4 Cs7 3.702550 1_545
Cl4 Cs16 3.781350 1_555
Cl4 Cs0 3.897892 1_555
Cl5 Ho5 2.654732 1_555
Cl5 Cs14 3.448850 1_555
Cl5 Cs6 3.702550 1_565
Cl5 Cs17 3.781350 1_555
Cl5 Cs1 3.897892 1_555
Cl6 Ho5 2.654732 1_555
Cl6 Cs13 3.448850 1_555
Cl6 Cs5 3.702550 1_565
Cl6 Cs18 3.781350 1_555
Cl6 Cs2 3.897892 1_555
Cl7 Ho6 2.654732 1_555
Cl7 Cs12 3.448850 1_555
Cl7 Cs4 3.702550 1_555
Cl7 Cs19 3.781350 1_555
Cl7 Cs3 3.897892 1_555
Cl8 Ho4 2.654732 1_555
Cl8 Cs11 3.448850 1_555
Cl8 Cs3 3.702550 1_545
Cl8 Cs20 3.781350 1_555
Cl8 Cs4 3.897892 1_555
Cl9 Ho7 2.654732 1_555
Cl9 Cs10 3.448850 1_555
Cl9 Cs2 3.702550 1_555
Cl9 Cs21 3.781350 1_555
Cl9 Cs5 3.897892 1_555
Cl10 Ho7 2.654732 1_555
Cl10 Cs9 3.448850 1_555
Cl10 Cs1 3.702550 1_555
Cl10 Cs22 3.781350 1_555
Cl10 Cs6 3.897892 1_555
Cl11 Ho6 2.654732 1_555
Cl11 Cs8 3.448850 1_555
Cl11 Cs0 3.702550 1_555
Cl11 Cs23 3.781350 1_555
Cl11 Cs7 3.897892 1_555
Cl12 Ho4 2.655712 1_555
Cl12 Cs11 3.498750 1_455
Cl12 Cs15 3.498750 1_455
Cl12 Cs0 3.575174 1_555
Cl12 Cs4 3.575174 1_555
Cl13 Ho5 2.655712 1_555
Cl13 Cs13 3.498750 1_655
Cl13 Cs14 3.498750 1_655
Cl13 Cs2 3.575174 1_555
Cl13 Cs1 3.575174 1_555
Cl14 Ho6 2.655712 1_555
Cl14 Cs12 3.498750 1_655
Cl14 Cs8 3.498750 1_655
Cl14 Cs7 3.575174 1_555
Cl14 Cs3 3.575174 1_555
Cl15 Ho7 2.655712 1_555
Cl15 Cs9 3.498750 1_455
Cl15 Cs10 3.498750 1_455
Cl15 Cs5 3.575174 1_555
Cl15 Cs6 3.575174 1_555
Cl16 Ho1 2.625245 1_555
Cl16 Cs0 3.626524 1_555
Cl16 Cs8 3.652821 1_555
Cl16 Cs22 3.698255 1_554
Cl16 Cs23 4.037170 1_455
Cl17 Ho0 2.625245 1_556
Cl17 Cs1 3.626524 1_555
Cl17 Cs9 3.652821 1_555
Cl17 Cs23 3.698255 1_556
Cl17 Cs22 4.037170 1_655
Cl18 Ho3 2.625245 1_555
Cl18 Cs2 3.626524 1_555
Cl18 Cs10 3.652821 1_555
Cl18 Cs19 3.698255 1_555
Cl18 Cs21 4.037170 1_655
Cl19 Ho3 2.625245 1_555
Cl19 Cs3 3.626524 1_545
Cl19 Cs11 3.652821 1_555
Cl19 Cs18 3.698255 1_545
Cl19 Cs20 4.037170 1_655
Cl20 Ho2 2.625245 1_555
Cl20 Cs4 3.626524 1_555
Cl20 Cs12 3.652821 1_555
Cl20 Cs21 3.698255 1_555
Cl20 Cs19 4.037170 1_455
Cl21 Ho2 2.625245 1_555
Cl21 Cs5 3.626524 1_565
Cl21 Cs13 3.652821 1_555
Cl21 Cs20 3.698255 1_565
Cl21 Cs18 4.037170 1_455
Cl22 Ho1 2.625245 1_556
Cl22 Cs6 3.626524 1_565
Cl22 Cs14 3.652821 1_555
Cl22 Cs16 3.698255 1_566
Cl22 Cs17 4.037170 1_455
Cl23 Ho0 2.625245 1_555
Cl23 Cs7 3.626524 1_545
Cl23 Cs15 3.652821 1_555
Cl23 Cs17 3.698255 1_544
Cl23 Cs16 4.037170 1_655
Cl24 Ho0 2.646629 1_555
Cl24 Cs0 3.482948 1_555
Cl24 Cs23 3.643815 1_555
Cl24 Cs15 3.670122 1_555
Cl24 Cs22 3.979408 1_554
Cl25 Ho1 2.646629 1_556
Cl25 Cs1 3.482948 1_555
Cl25 Cs22 3.643815 1_555
Cl25 Cs14 3.670122 1_555
Cl25 Cs23 3.979408 1_556
Cl26 Ho2 2.646629 1_555
Cl26 Cs2 3.482948 1_555
Cl26 Cs21 3.643815 1_555
Cl26 Cs13 3.670122 1_555
Cl26 Cs19 3.979408 1_555
Cl27 Ho2 2.646629 1_555
Cl27 Cs3 3.482948 1_555
Cl27 Cs20 3.643815 1_565
Cl27 Cs12 3.670122 1_555
Cl27 Cs18 3.979408 1_555
Cl28 Ho3 2.646629 1_555
Cl28 Cs4 3.482948 1_555
Cl28 Cs19 3.643815 1_555
Cl28 Cs11 3.670122 1_555
Cl28 Cs21 3.979408 1_555
Cl29 Ho3 2.646629 1_555
Cl29 Cs5 3.482948 1_555
Cl29 Cs18 3.643815 1_545
Cl29 Cs10 3.670122 1_555
Cl29 Cs20 3.979408 1_555
Cl30 Ho0 2.646629 1_556
Cl30 Cs6 3.482948 1_555
Cl30 Cs17 3.643815 1_545
Cl30 Cs9 3.670122 1_555
Cl30 Cs16 3.979408 1_556
Cl31 Ho1 2.646629 1_555
Cl31 Cs7 3.482948 1_555
Cl31 Cs16 3.643815 1_565
Cl31 Cs8 3.670122 1_555
Cl31 Cs17 3.979408 1_554
Cl32 Ho0 2.660855 1_455
Cl32 Cs15 3.434626 1_455
Cl32 Cs0 3.690438 1_555
Cl32 Cs22 3.702687 1_554
Cl32 Cs16 3.720409 1_555
Cl33 Ho1 2.660855 1_656
Cl33 Cs14 3.434626 1_655
Cl33 Cs1 3.690438 1_555
Cl33 Cs23 3.702687 1_556
Cl33 Cs17 3.720409 1_555
Cl34 Ho2 2.660855 1_655
Cl34 Cs13 3.434626 1_655
Cl34 Cs2 3.690438 1_555
Cl34 Cs19 3.702687 1_555
Cl34 Cs18 3.720409 1_555
Cl35 Ho2 2.660855 1_655
Cl35 Cs12 3.434626 1_655
Cl35 Cs3 3.690438 1_555
Cl35 Cs18 3.702687 1_555
Cl35 Cs19 3.720409 1_555
Cl36 Ho3 2.660855 1_455
Cl36 Cs11 3.434626 1_455
Cl36 Cs4 3.690438 1_555
Cl36 Cs21 3.702687 1_555
Cl36 Cs20 3.720409 1_555
Cl37 Ho3 2.660855 1_455
Cl37 Cs10 3.434626 1_455
Cl37 Cs5 3.690438 1_555
Cl37 Cs20 3.702687 1_555
Cl37 Cs21 3.720409 1_555
Cl38 Ho0 2.660855 1_456
Cl38 Cs9 3.434626 1_455
Cl38 Cs6 3.690438 1_555
Cl38 Cs16 3.702687 1_556
Cl38 Cs22 3.720409 1_555
Cl39 Ho1 2.660855 1_655
Cl39 Cs8 3.434626 1_655
Cl39 Cs7 3.690438 1_555
Cl39 Cs17 3.702687 1_554
Cl39 Cs23 3.720409 1_555
Cl40 Ho4 2.645140 1_555
Cl40 Cs7 3.502174 1_445
Cl40 Cs15 3.699688 1_455
Cl40 Cs8 3.809224 1_545
Cl40 Cs16 3.923508 1_555
Cl41 Ho5 2.645140 1_555
Cl41 Cs6 3.502174 1_665
Cl41 Cs14 3.699688 1_655
Cl41 Cs9 3.809224 1_565
Cl41 Cs17 3.923508 1_555
Cl42 Ho5 2.645140 1_555
Cl42 Cs5 3.502174 1_665
Cl42 Cs13 3.699688 1_655
Cl42 Cs10 3.809224 1_565
Cl42 Cs18 3.923508 1_555
Cl43 Ho6 2.645140 1_555
Cl43 Cs4 3.502174 1_655
Cl43 Cs12 3.699688 1_655
Cl43 Cs11 3.809224 1_555
Cl43 Cs19 3.923508 1_555
Cl44 Ho4 2.645140 1_555
Cl44 Cs3 3.502174 1_445
Cl44 Cs11 3.699688 1_455
Cl44 Cs12 3.809224 1_545
Cl44 Cs20 3.923508 1_555
Cl45 Ho7 2.645140 1_555
Cl45 Cs2 3.502174 1_455
Cl45 Cs10 3.699688 1_455
Cl45 Cs13 3.809224 1_555
Cl45 Cs21 3.923508 1_555
Cl46 Ho7 2.645140 1_555
Cl46 Cs1 3.502174 1_455
Cl46 Cs9 3.699688 1_455
Cl46 Cs14 3.809224 1_555
Cl46 Cs22 3.923508 1_555
Cl47 Ho6 2.645140 1_555
Cl47 Cs0 3.502174 1_655
Cl47 Cs8 3.699688 1_655
Cl47 Cs15 3.809224 1_555
Cl47 Cs23 3.923508 1_555
