# generated using pymatgen
data_Ni(Te4Mo3)2
_symmetry_space_group_name_H-M   'P 1'
_cell_length_a   7.15492600
_cell_length_b   7.18309949
_cell_length_c   7.23750618
_cell_angle_alpha   91.22303264
_cell_angle_beta   95.46041682
_cell_angle_gamma   90.04769132
_symmetry_Int_Tables_number   1
_chemical_formula_structural   Ni(Te4Mo3)2
_chemical_formula_sum   'Ni1 Te8 Mo6'
_cell_volume   370.19452451
_cell_formula_units_Z   1
loop_
 _symmetry_equiv_pos_site_id
 _symmetry_equiv_pos_as_xyz
  1  'x, y, z'
loop_
 _atom_site_type_symbol
 _atom_site_label
 _atom_site_symmetry_multiplicity
 _atom_site_fract_x
 _atom_site_fract_y
 _atom_site_fract_z
 _atom_site_occupancy
  Ni  Ni0  1  0.82792900  0.93167000  0.50721800  1
  Te  Te0  1  0.79246800  0.77351000  0.80590700  1
  Te  Te1  1  0.20502900  0.22873200  0.21085000  1
  Te  Te2  1  0.90259200  0.25590500  0.63766100  1
  Te  Te3  1  0.10603100  0.75084500  0.37447400  1
  Te  Te4  1  0.26937200  0.62647300  0.86673200  1
  Te  Te5  1  0.73140300  0.37347900  0.12919500  1
  Te  Te6  1  0.58788300  0.88701300  0.24362900  1
  Te  Te7  1  0.38873900  0.11948600  0.73932700  1
  Mo  Mo0  1  0.59045800  0.44362300  0.74743900  1
  Mo  Mo1  1  0.41398500  0.54669000  0.24632600  1
  Mo  Mo2  1  0.75651400  0.57096500  0.45766700  1
  Mo  Mo3  1  0.24812200  0.42351500  0.54180800  1
  Mo  Mo4  1  0.45988400  0.76029300  0.57697100  1
  Mo  Mo5  1  0.54779100  0.24330200  0.42319800  1
loop_
_geom_bond_atom_site_label_1
_geom_bond_atom_site_label_2
_geom_bond_distance
_geom_bond_site_symmetry_2
Ni0 Te6 2.457955 1_555
Ni0 Te0 2.497402 1_555
Ni0 Te2 2.531610 1_565
Ni0 Te3 2.623789 1_655
Mo0 Mo2 2.683465 1_555
Mo0 Mo5 2.718357 1_555
Mo0 Mo4 2.733696 1_555
Mo0 Te7 2.734955 1_555
Mo0 Mo3 2.744402 1_555
Mo0 Te0 2.778183 1_555
Mo0 Te2 2.781011 1_555
Mo0 Te4 2.842962 1_555
Mo0 Te5 2.904271 1_556
Mo1 Mo5 2.682121 1_555
Mo1 Mo3 2.706772 1_555
Mo1 Te1 2.722807 1_555
Mo1 Te6 2.743359 1_555
Mo1 Mo2 2.766003 1_555
Mo1 Te5 2.784002 1_555
Mo1 Mo4 2.807408 1_555
Mo1 Te3 2.863894 1_555
Mo1 Te4 2.911007 1_554
Mo2 Ni0 2.650686 1_555
Mo2 Mo4 2.720836 1_555
Mo2 Te5 2.733233 1_555
Mo2 Mo5 2.780333 1_555
Mo2 Te2 2.789581 1_555
Mo2 Te0 2.873103 1_555
Mo2 Te3 2.932625 1_655
Mo2 Te6 2.967872 1_555
Mo3 Mo5 2.705051 1_555
Mo3 Te4 2.732020 1_555
Mo3 Te1 2.739680 1_555
Mo3 Te7 2.772785 1_555
Mo3 Te3 2.814224 1_555
Mo3 Mo4 2.847235 1_555
Mo3 Te2 2.898254 1_455
Mo4 Te0 2.767580 1_555
Mo4 Te4 2.794274 1_555
Mo4 Te3 2.802102 1_555
Mo4 Te6 2.828533 1_555
Mo4 Te7 2.878104 1_565
Mo4 Ni0 2.996474 1_555
Mo5 Te1 2.768169 1_555
Mo5 Te5 2.782606 1_555
Mo5 Te7 2.810988 1_555
Mo5 Te2 2.847020 1_555
Mo5 Te6 2.872512 1_545
Mo5 Ni0 3.038369 1_545
