# generated using pymatgen
data_CaMoO3
_symmetry_space_group_name_H-M   'P 1'
_cell_length_a   5.50477500
_cell_length_b   5.73031556
_cell_length_c   7.98621926
_cell_angle_alpha   89.80294805
_cell_angle_beta   89.89011788
_cell_angle_gamma   89.27278409
_symmetry_Int_Tables_number   1
_chemical_formula_structural   CaMoO3
_chemical_formula_sum   'Ca4 Mo4 O12'
_cell_volume   251.89585819
_cell_formula_units_Z   4
loop_
 _symmetry_equiv_pos_site_id
 _symmetry_equiv_pos_as_xyz
  1  'x, y, z'
loop_
 _atom_site_type_symbol
 _atom_site_label
 _atom_site_symmetry_multiplicity
 _atom_site_fract_x
 _atom_site_fract_y
 _atom_site_fract_z
 _atom_site_occupancy
  Ca  Ca0  1  0.00990000  0.04819300  0.75174400  1
  Ca  Ca1  1  0.51381700  0.44420700  0.24938700  1
  Ca  Ca2  1  0.48618300  0.55579300  0.75061300  1
  Ca  Ca3  1  0.99010000  0.95180700  0.24825600  1
  Mo  Mo0  1  0.50000000  0.00000000  0.00000000  1
  Mo  Mo1  1  0.00000000  0.50000000  0.00000000  1
  Mo  Mo2  1  0.00000000  0.50000000  0.50000000  1
  Mo  Mo3  1  0.50000000  0.00000000  0.50000000  1
  O  O0  1  0.28847300  0.30973500  0.54775300  1
  O  O1  1  0.81007400  0.20899400  0.44318600  1
  O  O2  1  0.19339200  0.79377900  0.94759800  1
  O  O3  1  0.69847800  0.69989900  0.05612600  1
  O  O4  1  0.71152700  0.69026500  0.45224700  1
  O  O5  1  0.18992600  0.79100600  0.55681400  1
  O  O6  1  0.80660800  0.20622100  0.05240200  1
  O  O7  1  0.30152200  0.30010100  0.94387400  1
  O  O8  1  0.89804600  0.45826100  0.74471300  1
  O  O9  1  0.39842200  0.03986800  0.24296400  1
  O  O10  1  0.60157800  0.96013200  0.75703600  1
  O  O11  1  0.10195400  0.54173900  0.25528700  1
loop_
_geom_bond_atom_site_label_1
_geom_bond_atom_site_label_2
_geom_bond_distance
_geom_bond_site_symmetry_2
Ca0 O10 2.310185 1_445
Ca0 O2 2.354818 1_545
Ca0 O5 2.355915 1_545
Ca0 O8 2.422070 1_455
Ca0 O7 2.664324 1_555
Ca0 O0 2.698834 1_555
Ca0 O6 2.795829 1_456
Ca0 O1 2.846127 1_455
Ca1 O11 2.328613 1_555
Ca1 O3 2.361885 1_555
Ca1 O9 2.410993 1_555
Ca1 O4 2.420471 1_555
Ca1 O1 2.609840 1_555
Ca1 O6 2.623279 1_555
Ca1 O0 2.794753 1_555
Ca1 O7 2.837249 1_554
Ca2 O8 2.328613 1_555
Ca2 O7 2.361885 1_555
Ca2 O10 2.410993 1_555
Ca2 O0 2.420471 1_555
Ca2 O5 2.609840 1_555
Ca2 O2 2.623279 1_555
Ca2 O4 2.794753 1_555
Ca2 O3 2.837249 1_556
Ca3 O9 2.310185 1_665
Ca3 O6 2.354818 1_565
Ca3 O1 2.355915 1_565
Ca3 O11 2.422070 1_655
Ca3 O3 2.664324 1_555
Ca3 O4 2.698834 1_555
Ca3 O2 2.795829 1_654
Ca3 O5 2.846127 1_655
Mo0 O10 2.031136 1_544
Mo0 O9 2.031136 1_555
Mo0 O7 2.073837 1_554
Mo0 O3 2.073837 1_545
Mo0 O2 2.115896 1_544
Mo0 O6 2.115896 1_555
Mo1 O2 2.044846 1_554
Mo1 O6 2.044846 1_455
Mo1 O3 2.054370 1_455
Mo1 O7 2.054370 1_554
Mo1 O11 2.130717 1_555
Mo1 O8 2.130717 1_454
Mo2 O0 1.952265 1_555
Mo2 O4 1.952265 1_455
Mo2 O1 2.032477 1_455
Mo2 O5 2.032477 1_555
Mo2 O8 2.046359 1_455
Mo2 O11 2.046359 1_555
Mo3 O9 2.139289 1_555
Mo3 O10 2.139289 1_545
Mo3 O1 2.144473 1_555
Mo3 O5 2.144473 1_545
Mo3 O4 2.145222 1_545
Mo3 O0 2.145222 1_555
