# generated using pymatgen
data_La2ZnNiO6
_symmetry_space_group_name_H-M   'P 1'
_cell_length_a   5.42640493
_cell_length_b   5.42640493
_cell_length_c   5.42640441
_cell_angle_alpha   61.39774021
_cell_angle_beta   61.39774021
_cell_angle_gamma   61.39775018
_symmetry_Int_Tables_number   1
_chemical_formula_structural   La2ZnNiO6
_chemical_formula_sum   'La2 Zn1 Ni1 O6'
_cell_volume   116.53272801
_cell_formula_units_Z   1
loop_
 _symmetry_equiv_pos_site_id
 _symmetry_equiv_pos_as_xyz
  1  'x, y, z'
loop_
 _atom_site_type_symbol
 _atom_site_label
 _atom_site_symmetry_multiplicity
 _atom_site_fract_x
 _atom_site_fract_y
 _atom_site_fract_z
 _atom_site_occupancy
  La  La0  1  0.75111000  0.75111000  0.75111000  1
  La  La1  1  0.24889000  0.24889000  0.24889000  1
  Zn  Zn0  1  0.50000000  0.50000000  0.50000000  1
  Ni  Ni0  1  0.00000000  0.00000000  0.00000000  1
  O  O0  1  0.76482000  0.30569600  0.17296200  1
  O  O1  1  0.17296200  0.76482000  0.30569600  1
  O  O2  1  0.30569600  0.17296200  0.76482000  1
  O  O3  1  0.23518000  0.69430400  0.82703800  1
  O  O4  1  0.69430400  0.82703800  0.23518000  1
  O  O5  1  0.82703800  0.23518000  0.69430400  1
loop_
_geom_bond_atom_site_label_1
_geom_bond_atom_site_label_2
_geom_bond_distance
_geom_bond_site_symmetry_2
La0 O1 2.404376 1_655
La0 O0 2.404376 1_556
La0 O2 2.404376 1_565
La0 O4 2.702593 1_556
La0 O5 2.702593 1_565
La0 O3 2.702593 1_655
La0 O4 2.775436 1_555
La0 O3 2.775436 1_555
La0 O5 2.775436 1_555
La1 O5 2.404376 1_455
La1 O3 2.404376 1_554
La1 O4 2.404376 1_545
La1 O2 2.702593 1_554
La1 O1 2.702593 1_545
La1 O0 2.702593 1_455
La1 O2 2.775436 1_555
La1 O0 2.775436 1_555
La1 O1 2.775436 1_555
Ni0 O2 1.891617 1_554
Ni0 O4 1.891617 1_445
Ni0 O1 1.891618 1_545
Ni0 O5 1.891618 1_454
Ni0 O0 1.891618 1_455
Ni0 O3 1.891618 1_544
O0 Zn0 2.055533 1_555
O1 Zn0 2.055534 1_555
O2 Zn0 2.055533 1_555
O3 Zn0 2.055533 1_555
O4 Zn0 2.055533 1_555
O5 Zn0 2.055534 1_555
