# generated using pymatgen
data_Rb2LaF5
_symmetry_space_group_name_H-M   'P 1'
_cell_length_a   7.09292100
_cell_length_b   7.88426700
_cell_length_c   11.66997600
_cell_angle_alpha   90.00000000
_cell_angle_beta   90.00000000
_cell_angle_gamma   90.00000000
_symmetry_Int_Tables_number   1
_chemical_formula_structural   Rb2LaF5
_chemical_formula_sum   'Rb8 La4 F20'
_cell_volume   652.61403417
_cell_formula_units_Z   4
loop_
 _symmetry_equiv_pos_site_id
 _symmetry_equiv_pos_as_xyz
  1  'x, y, z'
loop_
 _atom_site_type_symbol
 _atom_site_label
 _atom_site_symmetry_multiplicity
 _atom_site_fract_x
 _atom_site_fract_y
 _atom_site_fract_z
 _atom_site_occupancy
  Rb  Rb0  1  0.53310400  0.02376400  0.17055500  1
  Rb  Rb1  1  0.46689600  0.52376400  0.82944500  1
  Rb  Rb2  1  0.96689600  0.02376400  0.67055500  1
  Rb  Rb3  1  0.03310400  0.52376400  0.32944500  1
  Rb  Rb4  1  0.02903600  0.01736300  0.32875400  1
  Rb  Rb5  1  0.97096400  0.51736300  0.67124600  1
  Rb  Rb6  1  0.47096400  0.01736300  0.82875400  1
  Rb  Rb7  1  0.52903600  0.51736300  0.17124600  1
  La  La0  1  0.43622900  0.26899200  0.50160100  1
  La  La1  1  0.56377100  0.76899200  0.49839900  1
  La  La2  1  0.06377100  0.26899200  0.00160100  1
  La  La3  1  0.93622900  0.76899200  0.99839900  1
  F  F0  1  0.14617900  0.98604700  0.07621000  1
  F  F1  1  0.85382100  0.48604700  0.92379000  1
  F  F2  1  0.35382100  0.98604700  0.57621000  1
  F  F3  1  0.64617900  0.48604700  0.42379000  1
  F  F4  1  0.39490600  0.26923100  0.01092400  1
  F  F5  1  0.60509400  0.76923100  0.98907600  1
  F  F6  1  0.10509400  0.26923100  0.51092400  1
  F  F7  1  0.89490600  0.76923100  0.48907600  1
  F  F8  1  0.14508800  0.55168500  0.07725900  1
  F  F9  1  0.85491200  0.05168500  0.92274100  1
  F  F10  1  0.35491200  0.55168500  0.57725900  1
  F  F11  1  0.64508800  0.05168500  0.42274100  1
  F  F12  1  0.33694000  0.26820400  0.30779700  1
  F  F13  1  0.66306000  0.76820400  0.69220300  1
  F  F14  1  0.16306000  0.26820400  0.80779700  1
  F  F15  1  0.83694000  0.76820400  0.19220300  1
  F  F16  1  0.37072600  0.76171600  0.33578100  1
  F  F17  1  0.62927400  0.26171600  0.66421900  1
  F  F18  1  0.12927400  0.76171600  0.83578100  1
  F  F19  1  0.87072600  0.26171600  0.16421900  1
loop_
_geom_bond_atom_site_label_1
_geom_bond_atom_site_label_2
_geom_bond_distance
_geom_bond_site_symmetry_2
F0 La3 2.443515 1_454
F0 La2 2.465011 1_565
F0 Rb0 2.971957 1_565
F0 Rb4 3.072005 1_565
F1 La2 2.443515 1_656
F1 La3 2.465011 1_555
F1 Rb1 2.971957 1_555
F1 Rb5 3.072005 1_555
F2 La1 2.443515 1_555
F2 La0 2.465011 1_565
F2 Rb2 2.971957 1_465
F2 Rb6 3.072005 1_565
F3 La0 2.443515 1_555
F3 La1 2.465011 1_555
F3 Rb3 2.971957 1_655
F3 Rb7 3.072005 1_555
F4 La2 2.351234 1_555
F4 Rb0 2.859492 1_555
F4 Rb7 2.869293 1_555
F4 Rb6 2.958707 1_554
F4 Rb1 2.961978 1_554
F5 La3 2.351234 1_555
F5 Rb1 2.859492 1_555
F5 Rb6 2.869293 1_565
F5 Rb7 2.958707 1_556
F5 Rb0 2.961978 1_566
F6 La0 2.351234 1_555
F6 Rb2 2.859492 1_455
F6 Rb5 2.869293 1_455
F6 Rb4 2.958707 1_555
F6 Rb3 2.961978 1_555
F7 La1 2.351234 1_555
F7 Rb3 2.859492 1_655
F7 Rb4 2.869293 1_665
F7 Rb5 2.958707 1_555
F7 Rb2 2.961978 1_565
F8 La3 2.444784 1_454
F8 La2 2.465745 1_555
F8 Rb7 2.948336 1_555
F8 Rb3 3.056246 1_555
F9 La2 2.444784 1_656
F9 La3 2.465745 1_545
F9 Rb6 2.948336 1_555
F9 Rb2 3.056246 1_555
F10 La1 2.444784 1_555
F10 La0 2.465745 1_555
F10 Rb5 2.948336 1_455
F10 Rb1 3.056246 1_555
F11 La0 2.444784 1_555
F11 La1 2.465745 1_545
F11 Rb4 2.948336 1_655
F11 Rb0 3.056246 1_555
F12 La0 2.368805 1_555
F12 Rb0 2.866234 1_555
F12 Rb7 2.873128 1_555
F12 Rb4 2.956466 1_555
F12 Rb3 2.961089 1_555
F13 La1 2.368805 1_555
F13 Rb1 2.866234 1_555
F13 Rb6 2.873128 1_565
F13 Rb5 2.956466 1_555
F13 Rb2 2.961089 1_565
F14 La2 2.368805 1_556
F14 Rb2 2.866234 1_455
F14 Rb5 2.873128 1_455
F14 Rb6 2.956466 1_555
F14 Rb1 2.961089 1_555
F15 La3 2.368805 1_554
F15 Rb3 2.866234 1_655
F15 Rb4 2.873128 1_665
F15 Rb7 2.956466 1_555
F15 Rb0 2.961089 1_565
F16 La1 2.340853 1_555
F16 Rb7 2.942668 1_555
F16 Rb3 3.043000 1_555
F16 Rb0 3.051716 1_565
F16 Rb4 3.153263 1_565
F17 La0 2.340853 1_555
F17 Rb6 2.942668 1_555
F17 Rb2 3.043000 1_555
F17 Rb1 3.051716 1_555
F17 Rb5 3.153263 1_555
F18 La3 2.340853 1_455
F18 Rb5 2.942668 1_455
F18 Rb1 3.043000 1_555
F18 Rb2 3.051716 1_465
F18 Rb6 3.153263 1_565
F19 La2 2.340853 1_655
F19 Rb4 2.942668 1_655
F19 Rb0 3.043000 1_555
F19 Rb3 3.051716 1_655
F19 Rb7 3.153263 1_555
