# generated using pymatgen
data_BaFeCuF7
_symmetry_space_group_name_H-M   'P 1'
_cell_length_a   7.40455503
_cell_length_b   7.40455503
_cell_length_c   5.75291662
_cell_angle_alpha   69.60620106
_cell_angle_beta   69.60620106
_cell_angle_gamma   86.17204142
_symmetry_Int_Tables_number   1
_chemical_formula_structural   BaFeCuF7
_chemical_formula_sum   'Ba2 Fe2 Cu2 F14'
_cell_volume   276.57889019
_cell_formula_units_Z   2
loop_
 _symmetry_equiv_pos_site_id
 _symmetry_equiv_pos_as_xyz
  1  'x, y, z'
loop_
 _atom_site_type_symbol
 _atom_site_label
 _atom_site_symmetry_multiplicity
 _atom_site_fract_x
 _atom_site_fract_y
 _atom_site_fract_z
 _atom_site_occupancy
  Ba  Ba0  1  0.31652400  0.68347600  0.50000000  1
  Ba  Ba1  1  0.68288400  0.31711600  0.00000000  1
  Fe  Fe0  1  0.91718200  0.70026100  0.13562000  1
  Fe  Fe1  1  0.29973900  0.08281800  0.86438000  1
  Cu  Cu0  1  0.08268200  0.28588200  0.37139600  1
  Cu  Cu1  1  0.71411800  0.91731800  0.62860400  1
  F  F0  1  0.32410700  0.41112200  0.26631800  1
  F  F1  1  0.58887800  0.67589300  0.73368200  1
  F  F2  1  0.66686200  0.58361900  0.23781700  1
  F  F3  1  0.41638100  0.33313800  0.76218300  1
  F  F4  1  0.96077200  0.54777700  0.46773100  1
  F  F5  1  0.45222300  0.03922800  0.53226900  1
  F  F6  1  0.02894500  0.47771600  0.01896200  1
  F  F7  1  0.52228400  0.97105500  0.98103800  1
  F  F8  1  0.18684600  0.06593100  0.23533700  1
  F  F9  1  0.93406900  0.81315400  0.76466300  1
  F  F10  1  0.81939000  0.92123800  0.23623900  1
  F  F11  1  0.07876200  0.18061000  0.76376100  1
  F  F12  1  0.81720500  0.18279500  0.50000000  1
  F  F13  1  0.19014800  0.80985200  0.00000000  1
loop_
_geom_bond_atom_site_label_1
_geom_bond_atom_site_label_2
_geom_bond_distance
_geom_bond_site_symmetry_2
Ba0 F3 2.710219 1_555
Ba0 F2 2.710219 1_555
Ba0 F0 2.774727 1_555
Ba0 F1 2.774727 1_555
Ba0 F6 2.932803 1_556
Ba0 F7 2.932803 1_554
Ba0 F4 2.967696 1_455
Ba0 F5 2.967696 1_565
Ba0 F9 2.985086 1_455
Ba0 F8 2.985086 1_565
Ba0 F13 3.147758 1_555
Ba0 F13 3.147758 1_556
Ba1 F3 2.741745 1_554
Ba1 F2 2.741745 1_555
Ba1 F0 2.747542 1_555
Ba1 F1 2.747542 1_554
Ba1 F7 2.946888 1_544
Ba1 F6 2.946888 1_655
Ba1 F5 2.993408 1_555
Ba1 F4 2.993408 1_554
Ba1 F10 3.040808 1_545
Ba1 F11 3.040808 1_654
Ba1 F12 3.181248 1_555
Ba1 F12 3.181248 1_554
Cu0 F0 1.870449 1_555
Cu0 F12 1.946103 1_455
Cu0 F8 2.039610 1_555
Cu0 F11 2.105869 1_555
Cu0 F6 2.183220 1_555
Cu0 F4 2.247038 1_455
Cu1 F1 1.870449 1_555
Cu1 F12 1.946103 1_565
Cu1 F9 2.039610 1_555
Cu1 F10 2.105869 1_555
Cu1 F7 2.183220 1_555
Cu1 F5 2.247038 1_565
F2 Fe0 1.904592 1_555
F3 Fe1 1.904592 1_555
F4 Fe0 1.976634 1_555
F5 Fe1 1.976634 1_555
F6 Fe0 2.013020 1_455
F7 Fe1 2.013020 1_565
F8 Fe1 1.963009 1_554
F9 Fe0 1.963009 1_556
F10 Fe0 1.935575 1_555
F11 Fe1 1.935575 1_555
F13 Fe0 2.007769 1_455
F13 Fe1 2.007769 1_564
