# generated using pymatgen
data_Pr3Cr10N11
_symmetry_space_group_name_H-M   'P 1'
_cell_length_a   9.09844336
_cell_length_b   9.09844336
_cell_length_c   9.09844336
_cell_angle_alpha   60.00000000
_cell_angle_beta   60.00000000
_cell_angle_gamma   60.00000000
_symmetry_Int_Tables_number   1
_chemical_formula_structural   Pr3Cr10N11
_chemical_formula_sum   'Pr6 Cr20 N22'
_cell_volume   532.58176189
_cell_formula_units_Z   2
loop_
 _symmetry_equiv_pos_site_id
 _symmetry_equiv_pos_as_xyz
  1  'x, y, z'
loop_
 _atom_site_type_symbol
 _atom_site_label
 _atom_site_symmetry_multiplicity
 _atom_site_fract_x
 _atom_site_fract_y
 _atom_site_fract_z
 _atom_site_occupancy
  Pr  Pr0  1  0.69835800  0.30164200  0.30164200  1
  Pr  Pr1  1  0.30164200  0.69835800  0.69835800  1
  Pr  Pr2  1  0.30164200  0.69835800  0.30164200  1
  Pr  Pr3  1  0.69835800  0.30164200  0.69835800  1
  Pr  Pr4  1  0.30164200  0.30164200  0.69835800  1
  Pr  Pr5  1  0.69835800  0.69835800  0.30164200  1
  Cr  Cr0  1  0.09577000  0.09577000  0.09577000  1
  Cr  Cr1  1  0.90423000  0.90423000  0.90423000  1
  Cr  Cr2  1  0.09577000  0.09577000  0.71269100  1
  Cr  Cr3  1  0.09577000  0.71269100  0.09577000  1
  Cr  Cr4  1  0.90423000  0.90423000  0.28730900  1
  Cr  Cr5  1  0.90423000  0.28730900  0.90423000  1
  Cr  Cr6  1  0.71269100  0.09577000  0.09577000  1
  Cr  Cr7  1  0.28730900  0.90423000  0.90423000  1
  Cr  Cr8  1  0.39838300  0.10161700  0.10161700  1
  Cr  Cr9  1  0.60161700  0.89838300  0.89838300  1
  Cr  Cr10  1  0.10161700  0.39838300  0.39838300  1
  Cr  Cr11  1  0.10161700  0.39838300  0.10161700  1
  Cr  Cr12  1  0.60161700  0.89838300  0.60161700  1
  Cr  Cr13  1  0.89838300  0.60161700  0.60161700  1
  Cr  Cr14  1  0.89838300  0.60161700  0.89838300  1
  Cr  Cr15  1  0.39838300  0.10161700  0.39838300  1
  Cr  Cr16  1  0.10161700  0.10161700  0.39838300  1
  Cr  Cr17  1  0.89838300  0.89838300  0.60161700  1
  Cr  Cr18  1  0.39838300  0.39838300  0.10161700  1
  Cr  Cr19  1  0.60161700  0.60161700  0.89838300  1
  N  N0  1  0.34476400  0.00000000  0.00000000  1
  N  N1  1  0.65523600  0.00000000  0.00000000  1
  N  N2  1  0.00000000  0.34476400  0.65523600  1
  N  N3  1  0.00000000  0.65523600  0.34476400  1
  N  N4  1  0.00000000  0.34476400  0.00000000  1
  N  N5  1  0.65523600  0.00000000  0.34476400  1
  N  N6  1  0.00000000  0.65523600  0.00000000  1
  N  N7  1  0.34476400  0.00000000  0.65523600  1
  N  N8  1  0.00000000  0.00000000  0.34476400  1
  N  N9  1  0.00000000  0.00000000  0.65523600  1
  N  N10  1  0.65523600  0.34476400  0.00000000  1
  N  N11  1  0.34476400  0.65523600  0.00000000  1
  N  N12  1  0.35287200  0.35287200  0.35287200  1
  N  N13  1  0.64712800  0.64712800  0.64712800  1
  N  N14  1  0.35287200  0.35287200  0.94138300  1
  N  N15  1  0.35287200  0.94138300  0.35287200  1
  N  N16  1  0.64712800  0.64712800  0.05861700  1
  N  N17  1  0.64712800  0.05861700  0.64712800  1
  N  N18  1  0.94138300  0.35287200  0.35287200  1
  N  N19  1  0.05861700  0.64712800  0.64712800  1
  N  N20  1  0.50000000  0.50000000  0.50000000  1
  N  N21  1  0.00000000  0.00000000  0.00000000  1
loop_
_geom_bond_atom_site_label_1
_geom_bond_atom_site_label_2
_geom_bond_distance
_geom_bond_site_symmetry_2
Cr0 N0 1.860657 1_555
Cr0 N8 1.860657 1_555
Cr0 N4 1.860657 1_555
Cr0 N21 2.134382 1_555
Cr1 N9 1.860657 1_665
Cr1 N1 1.860657 1_566
Cr1 N6 1.860657 1_656
Cr1 N21 2.134382 1_666
Cr2 N7 1.860656 1_555
Cr2 N2 1.860656 1_555
Cr2 N9 1.860664 1_555
Cr2 N21 2.134375 1_556
Cr3 N11 1.860656 1_555
Cr3 N3 1.860656 1_555
Cr3 N6 1.860664 1_555
Cr3 N21 2.134375 1_565
Cr4 N3 1.860656 1_655
Cr4 N5 1.860656 1_565
Cr4 N8 1.860664 1_665
Cr4 N21 2.134375 1_665
Cr5 N2 1.860656 1_655
Cr5 N10 1.860656 1_556
Cr5 N4 1.860664 1_656
Cr5 N21 2.134375 1_656
Cr6 N10 1.860656 1_555
Cr6 N5 1.860656 1_555
Cr6 N1 1.860664 1_555
Cr6 N21 2.134375 1_655
Cr7 N11 1.860656 1_556
Cr7 N7 1.860656 1_565
Cr7 N0 1.860664 1_566
Cr7 N21 2.134375 1_566
Cr8 N0 1.924708 1_555
Cr8 N1 1.924708 1_555
Cr8 N14 1.961410 1_554
Cr8 N15 1.961410 1_545
Cr9 N0 1.924708 1_566
Cr9 N1 1.924708 1_566
Cr9 N16 1.961410 1_556
Cr9 N17 1.961410 1_565
Cr10 N2 1.924708 1_555
Cr10 N3 1.924708 1_555
Cr10 N12 1.961408 1_555
Cr10 N18 1.961416 1_455
Cr11 N4 1.924708 1_555
Cr11 N6 1.924708 1_555
Cr11 N14 1.961410 1_554
Cr11 N18 1.961410 1_455
Cr12 N7 1.924708 1_565
Cr12 N5 1.924708 1_565
Cr12 N13 1.961408 1_555
Cr12 N17 1.961416 1_565
Cr13 N2 1.924708 1_655
Cr13 N3 1.924708 1_655
Cr13 N13 1.961408 1_555
Cr13 N19 1.961416 1_655
Cr14 N4 1.924708 1_656
Cr14 N6 1.924708 1_656
Cr14 N19 1.961410 1_655
Cr14 N16 1.961410 1_556
Cr15 N7 1.924708 1_555
Cr15 N5 1.924708 1_555
Cr15 N12 1.961408 1_555
Cr15 N15 1.961416 1_545
Cr16 N8 1.924708 1_555
Cr16 N9 1.924708 1_555
Cr16 N18 1.961410 1_455
Cr16 N15 1.961410 1_545
Cr17 N8 1.924708 1_665
Cr17 N9 1.924708 1_665
Cr17 N19 1.961410 1_655
Cr17 N17 1.961410 1_565
Cr18 N11 1.924708 1_555
Cr18 N10 1.924708 1_555
Cr18 N12 1.961408 1_555
Cr18 N14 1.961416 1_554
Cr19 N10 1.924708 1_556
Cr19 N11 1.924708 1_556
Cr19 N13 1.961408 1_555
Cr19 N16 1.961416 1_556
N0 Pr4 2.772375 1_554
N0 Pr2 2.772375 1_545
N1 Pr3 2.772375 1_554
N1 Pr5 2.772375 1_545
N2 Pr3 2.772375 1_455
N2 Pr4 2.772375 1_555
N3 Pr5 2.772375 1_455
N3 Pr2 2.772375 1_555
N4 Pr4 2.772375 1_554
N4 Pr0 2.772375 1_455
N5 Pr5 2.772375 1_545
N5 Pr0 2.772375 1_555
N6 Pr1 2.772375 1_554
N6 Pr5 2.772375 1_455
N7 Pr1 2.772375 1_545
N7 Pr4 2.772375 1_555
N8 Pr2 2.772375 1_545
N8 Pr0 2.772375 1_455
N9 Pr1 2.772375 1_545
N9 Pr3 2.772375 1_455
N10 Pr3 2.772375 1_554
N10 Pr0 2.772375 1_555
N11 Pr1 2.772375 1_554
N11 Pr2 2.772375 1_555
N12 Pr2 2.757228 1_555
N12 Pr4 2.757228 1_555
N12 Pr0 2.757228 1_555
N13 Pr5 2.757228 1_555
N13 Pr3 2.757228 1_555
N13 Pr1 2.757228 1_555
N14 Pr4 2.757219 1_555
N14 Pr1 2.757225 1_555
N14 Pr3 2.757225 1_555
N15 Pr2 2.757219 1_555
N15 Pr5 2.757225 1_555
N15 Pr1 2.757225 1_555
N16 Pr5 2.757219 1_555
N16 Pr2 2.757225 1_555
N16 Pr0 2.757225 1_555
N17 Pr3 2.757219 1_555
N17 Pr0 2.757225 1_555
N17 Pr4 2.757225 1_555
N18 Pr0 2.757219 1_555
N18 Pr5 2.757225 1_555
N18 Pr3 2.757225 1_555
N19 Pr1 2.757219 1_555
N19 Pr2 2.757225 1_555
N19 Pr4 2.757225 1_555
N20 Pr0 2.552301 1_555
N20 Pr2 2.552301 1_555
N20 Pr4 2.552301 1_555
N20 Pr5 2.552301 1_555
N20 Pr1 2.552301 1_555
N20 Pr3 2.552301 1_555
