# generated using pymatgen
data_ZnSn2O5
_symmetry_space_group_name_H-M   'P 1'
_cell_length_a   5.61429556
_cell_length_b   5.61429556
_cell_length_c   10.44133800
_cell_angle_alpha   90.00000000
_cell_angle_beta   90.00000000
_cell_angle_gamma   138.33207747
_symmetry_Int_Tables_number   1
_chemical_formula_structural   ZnSn2O5
_chemical_formula_sum   'Zn2 Sn4 O10'
_cell_volume   218.79918760
_cell_formula_units_Z   2
loop_
 _symmetry_equiv_pos_site_id
 _symmetry_equiv_pos_as_xyz
  1  'x, y, z'
loop_
 _atom_site_type_symbol
 _atom_site_label
 _atom_site_symmetry_multiplicity
 _atom_site_fract_x
 _atom_site_fract_y
 _atom_site_fract_z
 _atom_site_occupancy
  Zn  Zn0  1  0.18196500  0.81803500  0.75000000  1
  Zn  Zn1  1  0.81803500  0.18196500  0.25000000  1
  Sn  Sn0  1  0.86360200  0.13639800  0.56679100  1
  Sn  Sn1  1  0.13639800  0.86360200  0.43320900  1
  Sn  Sn2  1  0.13639800  0.86360200  0.06679100  1
  Sn  Sn3  1  0.86360200  0.13639800  0.93320900  1
  O  O0  1  0.22378700  0.77621300  0.25000000  1
  O  O1  1  0.77621300  0.22378700  0.75000000  1
  O  O2  1  0.69373000  0.30627000  0.06051400  1
  O  O3  1  0.30627000  0.69373000  0.93948600  1
  O  O4  1  0.30627000  0.69373000  0.56051400  1
  O  O5  1  0.69373000  0.30627000  0.43948600  1
  O  O6  1  0.05143000  0.94857000  0.61291000  1
  O  O7  1  0.94857000  0.05143000  0.38709000  1
  O  O8  1  0.05143000  0.94857000  0.88709000  1
  O  O9  1  0.94857000  0.05143000  0.11291000  1
loop_
_geom_bond_atom_site_label_1
_geom_bond_atom_site_label_2
_geom_bond_distance
_geom_bond_site_symmetry_2
O0 Sn2 2.121422 1_555
O0 Sn1 2.121422 1_555
O0 Zn1 2.228324 1_565
O0 Zn1 2.228324 1_455
O1 Sn0 2.121422 1_555
O1 Sn3 2.121422 1_555
O1 Zn0 2.228324 1_655
O1 Zn0 2.228324 1_545
O2 Sn2 2.086493 1_655
O2 Sn2 2.086493 1_545
O2 Sn3 2.223715 1_554
O2 Zn1 2.369842 1_555
O3 Sn3 2.086493 1_565
O3 Sn3 2.086493 1_455
O3 Sn2 2.223715 1_556
O3 Zn0 2.369842 1_555
O4 Sn0 2.086493 1_565
O4 Sn0 2.086493 1_455
O4 Sn1 2.223715 1_555
O4 Zn0 2.369842 1_555
O5 Sn1 2.086493 1_655
O5 Sn1 2.086493 1_545
O5 Sn0 2.223715 1_555
O5 Zn1 2.369842 1_555
O6 Zn0 1.981289 1_555
O6 Sn0 2.029112 1_465
O6 Sn1 2.077422 1_555
O7 Zn1 1.981289 1_555
O7 Sn1 2.029112 1_645
O7 Sn0 2.077422 1_555
O8 Zn0 1.981289 1_555
O8 Sn3 2.029112 1_465
O8 Sn2 2.077422 1_556
O9 Zn1 1.981289 1_555
O9 Sn2 2.029112 1_645
O9 Sn3 2.077422 1_554
