# generated using pymatgen
data_CrH15N6Cl2O
_symmetry_space_group_name_H-M   'P 1'
_cell_length_a   6.77701740
_cell_length_b   6.72251591
_cell_length_c   10.35493456
_cell_angle_alpha   90.00000000
_cell_angle_beta   90.00000000
_cell_angle_gamma   94.00426134
_symmetry_Int_Tables_number   1
_chemical_formula_structural   CrH15N6Cl2O
_chemical_formula_sum   'Cr2 H30 N12 Cl4 O2'
_cell_volume   470.60477398
_cell_formula_units_Z   2
loop_
 _symmetry_equiv_pos_site_id
 _symmetry_equiv_pos_as_xyz
  1  'x, y, z'
loop_
 _atom_site_type_symbol
 _atom_site_label
 _atom_site_symmetry_multiplicity
 _atom_site_fract_x
 _atom_site_fract_y
 _atom_site_fract_z
 _atom_site_occupancy
  Cr  Cr0  1  0.80635932  0.80459725  0.75000000  1
  Cr  Cr1  1  0.19364068  0.19540275  0.25000000  1
  H  H0  1  0.93970124  0.43422689  0.75000000  1
  H  H1  1  0.56276382  0.06361738  0.25000000  1
  H  H2  1  0.06029876  0.56577311  0.25000000  1
  H  H3  1  0.43723618  0.93638262  0.75000000  1
  H  H4  1  0.68427589  0.69655019  0.51229841  1
  H  H5  1  0.31572411  0.30344981  0.48770159  1
  H  H6  1  0.68427589  0.69655019  0.98770159  1
  H  H7  1  0.31572411  0.30344981  0.01229841  1
  H  H8  1  0.09085067  0.59267475  0.67045901  1
  H  H9  1  0.40643131  0.91066865  0.32945859  1
  H  H10  1  0.09085067  0.59267475  0.82954099  1
  H  H11  1  0.40643131  0.91066865  0.17054141  1
  H  H12  1  0.90914933  0.40732525  0.32954099  1
  H  H13  1  0.59356869  0.08933135  0.67054141  1
  H  H14  1  0.90914933  0.40732525  0.17045901  1
  H  H15  1  0.59356869  0.08933135  0.82945859  1
  H  H16  1  0.92424222  0.75783078  0.51048871  1
  H  H17  1  0.23312153  0.06749743  0.48715076  1
  H  H18  1  0.92424222  0.75783078  0.98951129  1
  H  H19  1  0.23312153  0.06749743  0.01284924  1
  H  H20  1  0.07575778  0.24216922  0.48951129  1
  H  H21  1  0.76687847  0.93250257  0.51284924  1
  H  H22  1  0.07575778  0.24216922  0.01048871  1
  H  H23  1  0.76687847  0.93250257  0.98715076  1
  H  H24  1  0.60036418  0.47520143  0.67024446  1
  H  H25  1  0.60036418  0.47520143  0.82975554  1
  H  H26  1  0.39963582  0.52479857  0.32975554  1
  H  H27  1  0.39963582  0.52479857  0.17024446  1
  H  H28  1  0.44449313  0.60561686  0.75000000  1
  H  H29  1  0.55550687  0.39438314  0.25000000  1
  N  N0  1  0.79213510  0.79439247  0.54826779  1
  N  N1  1  0.20786490  0.20560753  0.45173221  1
  N  N2  1  0.79213510  0.79439247  0.95173221  1
  N  N3  1  0.20786490  0.20560753  0.04826779  1
  N  N4  1  0.98955327  0.99005923  0.75000000  1
  N  N5  1  0.01044673  0.00994077  0.25000000  1
  N  N6  1  0.00100924  0.57683235  0.75000000  1
  N  N7  1  0.42145130  0.00132072  0.25000000  1
  N  N8  1  -0.00100924  0.42316765  0.25000000  1
  N  N9  1  0.57854870  -0.00132072  0.75000000  1
  N  N10  1  0.58536281  0.56303125  0.75000000  1
  N  N11  1  0.41463719  0.43696875  0.25000000  1
  Cl  Cl0  1  0.28628267  0.71485850  0.50268445  1
  Cl  Cl1  1  0.28628267  0.71485850  -0.00268445  1
  Cl  Cl2  1  0.71371733  0.28514150  0.49731555  1
  Cl  Cl3  1  0.71371733  0.28514150  0.00268445  1
  O  O0  1  0.12206868  0.12098684  0.75000000  1
  O  O1  1  0.87793132  0.87901316  0.25000000  1
loop_
_geom_bond_atom_site_label_1
_geom_bond_atom_site_label_2
_geom_bond_distance
_geom_bond_site_symmetry_2
Cr0 N4 1.696939 1_555
Cr0 N6 2.089657 1_655
Cr0 N9 2.089778 1_565
Cr0 N0 2.092051 1_555
Cr0 N2 2.092051 1_555
Cr0 N10 2.130862 1_555
Cr1 N5 1.696939 1_555
Cr1 N8 2.089657 1_555
Cr1 N7 2.089778 1_555
Cr1 N3 2.092051 1_555
Cr1 N1 2.092051 1_555
Cr1 N11 2.130862 1_555
H0 N6 1.017862 1_655
H1 N7 1.018095 1_555
H2 N8 1.017862 1_555
H3 N9 1.018095 1_565
H4 N0 1.019077 1_555
H5 N1 1.019077 1_555
H6 N2 1.019077 1_555
H7 N3 1.019077 1_555
H8 N6 1.025368 1_555
H9 N7 1.024724 1_565
H10 N6 1.025368 1_555
H11 N7 1.024724 1_565
H12 N8 1.025368 1_655
H13 N9 1.024724 1_555
H14 N8 1.025368 1_655
H15 N9 1.024724 1_555
H16 N0 1.022609 1_555
H17 N1 1.023727 1_555
H18 N2 1.022609 1_555
H19 N3 1.023727 1_555
H20 N1 1.022609 1_555
H21 N0 1.023727 1_555
H22 N3 1.022609 1_555
H23 N2 1.023727 1_555
H24 N10 1.024395 1_555
H25 N10 1.024395 1_555
H26 N11 1.024395 1_555
H27 N11 1.024395 1_555
H28 N10 1.015645 1_555
H29 N11 1.015645 1_555
N4 O0 1.212767 1_665
N5 O1 1.212767 1_445
