# generated using pymatgen
data_Nb4FeP
_symmetry_space_group_name_H-M   'P 1'
_cell_length_a   5.12131300
_cell_length_b   6.11557300
_cell_length_c   6.11557300
_cell_angle_alpha   90.00000000
_cell_angle_beta   90.00000000
_cell_angle_gamma   90.00000000
_symmetry_Int_Tables_number   1
_chemical_formula_structural   Nb4FeP
_chemical_formula_sum   'Nb8 Fe2 P2'
_cell_volume   191.53830007
_cell_formula_units_Z   2
loop_
 _symmetry_equiv_pos_site_id
 _symmetry_equiv_pos_as_xyz
  1  'x, y, z'
loop_
 _atom_site_type_symbol
 _atom_site_label
 _atom_site_symmetry_multiplicity
 _atom_site_fract_x
 _atom_site_fract_y
 _atom_site_fract_z
 _atom_site_occupancy
  Nb  Nb0  1  0.50000000  0.66638200  0.16044800  1
  Nb  Nb1  1  0.50000000  0.33361800  0.83955200  1
  Nb  Nb2  1  0.50000000  0.83955200  0.66638200  1
  Nb  Nb3  1  0.50000000  0.16044800  0.33361800  1
  Nb  Nb4  1  0.00000000  0.33361800  0.16044800  1
  Nb  Nb5  1  0.00000000  0.66638200  0.83955200  1
  Nb  Nb6  1  0.00000000  0.16044800  0.66638200  1
  Nb  Nb7  1  0.00000000  0.83955200  0.33361800  1
  Fe  Fe0  1  0.25000000  0.00000000  0.00000000  1
  Fe  Fe1  1  0.75000000  0.00000000  0.00000000  1
  P  P0  1  0.25000000  0.50000000  0.50000000  1
  P  P1  1  0.75000000  0.50000000  0.50000000  1
loop_
_geom_bond_atom_site_label_1
_geom_bond_atom_site_label_2
_geom_bond_distance
_geom_bond_site_symmetry_2
Nb0 P1 2.643231 1_555
Nb0 P0 2.643231 1_555
Nb1 P1 2.643231 1_555
Nb1 P0 2.643231 1_555
Nb2 P1 2.643231 1_555
Nb2 P0 2.643231 1_555
Nb3 P1 2.643231 1_555
Nb3 P0 2.643231 1_555
Nb4 P1 2.643231 1_455
Nb4 P0 2.643231 1_555
Nb5 P1 2.643231 1_455
Nb5 P0 2.643231 1_555
Nb6 P1 2.643231 1_455
Nb6 P0 2.643231 1_555
Nb7 P1 2.643231 1_455
Nb7 P0 2.643231 1_555
Fe0 Fe1 2.560656 1_455
Fe0 Fe1 2.560656 1_555
Fe0 Nb6 2.600911 1_554
Fe0 Nb2 2.600911 1_544
Fe0 Nb0 2.600911 1_545
Fe0 Nb5 2.600911 1_544
Fe0 Nb4 2.600911 1_555
Fe0 Nb1 2.600911 1_554
Fe0 Nb7 2.600911 1_545
Fe0 Nb3 2.600911 1_555
Fe1 Nb5 2.600911 1_644
Fe1 Nb2 2.600911 1_544
Fe1 Nb0 2.600911 1_545
Fe1 Nb6 2.600911 1_654
Fe1 Nb7 2.600911 1_645
Fe1 Nb4 2.600911 1_655
Fe1 Nb1 2.600911 1_554
Fe1 Nb3 2.600911 1_555
P0 P1 2.560656 1_555
P0 P1 2.560656 1_455
