# generated using pymatgen
data_Sr2MgV2(Si2O7)2
_symmetry_space_group_name_H-M   'P 1'
_cell_length_a   5.54690900
_cell_length_b   7.28819746
_cell_length_c   7.86635270
_cell_angle_alpha   93.71483810
_cell_angle_beta   109.94053791
_cell_angle_gamma   90.03433076
_symmetry_Int_Tables_number   1
_chemical_formula_structural   Sr2MgV2(Si2O7)2
_chemical_formula_sum   'Sr2 Mg1 V2 Si4 O14'
_cell_volume   298.23154103
_cell_formula_units_Z   1
loop_
 _symmetry_equiv_pos_site_id
 _symmetry_equiv_pos_as_xyz
  1  'x, y, z'
loop_
 _atom_site_type_symbol
 _atom_site_label
 _atom_site_symmetry_multiplicity
 _atom_site_fract_x
 _atom_site_fract_y
 _atom_site_fract_z
 _atom_site_occupancy
  Sr  Sr0  1  0.18822700  0.78043300  0.39330900  1
  Sr  Sr1  1  0.81507400  0.23350300  0.62530300  1
  Mg  Mg0  1  0.87667600  0.50773000  0.00947700  1
  V  V0  1  0.90550800  0.76876600  0.77940500  1
  V  V1  1  0.12362600  0.24612400  0.23828800  1
  Si  Si0  1  0.38022700  0.47524600  0.78461600  1
  Si  Si1  1  0.58947100  0.54115100  0.22842100  1
  Si  Si2  1  0.60835000  0.98703100  0.22551700  1
  Si  Si3  1  0.40231100  0.03026400  0.79271600  1
  O  O0  1  0.62438900  0.76720500  0.28025200  1
  O  O1  1  0.36351000  0.24898100  0.73393100  1
  O  O2  1  0.47602100  0.50891200  0.00635700  1
  O  O3  1  0.50249300  0.01084000  0.00949000  1
  O  O4  1  0.63343600  0.54246800  0.74226000  1
  O  O5  1  0.88267200  0.47090500  0.27459200  1
  O  O6  1  0.41763900  0.07269000  0.32564000  1
  O  O7  1  0.11436000  0.94435500  0.69305900  1
  O  O8  1  0.99583500  0.26272100  0.99047800  1
  O  O9  1  0.01827500  0.75113900  0.02700300  1
  O  O10  1  0.89949900  0.07330000  0.31984600  1
  O  O11  1  0.60336900  0.94187500  0.70128100  1
  O  O12  1  0.10342700  0.56118100  0.68804200  1
  O  O13  1  0.40060800  0.45836600  0.32238200  1
loop_
_geom_bond_atom_site_label_1
_geom_bond_atom_site_label_2
_geom_bond_distance
_geom_bond_site_symmetry_2
Mg0 O9 1.917242 1_655
Mg0 O8 1.918868 1_554
Mg0 O4 2.106635 1_554
Mg0 O5 2.108940 1_555
Mg0 O2 2.214175 1_555
O0 Si1 1.666374 1_555
O0 Si2 1.680348 1_555
O0 Sr0 2.847854 1_555
O0 Sr0 2.945023 1_655
O1 Si0 1.666247 1_555
O1 Si3 1.682024 1_555
O1 Sr1 2.865558 1_455
O1 Sr1 2.909401 1_555
O2 Si0 1.642345 1_554
O2 Si1 1.643010 1_555
O3 Si2 1.618763 1_545
O3 Si3 1.619152 1_554
O4 Si0 1.631951 1_555
O4 V0 2.171850 1_555
O4 Sr1 2.701608 1_555
O5 Si1 1.631336 1_555
O5 V1 2.180396 1_655
O5 Sr0 2.734347 1_655
O6 Si2 1.623115 1_545
O6 V1 2.019969 1_555
O6 Sr0 2.654317 1_545
O6 Sr1 2.807956 1_555
O7 Si3 1.624465 1_565
O7 V0 2.022057 1_455
O7 Sr1 2.650898 1_465
O7 Sr0 2.729395 1_555
O8 V1 1.845332 1_656
O8 Sr1 2.694137 1_555
O9 V0 1.844669 1_454
O9 Sr0 2.702681 1_555
O10 Si2 1.635548 1_545
O10 V1 2.047091 1_655
O10 Sr0 2.643394 1_645
O10 Sr1 2.785822 1_555
O11 Si3 1.632198 1_565
O11 V0 2.044185 1_555
O11 Sr1 2.625654 1_565
O11 Sr0 2.894547 1_555
O12 Si0 1.610591 1_555
O12 V0 2.099992 1_455
O12 Sr1 2.794556 1_455
O12 Sr0 3.061545 1_555
O13 Si1 1.610283 1_555
O13 V1 2.088589 1_555
O13 Sr0 2.736934 1_555
O13 Sr1 3.228508 1_555
