# generated using pymatgen
data_Li2CoSn(PO4)2
_symmetry_space_group_name_H-M   'P 1'
_cell_length_a   5.89832202
_cell_length_b   9.92426590
_cell_length_c   12.11118525
_cell_angle_alpha   79.10202258
_cell_angle_beta   90.00227600
_cell_angle_gamma   89.99094382
_symmetry_Int_Tables_number   1
_chemical_formula_structural   Li2CoSn(PO4)2
_chemical_formula_sum   'Li8 Co4 Sn4 P8 O32'
_cell_volume   696.16100244
_cell_formula_units_Z   4
loop_
 _symmetry_equiv_pos_site_id
 _symmetry_equiv_pos_as_xyz
  1  'x, y, z'
loop_
 _atom_site_type_symbol
 _atom_site_label
 _atom_site_symmetry_multiplicity
 _atom_site_fract_x
 _atom_site_fract_y
 _atom_site_fract_z
 _atom_site_occupancy
  Li  Li0  1  0.99769800  0.00421300  0.00201000  1
  Li  Li1  1  0.00080200  0.50369600  0.00206200  1
  Li  Li2  1  0.50336000  0.00468400  0.00073400  1
  Li  Li3  1  0.50156100  0.50493500  0.00119400  1
  Li  Li4  1  0.99285100  0.24172100  0.49448200  1
  Li  Li5  1  0.00043500  0.74936200  0.50010100  1
  Li  Li6  1  0.50661200  0.24177600  0.49442700  1
  Li  Li7  1  0.49978600  0.74905000  0.49988600  1
  Co  Co0  1  0.24977700  0.02080400  0.31449300  1
  Co  Co1  1  0.74977400  0.97623400  0.68132700  1
  Co  Co2  1  0.24979900  0.51947700  0.31916500  1
  Co  Co3  1  0.74998600  0.47778300  0.68245100  1
  Sn  Sn0  1  0.75001300  0.27523200  0.21482800  1
  Sn  Sn1  1  0.74997100  0.77068700  0.21845500  1
  Sn  Sn2  1  0.25019300  0.22894800  0.77941400  1
  Sn  Sn3  1  0.24986900  0.72789200  0.78306800  1
  P  P0  1  0.25014100  0.20433400  0.10390800  1
  P  P1  1  0.24985000  0.70271600  0.10788300  1
  P  P2  1  0.75027200  0.29975500  0.89560800  1
  P  P3  1  0.74983900  0.80006500  0.89523300  1
  P  P4  1  0.74984900  0.46382000  0.41993500  1
  P  P5  1  0.74980900  0.96493000  0.41750200  1
  P  P6  1  0.24978100  0.03198000  0.57957400  1
  P  P7  1  0.24993900  0.53420200  0.58309400  1
  O  O0  1  0.75031300  0.36270300  0.00327600  1
  O  O1  1  0.75019100  0.86219900  0.00300300  1
  O  O2  1  0.25056400  0.14273300  0.99606200  1
  O  O3  1  0.25020400  0.64577500  0.99754800  1
  O  O4  1  0.24993600  0.36090100  0.08237000  1
  O  O5  1  0.24946200  0.85904500  0.09033500  1
  O  O6  1  0.75033400  0.14328900  0.92004900  1
  O  O7  1  0.74975700  0.64347800  0.91867200  1
  O  O8  1  0.74979600  0.12286100  0.40475400  1
  O  O9  1  0.74980800  0.62180800  0.40541700  1
  O  O10  1  0.24994100  0.37629300  0.59916700  1
  O  O11  1  0.24979300  0.87402200  0.59427500  1
  O  O12  1  0.24973900  0.11159600  0.45484600  1
  O  O13  1  0.24990100  0.61246600  0.45811400  1
  O  O14  1  0.74980000  0.38352700  0.54403800  1
  O  O15  1  0.74980100  0.88392200  0.54159100  1
  O  O16  1  0.04361600  0.13893900  0.18066800  1
  O  O17  1  0.04362300  0.63441600  0.18334800  1
  O  O18  1  0.45640600  0.13928800  0.18102100  1
  O  O19  1  0.45614600  0.63480900  0.18350800  1
  O  O20  1  0.54409000  0.36336400  0.81820100  1
  O  O21  1  0.54365700  0.86421200  0.81777700  1
  O  O22  1  0.95637600  0.36330200  0.81816200  1
  O  O23  1  0.95571800  0.86384800  0.81745300  1
  O  O24  1  0.53432200  0.40907000  0.36579800  1
  O  O25  1  0.53422700  0.91092600  0.36327300  1
  O  O26  1  0.96547300  0.40905300  0.36590000  1
  O  O27  1  0.96548700  0.91093300  0.36333400  1
  O  O28  1  0.03370700  0.08682100  0.63269700  1
  O  O29  1  0.03375500  0.58966400  0.63595800  1
  O  O30  1  0.46594800  0.08681000  0.63262000  1
  O  O31  1  0.46614200  0.58963400  0.63593200  1
loop_
_geom_bond_atom_site_label_1
_geom_bond_atom_site_label_2
_geom_bond_distance
_geom_bond_site_symmetry_2
Li0 O2 2.020583 1_654
Li0 O1 2.027804 1_545
Li0 O6 2.121401 1_554
Li0 O5 2.200346 1_645
Li1 O3 2.031424 1_554
Li1 O0 2.033200 1_455
Li1 O4 2.142818 1_555
Li1 O7 2.146274 1_454
Li2 O2 2.018299 1_554
Li2 O1 2.025977 1_545
Li2 O6 2.112250 1_554
Li2 O5 2.217461 1_545
Li3 O3 2.032158 1_554
Li3 O0 2.032663 1_555
Li3 O7 2.124524 1_554
Li3 O4 2.163789 1_555
Li4 O26 2.056936 1_555
Li4 O28 2.061600 1_655
Li4 O12 2.104243 1_655
Li4 O14 2.171352 1_555
Li4 O8 2.261144 1_555
Li4 O10 2.516211 1_655
Li5 O29 2.066790 1_555
Li5 O27 2.086358 1_455
Li5 O15 2.115281 1_455
Li5 O13 2.128409 1_555
Li5 O11 2.351311 1_555
Li5 O9 2.377417 1_455
Li6 O24 2.057236 1_555
Li6 O30 2.061750 1_555
Li6 O12 2.104575 1_555
Li6 O14 2.172031 1_555
Li6 O8 2.261393 1_555
Li6 O10 2.514590 1_555
Li7 O31 2.066802 1_555
Li7 O25 2.086793 1_555
Li7 O15 2.116027 1_555
Li7 O13 2.127339 1_555
Li7 O11 2.356901 1_555
Li7 O9 2.371557 1_555
Co0 O27 2.026670 1_445
Co0 O25 2.027020 1_545
Co0 O12 2.068933 1_555
Co0 O16 2.181973 1_555
Co0 O18 2.182433 1_555
Co1 O30 2.027166 1_565
Co1 O28 2.027890 1_665
Co1 O15 2.071148 1_555
Co1 O23 2.177547 1_555
Co1 O21 2.179651 1_555
Co2 O26 2.024826 1_455
Co2 O24 2.025163 1_555
Co2 O13 2.066594 1_555
Co2 O17 2.185333 1_555
Co2 O19 2.186387 1_555
Co3 O31 2.028651 1_555
Co3 O29 2.028705 1_655
Co3 O14 2.068351 1_555
Co3 O20 2.182201 1_555
Co3 O22 2.183475 1_555
O0 P2 1.548765 1_554
O0 Sn0 2.545027 1_555
O1 P3 1.545373 1_554
O1 Sn1 2.595687 1_555
O2 P0 1.543272 1_556
O2 Sn2 2.601511 1_555
O3 P1 1.546136 1_556
O3 Sn3 2.571236 1_555
O4 P0 1.526145 1_555
O5 P1 1.525613 1_555
O6 P2 1.524808 1_555
O7 P3 1.526017 1_555
O8 P5 1.545613 1_545
O8 Sn0 2.502495 1_555
O9 P4 1.544354 1_555
O9 Sn1 2.458701 1_555
O10 P7 1.542220 1_555
O10 Sn2 2.386791 1_555
O11 P6 1.543887 1_565
O11 Sn3 2.465249 1_555
O12 P6 1.566817 1_555
O13 P7 1.565212 1_555
O14 P4 1.562437 1_555
O15 P5 1.564633 1_555
O16 P0 1.594224 1_555
O16 Sn0 2.282681 1_455
O17 P1 1.593895 1_555
O17 Sn1 2.286154 1_455
O18 P0 1.593987 1_555
O18 Sn0 2.279579 1_555
O19 P1 1.593714 1_555
O19 Sn1 2.284207 1_555
O20 P2 1.591305 1_555
O20 Sn2 2.289718 1_555
O21 P3 1.593140 1_555
O21 Sn3 2.285934 1_555
O22 P2 1.591230 1_555
O22 Sn2 2.288538 1_655
O23 P3 1.592970 1_555
O23 Sn3 2.283842 1_655
O24 P4 1.573550 1_555
O25 P5 1.571223 1_555
O25 Sn1 2.748673 1_555
O26 P4 1.573392 1_555
O27 P5 1.571201 1_555
O27 Sn1 2.748776 1_555
O28 P6 1.570570 1_555
O29 P7 1.572231 1_555
O30 P6 1.570625 1_555
O31 P7 1.572145 1_555
