# generated using pymatgen
data_Ba2IBrF2
_symmetry_space_group_name_H-M   'P 1'
_cell_length_a   4.62336400
_cell_length_b   4.62336400
_cell_length_c   7.99138600
_cell_angle_alpha   90.00000000
_cell_angle_beta   90.00000000
_cell_angle_gamma   90.00000000
_symmetry_Int_Tables_number   1
_chemical_formula_structural   Ba2IBrF2
_chemical_formula_sum   'Ba2 I1 Br1 F2'
_cell_volume   170.81982890
_cell_formula_units_Z   1
loop_
 _symmetry_equiv_pos_site_id
 _symmetry_equiv_pos_as_xyz
  1  'x, y, z'
loop_
 _atom_site_type_symbol
 _atom_site_label
 _atom_site_symmetry_multiplicity
 _atom_site_fract_x
 _atom_site_fract_y
 _atom_site_fract_z
 _atom_site_occupancy
  Ba  Ba0  1  0.50000000  0.50000000  0.82739600  1
  Ba  Ba1  1  0.00000000  0.00000000  0.18519100  1
  I  I0  1  0.00000000  0.00000000  0.64138700  1
  Br  Br0  1  0.50000000  0.50000000  0.34009800  1
  F  F0  1  0.50000000  0.00000000  0.00296400  1
  F  F1  1  0.00000000  0.50000000  0.00296400  1
loop_
_geom_bond_atom_site_label_1
_geom_bond_atom_site_label_2
_geom_bond_distance
_geom_bond_site_symmetry_2
Ba0 F1 2.704140 1_556
Ba0 F0 2.704140 1_566
Ba0 F1 2.704140 1_656
Ba0 F0 2.704140 1_556
Ba0 I0 3.591287 1_565
Ba0 I0 3.591287 1_665
Ba0 I0 3.591287 1_555
Ba0 I0 3.591287 1_655
Ba0 Br0 3.894186 1_555
Ba1 F0 2.732129 1_555
Ba1 F1 2.732129 1_555
Ba1 F1 2.732129 1_545
Ba1 F0 2.732129 1_455
Ba1 Br0 3.495740 1_555
Ba1 Br0 3.495740 1_455
Ba1 Br0 3.495740 1_545
Ba1 Br0 3.495740 1_445
Ba1 I0 3.645638 1_555
