# generated using pymatgen
data_Pm3Y
_symmetry_space_group_name_H-M   'P 1'
_cell_length_a   7.42552469
_cell_length_b   7.42552415
_cell_length_c   5.81224448
_cell_angle_alpha   90.00000000
_cell_angle_beta   90.00000000
_cell_angle_gamma   120.00001030
_symmetry_Int_Tables_number   1
_chemical_formula_structural   Pm3Y
_chemical_formula_sum   'Pm6 Y2'
_cell_volume   277.54200492
_cell_formula_units_Z   2
loop_
 _symmetry_equiv_pos_site_id
 _symmetry_equiv_pos_as_xyz
  1  'x, y, z'
loop_
 _atom_site_type_symbol
 _atom_site_label
 _atom_site_symmetry_multiplicity
 _atom_site_fract_x
 _atom_site_fract_y
 _atom_site_fract_z
 _atom_site_occupancy
  Pm  Pm0  1  0.16670970  0.33341839  0.25000000  1
  Pm  Pm1  1  0.66658161  0.83329030  0.25000000  1
  Pm  Pm2  1  0.16670970  0.83329030  0.25000000  1
  Pm  Pm3  1  0.83329030  0.66658161  0.75000000  1
  Pm  Pm4  1  0.33341839  0.16670970  0.75000000  1
  Pm  Pm5  1  0.83329030  0.16670970  0.75000000  1
  Y  Y0  1  0.33333300  0.66666700  0.75000000  1
  Y  Y1  1  0.66666700  0.33333300  0.25000000  1
loop_
_geom_bond_atom_site_label_1
_geom_bond_atom_site_label_2
_geom_bond_distance
_geom_bond_site_symmetry_2
Pm0 Y0 3.610828 1_554
Pm0 Y0 3.610828 1_555
Pm0 Pm4 3.611472 1_554
Pm0 Pm4 3.611472 1_555
Pm0 Pm5 3.611480 1_455
Pm0 Pm5 3.611480 1_454
Pm0 Pm1 3.711810 1_555
Pm0 Pm2 3.711811 1_555
Pm0 Y1 3.712762 1_555
Pm0 Y1 3.712762 1_455
Pm0 Pm1 3.713713 1_445
Pm0 Pm2 3.713713 1_545
Pm1 Y0 3.610828 1_555
Pm1 Y0 3.610828 1_554
Pm1 Pm3 3.611472 1_555
Pm1 Pm3 3.611472 1_554
Pm1 Pm5 3.611480 1_565
Pm1 Pm5 3.611480 1_564
Pm1 Pm2 3.711811 1_555
Pm1 Y1 3.712762 1_555
Pm1 Y1 3.712762 1_565
Pm1 Pm2 3.713713 1_655
Pm2 Y0 3.610820 1_555
Pm2 Y0 3.610820 1_554
Pm2 Pm4 3.611480 1_565
Pm2 Pm4 3.611480 1_564
Pm2 Pm3 3.611480 1_454
Pm2 Pm3 3.611480 1_455
Pm2 Y1 3.712762 1_565
Pm2 Y1 3.712762 1_455
Pm3 Y1 3.610828 1_556
Pm3 Y1 3.610828 1_555
Pm3 Pm4 3.711810 1_555
Pm3 Pm5 3.711811 1_555
Pm3 Y0 3.712762 1_555
Pm3 Y0 3.712762 1_655
Pm3 Pm4 3.713713 1_665
Pm3 Pm5 3.713713 1_565
Pm4 Y1 3.610828 1_556
Pm4 Y1 3.610828 1_555
Pm4 Pm5 3.711811 1_555
Pm4 Y0 3.712762 1_555
Pm4 Y0 3.712762 1_545
Pm4 Pm5 3.713713 1_455
Pm5 Y1 3.610820 1_556
Pm5 Y1 3.610820 1_555
Pm5 Y0 3.712762 1_545
Pm5 Y0 3.712762 1_655
