# generated using pymatgen
data_Yb3Zn11
_symmetry_space_group_name_H-M   'P 1'
_cell_length_a   4.37711900
_cell_length_b   8.22055812
_cell_length_c   8.22055812
_cell_angle_alpha   65.69098733
_cell_angle_beta   74.55994171
_cell_angle_gamma   74.55994171
_symmetry_Int_Tables_number   1
_chemical_formula_structural   Yb3Zn11
_chemical_formula_sum   'Yb3 Zn11'
_cell_volume   255.67654459
_cell_formula_units_Z   1
loop_
 _symmetry_equiv_pos_site_id
 _symmetry_equiv_pos_as_xyz
  1  'x, y, z'
loop_
 _atom_site_type_symbol
 _atom_site_label
 _atom_site_symmetry_multiplicity
 _atom_site_fract_x
 _atom_site_fract_y
 _atom_site_fract_z
 _atom_site_occupancy
  Yb  Yb0  1  0.00000000  0.00000000  0.00000000  1
  Yb  Yb1  1  0.70440400  0.29559600  0.29559600  1
  Yb  Yb2  1  0.29559600  0.70440400  0.70440400  1
  Zn  Zn0  1  0.00000000  0.50000000  0.50000000  1
  Zn  Zn1  1  0.50000000  0.68458600  0.31541400  1
  Zn  Zn2  1  0.50000000  0.31541400  0.68458600  1
  Zn  Zn3  1  0.66287000  0.69413600  0.98012400  1
  Zn  Zn4  1  0.33713000  0.30586400  0.01987600  1
  Zn  Zn5  1  0.66287000  0.98012400  0.69413600  1
  Zn  Zn6  1  0.33713000  0.01987600  0.30586400  1
  Zn  Zn7  1  0.86586900  0.42243400  0.84582700  1
  Zn  Zn8  1  0.13413100  0.57756600  0.15417300  1
  Zn  Zn9  1  0.86586900  0.84582700  0.42243400  1
  Zn  Zn10  1  0.13413100  0.15417300  0.57756600  1
loop_
_geom_bond_atom_site_label_1
_geom_bond_atom_site_label_2
_geom_bond_distance
_geom_bond_site_symmetry_2
Yb0 Zn9 3.114043 1_445
Yb0 Zn7 3.114043 1_454
Yb0 Zn10 3.114043 1_554
Yb0 Zn8 3.114043 1_545
Yb0 Zn6 3.311883 1_455
Yb0 Zn5 3.311883 1_544
Yb0 Zn4 3.311883 1_455
Yb0 Zn3 3.311883 1_544
Yb0 Zn6 3.311884 1_555
Yb0 Zn4 3.311884 1_555
Yb0 Zn5 3.311884 1_444
Yb0 Zn3 3.311884 1_444
Yb0 Zn1 3.563800 1_445
Yb0 Zn1 3.563800 1_545
Yb0 Zn2 3.563800 1_454
Yb0 Zn2 3.563800 1_554
Yb1 Zn8 3.033312 1_555
Yb1 Zn10 3.033312 1_555
Yb1 Zn8 3.033315 1_655
Yb1 Zn10 3.033315 1_655
Yb1 Zn6 3.072335 1_655
Yb1 Zn4 3.072335 1_655
Yb1 Zn4 3.072335 1_555
Yb1 Zn6 3.072335 1_555
Yb1 Zn1 3.143301 1_555
Yb1 Zn2 3.143301 1_555
Yb1 Zn5 3.229682 1_545
Yb1 Zn3 3.229682 1_554
Yb1 Zn7 3.329277 1_554
Yb1 Zn9 3.329277 1_545
Yb1 Zn0 3.458441 1_555
Yb1 Zn0 3.458441 1_655
Yb2 Zn7 3.033312 1_555
Yb2 Zn9 3.033312 1_555
Yb2 Zn7 3.033315 1_455
Yb2 Zn9 3.033315 1_455
Yb2 Zn3 3.072335 1_455
Yb2 Zn5 3.072335 1_455
Yb2 Zn5 3.072335 1_555
Yb2 Zn3 3.072335 1_555
Yb2 Zn1 3.143301 1_555
Yb2 Zn2 3.143301 1_555
Yb2 Zn6 3.229682 1_565
Yb2 Zn4 3.229682 1_556
Yb2 Zn8 3.329277 1_556
Yb2 Zn10 3.329277 1_565
Yb2 Zn0 3.458441 1_655
Yb2 Zn0 3.458441 1_555
Zn0 Zn9 2.579044 1_455
Zn0 Zn10 2.579044 1_555
Zn0 Zn7 2.579044 1_455
Zn0 Zn8 2.579044 1_555
Zn0 Zn2 2.738451 1_455
Zn0 Zn2 2.738451 1_555
Zn0 Zn1 2.738451 1_455
Zn0 Zn1 2.738451 1_555
Zn1 Zn6 2.629983 1_565
Zn1 Zn3 2.629983 1_554
Zn1 Zn9 2.817106 1_555
Zn1 Zn8 2.817106 1_555
Zn1 Zn9 2.817109 1_455
Zn1 Zn8 2.817109 1_655
Zn2 Zn4 2.629983 1_556
Zn2 Zn5 2.629983 1_545
Zn2 Zn7 2.817106 1_555
Zn2 Zn7 2.817109 1_455
Zn3 Zn5 2.550229 1_555
Zn3 Zn8 2.571098 1_556
Zn3 Zn8 2.571102 1_656
Zn3 Zn7 2.729128 1_555
Zn4 Zn6 2.550229 1_555
Zn4 Zn7 2.571098 1_554
Zn4 Zn7 2.571102 1_454
Zn4 Zn8 2.729128 1_555
Zn5 Zn9 2.729128 1_555
Zn6 Zn9 2.571098 1_545
Zn6 Zn9 2.571102 1_445
Zn10 Zn5 2.571098 1_545
Zn10 Zn5 2.571102 1_445
Zn10 Zn6 2.729128 1_555
Zn10 Zn2 2.817106 1_555
Zn10 Zn2 2.817109 1_455
