# generated using pymatgen
data_Mg16Al12N
_symmetry_space_group_name_H-M   'P 1'
_cell_length_a   9.18432116
_cell_length_b   9.17845258
_cell_length_c   9.04769392
_cell_angle_alpha   110.47055008
_cell_angle_beta   110.49655645
_cell_angle_gamma   108.07817416
_symmetry_Int_Tables_number   1
_chemical_formula_structural   Mg16Al12N
_chemical_formula_sum   'Mg16 Al12 N1'
_cell_volume   582.25170271
_cell_formula_units_Z   1
loop_
 _symmetry_equiv_pos_site_id
 _symmetry_equiv_pos_as_xyz
  1  'x, y, z'
loop_
 _atom_site_type_symbol
 _atom_site_label
 _atom_site_symmetry_multiplicity
 _atom_site_fract_x
 _atom_site_fract_y
 _atom_site_fract_z
 _atom_site_occupancy
  Mg  Mg0  1  0.29972200  0.59798300  0.00000000  1
  Mg  Mg1  1  0.00415000  0.99411800  0.00000000  1
  Mg  Mg2  1  0.98492900  0.32063900  0.99999900  1
  Mg  Mg3  1  0.37535200  0.03631400  0.00000000  1
  Mg  Mg4  1  0.66180000  0.66928600  0.27452100  1
  Mg  Mg5  1  0.96821100  0.57338800  0.28537300  1
  Mg  Mg6  1  0.58896100  0.99728100  0.32079000  1
  Mg  Mg7  1  0.98913700  0.98898700  0.34670800  1
  Mg  Mg8  1  0.70730500  0.39403600  0.39797300  1
  Mg  Mg9  1  0.38495000  0.70844100  0.39846600  1
  Mg  Mg10  1  0.98648400  0.30997600  0.60153400  1
  Mg  Mg11  1  0.30933200  0.99606300  0.60202700  1
  Mg  Mg12  1  0.64242800  0.64227800  0.65329000  1
  Mg  Mg13  1  0.26817000  0.67649100  0.67920900  1
  Mg  Mg14  1  0.68283700  0.28801400  0.71462600  1
  Mg  Mg15  1  0.38727900  0.39476600  0.72548000  1
  Al  Al0  1  0.61849800  0.79035200  0.00000000  1
  Al  Al1  1  0.83058500  0.64911700  0.00000000  1
  Al  Al2  1  0.80281900  0.16132700  0.18594800  1
  Al  Al3  1  0.35544400  0.36577700  0.18696500  1
  Al  Al4  1  0.19669200  0.84240900  0.19283500  1
  Al  Al5  1  0.16471100  0.35438100  0.36693100  1
  Al  Al6  1  0.37568800  0.19640200  0.38602700  1
  Al  Al7  1  0.98966100  0.81037500  0.61397300  1
  Al  Al8  1  0.79778100  0.98744900  0.63306900  1
  Al  Al9  1  0.00385700  0.64957500  0.80716500  1
  Al  Al10  1  0.16847700  0.17880900  0.81303400  1
  Al  Al11  1  0.61687200  0.97538000  0.81405100  1
  N  N0  1  0.83786900  0.45058200  0.00000000  1
loop_
_geom_bond_atom_site_label_1
_geom_bond_atom_site_label_2
_geom_bond_distance
_geom_bond_site_symmetry_2
Mg0 Mg15 3.063339 1_554
Mg0 Mg4 3.063348 1_555
Mg0 Mg10 3.100433 1_454
Mg0 Mg9 3.100435 1_555
Mg0 Mg6 3.167119 1_555
Mg0 Mg13 3.167127 1_554
Mg0 Mg2 3.204864 1_454
Mg1 Mg2 3.056351 1_464
Mg1 Mg7 3.203689 1_455
Mg1 Mg12 3.203700 1_454
Mg1 Mg3 3.309598 1_565
Mg2 N0 2.060699 1_556
Mg3 Mg6 3.094694 1_545
Mg3 Mg8 3.297120 1_555
Mg4 Mg8 3.179139 1_555
Mg4 Mg9 3.183399 1_555
Mg4 Mg6 3.201615 1_555
Mg5 N0 2.081468 1_555
Mg5 Mg8 3.150276 1_555
Mg5 Mg9 3.264765 1_655
Mg6 Mg8 3.188023 1_565
Mg6 Mg9 3.189905 1_555
Mg10 Mg7 3.054351 1_545
Mg10 Mg8 3.078375 1_555
Mg10 Mg6 3.149927 1_545
Mg10 Mg15 3.183397 1_655
Mg10 Mg13 3.189898 1_655
Mg10 Mg14 3.264767 1_555
Mg11 Mg7 3.001305 1_455
Mg11 Mg9 3.078382 1_555
Mg11 Mg14 3.150269 1_565
Mg11 Mg15 3.179147 1_565
Mg11 Mg13 3.188017 1_555
Mg11 Mg3 3.297121 1_566
Mg11 Mg5 3.386852 1_455
Mg12 Mg8 3.001297 1_555
Mg12 Mg9 3.054335 1_555
Mg13 Mg3 3.094696 1_566
Mg13 Mg9 3.149922 1_555
Mg13 Mg15 3.201617 1_555
Mg13 Mg5 3.214199 1_455
Mg14 N0 2.081476 1_556
Mg14 Mg6 3.214203 1_545
Mg14 Mg8 3.386851 1_555
Al0 Al1 2.653637 1_555
Al0 Al2 2.776936 1_565
Al0 Al11 2.776951 1_554
Al0 Mg0 2.912204 1_555
Al0 Mg15 3.012480 1_554
Al0 Mg4 3.012488 1_555
Al0 Mg6 3.019982 1_555
Al0 Mg13 3.019991 1_554
Al0 Mg7 3.069501 1_555
Al0 Mg12 3.069513 1_554
Al1 N0 1.844101 1_555
Al1 Al4 2.742611 1_655
Al1 Al9 2.742612 1_654
Al1 Mg7 2.971390 1_555
Al1 Mg12 2.971402 1_554
Al1 Mg1 3.071725 1_655
Al2 Al5 2.715188 1_655
Al2 Mg8 2.913259 1_555
Al2 Mg6 2.956502 1_545
Al2 Mg7 3.015314 1_545
Al2 Mg10 3.063788 1_555
Al2 Mg2 3.152703 1_554
Al2 Mg5 3.243240 1_555
Al2 Mg1 3.277009 1_645
Al2 Mg3 3.284644 1_555
Al3 Al6 2.756525 1_555
Al3 Al5 2.780967 1_555
Al3 Mg4 2.887142 1_555
Al3 Mg9 2.919817 1_555
Al3 Mg8 2.994698 1_555
Al3 Mg3 3.003515 1_555
Al3 Mg2 3.035902 1_454
Al3 Mg1 3.196696 1_545
Al3 Mg0 3.202849 1_555
Al4 Al6 2.648559 1_565
Al4 Al9 2.802185 1_554
Al4 Mg9 2.937644 1_555
Al4 Mg0 2.951003 1_555
Al4 Mg6 3.014998 1_555
Al4 Mg1 3.029344 1_555
Al4 Mg7 3.085789 1_455
Al4 Mg11 3.086434 1_555
Al4 Mg5 3.265275 1_455
Al4 Mg3 3.356828 1_565
Al5 Al6 2.751634 1_555
Al5 Mg13 2.856608 1_555
Al5 Mg15 2.980685 1_555
Al5 Mg2 2.994757 1_454
Al5 Mg9 3.098594 1_555
Al5 Mg7 3.144705 1_445
Al5 Mg10 3.158368 1_455
Al5 Mg1 3.161816 1_545
Al5 Mg5 3.193523 1_455
Al6 Mg14 2.899977 1_555
Al6 Mg15 2.915207 1_555
Al6 Mg8 2.963415 1_555
Al6 Mg6 3.130858 1_545
Al6 Mg11 3.197501 1_545
Al6 Mg1 3.236635 1_545
Al6 Mg3 3.279899 1_555
Al6 Mg7 3.286637 1_445
Al6 Mg12 3.362208 1_555
Al7 Al9 2.648552 1_655
Al7 Al8 2.751619 1_555
Al7 Mg5 2.899984 1_555
Al7 Mg4 2.915197 1_555
Al7 Mg11 2.963415 1_655
Al7 Mg13 3.130849 1_655
Al7 Mg8 3.197500 1_555
Al7 Mg1 3.236636 1_656
Al7 Mg3 3.279898 1_666
Al7 Mg12 3.286636 1_555
Al7 Mg7 3.362217 1_555
Al8 Mg6 2.856618 1_555
Al8 Mg4 2.980675 1_555
Al8 Mg2 2.994750 1_565
Al8 Mg10 3.098607 1_565
Al8 Mg12 3.144698 1_555
Al8 Mg9 3.158373 1_555
Al8 Mg1 3.161809 1_656
Al8 Mg14 3.193535 1_565
Al9 Mg10 2.937644 1_455
Al9 Mg0 2.951009 1_556
Al9 Mg13 3.014997 1_555
Al9 Mg1 3.029336 1_556
Al9 Mg12 3.085790 1_455
Al9 Mg8 3.086435 1_455
Al9 Mg14 3.265287 1_455
Al9 Mg3 3.356822 1_566
Al10 Al3 2.716892 1_556
Al10 Al7 2.756502 1_445
Al10 Al8 2.780943 1_445
Al10 Mg15 2.887160 1_555
Al10 Mg10 2.919832 1_455
Al10 Mg11 2.994695 1_545
Al10 Mg3 3.003507 1_556
Al10 Mg2 3.035896 1_455
Al10 Mg1 3.196679 1_546
Al10 Mg0 3.202870 1_556
Al11 Al2 2.702113 1_566
Al11 Al8 2.715180 1_555
Al11 Mg11 2.913257 1_555
Al11 Mg13 2.956518 1_555
Al11 Mg12 3.015321 1_555
Al11 Mg9 3.063785 1_555
Al11 Mg2 3.152685 1_565
Al11 Mg14 3.243223 1_565
Al11 Mg1 3.277005 1_656
Al11 Mg3 3.284657 1_566
