# generated using pymatgen
data_HfGaCo
_symmetry_space_group_name_H-M   'P 1'
_cell_length_a   6.91854095
_cell_length_b   6.91854095
_cell_length_c   3.24598215
_cell_angle_alpha   90.00000000
_cell_angle_beta   90.00000000
_cell_angle_gamma   119.99999993
_symmetry_Int_Tables_number   1
_chemical_formula_structural   HfGaCo
_chemical_formula_sum   'Hf3 Ga3 Co3'
_cell_volume   134.55684367
_cell_formula_units_Z   3
loop_
 _symmetry_equiv_pos_site_id
 _symmetry_equiv_pos_as_xyz
  1  'x, y, z'
loop_
 _atom_site_type_symbol
 _atom_site_label
 _atom_site_symmetry_multiplicity
 _atom_site_fract_x
 _atom_site_fract_y
 _atom_site_fract_z
 _atom_site_occupancy
  Hf  Hf0  1  0.40066905  0.40066905  0.50000000  1
  Hf  Hf1  1  0.59933095  -0.00000000  0.50000000  1
  Hf  Hf2  1  -0.00000000  0.59933095  0.50000000  1
  Ga  Ga0  1  0.73469967  0.73469967  -0.00000000  1
  Ga  Ga1  1  0.26530033  0.00000000  0.00000000  1
  Ga  Ga2  1  0.00000000  0.26530033  0.00000000  1
  Co  Co0  1  0.66666700  0.33333300  0.00000000  1
  Co  Co1  1  0.33333300  0.66666700  0.00000000  1
  Co  Co2  1  0.00000000  0.00000000  0.50000000  1
loop_
_geom_bond_atom_site_label_1
_geom_bond_atom_site_label_2
_geom_bond_distance
_geom_bond_site_symmetry_2
Ga0 Hf0 2.823976 1_554
Ga0 Hf0 2.823976 1_555
Ga0 Hf1 2.932456 1_564
Ga0 Hf2 2.932456 1_654
Ga0 Hf1 2.932456 1_565
Ga0 Hf2 2.932456 1_655
Ga1 Hf1 2.823976 1_554
Ga1 Hf1 2.823976 1_555
Ga1 Hf0 2.932456 1_555
Ga1 Hf0 2.932456 1_554
Ga1 Hf2 2.932456 1_545
Ga1 Hf2 2.932456 1_544
Ga2 Hf2 2.823976 1_554
Ga2 Hf2 2.823976 1_555
Ga2 Hf0 2.932456 1_555
Ga2 Hf0 2.932456 1_554
Ga2 Hf1 2.932456 1_454
Ga2 Hf1 2.932456 1_455
Co0 Ga2 2.574003 1_655
Co0 Ga1 2.574007 1_555
Co0 Ga0 2.574010 1_555
Co0 Hf1 2.663685 1_555
Co0 Hf1 2.663685 1_554
Co0 Hf2 2.663687 1_654
Co0 Hf2 2.663687 1_655
Co0 Hf0 2.663690 1_555
Co0 Hf0 2.663690 1_554
Co1 Ga1 2.574003 1_565
Co1 Ga2 2.574007 1_555
Co1 Ga0 2.574010 1_555
Co1 Hf2 2.663685 1_555
Co1 Hf2 2.663685 1_554
Co1 Hf1 2.663687 1_565
Co1 Hf1 2.663687 1_564
Co1 Hf0 2.663690 1_555
Co1 Hf0 2.663690 1_554
Co2 Ga2 2.450128 1_556
Co2 Ga1 2.450128 1_556
Co2 Ga2 2.450128 1_555
Co2 Ga1 2.450128 1_555
Co2 Ga0 2.450128 1_446
Co2 Ga0 2.450128 1_445
Co2 Hf1 2.772045 1_455
Co2 Hf2 2.772045 1_545
Co2 Hf0 2.772045 1_555
