# generated using pymatgen
data_Cs5Th(PS4)3
_symmetry_space_group_name_H-M   'P 1'
_cell_length_a   10.49922900
_cell_length_b   13.89843900
_cell_length_c   19.06935197
_cell_angle_alpha   79.25502009
_cell_angle_beta   90.00000000
_cell_angle_gamma   90.00000000
_symmetry_Int_Tables_number   1
_chemical_formula_structural   Cs5Th(PS4)3
_chemical_formula_sum   'Cs20 Th4 P12 S48'
_cell_volume   2733.86599910
_cell_formula_units_Z   4
loop_
 _symmetry_equiv_pos_site_id
 _symmetry_equiv_pos_as_xyz
  1  'x, y, z'
loop_
 _atom_site_type_symbol
 _atom_site_label
 _atom_site_symmetry_multiplicity
 _atom_site_fract_x
 _atom_site_fract_y
 _atom_site_fract_z
 _atom_site_occupancy
  Cs  Cs0  1  0.39408500  0.48592700  0.87045200  1
  Cs  Cs1  1  0.89408500  0.51407300  0.62954800  1
  Cs  Cs2  1  0.60591500  0.51407300  0.12954800  1
  Cs  Cs3  1  0.10591500  0.48592700  0.37045200  1
  Cs  Cs4  1  0.60518400  0.84920100  0.81069200  1
  Cs  Cs5  1  0.10518400  0.15079900  0.68930800  1
  Cs  Cs6  1  0.39481600  0.15079900  0.18930800  1
  Cs  Cs7  1  0.89481600  0.84920100  0.31069200  1
  Cs  Cs8  1  0.15603900  0.79308600  0.77819100  1
  Cs  Cs9  1  0.65603900  0.20691400  0.72180900  1
  Cs  Cs10  1  0.84396100  0.20691400  0.22180900  1
  Cs  Cs11  1  0.34396100  0.79308600  0.27819100  1
  Cs  Cs12  1  0.17134600  0.46355400  0.11833500  1
  Cs  Cs13  1  0.67134600  0.53644600  0.38166500  1
  Cs  Cs14  1  0.82865400  0.53644600  0.88166500  1
  Cs  Cs15  1  0.32865400  0.46355400  0.61833500  1
  Cs  Cs16  1  0.63370900  0.86504100  0.05523800  1
  Cs  Cs17  1  0.13370900  0.13495900  0.44476200  1
  Cs  Cs18  1  0.36629100  0.13495900  0.94476200  1
  Cs  Cs19  1  0.86629100  0.86504100  0.55523800  1
  Th  Th0  1  0.09479100  0.81361600  0.03963800  1
  Th  Th1  1  0.59479100  0.18638400  0.46036200  1
  Th  Th2  1  0.90520900  0.18638400  0.96036200  1
  Th  Th3  1  0.40520900  0.81361600  0.53963800  1
  P  P0  1  0.35350600  0.71754100  0.98443600  1
  P  P1  1  0.85350600  0.28245900  0.51556400  1
  P  P2  1  0.64649400  0.28245900  0.01556400  1
  P  P3  1  0.14649400  0.71754100  0.48443600  1
  P  P4  1  0.91053200  0.97084800  0.87176900  1
  P  P5  1  0.41053200  0.02915200  0.62823100  1
  P  P6  1  0.08946800  0.02915200  0.12823100  1
  P  P7  1  0.58946800  0.97084800  0.37176900  1
  P  P8  1  0.10413500  0.35247000  0.82464100  1
  P  P9  1  0.60413500  0.64753000  0.67535900  1
  P  P10  1  0.89586500  0.64753000  0.17535900  1
  P  P11  1  0.39586500  0.35247000  0.32464100  1
  S  S0  1  0.24364700  0.95217700  0.09918900  1
  S  S1  1  0.74364700  0.04782300  0.40081100  1
  S  S2  1  0.75635300  0.04782300  0.90081100  1
  S  S3  1  0.25635300  0.95217700  0.59918900  1
  S  S4  1  0.93414200  0.96566100  0.08800500  1
  S  S5  1  0.43414200  0.03433900  0.41199500  1
  S  S6  1  0.06585800  0.03433900  0.91199500  1
  S  S7  1  0.56585800  0.96566100  0.58800500  1
  S  S8  1  0.90726900  0.82701300  0.92537900  1
  S  S9  1  0.40726900  0.17298700  0.57462100  1
  S  S10  1  0.09273100  0.17298700  0.07462100  1
  S  S11  1  0.59273100  0.82701300  0.42537900  1
  S  S12  1  0.89344400  0.66788100  0.06431700  1
  S  S13  1  0.39344400  0.33211900  0.43568300  1
  S  S14  1  0.10655600  0.33211900  0.93568300  1
  S  S15  1  0.60655600  0.66788100  0.56431700  1
  S  S16  1  0.06259300  0.72310500  0.18957400  1
  S  S17  1  0.56259300  0.27689500  0.31042600  1
  S  S18  1  0.93740700  0.27689500  0.81042600  1
  S  S19  1  0.43740700  0.72310500  0.68957400  1
  S  S20  1  0.33469600  0.71080500  0.09314300  1
  S  S21  1  0.83469600  0.28919500  0.40685700  1
  S  S22  1  0.66530400  0.28919500  0.90685700  1
  S  S23  1  0.16530400  0.71080500  0.59314300  1
  S  S24  1  0.19141900  0.64872900  0.95846700  1
  S  S25  1  0.69141900  0.35127100  0.54153300  1
  S  S26  1  0.80858100  0.35127100  0.04153300  1
  S  S27  1  0.30858100  0.64872900  0.45846700  1
  S  S28  1  0.32024200  0.86221400  0.93952300  1
  S  S29  1  0.82024200  0.13778600  0.56047700  1
  S  S30  1  0.67975800  0.13778600  0.06047700  1
  S  S31  1  0.17975800  0.86221400  0.43952300  1
  S  S32  1  0.47719300  0.33429000  0.04123000  1
  S  S33  1  0.97719300  0.66571000  0.45877000  1
  S  S34  1  0.52280700  0.66571000  0.95877000  1
  S  S35  1  0.02280700  0.33429000  0.54123000  1
  S  S36  1  0.90313100  0.97265100  0.76657100  1
  S  S37  1  0.40313100  0.02734900  0.73342900  1
  S  S38  1  0.09686900  0.02734900  0.23342900  1
  S  S39  1  0.59686900  0.97265100  0.26657100  1
  S  S40  1  0.26238500  0.29296500  0.78899100  1
  S  S41  1  0.76238500  0.70703500  0.71100900  1
  S  S42  1  0.73761500  0.70703500  0.21100900  1
  S  S43  1  0.23761500  0.29296500  0.28899100  1
  S  S44  1  0.09472500  0.49577800  0.77856200  1
  S  S45  1  0.59472500  0.50422200  0.72143800  1
  S  S46  1  0.90527500  0.50422200  0.22143800  1
  S  S47  1  0.40527500  0.49577800  0.27856200  1
loop_
_geom_bond_atom_site_label_1
_geom_bond_atom_site_label_2
_geom_bond_distance
_geom_bond_site_symmetry_2
Cs0 S45 3.508211 1_555
Cs0 S34 3.532080 1_555
Cs0 S44 3.588668 1_555
Cs0 S40 3.615372 1_555
Cs0 S32 3.639976 1_556
Cs0 S24 3.725658 1_555
Cs0 S14 3.773444 1_555
Cs0 S22 3.919075 1_555
Cs1 S44 3.508211 1_655
Cs1 S35 3.532080 1_655
Cs1 S45 3.588668 1_555
Cs1 S41 3.615372 1_555
Cs1 S33 3.639976 1_555
Cs1 S25 3.725658 1_555
Cs1 S15 3.773444 1_555
Cs1 S23 3.919075 1_655
Cs2 S47 3.508211 1_555
Cs2 S32 3.532080 1_555
Cs2 S46 3.588668 1_555
Cs2 S42 3.615372 1_555
Cs2 S34 3.639976 1_554
Cs2 S26 3.725658 1_555
Cs2 S12 3.773444 1_555
Cs2 S20 3.919075 1_555
Cs3 S46 3.508211 1_455
Cs3 S33 3.532080 1_455
Cs3 S47 3.588668 1_555
Cs3 S43 3.615372 1_555
Cs3 S35 3.639976 1_555
Cs3 S27 3.725658 1_555
Cs3 S13 3.773444 1_555
Cs3 S21 3.919075 1_455
Cs4 S37 3.382505 1_565
Cs4 S41 3.412055 1_555
Cs4 S34 3.541209 1_555
Cs4 S36 3.591542 1_555
Cs4 S19 3.608063 1_555
Cs4 S8 3.832237 1_555
Cs4 S2 3.855105 1_565
Cs4 S28 3.896662 1_555
Cs5 S36 3.382505 1_445
Cs5 S40 3.412055 1_555
Cs5 S35 3.541209 1_555
Cs5 S37 3.591542 1_555
Cs5 S18 3.608063 1_455
Cs5 S9 3.832237 1_555
Cs5 S3 3.855105 1_545
Cs5 S29 3.896662 1_455
Cs6 S39 3.382505 1_545
Cs6 S43 3.412055 1_555
Cs6 S32 3.541209 1_555
Cs6 S38 3.591542 1_555
Cs6 S17 3.608063 1_555
Cs6 S10 3.832237 1_555
Cs6 S0 3.855105 1_545
Cs6 S30 3.896662 1_555
Cs7 S38 3.382505 1_665
Cs7 S42 3.412055 1_555
Cs7 S33 3.541209 1_555
Cs7 S39 3.591542 1_555
Cs7 S16 3.608063 1_655
Cs7 S11 3.832237 1_555
Cs7 S1 3.855105 1_565
Cs7 S31 3.896662 1_655
Cs8 S36 3.622445 1_455
Cs8 S19 3.625122 1_555
Cs8 S24 3.661918 1_555
Cs8 S28 3.802927 1_555
Cs8 S3 3.851710 1_555
Cs8 S23 3.908194 1_555
Cs8 S8 3.926301 1_455
Cs8 S37 4.125943 1_565
Cs8 S44 4.180664 1_555
Cs9 S37 3.622445 1_555
Cs9 S18 3.625122 1_555
Cs9 S25 3.661918 1_555
Cs9 S29 3.802927 1_555
Cs9 S2 3.851710 1_555
Cs9 S22 3.908194 1_555
Cs9 S9 3.926301 1_555
Cs9 S36 4.125943 1_545
Cs9 S45 4.180664 1_555
Cs10 S38 3.622445 1_655
Cs10 S17 3.625122 1_555
Cs10 S26 3.661918 1_555
Cs10 S30 3.802927 1_555
Cs10 S1 3.851710 1_555
Cs10 S21 3.908194 1_555
Cs10 S10 3.926301 1_655
Cs10 S39 4.125943 1_545
Cs10 S46 4.180664 1_555
Cs11 S39 3.622445 1_555
Cs11 S16 3.625122 1_555
Cs11 S27 3.661918 1_555
Cs11 S31 3.802927 1_555
Cs11 S0 3.851710 1_555
Cs11 S20 3.908194 1_555
Cs11 S11 3.926301 1_555
Cs11 S38 4.125943 1_565
Cs11 S47 4.180664 1_555
Cs12 S46 3.521831 1_455
Cs12 S24 3.610585 1_554
Cs12 S43 3.717370 1_555
Cs12 S20 3.790182 1_555
Cs12 S47 4.009832 1_555
Cs12 S12 4.067952 1_455
Cs12 S32 4.084859 1_555
Cs13 S47 3.521831 1_555
Cs13 S25 3.610585 1_555
Cs13 S42 3.717370 1_555
Cs13 S21 3.790182 1_555
Cs13 S46 4.009832 1_555
Cs13 S13 4.067952 1_555
Cs13 S33 4.084859 1_555
Cs14 S44 3.521831 1_655
Cs14 S26 3.610585 1_556
Cs14 S41 3.717370 1_555
Cs14 S22 3.790182 1_555
Cs14 S45 4.009832 1_555
Cs14 S14 4.067952 1_655
Cs14 S34 4.084859 1_555
Cs15 S45 3.521831 1_555
Cs15 S27 3.610585 1_555
Cs15 S40 3.717370 1_555
Cs15 S23 3.790182 1_555
Cs15 S44 4.009832 1_555
Cs15 S15 4.067952 1_555
Cs15 S35 4.084859 1_555
Cs16 S42 3.521923 1_555
Cs16 S4 3.552697 1_555
Cs16 S2 3.740875 1_564
Cs16 S34 3.783547 1_554
Cs16 S20 3.794176 1_555
Cs16 S30 3.841169 1_565
Cs16 S12 3.846880 1_555
Cs16 S8 3.892161 1_554
Cs16 S28 3.966705 1_554
Cs17 S43 3.521923 1_555
Cs17 S5 3.552697 1_555
Cs17 S3 3.740875 1_545
Cs17 S35 3.783547 1_555
Cs17 S21 3.794176 1_455
Cs17 S31 3.841169 1_545
Cs17 S13 3.846880 1_555
Cs17 S9 3.892161 1_555
Cs17 S29 3.966705 1_455
Cs18 S40 3.521923 1_555
Cs18 S6 3.552697 1_555
Cs18 S0 3.740875 1_546
Cs18 S32 3.783547 1_556
Cs18 S22 3.794176 1_555
Cs18 S28 3.841169 1_545
Cs18 S14 3.846880 1_555
Cs18 S10 3.892161 1_556
Cs18 S30 3.966705 1_556
Cs19 S41 3.521923 1_555
Cs19 S7 3.552697 1_555
Cs19 S1 3.740875 1_565
Cs19 S33 3.783547 1_555
Cs19 S23 3.794176 1_655
Cs19 S29 3.841169 1_565
Cs19 S15 3.846880 1_555
Cs19 S11 3.892161 1_555
Cs19 S31 3.966705 1_655
P0 S34 2.012351 1_555
P0 S24 2.057323 1_555
P0 S28 2.063104 1_555
P0 S20 2.067031 1_556
P1 S35 2.012351 1_655
P1 S25 2.057323 1_555
P1 S29 2.063104 1_555
P1 S21 2.067031 1_555
P2 S32 2.012351 1_555
P2 S26 2.057323 1_555
P2 S30 2.063104 1_555
P2 S22 2.067031 1_554
P3 S33 2.012351 1_455
P3 S27 2.057323 1_555
P3 S31 2.063104 1_555
P3 S23 2.067031 1_555
P4 S36 2.003045 1_555
P4 S6 2.068577 1_665
P4 S8 2.068956 1_555
P4 S2 2.071849 1_565
P5 S37 2.003045 1_555
P5 S7 2.068577 1_545
P5 S9 2.068956 1_555
P5 S3 2.071849 1_545
P6 S38 2.003045 1_555
P6 S4 2.068577 1_445
P6 S10 2.068956 1_555
P6 S0 2.071849 1_545
P7 S39 2.003045 1_555
P7 S5 2.068577 1_565
P7 S11 2.068956 1_555
P7 S1 2.071849 1_565
P8 S44 2.023951 1_555
P8 S40 2.028883 1_555
P8 S14 2.083537 1_555
P8 S18 2.085003 1_455
P9 S45 2.023951 1_555
P9 S41 2.028883 1_555
P9 S15 2.083537 1_555
P9 S19 2.085003 1_555
P10 S46 2.023951 1_555
P10 S42 2.028883 1_555
P10 S12 2.083537 1_555
P10 S16 2.085003 1_655
P11 S47 2.023951 1_555
P11 S43 2.028883 1_555
P11 S13 2.083537 1_555
P11 S17 2.085003 1_555
S0 Th0 2.873367 1_555
S1 Th1 2.873367 1_555
S2 Th2 2.873367 1_555
S3 Th3 2.873367 1_555
S4 Th0 2.981263 1_655
S4 Th2 3.555773 1_564
S5 Th1 2.981263 1_555
S5 Th3 3.555773 1_545
S6 Th2 2.981263 1_455
S6 Th0 3.555773 1_546
S7 Th3 2.981263 1_555
S7 Th1 3.555773 1_565
S8 Th0 2.916690 1_656
S9 Th1 2.916690 1_555
S10 Th2 2.916690 1_454
S11 Th3 2.916690 1_555
S12 Th0 2.904754 1_655
S13 Th1 2.904754 1_555
S14 Th2 2.904754 1_455
S15 Th3 2.904754 1_555
S16 Th0 2.920708 1_555
S17 Th1 2.920708 1_555
S18 Th2 2.920708 1_555
S19 Th3 2.920708 1_555
S20 Th0 2.980542 1_555
S21 Th1 2.980542 1_555
S22 Th2 2.980542 1_555
S23 Th3 2.980542 1_555
S24 Th0 3.162217 1_556
S25 Th1 3.162217 1_555
S26 Th2 3.162217 1_554
S27 Th3 3.162217 1_555
S28 Th0 3.036963 1_556
S29 Th1 3.036963 1_555
S30 Th2 3.036963 1_554
S31 Th3 3.036963 1_555
