# generated using pymatgen
data_Ti3Si6N11
_symmetry_space_group_name_H-M   'P 1'
_cell_length_a   9.72253620
_cell_length_b   9.72253620
_cell_length_c   4.81054727
_cell_angle_alpha   90.00000000
_cell_angle_beta   90.00000000
_cell_angle_gamma   90.00000000
_symmetry_Int_Tables_number   1
_chemical_formula_structural   Ti3Si6N11
_chemical_formula_sum   'Ti6 Si12 N22'
_cell_volume   454.73001805
_cell_formula_units_Z   2
loop_
 _symmetry_equiv_pos_site_id
 _symmetry_equiv_pos_as_xyz
  1  'x, y, z'
loop_
 _atom_site_type_symbol
 _atom_site_label
 _atom_site_symmetry_multiplicity
 _atom_site_fract_x
 _atom_site_fract_y
 _atom_site_fract_z
 _atom_site_occupancy
  Ti  Ti0  1  0.30306674  0.80306674  0.93566537  1
  Ti  Ti1  1  0.69693326  0.19693326  0.93566537  1
  Ti  Ti2  1  0.19693326  0.30306674  0.93566537  1
  Ti  Ti3  1  0.80306674  0.69693326  0.93566537  1
  Ti  Ti4  1  0.50000000  0.50000000  0.96880027  1
  Ti  Ti5  1  0.00000000  -0.00000000  0.96880027  1
  Si  Si0  1  0.41722538  0.29695266  0.53043105  1
  Si  Si1  1  0.58277462  0.70304734  0.53043105  1
  Si  Si2  1  0.08277462  0.79695266  0.53043105  1
  Si  Si3  1  0.91722538  0.20304734  0.53043105  1
  Si  Si4  1  0.29695266  0.58277462  0.53043105  1
  Si  Si5  1  0.70304734  0.41722538  0.53043105  1
  Si  Si6  1  0.79695266  0.91722538  0.53043105  1
  Si  Si7  1  0.20304734  0.08277462  0.53043105  1
  Si  Si8  1  0.88033141  0.38033141  0.04913662  1
  Si  Si9  1  0.11966859  0.61966859  0.04913662  1
  Si  Si10  1  0.61966859  0.88033141  0.04913662  1
  Si  Si11  1  0.38033141  0.11966859  0.04913662  1
  N  N0  1  0.31815360  0.42482372  0.68018125  1
  N  N1  1  0.68184640  0.57517628  0.68018125  1
  N  N2  1  0.18184640  0.92482372  0.68018125  1
  N  N3  1  0.81815360  0.07517628  0.68018125  1
  N  N4  1  0.42482372  0.68184640  0.68018125  1
  N  N5  1  0.57517628  0.31815360  0.68018125  1
  N  N6  1  0.92482372  0.81815360  0.68018125  1
  N  N7  1  0.07517628  0.18184640  0.68018125  1
  N  N8  1  0.41051175  0.28808942  0.17391245  1
  N  N9  1  0.58948825  0.71191058  0.17391245  1
  N  N10  1  0.08948825  0.78808942  0.17391245  1
  N  N11  1  0.91051175  0.21191058  0.17391245  1
  N  N12  1  0.28808942  0.58948825  0.17391245  1
  N  N13  1  0.71191058  0.41051175  0.17391245  1
  N  N14  1  0.78808942  0.91051175  0.17391245  1
  N  N15  1  0.21191058  0.08948825  0.17391245  1
  N  N16  1  0.84294686  0.34294686  0.69866367  1
  N  N17  1  0.15705314  0.65705314  0.69866367  1
  N  N18  1  0.65705314  0.84294686  0.69866367  1
  N  N19  1  0.34294686  0.15705314  0.69866367  1
  N  N20  1  0.50000000  -0.00000000  0.09470740  1
  N  N21  1  0.00000000  0.50000000  0.09470740  1
loop_
_geom_bond_atom_site_label_1
_geom_bond_atom_site_label_2
_geom_bond_distance
_geom_bond_site_symmetry_2
N0 Si4 1.708730 1_555
N0 Si0 1.729850 1_555
N0 Ti2 2.073852 1_555
N0 Ti4 2.363847 1_555
N1 Si5 1.708730 1_555
N1 Si1 1.729850 1_555
N1 Ti3 2.073852 1_555
N1 Ti4 2.363847 1_555
N2 Si7 1.708730 1_565
N2 Si2 1.729850 1_555
N2 Ti0 2.073852 1_555
N2 Ti5 2.363847 1_565
N3 Si6 1.708730 1_545
N3 Si3 1.729850 1_555
N3 Ti1 2.073852 1_555
N3 Ti5 2.363847 1_655
N4 Si1 1.708730 1_555
N4 Si4 1.729850 1_555
N4 Ti0 2.073852 1_555
N4 Ti4 2.363847 1_555
N5 Si0 1.708730 1_555
N5 Si5 1.729850 1_555
N5 Ti1 2.073852 1_555
N5 Ti4 2.363847 1_555
N6 Si2 1.708730 1_655
N6 Si6 1.729850 1_555
N6 Ti3 2.073852 1_555
N6 Ti5 2.363847 1_665
N7 Si3 1.708730 1_455
N7 Si7 1.729850 1_555
N7 Ti2 2.073852 1_555
N7 Ti5 2.363847 1_555
N8 Si0 1.718453 1_555
N8 Si11 1.768537 1_555
N8 Ti2 2.376279 1_554
N8 Ti4 2.444472 1_554
N9 Si1 1.718453 1_555
N9 Si10 1.768537 1_555
N9 Ti3 2.376279 1_554
N9 Ti4 2.444472 1_554
N10 Si2 1.718453 1_555
N10 Si9 1.768537 1_555
N10 Ti0 2.376279 1_554
N10 Ti5 2.444472 1_564
N11 Si3 1.718453 1_555
N11 Si8 1.768537 1_555
N11 Ti1 2.376279 1_554
N11 Ti5 2.444472 1_654
N12 Si4 1.718453 1_555
N12 Si9 1.768537 1_555
N12 Ti0 2.376279 1_554
N12 Ti4 2.444472 1_554
N13 Si5 1.718453 1_555
N13 Si8 1.768537 1_555
N13 Ti1 2.376279 1_554
N13 Ti4 2.444472 1_554
N14 Si6 1.718453 1_555
N14 Si10 1.768537 1_555
N14 Ti3 2.376279 1_554
N14 Ti5 2.444472 1_664
N15 Si7 1.718453 1_555
N15 Si11 1.768537 1_555
N15 Ti2 2.376279 1_554
N15 Ti5 2.444472 1_554
N16 Si5 1.739705 1_555
N16 Si3 1.739705 1_555
N16 Si8 1.762586 1_556
N16 Ti1 2.308788 1_555
N17 Si2 1.739705 1_555
N17 Si4 1.739705 1_555
N17 Si9 1.762586 1_556
N17 Ti0 2.308788 1_555
N18 Si6 1.739705 1_555
N18 Si1 1.739705 1_555
N18 Si10 1.762586 1_556
N18 Ti3 2.308788 1_555
N19 Si0 1.739705 1_555
N19 Si7 1.739705 1_555
N19 Si11 1.762586 1_556
N19 Ti2 2.308788 1_555
N20 Si10 1.659952 1_545
N20 Si11 1.659952 1_555
N20 Ti0 2.813792 1_544
N20 Ti1 2.813792 1_554
N21 Si9 1.659952 1_555
N21 Si8 1.659952 1_455
N21 Ti2 2.813792 1_554
N21 Ti3 2.813792 1_454
