# generated using pymatgen
data_As3P3Pb10(ClO12)2
_symmetry_space_group_name_H-M   'P 1'
_cell_length_a   10.32237031
_cell_length_b   10.32237031
_cell_length_c   7.44264400
_cell_angle_alpha   90.00000000
_cell_angle_beta   90.00000000
_cell_angle_gamma   120.00000196
_symmetry_Int_Tables_number   1
_chemical_formula_structural   As3P3Pb10(ClO12)2
_chemical_formula_sum   'As3 P3 Pb10 Cl2 O24'
_cell_volume   686.77857627
_cell_formula_units_Z   1
loop_
 _symmetry_equiv_pos_site_id
 _symmetry_equiv_pos_as_xyz
  1  'x, y, z'
loop_
 _atom_site_type_symbol
 _atom_site_label
 _atom_site_symmetry_multiplicity
 _atom_site_fract_x
 _atom_site_fract_y
 _atom_site_fract_z
 _atom_site_occupancy
  As  As0  1  0.74135100  0.04671300  0.50000000  1
  As  As1  1  0.30536200  0.25864900  0.50000000  1
  As  As2  1  0.95328700  0.69463800  0.50000000  1
  P  P0  1  0.92392600  0.28688700  0.00000000  1
  P  P1  1  0.36296200  0.07607400  0.00000000  1
  P  P2  1  0.71311300  0.63703800  0.00000000  1
  Pb  Pb0  1  0.00000000  0.00000000  0.24030300  1
  Pb  Pb1  1  0.66666700  0.33333300  0.75116800  1
  Pb  Pb2  1  0.66666700  0.33333300  0.24883200  1
  Pb  Pb3  1  0.00000000  0.00000000  0.75969700  1
  Pb  Pb4  1  0.07512200  0.65042300  0.00000000  1
  Pb  Pb5  1  0.57530100  0.92487800  0.00000000  1
  Pb  Pb6  1  0.34957700  0.42469900  0.00000000  1
  Pb  Pb7  1  0.58736800  0.67776400  0.50000000  1
  Pb  Pb8  1  0.09039600  0.41263200  0.50000000  1
  Pb  Pb9  1  0.32223600  0.90960400  0.50000000  1
  Cl  Cl0  1  0.33333300  0.66666700  0.25034000  1
  Cl  Cl1  1  0.33333300  0.66666700  0.74966000  1
  O  O0  1  0.74727000  0.19168200  0.00000000  1
  O  O1  1  0.44441200  0.25273000  0.00000000  1
  O  O2  1  0.80831800  0.55558800  0.00000000  1
  O  O3  1  0.93618500  0.14629700  0.50000000  1
  O  O4  1  0.21011200  0.06381500  0.50000000  1
  O  O5  1  0.85370300  0.78988800  0.50000000  1
  O  O6  1  0.97137200  0.39079100  0.16888000  1
  O  O7  1  0.41942000  0.02862800  0.16888000  1
  O  O8  1  0.60920900  0.58058000  0.16888000  1
  O  O9  1  0.68969900  0.92940100  0.68376300  1
  O  O10  1  0.23970100  0.31030100  0.68376300  1
  O  O11  1  0.07059900  0.76029900  0.68376300  1
  O  O12  1  0.68969900  0.92940100  0.31623700  1
  O  O13  1  0.23970100  0.31030100  0.31623700  1
  O  O14  1  0.07059900  0.76029900  0.31623700  1
  O  O15  1  0.97137200  0.39079100  0.83112000  1
  O  O16  1  0.41942000  0.02862800  0.83112000  1
  O  O17  1  0.60920900  0.58058000  0.83112000  1
  O  O18  1  0.99152400  0.18198100  0.00000000  1
  O  O19  1  0.19045800  0.00847600  0.00000000  1
  O  O20  1  0.81801900  0.80954200  0.00000000  1
  O  O21  1  0.66579000  0.16186500  0.50000000  1
  O  O22  1  0.49607500  0.33421000  0.50000000  1
  O  O23  1  0.83813500  0.50392500  0.50000000  1
loop_
_geom_bond_atom_site_label_1
_geom_bond_atom_site_label_2
_geom_bond_distance
_geom_bond_site_symmetry_2
As0 O21 1.717068 1_555
As0 O12 1.724981 1_545
As0 O9 1.724981 1_545
As0 O3 1.741849 1_555
As1 O22 1.717068 1_555
As1 O10 1.724987 1_555
As1 O13 1.724987 1_555
As1 O4 1.741849 1_555
As2 O23 1.717068 1_555
As2 O11 1.724982 1_655
As2 O14 1.724982 1_655
As2 O5 1.741850 1_555
Cl0 Pb9 3.168834 1_555
Cl0 Pb8 3.168838 1_555
Cl0 Pb7 3.168842 1_555
Cl0 Pb4 3.186969 1_555
Cl0 Pb5 3.186972 1_555
Cl0 Pb6 3.186977 1_555
Cl1 Pb9 3.168834 1_555
Cl1 Pb8 3.168838 1_555
Cl1 Pb7 3.168842 1_555
Cl1 Pb4 3.186969 1_556
Cl1 Pb5 3.186972 1_556
Cl1 Pb6 3.186977 1_556
O0 P0 1.580799 1_555
O0 Pb5 2.418073 1_545
O0 Pb2 2.734325 1_555
O0 Pb1 2.734325 1_554
O1 P1 1.580800 1_555
O1 Pb6 2.418073 1_555
O1 Pb2 2.734332 1_555
O1 Pb1 2.734332 1_554
O2 P2 1.580791 1_555
O2 Pb4 2.418073 1_655
O2 Pb2 2.734331 1_555
O2 Pb1 2.734331 1_554
O3 Pb8 2.390773 1_655
O3 Pb0 2.728555 1_655
O3 Pb3 2.728555 1_655
O4 Pb9 2.390773 1_545
O4 Pb3 2.728555 1_555
O4 Pb0 2.728555 1_555
O5 Pb7 2.390773 1_555
O5 Pb3 2.728555 1_665
O5 Pb0 2.728555 1_665
O6 P0 1.563568 1_555
O6 Pb4 2.653130 1_655
O6 Pb8 2.712310 1_655
O7 P1 1.563568 1_555
O7 Pb5 2.653122 1_545
O7 Pb9 2.712312 1_545
O8 P2 1.563568 1_555
O8 Pb6 2.653129 1_555
O8 Pb7 2.712315 1_555
O9 Pb5 2.623184 1_556
O9 Pb7 2.643776 1_555
O10 Pb6 2.623186 1_556
O10 Pb8 2.643768 1_555
O11 Pb4 2.623188 1_556
O11 Pb9 2.643775 1_555
O12 Pb5 2.623184 1_555
O12 Pb7 2.643776 1_555
O13 Pb6 2.623186 1_555
O13 Pb8 2.643768 1_555
O14 Pb4 2.623188 1_555
O14 Pb9 2.643775 1_555
O15 P0 1.563568 1_556
O15 Pb4 2.653130 1_656
O15 Pb8 2.712310 1_655
O16 P1 1.563568 1_556
O16 Pb5 2.653122 1_546
O16 Pb9 2.712312 1_545
O17 P2 1.563568 1_556
O17 Pb6 2.653129 1_556
O17 Pb7 2.712315 1_555
O18 P0 1.554063 1_555
O18 Pb0 2.626666 1_655
O18 Pb3 2.626666 1_654
O19 P1 1.554063 1_555
O19 Pb0 2.626673 1_555
O19 Pb3 2.626673 1_554
O20 P2 1.554063 1_555
O20 Pb0 2.626670 1_665
O20 Pb3 2.626670 1_664
O21 Pb1 2.571243 1_555
O21 Pb2 2.571243 1_555
O22 Pb1 2.571250 1_555
O22 Pb2 2.571250 1_555
O23 Pb2 2.571246 1_555
O23 Pb1 2.571246 1_555
