# generated using pymatgen
data_Li4MnCo3O8
_symmetry_space_group_name_H-M   'P 1'
_cell_length_a   9.86198462
_cell_length_b   9.86198462
_cell_length_c   5.10375864
_cell_angle_alpha   83.85536122
_cell_angle_beta   83.85536122
_cell_angle_gamma   16.96098236
_symmetry_Int_Tables_number   1
_chemical_formula_structural   Li4MnCo3O8
_chemical_formula_sum   'Li4 Mn1 Co3 O8'
_cell_volume   143.95519449
_cell_formula_units_Z   1
loop_
 _symmetry_equiv_pos_site_id
 _symmetry_equiv_pos_as_xyz
  1  'x, y, z'
loop_
 _atom_site_type_symbol
 _atom_site_label
 _atom_site_symmetry_multiplicity
 _atom_site_fract_x
 _atom_site_fract_y
 _atom_site_fract_z
 _atom_site_occupancy
  Li  Li0  1  0.87450400  0.87450400  0.88253800  1
  Li  Li1  1  0.12549600  0.12549600  0.11746200  1
  Li  Li2  1  0.37332600  0.37332600  0.36555700  1
  Li  Li3  1  0.62667400  0.62667400  0.63444300  1
  Mn  Mn0  1  0.00000000  0.00000000  0.50000000  1
  Co  Co0  1  0.25041800  0.25041800  0.74955400  1
  Co  Co1  1  0.50000000  0.50000000  0.00000000  1
  Co  Co2  1  0.74958200  0.74958200  0.25044600  1
  O  O0  1  0.80833800  0.80833800  0.56714600  1
  O  O1  1  0.05646900  0.05646900  0.83798100  1
  O  O2  1  0.30715300  0.30715300  0.06840000  1
  O  O3  1  0.55289400  0.55289400  0.30919200  1
  O  O4  1  0.94353100  0.94353100  0.16201900  1
  O  O5  1  0.19166200  0.19166200  0.43285400  1
  O  O6  1  0.44710600  0.44710600  0.69080800  1
  O  O7  1  0.69284700  0.69284700  0.93160000  1
loop_
_geom_bond_atom_site_label_1
_geom_bond_atom_site_label_2
_geom_bond_distance
_geom_bond_site_symmetry_2
Li0 O4 2.064874 1_556
Li0 O2 2.114618 1_566
Li0 O2 2.114618 1_656
Li0 O0 2.169547 1_555
Li0 O6 2.186045 1_565
Li0 O6 2.186045 1_655
Li1 O1 2.064874 1_554
Li1 O7 2.114618 1_544
Li1 O7 2.114618 1_454
Li1 O5 2.169547 1_555
Li1 O3 2.186045 1_545
Li1 O3 2.186045 1_455
Li2 O2 2.095322 1_555
Li2 O0 2.121028 1_545
Li2 O0 2.121028 1_455
Li2 O4 2.182232 1_455
Li2 O4 2.182232 1_545
Li2 O6 2.311797 1_555
Li3 O7 2.095322 1_555
Li3 O5 2.121028 1_655
Li3 O5 2.121028 1_565
Li3 O1 2.182232 1_655
Li3 O1 2.182232 1_565
Li3 O3 2.311797 1_555
Mn0 O6 1.977580 1_545
Mn0 O3 1.977580 1_455
Mn0 O6 1.977580 1_455
Mn0 O3 1.977580 1_545
Mn0 O4 2.144851 1_445
Mn0 O1 2.144851 1_555
Co0 O7 2.003493 1_545
Co0 O7 2.003493 1_455
Co0 O0 2.007720 1_545
Co0 O0 2.007720 1_455
Co0 O2 2.064704 1_556
Co0 O5 2.080258 1_555
Co1 O4 1.953296 1_545
Co1 O4 1.953296 1_455
Co1 O1 1.953296 1_564
Co1 O1 1.953296 1_654
Co1 O6 1.976719 1_554
Co1 O3 1.976719 1_555
Co2 O2 2.003493 1_655
Co2 O2 2.003493 1_565
Co2 O5 2.007720 1_565
Co2 O5 2.007720 1_655
Co2 O7 2.064704 1_554
Co2 O0 2.080258 1_555
