# generated using pymatgen
data_BaDySnSbO6
_symmetry_space_group_name_H-M   'P 1'
_cell_length_a   5.97973159
_cell_length_b   5.97973159
_cell_length_c   5.97973159
_cell_angle_alpha   60.00000000
_cell_angle_beta   60.00000000
_cell_angle_gamma   60.00000000
_symmetry_Int_Tables_number   1
_chemical_formula_structural   BaDySnSbO6
_chemical_formula_sum   'Ba1 Dy1 Sn1 Sb1 O6'
_cell_volume   151.19243946
_cell_formula_units_Z   1
loop_
 _symmetry_equiv_pos_site_id
 _symmetry_equiv_pos_as_xyz
  1  'x, y, z'
loop_
 _atom_site_type_symbol
 _atom_site_label
 _atom_site_symmetry_multiplicity
 _atom_site_fract_x
 _atom_site_fract_y
 _atom_site_fract_z
 _atom_site_occupancy
  Ba  Ba0  1  0.25000000  0.25000000  0.25000000  1
  Dy  Dy0  1  0.00000000  0.00000000  0.00000000  1
  Sn  Sn0  1  0.75000000  0.75000000  0.75000000  1
  Sb  Sb0  1  0.50000000  0.50000000  0.50000000  1
  O  O0  1  0.73696644  0.26303356  0.26303356  1
  O  O1  1  0.26303356  0.73696644  0.73696644  1
  O  O2  1  0.73696644  0.26303356  0.73696644  1
  O  O3  1  0.26303356  0.73696644  0.26303356  1
  O  O4  1  0.73696644  0.73696644  0.26303356  1
  O  O5  1  0.26303356  0.26303356  0.73696644  1
loop_
_geom_bond_atom_site_label_1
_geom_bond_atom_site_label_2
_geom_bond_distance
_geom_bond_site_symmetry_2
Ba0 O4 2.991897 1_455
Ba0 O1 2.991897 1_554
Ba0 O3 2.991897 1_545
Ba0 O2 2.991897 1_455
Ba0 O5 2.991897 1_555
Ba0 O5 2.991897 1_554
Ba0 O1 2.991897 1_545
Ba0 O2 2.991897 1_554
Ba0 O0 2.991897 1_455
Ba0 O4 2.991897 1_545
Ba0 O3 2.991897 1_555
Ba0 O0 2.991897 1_555
Dy0 O3 2.224374 1_545
Dy0 O2 2.224374 1_454
Dy0 O4 2.224374 1_445
Dy0 O1 2.224374 1_544
Dy0 O5 2.224374 1_554
Dy0 O0 2.224374 1_455
O0 Sb0 2.003935 1_555
O1 Sb0 2.003935 1_555
O2 Sb0 2.003935 1_555
O3 Sb0 2.003935 1_555
O4 Sb0 2.003935 1_555
O5 Sb0 2.003935 1_555
