# generated using pymatgen
data_Na3FeP8O23
_symmetry_space_group_name_H-M   'P 1'
_cell_length_a   12.13834776
_cell_length_b   12.13834776
_cell_length_c   12.13834776
_cell_angle_alpha   90.00000000
_cell_angle_beta   90.00000000
_cell_angle_gamma   90.00000000
_symmetry_Int_Tables_number   1
_chemical_formula_structural   Na3FeP8O23
_chemical_formula_sum   'Na12 Fe4 P32 O92'
_cell_volume   1788.45792401
_cell_formula_units_Z   4
loop_
 _symmetry_equiv_pos_site_id
 _symmetry_equiv_pos_as_xyz
  1  'x, y, z'
loop_
 _atom_site_type_symbol
 _atom_site_label
 _atom_site_symmetry_multiplicity
 _atom_site_fract_x
 _atom_site_fract_y
 _atom_site_fract_z
 _atom_site_occupancy
  Na  Na0  1  0.95660192  0.79339808  0.37500000  1
  Na  Na1  1  0.54339808  0.20660192  0.87500000  1
  Na  Na2  1  0.04339808  0.29339808  0.12500000  1
  Na  Na3  1  0.45660192  0.70660192  0.62500000  1
  Na  Na4  1  0.79339808  0.37500000  0.95660192  1
  Na  Na5  1  0.20660192  0.87500000  0.54339808  1
  Na  Na6  1  0.29339808  0.12500000  0.04339808  1
  Na  Na7  1  0.70660192  0.62500000  0.45660192  1
  Na  Na8  1  0.37500000  0.95660192  0.79339808  1
  Na  Na9  1  0.87500000  0.54339808  0.20660192  1
  Na  Na10  1  0.12500000  0.04339808  0.29339808  1
  Na  Na11  1  0.62500000  0.45660192  0.70660192  1
  Fe  Fe0  1  0.87500000  0.12500000  0.62500000  1
  Fe  Fe1  1  0.62500000  0.87500000  0.12500000  1
  Fe  Fe2  1  0.12500000  0.62500000  0.87500000  1
  Fe  Fe3  1  0.37500000  0.37500000  0.37500000  1
  P  P0  1  0.68119707  0.89600385  0.39095411  1
  P  P1  1  0.81880293  0.10399615  0.89095411  1
  P  P2  1  0.31880293  0.39600385  0.10904589  1
  P  P3  1  0.18119707  0.60399615  0.60904589  1
  P  P4  1  0.89600385  0.39095411  0.68119707  1
  P  P5  1  0.10399615  0.89095411  0.81880293  1
  P  P6  1  0.39600385  0.10904589  0.31880293  1
  P  P7  1  0.60399615  0.60904589  0.18119707  1
  P  P8  1  0.39095411  0.68119707  0.89600385  1
  P  P9  1  0.89095411  0.81880293  0.10399615  1
  P  P10  1  0.10904589  0.31880293  0.39600385  1
  P  P11  1  0.60904589  0.18119707  0.60399615  1
  P  P12  1  0.06880293  0.35904589  0.85399615  1
  P  P13  1  0.93119707  0.85904589  0.64600385  1
  P  P14  1  0.43119707  0.64095411  0.35399615  1
  P  P15  1  0.56880293  0.14095411  0.14600385  1
  P  P16  1  0.85399615  0.06880293  0.35904589  1
  P  P17  1  0.64600385  0.93119707  0.85904589  1
  P  P18  1  0.35399615  0.43119707  0.64095411  1
  P  P19  1  0.14600385  0.56880293  0.14095411  1
  P  P20  1  0.35904589  0.85399615  0.06880293  1
  P  P21  1  0.85904589  0.64600385  0.93119707  1
  P  P22  1  0.64095411  0.35399615  0.43119707  1
  P  P23  1  0.14095411  0.14600385  0.56880293  1
  P  P24  1  0.23209431  0.76790569  0.26790569  1
  P  P25  1  0.26790569  0.23209431  0.76790569  1
  P  P26  1  0.76790569  0.26790569  0.23209431  1
  P  P27  1  0.73209431  0.73209431  0.73209431  1
  P  P28  1  0.51790569  0.48209431  0.98209431  1
  P  P29  1  0.48209431  0.98209431  0.51790569  1
  P  P30  1  0.98209431  0.51790569  0.48209431  1
  P  P31  1  0.01790569  0.01790569  0.01790569  1
  O  O0  1  0.61370119  0.87085928  0.29031331  1
  O  O1  1  0.88629881  0.12914072  0.79031331  1
  O  O2  1  0.38629881  0.37085928  0.20968669  1
  O  O3  1  0.11370119  0.62914072  0.70968669  1
  O  O4  1  0.87085928  0.29031331  0.61370119  1
  O  O5  1  0.12914072  0.79031331  0.88629881  1
  O  O6  1  0.37085928  0.20968669  0.38629881  1
  O  O7  1  0.62914072  0.70968669  0.11370119  1
  O  O8  1  0.29031331  0.61370119  0.87085928  1
  O  O9  1  0.79031331  0.88629881  0.12914072  1
  O  O10  1  0.20968669  0.38629881  0.37085928  1
  O  O11  1  0.70968669  0.11370119  0.62914072  1
  O  O12  1  0.13629881  0.45968669  0.87914072  1
  O  O13  1  0.86370119  0.95968669  0.62085928  1
  O  O14  1  0.36370119  0.54031331  0.37914072  1
  O  O15  1  0.63629881  0.04031331  0.12085928  1
  O  O16  1  0.87914072  0.13629881  0.45968669  1
  O  O17  1  0.62085928  0.86370119  0.95968669  1
  O  O18  1  0.37914072  0.36370119  0.54031331  1
  O  O19  1  0.12085928  0.63629881  0.04031331  1
  O  O20  1  0.45968669  0.87914072  0.13629881  1
  O  O21  1  0.95968669  0.62085928  0.86370119  1
  O  O22  1  0.54031331  0.37914072  0.36370119  1
  O  O23  1  0.04031331  0.12085928  0.63629881  1
  O  O24  1  0.84543369  0.75861578  0.67418478  1
  O  O25  1  0.65456631  0.24138422  0.17418478  1
  O  O26  1  0.15456631  0.25861578  0.82581522  1
  O  O27  1  0.34543369  0.74138422  0.32581522  1
  O  O28  1  0.75861578  0.67418478  0.84543369  1
  O  O29  1  0.24138422  0.17418478  0.65456631  1
  O  O30  1  0.25861578  0.82581522  0.15456631  1
  O  O31  1  0.74138422  0.32581522  0.34543369  1
  O  O32  1  0.67418478  0.84543369  0.75861578  1
  O  O33  1  0.17418478  0.65456631  0.24138422  1
  O  O34  1  0.82581522  0.15456631  0.25861578  1
  O  O35  1  0.32581522  0.34543369  0.74138422  1
  O  O36  1  0.90456631  0.07581522  0.99138422  1
  O  O37  1  0.09543369  0.57581522  0.50861578  1
  O  O38  1  0.59543369  0.92418478  0.49138422  1
  O  O39  1  0.40456631  0.42418478  0.00861578  1
  O  O40  1  0.99138422  0.90456631  0.07581522  1
  O  O41  1  0.50861578  0.09543369  0.57581522  1
  O  O42  1  0.49138422  0.59543369  0.92418478  1
  O  O43  1  0.00861578  0.40456631  0.42418478  1
  O  O44  1  0.07581522  0.99138422  0.90456631  1
  O  O45  1  0.57581522  0.50861578  0.09543369  1
  O  O46  1  0.92418478  0.49138422  0.59543369  1
  O  O47  1  0.42418478  0.00861578  0.40456631  1
  O  O48  1  0.73338758  0.01661242  0.37500000  1
  O  O49  1  0.76661242  0.98338758  0.87500000  1
  O  O50  1  0.26661242  0.51661242  0.12500000  1
  O  O51  1  0.23338758  0.48338758  0.62500000  1
  O  O52  1  0.01661242  0.37500000  0.73338758  1
  O  O53  1  0.98338758  0.87500000  0.76661242  1
  O  O54  1  0.51661242  0.12500000  0.26661242  1
  O  O55  1  0.48338758  0.62500000  0.23338758  1
  O  O56  1  0.37500000  0.73338758  0.01661242  1
  O  O57  1  0.87500000  0.76661242  0.98338758  1
  O  O58  1  0.12500000  0.26661242  0.51661242  1
  O  O59  1  0.62500000  0.23338758  0.48338758  1
  O  O60  1  0.01185434  0.81800189  0.56358597  1
  O  O61  1  0.48814566  0.18199811  0.06358597  1
  O  O62  1  0.98814566  0.31800189  0.93641403  1
  O  O63  1  0.51185434  0.68199811  0.43641403  1
  O  O64  1  0.81800189  0.56358597  0.01185434  1
  O  O65  1  0.18199811  0.06358597  0.48814566  1
  O  O66  1  0.31800189  0.93641403  0.98814566  1
  O  O67  1  0.68199811  0.43641403  0.51185434  1
  O  O68  1  0.56358597  0.01185434  0.81800189  1
  O  O69  1  0.06358597  0.48814566  0.18199811  1
  O  O70  1  0.93641403  0.98814566  0.31800189  1
  O  O71  1  0.43641403  0.51185434  0.68199811  1
  O  O72  1  0.73814566  0.18641403  0.93199811  1
  O  O73  1  0.26185434  0.68641403  0.56800189  1
  O  O74  1  0.76185434  0.81358597  0.43199811  1
  O  O75  1  0.23814566  0.31358597  0.06800189  1
  O  O76  1  0.93199811  0.73814566  0.18641403  1
  O  O77  1  0.56800189  0.26185434  0.68641403  1
  O  O78  1  0.43199811  0.76185434  0.81358597  1
  O  O79  1  0.06800189  0.23814566  0.31358597  1
  O  O80  1  0.18641403  0.93199811  0.73814566  1
  O  O81  1  0.68641403  0.56800189  0.26185434  1
  O  O82  1  0.81358597  0.43199811  0.76185434  1
  O  O83  1  0.31358597  0.06800189  0.23814566  1
  O  O84  1  0.16161184  0.83838816  0.33838816  1
  O  O85  1  0.33838816  0.16161184  0.83838816  1
  O  O86  1  0.83838816  0.33838816  0.16161184  1
  O  O87  1  0.66161184  0.66161184  0.66161184  1
  O  O88  1  0.58838816  0.41161184  0.91161184  1
  O  O89  1  0.41161184  0.91161184  0.58838816  1
  O  O90  1  0.91161184  0.58838816  0.41161184  1
  O  O91  1  0.08838816  0.08838816  0.08838816  1
loop_
_geom_bond_atom_site_label_1
_geom_bond_atom_site_label_2
_geom_bond_distance
_geom_bond_site_symmetry_2
Na0 O60 2.403970 1_655
Na0 O76 2.403970 1_555
Na0 O74 2.475240 1_555
Na0 O70 2.475240 1_555
Na0 O90 2.586169 1_555
Na0 O84 2.586169 1_655
Na1 O77 2.403970 1_555
Na1 O61 2.403970 1_556
Na1 O68 2.475240 1_555
Na1 O72 2.475240 1_555
Na1 O88 2.586169 1_555
Na1 O85 2.586169 1_555
Na2 O62 2.403970 1_454
Na2 O79 2.403970 1_555
Na2 O69 2.475240 1_555
Na2 O75 2.475240 1_555
Na2 O86 2.586169 1_455
Na2 O91 2.586169 1_555
Na3 O63 2.403970 1_555
Na3 O78 2.403970 1_555
Na3 O73 2.475240 1_555
Na3 O71 2.475240 1_555
Na3 O87 2.586169 1_555
Na3 O89 2.586169 1_555
Na4 O72 2.403970 1_555
Na4 O64 2.403970 1_556
Na4 O62 2.475240 1_555
Na4 O82 2.475240 1_555
Na4 O86 2.586169 1_556
Na4 O88 2.586169 1_555
Na5 O73 2.403970 1_555
Na5 O65 2.403970 1_565
Na5 O60 2.475240 1_555
Na5 O80 2.475240 1_555
Na5 O89 2.586169 1_555
Na5 O84 2.586169 1_555
Na6 O75 2.403970 1_555
Na6 O66 2.403970 1_544
Na6 O61 2.475240 1_555
Na6 O83 2.475240 1_555
Na6 O85 2.586169 1_554
Na6 O91 2.586169 1_555
Na7 O74 2.403970 1_555
Na7 O67 2.403970 1_555
Na7 O81 2.475240 1_555
Na7 O63 2.475240 1_555
Na7 O87 2.586169 1_555
Na7 O90 2.586169 1_555
Na8 O80 2.403970 1_555
Na8 O68 2.403970 1_565
Na8 O66 2.475240 1_555
Na8 O78 2.475240 1_555
Na8 O89 2.586169 1_555
Na8 O85 2.586169 1_565
Na9 O81 2.403970 1_555
Na9 O69 2.403970 1_655
Na9 O64 2.475240 1_555
Na9 O76 2.475240 1_555
Na9 O86 2.586169 1_555
Na9 O90 2.586169 1_555
Na10 O70 2.403970 1_445
Na10 O83 2.403970 1_555
Na10 O65 2.475240 1_555
Na10 O79 2.475240 1_555
Na10 O84 2.586169 1_545
Na10 O91 2.586169 1_555
Na11 O71 2.403970 1_555
Na11 O82 2.403970 1_555
Na11 O77 2.475240 1_555
Na11 O67 2.475240 1_555
Na11 O87 2.586169 1_555
Na11 O88 2.586169 1_555
Fe0 O23 2.011940 1_655
Fe0 O4 2.011940 1_555
Fe0 O16 2.011940 1_555
Fe0 O13 2.011940 1_545
Fe0 O11 2.011940 1_555
Fe0 O1 2.011940 1_555
Fe1 O15 2.011940 1_565
Fe1 O20 2.011940 1_555
Fe1 O0 2.011940 1_555
Fe1 O9 2.011940 1_555
Fe1 O7 2.011940 1_555
Fe1 O17 2.011940 1_554
Fe2 O19 2.011940 1_556
Fe2 O8 2.011940 1_555
Fe2 O12 2.011940 1_555
Fe2 O3 2.011940 1_555
Fe2 O5 2.011940 1_555
Fe2 O21 2.011940 1_455
Fe3 O6 2.011940 1_555
Fe3 O2 2.011940 1_555
Fe3 O10 2.011940 1_555
Fe3 O22 2.011940 1_555
Fe3 O14 2.011940 1_555
Fe3 O18 2.011940 1_555
O0 P0 1.502241 1_555
O1 P1 1.502241 1_555
O2 P2 1.502241 1_555
O3 P3 1.502241 1_555
O4 P4 1.502241 1_555
O5 P5 1.502241 1_555
O6 P6 1.502241 1_555
O7 P7 1.502241 1_555
O8 P8 1.502241 1_555
O9 P9 1.502241 1_555
O10 P10 1.502241 1_555
O11 P11 1.502241 1_555
O12 P12 1.502241 1_555
O13 P13 1.502241 1_555
O14 P14 1.502241 1_555
O15 P15 1.502241 1_555
O16 P16 1.502241 1_555
O17 P17 1.502241 1_555
O18 P18 1.502241 1_555
O19 P19 1.502241 1_555
O20 P20 1.502241 1_555
O21 P21 1.502241 1_555
O22 P22 1.502241 1_555
O23 P23 1.502241 1_555
O24 P27 1.578112 1_555
O24 P13 1.639159 1_555
O25 P26 1.578112 1_555
O25 P15 1.639159 1_555
O26 P25 1.578112 1_555
O26 P12 1.639159 1_555
O27 P24 1.578112 1_555
O27 P14 1.639159 1_555
O28 P27 1.578112 1_555
O28 P21 1.639159 1_555
O29 P25 1.578112 1_555
O29 P23 1.639159 1_555
O30 P24 1.578112 1_555
O30 P20 1.639159 1_555
O31 P26 1.578112 1_555
O31 P22 1.639159 1_555
O32 P27 1.578112 1_555
O32 P17 1.639159 1_555
O33 P24 1.578112 1_555
O33 P19 1.639159 1_555
O34 P26 1.578112 1_555
O34 P16 1.639159 1_555
O35 P25 1.578112 1_555
O35 P18 1.639159 1_555
O36 P31 1.578112 1_656
O36 P1 1.639159 1_555
O37 P30 1.578112 1_455
O37 P3 1.639159 1_555
O38 P29 1.578112 1_555
O38 P0 1.639159 1_555
O39 P28 1.578112 1_554
O39 P2 1.639159 1_555
O40 P31 1.578112 1_665
O40 P9 1.639159 1_555
O41 P29 1.578112 1_545
O41 P11 1.639159 1_555
O42 P28 1.578112 1_555
O42 P8 1.639159 1_555
O43 P30 1.578112 1_455
O43 P10 1.639159 1_555
O44 P31 1.578112 1_566
O44 P5 1.639159 1_555
O45 P28 1.578112 1_554
O45 P7 1.639159 1_555
O46 P30 1.578112 1_555
O46 P4 1.639159 1_555
O47 P29 1.578112 1_545
O47 P6 1.639159 1_555
O48 P16 1.606890 1_555
O48 P0 1.606890 1_545
O49 P17 1.606890 1_555
O49 P1 1.606890 1_565
O50 P2 1.606890 1_555
O50 P19 1.606890 1_555
O51 P3 1.606890 1_555
O51 P18 1.606890 1_555
O52 P12 1.606890 1_555
O52 P4 1.606890 1_455
O53 P5 1.606890 1_655
O53 P13 1.606890 1_555
O54 P6 1.606890 1_555
O54 P15 1.606890 1_555
O55 P7 1.606890 1_555
O55 P14 1.606890 1_555
O56 P20 1.606890 1_555
O56 P8 1.606890 1_554
O57 P21 1.606890 1_555
O57 P9 1.606890 1_556
O58 P10 1.606890 1_555
O58 P23 1.606890 1_555
O59 P11 1.606890 1_555
O59 P22 1.606890 1_555
O60 P13 1.485791 1_455
O61 P15 1.485791 1_555
O62 P12 1.485791 1_655
O63 P14 1.485791 1_555
O64 P21 1.485791 1_554
O65 P23 1.485791 1_555
O66 P20 1.485791 1_556
O67 P22 1.485791 1_555
O68 P17 1.485791 1_545
O69 P19 1.485791 1_555
O70 P16 1.485791 1_565
O71 P18 1.485791 1_555
O72 P1 1.485791 1_555
O73 P3 1.485791 1_555
O74 P0 1.485791 1_555
O75 P2 1.485791 1_555
O76 P9 1.485791 1_555
O77 P11 1.485791 1_555
O78 P8 1.485791 1_555
O79 P10 1.485791 1_555
O80 P5 1.485791 1_555
O81 P7 1.485791 1_555
O82 P4 1.485791 1_555
O83 P6 1.485791 1_555
O84 P24 1.481840 1_555
O85 P25 1.481840 1_555
O86 P26 1.481840 1_555
O87 P27 1.481840 1_555
O88 P28 1.481840 1_555
O89 P29 1.481840 1_555
O90 P30 1.481840 1_555
O91 P31 1.481840 1_555
