# generated using pymatgen
data_Tm2Mn17C3
_symmetry_space_group_name_H-M   'P 1'
_cell_length_a   8.46662359
_cell_length_b   8.46662359
_cell_length_c   8.24626600
_cell_angle_alpha   90.00000000
_cell_angle_beta   90.00000000
_cell_angle_gamma   119.99999683
_symmetry_Int_Tables_number   1
_chemical_formula_structural   Tm2Mn17C3
_chemical_formula_sum   'Tm4 Mn34 C6'
_cell_volume   511.92753595
_cell_formula_units_Z   2
loop_
 _symmetry_equiv_pos_site_id
 _symmetry_equiv_pos_as_xyz
  1  'x, y, z'
loop_
 _atom_site_type_symbol
 _atom_site_label
 _atom_site_symmetry_multiplicity
 _atom_site_fract_x
 _atom_site_fract_y
 _atom_site_fract_z
 _atom_site_occupancy
  Tm  Tm0  1  0.33333300  0.66666700  0.25000000  1
  Tm  Tm1  1  0.66666700  0.33333300  0.75000000  1
  Tm  Tm2  1  0.00000000  0.00000000  0.25000000  1
  Tm  Tm3  1  0.00000000  0.00000000  0.75000000  1
  Mn  Mn0  1  0.38858800  0.05927600  0.25000000  1
  Mn  Mn1  1  0.61141200  0.94072400  0.75000000  1
  Mn  Mn2  1  0.94072400  0.32931100  0.25000000  1
  Mn  Mn3  1  0.05927600  0.38858800  0.75000000  1
  Mn  Mn4  1  0.05927600  0.67068900  0.75000000  1
  Mn  Mn5  1  0.94072400  0.61141200  0.25000000  1
  Mn  Mn6  1  0.67068900  0.61141200  0.25000000  1
  Mn  Mn7  1  0.32931100  0.94072400  0.75000000  1
  Mn  Mn8  1  0.32931100  0.38858800  0.75000000  1
  Mn  Mn9  1  0.67068900  0.05927600  0.25000000  1
  Mn  Mn10  1  0.61141200  0.67068900  0.75000000  1
  Mn  Mn11  1  0.38858800  0.32931100  0.25000000  1
  Mn  Mn12  1  0.33333300  0.66666700  0.60630600  1
  Mn  Mn13  1  0.66666700  0.33333300  0.39369400  1
  Mn  Mn14  1  0.66666700  0.33333300  0.10630600  1
  Mn  Mn15  1  0.33333300  0.66666700  0.89369400  1
  Mn  Mn16  1  0.17028800  0.34057600  0.02498300  1
  Mn  Mn17  1  0.82971200  0.65942400  0.97501700  1
  Mn  Mn18  1  0.65942400  0.82971200  0.02498300  1
  Mn  Mn19  1  0.82971200  0.65942400  0.52498300  1
  Mn  Mn20  1  0.34057600  0.17028800  0.97501700  1
  Mn  Mn21  1  0.17028800  0.34057600  0.47501700  1
  Mn  Mn22  1  0.17028800  0.82971200  0.02498300  1
  Mn  Mn23  1  0.34057600  0.17028800  0.52498300  1
  Mn  Mn24  1  0.82971200  0.17028800  0.97501700  1
  Mn  Mn25  1  0.65942400  0.82971200  0.47501700  1
  Mn  Mn26  1  0.82971200  0.17028800  0.52498300  1
  Mn  Mn27  1  0.17028800  0.82971200  0.47501700  1
  Mn  Mn28  1  0.50000000  0.00000000  0.00000000  1
  Mn  Mn29  1  0.00000000  0.50000000  0.00000000  1
  Mn  Mn30  1  0.50000000  0.00000000  0.50000000  1
  Mn  Mn31  1  0.50000000  0.50000000  0.00000000  1
  Mn  Mn32  1  0.00000000  0.50000000  0.50000000  1
  Mn  Mn33  1  0.50000000  0.50000000  0.50000000  1
  C  C0  1  0.16450900  0.32901900  0.25000000  1
  C  C1  1  0.83549100  0.67098100  0.75000000  1
  C  C2  1  0.67098100  0.83549100  0.25000000  1
  C  C3  1  0.32901900  0.16450900  0.75000000  1
  C  C4  1  0.16450900  0.83549100  0.25000000  1
  C  C5  1  0.83549100  0.16450900  0.75000000  1
loop_
_geom_bond_atom_site_label_1
_geom_bond_atom_site_label_2
_geom_bond_distance
_geom_bond_site_symmetry_2
Mn0 Mn30 2.421800 1_555
Mn0 Mn28 2.421800 1_555
Mn0 Mn13 2.620729 1_555
Mn0 Mn14 2.620729 1_555
Mn1 Mn30 2.421800 1_565
Mn1 Mn28 2.421800 1_566
Mn1 Mn15 2.620729 1_555
Mn1 Mn12 2.620729 1_555
Mn2 Mn32 2.421804 1_655
Mn2 Mn29 2.421804 1_655
Mn3 Mn32 2.421800 1_555
Mn10 Mn33 2.421803 1_555
Mn10 Mn31 2.421803 1_556
Mn10 Mn15 2.620729 1_555
Mn10 Mn12 2.620729 1_555
Mn11 Mn33 2.421803 1_555
Mn11 Mn31 2.421803 1_555
Mn11 Mn13 2.620729 1_555
Mn11 Mn14 2.620729 1_555
Mn12 Mn15 2.369878 1_555
Mn12 Mn32 2.596557 1_555
Mn12 Mn30 2.596557 1_565
Mn12 Mn33 2.596564 1_555
Mn12 Mn7 2.620729 1_555
Mn12 Mn4 2.620729 1_555
Mn12 Mn8 2.620729 1_555
Mn12 Mn3 2.620729 1_555
Mn12 Mn27 2.624684 1_555
Mn12 Mn21 2.624691 1_555
Mn12 Mn25 2.624691 1_555
Mn12 Tm0 2.938194 1_555
Mn13 Mn14 2.369878 1_555
Mn13 Mn32 2.596557 1_655
Mn13 Mn30 2.596557 1_555
Mn13 Mn33 2.596564 1_555
Mn13 Mn2 2.620729 1_555
Mn13 Mn9 2.620729 1_555
Mn13 Mn6 2.620729 1_555
Mn13 Mn5 2.620729 1_555
Mn13 Mn26 2.624684 1_555
Mn13 Mn19 2.624691 1_555
Mn13 Mn23 2.624691 1_555
Mn13 Tm1 2.938194 1_555
Mn14 Mn28 2.596557 1_555
Mn14 Mn29 2.596557 1_655
Mn14 Mn31 2.596564 1_555
Mn14 Mn2 2.620729 1_555
Mn14 Mn9 2.620729 1_555
Mn14 Mn6 2.620729 1_555
Mn14 Mn5 2.620729 1_555
Mn14 Mn24 2.624684 1_554
Mn14 Mn20 2.624691 1_554
Mn14 Mn17 2.624691 1_554
Mn14 Tm1 2.938194 1_554
Mn15 Mn29 2.596557 1_556
Mn15 Mn28 2.596557 1_566
Mn15 Mn31 2.596564 1_556
Mn15 Mn7 2.620729 1_555
Mn15 Mn4 2.620729 1_555
Mn15 Mn8 2.620729 1_555
Mn15 Mn3 2.620729 1_555
Mn15 Mn22 2.624684 1_556
Mn15 Mn16 2.624691 1_556
Mn15 Mn18 2.624691 1_556
Mn15 Tm0 2.938194 1_556
Mn16 Mn29 2.426749 1_555
Mn16 Mn31 2.426749 1_555
Mn17 Mn29 2.426749 1_656
Mn17 Mn31 2.426749 1_556
Mn18 Mn28 2.426749 1_565
Mn18 Mn31 2.426749 1_555
Mn19 Mn32 2.426749 1_655
Mn19 Mn33 2.426749 1_555
Mn20 Mn28 2.426749 1_556
Mn20 Mn31 2.426749 1_556
Mn21 Mn32 2.426749 1_555
Mn21 Mn33 2.426749 1_555
Mn22 Mn29 2.426749 1_555
Mn22 Mn28 2.426749 1_565
Mn23 Mn30 2.426749 1_555
Mn23 Mn33 2.426749 1_555
Mn24 Mn28 2.426749 1_556
Mn24 Mn29 2.426749 1_656
Mn25 Mn30 2.426749 1_565
Mn25 Mn33 2.426749 1_555
Mn26 Mn32 2.426749 1_655
Mn26 Mn30 2.426749 1_555
Mn27 Mn32 2.426749 1_555
Mn27 Mn30 2.426749 1_565
Mn28 Mn9 2.421804 1_555
Mn28 Mn7 2.421804 1_544
Mn28 Tm0 3.197450 1_545
Mn28 Tm1 3.197450 1_554
Mn29 Mn3 2.421800 1_554
Mn29 Mn5 2.421800 1_455
Mn29 Mn4 2.421804 1_554
Mn29 Tm1 3.197450 1_454
Mn29 Tm0 3.197450 1_555
Mn30 Mn9 2.421804 1_555
Mn30 Mn7 2.421804 1_545
Mn30 Tm0 3.197450 1_545
Mn30 Tm1 3.197450 1_555
Mn31 Mn6 2.421803 1_555
Mn31 Mn8 2.421803 1_554
Mn31 Tm0 3.197456 1_555
Mn31 Tm1 3.197456 1_554
Mn32 Mn5 2.421800 1_455
Mn32 Mn4 2.421804 1_555
Mn32 Tm0 3.197450 1_555
Mn32 Tm1 3.197450 1_455
Mn33 Mn6 2.421803 1_555
Mn33 Mn8 2.421803 1_555
Mn33 Tm0 3.197456 1_555
Mn33 Tm1 3.197456 1_555
C0 Mn21 1.857484 1_555
C0 Mn16 1.857484 1_555
C0 Mn2 1.895941 1_455
C0 Mn11 1.895958 1_555
C0 Tm2 2.412470 1_555
C0 Tm0 2.475740 1_555
C1 Mn17 1.857484 1_555
C1 Mn19 1.857484 1_555
C1 Mn4 1.895941 1_655
C1 Mn10 1.895958 1_555
C1 Tm3 2.412470 1_665
C1 Tm1 2.475740 1_555
C2 Mn25 1.857484 1_555
C2 Mn18 1.857484 1_555
C2 Mn9 1.895941 1_565
C2 Mn6 1.895958 1_555
C2 Tm2 2.412470 1_665
C2 Tm0 2.475740 1_555
C3 Mn20 1.857484 1_555
C3 Mn23 1.857484 1_555
C3 Mn7 1.895941 1_545
C3 Mn8 1.895958 1_555
C3 Tm3 2.412470 1_555
C3 Tm1 2.475740 1_555
C4 Mn27 1.857484 1_555
C4 Mn22 1.857484 1_555
C4 Mn0 1.895949 1_565
C4 Mn5 1.895949 1_455
C4 Tm2 2.412462 1_565
C4 Tm0 2.475740 1_555
C5 Mn24 1.857484 1_555
C5 Mn26 1.857484 1_555
C5 Mn3 1.895949 1_655
C5 Mn1 1.895949 1_545
C5 Tm3 2.412462 1_655
C5 Tm1 2.475740 1_555
