# generated using pymatgen
data_CeVO4
_symmetry_space_group_name_H-M   'P 1'
_cell_length_a   6.12411865
_cell_length_b   6.12411865
_cell_length_c   6.12411865
_cell_angle_alpha   106.54531744
_cell_angle_beta   106.54531744
_cell_angle_gamma   115.49629645
_symmetry_Int_Tables_number   1
_chemical_formula_structural   CeVO4
_chemical_formula_sum   'Ce2 V2 O8'
_cell_volume   175.32917394
_cell_formula_units_Z   2
loop_
 _symmetry_equiv_pos_site_id
 _symmetry_equiv_pos_as_xyz
  1  'x, y, z'
loop_
 _atom_site_type_symbol
 _atom_site_label
 _atom_site_symmetry_multiplicity
 _atom_site_fract_x
 _atom_site_fract_y
 _atom_site_fract_z
 _atom_site_occupancy
  Ce  Ce0  1  0.25000000  0.75000000  0.50000000  1
  Ce  Ce1  1  0.00000000  0.00000000  0.00000000  1
  V  V0  1  0.50000000  0.50000000  0.00000000  1
  V  V1  1  0.75000000  0.25000000  0.50000000  1
  O  O0  1  0.32123500  0.50301500  0.18178100  1
  O  O1  1  0.32123500  0.13945400  0.81821900  1
  O  O2  1  0.49698500  0.67876500  0.81821900  1
  O  O3  1  0.92876500  0.61054600  0.68178100  1
  O  O4  1  0.92876500  0.24698500  0.31821900  1
  O  O5  1  0.86054600  0.67876500  0.18178100  1
  O  O6  1  0.38945400  0.07123500  0.31821900  1
  O  O7  1  0.75301500  0.07123500  0.68178100  1
loop_
_geom_bond_atom_site_label_1
_geom_bond_atom_site_label_2
_geom_bond_distance
_geom_bond_site_symmetry_2
Ce0 O1 2.376858 1_565
Ce0 O5 2.376858 1_455
Ce0 O2 2.376861 1_555
Ce0 O0 2.376861 1_555
Ce0 O7 2.486219 1_565
Ce0 O4 2.486219 1_455
Ce0 O6 2.486224 1_565
Ce0 O3 2.486224 1_455
Ce1 O6 2.376858 1_555
Ce1 O3 2.376858 1_444
Ce1 O7 2.376861 1_454
Ce1 O4 2.376861 1_455
Ce1 O0 2.486219 1_555
Ce1 O2 2.486219 1_444
Ce1 O5 2.486224 1_445
Ce1 O1 2.486224 1_554
O0 V0 1.771451 1_555
O1 V0 1.771452 1_556
O2 V0 1.771451 1_556
O3 V1 1.771452 1_555
O4 V1 1.771451 1_555
O5 V0 1.771452 1_555
O6 V1 1.771452 1_555
O7 V1 1.771451 1_555
