# generated using pymatgen
data_K2Al2(SiO4)3
_symmetry_space_group_name_H-M   'P 1'
_cell_length_a   6.75739200
_cell_length_b   10.05939761
_cell_length_c   10.17876549
_cell_angle_alpha   83.57187291
_cell_angle_beta   70.66325381
_cell_angle_gamma   70.46102183
_symmetry_Int_Tables_number   1
_chemical_formula_structural   K2Al2(SiO4)3
_chemical_formula_sum   'K4 Al4 Si6 O24'
_cell_volume   615.27656839
_cell_formula_units_Z   2
loop_
 _symmetry_equiv_pos_site_id
 _symmetry_equiv_pos_as_xyz
  1  'x, y, z'
loop_
 _atom_site_type_symbol
 _atom_site_label
 _atom_site_symmetry_multiplicity
 _atom_site_fract_x
 _atom_site_fract_y
 _atom_site_fract_z
 _atom_site_occupancy
  K  K0  1  0.88809100  0.96832900  0.53604200  1
  K  K1  1  0.39629500  0.03190300  0.46311500  1
  K  K2  1  0.60300900  0.53402300  0.03417000  1
  K  K3  1  0.17173800  0.46776800  0.96572200  1
  Al  Al0  1  0.33526700  0.91519100  0.17848800  1
  Al  Al1  1  0.42770400  0.08624400  0.82313800  1
  Al  Al2  1  0.99986400  0.58650500  0.67902700  1
  Al  Al3  1  0.26186700  0.41555500  0.32330300  1
  Si  Si0  1  0.74108200  0.50052100  0.50110200  1
  Si  Si1  1  0.98983200  0.00207300  0.00166700  1
  Si  Si2  1  0.75698000  0.82119100  0.91062000  1
  Si  Si3  1  0.48760100  0.18136200  0.09094300  1
  Si  Si4  1  0.32721200  0.68073200  0.41072400  1
  Si  Si5  1  0.41737100  0.32054900  0.59104900  1
  O  O0  1  0.79183100  0.55898400  0.62630600  1
  O  O1  1  0.97473200  0.44219900  0.37610700  1
  O  O2  1  0.09970100  0.94253600  0.12661500  1
  O  O3  1  0.16569200  0.06052800  0.87699700  1
  O  O4  1  0.29317500  0.84081900  0.34674800  1
  O  O5  1  0.47749700  0.16053500  0.65478700  1
  O  O6  1  0.88351600  0.66113200  0.84711300  1
  O  O7  1  0.38630700  0.34146600  0.15496300  1
  O  O8  1  0.56800300  0.80759300  0.05617000  1
  O  O9  1  0.43418100  0.19412800  0.94454800  1
  O  O10  1  0.12416600  0.69433300  0.55536400  1
  O  O11  1  0.37590800  0.30732800  0.44452100  1
  O  O12  1  0.37674500  0.07456500  0.20000500  1
  O  O13  1  0.64909700  0.92649900  0.80073200  1
  O  O14  1  0.20002900  0.42674300  0.70003300  1
  O  O15  1  0.32638200  0.57462100  0.30070600  1
  O  O16  1  0.63474500  0.37320100  0.56258700  1
  O  O17  1  0.56720300  0.62777000  0.44072700  1
  O  O18  1  0.75656400  0.12950300  0.06369000  1
  O  O19  1  0.94229200  0.87586900  0.94044100  1
  O  O20  1  0.85478200  0.83957400  0.28891500  1
  O  O21  1  0.98049900  0.16647700  0.71146200  1
  O  O22  1  0.44663200  0.65342800  0.78709500  1
  O  O23  1  0.88908500  0.33274100  0.20786200  1
loop_
_geom_bond_atom_site_label_1
_geom_bond_atom_site_label_2
_geom_bond_distance
_geom_bond_site_symmetry_2
K0 O10 2.706598 1_655
K0 O13 2.713532 1_555
K0 O4 2.750030 1_655
K0 O5 2.758888 1_565
K0 O20 3.058617 1_555
K0 O21 3.149450 1_565
K1 O12 2.704267 1_555
K1 O11 2.715809 1_555
K1 O5 2.744249 1_555
K1 O4 2.745119 1_545
K1 O20 3.099443 1_545
K1 O21 3.104120 1_455
K2 O8 2.710499 1_555
K2 O15 2.720366 1_555
K2 O6 2.745737 1_554
K2 O7 2.753127 1_555
K2 O22 3.019718 1_554
K2 O23 3.131461 1_555
K3 O14 2.715752 1_555
K3 O9 2.717171 1_555
K3 O7 2.737933 1_556
K3 O6 2.744382 1_455
K3 O23 3.071796 1_456
K3 O22 3.093217 1_555
Al0 O8 1.749696 1_555
Al0 O4 1.762586 1_555
Al0 O12 1.765401 1_565
Al0 O2 1.766213 1_555
Al1 O9 1.753506 1_555
Al1 O5 1.762885 1_555
Al1 O13 1.766480 1_545
Al1 O3 1.770314 1_555
Al2 O10 1.752147 1_655
Al2 O6 1.763771 1_555
Al2 O14 1.765951 1_655
Al2 O0 1.770296 1_555
Al3 O11 1.751917 1_555
Al3 O7 1.763850 1_555
Al3 O1 1.766126 1_455
Al3 O15 1.766662 1_555
O0 Si0 1.636999 1_555
O1 Si0 1.634929 1_555
O2 Si1 1.638517 1_465
O3 Si1 1.633999 1_456
O4 Si4 1.639177 1_555
O5 Si5 1.637137 1_555
O6 Si2 1.639367 1_555
O7 Si3 1.639895 1_555
O8 Si2 1.631839 1_554
O9 Si3 1.627766 1_556
O10 Si4 1.628068 1_555
O11 Si5 1.633023 1_555
O12 Si3 1.633465 1_555
O13 Si2 1.631827 1_555
O14 Si5 1.632699 1_555
O15 Si4 1.633792 1_555
O16 Si0 1.639103 1_555
O16 Si5 1.651149 1_555
O17 Si0 1.640960 1_555
O17 Si4 1.649450 1_555
O18 Si1 1.642268 1_555
O18 Si3 1.648234 1_555
O19 Si1 1.638854 1_566
O19 Si2 1.646981 1_555
