# generated using pymatgen
data_Pr(NO5)3
_symmetry_space_group_name_H-M   'P 1'
_cell_length_a   6.74035700
_cell_length_b   8.97675635
_cell_length_c   13.31900633
_cell_angle_alpha   107.61469222
_cell_angle_beta   87.37484669
_cell_angle_gamma   106.64650184
_symmetry_Int_Tables_number   1
_chemical_formula_structural   Pr(NO5)3
_chemical_formula_sum   'Pr2 N6 O30'
_cell_volume   735.17259626
_cell_formula_units_Z   2
loop_
 _symmetry_equiv_pos_site_id
 _symmetry_equiv_pos_as_xyz
  1  'x, y, z'
loop_
 _atom_site_type_symbol
 _atom_site_label
 _atom_site_symmetry_multiplicity
 _atom_site_fract_x
 _atom_site_fract_y
 _atom_site_fract_z
 _atom_site_occupancy
  Pr  Pr0  1  0.09136300  0.91371000  0.26719300  1
  Pr  Pr1  1  0.90863700  0.08629000  0.73280700  1
  N  N0  1  0.75656900  0.67701500  0.33121100  1
  N  N1  1  0.24343100  0.32298500  0.66878900  1
  N  N2  1  0.04546100  0.23955500  0.32473300  1
  N  N3  1  0.95453900  0.76044500  0.67526700  1
  N  N4  1  0.07679200  0.97880300  0.99935300  1
  N  N5  1  0.92320800  0.02119700  0.00064700  1
  O  O0  1  0.76837800  0.83176900  0.35566900  1
  O  O1  1  0.23162200  0.16823100  0.64433100  1
  O  O2  1  0.90612600  0.63553100  0.27492900  1
  O  O3  1  0.09387400  0.36446900  0.72507100  1
  O  O4  1  0.61630100  0.57985400  0.35866600  1
  O  O5  1  0.38369900  0.42014600  0.64133400  1
  O  O6  1  0.03871700  0.14667300  0.22642800  1
  O  O7  1  0.96128300  0.85332700  0.77357200  1
  O  O8  1  0.07921900  0.17465300  0.39481600  1
  O  O9  1  0.92078100  0.82534700  0.60518400  1
  O  O10  1  0.02189100  0.37444100  0.34679600  1
  O  O11  1  0.97810900  0.62555900  0.65320400  1
  O  O12  1  0.77603100  0.75147000  0.09405100  1
  O  O13  1  0.22396900  0.24853000  0.90594900  1
  O  O14  1  0.86686000  0.64958600  0.04628400  1
  O  O15  1  0.13314000  0.35041400  0.95371600  1
  O  O16  1  0.47481700  0.58127800  0.86788800  1
  O  O17  1  0.52518300  0.41872200  0.13211200  1
  O  O18  1  0.46170100  0.99658100  0.27167300  1
  O  O19  1  0.53829900  0.00341900  0.72832700  1
  O  O20  1  0.28605800  0.87418900  0.43899500  1
  O  O21  1  0.71394200  0.12581100  0.56100500  1
  O  O22  1  0.19658000  0.94832500  0.05105000  1
  O  O23  1  0.80342000  0.05167500  0.94895000  1
  O  O24  1  0.40304100  0.84221500  0.20865300  1
  O  O25  1  0.59695900  0.15778500  0.79134700  1
  O  O26  1  0.61573300  0.32003500  0.13832800  1
  O  O27  1  0.38426700  0.67996500  0.86167200  1
  O  O28  1  0.34516000  0.79348600  0.48517100  1
  O  O29  1  0.65484000  0.20651400  0.51482900  1
loop_
_geom_bond_atom_site_label_1
_geom_bond_atom_site_label_2
_geom_bond_distance
_geom_bond_site_symmetry_2
N0 O4 1.215414 1_555
N0 O2 1.301426 1_555
N0 O0 1.306688 1_555
N1 O5 1.215414 1_555
N1 O3 1.301426 1_555
N1 O1 1.306688 1_555
N2 O10 1.211738 1_555
N2 O8 1.298869 1_555
N2 O6 1.317043 1_555
N3 O11 1.211738 1_555
N3 O9 1.298869 1_555
N3 O7 1.317043 1_555
N4 N5 1.198705 1_466
N4 O22 1.221630 1_556
N5 O23 1.221630 1_554
O0 Pr0 2.457912 1_655
O1 Pr1 2.457912 1_455
O2 Pr0 2.482516 1_655
O3 Pr1 2.482516 1_455
O6 Pr0 2.433941 1_545
O7 Pr1 2.433941 1_565
O8 Pr0 2.463794 1_545
O9 Pr1 2.463794 1_565
O12 O14 1.244590 1_555
O12 Pr0 2.932475 1_655
O13 O15 1.244590 1_555
O13 Pr1 2.932475 1_455
O16 O27 1.234085 1_555
O17 O26 1.234085 1_555
O18 O24 1.339251 1_555
O18 Pr0 2.389748 1_555
O19 O25 1.339251 1_555
O19 Pr1 2.389748 1_555
O20 O28 1.232569 1_555
O20 Pr0 2.849065 1_555
O21 O29 1.232569 1_555
O21 Pr1 2.849065 1_555
O22 Pr0 3.019136 1_555
O23 Pr1 3.019136 1_555
O24 Pr0 2.398509 1_555
O25 Pr1 2.398509 1_555
