# generated using pymatgen
data_Cs2SrV4O12
_symmetry_space_group_name_H-M   'P 1'
_cell_length_a   8.06972800
_cell_length_b   8.06972800
_cell_length_c   5.70798400
_cell_angle_alpha   90.00000000
_cell_angle_beta   90.00000000
_cell_angle_gamma   90.00000000
_symmetry_Int_Tables_number   1
_chemical_formula_structural   Cs2SrV4O12
_chemical_formula_sum   'Cs2 Sr1 V4 O12'
_cell_volume   371.70682912
_cell_formula_units_Z   1
loop_
 _symmetry_equiv_pos_site_id
 _symmetry_equiv_pos_as_xyz
  1  'x, y, z'
loop_
 _atom_site_type_symbol
 _atom_site_label
 _atom_site_symmetry_multiplicity
 _atom_site_fract_x
 _atom_site_fract_y
 _atom_site_fract_z
 _atom_site_occupancy
  Cs  Cs0  1  0.00000000  0.50000000  0.50000000  1
  Cs  Cs1  1  0.50000000  0.00000000  0.50000000  1
  Sr  Sr0  1  0.50000000  0.50000000  0.50000000  1
  V  V0  1  0.22240200  0.22240200  0.00000000  1
  V  V1  1  0.77759800  0.22240200  0.00000000  1
  V  V2  1  0.22240200  0.77759800  0.00000000  1
  V  V3  1  0.77759800  0.77759800  0.00000000  1
  O  O0  1  0.69393000  0.69393000  0.75841500  1
  O  O1  1  0.30607000  0.30607000  0.75841500  1
  O  O2  1  0.69393000  0.30607000  0.75841500  1
  O  O3  1  0.30607000  0.69393000  0.75841500  1
  O  O4  1  0.30607000  0.69393000  0.24158500  1
  O  O5  1  0.30607000  0.30607000  0.24158500  1
  O  O6  1  0.69393000  0.69393000  0.24158500  1
  O  O7  1  0.69393000  0.30607000  0.24158500  1
  O  O8  1  0.26201200  0.00000000  0.00000000  1
  O  O9  1  0.00000000  0.26201200  0.00000000  1
  O  O10  1  0.00000000  0.73798800  0.00000000  1
  O  O11  1  0.73798800  0.00000000  0.00000000  1
loop_
_geom_bond_atom_site_label_1
_geom_bond_atom_site_label_2
_geom_bond_distance
_geom_bond_site_symmetry_2
Cs0 O0 3.274940 1_455
Cs0 O7 3.274940 1_455
Cs0 O3 3.274940 1_555
Cs0 O1 3.274940 1_555
Cs0 O6 3.274940 1_455
Cs0 O2 3.274940 1_455
Cs0 O5 3.274940 1_555
Cs0 O4 3.274940 1_555
Cs0 O10 3.439998 1_556
Cs0 O10 3.439998 1_555
Cs0 O9 3.439998 1_555
Cs0 O9 3.439998 1_556
Cs1 O3 3.274940 1_545
Cs1 O2 3.274940 1_555
Cs1 O1 3.274940 1_555
Cs1 O6 3.274940 1_545
Cs1 O5 3.274940 1_555
Cs1 O0 3.274940 1_545
Cs1 O4 3.274940 1_545
Cs1 O7 3.274940 1_555
Cs1 O11 3.439998 1_556
Cs1 O11 3.439998 1_555
Cs1 O8 3.439998 1_555
Cs1 O8 3.439998 1_556
O0 V3 1.677281 1_556
O0 Sr0 2.659685 1_555
O1 V0 1.677281 1_556
O1 Sr0 2.659685 1_555
O2 V1 1.677281 1_556
O2 Sr0 2.659685 1_555
O3 V2 1.677281 1_556
O3 Sr0 2.659685 1_555
O4 V2 1.677281 1_555
O4 Sr0 2.659685 1_555
O5 V0 1.677281 1_555
O5 Sr0 2.659685 1_555
O6 V3 1.677281 1_555
O6 Sr0 2.659685 1_555
O7 V1 1.677281 1_555
O7 Sr0 2.659685 1_555
O8 V0 1.822966 1_555
O8 V2 1.822966 1_545
O9 V1 1.822966 1_455
O9 V0 1.822966 1_555
O10 V3 1.822966 1_455
O10 V2 1.822966 1_555
O11 V3 1.822966 1_545
O11 V1 1.822966 1_555
