# generated using pymatgen
data_Ce2(Al3Ir)3
_symmetry_space_group_name_H-M   'P 1'
_cell_length_a   7.58590449
_cell_length_b   7.58590449
_cell_length_c   9.39189108
_cell_angle_alpha   90.00000000
_cell_angle_beta   90.00000000
_cell_angle_gamma   119.59341633
_symmetry_Int_Tables_number   1
_chemical_formula_structural   Ce2(Al3Ir)3
_chemical_formula_sum   'Ce4 Al18 Ir6'
_cell_volume   469.96248093
_cell_formula_units_Z   2
loop_
 _symmetry_equiv_pos_site_id
 _symmetry_equiv_pos_as_xyz
  1  'x, y, z'
loop_
 _atom_site_type_symbol
 _atom_site_label
 _atom_site_symmetry_multiplicity
 _atom_site_fract_x
 _atom_site_fract_y
 _atom_site_fract_z
 _atom_site_occupancy
  Ce  Ce0  1  0.99618957  0.67061954  0.25000000  1
  Ce  Ce1  1  0.00381043  0.32938046  0.75000000  1
  Ce  Ce2  1  0.67061954  0.99618957  0.25000000  1
  Ce  Ce3  1  0.32938046  0.00381043  0.75000000  1
  Al  Al0  1  0.13019921  0.13019921  0.25000000  1
  Al  Al1  1  0.86980079  0.86980079  0.75000000  1
  Al  Al2  1  0.00336194  0.33531563  0.07452421  1
  Al  Al3  1  0.99663806  0.66468437  0.92547579  1
  Al  Al4  1  0.99663806  0.66468437  0.57452421  1
  Al  Al5  1  0.33531563  0.00336194  0.42547579  1
  Al  Al6  1  0.00336194  0.33531563  0.42547579  1
  Al  Al7  1  0.66468437  0.99663806  0.57452421  1
  Al  Al8  1  0.66468437  0.99663806  0.92547579  1
  Al  Al9  1  0.33531563  0.00336194  0.07452421  1
  Al  Al10  1  0.33486534  0.33486534  0.54901932  1
  Al  Al11  1  0.66513466  0.66513466  0.45098068  1
  Al  Al12  1  0.66513466  0.66513466  0.04901932  1
  Al  Al13  1  0.33486534  0.33486534  0.95098068  1
  Al  Al14  1  0.34205805  0.54805231  0.25000000  1
  Al  Al15  1  0.65794195  0.45194769  0.75000000  1
  Al  Al16  1  0.54805231  0.34205805  0.25000000  1
  Al  Al17  1  0.45194769  0.65794195  0.75000000  1
  Ir  Ir0  1  0.67236354  0.32763646  -0.00000000  1
  Ir  Ir1  1  0.32763646  0.67236354  -0.00000000  1
  Ir  Ir2  1  0.32763646  0.67236354  0.50000000  1
  Ir  Ir3  1  0.67236354  0.32763646  0.50000000  1
  Ir  Ir4  1  0.00000000  0.00000000  -0.00000000  1
  Ir  Ir5  1  0.00000000  0.00000000  0.50000000  1
loop_
_geom_bond_atom_site_label_1
_geom_bond_atom_site_label_2
_geom_bond_distance
_geom_bond_site_symmetry_2
Ce0 Ir4 3.418438 1_665
Ce0 Ir5 3.418438 1_665
Ce0 Ir1 3.435422 1_655
Ce0 Ir2 3.435422 1_655
Ce0 Ir3 3.464716 1_555
Ce0 Ir0 3.464716 1_555
Ce1 Ir5 3.418438 1_555
Ce1 Ir4 3.418438 1_556
Ce1 Ir3 3.435422 1_455
Ce1 Ir0 3.435422 1_456
Ce1 Ir2 3.464716 1_555
Ce1 Ir1 3.464716 1_556
Ce2 Ir4 3.418438 1_665
Ce2 Ir5 3.418438 1_665
Ce2 Ir0 3.435422 1_565
Ce2 Ir3 3.435422 1_565
Ce2 Ir2 3.464716 1_555
Ce2 Ir1 3.464716 1_555
Ce3 Ir5 3.418438 1_555
Ce3 Ir4 3.418438 1_556
Ce3 Ir2 3.435422 1_545
Ce3 Ir1 3.435422 1_546
Ce3 Ir0 3.464716 1_556
Ce3 Ir3 3.464716 1_555
Al0 Ir4 2.549608 1_555
Al0 Ir5 2.549608 1_555
Al0 Ce0 3.112463 1_445
Al0 Ce2 3.112463 1_445
Al1 Ir5 2.549608 1_665
Al1 Ir4 2.549608 1_666
Al1 Ce3 3.112463 1_665
Al1 Ce1 3.112463 1_665
Al2 Ir0 2.579447 1_455
Al2 Ir1 2.620360 1_555
Al2 Ir4 2.626164 1_555
Al2 Ce1 3.048255 1_554
Al2 Ce2 3.048273 1_445
Al2 Ce0 3.053774 1_455
Al3 Ir1 2.579447 1_656
Al3 Ir0 2.620360 1_556
Al3 Ir4 2.626164 1_666
Al3 Ce0 3.048255 1_556
Al3 Ce3 3.048273 1_665
Al3 Ce1 3.053774 1_655
Al4 Ir2 2.579447 1_655
Al4 Ir3 2.620360 1_555
Al4 Ir5 2.626164 1_665
Al4 Ce0 3.048255 1_555
Al4 Ce3 3.048273 1_665
Al4 Ce1 3.053774 1_655
Al5 Ir2 2.579447 1_545
Al5 Ir3 2.620360 1_555
Al5 Ir5 2.626164 1_555
Al5 Ce3 3.048255 1_555
Al5 Ce0 3.048273 1_445
Al5 Ce2 3.053774 1_545
Al6 Ir3 2.579447 1_455
Al6 Ir2 2.620360 1_555
Al6 Ir5 2.626164 1_555
Al6 Ce1 3.048255 1_555
Al6 Ce2 3.048273 1_445
Al6 Ce0 3.053774 1_455
Al7 Ir3 2.579447 1_565
Al7 Ir2 2.620360 1_555
Al7 Ir5 2.626164 1_665
Al7 Ce2 3.048255 1_555
Al7 Ce1 3.048273 1_665
Al7 Ce3 3.053774 1_565
Al8 Ir0 2.579447 1_566
Al8 Ir1 2.620360 1_556
Al8 Ir4 2.626164 1_666
Al8 Ce2 3.048255 1_556
Al8 Ce1 3.048273 1_665
Al8 Ce3 3.053774 1_565
Al9 Ir1 2.579447 1_545
Al9 Ir0 2.620360 1_555
Al9 Ir4 2.626164 1_555
Al9 Ce3 3.048255 1_554
Al9 Ce0 3.048273 1_445
Al9 Ce2 3.053774 1_545
Al10 Ir5 2.596985 1_555
Al10 Ir2 2.628384 1_555
Al10 Ir3 2.628384 1_555
Al10 Ce1 3.125444 1_555
Al10 Ce3 3.125444 1_555
Al11 Ir5 2.596985 1_665
Al11 Ir2 2.628384 1_555
Al11 Ir3 2.628384 1_555
Al11 Ce2 3.125444 1_555
Al11 Ce0 3.125444 1_555
Al12 Ir4 2.596985 1_665
Al12 Ir1 2.628384 1_555
Al12 Ir0 2.628384 1_555
Al12 Ce0 3.125444 1_555
Al12 Ce2 3.125444 1_555
Al13 Ir4 2.596985 1_556
Al13 Ir1 2.628384 1_556
Al13 Ir0 2.628384 1_556
Al13 Ce1 3.125444 1_555
Al13 Ce3 3.125444 1_555
Al14 Ir1 2.552668 1_555
Al14 Ir2 2.552668 1_555
Al14 Ce2 3.065986 1_555
Al14 Ce0 3.187143 1_455
Al15 Ir0 2.552668 1_556
Al15 Ir3 2.552668 1_555
Al15 Ce3 3.065986 1_555
Al15 Ce1 3.187143 1_655
Al16 Ir3 2.552668 1_555
Al16 Ir0 2.552668 1_555
Al16 Ce0 3.065986 1_555
Al16 Ce2 3.187143 1_545
Al17 Ir2 2.552668 1_555
Al17 Ir1 2.552668 1_556
Al17 Ce1 3.065986 1_555
Al17 Ce3 3.187143 1_565
