# generated using pymatgen
data_NaEuTiBiO6
_symmetry_space_group_name_H-M   'P 1'
_cell_length_a   8.08721126
_cell_length_b   8.14198145
_cell_length_c   8.04801570
_cell_angle_alpha   90.00000000
_cell_angle_beta   90.00000000
_cell_angle_gamma   90.00000000
_symmetry_Int_Tables_number   1
_chemical_formula_structural   NaEuTiBiO6
_chemical_formula_sum   'Na4 Eu4 Ti4 Bi4 O24'
_cell_volume   529.92903063
_cell_formula_units_Z   4
loop_
 _symmetry_equiv_pos_site_id
 _symmetry_equiv_pos_as_xyz
  1  'x, y, z'
loop_
 _atom_site_type_symbol
 _atom_site_label
 _atom_site_symmetry_multiplicity
 _atom_site_fract_x
 _atom_site_fract_y
 _atom_site_fract_z
 _atom_site_occupancy
  Na  Na0  1  0.00000000  0.50000000  0.50000000  1
  Na  Na1  1  0.50000000  0.50000000  0.00000000  1
  Na  Na2  1  0.50000000  0.00000000  0.00000000  1
  Na  Na3  1  0.00000000  0.00000000  0.50000000  1
  Eu  Eu0  1  0.50000000  0.00000000  0.50000000  1
  Eu  Eu1  1  0.00000000  0.50000000  0.00000000  1
  Eu  Eu2  1  0.00000000  0.00000000  0.00000000  1
  Eu  Eu3  1  0.50000000  0.50000000  0.50000000  1
  Ti  Ti0  1  0.25000000  0.25000000  0.25000000  1
  Ti  Ti1  1  0.75000000  0.75000000  0.25000000  1
  Ti  Ti2  1  0.75000000  0.25000000  0.75000000  1
  Ti  Ti3  1  0.25000000  0.75000000  0.75000000  1
  Bi  Bi0  1  0.75000000  0.75000000  0.75000000  1
  Bi  Bi1  1  0.25000000  0.25000000  0.75000000  1
  Bi  Bi2  1  0.25000000  0.75000000  0.25000000  1
  Bi  Bi3  1  0.75000000  0.25000000  0.25000000  1
  O  O0  1  0.01102437  0.21124204  0.27019713  1
  O  O1  1  0.98897563  0.78875796  0.27019713  1
  O  O2  1  0.98897563  0.21124204  0.72980287  1
  O  O3  1  0.01102437  0.78875796  0.72980287  1
  O  O4  1  0.28209329  0.01096571  0.21547647  1
  O  O5  1  0.28209329  0.98903429  0.78452353  1
  O  O6  1  0.71790671  0.98903429  0.21547647  1
  O  O7  1  0.71790671  0.01096571  0.78452353  1
  O  O8  1  0.20406342  0.27720753  0.00898239  1
  O  O9  1  0.79593658  0.27720753  0.99101761  1
  O  O10  1  0.20406342  0.72279247  0.99101761  1
  O  O11  1  0.79593658  0.72279247  0.00898239  1
  O  O12  1  0.48897563  0.28875796  0.22980287  1
  O  O13  1  0.51102437  0.71124204  0.22980287  1
  O  O14  1  0.51102437  0.28875796  0.77019713  1
  O  O15  1  0.48897563  0.71124204  0.77019713  1
  O  O16  1  0.21790671  0.48903429  0.28452353  1
  O  O17  1  0.21790671  0.51096571  0.71547647  1
  O  O18  1  0.78209329  0.51096571  0.28452353  1
  O  O19  1  0.78209329  0.48903429  0.71547647  1
  O  O20  1  0.29593658  0.22279247  0.49101761  1
  O  O21  1  0.70406342  0.22279247  0.50898239  1
  O  O22  1  0.29593658  0.77720753  0.50898239  1
  O  O23  1  0.70406342  0.77720753  0.49101761  1
loop_
_geom_bond_atom_site_label_1
_geom_bond_atom_site_label_2
_geom_bond_distance
_geom_bond_site_symmetry_2
Na0 O18 2.474031 1_455
Na0 O16 2.474031 1_555
Na0 O19 2.474031 1_455
Na0 O17 2.474031 1_555
Na1 O13 2.527171 1_555
Na1 O15 2.527171 1_554
Na1 O12 2.527171 1_555
Na1 O14 2.527171 1_554
Na2 O4 2.474031 1_555
Na2 O7 2.474031 1_554
Na2 O6 2.474031 1_545
Na2 O5 2.474031 1_544
Na3 O3 2.527171 1_545
Na3 O1 2.527171 1_445
Na3 O0 2.527171 1_555
Na3 O2 2.527171 1_455
Eu0 O22 2.453411 1_545
Eu0 O21 2.453411 1_555
Eu0 O23 2.453411 1_545
Eu0 O20 2.453411 1_555
Eu0 O4 2.890836 1_555
Eu0 O6 2.890836 1_545
Eu0 O7 2.890836 1_555
Eu0 O5 2.890836 1_545
Eu1 O8 2.453411 1_555
Eu1 O9 2.453411 1_454
Eu1 O10 2.453411 1_554
Eu1 O11 2.453411 1_455
Eu1 O19 2.890836 1_454
Eu1 O18 2.890836 1_455
Eu1 O16 2.890836 1_555
Eu1 O17 2.890836 1_554
Eu2 O2 2.773946 1_454
Eu2 O3 2.773946 1_544
Eu2 O1 2.773946 1_445
Eu2 O0 2.773946 1_555
Eu2 O11 2.796938 1_445
Eu2 O10 2.796938 1_544
Eu2 O8 2.796938 1_555
Eu2 O9 2.796938 1_454
Eu2 O7 2.867024 1_454
Eu2 O6 2.867024 1_445
Eu2 O4 2.867024 1_555
Eu2 O5 2.867024 1_544
Eu3 O13 2.773946 1_555
Eu3 O14 2.773946 1_555
Eu3 O15 2.773946 1_555
Eu3 O12 2.773946 1_555
Eu3 O22 2.796938 1_555
Eu3 O20 2.796938 1_555
Eu3 O23 2.796938 1_555
Eu3 O21 2.796938 1_555
Eu3 O16 2.867024 1_555
Eu3 O18 2.867024 1_555
Eu3 O17 2.867024 1_555
Eu3 O19 2.867024 1_555
Bi0 O11 2.128701 1_556
Bi0 O23 2.128701 1_555
Bi0 O3 2.140596 1_655
Bi0 O15 2.140596 1_555
Bi0 O7 2.158528 1_565
Bi0 O19 2.158528 1_555
Bi1 O8 2.128701 1_556
Bi1 O20 2.128701 1_555
Bi1 O2 2.140596 1_455
Bi1 O14 2.140596 1_555
Bi1 O17 2.158528 1_555
Bi1 O5 2.158528 1_545
Bi2 O22 2.128701 1_555
Bi2 O10 2.128701 1_554
Bi2 O1 2.140596 1_455
Bi2 O13 2.140596 1_555
Bi2 O4 2.158528 1_565
Bi2 O16 2.158528 1_555
Bi3 O21 2.128701 1_555
Bi3 O9 2.128701 1_554
Bi3 O0 2.140596 1_655
Bi3 O12 2.140596 1_555
Bi3 O6 2.158528 1_545
Bi3 O18 2.158528 1_555
O0 Ti0 1.964975 1_555
O1 Ti1 1.964975 1_555
O2 Ti2 1.964975 1_555
O3 Ti3 1.964975 1_555
O4 Ti0 1.983004 1_555
O5 Ti3 1.983004 1_555
O6 Ti1 1.983004 1_555
O7 Ti2 1.983004 1_555
O8 Ti0 1.987353 1_555
O9 Ti2 1.987353 1_555
O10 Ti3 1.987353 1_555
O11 Ti1 1.987353 1_555
O12 Ti0 1.964975 1_555
O13 Ti1 1.964975 1_555
O14 Ti2 1.964975 1_555
O15 Ti3 1.964975 1_555
O16 Ti0 1.983004 1_555
O17 Ti3 1.983004 1_555
O18 Ti1 1.983004 1_555
O19 Ti2 1.983004 1_555
O20 Ti0 1.987353 1_555
O21 Ti2 1.987353 1_555
O22 Ti3 1.987353 1_555
O23 Ti1 1.987353 1_555
