# generated using pymatgen
data_CaH8C2N4O5
_symmetry_space_group_name_H-M   'P 1'
_cell_length_a   6.43743706
_cell_length_b   7.81937039
_cell_length_c   7.99011534
_cell_angle_alpha   79.55377439
_cell_angle_beta   83.67334308
_cell_angle_gamma   73.86036798
_symmetry_Int_Tables_number   1
_chemical_formula_structural   CaH8C2N4O5
_chemical_formula_sum   'Ca2 H16 C4 N8 O10'
_cell_volume   379.17899368
_cell_formula_units_Z   2
loop_
 _symmetry_equiv_pos_site_id
 _symmetry_equiv_pos_as_xyz
  1  'x, y, z'
loop_
 _atom_site_type_symbol
 _atom_site_label
 _atom_site_symmetry_multiplicity
 _atom_site_fract_x
 _atom_site_fract_y
 _atom_site_fract_z
 _atom_site_occupancy
  Ca  Ca0  1  0.80524100  0.88201600  0.94794300  1
  Ca  Ca1  1  0.19475900  0.11798400  0.05205700  1
  H  H0  1  0.52255400  0.51398900  0.75641200  1
  H  H1  1  0.47744600  0.48601100  0.24358800  1
  H  H2  1  0.84581600  0.63234400  0.67468200  1
  H  H3  1  0.15418400  0.36765600  0.32531800  1
  H  H4  1  0.84185800  0.51033000  0.86996500  1
  H  H5  1  0.15814200  0.48967000  0.13003500  1
  H  H6  1  0.80547300  0.21926800  0.44420300  1
  H  H7  1  0.19452700  0.78073200  0.55579700  1
  H  H8  1  0.51909600  0.11466700  0.64800600  1
  H  H9  1  0.48090400  0.88533300  0.35199400  1
  H  H10  1  0.70936900  0.95088100  0.56746100  1
  H  H11  1  0.29063100  0.04911900  0.43253900  1
  H  H12  1  0.80218300  0.66062900  0.28055400  1
  H  H13  1  0.19781700  0.33937100  0.71944600  1
  H  H14  1  0.78061700  0.50908000  0.17054200  1
  H  H15  1  0.21938300  0.49092000  0.82945800  1
  C  C0  1  0.38140400  0.74482400  0.85898300  1
  C  C1  1  0.61859600  0.25517600  0.14101700  1
  C  C2  1  0.97212000  0.18105700  0.65955000  1
  C  C3  1  0.02788000  0.81894300  0.34045000  1
  N  N0  1  0.55090600  0.62964700  0.77923800  1
  N  N1  1  0.44909400  0.37035300  0.22076200  1
  N  N2  1  0.76777800  0.62765200  0.79450800  1
  N  N3  1  0.23222200  0.37234800  0.20549200  1
  N  N4  1  0.80169600  0.17445100  0.57232800  1
  N  N5  1  0.19830400  0.82554900  0.42767200  1
  N  N6  1  0.68085800  0.05072800  0.64143200  1
  N  N7  1  0.31914200  0.94927200  0.35856800  1
  O  O0  1  0.42077000  0.87201100  0.91923100  1
  O  O1  1  0.57923000  0.12798900  0.08076900  1
  O  O2  1  0.19401400  0.71483900  0.85868300  1
  O  O3  1  0.80598600  0.28516100  0.14131700  1
  O  O4  1  0.98163700  0.11088000  0.81663700  1
  O  O5  1  0.01836300  0.88912000  0.18336300  1
  O  O6  1  0.10748800  0.26291900  0.57480100  1
  O  O7  1  0.89251200  0.73708100  0.42519900  1
  O  O8  1  0.74849400  0.64052100  0.17351900  1
  O  O9  1  0.25150600  0.35947900  0.82648100  1
loop_
_geom_bond_atom_site_label_1
_geom_bond_atom_site_label_2
_geom_bond_distance
_geom_bond_site_symmetry_2
Ca0 O4 2.403977 1_565
Ca0 O1 2.405534 1_566
Ca0 O8 2.439681 1_556
Ca0 O5 2.464280 1_656
Ca0 O0 2.534504 1_555
Ca0 O2 2.570373 1_655
Ca0 N2 2.594841 1_555
Ca0 N6 2.655692 1_565
Ca1 O5 2.403977 1_545
Ca1 O0 2.405534 1_544
Ca1 O9 2.439681 1_554
Ca1 O4 2.464280 1_454
Ca1 O1 2.534504 1_555
Ca1 O3 2.570373 1_455
Ca1 N3 2.594841 1_555
Ca1 N7 2.655692 1_545
H0 N0 1.021460 1_555
H1 N1 1.021460 1_555
H2 N2 1.030476 1_555
H3 N3 1.030476 1_555
H4 N2 1.025714 1_555
H5 N3 1.025714 1_555
H6 N4 1.020092 1_555
H7 N5 1.020092 1_555
H8 N6 1.022309 1_555
H9 N7 1.022309 1_555
H10 N6 1.027777 1_565
H11 N7 1.027777 1_545
H12 O8 1.009801 1_555
H12 O7 1.619607 1_555
H13 O9 1.009801 1_555
H13 O6 1.619607 1_555
H14 O8 0.994632 1_555
H15 O9 0.994632 1_555
C0 O0 1.275006 1_555
C0 O2 1.291608 1_555
C0 N0 1.384280 1_555
C1 O1 1.275006 1_555
C1 O3 1.291608 1_555
C1 N1 1.384280 1_555
C2 O4 1.276226 1_555
C2 O6 1.284734 1_655
C2 N4 1.380232 1_555
C3 O5 1.276226 1_555
C3 O7 1.284734 1_455
C3 N5 1.380232 1_555
N0 N2 1.410308 1_555
N1 N3 1.410308 1_555
N4 N6 1.405679 1_555
N5 N7 1.405679 1_555
