# generated using pymatgen
data_Li3Fe8(BO3)8
_symmetry_space_group_name_H-M   'P 1'
_cell_length_a   5.28912900
_cell_length_b   9.05424339
_cell_length_c   11.45152716
_cell_angle_alpha   112.96378530
_cell_angle_beta   102.93079009
_cell_angle_gamma   89.81462554
_symmetry_Int_Tables_number   1
_chemical_formula_structural   Li3Fe8(BO3)8
_chemical_formula_sum   'Li3 Fe8 B8 O24'
_cell_volume   489.97374346
_cell_formula_units_Z   1
loop_
 _symmetry_equiv_pos_site_id
 _symmetry_equiv_pos_as_xyz
  1  'x, y, z'
loop_
 _atom_site_type_symbol
 _atom_site_label
 _atom_site_symmetry_multiplicity
 _atom_site_fract_x
 _atom_site_fract_y
 _atom_site_fract_z
 _atom_site_occupancy
  Li  Li0  1  0.39481200  0.05265100  0.11102700  1
  Li  Li1  1  0.31944500  0.67313400  0.33890000  1
  Li  Li2  1  0.58012200  0.92043800  0.84940500  1
  Fe  Fe0  1  0.59623100  0.59545700  0.86934800  1
  Fe  Fe1  1  0.90146900  0.89494700  0.11890300  1
  Fe  Fe2  1  0.14987200  0.47789700  0.62244600  1
  Fe  Fe3  1  0.34086500  0.02149600  0.36846700  1
  Fe  Fe4  1  0.66153100  0.98199300  0.62117400  1
  Fe  Fe5  1  0.84842800  0.52333100  0.37522200  1
  Fe  Fe6  1  0.08930200  0.10125500  0.87076600  1
  Fe  Fe7  1  0.41021900  0.39204600  0.12268300  1
  B  B0  1  0.34199200  0.35366900  0.36697300  1
  B  B1  1  0.10823700  0.76731700  0.87204700  1
  B  B2  1  0.86362400  0.85605500  0.37346300  1
  B  B3  1  0.59103100  0.26655600  0.87046600  1
  B  B4  1  0.14986100  0.14063400  0.61847700  1
  B  B5  1  0.41219400  0.73055100  0.12530700  1
  B  B6  1  0.65397900  0.64754500  0.63217100  1
  B  B7  1  0.88750500  0.22510500  0.11825100  1
  O  O0  1  0.86486300  0.77169000  0.90213500  1
  O  O1  1  0.52956500  0.54797400  0.67365200  1
  O  O2  1  0.75081000  0.08509300  0.09669100  1
  O  O3  1  0.42451600  0.20221900  0.33754500  1
  O  O4  1  0.15291900  0.40547500  0.43529300  1
  O  O5  1  0.21107000  0.61954700  0.82454600  1
  O  O6  1  0.69650300  0.39457000  0.85940700  1
  O  O7  1  0.96408300  0.96217400  0.32985000  1
  O  O8  1  0.30502600  0.87942400  0.17006300  1
  O  O9  1  0.36370300  0.08730800  0.56257400  1
  O  O10  1  0.06349400  0.28396800  0.63098900  1
  O  O11  1  0.60284000  0.71698200  0.05774100  1
  O  O12  1  0.39005200  0.27757700  0.93271900  1
  O  O13  1  0.62612900  0.88794800  0.41542600  1
  O  O14  1  0.68423800  0.11350900  0.81802100  1
  O  O15  1  0.03190500  0.03895800  0.66058100  1
  O  O16  1  0.33215800  0.60880400  0.15455300  1
  O  O17  1  0.78496900  0.37188100  0.16728700  1
  O  O18  1  0.86216300  0.59544700  0.57843700  1
  O  O19  1  0.56969800  0.79654100  0.64762200  1
  O  O20  1  0.98635500  0.72624600  0.37569900  1
  O  O21  1  0.24433600  0.90831800  0.89389400  1
  O  O22  1  0.44297500  0.45940100  0.32244900  1
  O  O23  1  0.12961700  0.22054200  0.08592600  1
loop_
_geom_bond_atom_site_label_1
_geom_bond_atom_site_label_2
_geom_bond_distance
_geom_bond_site_symmetry_2
Li0 O2 1.959125 1_555
Li0 O8 2.029399 1_545
Li0 O23 2.123099 1_555
Li0 O21 2.260410 1_544
Li0 O3 2.380180 1_555
Li1 O20 1.918665 1_455
Li1 O16 1.975892 1_555
Li1 O22 1.992429 1_555
Li1 O13 2.288302 1_555
Li2 O21 1.968671 1_555
Li2 O14 2.018254 1_565
Li2 O19 2.126413 1_555
Li2 O0 2.158953 1_555
Li2 O2 2.574303 1_566
Fe0 O6 1.860582 1_555
Fe0 O11 1.995108 1_556
Fe0 O0 2.003568 1_555
Fe0 O5 2.019288 1_555
Fe0 O1 2.055935 1_555
Fe1 O2 1.976309 1_565
Fe1 O11 2.054868 1_555
Fe1 O8 2.102755 1_655
Fe1 O7 2.193522 1_555
Fe1 O0 2.251563 1_554
Fe2 O10 1.860281 1_555
Fe2 O18 1.940947 1_455
Fe2 O4 1.985520 1_555
Fe2 O1 1.992580 1_555
Fe2 O5 2.111210 1_555
Fe3 O3 1.877653 1_555
Fe3 O7 1.970449 1_445
Fe3 O9 2.038962 1_555
Fe3 O13 2.039659 1_545
Fe3 O8 2.093097 1_545
Fe4 O19 1.901332 1_555
Fe4 O15 1.932992 1_665
Fe4 O9 1.964046 1_565
Fe4 O14 2.073411 1_565
Fe4 O13 2.132972 1_555
Fe5 O20 1.976546 1_555
Fe5 O4 2.066746 1_655
Fe5 O22 2.110493 1_555
Fe5 O18 2.141519 1_555
Fe5 O17 2.181846 1_555
Fe6 O21 2.012149 1_545
Fe6 O12 2.051814 1_555
Fe6 O14 2.106840 1_455
Fe6 O15 2.195084 1_555
Fe6 O23 2.229955 1_556
Fe7 O16 1.912767 1_555
Fe7 O17 1.959663 1_555
Fe7 O12 1.988824 1_554
Fe7 O23 2.004111 1_555
Fe7 O22 2.090423 1_555
B0 O3 1.373253 1_555
B0 O4 1.375846 1_555
B0 O22 1.402771 1_555
B1 O21 1.373588 1_555
B1 O5 1.393422 1_555
B1 O0 1.401708 1_455
B2 O20 1.347044 1_555
B2 O7 1.396947 1_555
B2 O13 1.432384 1_555
B3 O6 1.349453 1_555
B3 O12 1.389644 1_555
B3 O14 1.415152 1_555
B4 O10 1.339328 1_555
B4 O15 1.397821 1_555
B4 O9 1.414753 1_555
B5 O16 1.364197 1_555
B5 O11 1.380119 1_555
B5 O8 1.409574 1_555
B6 O18 1.373675 1_555
B6 O19 1.376626 1_555
B6 O1 1.396186 1_555
B7 O2 1.368418 1_555
B7 O17 1.387397 1_555
B7 O23 1.406572 1_655
