# generated using pymatgen
data_Yb3Y9Al20O48
_symmetry_space_group_name_H-M   'P 1'
_cell_length_a   10.49078544
_cell_length_b   10.49078544
_cell_length_c   12.10532223
_cell_angle_alpha   54.85019144
_cell_angle_beta   54.85019144
_cell_angle_gamma   70.58429682
_symmetry_Int_Tables_number   1
_chemical_formula_structural   Yb3Y9Al20O48
_chemical_formula_sum   'Yb3 Y9 Al20 O48'
_cell_volume   890.68943821
_cell_formula_units_Z   1
loop_
 _symmetry_equiv_pos_site_id
 _symmetry_equiv_pos_as_xyz
  1  'x, y, z'
loop_
 _atom_site_type_symbol
 _atom_site_label
 _atom_site_symmetry_multiplicity
 _atom_site_fract_x
 _atom_site_fract_y
 _atom_site_fract_z
 _atom_site_occupancy
  Yb  Yb0  1  0.75041400  0.74886600  0.37512700  1
  Yb  Yb1  1  0.25113400  0.24958600  0.62487300  1
  Yb  Yb2  1  0.62443000  0.37557000  0.50000000  1
  Y  Y0  1  0.87644100  0.12355900  0.00000000  1
  Y  Y1  1  0.62337900  0.12533800  0.37681700  1
  Y  Y2  1  0.87466200  0.37662100  0.62318300  1
  Y  Y3  1  0.24999400  0.25000500  0.12507000  1
  Y  Y4  1  0.74999500  0.75000600  0.87493000  1
  Y  Y5  1  0.37507600  0.62492400  0.00000000  1
  Y  Y6  1  0.12484500  0.87515500  0.50000000  1
  Y  Y7  1  0.37501900  0.87500100  0.12500500  1
  Y  Y8  1  0.12499900  0.62498100  0.87499500  1
  Al  Al0  1  0.75009800  0.74988700  0.12579900  1
  Al  Al1  1  0.25011300  0.24990200  0.87420100  1
  Al  Al2  1  0.87419800  0.12580200  0.50000000  1
  Al  Al3  1  0.62503000  0.37497000  0.00000000  1
  Al  Al4  1  0.37500700  0.87490300  0.62497400  1
  Al  Al5  1  0.12509700  0.62499300  0.37502600  1
  Al  Al6  1  0.24993500  0.25021700  0.37601700  1
  Al  Al7  1  0.74978300  0.75006500  0.62398300  1
  Al  Al8  1  0.12494500  0.87505500  0.00000000  1
  Al  Al9  1  0.37542000  0.62458000  0.50000000  1
  Al  Al10  1  0.62448800  0.12531500  0.87501900  1
  Al  Al11  1  0.87468500  0.37551200  0.12498100  1
  Al  Al12  1  0.50110100  0.49972100  0.74828400  1
  Al  Al13  1  0.99966600  0.99905300  0.24973900  1
  Al  Al14  1  0.50027900  0.49889900  0.25171600  1
  Al  Al15  1  0.00094700  0.00033400  0.75026100  1
  Al  Al16  1  0.99868600  0.50091100  0.25102800  1
  Al  Al17  1  0.49908900  0.00131400  0.74897200  1
  Al  Al18  1  0.50053900  0.99868000  0.25118000  1
  Al  Al19  1  0.00132000  0.49946100  0.74882000  1
  O  O0  1  0.80252100  0.59646100  0.26759200  1
  O  O1  1  0.70008600  0.90438200  0.16518000  1
  O  O2  1  0.40353900  0.19747900  0.73240800  1
  O  O3  1  0.09561800  0.29991400  0.83482000  1
  O  O4  1  0.68038300  0.11527600  0.54992500  1
  O  O5  1  0.88472400  0.31961700  0.45007500  1
  O  O6  1  0.61808200  0.17983700  0.15185800  1
  O  O7  1  0.82016300  0.38191800  0.84814200  1
  O  O8  1  0.51775300  0.92005300  0.42954200  1
  O  O9  1  0.42004300  0.01788100  0.63258300  1
  O  O10  1  0.98211900  0.57995700  0.36741700  1
  O  O11  1  0.07994700  0.48224700  0.57045800  1
  O  O12  1  0.19984400  0.40163100  0.23002000  1
  O  O13  1  0.30011500  0.09843400  0.33152600  1
  O  O14  1  0.59836900  0.80015600  0.76998000  1
  O  O15  1  0.90156600  0.69988500  0.66847400  1
  O  O16  1  0.32062300  0.88119000  0.94988100  1
  O  O17  1  0.11881000  0.67937700  0.05011900  1
  O  O18  1  0.38163900  0.82036000  0.34837200  1
  O  O19  1  0.17964000  0.61836100  0.65162800  1
  O  O20  1  0.48002200  0.08097600  0.07083200  1
  O  O21  1  0.58125900  0.98008700  0.86801000  1
  O  O22  1  0.01991300  0.41874100  0.13199000  1
  O  O23  1  0.91902400  0.51997800  0.92916800  1
  O  O24  1  0.47965200  0.41861800  0.94979200  1
  O  O25  1  0.58138200  0.52034800  0.05020800  1
  O  O26  1  0.01967800  0.08155400  0.34822500  1
  O  O27  1  0.91844600  0.98032200  0.65177500  1
  O  O28  1  0.19982300  0.09860200  0.07028000  1
  O  O29  1  0.29997300  0.40165900  0.86850300  1
  O  O30  1  0.59834100  0.70002700  0.13149700  1
  O  O31  1  0.90139800  0.80017700  0.92972000  1
  O  O32  1  0.32077800  0.61809700  0.23024700  1
  O  O33  1  0.11846300  0.82063900  0.33117900  1
  O  O34  1  0.38190300  0.67922200  0.76975300  1
  O  O35  1  0.17936100  0.88153700  0.66882100  1
  O  O36  1  0.51766300  0.58349100  0.55198600  1
  O  O37  1  0.41650900  0.48233700  0.44801400  1
  O  O38  1  0.98226900  0.92027000  0.15034700  1
  O  O39  1  0.07973000  0.01773100  0.84965300  1
  O  O40  1  0.79999000  0.90470100  0.43024900  1
  O  O41  1  0.69977500  0.59549400  0.63481900  1
  O  O42  1  0.40450600  0.30022500  0.36518100  1
  O  O43  1  0.09529900  0.20001000  0.56975100  1
  O  O44  1  0.67960700  0.38291900  0.26793400  1
  O  O45  1  0.88177500  0.18001400  0.16835700  1
  O  O46  1  0.61708100  0.32039300  0.73206600  1
  O  O47  1  0.81998600  0.11822500  0.83164300  1
loop_
_geom_bond_atom_site_label_1
_geom_bond_atom_site_label_2
_geom_bond_distance
_geom_bond_site_symmetry_2
Al0 O0 1.776698 1_555
Al0 O1 1.779257 1_555
Al0 O30 1.788476 1_555
Al0 O31 1.791230 1_554
Al1 O2 1.776698 1_555
Al1 O3 1.779257 1_555
Al1 O29 1.788476 1_555
Al1 O28 1.791230 1_556
Al2 O5 1.780213 1_555
Al2 O4 1.780213 1_555
Al2 O27 1.789607 1_545
Al2 O26 1.789607 1_655
Al3 O6 1.785253 1_555
Al3 O7 1.785253 1_554
Al3 O24 1.785404 1_554
Al3 O25 1.785404 1_555
Al4 O9 1.778174 1_565
Al4 O8 1.779275 1_555
Al4 O35 1.786735 1_555
Al4 O34 1.787631 1_555
Al5 O10 1.778174 1_455
Al5 O11 1.779275 1_555
Al5 O33 1.786735 1_555
Al5 O32 1.787631 1_555
Al6 O42 1.778584 1_555
Al6 O43 1.781647 1_555
Al6 O12 1.790187 1_555
Al6 O13 1.790639 1_555
Al7 O41 1.778584 1_555
Al7 O40 1.781647 1_555
Al7 O14 1.790187 1_555
Al7 O15 1.790639 1_555
Al8 O39 1.778509 1_564
Al8 O38 1.778509 1_455
Al8 O16 1.787486 1_554
Al8 O17 1.787486 1_555
Al9 O36 1.774798 1_555
Al9 O37 1.774798 1_555
Al9 O18 1.789463 1_555
Al9 O19 1.789463 1_555
Al10 O46 1.777698 1_555
Al10 O21 1.785106 1_545
Al10 O47 1.786369 1_555
Al10 O20 1.787360 1_556
Al11 O44 1.777698 1_555
Al11 O22 1.785106 1_655
Al11 O45 1.786369 1_555
Al11 O23 1.787360 1_554
Al12 O36 1.915901 1_555
Al12 O46 1.920057 1_555
Al12 O41 1.935743 1_555
Al12 O34 1.949638 1_555
Al12 O29 1.952408 1_555
Al12 O24 1.957130 1_555
Al13 O38 1.913677 1_555
Al13 O40 1.939114 1_555
Al13 O33 1.941028 1_655
Al13 O45 1.947464 1_565
Al13 O26 1.952339 1_665
Al13 O28 1.952541 1_665
Al14 O37 1.915901 1_555
Al14 O44 1.920057 1_555
Al14 O42 1.935743 1_555
Al14 O32 1.949638 1_555
Al14 O30 1.952408 1_555
Al14 O25 1.957130 1_555
Al15 O39 1.913677 1_555
Al15 O43 1.939114 1_555
Al15 O35 1.941028 1_545
Al15 O47 1.947464 1_455
Al15 O27 1.952339 1_445
Al15 O31 1.952541 1_445
Al16 O0 1.914391 1_555
Al16 O10 1.915843 1_555
Al16 O5 1.941790 1_555
Al16 O22 1.949953 1_655
Al16 O17 1.950642 1_655
Al16 O12 1.956682 1_655
Al17 O2 1.914391 1_555
Al17 O9 1.915843 1_555
Al17 O4 1.941790 1_555
Al17 O21 1.949953 1_545
Al17 O16 1.950642 1_545
Al17 O14 1.956682 1_545
Al18 O8 1.916793 1_555
Al18 O1 1.935046 1_555
Al18 O18 1.940880 1_555
Al18 O6 1.948822 1_565
Al18 O20 1.950689 1_565
Al18 O13 1.953575 1_565
Al19 O11 1.916793 1_555
Al19 O3 1.935046 1_555
Al19 O19 1.940880 1_555
Al19 O7 1.948822 1_455
Al19 O23 1.950689 1_455
Al19 O15 1.953575 1_455
O0 Yb0 2.354937 1_555
O0 Yb2 2.468819 1_555
O1 Yb0 2.365944 1_555
O1 Y0 2.445979 1_565
O2 Yb1 2.354937 1_555
O2 Yb2 2.468819 1_555
O3 Yb1 2.365944 1_555
O3 Y0 2.445979 1_456
O4 Yb2 2.368344 1_555
O4 Y1 2.430282 1_555
O5 Yb2 2.368344 1_555
O5 Y2 2.430282 1_555
O6 Y0 2.350084 1_555
O6 Y1 2.471070 1_555
O7 Y0 2.350084 1_556
O7 Y2 2.471070 1_555
O8 Y1 2.337260 1_565
O8 Yb0 2.492630 1_555
O9 Y1 2.320010 1_555
O9 Yb1 2.474435 1_555
O10 Y2 2.320010 1_555
O10 Yb0 2.474435 1_555
O11 Y2 2.337260 1_455
O11 Yb1 2.492630 1_555
O12 Y3 2.328518 1_555
O12 Y5 2.465517 1_555
O13 Y3 2.330756 1_555
O13 Y6 2.464142 1_545
O14 Y4 2.328518 1_555
O14 Y5 2.465517 1_556
O15 Y4 2.330756 1_555
O15 Y6 2.464142 1_655
O16 Y5 2.328524 1_556
O16 Y7 2.456381 1_556
O17 Y5 2.328524 1_555
O17 Y8 2.456381 1_554
O18 Y6 2.334252 1_555
O18 Y7 2.459618 1_555
O19 Y6 2.334252 1_555
O19 Y8 2.459618 1_555
O20 Y7 2.330630 1_545
O20 Y3 2.463771 1_555
O21 Y7 2.336965 1_556
O21 Y4 2.462494 1_555
O22 Y8 2.336965 1_554
O22 Y3 2.462494 1_555
O23 Y8 2.330630 1_655
O23 Y4 2.463771 1_555
O24 Y5 2.329269 1_556
O24 Y3 2.461974 1_556
O25 Y5 2.329269 1_555
O25 Y4 2.461974 1_554
O26 Y6 2.333751 1_545
O26 Y3 2.466766 1_555
O27 Y6 2.333751 1_655
O27 Y4 2.466766 1_555
O28 Y3 2.326046 1_555
O28 Y7 2.462871 1_545
O29 Y3 2.332864 1_556
O29 Y8 2.459923 1_555
O30 Y4 2.332864 1_554
O30 Y7 2.459923 1_555
O31 Y4 2.326046 1_555
O31 Y8 2.462871 1_655
O32 Y7 2.332791 1_555
O32 Y5 2.463197 1_555
O33 Y7 2.333513 1_555
O33 Y6 2.456987 1_555
O34 Y8 2.332791 1_555
O34 Y5 2.463197 1_556
O35 Y8 2.333513 1_555
O35 Y6 2.456987 1_555
O36 Yb2 2.356499 1_555
O36 Yb0 2.464950 1_555
O37 Yb2 2.356499 1_555
O37 Yb1 2.464950 1_555
O38 Y0 2.318714 1_565
O38 Yb0 2.491385 1_555
O39 Y0 2.318714 1_456
O39 Yb1 2.491385 1_555
O40 Yb0 2.368410 1_555
O40 Y1 2.452271 1_565
O41 Yb0 2.361123 1_555
O41 Y2 2.435634 1_555
O42 Yb1 2.361123 1_555
O42 Y1 2.435634 1_555
O43 Yb1 2.368410 1_555
O43 Y2 2.452271 1_455
O44 Y1 2.334677 1_555
O44 Yb2 2.478048 1_555
O45 Y1 2.352848 1_555
O45 Y0 2.459790 1_555
O46 Y2 2.334677 1_555
O46 Yb2 2.478048 1_555
O47 Y2 2.352848 1_555
O47 Y0 2.459790 1_556
