# generated using pymatgen
data_K4ZrC8O21
_symmetry_space_group_name_H-M   'P 1'
_cell_length_a   10.69376827
_cell_length_b   12.33408357
_cell_length_c   16.01001513
_cell_angle_alpha   90.00000000
_cell_angle_beta   93.67102207
_cell_angle_gamma   90.00000000
_symmetry_Int_Tables_number   1
_chemical_formula_structural   K4ZrC8O21
_chemical_formula_sum   'K16 Zr4 C32 O84'
_cell_volume   2107.35337010
_cell_formula_units_Z   4
loop_
 _symmetry_equiv_pos_site_id
 _symmetry_equiv_pos_as_xyz
  1  'x, y, z'
loop_
 _atom_site_type_symbol
 _atom_site_label
 _atom_site_symmetry_multiplicity
 _atom_site_fract_x
 _atom_site_fract_y
 _atom_site_fract_z
 _atom_site_occupancy
  K  K0  1  0.11279928  0.84962674  0.25624388  1
  K  K1  1  0.88720072  0.15037326  0.74375612  1
  K  K2  1  0.88720072  0.34962674  0.24375612  1
  K  K3  1  0.11279928  0.65037326  0.75624388  1
  K  K4  1  0.60784290  0.34269331  0.08463334  1
  K  K5  1  0.39215710  0.65730669  0.91536666  1
  K  K6  1  0.39215710  0.84269331  0.41536666  1
  K  K7  1  0.60784290  0.15730669  0.58463334  1
  K  K8  1  0.01875868  0.76264417  0.01217401  1
  K  K9  1  0.98124132  0.23735583  0.98782599  1
  K  K10  1  0.98124132  0.26264417  0.48782599  1
  K  K11  1  0.01875868  0.73735583  0.51217401  1
  K  K12  1  0.48176590  0.05720622  0.19632767  1
  K  K13  1  0.51823410  0.94279378  0.80367233  1
  K  K14  1  0.51823410  0.55720622  0.30367233  1
  K  K15  1  0.48176590  0.44279378  0.69632767  1
  Zr  Zr0  1  0.23856843  0.34729841  0.32553887  1
  Zr  Zr1  1  0.76143157  0.65270159  0.67446113  1
  Zr  Zr2  1  0.76143157  0.84729841  0.17446113  1
  Zr  Zr3  1  0.23856843  0.15270159  0.82553887  1
  C  C0  1  0.17451407  0.38436664  0.13568539  1
  C  C1  1  0.82548593  0.61563336  0.86431461  1
  C  C2  1  0.82548593  0.88436664  0.36431461  1
  C  C3  1  0.17451407  0.11563336  0.63568539  1
  C  C4  1  0.05053169  0.52435858  0.37985887  1
  C  C5  1  0.94946831  0.47564142  0.62014113  1
  C  C6  1  0.94946831  0.02435858  0.12014113  1
  C  C7  1  0.05053169  0.97564142  0.87985887  1
  C  C8  1  0.34424607  0.17487902  0.01095971  1
  C  C9  1  0.65575393  0.82512098  0.98904029  1
  C  C10  1  0.65575393  0.67487902  0.48904029  1
  C  C11  1  0.34424607  0.32512098  0.51095971  1
  C  C12  1  0.31750648  0.40756731  0.14665586  1
  C  C13  1  0.68249352  0.59243269  0.85334414  1
  C  C14  1  0.68249352  0.90756731  0.35334414  1
  C  C15  1  0.31750648  0.09243269  0.64665586  1
  C  C16  1  0.25530055  0.09846279  0.30968351  1
  C  C17  1  0.74469945  0.90153721  0.69031649  1
  C  C18  1  0.74469945  0.59846279  0.19031649  1
  C  C19  1  0.25530055  0.40153721  0.80968351  1
  C  C20  1  0.46116301  0.35848505  0.46151763  1
  C  C21  1  0.53883699  0.64151495  0.53848237  1
  C  C22  1  0.53883699  0.85848505  0.03848237  1
  C  C23  1  0.46116301  0.14151495  0.96151763  1
  C  C24  1  0.11403250  0.11982251  0.31898723  1
  C  C25  1  0.88596750  0.88017749  0.68101277  1
  C  C26  1  0.88596750  0.61982251  0.18101277  1
  C  C27  1  0.11403250  0.38017749  0.81898723  1
  C  C28  1  0.17197588  0.58935197  0.36207539  1
  C  C29  1  0.82802412  0.41064803  0.63792461  1
  C  C30  1  0.82802412  0.08935197  0.13792461  1
  C  C31  1  0.17197588  0.91064803  0.86207539  1
  O  O0  1  0.60820664  0.14182056  0.39469472  1
  O  O1  1  0.39179336  0.85817944  0.60530528  1
  O  O2  1  0.39179336  0.64182056  0.10530528  1
  O  O3  1  0.60820664  0.35817944  0.89469472  1
  O  O4  1  0.03596575  0.04632869  0.30893612  1
  O  O5  1  0.96403425  0.95367131  0.69106388  1
  O  O6  1  0.96403425  0.54632869  0.19106388  1
  O  O7  1  0.03596575  0.45367131  0.80893612  1
  O  O8  1  0.12969904  0.34640873  0.20312308  1
  O  O9  1  0.87030096  0.65359127  0.79687692  1
  O  O10  1  0.87030096  0.84640873  0.29687692  1
  O  O11  1  0.12969904  0.15359127  0.70312308  1
  O  O12  1  0.35611835  0.19152817  0.08720879  1
  O  O13  1  0.64388165  0.80847183  0.91279121  1
  O  O14  1  0.64388165  0.69152817  0.41279121  1
  O  O15  1  0.35611835  0.30847183  0.58720879  1
  O  O16  1  0.08974630  0.22049575  0.33561162  1
  O  O17  1  0.91025370  0.77950425  0.66438838  1
  O  O18  1  0.91025370  0.72049575  0.16438838  1
  O  O19  1  0.08974630  0.27950425  0.83561162  1
  O  O20  1  0.11337768  0.40027371  0.06832176  1
  O  O21  1  0.88662232  0.59972629  0.93167824  1
  O  O22  1  0.88662232  0.90027371  0.43167824  1
  O  O23  1  0.11337768  0.09972629  0.56832176  1
  O  O24  1  0.04256048  0.06999430  0.09463215  1
  O  O25  1  0.95743952  0.93000570  0.90536785  1
  O  O26  1  0.95743952  0.56999430  0.40536785  1
  O  O27  1  0.04256048  0.43000570  0.59463215  1
  O  O28  1  0.67369686  0.21844616  0.28035005  1
  O  O29  1  0.32630314  0.78155384  0.71964995  1
  O  O30  1  0.32630314  0.71844616  0.21964995  1
  O  O31  1  0.67369686  0.28155384  0.78035005  1
  O  O32  1  0.17794408  0.68913521  0.37354912  1
  O  O33  1  0.82205592  0.31086479  0.62645088  1
  O  O34  1  0.82205592  0.18913521  0.12645088  1
  O  O35  1  0.17794408  0.81086479  0.87354912  1
  O  O36  1  0.29670564  0.00439071  0.30341807  1
  O  O37  1  0.70329436  0.99560929  0.69658193  1
  O  O38  1  0.70329436  0.50439071  0.19658193  1
  O  O39  1  0.29670564  0.49560929  0.80341807  1
  O  O40  1  0.24357103  0.31723561  0.46247445  1
  O  O41  1  0.75642897  0.68276439  0.53752555  1
  O  O42  1  0.75642897  0.81723561  0.03752555  1
  O  O43  1  0.24357103  0.18276439  0.96247445  1
  O  O44  1  0.25506044  0.60294273  0.58828665  1
  O  O45  1  0.74493956  0.39705727  0.41171335  1
  O  O46  1  0.74493956  0.10294273  0.91171335  1
  O  O47  1  0.25506044  0.89705727  0.08828665  1
  O  O48  1  0.06062667  0.42161391  0.36441491  1
  O  O49  1  0.93937333  0.57838609  0.63558509  1
  O  O50  1  0.93937333  0.92161391  0.13558509  1
  O  O51  1  0.06062667  0.07838609  0.86441491  1
  O  O52  1  0.37756690  0.43573472  0.08655119  1
  O  O53  1  0.62243310  0.56426528  0.91344881  1
  O  O54  1  0.62243310  0.93573472  0.41344881  1
  O  O55  1  0.37756690  0.06426528  0.58655119  1
  O  O56  1  0.43588696  0.37326830  0.38317381  1
  O  O57  1  0.56411304  0.62673170  0.61682619  1
  O  O58  1  0.56411304  0.87326830  0.11682619  1
  O  O59  1  0.43588696  0.12673170  0.88317381  1
  O  O60  1  0.25874092  0.52853189  0.33500165  1
  O  O61  1  0.74125908  0.47146811  0.66499835  1
  O  O62  1  0.74125908  0.02853189  0.16499835  1
  O  O63  1  0.25874092  0.97146811  0.83500165  1
  O  O64  1  0.30500582  0.69446177  0.14029375  1
  O  O65  1  0.69499418  0.30553823  0.85970625  1
  O  O66  1  0.69499418  0.19446177  0.35970625  1
  O  O67  1  0.30500582  0.80553823  0.64029375  1
  O  O68  1  0.32180907  0.18597531  0.30622227  1
  O  O69  1  0.67819093  0.81402469  0.69377773  1
  O  O70  1  0.67819093  0.68597531  0.19377773  1
  O  O71  1  0.32180907  0.31402469  0.80622227  1
  O  O72  1  0.81861793  0.43131973  0.00593518  1
  O  O73  1  0.18138207  0.56868027  0.99406482  1
  O  O74  1  0.18138207  0.93131973  0.49406482  1
  O  O75  1  0.81861793  0.06868027  0.50593518  1
  O  O76  1  0.36279678  0.39370339  0.22295852  1
  O  O77  1  0.63720322  0.60629661  0.77704148  1
  O  O78  1  0.63720322  0.89370339  0.27704148  1
  O  O79  1  0.36279678  0.10629661  0.72295852  1
  O  O80  1  0.56594701  0.13379603  0.00054621  1
  O  O81  1  0.43405299  0.86620397  0.99945379  1
  O  O82  1  0.43405299  0.63379603  0.49945379  1
  O  O83  1  0.56594701  0.36620397  0.50054621  1
loop_
_geom_bond_atom_site_label_1
_geom_bond_atom_site_label_2
_geom_bond_distance
_geom_bond_site_symmetry_2
K0 O4 2.713239 1_565
K0 O10 2.713963 1_455
K0 O50 2.738741 1_455
K0 O32 2.786281 1_555
K0 O36 2.809221 1_565
K0 O30 2.888816 1_555
K0 O18 2.997161 1_455
K0 O47 3.226635 1_555
K1 O5 2.713239 1_545
K1 O11 2.713963 1_655
K1 O51 2.738741 1_655
K1 O33 2.786281 1_555
K1 O37 2.809221 1_545
K1 O31 2.888816 1_555
K1 O19 2.997161 1_655
K1 O46 3.226635 1_555
K2 O6 2.713239 1_555
K2 O8 2.713963 1_655
K2 O48 2.738741 1_655
K2 O34 2.786281 1_555
K2 O38 2.809221 1_555
K2 O28 2.888816 1_555
K2 O16 2.997161 1_655
K2 O45 3.226635 1_555
K3 O7 2.713239 1_555
K3 O9 2.713963 1_455
K3 O49 2.738741 1_455
K3 O35 2.786281 1_555
K3 O39 2.809221 1_555
K3 O29 2.888816 1_555
K3 O17 2.997161 1_455
K3 O44 3.226635 1_555
K4 O52 2.718743 1_555
K4 O38 2.827994 1_555
K4 O72 2.868189 1_555
K4 O80 2.928222 1_555
K4 O34 3.014395 1_555
K4 O3 3.047164 1_554
K4 O12 3.276958 1_555
K5 O53 2.718743 1_555
K5 O39 2.827994 1_555
K5 O73 2.868189 1_555
K5 O81 2.928222 1_555
K5 O35 3.014395 1_555
K5 O2 3.047164 1_556
K5 O13 3.276958 1_555
K6 O54 2.718743 1_555
K6 O36 2.827994 1_565
K6 O74 2.868189 1_555
K6 O82 2.928222 1_555
K6 O32 3.014395 1_555
K6 O1 3.047164 1_555
K6 O14 3.276958 1_555
K7 O55 2.718743 1_555
K7 O37 2.827994 1_545
K7 O75 2.868189 1_555
K7 O83 2.928222 1_555
K7 O33 3.014395 1_555
K7 O0 3.047164 1_555
K7 O15 3.276958 1_555
K8 O21 2.731700 1_454
K8 O25 2.733409 1_454
K8 O18 2.813798 1_455
K8 O42 2.938297 1_455
K8 O35 2.942959 1_554
K8 O50 2.946834 1_455
K8 O73 2.982677 1_554
K8 O47 3.197593 1_555
K9 O20 2.731700 1_656
K9 O24 2.733409 1_656
K9 O19 2.813798 1_655
K9 O43 2.938297 1_655
K9 O34 2.942959 1_556
K9 O51 2.946834 1_655
K9 O72 2.982677 1_556
K9 O46 3.197593 1_555
K10 O23 2.731700 1_655
K10 O27 2.733409 1_655
K10 O16 2.813798 1_655
K10 O40 2.938297 1_655
K10 O33 2.942959 1_555
K10 O48 2.946834 1_655
K10 O75 2.982677 1_555
K10 O45 3.197593 1_555
K11 O22 2.731700 1_455
K11 O26 2.733409 1_455
K11 O17 2.813798 1_455
K11 O41 2.938297 1_455
K11 O32 2.942959 1_555
K11 O49 2.946834 1_455
K11 O74 2.982677 1_555
K11 O44 3.197593 1_555
K12 O12 2.702141 1_555
K12 O58 2.772379 1_545
K12 O36 2.777560 1_555
K12 O78 2.867865 1_545
K12 O62 2.873205 1_555
K12 O68 2.988212 1_555
K12 O28 3.102214 1_555
K13 O13 2.702141 1_555
K13 O59 2.772379 1_565
K13 O37 2.777560 1_555
K13 O79 2.867865 1_565
K13 O63 2.873205 1_555
K13 O69 2.988212 1_555
K13 O29 3.102214 1_555
K14 O14 2.702141 1_555
K14 O56 2.772379 1_555
K14 O38 2.777560 1_555
K14 O76 2.867865 1_555
K14 O60 2.873205 1_555
K14 O70 2.988212 1_555
K14 O30 3.102214 1_555
K15 O15 2.702141 1_555
K15 O57 2.772379 1_555
K15 O39 2.777560 1_555
K15 O77 2.867865 1_555
K15 O61 2.873205 1_555
K15 O71 2.988212 1_555
K15 O31 3.102214 1_555
C0 O20 1.240474 1_555
C0 O8 1.296467 1_555
C1 O21 1.240474 1_555
C1 O9 1.296467 1_555
C2 O22 1.240474 1_555
C2 O10 1.296467 1_555
C3 O23 1.240474 1_555
C3 O11 1.296467 1_555
C4 O26 1.235602 1_455
C4 O48 1.296981 1_555
C5 O27 1.235602 1_655
C5 O49 1.296981 1_555
C6 O24 1.235602 1_655
C6 O50 1.296981 1_545
C7 O25 1.235602 1_455
C7 O51 1.296981 1_565
C8 O12 1.236394 1_555
C8 O43 1.289986 1_554
C9 O13 1.236394 1_555
C9 O42 1.289986 1_556
C10 O14 1.236394 1_555
C10 O41 1.289986 1_555
C11 O15 1.236394 1_555
C11 O40 1.289986 1_555
C12 O52 1.240296 1_555
C12 O76 1.296290 1_555
C13 O53 1.240296 1_555
C13 O77 1.296290 1_555
C14 O54 1.240296 1_555
C14 O78 1.296290 1_555
C15 O55 1.240296 1_555
C15 O79 1.296290 1_555
C16 O36 1.248231 1_555
C16 O68 1.295777 1_555
C17 O37 1.248231 1_555
C17 O69 1.295777 1_555
C18 O38 1.248231 1_555
C18 O70 1.295777 1_555
C19 O39 1.248231 1_555
C19 O71 1.295777 1_555
C20 O83 1.251176 1_555
C20 O56 1.279111 1_555
C21 O82 1.251176 1_555
C21 O57 1.279111 1_555
C22 O81 1.251176 1_554
C22 O58 1.279111 1_555
C23 O80 1.251176 1_556
C23 O59 1.279111 1_555
C24 O4 1.235853 1_555
C24 O16 1.299611 1_555
C25 O5 1.235853 1_555
C25 O17 1.299611 1_555
C26 O6 1.235853 1_555
C26 O18 1.299611 1_555
C27 O7 1.235853 1_555
C27 O19 1.299611 1_555
C28 O32 1.245401 1_555
C28 O60 1.289580 1_555
C29 O33 1.245401 1_555
C29 O61 1.289580 1_555
C30 O34 1.245401 1_555
C30 O62 1.289580 1_555
C31 O35 1.245401 1_555
C31 O63 1.289580 1_555
O0 O66 1.289678 1_555
O1 O67 1.289678 1_555
O2 O64 1.289678 1_555
O3 O65 1.289678 1_555
O8 Zr0 2.214605 1_555
O9 Zr1 2.214605 1_555
O10 Zr2 2.214605 1_555
O11 Zr3 2.214605 1_555
O16 Zr0 2.244488 1_555
O17 Zr1 2.244488 1_555
O18 Zr2 2.244488 1_555
O19 Zr3 2.244488 1_555
O28 O66 1.310147 1_555
O29 O67 1.310147 1_555
O30 O64 1.310147 1_555
O31 O65 1.310147 1_555
O40 Zr0 2.220741 1_555
O41 Zr1 2.220741 1_555
O42 Zr2 2.220741 1_555
O43 Zr3 2.220741 1_555
O48 Zr0 2.236099 1_555
O49 Zr1 2.236099 1_555
O50 Zr2 2.236099 1_555
O51 Zr3 2.236099 1_555
O56 Zr0 2.270935 1_555
O57 Zr1 2.270935 1_555
O58 Zr2 2.270935 1_555
O59 Zr3 2.270935 1_555
O60 Zr0 2.249908 1_555
O61 Zr1 2.249908 1_555
O62 Zr2 2.249908 1_545
O63 Zr3 2.249908 1_565
O68 Zr0 2.209630 1_555
O69 Zr1 2.209630 1_555
O70 Zr2 2.209630 1_555
O71 Zr3 2.209630 1_555
O76 Zr0 2.251446 1_555
O77 Zr1 2.251446 1_555
O78 Zr2 2.251446 1_555
O79 Zr3 2.251446 1_555
