# generated using pymatgen
data_Gd4Sb3
_symmetry_space_group_name_H-M   'P 1'
_cell_length_a   8.10314294
_cell_length_b   7.99927528
_cell_length_c   8.07093036
_cell_angle_alpha   109.16838147
_cell_angle_beta   109.89844998
_cell_angle_gamma   109.02342306
_symmetry_Int_Tables_number   1
_chemical_formula_structural   Gd4Sb3
_chemical_formula_sum   'Gd8 Sb6'
_cell_volume   404.30146618
_cell_formula_units_Z   2
loop_
 _symmetry_equiv_pos_site_id
 _symmetry_equiv_pos_as_xyz
  1  'x, y, z'
loop_
 _atom_site_type_symbol
 _atom_site_label
 _atom_site_symmetry_multiplicity
 _atom_site_fract_x
 _atom_site_fract_y
 _atom_site_fract_z
 _atom_site_occupancy
  Gd  Gd0  1  0.35725711  0.50294960  0.00738452  1
  Gd  Gd1  1  0.64470537  0.63950212  0.64392566  1
  Gd  Gd2  1  0.49409087  0.99524100  0.35146429  1
  Gd  Gd3  1  -0.00125535  0.35302452  0.49883541  1
  Gd  Gd4  1  0.50067848  0.00370965  0.85757494  1
  Gd  Gd5  1  -0.00072230  0.85758758  0.50166060  1
  Gd  Gd6  1  0.85701877  0.50295780  0.99550669  1
  Gd  Gd7  1  0.14869449  0.14409202  0.14442229  1
  Sb  Sb0  1  0.75273467  0.87721269  0.12448456  1
  Sb  Sb1  1  0.62895483  0.37568672  0.25226371  1
  Sb  Sb2  1  0.87146716  0.12394165  0.74698752  1
  Sb  Sb3  1  0.12777853  0.74988735  0.86933221  1
  Sb  Sb4  1  0.37159069  0.24924474  0.62813709  1
  Sb  Sb5  1  0.24700469  0.62496356  0.37802149  1
loop_
_geom_bond_atom_site_label_1
_geom_bond_atom_site_label_2
_geom_bond_distance
_geom_bond_site_symmetry_2
Gd0 Sb1 3.100000 1_555
Gd0 Sb4 3.133292 1_554
Gd0 Sb0 3.154611 1_555
Gd0 Sb3 3.321238 1_554
Gd0 Sb5 3.342075 1_555
Gd0 Sb2 3.392374 1_454
Gd1 Sb1 3.103425 1_555
Gd1 Sb4 3.114866 1_555
Gd1 Sb5 3.144601 1_555
Gd1 Sb0 3.344517 1_556
Gd1 Sb3 3.355035 1_655
Gd1 Sb2 3.359467 1_565
Gd2 Sb5 3.109790 1_555
Gd2 Sb2 3.121843 1_565
Gd2 Sb4 3.153445 1_565
Gd2 Sb1 3.335337 1_565
Gd2 Sb3 3.336023 1_554
Gd2 Sb0 3.377510 1_555
Gd3 Sb1 3.082832 1_455
Gd3 Sb3 3.096284 1_555
Gd3 Sb5 3.099199 1_555
Gd3 Sb4 3.311165 1_555
Gd3 Sb0 3.315316 1_445
Gd3 Sb2 3.319212 1_455
Gd4 Sb3 3.095816 1_545
Gd4 Sb1 3.096291 1_556
Gd4 Sb0 3.101592 1_546
Gd4 Sb4 3.284841 1_555
Gd4 Sb5 3.347925 1_545
Gd4 Sb2 3.354747 1_555
Gd5 Sb2 3.097858 1_465
Gd5 Sb4 3.098548 1_565
Gd5 Sb0 3.108245 1_455
Gd5 Sb3 3.285204 1_555
Gd5 Sb5 3.326742 1_555
Gd5 Sb1 3.341880 1_455
Gd6 Sb2 3.102703 1_555
Gd6 Sb3 3.125530 1_655
Gd6 Sb5 3.136827 1_656
Gd6 Sb0 3.310863 1_556
Gd6 Sb4 3.359716 1_555
Gd6 Sb1 3.392900 1_556
Gd7 Sb3 3.114421 1_544
Gd7 Sb0 3.136179 1_445
Gd7 Sb2 3.143388 1_454
Gd7 Sb5 3.347116 1_555
Gd7 Sb4 3.356250 1_555
Gd7 Sb1 3.357050 1_555
