# generated using pymatgen
data_Mg14NiC
_symmetry_space_group_name_H-M   'P 1'
_cell_length_a   6.24995898
_cell_length_b   6.24995850
_cell_length_c   9.47003373
_cell_angle_alpha   90.00000000
_cell_angle_beta   90.00000000
_cell_angle_gamma   120.00000256
_symmetry_Int_Tables_number   1
_chemical_formula_structural   Mg14NiC
_chemical_formula_sum   'Mg14 Ni1 C1'
_cell_volume   320.35864392
_cell_formula_units_Z   1
loop_
 _symmetry_equiv_pos_site_id
 _symmetry_equiv_pos_as_xyz
  1  'x, y, z'
loop_
 _atom_site_type_symbol
 _atom_site_label
 _atom_site_symmetry_multiplicity
 _atom_site_fract_x
 _atom_site_fract_y
 _atom_site_fract_z
 _atom_site_occupancy
  Mg  Mg0  1  0.16823343  0.83411621  0.12500000  1
  Mg  Mg1  1  0.16508866  0.83254383  0.62500000  1
  Mg  Mg2  1  0.66588379  0.33176657  0.12500000  1
  Mg  Mg3  1  0.66745617  0.33491134  0.62500000  1
  Mg  Mg4  1  0.66588379  0.83411621  0.12500000  1
  Mg  Mg5  1  0.66745617  0.83254383  0.62500000  1
  Mg  Mg6  1  0.32296513  0.17703487  0.37685589  1
  Mg  Mg7  1  0.32296513  0.17703487  0.87314411  1
  Mg  Mg8  1  0.32296513  0.64593125  0.37685589  1
  Mg  Mg9  1  0.32296513  0.64593125  0.87314411  1
  Mg  Mg10  1  0.85406875  0.17703487  0.37685589  1
  Mg  Mg11  1  0.85406875  0.17703487  0.87314411  1
  Mg  Mg12  1  0.83333300  0.66666700  0.37220425  1
  Mg  Mg13  1  0.83333300  0.66666700  0.87779575  1
  Ni  Ni0  1  0.16666700  0.33333300  0.12500000  1
  C  C0  1  0.16666700  0.33333300  0.62500000  1
loop_
_geom_bond_atom_site_label_1
_geom_bond_atom_site_label_2
_geom_bond_distance
_geom_bond_site_symmetry_2
Mg0 Mg12 2.960790 1_455
Mg0 Mg13 2.960790 1_454
Mg0 Mg9 3.024001 1_554
Mg0 Mg8 3.024001 1_555
Mg0 Mg7 3.024008 1_564
Mg0 Mg6 3.024008 1_565
Mg0 Mg2 3.110294 1_565
Mg0 Mg4 3.110294 1_555
Mg0 Ni0 3.124991 1_555
Mg0 Ni0 3.124991 1_565
Mg0 Mg2 3.139664 1_455
Mg0 Mg4 3.139665 1_455
Mg1 Mg13 2.992588 1_455
Mg1 Mg12 2.992588 1_455
Mg2 Mg7 3.024008 1_554
Mg2 Mg6 3.024008 1_555
Mg2 Mg4 3.110294 1_545
Mg2 Ni0 3.124991 1_655
Mg2 Ni0 3.124991 1_555
Mg2 Mg4 3.139664 1_555
Mg4 Mg9 3.024007 1_554
Mg4 Mg8 3.024007 1_555
Mg4 Ni0 3.124991 1_555
Mg4 Ni0 3.124991 1_665
Mg6 Ni0 2.924273 1_555
Mg7 Ni0 2.924273 1_556
Mg8 Ni0 2.924279 1_555
Mg9 Ni0 2.924279 1_556
Mg10 Ni0 2.924279 1_655
Mg10 Mg2 3.024001 1_555
Mg10 Mg4 3.024007 1_545
Mg10 Mg12 3.127304 1_545
Mg10 Mg12 3.127304 1_555
Mg11 Ni0 2.924279 1_656
Mg11 Mg2 3.024001 1_556
Mg11 Mg4 3.024007 1_546
Mg11 Mg13 3.127304 1_545
Mg11 Mg13 3.127304 1_555
Mg12 Mg4 2.960783 1_555
Mg12 Mg2 2.960790 1_555
Mg12 Mg5 2.992582 1_555
Mg12 Mg3 2.992588 1_555
Mg12 Mg6 3.127304 1_665
Mg12 Mg6 3.127304 1_555
Mg12 Mg8 3.127305 1_555
Mg12 Mg8 3.127305 1_655
Mg13 Mg4 2.960783 1_556
Mg13 Mg2 2.960790 1_556
Mg13 Mg5 2.992582 1_555
Mg13 Mg3 2.992588 1_555
Mg13 Mg7 3.127304 1_665
Mg13 Mg7 3.127304 1_555
Mg13 Mg9 3.127305 1_555
Mg13 Mg9 3.127305 1_655
C0 Mg6 2.895675 1_555
C0 Mg7 2.895675 1_555
C0 Mg8 2.895681 1_555
C0 Mg9 2.895681 1_555
C0 Mg10 2.895681 1_455
C0 Mg11 2.895681 1_455
