# generated using pymatgen
data_LuRe2
_symmetry_space_group_name_H-M   'P 1'
_cell_length_a   5.39400388
_cell_length_b   5.39400388
_cell_length_c   8.72074300
_cell_angle_alpha   90.00000000
_cell_angle_beta   90.00000000
_cell_angle_gamma   119.96099075
_symmetry_Int_Tables_number   1
_chemical_formula_structural   LuRe2
_chemical_formula_sum   'Lu4 Re8'
_cell_volume   219.82506366
_cell_formula_units_Z   4
loop_
 _symmetry_equiv_pos_site_id
 _symmetry_equiv_pos_as_xyz
  1  'x, y, z'
loop_
 _atom_site_type_symbol
 _atom_site_label
 _atom_site_symmetry_multiplicity
 _atom_site_fract_x
 _atom_site_fract_y
 _atom_site_fract_z
 _atom_site_occupancy
  Lu  Lu0  1  0.66661000  0.33339000  0.56295900  1
  Lu  Lu1  1  0.33339000  0.66661000  0.43704100  1
  Lu  Lu2  1  0.33339000  0.66661000  0.06295900  1
  Lu  Lu3  1  0.66661000  0.33339000  0.93704100  1
  Re  Re0  1  0.00000000  0.00000000  0.50000000  1
  Re  Re1  1  0.00000000  0.00000000  0.00000000  1
  Re  Re2  1  0.17192100  0.34410700  0.75000000  1
  Re  Re3  1  0.17232500  0.82767500  0.75000000  1
  Re  Re4  1  0.65589300  0.82807900  0.75000000  1
  Re  Re5  1  0.82807900  0.65589300  0.25000000  1
  Re  Re6  1  0.82767500  0.17232500  0.25000000  1
  Re  Re7  1  0.34410700  0.17192100  0.25000000  1
loop_
_geom_bond_atom_site_label_1
_geom_bond_atom_site_label_2
_geom_bond_distance
_geom_bond_site_symmetry_2
Lu0 Re6 3.116440 1_555
Lu0 Re5 3.117711 1_555
Lu0 Re7 3.117711 1_555
Lu0 Re2 3.152100 1_655
Lu0 Re4 3.152100 1_545
Lu0 Re4 3.152480 1_555
Lu0 Re2 3.152480 1_555
Lu0 Re3 3.153705 1_655
Lu0 Re3 3.153705 1_545
Lu0 Re0 3.162177 1_655
Lu0 Re0 3.163204 1_665
Lu0 Re0 3.163204 1_555
Lu0 Lu3 3.262273 1_555
Lu0 Lu1 3.300582 1_555
Lu0 Lu1 3.303811 1_545
Lu0 Lu1 3.303811 1_655
Lu1 Re3 3.116440 1_555
Lu1 Re4 3.117711 1_555
Lu1 Re2 3.117711 1_555
Lu1 Re7 3.152100 1_565
Lu1 Re5 3.152100 1_455
Lu1 Re7 3.152480 1_555
Lu1 Re5 3.152480 1_555
Lu1 Re6 3.153705 1_565
Lu1 Re6 3.153705 1_455
Lu1 Re0 3.162177 1_565
Lu1 Re0 3.163204 1_665
Lu1 Re0 3.163204 1_555
Lu1 Lu2 3.262273 1_555
Lu2 Re3 3.116440 1_554
Lu2 Re4 3.117711 1_554
Lu2 Re2 3.117711 1_554
Lu2 Re7 3.152100 1_565
Lu2 Re5 3.152100 1_455
Lu2 Re7 3.152480 1_555
Lu2 Re5 3.152480 1_555
Lu2 Re6 3.153705 1_565
Lu2 Re6 3.153705 1_455
Lu2 Re1 3.162177 1_565
Lu2 Re1 3.163204 1_665
Lu2 Re1 3.163204 1_555
Lu2 Lu3 3.300582 1_554
Lu2 Lu3 3.303811 1_454
Lu2 Lu3 3.303811 1_564
Lu3 Re6 3.116440 1_556
Lu3 Re5 3.117711 1_556
Lu3 Re7 3.117711 1_556
Lu3 Re2 3.152100 1_655
Lu3 Re4 3.152100 1_545
Lu3 Re4 3.152480 1_555
Lu3 Re2 3.152480 1_555
Lu3 Re3 3.153705 1_655
Lu3 Re3 3.153705 1_545
Lu3 Re1 3.162177 1_656
Lu3 Re1 3.163204 1_666
Lu3 Re1 3.163204 1_556
Re0 Re5 2.709079 1_445
Re0 Re2 2.709079 1_555
Re0 Re7 2.709079 1_555
Re0 Re4 2.709079 1_445
Re0 Re6 2.710023 1_455
Re0 Re3 2.710023 1_545
Re1 Re5 2.709079 1_445
Re1 Re4 2.709079 1_444
Re1 Re7 2.709079 1_555
Re1 Re2 2.709079 1_554
Re1 Re3 2.710023 1_544
Re1 Re6 2.710023 1_455
Re2 Re3 2.607280 1_555
Re2 Re4 2.612086 1_555
Re2 Re4 2.785098 1_445
Re2 Re3 2.786725 1_545
Re3 Re4 2.607280 1_555
Re3 Re4 2.786725 1_455
Re5 Re6 2.607280 1_555
Re5 Re7 2.612086 1_555
Re5 Re7 2.785098 1_665
Re5 Re6 2.786725 1_565
Re6 Re7 2.607280 1_555
Re6 Re7 2.786725 1_655
