# generated using pymatgen
data_Ni2As2O7
_symmetry_space_group_name_H-M   'P 1'
_cell_length_a   5.37009900
_cell_length_b   7.68322843
_cell_length_c   10.32536459
_cell_angle_alpha   72.44889689
_cell_angle_beta   76.01295168
_cell_angle_gamma   84.73366579
_symmetry_Int_Tables_number   1
_chemical_formula_structural   Ni2As2O7
_chemical_formula_sum   'Ni6 As6 O21'
_cell_volume   394.06382692
_cell_formula_units_Z   3
loop_
 _symmetry_equiv_pos_site_id
 _symmetry_equiv_pos_as_xyz
  1  'x, y, z'
loop_
 _atom_site_type_symbol
 _atom_site_label
 _atom_site_symmetry_multiplicity
 _atom_site_fract_x
 _atom_site_fract_y
 _atom_site_fract_z
 _atom_site_occupancy
  Ni  Ni0  1  0.55895600  0.86506900  0.09924100  1
  Ni  Ni1  1  0.90492000  0.47933900  0.77069600  1
  Ni  Ni2  1  0.24675400  0.13278100  0.43694400  1
  Ni  Ni3  1  0.11550800  0.53182500  0.22591000  1
  Ni  Ni4  1  0.39862200  0.24144000  0.88519800  1
  Ni  Ni5  1  0.75027600  0.89222100  0.56034600  1
  As  As0  1  0.30748900  0.69799700  0.45320800  1
  As  As1  1  0.66360000  0.31466400  0.12697900  1
  As  As2  1  0.97514400  0.03948200  0.78875100  1
  As  As3  1  0.36699900  0.66846500  0.88393200  1
  As  As4  1  0.68966700  0.32799600  0.53744300  1
  As  As5  1  0.00008200  0.94610200  0.21338200  1
  O  O0  1  0.28099600  0.73711900  0.28147800  1
  O  O1  1  0.63663700  0.36613200  0.95555600  1
  O  O2  1  0.99073800  0.02375300  0.62476600  1
  O  O3  1  0.40607900  0.65194000  0.04813900  1
  O  O4  1  0.66544700  0.35030300  0.69975200  1
  O  O5  1  0.98967600  0.99958000  0.36653800  1
  O  O6  1  0.50728600  0.50692100  0.44985500  1
  O  O7  1  0.71904400  0.07260500  0.16088600  1
  O  O8  1  0.15932000  0.86262900  0.87243300  1
  O  O9  1  0.92136500  0.40566300  0.14003500  1
  O  O10  1  0.12296800  0.23095400  0.78269900  1
  O  O11  1  0.46580200  0.87184700  0.46492700  1
  O  O12  1  0.86712400  0.75558400  0.19902200  1
  O  O13  1  0.20250900  0.50488500  0.85955800  1
  O  O14  1  0.53289600  0.14182700  0.54159400  1
  O  O15  1  0.38266300  0.31606800  0.24799100  1
  O  O16  1  0.67334800  0.00872500  0.89385000  1
  O  O17  1  0.02142500  0.65197900  0.56987600  1
  O  O18  1  0.25170700  0.04413800  0.07960200  1
  O  O19  1  0.64736000  0.71626700  0.75951100  1
  O  O20  1  0.99050700  0.36383600  0.43231300  1
loop_
_geom_bond_atom_site_label_1
_geom_bond_atom_site_label_2
_geom_bond_distance
_geom_bond_site_symmetry_2
Ni0 O16 2.043551 1_564
Ni0 O18 2.057460 1_565
Ni0 O0 2.128648 1_555
Ni0 O12 2.133942 1_555
Ni0 O3 2.147360 1_555
Ni0 O7 2.194326 1_565
Ni1 O4 2.073811 1_555
Ni1 O13 2.075877 1_655
Ni1 O17 2.077699 1_655
Ni1 O1 2.091625 1_555
Ni1 O10 2.132074 1_655
Ni1 O19 2.174477 1_555
Ni2 O15 2.040964 1_555
Ni2 O2 2.072590 1_455
Ni2 O14 2.097887 1_555
Ni2 O20 2.139986 1_455
Ni2 O5 2.162163 1_445
Ni2 O11 2.206467 1_545
Ni3 O9 1.990863 1_455
Ni3 O12 2.069309 1_455
Ni3 O15 2.086097 1_555
Ni3 O20 2.113517 1_455
Ni3 O3 2.124594 1_555
Ni3 O0 2.157899 1_555
Ni4 O10 2.036780 1_555
Ni4 O1 2.042722 1_555
Ni4 O4 2.084936 1_555
Ni4 O18 2.137396 1_556
Ni4 O13 2.167140 1_555
Ni4 O16 2.205585 1_555
Ni5 O2 2.047286 1_565
Ni5 O11 2.047781 1_555
Ni5 O19 2.067144 1_555
Ni5 O5 2.072008 1_555
Ni5 O14 2.133642 1_565
Ni5 O17 2.236814 1_655
As0 O11 1.696245 1_555
As0 O17 1.698326 1_555
As0 O6 1.741029 1_555
As0 O0 1.745677 1_555
As1 O9 1.657647 1_555
As1 O15 1.712103 1_555
As1 O1 1.732483 1_554
As1 O7 1.796134 1_555
As2 O16 1.710414 1_555
As2 O10 1.712667 1_655
As2 O2 1.715101 1_555
As2 O8 1.740528 1_645
As3 O13 1.710333 1_555
As3 O19 1.712891 1_555
As3 O3 1.723995 1_556
As3 O8 1.770635 1_555
As4 O20 1.708148 1_555
As4 O4 1.708421 1_555
As4 O14 1.709741 1_555
As4 O6 1.760164 1_555
As5 O18 1.719984 1_565
As5 O5 1.737152 1_455
As5 O12 1.745967 1_455
As5 O7 1.823354 1_465
As5 O0 2.176099 1_555
