# generated using pymatgen
data_Sm(BOs)4
_symmetry_space_group_name_H-M   'P 1'
_cell_length_a   7.59441600
_cell_length_b   7.59441600
_cell_length_c   4.01884100
_cell_angle_alpha   90.00000000
_cell_angle_beta   90.00000000
_cell_angle_gamma   90.00000000
_symmetry_Int_Tables_number   1
_chemical_formula_structural   Sm(BOs)4
_chemical_formula_sum   'Sm2 B8 Os8'
_cell_volume   231.78727511
_cell_formula_units_Z   2
loop_
 _symmetry_equiv_pos_site_id
 _symmetry_equiv_pos_as_xyz
  1  'x, y, z'
loop_
 _atom_site_type_symbol
 _atom_site_label
 _atom_site_symmetry_multiplicity
 _atom_site_fract_x
 _atom_site_fract_y
 _atom_site_fract_z
 _atom_site_occupancy
  Sm  Sm0  1  0.00000000  0.00000000  0.00000000  1
  Sm  Sm1  1  0.50000000  0.50000000  0.50000000  1
  B  B0  1  0.66498800  0.78289900  0.11212600  1
  B  B1  1  0.33501200  0.21710100  0.11212600  1
  B  B2  1  0.28289900  0.83501200  0.61212600  1
  B  B3  1  0.71710100  0.16498800  0.61212600  1
  B  B4  1  0.83501200  0.71710100  0.38787400  1
  B  B5  1  0.16498800  0.28289900  0.38787400  1
  B  B6  1  0.21710100  0.66498800  0.88787400  1
  B  B7  1  0.78289900  0.33501200  0.88787400  1
  Os  Os0  1  0.14602900  0.39290700  0.88694300  1
  Os  Os1  1  0.85397100  0.60709300  0.88694300  1
  Os  Os2  1  0.89290700  0.35397100  0.38694400  1
  Os  Os3  1  0.10709300  0.64602900  0.38694400  1
  Os  Os4  1  0.35397100  0.10709300  0.61305700  1
  Os  Os5  1  0.64602900  0.89290700  0.61305700  1
  Os  Os6  1  0.60709300  0.14602900  0.11305700  1
  Os  Os7  1  0.39290700  0.85397100  0.11305700  1
loop_
_geom_bond_atom_site_label_1
_geom_bond_atom_site_label_2
_geom_bond_distance
_geom_bond_site_symmetry_2
B0 B4 1.773432 1_555
B0 Os7 2.135632 1_555
B0 Os1 2.159035 1_554
B0 Os5 2.177487 1_554
B0 Os5 2.184382 1_555
B0 Sm1 2.935251 1_555
B0 Sm0 3.065046 1_665
B1 B5 1.773432 1_555
B1 Os6 2.135632 1_555
B1 Os0 2.159035 1_554
B1 Os4 2.177487 1_554
B1 Os4 2.184382 1_555
B1 Sm1 2.935251 1_555
B1 Sm0 3.065046 1_555
B2 B6 1.773432 1_555
B2 Os4 2.135632 1_565
B2 Os3 2.159033 1_555
B2 Os7 2.177487 1_555
B2 Os7 2.184382 1_556
B2 Sm0 2.935251 1_566
B2 Sm1 3.065046 1_555
B3 B7 1.773432 1_555
B3 Os5 2.135632 1_545
B3 Os2 2.159033 1_555
B3 Os6 2.177487 1_555
B3 Os6 2.184382 1_556
B3 Sm0 2.935251 1_656
B3 Sm1 3.065046 1_555
B4 Os3 2.135632 1_655
B4 Os5 2.159035 1_555
B4 Os1 2.177487 1_555
B4 Os1 2.184382 1_554
B4 Sm0 2.935251 1_665
B4 Sm1 3.065046 1_555
B5 Os2 2.135632 1_455
B5 Os4 2.159035 1_555
B5 Os0 2.177487 1_555
B5 Os0 2.184382 1_554
B5 Sm0 2.935251 1_555
B5 Sm1 3.065046 1_555
B6 Os0 2.135632 1_555
B6 Os7 2.159035 1_556
B6 Os3 2.177491 1_556
B6 Os3 2.184378 1_555
B6 Sm1 2.935251 1_555
B6 Sm0 3.065046 1_566
B7 Os1 2.135632 1_555
B7 Os6 2.159035 1_556
B7 Os2 2.177491 1_556
B7 Os2 2.184378 1_555
B7 Sm1 2.935251 1_555
B7 Sm0 3.065046 1_656
Os0 Sm1 3.210316 1_555
Os0 Sm0 3.215585 1_556
Os1 Sm1 3.210316 1_555
Os1 Sm0 3.215585 1_666
Os2 Sm0 3.210317 1_655
Os2 Sm1 3.215585 1_555
Os3 Sm0 3.210317 1_565
Os3 Sm1 3.215585 1_555
Os4 Sm0 3.210316 1_556
Os4 Sm1 3.215585 1_555
Os5 Sm0 3.210316 1_666
Os5 Sm1 3.215585 1_555
Os6 Sm1 3.210316 1_555
Os6 Sm0 3.215585 1_655
Os7 Sm1 3.210316 1_555
Os7 Sm0 3.215585 1_565
