# generated using pymatgen
data_LiMg6W
_symmetry_space_group_name_H-M   'P 1'
_cell_length_a   4.93285500
_cell_length_b   6.18102500
_cell_length_c   10.49544100
_cell_angle_alpha   90.00000000
_cell_angle_beta   90.00000000
_cell_angle_gamma   90.00000000
_symmetry_Int_Tables_number   1
_chemical_formula_structural   LiMg6W
_chemical_formula_sum   'Li2 Mg12 W2'
_cell_volume   320.00704644
_cell_formula_units_Z   2
loop_
 _symmetry_equiv_pos_site_id
 _symmetry_equiv_pos_as_xyz
  1  'x, y, z'
loop_
 _atom_site_type_symbol
 _atom_site_label
 _atom_site_symmetry_multiplicity
 _atom_site_fract_x
 _atom_site_fract_y
 _atom_site_fract_z
 _atom_site_occupancy
  Li  Li0  1  0.00000000  0.50000000  0.41124100  1
  Li  Li1  1  0.00000000  0.00000000  0.91124100  1
  Mg  Mg0  1  0.00000000  0.26650700  0.15901100  1
  Mg  Mg1  1  0.00000000  0.73349300  0.15901100  1
  Mg  Mg2  1  0.00000000  0.50000000  0.92404600  1
  Mg  Mg3  1  0.50000000  0.24890200  0.83644500  1
  Mg  Mg4  1  0.50000000  0.75109800  0.83644500  1
  Mg  Mg5  1  0.50000000  0.50000000  0.58756900  1
  Mg  Mg6  1  0.00000000  0.76650700  0.65901100  1
  Mg  Mg7  1  0.00000000  0.23349300  0.65901100  1
  Mg  Mg8  1  0.00000000  0.00000000  0.42404600  1
  Mg  Mg9  1  0.50000000  0.74890200  0.33644500  1
  Mg  Mg10  1  0.50000000  0.25109800  0.33644500  1
  Mg  Mg11  1  0.50000000  0.00000000  0.08756900  1
  W  W0  1  0.50000000  0.50000000  0.08623100  1
  W  W1  1  0.50000000  0.00000000  0.58623100  1
loop_
_geom_bond_atom_site_label_1
_geom_bond_atom_site_label_2
_geom_bond_distance
_geom_bond_site_symmetry_2
Li0 Mg10 3.011047 1_455
Li0 Mg10 3.011047 1_555
Li0 Mg9 3.011047 1_455
Li0 Mg9 3.011047 1_555
Li0 Mg1 3.015114 1_555
Li0 Mg0 3.015114 1_555
Li0 Mg7 3.078298 1_555
Li0 Mg6 3.078298 1_555
Li0 Mg5 3.083526 1_555
Li0 Mg5 3.083526 1_455
Li0 Mg8 3.093433 1_565
Li0 Mg8 3.093433 1_555
Li1 Mg4 3.011047 1_445
Li1 Mg3 3.011047 1_555
Li1 Mg4 3.011047 1_545
Li1 Mg3 3.011047 1_455
Li1 Mg7 3.015114 1_555
Li1 Mg6 3.015114 1_545
Li1 Mg0 3.078298 1_556
Li1 Mg1 3.078298 1_546
Li1 Mg11 3.083526 1_556
Li1 Mg11 3.083526 1_456
Li1 Mg2 3.093433 1_555
Li1 Mg2 3.093433 1_545
Mg0 Mg2 2.857334 1_554
Mg0 Mg1 2.886452 1_555
Mg0 W0 2.957980 1_455
Mg0 W0 2.957980 1_555
Mg0 Mg11 3.059255 1_455
Mg0 Mg11 3.059255 1_555
Mg0 Mg10 3.091974 1_455
Mg0 Mg10 3.091974 1_555
Mg0 Mg8 3.232829 1_555
Mg0 Mg1 3.294573 1_545
Mg1 Mg2 2.857334 1_554
Mg1 W0 2.957980 1_455
Mg1 W0 2.957980 1_555
Mg1 Mg11 3.059255 1_465
Mg1 Mg11 3.059255 1_565
Mg1 Mg9 3.091974 1_455
Mg1 Mg9 3.091974 1_555
Mg1 Mg8 3.232829 1_565
Mg2 W0 2.996792 1_556
Mg2 W0 2.996792 1_456
Mg2 Mg4 3.055719 1_555
Mg2 Mg3 3.055719 1_555
Mg2 Mg3 3.055719 1_455
Mg2 Mg4 3.055719 1_455
Mg2 Mg7 3.232829 1_555
Mg2 Mg6 3.232829 1_555
Mg3 Mg5 3.038373 1_555
Mg3 W1 3.043571 1_555
Mg3 W0 3.046588 1_556
Mg3 Mg4 3.076939 1_545
Mg3 Mg7 3.091974 1_555
Mg3 Mg7 3.091974 1_655
Mg3 Mg4 3.104086 1_555
Mg4 Mg5 3.038373 1_555
Mg4 W1 3.043571 1_565
Mg4 W0 3.046588 1_556
Mg4 Mg6 3.091974 1_655
Mg4 Mg6 3.091974 1_555
Mg5 Mg9 3.051815 1_555
Mg5 Mg7 3.059255 1_555
Mg5 Mg6 3.059255 1_655
Mg5 Mg7 3.059255 1_655
Mg5 Mg6 3.059255 1_555
Mg5 W1 3.090544 1_565
Mg5 W1 3.090544 1_555
Mg6 Mg8 2.857334 1_565
Mg6 Mg7 2.886452 1_565
Mg6 W1 2.957980 1_565
Mg6 W1 2.957980 1_465
Mg6 Mg7 3.294573 1_555
Mg7 Mg8 2.857334 1_555
Mg7 W1 2.957980 1_555
Mg7 W1 2.957980 1_455
Mg8 W1 2.996792 1_455
Mg8 W1 2.996792 1_555
Mg8 Mg9 3.055719 1_445
Mg8 Mg9 3.055719 1_545
Mg9 W0 3.043571 1_555
Mg9 W1 3.046588 1_565
Mg10 Mg11 3.038373 1_555
Mg10 W0 3.043571 1_555
Mg10 W1 3.046588 1_555
Mg10 Mg5 3.051815 1_555
Mg10 Mg8 3.055719 1_655
Mg10 Mg8 3.055719 1_555
Mg10 Mg9 3.076939 1_555
Mg10 Mg9 3.104086 1_545
Mg11 Mg9 3.038373 1_545
Mg11 Mg4 3.051815 1_544
Mg11 Mg3 3.051815 1_554
Mg11 W0 3.090544 1_555
Mg11 W0 3.090544 1_545
