# generated using pymatgen
data_Tb6Ni2Sn
_symmetry_space_group_name_H-M   'P 1'
_cell_length_a   8.46074232
_cell_length_b   8.46074232
_cell_length_c   8.46074232
_cell_angle_alpha   107.34671715
_cell_angle_beta   109.15133740
_cell_angle_gamma   111.94907123
_symmetry_Int_Tables_number   1
_chemical_formula_structural   Tb6Ni2Sn
_chemical_formula_sum   'Tb12 Ni4 Sn2'
_cell_volume   465.46606959
_cell_formula_units_Z   2
loop_
 _symmetry_equiv_pos_site_id
 _symmetry_equiv_pos_as_xyz
  1  'x, y, z'
loop_
 _atom_site_type_symbol
 _atom_site_label
 _atom_site_symmetry_multiplicity
 _atom_site_fract_x
 _atom_site_fract_y
 _atom_site_fract_z
 _atom_site_occupancy
  Tb  Tb0  1  0.70569500  0.26506900  0.97076400  1
  Tb  Tb1  1  0.29430500  0.73493100  0.02923600  1
  Tb  Tb2  1  0.70569500  0.73493100  0.44062600  1
  Tb  Tb3  1  0.29430500  0.26506900  0.55937400  1
  Tb  Tb4  1  0.81050000  0.13542400  0.32492400  1
  Tb  Tb5  1  0.81050000  0.48557600  0.67507600  1
  Tb  Tb6  1  0.18950000  0.86457600  0.67507600  1
  Tb  Tb7  1  0.18950000  0.51442400  0.32492400  1
  Tb  Tb8  1  0.60487600  0.78600100  0.81887500  1
  Tb  Tb9  1  0.96712700  0.78600100  0.18112500  1
  Tb  Tb10  1  0.03287300  0.21399900  0.81887500  1
  Tb  Tb11  1  0.39512400  0.21399900  0.18112500  1
  Ni  Ni0  1  0.85152500  0.50000000  0.35152500  1
  Ni  Ni1  1  0.14847500  0.50000000  0.64847500  1
  Ni  Ni2  1  0.00000000  0.12171800  0.12171800  1
  Ni  Ni3  1  0.00000000  0.87828200  0.87828200  1
  Sn  Sn0  1  0.50000000  0.50000000  0.00000000  1
  Sn  Sn1  1  0.50000000  0.00000000  0.50000000  1
loop_
_geom_bond_atom_site_label_1
_geom_bond_atom_site_label_2
_geom_bond_distance
_geom_bond_site_symmetry_2
Tb0 Tb4 3.451362 1_556
Tb0 Tb7 3.451362 1_656
Tb0 Tb10 3.521087 1_655
Tb0 Tb8 3.521095 1_545
Tb0 Tb9 3.596857 1_556
Tb0 Tb11 3.596857 1_556
Tb0 Tb5 3.677996 1_555
Tb0 Tb6 3.677996 1_545
Tb1 Tb6 3.451362 1_554
Tb1 Tb5 3.451362 1_454
Tb1 Tb9 3.521087 1_455
Tb1 Tb11 3.521095 1_565
Tb1 Tb10 3.596857 1_554
Tb1 Tb8 3.596857 1_554
Tb1 Tb4 3.677996 1_565
Tb1 Tb7 3.677996 1_555
Tb2 Tb6 3.451362 1_655
Tb2 Tb5 3.451362 1_555
Tb2 Tb8 3.521095 1_555
Tb2 Tb9 3.596864 1_555
Tb2 Tb4 3.677996 1_565
Tb2 Tb7 3.677996 1_555
Tb3 Tb7 3.451362 1_555
Tb3 Tb4 3.451362 1_455
Tb3 Tb9 3.521095 1_445
Tb3 Tb8 3.596857 1_555
Tb3 Tb5 3.677996 1_555
Tb3 Tb6 3.677996 1_545
Tb4 Tb8 3.717289 1_544
Tb4 Tb9 3.717296 1_545
Tb5 Tb9 3.717287 1_556
Tb5 Tb8 3.717289 1_555
Tb6 Tb9 3.700887 1_455
Tb6 Tb8 3.700888 1_555
Tb7 Tb9 3.700882 1_455
Tb7 Tb8 3.700888 1_555
Tb8 Tb9 3.553009 1_556
Tb10 Tb2 3.521095 1_445
Tb10 Tb11 3.553009 1_556
Tb10 Tb3 3.596864 1_555
Tb10 Tb5 3.700882 1_455
Tb10 Tb4 3.700887 1_455
Tb10 Tb7 3.717287 1_556
Tb10 Tb6 3.717296 1_545
Tb11 Tb3 3.521095 1_555
Tb11 Tb2 3.596857 1_555
Tb11 Tb4 3.700888 1_555
Tb11 Tb5 3.700888 1_555
Tb11 Tb6 3.717289 1_544
Tb11 Tb7 3.717289 1_555
Ni0 Tb2 2.755303 1_555
Ni0 Tb0 2.755303 1_554
Ni0 Tb7 2.901753 1_655
Ni0 Tb6 2.901753 1_655
Ni0 Tb4 2.901753 1_555
Ni0 Tb5 2.901753 1_555
Ni0 Ni1 2.912531 1_655
Ni0 Tb11 3.182249 1_555
Ni0 Tb9 3.182251 1_555
Ni1 Tb1 2.755303 1_556
Ni1 Tb3 2.755303 1_555
Ni1 Tb5 2.901753 1_455
Ni1 Tb4 2.901753 1_455
Ni1 Tb6 2.901753 1_555
Ni1 Tb7 2.901753 1_555
Ni1 Tb8 3.182249 1_555
Ni1 Tb10 3.182251 1_555
Ni2 Ni3 2.440222 1_544
Ni2 Tb7 2.714534 1_555
Ni2 Tb4 2.714534 1_455
Ni2 Tb10 2.958107 1_554
Ni2 Tb8 2.958109 1_444
Ni2 Tb11 2.958109 1_555
Ni2 Tb9 2.958111 1_445
Ni2 Tb3 3.224477 1_555
Ni2 Tb0 3.224477 1_454
Ni3 Tb6 2.714534 1_555
Ni3 Tb5 2.714534 1_455
Ni3 Tb9 2.958107 1_456
Ni3 Tb8 2.958109 1_455
Ni3 Tb11 2.958109 1_566
Ni3 Tb10 2.958111 1_565
Ni3 Tb1 3.224477 1_556
Ni3 Tb2 3.224477 1_455
Sn0 Tb2 3.100989 1_555
Sn0 Tb0 3.100989 1_554
Sn0 Tb1 3.100989 1_555
Sn0 Tb3 3.100989 1_554
Sn0 Tb11 3.238733 1_555
Sn0 Tb8 3.238733 1_554
Sn0 Tb10 3.238740 1_554
Sn0 Tb9 3.238740 1_555
Sn1 Tb3 3.336210 1_555
Sn1 Tb0 3.336210 1_555
Sn1 Tb2 3.336210 1_545
Sn1 Tb1 3.336210 1_545
Sn1 Tb5 3.423968 1_555
Sn1 Tb4 3.423968 1_555
Sn1 Tb7 3.423968 1_545
Sn1 Tb6 3.423968 1_545
Sn1 Tb10 3.726588 1_655
Sn1 Tb9 3.726588 1_445
Sn1 Tb8 3.726595 1_545
Sn1 Tb11 3.726595 1_555
