# generated using pymatgen
data_Er5In3
_symmetry_space_group_name_H-M   'P 1'
_cell_length_a   8.93800123
_cell_length_b   8.93800123
_cell_length_c   6.48655282
_cell_angle_alpha   90.00000000
_cell_angle_beta   90.00000000
_cell_angle_gamma   120.00000629
_symmetry_Int_Tables_number   1
_chemical_formula_structural   Er5In3
_chemical_formula_sum   'Er10 In6'
_cell_volume   448.77161857
_cell_formula_units_Z   2
loop_
 _symmetry_equiv_pos_site_id
 _symmetry_equiv_pos_as_xyz
  1  'x, y, z'
loop_
 _atom_site_type_symbol
 _atom_site_label
 _atom_site_symmetry_multiplicity
 _atom_site_fract_x
 _atom_site_fract_y
 _atom_site_fract_z
 _atom_site_occupancy
  Er  Er0  1  0.66666700  0.33333300  0.00000000  1
  Er  Er1  1  0.33333300  0.66666700  0.00000000  1
  Er  Er2  1  0.33333300  0.66666700  0.50000000  1
  Er  Er3  1  0.66666700  0.33333300  0.50000000  1
  Er  Er4  1  0.76352299  0.76352299  0.75000000  1
  Er  Er5  1  0.23647701  -0.00000000  0.75000000  1
  Er  Er6  1  -0.00000000  0.23647701  0.75000000  1
  Er  Er7  1  0.23647701  0.23647701  0.25000000  1
  Er  Er8  1  0.76352299  0.00000000  0.25000000  1
  Er  Er9  1  0.00000000  0.76352299  0.25000000  1
  In  In0  1  0.40119428  0.40119428  0.75000000  1
  In  In1  1  0.59880572  0.00000000  0.75000000  1
  In  In2  1  0.00000000  0.59880572  0.75000000  1
  In  In3  1  0.59880572  0.59880572  0.25000000  1
  In  In4  1  0.40119428  -0.00000000  0.25000000  1
  In  In5  1  -0.00000000  0.40119428  0.25000000  1
loop_
_geom_bond_atom_site_label_1
_geom_bond_atom_site_label_2
_geom_bond_distance
_geom_bond_site_symmetry_2
Er0 In1 3.172841 1_554
Er0 In5 3.172841 1_655
Er0 In4 3.172844 1_555
Er0 In2 3.172844 1_654
Er0 In0 3.172849 1_554
Er0 In3 3.172849 1_555
Er0 Er3 3.243276 1_555
Er0 Er3 3.243276 1_554
Er0 Er6 3.851592 1_654
Er0 Er8 3.851592 1_555
Er0 Er9 3.851597 1_655
Er0 Er5 3.851597 1_554
Er0 Er4 3.851600 1_554
Er0 Er7 3.851600 1_555
Er1 In4 3.172841 1_565
Er1 In2 3.172841 1_554
Er1 In1 3.172844 1_564
Er1 In5 3.172844 1_555
Er1 In0 3.172849 1_554
Er1 In3 3.172849 1_555
Er1 Er2 3.243276 1_555
Er1 Er2 3.243276 1_554
Er1 Er5 3.851592 1_564
Er1 Er9 3.851592 1_555
Er1 Er6 3.851597 1_554
Er1 Er8 3.851597 1_565
Er1 Er4 3.851600 1_554
Er1 Er7 3.851600 1_555
Er2 In4 3.172841 1_565
Er2 In2 3.172841 1_555
Er2 In5 3.172844 1_555
Er2 In1 3.172844 1_565
Er2 In3 3.172849 1_555
Er2 In0 3.172849 1_555
Er2 Er5 3.851592 1_565
Er2 Er9 3.851592 1_555
Er2 Er6 3.851597 1_555
Er2 Er8 3.851597 1_565
Er2 Er7 3.851600 1_555
Er2 Er4 3.851600 1_555
Er3 In1 3.172841 1_555
Er3 In5 3.172841 1_655
Er3 In4 3.172844 1_555
Er3 In2 3.172844 1_655
Er3 In3 3.172849 1_555
Er3 In0 3.172849 1_555
Er3 Er6 3.851592 1_655
Er3 Er8 3.851592 1_555
Er3 Er9 3.851597 1_655
Er3 Er5 3.851597 1_555
Er3 Er4 3.851600 1_555
Er3 Er7 3.851600 1_555
Er4 In1 3.121974 1_565
Er4 In2 3.121974 1_655
Er4 In0 3.238494 1_555
Er4 In3 3.561789 1_555
Er4 In3 3.561789 1_556
Er4 Er6 3.660917 1_665
Er4 Er5 3.660917 1_665
Er4 Er8 3.871212 1_566
Er4 Er9 3.871212 1_655
Er4 Er8 3.871212 1_565
Er4 Er9 3.871212 1_656
Er5 In2 3.121973 1_545
Er5 In0 3.121973 1_555
Er5 In1 3.238494 1_555
Er5 In4 3.561789 1_556
Er5 In4 3.561789 1_555
Er5 Er6 3.660918 1_555
Er5 Er9 3.871212 1_545
Er5 Er9 3.871212 1_546
Er5 Er7 3.871212 1_555
Er5 Er7 3.871212 1_556
Er6 In1 3.121973 1_455
Er6 In0 3.121973 1_555
Er6 In2 3.238494 1_555
Er6 In5 3.561789 1_555
Er6 In5 3.561789 1_556
Er6 Er8 3.871212 1_455
Er6 Er8 3.871212 1_456
Er6 Er7 3.871212 1_555
Er6 Er7 3.871212 1_556
Er7 In4 3.121974 1_555
Er7 In5 3.121974 1_555
Er7 In3 3.238494 1_555
Er7 In0 3.561789 1_555
Er7 In0 3.561789 1_554
Er7 Er9 3.660917 1_545
Er7 Er8 3.660917 1_455
Er8 In5 3.121973 1_655
Er8 In3 3.121973 1_545
Er8 In4 3.238494 1_555
Er8 In1 3.561789 1_554
Er8 In1 3.561789 1_555
Er8 Er9 3.660918 1_645
Er9 In4 3.121973 1_565
Er9 In3 3.121973 1_455
Er9 In5 3.238494 1_555
Er9 In2 3.561789 1_555
Er9 In2 3.561789 1_554
