# generated using pymatgen
data_MgCo(GeO3)2
_symmetry_space_group_name_H-M   'P 1'
_cell_length_a   9.06014800
_cell_length_b   5.44673400
_cell_length_c   9.86147555
_cell_angle_alpha   76.58865934
_cell_angle_beta   90.00000000
_cell_angle_gamma   90.00000000
_symmetry_Int_Tables_number   1
_chemical_formula_structural   MgCo(GeO3)2
_chemical_formula_sum   'Mg4 Co4 Ge8 O24'
_cell_volume   473.37537894
_cell_formula_units_Z   4
loop_
 _symmetry_equiv_pos_site_id
 _symmetry_equiv_pos_as_xyz
  1  'x, y, z'
loop_
 _atom_site_type_symbol
 _atom_site_label
 _atom_site_symmetry_multiplicity
 _atom_site_fract_x
 _atom_site_fract_y
 _atom_site_fract_z
 _atom_site_occupancy
  Mg  Mg0  1  0.49127600  0.55914700  0.24499300  1
  Mg  Mg1  1  0.99127600  0.94085300  0.75500700  1
  Mg  Mg2  1  0.50872400  0.44085300  0.75500700  1
  Mg  Mg3  1  0.00872400  0.05914700  0.24499300  1
  Co  Co0  1  0.65386800  0.05073500  0.24435500  1
  Co  Co1  1  0.15386800  0.44926500  0.75564500  1
  Co  Co2  1  0.34613200  0.94926500  0.75564500  1
  Co  Co3  1  0.84613200  0.55073500  0.24435500  1
  Ge  Ge0  1  0.33889300  0.17461800  0.05580800  1
  Ge  Ge1  1  0.83889300  0.32538200  0.94419200  1
  Ge  Ge2  1  0.66110700  0.82538200  0.94419200  1
  Ge  Ge3  1  0.16110700  0.67461800  0.05580800  1
  Ge  Ge4  1  0.34400900  0.76253900  0.45903900  1
  Ge  Ge5  1  0.84400900  0.73746100  0.54096100  1
  Ge  Ge6  1  0.65599100  0.23746100  0.54096100  1
  Ge  Ge7  1  0.15599100  0.26253900  0.45903900  1
  O  O0  1  0.28873200  0.49915300  0.38651000  1
  O  O1  1  0.78873200  0.00084700  0.61349000  1
  O  O2  1  0.71126800  0.50084700  0.61349000  1
  O  O3  1  0.21126800  0.99915300  0.38651000  1
  O  O4  1  0.32181700  0.83129300  0.11111300  1
  O  O5  1  0.82181700  0.66870700  0.88888700  1
  O  O6  1  0.67818300  0.16870700  0.88888700  1
  O  O7  1  0.17818300  0.33129300  0.11111300  1
  O  O8  1  0.98712900  0.30827600  0.37354600  1
  O  O9  1  0.48712900  0.19172400  0.62645400  1
  O  O10  1  0.01287100  0.69172400  0.62645400  1
  O  O11  1  0.51287100  0.80827600  0.37354600  1
  O  O12  1  0.01379000  0.77727600  0.14055600  1
  O  O13  1  0.51379000  0.72272400  0.85944400  1
  O  O14  1  0.98621000  0.22272400  0.85944400  1
  O  O15  1  0.48621000  0.27727600  0.14055600  1
  O  O16  1  0.33875300  0.23983200  0.87098900  1
  O  O17  1  0.83875300  0.26016800  0.12901100  1
  O  O18  1  0.66124700  0.76016800  0.12901100  1
  O  O19  1  0.16124700  0.73983200  0.87098900  1
  O  O20  1  0.34195000  0.67180500  0.64244000  1
  O  O21  1  0.84195000  0.82819500  0.35756000  1
  O  O22  1  0.65805000  0.32819500  0.35756000  1
  O  O23  1  0.15805000  0.17180500  0.64244000  1
loop_
_geom_bond_atom_site_label_1
_geom_bond_atom_site_label_2
_geom_bond_distance
_geom_bond_site_symmetry_2
Mg0 O15 2.037980 1_555
Mg0 O11 2.069943 1_555
Mg0 O18 2.073056 1_555
Mg0 O22 2.109506 1_555
Mg0 O0 2.282620 1_555
Mg0 O4 2.321572 1_555
Mg1 O14 2.037980 1_565
Mg1 O10 2.069943 1_655
Mg1 O19 2.073056 1_655
Mg1 O23 2.109506 1_665
Mg1 O1 2.282620 1_565
Mg1 O5 2.321572 1_555
Mg2 O13 2.037980 1_555
Mg2 O9 2.069943 1_555
Mg2 O16 2.073056 1_555
Mg2 O20 2.109506 1_555
Mg2 O2 2.282620 1_555
Mg2 O6 2.321572 1_555
Mg3 O12 2.037980 1_545
Mg3 O8 2.069943 1_455
Mg3 O17 2.073056 1_455
Mg3 O21 2.109506 1_445
Mg3 O3 2.282620 1_545
Mg3 O7 2.321572 1_555
Co0 O11 2.053909 1_545
Co0 O15 2.071663 1_555
Co0 O22 2.077068 1_555
Co0 O18 2.153629 1_545
Co0 O17 2.190682 1_555
Co0 O21 2.234185 1_545
Co1 O10 2.053909 1_555
Co1 O14 2.071663 1_455
Co1 O23 2.077068 1_555
Co1 O19 2.153629 1_555
Co1 O16 2.190682 1_555
Co1 O20 2.234185 1_555
Co2 O9 2.053909 1_565
Co2 O13 2.071663 1_555
Co2 O20 2.077068 1_555
Co2 O16 2.153629 1_565
Co2 O19 2.190682 1_555
Co2 O23 2.234185 1_565
Co3 O8 2.053909 1_555
Co3 O12 2.071663 1_655
Co3 O21 2.077068 1_555
Co3 O17 2.153629 1_555
Co3 O18 2.190682 1_555
Co3 O22 2.234185 1_555
Ge0 O15 1.734747 1_555
Ge0 O16 1.774172 1_554
Ge0 O4 1.828984 1_545
Ge0 O7 1.833489 1_555
Ge1 O14 1.734747 1_555
Ge1 O17 1.774172 1_556
Ge1 O5 1.828984 1_555
Ge1 O6 1.833489 1_555
Ge2 O13 1.734747 1_555
Ge2 O18 1.774172 1_556
Ge2 O6 1.828984 1_565
Ge2 O5 1.833489 1_555
Ge3 O12 1.734747 1_555
Ge3 O19 1.774172 1_554
Ge3 O7 1.828984 1_555
Ge3 O4 1.833489 1_555
Ge4 O11 1.736683 1_555
Ge4 O20 1.760968 1_555
Ge4 O3 1.786417 1_555
Ge4 O0 1.815607 1_555
Ge5 O10 1.736683 1_655
Ge5 O21 1.760968 1_555
Ge5 O2 1.786417 1_555
Ge5 O1 1.815607 1_565
Ge6 O9 1.736683 1_555
Ge6 O22 1.760968 1_555
Ge6 O1 1.786417 1_555
Ge6 O2 1.815607 1_555
Ge7 O8 1.736683 1_455
Ge7 O23 1.760968 1_555
Ge7 O0 1.786417 1_555
Ge7 O3 1.815607 1_545
