# generated using pymatgen
data_Li9Mn2Co5O16
_symmetry_space_group_name_H-M   'P 1'
_cell_length_a   5.90997800
_cell_length_b   6.44740668
_cell_length_c   7.89181480
_cell_angle_alpha   88.63037063
_cell_angle_beta   103.75454412
_cell_angle_gamma   104.95783408
_symmetry_Int_Tables_number   1
_chemical_formula_structural   Li9Mn2Co5O16
_chemical_formula_sum   'Li9 Mn2 Co5 O16'
_cell_volume   281.96451821
_cell_formula_units_Z   1
loop_
 _symmetry_equiv_pos_site_id
 _symmetry_equiv_pos_as_xyz
  1  'x, y, z'
loop_
 _atom_site_type_symbol
 _atom_site_label
 _atom_site_symmetry_multiplicity
 _atom_site_fract_x
 _atom_site_fract_y
 _atom_site_fract_z
 _atom_site_occupancy
  Li  Li0  1  0.11981900  0.62134600  0.88024800  1
  Li  Li1  1  0.74782200  0.25267900  0.75641100  1
  Li  Li2  1  0.99975400  0.49994700  0.50144800  1
  Li  Li3  1  0.62203900  0.12238100  0.37725400  1
  Li  Li4  1  0.87241100  0.38412000  0.11364800  1
  Li  Li5  1  0.50185700  0.99823800  0.99553900  1
  Li  Li6  1  0.38408900  0.87389600  0.63023600  1
  Li  Li7  1  0.25009700  0.74962400  0.24639000  1
  Li  Li8  1  0.62668600  0.62402700  0.87638100  1
  Mn  Mn0  1  0.99503800  0.99645700  0.99811600  1
  Mn  Mn1  1  0.49805000  0.50044000  0.50322000  1
  Co  Co0  1  0.25276900  0.25338800  0.75286400  1
  Co  Co1  1  0.86654000  0.87490000  0.63143200  1
  Co  Co2  1  0.12644000  0.12496200  0.37406000  1
  Co  Co3  1  0.75291300  0.74614500  0.24429600  1
  Co  Co4  1  0.38028300  0.37507100  0.12015200  1
  O  O0  1  0.94335300  0.70580300  0.06103800  1
  O  O1  1  0.53866200  0.30992700  0.92711100  1
  O  O2  1  0.80556100  0.57521000  0.66972500  1
  O  O3  1  0.43112700  0.19724800  0.55079200  1
  O  O4  1  0.66566100  0.44927700  0.31696200  1
  O  O5  1  0.30394900  0.07729200  0.17545600  1
  O  O6  1  0.16060600  0.94827500  0.81916000  1
  O  O7  1  0.04774200  0.82906500  0.42321500  1
  O  O8  1  0.32643200  0.54369700  0.67250700  1
  O  O9  1  0.95359800  0.17211100  0.57364300  1
  O  O10  1  0.19458400  0.42238400  0.32512000  1
  O  O11  1  0.83498300  0.04948200  0.18079400  1
  O  O12  1  0.07182800  0.30525700  0.94843100  1
  O  O13  1  0.70424200  0.94203200  0.82300600  1
  O  O14  1  0.57018500  0.80170300  0.44915500  1
  O  O15  1  0.45088600  0.67361300  0.08218500  1
loop_
_geom_bond_atom_site_label_1
_geom_bond_atom_site_label_2
_geom_bond_distance
_geom_bond_site_symmetry_2
Li0 O12 2.060342 1_555
Li0 O0 2.111325 1_456
Li0 O6 2.116110 1_555
Li0 O2 2.137590 1_455
Li0 O15 2.164281 1_556
Li0 O8 2.395044 1_555
Li1 O13 2.025285 1_545
Li1 O12 2.094668 1_655
Li1 O3 2.121837 1_555
Li1 O1 2.128422 1_555
Li1 O2 2.141359 1_555
Li1 O9 2.241717 1_555
Li2 O8 2.031532 1_655
Li2 O2 2.087893 1_555
Li2 O4 2.108980 1_555
Li2 O9 2.141358 1_555
Li2 O10 2.145866 1_655
Li2 O7 2.162012 1_655
Li3 O14 2.095267 1_545
Li3 O3 2.104560 1_555
Li3 O4 2.113025 1_555
Li3 O5 2.114508 1_555
Li3 O9 2.144720 1_555
Li3 O11 2.340206 1_555
Li4 O0 2.059722 1_555
Li4 O12 2.102220 1_654
Li4 O1 2.110054 1_554
Li4 O10 2.176599 1_655
Li4 O11 2.177030 1_555
Li4 O4 2.339540 1_555
Li5 O1 2.038554 1_565
Li5 O13 2.106581 1_555
Li5 O11 2.107423 1_566
Li5 O6 2.111837 1_555
Li5 O15 2.154760 1_556
Li5 O5 2.185388 1_566
Li6 O13 2.078816 1_555
Li6 O8 2.098893 1_555
Li6 O14 2.124127 1_555
Li6 O3 2.130233 1_565
Li6 O7 2.210377 1_555
Li6 O6 2.344126 1_555
Li7 O0 2.000075 1_455
Li7 O15 2.095098 1_555
Li7 O14 2.123733 1_555
Li7 O5 2.135154 1_565
Li7 O10 2.149903 1_555
Li7 O7 2.187199 1_555
Li8 O1 2.012089 1_555
Li8 O0 2.033373 1_556
Li8 O13 2.038794 1_555
Li8 O8 2.052683 1_555
Li8 O15 2.195067 1_556
Li8 O2 2.211917 1_555
Mn0 O13 1.889169 1_555
Mn0 O0 1.893088 1_556
Mn0 O6 1.970675 1_655
Mn0 O5 1.972825 1_666
Mn0 O12 1.975980 1_665
Mn0 O11 1.982171 1_566
Mn1 O8 1.923418 1_555
Mn1 O2 1.924672 1_555
Mn1 O3 1.937793 1_555
Mn1 O14 1.938039 1_555
Mn1 O10 1.953084 1_555
Mn1 O4 2.033459 1_555
Co0 O1 1.865431 1_555
Co0 O8 1.936233 1_555
Co0 O9 1.941442 1_455
Co0 O6 1.993346 1_545
Co0 O12 2.152087 1_555
Co0 O3 2.192974 1_555
Co1 O2 1.902393 1_555
Co1 O9 1.924978 1_565
Co1 O14 1.940947 1_555
Co1 O6 1.955451 1_655
Co1 O13 2.080451 1_555
Co1 O7 2.226581 1_655
Co2 O7 1.897039 1_545
Co2 O10 1.904850 1_555
Co2 O3 1.951555 1_555
Co2 O11 1.970686 1_455
Co2 O9 2.136581 1_455
Co2 O5 2.150106 1_555
Co3 O15 1.885031 1_555
Co3 O7 1.923771 1_655
Co3 O4 1.958806 1_555
Co3 O11 1.972400 1_565
Co3 O0 2.090247 1_555
Co3 O14 2.228426 1_555
Co4 O15 1.893701 1_555
Co4 O5 1.920025 1_555
Co4 O12 1.947601 1_554
Co4 O4 1.964470 1_555
Co4 O1 2.070032 1_554
Co4 O10 2.225898 1_555
