# generated using pymatgen
data_MnFe3(BiO3)4
_symmetry_space_group_name_H-M   'P 1'
_cell_length_a   5.68261200
_cell_length_b   5.69438588
_cell_length_c   9.69291490
_cell_angle_alpha   88.67507571
_cell_angle_beta   106.67556862
_cell_angle_gamma   119.03128404
_symmetry_Int_Tables_number   1
_chemical_formula_structural   MnFe3(BiO3)4
_chemical_formula_sum   'Mn1 Fe3 Bi4 O12'
_cell_volume   260.17314357
_cell_formula_units_Z   1
loop_
 _symmetry_equiv_pos_site_id
 _symmetry_equiv_pos_as_xyz
  1  'x, y, z'
loop_
 _atom_site_type_symbol
 _atom_site_label
 _atom_site_symmetry_multiplicity
 _atom_site_fract_x
 _atom_site_fract_y
 _atom_site_fract_z
 _atom_site_occupancy
  Mn  Mn0  1  0.34330000  0.16901600  0.39136300  1
  Fe  Fe0  1  0.83579500  0.92245500  0.63808700  1
  Fe  Fe1  1  0.83566900  0.41211900  0.13874700  1
  Fe  Fe2  1  0.33374400  0.66376100  0.88860400  1
  Bi  Bi0  1  0.49766700  0.74534700  0.25119500  1
  Bi  Bi1  1  0.49679500  0.24824300  0.75125200  1
  Bi  Bi2  1  0.99621100  0.99199600  0.99995400  1
  Bi  Bi3  1  0.00227200  0.50625700  0.49724700  1
  O  O0  1  0.63364700  0.23923200  0.28536800  1
  O  O1  1  0.64195000  0.75116400  0.78356000  1
  O  O2  1  0.65127700  0.61809300  0.48148000  1
  O  O3  1  0.63833800  0.09460100  0.98309900  1
  O  O4  1  0.63747300  0.61713100  0.05582700  1
  O  O5  1  0.61880600  0.11307500  0.55432200  1
  O  O6  1  0.12855900  0.73951400  0.30391100  1
  O  O7  1  0.13435400  0.27212700  0.80409200  1
  O  O8  1  0.13906500  0.28367300  0.23208200  1
  O  O9  1  0.14660500  0.80827900  0.73199600  1
  O  O10  1  0.13175500  0.63735100  0.02936400  1
  O  O11  1  0.13671900  0.15656300  0.52844900  1
loop_
_geom_bond_atom_site_label_1
_geom_bond_atom_site_label_2
_geom_bond_distance
_geom_bond_site_symmetry_2
Mn0 O8 1.953807 1_555
Mn0 O11 1.989669 1_555
Mn0 O5 2.022147 1_555
Mn0 O0 2.061855 1_555
Mn0 O6 2.189718 1_545
Mn0 O2 2.290739 1_555
Fe0 O2 1.962629 1_555
Fe0 O1 1.984451 1_555
Fe0 O5 2.010383 1_565
Fe0 O9 2.129619 1_655
Fe0 O11 2.143733 1_665
Fe0 O7 2.175991 1_665
Fe1 O3 1.997519 1_554
Fe1 O4 1.997643 1_555
Fe1 O0 2.020300 1_555
Fe1 O6 2.099044 1_655
Fe1 O10 2.113399 1_655
Fe1 O8 2.150364 1_655
Fe2 O10 1.980752 1_556
Fe2 O9 1.994392 1_555
Fe2 O7 2.006883 1_555
Fe2 O4 2.120400 1_556
Fe2 O1 2.122689 1_555
Fe2 O3 2.219558 1_565
Bi0 O6 2.282187 1_555
Bi0 O10 2.362050 1_555
Bi0 O2 2.385452 1_555
Bi0 O8 2.388420 1_555
Bi0 O4 2.498122 1_555
Bi0 O0 2.530455 1_565
Bi1 O9 2.289356 1_545
Bi1 O7 2.324503 1_555
Bi1 O11 2.366978 1_555
Bi1 O3 2.453028 1_555
Bi1 O5 2.462158 1_555
Bi1 O1 2.565238 1_555
Bi2 O4 2.315665 1_556
Bi2 O1 2.315818 1_555
Bi2 O3 2.337084 1_565
Bi2 O10 2.471831 1_656
Bi2 O7 2.502979 1_665
Bi2 O8 2.509199 1_666
Bi3 O2 2.336797 1_455
Bi3 O0 2.345600 1_455
Bi3 O6 2.350032 1_555
Bi3 O11 2.440608 1_555
Bi3 O5 2.442663 1_455
Bi3 O9 2.559066 1_555
