# generated using pymatgen
data_SiHg2(O2F3)2
_symmetry_space_group_name_H-M   'P 1'
_cell_length_a   5.23934288
_cell_length_b   5.14913644
_cell_length_c   8.19491254
_cell_angle_alpha   113.03304132
_cell_angle_beta   114.45358054
_cell_angle_gamma   93.52855582
_symmetry_Int_Tables_number   1
_chemical_formula_structural   SiHg2(O2F3)2
_chemical_formula_sum   'Si1 Hg2 O4 F6'
_cell_volume   178.49364543
_cell_formula_units_Z   1
loop_
 _symmetry_equiv_pos_site_id
 _symmetry_equiv_pos_as_xyz
  1  'x, y, z'
loop_
 _atom_site_type_symbol
 _atom_site_label
 _atom_site_symmetry_multiplicity
 _atom_site_fract_x
 _atom_site_fract_y
 _atom_site_fract_z
 _atom_site_occupancy
  Si  Si0  1  0.50000000  0.50000000  0.50000000  1
  Hg  Hg0  1  0.00000000  0.00000000  0.00000000  1
  Hg  Hg1  1  0.00000000  0.00000000  0.50000000  1
  O  O0  1  0.50284100  0.31003300  0.95768300  1
  O  O1  1  0.49715900  0.68996700  0.04231700  1
  O  O2  1  0.76469200  0.85774200  0.15087600  1
  O  O3  1  0.23530800  0.14225800  0.84912400  1
  F  F0  1  0.60553000  0.87536900  0.63674400  1
  F  F1  1  0.39447000  0.12463100  0.36325600  1
  F  F2  1  0.70548100  0.51860500  0.38614600  1
  F  F3  1  0.29451900  0.48139500  0.61385400  1
  F  F4  1  0.79398600  0.47899100  0.68930700  1
  F  F5  1  0.20601400  0.52100900  0.31069300  1
loop_
_geom_bond_atom_site_label_1
_geom_bond_atom_site_label_2
_geom_bond_distance
_geom_bond_site_symmetry_2
Hg0 O2 2.333408 1_445
Hg0 O3 2.333408 1_554
Hg1 O3 2.360229 1_555
Hg1 O2 2.360229 1_445
O0 O3 1.311355 1_555
O0 O1 1.808771 1_556
O1 O2 1.311355 1_555
F0 Si0 1.719847 1_555
F0 Hg0 2.606364 1_666
F1 Si0 1.719847 1_555
F1 Hg0 2.606364 1_555
F2 Si0 1.711028 1_555
F2 Hg1 2.433796 1_665
F3 Si0 1.711028 1_555
F3 Hg1 2.433796 1_555
F4 Si0 1.721747 1_555
F4 Hg0 2.620696 1_666
F5 Si0 1.721747 1_555
F5 Hg0 2.620696 1_555
