# generated using pymatgen
data_V5H28C8N13O17
_symmetry_space_group_name_H-M   'P 1'
_cell_length_a   10.74074100
_cell_length_b   11.18226214
_cell_length_c   13.36996928
_cell_angle_alpha   85.33584793
_cell_angle_beta   67.08396927
_cell_angle_gamma   88.41727945
_symmetry_Int_Tables_number   1
_chemical_formula_structural   V5H28C8N13O17
_chemical_formula_sum   'V10 H56 C16 N26 O34'
_cell_volume   1474.16210100
_cell_formula_units_Z   2
loop_
 _symmetry_equiv_pos_site_id
 _symmetry_equiv_pos_as_xyz
  1  'x, y, z'
loop_
 _atom_site_type_symbol
 _atom_site_label
 _atom_site_symmetry_multiplicity
 _atom_site_fract_x
 _atom_site_fract_y
 _atom_site_fract_z
 _atom_site_occupancy
  V  V0  1  0.54898100  0.37947200  0.55400800  1
  V  V1  1  0.45101900  0.62052800  0.44599200  1
  V  V2  1  0.73755300  0.61383000  0.46310200  1
  V  V3  1  0.26244700  0.38617000  0.53689800  1
  V  V4  1  0.69268000  0.45372900  0.29813600  1
  V  V5  1  0.30732000  0.54627100  0.70186400  1
  V  V6  1  0.49863200  0.22784700  0.38643500  1
  V  V7  1  0.50136800  0.77215300  0.61356500  1
  V  V8  1  0.59562200  0.54103700  0.71777900  1
  V  V9  1  0.40437800  0.45896300  0.28222100  1
  H  H0  1  0.33080400  0.12258400  0.13594100  1
  H  H1  1  0.66919600  0.87741600  0.86405900  1
  H  H2  1  0.41806600  0.11022800  0.22303600  1
  H  H3  1  0.58193400  0.88977200  0.77696400  1
  H  H4  1  0.42348900  0.92445800  0.31246500  1
  H  H5  1  0.57651100  0.07554200  0.68753500  1
  H  H6  1  0.36785000  0.79447600  0.27850200  1
  H  H7  1  0.63215000  0.20552400  0.72149800  1
  H  H8  1  0.05004700  0.72055400  0.28322300  1
  H  H9  1  0.94995300  0.27944600  0.71677700  1
  H  H10  1  0.08719400  0.86081700  0.30886100  1
  H  H11  1  0.91280600  0.13918300  0.69113900  1
  H  H12  1  0.01455300  0.68097800  0.14031600  1
  H  H13  1  0.98544700  0.31902200  0.85968400  1
  H  H14  1  0.12873200  0.61049300  0.02544800  1
  H  H15  1  0.87126800  0.38950700  0.97455200  1
  H  H16  1  0.12809400  0.57024500  0.15742900  1
  H  H17  1  0.87190600  0.42975500  0.84257100  1
  H  H18  1  0.40480900  0.66474800  0.98282300  1
  H  H19  1  0.59519100  0.33525200  0.01717700  1
  H  H20  1  0.30655900  0.73017500  0.91148800  1
  H  H21  1  0.69344100  0.26982500  0.08851200  1
  H  H22  1  0.39162200  0.82420900  0.96710300  1
  H  H23  1  0.60837800  0.17579100  0.03289700  1
  H  H24  1  0.76245500  0.94493700  0.27383200  1
  H  H25  1  0.23754500  0.05506300  0.72616800  1
  H  H26  1  0.71117600  0.79333600  0.30288800  1
  H  H27  1  0.28882400  0.20666400  0.69711200  1
  H  H28  1  0.83024900  0.03173500  0.09634900  1
  H  H29  1  0.16975100  0.96826500  0.90365100  1
  H  H30  1  0.80687600  0.94512300  0.99607400  1
  H  H31  1  0.19312400  0.05487700  0.00392600  1
  H  H32  1  0.68719200  0.68908400  0.17968300  1
  H  H33  1  0.31280800  0.31091600  0.82031700  1
  H  H34  1  0.69342700  0.59692800  0.93586400  1
  H  H35  1  0.30657300  0.40307200  0.06413600  1
  H  H36  1  0.64948800  0.56449000  0.07810900  1
  H  H37  1  0.35051200  0.43551000  0.92189100  1
  H  H38  1  0.20842500  0.24611600  0.36906500  1
  H  H39  1  0.79157500  0.75388400  0.63093500  1
  H  H40  1  0.12763500  0.10716700  0.37068700  1
  H  H41  1  0.87236500  0.89283300  0.62931300  1
  H  H42  1  0.90082200  0.40720600  0.41938100  1
  H  H43  1  0.09917800  0.59279400  0.58061900  1
  H  H44  1  0.07523400  0.41697000  0.40056200  1
  H  H45  1  0.92476600  0.58303000  0.59943800  1
  H  H46  1  0.80717400  0.22973900  0.42899900  1
  H  H47  1  0.19282600  0.77026100  0.57100100  1
  H  H48  1  0.75143300  0.92180100  0.46143800  1
  H  H49  1  0.24856700  0.07819900  0.53856200  1
  H  H50  1  0.68415100  0.06682000  0.47353300  1
  H  H51  1  0.31584900  0.93318000  0.52646700  1
  H  H52  1  0.81188000  0.19865600  0.21240900  1
  H  H53  1  0.18812000  0.80134400  0.78759100  1
  H  H54  1  0.96611100  0.16775200  0.14657700  1
  H  H55  1  0.03388900  0.83224800  0.85342300  1
  C  C0  1  0.34642500  0.95218600  0.19326500  1
  C  C1  1  0.65357500  0.04781400  0.80673500  1
  C  C2  1  0.21085900  0.81196600  0.15846100  1
  C  C3  1  0.78914100  0.18803400  0.84153900  1
  C  C4  1  0.11710400  0.64514600  0.10285800  1
  C  C5  1  0.88289600  0.35485400  0.89714200  1
  C  C6  1  0.33713800  0.73945400  0.97975200  1
  C  C7  1  0.66286200  0.26054600  0.02024800  1
  C  C8  1  0.76018700  0.86069400  0.14479400  1
  C  C9  1  0.23981300  0.13930600  0.85520600  1
  C  C10  1  0.74005200  0.72892100  0.01202200  1
  C  C11  1  0.25994800  0.27107900  0.98797800  1
  C  C12  1  0.00821500  0.25123900  0.39639300  1
  C  C13  1  0.99178500  0.74876100  0.60360700  1
  C  C14  1  0.89235900  0.05856300  0.41342900  1
  C  C15  1  0.10764100  0.94143700  0.58657100  1
  N  N0  1  0.37719900  0.07026600  0.17724700  1
  N  N1  1  0.62280100  0.92973400  0.82275300  1
  N  N2  1  0.37997100  0.88532300  0.26800900  1
  N  N3  1  0.62002900  0.11467700  0.73199100  1
  N  N4  1  0.29202100  0.90893000  0.12976600  1
  N  N5  1  0.70797900  0.09107000  0.87023400  1
  N  N6  1  0.11633500  0.79119100  0.25993300  1
  N  N7  1  0.88366500  0.20880900  0.74006700  1
  N  N8  1  0.21796600  0.73876800  0.08103900  1
  N  N9  1  0.78203400  0.26123200  0.91896100  1
  N  N10  1  0.74561200  0.86617900  0.24803700  1
  N  N11  1  0.25438800  0.13382100  0.75196300  1
  N  N12  1  0.80452700  0.95369000  0.07237000  1
  N  N13  1  0.19547300  0.04631000  0.92763000  1
  N  N14  1  0.72694400  0.75425300  0.11724800  1
  N  N15  1  0.27305600  0.24574700  0.88275200  1
  N  N16  1  0.69101600  0.62142400  0.00849300  1
  N  N17  1  0.30898400  0.37857600  0.99150700  1
  N  N18  1  0.12643500  0.19810300  0.37468100  1
  N  N19  1  0.87356500  0.80189700  0.62531900  1
  N  N20  1  0.99333900  0.36852500  0.40424500  1
  N  N21  1  0.00666100  0.63147500  0.59575500  1
  N  N22  1  0.89598300  0.18419100  0.41165600  1
  N  N23  1  0.10401700  0.81580900  0.58834400  1
  N  N24  1  0.76668600  0.01303200  0.44602400  1
  N  N25  1  0.23331400  0.98696800  0.55397600  1
  O  O0  1  0.52024900  0.56716300  0.56766500  1
  O  O1  1  0.47975100  0.43283700  0.43233500  1
  O  O2  1  0.71962700  0.43881900  0.43981100  1
  O  O3  1  0.28037300  0.56118100  0.56018900  1
  O  O4  1  0.56455000  0.23446200  0.51196300  1
  O  O5  1  0.43545000  0.76553800  0.48803700  1
  O  O6  1  0.60341900  0.37716300  0.66070800  1
  O  O7  1  0.39658100  0.62283700  0.33929200  1
  O  O8  1  0.89386900  0.63699900  0.37648000  1
  O  O9  1  0.10613100  0.36300100  0.62352000  1
  O  O10  1  0.64224100  0.62222400  0.35728800  1
  O  O11  1  0.35775900  0.37777600  0.64271200  1
  O  O12  1  0.67565100  0.76593700  0.50063800  1
  O  O13  1  0.32434900  0.23406300  0.49936200  1
  O  O14  1  0.75713700  0.56843100  0.59156800  1
  O  O15  1  0.24286300  0.43156900  0.40843200  1
  O  O16  1  0.84664100  0.48102500  0.21149500  1
  O  O17  1  0.15335900  0.51897500  0.78850500  1
  O  O18  1  0.67581500  0.28967100  0.30173200  1
  O  O19  1  0.32418500  0.71032900  0.69826800  1
  O  O20  1  0.59114000  0.49058500  0.21467700  1
  O  O21  1  0.40886000  0.50941500  0.78532300  1
  O  O22  1  0.50989400  0.08484500  0.36414300  1
  O  O23  1  0.49010600  0.91515500  0.63585700  1
  O  O24  1  0.43438700  0.29366400  0.28552500  1
  O  O25  1  0.56561300  0.70633600  0.71447500  1
  O  O26  1  0.64869200  0.51686000  0.81691400  1
  O  O27  1  0.35130800  0.48314000  0.18308600  1
  O  O28  1  0.79266600  0.80262900  0.93132500  1
  O  O29  1  0.20733400  0.19737100  0.06867500  1
  O  O30  1  0.99711500  0.99707500  0.38654300  1
  O  O31  1  0.00288500  0.00292500  0.61345700  1
  O  O32  1  0.87418500  0.13672300  0.17075600  1
  O  O33  1  0.12581500  0.86327700  0.82924400  1
loop_
_geom_bond_atom_site_label_1
_geom_bond_atom_site_label_2
_geom_bond_distance
_geom_bond_site_symmetry_2
H0 N0 1.020413 1_555
H1 N1 1.020413 1_555
H2 N0 1.015746 1_555
H3 N1 1.015746 1_555
H4 N2 1.016477 1_555
H5 N3 1.016477 1_555
H6 N2 1.019086 1_555
H7 N3 1.019086 1_555
H8 N6 1.022842 1_555
H9 N7 1.022842 1_555
H10 N6 1.020782 1_555
H11 N7 1.020782 1_555
H24 N10 1.016893 1_555
H25 N11 1.016893 1_555
H26 N10 1.022919 1_555
H27 N11 1.022919 1_555
H28 N12 1.033706 1_545
H29 N13 1.033706 1_565
H30 N12 1.022782 1_556
H31 N13 1.022782 1_554
H32 N14 1.025119 1_555
H33 N15 1.025119 1_555
H34 N16 1.020745 1_556
H35 N17 1.020745 1_554
H36 N16 1.032766 1_555
H37 N17 1.032766 1_555
H38 N18 1.018566 1_555
H39 N19 1.018566 1_555
H40 N18 1.022063 1_555
H41 N19 1.022063 1_555
H42 N20 1.024390 1_555
H43 N21 1.024390 1_555
H44 N20 1.028524 1_455
H45 N21 1.028524 1_655
H46 N22 1.021363 1_555
H47 N23 1.021363 1_555
H48 N24 1.028982 1_565
H49 N25 1.028982 1_545
H50 N24 1.017601 1_555
H51 N25 1.017601 1_555
H52 O32 0.992214 1_555
H53 O33 0.992214 1_555
H54 O32 0.975642 1_555
H55 O33 0.975642 1_555
C0 N4 1.328503 1_555
C0 N0 1.349657 1_565
C0 N2 1.353333 1_555
C1 N5 1.328503 1_555
C1 N1 1.349657 1_545
C1 N3 1.353333 1_555
C2 N4 1.344204 1_555
C2 N6 1.347001 1_555
C2 N8 1.349111 1_555
C3 N5 1.344204 1_555
C3 N7 1.347001 1_555
C3 N9 1.349111 1_555
C4 H14 1.094898 1_555
C4 H12 1.096936 1_555
C4 H16 1.100003 1_555
C4 N8 1.456569 1_555
C5 H15 1.094898 1_555
C5 H13 1.096936 1_555
C5 H17 1.100003 1_555
C5 N9 1.456569 1_555
C6 H22 1.093980 1_555
C6 H20 1.096525 1_555
C6 H18 1.100892 1_555
C6 N8 1.456462 1_556
C7 H23 1.093980 1_555
C7 H21 1.096525 1_555
C7 H19 1.100892 1_555
C7 N9 1.456462 1_554
C8 N12 1.322989 1_555
C8 N10 1.333644 1_555
C8 N14 1.370035 1_555
C9 N13 1.322989 1_555
C9 N11 1.333644 1_555
C9 N15 1.370035 1_555
C10 O28 1.252615 1_554
C10 N16 1.337205 1_555
C10 N14 1.409858 1_555
C11 O29 1.252615 1_556
C11 N17 1.337205 1_555
C11 N15 1.409858 1_555
C12 N18 1.322481 1_555
C12 N20 1.324536 1_455
C12 N22 1.374904 1_455
C13 N19 1.322481 1_555
C13 N21 1.324536 1_655
C13 N23 1.374904 1_655
C14 O30 1.245166 1_545
C14 N24 1.347195 1_555
C14 N22 1.404436 1_555
C15 O31 1.245166 1_565
C15 N25 1.347195 1_555
C15 N23 1.404436 1_555
O0 V1 2.077259 1_555
O0 V0 2.125145 1_555
O0 V2 2.254305 1_555
O0 V5 2.295655 1_555
O0 V7 2.403815 1_555
O0 V8 2.434294 1_555
O1 V0 2.077259 1_555
O1 V1 2.125145 1_555
O1 V3 2.254305 1_555
O1 V4 2.295655 1_555
O1 V6 2.403815 1_555
O1 V9 2.434294 1_555
O2 V0 1.963171 1_555
O2 V4 2.018030 1_555
O2 V2 2.032383 1_555
O3 V1 1.963171 1_555
O3 V5 2.018030 1_555
O3 V3 2.032383 1_555
O4 V0 1.741670 1_555
O4 V6 2.066859 1_555
O5 V1 1.741670 1_555
O5 V7 2.066859 1_555
O6 V0 1.737937 1_555
O6 V8 2.028888 1_555
O7 V1 1.737937 1_555
O7 V9 2.028888 1_555
O8 V2 1.639584 1_555
O9 V3 1.639584 1_555
O10 V1 1.930496 1_555
O10 V2 2.039423 1_555
O10 V4 2.078770 1_555
O11 V0 1.930496 1_555
O11 V3 2.039423 1_555
O11 V5 2.078770 1_555
O12 V2 1.844852 1_555
O12 V7 1.896682 1_555
O13 V3 1.844852 1_555
O13 V6 1.896682 1_555
O14 V2 1.840034 1_555
O14 V8 1.901672 1_555
O15 V3 1.840034 1_555
O15 V9 1.901672 1_555
O16 V4 1.627331 1_555
O17 V5 1.627331 1_555
O18 V4 1.843337 1_555
O18 V6 1.910265 1_555
O19 V5 1.843337 1_555
O19 V7 1.910265 1_555
O20 V4 1.858092 1_555
O20 V9 1.881743 1_555
O21 V5 1.858092 1_555
O21 V8 1.881743 1_555
O22 V6 1.642950 1_555
O23 V7 1.642950 1_555
O24 V6 1.836719 1_555
O24 V9 1.867454 1_555
O25 V7 1.836719 1_555
O25 V8 1.867454 1_555
O26 V8 1.635955 1_555
O27 V9 1.635955 1_555
