# generated using pymatgen
data_Sr2Ca2TiMn3O12
_symmetry_space_group_name_H-M   'P 1'
_cell_length_a   7.75068900
_cell_length_b   7.71479900
_cell_length_c   7.71669960
_cell_angle_alpha   89.95294093
_cell_angle_beta   90.00000000
_cell_angle_gamma   90.00000000
_symmetry_Int_Tables_number   1
_chemical_formula_structural   Sr2Ca2TiMn3O12
_chemical_formula_sum   'Sr4 Ca4 Ti2 Mn6 O24'
_cell_volume   461.41995689
_cell_formula_units_Z   2
loop_
 _symmetry_equiv_pos_site_id
 _symmetry_equiv_pos_as_xyz
  1  'x, y, z'
loop_
 _atom_site_type_symbol
 _atom_site_label
 _atom_site_symmetry_multiplicity
 _atom_site_fract_x
 _atom_site_fract_y
 _atom_site_fract_z
 _atom_site_occupancy
  Sr  Sr0  1  0.00000000  0.24688800  0.75381500  1
  Sr  Sr1  1  0.00000000  0.75319000  0.75388100  1
  Sr  Sr2  1  0.50000000  0.75344800  0.75373800  1
  Sr  Sr3  1  0.50000000  0.24656600  0.24608300  1
  Ca  Ca0  1  0.00000000  0.24524100  0.24539800  1
  Ca  Ca1  1  0.00000000  0.75475200  0.24538400  1
  Ca  Ca2  1  0.50000000  0.24564200  0.75449100  1
  Ca  Ca3  1  0.50000000  0.75422100  0.24528200  1
  Ti  Ti0  1  0.25001100  0.50000100  0.49726900  1
  Ti  Ti1  1  0.74998900  0.50000100  0.49726900  1
  Mn  Mn0  1  0.25010400  0.00011200  0.00110200  1
  Mn  Mn1  1  0.25008200  0.49995700  0.00076500  1
  Mn  Mn2  1  0.25008200  0.00006900  0.49845700  1
  Mn  Mn3  1  0.74989600  0.00011200  0.00110200  1
  Mn  Mn4  1  0.74991800  0.49995700  0.00076500  1
  Mn  Mn5  1  0.74991800  0.00006900  0.49845700  1
  O  O0  1  0.00000000  0.00001500  0.00704100  1
  O  O1  1  0.00000000  0.49995000  0.00750000  1
  O  O2  1  0.00000000  0.00005000  0.49277200  1
  O  O3  1  0.00000000  0.49998800  0.49610100  1
  O  O4  1  0.50000000  0.99992100  0.00100900  1
  O  O5  1  0.50000000  0.50004700  0.00066900  1
  O  O6  1  0.50000000  0.99996100  0.49925300  1
  O  O7  1  0.50000000  0.50006000  0.49852600  1
  O  O8  1  0.25298100  0.00311700  0.75019500  1
  O  O9  1  0.25179000  0.49824900  0.75334200  1
  O  O10  1  0.24711600  0.99699200  0.24984800  1
  O  O11  1  0.24838800  0.50155400  0.24674100  1
  O  O12  1  0.74701900  0.00311700  0.75019500  1
  O  O13  1  0.74821000  0.49824900  0.75334200  1
  O  O14  1  0.75288400  0.99699200  0.24984800  1
  O  O15  1  0.75161200  0.50155400  0.24674100  1
  O  O16  1  0.24994000  0.24980700  0.00084900  1
  O  O17  1  0.25002600  0.75014700  0.00699300  1
  O  O18  1  0.24993700  0.24674400  0.49861600  1
  O  O19  1  0.25004100  0.75328100  0.49535300  1
  O  O20  1  0.75006000  0.24980700  0.00084900  1
  O  O21  1  0.74997400  0.75014700  0.00699300  1
  O  O22  1  0.75006300  0.24674400  0.49861600  1
  O  O23  1  0.74995900  0.75328100  0.49535300  1
loop_
_geom_bond_atom_site_label_1
_geom_bond_atom_site_label_2
_geom_bond_distance
_geom_bond_site_symmetry_2
Ca0 O0 2.639700 1_555
Ca0 O2 2.686291 1_555
Ca0 O1 2.688034 1_555
Ca0 O16 2.704643 1_555
Ca0 O20 2.704643 1_455
Ca0 O14 2.708778 1_445
Ca0 O10 2.708778 1_545
Ca0 O22 2.751545 1_455
Ca0 O18 2.751545 1_555
Ca0 O3 2.758879 1_555
Ca0 O11 2.759814 1_555
Ca0 O15 2.759814 1_455
Ca1 O0 2.637663 1_565
Ca1 O17 2.672232 1_555
Ca1 O21 2.672232 1_455
Ca1 O14 2.676243 1_455
Ca1 O10 2.676243 1_555
Ca1 O2 2.689156 1_565
Ca1 O1 2.690688 1_555
Ca1 O23 2.734354 1_455
Ca1 O19 2.734354 1_555
Ca1 O11 2.742635 1_555
Ca1 O15 2.742635 1_455
Ca1 O3 2.756783 1_555
Ca2 O8 2.677224 1_555
Ca2 O12 2.677224 1_555
Ca2 O4 2.684488 1_546
Ca2 O20 2.715065 1_556
Ca2 O16 2.715065 1_556
Ca2 O5 2.732589 1_556
Ca2 O6 2.734575 1_545
Ca2 O9 2.738416 1_555
Ca2 O13 2.738416 1_555
Ca2 O22 2.766804 1_555
Ca2 O18 2.766804 1_555
Ca2 O7 2.783449 1_555
Ca3 O21 2.671344 1_555
Ca3 O17 2.671344 1_555
Ca3 O4 2.672135 1_555
Ca3 O10 2.711257 1_555
Ca3 O14 2.711257 1_555
Ca3 O5 2.722915 1_555
Ca3 O6 2.727852 1_555
Ca3 O19 2.734447 1_555
Ca3 O23 2.734447 1_555
Ca3 O15 2.757338 1_555
Ca3 O11 2.757338 1_555
Ca3 O7 2.767196 1_555
Mn0 O10 1.919769 1_545
Mn0 O16 1.926347 1_555
Mn0 O17 1.928928 1_545
Mn0 O8 1.936422 1_554
Mn0 O4 1.936867 1_545
Mn0 O0 1.939020 1_555
Mn1 O11 1.898218 1_555
Mn1 O9 1.909391 1_554
Mn1 O16 1.929857 1_555
Mn1 O17 1.930803 1_555
Mn1 O5 1.937037 1_555
Mn1 O1 1.939004 1_555
Mn2 O18 1.903050 1_555
Mn2 O19 1.904090 1_545
Mn2 O10 1.918745 1_545
Mn2 O6 1.937047 1_545
Mn2 O2 1.938804 1_555
Mn2 O8 1.942878 1_555
Mn3 O14 1.919769 1_545
Mn3 O20 1.926347 1_555
Mn3 O21 1.928928 1_545
Mn3 O12 1.936422 1_554
Mn3 O4 1.936867 1_545
Mn3 O0 1.939020 1_655
Mn4 O15 1.898218 1_555
Mn4 O13 1.909391 1_554
Mn4 O20 1.929857 1_555
Mn4 O21 1.930803 1_555
Mn4 O5 1.937037 1_555
Mn4 O1 1.939004 1_655
Mn5 O22 1.903050 1_555
Mn5 O23 1.904090 1_545
Mn5 O14 1.918745 1_545
Mn5 O6 1.937047 1_545
Mn5 O2 1.938804 1_655
Mn5 O12 1.942878 1_555
O0 Sr0 2.727578 1_554
O0 Sr1 2.729195 1_544
O1 Sr1 2.764216 1_554
O1 Sr0 2.765878 1_554
O2 Sr1 2.771379 1_545
O2 Sr0 2.773166 1_555
O3 Ti1 1.937778 1_455
O3 Ti0 1.937778 1_555
O3 Sr0 2.785904 1_555
O3 Sr1 2.789108 1_555
O4 Sr3 2.683862 1_565
O4 Sr2 2.694908 1_554
O5 Sr3 2.721128 1_555
O5 Sr2 2.728839 1_554
O6 Sr3 2.725826 1_565
O6 Sr2 2.732609 1_555
O7 Ti0 1.937611 1_555
O7 Ti1 1.937611 1_555
O7 Sr3 2.761459 1_555
O7 Sr2 2.776009 1_555
O8 Sr2 2.715929 1_545
O8 Sr0 2.717045 1_555
O8 Sr1 2.750105 1_545
O9 Ti0 1.976122 1_555
O9 Sr0 2.751187 1_555
O9 Sr2 2.752677 1_555
O9 Sr1 2.770729 1_555
O10 Sr3 2.747666 1_565
O11 Ti0 1.933318 1_555
O11 Sr3 2.770017 1_555
O12 Sr2 2.715929 1_545
O12 Sr0 2.717045 1_655
O12 Sr1 2.750105 1_645
O13 Ti1 1.976122 1_555
O13 Sr0 2.751187 1_655
O13 Sr2 2.752677 1_555
O13 Sr1 2.770729 1_655
O14 Sr3 2.747666 1_565
O15 Ti1 1.933318 1_555
O15 Sr3 2.770017 1_555
O16 Sr3 2.708891 1_555
O16 Sr0 2.717955 1_554
O17 Sr1 2.751505 1_554
O17 Sr2 2.752021 1_554
O18 Ti0 1.953846 1_555
O18 Sr3 2.748452 1_555
O18 Sr0 2.762391 1_555
O19 Ti0 1.954048 1_555
O19 Sr2 2.780091 1_555
O19 Sr1 2.781323 1_555
O20 Sr3 2.708891 1_555
O20 Sr0 2.717955 1_654
O21 Sr1 2.751505 1_654
O21 Sr2 2.752021 1_554
O22 Ti1 1.953846 1_555
O22 Sr3 2.748452 1_555
O22 Sr0 2.762391 1_655
O23 Ti1 1.954048 1_555
O23 Sr2 2.780091 1_555
O23 Sr1 2.781323 1_655
