# generated using pymatgen
data_LiFe3SiPO8
_symmetry_space_group_name_H-M   'P 1'
_cell_length_a   4.83156993
_cell_length_b   6.13225600
_cell_length_c   10.57031803
_cell_angle_alpha   90.00000000
_cell_angle_beta   89.92884773
_cell_angle_gamma   90.00000000
_symmetry_Int_Tables_number   1
_chemical_formula_structural   LiFe3SiPO8
_chemical_formula_sum   'Li2 Fe6 Si2 P2 O16'
_cell_volume   313.18161999
_cell_formula_units_Z   2
loop_
 _symmetry_equiv_pos_site_id
 _symmetry_equiv_pos_as_xyz
  1  'x, y, z'
loop_
 _atom_site_type_symbol
 _atom_site_label
 _atom_site_symmetry_multiplicity
 _atom_site_fract_x
 _atom_site_fract_y
 _atom_site_fract_z
 _atom_site_occupancy
  Li  Li0  1  0.50000000  0.00000000  0.50000000  1
  Li  Li1  1  0.50000000  0.50000000  0.50000000  1
  Fe  Fe0  1  0.47795500  0.75000000  0.22329900  1
  Fe  Fe1  1  0.00767600  0.75000000  0.71535000  1
  Fe  Fe2  1  0.52204500  0.25000000  0.77670100  1
  Fe  Fe3  1  0.99232400  0.25000000  0.28465000  1
  Fe  Fe4  1  0.00000000  0.50000000  0.00000000  1
  Fe  Fe5  1  0.00000000  0.00000000  0.00000000  1
  Si  Si0  1  0.57110900  0.75000000  0.90253800  1
  Si  Si1  1  0.42889100  0.25000000  0.09746200  1
  P  P0  1  0.92311500  0.75000000  0.40449300  1
  P  P1  1  0.07688500  0.25000000  0.59550700  1
  O  O0  1  0.70837800  0.75000000  0.04712300  1
  O  O1  1  0.79632900  0.75000000  0.53971700  1
  O  O2  1  0.29162200  0.25000000  0.95287700  1
  O  O3  1  0.20367100  0.25000000  0.46028300  1
  O  O4  1  0.24268000  0.75000000  0.40491300  1
  O  O5  1  0.23167900  0.75000000  0.90485300  1
  O  O6  1  0.75732000  0.25000000  0.59508700  1
  O  O7  1  0.76832100  0.25000000  0.09514700  1
  O  O8  1  0.79479200  0.95237300  0.33441600  1
  O  O9  1  0.71372500  0.53687400  0.83299900  1
  O  O10  1  0.20520800  0.45237300  0.66558400  1
  O  O11  1  0.28627500  0.03687400  0.16700100  1
  O  O12  1  0.20520800  0.04762700  0.66558400  1
  O  O13  1  0.28627500  0.46312600  0.16700100  1
  O  O14  1  0.79479200  0.54762700  0.33441600  1
  O  O15  1  0.71372500  0.96312600  0.83299900  1
loop_
_geom_bond_atom_site_label_1
_geom_bond_atom_site_label_2
_geom_bond_distance
_geom_bond_site_symmetry_2
Li0 O1 2.139601 1_545
Li0 O3 2.139601 1_555
Li0 O4 2.215696 1_545
Li0 O6 2.215696 1_555
Li0 O12 2.274033 1_555
Li0 O8 2.274033 1_545
Li1 O1 2.139601 1_555
Li1 O3 2.139601 1_555
Li1 O4 2.215696 1_555
Li1 O6 2.215696 1_555
Li1 O10 2.274033 1_555
Li1 O14 2.274033 1_555
Fe0 O13 2.075553 1_555
Fe0 O11 2.075553 1_565
Fe0 O0 2.168461 1_555
Fe0 O4 2.229819 1_555
Fe0 O8 2.295106 1_555
Fe0 O14 2.295106 1_555
Fe1 O1 2.119908 1_455
Fe1 O10 2.125421 1_555
Fe1 O12 2.125421 1_565
Fe1 O5 2.277974 1_555
Fe1 O9 2.295064 1_455
Fe1 O15 2.295064 1_455
Fe2 O9 2.075553 1_555
Fe2 O15 2.075553 1_545
Fe2 O2 2.168461 1_555
Fe2 O6 2.229819 1_555
Fe2 O12 2.295106 1_555
Fe2 O10 2.295106 1_555
Fe3 O3 2.119908 1_655
Fe3 O8 2.125421 1_545
Fe3 O14 2.125421 1_555
Fe3 O7 2.277974 1_555
Fe3 O13 2.295064 1_655
Fe3 O11 2.295064 1_655
Fe4 O2 2.140540 1_554
Fe4 O0 2.140540 1_455
Fe4 O5 2.147554 1_554
Fe4 O7 2.147554 1_455
Fe4 O9 2.255314 1_454
Fe4 O13 2.255314 1_555
Fe5 O2 2.140540 1_554
Fe5 O0 2.140540 1_445
Fe5 O7 2.147554 1_455
Fe5 O5 2.147554 1_544
Fe5 O15 2.255314 1_444
Fe5 O11 2.255314 1_555
O0 Si0 1.666768 1_554
O1 P0 1.554396 1_555
O2 Si1 1.666768 1_556
O3 P1 1.554396 1_555
O4 P0 1.544013 1_455
O5 Si0 1.640132 1_555
O6 P1 1.544013 1_655
O7 Si1 1.640132 1_555
O8 P0 1.572998 1_555
O9 Si0 1.649831 1_555
O10 P1 1.572998 1_555
O11 Si1 1.649831 1_555
O12 P1 1.572998 1_555
O13 Si1 1.649831 1_555
O14 P0 1.572998 1_555
O15 Si0 1.649831 1_555
