# generated using pymatgen
data_MgTi2
_symmetry_space_group_name_H-M   'P 1'
_cell_length_a   16.19147340
_cell_length_b   16.19147340
_cell_length_c   9.59940400
_cell_angle_alpha   90.00000000
_cell_angle_beta   90.00000000
_cell_angle_gamma   158.99744954
_symmetry_Int_Tables_number   1
_chemical_formula_structural   MgTi2
_chemical_formula_sum   'Mg16 Ti32'
_cell_volume   901.97921793
_cell_formula_units_Z   16
loop_
 _symmetry_equiv_pos_site_id
 _symmetry_equiv_pos_as_xyz
  1  'x, y, z'
loop_
 _atom_site_type_symbol
 _atom_site_label
 _atom_site_symmetry_multiplicity
 _atom_site_fract_x
 _atom_site_fract_y
 _atom_site_fract_z
 _atom_site_occupancy
  Mg  Mg0_0  1  0.39115900  0.10884100  0.12500000  1
  Mg  Mg0_1  1  0.39115900  0.10884100  0.62500000  1
  Mg  Mg0_2  1  0.39115900  0.60884100  0.12500000  1
  Mg  Mg0_3  1  0.39115900  0.60884100  0.62500000  1
  Mg  Mg0_4  1  0.89115900  0.10884100  0.12500000  1
  Mg  Mg0_5  1  0.89115900  0.10884100  0.62500000  1
  Mg  Mg0_6  1  0.89115900  0.60884100  0.12500000  1
  Mg  Mg0_7  1  0.89115900  0.60884100  0.62500000  1
  Mg  Mg1_0  1  0.10884100  0.39115900  0.37500000  1
  Mg  Mg1_1  1  0.10884100  0.39115900  0.87500000  1
  Mg  Mg1_2  1  0.10884100  0.89115900  0.37500000  1
  Mg  Mg1_3  1  0.10884100  0.89115900  0.87500000  1
  Mg  Mg1_4  1  0.60884100  0.39115900  0.37500000  1
  Mg  Mg1_5  1  0.60884100  0.39115900  0.87500000  1
  Mg  Mg1_6  1  0.60884100  0.89115900  0.37500000  1
  Mg  Mg1_7  1  0.60884100  0.89115900  0.87500000  1
  Ti  Ti0_0  1  0.04982100  0.45017900  0.12500000  1
  Ti  Ti0_1  1  0.04982100  0.45017900  0.62500000  1
  Ti  Ti0_2  1  0.04982100  0.95017900  0.12500000  1
  Ti  Ti0_3  1  0.04982100  0.95017900  0.62500000  1
  Ti  Ti0_4  1  0.54982100  0.45017900  0.12500000  1
  Ti  Ti0_5  1  0.54982100  0.45017900  0.62500000  1
  Ti  Ti0_6  1  0.54982100  0.95017900  0.12500000  1
  Ti  Ti0_7  1  0.54982100  0.95017900  0.62500000  1
  Ti  Ti1_0  1  0.22503150  0.27496850  0.12500000  1
  Ti  Ti1_1  1  0.22503150  0.27496850  0.62500000  1
  Ti  Ti1_2  1  0.22503150  0.77496850  0.12500000  1
  Ti  Ti1_3  1  0.22503150  0.77496850  0.62500000  1
  Ti  Ti1_4  1  0.72503150  0.27496850  0.12500000  1
  Ti  Ti1_5  1  0.72503150  0.27496850  0.62500000  1
  Ti  Ti1_6  1  0.72503150  0.77496850  0.12500000  1
  Ti  Ti1_7  1  0.72503150  0.77496850  0.62500000  1
  Ti  Ti2_0  1  0.27496850  0.22503150  0.37500000  1
  Ti  Ti2_1  1  0.27496850  0.22503150  0.87500000  1
  Ti  Ti2_2  1  0.27496850  0.72503150  0.37500000  1
  Ti  Ti2_3  1  0.27496850  0.72503150  0.87500000  1
  Ti  Ti2_4  1  0.77496850  0.22503150  0.37500000  1
  Ti  Ti2_5  1  0.77496850  0.22503150  0.87500000  1
  Ti  Ti2_6  1  0.77496850  0.72503150  0.37500000  1
  Ti  Ti2_7  1  0.77496850  0.72503150  0.87500000  1
  Ti  Ti3_0  1  0.45017900  0.04982100  0.37500000  1
  Ti  Ti3_1  1  0.45017900  0.04982100  0.87500000  1
  Ti  Ti3_2  1  0.45017900  0.54982100  0.37500000  1
  Ti  Ti3_3  1  0.45017900  0.54982100  0.87500000  1
  Ti  Ti3_4  1  0.95017900  0.04982100  0.37500000  1
  Ti  Ti3_5  1  0.95017900  0.04982100  0.87500000  1
  Ti  Ti3_6  1  0.95017900  0.54982100  0.37500000  1
  Ti  Ti3_7  1  0.95017900  0.54982100  0.87500000  1
loop_
_geom_bond_atom_site_label_1
_geom_bond_atom_site_label_2
_geom_bond_distance
_geom_bond_site_symmetry_2
Mg0_0 Mg0_6 2.951016 1_445
Mg0_0 Mg0_6 2.951016 1_555
Mg0_0 Mg1_5 2.999216 1_554
Mg0_0 Mg1_3 2.999216 1_544
Mg0_0 Mg1_4 2.999216 1_555
Mg0_0 Mg1_2 2.999216 1_545
Mg0_0 Ti3_1 3.048080 1_554
Mg0_0 Ti3_0 3.048080 1_555
Mg0_0 Ti1_2 3.051057 1_545
Mg0_0 Ti1_4 3.051057 1_555
Mg0_0 Ti0_4 3.261144 1_555
Mg0_0 Ti0_2 3.261144 1_545
Mg0_1 Mg0_7 2.951016 1_445
Mg0_1 Mg0_7 2.951016 1_555
Mg0_1 Mg1_4 2.999216 1_555
Mg0_1 Mg1_5 2.999216 1_555
Mg0_1 Mg1_2 2.999216 1_545
Mg0_1 Mg1_3 2.999216 1_545
Mg0_1 Ti3_0 3.048080 1_555
Mg0_1 Ti3_1 3.048080 1_555
Mg0_1 Ti1_3 3.051057 1_545
Mg0_1 Ti1_5 3.051057 1_555
Mg0_1 Ti0_5 3.261144 1_555
Mg0_1 Ti0_3 3.261144 1_545
Mg0_2 Mg0_4 2.951016 1_455
Mg0_2 Mg0_4 2.951016 1_565
Mg0_2 Mg1_1 2.999216 1_554
Mg0_2 Mg1_0 2.999216 1_555
Mg0_2 Mg1_7 2.999216 1_554
Mg0_2 Mg1_6 2.999216 1_555
Mg0_2 Ti3_3 3.048080 1_554
Mg0_2 Ti3_2 3.048080 1_555
Mg0_2 Ti1_0 3.051057 1_555
Mg0_2 Ti1_6 3.051057 1_555
Mg0_2 Ti0_0 3.261144 1_555
Mg0_2 Ti0_6 3.261144 1_555
Mg0_3 Mg0_5 2.951016 1_565
Mg0_3 Mg0_5 2.951016 1_455
Mg0_3 Mg1_0 2.999216 1_555
Mg0_3 Mg1_1 2.999216 1_555
Mg0_3 Mg1_6 2.999216 1_555
Mg0_3 Mg1_7 2.999216 1_555
Mg0_3 Ti3_2 3.048080 1_555
Mg0_3 Ti3_3 3.048080 1_555
Mg0_3 Ti1_1 3.051057 1_555
Mg0_3 Ti1_7 3.051057 1_555
Mg0_3 Ti0_1 3.261144 1_555
Mg0_3 Ti0_7 3.261144 1_555
Mg0_4 Mg1_1 2.999216 1_654
Mg0_4 Mg1_7 2.999216 1_544
Mg0_4 Mg1_6 2.999216 1_545
Mg0_4 Mg1_0 2.999216 1_655
Mg0_4 Ti3_5 3.048080 1_554
Mg0_4 Ti3_4 3.048080 1_555
Mg0_4 Ti1_6 3.051057 1_545
Mg0_4 Ti1_0 3.051057 1_655
Mg0_4 Ti0_0 3.261144 1_655
Mg0_4 Ti0_6 3.261144 1_545
Mg0_5 Mg1_6 2.999216 1_545
Mg0_5 Mg1_0 2.999216 1_655
Mg0_5 Mg1_7 2.999216 1_545
Mg0_5 Mg1_1 2.999216 1_655
Mg0_5 Ti3_4 3.048080 1_555
Mg0_5 Ti3_5 3.048080 1_555
Mg0_5 Ti1_7 3.051057 1_545
Mg0_5 Ti1_1 3.051057 1_655
Mg0_5 Ti0_1 3.261144 1_655
Mg0_5 Ti0_7 3.261144 1_545
Mg0_6 Mg1_3 2.999216 1_654
Mg0_6 Mg1_5 2.999216 1_554
Mg0_6 Mg1_2 2.999216 1_655
Mg0_6 Mg1_4 2.999216 1_555
Mg0_6 Ti3_7 3.048080 1_554
Mg0_6 Ti3_6 3.048080 1_555
Mg0_6 Ti1_2 3.051057 1_655
Mg0_6 Ti1_4 3.051057 1_555
Mg0_6 Ti0_2 3.261144 1_655
Mg0_6 Ti0_4 3.261144 1_555
Mg0_7 Mg1_2 2.999216 1_655
Mg0_7 Mg1_4 2.999216 1_555
Mg0_7 Mg1_3 2.999216 1_655
Mg0_7 Mg1_5 2.999216 1_555
Mg0_7 Ti3_6 3.048080 1_555
Mg0_7 Ti3_7 3.048080 1_555
Mg0_7 Ti1_3 3.051057 1_655
Mg0_7 Ti1_5 3.051057 1_555
Mg0_7 Ti0_3 3.261144 1_655
Mg0_7 Ti0_5 3.261144 1_555
Mg1_0 Mg1_6 2.951016 1_445
Mg1_0 Mg1_6 2.951016 1_555
Mg1_0 Ti0_0 3.048080 1_555
Mg1_0 Ti0_1 3.048080 1_555
Mg1_0 Ti2_4 3.051057 1_455
Mg1_0 Ti2_2 3.051057 1_555
Mg1_0 Ti3_2 3.261144 1_555
Mg1_0 Ti3_4 3.261144 1_455
Mg1_1 Mg1_7 2.951016 1_445
Mg1_1 Mg1_7 2.951016 1_555
Mg1_1 Ti0_0 3.048080 1_556
Mg1_1 Ti0_1 3.048080 1_555
Mg1_1 Ti2_5 3.051057 1_455
Mg1_1 Ti2_3 3.051057 1_555
Mg1_1 Ti3_3 3.261144 1_555
Mg1_1 Ti3_5 3.261144 1_455
Mg1_2 Mg1_4 2.951016 1_565
Mg1_2 Mg1_4 2.951016 1_455
Mg1_2 Ti0_3 3.048080 1_555
Mg1_2 Ti0_2 3.048080 1_555
Mg1_2 Ti2_0 3.051057 1_565
Mg1_2 Ti2_6 3.051057 1_455
Mg1_2 Ti3_6 3.261144 1_455
Mg1_2 Ti3_0 3.261144 1_565
Mg1_3 Mg1_5 2.951016 1_565
Mg1_3 Mg1_5 2.951016 1_455
Mg1_3 Ti0_2 3.048080 1_556
Mg1_3 Ti0_3 3.048080 1_555
Mg1_3 Ti2_1 3.051057 1_565
Mg1_3 Ti2_7 3.051057 1_455
Mg1_3 Ti3_7 3.261144 1_455
Mg1_3 Ti3_1 3.261144 1_565
Mg1_4 Ti0_4 3.048080 1_555
Mg1_4 Ti0_5 3.048080 1_555
Mg1_4 Ti2_0 3.051057 1_555
Mg1_4 Ti2_6 3.051057 1_555
Mg1_4 Ti3_6 3.261144 1_555
Mg1_4 Ti3_0 3.261144 1_555
Mg1_5 Ti0_4 3.048080 1_556
Mg1_5 Ti0_5 3.048080 1_555
Mg1_5 Ti2_1 3.051057 1_555
Mg1_5 Ti2_7 3.051057 1_555
Mg1_5 Ti3_1 3.261144 1_555
Mg1_5 Ti3_7 3.261144 1_555
Mg1_6 Ti0_6 3.048080 1_555
Mg1_6 Ti0_7 3.048080 1_555
Mg1_6 Ti2_4 3.051057 1_565
Mg1_6 Ti2_2 3.051057 1_555
Mg1_6 Ti3_2 3.261144 1_555
Mg1_6 Ti3_4 3.261144 1_565
Mg1_7 Ti0_6 3.048080 1_556
Mg1_7 Ti0_7 3.048080 1_555
Mg1_7 Ti2_5 3.051057 1_565
Mg1_7 Ti2_3 3.051057 1_555
Mg1_7 Ti3_3 3.261144 1_555
Mg1_7 Ti3_5 3.261144 1_565
Ti0_0 Ti1_4 2.801411 1_455
Ti0_0 Ti1_2 2.801411 1_555
Ti0_0 Ti2_5 2.926191 1_454
Ti0_0 Ti2_3 2.926191 1_554
Ti0_0 Ti2_4 2.926191 1_455
Ti0_0 Ti2_2 2.926191 1_555
Ti0_0 Ti0_6 2.951016 1_445
Ti0_0 Ti0_6 2.951016 1_555
Ti0_1 Ti1_5 2.801411 1_455
Ti0_1 Ti1_3 2.801411 1_555
Ti0_1 Ti2_4 2.926191 1_455
Ti0_1 Ti2_2 2.926191 1_555
Ti0_1 Ti2_5 2.926191 1_455
Ti0_1 Ti2_3 2.926191 1_555
Ti0_1 Ti0_7 2.951016 1_445
Ti0_1 Ti0_7 2.951016 1_555
Ti0_2 Ti1_6 2.801411 1_455
Ti0_2 Ti1_0 2.801411 1_565
Ti0_2 Ti2_7 2.926191 1_454
Ti0_2 Ti2_1 2.926191 1_564
Ti0_2 Ti2_0 2.926191 1_565
Ti0_2 Ti2_6 2.926191 1_455
Ti0_2 Ti0_4 2.951016 1_565
Ti0_2 Ti0_4 2.951016 1_455
Ti0_3 Ti1_7 2.801411 1_455
Ti0_3 Ti1_1 2.801411 1_565
Ti0_3 Ti2_0 2.926191 1_565
Ti0_3 Ti2_6 2.926191 1_455
Ti0_3 Ti2_7 2.926191 1_455
Ti0_3 Ti2_1 2.926191 1_565
Ti0_3 Ti0_5 2.951016 1_565
Ti0_3 Ti0_5 2.951016 1_455
Ti0_4 Ti1_6 2.801411 1_555
Ti0_4 Ti1_0 2.801411 1_555
Ti0_4 Ti2_1 2.926191 1_554
Ti0_4 Ti2_7 2.926191 1_554
Ti0_4 Ti2_0 2.926191 1_555
Ti0_4 Ti2_6 2.926191 1_555
Ti0_5 Ti1_7 2.801411 1_555
Ti0_5 Ti1_1 2.801411 1_555
Ti0_5 Ti2_0 2.926191 1_555
Ti0_5 Ti2_1 2.926191 1_555
Ti0_5 Ti2_6 2.926191 1_555
Ti0_5 Ti2_7 2.926191 1_555
Ti0_6 Ti1_4 2.801411 1_565
Ti0_6 Ti1_2 2.801411 1_555
Ti0_6 Ti2_5 2.926191 1_564
Ti0_6 Ti2_3 2.926191 1_554
Ti0_6 Ti2_4 2.926191 1_565
Ti0_6 Ti2_2 2.926191 1_555
Ti0_7 Ti1_5 2.801411 1_565
Ti0_7 Ti1_3 2.801411 1_555
Ti0_7 Ti2_4 2.926191 1_565
Ti0_7 Ti2_5 2.926191 1_565
Ti0_7 Ti2_2 2.926191 1_555
Ti0_7 Ti2_3 2.926191 1_555
Ti1_0 Ti2_1 2.878794 1_554
Ti1_0 Ti2_0 2.878794 1_555
Ti1_0 Ti3_5 2.926191 1_454
Ti1_0 Ti3_3 2.926191 1_554
Ti1_0 Ti3_2 2.926191 1_555
Ti1_0 Ti3_4 2.926191 1_455
Ti1_0 Ti1_6 2.951016 1_445
Ti1_0 Ti1_6 2.951016 1_555
Ti1_1 Ti2_0 2.878794 1_555
Ti1_1 Ti2_1 2.878794 1_555
Ti1_1 Ti3_2 2.926191 1_555
Ti1_1 Ti3_4 2.926191 1_455
Ti1_1 Ti3_3 2.926191 1_555
Ti1_1 Ti3_5 2.926191 1_455
Ti1_1 Ti1_7 2.951016 1_445
Ti1_1 Ti1_7 2.951016 1_555
Ti1_2 Ti2_3 2.878794 1_554
Ti1_2 Ti2_2 2.878794 1_555
Ti1_2 Ti3_1 2.926191 1_564
Ti1_2 Ti3_7 2.926191 1_454
Ti1_2 Ti3_0 2.926191 1_565
Ti1_2 Ti3_6 2.926191 1_455
Ti1_2 Ti1_4 2.951016 1_565
Ti1_2 Ti1_4 2.951016 1_455
Ti1_3 Ti2_2 2.878794 1_555
Ti1_3 Ti2_3 2.878794 1_555
Ti1_3 Ti3_0 2.926191 1_565
Ti1_3 Ti3_1 2.926191 1_565
Ti1_3 Ti3_6 2.926191 1_455
Ti1_3 Ti3_7 2.926191 1_455
Ti1_3 Ti1_5 2.951016 1_565
Ti1_3 Ti1_5 2.951016 1_455
Ti1_4 Ti2_5 2.878794 1_554
Ti1_4 Ti2_4 2.878794 1_555
Ti1_4 Ti3_1 2.926191 1_554
Ti1_4 Ti3_0 2.926191 1_555
Ti1_4 Ti3_7 2.926191 1_554
Ti1_4 Ti3_6 2.926191 1_555
Ti1_5 Ti2_4 2.878794 1_555
Ti1_5 Ti2_5 2.878794 1_555
Ti1_5 Ti3_0 2.926191 1_555
Ti1_5 Ti3_6 2.926191 1_555
Ti1_5 Ti3_1 2.926191 1_555
Ti1_5 Ti3_7 2.926191 1_555
Ti1_6 Ti2_7 2.878794 1_554
Ti1_6 Ti2_6 2.878794 1_555
Ti1_6 Ti3_5 2.926191 1_564
Ti1_6 Ti3_4 2.926191 1_565
Ti1_6 Ti3_3 2.926191 1_554
Ti1_6 Ti3_2 2.926191 1_555
Ti1_7 Ti2_6 2.878794 1_555
Ti1_7 Ti2_7 2.878794 1_555
Ti1_7 Ti3_4 2.926191 1_565
Ti1_7 Ti3_5 2.926191 1_565
Ti1_7 Ti3_2 2.926191 1_555
Ti1_7 Ti3_3 2.926191 1_555
Ti2_0 Ti3_4 2.801411 1_455
Ti2_0 Ti3_2 2.801411 1_555
Ti2_0 Ti2_6 2.951016 1_445
Ti2_0 Ti2_6 2.951016 1_555
Ti2_1 Ti3_5 2.801411 1_455
Ti2_1 Ti3_3 2.801411 1_555
Ti2_1 Ti2_7 2.951016 1_445
Ti2_1 Ti2_7 2.951016 1_555
Ti2_2 Ti3_0 2.801411 1_565
Ti2_2 Ti3_6 2.801411 1_455
Ti2_2 Ti2_4 2.951016 1_455
Ti2_2 Ti2_4 2.951016 1_565
Ti2_3 Ti3_1 2.801411 1_565
Ti2_3 Ti3_7 2.801411 1_455
Ti2_3 Ti2_5 2.951016 1_455
Ti2_3 Ti2_5 2.951016 1_565
Ti2_4 Ti3_0 2.801411 1_555
Ti2_4 Ti3_6 2.801411 1_555
Ti2_5 Ti3_1 2.801411 1_555
Ti2_5 Ti3_7 2.801411 1_555
Ti2_6 Ti3_4 2.801411 1_565
Ti2_6 Ti3_2 2.801411 1_555
Ti2_7 Ti3_5 2.801411 1_565
Ti2_7 Ti3_3 2.801411 1_555
Ti3_0 Ti3_6 2.951016 1_445
Ti3_0 Ti3_6 2.951016 1_555
Ti3_1 Ti3_7 2.951016 1_445
Ti3_1 Ti3_7 2.951016 1_555
Ti3_2 Ti3_4 2.951016 1_565
Ti3_2 Ti3_4 2.951016 1_455
Ti3_3 Ti3_5 2.951016 1_565
Ti3_3 Ti3_5 2.951016 1_455
