# generated using pymatgen
data_Eu2Fe2O5
_symmetry_space_group_name_H-M   'P 1'
_cell_length_a   8.74493731
_cell_length_b   8.74493731
_cell_length_c   8.74493731
_cell_angle_alpha   143.26019207
_cell_angle_beta   141.95892134
_cell_angle_gamma   53.91892942
_symmetry_Int_Tables_number   1
_chemical_formula_structural   Eu2Fe2O5
_chemical_formula_sum   'Eu4 Fe4 O10'
_cell_volume   244.89464615
_cell_formula_units_Z   2
loop_
 _symmetry_equiv_pos_site_id
 _symmetry_equiv_pos_as_xyz
  1  'x, y, z'
loop_
 _atom_site_type_symbol
 _atom_site_label
 _atom_site_symmetry_multiplicity
 _atom_site_fract_x
 _atom_site_fract_y
 _atom_site_fract_z
 _atom_site_occupancy
  Eu  Eu0  1  0.90684800  0.38990900  0.52083100  1
  Eu  Eu1  1  0.09315200  0.61398300  0.48306100  1
  Eu  Eu2  1  0.36907800  0.88990900  0.48306100  1
  Eu  Eu3  1  0.63092200  0.11398300  0.52083100  1
  Fe  Fe0  1  0.00000000  0.00955600  0.00955600  1
  Fe  Fe1  1  0.50000000  0.50955600  0.00955600  1
  Fe  Fe2  1  0.69710200  0.72385000  0.92095200  1
  Fe  Fe3  1  0.30289800  0.22385000  0.02674800  1
  O  O0  1  0.27058500  0.27295500  0.51355600  1
  O  O1  1  0.72941500  0.24297200  0.00237100  1
  O  O2  1  0.25939900  0.77295500  0.00237100  1
  O  O3  1  0.74060100  0.74297200  0.51355600  1
  O  O4  1  0.93272600  0.90140100  0.09840500  1
  O  O5  1  0.06727400  0.16567900  0.96867600  1
  O  O6  1  0.30299700  0.40140100  0.96867600  1
  O  O7  1  0.69700300  0.66567900  0.09840500  1
  O  O8  1  0.65035500  0.34369500  0.49405100  1
  O  O9  1  0.34964500  0.84369500  0.69334000  1
loop_
_geom_bond_atom_site_label_1
_geom_bond_atom_site_label_2
_geom_bond_distance
_geom_bond_site_symmetry_2
Eu0 O8 2.310392 1_555
Eu0 O6 2.399594 1_655
Eu0 O3 2.555870 1_555
Eu0 O1 2.558331 1_555
Eu0 O4 2.613949 1_545
Eu0 O0 2.747825 1_655
Eu0 O2 2.750516 1_656
Eu0 O4 2.958458 1_556
Eu1 O9 2.310385 1_555
Eu1 O7 2.399591 1_455
Eu1 O2 2.555870 1_556
Eu1 O0 2.558334 1_555
Eu1 O5 2.613945 1_554
Eu1 O1 2.747822 1_455
Eu1 O3 2.750516 1_455
Eu1 O5 2.958460 1_565
Eu2 O9 2.310385 1_555
Eu2 O4 2.399589 1_455
Eu2 O1 2.555865 1_566
Eu2 O3 2.558335 1_555
Eu2 O6 2.613948 1_554
Eu2 O2 2.747816 1_555
Eu2 O0 2.750518 1_565
Eu2 O6 2.958458 1_565
Eu3 O8 2.310377 1_555
Eu3 O5 2.399591 1_655
Eu3 O0 2.555862 1_555
Eu3 O2 2.558335 1_545
Eu3 O7 2.613945 1_545
Eu3 O3 2.747816 1_545
Eu3 O1 2.750521 1_556
Eu3 O7 2.958460 1_556
Fe0 O3 1.979539 1_444
Fe0 O2 1.979539 1_545
Fe0 O0 2.012933 1_555
Fe0 O1 2.012937 1_455
Fe0 O5 2.097024 1_554
Fe0 O4 2.097032 1_445
Fe1 O1 1.979536 1_555
Fe1 O0 1.979540 1_554
Fe1 O3 2.012932 1_555
Fe1 O2 2.012932 1_555
Fe1 O7 2.097024 1_555
Fe1 O6 2.097031 1_554
Fe2 O4 1.983614 1_556
Fe2 O7 1.983620 1_556
Fe2 O9 2.087790 1_555
Fe2 O8 2.112264 1_555
Fe3 O6 1.983612 1_554
Fe3 O5 1.983620 1_554
Fe3 O8 2.087793 1_555
Fe3 O9 2.112267 1_544
