# generated using pymatgen
data_Er3Ge
_symmetry_space_group_name_H-M   'P 1'
_cell_length_a   5.99417395
_cell_length_b   5.99417395
_cell_length_c   5.99417395
_cell_angle_alpha   136.24797549
_cell_angle_beta   136.24797549
_cell_angle_gamma   63.59719338
_symmetry_Int_Tables_number   1
_chemical_formula_structural   Er3Ge
_chemical_formula_sum   'Er3 Ge1'
_cell_volume   101.64892024
_cell_formula_units_Z   1
loop_
 _symmetry_equiv_pos_site_id
 _symmetry_equiv_pos_as_xyz
  1  'x, y, z'
loop_
 _atom_site_type_symbol
 _atom_site_label
 _atom_site_symmetry_multiplicity
 _atom_site_fract_x
 _atom_site_fract_y
 _atom_site_fract_z
 _atom_site_occupancy
  Er  Er0  1  0.75000000  0.25000000  0.50000000  1
  Er  Er1  1  0.25000000  0.75000000  0.50000000  1
  Er  Er2  1  0.50000000  0.50000000  0.00000000  1
  Ge  Ge0  1  0.00000000  0.00000000  0.00000000  1
loop_
_geom_bond_atom_site_label_1
_geom_bond_atom_site_label_2
_geom_bond_distance
_geom_bond_site_symmetry_2
Er0 Er1 3.158540 1_656
Er0 Er1 3.158540 1_645
Er0 Er1 3.158540 1_544
Er0 Er1 3.158540 1_555
Er0 Er2 3.387717 1_555
Er0 Ge0 3.387717 1_555
Er0 Ge0 3.387717 1_656
Er0 Ge0 3.387717 1_655
Er0 Er2 3.387717 1_545
Er0 Er2 3.387717 1_556
Er0 Ge0 3.387717 1_666
Er0 Er2 3.387717 1_656
Er1 Er2 3.387717 1_555
Er1 Ge0 3.387717 1_555
Er1 Er2 3.387717 1_566
Er1 Ge0 3.387717 1_565
Er1 Er2 3.387717 1_455
Er1 Ge0 3.387717 1_566
Er1 Er2 3.387717 1_556
Er1 Ge0 3.387717 1_666
Er2 Ge0 3.158540 1_655
Er2 Ge0 3.158540 1_666
Er2 Ge0 3.158540 1_554
Er2 Ge0 3.158540 1_565
