# generated using pymatgen
data_LiAlAsO4
_symmetry_space_group_name_H-M   'P 1'
_cell_length_a   5.35733700
_cell_length_b   5.35733779
_cell_length_c   5.35733748
_cell_angle_alpha   77.21374757
_cell_angle_beta   127.63703809
_cell_angle_gamma   127.63704129
_symmetry_Int_Tables_number   1
_chemical_formula_structural   LiAlAsO4
_chemical_formula_sum   'Li1 Al1 As1 O4'
_cell_volume   93.56380615
_cell_formula_units_Z   1
loop_
 _symmetry_equiv_pos_site_id
 _symmetry_equiv_pos_as_xyz
  1  'x, y, z'
loop_
 _atom_site_type_symbol
 _atom_site_label
 _atom_site_symmetry_multiplicity
 _atom_site_fract_x
 _atom_site_fract_y
 _atom_site_fract_z
 _atom_site_occupancy
  Li  Li0  1  0.00000000  0.50000000  0.50000000  1
  Al  Al0  1  0.00000000  0.00000000  0.00000000  1
  As  As0  1  0.50000000  0.25000000  0.75000000  1
  O  O0  1  0.55111200  0.92048400  0.86042100  1
  O  O1  1  0.06006200  0.13957900  0.69069100  1
  O  O2  1  0.44888800  0.30930900  0.36937100  1
  O  O3  1  0.93993800  0.63062900  0.07951600  1
loop_
_geom_bond_atom_site_label_1
_geom_bond_atom_site_label_2
_geom_bond_distance
_geom_bond_site_symmetry_2
Li0 O2 2.088007 1_455
Li0 O1 2.088007 1_555
Li0 O0 2.088009 1_555
Li0 O3 2.088012 1_455
Al0 O3 1.793729 1_445
Al0 O1 1.793729 1_554
Al0 O2 1.793730 1_555
Al0 O0 1.793732 1_444
As0 O0 1.863226 1_545
As0 O3 1.863229 1_556
As0 O1 1.863230 1_555
As0 O2 1.863231 1_555
