# generated using pymatgen
data_Nb4P2AuS20
_symmetry_space_group_name_H-M   'P 1'
_cell_length_a   13.41798677
_cell_length_b   13.41798677
_cell_length_c   13.13666822
_cell_angle_alpha   87.76756473
_cell_angle_beta   87.76756473
_cell_angle_gamma   33.90501385
_symmetry_Int_Tables_number   1
_chemical_formula_structural   Nb4P2AuS20
_chemical_formula_sum   'Nb8 P4 Au2 S40'
_cell_volume   1318.23203987
_cell_formula_units_Z   2
loop_
 _symmetry_equiv_pos_site_id
 _symmetry_equiv_pos_as_xyz
  1  'x, y, z'
loop_
 _atom_site_type_symbol
 _atom_site_label
 _atom_site_symmetry_multiplicity
 _atom_site_fract_x
 _atom_site_fract_y
 _atom_site_fract_z
 _atom_site_occupancy
  Nb  Nb0  1  0.41825400  0.30024200  0.00545700  1
  Nb  Nb1  1  0.58174600  0.69975800  0.99454300  1
  Nb  Nb2  1  0.69975800  0.58174600  0.49454300  1
  Nb  Nb3  1  0.30024200  0.41825400  0.50545700  1
  Nb  Nb4  1  0.57342200  0.70655000  0.27719200  1
  Nb  Nb5  1  0.42657800  0.29345000  0.72280800  1
  Nb  Nb6  1  0.29345000  0.42657800  0.22280800  1
  Nb  Nb7  1  0.70655000  0.57342200  0.77719200  1
  P  P0  1  0.21091500  0.99318800  0.13558500  1
  P  P1  1  0.78908500  0.00681200  0.86441500  1
  P  P2  1  0.00681200  0.78908500  0.36441500  1
  P  P3  1  0.99318800  0.21091500  0.63558500  1
  Au  Au0  1  0.00000000  0.00000000  0.00000000  1
  Au  Au1  1  0.00000000  0.00000000  0.50000000  1
  S  S0  1  0.50029100  0.18565800  0.36372100  1
  S  S1  1  0.49970900  0.81434200  0.63627900  1
  S  S2  1  0.81434200  0.49970900  0.13627900  1
  S  S3  1  0.18565800  0.50029100  0.86372100  1
  S  S4  1  0.42667000  0.71421900  0.14048500  1
  S  S5  1  0.57333000  0.28578100  0.85951500  1
  S  S6  1  0.28578100  0.57333000  0.35951500  1
  S  S7  1  0.71421900  0.42667000  0.64048500  1
  S  S8  1  0.24882000  0.04092800  0.26331700  1
  S  S9  1  0.75118000  0.95907200  0.73668300  1
  S  S10  1  0.95907200  0.75118000  0.23668300  1
  S  S11  1  0.04092800  0.24882000  0.76331700  1
  S  S12  1  0.86967200  0.03422700  0.36090100  1
  S  S13  1  0.13032800  0.96577300  0.63909900  1
  S  S14  1  0.96577300  0.13032800  0.13909900  1
  S  S15  1  0.03422700  0.86967200  0.86090100  1
  S  S16  1  0.26372000  0.03381100  0.00535100  1
  S  S17  1  0.73628000  0.96618900  0.99464900  1
  S  S18  1  0.96618900  0.73628000  0.49464900  1
  S  S19  1  0.03381100  0.26372000  0.50535100  1
  S  S20  1  0.54827500  0.30787800  0.13772000  1
  S  S21  1  0.45172500  0.69212200  0.86228000  1
  S  S22  1  0.69212200  0.45172500  0.36228000  1
  S  S23  1  0.30787800  0.54827500  0.63772000  1
  S  S24  1  0.57556000  0.84102600  0.40246100  1
  S  S25  1  0.42444000  0.15897400  0.59753900  1
  S  S26  1  0.15897400  0.42444000  0.09753900  1
  S  S27  1  0.84102600  0.57556000  0.90246100  1
  S  S28  1  0.40752200  0.17395800  0.14167000  1
  S  S29  1  0.59247800  0.82604200  0.85833000  1
  S  S30  1  0.82604200  0.59247800  0.35833000  1
  S  S31  1  0.17395800  0.40752200  0.64167000  1
  S  S32  1  0.66756100  0.75189600  0.13037200  1
  S  S33  1  0.33243900  0.24810400  0.86962800  1
  S  S34  1  0.24810400  0.33243900  0.36962800  1
  S  S35  1  0.75189600  0.66756100  0.63037200  1
  S  S36  1  0.30537900  0.55221900  0.07829200  1
  S  S37  1  0.69462100  0.44778100  0.92170800  1
  S  S38  1  0.44778100  0.69462100  0.42170800  1
  S  S39  1  0.55221900  0.30537900  0.57829200  1
loop_
_geom_bond_atom_site_label_1
_geom_bond_atom_site_label_2
_geom_bond_distance
_geom_bond_site_symmetry_2
Nb0 S28 2.498525 1_555
Nb0 S36 2.505943 1_555
Nb0 S26 2.559171 1_555
Nb0 S3 2.563170 1_554
Nb0 S17 2.563874 1_544
Nb0 S33 2.567808 1_554
Nb0 S20 2.572903 1_555
Nb0 S5 2.662897 1_554
Nb1 S29 2.498525 1_555
Nb1 S37 2.505943 1_555
Nb1 S27 2.559171 1_555
Nb1 S2 2.563170 1_556
Nb1 S16 2.563874 1_566
Nb1 S32 2.567808 1_556
Nb1 S21 2.572903 1_555
Nb1 S4 2.662897 1_556
Nb2 S30 2.498525 1_555
Nb2 S38 2.505943 1_555
Nb2 S24 2.559171 1_555
Nb2 S1 2.563170 1_555
Nb2 S19 2.563874 1_655
Nb2 S35 2.567808 1_555
Nb2 S22 2.572903 1_555
Nb2 S7 2.662897 1_555
Nb3 S31 2.498525 1_555
Nb3 S39 2.505943 1_555
Nb3 S25 2.559171 1_555
Nb3 S0 2.563170 1_555
Nb3 S18 2.563874 1_455
Nb3 S34 2.567808 1_555
Nb3 S23 2.572903 1_555
Nb3 S6 2.662897 1_555
Nb4 S22 2.505702 1_555
Nb4 S24 2.507123 1_555
Nb4 S30 2.551642 1_555
Nb4 S2 2.573116 1_555
Nb4 S38 2.578130 1_555
Nb4 S32 2.584627 1_555
Nb4 S8 2.587314 1_565
Nb4 S4 2.652910 1_555
Nb5 S23 2.505702 1_555
Nb5 S25 2.507123 1_555
Nb5 S31 2.551642 1_555
Nb5 S3 2.573116 1_555
Nb5 S39 2.578130 1_555
Nb5 S33 2.584627 1_555
Nb5 S9 2.587314 1_545
Nb5 S5 2.652910 1_555
Nb6 S20 2.505702 1_555
Nb6 S26 2.507123 1_555
Nb6 S28 2.551642 1_555
Nb6 S0 2.573116 1_555
Nb6 S36 2.578130 1_555
Nb6 S34 2.584627 1_555
Nb6 S10 2.587314 1_455
Nb6 S6 2.652910 1_555
Nb7 S21 2.505702 1_555
Nb7 S27 2.507123 1_555
Nb7 S29 2.551642 1_555
Nb7 S1 2.573116 1_555
Nb7 S37 2.578130 1_555
Nb7 S35 2.584627 1_555
Nb7 S11 2.587314 1_655
Nb7 S7 2.652910 1_555
P0 S14 2.038481 1_465
P0 S8 2.043440 1_565
P0 S16 2.049414 1_565
P0 S4 2.098705 1_555
P1 S15 2.038481 1_645
P1 S9 2.043440 1_545
P1 S17 2.049414 1_545
P1 S5 2.098705 1_555
P2 S12 2.038481 1_465
P2 S10 2.043440 1_455
P2 S18 2.049414 1_455
P2 S6 2.098705 1_555
P3 S13 2.038481 1_645
P3 S11 2.043440 1_655
P3 S19 2.049414 1_655
P3 S7 2.098705 1_555
Au0 S14 2.336337 1_455
Au0 S15 2.336337 1_544
Au1 S13 2.336337 1_545
Au1 S12 2.336337 1_455
S0 S34 2.065002 1_555
S1 S35 2.065002 1_555
S2 S32 2.065002 1_555
S3 S33 2.065002 1_555
S20 S36 2.059730 1_555
S21 S37 2.059730 1_555
S22 S38 2.059730 1_555
S23 S39 2.059730 1_555
S24 S30 2.036523 1_555
S25 S31 2.036523 1_555
S26 S28 2.036523 1_555
S27 S29 2.036523 1_555
