# generated using pymatgen
data_ZnCr(GeO3)2
_symmetry_space_group_name_H-M   'P 1'
_cell_length_a   9.10405100
_cell_length_b   5.57675800
_cell_length_c   10.04680009
_cell_angle_alpha   74.13082348
_cell_angle_beta   90.00000000
_cell_angle_gamma   90.00000000
_symmetry_Int_Tables_number   1
_chemical_formula_structural   ZnCr(GeO3)2
_chemical_formula_sum   'Zn4 Cr4 Ge8 O24'
_cell_volume   490.64683091
_cell_formula_units_Z   4
loop_
 _symmetry_equiv_pos_site_id
 _symmetry_equiv_pos_as_xyz
  1  'x, y, z'
loop_
 _atom_site_type_symbol
 _atom_site_label
 _atom_site_symmetry_multiplicity
 _atom_site_fract_x
 _atom_site_fract_y
 _atom_site_fract_z
 _atom_site_occupancy
  Zn  Zn0  1  0.48859200  0.55050000  0.24426000  1
  Zn  Zn1  1  0.98859200  0.94950000  0.75574000  1
  Zn  Zn2  1  0.51140800  0.44950000  0.75574000  1
  Zn  Zn3  1  0.01140800  0.05050000  0.24426000  1
  Cr  Cr0  1  0.65686600  0.04089700  0.24710000  1
  Cr  Cr1  1  0.15686600  0.45910300  0.75290000  1
  Cr  Cr2  1  0.34313400  0.95910300  0.75290000  1
  Cr  Cr3  1  0.84313400  0.54089700  0.24710000  1
  Ge  Ge0  1  0.33704500  0.18580100  0.05811900  1
  Ge  Ge1  1  0.83704500  0.31419900  0.94188100  1
  Ge  Ge2  1  0.66295500  0.81419900  0.94188100  1
  Ge  Ge3  1  0.16295500  0.68580100  0.05811900  1
  Ge  Ge4  1  0.34199900  0.74836800  0.45431100  1
  Ge  Ge5  1  0.84199900  0.75163200  0.54568900  1
  Ge  Ge6  1  0.65800100  0.25163200  0.54568900  1
  Ge  Ge7  1  0.15800100  0.24836800  0.45431100  1
  O  O0  1  0.28292200  0.50005100  0.38125900  1
  O  O1  1  0.78292200  0.99994900  0.61874100  1
  O  O2  1  0.71707800  0.49994900  0.61874100  1
  O  O3  1  0.21707800  0.00005100  0.38125900  1
  O  O4  1  0.32239200  0.84275400  0.10895900  1
  O  O5  1  0.82239200  0.65724600  0.89104100  1
  O  O6  1  0.67760800  0.15724600  0.89104100  1
  O  O7  1  0.17760800  0.34275400  0.10895900  1
  O  O8  1  0.98787700  0.29548100  0.37207100  1
  O  O9  1  0.48787700  0.20451900  0.62792900  1
  O  O10  1  0.01212300  0.70451900  0.62792900  1
  O  O11  1  0.51212300  0.79548100  0.37207100  1
  O  O12  1  0.01538700  0.77391400  0.14479900  1
  O  O13  1  0.51538700  0.72608600  0.85520100  1
  O  O14  1  0.98461300  0.22608600  0.85520100  1
  O  O15  1  0.48461300  0.27391400  0.14479900  1
  O  O16  1  0.33590200  0.26555400  0.87589500  1
  O  O17  1  0.83590200  0.23444600  0.12410500  1
  O  O18  1  0.66409800  0.73444600  0.12410500  1
  O  O19  1  0.16409800  0.76555400  0.87589500  1
  O  O20  1  0.33851500  0.66209200  0.63479500  1
  O  O21  1  0.83851500  0.83790800  0.36520500  1
  O  O22  1  0.66148500  0.33790800  0.36520500  1
  O  O23  1  0.16148500  0.16209200  0.63479500  1
loop_
_geom_bond_atom_site_label_1
_geom_bond_atom_site_label_2
_geom_bond_distance
_geom_bond_site_symmetry_2
Cr0 O11 2.060646 1_545
Cr0 O15 2.115147 1_555
Cr0 O17 2.149265 1_555
Cr0 O21 2.165573 1_545
Cr0 O22 2.286504 1_555
Cr0 O18 2.367893 1_545
Cr1 O10 2.060646 1_555
Cr1 O14 2.115147 1_455
Cr1 O16 2.149265 1_555
Cr1 O20 2.165573 1_555
Cr1 O23 2.286504 1_555
Cr1 O19 2.367893 1_555
Cr2 O9 2.060646 1_565
Cr2 O13 2.115147 1_555
Cr2 O19 2.149265 1_555
Cr2 O23 2.165573 1_565
Cr2 O20 2.286504 1_555
Cr2 O16 2.367893 1_565
Cr3 O8 2.060646 1_555
Cr3 O12 2.115147 1_655
Cr3 O18 2.149265 1_555
Cr3 O22 2.165573 1_555
Cr3 O21 2.286504 1_555
Cr3 O17 2.367893 1_555
Ge0 O15 1.743209 1_555
Ge0 O16 1.761911 1_554
Ge0 O7 1.838055 1_555
Ge0 O4 1.845050 1_545
Ge1 O14 1.743209 1_555
Ge1 O17 1.761911 1_556
Ge1 O6 1.838055 1_555
Ge1 O5 1.845050 1_555
Ge2 O13 1.743209 1_555
Ge2 O18 1.761911 1_556
Ge2 O5 1.838055 1_555
Ge2 O6 1.845050 1_565
Ge3 O12 1.743209 1_555
Ge3 O19 1.761911 1_554
Ge3 O4 1.838055 1_555
Ge3 O7 1.845050 1_555
Ge4 O11 1.741216 1_555
Ge4 O20 1.744530 1_555
Ge4 O3 1.799652 1_565
Ge4 O0 1.816990 1_555
Ge5 O10 1.741216 1_655
Ge5 O21 1.744530 1_555
Ge5 O2 1.799652 1_555
Ge5 O1 1.816990 1_555
Ge6 O9 1.741216 1_555
Ge6 O22 1.744530 1_555
Ge6 O1 1.799652 1_545
Ge6 O2 1.816990 1_555
Ge7 O8 1.741216 1_455
Ge7 O23 1.744530 1_555
Ge7 O0 1.799652 1_555
Ge7 O3 1.816990 1_555
O0 Zn0 2.295181 1_555
O1 Zn1 2.295181 1_555
O2 Zn2 2.295181 1_555
O3 Zn3 2.295181 1_555
O4 Zn0 2.362623 1_555
O5 Zn1 2.362623 1_555
O6 Zn2 2.362623 1_555
O7 Zn3 2.362623 1_555
O8 Zn3 2.126193 1_655
O9 Zn2 2.126193 1_555
O10 Zn1 2.126193 1_455
O11 Zn0 2.126193 1_555
O12 Zn3 2.054733 1_565
O13 Zn2 2.054733 1_555
O14 Zn1 2.054733 1_545
O15 Zn0 2.054733 1_555
O16 Zn2 2.094126 1_555
O17 Zn3 2.094126 1_655
O18 Zn0 2.094126 1_555
O19 Zn1 2.094126 1_455
O20 Zn2 2.138176 1_555
O21 Zn3 2.138176 1_665
O22 Zn0 2.138176 1_555
O23 Zn1 2.138176 1_445
