# generated using pymatgen
data_YMg6Mo
_symmetry_space_group_name_H-M   'P 1'
_cell_length_a   5.07092500
_cell_length_b   6.05520300
_cell_length_c   11.63113300
_cell_angle_alpha   90.00000000
_cell_angle_beta   90.00000000
_cell_angle_gamma   90.00000000
_symmetry_Int_Tables_number   1
_chemical_formula_structural   YMg6Mo
_chemical_formula_sum   'Y2 Mg12 Mo2'
_cell_volume   357.13952488
_cell_formula_units_Z   2
loop_
 _symmetry_equiv_pos_site_id
 _symmetry_equiv_pos_as_xyz
  1  'x, y, z'
loop_
 _atom_site_type_symbol
 _atom_site_label
 _atom_site_symmetry_multiplicity
 _atom_site_fract_x
 _atom_site_fract_y
 _atom_site_fract_z
 _atom_site_occupancy
  Y  Y0  1  0.50000000  0.00000000  0.17634700  1
  Y  Y1  1  0.50000000  0.50000000  0.67634700  1
  Mg  Mg0  1  0.50000000  0.25062800  0.42499000  1
  Mg  Mg1  1  0.50000000  0.74937200  0.42499000  1
  Mg  Mg2  1  0.00000000  0.73764500  0.08121900  1
  Mg  Mg3  1  0.00000000  0.26235500  0.08121900  1
  Mg  Mg4  1  0.00000000  0.00000000  0.33719100  1
  Mg  Mg5  1  0.00000000  0.50000000  0.30907100  1
  Mg  Mg6  1  0.50000000  0.75062800  0.92499000  1
  Mg  Mg7  1  0.50000000  0.24937200  0.92499000  1
  Mg  Mg8  1  0.00000000  0.23764500  0.58121900  1
  Mg  Mg9  1  0.00000000  0.76235500  0.58121900  1
  Mg  Mg10  1  0.00000000  0.50000000  0.83719100  1
  Mg  Mg11  1  0.00000000  0.00000000  0.80907100  1
  Mo  Mo0  1  0.50000000  0.50000000  0.16496800  1
  Mo  Mo1  1  0.50000000  0.00000000  0.66496800  1
loop_
_geom_bond_atom_site_label_1
_geom_bond_atom_site_label_2
_geom_bond_distance
_geom_bond_site_symmetry_2
Mg0 Mg1 3.019996 1_555
Mg0 Mg1 3.035207 1_545
Mg0 Mg8 3.120365 1_555
Mg0 Mg8 3.120365 1_655
Mg0 Mg4 3.126427 1_555
Mg0 Mg4 3.126427 1_655
Mg0 Mo1 3.177107 1_555
Mg0 Mg5 3.244456 1_555
Mg0 Mg5 3.244456 1_655
Mg0 Y0 3.266004 1_555
Mg0 Y1 3.290492 1_555
Mg0 Mo0 3.380354 1_555
Mg1 Mg9 3.120365 1_555
Mg1 Mg9 3.120365 1_655
Mg1 Mg4 3.126427 1_665
Mg1 Mg4 3.126427 1_565
Mg1 Mo1 3.177107 1_565
Mg1 Mg5 3.244456 1_555
Mg1 Mg5 3.244456 1_655
Mg1 Y0 3.266004 1_565
Mg1 Y1 3.290492 1_555
Mg1 Mo0 3.380354 1_555
Mg2 Mo0 3.073780 1_455
Mg2 Mo0 3.073780 1_555
Mg2 Mg6 3.120365 1_454
Mg2 Mg6 3.120365 1_554
Mg2 Y0 3.190060 1_565
Mg2 Y0 3.190060 1_465
Mg2 Mg4 3.374563 1_565
Mg3 Mo0 3.073780 1_455
Mg3 Mo0 3.073780 1_555
Mg3 Mg7 3.120365 1_454
Mg3 Mg7 3.120365 1_554
Mg3 Y0 3.190060 1_455
Mg3 Y0 3.190060 1_555
Mg3 Mg4 3.374563 1_555
Mg4 Mg5 3.045217 1_555
Mg4 Mg5 3.045217 1_545
Mg4 Y0 3.150945 1_555
Mg4 Y0 3.150945 1_455
Mg4 Mg8 3.182257 1_555
Mg4 Mg9 3.182257 1_545
Mg5 Mo0 3.039378 1_455
Mg5 Mo0 3.039378 1_555
Mg6 Mg7 3.019996 1_565
Mg6 Mg7 3.035207 1_555
Mg6 Mo0 3.177107 1_556
Mg6 Y1 3.266004 1_555
Mg6 Y0 3.290492 1_566
Mg6 Mo1 3.380354 1_565
Mg7 Mo0 3.177107 1_556
Mg7 Y1 3.266004 1_555
Mg7 Y0 3.290492 1_556
Mg7 Mo1 3.380354 1_555
Mg8 Mo1 3.073780 1_455
Mg8 Mo1 3.073780 1_555
Mg8 Y1 3.190060 1_455
Mg8 Y1 3.190060 1_555
Mg9 Mo1 3.073780 1_465
Mg9 Mo1 3.073780 1_565
Mg9 Y1 3.190060 1_455
Mg9 Y1 3.190060 1_555
Mg10 Mg11 3.045217 1_555
Mg10 Mg11 3.045217 1_565
Mg10 Mg6 3.126427 1_455
Mg10 Mg6 3.126427 1_555
Mg10 Mg7 3.126427 1_455
Mg10 Mg7 3.126427 1_555
Mg10 Y1 3.150945 1_455
Mg10 Y1 3.150945 1_555
Mg10 Mg2 3.182257 1_556
Mg10 Mg3 3.182257 1_556
Mg10 Mg8 3.374563 1_555
Mg10 Mg9 3.374563 1_555
Mg11 Mo1 3.039378 1_555
Mg11 Mo1 3.039378 1_455
Mg11 Mg7 3.244456 1_555
Mg11 Mg7 3.244456 1_455
Mg11 Mg6 3.244456 1_445
Mg11 Mg6 3.244456 1_545
Mo0 Y0 3.030493 1_555
Mo0 Y0 3.030493 1_565
Mo1 Y1 3.030493 1_545
Mo1 Y1 3.030493 1_555
