# generated using pymatgen
data_Yb4Rh6Pb19
_symmetry_space_group_name_H-M   'P 1'
_cell_length_a   10.31909799
_cell_length_b   10.31909799
_cell_length_c   10.31909799
_cell_angle_alpha   109.47122063
_cell_angle_beta   109.47122063
_cell_angle_gamma   109.47122063
_symmetry_Int_Tables_number   1
_chemical_formula_structural   Yb4Rh6Pb19
_chemical_formula_sum   'Yb4 Rh6 Pb19'
_cell_volume   845.86940784
_cell_formula_units_Z   1
loop_
 _symmetry_equiv_pos_site_id
 _symmetry_equiv_pos_as_xyz
  1  'x, y, z'
loop_
 _atom_site_type_symbol
 _atom_site_label
 _atom_site_symmetry_multiplicity
 _atom_site_fract_x
 _atom_site_fract_y
 _atom_site_fract_z
 _atom_site_occupancy
  Yb  Yb0  1  0.64893100  0.64893100  0.64893100  1
  Yb  Yb1  1  0.35106900  0.00000000  0.00000000  1
  Yb  Yb2  1  0.00000000  0.35106900  0.00000000  1
  Yb  Yb3  1  0.00000000  0.00000000  0.35106900  1
  Rh  Rh0  1  0.38230200  0.88230200  0.50000000  1
  Rh  Rh1  1  0.61769800  0.11769800  0.50000000  1
  Rh  Rh2  1  0.88230200  0.50000000  0.38230200  1
  Rh  Rh3  1  0.11769800  0.50000000  0.61769800  1
  Rh  Rh4  1  0.50000000  0.38230200  0.88230200  1
  Rh  Rh5  1  0.50000000  0.61769800  0.11769800  1
  Pb  Pb0  1  0.69559900  0.69559900  0.00000000  1
  Pb  Pb1  1  0.30440100  0.30440100  0.00000000  1
  Pb  Pb2  1  0.69559900  0.00000000  0.69559900  1
  Pb  Pb3  1  0.30440100  0.00000000  0.30440100  1
  Pb  Pb4  1  0.00000000  0.69559900  0.69559900  1
  Pb  Pb5  1  0.00000000  0.30440100  0.30440100  1
  Pb  Pb6  1  0.00000000  0.00000000  0.00000000  1
  Pb  Pb7  1  0.37160400  0.60917100  0.32616700  1
  Pb  Pb8  1  0.62839600  0.95456400  0.23756800  1
  Pb  Pb9  1  0.71699600  0.39082900  0.76243200  1
  Pb  Pb10  1  0.60917100  0.32616700  0.37160400  1
  Pb  Pb11  1  0.28300400  0.04543600  0.67383300  1
  Pb  Pb12  1  0.95456400  0.23756800  0.62839600  1
  Pb  Pb13  1  0.39082900  0.76243200  0.71699600  1
  Pb  Pb14  1  0.04543600  0.67383300  0.28300400  1
  Pb  Pb15  1  0.32616700  0.37160400  0.60917100  1
  Pb  Pb16  1  0.76243200  0.71699600  0.39082900  1
  Pb  Pb17  1  0.67383300  0.28300400  0.04543600  1
  Pb  Pb18  1  0.23756800  0.62839600  0.95456400  1
loop_
_geom_bond_atom_site_label_1
_geom_bond_atom_site_label_2
_geom_bond_distance
_geom_bond_site_symmetry_2
Rh0 Rh1 2.804854 1_565
Rh2 Rh3 2.804854 1_655
Rh4 Rh5 2.804854 1_556
Pb0 Rh5 2.720064 1_555
Pb0 Rh4 2.720064 1_554
Pb0 Yb0 3.332739 1_554
Pb0 Yb3 3.332739 1_665
Pb1 Rh4 2.720064 1_554
Pb1 Rh5 2.720064 1_555
Pb1 Yb2 3.332739 1_555
Pb1 Yb1 3.332739 1_555
Pb2 Rh1 2.720064 1_555
Pb2 Rh0 2.720064 1_545
Pb2 Yb0 3.332739 1_545
Pb2 Yb2 3.332739 1_656
Pb3 Rh1 2.720064 1_555
Pb3 Rh0 2.720064 1_545
Pb3 Yb3 3.332739 1_555
Pb3 Yb1 3.332739 1_555
Pb4 Rh2 2.720064 1_455
Pb4 Rh3 2.720064 1_555
Pb4 Yb0 3.332739 1_455
Pb4 Yb1 3.332739 1_566
Pb5 Rh2 2.720064 1_455
Pb5 Rh3 2.720064 1_555
Pb5 Yb3 3.332739 1_555
Pb5 Yb2 3.332739 1_555
Pb6 Yb0 3.622715 1_444
Pb6 Yb2 3.622715 1_555
Pb6 Yb1 3.622715 1_555
Pb6 Yb3 3.622715 1_555
Pb7 Rh0 2.731977 1_555
Pb7 Rh5 2.887820 1_555
Pb7 Yb0 3.376840 1_555
Pb7 Yb2 3.425936 1_555
Pb8 Rh1 2.731966 1_565
Pb8 Rh5 2.887828 1_555
Pb8 Yb1 3.376838 1_565
Pb8 Yb3 3.425941 1_665
Pb9 Rh1 2.731972 1_555
Pb9 Rh4 2.887827 1_555
Pb9 Yb2 3.376845 1_656
Pb9 Yb0 3.425931 1_555
Pb10 Rh2 2.731977 1_555
Pb10 Rh1 2.887820 1_555
Pb10 Yb0 3.376840 1_555
Pb10 Yb1 3.425936 1_555
Pb11 Rh0 2.731972 1_545
Pb11 Rh4 2.887827 1_555
Pb11 Yb3 3.376845 1_555
Pb11 Yb1 3.425931 1_556
Pb12 Rh3 2.731966 1_655
Pb12 Rh1 2.887828 1_555
Pb12 Yb3 3.376838 1_655
Pb12 Yb2 3.425941 1_656
Pb13 Rh3 2.731972 1_555
Pb13 Rh0 2.887827 1_555
Pb13 Yb1 3.376845 1_566
Pb13 Yb0 3.425931 1_555
Pb14 Rh2 2.731972 1_455
Pb14 Rh0 2.887827 1_555
Pb14 Yb2 3.376845 1_555
Pb14 Yb3 3.425931 1_565
Pb15 Rh4 2.731977 1_555
Pb15 Rh3 2.887820 1_555
Pb15 Yb0 3.376840 1_555
Pb15 Yb3 3.425936 1_555
Pb16 Rh5 2.731972 1_555
Pb16 Rh2 2.887827 1_555
Pb16 Yb3 3.376845 1_665
Pb16 Yb0 3.425931 1_555
Pb17 Rh4 2.731972 1_554
Pb17 Rh2 2.887827 1_555
Pb17 Yb1 3.376845 1_555
Pb17 Yb2 3.425931 1_655
Pb18 Rh5 2.731966 1_556
Pb18 Rh3 2.887828 1_555
Pb18 Yb2 3.376838 1_556
Pb18 Yb1 3.425941 1_566
