# generated using pymatgen
data_KMg14Fe
_symmetry_space_group_name_H-M   'P 1'
_cell_length_a   6.45246950
_cell_length_b   6.45246897
_cell_length_c   10.19902342
_cell_angle_alpha   90.00000000
_cell_angle_beta   90.00000000
_cell_angle_gamma   120.00000273
_symmetry_Int_Tables_number   1
_chemical_formula_structural   KMg14Fe
_chemical_formula_sum   'K1 Mg14 Fe1'
_cell_volume   367.74018799
_cell_formula_units_Z   1
loop_
 _symmetry_equiv_pos_site_id
 _symmetry_equiv_pos_as_xyz
  1  'x, y, z'
loop_
 _atom_site_type_symbol
 _atom_site_label
 _atom_site_symmetry_multiplicity
 _atom_site_fract_x
 _atom_site_fract_y
 _atom_site_fract_z
 _atom_site_occupancy
  K  K0  1  0.16666700  0.33333300  0.62500000  1
  Mg  Mg0  1  0.15299790  0.82649845  0.12500000  1
  Mg  Mg1  1  0.17852061  0.83925981  0.62500000  1
  Mg  Mg2  1  0.67350155  0.34700210  0.12500000  1
  Mg  Mg3  1  0.66074019  0.32147939  0.62500000  1
  Mg  Mg4  1  0.67350155  0.82649845  0.12500000  1
  Mg  Mg5  1  0.66074019  0.83925981  0.62500000  1
  Mg  Mg6  1  0.32821414  0.17178586  0.34568024  1
  Mg  Mg7  1  0.32821414  0.17178586  0.90431976  1
  Mg  Mg8  1  0.32821414  0.65642928  0.34568024  1
  Mg  Mg9  1  0.32821414  0.65642928  0.90431976  1
  Mg  Mg10  1  0.84357072  0.17178586  0.34568024  1
  Mg  Mg11  1  0.84357072  0.17178586  0.90431976  1
  Mg  Mg12  1  0.83333300  0.66666700  0.38417144  1
  Mg  Mg13  1  0.83333300  0.66666700  0.86582856  1
  Fe  Fe0  1  0.16666700  0.33333300  0.12500000  1
loop_
_geom_bond_atom_site_label_1
_geom_bond_atom_site_label_2
_geom_bond_distance
_geom_bond_site_symmetry_2
K0 Mg1 3.226914 1_545
K0 Mg5 3.226914 1_555
K0 Mg5 3.226914 1_445
K0 Mg1 3.226914 1_555
K0 Mg3 3.226915 1_555
K0 Mg3 3.226915 1_455
K0 Mg6 3.372722 1_555
K0 Mg7 3.372722 1_555
K0 Mg8 3.372728 1_555
K0 Mg9 3.372728 1_555
K0 Mg10 3.372728 1_455
K0 Mg11 3.372728 1_455
Mg0 Mg8 2.964596 1_555
Mg0 Mg9 2.964596 1_554
Mg0 Mg7 2.964603 1_564
Mg0 Mg6 2.964603 1_565
Mg0 Mg2 3.093935 1_455
Mg0 Mg4 3.093936 1_455
Mg0 Mg12 3.190272 1_455
Mg0 Mg13 3.190272 1_454
Mg0 Mg2 3.358534 1_565
Mg0 Mg4 3.358534 1_555
Mg1 Mg3 3.111507 1_565
Mg1 Mg5 3.111507 1_555
Mg1 Mg13 3.123090 1_455
Mg1 Mg12 3.123090 1_455
Mg1 Mg3 3.340962 1_455
Mg1 Mg5 3.340962 1_455
Mg1 Mg8 3.402900 1_555
Mg1 Mg9 3.402900 1_555
Mg1 Mg6 3.402906 1_565
Mg1 Mg7 3.402906 1_565
Mg2 Mg7 2.964603 1_554
Mg2 Mg6 2.964603 1_555
Mg2 Mg4 3.093935 1_555
Mg2 Mg4 3.358534 1_545
Mg3 Mg5 3.111507 1_545
Mg3 Mg5 3.340962 1_555
Mg3 Mg7 3.402907 1_555
Mg3 Mg6 3.402907 1_555
Mg4 Mg9 2.964603 1_554
Mg4 Mg8 2.964603 1_555
Mg5 Mg8 3.402906 1_555
Mg5 Mg9 3.402906 1_555
Mg6 Mg8 3.127147 1_555
Mg6 Mg8 3.325322 1_545
Mg7 Mg9 3.127147 1_555
Mg7 Mg9 3.325322 1_545
Mg10 Mg2 2.964596 1_555
Mg10 Mg4 2.964603 1_545
Mg10 Mg8 3.127147 1_655
Mg10 Mg6 3.127147 1_655
Mg10 Mg12 3.250535 1_545
Mg10 Mg12 3.250535 1_555
Mg10 Mg8 3.325322 1_545
Mg10 Mg6 3.325323 1_555
Mg10 Mg3 3.402900 1_555
Mg10 Mg5 3.402906 1_545
Mg11 Mg2 2.964596 1_556
Mg11 Mg4 2.964603 1_546
Mg11 Mg9 3.127147 1_655
Mg11 Mg7 3.127147 1_655
Mg11 Mg13 3.250535 1_545
Mg11 Mg13 3.250535 1_555
Mg11 Mg9 3.325322 1_545
Mg11 Mg7 3.325323 1_555
Mg11 Mg3 3.402900 1_555
Mg11 Mg5 3.402906 1_545
Mg12 Mg5 3.123083 1_555
Mg12 Mg3 3.123089 1_555
Mg12 Mg4 3.190266 1_555
Mg12 Mg2 3.190272 1_555
Mg12 Mg6 3.250535 1_665
Mg12 Mg6 3.250535 1_555
Mg12 Mg8 3.250535 1_555
Mg12 Mg8 3.250535 1_655
Mg13 Mg5 3.123083 1_555
Mg13 Mg3 3.123089 1_555
Mg13 Mg4 3.190266 1_556
Mg13 Mg2 3.190272 1_556
Mg13 Mg7 3.250535 1_665
Mg13 Mg7 3.250535 1_555
Mg13 Mg9 3.250535 1_555
Mg13 Mg9 3.250535 1_655
Fe0 Mg7 2.885379 1_554
Fe0 Mg6 2.885379 1_555
Fe0 Mg9 2.885385 1_554
Fe0 Mg8 2.885385 1_555
Fe0 Mg11 2.885386 1_454
Fe0 Mg10 2.885386 1_455
Fe0 Mg0 3.227139 1_545
Fe0 Mg4 3.227139 1_445
Fe0 Mg4 3.227139 1_555
Fe0 Mg0 3.227139 1_555
Fe0 Mg2 3.227139 1_555
Fe0 Mg2 3.227139 1_455
