# generated using pymatgen
data_Ba2LaMn2O7
_symmetry_space_group_name_H-M   'P 1'
_cell_length_a   10.86810436
_cell_length_b   10.86810436
_cell_length_c   10.86810436
_cell_angle_alpha   158.74976900
_cell_angle_beta   158.74976900
_cell_angle_gamma   30.22982780
_symmetry_Int_Tables_number   1
_chemical_formula_structural   Ba2LaMn2O7
_chemical_formula_sum   'Ba2 La1 Mn2 O7'
_cell_volume   168.52674362
_cell_formula_units_Z   1
loop_
 _symmetry_equiv_pos_site_id
 _symmetry_equiv_pos_as_xyz
  1  'x, y, z'
loop_
 _atom_site_type_symbol
 _atom_site_label
 _atom_site_symmetry_multiplicity
 _atom_site_fract_x
 _atom_site_fract_y
 _atom_site_fract_z
 _atom_site_occupancy
  Ba  Ba0  1  0.68137200  0.68137200  0.00000000  1
  Ba  Ba1  1  0.31862800  0.31862800  0.00000000  1
  La  La0  1  0.50000000  0.50000000  0.00000000  1
  Mn  Mn0  1  0.90676000  0.90676000  0.00000000  1
  Mn  Mn1  1  0.09324000  0.09324000  0.00000000  1
  O  O0  1  0.81373700  0.81373700  0.00000000  1
  O  O1  1  0.18626300  0.18626300  0.00000000  1
  O  O2  1  0.91361800  0.41361800  0.50000000  1
  O  O3  1  0.41361800  0.91361800  0.50000000  1
  O  O4  1  0.08638200  0.58638200  0.50000000  1
  O  O5  1  0.58638200  0.08638200  0.50000000  1
  O  O6  1  0.00000000  0.00000000  0.00000000  1
loop_
_geom_bond_atom_site_label_1
_geom_bond_atom_site_label_2
_geom_bond_distance
_geom_bond_site_symmetry_2
Ba0 O0 2.777579 1_555
Ba0 O4 2.826442 1_554
Ba0 O4 2.826442 1_655
Ba0 O5 2.826442 1_554
Ba0 O5 2.826442 1_565
Ba0 O1 2.835779 1_565
Ba0 O1 2.835779 1_554
Ba0 O1 2.835779 1_655
Ba0 O1 2.835779 1_666
Ba1 O1 2.777579 1_555
Ba1 O3 2.826442 1_544
Ba1 O2 2.826442 1_555
Ba1 O2 2.826442 1_454
Ba1 O3 2.826442 1_555
Ba1 O0 2.835779 1_444
Ba1 O0 2.835779 1_455
Ba1 O0 2.835779 1_556
Ba1 O0 2.835779 1_545
La0 O5 2.702091 1_565
La0 O3 2.702091 1_544
La0 O4 2.702091 1_655
La0 O2 2.702091 1_454
La0 O4 2.702091 1_554
La0 O5 2.702091 1_554
La0 O3 2.702091 1_555
La0 O2 2.702091 1_555
La0 O6 2.833921 1_655
La0 O6 2.833921 1_666
La0 O6 2.833921 1_554
La0 O6 2.833921 1_565
Mn0 O0 1.952017 1_555
Mn0 O6 1.956571 1_665
Mn0 O3 2.009046 1_554
Mn0 O3 2.009046 1_655
Mn0 O2 2.009046 1_565
Mn0 O2 2.009046 1_554
Mn1 O1 1.952017 1_555
Mn1 O6 1.956571 1_555
Mn1 O5 2.009046 1_555
Mn1 O4 2.009046 1_555
Mn1 O5 2.009046 1_454
Mn1 O4 2.009046 1_544
