# generated using pymatgen
data_La2Sn4Ir
_symmetry_space_group_name_H-M   'P 1'
_cell_length_a   4.69123800
_cell_length_b   4.72994300
_cell_length_c   8.90441005
_cell_angle_alpha   74.59765443
_cell_angle_beta   90.00000000
_cell_angle_gamma   90.00000000
_symmetry_Int_Tables_number   1
_chemical_formula_structural   La2Sn4Ir
_chemical_formula_sum   'La2 Sn4 Ir1'
_cell_volume   190.48625344
_cell_formula_units_Z   1
loop_
 _symmetry_equiv_pos_site_id
 _symmetry_equiv_pos_as_xyz
  1  'x, y, z'
loop_
 _atom_site_type_symbol
 _atom_site_label
 _atom_site_symmetry_multiplicity
 _atom_site_fract_x
 _atom_site_fract_y
 _atom_site_fract_z
 _atom_site_occupancy
  La  La0  1  0.25000000  0.89735400  0.20529200  1
  La  La1  1  0.75000000  0.10249400  0.79501100  1
  Sn  Sn0  1  0.25000000  0.54029400  0.91941200  1
  Sn  Sn1  1  0.75000000  0.42674200  0.14651700  1
  Sn  Sn2  1  0.25000000  0.26189400  0.47621100  1
  Sn  Sn3  1  0.75000000  0.76363200  0.47273600  1
  Ir  Ir0  1  0.25000000  0.69159000  0.61682000  1
loop_
_geom_bond_atom_site_label_1
_geom_bond_atom_site_label_2
_geom_bond_distance
_geom_bond_site_symmetry_2
La0 Sn3 3.282238 1_455
La0 Sn3 3.282238 1_555
La0 Sn2 3.316943 1_565
La0 Sn2 3.316946 1_555
La0 Sn1 3.368915 1_555
La0 Sn1 3.368915 1_455
La0 Sn1 3.368918 1_465
La0 Sn1 3.368918 1_565
La0 Sn0 3.408229 1_564
La0 Sn0 3.408229 1_554
La1 Sn0 3.497926 1_545
La1 Sn0 3.497926 1_645
La1 Sn0 3.497930 1_555
La1 Sn0 3.497930 1_655
La1 Sn2 3.604421 1_555
La1 Sn2 3.604421 1_655
La1 Sn3 3.639667 1_545
La1 Sn3 3.639670 1_555
La1 Sn1 3.833877 1_546
La1 Sn1 3.833883 1_556
Sn0 Sn1 3.050065 1_456
Sn0 Sn1 3.050065 1_556
Ir0 Sn0 2.597632 1_555
Ir0 Sn3 2.651765 1_555
Ir0 Sn3 2.651765 1_455
Ir0 Sn2 2.655203 1_565
Ir0 Sn2 2.655207 1_555
Ir0 La1 3.665377 1_465
Ir0 La1 3.665377 1_565
Ir0 La1 3.665380 1_455
Ir0 La1 3.665380 1_555
