# generated using pymatgen
data_NaLi2Sn
_symmetry_space_group_name_H-M   'P 1'
_cell_length_a   12.94994014
_cell_length_b   12.94994014
_cell_length_c   12.94994014
_cell_angle_alpha   149.09290990
_cell_angle_beta   132.30703706
_cell_angle_gamma   57.91987458
_symmetry_Int_Tables_number   1
_chemical_formula_structural   NaLi2Sn
_chemical_formula_sum   'Na8 Li16 Sn8'
_cell_volume   818.78158574
_cell_formula_units_Z   8
loop_
 _symmetry_equiv_pos_site_id
 _symmetry_equiv_pos_as_xyz
  1  'x, y, z'
loop_
 _atom_site_type_symbol
 _atom_site_label
 _atom_site_symmetry_multiplicity
 _atom_site_fract_x
 _atom_site_fract_y
 _atom_site_fract_z
 _atom_site_occupancy
  Na  Na0_0  1  0.00000000  0.00000000  0.00000000  1
  Na  Na0_1  1  0.00000000  0.00000000  0.50000000  1
  Na  Na0_2  1  1.00000000  0.50000000  0.00000000  1
  Na  Na0_3  1  1.00000000  0.50000000  0.50000000  1
  Na  Na0_4  1  0.50000000  0.00000000  0.00000000  1
  Na  Na0_5  1  0.50000000  0.00000000  0.50000000  1
  Na  Na0_6  1  0.50000000  0.50000000  0.00000000  1
  Na  Na0_7  1  0.50000000  0.50000000  0.50000000  1
  Li  Li0_0  1  0.12905400  0.12905400  0.00000000  1
  Li  Li0_1  1  0.12905400  0.12905400  0.50000000  1
  Li  Li0_2  1  0.12905400  0.62905400  0.00000000  1
  Li  Li0_3  1  0.12905400  0.62905400  0.50000000  1
  Li  Li0_4  1  0.62905400  0.12905400  0.00000000  1
  Li  Li0_5  1  0.62905400  0.12905400  0.50000000  1
  Li  Li0_6  1  0.62905400  0.62905400  0.00000000  1
  Li  Li0_7  1  0.62905400  0.62905400  0.50000000  1
  Li  Li1_0  1  0.37094600  0.37094600  0.00000000  1
  Li  Li1_1  1  0.37094600  0.37094600  0.50000000  1
  Li  Li1_2  1  0.37094600  0.87094600  0.00000000  1
  Li  Li1_3  1  0.37094600  0.87094600  0.50000000  1
  Li  Li1_4  1  0.87094600  0.37094600  0.00000000  1
  Li  Li1_5  1  0.87094600  0.37094600  0.50000000  1
  Li  Li1_6  1  0.87094600  0.87094600  0.00000000  1
  Li  Li1_7  1  0.87094600  0.87094600  0.50000000  1
  Sn  Sn0_0  1  0.25000000  0.25000000  0.00000000  1
  Sn  Sn0_1  1  0.25000000  0.25000000  0.50000000  1
  Sn  Sn0_2  1  0.25000000  0.75000000  0.00000000  1
  Sn  Sn0_3  1  0.25000000  0.75000000  0.50000000  1
  Sn  Sn0_4  1  0.75000000  0.25000000  0.00000000  1
  Sn  Sn0_5  1  0.75000000  0.25000000  0.50000000  1
  Sn  Sn0_6  1  0.75000000  0.75000000  0.00000000  1
  Sn  Sn0_7  1  0.75000000  0.75000000  0.50000000  1
loop_
_geom_bond_atom_site_label_1
_geom_bond_atom_site_label_2
_geom_bond_distance
_geom_bond_site_symmetry_2
Na0_0 Sn0_2 3.135167 1_545
Na0_0 Sn0_1 3.135167 1_555
Na0_0 Sn0_7 3.135167 1_444
Na0_0 Sn0_4 3.135167 1_455
Na0_0 Na0_3 3.450602 1_444
Na0_0 Na0_3 3.450602 1_455
Na0_1 Sn0_3 3.135167 1_545
Na0_1 Sn0_0 3.135167 1_556
Na0_1 Sn0_5 3.135167 1_455
Na0_1 Sn0_6 3.135167 1_445
Na0_1 Na0_2 3.450602 1_445
Na0_1 Na0_2 3.450602 1_456
Na0_2 Sn0_3 3.135167 1_655
Na0_2 Sn0_5 3.135167 1_554
Na0_2 Sn0_6 3.135167 1_555
Na0_2 Sn0_0 3.135167 1_655
Na0_3 Sn0_4 3.135167 1_555
Na0_3 Sn0_2 3.135167 1_656
Na0_3 Sn0_7 3.135167 1_555
Na0_3 Sn0_1 3.135167 1_655
Na0_4 Sn0_6 3.135167 1_545
Na0_4 Sn0_5 3.135167 1_555
Na0_4 Sn0_3 3.135167 1_544
Na0_4 Sn0_0 3.135167 1_555
Na0_4 Na0_7 3.450602 1_544
Na0_4 Na0_7 3.450602 1_555
Na0_5 Sn0_7 3.135167 1_545
Na0_5 Sn0_2 3.135167 1_545
Na0_5 Sn0_4 3.135167 1_556
Na0_5 Sn0_1 3.135167 1_555
Na0_5 Na0_6 3.450602 1_545
Na0_5 Na0_6 3.450602 1_556
Na0_6 Sn0_2 3.135167 1_555
Na0_6 Sn0_1 3.135167 1_554
Na0_6 Sn0_7 3.135167 1_555
Na0_6 Sn0_4 3.135167 1_555
Na0_7 Sn0_6 3.135167 1_556
Na0_7 Sn0_5 3.135167 1_555
Na0_7 Sn0_0 3.135167 1_555
Na0_7 Sn0_3 3.135167 1_555
Li0_0 Sn0_0 2.740796 1_555
Li0_0 Na0_0 2.924534 1_555
Li0_0 Li1_2 3.140547 1_545
Li0_0 Li1_7 3.140547 1_444
Li0_0 Li1_4 3.140547 1_455
Li0_0 Li1_1 3.140547 1_555
Li0_1 Sn0_1 2.740796 1_555
Li0_1 Na0_1 2.924534 1_555
Li0_1 Li1_3 3.140547 1_545
Li0_1 Li1_0 3.140547 1_556
Li0_1 Li1_6 3.140547 1_445
Li0_1 Li1_5 3.140547 1_455
Li0_2 Sn0_2 2.740796 1_555
Li0_2 Na0_2 2.924534 1_455
Li0_2 Li1_3 3.140547 1_555
Li0_2 Li1_0 3.140547 1_555
Li0_2 Li1_5 3.140547 1_454
Li0_2 Li1_6 3.140547 1_455
Li0_3 Sn0_3 2.740796 1_555
Li0_3 Na0_3 2.924534 1_455
Li0_3 Li1_4 3.140547 1_455
Li0_3 Li1_2 3.140547 1_556
Li0_3 Li1_1 3.140547 1_555
Li0_3 Li1_7 3.140547 1_455
Li0_4 Sn0_4 2.740796 1_555
Li0_4 Na0_4 2.924534 1_555
Li0_4 Li1_6 3.140547 1_545
Li0_4 Li1_5 3.140547 1_555
Li0_4 Li1_0 3.140547 1_555
Li0_4 Li1_3 3.140547 1_544
Li0_5 Sn0_5 2.740796 1_555
Li0_5 Na0_5 2.924534 1_555
Li0_5 Li1_7 3.140547 1_545
Li0_5 Li1_4 3.140547 1_556
Li0_5 Li1_1 3.140547 1_555
Li0_5 Li1_2 3.140547 1_545
Li0_6 Sn0_6 2.740796 1_555
Li0_6 Na0_6 2.924534 1_555
Li0_6 Li1_7 3.140547 1_555
Li0_6 Li1_1 3.140547 1_554
Li0_6 Li1_4 3.140547 1_555
Li0_6 Li1_2 3.140547 1_555
Li0_7 Sn0_7 2.740796 1_555
Li0_7 Na0_7 2.924534 1_555
Li0_7 Li1_5 3.140547 1_555
Li0_7 Li1_0 3.140547 1_555
Li0_7 Li1_3 3.140547 1_555
Li0_7 Li1_6 3.140547 1_556
Li1_0 Sn0_0 2.740796 1_555
Li1_0 Na0_6 2.924534 1_555
Li1_1 Sn0_1 2.740796 1_555
Li1_1 Na0_7 2.924534 1_555
Li1_2 Sn0_2 2.740796 1_555
Li1_2 Na0_4 2.924534 1_565
Li1_3 Sn0_3 2.740796 1_555
Li1_3 Na0_5 2.924534 1_565
Li1_4 Sn0_4 2.740796 1_555
Li1_4 Na0_2 2.924534 1_555
Li1_5 Sn0_5 2.740796 1_555
Li1_5 Na0_3 2.924534 1_555
Li1_6 Sn0_6 2.740796 1_555
Li1_6 Na0_0 2.924534 1_665
Li1_7 Sn0_7 2.740796 1_555
Li1_7 Na0_1 2.924534 1_665
