# generated using pymatgen
data_SmP2H16C6NO13
_symmetry_space_group_name_H-M   'P 1'
_cell_length_a   8.97967272
_cell_length_b   13.03045003
_cell_length_c   14.83073529
_cell_angle_alpha   113.37270719
_cell_angle_beta   90.00000000
_cell_angle_gamma   90.00000000
_symmetry_Int_Tables_number   1
_chemical_formula_structural   SmP2H16C6NO13
_chemical_formula_sum   'Sm4 P8 H64 C24 N4 O52'
_cell_volume   1592.93719629
_cell_formula_units_Z   4
loop_
 _symmetry_equiv_pos_site_id
 _symmetry_equiv_pos_as_xyz
  1  'x, y, z'
loop_
 _atom_site_type_symbol
 _atom_site_label
 _atom_site_symmetry_multiplicity
 _atom_site_fract_x
 _atom_site_fract_y
 _atom_site_fract_z
 _atom_site_occupancy
  Sm  Sm0  1  0.74759535  0.91019230  0.33417700  1
  Sm  Sm1  1  0.24759535  0.08980770  0.16582300  1
  Sm  Sm2  1  0.25240465  0.08980770  0.66582300  1
  Sm  Sm3  1  0.75240465  0.91019230  0.83417700  1
  P  P0  1  0.89421050  0.17043080  0.30801491  1
  P  P1  1  0.39421050  0.82956920  0.19198509  1
  P  P2  1  0.10578950  0.82956920  0.69198509  1
  P  P3  1  0.60578950  0.17043080  0.80801491  1
  P  P4  1  0.39427194  0.37837168  0.21374116  1
  P  P5  1  0.89427194  0.62162832  0.28625884  1
  P  P6  1  0.60572806  0.62162832  0.78625884  1
  P  P7  1  0.10572806  0.37837168  0.71374116  1
  H  H0  1  0.25836660  0.44867665  0.35227254  1
  H  H1  1  0.75836660  0.55132335  0.14772746  1
  H  H2  1  0.74163340  0.55132335  0.64772746  1
  H  H3  1  0.24163340  0.44867665  0.85227254  1
  H  H4  1  0.93880165  0.88556197  0.15460107  1
  H  H5  1  0.43880165  0.11443803  0.34539893  1
  H  H6  1  0.06119835  0.11443803  0.84539893  1
  H  H7  1  0.56119835  0.88556197  0.65460107  1
  H  H8  1  0.85119783  0.77151022  0.11705542  1
  H  H9  1  0.35119783  0.22848978  0.38294458  1
  H  H10  1  0.14880217  0.22848978  0.88294458  1
  H  H11  1  0.64880217  0.77151022  0.61705542  1
  H  H12  1  0.87533555  0.73051008  0.96897982  1
  H  H13  1  0.37533555  0.26948992  0.53102018  1
  H  H14  1  0.12466445  0.26948992  0.03102018  1
  H  H15  1  0.62466445  0.73051008  0.46897982  1
  H  H16  1  0.75437071  0.64078885  0.95787265  1
  H  H17  1  0.25437071  0.35921115  0.54212735  1
  H  H18  1  0.24562929  0.35921115  0.04212735  1
  H  H19  1  0.74562929  0.64078885  0.45787265  1
  H  H20  1  0.02702270  0.49376651  0.39120553  1
  H  H21  1  0.52702270  0.50623349  0.10879447  1
  H  H22  1  0.97297730  0.50623349  0.60879447  1
  H  H23  1  0.47297730  0.49376651  0.89120553  1
  H  H24  1  0.57596903  0.22001101  0.26524853  1
  H  H25  1  0.07596903  0.77998899  0.23475147  1
  H  H26  1  0.42403097  0.77998899  0.73475147  1
  H  H27  1  0.92403097  0.22001101  0.76524853  1
  H  H28  1  0.78417381  0.17513112  0.15923513  1
  H  H29  1  0.28417381  0.82486888  0.34076487  1
  H  H30  1  0.21582619  0.82486888  0.84076487  1
  H  H31  1  0.71582619  0.17513112  0.65923513  1
  H  H32  1  0.87120933  0.30512423  0.23502392  1
  H  H33  1  0.37120933  0.69487577  0.26497608  1
  H  H34  1  0.12879067  0.69487577  0.76497608  1
  H  H35  1  0.62879067  0.30512423  0.73502392  1
  H  H36  1  0.65812664  0.42566751  0.23800956  1
  H  H37  1  0.15812664  0.57433249  0.26199044  1
  H  H38  1  0.34187336  0.57433249  0.76199044  1
  H  H39  1  0.84187336  0.42566751  0.73800956  1
  H  H40  1  0.62177378  0.29598863  0.13773888  1
  H  H41  1  0.12177378  0.70401137  0.36226112  1
  H  H42  1  0.37822622  0.70401137  0.86226112  1
  H  H43  1  0.87822622  0.29598863  0.63773888  1
  H  H44  1  0.54452562  0.38856878  0.40738886  1
  H  H45  1  0.04452562  0.61143122  0.09261114  1
  H  H46  1  0.45547438  0.61143122  0.59261114  1
  H  H47  1  0.95547438  0.38856878  0.90738886  1
  H  H48  1  0.72785424  0.43196954  0.38927988  1
  H  H49  1  0.22785424  0.56803046  0.11072012  1
  H  H50  1  0.27214576  0.56803046  0.61072012  1
  H  H51  1  0.77214576  0.43196954  0.88927988  1
  H  H52  1  0.65567587  0.22548343  0.43489430  1
  H  H53  1  0.15567587  0.77451657  0.06510570  1
  H  H54  1  0.34432413  0.77451657  0.56510570  1
  H  H55  1  0.84432413  0.22548343  0.93489430  1
  H  H56  1  0.72045009  0.35834832  0.52037037  1
  H  H57  1  0.22045009  0.64165168  0.97962963  1
  H  H58  1  0.27954991  0.64165168  0.47962963  1
  H  H59  1  0.77954991  0.35834832  0.02037037  1
  H  H60  1  0.07082747  0.38392195  0.40628454  1
  H  H61  1  0.57082747  0.61607805  0.09371546  1
  H  H62  1  0.92917253  0.61607805  0.59371546  1
  H  H63  1  0.42917253  0.38392195  0.90628454  1
  C  C0  1  0.80061430  0.23620446  0.23488092  1
  C  C1  1  0.30061430  0.76379554  0.26511908  1
  C  C2  1  0.19938570  0.76379554  0.76511908  1
  C  C3  1  0.69938570  0.23620446  0.73488092  1
  C  C4  1  0.59419547  0.34756579  0.21460686  1
  C  C5  1  0.09419547  0.65243421  0.28539314  1
  C  C6  1  0.40580453  0.65243421  0.78539314  1
  C  C7  1  0.90580453  0.34756579  0.71460686  1
  C  C8  1  0.65803184  0.36018429  0.38279934  1
  C  C9  1  0.15803184  0.63981571  0.11720066  1
  C  C10  1  0.34196816  0.63981571  0.61720066  1
  C  C11  1  0.84196816  0.36018429  0.88279934  1
  C  C12  1  0.72106150  0.30001455  0.44319432  1
  C  C13  1  0.22106150  0.69998545  0.05680568  1
  C  C14  1  0.27893850  0.69998545  0.55680568  1
  C  C15  1  0.77893850  0.30001455  0.94319432  1
  C  C16  1  0.51145481  0.94778458  0.51195776  1
  C  C17  1  0.01145481  0.05221542  0.98804224  1
  C  C18  1  0.48854519  0.05221542  0.48804224  1
  C  C19  1  0.98854519  0.94778458  0.01195776  1
  C  C20  1  0.94090877  0.03466400  0.53801162  1
  C  C21  1  0.44090877  0.96533600  0.96198838  1
  C  C22  1  0.05909123  0.96533600  0.46198838  1
  C  C23  1  0.55909123  0.03466400  0.03801162  1
  N  N0  1  0.65017870  0.28536810  0.27467366  1
  N  N1  1  0.15017870  0.71463190  0.22532634  1
  N  N2  1  0.34982130  0.71463190  0.72532634  1
  N  N3  1  0.84982130  0.28536810  0.77467366  1
  O  O0  1  0.05818780  0.16357464  0.28512227  1
  O  O1  1  0.55818780  0.83642536  0.21487773  1
  O  O2  1  0.94181220  0.83642536  0.71487773  1
  O  O3  1  0.44181220  0.16357464  0.78512227  1
  O  O4  1  0.81033767  0.06677516  0.29891393  1
  O  O5  1  0.31033767  0.93322484  0.20108607  1
  O  O6  1  0.18966233  0.93322484  0.70108607  1
  O  O7  1  0.68966233  0.06677516  0.79891393  1
  O  O8  1  0.87599756  0.26712945  0.41749197  1
  O  O9  1  0.37599756  0.73287055  0.08250803  1
  O  O10  1  0.12400244  0.73287055  0.58250803  1
  O  O11  1  0.62400244  0.26712945  0.91749197  1
  O  O12  1  0.30347277  0.27203728  0.18535730  1
  O  O13  1  0.80347277  0.72796272  0.31464270  1
  O  O14  1  0.69652723  0.72796272  0.81464270  1
  O  O15  1  0.19652723  0.27203728  0.68535730  1
  O  O16  1  0.35870717  0.46065209  0.32351198  1
  O  O17  1  0.85870717  0.53934791  0.17648802  1
  O  O18  1  0.64129283  0.53934791  0.67648802  1
  O  O19  1  0.14129283  0.46065209  0.82351198  1
  O  O20  1  0.38602781  0.43697844  0.14343810  1
  O  O21  1  0.88602781  0.56302156  0.35656190  1
  O  O22  1  0.61397219  0.56302156  0.85656190  1
  O  O23  1  0.11397219  0.43697844  0.64343810  1
  O  O24  1  0.46070914  0.95394117  0.59390654  1
  O  O25  1  0.96070914  0.04605883  0.90609346  1
  O  O26  1  0.53929086  0.04605883  0.40609346  1
  O  O27  1  0.03929086  0.95394117  0.09390654  1
  O  O28  1  0.57821016  0.86521518  0.44844274  1
  O  O29  1  0.07821016  0.13478482  0.05155726  1
  O  O30  1  0.42178984  0.13478482  0.55155726  1
  O  O31  1  0.92178984  0.86521518  0.94844274  1
  O  O32  1  0.98573203  0.08673004  0.62544254  1
  O  O33  1  0.48573203  0.91326996  0.87455746  1
  O  O34  1  0.01426797  0.91326996  0.37455746  1
  O  O35  1  0.51426797  0.08673004  0.12544254  1
  O  O36  1  0.80984089  0.03424832  0.50666974  1
  O  O37  1  0.30984089  0.96575168  0.99333026  1
  O  O38  1  0.19015911  0.96575168  0.49333026  1
  O  O39  1  0.69015911  0.03424832  0.00666974  1
  O  O40  1  0.89088329  0.83216986  0.17852002  1
  O  O41  1  0.39088329  0.16783014  0.32147998  1
  O  O42  1  0.10911671  0.16783014  0.82147998  1
  O  O43  1  0.60911671  0.83216986  0.67852002  1
  O  O44  1  0.84136956  0.67853720  0.99812868  1
  O  O45  1  0.34136956  0.32146280  0.50187132  1
  O  O46  1  0.15863044  0.32146280  0.00187132  1
  O  O47  1  0.65863044  0.67853720  0.49812868  1
  O  O48  1  0.11159627  0.45334546  0.40633481  1
  O  O49  1  0.61159627  0.54665454  0.09366519  1
  O  O50  1  0.88840373  0.54665454  0.59366519  1
  O  O51  1  0.38840373  0.45334546  0.90633481  1
loop_
_geom_bond_atom_site_label_1
_geom_bond_atom_site_label_2
_geom_bond_distance
_geom_bond_site_symmetry_2
H0 O16 1.034864 1_555
H0 O48 1.531289 1_555
H1 O17 1.034864 1_555
H1 O49 1.531289 1_555
H2 O18 1.034864 1_555
H2 O50 1.531289 1_555
H3 O19 1.034864 1_555
H3 O51 1.531289 1_555
H4 O40 0.995406 1_555
H5 O41 0.995406 1_555
H6 O42 0.995406 1_555
H7 O43 0.995406 1_555
H8 O40 1.005503 1_555
H9 O41 1.005503 1_555
H10 O42 1.005503 1_555
H11 O43 1.005503 1_555
H12 O44 0.985310 1_555
H13 O45 0.985310 1_555
H14 O46 0.985310 1_555
H15 O47 0.985310 1_555
H16 O44 0.987771 1_555
H17 O45 0.987771 1_555
H18 O46 0.987771 1_555
H19 O47 0.987771 1_555
H20 O48 0.999142 1_555
H21 O49 0.999142 1_555
H22 O50 0.999142 1_555
H23 O51 0.999142 1_555
H24 N0 1.046148 1_555
H25 N1 1.046148 1_555
H26 N2 1.046148 1_555
H27 N3 1.046148 1_555
H60 O48 0.975615 1_555
H61 O49 0.975615 1_555
H62 O50 0.975615 1_555
H63 O51 0.975615 1_555
C0 H28 1.097889 1_555
C0 H32 1.098568 1_555
C0 N0 1.511140 1_555
C0 P0 1.831643 1_555
C1 H29 1.097889 1_555
C1 H33 1.098568 1_555
C1 N1 1.511140 1_555
C1 P1 1.831643 1_555
C2 H30 1.097889 1_555
C2 H34 1.098568 1_555
C2 N2 1.511140 1_555
C2 P2 1.831643 1_555
C3 H31 1.097889 1_555
C3 H35 1.098568 1_555
C3 N3 1.511140 1_555
C3 P3 1.831643 1_555
C4 H40 1.097604 1_555
C4 H36 1.097949 1_555
C4 N0 1.508641 1_555
C4 P4 1.840734 1_555
C5 H41 1.097604 1_555
C5 H37 1.097949 1_555
C5 N1 1.508641 1_555
C5 P5 1.840734 1_455
C6 H42 1.097604 1_555
C6 H38 1.097949 1_555
C6 N2 1.508641 1_555
C6 P6 1.840734 1_555
C7 H43 1.097604 1_555
C7 H39 1.097949 1_555
C7 N3 1.508641 1_555
C7 P7 1.840734 1_655
C8 H44 1.096194 1_555
C8 H48 1.098170 1_555
C8 N0 1.512115 1_555
C9 H45 1.096194 1_555
C9 H49 1.098170 1_555
C9 N1 1.512115 1_555
C10 H46 1.096194 1_555
C10 H50 1.098170 1_555
C10 N2 1.512115 1_555
C10 C14 1.514771 1_555
C11 H47 1.096194 1_555
C11 H51 1.098170 1_555
C11 N3 1.512115 1_555
C11 C15 1.514771 1_555
C12 H56 1.094339 1_555
C12 H52 1.099189 1_555
C12 O8 1.461153 1_555
C12 C8 1.514771 1_555
C13 H57 1.094339 1_554
C13 H53 1.099189 1_555
C13 O9 1.461153 1_555
C13 C9 1.514771 1_555
C14 H58 1.094339 1_555
C14 H54 1.099189 1_555
C14 O10 1.461153 1_555
C15 H59 1.094339 1_556
C15 H55 1.099189 1_555
C15 O11 1.461153 1_555
C16 O28 1.264959 1_555
C16 O24 1.270363 1_555
C17 O29 1.264959 1_556
C17 O25 1.270363 1_455
C18 O30 1.264959 1_555
C18 O26 1.270363 1_555
C19 O31 1.264959 1_554
C19 O27 1.270363 1_655
C20 O36 1.264633 1_555
C20 O32 1.267141 1_555
C21 O37 1.264633 1_555
C21 O33 1.267141 1_555
C22 O38 1.264633 1_555
C22 O34 1.267141 1_555
C23 O39 1.264633 1_555
C23 O35 1.267141 1_555
O0 P0 1.505766 1_455
O0 Sm1 2.365961 1_555
O1 P1 1.505766 1_555
O1 Sm0 2.365961 1_555
O2 P2 1.505766 1_655
O2 Sm3 2.365961 1_555
O3 P3 1.505766 1_555
O3 Sm2 2.365961 1_555
O4 P0 1.505039 1_555
O4 Sm0 2.366551 1_545
O5 P1 1.505039 1_555
O5 Sm1 2.366551 1_565
O6 P2 1.505039 1_555
O6 Sm2 2.366551 1_565
O7 P3 1.505039 1_555
O7 Sm3 2.366551 1_545
O8 P0 1.620921 1_555
O9 P1 1.620921 1_555
O10 P2 1.620921 1_555
O11 P3 1.620921 1_555
O12 P4 1.516266 1_555
O12 Sm1 2.329870 1_555
O13 P5 1.516266 1_555
O13 Sm0 2.329870 1_555
O14 P6 1.516266 1_555
O14 Sm3 2.329870 1_555
O15 P7 1.516266 1_555
O15 Sm2 2.329870 1_555
O16 P4 1.586491 1_555
O17 P5 1.586491 1_555
O18 P6 1.586491 1_555
O19 P7 1.586491 1_555
O20 P4 1.519059 1_555
O21 P5 1.519059 1_555
O22 P6 1.519059 1_555
O23 P7 1.519059 1_555
O24 Sm2 2.504497 1_565
O25 Sm3 2.504497 1_545
O26 Sm0 2.504497 1_545
O27 Sm1 2.504497 1_565
O28 Sm0 2.513330 1_555
O29 Sm1 2.513330 1_555
O30 Sm2 2.513330 1_555
O31 Sm3 2.513330 1_555
O32 Sm2 2.464846 1_655
O33 Sm3 2.464846 1_555
O34 Sm0 2.464846 1_455
O35 Sm1 2.464846 1_555
O36 Sm0 2.487731 1_545
O37 Sm1 2.487731 1_566
O38 Sm2 2.487731 1_565
O39 Sm3 2.487731 1_544
O40 Sm0 2.481172 1_555
O41 Sm1 2.481172 1_555
O42 Sm2 2.481172 1_555
O43 Sm3 2.481172 1_555
