# generated using pymatgen
data_Cs2CrH8Cl5O4
_symmetry_space_group_name_H-M   'P 1'
_cell_length_a   10.31835814
_cell_length_b   10.31835814
_cell_length_c   14.36184565
_cell_angle_alpha   62.88895913
_cell_angle_beta   62.88895913
_cell_angle_gamma   35.21552147
_symmetry_Int_Tables_number   1
_chemical_formula_structural   Cs2CrH8Cl5O4
_chemical_formula_sum   'Cs4 Cr2 H16 Cl10 O8'
_cell_volume   774.43979952
_cell_formula_units_Z   2
loop_
 _symmetry_equiv_pos_site_id
 _symmetry_equiv_pos_as_xyz
  1  'x, y, z'
loop_
 _atom_site_type_symbol
 _atom_site_label
 _atom_site_symmetry_multiplicity
 _atom_site_fract_x
 _atom_site_fract_y
 _atom_site_fract_z
 _atom_site_occupancy
  Cs  Cs0  1  0.68686800  0.71417400  0.67324200  1
  Cs  Cs1  1  0.31313200  0.28582600  0.32675800  1
  Cs  Cs2  1  0.28582600  0.31313200  0.82675800  1
  Cs  Cs3  1  0.71417400  0.68686800  0.17324200  1
  Cr  Cr0  1  0.00000000  0.00000000  0.50000000  1
  Cr  Cr1  1  0.00000000  0.00000000  0.00000000  1
  H  H0  1  0.40500300  0.79116800  0.49962600  1
  H  H1  1  0.59499700  0.20883200  0.50037400  1
  H  H2  1  0.20883200  0.59499700  0.00037400  1
  H  H3  1  0.79116800  0.40500300  0.99962600  1
  H  H4  1  0.60125500  0.19775200  0.99882800  1
  H  H5  1  0.39874500  0.80224800  0.00117200  1
  H  H6  1  0.80224800  0.39874500  0.50117200  1
  H  H7  1  0.19775200  0.60125500  0.49882800  1
  H  H8  1  0.69806100  0.24554100  0.87928300  1
  H  H9  1  0.30193900  0.75445900  0.12071700  1
  H  H10  1  0.75445900  0.30193900  0.62071700  1
  H  H11  1  0.24554100  0.69806100  0.37928300  1
  H  H12  1  0.32391700  0.72515000  0.61605100  1
  H  H13  1  0.67608300  0.27485000  0.38394900  1
  H  H14  1  0.27485000  0.67608300  0.88394900  1
  H  H15  1  0.72515000  0.32391700  0.11605100  1
  Cl  Cl0  1  0.89009900  0.89501900  0.66994600  1
  Cl  Cl1  1  0.10990100  0.10498100  0.33005400  1
  Cl  Cl2  1  0.10498100  0.10990100  0.83005400  1
  Cl  Cl3  1  0.89501900  0.89009900  0.16994600  1
  Cl  Cl4  1  0.68120200  0.70774200  0.92853600  1
  Cl  Cl5  1  0.31879800  0.29225800  0.07146400  1
  Cl  Cl6  1  0.29225800  0.31879800  0.57146400  1
  Cl  Cl7  1  0.70774200  0.68120200  0.42853600  1
  Cl  Cl8  1  0.51419700  0.48580300  0.75000000  1
  Cl  Cl9  1  0.48580300  0.51419700  0.25000000  1
  O  O0  1  0.71725900  0.18832700  0.95484300  1
  O  O1  1  0.28274100  0.81167300  0.04515700  1
  O  O2  1  0.81167300  0.28274100  0.54515700  1
  O  O3  1  0.18832700  0.71725900  0.45484300  1
  O  O4  1  0.27019100  0.83738900  0.54986200  1
  O  O5  1  0.72980900  0.16261100  0.45013800  1
  O  O6  1  0.16261100  0.72980900  0.95013800  1
  O  O7  1  0.83738900  0.27019100  0.04986200  1
loop_
_geom_bond_atom_site_label_1
_geom_bond_atom_site_label_2
_geom_bond_distance
_geom_bond_site_symmetry_2
Cr0 O2 2.005135 1_455
Cr0 O3 2.005135 1_545
Cr0 O4 2.044925 1_545
Cr0 O5 2.044925 1_455
Cr1 O1 2.005135 1_545
Cr1 O0 2.005135 1_454
Cr1 O7 2.044925 1_455
Cr1 O6 2.044925 1_544
H0 O4 0.998930 1_555
H1 O5 0.998930 1_555
H2 O6 0.998930 1_554
H3 O7 0.998930 1_556
H4 O0 1.008896 1_555
H5 O1 1.008896 1_555
H6 O2 1.008896 1_555
H7 O3 1.008896 1_555
H8 O0 0.993135 1_555
H9 O1 0.993135 1_555
H10 O2 0.993135 1_555
H11 O3 0.993135 1_555
H12 O4 0.989976 1_555
H13 O5 0.989976 1_555
H14 O6 0.989976 1_555
H15 O7 0.989976 1_555
Cl0 Cr0 2.343355 1_665
Cl0 Cs2 3.713812 1_655
Cl0 Cs0 3.755612 1_555
Cl0 Cs2 3.829462 1_565
Cl1 Cr0 2.343355 1_555
Cl1 Cs3 3.713812 1_455
Cl1 Cs1 3.755612 1_555
Cl1 Cs3 3.829462 1_545
Cl2 Cr1 2.343355 1_556
Cl2 Cs0 3.713812 1_545
Cl2 Cs2 3.755612 1_555
Cl2 Cs0 3.829462 1_455
Cl3 Cr1 2.343355 1_665
Cl3 Cs1 3.713812 1_565
Cl3 Cs3 3.755612 1_555
Cl3 Cs1 3.829462 1_655
Cl4 H5 2.011377 1_556
Cl4 H3 2.108389 1_555
Cl4 Cs3 3.576797 1_556
Cl4 Cs0 3.611118 1_555
Cl4 Cs2 3.639142 1_655
Cl4 Cs2 3.643241 1_565
Cl5 H4 2.011377 1_554
Cl5 H2 2.108389 1_555
Cl5 Cs2 3.576797 1_554
Cl5 Cs1 3.611118 1_555
Cl5 Cs3 3.639142 1_455
Cl5 Cs3 3.643241 1_545
Cl6 H7 2.011377 1_555
Cl6 H1 2.108389 1_555
Cl6 Cs1 3.576797 1_555
Cl6 Cs2 3.611118 1_555
Cl6 Cs0 3.639142 1_545
Cl6 Cs0 3.643241 1_455
Cl7 H6 2.011377 1_555
Cl7 H0 2.108389 1_555
Cl7 Cs0 3.576797 1_555
Cl7 Cs3 3.611118 1_555
Cl7 Cs1 3.639142 1_565
Cl7 Cs1 3.643241 1_655
Cl8 Cs0 3.555929 1_555
Cl8 Cs2 3.555929 1_555
Cl9 Cs3 3.555929 1_555
Cl9 Cs1 3.555929 1_555
