# generated using pymatgen
data_Cs3Bi2Cl9
_symmetry_space_group_name_H-M   'P 1'
_cell_length_a   7.62906418
_cell_length_b   13.21917112
_cell_length_c   18.64034407
_cell_angle_alpha   90.00000000
_cell_angle_beta   90.00000000
_cell_angle_gamma   90.00000000
_symmetry_Int_Tables_number   1
_chemical_formula_structural   Cs3Bi2Cl9
_chemical_formula_sum   'Cs12 Bi8 Cl36'
_cell_volume   1879.87692641
_cell_formula_units_Z   4
loop_
 _symmetry_equiv_pos_site_id
 _symmetry_equiv_pos_as_xyz
  1  'x, y, z'
loop_
 _atom_site_type_symbol
 _atom_site_label
 _atom_site_symmetry_multiplicity
 _atom_site_fract_x
 _atom_site_fract_y
 _atom_site_fract_z
 _atom_site_occupancy
  Cs  Cs0  1  0.25000000  0.09151195  0.58646637  1
  Cs  Cs1  1  0.25000000  0.40848805  0.08646637  1
  Cs  Cs2  1  0.75000000  0.90848805  0.41353363  1
  Cs  Cs3  1  0.75000000  0.59151195  0.91353363  1
  Cs  Cs4  1  0.25000000  0.74593479  0.25246997  1
  Cs  Cs5  1  0.25000000  0.75406521  0.75246997  1
  Cs  Cs6  1  0.75000000  0.25406521  0.74753003  1
  Cs  Cs7  1  0.75000000  0.24593479  0.24753003  1
  Cs  Cs8  1  0.25000000  0.08077293  0.91351854  1
  Cs  Cs9  1  0.25000000  0.41922707  0.41351854  1
  Cs  Cs10  1  0.75000000  0.91922707  0.08648146  1
  Cs  Cs11  1  0.75000000  0.58077293  0.58648146  1
  Bi  Bi0  1  0.25000000  0.73689469  0.49969865  1
  Bi  Bi1  1  0.25000000  0.76310531  -0.00030135  1
  Bi  Bi2  1  0.75000000  0.26310531  0.50030135  1
  Bi  Bi3  1  0.75000000  0.23689469  0.00030135  1
  Bi  Bi4  1  0.25000000  0.41970482  0.81655948  1
  Bi  Bi5  1  0.25000000  0.08029518  0.31655948  1
  Bi  Bi6  1  0.75000000  0.58029518  0.18344052  1
  Bi  Bi7  1  0.75000000  0.91970482  0.68344052  1
  Cl  Cl0  1  0.25000000  0.91669766  0.41464396  1
  Cl  Cl1  1  0.25000000  0.58330234  0.91464396  1
  Cl  Cl2  1  0.75000000  0.08330234  0.58535604  1
  Cl  Cl3  1  0.75000000  0.41669766  0.08535604  1
  Cl  Cl4  1  0.25000000  0.24924363  0.74694373  1
  Cl  Cl5  1  0.25000000  0.25075637  0.24694373  1
  Cl  Cl6  1  0.75000000  0.75075637  0.25305627  1
  Cl  Cl7  1  0.75000000  0.74924363  0.75305627  1
  Cl  Cl8  1  0.25000000  0.91762622  0.08318188  1
  Cl  Cl9  1  0.25000000  0.58237378  0.58318188  1
  Cl  Cl10  1  0.75000000  0.08237378  0.91681812  1
  Cl  Cl11  1  0.75000000  0.41762622  0.41681812  1
  Cl  Cl12  1  0.99502423  0.33688372  0.58034211  1
  Cl  Cl13  1  0.50497577  0.16311628  0.08034211  1
  Cl  Cl14  1  0.49502423  0.66311628  0.41965789  1
  Cl  Cl15  1  0.00497577  0.83688372  0.91965789  1
  Cl  Cl16  1  0.00497577  0.66311628  0.41965789  1
  Cl  Cl17  1  0.49502423  0.83688372  0.91965789  1
  Cl  Cl18  1  0.50497577  0.33688372  0.58034211  1
  Cl  Cl19  1  0.99502423  0.16311628  0.08034211  1
  Cl  Cl20  1  -0.00791525  0.50691201  0.74946892  1
  Cl  Cl21  1  0.50791525  0.99308799  0.24946892  1
  Cl  Cl22  1  0.49208475  0.49308799  0.25053108  1
  Cl  Cl23  1  0.00791525  0.00691201  0.75053108  1
  Cl  Cl24  1  0.00791525  0.49308799  0.25053108  1
  Cl  Cl25  1  0.49208475  0.00691201  0.75053108  1
  Cl  Cl26  1  0.50791525  0.50691201  0.74946892  1
  Cl  Cl27  1  -0.00791525  0.99308799  0.24946892  1
  Cl  Cl28  1  0.00296307  0.33490398  0.91248869  1
  Cl  Cl29  1  0.49703693  0.16509602  0.41248869  1
  Cl  Cl30  1  0.50296307  0.66509602  0.08751131  1
  Cl  Cl31  1  0.99703693  0.83490398  0.58751131  1
  Cl  Cl32  1  0.99703693  0.66509602  0.08751131  1
  Cl  Cl33  1  0.50296307  0.83490398  0.58751131  1
  Cl  Cl34  1  0.49703693  0.33490398  0.91248869  1
  Cl  Cl35  1  0.00296307  0.16509602  0.41248869  1
loop_
_geom_bond_atom_site_label_1
_geom_bond_atom_site_label_2
_geom_bond_distance
_geom_bond_site_symmetry_2
Bi0 Cl9 2.567877 1_555
Bi0 Cl14 2.582928 1_555
Bi0 Cl16 2.582928 1_555
Bi0 Cl31 2.842937 1_455
Bi0 Cl33 2.842937 1_555
Bi0 Cl0 2.857104 1_555
Bi1 Cl8 2.567877 1_555
Bi1 Cl17 2.582928 1_554
Bi1 Cl15 2.582928 1_554
Bi1 Cl30 2.842937 1_555
Bi1 Cl32 2.842937 1_455
Bi1 Cl1 2.857104 1_554
Bi2 Cl11 2.567877 1_555
Bi2 Cl18 2.582928 1_555
Bi2 Cl12 2.582928 1_555
Bi2 Cl29 2.842937 1_555
Bi2 Cl35 2.842937 1_655
Bi2 Cl2 2.857104 1_555
Bi3 Cl10 2.567877 1_554
Bi3 Cl13 2.582928 1_555
Bi3 Cl19 2.582928 1_555
Bi3 Cl28 2.842937 1_654
Bi3 Cl34 2.842937 1_554
Bi3 Cl3 2.857104 1_555
Bi4 Cl4 2.600296 1_555
Bi4 Cl20 2.600884 1_555
Bi4 Cl26 2.600884 1_555
Bi4 Cl28 2.829500 1_555
Bi4 Cl34 2.829500 1_555
Bi4 Cl1 2.831912 1_555
Bi5 Cl5 2.600296 1_555
Bi5 Cl27 2.600884 1_545
Bi5 Cl21 2.600884 1_545
Bi5 Cl35 2.829500 1_555
Bi5 Cl29 2.829500 1_555
Bi5 Cl0 2.831912 1_545
Bi6 Cl6 2.600296 1_555
Bi6 Cl24 2.600884 1_655
Bi6 Cl22 2.600884 1_555
Bi6 Cl30 2.829500 1_555
Bi6 Cl32 2.829500 1_555
Bi6 Cl3 2.831912 1_555
Bi7 Cl7 2.600296 1_555
Bi7 Cl23 2.600884 1_665
Bi7 Cl25 2.600884 1_565
Bi7 Cl31 2.829500 1_555
Bi7 Cl33 2.829500 1_555
Bi7 Cl2 2.831912 1_565
Cl0 Cs4 3.772798 1_555
Cl0 Cs2 3.816132 1_555
Cl0 Cs2 3.816132 1_455
Cl0 Cs0 3.949477 1_565
Cl1 Cs5 3.772798 1_555
Cl1 Cs3 3.816132 1_555
Cl1 Cs3 3.816132 1_455
Cl1 Cs1 3.949477 1_556
Cl2 Cs6 3.772798 1_555
Cl2 Cs0 3.816132 1_555
Cl2 Cs0 3.816132 1_655
Cl2 Cs2 3.949477 1_545
Cl3 Cs7 3.772798 1_555
Cl3 Cs1 3.816132 1_655
Cl3 Cs1 3.816132 1_555
Cl3 Cs3 3.949477 1_554
Cl4 Cs0 3.646335 1_555
Cl4 Cs6 3.815080 1_555
Cl4 Cs6 3.815080 1_455
Cl4 Cs8 3.821102 1_555
Cl5 Cs1 3.646335 1_555
Cl5 Cs7 3.815080 1_455
Cl5 Cs7 3.815080 1_555
Cl5 Cs9 3.821102 1_555
Cl6 Cs2 3.646335 1_555
Cl6 Cs4 3.815080 1_655
Cl6 Cs4 3.815080 1_555
Cl6 Cs10 3.821102 1_555
Cl7 Cs3 3.646335 1_555
Cl7 Cs5 3.815080 1_655
Cl7 Cs5 3.815080 1_555
Cl7 Cs11 3.821102 1_555
Cl8 Cs10 3.815087 1_555
Cl8 Cs10 3.815087 1_455
Cl8 Cs8 3.827941 1_564
Cl8 Cs4 3.887017 1_555
Cl9 Cs11 3.815087 1_555
Cl9 Cs11 3.815087 1_455
Cl9 Cs9 3.827941 1_555
Cl9 Cs5 3.887017 1_555
Cl10 Cs8 3.815087 1_555
Cl10 Cs8 3.815087 1_655
Cl10 Cs10 3.827941 1_546
Cl10 Cs6 3.887017 1_555
Cl11 Cs9 3.815087 1_655
Cl11 Cs9 3.815087 1_555
Cl11 Cs11 3.827941 1_555
Cl11 Cs7 3.887017 1_555
Cl12 Cs11 3.728493 1_555
Cl12 Cs0 3.783907 1_655
Cl12 Cs6 3.795402 1_555
Cl12 Cs9 3.826052 1_655
Cl13 Cs10 3.728493 1_545
Cl13 Cs1 3.783907 1_555
Cl13 Cs7 3.795402 1_555
Cl13 Cs8 3.826052 1_554
Cl14 Cs9 3.728493 1_555
Cl14 Cs2 3.783907 1_555
Cl14 Cs4 3.795402 1_555
Cl14 Cs11 3.826052 1_555
Cl15 Cs8 3.728493 1_565
Cl15 Cs3 3.783907 1_455
Cl15 Cs5 3.795402 1_555
Cl15 Cs10 3.826052 1_456
Cl16 Cs9 3.728493 1_555
Cl16 Cs2 3.783907 1_455
Cl16 Cs4 3.795402 1_555
Cl16 Cs11 3.826052 1_455
Cl17 Cs8 3.728493 1_565
Cl17 Cs3 3.783907 1_555
Cl17 Cs5 3.795402 1_555
Cl17 Cs10 3.826052 1_556
Cl18 Cs11 3.728493 1_555
Cl18 Cs0 3.783907 1_555
Cl18 Cs6 3.795402 1_555
Cl18 Cs9 3.826052 1_555
Cl19 Cs10 3.728493 1_545
Cl19 Cs1 3.783907 1_655
Cl19 Cs7 3.795402 1_555
Cl19 Cs8 3.826052 1_654
Cl20 Cs11 3.687085 1_455
Cl20 Cs3 3.743578 1_455
Cl20 Cs5 3.814331 1_555
Cl20 Cs6 3.818911 1_455
Cl21 Cs10 3.687085 1_555
Cl21 Cs2 3.743578 1_555
Cl21 Cs4 3.814331 1_555
Cl21 Cs7 3.818911 1_565
Cl22 Cs9 3.687085 1_555
Cl22 Cs1 3.743578 1_555
Cl22 Cs7 3.814331 1_555
Cl22 Cs4 3.818911 1_555
Cl23 Cs8 3.687085 1_555
Cl23 Cs0 3.743578 1_555
Cl23 Cs6 3.814331 1_455
Cl23 Cs5 3.818911 1_545
Cl24 Cs9 3.687085 1_555
Cl24 Cs1 3.743578 1_555
Cl24 Cs7 3.814331 1_455
Cl24 Cs4 3.818911 1_555
Cl25 Cs8 3.687085 1_555
Cl25 Cs0 3.743578 1_555
Cl25 Cs6 3.814331 1_555
Cl25 Cs5 3.818911 1_545
Cl26 Cs11 3.687085 1_555
Cl26 Cs3 3.743578 1_555
Cl26 Cs5 3.814331 1_555
Cl26 Cs6 3.818911 1_555
Cl27 Cs10 3.687085 1_455
Cl27 Cs2 3.743578 1_455
Cl27 Cs4 3.814331 1_555
Cl27 Cs7 3.818911 1_465
Cl28 Cs6 3.784347 1_455
Cl28 Cs8 3.851999 1_555
Cl28 Cs1 3.874946 1_556
Cl28 Cs3 3.902746 1_455
Cl29 Cs7 3.784347 1_555
Cl29 Cs9 3.851999 1_555
Cl29 Cs0 3.874946 1_555
Cl29 Cs2 3.902746 1_545
Cl30 Cs4 3.784347 1_555
Cl30 Cs10 3.851999 1_555
Cl30 Cs3 3.874946 1_554
Cl30 Cs1 3.902746 1_555
Cl31 Cs5 3.784347 1_655
Cl31 Cs11 3.851999 1_555
Cl31 Cs2 3.874946 1_555
Cl31 Cs0 3.902746 1_665
Cl32 Cs4 3.784347 1_655
Cl32 Cs10 3.851999 1_555
Cl32 Cs3 3.874946 1_554
Cl32 Cs1 3.902746 1_655
Cl33 Cs5 3.784347 1_555
Cl33 Cs11 3.851999 1_555
Cl33 Cs2 3.874946 1_555
Cl33 Cs0 3.902746 1_565
Cl34 Cs6 3.784347 1_555
Cl34 Cs8 3.851999 1_555
Cl34 Cs1 3.874946 1_556
Cl34 Cs3 3.902746 1_555
Cl35 Cs7 3.784347 1_455
Cl35 Cs9 3.851999 1_555
Cl35 Cs0 3.874946 1_555
Cl35 Cs2 3.902746 1_445
