# generated using pymatgen
data_Mg5Si6
_symmetry_space_group_name_H-M   'P 1'
_cell_length_a   5.16578800
_cell_length_b   5.69570468
_cell_length_c   13.78282421
_cell_angle_alpha   98.74198805
_cell_angle_beta   96.12233795
_cell_angle_gamma   95.01944509
_symmetry_Int_Tables_number   1
_chemical_formula_structural   Mg5Si6
_chemical_formula_sum   'Mg10 Si12'
_cell_volume   396.30699763
_cell_formula_units_Z   2
loop_
 _symmetry_equiv_pos_site_id
 _symmetry_equiv_pos_as_xyz
  1  'x, y, z'
loop_
 _atom_site_type_symbol
 _atom_site_label
 _atom_site_symmetry_multiplicity
 _atom_site_fract_x
 _atom_site_fract_y
 _atom_site_fract_z
 _atom_site_occupancy
  Mg  Mg0  1  0.23687800  0.98012300  0.15837700  1
  Mg  Mg1  1  0.44495600  0.56477600  0.49679700  1
  Mg  Mg2  1  0.78496200  0.97462800  0.63463400  1
  Mg  Mg3  1  0.07973700  0.19472900  0.35898000  1
  Mg  Mg4  1  0.70792000  0.03416000  0.03456200  1
  Mg  Mg5  1  0.84470600  0.74545100  0.81302700  1
  Mg  Mg6  1  0.97004400  0.45171400  0.59683400  1
  Mg  Mg7  1  0.93012300  0.70644300  0.40459000  1
  Mg  Mg8  1  0.43268700  0.47139200  0.09823000  1
  Mg  Mg9  1  0.91459200  0.52892900  0.99064200  1
  Si  Si0  1  0.38226700  0.66842300  0.90195200  1
  Si  Si1  1  0.18087900  0.03857800  0.96243300  1
  Si  Si2  1  0.56264500  0.04853300  0.43103900  1
  Si  Si3  1  0.25854400  0.05727200  0.55967700  1
  Si  Si4  1  0.61728800  0.22335500  0.82035200  1
  Si  Si5  1  0.96664900  0.48343800  0.19132800  1
  Si  Si6  1  0.59699100  0.30830300  0.28968600  1
  Si  Si7  1  0.32256600  0.79734200  0.72874800  1
  Si  Si8  1  0.50283700  0.40557900  0.67435800  1
  Si  Si9  1  0.39316300  0.68551700  0.30744200  1
  Si  Si10  1  0.75291200  0.85821900  0.21863100  1
  Si  Si11  1  0.12005300  0.26936500  0.82416900  1
loop_
_geom_bond_atom_site_label_1
_geom_bond_atom_site_label_2
_geom_bond_distance
_geom_bond_site_symmetry_2
Mg0 Si1 2.758920 1_564
Mg0 Si10 2.781455 1_455
Mg0 Si6 2.806253 1_565
Mg0 Si10 2.881804 1_555
Mg0 Si9 2.935940 1_555
Mg0 Mg8 3.150963 1_565
Mg0 Si5 3.161128 1_455
Mg0 Mg8 3.173001 1_555
Mg0 Si5 3.288286 1_465
Mg0 Mg9 3.368245 1_454
Mg1 Si8 2.732527 1_555
Mg1 Si9 2.790097 1_555
Mg1 Mg7 3.030647 1_555
Mg1 Mg7 3.050493 1_455
Mg1 Mg2 3.060431 1_555
Mg1 Si2 3.060461 1_565
Mg1 Si2 3.075238 1_555
Mg1 Si3 3.075513 1_565
Mg1 Si6 3.211039 1_555
Mg2 Si3 2.785557 1_665
Mg2 Si3 2.907989 1_565
Mg2 Mg6 2.941335 1_565
Mg2 Mg5 2.954461 1_555
Mg2 Si8 2.972602 1_565
Mg2 Si4 2.982405 1_565
Mg2 Si7 3.007464 1_555
Mg2 Si2 3.021031 1_565
Mg2 Si11 3.135716 1_665
Mg2 Mg6 3.192033 1_555
Mg2 Si7 3.245807 1_655
Mg3 Si6 2.740716 1_455
Mg3 Si10 2.806427 1_445
Mg3 Si2 2.826517 1_555
Mg3 Si6 2.983287 1_555
Mg3 Mg7 2.997692 1_445
Mg3 Si2 3.040241 1_455
Mg3 Si3 3.059034 1_555
Mg3 Si5 3.069189 1_455
Mg3 Mg7 3.070525 1_455
Mg4 Si1 2.733705 1_654
Mg4 Si1 2.800654 1_554
Mg4 Si0 2.843173 1_544
Mg4 Si10 2.860479 1_545
Mg4 Mg8 3.035590 1_555
Mg4 Mg9 3.094775 1_554
Mg4 Mg9 3.151676 1_544
Mg4 Si5 3.179304 1_555
Mg5 Si1 2.780014 1_665
Mg5 Si0 2.829472 1_555
Mg5 Si8 2.841874 1_555
Mg5 Si7 2.849317 1_655
Mg5 Si7 2.878794 1_555
Mg5 Mg9 2.907095 1_555
Mg5 Si0 3.009427 1_655
Mg5 Si4 3.049747 1_565
Mg5 Si4 3.120656 1_555
Mg5 Si11 3.165873 1_665
Mg5 Si11 3.186643 1_655
Mg6 Si8 2.749568 1_555
Mg6 Si3 2.815962 1_655
Mg6 Si7 2.841785 1_655
Mg6 Si8 2.893179 1_655
Mg6 Mg7 3.205091 1_555
Mg7 Si2 2.848132 1_565
Mg7 Si9 2.865851 1_655
Mg7 Si6 2.873344 1_555
Mg7 Si10 2.909641 1_555
Mg7 Si9 2.933011 1_555
Mg7 Si3 2.962286 1_665
Mg7 Si5 3.051901 1_555
Mg8 Si10 2.830173 1_555
Mg8 Si5 2.847470 1_455
Mg8 Si5 2.905987 1_555
Mg8 Si1 2.964681 1_554
Mg8 Mg9 2.987289 1_454
Mg8 Si9 2.990656 1_555
Mg8 Si6 2.991967 1_555
Mg8 Mg9 3.048911 1_554
Mg8 Si0 3.077237 1_554
Mg9 Si5 2.803872 1_556
Mg9 Si11 2.887849 1_655
Mg9 Si4 2.901436 1_555
Mg9 Si0 2.924278 1_655
Mg9 Si0 3.106103 1_555
Mg9 Si1 3.198141 1_665
Mg9 Si1 3.209351 1_655
Si0 Si1 2.501327 1_565
Si0 Si11 2.561460 1_555
Si0 Si7 2.597811 1_555
Si1 Si11 2.482779 1_555
Si2 Si3 2.488923 1_555
Si2 Si9 2.497604 1_545
Si2 Si6 2.630642 1_555
Si3 Si8 2.491963 1_555
Si3 Si7 2.949808 1_545
Si4 Si8 2.442173 1_555
Si4 Si7 2.794984 1_545
Si5 Si9 2.642843 1_655
Si5 Si6 2.666312 1_555
Si6 Si9 2.464875 1_555
Si7 Si8 2.532240 1_555
Si10 Si5 2.484807 1_555
Si10 Si9 2.539856 1_555
Si10 Si6 2.818876 1_565
Si11 Si4 2.581538 1_455
Si11 Si4 2.609909 1_555
