# generated using pymatgen
data_Si3(WO6)2
_symmetry_space_group_name_H-M   'P 1'
_cell_length_a   10.38944177
_cell_length_b   10.38944177
_cell_length_c   10.38944177
_cell_angle_alpha   109.47122063
_cell_angle_beta   109.47122063
_cell_angle_gamma   109.47122063
_symmetry_Int_Tables_number   1
_chemical_formula_structural   Si3(WO6)2
_chemical_formula_sum   'Si12 W8 O48'
_cell_volume   863.28610072
_cell_formula_units_Z   4
loop_
 _symmetry_equiv_pos_site_id
 _symmetry_equiv_pos_as_xyz
  1  'x, y, z'
loop_
 _atom_site_type_symbol
 _atom_site_label
 _atom_site_symmetry_multiplicity
 _atom_site_fract_x
 _atom_site_fract_y
 _atom_site_fract_z
 _atom_site_occupancy
  Si  Si0  1  0.12500000  0.75000000  0.87500000  1
  Si  Si1  1  0.87500000  0.25000000  0.12500000  1
  Si  Si2  1  0.75000000  0.37500000  0.62500000  1
  Si  Si3  1  0.12500000  0.87500000  0.25000000  1
  Si  Si4  1  0.25000000  0.12500000  0.87500000  1
  Si  Si5  1  0.37500000  0.62500000  0.75000000  1
  Si  Si6  1  0.37500000  0.25000000  0.62500000  1
  Si  Si7  1  0.87500000  0.12500000  0.75000000  1
  Si  Si8  1  0.62500000  0.37500000  0.25000000  1
  Si  Si9  1  0.75000000  0.87500000  0.12500000  1
  Si  Si10  1  0.25000000  0.62500000  0.37500000  1
  Si  Si11  1  0.62500000  0.75000000  0.37500000  1
  W  W0  1  0.50000000  0.00000000  0.00000000  1
  W  W1  1  0.50000000  0.50000000  0.00000000  1
  W  W2  1  0.00000000  0.50000000  0.50000000  1
  W  W3  1  0.00000000  0.00000000  0.50000000  1
  W  W4  1  0.50000000  0.50000000  0.50000000  1
  W  W5  1  0.00000000  0.50000000  0.00000000  1
  W  W6  1  0.50000000  0.00000000  0.50000000  1
  W  W7  1  0.00000000  0.00000000  0.00000000  1
  O  O0  1  0.58469400  0.89293500  0.39114500  1
  O  O1  1  0.39114500  0.58469400  0.89293500  1
  O  O2  1  0.30645100  0.30824100  0.91530600  1
  O  O3  1  0.49821000  0.60706500  0.19175900  1
  O  O4  1  0.30824100  0.89293500  0.00179000  1
  O  O5  1  0.10885500  0.00179000  0.19354900  1
  O  O6  1  0.39114500  0.30645100  0.49821000  1
  O  O7  1  0.89293500  0.39114500  0.58469400  1
  O  O8  1  0.19175900  0.19354900  0.58469400  1
  O  O9  1  0.49821000  0.39114500  0.30645100  1
  O  O10  1  0.89293500  0.00179000  0.30824100  1
  O  O11  1  0.60706500  0.91530600  0.10885500  1
  O  O12  1  0.91530600  0.10885500  0.60706500  1
  O  O13  1  0.30645100  0.49821000  0.39114500  1
  O  O14  1  0.58469400  0.19175900  0.19354900  1
  O  O15  1  0.19354900  0.58469400  0.19175900  1
  O  O16  1  0.00179000  0.30824100  0.89293500  1
  O  O17  1  0.91530600  0.30645100  0.30824100  1
  O  O18  1  0.00179000  0.19354900  0.10885500  1
  O  O19  1  0.80824100  0.80645100  0.41530600  1
  O  O20  1  0.19175900  0.49821000  0.60706500  1
  O  O21  1  0.60706500  0.19175900  0.49821000  1
  O  O22  1  0.19354900  0.10885500  0.00179000  1
  O  O23  1  0.10885500  0.60706500  0.91530600  1
  O  O24  1  0.41530600  0.10706500  0.60885500  1
  O  O25  1  0.60885500  0.41530600  0.10706500  1
  O  O26  1  0.69354900  0.69175900  0.08469400  1
  O  O27  1  0.50179000  0.39293500  0.80824100  1
  O  O28  1  0.69175900  0.10706500  0.99821000  1
  O  O29  1  0.89114500  0.99821000  0.80645100  1
  O  O30  1  0.60885500  0.69354900  0.50179000  1
  O  O31  1  0.10706500  0.60885500  0.41530600  1
  O  O32  1  0.89114500  0.39293500  0.08469400  1
  O  O33  1  0.80645100  0.89114500  0.99821000  1
  O  O34  1  0.39293500  0.80824100  0.50179000  1
  O  O35  1  0.69175900  0.08469400  0.69354900  1
  O  O36  1  0.80824100  0.50179000  0.39293500  1
  O  O37  1  0.99821000  0.80645100  0.89114500  1
  O  O38  1  0.08469400  0.69354900  0.69175900  1
  O  O39  1  0.99821000  0.69175900  0.10706500  1
  O  O40  1  0.80645100  0.41530600  0.80824100  1
  O  O41  1  0.41530600  0.80824100  0.80645100  1
  O  O42  1  0.69354900  0.50179000  0.60885500  1
  O  O43  1  0.08469400  0.89114500  0.39293500  1
  O  O44  1  0.39293500  0.08469400  0.89114500  1
  O  O45  1  0.10706500  0.99821000  0.69175900  1
  O  O46  1  0.50179000  0.60885500  0.69354900  1
  O  O47  1  0.30824100  0.91530600  0.30645100  1
loop_
_geom_bond_atom_site_label_1
_geom_bond_atom_site_label_2
_geom_bond_distance
_geom_bond_site_symmetry_2
O0 Si11 1.644415 1_555
O0 W6 1.941106 1_565
O1 Si5 1.644415 1_555
O1 W1 1.941106 1_556
O2 Si4 1.644415 1_555
O2 W1 1.941106 1_556
O3 Si11 1.644415 1_555
O3 W1 1.941106 1_555
O4 Si0 1.644415 1_554
O4 W0 1.941106 1_565
O5 Si3 1.644415 1_545
O5 W7 1.941106 1_555
O6 Si6 1.644415 1_555
O6 W4 1.941106 1_555
O7 Si2 1.644415 1_555
O7 W2 1.941106 1_655
O8 Si6 1.644415 1_555
O8 W3 1.941106 1_555
O9 Si8 1.644415 1_555
O9 W4 1.941106 1_555
O10 Si9 1.644415 1_545
O10 W3 1.941106 1_655
O11 Si9 1.644415 1_555
O11 W0 1.941106 1_565
O12 Si7 1.644415 1_555
O12 W3 1.941106 1_655
O13 Si10 1.644415 1_555
O13 W4 1.941106 1_555
O14 Si8 1.644415 1_555
O14 W0 1.941106 1_555
O15 Si10 1.644415 1_555
O15 W5 1.941106 1_555
O16 Si7 1.644415 1_455
O16 W5 1.941106 1_556
O17 Si1 1.644415 1_555
O17 W2 1.941106 1_655
O18 Si1 1.644415 1_455
O18 W7 1.941106 1_555
O19 Si11 1.644415 1_555
O19 W3 1.941106 1_665
O20 Si5 1.644415 1_555
O20 W2 1.941106 1_555
O21 Si2 1.644415 1_555
O21 W6 1.941106 1_555
O22 Si4 1.644415 1_554
O22 W7 1.941106 1_555
O23 Si0 1.644415 1_555
O23 W5 1.941106 1_556
O24 Si6 1.644415 1_555
O24 W6 1.941106 1_555
O25 Si8 1.644415 1_555
O25 W1 1.941106 1_555
O26 Si9 1.644415 1_555
O26 W1 1.941106 1_555
O27 Si6 1.644415 1_555
O27 W1 1.941106 1_556
O28 Si1 1.644415 1_556
O28 W0 1.941106 1_556
O29 Si7 1.644415 1_565
O29 W7 1.941106 1_666
O30 Si11 1.644415 1_555
O30 W4 1.941106 1_555
O31 Si10 1.644415 1_555
O31 W2 1.941106 1_555
O32 Si1 1.644415 1_555
O32 W5 1.941106 1_655
O33 Si9 1.644415 1_556
O33 W7 1.941106 1_666
O34 Si10 1.644415 1_555
O34 W6 1.941106 1_565
O35 Si7 1.644415 1_555
O35 W6 1.941106 1_555
O36 Si8 1.644415 1_555
O36 W2 1.941106 1_655
O37 Si0 1.644415 1_655
O37 W7 1.941106 1_666
O38 Si0 1.644415 1_555
O38 W2 1.941106 1_555
O39 Si3 1.644415 1_655
O39 W5 1.941106 1_655
O40 Si2 1.644415 1_555
O40 W5 1.941106 1_656
O41 Si5 1.644415 1_555
O41 W0 1.941106 1_566
O42 Si2 1.644415 1_555
O42 W4 1.941106 1_555
O43 Si3 1.644415 1_555
O43 W3 1.941106 1_565
O44 Si4 1.644415 1_555
O44 W0 1.941106 1_556
O45 Si4 1.644415 1_565
O45 W3 1.941106 1_565
O46 Si5 1.644415 1_555
O46 W4 1.941106 1_555
O47 Si3 1.644415 1_555
O47 W6 1.941106 1_565
