# generated using pymatgen
data_KNa2BN2
_symmetry_space_group_name_H-M   'P 1'
_cell_length_a   5.99463048
_cell_length_b   5.99463048
_cell_length_c   5.99463048
_cell_angle_alpha   138.30447073
_cell_angle_beta   138.30447073
_cell_angle_gamma   60.43700617
_symmetry_Int_Tables_number   1
_chemical_formula_structural   KNa2BN2
_chemical_formula_sum   'K1 Na2 B1 N2'
_cell_volume   94.30606545
_cell_formula_units_Z   1
loop_
 _symmetry_equiv_pos_site_id
 _symmetry_equiv_pos_as_xyz
  1  'x, y, z'
loop_
 _atom_site_type_symbol
 _atom_site_label
 _atom_site_symmetry_multiplicity
 _atom_site_fract_x
 _atom_site_fract_y
 _atom_site_fract_z
 _atom_site_occupancy
  K  K0  1  0.50000000  0.50000000  0.00000000  1
  Na  Na0  1  0.25000000  0.75000000  0.50000000  1
  Na  Na1  1  0.75000000  0.25000000  0.50000000  1
  B  B0  1  0.00000000  0.00000000  0.00000000  1
  N  N0  1  0.86924400  0.86924400  0.00000000  1
  N  N1  1  0.13075600  0.13075600  0.00000000  1
loop_
_geom_bond_atom_site_label_1
_geom_bond_atom_site_label_2
_geom_bond_distance
_geom_bond_site_symmetry_2
B0 N1 1.354641 1_555
B0 N0 1.354641 1_445
B0 K0 3.017092 1_545
B0 K0 3.017092 1_556
B0 K0 3.017092 1_444
B0 K0 3.017092 1_455
N0 Na0 2.465274 1_655
N0 Na1 2.465274 1_554
N0 Na0 2.465274 1_554
N0 Na1 2.465274 1_565
N1 Na0 2.465274 1_555
N1 Na0 2.465274 1_544
N1 Na1 2.465274 1_454
N1 Na1 2.465274 1_555
