# generated using pymatgen
data_Yb3Sb4S9
_symmetry_space_group_name_H-M   'P 1'
_cell_length_a   3.90253600
_cell_length_b   16.26667800
_cell_length_c   23.64929800
_cell_angle_alpha   90.00000000
_cell_angle_beta   90.00000000
_cell_angle_gamma   90.00000000
_symmetry_Int_Tables_number   1
_chemical_formula_structural   Yb3Sb4S9
_chemical_formula_sum   'Yb12 Sb16 S36'
_cell_volume   1501.28809825
_cell_formula_units_Z   4
loop_
 _symmetry_equiv_pos_site_id
 _symmetry_equiv_pos_as_xyz
  1  'x, y, z'
loop_
 _atom_site_type_symbol
 _atom_site_label
 _atom_site_symmetry_multiplicity
 _atom_site_fract_x
 _atom_site_fract_y
 _atom_site_fract_z
 _atom_site_occupancy
  Yb  Yb0  1  0.25000000  0.12422000  0.44228900  1
  Yb  Yb1  1  0.25000000  0.62422000  0.05771100  1
  Yb  Yb2  1  0.75000000  0.87578000  0.55771100  1
  Yb  Yb3  1  0.75000000  0.37578000  0.94228900  1
  Yb  Yb4  1  0.25000000  0.32601500  0.32628600  1
  Yb  Yb5  1  0.25000000  0.82601500  0.17371400  1
  Yb  Yb6  1  0.75000000  0.67398500  0.67371400  1
  Yb  Yb7  1  0.75000000  0.17398500  0.82628600  1
  Yb  Yb8  1  0.25000000  0.05804500  0.26378500  1
  Yb  Yb9  1  0.25000000  0.55804500  0.23621500  1
  Yb  Yb10  1  0.75000000  0.94195500  0.73621500  1
  Yb  Yb11  1  0.75000000  0.44195500  0.76378500  1
  Sb  Sb0  1  0.25000000  0.16811700  0.99416100  1
  Sb  Sb1  1  0.25000000  0.66811700  0.50583900  1
  Sb  Sb2  1  0.75000000  0.83188300  0.00583900  1
  Sb  Sb3  1  0.75000000  0.33188300  0.49416100  1
  Sb  Sb4  1  0.25000000  0.46994500  0.60700200  1
  Sb  Sb5  1  0.25000000  0.96994500  0.89299800  1
  Sb  Sb6  1  0.75000000  0.53005500  0.39299800  1
  Sb  Sb7  1  0.75000000  0.03005500  0.10700200  1
  Sb  Sb8  1  0.25000000  0.08698000  0.60532400  1
  Sb  Sb9  1  0.25000000  0.58698000  0.89467600  1
  Sb  Sb10  1  0.75000000  0.91302000  0.39467600  1
  Sb  Sb11  1  0.75000000  0.41302000  0.10532400  1
  Sb  Sb12  1  0.25000000  0.25066500  0.67958600  1
  Sb  Sb13  1  0.25000000  0.75066500  0.82041400  1
  Sb  Sb14  1  0.75000000  0.74933500  0.32041400  1
  Sb  Sb15  1  0.75000000  0.24933500  0.17958600  1
  S  S0  1  0.25000000  0.25132700  0.90744700  1
  S  S1  1  0.25000000  0.75132700  0.59255300  1
  S  S2  1  0.75000000  0.74867300  0.09255300  1
  S  S3  1  0.75000000  0.24867300  0.40744700  1
  S  S4  1  0.25000000  0.44503000  0.86039600  1
  S  S5  1  0.25000000  0.94503000  0.63960400  1
  S  S6  1  0.75000000  0.55497000  0.13960400  1
  S  S7  1  0.75000000  0.05497000  0.36039600  1
  S  S8  1  0.25000000  0.04158500  0.80126900  1
  S  S9  1  0.25000000  0.54158500  0.69873100  1
  S  S10  1  0.75000000  0.95841500  0.19873100  1
  S  S11  1  0.75000000  0.45841500  0.30126900  1
  S  S12  1  0.25000000  0.29663800  0.77762500  1
  S  S13  1  0.25000000  0.79663800  0.72237500  1
  S  S14  1  0.75000000  0.70336200  0.22237500  1
  S  S15  1  0.75000000  0.20336200  0.27762500  1
  S  S16  1  0.25000000  0.43295500  0.42930100  1
  S  S17  1  0.25000000  0.93295500  0.07069900  1
  S  S18  1  0.75000000  0.56704500  0.57069900  1
  S  S19  1  0.75000000  0.06704500  0.92930100  1
  S  S20  1  0.25000000  0.44407200  0.03428700  1
  S  S21  1  0.25000000  0.94407200  0.46571300  1
  S  S22  1  0.75000000  0.55592800  0.96571300  1
  S  S23  1  0.75000000  0.05592800  0.53428700  1
  S  S24  1  0.25000000  0.24664100  0.53375700  1
  S  S25  1  0.25000000  0.74664100  0.96624300  1
  S  S26  1  0.75000000  0.75335900  0.46624300  1
  S  S27  1  0.75000000  0.25335900  0.03375700  1
  S  S28  1  0.25000000  0.36512300  0.20048300  1
  S  S29  1  0.25000000  0.86512300  0.29951700  1
  S  S30  1  0.75000000  0.63487700  0.79951700  1
  S  S31  1  0.75000000  0.13487700  0.70048300  1
  S  S32  1  0.25000000  0.13475000  0.15419000  1
  S  S33  1  0.25000000  0.63475000  0.34581000  1
  S  S34  1  0.75000000  0.86525000  0.84581000  1
  S  S35  1  0.75000000  0.36525000  0.65419000  1
loop_
_geom_bond_atom_site_label_1
_geom_bond_atom_site_label_2
_geom_bond_distance
_geom_bond_site_symmetry_2
S0 Sb0 2.457147 1_555
S0 Yb3 2.929974 1_455
S0 Yb3 2.929974 1_555
S0 Yb7 3.012367 1_555
S0 Yb7 3.012367 1_455
S1 Sb1 2.457147 1_555
S1 Yb2 2.929974 1_455
S1 Yb2 2.929974 1_555
S1 Yb6 3.012367 1_455
S1 Yb6 3.012367 1_555
S2 Sb2 2.457147 1_555
S2 Yb1 2.929974 1_655
S2 Yb1 2.929974 1_555
S2 Yb5 3.012367 1_555
S2 Yb5 3.012367 1_655
S3 Sb3 2.457147 1_555
S3 Yb0 2.929974 1_555
S3 Yb0 2.929974 1_655
S3 Yb4 3.012367 1_555
S3 Yb4 3.012367 1_655
S4 Sb9 2.447236 1_555
S4 Yb3 2.971065 1_555
S4 Yb3 2.971065 1_455
S4 Yb11 3.005026 1_455
S4 Yb11 3.005026 1_555
S5 Sb8 2.447236 1_565
S5 Yb2 2.971065 1_455
S5 Yb2 2.971065 1_555
S5 Yb10 3.005026 1_455
S5 Yb10 3.005026 1_555
S6 Sb11 2.447236 1_555
S6 Yb1 2.971065 1_655
S6 Yb1 2.971065 1_555
S6 Yb9 3.005026 1_555
S6 Yb9 3.005026 1_655
S7 Sb10 2.447236 1_545
S7 Yb0 2.971065 1_655
S7 Yb0 2.971065 1_555
S7 Yb8 3.005026 1_555
S7 Yb8 3.005026 1_655
S8 Sb5 2.462520 1_545
S8 Yb7 2.965795 1_455
S8 Yb7 2.965795 1_555
S8 Yb10 2.966627 1_445
S8 Yb10 2.966627 1_545
S9 Sb4 2.462520 1_555
S9 Yb6 2.965795 1_455
S9 Yb6 2.965795 1_555
S9 Yb11 2.966627 1_455
S9 Yb11 2.966627 1_555
S10 Sb7 2.462520 1_565
S10 Yb5 2.965795 1_655
S10 Yb5 2.965795 1_555
S10 Yb8 2.966627 1_665
S10 Yb8 2.966627 1_565
S11 Sb6 2.462520 1_555
S11 Yb4 2.965795 1_555
S11 Yb4 2.965795 1_655
S11 Yb9 2.966627 1_555
S11 Yb9 2.966627 1_655
S12 Sb12 2.436173 1_555
S12 Yb7 3.018681 1_455
S12 Yb7 3.018681 1_555
S12 Yb11 3.082571 1_455
S12 Yb11 3.082571 1_555
S13 Sb13 2.436173 1_555
S13 Yb6 3.018681 1_455
S13 Yb6 3.018681 1_555
S13 Yb10 3.082571 1_555
S13 Yb10 3.082571 1_455
S14 Sb14 2.436173 1_555
S14 Yb5 3.018681 1_555
S14 Yb5 3.018681 1_655
S14 Yb9 3.082571 1_655
S14 Yb9 3.082571 1_555
S15 Sb15 2.436173 1_555
S15 Yb4 3.018681 1_655
S15 Yb4 3.018681 1_555
S15 Yb8 3.082571 1_555
S15 Yb8 3.082571 1_655
S16 Sb6 2.653176 1_455
S16 Sb6 2.653176 1_555
S16 Sb3 2.977139 1_455
S16 Sb3 2.977139 1_555
S16 Yb4 2.993542 1_555
S17 Sb7 2.653176 1_465
S17 Sb7 2.653176 1_565
S17 Sb2 2.977139 1_455
S17 Sb2 2.977139 1_555
S17 Yb5 2.993542 1_555
S18 Sb4 2.653176 1_555
S18 Sb4 2.653176 1_655
S18 Sb1 2.977139 1_655
S18 Sb1 2.977139 1_555
S18 Yb6 2.993542 1_555
S19 Sb5 2.653176 1_545
S19 Sb5 2.653176 1_645
S19 Sb0 2.977139 1_555
S19 Sb0 2.977139 1_655
S19 Yb7 2.993542 1_555
S20 Sb11 2.623910 1_455
S20 Sb11 2.623910 1_555
S20 Yb1 2.982310 1_555
S20 Yb3 3.126520 1_554
S20 Yb3 3.126520 1_454
S21 Sb10 2.623910 1_455
S21 Sb10 2.623910 1_555
S21 Yb0 2.982310 1_565
S21 Yb2 3.126520 1_455
S21 Yb2 3.126520 1_555
S22 Sb9 2.623910 1_655
S22 Sb9 2.623910 1_555
S22 Yb3 2.982310 1_555
S22 Yb1 3.126520 1_656
S22 Yb1 3.126520 1_556
S23 Sb8 2.623910 1_555
S23 Sb8 2.623910 1_655
S23 Yb2 2.982310 1_545
S23 Yb0 3.126520 1_655
S23 Yb0 3.126520 1_555
S24 Sb3 2.570408 1_455
S24 Sb3 2.570408 1_555
S24 Yb0 2.940211 1_555
S24 Sb8 3.099967 1_555
S25 Sb2 2.570408 1_456
S25 Sb2 2.570408 1_556
S25 Yb1 2.940211 1_556
S25 Sb9 3.099967 1_555
S26 Sb1 2.570408 1_655
S26 Sb1 2.570408 1_555
S26 Yb2 2.940211 1_555
S26 Sb10 3.099967 1_555
S27 Sb0 2.570408 1_654
S27 Sb0 2.570408 1_554
S27 Yb3 2.940211 1_554
S27 Sb11 3.099967 1_555
S28 Sb15 2.756665 1_455
S28 Sb15 2.756665 1_555
S28 Yb4 3.042405 1_555
S28 Sb11 3.078795 1_455
S28 Sb11 3.078795 1_555
S28 Yb9 3.249983 1_555
S29 Sb14 2.756665 1_455
S29 Sb14 2.756665 1_555
S29 Yb5 3.042405 1_555
S29 Sb10 3.078795 1_455
S29 Sb10 3.078795 1_555
S29 Yb8 3.249983 1_565
S30 Sb13 2.756665 1_555
S30 Sb13 2.756665 1_655
S30 Yb6 3.042405 1_555
S30 Sb9 3.078795 1_655
S30 Sb9 3.078795 1_555
S30 Yb11 3.249983 1_555
S31 Sb12 2.756665 1_555
S31 Sb12 2.756665 1_655
S31 Yb7 3.042405 1_555
S31 Sb8 3.078795 1_555
S31 Sb8 3.078795 1_655
S31 Yb10 3.249983 1_545
S32 Sb15 2.764480 1_455
S32 Sb15 2.764480 1_555
S32 Sb7 2.820136 1_455
S32 Sb7 2.820136 1_555
S32 Yb8 2.876544 1_555
S33 Sb14 2.764480 1_455
S33 Sb14 2.764480 1_555
S33 Sb6 2.820136 1_455
S33 Sb6 2.820136 1_555
S33 Yb9 2.876544 1_555
S34 Sb13 2.764480 1_555
S34 Sb13 2.764480 1_655
S34 Sb5 2.820136 1_555
S34 Sb5 2.820136 1_655
S34 Yb10 2.876544 1_555
S35 Sb12 2.764480 1_555
S35 Sb12 2.764480 1_655
S35 Sb4 2.820136 1_655
S35 Sb4 2.820136 1_555
S35 Yb11 2.876544 1_555
