# generated using pymatgen
data_Cr3O8
_symmetry_space_group_name_H-M   'P 1'
_cell_length_a   5.81084888
_cell_length_b   5.81084888
_cell_length_c   10.20799700
_cell_angle_alpha   90.00000000
_cell_angle_beta   90.00000000
_cell_angle_gamma   120.00001000
_symmetry_Int_Tables_number   1
_chemical_formula_structural   Cr3O8
_chemical_formula_sum   'Cr6 O16'
_cell_volume   298.50408834
_cell_formula_units_Z   2
loop_
 _symmetry_equiv_pos_site_id
 _symmetry_equiv_pos_as_xyz
  1  'x, y, z'
loop_
 _atom_site_type_symbol
 _atom_site_label
 _atom_site_symmetry_multiplicity
 _atom_site_fract_x
 _atom_site_fract_y
 _atom_site_fract_z
 _atom_site_occupancy
  Cr  Cr0  1  0.66599900  0.83299900  0.25009000  1
  Cr  Cr1  1  0.83299900  0.16700100  0.75009000  1
  Cr  Cr2  1  0.16700100  0.33400100  0.25009000  1
  Cr  Cr3  1  0.83299900  0.66599900  0.75009000  1
  Cr  Cr4  1  0.33400100  0.16700100  0.75009000  1
  Cr  Cr5  1  0.16700100  0.83299900  0.25009000  1
  O  O0  1  0.85007200  0.14992800  0.15526000  1
  O  O1  1  0.70014300  0.85007200  0.65526000  1
  O  O2  1  0.14992800  0.29985700  0.65526000  1
  O  O3  1  0.85007200  0.70014300  0.15526000  1
  O  O4  1  0.29985700  0.14992800  0.15526000  1
  O  O5  1  0.14992800  0.85007200  0.65526000  1
  O  O6  1  0.51720800  0.48279200  0.84637100  1
  O  O7  1  0.03441600  0.51720800  0.34637100  1
  O  O8  1  0.48279200  0.96558400  0.34637100  1
  O  O9  1  0.51720800  0.03441600  0.84637100  1
  O  O10  1  0.00000000  0.00000000  0.34901200  1
  O  O11  1  0.00000000  0.00000000  0.84901200  1
  O  O12  1  0.33333300  0.66666700  0.15097100  1
  O  O13  1  0.96558400  0.48279200  0.84637100  1
  O  O14  1  0.48279200  0.51720800  0.34637100  1
  O  O15  1  0.66666700  0.33333300  0.65097100  1
loop_
_geom_bond_atom_site_label_1
_geom_bond_atom_site_label_2
_geom_bond_distance
_geom_bond_site_symmetry_2
Cr0 O0 1.871605 1_565
Cr0 O3 1.871605 1_555
Cr0 O14 1.874315 1_555
Cr0 O8 1.874319 1_555
Cr0 O12 1.956100 1_555
Cr0 O10 1.960816 1_665
Cr1 O1 1.871605 1_545
Cr1 O2 1.871605 1_655
Cr1 O9 1.874314 1_555
Cr1 O13 1.874314 1_555
Cr1 O15 1.956092 1_555
Cr1 O11 1.960821 1_655
Cr2 O0 1.871605 1_455
Cr2 O4 1.871605 1_555
Cr2 O14 1.874315 1_555
Cr2 O7 1.874319 1_555
Cr2 O12 1.956100 1_555
Cr2 O10 1.960816 1_555
Cr3 O5 1.871605 1_655
Cr3 O1 1.871605 1_555
Cr3 O6 1.874315 1_555
Cr3 O13 1.874319 1_555
Cr3 O15 1.956100 1_555
Cr3 O11 1.960816 1_665
Cr4 O5 1.871605 1_545
Cr4 O2 1.871605 1_555
Cr4 O6 1.874315 1_555
Cr4 O9 1.874319 1_555
Cr4 O15 1.956100 1_555
Cr4 O11 1.960816 1_555
Cr5 O3 1.871605 1_455
Cr5 O4 1.871605 1_565
Cr5 O7 1.874314 1_555
Cr5 O8 1.874314 1_555
Cr5 O12 1.956092 1_555
Cr5 O10 1.960821 1_565
