# generated using pymatgen
data_ErTl(PSe3)2
_symmetry_space_group_name_H-M   'P 1'
_cell_length_a   7.59824300
_cell_length_b   6.82486500
_cell_length_c   10.35858118
_cell_angle_alpha   88.81264581
_cell_angle_beta   90.00000000
_cell_angle_gamma   90.00000000
_symmetry_Int_Tables_number   1
_chemical_formula_structural   ErTl(PSe3)2
_chemical_formula_sum   'Er2 Tl2 P4 Se12'
_cell_volume   537.04942591
_cell_formula_units_Z   2
loop_
 _symmetry_equiv_pos_site_id
 _symmetry_equiv_pos_as_xyz
  1  'x, y, z'
loop_
 _atom_site_type_symbol
 _atom_site_label
 _atom_site_symmetry_multiplicity
 _atom_site_fract_x
 _atom_site_fract_y
 _atom_site_fract_z
 _atom_site_occupancy
  Er  Er0  1  0.49788000  0.28410600  0.50189100  1
  Er  Er1  1  0.99788000  0.71589400  0.49810900  1
  Tl  Tl0  1  0.22126700  0.81860100  0.99212300  1
  Tl  Tl1  1  0.72126700  0.18139900  0.00787700  1
  P  P0  1  0.00953400  0.18706300  0.67509900  1
  P  P1  1  0.50953400  0.81293700  0.32490100  1
  P  P2  1  0.22959700  0.31134500  0.79455000  1
  P  P3  1  0.72959700  0.68865500  0.20545000  1
  Se  Se0  1  0.41322600  0.09365600  0.24501000  1
  Se  Se1  1  0.91322600  0.90634400  0.75499000  1
  Se  Se2  1  0.44165600  0.10015500  0.76607400  1
  Se  Se3  1  0.94165600  0.89984500  0.23392600  1
  Se  Se4  1  0.80890400  0.42527600  0.66763000  1
  Se  Se5  1  0.30890400  0.57472400  0.33237000  1
  Se  Se6  1  0.13683400  0.34873600  0.99013100  1
  Se  Se7  1  0.63683400  0.65126400  0.00986900  1
  Se  Se8  1  0.30926900  0.56939600  0.66915700  1
  Se  Se9  1  0.80926900  0.43060400  0.33084300  1
  Se  Se10  1  0.13603300  0.12700100  0.48396400  1
  Se  Se11  1  0.63603300  0.87299900  0.51603600  1
loop_
_geom_bond_atom_site_label_1
_geom_bond_atom_site_label_2
_geom_bond_distance
_geom_bond_site_symmetry_2
Er0 Se10 2.958310 1_555
Er0 Se5 2.989137 1_555
Er0 Se11 2.996427 1_545
Er0 Se8 2.997786 1_555
Er0 Se2 3.017452 1_555
Er0 Se0 3.054022 1_555
Er0 Se4 3.086936 1_555
Er0 Se9 3.108628 1_555
Er1 Se11 2.958310 1_555
Er1 Se4 2.989137 1_555
Er1 Se10 2.996427 1_665
Er1 Se9 2.997786 1_555
Er1 Se3 3.017452 1_555
Er1 Se1 3.054022 1_555
Er1 Se5 3.086936 1_655
Er1 Se8 3.108628 1_655
P0 Se1 2.196631 1_445
P0 Se4 2.228858 1_455
P0 Se10 2.246212 1_555
P0 P2 2.256072 1_555
P1 Se0 2.196631 1_565
P1 Se5 2.228858 1_555
P1 Se11 2.246212 1_555
P1 P3 2.256072 1_555
P2 Se6 2.165128 1_555
P2 Se2 2.185934 1_555
P2 Se8 2.249552 1_555
P3 Se7 2.165128 1_555
P3 Se3 2.185934 1_555
P3 Se9 2.249552 1_555
Se0 Tl1 3.436513 1_555
Se1 Tl0 3.436513 1_655
Se2 Tl1 3.339525 1_556
Se2 Tl0 3.434090 1_545
Se3 Tl0 3.339525 1_654
Se3 Tl1 3.434090 1_565
Se6 Tl0 3.270793 1_555
Se6 Tl1 3.361500 1_456
Se7 Tl1 3.270793 1_555
Se7 Tl0 3.361500 1_554
