# generated using pymatgen
data_CoN6(ClO)2
_symmetry_space_group_name_H-M   'P 1'
_cell_length_a   7.06645540
_cell_length_b   7.06645540
_cell_length_c   10.33757953
_cell_angle_alpha   76.27099799
_cell_angle_beta   76.27099799
_cell_angle_gamma   87.73328821
_symmetry_Int_Tables_number   1
_chemical_formula_structural   CoN6(ClO)2
_chemical_formula_sum   'Co2 N12 Cl4 O4'
_cell_volume   487.05243062
_cell_formula_units_Z   2
loop_
 _symmetry_equiv_pos_site_id
 _symmetry_equiv_pos_as_xyz
  1  'x, y, z'
loop_
 _atom_site_type_symbol
 _atom_site_label
 _atom_site_symmetry_multiplicity
 _atom_site_fract_x
 _atom_site_fract_y
 _atom_site_fract_z
 _atom_site_occupancy
  Co  Co0  1  0.04581000  0.95419000  0.75000000  1
  Co  Co1  1  0.95419000  0.04581000  0.25000000  1
  N  N0  1  0.58367500  0.41632500  0.75000000  1
  N  N1  1  0.41632500  0.58367500  0.25000000  1
  N  N2  1  0.90984100  0.86820600  0.94951500  1
  N  N3  1  0.13179400  0.09015900  0.55048500  1
  N  N4  1  0.09015900  0.13179400  0.05048500  1
  N  N5  1  0.86820600  0.90984100  0.44951500  1
  N  N6  1  0.06068800  0.20953100  0.78857400  1
  N  N7  1  0.79046900  0.93931200  0.71142600  1
  N  N8  1  0.93931200  0.79046900  0.21142600  1
  N  N9  1  0.20953100  0.06068800  0.28857400  1
  N  N10  1  0.20779800  0.79220200  0.75000000  1
  N  N11  1  0.79220200  0.20779800  0.25000000  1
  Cl  Cl0  1  0.73664000  0.96263000  0.57381000  1
  Cl  Cl1  1  0.03737000  0.26336000  0.92619000  1
  Cl  Cl2  1  0.26336000  0.03737000  0.42619000  1
  Cl  Cl3  1  0.96263000  0.73664000  0.07381000  1
  O  O0  1  0.74407900  0.47833100  0.68348500  1
  O  O1  1  0.52166900  0.25592100  0.81651500  1
  O  O2  1  0.25592100  0.52166900  0.31651500  1
  O  O3  1  0.47833100  0.74407900  0.18348500  1
loop_
_geom_bond_atom_site_label_1
_geom_bond_atom_site_label_2
_geom_bond_distance
_geom_bond_site_symmetry_2
Co0 N10 1.586487 1_555
Co0 N6 1.949921 1_565
Co0 N7 1.949921 1_455
Co0 N3 2.014196 1_565
Co0 N2 2.014196 1_455
Co1 N11 1.586487 1_555
Co1 N9 1.949921 1_655
Co1 N8 1.949921 1_545
Co1 N4 2.014196 1_655
Co1 N5 2.014196 1_545
N0 O0 1.214872 1_555
N0 O1 1.214872 1_555
N1 O3 1.214872 1_555
N1 O2 1.214872 1_555
Cl0 N5 1.512465 1_555
Cl0 N7 1.528499 1_555
Cl1 N4 1.512465 1_556
Cl1 N6 1.528499 1_555
Cl2 N3 1.512465 1_555
Cl2 N9 1.528499 1_555
Cl3 N2 1.512465 1_554
Cl3 N8 1.528499 1_555
