# generated using pymatgen
data_Nd3VGeO9
_symmetry_space_group_name_H-M   'P 1'
_cell_length_a   7.13762532
_cell_length_b   9.42391081
_cell_length_c   12.61552500
_cell_angle_alpha   90.00000000
_cell_angle_beta   90.00000000
_cell_angle_gamma   107.70945742
_symmetry_Int_Tables_number   1
_chemical_formula_structural   Nd3VGeO9
_chemical_formula_sum   'Nd12 V4 Ge4 O36'
_cell_volume   808.36213745
_cell_formula_units_Z   4
loop_
 _symmetry_equiv_pos_site_id
 _symmetry_equiv_pos_as_xyz
  1  'x, y, z'
loop_
 _atom_site_type_symbol
 _atom_site_label
 _atom_site_symmetry_multiplicity
 _atom_site_fract_x
 _atom_site_fract_y
 _atom_site_fract_z
 _atom_site_occupancy
  Nd  Nd0  1  0.66984500  0.62110400  0.36852400  1
  Nd  Nd1  1  0.33015500  0.37889600  0.63147600  1
  Nd  Nd2  1  0.83015500  0.87889600  0.86852400  1
  Nd  Nd3  1  0.16984500  0.12110400  0.13147600  1
  Nd  Nd4  1  0.24069100  0.84374700  0.36446700  1
  Nd  Nd5  1  0.75930900  0.15625300  0.63553300  1
  Nd  Nd6  1  0.25930900  0.65625300  0.86446700  1
  Nd  Nd7  1  0.74069100  0.34374700  0.13553300  1
  Nd  Nd8  1  0.50576700  0.87310100  0.10680200  1
  Nd  Nd9  1  0.49423300  0.12689900  0.89319800  1
  Nd  Nd10  1  0.99423300  0.62689900  0.60680200  1
  Nd  Nd11  1  0.00576700  0.37310100  0.39319800  1
  V  V0  1  0.19778200  0.97883900  0.66258000  1
  V  V1  1  0.80221800  0.02116100  0.33742000  1
  V  V2  1  0.30221800  0.52116100  0.16258000  1
  V  V3  1  0.69778200  0.47883900  0.83742000  1
  Ge  Ge0  1  0.94913400  0.75754600  0.10074300  1
  Ge  Ge1  1  0.05086600  0.24245400  0.89925700  1
  Ge  Ge2  1  0.55086600  0.74245400  0.60074300  1
  Ge  Ge3  1  0.44913400  0.25754600  0.39925700  1
  O  O0  1  0.89694700  0.87120200  0.34072800  1
  O  O1  1  0.10305300  0.12879800  0.65927200  1
  O  O2  1  0.60305300  0.62879800  0.84072800  1
  O  O3  1  0.39694700  0.37120200  0.15927200  1
  O  O4  1  0.65632400  0.59228800  0.57530200  1
  O  O5  1  0.34367600  0.40771200  0.42469800  1
  O  O6  1  0.84367600  0.90771200  0.07530200  1
  O  O7  1  0.15632400  0.09228800  0.92469800  1
  O  O8  1  0.16972100  0.88132900  0.54380600  1
  O  O9  1  0.83027900  0.11867100  0.45619400  1
  O  O10  1  0.33027900  0.61867100  0.04380600  1
  O  O11  1  0.66972100  0.38132900  0.95619400  1
  O  O12  1  0.78633900  0.61212000  0.17229100  1
  O  O13  1  0.21366100  0.38788000  0.82770900  1
  O  O14  1  0.71366100  0.88788000  0.67229100  1
  O  O15  1  0.28634000  0.11212000  0.32770900  1
  O  O16  1  0.07784800  0.83528300  0.75060300  1
  O  O17  1  0.92215200  0.16471700  0.24939700  1
  O  O18  1  0.42215200  0.66471700  0.25060300  1
  O  O19  1  0.57784800  0.33528300  0.74939700  1
  O  O20  1  0.99559800  0.61592200  0.42000400  1
  O  O21  1  0.00440200  0.38407800  0.57999600  1
  O  O22  1  0.50440200  0.88407800  0.92000400  1
  O  O23  1  0.49559800  0.11592200  0.07999600  1
  O  O24  1  0.17248800  0.85929300  0.16905100  1
  O  O25  1  0.82751200  0.14070700  0.83094900  1
  O  O26  1  0.32751200  0.64070700  0.66905100  1
  O  O27  1  0.67248800  0.35929300  0.33094900  1
  O  O28  1  0.56571200  0.96328200  0.28918500  1
  O  O29  1  0.43428800  0.03671800  0.71081500  1
  O  O30  1  0.93428800  0.53671800  0.78918500  1
  O  O31  1  0.06571200  0.46328200  0.21081500  1
  O  O32  1  0.49732700  0.77684300  0.46765800  1
  O  O33  1  0.50267300  0.22315700  0.53234200  1
  O  O34  1  0.00267300  0.72315700  0.96765800  1
  O  O35  1  0.99732700  0.27684300  0.03234200  1
loop_
_geom_bond_atom_site_label_1
_geom_bond_atom_site_label_2
_geom_bond_distance
_geom_bond_site_symmetry_2
Nd0 O20 2.428858 1_555
Nd0 O18 2.439193 1_555
Nd0 O0 2.445647 1_555
Nd0 O32 2.516721 1_555
Nd0 O27 2.518107 1_555
Nd0 O12 2.621046 1_555
Nd0 O4 2.621445 1_555
Nd0 O5 2.667944 1_555
Nd1 O21 2.428858 1_555
Nd1 O19 2.439193 1_555
Nd1 O1 2.445647 1_555
Nd1 O33 2.516721 1_555
Nd1 O26 2.518107 1_555
Nd1 O13 2.621046 1_555
Nd1 O5 2.621445 1_555
Nd1 O4 2.667944 1_555
Nd2 O22 2.428858 1_555
Nd2 O16 2.439193 1_655
Nd2 O2 2.445647 1_555
Nd2 O34 2.516721 1_655
Nd2 O25 2.518107 1_565
Nd2 O14 2.621046 1_555
Nd2 O6 2.621445 1_556
Nd2 O7 2.667944 1_665
Nd3 O23 2.428858 1_555
Nd3 O17 2.439193 1_455
Nd3 O3 2.445647 1_555
Nd3 O35 2.516721 1_455
Nd3 O24 2.518107 1_545
Nd3 O15 2.621048 1_555
Nd3 O7 2.621445 1_554
Nd3 O6 2.667944 1_445
Nd4 O8 2.368521 1_555
Nd4 O20 2.424006 1_455
Nd4 O28 2.441903 1_555
Nd4 O32 2.479971 1_555
Nd4 O15 2.493256 1_565
Nd4 O24 2.525751 1_555
Nd4 O0 2.561752 1_455
Nd4 O18 2.813700 1_555
Nd5 O9 2.368521 1_555
Nd5 O21 2.424006 1_655
Nd5 O29 2.441903 1_555
Nd5 O33 2.479971 1_555
Nd5 O14 2.493257 1_545
Nd5 O25 2.525751 1_555
Nd5 O1 2.561752 1_655
Nd5 O19 2.813700 1_555
Nd6 O10 2.368521 1_556
Nd6 O22 2.424006 1_555
Nd6 O30 2.441903 1_455
Nd6 O34 2.479971 1_555
Nd6 O13 2.493257 1_555
Nd6 O26 2.525751 1_555
Nd6 O2 2.561752 1_555
Nd6 O16 2.813700 1_555
Nd7 O11 2.368521 1_554
Nd7 O23 2.424006 1_555
Nd7 O31 2.441903 1_655
Nd7 O35 2.479971 1_555
Nd7 O12 2.493257 1_555
Nd7 O27 2.525751 1_555
Nd7 O3 2.561752 1_555
Nd7 O17 2.813700 1_555
Nd8 O23 2.336044 1_565
Nd8 O22 2.358974 1_554
Nd8 O6 2.367026 1_555
Nd8 O28 2.445005 1_555
Nd8 O24 2.470648 1_555
Nd8 O10 2.474358 1_555
Nd8 O18 2.605894 1_555
Nd9 O22 2.336044 1_545
Nd9 O23 2.358974 1_556
Nd9 O7 2.367026 1_555
Nd9 O29 2.445005 1_555
Nd9 O25 2.470648 1_555
Nd9 O11 2.474358 1_555
Nd9 O19 2.605894 1_555
Nd10 O21 2.336044 1_655
Nd10 O20 2.358974 1_555
Nd10 O4 2.367026 1_555
Nd10 O30 2.445005 1_555
Nd10 O26 2.470648 1_655
Nd10 O8 2.474358 1_655
Nd10 O16 2.605894 1_655
Nd11 O20 2.336044 1_455
Nd11 O21 2.358974 1_555
Nd11 O5 2.367026 1_555
Nd11 O31 2.445005 1_555
Nd11 O27 2.470648 1_455
Nd11 O9 2.474358 1_455
Nd11 O17 2.605894 1_455
Ge0 O12 1.753365 1_555
Ge0 O34 1.773481 1_654
Ge0 O24 1.809294 1_655
Ge0 O6 1.822170 1_555
Ge1 O13 1.753365 1_555
Ge1 O35 1.773481 1_456
Ge1 O25 1.809294 1_455
Ge1 O7 1.822170 1_555
Ge2 O14 1.753365 1_555
Ge2 O32 1.773481 1_555
Ge2 O26 1.809294 1_555
Ge2 O4 1.822170 1_555
Ge3 O15 1.753362 1_555
Ge3 O33 1.773481 1_555
Ge3 O27 1.809294 1_555
Ge3 O5 1.822170 1_555
O0 V1 1.742803 1_565
O1 V0 1.742803 1_545
O2 V3 1.742803 1_555
O3 V2 1.742803 1_555
O8 V0 1.737170 1_555
O9 V1 1.737170 1_555
O10 V2 1.737170 1_555
O11 V3 1.737170 1_555
O16 V0 1.758290 1_555
O17 V1 1.758290 1_555
O18 V2 1.758290 1_555
O19 V3 1.758290 1_555
O28 V1 1.719672 1_565
O29 V0 1.719672 1_545
O30 V3 1.719672 1_555
O31 V2 1.719672 1_555
