# generated using pymatgen
data_K3Hf2Se11
_symmetry_space_group_name_H-M   'P 1'
_cell_length_a   11.29526028
_cell_length_b   12.96481645
_cell_length_c   36.66269574
_cell_angle_alpha   112.13254077
_cell_angle_beta   100.20834875
_cell_angle_gamma   102.74533310
_symmetry_Int_Tables_number   1
_chemical_formula_structural   K3Hf2Se11
_chemical_formula_sum   'K24 Hf16 Se88'
_cell_volume   4645.01758095
_cell_formula_units_Z   8
loop_
 _symmetry_equiv_pos_site_id
 _symmetry_equiv_pos_as_xyz
  1  'x, y, z'
loop_
 _atom_site_type_symbol
 _atom_site_label
 _atom_site_symmetry_multiplicity
 _atom_site_fract_x
 _atom_site_fract_y
 _atom_site_fract_z
 _atom_site_occupancy
  K  K0  1  0.21451750  0.06767326  -0.00351584  1
  K  K1  1  0.23843056  0.06286160  0.29518338  1
  K  K2  1  0.38462612  0.11443807  0.61548391  1
  K  K3  1  0.12119146  0.45782093  0.05668076  1
  K  K4  1  0.12715592  0.46227065  0.43074008  1
  K  K5  1  0.92389728  0.42206917  0.68001137  1
  K  K6  1  0.54966149  0.21588349  0.26976314  1
  K  K7  1  0.33789431  0.05172954  0.86845573  1
  K  K8  1  0.26346993  0.20167989  0.52244158  1
  K  K9  1  0.39519621  0.63886413  0.63174577  1
  K  K10  1  0.38969856  0.56652825  0.28623764  1
  K  K11  1  0.40160310  0.61689168  0.93110691  1
  K  K12  1  0.64174348  0.45123365  0.06241890  1
  K  K13  1  0.44401755  0.51634626  0.72695378  1
  K  K14  1  0.60227811  0.49092243  0.40328688  1
  K  K15  1  0.72803894  0.82351540  0.09017230  1
  K  K16  1  0.77700728  0.87451612  0.82606690  1
  K  K17  1  0.64949065  0.87369078  0.46023907  1
  K  K18  1  0.67338677  0.47730064  0.52509303  1
  K  K19  1  0.84003423  0.26075067  0.14446949  1
  K  K20  1  0.66538480  0.34364323  0.79247529  1
  K  K21  1  0.82523550  0.05301254  0.74707144  1
  K  K22  1  0.77797148  0.03953066  0.38008388  1
  K  K23  1  0.47046240  0.04239051  0.12854387  1
  Hf  Hf0  1  0.24448451  0.80530274  0.16148412  1
  Hf  Hf1  1  0.20588937  0.70361755  0.80196977  1
  Hf  Hf2  1  0.31141432  0.82457573  0.50973342  1
  Hf  Hf3  1  0.16967931  0.81493410  0.04652214  1
  Hf  Hf4  1  0.27587476  0.85537609  0.42374900  1
  Hf  Hf5  1  0.11092065  0.81105717  0.72452483  1
  Hf  Hf6  1  0.16897326  0.08778358  0.69403278  1
  Hf  Hf7  1  0.46902647  0.13141496  0.40971229  1
  Hf  Hf8  1  0.68023608  0.90940865  0.24880097  1
  Hf  Hf9  1  0.66019781  0.04621607  0.00444092  1
  Hf  Hf10  1  0.89565270  0.16811438  0.25734767  1
  Hf  Hf11  1  0.75850084  0.97852230  0.58767849  1
  Hf  Hf12  1  0.75953760  0.20979298  0.94726978  1
  Hf  Hf13  1  0.89612727  0.22723262  0.51236924  1
  Hf  Hf14  1  0.07056286  0.30153835  0.93065801  1
  Hf  Hf15  1  0.70267969  0.48221598  0.24091720  1
  Se  Se0  1  0.04603028  0.04385472  0.43473761  1
  Se  Se1  1  0.78114442  0.01456063  0.05894006  1
  Se  Se2  1  0.09896746  0.03050008  0.74639597  1
  Se  Se3  1  0.95617057  0.88533218  0.19002852  1
  Se  Se4  1  0.88644346  0.72673473  0.49684952  1
  Se  Se5  1  0.06090785  0.91440620  0.89200490  1
  Se  Se6  1  0.16736449  0.81603797  0.55736108  1
  Se  Se7  1  0.26496785  0.73467249  0.22073924  1
  Se  Se8  1  0.20624954  0.80075040  0.87948626  1
  Se  Se9  1  0.97688261  0.51818657  0.78917595  1
  Se  Se10  1  0.99379870  0.50365818  0.13583553  1
  Se  Se11  1  0.86325544  0.52198610  0.47140375  1
  Se  Se12  1  0.44570375  0.76314923  0.19303358  1
  Se  Se13  1  0.32996952  0.61501054  0.83790025  1
  Se  Se14  1  0.50508539  0.84332424  0.56499950  1
  Se  Se15  1  0.13519363  0.34795930  0.20087044  1
  Se  Se16  1  0.03506663  0.39993521  0.58514162  1
  Se  Se17  1  0.11713810  0.38944311  0.87785872  1
  Se  Se18  1  0.19433000  0.02423619  0.07843432  1
  Se  Se19  1  0.36319218  0.68360208  0.39627380  1
  Se  Se20  1  0.44547778  0.91946656  0.77266453  1
  Se  Se21  1  0.14207368  0.29217701  0.27760088  1
  Se  Se22  1  0.14383783  0.27656280  0.60431191  1
  Se  Se23  1  0.29777583  0.36862722  0.98177602  1
  Se  Se24  1  0.77136471  0.26407640  0.02578871  1
  Se  Se25  1  0.59896093  0.08865722  0.68808861  1
  Se  Se26  1  0.52346780  0.19842755  0.35987461  1
  Se  Se27  1  0.48371033  0.44727987  0.13952396  1
  Se  Se28  1  0.34017176  0.24592444  0.44739831  1
  Se  Se29  1  0.28838197  0.30745620  0.75471332  1
  Se  Se30  1  0.31084774  0.02192422  0.19677035  1
  Se  Se31  1  0.79748934  0.10845539  0.55237124  1
  Se  Se32  1  0.62592156  0.22061465  0.87911984  1
  Se  Se33  1  0.93679629  0.41535592  0.96677822  1
  Se  Se34  1  0.16208306  0.29264061  0.69219383  1
  Se  Se35  1  0.05960307  0.26893931  0.33100820  1
  Se  Se36  1  0.29332153  0.92738309  0.36859511  1
  Se  Se37  1  0.20700549  0.87838896  0.66760561  1
  Se  Se38  1  0.39120238  0.81711636  0.02883551  1
  Se  Se39  1  0.36576463  0.34090238  0.07111866  1
  Se  Se40  1  0.40883139  0.68178694  0.46326911  1
  Se  Se41  1  0.43047378  0.19514912  0.71490016  1
  Se  Se42  1  0.64678463  0.39622258  0.95875121  1
  Se  Se43  1  0.81344573  0.33296215  0.24419478  1
  Se  Se44  1  0.89617255  0.68625386  0.66620640  1
  Se  Se45  1  0.62954153  0.98966931  0.92881958  1
  Se  Se46  1  0.68971178  0.14596119  0.64079800  1
  Se  Se47  1  0.75516122  0.11788192  0.30554779  1
  Se  Se48  1  0.62438664  0.77362790  0.72097276  1
  Se  Se49  1  0.67568221  0.50785488  0.31268562  1
  Se  Se50  1  0.96387599  0.72302860  0.98537109  1
  Se  Se51  1  0.20538173  0.64694000  0.72233712  1
  Se  Se52  1  0.44744026  0.82413821  0.81808634  1
  Se  Se53  1  0.29714813  0.73957396  0.09343244  1
  Se  Se54  1  0.41753768  0.00163807  0.49551738  1
  Se  Se55  1  0.70636835  0.71332615  0.25988158  1
  Se  Se56  1  0.41427574  0.44941827  0.45998236  1
  Se  Se57  1  0.93430445  0.81906391  0.92462229  1
  Se  Se58  1  0.33366924  0.86034332  0.61816409  1
  Se  Se59  1  0.57689333  0.82383827  0.29548736  1
  Se  Se60  1  0.42152893  0.91706353  0.98490323  1
  Se  Se61  1  0.70844644  0.62395141  0.68673530  1
  Se  Se62  1  0.65654463  0.67813130  0.36289974  1
  Se  Se63  1  0.94491738  0.68483075  0.04463990  1
  Se  Se64  1  0.94292075  0.05819507  0.17845014  1
  Se  Se65  1  0.94789459  0.02496111  0.48660064  1
  Se  Se66  1  0.07297176  0.84456832  0.79299657  1
  Se  Se67  1  0.99220147  0.67400814  0.12322820  1
  Se  Se68  1  0.80785138  0.56654204  0.75924033  1
  Se  Se69  1  0.10519827  0.75592980  0.44614690  1
  Se  Se70  1  0.49655855  0.34204463  0.18465698  1
  Se  Se71  1  0.63661839  0.08548458  0.81174130  1
  Se  Se72  1  0.67355443  0.17198660  0.46391438  1
  Se  Se73  1  0.02578650  0.57834156  0.20713482  1
  Se  Se74  1  0.98729945  0.45909304  0.52194120  1
  Se  Se75  1  0.94437121  0.51487533  0.85797367  1
  Se  Se76  1  0.67902070  -0.00249485  0.19556648  1
  Se  Se77  1  0.36470874  0.37074634  0.62036344  1
  Se  Se78  1  0.42033575  0.34226656  0.93096586  1
  Se  Se79  1  0.79872636  0.57645673  0.19733994  1
  Se  Se80  1  0.80799027  0.62802699  0.87124465  1
  Se  Se81  1  0.71173353  0.75609349  0.52814806  1
  Se  Se82  1  0.15456563  0.16384595  0.17354529  1
  Se  Se83  1  0.03836500  0.25061873  0.46535235  1
  Se  Se84  1  0.08147000  0.18207729  0.85615419  1
  Se  Se85  1  0.93497701  0.11311720  0.92948751  1
  Se  Se86  1  0.96337497  -0.00759028  0.63095498  1
  Se  Se87  1  0.93451080  0.96336696  0.25821859  1
loop_
_geom_bond_atom_site_label_1
_geom_bond_atom_site_label_2
_geom_bond_distance
_geom_bond_site_symmetry_2
K0 Se18 3.295048 1_555
K0 Se60 3.346969 1_544
K0 Se39 3.365026 1_555
K0 Se5 3.466887 1_544
K0 Se57 3.673173 1_444
K1 Se87 3.219459 1_445
K1 Se26 3.276507 1_555
K1 Se21 3.614159 1_555
K1 Se35 3.690642 1_555
K1 Se30 3.709958 1_555
K1 Se36 3.763604 1_545
K2 Se58 3.258931 1_545
K2 Se46 3.295845 1_555
K2 Se41 3.296391 1_555
K2 Se77 3.319799 1_555
K2 Se25 3.435352 1_555
K3 Se33 3.346423 1_454
K3 Se53 3.353776 1_555
K3 Se10 3.376896 1_455
K3 Se39 3.484735 1_555
K3 Se23 3.663816 1_554
K3 Se67 3.720273 1_455
K3 Se24 3.885396 1_455
K4 Se56 3.291724 1_555
K4 Se35 3.390543 1_555
K4 Se40 3.427359 1_555
K4 Se83 3.465030 1_555
K4 Se11 3.664840 1_455
K4 Se69 3.704254 1_555
K5 Se51 3.430566 1_655
K5 Se68 3.463710 1_555
K5 Se34 3.519102 1_655
K5 Se46 3.531891 1_555
K5 Se9 3.604594 1_555
K5 Se44 3.716032 1_555
K5 Se16 3.835602 1_655
K5 Se61 3.920535 1_555
K6 Se30 3.184175 1_555
K6 Se47 3.193957 1_555
K6 Se49 3.342385 1_555
K6 Se26 3.454516 1_555
K6 Se43 3.482364 1_555
K7 Se32 3.360400 1_555
K7 Se78 3.391031 1_555
K7 Se66 3.426691 1_545
K7 Se52 3.458737 1_545
K7 Se8 3.468754 1_545
K7 Se5 3.655329 1_545
K7 Se84 3.703956 1_555
K7 Se20 3.826929 1_545
K8 Se28 3.234812 1_555
K8 Se77 3.241955 1_555
K8 Se0 3.253291 1_555
K8 Se83 3.327828 1_555
K8 Se54 3.376445 1_555
K8 Se22 3.405696 1_555
K8 Se65 3.485607 1_455
K9 Se77 3.271673 1_555
K9 Se58 3.288050 1_555
K9 Se48 3.339401 1_555
K9 Se61 3.832513 1_555
K10 Se62 3.329661 1_555
K10 Se59 3.390514 1_555
K10 Se49 3.533160 1_555
K10 Se15 3.552915 1_555
K10 Se19 3.831860 1_555
K10 Se21 3.875920 1_555
K11 Se13 3.358724 1_555
K11 Se17 3.476927 1_555
K11 Se60 3.571892 1_555
K11 Se38 3.586874 1_556
K11 Se78 3.611181 1_555
K12 Se24 3.105470 1_555
K12 Se39 3.254819 1_555
K12 Se42 3.606884 1_554
K12 Se27 3.610763 1_555
K13 Se34 3.446476 1_555
K13 Se29 3.474329 1_555
K13 Se77 3.477350 1_555
K13 Se51 3.496955 1_555
K13 Se48 3.610542 1_555
K13 Se61 3.783371 1_555
K13 Se68 3.902396 1_555
K14 Se62 3.291259 1_555
K14 Se56 3.320050 1_555
K14 Se26 3.341627 1_555
K14 Se11 3.346256 1_555
K14 Se49 3.635185 1_555
K15 Se1 3.087197 1_565
K15 Se64 3.487186 1_565
K15 Se63 3.626560 1_555
K15 Se3 3.770844 1_555
K16 Se5 3.460219 1_655
K16 Se48 3.518775 1_555
K16 Se52 3.573050 1_555
K16 Se71 3.601737 1_565
K16 Se85 3.668554 1_565
K16 Se66 3.801459 1_655
K16 Se68 3.951190 1_555
K17 Se65 3.262111 1_565
K17 Se40 3.304971 1_555
K17 Se19 3.386941 1_555
K17 Se31 3.387460 1_565
K17 Se81 3.424944 1_555
K17 Se62 3.541540 1_555
K17 Se54 3.576437 1_565
K17 Se72 3.765499 1_565
K18 Se11 3.258367 1_555
K18 Se56 3.286544 1_555
K18 Se81 3.500245 1_555
K18 Se74 3.624256 1_555
K18 Se72 3.743566 1_555
K19 Se15 3.286434 1_655
K19 Se1 3.353400 1_555
K19 Se10 3.401045 1_555
K19 Se43 3.502646 1_555
K19 Se64 3.619060 1_555
K19 Se73 3.739771 1_655
K20 Se41 3.127483 1_555
K20 Se75 3.292289 1_555
K20 Se80 3.498012 1_555
K20 Se71 3.631754 1_555
K20 Se68 3.704291 1_555
K20 Se9 3.789318 1_555
K20 Se25 3.806954 1_555
K21 Se2 3.172595 1_655
K21 Se25 3.276768 1_555
K21 Se71 3.431004 1_555
K21 Se48 3.489359 1_545
K22 Se47 3.243983 1_555
K22 Se59 3.280758 1_545
K22 Se0 3.297832 1_655
K22 Se72 3.462332 1_555
K22 Se83 3.557529 1_655
K23 Se18 3.236946 1_555
K23 Se30 3.386026 1_555
K23 Se76 3.399498 1_555
K23 Se38 3.512304 1_545
K23 Se70 3.559444 1_555
K23 Se53 3.579125 1_545
Hf0 Se30 2.472380 1_565
Hf0 Se53 2.540185 1_555
Hf0 Se12 2.625810 1_555
Hf0 Se7 2.650639 1_555
Hf0 Se67 2.762073 1_455
Hf1 Se13 2.493089 1_555
Hf1 Se8 2.638098 1_555
Hf1 Se52 2.662051 1_555
Hf1 Se66 2.681439 1_555
Hf1 Se51 2.727535 1_555
Hf1 Se9 2.943970 1_455
Hf2 Se40 2.593597 1_555
Hf2 Se14 2.602535 1_555
Hf2 Se6 2.604216 1_555
Hf2 Se54 2.624315 1_565
Hf2 Se69 2.692493 1_555
Hf3 Se18 2.443099 1_565
Hf3 Se50 2.601456 1_454
Hf3 Se53 2.644736 1_555
Hf3 Se38 2.690683 1_555
Hf3 Se63 2.693672 1_455
Hf4 Se69 2.513033 1_555
Hf4 Se36 2.545917 1_555
Hf4 Se54 2.547305 1_565
Hf4 Se19 2.564760 1_555
Hf5 Se66 2.513197 1_555
Hf5 Se51 2.564294 1_555
Hf5 Se44 2.626110 1_455
Hf5 Se2 2.691530 1_565
Hf5 Se37 2.837619 1_555
Hf5 Se20 3.576850 1_555
Hf6 Se2 2.493116 1_555
Hf6 Se86 2.635296 1_455
Hf6 Se37 2.678320 1_545
Hf6 Se34 2.699788 1_555
Hf6 Se29 2.710534 1_555
Hf6 Se41 2.798176 1_555
Hf7 Se26 2.414591 1_555
Hf7 Se28 2.520310 1_555
Hf7 Se72 2.571303 1_555
Hf7 Se36 2.612847 1_545
Hf8 Se47 2.545473 1_565
Hf8 Se76 2.605958 1_565
Hf8 Se59 2.662837 1_555
Hf8 Se87 2.727181 1_555
Hf8 Se12 2.781388 1_555
Hf8 Se55 2.789547 1_555
Hf9 Se1 2.434094 1_555
Hf9 Se45 2.521942 1_544
Hf9 Se24 2.566744 1_555
Hf9 Se60 2.646575 1_544
Hf10 Se35 2.632594 1_655
Hf10 Se43 2.675060 1_555
Hf10 Se21 2.697745 1_655
Hf10 Se47 2.733187 1_555
Hf10 Se87 2.795189 1_545
Hf10 Se76 2.807609 1_555
Hf10 Se64 2.908623 1_555
Hf11 Se86 2.490860 1_565
Hf11 Se31 2.495017 1_565
Hf11 Se46 2.684020 1_565
Hf11 Se81 2.745046 1_555
Hf11 Se14 2.793107 1_555
Hf12 Se85 2.619353 1_555
Hf12 Se24 2.663791 1_556
Hf12 Se45 2.665050 1_545
Hf12 Se33 2.706412 1_555
Hf12 Se32 2.749765 1_555
Hf12 Se42 2.902211 1_555
Hf13 Se72 2.579317 1_555
Hf13 Se83 2.608642 1_655
Hf13 Se16 2.656829 1_655
Hf13 Se65 2.667787 1_555
Hf13 Se31 2.699521 1_555
Hf13 Se74 2.816200 1_555
Hf14 Se33 2.536652 1_455
Hf14 Se85 2.561589 1_455
Hf14 Se84 2.625041 1_555
Hf14 Se23 2.633883 1_555
Hf14 Se17 2.661114 1_555
Hf15 Se43 2.552319 1_555
Hf15 Se70 2.565941 1_555
Hf15 Se79 2.592809 1_555
Hf15 Se49 2.607090 1_555
Hf15 Se55 2.797833 1_555
Se0 Se65 2.425366 1_455
Se0 Se83 2.514548 1_555
Se3 Se87 2.398697 1_555
Se3 Se64 2.463250 1_565
Se4 Se81 2.482109 1_555
Se5 Se8 2.429377 1_555
Se5 Se57 2.437812 1_455
Se7 Se73 2.828431 1_555
Se10 Se73 2.346254 1_655
Se10 Se67 2.423947 1_555
Se11 Se4 2.392919 1_555
Se11 Se74 2.604476 1_555
Se14 Se58 2.966288 1_555
Se15 Se82 2.292499 1_555
Se16 Se22 2.443343 1_555
Se17 Se84 2.412427 1_555
Se17 Se75 2.962006 1_455
Se19 Se40 2.428879 1_555
Se20 Se52 2.418879 1_555
Se20 Se71 2.424089 1_565
Se21 Se35 2.399934 1_555
Se22 Se77 2.378094 1_555
Se23 Se78 2.479213 1_555
Se25 Se46 2.423484 1_555
Se25 Se41 2.700757 1_555
Se27 Se39 2.316327 1_555
Se27 Se70 2.514737 1_555
Se28 Se56 2.417739 1_555
Se29 Se34 2.390440 1_555
Se29 Se41 2.662074 1_555
Se30 Se82 3.050837 1_555
Se32 Se71 2.474747 1_555
Se32 Se42 2.876361 1_555
Se37 Se58 2.476843 1_555
Se38 Se60 2.441937 1_554
Se40 Se56 2.984124 1_555
Se42 Se78 2.412343 1_555
Se44 Se61 2.446042 1_555
Se48 Se61 2.375458 1_555
Se49 Se62 2.366163 1_555
Se50 Se63 2.437587 1_556
Se50 Se57 2.937957 1_555
Se55 Se59 2.467309 1_555
Se55 Se79 2.844908 1_555
Se57 Se80 2.408033 1_555
Se58 Se6 2.429543 1_555
Se61 Se68 3.111670 1_555
Se63 Se67 2.898073 1_555
Se64 Se82 2.552759 1_655
Se68 Se9 2.355136 1_555
Se73 Se79 2.519234 1_455
Se75 Se80 2.342386 1_555
Se75 Se9 2.627108 1_555
