# generated using pymatgen
data_VFe7N4
_symmetry_space_group_name_H-M   'P 1'
_cell_length_a   9.80419857
_cell_length_b   9.80419857
_cell_length_c   9.80419857
_cell_angle_alpha   90.00000000
_cell_angle_beta   90.00000000
_cell_angle_gamma   90.00000000
_symmetry_Int_Tables_number   1
_chemical_formula_structural   VFe7N4
_chemical_formula_sum   'V8 Fe56 N32'
_cell_volume   942.40221033
_cell_formula_units_Z   8
loop_
 _symmetry_equiv_pos_site_id
 _symmetry_equiv_pos_as_xyz
  1  'x, y, z'
loop_
 _atom_site_type_symbol
 _atom_site_label
 _atom_site_symmetry_multiplicity
 _atom_site_fract_x
 _atom_site_fract_y
 _atom_site_fract_z
 _atom_site_occupancy
  V  V0  1  0.50000000  0.50000000  0.50000000  1
  V  V1  1  -0.00000000  -0.00000000  -0.00000000  1
  V  V2  1  0.50000000  -0.00000000  0.25000000  1
  V  V3  1  -0.00000000  0.75000000  0.50000000  1
  V  V4  1  0.25000000  0.50000000  -0.00000000  1
  V  V5  1  -0.00000000  0.25000000  0.50000000  1
  V  V6  1  0.75000000  0.50000000  -0.00000000  1
  V  V7  1  0.50000000  -0.00000000  0.75000000  1
  Fe  Fe0  1  -0.00000000  -0.00000000  0.50000000  1
  Fe  Fe1  1  -0.00000000  0.50000000  -0.00000000  1
  Fe  Fe2  1  0.50000000  -0.00000000  -0.00000000  1
  Fe  Fe3  1  0.50000000  -0.00000000  0.50000000  1
  Fe  Fe4  1  0.50000000  0.50000000  -0.00000000  1
  Fe  Fe5  1  -0.00000000  0.50000000  0.50000000  1
  Fe  Fe6  1  -0.00000000  0.50000000  0.25000000  1
  Fe  Fe7  1  0.50000000  0.75000000  -0.00000000  1
  Fe  Fe8  1  0.25000000  -0.00000000  0.50000000  1
  Fe  Fe9  1  0.50000000  0.25000000  -0.00000000  1
  Fe  Fe10  1  0.75000000  -0.00000000  0.50000000  1
  Fe  Fe11  1  -0.00000000  0.50000000  0.75000000  1
  Fe  Fe12  1  0.29119618  0.70880382  0.29119618  1
  Fe  Fe13  1  0.70880382  0.29119618  0.29119618  1
  Fe  Fe14  1  0.29119618  0.29119618  0.70880382  1
  Fe  Fe15  1  0.70880382  0.70880382  0.70880382  1
  Fe  Fe16  1  0.79119618  0.79119618  0.20880382  1
  Fe  Fe17  1  0.20880382  0.79119618  0.79119618  1
  Fe  Fe18  1  0.79119618  0.20880382  0.79119618  1
  Fe  Fe19  1  0.20880382  0.20880382  0.20880382  1
  Fe  Fe20  1  0.50000000  0.50000000  0.24936964  1
  Fe  Fe21  1  0.50000000  0.75063036  0.50000000  1
  Fe  Fe22  1  0.24936964  0.50000000  0.50000000  1
  Fe  Fe23  1  0.50000000  0.24936964  0.50000000  1
  Fe  Fe24  1  0.75063036  0.50000000  0.50000000  1
  Fe  Fe25  1  0.50000000  0.50000000  0.75063036  1
  Fe  Fe26  1  -0.00000000  0.74936964  -0.00000000  1
  Fe  Fe27  1  -0.00000000  -0.00000000  0.25063036  1
  Fe  Fe28  1  0.74936964  -0.00000000  -0.00000000  1
  Fe  Fe29  1  -0.00000000  -0.00000000  0.74936964  1
  Fe  Fe30  1  0.25063036  -0.00000000  -0.00000000  1
  Fe  Fe31  1  -0.00000000  0.25063036  -0.00000000  1
  Fe  Fe32  1  0.55184332  0.74153141  0.24033335  1
  Fe  Fe33  1  0.25846859  0.75966665  0.55184332  1
  Fe  Fe34  1  0.24033335  0.44815668  0.25846859  1
  Fe  Fe35  1  0.44815668  0.25846859  0.24033335  1
  Fe  Fe36  1  0.74153141  0.24033335  0.55184332  1
  Fe  Fe37  1  0.75966665  0.55184332  0.25846859  1
  Fe  Fe38  1  0.55184332  0.25846859  0.75966665  1
  Fe  Fe39  1  0.25846859  0.24033335  0.44815668  1
  Fe  Fe40  1  0.24033335  0.55184332  0.74153141  1
  Fe  Fe41  1  0.44815668  0.74153141  0.75966665  1
  Fe  Fe42  1  0.74153141  0.75966665  0.44815668  1
  Fe  Fe43  1  0.75966665  0.44815668  0.74153141  1
  Fe  Fe44  1  0.05184332  0.74033335  0.24153141  1
  Fe  Fe45  1  0.75846859  0.05184332  0.25966665  1
  Fe  Fe46  1  0.74033335  0.75846859  0.94815668  1
  Fe  Fe47  1  0.94815668  0.74033335  0.75846859  1
  Fe  Fe48  1  0.24153141  0.05184332  0.74033335  1
  Fe  Fe49  1  0.25966665  0.75846859  0.05184332  1
  Fe  Fe50  1  0.05184332  0.25966665  0.75846859  1
  Fe  Fe51  1  0.75846859  0.94815668  0.74033335  1
  Fe  Fe52  1  0.74033335  0.24153141  0.05184332  1
  Fe  Fe53  1  0.94815668  0.25966665  0.24153141  1
  Fe  Fe54  1  0.24153141  0.94815668  0.25966665  1
  Fe  Fe55  1  0.25966665  0.24153141  0.94815668  1
  N  N0  1  0.39399482  0.60600518  0.39399482  1
  N  N1  1  0.60600518  0.39399482  0.39399482  1
  N  N2  1  0.39399482  0.39399482  0.60600518  1
  N  N3  1  0.60600518  0.60600518  0.60600518  1
  N  N4  1  0.89399482  0.89399482  0.10600518  1
  N  N5  1  0.10600518  0.89399482  0.89399482  1
  N  N6  1  0.89399482  0.10600518  0.89399482  1
  N  N7  1  0.10600518  0.10600518  0.10600518  1
  N  N8  1  0.39440515  0.83606848  0.17275964  1
  N  N9  1  0.16393152  0.82724036  0.39440515  1
  N  N10  1  0.17275964  0.60559485  0.16393152  1
  N  N11  1  0.60559485  0.16393152  0.17275964  1
  N  N12  1  0.83606848  0.17275964  0.39440515  1
  N  N13  1  0.82724036  0.39440515  0.16393152  1
  N  N14  1  0.39440515  0.16393152  0.82724036  1
  N  N15  1  0.16393152  0.17275964  0.60559485  1
  N  N16  1  0.17275964  0.39440515  0.83606848  1
  N  N17  1  0.60559485  0.83606848  0.82724036  1
  N  N18  1  0.83606848  0.82724036  0.60559485  1
  N  N19  1  0.82724036  0.60559485  0.83606848  1
  N  N20  1  0.89440515  0.67275964  0.33606848  1
  N  N21  1  0.66393152  0.89440515  0.32724036  1
  N  N22  1  0.67275964  0.66393152  0.10559485  1
  N  N23  1  0.10559485  0.67275964  0.66393152  1
  N  N24  1  0.33606848  0.89440515  0.67275964  1
  N  N25  1  0.32724036  0.66393152  0.89440515  1
  N  N26  1  0.89440515  0.32724036  0.66393152  1
  N  N27  1  0.66393152  0.10559485  0.67275964  1
  N  N28  1  0.67275964  0.33606848  0.89440515  1
  N  N29  1  0.10559485  0.32724036  0.33606848  1
  N  N30  1  0.33606848  0.10559485  0.32724036  1
  N  N31  1  0.32724036  0.33606848  0.10559485  1
loop_
_geom_bond_atom_site_label_1
_geom_bond_atom_site_label_2
_geom_bond_distance
_geom_bond_site_symmetry_2
Fe0 Fe27 2.444869 1_555
Fe0 Fe29 2.444869 1_555
Fe0 Fe10 2.451050 1_455
Fe0 V3 2.451050 1_545
Fe0 V5 2.451050 1_555
Fe0 Fe8 2.451050 1_555
Fe0 N12 2.554172 1_455
Fe0 N15 2.554172 1_555
Fe0 N18 2.554172 1_445
Fe0 N9 2.554172 1_545
Fe1 Fe31 2.444869 1_555
Fe1 Fe26 2.444869 1_555
Fe1 Fe6 2.451050 1_555
Fe1 V4 2.451050 1_555
Fe1 V6 2.451050 1_455
Fe1 Fe11 2.451050 1_554
Fe1 N16 2.554172 1_554
Fe1 N19 2.554172 1_454
Fe1 N10 2.554172 1_555
Fe1 N13 2.554172 1_455
Fe2 Fe30 2.444869 1_555
Fe2 Fe28 2.444869 1_555
Fe2 V7 2.451050 1_554
Fe2 Fe7 2.451050 1_545
Fe2 V2 2.451050 1_555
Fe2 Fe9 2.451050 1_555
Fe2 N11 2.554172 1_555
Fe2 N17 2.554172 1_544
Fe2 N8 2.554172 1_545
Fe2 N14 2.554172 1_554
Fe3 V2 2.451050 1_555
Fe3 V7 2.451050 1_555
Fe3 Fe8 2.451050 1_555
Fe3 N27 2.554172 1_555
Fe3 N24 2.554172 1_545
Fe3 N21 2.554172 1_545
Fe3 N30 2.554172 1_555
Fe4 Fe9 2.451050 1_555
Fe4 V6 2.451050 1_555
Fe4 Fe7 2.451050 1_555
Fe4 V4 2.451050 1_555
Fe4 N22 2.554172 1_555
Fe4 N28 2.554172 1_554
Fe4 N25 2.554172 1_554
Fe4 N31 2.554172 1_555
Fe5 V3 2.451050 1_555
Fe5 Fe6 2.451050 1_555
Fe5 V5 2.451050 1_555
Fe5 N20 2.554172 1_455
Fe5 N29 2.554172 1_555
Fe5 N23 2.554172 1_555
Fe5 N26 2.554172 1_455
Fe6 N20 2.157012 1_455
Fe6 N10 2.157012 1_555
Fe6 N29 2.157012 1_555
Fe6 N13 2.157012 1_455
Fe7 N8 2.157012 1_555
Fe7 N22 2.157012 1_555
Fe7 N25 2.157012 1_554
Fe7 N17 2.157012 1_554
Fe8 N9 2.157012 1_545
Fe8 N30 2.157012 1_555
Fe8 N15 2.157012 1_555
Fe8 N24 2.157012 1_545
Fe9 N14 2.157012 1_554
Fe9 N11 2.157012 1_555
Fe9 N28 2.157012 1_554
Fe9 N31 2.157012 1_555
Fe10 N12 2.157012 1_555
Fe10 N21 2.157012 1_545
Fe10 N27 2.157012 1_555
Fe10 N18 2.157012 1_545
Fe10 Fe3 2.451050 1_555
Fe11 N16 2.157012 1_555
Fe11 N23 2.157012 1_555
Fe11 N19 2.157012 1_455
Fe11 N26 2.157012 1_455
Fe11 Fe5 2.451050 1_555
Fe12 N0 1.745662 1_555
Fe12 N8 1.982185 1_555
Fe12 N9 1.982185 1_555
Fe12 N10 1.982185 1_555
Fe13 N1 1.745662 1_555
Fe13 N11 1.982185 1_555
Fe13 N13 1.982185 1_555
Fe13 N12 1.982185 1_555
Fe14 N2 1.745662 1_555
Fe14 N16 1.982185 1_555
Fe14 N14 1.982185 1_555
Fe14 N15 1.982185 1_555
Fe15 N3 1.745662 1_555
Fe15 N18 1.982185 1_555
Fe15 N19 1.982185 1_555
Fe15 N17 1.982185 1_555
Fe16 N4 1.745662 1_555
Fe16 N20 1.982185 1_555
Fe16 N21 1.982185 1_555
Fe16 N22 1.982185 1_555
Fe17 N5 1.745662 1_555
Fe17 N24 1.982185 1_555
Fe17 N25 1.982185 1_555
Fe17 N23 1.982185 1_555
Fe18 N6 1.745662 1_555
Fe18 N28 1.982185 1_555
Fe18 N26 1.982185 1_555
Fe18 N27 1.982185 1_555
Fe19 N7 1.745662 1_555
Fe19 N30 1.982185 1_555
Fe19 N31 1.982185 1_555
Fe19 N29 1.982185 1_555
Fe20 N1 2.042256 1_555
Fe20 N0 2.042256 1_555
Fe20 Fe4 2.444869 1_555
Fe21 N3 2.042256 1_555
Fe21 N0 2.042256 1_555
Fe21 Fe3 2.444869 1_565
Fe22 N2 2.042256 1_555
Fe22 N0 2.042256 1_555
Fe22 Fe5 2.444869 1_555
Fe23 N1 2.042256 1_555
Fe23 N2 2.042256 1_555
Fe23 Fe3 2.444869 1_555
Fe24 N3 2.042256 1_555
Fe24 N1 2.042256 1_555
Fe24 Fe5 2.444869 1_655
Fe25 N3 2.042256 1_555
Fe25 N2 2.042256 1_555
Fe25 Fe4 2.444869 1_556
Fe26 N4 2.042256 1_455
Fe26 N5 2.042256 1_554
Fe27 N7 2.042256 1_555
Fe27 N4 2.042256 1_445
Fe28 N4 2.042256 1_545
Fe28 N6 2.042256 1_554
Fe29 N6 2.042256 1_455
Fe29 N5 2.042256 1_545
Fe30 N7 2.042256 1_555
Fe30 N5 2.042256 1_544
Fe31 N7 2.042256 1_555
Fe31 N6 2.042256 1_454
Fe32 N8 1.918475 1_555
Fe32 N22 1.931128 1_555
Fe32 N21 2.044522 1_555
Fe33 N9 1.918475 1_555
Fe33 N24 1.931128 1_555
Fe33 N23 2.044522 1_555
Fe34 N10 1.918475 1_555
Fe34 N29 1.931128 1_555
Fe34 N31 2.044522 1_555
Fe35 N11 1.918475 1_555
Fe35 N31 1.931128 1_555
Fe35 N30 2.044522 1_555
Fe36 N12 1.918475 1_555
Fe36 N27 1.931128 1_555
Fe36 N26 2.044522 1_555
Fe37 N13 1.918475 1_555
Fe37 N20 1.931128 1_555
Fe37 N22 2.044522 1_555
Fe38 N14 1.918475 1_555
Fe38 N28 1.931128 1_555
Fe38 N27 2.044522 1_555
Fe39 N15 1.918475 1_555
Fe39 N30 1.931128 1_555
Fe39 N29 2.044522 1_555
Fe40 N16 1.918475 1_555
Fe40 N23 1.931128 1_555
Fe40 N25 2.044522 1_555
Fe41 N17 1.918475 1_555
Fe41 N25 1.931128 1_555
Fe41 N24 2.044522 1_555
Fe42 N18 1.918475 1_555
Fe42 N21 1.931128 1_555
Fe42 N20 2.044522 1_555
Fe43 N19 1.918475 1_555
Fe43 N26 1.931128 1_555
Fe43 N28 2.044522 1_555
Fe44 N20 1.918475 1_455
Fe44 N10 1.931128 1_555
Fe44 N9 2.044522 1_555
Fe45 N21 1.918475 1_545
Fe45 N12 1.931128 1_555
Fe45 N11 2.044522 1_555
Fe46 N22 1.918475 1_556
Fe46 N17 1.931128 1_555
Fe46 N19 2.044522 1_555
Fe47 N23 1.918475 1_655
Fe47 N19 1.931128 1_555
Fe47 N18 2.044522 1_555
Fe48 N24 1.918475 1_545
Fe48 N15 1.931128 1_555
Fe48 N14 2.044522 1_555
Fe49 N25 1.918475 1_554
Fe49 N8 1.931128 1_555
Fe49 N10 2.044522 1_555
Fe50 N26 1.918475 1_455
Fe50 N16 1.931128 1_555
Fe50 N15 2.044522 1_555
Fe51 N27 1.918475 1_565
Fe51 N18 1.931128 1_555
Fe51 N17 2.044522 1_555
Fe52 N28 1.918475 1_554
Fe52 N11 1.931128 1_555
Fe52 N13 2.044522 1_555
Fe53 N29 1.918475 1_655
Fe53 N13 1.931128 1_555
Fe53 N12 2.044522 1_555
Fe54 N30 1.918475 1_565
Fe54 N9 1.931128 1_555
Fe54 N8 2.044522 1_555
Fe55 N31 1.918475 1_556
Fe55 N14 1.931128 1_555
Fe55 N16 2.044522 1_555
N0 V0 1.800113 1_555
N1 V0 1.800113 1_555
N2 V0 1.800113 1_555
N3 V0 1.800113 1_555
N4 V1 1.800113 1_665
N5 V1 1.800113 1_566
N6 V1 1.800113 1_656
N7 V1 1.800113 1_555
N8 V2 2.056310 1_565
N9 V3 2.056310 1_555
N10 V4 2.056310 1_555
N11 V2 2.056310 1_555
N12 V5 2.056310 1_655
N13 V6 2.056310 1_555
N14 V7 2.056310 1_555
N15 V5 2.056310 1_555
N16 V4 2.056310 1_556
N17 V7 2.056310 1_565
N18 V3 2.056310 1_655
N19 V6 2.056310 1_556
N20 V3 2.056310 1_655
N21 V2 2.056310 1_565
N22 V6 2.056310 1_555
N23 V3 2.056310 1_555
N24 V7 2.056310 1_565
N25 V4 2.056310 1_556
N26 V5 2.056310 1_655
N27 V7 2.056310 1_555
N28 V6 2.056310 1_556
N29 V5 2.056310 1_555
N30 V2 2.056310 1_555
N31 V4 2.056310 1_555
