# generated using pymatgen
data_NaAlGeO4
_symmetry_space_group_name_H-M   'P 1'
_cell_length_a   2.87938200
_cell_length_b   8.96252500
_cell_length_c   10.48789200
_cell_angle_alpha   90.00000000
_cell_angle_beta   90.00000000
_cell_angle_gamma   90.00000000
_symmetry_Int_Tables_number   1
_chemical_formula_structural   NaAlGeO4
_chemical_formula_sum   'Na4 Al4 Ge4 O16'
_cell_volume   270.65613267
_cell_formula_units_Z   4
loop_
 _symmetry_equiv_pos_site_id
 _symmetry_equiv_pos_as_xyz
  1  'x, y, z'
loop_
 _atom_site_type_symbol
 _atom_site_label
 _atom_site_symmetry_multiplicity
 _atom_site_fract_x
 _atom_site_fract_y
 _atom_site_fract_z
 _atom_site_occupancy
  Na  Na0  1  0.50000000  0.25689200  0.90059200  1
  Na  Na1  1  0.50000000  0.75689200  0.09940800  1
  Na  Na2  1  0.00000000  0.74056700  0.59183900  1
  Na  Na3  1  0.00000000  0.24056700  0.40816100  1
  Al  Al0  1  0.50000000  0.43464500  0.13864300  1
  Al  Al1  1  0.50000000  0.93464500  0.86135700  1
  Al  Al2  1  0.50000000  0.42182600  0.64711800  1
  Al  Al3  1  0.50000000  0.92182600  0.35288200  1
  Ge  Ge0  1  0.00000000  0.55785700  0.36219900  1
  Ge  Ge1  1  0.00000000  0.05785700  0.63780100  1
  Ge  Ge2  1  0.00000000  0.58450600  0.85138700  1
  Ge  Ge3  1  0.00000000  0.08450600  0.14861300  1
  O  O0  1  0.50000000  0.11962100  0.26693300  1
  O  O1  1  0.50000000  0.61962100  0.73306700  1
  O  O2  1  0.00000000  0.89128100  0.23538100  1
  O  O3  1  0.00000000  0.39128100  0.76461900  1
  O  O4  1  0.50000000  0.42097600  0.32579800  1
  O  O5  1  0.50000000  0.92097600  0.67420200  1
  O  O6  1  0.00000000  0.56997200  0.17889200  1
  O  O7  1  0.00000000  0.06997200  0.82110800  1
  O  O8  1  0.50000000  0.02600200  0.03559000  1
  O  O9  1  0.50000000  0.52600200  0.96441000  1
  O  O10  1  0.00000000  0.97857800  0.46455700  1
  O  O11  1  0.00000000  0.47857800  0.53544300  1
  O  O12  1  0.50000000  0.20184500  0.60271700  1
  O  O13  1  0.50000000  0.70184500  0.39728300  1
  O  O14  1  0.00000000  0.79543300  0.89983900  1
  O  O15  1  0.00000000  0.29543300  0.10016100  1
loop_
_geom_bond_atom_site_label_1
_geom_bond_atom_site_label_2
_geom_bond_distance
_geom_bond_site_symmetry_2
Na0 O3 2.357355 1_555
Na0 O3 2.357355 1_655
Na0 O7 2.360970 1_655
Na0 O7 2.360970 1_555
Na0 O9 2.503052 1_555
Na0 O8 2.507360 1_556
Na0 O15 2.563771 1_656
Na0 O15 2.563771 1_556
Na1 O2 2.357355 1_655
Na1 O2 2.357355 1_555
Na1 O6 2.360970 1_555
Na1 O6 2.360970 1_655
Na1 O8 2.503052 1_565
Na1 O9 2.507360 1_554
Na1 O14 2.563771 1_654
Na1 O14 2.563771 1_554
Na2 O5 2.330947 1_455
Na2 O5 2.330947 1_555
Na2 O1 2.332731 1_555
Na2 O1 2.332731 1_455
Na2 O11 2.421433 1_555
Na2 O10 2.516439 1_555
Na2 O13 2.521254 1_455
Na2 O13 2.521254 1_555
Na3 O4 2.330947 1_455
Na3 O4 2.330947 1_555
Na3 O0 2.332731 1_455
Na3 O0 2.332731 1_555
Na3 O10 2.421433 1_545
Na3 O11 2.516439 1_555
Na3 O12 2.521254 1_455
Na3 O12 2.521254 1_555
Al0 O6 1.929238 1_555
Al0 O6 1.929238 1_655
Al0 O15 1.947391 1_555
Al0 O15 1.947391 1_655
Al0 O4 1.966681 1_555
Al0 O9 2.002393 1_554
Al1 O7 1.929238 1_565
Al1 O7 1.929238 1_665
Al1 O14 1.947391 1_555
Al1 O14 1.947391 1_655
Al1 O5 1.966681 1_555
Al1 O8 2.002393 1_566
Al2 O3 1.914761 1_555
Al2 O3 1.914761 1_655
Al2 O11 1.924375 1_655
Al2 O11 1.924375 1_555
Al2 O1 1.988764 1_555
Al2 O12 2.025833 1_555
Al3 O2 1.914761 1_555
Al3 O2 1.914761 1_655
Al3 O10 1.924375 1_555
Al3 O10 1.924375 1_655
Al3 O0 1.988764 1_565
Al3 O13 2.025833 1_555
Ge0 O6 1.925568 1_555
Ge0 O4 1.929636 1_455
Ge0 O4 1.929636 1_555
Ge0 O11 1.950955 1_555
Ge0 O13 1.968117 1_455
Ge0 O13 1.968117 1_555
Ge1 O7 1.925568 1_555
Ge1 O5 1.929636 1_545
Ge1 O5 1.929636 1_445
Ge1 O10 1.950955 1_545
Ge1 O12 1.968117 1_555
Ge1 O12 1.968117 1_455
Ge2 O1 1.926567 1_555
Ge2 O1 1.926567 1_455
Ge2 O9 1.937203 1_455
Ge2 O9 1.937203 1_555
Ge2 O3 1.956323 1_555
Ge2 O14 1.957545 1_555
Ge3 O0 1.926567 1_555
Ge3 O0 1.926567 1_455
Ge3 O8 1.937203 1_455
Ge3 O8 1.937203 1_555
Ge3 O2 1.956323 1_545
Ge3 O15 1.957545 1_555
