# generated using pymatgen
data_UAlCo
_symmetry_space_group_name_H-M   'P 1'
_cell_length_a   4.03584900
_cell_length_b   6.56299937
_cell_length_c   6.56299937
_cell_angle_alpha   119.99999367
_cell_angle_beta   90.00000000
_cell_angle_gamma   90.00000000
_symmetry_Int_Tables_number   1
_chemical_formula_structural   UAlCo
_chemical_formula_sum   'U3 Al3 Co3'
_cell_volume   150.54637191
_cell_formula_units_Z   3
loop_
 _symmetry_equiv_pos_site_id
 _symmetry_equiv_pos_as_xyz
  1  'x, y, z'
loop_
 _atom_site_type_symbol
 _atom_site_label
 _atom_site_symmetry_multiplicity
 _atom_site_fract_x
 _atom_site_fract_y
 _atom_site_fract_z
 _atom_site_occupancy
  U  U0  1  0.50000000  0.57646500  0.57646500  1
  U  U1  1  0.50000000  0.00000000  0.42353500  1
  U  U2  1  0.50000000  0.42353500  0.00000000  1
  Al  Al0  1  0.00000000  0.23567400  0.23567400  1
  Al  Al1  1  0.00000000  0.00000000  0.76432600  1
  Al  Al2  1  0.00000000  0.76432600  0.00000000  1
  Co  Co0  1  0.00000000  0.66666700  0.33333300  1
  Co  Co1  1  0.00000000  0.33333300  0.66666700  1
  Co  Co2  1  0.50000000  0.00000000  0.00000000  1
loop_
_geom_bond_atom_site_label_1
_geom_bond_atom_site_label_2
_geom_bond_distance
_geom_bond_site_symmetry_2
Al0 Co2 2.542516 1_555
Al0 Co2 2.542516 1_455
Al0 Co0 2.568825 1_555
Al0 Co1 2.568825 1_555
Al0 Al2 2.679012 1_545
Al0 Al1 2.679012 1_554
Al0 U0 3.012383 1_555
Al0 U0 3.012383 1_455
Al0 U2 3.145078 1_555
Al0 U1 3.145078 1_455
Al0 U2 3.145078 1_455
Al0 U1 3.145078 1_555
Al1 Co2 2.542516 1_556
Al1 Co2 2.542516 1_456
Al1 Co1 2.568818 1_555
Al1 Co0 2.568823 1_545
Al1 Al2 2.679012 1_546
Al1 U1 3.012383 1_455
Al1 U1 3.012383 1_555
Al1 U0 3.145079 1_545
Al1 U0 3.145079 1_445
Al1 U2 3.145079 1_456
Al1 U2 3.145079 1_556
Al2 Co2 2.542516 1_465
Al2 Co2 2.542516 1_565
Al2 Co0 2.568818 1_555
Al2 Co1 2.568823 1_554
Al2 U2 3.012383 1_555
Al2 U2 3.012383 1_455
Al2 U0 3.145079 1_554
Al2 U0 3.145079 1_454
Al2 U1 3.145079 1_565
Al2 U1 3.145079 1_465
Co0 U1 2.813053 1_465
Co0 U1 2.813053 1_565
Co0 U2 2.813054 1_455
Co0 U2 2.813054 1_555
Co0 U0 2.813057 1_555
Co0 U0 2.813057 1_455
Co1 U2 2.813053 1_556
Co1 U2 2.813053 1_456
Co1 U1 2.813054 1_555
Co1 U1 2.813054 1_455
Co1 U0 2.813057 1_555
Co1 U0 2.813057 1_455
Co2 U2 2.779660 1_555
Co2 U1 2.779660 1_555
Co2 U0 2.779660 1_544
