# generated using pymatgen
data_Sr4GeN4
_symmetry_space_group_name_H-M   'P 1'
_cell_length_a   6.88677432
_cell_length_b   6.76663730
_cell_length_c   8.57643771
_cell_angle_alpha   74.15569271
_cell_angle_beta   82.30194549
_cell_angle_gamma   60.70788692
_symmetry_Int_Tables_number   1
_chemical_formula_structural   Sr4GeN4
_chemical_formula_sum   'Sr8 Ge2 N8'
_cell_volume   335.31923831
_cell_formula_units_Z   2
loop_
 _symmetry_equiv_pos_site_id
 _symmetry_equiv_pos_as_xyz
  1  'x, y, z'
loop_
 _atom_site_type_symbol
 _atom_site_label
 _atom_site_symmetry_multiplicity
 _atom_site_fract_x
 _atom_site_fract_y
 _atom_site_fract_z
 _atom_site_occupancy
  Sr  Sr0  1  0.79470400  0.61746000  0.13323200  1
  Sr  Sr1  1  0.20529600  0.38254000  0.86676800  1
  Sr  Sr2  1  0.72592200  0.23734600  0.94381700  1
  Sr  Sr3  1  0.27407800  0.76265400  0.05618300  1
  Sr  Sr4  1  0.72654400  0.53571700  0.55658500  1
  Sr  Sr5  1  0.27345600  0.46428300  0.44341500  1
  Sr  Sr6  1  0.20700100  0.91227000  0.63292000  1
  Sr  Sr7  1  0.79299900  0.08773000  0.36708000  1
  Ge  Ge0  1  0.74795000  0.87580300  0.74994400  1
  Ge  Ge1  1  0.25205000  0.12419700  0.25005600  1
  N  N0  1  0.96027000  0.72319300  0.59159600  1
  N  N1  1  0.03973000  0.27680700  0.40840400  1
  N  N2  1  0.96011600  0.81767900  0.90777300  1
  N  N3  1  0.03988400  0.18232100  0.09222700  1
  N  N4  1  0.58028100  0.71122800  0.83999000  1
  N  N5  1  0.41971900  0.28877200  0.16001000  1
  N  N6  1  0.42291200  0.79276900  0.33963800  1
  N  N7  1  0.57708800  0.20723100  0.66036200  1
loop_
_geom_bond_atom_site_label_1
_geom_bond_atom_site_label_2
_geom_bond_distance
_geom_bond_site_symmetry_2
Ge0 N4 1.928639 1_555
Ge0 N7 1.929632 1_565
Ge0 N2 1.949027 1_555
Ge0 N0 1.950642 1_555
Ge1 N5 1.928639 1_555
Ge1 N6 1.929632 1_545
Ge1 N3 1.949027 1_555
Ge1 N1 1.950642 1_555
N0 Sr5 2.473922 1_655
N0 Sr7 2.517830 1_565
N0 Sr4 2.574082 1_555
N0 Sr6 2.680660 1_655
N0 Sr1 2.832078 1_655
N1 Sr4 2.473922 1_455
N1 Sr6 2.517830 1_545
N1 Sr5 2.574082 1_555
N1 Sr7 2.680660 1_455
N1 Sr0 2.832078 1_455
N2 Sr3 2.474777 1_656
N2 Sr0 2.522245 1_556
N2 Sr2 2.573908 1_565
N2 Sr1 2.680636 1_655
N2 Sr6 2.832746 1_655
N3 Sr2 2.474777 1_454
N3 Sr1 2.522245 1_554
N3 Sr3 2.573908 1_545
N3 Sr0 2.680636 1_455
N3 Sr7 2.832746 1_455
N4 Sr3 2.567610 1_556
N4 Sr2 2.759369 1_555
N4 Sr4 2.843000 1_555
N4 Sr6 2.845146 1_555
N4 Sr0 2.848690 1_556
N5 Sr2 2.567610 1_554
N5 Sr3 2.759369 1_555
N5 Sr5 2.843000 1_555
N5 Sr7 2.845146 1_555
N5 Sr1 2.848690 1_554
N6 Sr4 2.564367 1_555
N6 Sr5 2.775815 1_555
N6 Sr0 2.838495 1_555
N6 Sr6 2.850216 1_555
N6 Sr3 2.853857 1_555
N7 Sr5 2.564367 1_555
N7 Sr4 2.775815 1_555
N7 Sr1 2.838495 1_555
N7 Sr7 2.850216 1_555
N7 Sr2 2.853857 1_555
