# generated using pymatgen
data_CsBaMg6
_symmetry_space_group_name_H-M   'P 1'
_cell_length_a   5.45715000
_cell_length_b   7.67308300
_cell_length_c   12.63933500
_cell_angle_alpha   90.00000000
_cell_angle_beta   90.00000000
_cell_angle_gamma   90.00000000
_symmetry_Int_Tables_number   1
_chemical_formula_structural   CsBaMg6
_chemical_formula_sum   'Cs2 Ba2 Mg12'
_cell_volume   529.24895860
_cell_formula_units_Z   2
loop_
 _symmetry_equiv_pos_site_id
 _symmetry_equiv_pos_as_xyz
  1  'x, y, z'
loop_
 _atom_site_type_symbol
 _atom_site_label
 _atom_site_symmetry_multiplicity
 _atom_site_fract_x
 _atom_site_fract_y
 _atom_site_fract_z
 _atom_site_occupancy
  Cs  Cs0  1  0.00000000  0.50000000  0.34405000  1
  Cs  Cs1  1  0.00000000  0.00000000  0.84405000  1
  Ba  Ba0  1  0.50000000  0.50000000  0.15838900  1
  Ba  Ba1  1  0.50000000  0.00000000  0.65838900  1
  Mg  Mg0  1  0.00000000  0.78319600  0.08694500  1
  Mg  Mg1  1  0.00000000  0.21680400  0.08694500  1
  Mg  Mg2  1  0.00000000  0.50000000  0.83172500  1
  Mg  Mg3  1  0.50000000  0.70158400  0.91264900  1
  Mg  Mg4  1  0.50000000  0.29841600  0.91264900  1
  Mg  Mg5  1  0.50000000  0.50000000  0.66664800  1
  Mg  Mg6  1  0.00000000  0.28319600  0.58694500  1
  Mg  Mg7  1  0.00000000  0.71680400  0.58694500  1
  Mg  Mg8  1  0.00000000  0.00000000  0.33172500  1
  Mg  Mg9  1  0.50000000  0.20158400  0.41264900  1
  Mg  Mg10  1  0.50000000  0.79841600  0.41264900  1
  Mg  Mg11  1  0.50000000  0.00000000  0.16664800  1
loop_
_geom_bond_atom_site_label_1
_geom_bond_atom_site_label_2
_geom_bond_distance
_geom_bond_site_symmetry_2
Cs0 Mg6 3.491777 1_555
Cs0 Mg7 3.491777 1_555
Cs0 Mg10 3.666052 1_455
Cs0 Mg10 3.666052 1_555
Cs0 Mg9 3.666052 1_455
Cs0 Mg9 3.666052 1_555
Cs0 Mg8 3.839703 1_555
Cs0 Mg8 3.839703 1_565
Cs0 Mg1 3.909221 1_555
Cs0 Mg0 3.909221 1_555
Cs1 Mg0 3.491777 1_546
Cs1 Mg1 3.491777 1_556
Cs1 Mg4 3.666052 1_455
Cs1 Mg4 3.666052 1_555
Cs1 Mg3 3.666052 1_445
Cs1 Mg3 3.666052 1_545
Cs1 Mg2 3.839703 1_545
Cs1 Mg2 3.839703 1_555
Cs1 Mg6 3.909221 1_555
Cs1 Mg7 3.909221 1_545
Ba0 Mg3 3.469823 1_554
Ba0 Mg4 3.469823 1_554
Ba0 Cs0 3.598861 1_655
Ba0 Cs0 3.598861 1_555
Ba0 Mg0 3.603111 1_555
Ba0 Mg1 3.603111 1_655
Ba0 Mg1 3.603111 1_555
Ba0 Mg0 3.603111 1_655
Ba0 Mg11 3.837961 1_555
Ba0 Mg11 3.837961 1_565
Ba0 Mg10 3.945982 1_555
Ba0 Mg9 3.945982 1_555
Ba1 Mg9 3.469823 1_555
Ba1 Mg10 3.469823 1_545
Ba1 Cs1 3.598861 1_555
Ba1 Cs1 3.598861 1_655
Ba1 Mg6 3.603111 1_555
Ba1 Mg6 3.603111 1_655
Ba1 Mg7 3.603111 1_545
Ba1 Mg7 3.603111 1_645
Ba1 Mg5 3.837961 1_555
Ba1 Mg5 3.837961 1_545
Ba1 Mg4 3.945982 1_555
Ba1 Mg3 3.945982 1_545
Mg0 Mg1 3.327110 1_565
Mg0 Mg11 3.350728 1_565
Mg0 Mg11 3.350728 1_465
Mg0 Mg8 3.512743 1_565
Mg0 Mg3 3.562361 1_454
Mg0 Mg3 3.562361 1_554
Mg1 Mg11 3.350728 1_455
Mg1 Mg11 3.350728 1_555
Mg1 Mg8 3.512743 1_555
Mg1 Mg4 3.562361 1_454
Mg1 Mg4 3.562361 1_554
Mg2 Mg3 3.299059 1_455
Mg2 Mg3 3.299059 1_555
Mg2 Mg4 3.299059 1_555
Mg2 Mg4 3.299059 1_455
Mg2 Mg5 3.434887 1_455
Mg2 Mg5 3.434887 1_555
Mg2 Mg6 3.512743 1_555
Mg2 Mg7 3.512743 1_555
Mg3 Mg4 3.093542 1_555
Mg3 Mg5 3.472777 1_555
Mg4 Mg5 3.472777 1_555
Mg5 Mg7 3.350728 1_555
Mg5 Mg7 3.350728 1_655
Mg5 Mg6 3.350728 1_555
Mg5 Mg6 3.350728 1_655
Mg6 Mg7 3.327110 1_555
Mg6 Mg9 3.562361 1_455
Mg6 Mg9 3.562361 1_555
Mg8 Mg9 3.299059 1_555
Mg8 Mg9 3.299059 1_455
Mg10 Mg9 3.093542 1_565
Mg10 Mg8 3.299059 1_665
Mg10 Mg8 3.299059 1_565
Mg10 Mg11 3.472777 1_565
Mg10 Mg7 3.562361 1_555
Mg10 Mg7 3.562361 1_655
Mg11 Mg8 3.434887 1_655
Mg11 Mg8 3.434887 1_555
Mg11 Mg9 3.472777 1_555
