# generated using pymatgen
data_Cs2CoCl4
_symmetry_space_group_name_H-M   'P 1'
_cell_length_a   7.37622009
_cell_length_b   9.82313553
_cell_length_c   12.94976419
_cell_angle_alpha   90.00000000
_cell_angle_beta   90.00000000
_cell_angle_gamma   90.00000000
_symmetry_Int_Tables_number   1
_chemical_formula_structural   Cs2CoCl4
_chemical_formula_sum   'Cs8 Co4 Cl16'
_cell_volume   938.30895865
_cell_formula_units_Z   4
loop_
 _symmetry_equiv_pos_site_id
 _symmetry_equiv_pos_as_xyz
  1  'x, y, z'
loop_
 _atom_site_type_symbol
 _atom_site_label
 _atom_site_symmetry_multiplicity
 _atom_site_fract_x
 _atom_site_fract_y
 _atom_site_fract_z
 _atom_site_occupancy
  Cs  Cs0  1  0.25000000  0.86054819  0.59788793  1
  Cs  Cs1  1  0.25000000  0.36054819  0.90211207  1
  Cs  Cs2  1  0.75000000  0.13945181  0.40211207  1
  Cs  Cs3  1  0.75000000  0.63945181  0.09788793  1
  Cs  Cs4  1  0.25000000  0.52094521  0.32608362  1
  Cs  Cs5  1  0.25000000  0.02094521  0.17391638  1
  Cs  Cs6  1  0.75000000  0.47905479  0.67391638  1
  Cs  Cs7  1  0.75000000  0.97905479  0.82608362  1
  Co  Co0  1  0.25000000  0.26512777  0.57788040  1
  Co  Co1  1  0.25000000  0.76512777  0.92211960  1
  Co  Co2  1  0.75000000  0.73487223  0.42211960  1
  Co  Co3  1  0.75000000  0.23487223  0.07788040  1
  Cl  Cl0  1  0.25000000  0.49314679  0.59881491  1
  Cl  Cl1  1  0.25000000  0.99314679  0.90118509  1
  Cl  Cl2  1  0.75000000  0.50685321  0.40118509  1
  Cl  Cl3  1  0.75000000  0.00685321  0.09881491  1
  Cl  Cl4  1  0.25000000  0.18801281  0.41371273  1
  Cl  Cl5  1  0.25000000  0.68801281  0.08628727  1
  Cl  Cl6  1  0.75000000  0.81198719  0.58628727  1
  Cl  Cl7  1  0.75000000  0.31198719  0.91371273  1
  Cl  Cl8  1  0.49844360  0.17671927  0.65242478  1
  Cl  Cl9  1  0.00155640  0.67671927  0.84757522  1
  Cl  Cl10  1  -0.00155640  0.82328073  0.34757522  1
  Cl  Cl11  1  0.50155640  0.32328073  0.15242478  1
  Cl  Cl12  1  0.50155640  0.82328073  0.34757522  1
  Cl  Cl13  1  -0.00155640  0.32328073  0.15242478  1
  Cl  Cl14  1  0.00155640  0.17671927  0.65242478  1
  Cl  Cl15  1  0.49844360  0.67671927  0.84757522  1
loop_
_geom_bond_atom_site_label_1
_geom_bond_atom_site_label_2
_geom_bond_distance
_geom_bond_site_symmetry_2
Cl0 Co0 2.256208 1_555
Cl0 Cs4 3.542347 1_555
Cl0 Cs0 3.609054 1_555
Cl0 Cs6 3.816695 1_555
Cl0 Cs6 3.816695 1_455
Cl1 Co1 2.256208 1_555
Cl1 Cs5 3.542347 1_566
Cl1 Cs1 3.609054 1_565
Cl1 Cs7 3.816695 1_555
Cl1 Cs7 3.816695 1_455
Cl2 Co2 2.256208 1_555
Cl2 Cs6 3.542347 1_555
Cl2 Cs2 3.609054 1_555
Cl2 Cs4 3.816695 1_655
Cl2 Cs4 3.816695 1_555
Cl3 Co3 2.256208 1_555
Cl3 Cs7 3.542347 1_544
Cl3 Cs3 3.609054 1_545
Cl3 Cs5 3.816695 1_655
Cl3 Cs5 3.816695 1_555
Cl4 Co0 2.256859 1_555
Cl4 Cs4 3.461719 1_555
Cl4 Cs5 3.512296 1_555
Cl4 Cs2 3.721864 1_555
Cl4 Cs2 3.721864 1_455
Cl5 Co1 2.256859 1_554
Cl5 Cs5 3.461719 1_565
Cl5 Cs4 3.512296 1_555
Cl5 Cs3 3.721864 1_555
Cl5 Cs3 3.721864 1_455
Cl6 Co2 2.256859 1_555
Cl6 Cs6 3.461719 1_555
Cl6 Cs7 3.512296 1_555
Cl6 Cs0 3.721864 1_655
Cl6 Cs0 3.721864 1_555
Cl7 Co3 2.256859 1_556
Cl7 Cs7 3.461719 1_545
Cl7 Cs6 3.512296 1_555
Cl7 Cs1 3.721864 1_655
Cl7 Cs1 3.721864 1_555
Cl8 Co0 2.245974 1_555
Cl8 Cs7 3.502919 1_545
Cl8 Cs6 3.512929 1_555
Cl8 Cs0 3.674649 1_545
Cl8 Cs2 3.752904 1_555
Cl9 Co1 2.245974 1_555
Cl9 Cs6 3.502919 1_455
Cl9 Cs7 3.512929 1_455
Cl9 Cs1 3.674649 1_555
Cl9 Cs3 3.752904 1_456
Cl10 Co2 2.245974 1_455
Cl10 Cs5 3.502919 1_565
Cl10 Cs4 3.512929 1_555
Cl10 Cs2 3.674649 1_465
Cl10 Cs0 3.752904 1_555
Cl11 Co3 2.245974 1_555
Cl11 Cs4 3.502919 1_555
Cl11 Cs5 3.512929 1_555
Cl11 Cs3 3.674649 1_555
Cl11 Cs1 3.752904 1_554
Cl12 Co2 2.245974 1_555
Cl12 Cs5 3.502919 1_565
Cl12 Cs4 3.512929 1_555
Cl12 Cs2 3.674649 1_565
Cl12 Cs0 3.752904 1_555
Cl13 Co3 2.245974 1_455
Cl13 Cs4 3.502919 1_555
Cl13 Cs5 3.512929 1_555
Cl13 Cs3 3.674649 1_455
Cl13 Cs1 3.752904 1_554
Cl14 Co0 2.245974 1_555
Cl14 Cs7 3.502919 1_445
Cl14 Cs6 3.512929 1_455
Cl14 Cs0 3.674649 1_545
Cl14 Cs2 3.752904 1_455
Cl15 Co1 2.245974 1_555
Cl15 Cs6 3.502919 1_555
Cl15 Cs7 3.512929 1_555
Cl15 Cs1 3.674649 1_555
Cl15 Cs3 3.752904 1_556
