# generated using pymatgen
data_HoTiFe8Co3
_symmetry_space_group_name_H-M   'P 1'
_cell_length_a   4.72343700
_cell_length_b   6.41270667
_cell_length_c   6.41270667
_cell_angle_alpha   97.43020685
_cell_angle_beta   111.61003488
_cell_angle_gamma   68.38996512
_symmetry_Int_Tables_number   1
_chemical_formula_structural   HoTiFe8Co3
_chemical_formula_sum   'Ho1 Ti1 Fe8 Co3'
_cell_volume   167.89051013
_cell_formula_units_Z   1
loop_
 _symmetry_equiv_pos_site_id
 _symmetry_equiv_pos_as_xyz
  1  'x, y, z'
loop_
 _atom_site_type_symbol
 _atom_site_label
 _atom_site_symmetry_multiplicity
 _atom_site_fract_x
 _atom_site_fract_y
 _atom_site_fract_z
 _atom_site_occupancy
  Ho  Ho0  1  0.00523000  0.99477000  0.00523000  1
  Ti  Ti0  1  0.62563900  0.37436100  0.62563900  1
  Fe  Fe0  1  0.72944200  0.77055800  0.22944200  1
  Fe  Fe1  1  0.27893000  0.22107000  0.77893000  1
  Fe  Fe2  1  0.49963500  0.78076000  0.78003000  1
  Fe  Fe3  1  0.49963500  0.21997000  0.21924100  1
  Fe  Fe4  1  0.50201800  0.99699000  0.50010300  1
  Fe  Fe5  1  0.00109500  0.99699000  0.50010300  1
  Fe  Fe6  1  0.50201800  0.49989700  0.00301000  1
  Fe  Fe7  1  0.00109500  0.49989700  0.00301000  1
  Co  Co0  1  0.35061400  0.64938600  0.35061400  1
  Co  Co1  1  0.00232400  0.35654000  0.36118800  1
  Co  Co2  1  0.00232400  0.63881200  0.64346000  1
loop_
_geom_bond_atom_site_label_1
_geom_bond_atom_site_label_2
_geom_bond_distance
_geom_bond_site_symmetry_2
Ho0 Ti0 3.188804 1_464
Fe0 Fe7 2.418164 1_655
Fe0 Fe5 2.418164 1_655
Fe0 Fe6 2.418164 1_555
Fe0 Fe4 2.418164 1_555
Fe0 Fe3 2.679627 1_565
Fe0 Fe2 2.679627 1_554
Fe0 Ho0 3.020823 1_555
Fe0 Ho0 3.020823 1_655
Fe1 Fe7 2.445458 1_556
Fe1 Fe5 2.445458 1_545
Fe1 Fe6 2.445458 1_556
Fe1 Fe4 2.445458 1_545
Fe1 Fe2 2.625075 1_545
Fe1 Fe3 2.625081 1_556
Fe1 Ti0 2.689980 1_455
Fe1 Ti0 2.689980 1_555
Fe1 Ho0 3.031791 1_646
Fe1 Ho0 3.031791 1_546
Fe2 Fe5 2.411502 1_555
Fe2 Fe4 2.411502 1_555
Fe2 Fe7 2.434746 1_656
Fe2 Fe6 2.434747 1_556
Fe2 Ti0 2.598173 1_555
Fe2 Ho0 3.005562 1_656
Fe2 Ho0 3.005562 1_556
Fe3 Fe7 2.411504 1_555
Fe3 Fe6 2.411506 1_555
Fe3 Fe4 2.434742 1_545
Fe3 Fe5 2.434744 1_645
Fe3 Ti0 2.598168 1_555
Fe3 Ho0 3.005562 1_545
Fe3 Ho0 3.005566 1_645
Fe4 Fe5 2.357359 1_655
Fe4 Fe5 2.366078 1_555
Fe4 Ti0 2.652546 1_565
Fe4 Ho0 3.178883 1_555
Fe4 Ho0 3.233933 1_656
Fe5 Ti0 2.652546 1_465
Fe5 Ho0 3.178883 1_555
Fe5 Ho0 3.233933 1_556
Fe6 Fe7 2.357359 1_655
Fe6 Fe7 2.366078 1_555
Fe6 Ti0 2.652546 1_554
Fe6 Ho0 3.178883 1_555
Fe6 Ho0 3.233933 1_645
Fe7 Ti0 2.652546 1_454
Fe7 Ho0 3.178883 1_555
Fe7 Ho0 3.233933 1_545
Co0 Ti0 2.310384 1_555
Co0 Fe7 2.552600 1_555
Co0 Fe5 2.552600 1_555
Co0 Fe6 2.552600 1_555
Co0 Fe4 2.552600 1_555
Co0 Fe0 2.571746 1_455
Co0 Fe0 2.571746 1_555
Co0 Fe3 2.682765 1_555
Co0 Fe2 2.682766 1_555
Co0 Ho0 2.901444 1_555
Co1 Co2 2.388657 1_555
Co1 Fe6 2.579386 1_455
Co1 Fe7 2.579387 1_555
Co1 Fe4 2.579669 1_545
Co1 Fe5 2.579669 1_545
Co1 Fe0 2.584847 1_455
Co1 Fe1 2.612631 1_555
Co1 Fe3 2.639495 1_555
Co1 Fe3 2.639500 1_455
Co1 Ti0 2.842054 1_555
Co1 Ti0 2.842055 1_455
Co1 Ho0 3.036896 1_545
Co2 Fe4 2.579386 1_455
Co2 Fe5 2.579387 1_555
Co2 Fe6 2.579669 1_556
Co2 Fe7 2.579669 1_556
Co2 Fe0 2.584847 1_455
Co2 Fe1 2.612631 1_555
Co2 Fe2 2.639499 1_455
Co2 Fe2 2.639499 1_555
Co2 Ti0 2.842054 1_555
Co2 Ti0 2.842055 1_455
Co2 Ho0 3.036896 1_556
