# generated using pymatgen
data_Mg14NbZn
_symmetry_space_group_name_H-M   'P 1'
_cell_length_a   6.32261304
_cell_length_b   6.28171938
_cell_length_c   10.00008579
_cell_angle_alpha   90.00000000
_cell_angle_beta   90.00000000
_cell_angle_gamma   119.78628041
_symmetry_Int_Tables_number   1
_chemical_formula_structural   Mg14NbZn
_chemical_formula_sum   'Mg14 Nb1 Zn1'
_cell_volume   344.69958212
_cell_formula_units_Z   1
loop_
 _symmetry_equiv_pos_site_id
 _symmetry_equiv_pos_as_xyz
  1  'x, y, z'
loop_
 _atom_site_type_symbol
 _atom_site_label
 _atom_site_symmetry_multiplicity
 _atom_site_fract_x
 _atom_site_fract_y
 _atom_site_fract_z
 _atom_site_occupancy
  Mg  Mg0  1  0.16693217  0.33346559  0.62500000  1
  Mg  Mg1  1  0.16683288  0.83341594  0.62500000  1
  Mg  Mg2  1  0.66501000  0.33597180  0.12500000  1
  Mg  Mg3  1  0.66595925  0.33306380  0.62500000  1
  Mg  Mg4  1  0.66501000  0.82903721  0.12500000  1
  Mg  Mg5  1  0.66595925  0.83289445  0.62500000  1
  Mg  Mg6  1  0.32764942  0.16064916  0.36663132  1
  Mg  Mg7  1  0.32764942  0.16064916  0.88336868  1
  Mg  Mg8  1  0.32764942  0.66700127  0.36663132  1
  Mg  Mg9  1  0.32764942  0.66700127  0.88336868  1
  Mg  Mg10  1  0.83769327  0.16884714  0.36968537  1
  Mg  Mg11  1  0.83769327  0.16884714  0.88031463  1
  Mg  Mg12  1  0.84240579  0.67120340  0.37110685  1
  Mg  Mg13  1  0.84240579  0.67120340  0.87889315  1
  Nb  Nb0  1  0.16352979  0.83176440  0.12500000  1
  Zn  Zn0  1  0.16997083  0.33498491  0.12500000  1
loop_
_geom_bond_atom_site_label_1
_geom_bond_atom_site_label_2
_geom_bond_distance
_geom_bond_site_symmetry_2
Mg0 Mg11 3.127713 1_455
Mg0 Mg10 3.127713 1_455
Mg0 Mg1 3.140860 1_555
Mg0 Mg1 3.140860 1_545
Mg0 Mg5 3.156409 1_555
Mg0 Mg3 3.156410 1_555
Mg0 Mg7 3.159525 1_555
Mg0 Mg6 3.159525 1_555
Mg0 Mg9 3.159531 1_555
Mg0 Mg8 3.159531 1_555
Mg0 Mg5 3.166205 1_445
Mg0 Mg3 3.166205 1_455
Mg1 Mg13 3.100886 1_455
Mg1 Mg12 3.100886 1_455
Mg1 Mg8 3.139782 1_555
Mg1 Mg9 3.139782 1_555
Mg1 Mg7 3.139788 1_565
Mg1 Mg6 3.139788 1_565
Mg1 Mg3 3.157411 1_565
Mg1 Mg5 3.157412 1_555
Mg1 Mg3 3.165204 1_455
Mg1 Mg5 3.165204 1_455
Mg2 Mg6 3.044231 1_555
Mg2 Mg7 3.044231 1_554
Mg2 Mg4 3.097299 1_555
Mg2 Zn0 3.126866 1_555
Mg2 Nb0 3.143472 1_655
Mg2 Nb0 3.179210 1_545
Mg2 Mg4 3.184421 1_545
Mg2 Zn0 3.195756 1_655
Mg3 Mg5 3.139796 1_555
Mg3 Mg5 3.141923 1_545
Mg3 Mg6 3.181543 1_555
Mg3 Mg7 3.181543 1_555
Mg4 Mg9 3.044231 1_554
Mg4 Mg8 3.044231 1_555
Mg4 Zn0 3.126866 1_555
Mg4 Nb0 3.143473 1_655
Mg4 Nb0 3.179210 1_555
Mg4 Zn0 3.195756 1_665
Mg5 Mg9 3.181543 1_555
Mg5 Mg8 3.181543 1_555
Mg6 Nb0 3.008938 1_545
Mg6 Zn0 3.019368 1_555
Mg6 Mg8 3.100958 1_545
Mg6 Mg8 3.180762 1_555
Mg7 Nb0 3.008938 1_546
Mg7 Zn0 3.019368 1_556
Mg7 Mg9 3.100958 1_545
Mg7 Mg9 3.180762 1_555
Mg8 Nb0 3.008931 1_555
Mg8 Zn0 3.019375 1_555
Mg9 Nb0 3.008931 1_556
Mg9 Zn0 3.019375 1_556
Mg10 Zn0 3.051498 1_655
Mg10 Mg2 3.069233 1_555
Mg10 Mg4 3.069239 1_545
Mg10 Mg8 3.123854 1_655
Mg10 Mg6 3.123854 1_655
Mg10 Mg12 3.140998 1_555
Mg10 Mg12 3.140998 1_545
Mg10 Mg3 3.142388 1_555
Mg10 Mg5 3.142394 1_545
Mg10 Mg8 3.199685 1_545
Mg10 Mg6 3.199686 1_555
Mg11 Zn0 3.051498 1_656
Mg11 Mg2 3.069233 1_556
Mg11 Mg4 3.069239 1_546
Mg11 Mg9 3.123854 1_655
Mg11 Mg7 3.123854 1_655
Mg11 Mg13 3.140998 1_555
Mg11 Mg13 3.140998 1_545
Mg11 Mg3 3.142388 1_555
Mg11 Mg5 3.142394 1_545
Mg11 Mg9 3.199685 1_545
Mg11 Mg7 3.199686 1_555
Mg12 Nb0 3.026874 1_655
Mg12 Mg4 3.066400 1_555
Mg12 Mg2 3.066407 1_555
Mg12 Mg6 3.081531 1_665
Mg12 Mg8 3.081531 1_655
Mg12 Mg5 3.138197 1_555
Mg12 Mg3 3.138204 1_555
Mg12 Mg6 3.241882 1_555
Mg12 Mg8 3.241882 1_555
Mg13 Nb0 3.026874 1_656
Mg13 Mg4 3.066400 1_556
Mg13 Mg2 3.066407 1_556
Mg13 Mg7 3.081531 1_665
Mg13 Mg9 3.081531 1_655
Mg13 Mg5 3.138197 1_555
Mg13 Mg3 3.138204 1_555
Mg13 Mg7 3.241882 1_555
Mg13 Mg9 3.241882 1_555
Nb0 Zn0 3.141058 1_565
Nb0 Zn0 3.141059 1_555
