# generated using pymatgen
data_Sr2Ca14Mn14Al2O43
_symmetry_space_group_name_H-M   'P 1'
_cell_length_a   10.95846678
_cell_length_b   15.33625195
_cell_length_c   10.88640824
_cell_angle_alpha   90.21940814
_cell_angle_beta   91.59416741
_cell_angle_gamma   89.98324683
_symmetry_Int_Tables_number   1
_chemical_formula_structural   Sr2Ca14Mn14Al2O43
_chemical_formula_sum   'Sr4 Ca28 Mn28 Al4 O86'
_cell_volume   1828.86786723
_cell_formula_units_Z   2
loop_
 _symmetry_equiv_pos_site_id
 _symmetry_equiv_pos_as_xyz
  1  'x, y, z'
loop_
 _atom_site_type_symbol
 _atom_site_label
 _atom_site_symmetry_multiplicity
 _atom_site_fract_x
 _atom_site_fract_y
 _atom_site_fract_z
 _atom_site_occupancy
  Sr  Sr0  1  0.99921037  0.11808911  0.50232441  1
  Sr  Sr1  1  0.50521700  0.36413889  0.99658508  1
  Sr  Sr2  1  0.24369057  0.37333047  0.25098859  1
  Sr  Sr3  1  0.25511138  0.12691103  0.23419981  1
  Ca  Ca0  1  0.00592700  0.11349487  0.00754399  1
  Ca  Ca1  1  0.00827938  0.62426818  0.50501655  1
  Ca  Ca2  1  0.01244652  0.62110474  0.99516843  1
  Ca  Ca3  1  0.53646347  0.12511916  0.49494391  1
  Ca  Ca4  1  0.53141430  0.12422305  0.99886924  1
  Ca  Ca5  1  0.52849970  0.63619345  0.48676408  1
  Ca  Ca6  1  0.54095168  0.63124584  0.98916969  1
  Ca  Ca7  1  0.51345303  0.36050371  0.49012986  1
  Ca  Ca8  1  0.50047658  0.88879625  0.98720514  1
  Ca  Ca9  1  0.48072297  0.87744906  0.51793766  1
  Ca  Ca10  1  0.96352308  0.38156349  0.00700316  1
  Ca  Ca11  1  0.95977884  0.38578556  0.50160170  1
  Ca  Ca12  1  0.96976767  0.88153875  0.00027476  1
  Ca  Ca13  1  0.97042200  0.87165488  0.50651157  1
  Ca  Ca14  1  0.23163791  0.39299088  0.76235767  1
  Ca  Ca15  1  0.23579133  0.89103817  0.25896798  1
  Ca  Ca16  1  0.22673802  0.87337009  0.74603989  1
  Ca  Ca17  1  0.74321415  0.36134150  0.24789255  1
  Ca  Ca18  1  0.74956643  0.36258157  0.75325696  1
  Ca  Ca19  1  0.75519494  0.88494681  0.25310498  1
  Ca  Ca20  1  0.72613407  0.87992646  0.74140574  1
  Ca  Ca21  1  0.26390117  0.11492671  0.76558508  1
  Ca  Ca22  1  0.23316271  0.61897574  0.26550919  1
  Ca  Ca23  1  0.22874239  0.63648480  0.72577172  1
  Ca  Ca24  1  0.76255165  0.12035282  0.25643137  1
  Ca  Ca25  1  0.77789652  0.12154426  0.75714744  1
  Ca  Ca26  1  0.78427231  0.62352955  0.25384720  1
  Ca  Ca27  1  0.77685758  0.62554290  0.75782478  1
  Mn  Mn0  1  0.00355250  0.00193183  0.25181466  1
  Mn  Mn1  1  0.99980559  0.99614841  0.75272436  1
  Mn  Mn2  1  0.99557805  0.49312445  0.25512968  1
  Mn  Mn3  1  0.99291786  0.49741147  0.75366801  1
  Mn  Mn4  1  0.49538482  0.00416652  0.74714830  1
  Mn  Mn5  1  0.51265674  0.49172342  0.23640904  1
  Mn  Mn6  1  0.50429612  0.48882261  0.72978357  1
  Mn  Mn7  1  0.25370754  0.99682270  0.00136653  1
  Mn  Mn8  1  0.24056089  0.50213539  0.01595421  1
  Mn  Mn9  1  0.24206500  0.49629539  0.51616022  1
  Mn  Mn10  1  0.75146223  0.99981019  0.99683719  1
  Mn  Mn11  1  0.74480296  0.99788586  0.49997496  1
  Mn  Mn12  1  0.74847966  0.50325223  0.99876972  1
  Mn  Mn13  1  0.74201701  0.50399914  0.49756041  1
  Mn  Mn14  1  0.25512074  0.24319904  0.48511693  1
  Mn  Mn15  1  0.26894483  0.73608614  0.97098058  1
  Mn  Mn16  1  0.24952397  0.75432765  0.48784964  1
  Mn  Mn17  1  0.76243528  0.24514087  0.00512828  1
  Mn  Mn18  1  0.75257862  0.24891983  0.50471846  1
  Mn  Mn19  1  0.75104962  0.75261807  0.99772139  1
  Mn  Mn20  1  0.75064289  0.74827531  0.50346353  1
  Mn  Mn21  1  0.00829402  0.25020324  0.76452175  1
  Mn  Mn22  1  0.99573321  0.75323197  0.25858018  1
  Mn  Mn23  1  0.99226806  0.75230643  0.75028661  1
  Mn  Mn24  1  0.50164954  0.24195534  0.24747507  1
  Mn  Mn25  1  0.51081325  0.24223712  0.75281620  1
  Mn  Mn26  1  0.51890549  0.76586549  0.25873920  1
  Mn  Mn27  1  0.49928317  0.75049648  0.74493473  1
  Al  Al0  1  0.51420948  0.99822015  0.23155780  1
  Al  Al1  1  0.22718912  0.99676094  0.51985001  1
  Al  Al2  1  0.27499489  0.25138658  0.97268236  1
  Al  Al3  1  0.98246971  0.24878407  0.27216343  1
  O  O0  1  0.10098806  0.76489738  0.61216493  1
  O  O1  1  0.61872896  0.25886101  0.11862357  1
  O  O2  1  0.61547837  0.26588680  0.61358111  1
  O  O3  1  0.58972230  0.76662777  0.09853999  1
  O  O4  1  0.59608766  0.75996604  0.59811245  1
  O  O5  1  0.40390236  0.22733039  0.39611654  1
  O  O6  1  0.40858357  0.22508472  0.88974808  1
  O  O7  1  0.40110363  0.71012852  0.34940983  1
  O  O8  1  0.39572616  0.69277400  0.86454372  1
  O  O9  1  0.88246459  0.23717574  0.39683362  1
  O  O10  1  0.90441118  0.23307421  0.90771685  1
  O  O11  1  0.89341668  0.73284430  0.40696012  1
  O  O12  1  0.89294759  0.73183177  0.90031339  1
  O  O13  1  0.13350991  0.24205808  0.35364192  1
  O  O14  1  0.17784145  0.25077285  0.81375119  1
  O  O15  1  0.15809068  0.74941926  0.32886424  1
  O  O16  1  0.13103173  0.73276039  0.86144396  1
  O  O17  1  0.64293741  0.22818653  0.36098974  1
  O  O18  1  0.65999106  0.23039820  0.86250782  1
  O  O19  1  0.65389745  0.72122943  0.35133951  1
  O  O20  1  0.64078614  0.72489338  0.85119624  1
  O  O21  1  0.36225712  0.26134590  0.13465126  1
  O  O22  1  0.35517732  0.75822813  0.63661717  1
  O  O23  1  0.87790234  0.27029335  0.14175483  1
  O  O24  1  0.87504686  0.27167781  0.63719441  1
  O  O25  1  0.86028410  0.77558881  0.14082698  1
  O  O26  1  0.84645089  0.77174433  0.65053925  1
  O  O27  1  0.35714883  0.50511849  0.16242348  1
  O  O28  1  0.34716915  0.51257313  0.66541774  1
  O  O29  1  0.36213023  0.98865842  0.14722733  1
  O  O30  1  0.35160275  0.98375581  0.63791077  1
  O  O31  1  0.84914817  0.48096626  0.15303229  1
  O  O32  1  0.84399361  0.47753972  0.64884619  1
  O  O33  1  0.86424997  0.97992902  0.13434825  1
  O  O34  1  0.85489742  0.98021180  0.64337272  1
  O  O35  1  0.15196167  0.01620281  0.36680359  1
  O  O36  1  0.14925666  0.00393684  0.85328912  1
  O  O37  1  0.15354509  0.49925460  0.36303409  1
  O  O38  1  0.15228731  0.52235547  0.86267158  1
  O  O39  1  0.62852714  0.01965654  0.36162425  1
  O  O40  1  0.64090244  0.02603728  0.85454017  1
  O  O41  1  0.63122406  0.53277007  0.34787330  1
  O  O42  1  0.62522563  0.52371743  0.84508196  1
  O  O43  1  0.39719687  0.02182906  0.89632136  1
  O  O44  1  0.87909972  0.00966437  0.38244064  1
  O  O45  1  0.89249943  0.01604892  0.89181209  1
  O  O46  1  0.89170191  0.51875907  0.40000446  1
  O  O47  1  0.89080700  0.51707711  0.89864674  1
  O  O48  1  0.09515845  0.47647601  0.11667167  1
  O  O49  1  0.09472749  0.47777910  0.61721611  1
  O  O50  1  0.11407983  0.98019605  0.10633222  1
  O  O51  1  0.09761488  0.97499950  0.61156848  1
  O  O52  1  0.59808153  0.49972637  0.08814710  1
  O  O53  1  0.58384886  0.49558470  0.57738123  1
  O  O54  1  0.61837902  0.98097134  0.10766142  1
  O  O55  1  0.60016026  0.98552248  0.60703307  1
  O  O56  1  -0.00000301  0.37185853  0.28820273  1
  O  O57  1  0.00785222  0.37512726  0.79588621  1
  O  O58  1  0.00928886  0.87762067  0.28394828  1
  O  O59  1  0.00537338  0.87399452  0.79157806  1
  O  O60  1  0.50290861  0.37213526  0.28144778  1
  O  O61  1  0.47402829  0.36937959  0.76591087  1
  O  O62  1  0.48297571  0.88705891  0.29244468  1
  O  O63  1  0.50503064  0.88035519  0.77734694  1
  O  O64  1  0.49102508  0.11911131  0.21956740  1
  O  O65  1  0.47656512  0.12813006  0.69784229  1
  O  O66  1  0.99417951  0.12852115  0.22400676  1
  O  O67  1  0.00288445  0.12485919  0.72897244  1
  O  O68  1  0.00527939  0.62699269  0.22047659  1
  O  O69  1  0.99028297  0.62426144  0.71619487  1
  O  O70  1  0.20751580  0.14996106  0.01621487  1
  O  O71  1  0.23696712  0.12692608  0.54114980  1
  O  O72  1  0.23435416  0.62959360  0.05023229  1
  O  O73  1  0.23352483  0.62457338  0.50599545  1
  O  O74  1  0.75318742  0.12201923  0.04150388  1
  O  O75  1  0.75184078  0.12428929  0.54005359  1
  O  O76  1  0.74866661  0.62960977  0.03784912  1
  O  O77  1  0.74242880  0.62572366  0.54450210  1
  O  O78  1  0.28669457  0.36662701  0.51476471  1
  O  O79  1  0.26559255  0.37569226  0.97896598  1
  O  O80  1  0.26810629  0.88093601  0.46817202  1
  O  O81  1  0.28907828  0.85453112  0.98147297  1
  O  O82  1  0.74021283  0.37797704  0.46290833  1
  O  O83  1  0.74857609  0.37456789  0.96898404  1
  O  O84  1  0.74730164  0.87199265  0.46563336  1
  O  O85  1  0.74894249  0.87630223  0.95553929  1
loop_
_geom_bond_atom_site_label_1
_geom_bond_atom_site_label_2
_geom_bond_distance
_geom_bond_site_symmetry_2
Ca0 O70 2.278274 1_555
Ca0 O45 2.294628 1_454
Ca0 O66 2.373917 1_455
Ca0 O10 2.393449 1_454
Ca0 O50 2.585526 1_545
Ca0 O74 2.807322 1_455
Ca1 O69 2.312877 1_455
Ca1 O11 2.331147 1_455
Ca1 O46 2.337311 1_455
Ca1 O73 2.468077 1_555
Ca1 O0 2.638241 1_555
Ca1 O49 2.718816 1_555
Ca2 O47 2.310135 1_455
Ca2 O12 2.366800 1_455
Ca2 O68 2.457550 1_556
Ca2 O72 2.491638 1_556
Ca2 O38 2.612924 1_555
Ca2 O16 2.620290 1_555
Ca2 O48 2.728657 1_556
Ca2 O76 2.943238 1_456
Ca2 O69 3.040543 1_455
Ca3 O65 2.322026 1_555
Ca3 O5 2.376877 1_555
Ca3 O75 2.397380 1_555
Ca3 O39 2.408908 1_555
Ca3 O17 2.469796 1_555
Ca3 O55 2.555658 1_545
Ca3 O2 2.644986 1_555
Ca4 O6 2.353638 1_555
Ca4 O43 2.402527 1_555
Ca4 O64 2.456667 1_556
Ca4 O74 2.461748 1_556
Ca4 O40 2.502294 1_555
Ca4 O1 2.605735 1_556
Ca4 O18 2.641341 1_555
Ca4 O54 2.663339 1_546
Ca5 O7 2.316574 1_555
Ca5 O4 2.356778 1_555
Ca5 O77 2.415645 1_555
Ca5 O19 2.427162 1_555
Ca5 O53 2.444056 1_555
Ca5 O41 2.478811 1_555
Ca6 O8 2.269938 1_555
Ca6 O76 2.322860 1_556
Ca6 O52 2.366368 1_556
Ca6 O20 2.371617 1_555
Ca6 O3 2.441396 1_556
Ca6 O42 2.468349 1_555
Ca7 O2 2.256585 1_555
Ca7 O60 2.279194 1_555
Ca7 O53 2.394598 1_555
Ca7 O78 2.508455 1_555
Ca7 O82 2.525179 1_555
Ca7 O5 2.564582 1_555
Ca7 O17 2.862728 1_555
Ca8 O63 2.289701 1_555
Ca8 O54 2.297796 1_556
Ca8 O81 2.374679 1_555
Ca8 O3 2.426165 1_556
Ca8 O43 2.524712 1_565
Ca8 O85 2.760550 1_555
Ca8 O29 2.793552 1_556
Ca8 O40 3.005457 1_565
Ca9 O55 2.306357 1_555
Ca9 O4 2.357048 1_555
Ca9 O80 2.378018 1_555
Ca9 O62 2.460602 1_555
Ca9 O30 2.539910 1_555
Ca9 O22 2.650200 1_555
Ca9 O63 2.829365 1_555
Ca9 O84 2.992862 1_555
Ca10 O48 2.348857 1_655
Ca10 O57 2.363956 1_654
Ca10 O83 2.382585 1_554
Ca10 O23 2.457855 1_555
Ca10 O47 2.512207 1_554
Ca10 O31 2.552132 1_555
Ca10 O10 2.591699 1_554
Ca11 O49 2.376046 1_655
Ca11 O56 2.385371 1_655
Ca11 O46 2.430869 1_555
Ca11 O82 2.434033 1_555
Ca11 O24 2.490088 1_555
Ca11 O32 2.500875 1_555
Ca11 O9 2.672173 1_555
Ca12 O59 2.318341 1_654
Ca12 O33 2.412538 1_555
Ca12 O50 2.451472 1_655
Ca12 O85 2.456382 1_554
Ca12 O45 2.515685 1_564
Ca12 O25 2.557974 1_555
Ca12 O12 2.663697 1_554
Ca13 O51 2.379391 1_655
Ca13 O0 2.443815 1_655
Ca13 O84 2.473022 1_555
Ca13 O58 2.473749 1_655
Ca13 O11 2.520131 1_555
Ca13 O34 2.584382 1_555
Ca13 O26 2.605762 1_555
Ca13 O44 2.692784 1_565
Ca14 O14 2.333706 1_555
Ca14 O79 2.392764 1_555
Ca14 O38 2.433123 1_555
Ca14 O28 2.484040 1_555
Ca14 O57 2.504647 1_555
Ca14 O49 2.514193 1_555
Ca14 O61 2.679923 1_555
Ca14 O78 2.806182 1_555
Ca15 O80 2.300895 1_555
Ca15 O29 2.397250 1_555
Ca15 O35 2.438946 1_565
Ca15 O15 2.463933 1_555
Ca15 O50 2.510519 1_555
Ca15 O58 2.513066 1_555
Ca15 O62 2.723799 1_555
Ca16 O36 2.475885 1_565
Ca16 O59 2.489439 1_555
Ca16 O30 2.496022 1_555
Ca16 O51 2.544690 1_555
Ca16 O22 2.567877 1_555
Ca16 O0 2.580988 1_555
Ca16 O81 2.650921 1_555
Ca16 O16 2.724685 1_555
Ca17 O23 2.354713 1_555
Ca17 O82 2.354779 1_555
Ca17 O31 2.421213 1_555
Ca17 O1 2.487772 1_555
Ca17 O17 2.643758 1_555
Ca17 O60 2.673638 1_555
Ca18 O24 2.347958 1_555
Ca18 O83 2.355300 1_555
Ca18 O32 2.356455 1_555
Ca18 O2 2.555396 1_555
Ca18 O18 2.563635 1_555
Ca18 O57 2.861852 1_655
Ca19 O33 2.307146 1_555
Ca19 O84 2.326948 1_555
Ca19 O25 2.386324 1_555
Ca19 O54 2.609234 1_555
Ca19 O44 2.712756 1_565
Ca19 O39 2.767931 1_565
Ca19 O58 2.797638 1_655
Ca19 O19 2.961136 1_555
Ca19 O62 3.025608 1_555
Ca19 O3 3.036598 1_555
Ca20 O85 2.338454 1_555
Ca20 O26 2.351235 1_555
Ca20 O34 2.364976 1_555
Ca20 O63 2.465069 1_555
Ca20 O55 2.563727 1_555
Ca20 O40 2.729848 1_565
Ca20 O4 2.775769 1_555
Ca20 O20 2.835786 1_555
Ca21 O36 2.338330 1_555
Ca21 O14 2.350061 1_555
Ca21 O71 2.460479 1_555
Ca21 O43 2.469114 1_555
Ca21 O65 2.472451 1_555
Ca21 O30 2.637067 1_545
Ca21 O6 2.657030 1_555
Ca21 O70 2.863101 1_556
Ca21 O67 2.881043 1_555
Ca22 O15 2.274773 1_555
Ca22 O37 2.308030 1_555
Ca22 O72 2.350263 1_555
Ca22 O7 2.464483 1_555
Ca22 O27 2.494579 1_555
Ca22 O68 2.534539 1_555
Ca22 O73 2.619003 1_555
Ca23 O16 2.361873 1_555
Ca23 O28 2.400761 1_555
Ca23 O73 2.400865 1_555
Ca23 O38 2.465160 1_555
Ca23 O8 2.492616 1_555
Ca23 O22 2.537309 1_555
Ca23 O69 2.619072 1_455
Ca23 O0 2.699757 1_555
Ca24 O74 2.339421 1_555
Ca24 O17 2.411656 1_555
Ca24 O39 2.441687 1_555
Ca24 O44 2.512720 1_555
Ca24 O66 2.575571 1_555
Ca24 O9 2.672372 1_555
Ca24 O33 2.775852 1_545
Ca24 O23 2.925015 1_555
Ca24 O64 2.991428 1_555
Ca24 O1 3.022882 1_555
Ca24 O54 3.085694 1_545
Ca24 O75 3.093476 1_555
Ca25 O40 2.371714 1_555
Ca25 O75 2.373191 1_555
Ca25 O18 2.416297 1_555
Ca25 O67 2.493539 1_655
Ca25 O45 2.501712 1_555
Ca25 O34 2.642114 1_545
Ca25 O10 2.718103 1_555
Ca25 O24 2.870877 1_555
Ca26 O19 2.341718 1_555
Ca26 O76 2.375044 1_555
Ca26 O41 2.430205 1_555
Ca26 O68 2.459587 1_655
Ca26 O46 2.532519 1_555
Ca26 O31 2.552329 1_555
Ca26 O11 2.624569 1_555
Ca26 O25 2.779593 1_555
Ca27 O77 2.342394 1_555
Ca27 O20 2.376848 1_555
Ca27 O69 2.394726 1_555
Ca27 O42 2.490542 1_555
Ca27 O12 2.560037 1_555
Ca27 O47 2.566789 1_555
Ca27 O26 2.654002 1_555
Ca27 O32 2.669793 1_555
Mn0 O58 1.940298 1_545
Mn0 O66 1.968224 1_455
Mn0 O33 1.991953 1_445
Mn0 O44 2.000697 1_455
Mn0 O35 2.035866 1_555
Mn0 O50 2.046696 1_545
Mn1 O59 1.922696 1_655
Mn1 O51 1.924331 1_655
Mn1 O36 1.947927 1_665
Mn1 O45 1.965688 1_565
Mn1 O34 1.972655 1_555
Mn1 O67 1.992203 1_665
Mn2 O56 1.895998 1_655
Mn2 O48 1.901685 1_655
Mn2 O31 1.935042 1_555
Mn2 O46 2.008151 1_555
Mn2 O37 2.066754 1_655
Mn2 O68 2.092097 1_655
Mn3 O49 1.905414 1_655
Mn3 O57 1.938379 1_655
Mn3 O47 1.982049 1_555
Mn3 O32 1.988073 1_555
Mn3 O69 1.989281 1_555
Mn3 O38 2.118059 1_655
Mn4 O63 1.930656 1_545
Mn4 O55 1.954656 1_545
Mn4 O30 1.971798 1_545
Mn4 O40 1.978841 1_555
Mn4 O65 1.986554 1_555
Mn4 O43 1.990491 1_555
Mn5 O41 1.861142 1_555
Mn5 O27 1.876080 1_555
Mn5 O52 1.892663 1_555
Mn5 O60 1.904052 1_555
Mn6 O42 1.876370 1_555
Mn6 O28 1.876957 1_555
Mn6 O53 1.898751 1_555
Mn6 O61 1.906136 1_555
Mn7 O50 1.952370 1_555
Mn7 O36 1.954307 1_564
Mn7 O29 1.960933 1_555
Mn7 O43 2.007758 1_564
Mn7 O81 2.227057 1_554
Mn7 O70 2.408128 1_565
Mn8 O38 1.931435 1_554
Mn8 O72 1.990126 1_555
Mn8 O48 1.999206 1_555
Mn8 O79 1.999399 1_554
Mn8 O27 2.015701 1_555
Mn9 O37 1.905909 1_555
Mn9 O73 1.972884 1_555
Mn9 O28 1.980424 1_555
Mn9 O49 1.999835 1_555
Mn9 O78 2.047846 1_555
Mn10 O74 1.934443 1_566
Mn10 O33 1.939576 1_556
Mn10 O54 1.940817 1_556
Mn10 O85 1.945124 1_555
Mn10 O45 1.964362 1_565
Mn10 O40 1.982286 1_565
Mn11 O84 1.965515 1_555
Mn11 O34 1.965777 1_555
Mn11 O39 1.974933 1_565
Mn11 O44 1.985542 1_565
Mn11 O75 1.986466 1_565
Mn11 O55 2.002840 1_555
Mn12 O52 1.937956 1_556
Mn12 O47 1.939637 1_555
Mn12 O76 1.982399 1_556
Mn12 O83 1.998776 1_555
Mn12 O31 2.013745 1_556
Mn12 O42 2.144798 1_555
Mn13 O77 1.933565 1_555
Mn13 O53 1.964892 1_555
Mn13 O82 1.967759 1_555
Mn13 O46 1.992180 1_555
Mn13 O32 2.007090 1_555
Mn13 O41 2.054104 1_555
Mn14 O71 1.899140 1_555
Mn14 O13 1.928366 1_555
Mn14 O5 1.934452 1_555
Mn14 O78 1.948470 1_555
Mn15 O81 1.832662 1_555
Mn15 O72 1.893339 1_556
Mn15 O16 1.899459 1_555
Mn15 O8 1.948644 1_555
Mn16 O22 1.965189 1_555
Mn16 O80 1.965551 1_555
Mn16 O15 1.976806 1_555
Mn16 O73 2.008677 1_555
Mn16 O0 2.151290 1_555
Mn16 O7 2.370836 1_555
Mn17 O18 1.903298 1_554
Mn17 O10 1.915616 1_554
Mn17 O74 1.934050 1_555
Mn17 O23 1.962993 1_555
Mn17 O83 2.029853 1_554
Mn17 O1 2.038859 1_555
Mn18 O9 1.878566 1_555
Mn18 O75 1.951197 1_555
Mn18 O2 1.956000 1_555
Mn18 O17 1.970982 1_555
Mn18 O24 1.972710 1_555
Mn18 O82 2.036245 1_555
Mn19 O12 1.932088 1_555
Mn19 O76 1.938381 1_556
Mn19 O85 1.953333 1_555
Mn19 O25 1.968849 1_556
Mn19 O20 2.018201 1_555
Mn19 O3 2.117118 1_556
Mn20 O11 1.922749 1_555
Mn20 O26 1.922950 1_555
Mn20 O77 1.936214 1_555
Mn20 O84 1.943201 1_555
Mn20 O19 1.983923 1_555
Mn20 O4 2.014431 1_555
Mn21 O14 1.919364 1_555
Mn21 O57 1.944795 1_555
Mn21 O67 1.960012 1_555
Mn21 O10 1.974111 1_455
Mn21 O24 2.013102 1_455
Mn22 O15 1.918049 1_655
Mn22 O58 1.931667 1_655
Mn22 O25 1.965004 1_555
Mn22 O68 1.981766 1_655
Mn22 O11 2.017187 1_555
Mn23 O59 1.922415 1_655
Mn23 O26 1.930562 1_555
Mn23 O16 1.940792 1_655
Mn23 O0 1.954412 1_655
Mn23 O69 1.997109 1_555
Mn23 O12 2.013396 1_555
Mn24 O64 1.910227 1_555
Mn24 O1 1.945278 1_555
Mn24 O21 1.956656 1_555
Mn24 O17 1.965779 1_555
Mn24 O5 1.978770 1_555
Mn24 O60 2.029027 1_555
Mn25 O65 1.881833 1_555
Mn25 O6 1.908532 1_555
Mn25 O2 1.961079 1_555
Mn25 O61 1.996370 1_555
Mn25 O18 2.006057 1_555
Mn26 O7 1.857283 1_555
Mn26 O19 1.896024 1_555
Mn26 O3 1.928564 1_555
Mn26 O62 1.935625 1_555
Mn27 O22 1.948257 1_555
Mn27 O4 1.948701 1_555
Mn27 O20 1.949417 1_555
Mn27 O8 1.964337 1_555
Mn27 O63 2.021925 1_555
Al0 O54 1.809716 1_555
Al0 O62 1.866670 1_555
Al0 O64 1.875820 1_565
Al0 O29 1.885662 1_555
Al0 O39 1.892185 1_565
Al1 O51 1.790610 1_555
Al1 O30 1.858706 1_555
Al1 O35 1.863254 1_565
Al1 O80 1.918017 1_555
Al1 O71 2.011328 1_565
Al2 O6 1.786434 1_555
Al2 O70 1.793534 1_556
Al2 O79 1.910202 1_555
Al2 O21 1.987726 1_556
Al2 O14 2.006121 1_555
Al3 O9 1.777481 1_555
Al3 O23 1.830367 1_555
Al3 O13 1.859011 1_655
Al3 O56 1.904170 1_655
Al3 O66 1.920743 1_555
O1 Sr1 2.417134 1_554
O5 Sr3 2.821031 1_555
O6 Sr1 2.633585 1_555
O9 Sr0 2.494811 1_555
O13 Sr3 2.581169 1_555
O13 Sr2 2.617922 1_555
O13 Sr0 2.925450 1_455
O21 Sr2 2.513036 1_555
O21 Sr3 2.625480 1_555
O21 Sr1 2.710955 1_554
O24 Sr0 3.104539 1_555
O27 Sr2 2.577506 1_555
O29 Sr3 2.610050 1_565
O34 Sr0 3.080893 1_565
O35 Sr3 2.520916 1_555
O35 Sr0 2.745618 1_455
O37 Sr2 2.498228 1_555
O44 Sr0 2.467759 1_555
O48 Sr2 2.678349 1_555
O50 Sr3 3.040947 1_565
O51 Sr0 2.709269 1_465
O52 Sr1 2.506399 1_554
O56 Sr2 2.712297 1_555
O60 Sr2 2.850805 1_555
O61 Sr1 2.526508 1_555
O64 Sr3 2.597268 1_555
O66 Sr3 2.858582 1_655
O66 Sr0 3.033681 1_555
O67 Sr0 2.468379 1_455
O70 Sr3 2.442525 1_555
O71 Sr0 2.631326 1_455
O75 Sr0 2.754566 1_555
O78 Sr2 2.899229 1_555
O79 Sr1 2.633550 1_555
O79 Sr2 2.978066 1_556
O83 Sr1 2.696872 1_555
