# generated using pymatgen
data_YN3O14
_symmetry_space_group_name_H-M   'P 1'
_cell_length_a   6.44406900
_cell_length_b   9.22704960
_cell_length_c   10.00954149
_cell_angle_alpha   64.65344233
_cell_angle_beta   84.61014840
_cell_angle_gamma   78.37398315
_symmetry_Int_Tables_number   1
_chemical_formula_structural   YN3O14
_chemical_formula_sum   'Y2 N6 O28'
_cell_volume   526.81644717
_cell_formula_units_Z   2
loop_
 _symmetry_equiv_pos_site_id
 _symmetry_equiv_pos_as_xyz
  1  'x, y, z'
loop_
 _atom_site_type_symbol
 _atom_site_label
 _atom_site_symmetry_multiplicity
 _atom_site_fract_x
 _atom_site_fract_y
 _atom_site_fract_z
 _atom_site_occupancy
  Y  Y0  1  0.25427400  0.36710200  0.79108900  1
  Y  Y1  1  0.74572600  0.63289800  0.20891100  1
  N  N0  1  0.03249800  0.15827100  0.05970100  1
  N  N1  1  0.96750200  0.84172900  0.94029900  1
  N  N2  1  0.97496900  0.67257200  0.61937100  1
  N  N3  1  0.02503100  0.32742800  0.38062900  1
  N  N4  1  0.48552100  0.16835800  0.63697600  1
  N  N5  1  0.51447900  0.83164200  0.36302400  1
  O  O0  1  0.21153800  0.10172000  0.01773100  1
  O  O1  1  0.78846200  0.89828000  0.98226900  1
  O  O2  1  0.94956300  0.30540700  0.97374700  1
  O  O3  1  0.05043700  0.69459300  0.02625300  1
  O  O4  1  0.94420200  0.07858600  0.17445300  1
  O  O5  1  0.05579800  0.92141400  0.82554700  1
  O  O6  1  0.98901000  0.61162500  0.76036700  1
  O  O7  1  0.01099000  0.38837500  0.23963300  1
  O  O8  1  0.09480200  0.58744200  0.55747400  1
  O  O9  1  0.90519800  0.41255800  0.44252600  1
  O  O10  1  0.85824600  0.80044000  0.54760300  1
  O  O11  1  0.14175400  0.19956000  0.45239700  1
  O  O12  1  0.39781300  0.09624600  0.76185600  1
  O  O13  1  0.60218700  0.90375400  0.23814400  1
  O  O14  1  0.44994000  0.32411200  0.58245700  1
  O  O15  1  0.55006000  0.67588800  0.41754300  1
  O  O16  1  0.59757500  0.09153900  0.57402700  1
  O  O17  1  0.40242500  0.90846100  0.42597300  1
  O  O18  1  0.96798200  0.27314800  0.72505100  1
  O  O19  1  0.03201800  0.72685200  0.27494900  1
  O  O20  1  0.48435900  0.55002800  0.73039500  1
  O  O21  1  0.51564100  0.44997200  0.26960500  1
  O  O22  1  0.58212700  0.24546500  0.90478300  1
  O  O23  1  0.41787300  0.75453500  0.09521700  1
  O  O24  1  0.35895400  0.40633700  0.98941300  1
  O  O25  1  0.64104600  0.59366300  0.01058700  1
  O  O26  1  0.49828100  0.28080900  0.19540900  1
  O  O27  1  0.50171900  0.71919100  0.80459100  1
loop_
_geom_bond_atom_site_label_1
_geom_bond_atom_site_label_2
_geom_bond_distance
_geom_bond_site_symmetry_2
N0 O4 1.227367 1_455
N0 O0 1.278230 1_555
N0 O2 1.289528 1_454
N1 O5 1.227367 1_655
N1 O1 1.278230 1_555
N1 O3 1.289528 1_656
N2 O10 1.221476 1_555
N2 O6 1.280695 1_555
N2 O8 1.295953 1_655
N3 O11 1.221476 1_555
N3 O7 1.280695 1_555
N3 O9 1.295953 1_455
N4 O16 1.229414 1_555
N4 O12 1.277263 1_555
N4 O14 1.278667 1_555
N5 O17 1.229414 1_555
N5 O13 1.277263 1_555
N5 O15 1.278667 1_555
O0 Y0 2.572289 1_554
O1 Y1 2.572289 1_556
O2 Y0 2.531290 1_655
O3 Y1 2.531290 1_455
O6 Y0 2.461172 1_655
O7 Y1 2.461172 1_455
O8 Y0 2.489271 1_555
O9 Y1 2.489271 1_555
O12 Y0 2.613572 1_555
O13 Y1 2.613572 1_555
O14 Y0 2.474107 1_555
O15 Y1 2.474107 1_555
O18 Y0 2.440579 1_655
O19 Y1 2.440579 1_455
O20 O27 2.019626 1_555
O20 Y0 2.319012 1_555
O21 O26 2.019626 1_555
O21 Y1 2.319012 1_555
O22 Y0 2.328243 1_555
O23 Y1 2.328243 1_555
O24 O26 2.069559 1_556
O24 Y0 2.343535 1_555
O25 O27 2.069559 1_554
O25 Y1 2.343535 1_555
