# generated using pymatgen
data_Ca11(FeN5)2
_symmetry_space_group_name_H-M   'P 1'
_cell_length_a   6.19433236
_cell_length_b   6.19433236
_cell_length_c   12.25268527
_cell_angle_alpha   89.82324253
_cell_angle_beta   89.82324253
_cell_angle_gamma   118.07345141
_symmetry_Int_Tables_number   1
_chemical_formula_structural   Ca11(FeN5)2
_chemical_formula_sum   'Ca11 Fe2 N10'
_cell_volume   414.81162301
_cell_formula_units_Z   1
loop_
 _symmetry_equiv_pos_site_id
 _symmetry_equiv_pos_as_xyz
  1  'x, y, z'
loop_
 _atom_site_type_symbol
 _atom_site_label
 _atom_site_symmetry_multiplicity
 _atom_site_fract_x
 _atom_site_fract_y
 _atom_site_fract_z
 _atom_site_occupancy
  Ca  Ca0  1  0.99492300  0.56921500  0.11837100  1
  Ca  Ca1  1  0.40465700  0.01822300  0.87984600  1
  Ca  Ca2  1  0.60962200  0.00190000  0.38185300  1
  Ca  Ca3  1  0.59390900  0.59390900  0.61884200  1
  Ca  Ca4  1  0.39484500  0.00049300  0.61458200  1
  Ca  Ca5  1  0.60308200  0.60308200  0.91029000  1
  Ca  Ca6  1  0.01822300  0.40465700  0.87984600  1
  Ca  Ca7  1  0.00190000  0.60962200  0.38185300  1
  Ca  Ca8  1  0.40720600  0.40720600  0.36187900  1
  Ca  Ca9  1  0.56921500  0.99492300  0.11837100  1
  Ca  Ca10  1  0.00049300  0.39484500  0.61458200  1
  Fe  Fe0  1  0.00893800  0.00893800  0.24942100  1
  Fe  Fe1  1  0.99149600  0.99149600  0.74573000  1
  N  N0  1  0.27687000  0.98613100  0.26315900  1
  N  N1  1  0.74440000  0.74440000  0.26792500  1
  N  N2  1  0.71746300  0.99907200  0.74019900  1
  N  N3  1  0.33330300  0.66593900  0.49995600  1
  N  N4  1  0.69536100  0.32126100  0.99147800  1
  N  N5  1  0.66593900  0.33330300  0.49995600  1
  N  N6  1  0.32126100  0.69536100  0.99147800  1
  N  N7  1  0.26479800  0.26479800  0.74688600  1
  N  N8  1  0.99907200  0.71746300  0.74019900  1
  N  N9  1  0.98613100  0.27687000  0.26315900  1
loop_
_geom_bond_atom_site_label_1
_geom_bond_atom_site_label_2
_geom_bond_distance
_geom_bond_site_symmetry_2
Ca0 N4 2.360010 1_554
Ca0 N6 2.366558 1_654
Ca0 N9 2.513214 1_555
Ca0 N1 2.919457 1_555
Ca0 N0 2.944325 1_655
Ca1 N6 2.267984 1_545
Ca1 N4 2.342354 1_555
Ca1 N2 2.625508 1_545
Ca1 N7 2.641245 1_555
Ca1 N8 2.889840 1_445
Ca2 N5 2.403587 1_555
Ca2 N3 2.442957 1_545
Ca2 N0 2.490565 1_545
Ca2 N1 2.539614 1_545
Ca2 N9 2.584638 1_555
Ca3 N5 2.369658 1_555
Ca3 N3 2.369658 1_555
Ca3 N7 2.611945 1_555
Ca3 N2 2.705111 1_555
Ca3 N8 2.705111 1_555
Ca4 N3 2.385408 1_545
Ca4 N5 2.398258 1_555
Ca4 N2 2.529449 1_545
Ca4 N7 2.684556 1_555
Ca4 N8 2.714307 1_445
Ca5 N6 2.301244 1_555
Ca5 N4 2.301244 1_555
Ca5 N7 2.951164 1_555
Ca5 N8 3.030784 1_555
Ca5 N2 3.030784 1_555
Ca6 N4 2.267984 1_455
Ca6 N6 2.342354 1_555
Ca6 N8 2.625508 1_455
Ca6 N7 2.641245 1_555
Ca6 N2 2.889840 1_445
Ca7 N3 2.403587 1_555
Ca7 N5 2.442957 1_455
Ca7 N9 2.490565 1_455
Ca7 N1 2.539614 1_455
Ca7 N0 2.584638 1_555
Ca8 N1 2.432014 1_555
Ca8 N5 2.518504 1_555
Ca8 N3 2.518504 1_555
Ca8 N9 2.638472 1_455
Ca8 N0 2.638472 1_545
Ca9 N6 2.360010 1_554
Ca9 N4 2.366558 1_564
Ca9 N0 2.513214 1_555
Ca9 N1 2.919457 1_555
Ca9 N9 2.944325 1_565
Ca10 N5 2.385408 1_455
Ca10 N3 2.398258 1_555
Ca10 N8 2.529449 1_455
Ca10 N7 2.684556 1_555
Ca10 N2 2.714307 1_445
Fe0 N1 1.699946 1_445
Fe0 N9 1.739259 1_455
Fe0 N0 1.739259 1_545
Fe1 N2 1.721570 1_555
Fe1 N8 1.721570 1_555
Fe1 N7 1.742122 1_665
