# generated using pymatgen
data_Cs4MgMn4H16(Cl3O2)4
_symmetry_space_group_name_H-M   'P 1'
_cell_length_a   8.05932716
_cell_length_b   9.12067176
_cell_length_c   11.78056317
_cell_angle_alpha   91.71989577
_cell_angle_beta   90.00000000
_cell_angle_gamma   90.00000000
_symmetry_Int_Tables_number   1
_chemical_formula_structural   Cs4MgMn4H16(Cl3O2)4
_chemical_formula_sum   'Cs4 Mg1 Mn4 H16 Cl12 O8'
_cell_volume   865.55759230
_cell_formula_units_Z   1
loop_
 _symmetry_equiv_pos_site_id
 _symmetry_equiv_pos_as_xyz
  1  'x, y, z'
loop_
 _atom_site_type_symbol
 _atom_site_label
 _atom_site_symmetry_multiplicity
 _atom_site_fract_x
 _atom_site_fract_y
 _atom_site_fract_z
 _atom_site_occupancy
  Cs  Cs0  1  0.04042906  0.68311233  0.38333556  1
  Cs  Cs1  1  0.04042906  0.31688767  0.11666444  1
  Cs  Cs2  1  0.00311630  0.23744667  0.65048028  1
  Cs  Cs3  1  0.00311630  0.76255333  0.84951972  1
  Mg  Mg0  1  0.86968081  0.00000000  0.25000000  1
  Mn  Mn0  1  0.43466076  0.00000000  0.25000000  1
  Mn  Mn1  1  0.52310606  0.50000000  0.25000000  1
  Mn  Mn2  1  0.53309671  0.00000000  0.75000000  1
  Mn  Mn3  1  0.48884309  0.50000000  0.75000000  1
  H  H0  1  0.66778812  0.98031477  0.05781612  1
  H  H1  1  0.33179395  0.52931389  0.04947665  1
  H  H2  1  0.33179395  0.47068611  0.45052335  1
  H  H3  1  0.66778812  0.01968523  0.44218388  1
  H  H4  1  0.32277761  0.02647562  0.94217075  1
  H  H5  1  0.68538582  0.47936413  0.94765354  1
  H  H6  1  0.68538582  0.52063587  0.55234646  1
  H  H7  1  0.32277761  0.97352438  0.55782925  1
  H  H8  1  0.66996517  0.82299906  0.11443618  1
  H  H9  1  0.31309721  0.67971738  0.11783228  1
  H  H10  1  0.31309721  0.32028262  0.38216772  1
  H  H11  1  0.66996517  0.17700094  0.38556382  1
  H  H12  1  0.32005925  0.18046369  0.88212487  1
  H  H13  1  0.69254618  0.32370142  0.88342386  1
  H  H14  1  0.69254618  0.67629858  0.61657614  1
  H  H15  1  0.32005925  0.81953631  0.61787513  1
  Cl  Cl0  1  0.48068931  0.75259158  0.34446061  1
  Cl  Cl1  1  0.48068931  0.24740842  0.15553939  1
  Cl  Cl2  1  0.51656254  0.24718602  0.65565652  1
  Cl  Cl3  1  0.51656254  0.75281398  0.84434348  1
  Cl  Cl4  1  0.25143562  0.90553467  0.09320374  1
  Cl  Cl5  1  0.74427671  0.58998643  0.11105717  1
  Cl  Cl6  1  0.74427671  0.41001357  0.38894283  1
  Cl  Cl7  1  0.25143562  0.09446533  0.40679626  1
  Cl  Cl8  1  0.75767402  0.09022246  0.89381319  1
  Cl  Cl9  1  0.25488672  0.41845979  0.88395565  1
  Cl  Cl10  1  0.25488672  0.58154021  0.61604435  1
  Cl  Cl11  1  0.75767402  0.90977754  0.60618681  1
  O  O0  1  0.65555333  0.93001966  0.13099626  1
  O  O1  1  0.32363522  0.57207535  0.12741014  1
  O  O2  1  0.32363522  0.42792465  0.37258986  1
  O  O3  1  0.65555333  0.06998034  0.36900374  1
  O  O4  1  0.32682342  0.07339218  0.86735637  1
  O  O5  1  0.68556074  0.43059466  0.87134573  1
  O  O6  1  0.68556074  0.56940534  0.62865427  1
  O  O7  1  0.32682342  0.92660782  0.63264363  1
loop_
_geom_bond_atom_site_label_1
_geom_bond_atom_site_label_2
_geom_bond_distance
_geom_bond_site_symmetry_2
Cs0 H2 3.160126 1_555
Cs0 O2 3.259616 1_555
Cs0 Mg0 3.603740 1_465
Cs1 H1 3.160126 1_555
Cs1 O1 3.259616 1_555
Cs1 Mg0 3.603740 1_455
Mg0 O0 2.301566 1_545
Mg0 O3 2.301566 1_555
Mn0 O0 2.342725 1_545
Mn0 O3 2.342725 1_555
Mn1 O1 2.271378 1_555
Mn1 O2 2.271378 1_555
Mn2 O7 2.251123 1_545
Mn2 O4 2.251123 1_555
Mn3 O6 2.238772 1_555
Mn3 O5 2.238772 1_555
H0 O0 0.993535 1_555
H1 O1 0.988862 1_555
H2 O2 0.988862 1_555
H3 O3 0.993535 1_555
H4 O4 0.991764 1_555
H5 O5 0.990942 1_555
H6 O6 0.990942 1_555
H7 O7 0.991764 1_555
H8 O0 0.996439 1_555
H9 O1 0.995219 1_555
H10 O2 0.995219 1_555
H11 O3 0.996439 1_555
H12 O4 0.988291 1_555
H13 O5 0.991083 1_555
H14 O6 0.991083 1_555
H15 O7 0.988291 1_555
Cl0 Mn1 2.551237 1_555
Cl0 Mn0 2.572663 1_565
Cl0 Cs0 3.635720 1_555
Cl1 Mn1 2.551237 1_555
Cl1 Mn0 2.572663 1_555
Cl1 Cs1 3.635720 1_555
Cl2 Mn3 2.539330 1_555
Cl2 Mn2 2.546802 1_555
Cl3 Mn3 2.539330 1_555
Cl3 Mn2 2.546802 1_565
Cl4 Mn0 2.497862 1_565
Cl4 Cs3 3.704347 1_554
Cl5 Mn1 2.571129 1_555
Cl5 Cs1 3.451855 1_655
Cl5 Cs0 4.067346 1_655
Cl6 Mn1 2.571129 1_555
Cl6 Cs0 3.451855 1_655
Cl6 Cs1 4.067346 1_655
Cl7 Mn0 2.497862 1_555
Cl7 Cs2 3.704347 1_555
Cl8 Mn2 2.596087 1_555
Cl8 Cs3 3.608747 1_645
Cl8 Cs2 3.763561 1_655
Cl8 Cs1 4.004169 1_656
Cl9 Mn3 2.582456 1_555
Cl9 Cs1 3.393153 1_556
Cl9 Cs2 3.759712 1_555
Cl9 Cs3 3.769293 1_555
Cl10 Mn3 2.582456 1_555
Cl10 Cs0 3.393153 1_555
Cl10 Cs3 3.759712 1_555
Cl10 Cs2 3.769293 1_555
Cl11 Mn2 2.596087 1_565
Cl11 Cs2 3.608747 1_665
Cl11 Cs3 3.763561 1_655
Cl11 Cs0 4.004169 1_655
