# generated using pymatgen
data_CsHfMg30O31
_symmetry_space_group_name_H-M   'P 1'
_cell_length_a   8.73622600
_cell_length_b   8.74517400
_cell_length_c   8.74865400
_cell_angle_alpha   90.00000000
_cell_angle_beta   90.00000000
_cell_angle_gamma   90.00000000
_symmetry_Int_Tables_number   1
_chemical_formula_structural   CsHfMg30O31
_chemical_formula_sum   'Cs1 Hf1 Mg30 O31'
_cell_volume   668.39555999
_cell_formula_units_Z   1
loop_
 _symmetry_equiv_pos_site_id
 _symmetry_equiv_pos_as_xyz
  1  'x, y, z'
loop_
 _atom_site_type_symbol
 _atom_site_label
 _atom_site_symmetry_multiplicity
 _atom_site_fract_x
 _atom_site_fract_y
 _atom_site_fract_z
 _atom_site_occupancy
  Cs  Cs0  1  0.00000000  0.00036900  0.00000000  1
  Hf  Hf0  1  0.50000000  0.00067400  0.50000000  1
  Mg  Mg0  1  0.50000000  0.00457400  0.00000000  1
  Mg  Mg1  1  0.00000000  0.00008800  0.50000000  1
  Mg  Mg2  1  0.00000000  0.49990700  0.00000000  1
  Mg  Mg3  1  0.50000000  0.49888800  0.00000000  1
  Mg  Mg4  1  0.00000000  0.50000200  0.50000000  1
  Mg  Mg5  1  0.50000000  0.49891000  0.50000000  1
  Mg  Mg6  1  0.24719000  0.99965200  0.24702300  1
  Mg  Mg7  1  0.75281000  0.99965200  0.24702300  1
  Mg  Mg8  1  0.24719000  0.99965200  0.75297700  1
  Mg  Mg9  1  0.75281000  0.99965200  0.75297700  1
  Mg  Mg10  1  0.24865000  0.50014300  0.24855200  1
  Mg  Mg11  1  0.75135000  0.50014300  0.24855200  1
  Mg  Mg12  1  0.24865000  0.50014300  0.75144800  1
  Mg  Mg13  1  0.75135000  0.50014300  0.75144800  1
  Mg  Mg14  1  0.25054800  0.74322600  0.00000000  1
  Mg  Mg15  1  0.74945200  0.74322600  0.00000000  1
  Mg  Mg16  1  0.24236900  0.74324700  0.50000000  1
  Mg  Mg17  1  0.75763100  0.74324700  0.50000000  1
  Mg  Mg18  1  0.25217300  0.25638300  0.00000000  1
  Mg  Mg19  1  0.74782700  0.25638300  0.00000000  1
  Mg  Mg20  1  0.24279500  0.25697200  0.50000000  1
  Mg  Mg21  1  0.75720500  0.25697200  0.50000000  1
  Mg  Mg22  1  0.00000000  0.74394700  0.25407900  1
  Mg  Mg23  1  0.50000000  0.74259300  0.24526300  1
  Mg  Mg24  1  0.00000000  0.74394700  0.74592100  1
  Mg  Mg25  1  0.50000000  0.74259300  0.75473700  1
  Mg  Mg26  1  0.00000000  0.25621700  0.25324700  1
  Mg  Mg27  1  0.50000000  0.25646400  0.24389200  1
  Mg  Mg28  1  0.00000000  0.25621700  0.74675300  1
  Mg  Mg29  1  0.50000000  0.25646400  0.75610800  1
  O  O0  1  0.00000000  0.71465500  0.00000000  1
  O  O1  1  0.00000000  0.74344900  0.50000000  1
  O  O2  1  0.50000000  0.75612800  0.50000000  1
  O  O3  1  0.00000000  0.28477000  0.00000000  1
  O  O4  1  0.50000000  0.25617400  0.00000000  1
  O  O5  1  0.00000000  0.25647400  0.50000000  1
  O  O6  1  0.50000000  0.24439500  0.50000000  1
  O  O7  1  0.24905200  0.75157500  0.25197100  1
  O  O8  1  0.75094800  0.75157500  0.25197100  1
  O  O9  1  0.24905200  0.75157500  0.74802900  1
  O  O10  1  0.75094800  0.75157500  0.74802900  1
  O  O11  1  0.25067500  0.24812400  0.25021000  1
  O  O12  1  0.74932500  0.24812400  0.25021000  1
  O  O13  1  0.25067500  0.24812400  0.74979000  1
  O  O14  1  0.74932500  0.24812400  0.74979000  1
  O  O15  1  0.28572400  0.99872100  0.00000000  1
  O  O16  1  0.71427600  0.99872100  0.00000000  1
  O  O17  1  0.26065700  0.99967500  0.50000000  1
  O  O18  1  0.73934300  0.99967500  0.50000000  1
  O  O19  1  0.25712700  0.49896900  0.00000000  1
  O  O20  1  0.74287300  0.49896900  0.00000000  1
  O  O21  1  0.25376300  0.50013100  0.50000000  1
  O  O22  1  0.74623700  0.50013100  0.50000000  1
  O  O23  1  0.00000000  0.99979900  0.28565800  1
  O  O24  1  0.50000000  0.00161700  0.26105500  1
  O  O25  1  0.00000000  0.99979900  0.71434200  1
  O  O26  1  0.50000000  0.00161700  0.73894500  1
  O  O27  1  0.00000000  0.50003600  0.25810400  1
  O  O28  1  0.50000000  0.49828700  0.25536100  1
  O  O29  1  0.00000000  0.50003600  0.74189600  1
  O  O30  1  0.50000000  0.49828700  0.74463900  1
loop_
_geom_bond_atom_site_label_1
_geom_bond_atom_site_label_2
_geom_bond_distance
_geom_bond_site_symmetry_2
Cs0 O3 2.487136 1_555
Cs0 O16 2.496191 1_445
Cs0 O15 2.496191 1_545
Cs0 O0 2.498619 1_545
Cs0 O25 2.499128 1_544
Cs0 O23 2.499128 1_545
Hf0 O26 2.090463 1_555
Hf0 O24 2.090463 1_555
Hf0 O17 2.090973 1_545
Hf0 O18 2.090973 1_545
Hf0 O6 2.131383 1_555
Hf0 O2 2.138597 1_545
Mg0 O16 1.872663 1_545
Mg0 O15 1.872663 1_545
Mg0 O4 2.200286 1_555
Mg0 O24 2.284026 1_555
Mg0 O26 2.284026 1_554
Mg1 O23 1.875206 1_545
Mg1 O25 1.875206 1_545
Mg1 O5 2.242140 1_555
Mg1 O1 2.244353 1_545
Mg1 O17 2.277161 1_545
Mg1 O18 2.277161 1_445
Mg2 O0 1.878009 1_555
Mg2 O3 1.881410 1_555
Mg2 O19 2.246335 1_555
Mg2 O20 2.246335 1_455
Mg2 O29 2.258063 1_554
Mg2 O27 2.258063 1_555
Mg3 O20 2.121794 1_555
Mg3 O19 2.121794 1_555
Mg3 O4 2.122576 1_555
Mg3 O28 2.234071 1_555
Mg3 O30 2.234071 1_554
Mg4 O27 2.116264 1_555
Mg4 O29 2.116264 1_555
Mg4 O1 2.128986 1_555
Mg4 O5 2.129695 1_555
Mg4 O22 2.216931 1_455
Mg4 O21 2.216931 1_555
Mg5 O28 2.140269 1_555
Mg5 O30 2.140269 1_555
Mg5 O21 2.151209 1_555
Mg5 O22 2.151209 1_555
Mg5 O6 2.225778 1_555
Mg5 O2 2.249416 1_555
Mg6 O7 2.169969 1_555
Mg6 O11 2.173323 1_565
Mg6 O23 2.185800 1_555
Mg6 O15 2.187196 1_555
Mg6 O24 2.212081 1_565
Mg6 O17 2.216333 1_555
Mg7 O8 2.169969 1_555
Mg7 O12 2.173323 1_565
Mg7 O23 2.185800 1_655
Mg7 O16 2.187196 1_555
Mg7 O24 2.212081 1_565
Mg7 O18 2.216333 1_555
Mg8 O9 2.169969 1_555
Mg8 O13 2.173323 1_565
Mg8 O25 2.185800 1_555
Mg8 O15 2.187196 1_556
Mg8 O26 2.212081 1_565
Mg8 O17 2.216333 1_555
Mg9 O10 2.169969 1_555
Mg9 O14 2.173323 1_565
Mg9 O25 2.185800 1_655
Mg9 O16 2.187196 1_556
Mg9 O26 2.212081 1_565
Mg9 O18 2.216333 1_555
Mg10 O27 2.173870 1_555
Mg10 O19 2.175780 1_555
Mg10 O28 2.196718 1_555
Mg10 O7 2.199023 1_555
Mg10 O21 2.200285 1_555
Mg10 O11 2.204069 1_555
Mg11 O27 2.173870 1_655
Mg11 O20 2.175780 1_555
Mg11 O28 2.196718 1_555
Mg11 O8 2.199023 1_555
Mg11 O22 2.200285 1_555
Mg11 O12 2.204069 1_555
Mg12 O29 2.173870 1_555
Mg12 O19 2.175780 1_556
Mg12 O30 2.196718 1_555
Mg12 O9 2.199023 1_555
Mg12 O21 2.200285 1_555
Mg12 O13 2.204069 1_555
Mg13 O29 2.173870 1_655
Mg13 O20 2.175780 1_556
Mg13 O30 2.196718 1_555
Mg13 O10 2.199023 1_555
Mg13 O22 2.200285 1_555
Mg13 O14 2.204069 1_555
Mg14 O19 2.136843 1_555
Mg14 O0 2.203059 1_555
Mg14 O9 2.205655 1_554
Mg14 O7 2.205655 1_555
Mg14 O15 2.255382 1_555
Mg15 O20 2.136843 1_555
Mg15 O0 2.203059 1_655
Mg15 O10 2.205655 1_554
Mg15 O8 2.205655 1_555
Mg15 O16 2.255382 1_555
Mg16 O1 2.117391 1_555
Mg16 O21 2.128421 1_555
Mg16 O7 2.171927 1_555
Mg16 O9 2.171927 1_555
Mg16 O17 2.248192 1_555
Mg16 O2 2.253540 1_555
Mg17 O1 2.117391 1_655
Mg17 O22 2.128421 1_555
Mg17 O8 2.171927 1_555
Mg17 O10 2.171927 1_555
Mg17 O18 2.248192 1_555
Mg17 O2 2.253540 1_555
Mg18 O19 2.121898 1_555
Mg18 O4 2.165073 1_555
Mg18 O11 2.190231 1_555
Mg18 O13 2.190231 1_554
Mg18 O3 2.216983 1_555
Mg18 O15 2.272283 1_545
Mg19 O20 2.121898 1_555
Mg19 O4 2.165073 1_555
Mg19 O12 2.190231 1_555
Mg19 O14 2.190231 1_554
Mg19 O3 2.216983 1_655
Mg19 O16 2.272283 1_545
Mg20 O5 2.121116 1_555
Mg20 O21 2.128625 1_555
Mg20 O13 2.187779 1_555
Mg20 O11 2.187779 1_555
Mg20 O6 2.249691 1_555
Mg20 O17 2.255512 1_545
Mg21 O5 2.121116 1_655
Mg21 O22 2.128625 1_555
Mg21 O14 2.187779 1_555
Mg21 O12 2.187779 1_555
Mg21 O6 2.249691 1_555
Mg21 O18 2.255512 1_545
Mg22 O27 2.133335 1_555
Mg22 O1 2.151482 1_555
Mg22 O8 2.176875 1_455
Mg22 O7 2.176875 1_555
Mg22 O0 2.237561 1_555
Mg22 O23 2.254462 1_555
Mg23 O28 2.138324 1_555
Mg23 O8 2.194530 1_555
Mg23 O7 2.194530 1_555
Mg23 O2 2.231747 1_555
Mg23 O24 2.269419 1_565
Mg24 O29 2.133335 1_555
Mg24 O1 2.151482 1_555
Mg24 O9 2.176875 1_555
Mg24 O10 2.176875 1_455
Mg24 O0 2.237561 1_556
Mg24 O25 2.254462 1_555
Mg25 O30 2.138324 1_555
Mg25 O10 2.194530 1_555
Mg25 O9 2.194530 1_555
Mg25 O2 2.231747 1_555
Mg25 O26 2.269419 1_565
Mg26 O27 2.132663 1_555
Mg26 O5 2.158758 1_555
Mg26 O12 2.191258 1_455
Mg26 O11 2.191258 1_555
Mg26 O3 2.229597 1_555
Mg26 O23 2.260276 1_545
Mg27 O28 2.117163 1_555
Mg27 O4 2.133728 1_555
Mg27 O12 2.180081 1_555
Mg27 O11 2.180081 1_555
Mg27 O24 2.233734 1_555
Mg27 O6 2.243085 1_555
Mg28 O29 2.132663 1_555
Mg28 O5 2.158758 1_555
Mg28 O14 2.191258 1_455
Mg28 O13 2.191258 1_555
Mg28 O3 2.229597 1_556
Mg28 O25 2.260276 1_545
Mg29 O30 2.117163 1_555
Mg29 O4 2.133728 1_556
Mg29 O13 2.180081 1_555
Mg29 O14 2.180081 1_555
Mg29 O26 2.233734 1_555
Mg29 O6 2.243085 1_555
