# generated using pymatgen
data_SrMg14MnO16
_symmetry_space_group_name_H-M   'P 1'
_cell_length_a   4.41433800
_cell_length_b   8.69196100
_cell_length_c   8.69424900
_cell_angle_alpha   90.00000000
_cell_angle_beta   90.00000000
_cell_angle_gamma   90.00000000
_symmetry_Int_Tables_number   1
_chemical_formula_structural   SrMg14MnO16
_chemical_formula_sum   'Sr1 Mg14 Mn1 O16'
_cell_volume   333.59184593
_cell_formula_units_Z   1
loop_
 _symmetry_equiv_pos_site_id
 _symmetry_equiv_pos_as_xyz
  1  'x, y, z'
loop_
 _atom_site_type_symbol
 _atom_site_label
 _atom_site_symmetry_multiplicity
 _atom_site_fract_x
 _atom_site_fract_y
 _atom_site_fract_z
 _atom_site_occupancy
  Sr  Sr0  1  0.00000000  0.50000000  0.00000000  1
  Mg  Mg0  1  0.00000000  0.00000000  0.50000000  1
  Mg  Mg1  1  0.00000000  0.50000000  0.50000000  1
  Mg  Mg2  1  0.50000000  0.75844100  0.00000000  1
  Mg  Mg3  1  0.50000000  0.24155900  0.00000000  1
  Mg  Mg4  1  0.50000000  0.75134200  0.50000000  1
  Mg  Mg5  1  0.50000000  0.24865800  0.50000000  1
  Mg  Mg6  1  0.50000000  0.00000000  0.74711900  1
  Mg  Mg7  1  0.50000000  0.50000000  0.74034200  1
  Mg  Mg8  1  0.50000000  0.00000000  0.25288100  1
  Mg  Mg9  1  0.50000000  0.50000000  0.25965800  1
  Mg  Mg10  1  0.00000000  0.75525200  0.74270000  1
  Mg  Mg11  1  0.00000000  0.24474800  0.74270000  1
  Mg  Mg12  1  0.00000000  0.75525200  0.25730000  1
  Mg  Mg13  1  0.00000000  0.24474800  0.25730000  1
  Mn  Mn0  1  0.00000000  0.00000000  0.00000000  1
  O  O0  1  0.00000000  0.00000000  0.73761400  1
  O  O1  1  0.00000000  0.50000000  0.72824200  1
  O  O2  1  0.00000000  0.00000000  0.26238600  1
  O  O3  1  0.00000000  0.50000000  0.27175800  1
  O  O4  1  0.50000000  0.75041100  0.75027900  1
  O  O5  1  0.50000000  0.24958900  0.75027900  1
  O  O6  1  0.50000000  0.75041100  0.24972100  1
  O  O7  1  0.50000000  0.24958900  0.24972100  1
  O  O8  1  0.50000000  0.00000000  0.00000000  1
  O  O9  1  0.50000000  0.50000000  0.00000000  1
  O  O10  1  0.50000000  0.00000000  0.50000000  1
  O  O11  1  0.50000000  0.50000000  0.50000000  1
  O  O12  1  0.00000000  0.76600000  0.00000000  1
  O  O13  1  0.00000000  0.23400000  0.00000000  1
  O  O14  1  0.00000000  0.75293000  0.50000000  1
  O  O15  1  0.00000000  0.24707000  0.50000000  1
loop_
_geom_bond_atom_site_label_1
_geom_bond_atom_site_label_2
_geom_bond_distance
_geom_bond_site_symmetry_2
Mg0 O0 2.065875 1_555
Mg0 O2 2.065875 1_555
Mg0 O14 2.147523 1_545
Mg0 O15 2.147523 1_555
Mg0 O10 2.207169 1_455
Mg0 O10 2.207169 1_555
Mg1 O1 1.984393 1_555
Mg1 O3 1.984393 1_555
Mg1 O15 2.198458 1_555
Mg1 O14 2.198458 1_555
Mg1 O11 2.207169 1_455
Mg1 O11 2.207169 1_555
Mg2 O8 2.099621 1_565
Mg2 O6 2.172258 1_555
Mg2 O4 2.172258 1_554
Mg2 O12 2.208147 1_655
Mg2 O12 2.208147 1_555
Mg2 O9 2.246359 1_555
Mg3 O8 2.099621 1_555
Mg3 O7 2.172258 1_555
Mg3 O5 2.172258 1_554
Mg3 O13 2.208147 1_655
Mg3 O13 2.208147 1_555
Mg3 O9 2.246359 1_555
Mg4 O10 2.161326 1_565
Mg4 O4 2.176003 1_555
Mg4 O6 2.176003 1_555
Mg4 O11 2.184655 1_555
Mg4 O14 2.207212 1_555
Mg4 O14 2.207212 1_655
Mg5 O10 2.161326 1_555
Mg5 O5 2.176003 1_555
Mg5 O7 2.176003 1_555
Mg5 O11 2.184655 1_555
Mg5 O15 2.207212 1_555
Mg5 O15 2.207212 1_655
Mg6 O10 2.148514 1_555
Mg6 O5 2.169592 1_555
Mg6 O4 2.169592 1_545
Mg6 O8 2.198610 1_556
Mg6 O0 2.208716 1_655
Mg6 O0 2.208716 1_555
Mg7 O11 2.089593 1_555
Mg7 O4 2.178277 1_555
Mg7 O5 2.178277 1_555
Mg7 O1 2.209675 1_555
Mg7 O1 2.209675 1_655
Mg7 O9 2.257531 1_556
Mg8 O10 2.148514 1_555
Mg8 O7 2.169592 1_555
Mg8 O6 2.169592 1_545
Mg8 O8 2.198610 1_555
Mg8 O2 2.208716 1_555
Mg8 O2 2.208716 1_655
Mg9 O11 2.089593 1_555
Mg9 O6 2.178277 1_555
Mg9 O7 2.178277 1_555
Mg9 O3 2.209675 1_555
Mg9 O3 2.209675 1_655
Mg9 O9 2.257531 1_555
Mg10 O14 2.110191 1_555
Mg10 O0 2.127800 1_565
Mg10 O4 2.208553 1_555
Mg10 O4 2.208553 1_455
Mg10 O1 2.222199 1_555
Mg10 O12 2.238980 1_556
Mg11 O15 2.110191 1_555
Mg11 O0 2.127800 1_555
Mg11 O5 2.208553 1_455
Mg11 O5 2.208553 1_555
Mg11 O1 2.222199 1_555
Mg11 O13 2.238980 1_556
Mg12 O14 2.110191 1_555
Mg12 O2 2.127800 1_565
Mg12 O6 2.208553 1_455
Mg12 O6 2.208553 1_555
Mg12 O3 2.222199 1_555
Mg12 O12 2.238980 1_555
Mg13 O15 2.110191 1_555
Mg13 O2 2.127800 1_555
Mg13 O7 2.208553 1_555
Mg13 O7 2.208553 1_455
Mg13 O3 2.222199 1_555
Mg13 O13 2.238980 1_555
Mn0 O12 2.033919 1_545
Mn0 O13 2.033919 1_555
Mn0 O8 2.207169 1_455
Mn0 O8 2.207169 1_555
Mn0 O2 2.281249 1_555
Mn0 O0 2.281249 1_554
O1 Sr0 2.362732 1_556
O3 Sr0 2.362732 1_555
O9 Sr0 2.207169 1_655
O9 Sr0 2.207169 1_555
O12 Sr0 2.312062 1_555
O13 Sr0 2.312062 1_555
