# generated using pymatgen
data_AsC18F17
_symmetry_space_group_name_H-M   'P 1'
_cell_length_a   9.01503700
_cell_length_b   11.32841800
_cell_length_c   18.52528100
_cell_angle_alpha   90.00000000
_cell_angle_beta   90.00000000
_cell_angle_gamma   90.00000000
_symmetry_Int_Tables_number   1
_chemical_formula_structural   AsC18F17
_chemical_formula_sum   'As4 C72 F68'
_cell_volume   1891.91483742
_cell_formula_units_Z   4
loop_
 _symmetry_equiv_pos_site_id
 _symmetry_equiv_pos_as_xyz
  1  'x, y, z'
loop_
 _atom_site_type_symbol
 _atom_site_label
 _atom_site_symmetry_multiplicity
 _atom_site_fract_x
 _atom_site_fract_y
 _atom_site_fract_z
 _atom_site_occupancy
  As  As0  1  0.00000000  0.13099500  0.25000000  1
  As  As1  1  0.00000000  0.86900500  0.75000000  1
  As  As2  1  0.50000000  0.36900500  0.75000000  1
  As  As3  1  0.50000000  0.63099500  0.25000000  1
  C  C0  1  0.02989400  0.36418400  0.31320700  1
  C  C1  1  0.97010600  0.63581600  0.68679300  1
  C  C2  1  0.47010600  0.13581600  0.81320700  1
  C  C3  1  0.97010600  0.36418400  0.18679300  1
  C  C4  1  0.52989400  0.86418400  0.18679300  1
  C  C5  1  0.02989400  0.63581600  0.81320700  1
  C  C6  1  0.52989400  0.13581600  0.68679300  1
  C  C7  1  0.47010600  0.86418400  0.31320700  1
  C  C8  1  0.02820600  0.12185800  0.58331600  1
  C  C9  1  0.97179400  0.87814200  0.41668400  1
  C  C10  1  0.47179400  0.37814200  0.08331600  1
  C  C11  1  0.97179400  0.12185800  0.91668400  1
  C  C12  1  0.52820600  0.62185800  0.91668400  1
  C  C13  1  0.02820600  0.87814200  0.08331600  1
  C  C14  1  0.52820600  0.37814200  0.41668400  1
  C  C15  1  0.47179400  0.62185800  0.58331600  1
  C  C16  1  0.51160000  0.43937400  0.14570000  1
  C  C17  1  0.48840000  0.56062600  0.85430000  1
  C  C18  1  0.98840000  0.06062600  0.64570000  1
  C  C19  1  0.48840000  0.43937400  0.35430000  1
  C  C20  1  0.01160000  0.93937400  0.35430000  1
  C  C21  1  0.51160000  0.56062600  0.64570000  1
  C  C22  1  0.01160000  0.06062600  0.85430000  1
  C  C23  1  0.98840000  0.93937400  0.14570000  1
  C  C24  1  0.21202000  0.02884100  0.05670000  1
  C  C25  1  0.78798000  0.97115900  0.94330000  1
  C  C26  1  0.28798000  0.47115900  0.55670000  1
  C  C27  1  0.78798000  0.02884100  0.44330000  1
  C  C28  1  0.71202000  0.52884100  0.44330000  1
  C  C29  1  0.21202000  0.97115900  0.55670000  1
  C  C30  1  0.71202000  0.47115900  0.94330000  1
  C  C31  1  0.28798000  0.52884100  0.05670000  1
  C  C32  1  0.00000000  0.54899600  0.25000000  1
  C  C33  1  0.00000000  0.45100400  0.75000000  1
  C  C34  1  0.50000000  0.95100400  0.75000000  1
  C  C35  1  0.50000000  0.04899600  0.25000000  1
  C  C36  1  0.17056600  0.08843800  0.11945400  1
  C  C37  1  0.82943400  0.91156200  0.88054600  1
  C  C38  1  0.32943400  0.41156200  0.61945400  1
  C  C39  1  0.82943400  0.08843800  0.38054600  1
  C  C40  1  0.67056600  0.58843800  0.38054600  1
  C  C41  1  0.17056600  0.91156200  0.61945400  1
  C  C42  1  0.67056600  0.41156200  0.88054600  1
  C  C43  1  0.32943400  0.58843800  0.11945400  1
  C  C44  1  0.35928000  0.42284900  0.03914100  1
  C  C45  1  0.64072000  0.57715100  0.96085900  1
  C  C46  1  0.14072000  0.07715100  0.53914100  1
  C  C47  1  0.64072000  0.42284900  0.46085900  1
  C  C48  1  0.85928000  0.92284900  0.46085900  1
  C  C49  1  0.35928000  0.57715100  0.53914100  1
  C  C50  1  0.85928000  0.07715100  0.96085900  1
  C  C51  1  0.14072000  0.92284900  0.03914100  1
  C  C52  1  0.05923000  0.04475400  0.16442300  1
  C  C53  1  0.94077000  0.95524600  0.83557700  1
  C  C54  1  0.44077000  0.45524600  0.66442300  1
  C  C55  1  0.94077000  0.04475400  0.33557700  1
  C  C56  1  0.55923000  0.54475400  0.33557700  1
  C  C57  1  0.05923000  0.95524600  0.66442300  1
  C  C58  1  0.55923000  0.45524600  0.83557700  1
  C  C59  1  0.44077000  0.54475400  0.16442300  1
  C  C60  1  0.00000000  0.30160000  0.25000000  1
  C  C61  1  0.00000000  0.69840000  0.75000000  1
  C  C62  1  0.50000000  0.19840000  0.75000000  1
  C  C63  1  0.50000000  0.80160000  0.25000000  1
  C  C64  1  0.02947300  0.48734900  0.31379800  1
  C  C65  1  0.97052700  0.51265100  0.68620200  1
  C  C66  1  0.47052700  0.01265100  0.81379800  1
  C  C67  1  0.97052700  0.48734900  0.18620200  1
  C  C68  1  0.52947300  0.98734900  0.18620200  1
  C  C69  1  0.02947300  0.51265100  0.81379800  1
  C  C70  1  0.52947300  0.01265100  0.68620200  1
  C  C71  1  0.47052700  0.98734900  0.31379800  1
  F  F0  1  0.23819800  0.19216700  0.13465200  1
  F  F1  1  0.76180200  0.80783300  0.86534800  1
  F  F2  1  0.26180200  0.30783300  0.63465200  1
  F  F3  1  0.76180200  0.19216700  0.36534800  1
  F  F4  1  0.73819800  0.69216700  0.36534800  1
  F  F5  1  0.23819800  0.80783300  0.63465200  1
  F  F6  1  0.73819800  0.30783300  0.86534800  1
  F  F7  1  0.26180200  0.69216700  0.13465200  1
  F  F8  1  0.00000000  0.66709200  0.25000000  1
  F  F9  1  0.00000000  0.33290800  0.75000000  1
  F  F10  1  0.50000000  0.83290800  0.75000000  1
  F  F11  1  0.50000000  0.16709200  0.25000000  1
  F  F12  1  0.54164000  0.27760600  0.06503600  1
  F  F13  1  0.45836000  0.72239400  0.93496400  1
  F  F14  1  0.95836000  0.22239400  0.56503600  1
  F  F15  1  0.45836000  0.27760600  0.43496400  1
  F  F16  1  0.04164000  0.77760600  0.43496400  1
  F  F17  1  0.54164000  0.72239400  0.56503600  1
  F  F18  1  0.04164000  0.22239400  0.93496400  1
  F  F19  1  0.95836000  0.77760600  0.06503600  1
  F  F20  1  0.17834000  0.13491000  0.47854600  1
  F  F21  1  0.82166000  0.86509000  0.52145400  1
  F  F22  1  0.32166000  0.36509000  0.97854600  1
  F  F23  1  0.82166000  0.13491000  0.02145400  1
  F  F24  1  0.67834000  0.63491000  0.02145400  1
  F  F25  1  0.17834000  0.86509000  0.97854600  1
  F  F26  1  0.67834000  0.36509000  0.52145400  1
  F  F27  1  0.32166000  0.63491000  0.47854600  1
  F  F28  1  0.05772000  0.30692900  0.37576500  1
  F  F29  1  0.94228000  0.69307100  0.62423500  1
  F  F30  1  0.44228000  0.19307100  0.87576500  1
  F  F31  1  0.94228000  0.30692900  0.12423500  1
  F  F32  1  0.55772000  0.80692900  0.12423500  1
  F  F33  1  0.05772000  0.69307100  0.87576500  1
  F  F34  1  0.55772000  0.19307100  0.62423500  1
  F  F35  1  0.44228000  0.80692900  0.37576500  1
  F  F36  1  0.19239900  0.13036400  0.28206800  1
  F  F37  1  0.80760100  0.86963600  0.71793200  1
  F  F38  1  0.30760100  0.36963600  0.78206800  1
  F  F39  1  0.80760100  0.13036400  0.21793200  1
  F  F40  1  0.69239900  0.63036400  0.21793200  1
  F  F41  1  0.19239900  0.86963600  0.78206800  1
  F  F42  1  0.69239900  0.36963600  0.71793200  1
  F  F43  1  0.30760100  0.63036400  0.28206800  1
  F  F44  1  0.38109600  0.39367600  0.31190100  1
  F  F45  1  0.61890400  0.60632400  0.68809900  1
  F  F46  1  0.11890400  0.10632400  0.81190100  1
  F  F47  1  0.61890400  0.39367600  0.18809900  1
  F  F48  1  0.88109600  0.89367600  0.18809900  1
  F  F49  1  0.38109600  0.60632400  0.81190100  1
  F  F50  1  0.88109600  0.10632400  0.68809900  1
  F  F51  1  0.11890400  0.89367600  0.31190100  1
  F  F52  1  0.44325900  0.04615400  0.37540400  1
  F  F53  1  0.55674100  0.95384600  0.62459600  1
  F  F54  1  0.05674100  0.45384600  0.87540400  1
  F  F55  1  0.55674100  0.04615400  0.12459600  1
  F  F56  1  0.94325900  0.54615400  0.12459600  1
  F  F57  1  0.44325900  0.95384600  0.87540400  1
  F  F58  1  0.94325900  0.45384600  0.62459600  1
  F  F59  1  0.05674100  0.54615400  0.37540400  1
  F  F60  1  0.31573000  0.07383200  0.01240400  1
  F  F61  1  0.68427000  0.92616800  0.98759600  1
  F  F62  1  0.18427000  0.42616800  0.51240400  1
  F  F63  1  0.68427000  0.07383200  0.48759600  1
  F  F64  1  0.81573000  0.57383200  0.48759600  1
  F  F65  1  0.31573000  0.92616800  0.51240400  1
  F  F66  1  0.81573000  0.42616800  0.98759600  1
  F  F67  1  0.18427000  0.57383200  0.01240400  1
loop_
_geom_bond_atom_site_label_1
_geom_bond_atom_site_label_2
_geom_bond_distance
_geom_bond_site_symmetry_2
As0 F36 1.833413 1_555
As0 F39 1.833413 1_455
As0 C60 1.932685 1_555
As0 C52 1.937237 1_555
As0 C55 1.937237 1_455
As1 F41 1.833413 1_555
As1 F37 1.833413 1_455
As1 C61 1.932685 1_555
As1 C53 1.937237 1_455
As1 C57 1.937237 1_555
As2 F38 1.833413 1_555
As2 F42 1.833413 1_555
As2 C62 1.932685 1_555
As2 C54 1.937237 1_555
As2 C58 1.937237 1_555
As3 F43 1.833413 1_555
As3 F40 1.833413 1_555
As3 C63 1.932685 1_555
As3 C59 1.937237 1_555
As3 C56 1.937237 1_555
C0 F28 1.351547 1_555
C0 C60 1.395116 1_555
C1 F29 1.351547 1_555
C1 C61 1.395116 1_655
C2 F30 1.351547 1_555
C2 C62 1.395116 1_555
C3 F31 1.351547 1_555
C3 C60 1.395116 1_655
C4 F32 1.351547 1_555
C4 C63 1.395116 1_555
C5 F33 1.351547 1_555
C5 C61 1.395116 1_555
C6 F34 1.351547 1_555
C6 C62 1.395116 1_555
C7 F35 1.351547 1_555
C8 F14 1.344723 1_455
C9 F16 1.344723 1_655
C10 F12 1.344723 1_555
C11 F18 1.344723 1_655
C12 F13 1.344723 1_555
C13 F19 1.344723 1_455
C14 F15 1.344723 1_555
C15 F17 1.344723 1_555
C16 F47 1.349334 1_555
C16 C59 1.397556 1_555
C17 F49 1.349334 1_555
C17 C58 1.397556 1_555
C18 F50 1.349334 1_555
C18 C57 1.397556 1_645
C19 F44 1.349334 1_555
C19 C56 1.397556 1_555
C20 F51 1.349334 1_555
C20 C55 1.397556 1_465
C21 F45 1.349334 1_555
C21 C54 1.397556 1_555
C22 F46 1.349334 1_555
C22 C53 1.397556 1_445
C23 F48 1.349334 1_555
C23 C52 1.397556 1_665
C24 F60 1.344351 1_555
C25 F61 1.344351 1_555
C26 F62 1.344351 1_555
C27 F63 1.344351 1_555
C28 F64 1.344351 1_555
C29 F65 1.344351 1_555
C30 F66 1.344351 1_555
C31 F67 1.344351 1_555
C32 F8 1.337841 1_555
C33 F9 1.337841 1_555
C34 F10 1.337841 1_555
C35 F11 1.337841 1_555
C36 F0 1.353453 1_555
C36 C52 1.395099 1_555
C37 F1 1.353453 1_555
C37 C53 1.395099 1_555
C38 F2 1.353453 1_555
C38 C54 1.395099 1_555
C39 F3 1.353453 1_555
C39 C55 1.395099 1_555
C40 F4 1.353453 1_555
C40 C56 1.395099 1_555
C41 F5 1.353453 1_555
C41 C57 1.395099 1_555
C42 F6 1.353453 1_555
C42 C58 1.395099 1_555
C43 F7 1.353453 1_555
C43 C59 1.395099 1_555
C44 F22 1.342850 1_554
C45 F24 1.342850 1_556
C46 F20 1.342850 1_555
C47 F26 1.342850 1_555
C48 F21 1.342850 1_555
C49 F27 1.342850 1_555
C50 F23 1.342850 1_556
C51 F25 1.342850 1_554
C63 C7 1.395116 1_555
C64 F59 1.344136 1_555
C65 F58 1.344136 1_555
C66 F57 1.344136 1_545
C67 F56 1.344136 1_555
C68 F55 1.344136 1_565
C69 F54 1.344136 1_555
C70 F53 1.344136 1_545
C71 F52 1.344136 1_565
