# generated using pymatgen
data_TiO2
_symmetry_space_group_name_H-M   'P 1'
_cell_length_a   4.90193400
_cell_length_b   4.90193400
_cell_length_c   4.90193400
_cell_angle_alpha   90.00000000
_cell_angle_beta   90.00000000
_cell_angle_gamma   90.00000000
_symmetry_Int_Tables_number   1
_chemical_formula_structural   TiO2
_chemical_formula_sum   'Ti4 O8'
_cell_volume   117.78836101
_cell_formula_units_Z   4
loop_
 _symmetry_equiv_pos_site_id
 _symmetry_equiv_pos_as_xyz
  1  'x, y, z'
loop_
 _atom_site_type_symbol
 _atom_site_label
 _atom_site_symmetry_multiplicity
 _atom_site_fract_x
 _atom_site_fract_y
 _atom_site_fract_z
 _atom_site_occupancy
  Ti  Ti0  1  0.50000000  0.50000000  0.00000000  1
  Ti  Ti1  1  0.50000000  0.00000000  0.50000000  1
  Ti  Ti2  1  0.00000000  0.50000000  0.50000000  1
  Ti  Ti3  1  0.00000000  0.00000000  0.00000000  1
  O  O0  1  0.15913100  0.84086900  0.34086900  1
  O  O1  1  0.84086900  0.34086900  0.15913100  1
  O  O2  1  0.34086900  0.15913100  0.84086900  1
  O  O3  1  0.65913100  0.65913100  0.65913100  1
  O  O4  1  0.84086900  0.15913100  0.65913100  1
  O  O5  1  0.15913100  0.65913100  0.84086900  1
  O  O6  1  0.65913100  0.84086900  0.15913100  1
  O  O7  1  0.34086900  0.34086900  0.34086900  1
loop_
_geom_bond_atom_site_label_1
_geom_bond_atom_site_label_2
_geom_bond_distance
_geom_bond_site_symmetry_2
O0 Ti2 2.002229 1_555
O0 Ti1 2.002229 1_565
O0 Ti3 2.002229 1_565
O1 Ti2 2.002229 1_655
O1 Ti3 2.002229 1_655
O1 Ti0 2.002229 1_555
O2 Ti3 2.002229 1_556
O2 Ti1 2.002229 1_555
O2 Ti0 2.002229 1_556
O3 Ti2 2.002229 1_655
O3 Ti1 2.002229 1_565
O3 Ti0 2.002229 1_556
O4 Ti2 2.002229 1_655
O4 Ti1 2.002229 1_555
O4 Ti3 2.002229 1_656
O5 Ti3 2.002229 1_566
O5 Ti2 2.002229 1_555
O5 Ti0 2.002229 1_556
O6 Ti3 2.002229 1_665
O6 Ti1 2.002229 1_565
O6 Ti0 2.002229 1_555
O7 Ti1 2.002229 1_555
O7 Ti2 2.002229 1_555
O7 Ti0 2.002229 1_555
