# generated using pymatgen
data_PbS
_symmetry_space_group_name_H-M   'P 1'
_cell_length_a   4.03314200
_cell_length_b   5.94564100
_cell_length_c   10.56022666
_cell_angle_alpha   86.40497489
_cell_angle_beta   90.00000000
_cell_angle_gamma   90.00000000
_symmetry_Int_Tables_number   1
_chemical_formula_structural   PbS
_chemical_formula_sum   'Pb4 S4'
_cell_volume   252.73185143
_cell_formula_units_Z   4
loop_
 _symmetry_equiv_pos_site_id
 _symmetry_equiv_pos_as_xyz
  1  'x, y, z'
loop_
 _atom_site_type_symbol
 _atom_site_label
 _atom_site_symmetry_multiplicity
 _atom_site_fract_x
 _atom_site_fract_y
 _atom_site_fract_z
 _atom_site_occupancy
  Pb  Pb0  1  0.75000000  0.30896500  0.63270800  1
  Pb  Pb1  1  0.25000000  0.69103500  0.36729200  1
  Pb  Pb2  1  0.75000000  0.75356000  0.89674500  1
  Pb  Pb3  1  0.25000000  0.24644000  0.10325500  1
  S  S0  1  0.75000000  0.26242400  0.92469100  1
  S  S1  1  0.25000000  0.73757600  0.07530900  1
  S  S2  1  0.25000000  0.61745500  0.64378000  1
  S  S3  1  0.75000000  0.38254500  0.35622000  1
loop_
_geom_bond_atom_site_label_1
_geom_bond_atom_site_label_2
_geom_bond_distance
_geom_bond_site_symmetry_2
Pb0 S2 2.733369 1_555
Pb0 S2 2.733369 1_655
Pb0 S3 2.925114 1_555
Pb0 S0 3.078468 1_555
Pb1 S3 2.733369 1_455
Pb1 S3 2.733369 1_555
Pb1 S2 2.925114 1_555
Pb1 S1 3.078468 1_555
Pb2 S1 2.758422 1_656
Pb2 S1 2.758422 1_556
Pb2 S0 2.916524 1_555
Pb2 S0 3.058244 1_565
Pb3 S0 2.758422 1_454
Pb3 S0 2.758422 1_554
Pb3 S1 2.916524 1_555
Pb3 S1 3.058244 1_545
