# generated using pymatgen
data_LiV6O11F
_symmetry_space_group_name_H-M   'P 1'
_cell_length_a   4.68341669
_cell_length_b   4.71491510
_cell_length_c   9.00860445
_cell_angle_alpha   89.89404597
_cell_angle_beta   89.81386784
_cell_angle_gamma   91.75214933
_symmetry_Int_Tables_number   1
_chemical_formula_structural   LiV6O11F
_chemical_formula_sum   'Li1 V6 O11 F1'
_cell_volume   198.83277482
_cell_formula_units_Z   1
loop_
 _symmetry_equiv_pos_site_id
 _symmetry_equiv_pos_as_xyz
  1  'x, y, z'
loop_
 _atom_site_type_symbol
 _atom_site_label
 _atom_site_symmetry_multiplicity
 _atom_site_fract_x
 _atom_site_fract_y
 _atom_site_fract_z
 _atom_site_occupancy
  Li  Li0  1  0.99741700  0.49996400  0.59541900  1
  V  V0  1  0.02272800  0.97895300  0.01843600  1
  V  V1  1  0.99810400  0.99969500  0.33513100  1
  V  V2  1  0.00513600  0.99691400  0.66718300  1
  V  V3  1  0.53015000  0.47032200  0.16298900  1
  V  V4  1  0.46573000  0.53761300  0.83658300  1
  V  V5  1  0.50542900  0.49065200  0.49187800  1
  O  O0  1  0.20160000  0.79744200  0.15664300  1
  O  O1  1  0.19405500  0.79694100  0.50370600  1
  O  O2  1  0.19733300  0.80208500  0.84033500  1
  O  O3  1  0.30573400  0.30360800  0.99861900  1
  O  O4  1  0.30228700  0.30951700  0.32954100  1
  O  O5  1  0.29900800  0.31213300  0.67044600  1
  O  O6  1  0.69665100  0.69779300  0.99853500  1
  O  O7  1  0.68675000  0.69782500  0.32921500  1
  O  O8  1  0.69429700  0.69457900  0.66897600  1
  O  O9  1  0.80257500  0.19968600  0.16227300  1
  O  O10  1  0.78866900  0.21544200  0.50210900  1
  F  F0  1  0.80634700  0.19883400  0.83912100  1
loop_
_geom_bond_atom_site_label_1
_geom_bond_atom_site_label_2
_geom_bond_distance
_geom_bond_site_symmetry_2
Li0 O5 1.821181 1_655
Li0 O8 1.836367 1_555
Li0 O10 1.841555 1_555
Li0 O1 1.844799 1_655
O0 V0 1.740987 1_555
O0 V1 2.110546 1_455
O0 V3 2.212504 1_555
O1 V2 1.971890 1_555
O1 V1 2.029690 1_455
O1 V5 2.086102 1_555
O2 V4 1.797743 1_555
O2 V0 1.994113 1_556
O2 V2 2.035098 1_555
O3 V4 1.961110 1_555
O3 V3 1.969526 1_556
O3 V0 2.001284 1_546
O4 V5 1.933186 1_555
O4 V3 1.975050 1_555
O4 V1 2.009467 1_445
O5 V4 1.985605 1_555
O5 V2 1.994831 1_545
O5 V5 2.041067 1_555
O6 V4 1.957797 1_555
O6 V3 1.971970 1_556
O6 V0 2.000134 1_656
O7 V5 1.938681 1_555
O7 V3 1.973796 1_555
O7 V1 2.007191 1_555
O8 V4 1.977465 1_555
O8 V2 2.006102 1_655
O8 V5 2.053060 1_555
O9 V3 1.831854 1_555
O9 V0 1.971595 1_645
O9 V1 2.051649 1_545
O10 V5 1.886143 1_555
O10 V1 2.077664 1_545
O10 V2 2.090176 1_645
F0 V2 2.054896 1_645
F0 V0 2.186300 1_646
F0 V4 2.291874 1_555
