# generated using pymatgen
data_CrO3
_symmetry_space_group_name_H-M   'P 1'
_cell_length_a   5.70298312
_cell_length_b   5.70298312
_cell_length_c   11.07015500
_cell_angle_alpha   90.00000000
_cell_angle_beta   90.00000000
_cell_angle_gamma   119.99998974
_symmetry_Int_Tables_number   1
_chemical_formula_structural   CrO3
_chemical_formula_sum   'Cr6 O18'
_cell_volume   311.80893072
_cell_formula_units_Z   6
loop_
 _symmetry_equiv_pos_site_id
 _symmetry_equiv_pos_as_xyz
  1  'x, y, z'
loop_
 _atom_site_type_symbol
 _atom_site_label
 _atom_site_symmetry_multiplicity
 _atom_site_fract_x
 _atom_site_fract_y
 _atom_site_fract_z
 _atom_site_occupancy
  Cr  Cr0  1  0.65611300  0.00000000  0.50236600  1
  Cr  Cr1  1  0.65611300  0.65611300  0.00236600  1
  Cr  Cr2  1  0.00000000  0.34388700  0.00236600  1
  Cr  Cr3  1  0.00000000  0.65611300  0.50236600  1
  Cr  Cr4  1  0.34388700  0.34388700  0.50236600  1
  Cr  Cr5  1  0.34388700  0.00000000  0.00236600  1
  O  O0  1  0.66666700  0.33333300  0.03312600  1
  O  O1  1  0.33333300  0.66666700  0.53312600  1
  O  O2  1  0.66666700  0.33333300  0.53312600  1
  O  O3  1  0.33333300  0.66666700  0.03312600  1
  O  O4  1  0.00000000  0.00000000  0.95395100  1
  O  O5  1  0.00000000  0.00000000  0.45395100  1
  O  O6  1  0.37098600  0.00000000  0.85646400  1
  O  O7  1  0.37098600  0.37098600  0.35646400  1
  O  O8  1  0.00000000  0.62901400  0.35646400  1
  O  O9  1  0.00000000  0.37098600  0.85646400  1
  O  O10  1  0.62901400  0.62901400  0.85646400  1
  O  O11  1  0.62901400  0.00000000  0.35646400  1
  O  O12  1  0.21872900  0.00000000  0.14541300  1
  O  O13  1  0.21872900  0.21872900  0.64541300  1
  O  O14  1  0.00000000  0.78127100  0.64541300  1
  O  O15  1  0.00000000  0.21872900  0.14541300  1
  O  O16  1  0.78127100  0.78127100  0.14541300  1
  O  O17  1  0.78127100  0.00000000  0.64541300  1
loop_
_geom_bond_atom_site_label_1
_geom_bond_atom_site_label_2
_geom_bond_distance
_geom_bond_site_symmetry_2
Cr0 O11 1.622535 1_555
Cr0 O17 1.736983 1_555
Cr0 O2 1.902348 1_555
Cr0 O1 1.902351 1_545
Cr0 O5 2.033098 1_655
Cr1 O10 1.622535 1_554
Cr1 O16 1.736984 1_555
Cr1 O3 1.902354 1_555
Cr1 O0 1.902354 1_555
Cr1 O4 2.033099 1_664
Cr2 O9 1.622535 1_554
Cr2 O15 1.736983 1_555
Cr2 O0 1.902348 1_455
Cr2 O3 1.902351 1_555
Cr2 O4 2.033098 1_554
Cr3 O8 1.622535 1_555
Cr3 O14 1.736983 1_555
Cr3 O1 1.902348 1_555
Cr3 O2 1.902351 1_455
Cr3 O5 2.033098 1_565
Cr4 O7 1.622535 1_555
Cr4 O13 1.736984 1_555
Cr4 O1 1.902354 1_555
Cr4 O2 1.902354 1_555
Cr4 O5 2.033099 1_555
Cr5 O6 1.622535 1_554
Cr5 O12 1.736983 1_555
Cr5 O3 1.902348 1_545
Cr5 O0 1.902351 1_555
Cr5 O4 2.033098 1_554
