# generated using pymatgen
data_Al4Ni15Sn
_symmetry_space_group_name_H-M   'P 1'
_cell_length_a   3.61717200
_cell_length_b   3.61717200
_cell_length_c   17.89136400
_cell_angle_alpha   90.00000000
_cell_angle_beta   90.00000000
_cell_angle_gamma   90.00000000
_symmetry_Int_Tables_number   1
_chemical_formula_structural   Al4Ni15Sn
_chemical_formula_sum   'Al4 Ni15 Sn1'
_cell_volume   234.08941282
_cell_formula_units_Z   1
loop_
 _symmetry_equiv_pos_site_id
 _symmetry_equiv_pos_as_xyz
  1  'x, y, z'
loop_
 _atom_site_type_symbol
 _atom_site_label
 _atom_site_symmetry_multiplicity
 _atom_site_fract_x
 _atom_site_fract_y
 _atom_site_fract_z
 _atom_site_occupancy
  Al  Al0  1  0.00000000  0.00000000  0.20367200  1
  Al  Al1  1  0.00000000  0.00000000  0.39997300  1
  Al  Al2  1  0.00000000  0.00000000  0.60002700  1
  Al  Al3  1  0.00000000  0.00000000  0.79632800  1
  Ni  Ni0  1  0.50000000  0.50000000  0.00000000  1
  Ni  Ni1  1  0.50000000  0.50000000  0.20295000  1
  Ni  Ni2  1  0.50000000  0.50000000  0.40024500  1
  Ni  Ni3  1  0.50000000  0.50000000  0.59975500  1
  Ni  Ni4  1  0.50000000  0.50000000  0.79705000  1
  Ni  Ni5  1  0.50000000  0.00000000  0.10689100  1
  Ni  Ni6  1  0.50000000  0.00000000  0.30117500  1
  Ni  Ni7  1  0.50000000  0.00000000  0.50000000  1
  Ni  Ni8  1  0.50000000  0.00000000  0.69882500  1
  Ni  Ni9  1  0.50000000  0.00000000  0.89310900  1
  Ni  Ni10  1  0.00000000  0.50000000  0.10689100  1
  Ni  Ni11  1  0.00000000  0.50000000  0.30117500  1
  Ni  Ni12  1  0.00000000  0.50000000  0.50000000  1
  Ni  Ni13  1  0.00000000  0.50000000  0.69882500  1
  Ni  Ni14  1  0.00000000  0.50000000  0.89310900  1
  Sn  Sn0  1  0.00000000  0.00000000  0.00000000  1
loop_
_geom_bond_atom_site_label_1
_geom_bond_atom_site_label_2
_geom_bond_distance
_geom_bond_site_symmetry_2
Al0 Ni5 2.503843 1_555
Al0 Ni10 2.503843 1_545
Al0 Ni10 2.503843 1_555
Al0 Ni5 2.503843 1_455
Al0 Ni11 2.512793 1_555
Al0 Ni6 2.512793 1_555
Al0 Ni6 2.512793 1_455
Al0 Ni11 2.512793 1_545
Al0 Ni1 2.557759 1_545
Al0 Ni1 2.557759 1_455
Al0 Ni1 2.557759 1_555
Al0 Ni1 2.557759 1_445
Al1 Ni6 2.528933 1_455
Al1 Ni11 2.528933 1_545
Al1 Ni11 2.528933 1_555
Al1 Ni6 2.528933 1_555
Al1 Ni12 2.544351 1_555
Al1 Ni12 2.544351 1_545
Al1 Ni7 2.544351 1_455
Al1 Ni7 2.544351 1_555
Al1 Ni2 2.557731 1_455
Al1 Ni2 2.557731 1_445
Al1 Ni2 2.557731 1_555
Al1 Ni2 2.557731 1_545
Al2 Ni8 2.528933 1_455
Al2 Ni8 2.528933 1_555
Al2 Ni13 2.528933 1_555
Al2 Ni13 2.528933 1_545
Al2 Ni12 2.544351 1_555
Al2 Ni12 2.544351 1_545
Al2 Ni7 2.544351 1_455
Al2 Ni7 2.544351 1_555
Al2 Ni3 2.557731 1_445
Al2 Ni3 2.557731 1_555
Al2 Ni3 2.557731 1_545
Al2 Ni3 2.557731 1_455
Al3 Ni14 2.503843 1_545
Al3 Ni9 2.503843 1_555
Al3 Ni9 2.503843 1_455
Al3 Ni14 2.503843 1_555
Al3 Ni13 2.512793 1_555
Al3 Ni13 2.512793 1_545
Al3 Ni8 2.512793 1_555
Al3 Ni8 2.512793 1_455
Al3 Ni4 2.557759 1_555
Al3 Ni4 2.557759 1_545
Al3 Ni4 2.557759 1_455
Al3 Ni4 2.557759 1_445
Ni0 Sn0 2.557727 1_665
Ni0 Sn0 2.557727 1_555
Ni0 Sn0 2.557727 1_565
Ni0 Sn0 2.557727 1_655
Ni0 Ni9 2.632177 1_564
Ni0 Ni9 2.632177 1_554
Ni0 Ni14 2.632177 1_654
Ni0 Ni14 2.632177 1_554
Ni0 Ni5 2.632177 1_565
Ni0 Ni10 2.632177 1_555
Ni0 Ni5 2.632177 1_555
Ni0 Ni10 2.632177 1_655
Ni1 Ni5 2.494927 1_555
Ni1 Ni10 2.494927 1_655
Ni1 Ni10 2.494927 1_555
Ni1 Ni5 2.494927 1_565
Ni1 Ni6 2.521778 1_565
Ni1 Ni6 2.521778 1_555
Ni1 Ni11 2.521778 1_655
Ni1 Ni11 2.521778 1_555
Ni2 Ni6 2.532337 1_565
Ni2 Ni6 2.532337 1_555
Ni2 Ni7 2.540930 1_555
Ni2 Ni7 2.540930 1_565
Ni3 Ni8 2.532337 1_555
Ni3 Ni8 2.532337 1_565
Ni3 Ni7 2.540930 1_565
Ni3 Ni7 2.540930 1_555
Ni4 Ni9 2.494927 1_565
Ni4 Ni9 2.494927 1_555
Ni4 Ni8 2.521778 1_555
Ni4 Ni8 2.521778 1_565
Ni5 Sn0 2.632177 1_555
Ni5 Sn0 2.632177 1_655
Ni9 Sn0 2.632177 1_556
Ni9 Sn0 2.632177 1_656
Ni10 Ni5 2.557727 1_565
Ni10 Ni5 2.557727 1_555
Ni10 Ni5 2.557727 1_455
Ni10 Ni5 2.557727 1_465
Ni10 Sn0 2.632177 1_555
Ni10 Sn0 2.632177 1_565
Ni11 Ni2 2.532337 1_455
Ni11 Ni2 2.532337 1_555
Ni11 Ni6 2.557727 1_455
Ni11 Ni6 2.557727 1_465
Ni11 Ni6 2.557727 1_565
Ni11 Ni6 2.557727 1_555
Ni12 Ni2 2.540930 1_455
Ni12 Ni2 2.540930 1_555
Ni12 Ni3 2.540930 1_455
Ni12 Ni3 2.540930 1_555
Ni12 Ni7 2.557727 1_465
Ni12 Ni7 2.557727 1_565
Ni12 Ni7 2.557727 1_455
Ni12 Ni7 2.557727 1_555
Ni13 Ni4 2.521778 1_455
Ni13 Ni4 2.521778 1_555
Ni13 Ni3 2.532337 1_455
Ni13 Ni3 2.532337 1_555
Ni13 Ni8 2.557727 1_455
Ni13 Ni8 2.557727 1_555
Ni13 Ni8 2.557727 1_565
Ni13 Ni8 2.557727 1_465
Ni14 Ni4 2.494927 1_455
Ni14 Ni4 2.494927 1_555
Ni14 Ni9 2.557727 1_455
Ni14 Ni9 2.557727 1_465
Ni14 Ni9 2.557727 1_565
Ni14 Ni9 2.557727 1_555
Ni14 Sn0 2.632177 1_556
Ni14 Sn0 2.632177 1_566
