# generated using pymatgen
data_SrMg
_symmetry_space_group_name_H-M   'P 1'
_cell_length_a   8.29777600
_cell_length_b   12.13034600
_cell_length_c   12.18342400
_cell_angle_alpha   90.00000000
_cell_angle_beta   90.00000000
_cell_angle_gamma   90.00000000
_symmetry_Int_Tables_number   1
_chemical_formula_structural   SrMg
_chemical_formula_sum   'Sr16 Mg16'
_cell_volume   1226.32125019
_cell_formula_units_Z   16
loop_
 _symmetry_equiv_pos_site_id
 _symmetry_equiv_pos_as_xyz
  1  'x, y, z'
loop_
 _atom_site_type_symbol
 _atom_site_label
 _atom_site_symmetry_multiplicity
 _atom_site_fract_x
 _atom_site_fract_y
 _atom_site_fract_z
 _atom_site_occupancy
  Sr  Sr0_0  1  0.00000000  0.04788700  0.00000000  1
  Sr  Sr0_1  1  0.00000000  0.04788700  0.50000000  1
  Sr  Sr0_2  1  0.00000000  0.54788700  0.00000000  1
  Sr  Sr0_3  1  0.00000000  0.54788700  0.50000000  1
  Sr  Sr0_4  1  0.50000000  0.04788700  0.00000000  1
  Sr  Sr0_5  1  0.50000000  0.04788700  0.50000000  1
  Sr  Sr0_6  1  0.50000000  0.54788700  0.00000000  1
  Sr  Sr0_7  1  0.50000000  0.54788700  0.50000000  1
  Sr  Sr1_0  1  0.25000000  0.45211300  0.25000000  1
  Sr  Sr1_1  1  0.25000000  0.45211300  0.75000000  1
  Sr  Sr1_2  1  0.25000000  0.95211300  0.25000000  1
  Sr  Sr1_3  1  0.25000000  0.95211300  0.75000000  1
  Sr  Sr1_4  1  0.75000000  0.45211300  0.25000000  1
  Sr  Sr1_5  1  0.75000000  0.45211300  0.75000000  1
  Sr  Sr1_6  1  0.75000000  0.95211300  0.25000000  1
  Sr  Sr1_7  1  0.75000000  0.95211300  0.75000000  1
  Mg  Mg0_0  1  0.25000000  0.29284700  0.00000000  1
  Mg  Mg0_1  1  0.25000000  0.29284700  0.50000000  1
  Mg  Mg0_2  1  0.25000000  0.79284700  0.00000000  1
  Mg  Mg0_3  1  0.25000000  0.79284700  0.50000000  1
  Mg  Mg0_4  1  0.75000000  0.29284700  0.00000000  1
  Mg  Mg0_5  1  0.75000000  0.29284700  0.50000000  1
  Mg  Mg0_6  1  0.75000000  0.79284700  0.00000000  1
  Mg  Mg0_7  1  0.75000000  0.79284700  0.50000000  1
  Mg  Mg1_0  1  0.00000000  0.20715300  0.25000000  1
  Mg  Mg1_1  1  0.00000000  0.20715300  0.75000000  1
  Mg  Mg1_2  1  0.00000000  0.70715300  0.25000000  1
  Mg  Mg1_3  1  0.00000000  0.70715300  0.75000000  1
  Mg  Mg1_4  1  0.50000000  0.20715300  0.25000000  1
  Mg  Mg1_5  1  0.50000000  0.20715300  0.75000000  1
  Mg  Mg1_6  1  0.50000000  0.70715300  0.25000000  1
  Mg  Mg1_7  1  0.50000000  0.70715300  0.75000000  1
loop_
_geom_bond_atom_site_label_1
_geom_bond_atom_site_label_2
_geom_bond_distance
_geom_bond_site_symmetry_2
Sr0_0 Sr1_2 3.863971 1_545
Sr0_0 Sr1_6 3.863971 1_445
Sr0_0 Sr1_7 3.863971 1_444
Sr0_0 Sr1_3 3.863971 1_544
Sr0_0 Sr0_4 4.148888 1_455
Sr0_0 Sr0_4 4.148888 1_555
Sr0_1 Sr1_7 3.863971 1_445
Sr0_1 Sr1_3 3.863971 1_545
Sr0_1 Sr1_2 3.863971 1_545
Sr0_1 Sr1_6 3.863971 1_445
Sr0_1 Sr0_5 4.148888 1_555
Sr0_1 Sr0_5 4.148888 1_455
Sr0_2 Sr1_0 3.863971 1_555
Sr0_2 Sr1_4 3.863971 1_455
Sr0_2 Sr1_1 3.863971 1_554
Sr0_2 Sr1_5 3.863971 1_454
Sr0_2 Sr0_6 4.148888 1_455
Sr0_2 Sr0_6 4.148888 1_555
Sr0_3 Sr1_5 3.863971 1_455
Sr0_3 Sr1_1 3.863971 1_555
Sr0_3 Sr1_0 3.863971 1_555
Sr0_3 Sr1_4 3.863971 1_455
Sr0_3 Sr0_7 4.148888 1_455
Sr0_3 Sr0_7 4.148888 1_555
Sr0_4 Sr1_2 3.863971 1_545
Sr0_4 Sr1_6 3.863971 1_545
Sr0_4 Sr1_7 3.863971 1_544
Sr0_4 Sr1_3 3.863971 1_544
Sr0_5 Sr1_7 3.863971 1_545
Sr0_5 Sr1_3 3.863971 1_545
Sr0_5 Sr1_2 3.863971 1_545
Sr0_5 Sr1_6 3.863971 1_545
Sr0_6 Sr1_0 3.863971 1_555
Sr0_6 Sr1_4 3.863971 1_555
Sr0_6 Sr1_1 3.863971 1_554
Sr0_6 Sr1_5 3.863971 1_554
Sr0_7 Sr1_1 3.863971 1_555
Sr0_7 Sr1_5 3.863971 1_555
Sr0_7 Sr1_0 3.863971 1_555
Sr0_7 Sr1_4 3.863971 1_555
Sr1_0 Sr1_4 4.148888 1_455
Sr1_0 Sr1_4 4.148888 1_555
Sr1_1 Sr1_5 4.148888 1_455
Sr1_1 Sr1_5 4.148888 1_555
Sr1_2 Sr1_6 4.148888 1_555
Sr1_2 Sr1_6 4.148888 1_455
Sr1_3 Sr1_7 4.148888 1_455
Sr1_3 Sr1_7 4.148888 1_555
Mg0_0 Sr1_0 3.606893 1_555
Mg0_0 Sr1_1 3.606893 1_554
Mg0_0 Sr0_0 3.623925 1_555
Mg0_0 Sr0_4 3.623925 1_555
Mg0_0 Sr0_2 3.724841 1_555
Mg0_0 Sr0_6 3.724841 1_555
Mg0_1 Sr1_1 3.606893 1_555
Mg0_1 Sr1_0 3.606893 1_555
Mg0_1 Sr0_5 3.623925 1_555
Mg0_1 Sr0_1 3.623925 1_555
Mg0_1 Sr0_3 3.724841 1_555
Mg0_1 Sr0_7 3.724841 1_555
Mg0_2 Sr1_2 3.606893 1_555
Mg0_2 Sr1_3 3.606893 1_554
Mg0_2 Sr0_6 3.623925 1_555
Mg0_2 Sr0_2 3.623925 1_555
Mg0_2 Sr0_0 3.724841 1_565
Mg0_2 Sr0_4 3.724841 1_565
Mg0_3 Sr1_3 3.606893 1_555
Mg0_3 Sr1_2 3.606893 1_555
Mg0_3 Sr0_7 3.623925 1_555
Mg0_3 Sr0_3 3.623925 1_555
Mg0_3 Sr0_1 3.724841 1_565
Mg0_3 Sr0_5 3.724841 1_565
Mg0_4 Sr1_4 3.606893 1_555
Mg0_4 Sr1_5 3.606893 1_554
Mg0_4 Sr0_0 3.623925 1_655
Mg0_4 Sr0_4 3.623925 1_555
Mg0_4 Sr0_2 3.724841 1_655
Mg0_4 Sr0_6 3.724841 1_555
Mg0_5 Sr1_5 3.606893 1_555
Mg0_5 Sr1_4 3.606893 1_555
Mg0_5 Sr0_1 3.623925 1_655
Mg0_5 Sr0_5 3.623925 1_555
Mg0_5 Sr0_3 3.724841 1_655
Mg0_5 Sr0_7 3.724841 1_555
Mg0_6 Sr1_6 3.606893 1_555
Mg0_6 Sr1_7 3.606893 1_554
Mg0_6 Sr0_6 3.623925 1_555
Mg0_6 Sr0_2 3.623925 1_655
Mg0_6 Sr0_4 3.724841 1_565
Mg0_6 Sr0_0 3.724841 1_665
Mg0_7 Sr1_7 3.606893 1_555
Mg0_7 Sr1_6 3.606893 1_555
Mg0_7 Sr0_3 3.623925 1_655
Mg0_7 Sr0_7 3.623925 1_555
Mg0_7 Sr0_1 3.724841 1_665
Mg0_7 Sr0_5 3.724841 1_565
Mg1_0 Sr0_1 3.606893 1_555
Mg1_0 Sr0_0 3.606893 1_555
Mg1_0 Sr1_0 3.623925 1_555
Mg1_0 Sr1_4 3.623925 1_455
Mg1_0 Sr1_2 3.724841 1_545
Mg1_0 Sr1_6 3.724841 1_445
Mg1_1 Sr0_1 3.606893 1_555
Mg1_1 Sr0_0 3.606893 1_556
Mg1_1 Sr1_1 3.623925 1_555
Mg1_1 Sr1_5 3.623925 1_455
Mg1_1 Sr1_7 3.724841 1_445
Mg1_1 Sr1_3 3.724841 1_545
Mg1_2 Sr0_2 3.606893 1_555
Mg1_2 Sr0_3 3.606893 1_555
Mg1_2 Sr1_6 3.623925 1_455
Mg1_2 Sr1_2 3.623925 1_555
Mg1_2 Sr1_4 3.724841 1_455
Mg1_2 Sr1_0 3.724841 1_555
Mg1_3 Sr0_3 3.606893 1_555
Mg1_3 Sr0_2 3.606893 1_556
Mg1_3 Sr1_7 3.623925 1_455
Mg1_3 Sr1_3 3.623925 1_555
Mg1_3 Sr1_1 3.724841 1_555
Mg1_3 Sr1_5 3.724841 1_455
Mg1_4 Sr0_4 3.606893 1_555
Mg1_4 Sr0_5 3.606893 1_555
Mg1_4 Sr1_0 3.623925 1_555
Mg1_4 Sr1_4 3.623925 1_555
Mg1_4 Sr1_2 3.724841 1_545
Mg1_4 Sr1_6 3.724841 1_545
Mg1_5 Sr0_5 3.606893 1_555
Mg1_5 Sr0_4 3.606893 1_556
Mg1_5 Sr1_1 3.623925 1_555
Mg1_5 Sr1_5 3.623925 1_555
Mg1_5 Sr1_7 3.724841 1_545
Mg1_5 Sr1_3 3.724841 1_545
Mg1_6 Sr0_6 3.606893 1_555
Mg1_6 Sr0_7 3.606893 1_555
Mg1_6 Sr1_2 3.623925 1_555
Mg1_6 Sr1_6 3.623925 1_555
Mg1_6 Sr1_0 3.724841 1_555
Mg1_6 Sr1_4 3.724841 1_555
Mg1_7 Sr0_7 3.606893 1_555
Mg1_7 Sr0_6 3.606893 1_556
Mg1_7 Sr1_3 3.623925 1_555
Mg1_7 Sr1_7 3.623925 1_555
Mg1_7 Sr1_1 3.724841 1_555
Mg1_7 Sr1_5 3.724841 1_555
