# generated using pymatgen
data_HgPO4
_symmetry_space_group_name_H-M   'P 1'
_cell_length_a   4.90456100
_cell_length_b   14.58105100
_cell_length_c   7.93575878
_cell_angle_alpha   90.00000000
_cell_angle_beta   125.36549303
_cell_angle_gamma   90.00000000
_symmetry_Int_Tables_number   1
_chemical_formula_structural   HgPO4
_chemical_formula_sum   'Hg4 P4 O16'
_cell_volume   462.79524881
_cell_formula_units_Z   4
loop_
 _symmetry_equiv_pos_site_id
 _symmetry_equiv_pos_as_xyz
  1  'x, y, z'
loop_
 _atom_site_type_symbol
 _atom_site_label
 _atom_site_symmetry_multiplicity
 _atom_site_fract_x
 _atom_site_fract_y
 _atom_site_fract_z
 _atom_site_occupancy
  Hg  Hg0  1  0.73519100  0.02000100  0.69213300  1
  Hg  Hg1  1  0.73519100  0.47999900  0.19213300  1
  Hg  Hg2  1  0.26480900  0.97999900  0.30786700  1
  Hg  Hg3  1  0.26480900  0.52000100  0.80786700  1
  P  P0  1  0.44374100  0.13841600  0.01012600  1
  P  P1  1  0.44374100  0.36158400  0.51012600  1
  P  P2  1  0.55625900  0.86158400  0.98987400  1
  P  P3  1  0.55625900  0.63841600  0.48987400  1
  O  O0  1  0.18905900  0.06813000  0.99367100  1
  O  O1  1  0.18905900  0.43187000  0.49367100  1
  O  O2  1  0.81094100  0.93187000  0.00632900  1
  O  O3  1  0.81094100  0.56813000  0.50632900  1
  O  O4  1  0.45092100  0.13192400  0.81950100  1
  O  O5  1  0.45092100  0.36807600  0.31950100  1
  O  O6  1  0.54907900  0.86807600  0.18049900  1
  O  O7  1  0.54907900  0.63192400  0.68049900  1
  O  O8  1  0.78155800  0.12338100  0.21855200  1
  O  O9  1  0.78155800  0.37661900  0.71855200  1
  O  O10  1  0.21844200  0.87661900  0.78144800  1
  O  O11  1  0.21844200  0.62338100  0.28144800  1
  O  O12  1  0.32515800  0.23738800  0.00792000  1
  O  O13  1  0.32515800  0.26261200  0.50792000  1
  O  O14  1  0.67484200  0.76261200  0.99208000  1
  O  O15  1  0.67484200  0.73738800  0.49208000  1
loop_
_geom_bond_atom_site_label_1
_geom_bond_atom_site_label_2
_geom_bond_distance
_geom_bond_site_symmetry_2
Hg0 O0 2.237784 1_655
Hg0 O2 2.633250 1_546
Hg1 O1 2.237784 1_655
Hg1 O3 2.633250 1_555
Hg2 O2 2.237784 1_455
Hg2 O0 2.633250 1_564
Hg3 O3 2.237784 1_455
Hg3 O1 2.633250 1_555
O0 P0 1.561666 1_556
O1 P1 1.561666 1_555
O2 P2 1.561666 1_554
O3 P3 1.561666 1_555
O4 P0 1.536324 1_556
O5 P1 1.536324 1_555
O6 P2 1.536324 1_554
O7 P3 1.536324 1_555
O8 P0 1.535147 1_555
O9 P1 1.535147 1_555
O10 P2 1.535147 1_555
O11 P3 1.535147 1_555
O12 P0 1.552211 1_555
O13 P1 1.552211 1_555
O14 P2 1.552211 1_555
O15 P3 1.552211 1_555
