# generated using pymatgen
data_KNaMo2O5
_symmetry_space_group_name_H-M   'P 1'
_cell_length_a   11.50029218
_cell_length_b   11.76999144
_cell_length_c   17.46006695
_cell_angle_alpha   109.75716736
_cell_angle_beta   109.24204850
_cell_angle_gamma   89.90447854
_symmetry_Int_Tables_number   1
_chemical_formula_structural   KNaMo2O5
_chemical_formula_sum   'K16 Na16 Mo32 O80'
_cell_volume   2083.90945706
_cell_formula_units_Z   16
loop_
 _symmetry_equiv_pos_site_id
 _symmetry_equiv_pos_as_xyz
  1  'x, y, z'
loop_
 _atom_site_type_symbol
 _atom_site_label
 _atom_site_symmetry_multiplicity
 _atom_site_fract_x
 _atom_site_fract_y
 _atom_site_fract_z
 _atom_site_occupancy
  K  K0  1  0.30484200  0.06668900  0.10907900  1
  K  K1  1  0.30421600  0.56244500  0.10827900  1
  K  K2  1  0.80585900  0.06520800  0.11084800  1
  K  K3  1  0.80527600  0.56295200  0.10919800  1
  K  K4  1  0.19995800  0.93607500  0.39483900  1
  K  K5  1  0.19201500  0.92903200  0.88272000  1
  K  K6  1  0.70052600  0.43621800  0.39594500  1
  K  K7  1  0.69224100  0.42938900  0.88349800  1
  K  K8  1  0.69911600  0.93434800  0.39534600  1
  K  K9  1  0.05757400  0.29558600  0.10915800  1
  K  K10  1  0.05450900  0.79188800  0.10752400  1
  K  K11  1  0.55390700  0.29328700  0.10747500  1
  K  K12  1  0.55481900  0.79373000  0.10659500  1
  K  K13  1  0.45080100  0.71075000  0.39618800  1
  K  K14  1  0.44078300  0.70464300  0.88271600  1
  K  K15  1  0.94164100  0.70297900  0.88258200  1
  Na  Na0  1  0.29997500  0.06938700  0.60425200  1
  Na  Na1  1  0.30084400  0.56528800  0.60146600  1
  Na  Na2  1  0.80192200  0.06735600  0.60444000  1
  Na  Na3  1  0.79922000  0.56759500  0.60254000  1
  Na  Na4  1  0.20185200  0.43718200  0.40365900  1
  Na  Na5  1  0.19808300  0.43306600  0.89545200  1
  Na  Na6  1  0.69700800  0.93331700  0.89483200  1
  Na  Na7  1  0.05131100  0.28425800  0.60273000  1
  Na  Na8  1  0.05116100  0.78577200  0.60223800  1
  Na  Na9  1  0.55077700  0.28588400  0.60205300  1
  Na  Na10  1  0.55181800  0.78588000  0.60364900  1
  Na  Na11  1  0.45157400  0.21574200  0.40458500  1
  Na  Na12  1  0.44716100  0.21163200  0.89511300  1
  Na  Na13  1  0.95070000  0.21699600  0.40403300  1
  Na  Na14  1  0.94664000  0.21214800  0.89508600  1
  Na  Na15  1  0.95048900  0.71580500  0.40329900  1
  Mo  Mo0  1  0.00502700  0.99864600  0.99544200  1
  Mo  Mo1  1  0.01404800  0.00232000  0.50506800  1
  Mo  Mo2  1  0.00452700  0.49581800  0.99453600  1
  Mo  Mo3  1  0.01476400  0.50172800  0.50304100  1
  Mo  Mo4  1  0.50467000  0.99816100  0.99383600  1
  Mo  Mo5  1  0.51404100  0.00527800  0.50698200  1
  Mo  Mo6  1  0.50504100  0.49628800  0.99487800  1
  Mo  Mo7  1  0.51450000  0.50148200  0.50605300  1
  Mo  Mo8  1  0.25492100  0.24809100  0.99410600  1
  Mo  Mo9  1  0.26399800  0.25334600  0.50453700  1
  Mo  Mo10  1  0.25436200  0.74643500  0.99464100  1
  Mo  Mo11  1  0.26336400  0.75068500  0.50486800  1
  Mo  Mo12  1  0.75552100  0.24500200  0.99307800  1
  Mo  Mo13  1  0.76610900  0.25141500  0.50524600  1
  Mo  Mo14  1  0.75481800  0.74902200  0.99540200  1
  Mo  Mo15  1  0.76543900  0.75311800  0.50713500  1
  Mo  Mo16  1  0.09814300  0.10623400  0.25742600  1
  Mo  Mo17  1  0.08834500  0.09619100  0.74655200  1
  Mo  Mo18  1  0.09659400  0.59336500  0.25692600  1
  Mo  Mo19  1  0.08970900  0.58337900  0.74066400  1
  Mo  Mo20  1  0.59792800  0.10005300  0.25511700  1
  Mo  Mo21  1  0.58822100  0.08836200  0.74616900  1
  Mo  Mo22  1  0.59919600  0.59245300  0.25175100  1
  Mo  Mo23  1  0.58892300  0.58959500  0.74319800  1
  Mo  Mo24  1  0.34595300  0.40343300  0.25757400  1
  Mo  Mo25  1  0.33802400  0.39948900  0.74628100  1
  Mo  Mo26  1  0.34827200  0.91444000  0.25245100  1
  Mo  Mo27  1  0.33954700  0.90961700  0.74199300  1
  Mo  Mo28  1  0.85402800  0.40612100  0.25398100  1
  Mo  Mo29  1  0.84219100  0.39993200  0.74296700  1
  Mo  Mo30  1  0.85138300  0.91076500  0.25509000  1
  Mo  Mo31  1  0.83657500  0.91097300  0.74655100  1
  O  O0  1  0.12803000  0.12437600  0.48968100  1
  O  O1  1  0.12192600  0.12071800  0.98338200  1
  O  O2  1  0.12745000  0.61651600  0.48381700  1
  O  O3  1  0.12381000  0.61345300  0.98259000  1
  O  O4  1  0.63024500  0.12505000  0.49332800  1
  O  O5  1  0.62279500  0.11494100  0.97958400  1
  O  O6  1  0.63213200  0.62343000  0.49478400  1
  O  O7  1  0.62352500  0.61860700  0.98537100  1
  O  O8  1  0.13264100  0.37617000  0.00229800  1
  O  O9  1  0.14667900  0.38649400  0.51994500  1
  O  O10  1  0.13431200  0.87685000  0.00657900  1
  O  O11  1  0.14474600  0.88206000  0.52075500  1
  O  O12  1  0.63288500  0.37381600  0.00429800  1
  O  O13  1  0.64643900  0.38415000  0.52232900  1
  O  O14  1  0.63472200  0.87906700  0.00460000  1
  O  O15  1  0.64798700  0.88786600  0.52568800  1
  O  O16  1  0.38150600  0.12288400  0.48949500  1
  O  O17  1  0.37418700  0.11816500  0.98138900  1
  O  O18  1  0.37869100  0.61663800  0.49219800  1
  O  O19  1  0.37099400  0.61305600  0.98292400  1
  O  O20  1  0.88248700  0.11989100  0.48928500  1
  O  O21  1  0.87271300  0.11452900  0.98060900  1
  O  O22  1  0.88365200  0.62214300  0.49156100  1
  O  O23  1  0.87348600  0.61679200  0.98555300  1
  O  O24  1  0.38303500  0.37722000  0.00312900  1
  O  O25  1  0.39644800  0.38579700  0.52085500  1
  O  O26  1  0.38358500  0.87907200  0.00585900  1
  O  O27  1  0.39746400  0.89076800  0.52601900  1
  O  O28  1  0.88530100  0.37581400  0.00475300  1
  O  O29  1  0.89835600  0.38604400  0.52190700  1
  O  O30  1  0.88198400  0.88000100  0.00476800  1
  O  O31  1  0.89706300  0.88672000  0.52257200  1
  O  O32  1  0.07433800  0.08985800  0.13834400  1
  O  O33  1  0.09053500  0.11040500  0.64010800  1
  O  O34  1  0.07686000  0.58524800  0.14112200  1
  O  O35  1  0.09583300  0.61047700  0.64017600  1
  O  O36  1  0.57453600  0.08931600  0.13743300  1
  O  O37  1  0.59052200  0.11216200  0.64356100  1
  O  O38  1  0.57667200  0.58968100  0.13684000  1
  O  O39  1  0.59301000  0.61263400  0.64076100  1
  O  O40  1  0.44810800  0.39116700  0.36541800  1
  O  O41  1  0.43970500  0.39345500  0.85602100  1
  O  O42  1  0.44583100  0.90916300  0.36521900  1
  O  O43  1  0.44174900  0.90820000  0.85422300  1
  O  O44  1  0.95209300  0.39097900  0.36339400  1
  O  O45  1  0.93921700  0.39661500  0.85521200  1
  O  O46  1  0.94463900  0.89317100  0.36467500  1
  O  O47  1  0.94154800  0.90697500  0.85661600  1
  O  O48  1  0.32495200  0.30250600  0.13849200  1
  O  O49  1  0.33931700  0.27925500  0.63981700  1
  O  O50  1  0.32992800  0.79948900  0.13987600  1
  O  O51  1  0.34074800  0.77884700  0.64118000  1
  O  O52  1  0.83272000  0.29878700  0.13800700  1
  O  O53  1  0.84661600  0.27537700  0.63989900  1
  O  O54  1  0.83237500  0.80151500  0.14009200  1
  O  O55  1  0.84244500  0.78493400  0.64422600  1
  O  O56  1  0.20490100  0.22406200  0.36467000  1
  O  O57  1  0.19352700  0.21124700  0.85546900  1
  O  O58  1  0.20288400  0.70984300  0.36601400  1
  O  O59  1  0.18598800  0.69642700  0.85499300  1
  O  O60  1  0.70939100  0.20819300  0.36526800  1
  O  O61  1  0.70029500  0.19912500  0.85509600  1
  O  O62  1  0.70071300  0.70422300  0.36574400  1
  O  O63  1  0.68341000  0.70762300  0.85561200  1
  O  O64  1  0.44169000  0.07155300  0.26769500  1
  O  O65  1  0.41921900  0.06613600  0.74728400  1
  O  O66  1  0.44079700  0.54563500  0.25369600  1
  O  O67  1  0.41971300  0.54137800  0.73248000  1
  O  O68  1  0.94327000  0.06850900  0.26991800  1
  O  O69  1  0.92140700  0.06333300  0.74764200  1
  O  O70  1  0.93803200  0.56627700  0.26746700  1
  O  O71  1  0.91917300  0.54396900  0.73083300  1
  O  O72  1  0.18871000  0.44874700  0.26809700  1
  O  O73  1  0.17110400  0.43220200  0.74616000  1
  O  O74  1  0.18654500  0.95673500  0.25172900  1
  O  O75  1  0.16806100  0.93995600  0.73221000  1
  O  O76  1  0.69243300  0.44825600  0.25299500  1
  O  O77  1  0.67282700  0.43657800  0.73271900  1
  O  O78  1  0.68859700  0.95261700  0.25231700  1
  O  O79  1  0.66693600  0.93429300  0.74632100  1
loop_
_geom_bond_atom_site_label_1
_geom_bond_atom_site_label_2
_geom_bond_distance
_geom_bond_site_symmetry_2
K0 O48 2.642190 1_555
K0 O10 2.653167 1_545
K0 O64 2.677732 1_555
K0 O26 2.706084 1_545
K0 O1 2.746311 1_554
K0 O17 2.839077 1_554
K0 O32 2.856344 1_555
K0 O36 2.972751 1_555
K1 O66 2.581235 1_555
K1 O8 2.643742 1_555
K1 O50 2.651517 1_555
K1 O24 2.707288 1_555
K1 O3 2.714126 1_554
K1 O19 2.779554 1_554
K1 O34 2.849417 1_555
K1 O38 3.005752 1_555
K2 O52 2.627436 1_555
K2 O14 2.641022 1_545
K2 O68 2.692013 1_555
K2 O30 2.698445 1_545
K2 O5 2.783915 1_554
K2 O36 2.845245 1_555
K2 O21 2.854014 1_554
K2 O32 2.963049 1_655
K2 O54 3.309387 1_545
K3 O12 2.665629 1_555
K3 O70 2.667404 1_555
K3 O54 2.672161 1_555
K3 O28 2.721747 1_555
K3 O7 2.728862 1_554
K3 O23 2.778543 1_554
K3 O38 2.823920 1_555
K3 O34 2.981762 1_655
K4 O58 2.539588 1_555
K4 O74 2.546191 1_555
K4 O0 2.598830 1_565
K4 O16 2.685001 1_565
K4 O11 2.739919 1_555
K4 O46 2.821307 1_455
K4 O27 2.842924 1_555
K4 O42 3.035343 1_555
K5 O75 2.597982 1_555
K5 O59 2.610930 1_555
K5 O1 2.660035 1_565
K5 O10 2.709168 1_556
K5 O17 2.712277 1_565
K5 O26 2.747797 1_556
K5 O47 2.762112 1_455
K5 O43 3.068094 1_555
K6 O76 2.518782 1_555
K6 O60 2.561944 1_555
K6 O6 2.601965 1_555
K6 O22 2.690581 1_555
K6 O13 2.729858 1_555
K6 O40 2.790379 1_555
K6 O29 2.817335 1_555
K6 O44 3.138561 1_555
K7 O61 2.592396 1_555
K7 O77 2.598225 1_555
K7 O7 2.643997 1_555
K7 O12 2.688044 1_556
K7 O23 2.700937 1_555
K7 O28 2.758442 1_556
K7 O41 2.791451 1_555
K7 O45 3.041731 1_555
K8 O78 2.541887 1_555
K8 O62 2.581368 1_555
K8 O4 2.623592 1_565
K8 O20 2.687085 1_565
K8 O15 2.747554 1_555
K8 O42 2.781514 1_555
K8 O31 2.817008 1_555
K8 O46 3.051380 1_555
K9 O28 2.629998 1_455
K9 O32 2.632113 1_555
K9 O72 2.663390 1_555
K9 O8 2.717868 1_555
K9 O1 2.759873 1_554
K9 O21 2.781190 1_454
K9 O52 2.790576 1_455
K9 O48 2.942568 1_555
K9 O34 3.258632 1_555
K10 O74 2.568435 1_555
K10 O30 2.671303 1_455
K10 O34 2.681170 1_555
K10 O10 2.685053 1_555
K10 O23 2.690983 1_454
K10 O54 2.788395 1_455
K10 O3 2.801305 1_554
K10 O50 3.024401 1_555
K11 O76 2.555207 1_555
K11 O36 2.618913 1_555
K11 O24 2.647135 1_555
K11 O12 2.684095 1_555
K11 O17 2.704470 1_554
K11 O5 2.830497 1_554
K11 O48 2.852578 1_555
K11 O52 3.069249 1_555
K12 O78 2.559389 1_555
K12 O38 2.622579 1_555
K12 O26 2.623997 1_555
K12 O14 2.704736 1_555
K12 O7 2.738641 1_554
K12 O19 2.748766 1_554
K12 O50 2.827478 1_555
K12 O54 3.045230 1_555
K13 O66 2.554029 1_555
K13 O42 2.565591 1_555
K13 O18 2.626700 1_555
K13 O6 2.681670 1_555
K13 O58 2.722645 1_555
K13 O27 2.769335 1_555
K13 O15 2.837284 1_555
K13 O62 3.086630 1_555
K14 O43 2.607170 1_555
K14 O67 2.609012 1_555
K14 O19 2.659134 1_555
K14 O26 2.685868 1_556
K14 O7 2.718803 1_555
K14 O14 2.766062 1_556
K14 O59 2.804328 1_555
K14 O63 2.982071 1_555
K15 O47 2.589614 1_555
K15 O71 2.605277 1_555
K15 O23 2.653349 1_555
K15 O30 2.705179 1_556
K15 O3 2.715468 1_655
K15 O10 2.764546 1_656
K15 O63 2.852922 1_555
K15 O59 3.000133 1_655
Na0 O49 2.339542 1_555
Na0 O65 2.434322 1_555
Na0 O11 2.509611 1_545
Na0 O0 2.567983 1_555
Na0 O27 2.569579 1_545
Na0 O33 2.685545 1_555
Na0 O16 2.717259 1_555
Na1 O67 2.356584 1_555
Na1 O51 2.371770 1_555
Na1 O9 2.433491 1_555
Na1 O25 2.579712 1_555
Na1 O2 2.587078 1_555
Na1 O18 2.591085 1_555
Na1 O35 2.664861 1_555
Na2 O53 2.326331 1_555
Na2 O15 2.435539 1_545
Na2 O69 2.440755 1_555
Na2 O4 2.546446 1_555
Na2 O31 2.594056 1_545
Na2 O20 2.711758 1_555
Na2 O37 2.738971 1_555
Na3 O71 2.319713 1_555
Na3 O55 2.414049 1_555
Na3 O13 2.461065 1_555
Na3 O6 2.472418 1_555
Na3 O29 2.619917 1_555
Na3 O39 2.673949 1_555
Na3 O22 2.681975 1_555
Na4 O56 2.370191 1_555
Na4 O72 2.371846 1_555
Na4 O2 2.435632 1_555
Na4 O9 2.559338 1_555
Na4 O18 2.592625 1_555
Na4 O25 2.715699 1_555
Na4 O44 2.730543 1_455
Na5 O57 2.459785 1_555
Na5 O3 2.493749 1_555
Na5 O8 2.503355 1_556
Na5 O73 2.517937 1_555
Na5 O19 2.568974 1_555
Na5 O24 2.585700 1_556
Na5 O45 2.821748 1_455
Na6 O5 2.485092 1_565
Na6 O63 2.500183 1_555
Na6 O79 2.504496 1_555
Na6 O14 2.515499 1_556
Na6 O30 2.592695 1_556
Na6 O21 2.595244 1_565
Na6 O43 2.774326 1_555
Na7 O33 2.349948 1_555
Na7 O73 2.446918 1_555
Na7 O29 2.453704 1_455
Na7 O20 2.514492 1_455
Na7 O0 2.616646 1_555
Na7 O9 2.639189 1_555
Na7 O53 2.650903 1_455
Na8 O75 2.337421 1_555
Na8 O35 2.378175 1_555
Na8 O31 2.443906 1_455
Na8 O22 2.489385 1_455
Na8 O11 2.563231 1_555
Na8 O2 2.723708 1_555
Na8 O55 2.731992 1_455
Na9 O77 2.341557 1_555
Na9 O37 2.386497 1_555
Na9 O25 2.450423 1_555
Na9 O16 2.504850 1_555
Na9 O13 2.566648 1_555
Na9 O4 2.594353 1_555
Na9 O49 2.728927 1_555
Na10 O39 2.343069 1_555
Na10 O79 2.429319 1_555
Na10 O27 2.459753 1_555
Na10 O18 2.560800 1_555
Na10 O15 2.572609 1_555
Na10 O6 2.610781 1_555
Na10 O51 2.722891 1_555
Na11 O40 2.380927 1_555
Na11 O64 2.384315 1_555
Na11 O16 2.434651 1_555
Na11 O25 2.574163 1_555
Na11 O4 2.602829 1_555
Na11 O56 2.699056 1_555
Na11 O13 2.720419 1_555
Na12 O41 2.449776 1_555
Na12 O17 2.477988 1_555
Na12 O65 2.482906 1_555
Na12 O24 2.515179 1_556
Na12 O12 2.590308 1_556
Na12 O5 2.591090 1_555
Na12 O57 2.766658 1_555
Na13 O68 2.376319 1_555
Na13 O44 2.384758 1_555
Na13 O20 2.461730 1_555
Na13 O29 2.569259 1_555
Na13 O0 2.582292 1_655
Na13 O60 2.624057 1_555
Na13 O9 2.726618 1_655
Na14 O45 2.487594 1_555
Na14 O69 2.498075 1_555
Na14 O28 2.503378 1_556
Na14 O21 2.504528 1_555
Na14 O1 2.581546 1_655
Na14 O8 2.595773 1_656
Na14 O61 2.676268 1_555
Na15 O70 2.386966 1_555
Na15 O46 2.395576 1_555
Na15 O22 2.472467 1_555
Na15 O2 2.588586 1_655
Na15 O31 2.601566 1_555
Na15 O11 2.703228 1_655
Na15 O62 2.720144 1_555
Mo0 O21 2.053040 1_465
Mo0 O30 2.071494 1_456
Mo0 O10 2.072258 1_556
Mo0 O1 2.076920 1_565
Mo0 O47 2.154210 1_455
Mo0 O32 2.212322 1_566
Mo1 O20 2.063014 1_455
Mo1 O31 2.076755 1_445
Mo1 O11 2.078800 1_545
Mo1 O0 2.086525 1_555
Mo1 O33 2.135472 1_555
Mo1 O46 2.209306 1_445
Mo2 O8 2.040296 1_556
Mo2 O3 2.057302 1_555
Mo2 O28 2.060305 1_456
Mo2 O23 2.076319 1_455
Mo2 O45 2.173341 1_455
Mo2 O34 2.264676 1_556
Mo3 O9 2.048608 1_555
Mo3 O2 2.053424 1_555
Mo3 O22 2.075605 1_455
Mo3 O29 2.086770 1_455
Mo3 O35 2.168239 1_555
Mo3 O44 2.204485 1_455
Mo4 O14 2.054983 1_556
Mo4 O5 2.063223 1_565
Mo4 O17 2.068701 1_565
Mo4 O26 2.084698 1_556
Mo4 O43 2.163756 1_555
Mo4 O36 2.222448 1_566
Mo5 O4 2.067251 1_555
Mo5 O16 2.074708 1_555
Mo5 O27 2.080145 1_545
Mo5 O15 2.087043 1_545
Mo5 O37 2.153126 1_555
Mo5 O42 2.202683 1_545
Mo6 O24 2.056634 1_556
Mo6 O12 2.064076 1_556
Mo6 O7 2.067399 1_555
Mo6 O19 2.069706 1_555
Mo6 O41 2.173920 1_555
Mo6 O38 2.201330 1_556
Mo7 O25 2.058952 1_555
Mo7 O13 2.065030 1_555
Mo7 O18 2.073770 1_555
Mo7 O6 2.074077 1_555
Mo7 O39 2.140711 1_555
Mo7 O40 2.215941 1_555
Mo8 O24 2.048929 1_556
Mo8 O17 2.057496 1_555
Mo8 O8 2.061618 1_556
Mo8 O1 2.061800 1_555
Mo8 O57 2.170434 1_555
Mo8 O48 2.232960 1_556
Mo9 O16 2.051203 1_555
Mo9 O25 2.062342 1_555
Mo9 O0 2.071469 1_555
Mo9 O9 2.072641 1_555
Mo9 O49 2.141894 1_555
Mo9 O56 2.209583 1_555
Mo10 O19 2.064497 1_555
Mo10 O10 2.066883 1_556
Mo10 O26 2.071996 1_556
Mo10 O3 2.079720 1_555
Mo10 O59 2.162743 1_555
Mo10 O50 2.248169 1_556
Mo11 O18 2.060989 1_555
Mo11 O11 2.069109 1_555
Mo11 O2 2.075849 1_555
Mo11 O27 2.110600 1_555
Mo11 O51 2.153582 1_555
Mo11 O58 2.166639 1_555
Mo12 O21 2.045127 1_555
Mo12 O28 2.057819 1_556
Mo12 O5 2.062932 1_555
Mo12 O12 2.073721 1_556
Mo12 O61 2.147603 1_555
Mo12 O52 2.242843 1_556
Mo13 O20 2.052465 1_555
Mo13 O4 2.069044 1_555
Mo13 O29 2.076868 1_555
Mo13 O13 2.090958 1_555
Mo13 O53 2.140572 1_555
Mo13 O60 2.183414 1_555
Mo14 O30 2.054637 1_556
Mo14 O14 2.061340 1_556
Mo14 O23 2.069033 1_555
Mo14 O7 2.078062 1_555
Mo14 O63 2.178352 1_555
Mo14 O54 2.240727 1_556
Mo15 O22 2.062004 1_555
Mo15 O31 2.071037 1_555
Mo15 O6 2.072230 1_555
Mo15 O15 2.092528 1_555
Mo15 O55 2.156813 1_555
Mo15 O62 2.193046 1_555
Mo16 O56 1.916155 1_555
Mo16 O68 1.934206 1_455
Mo16 O32 1.946574 1_555
Mo16 O74 2.020403 1_545
Mo17 O57 1.913560 1_555
Mo17 O33 1.929713 1_555
Mo17 O69 1.966528 1_455
Mo17 O75 2.029537 1_545
Mo18 O58 1.925393 1_555
Mo18 O34 1.927672 1_555
Mo18 O70 1.929644 1_455
Mo18 O72 2.034665 1_555
Mo19 O35 1.909161 1_555
Mo19 O59 1.932247 1_555
Mo19 O71 1.954048 1_455
Mo19 O73 2.025389 1_555
Mo20 O60 1.920312 1_555
Mo20 O64 1.923819 1_555
Mo20 O36 1.941814 1_555
Mo20 O78 2.017722 1_545
Mo21 O37 1.912945 1_555
Mo21 O61 1.921344 1_555
Mo21 O65 1.968849 1_555
Mo21 O79 2.025848 1_545
Mo22 O66 1.918315 1_555
Mo22 O38 1.925315 1_555
Mo22 O62 1.938659 1_555
Mo22 O76 2.008527 1_555
Mo23 O39 1.912596 1_555
Mo23 O63 1.928443 1_555
Mo23 O67 1.958501 1_555
Mo23 O77 2.023851 1_555
Mo24 O40 1.916179 1_555
Mo24 O72 1.933349 1_555
Mo24 O48 1.947464 1_555
Mo24 O66 2.031500 1_555
Mo25 O41 1.912768 1_555
Mo25 O49 1.923009 1_555
Mo25 O73 1.956691 1_555
Mo25 O67 2.038661 1_555
Mo26 O50 1.915261 1_555
Mo26 O74 1.921701 1_555
Mo26 O42 1.940558 1_555
Mo26 O64 2.032251 1_565
Mo27 O51 1.910980 1_555
Mo27 O43 1.930160 1_555
Mo27 O75 1.965420 1_555
Mo27 O65 2.019067 1_565
Mo28 O76 1.918715 1_555
Mo28 O52 1.923751 1_555
Mo28 O44 1.939736 1_555
Mo28 O70 2.024388 1_555
Mo29 O53 1.914878 1_555
Mo29 O45 1.922927 1_555
Mo29 O77 1.957395 1_555
Mo29 O71 2.018468 1_555
Mo30 O54 1.923258 1_555
Mo30 O78 1.924321 1_555
Mo30 O46 1.941297 1_555
Mo30 O68 2.032751 1_565
Mo31 O47 1.919506 1_555
Mo31 O55 1.919512 1_555
Mo31 O79 1.968541 1_555
Mo31 O69 2.034324 1_565
