# generated using pymatgen
data_Li4Ti2Fe3Sb3O16
_symmetry_space_group_name_H-M   'P 1'
_cell_length_a   6.27335625
_cell_length_b   10.66508056
_cell_length_c   9.82555077
_cell_angle_alpha   89.71874364
_cell_angle_beta   91.42498434
_cell_angle_gamma   90.95130357
_symmetry_Int_Tables_number   1
_chemical_formula_structural   Li4Ti2Fe3Sb3O16
_chemical_formula_sum   'Li8 Ti4 Fe6 Sb6 O32'
_cell_volume   657.08629201
_cell_formula_units_Z   2
loop_
 _symmetry_equiv_pos_site_id
 _symmetry_equiv_pos_as_xyz
  1  'x, y, z'
loop_
 _atom_site_type_symbol
 _atom_site_label
 _atom_site_symmetry_multiplicity
 _atom_site_fract_x
 _atom_site_fract_y
 _atom_site_fract_z
 _atom_site_occupancy
  Li  Li0  1  0.50406400  0.16396200  0.89919900  1
  Li  Li1  1  0.01544900  0.65977500  0.89532100  1
  Li  Li2  1  0.98380300  0.01243300  0.98506800  1
  Li  Li3  1  0.48294500  0.50346000  0.98256000  1
  Li  Li4  1  0.00197800  0.00195300  0.50449300  1
  Li  Li5  1  0.50486700  0.50324900  0.50156200  1
  Li  Li6  1  0.47620900  0.83862300  0.40100900  1
  Li  Li7  1  0.98148300  0.33114500  0.40277700  1
  Ti  Ti0  1  0.52121000  0.15480800  0.49970400  1
  Ti  Ti1  1  0.02154600  0.65436800  0.50276800  1
  Ti  Ti2  1  0.55419400  0.81794700  0.96764000  1
  Ti  Ti3  1  0.04181700  0.32962200  0.97359500  1
  Fe  Fe0  1  0.23703600  0.58985900  0.20858200  1
  Fe  Fe1  1  0.75925600  0.90981700  0.70807600  1
  Fe  Fe2  1  0.25568400  0.40618500  0.70712200  1
  Fe  Fe3  1  0.72959100  0.08549700  0.21398300  1
  Fe  Fe4  1  0.51472600  0.66387000  0.71021900  1
  Fe  Fe5  1  0.01479300  0.16581900  0.71325800  1
  Sb  Sb0  1  0.26950000  0.90845700  0.71735900  1
  Sb  Sb1  1  0.76538300  0.40707700  0.71430900  1
  Sb  Sb2  1  0.49443700  0.33542000  0.22283000  1
  Sb  Sb3  1  0.98959400  0.83745800  0.21709600  1
  Sb  Sb4  1  0.23814600  0.09045200  0.22083100  1
  Sb  Sb5  1  0.74363000  0.59314400  0.21403800  1
  O  O0  1  0.24742700  0.22949100  0.35667700  1
  O  O1  1  0.76167600  0.75418200  0.33038600  1
  O  O2  1  0.47082600  0.15748200  0.10370500  1
  O  O3  1  0.97566700  0.67998600  0.10316300  1
  O  O4  1  0.99136400  0.00095100  0.31800700  1
  O  O5  1  0.50327700  0.52928200  0.32013500  1
  O  O6  1  0.02175000  0.99115200  0.80179100  1
  O  O7  1  0.52107400  0.49297000  0.79724600  1
  O  O8  1  0.21017300  0.92878200  0.10796100  1
  O  O9  1  0.73562400  0.43871500  0.10095100  1
  O  O10  1  0.74112900  0.07886500  0.58136000  1
  O  O11  1  0.24344700  0.57887000  0.57802000  1
  O  O12  1  0.49902500  0.83003100  0.60807300  1
  O  O13  1  0.99169500  0.32940500  0.60436500  1
  O  O14  1  0.74221300  0.75481500  0.85692100  1
  O  O15  1  0.23199800  0.26188900  0.85951200  1
  O  O16  1  0.52543700  0.32555600  0.59211400  1
  O  O17  1  0.03249200  0.82287200  0.59578000  1
  O  O18  1  0.27571200  0.06731400  0.60001500  1
  O  O19  1  0.77802000  0.57233900  0.59311000  1
  O  O20  1  0.70343400  0.23669700  0.35077000  1
  O  O21  1  0.19606000  0.75003200  0.34068900  1
  O  O22  1  0.46882700  0.02053400  0.34474700  1
  O  O23  1  0.97267200  0.53050600  0.34280800  1
  O  O24  1  0.49944200  0.97356600  0.85049700  1
  O  O25  1  0.99366800  0.47807600  0.83920500  1
  O  O26  1  0.29069500  0.76160900  0.84975700  1
  O  O27  1  0.78094700  0.26351400  0.84919400  1
  O  O28  1  0.75663700  0.91554400  0.09297400  1
  O  O29  1  0.21624700  0.43740600  0.07374400  1
  O  O30  1  0.51190500  0.67260600  0.08929100  1
  O  O31  1  0.00839900  0.17086600  0.09930700  1
loop_
_geom_bond_atom_site_label_1
_geom_bond_atom_site_label_2
_geom_bond_distance
_geom_bond_site_symmetry_2
Li0 O2 2.026049 1_556
Li0 O15 2.044009 1_555
Li0 O24 2.088064 1_545
Li0 O27 2.088511 1_555
Li1 O25 2.018869 1_455
Li1 O14 2.032165 1_455
Li1 O3 2.076205 1_456
Li1 O26 2.081568 1_555
Li2 O6 1.837983 1_645
Li2 O31 2.034739 1_656
Li2 O8 2.053496 1_646
Li2 O28 2.058702 1_546
Li3 O7 1.846521 1_555
Li3 O29 2.031608 1_556
Li3 O9 2.068673 1_556
Li3 O30 2.094094 1_556
Li4 O4 1.831959 1_455
Li4 O10 2.008280 1_455
Li4 O18 2.049928 1_555
Li4 O17 2.115586 1_545
Li5 O5 1.802573 1_555
Li5 O11 2.003870 1_555
Li5 O19 2.043615 1_555
Li5 O16 2.094172 1_555
Li6 O22 2.015661 1_565
Li6 O12 2.037712 1_555
Li6 O21 2.056998 1_555
Li6 O1 2.149680 1_555
Li7 O13 1.980162 1_555
Li7 O20 2.054441 1_555
Li7 O0 2.065537 1_655
Li7 O23 2.204758 1_555
Fe0 O5 2.084763 1_555
Fe0 O29 2.102712 1_555
Fe0 O3 2.154852 1_455
Fe0 O21 2.173025 1_555
Fe0 O23 2.226259 1_455
Fe0 O30 2.272852 1_555
Fe1 O6 2.048661 1_655
Fe1 O12 2.058391 1_555
Fe1 O10 2.188905 1_565
Fe1 O14 2.204820 1_555
Fe1 O17 2.274273 1_655
Fe1 O24 2.288371 1_555
Fe2 O7 2.072732 1_555
Fe2 O13 2.076657 1_455
Fe2 O15 2.147832 1_555
Fe2 O11 2.232432 1_555
Fe2 O16 2.243456 1_555
Fe2 O25 2.265314 1_455
Fe3 O2 2.084318 1_555
Fe3 O20 2.115341 1_555
Fe3 O4 2.123950 1_555
Fe3 O28 2.183861 1_545
Fe3 O22 2.205680 1_555
Fe3 O31 2.278775 1_655
Fe4 O7 2.010043 1_555
Fe4 O12 2.034902 1_555
Fe4 O14 2.218237 1_555
Fe4 O26 2.258333 1_555
Fe4 O19 2.272507 1_555
Fe4 O11 2.292515 1_555
Fe5 O13 2.047424 1_455
Fe5 O6 2.052723 1_545
Fe5 O15 2.200508 1_555
Fe5 O18 2.275989 1_555
Fe5 O27 2.276733 1_455
Fe5 O10 2.309806 1_455
O0 Sb4 1.999140 1_555
O0 Sb2 2.331459 1_555
O0 Ti0 2.339586 1_555
O1 Sb3 2.024727 1_555
O1 Sb5 2.067805 1_555
O1 Ti1 2.561703 1_655
O2 Sb4 2.001739 1_555
O2 Sb2 2.235428 1_555
O3 Sb3 2.022397 1_555
O3 Sb5 2.046395 1_555
O4 Sb3 2.009816 1_545
O4 Sb4 2.057929 1_655
O5 Sb5 1.965004 1_555
O5 Sb2 2.281424 1_555
O6 Sb0 1.999624 1_555
O7 Sb1 1.992051 1_555
O8 Sb3 2.008009 1_455
O8 Sb4 2.057351 1_565
O9 Sb5 1.990529 1_555
O9 Sb2 2.226848 1_555
O9 Ti3 2.610997 1_654
O10 Ti0 1.782908 1_555
O11 Ti1 1.764386 1_555
O12 Sb0 2.012866 1_555
O13 Sb1 1.998234 1_555
O14 Ti2 1.767892 1_555
O15 Ti3 1.817915 1_555
O16 Ti0 2.038321 1_555
O16 Sb1 2.083305 1_555
O17 Ti1 2.019511 1_555
O17 Sb0 2.085223 1_555
O18 Sb0 2.045021 1_545
O18 Ti0 2.057378 1_555
O19 Ti1 1.975521 1_655
O19 Sb1 2.123764 1_555
O20 Ti0 2.061182 1_555
O20 Sb2 2.087753 1_555
O21 Sb3 1.993103 1_455
O21 Ti1 2.193007 1_555
O22 Sb4 2.017910 1_555
O22 Ti0 2.111339 1_555
O23 Sb5 2.011176 1_555
O23 Ti1 2.071771 1_655
O24 Sb0 2.038647 1_555
O24 Ti2 2.043978 1_555
O25 Sb1 2.003989 1_555
O25 Ti3 2.077767 1_655
O26 Sb0 2.034969 1_555
O26 Ti2 2.076947 1_555
O27 Sb1 2.022106 1_555
O27 Ti3 2.130732 1_655
O28 Ti2 2.025774 1_554
O28 Sb3 2.063599 1_555
O29 Ti3 1.844693 1_554
O29 Sb2 2.508938 1_555
O30 Ti2 1.971230 1_554
O30 Sb5 2.067819 1_555
O31 Sb4 2.045470 1_555
O31 Ti3 2.101653 1_554
