# generated using pymatgen
data_MnFeCo(PO4)3
_symmetry_space_group_name_H-M   'P 1'
_cell_length_a   5.96220300
_cell_length_b   9.88983500
_cell_length_c   14.60488819
_cell_angle_alpha   89.79976687
_cell_angle_beta   90.00000000
_cell_angle_gamma   90.00000000
_symmetry_Int_Tables_number   1
_chemical_formula_structural   MnFeCo(PO4)3
_chemical_formula_sum   'Mn4 Fe4 Co4 P12 O48'
_cell_volume   861.17495105
_cell_formula_units_Z   4
loop_
 _symmetry_equiv_pos_site_id
 _symmetry_equiv_pos_as_xyz
  1  'x, y, z'
loop_
 _atom_site_type_symbol
 _atom_site_label
 _atom_site_symmetry_multiplicity
 _atom_site_fract_x
 _atom_site_fract_y
 _atom_site_fract_z
 _atom_site_occupancy
  Mn  Mn0  1  0.50000000  0.78616000  0.47935400  1
  Mn  Mn1  1  0.50000000  0.78265400  0.14632600  1
  Mn  Mn2  1  0.00000000  0.71629300  0.31291100  1
  Mn  Mn3  1  0.50000000  0.28245800  0.02001800  1
  Fe  Fe0  1  0.50000000  0.77659900  0.81838000  1
  Fe  Fe1  1  0.00000000  0.72024100  0.65312400  1
  Fe  Fe2  1  0.00000000  0.72407500  0.98622100  1
  Fe  Fe3  1  0.50000000  0.27779200  0.34926100  1
  Co  Co0  1  0.50000000  0.27167700  0.67552700  1
  Co  Co1  1  0.00000000  0.22460100  0.51440700  1
  Co  Co2  1  0.00000000  0.21898500  0.84785900  1
  Co  Co3  1  0.00000000  0.22284400  0.18380900  1
  P  P0  1  0.00000000  0.90403300  0.47183500  1
  P  P1  1  0.00000000  0.90364700  0.13797600  1
  P  P2  1  0.00000000  0.90242600  0.80299500  1
  P  P3  1  0.50000000  0.59931900  0.97293900  1
  P  P4  1  0.50000000  0.59670500  0.63862200  1
  P  P5  1  0.50000000  0.60063400  0.30519000  1
  P  P6  1  0.00000000  0.40119700  0.02916600  1
  P  P7  1  0.00000000  0.40238100  0.36199000  1
  P  P8  1  0.00000000  0.39621400  0.69880000  1
  P  P9  1  0.50000000  0.09924100  0.19317300  1
  P  P10  1  0.50000000  0.09728200  0.53052700  1
  P  P11  1  0.50000000  0.10090200  0.85893000  1
  O  O0  1  0.50000000  0.94757700  0.21516800  1
  O  O1  1  0.50000000  0.94480600  0.55225000  1
  O  O2  1  0.50000000  0.94919400  0.88044500  1
  O  O3  1  0.00000000  0.88028100  0.24177600  1
  O  O4  1  0.00000000  0.87865100  0.57481300  1
  O  O5  1  0.00000000  0.87975200  0.90700000  1
  O  O6  1  0.20211400  0.83443600  0.42198100  1
  O  O7  1  0.79788600  0.83443600  0.42198100  1
  O  O8  1  0.19958800  0.82906000  0.08803300  1
  O  O9  1  0.80041200  0.82906000  0.08803300  1
  O  O10  1  0.20140200  0.82578600  0.75591200  1
  O  O11  1  0.79859800  0.82578600  0.75591200  1
  O  O12  1  0.70122700  0.67227800  0.92441500  1
  O  O13  1  0.29877300  0.67227800  0.92441500  1
  O  O14  1  0.70447800  0.66686700  0.59111400  1
  O  O15  1  0.29552200  0.66686700  0.59111400  1
  O  O16  1  0.70149700  0.67300300  0.25609600  1
  O  O17  1  0.29850300  0.67300300  0.25609600  1
  O  O18  1  0.50000000  0.61994500  0.07758600  1
  O  O19  1  0.50000000  0.61872100  0.74262700  1
  O  O20  1  0.50000000  0.62277000  0.40924700  1
  O  O21  1  0.00000000  0.55267400  0.05139200  1
  O  O22  1  0.00000000  0.55434800  0.38498000  1
  O  O23  1  0.00000000  0.54818300  0.71568200  1
  O  O24  1  0.50000000  0.44728900  0.95298900  1
  O  O25  1  0.50000000  0.44221100  0.61974300  1
  O  O26  1  0.50000000  0.44887800  0.28531900  1
  O  O27  1  0.00000000  0.38372200  0.25754800  1
  O  O28  1  0.00000000  0.38051400  0.92612400  1
  O  O29  1  0.00000000  0.37091000  0.59353800  1
  O  O30  1  0.19977800  0.32710200  0.08022900  1
  O  O31  1  0.80022200  0.32710200  0.08022900  1
  O  O32  1  0.20310400  0.32929200  0.40992400  1
  O  O33  1  0.79689600  0.32929200  0.40992400  1
  O  O34  1  0.20211600  0.32569300  0.74727300  1
  O  O35  1  0.79788400  0.32569300  0.74727300  1
  O  O36  1  0.70201000  0.17282500  0.24181500  1
  O  O37  1  0.29799000  0.17282500  0.24181500  1
  O  O38  1  0.70192700  0.16880700  0.57928600  1
  O  O39  1  0.29807300  0.16880700  0.57928600  1
  O  O40  1  0.70486500  0.17268500  0.90639800  1
  O  O41  1  0.29513500  0.17268500  0.90639800  1
  O  O42  1  0.50000000  0.11991200  0.42649400  1
  O  O43  1  0.50000000  0.12188000  0.75460600  1
  O  O44  1  0.50000000  0.11829500  0.08868400  1
  O  O45  1  0.00000000  0.05836600  0.45270000  1
  O  O46  1  0.00000000  0.05437000  0.11607000  1
  O  O47  1  0.00000000  0.05231700  0.77834100  1
loop_
_geom_bond_atom_site_label_1
_geom_bond_atom_site_label_2
_geom_bond_distance
_geom_bond_site_symmetry_2
Mn0 O1 1.899167 1_555
Mn0 O20 1.916006 1_555
Mn0 O6 2.020310 1_555
Mn0 O7 2.020310 1_555
Mn0 O14 2.351373 1_555
Mn0 O15 2.351373 1_555
Mn1 O18 1.899631 1_555
Mn1 O0 1.919039 1_555
Mn1 O8 2.034901 1_555
Mn1 O9 2.034901 1_555
Mn1 O16 2.275368 1_555
Mn1 O17 2.275368 1_555
Mn2 O22 1.913440 1_555
Mn2 O3 1.922981 1_555
Mn2 O17 2.010415 1_555
Mn2 O16 2.010415 1_455
Mn2 O6 2.316860 1_555
Mn2 O7 2.316860 1_455
Mn3 O24 1.898574 1_554
Mn3 O44 1.905320 1_555
Mn3 O31 2.043282 1_555
Mn3 O30 2.043282 1_555
Mn3 O40 2.331687 1_554
Mn3 O41 2.331687 1_554
Fe0 O19 1.916780 1_555
Fe0 O2 1.935485 1_555
Fe0 O11 2.058001 1_555
Fe0 O10 2.058001 1_555
Fe0 O12 2.211547 1_555
Fe0 O13 2.211547 1_555
Fe1 O23 1.928581 1_555
Fe1 O4 1.936483 1_555
Fe1 O15 2.051021 1_555
Fe1 O14 2.051021 1_455
Fe1 O10 2.189991 1_555
Fe1 O11 2.189991 1_455
Fe2 O5 1.922670 1_555
Fe2 O21 1.941168 1_556
Fe2 O13 2.062438 1_555
Fe2 O12 2.062438 1_455
Fe2 O8 2.171616 1_556
Fe2 O9 2.171616 1_456
Fe3 O42 1.923024 1_555
Fe3 O26 1.929758 1_555
Fe3 O33 2.044741 1_555
Fe3 O32 2.044741 1_555
Fe3 O36 2.236558 1_555
Fe3 O37 2.236558 1_555
Co0 O25 1.870461 1_555
Co0 O43 1.875280 1_555
Co0 O38 2.114275 1_555
Co0 O39 2.114275 1_555
Co0 O35 2.131103 1_555
Co0 O34 2.131103 1_555
Co1 O29 1.855009 1_555
Co1 O45 1.877609 1_555
Co1 O39 2.087346 1_555
Co1 O38 2.087346 1_455
Co1 O32 2.203615 1_555
Co1 O33 2.203615 1_455
Co2 O47 1.938941 1_555
Co2 O28 1.967567 1_555
Co2 O41 2.008549 1_555
Co2 O40 2.008549 1_455
Co2 O34 2.170976 1_555
Co2 O35 2.170976 1_455
Co3 O27 1.924385 1_555
Co3 O46 1.940730 1_555
Co3 O36 2.028807 1_455
Co3 O37 2.028807 1_555
Co3 O30 2.181628 1_555
Co3 O31 2.181628 1_455
O0 P9 1.532847 1_565
O1 P10 1.539890 1_565
O2 P11 1.531843 1_565
O3 P1 1.532700 1_555
O4 P0 1.523921 1_555
O5 P2 1.534669 1_555
O6 P0 1.568293 1_555
O7 P0 1.568293 1_655
O8 P1 1.579872 1_555
O9 P1 1.579872 1_655
O10 P2 1.578896 1_555
O11 P2 1.578896 1_655
O12 P3 1.568030 1_555
O13 P3 1.568030 1_555
O14 P4 1.563920 1_555
O15 P4 1.563920 1_555
O16 P5 1.570367 1_555
O17 P5 1.570367 1_555
O18 P3 1.542617 1_554
O19 P4 1.535260 1_555
O20 P5 1.536185 1_555
O21 P6 1.533956 1_555
O22 P7 1.541123 1_555
O23 P8 1.523888 1_555
O24 P3 1.532522 1_555
O25 P4 1.553547 1_555
O26 P5 1.529639 1_555
O27 P7 1.537126 1_555
O28 P6 1.519463 1_556
O29 P8 1.558438 1_555
O30 P6 1.583695 1_555
O31 P6 1.583695 1_655
O32 P7 1.573356 1_555
O33 P7 1.573356 1_655
O34 P8 1.560871 1_555
O35 P8 1.560871 1_655
O36 P9 1.577508 1_555
O37 P9 1.577508 1_555
O38 P10 1.568584 1_555
O39 P10 1.568584 1_555
O40 P11 1.574794 1_555
O41 P11 1.574794 1_555
O42 P10 1.535011 1_555
O43 P11 1.536982 1_555
O44 P9 1.536987 1_555
O45 P0 1.550740 1_545
O46 P1 1.523479 1_545
O47 P2 1.524277 1_545
