# generated using pymatgen
data_Ca5(PtN3)2
_symmetry_space_group_name_H-M   'P 1'
_cell_length_a   6.11261636
_cell_length_b   6.89502547
_cell_length_c   12.12233063
_cell_angle_alpha   89.99999830
_cell_angle_beta   102.68698124
_cell_angle_gamma   124.33284290
_symmetry_Int_Tables_number   1
_chemical_formula_structural   Ca5(PtN3)2
_chemical_formula_sum   'Ca10 Pt4 N12'
_cell_volume   406.70601122
_cell_formula_units_Z   2
loop_
 _symmetry_equiv_pos_site_id
 _symmetry_equiv_pos_as_xyz
  1  'x, y, z'
loop_
 _atom_site_type_symbol
 _atom_site_label
 _atom_site_symmetry_multiplicity
 _atom_site_fract_x
 _atom_site_fract_y
 _atom_site_fract_z
 _atom_site_occupancy
  Ca  Ca0  1  0.00000000  0.38493810  0.75000000  1
  Ca  Ca1  1  -0.00000000  0.61506190  0.25000000  1
  Ca  Ca2  1  0.12062900  0.80684133  0.00099773  1
  Ca  Ca3  1  0.87937100  0.68621333  0.49900227  1
  Ca  Ca4  1  0.87937100  0.19315867  0.99900227  1
  Ca  Ca5  1  0.12062900  0.31378667  0.50099773  1
  Ca  Ca6  1  0.33148687  0.03933755  0.73146757  1
  Ca  Ca7  1  0.66851313  0.70785068  0.76853243  1
  Ca  Ca8  1  0.66851313  0.96066245  0.26853243  1
  Ca  Ca9  1  0.33148687  0.29214932  0.23146757  1
  Pt  Pt0  1  0.52884315  0.82079431  0.54267966  1
  Pt  Pt1  1  0.47115685  0.29195117  0.95732034  1
  Pt  Pt2  1  0.47115685  0.17920569  0.45732034  1
  Pt  Pt3  1  0.52884315  0.70804883  0.04267966  1
  N  N0  1  0.25604486  0.67622510  0.62945773  1
  N  N1  1  0.74395514  0.42018124  0.87054227  1
  N  N2  1  0.74395514  0.32377490  0.37054227  1
  N  N3  1  0.25604486  0.57981876  0.12945773  1
  N  N4  1  0.57935627  0.32588439  0.61204734  1
  N  N5  1  0.42064373  0.74652812  0.88795266  1
  N  N6  1  0.42064373  0.67411561  0.38795266  1
  N  N7  1  0.57935627  0.25347188  0.11204734  1
  N  N8  1  0.91116881  0.00406031  0.62528281  1
  N  N9  1  0.08883119  0.09289150  0.87471719  1
  N  N10  1  0.08883119  0.99593969  0.37471719  1
  N  N11  1  0.91116881  0.90710850  0.12528281  1
loop_
_geom_bond_atom_site_label_1
_geom_bond_atom_site_label_2
_geom_bond_distance
_geom_bond_site_symmetry_2
Ca0 N0 2.465242 1_555
Ca0 N1 2.465245 1_455
Ca0 N4 2.550288 1_455
Ca0 N5 2.550288 1_555
Ca0 N9 2.740109 1_555
Ca0 N8 2.740109 1_455
Ca1 N2 2.465242 1_455
Ca1 N3 2.465245 1_555
Ca1 N6 2.550288 1_555
Ca1 N7 2.550288 1_455
Ca1 N11 2.740109 1_455
Ca1 N10 2.740109 1_555
Ca2 N11 2.496587 1_455
Ca2 N1 2.527138 1_454
Ca2 N3 2.540814 1_555
Ca2 N9 2.563779 1_564
Ca2 N5 2.716261 1_554
Ca2 N7 2.785651 1_565
Ca3 N10 2.496584 1_655
Ca3 N0 2.527146 1_655
Ca3 N2 2.540815 1_555
Ca3 N8 2.563773 1_565
Ca3 N4 2.716265 1_555
Ca3 N6 2.785648 1_555
Ca4 N9 2.496587 1_655
Ca4 N3 2.527138 1_656
Ca4 N1 2.540814 1_555
Ca4 N11 2.563779 1_546
Ca4 N7 2.716261 1_556
Ca4 N5 2.785651 1_545
Ca5 N8 2.496584 1_455
Ca5 N2 2.527146 1_455
Ca5 N0 2.540815 1_555
Ca5 N10 2.563773 1_545
Ca5 N6 2.716265 1_555
Ca5 N4 2.785648 1_555
Ca6 N4 2.425212 1_555
Ca6 N8 2.481831 1_455
Ca6 N0 2.541134 1_545
Ca6 N1 2.599880 1_555
Ca6 N9 2.664789 1_555
Ca6 N5 2.959487 1_545
Ca7 N5 2.425212 1_555
Ca7 N9 2.481832 1_665
Ca7 N1 2.541128 1_555
Ca7 N0 2.599877 1_555
Ca7 N8 2.664789 1_565
Ca7 N4 2.959487 1_555
Ca8 N6 2.425212 1_555
Ca8 N10 2.481831 1_655
Ca8 N2 2.541134 1_565
Ca8 N3 2.599880 1_555
Ca8 N11 2.664789 1_555
Ca8 N7 2.959487 1_565
Ca9 N7 2.425212 1_555
Ca9 N11 2.481832 1_445
Ca9 N3 2.541128 1_555
Ca9 N2 2.599877 1_555
Ca9 N10 2.664789 1_545
Ca9 N6 2.959487 1_555
N0 Pt0 1.943292 1_555
N1 Pt1 1.943291 1_555
N2 Pt2 1.943292 1_555
N3 Pt3 1.943291 1_555
N4 Pt2 1.918053 1_555
N5 Pt3 1.918052 1_556
N6 Pt0 1.918053 1_555
N7 Pt1 1.918052 1_554
N8 Pt0 1.924070 1_545
N9 Pt1 1.924070 1_555
N10 Pt2 1.924070 1_565
N11 Pt3 1.924070 1_555
