# generated using pymatgen
data_Li2Sm(NO3)5
_symmetry_space_group_name_H-M   'P 1'
_cell_length_a   9.01442800
_cell_length_b   10.54785700
_cell_length_c   11.77291100
_cell_angle_alpha   90.00000000
_cell_angle_beta   90.00000000
_cell_angle_gamma   90.00000000
_symmetry_Int_Tables_number   1
_chemical_formula_structural   Li2Sm(NO3)5
_chemical_formula_sum   'Li8 Sm4 N20 O60'
_cell_volume   1119.40248966
_cell_formula_units_Z   4
loop_
 _symmetry_equiv_pos_site_id
 _symmetry_equiv_pos_as_xyz
  1  'x, y, z'
loop_
 _atom_site_type_symbol
 _atom_site_label
 _atom_site_symmetry_multiplicity
 _atom_site_fract_x
 _atom_site_fract_y
 _atom_site_fract_z
 _atom_site_occupancy
  Li  Li0  1  0.11704900  0.22815500  0.32100000  1
  Li  Li1  1  0.88295100  0.77184500  0.67900000  1
  Li  Li2  1  0.88295100  0.77184500  0.32100000  1
  Li  Li3  1  0.38295100  0.72815500  0.17900000  1
  Li  Li4  1  0.11704900  0.22815500  0.67900000  1
  Li  Li5  1  0.61704900  0.27184500  0.82100000  1
  Li  Li6  1  0.61704900  0.27184500  0.17900000  1
  Li  Li7  1  0.38295100  0.72815500  0.82100000  1
  Sm  Sm0  1  0.00000000  0.00000000  0.00000000  1
  Sm  Sm1  1  0.50000000  0.50000000  0.50000000  1
  Sm  Sm2  1  0.00000000  0.50000000  0.00000000  1
  Sm  Sm3  1  0.50000000  0.00000000  0.50000000  1
  N  N0  1  0.00000000  0.00000000  0.25881900  1
  N  N1  1  0.00000000  0.00000000  0.74118100  1
  N  N2  1  0.50000000  0.50000000  0.24118100  1
  N  N3  1  0.50000000  0.50000000  0.75881900  1
  N  N4  1  0.17328700  0.24908800  0.00000000  1
  N  N5  1  0.82671300  0.75091200  0.00000000  1
  N  N6  1  0.32671300  0.74908800  0.50000000  1
  N  N7  1  0.67328700  0.25091200  0.50000000  1
  N  N8  1  0.40054000  0.15412300  0.29222300  1
  N  N9  1  0.59946000  0.84587700  0.70777700  1
  N  N10  1  0.59946000  0.84587700  0.29222300  1
  N  N11  1  0.09946000  0.65412300  0.20777700  1
  N  N12  1  0.40054000  0.15412300  0.70777700  1
  N  N13  1  0.90054000  0.34587700  0.79222300  1
  N  N14  1  0.90054000  0.34587700  0.20777700  1
  N  N15  1  0.09946000  0.65412300  0.79222300  1
  N  N16  1  0.70749100  0.14606300  0.00000000  1
  N  N17  1  0.29250900  0.85393700  0.00000000  1
  N  N18  1  0.79250900  0.64606300  0.50000000  1
  N  N19  1  0.20749100  0.35393700  0.50000000  1
  O  O0  1  0.31275800  0.11128300  0.36950700  1
  O  O1  1  0.68724200  0.88871700  0.63049300  1
  O  O2  1  0.68724200  0.88871700  0.36950700  1
  O  O3  1  0.18724200  0.61128300  0.13049300  1
  O  O4  1  0.31275800  0.11128300  0.63049300  1
  O  O5  1  0.81275800  0.38871700  0.86950700  1
  O  O6  1  0.81275800  0.38871700  0.13049300  1
  O  O7  1  0.18724200  0.61128300  0.86950700  1
  O  O8  1  0.02878100  0.24672900  0.00000000  1
  O  O9  1  0.97121900  0.75327100  0.00000000  1
  O  O10  1  0.47121900  0.74672900  0.50000000  1
  O  O11  1  0.52878100  0.25327100  0.50000000  1
  O  O12  1  0.03752500  0.37493300  0.20076000  1
  O  O13  1  0.96247500  0.62506700  0.79924000  1
  O  O14  1  0.96247500  0.62506700  0.20076000  1
  O  O15  1  0.46247500  0.87493300  0.29924000  1
  O  O16  1  0.03752500  0.37493300  0.79924000  1
  O  O17  1  0.53752500  0.12506700  0.70076000  1
  O  O18  1  0.53752500  0.12506700  0.29924000  1
  O  O19  1  0.46247500  0.87493300  0.70076000  1
  O  O20  1  0.23968900  0.14513400  0.00000000  1
  O  O21  1  0.76031100  0.85486600  0.00000000  1
  O  O22  1  0.26031100  0.64513400  0.50000000  1
  O  O23  1  0.73968900  0.35486600  0.50000000  1
  O  O24  1  0.59722900  0.21922100  0.00000000  1
  O  O25  1  0.40277100  0.78077900  0.00000000  1
  O  O26  1  0.90277100  0.71922100  0.50000000  1
  O  O27  1  0.09722900  0.28077900  0.50000000  1
  O  O28  1  0.00000000  0.00000000  0.36334600  1
  O  O29  1  0.00000000  0.00000000  0.63665400  1
  O  O30  1  0.50000000  0.50000000  0.13665400  1
  O  O31  1  0.50000000  0.50000000  0.86334600  1
  O  O32  1  0.23589300  0.35517000  0.00000000  1
  O  O33  1  0.76410700  0.64483000  0.00000000  1
  O  O34  1  0.26410700  0.85517000  0.50000000  1
  O  O35  1  0.73589300  0.14483000  0.50000000  1
  O  O36  1  0.26590800  0.39015700  0.40718800  1
  O  O37  1  0.73409200  0.60984300  0.59281200  1
  O  O38  1  0.73409200  0.60984300  0.40718800  1
  O  O39  1  0.23409200  0.89015700  0.09281200  1
  O  O40  1  0.26590800  0.39015700  0.59281200  1
  O  O41  1  0.76590800  0.10984300  0.90718800  1
  O  O42  1  0.76590800  0.10984300  0.09281200  1
  O  O43  1  0.23409200  0.89015700  0.90718800  1
  O  O44  1  0.05812000  0.09043900  0.20043300  1
  O  O45  1  0.94188000  0.90956100  0.79956700  1
  O  O46  1  0.94188000  0.90956100  0.20043300  1
  O  O47  1  0.44188000  0.59043900  0.29956700  1
  O  O48  1  0.05812000  0.09043900  0.79956700  1
  O  O49  1  0.55812000  0.40956100  0.70043300  1
  O  O50  1  0.55812000  0.40956100  0.29956700  1
  O  O51  1  0.44188000  0.59043900  0.70043300  1
  O  O52  1  0.35339700  0.22397700  0.21535200  1
  O  O53  1  0.64660300  0.77602300  0.78464800  1
  O  O54  1  0.64660300  0.77602300  0.21535200  1
  O  O55  1  0.14660300  0.72397700  0.28464800  1
  O  O56  1  0.35339700  0.22397700  0.78464800  1
  O  O57  1  0.85339700  0.27602300  0.71535200  1
  O  O58  1  0.85339700  0.27602300  0.28464800  1
  O  O59  1  0.14660300  0.72397700  0.71535200  1
loop_
_geom_bond_atom_site_label_1
_geom_bond_atom_site_label_2
_geom_bond_distance
_geom_bond_site_symmetry_2
Li0 O44 2.099291 1_555
Li0 O27 2.186539 1_555
Li0 O12 2.216900 1_555
Li0 O0 2.226703 1_555
Li0 O36 2.397943 1_555
Li0 O58 2.467115 1_455
Li0 O52 2.467418 1_555
Li1 O45 2.099291 1_555
Li1 O26 2.186539 1_555
Li1 O13 2.216900 1_555
Li1 O1 2.226703 1_555
Li1 O37 2.397943 1_555
Li1 O59 2.467115 1_655
Li1 O53 2.467418 1_555
Li2 O46 2.099291 1_555
Li2 O26 2.186539 1_555
Li2 O14 2.216900 1_555
Li2 O2 2.226703 1_555
Li2 O38 2.397943 1_555
Li2 O55 2.467115 1_655
Li2 O54 2.467418 1_555
Li3 O47 2.099291 1_555
Li3 O25 2.186539 1_555
Li3 O15 2.216900 1_555
Li3 O3 2.226703 1_555
Li3 O39 2.397943 1_555
Li3 O54 2.467115 1_555
Li3 O55 2.467418 1_555
Li4 O48 2.099291 1_555
Li4 O27 2.186539 1_555
Li4 O16 2.216900 1_555
Li4 O4 2.226703 1_555
Li4 O40 2.397943 1_555
Li4 O57 2.467115 1_455
Li4 O56 2.467418 1_555
Li5 O49 2.099291 1_555
Li5 O24 2.186539 1_556
Li5 O17 2.216900 1_555
Li5 O5 2.226703 1_555
Li5 O41 2.397943 1_555
Li5 O56 2.467115 1_555
Li5 O57 2.467418 1_555
Li6 O50 2.099291 1_555
Li6 O24 2.186539 1_555
Li6 O18 2.216900 1_555
Li6 O6 2.226703 1_555
Li6 O42 2.397943 1_555
Li6 O52 2.467115 1_555
Li6 O58 2.467418 1_555
Li7 O51 2.099291 1_555
Li7 O25 2.186539 1_556
Li7 O19 2.216900 1_555
Li7 O7 2.226703 1_555
Li7 O43 2.397943 1_555
Li7 O53 2.467115 1_555
Li7 O59 2.467418 1_555
N0 O28 1.230587 1_555
N0 O44 1.287233 1_555
N0 O46 1.287233 1_445
N1 O29 1.230587 1_555
N1 O48 1.287233 1_555
N1 O45 1.287233 1_445
N2 O30 1.230587 1_555
N2 O47 1.287233 1_555
N2 O50 1.287233 1_555
N3 O31 1.230587 1_555
N3 O51 1.287233 1_555
N3 O49 1.287233 1_555
N4 O20 1.249235 1_555
N4 O32 1.253204 1_555
N4 O8 1.302877 1_555
N5 O21 1.249235 1_555
N5 O33 1.253204 1_555
N5 O9 1.302877 1_555
N6 O22 1.249235 1_555
N6 O34 1.253204 1_555
N6 O10 1.302877 1_555
N7 O23 1.249235 1_555
N7 O35 1.253204 1_555
N7 O11 1.302877 1_555
N8 O52 1.241975 1_555
N8 O18 1.274985 1_555
N8 O0 1.287707 1_555
N9 O53 1.241975 1_555
N9 O19 1.274985 1_555
N9 O1 1.287707 1_555
N10 O54 1.241975 1_555
N10 O15 1.274985 1_555
N10 O2 1.287707 1_555
N11 O55 1.241975 1_555
N11 O14 1.274985 1_455
N11 O3 1.287707 1_555
N12 O56 1.241975 1_555
N12 O17 1.274985 1_555
N12 O4 1.287707 1_555
N13 O57 1.241975 1_555
N13 O16 1.274985 1_655
N13 O5 1.287707 1_555
N14 O58 1.241975 1_555
N14 O12 1.274985 1_655
N14 O6 1.287707 1_555
N15 O59 1.241975 1_555
N15 O13 1.274985 1_455
N15 O7 1.287707 1_555
N16 O24 1.258330 1_555
N16 O42 1.271685 1_555
N16 O41 1.271685 1_554
N17 O25 1.258330 1_555
N17 O39 1.271685 1_555
N17 O43 1.271685 1_554
N18 O26 1.258330 1_555
N18 O37 1.271685 1_555
N18 O38 1.271685 1_555
N19 O27 1.258330 1_555
N19 O40 1.271685 1_555
N19 O36 1.271685 1_555
O0 Sm3 2.566496 1_555
O1 Sm3 2.566496 1_565
O2 Sm3 2.566496 1_565
O3 Sm2 2.566496 1_555
O4 Sm3 2.566496 1_555
O5 Sm2 2.566496 1_656
O6 Sm2 2.566496 1_655
O7 Sm2 2.566496 1_556
O8 Sm0 2.615362 1_555
O8 Sm2 2.684035 1_555
O9 Sm0 2.615362 1_665
O9 Sm2 2.684035 1_655
O10 Sm1 2.615362 1_555
O10 Sm3 2.684035 1_565
O11 Sm1 2.615362 1_555
O11 Sm3 2.684035 1_555
O12 Sm2 2.727811 1_555
O13 Sm2 2.727811 1_656
O14 Sm2 2.727811 1_655
O15 Sm3 2.727811 1_565
O16 Sm2 2.727811 1_556
O17 Sm3 2.727811 1_555
O18 Sm3 2.727811 1_555
O19 Sm3 2.727811 1_565
O20 Sm0 2.648010 1_555
O21 Sm0 2.648010 1_665
O22 Sm1 2.648010 1_555
O23 Sm1 2.648010 1_555
O32 Sm2 2.618292 1_555
O33 Sm2 2.618292 1_655
O34 Sm3 2.618292 1_565
O35 Sm3 2.618292 1_555
O36 Sm1 2.643721 1_555
O37 Sm1 2.643721 1_555
O38 Sm1 2.643721 1_555
O39 Sm0 2.643721 1_565
O40 Sm1 2.643721 1_555
O41 Sm0 2.643721 1_656
O42 Sm0 2.643721 1_655
O43 Sm0 2.643721 1_566
O44 Sm0 2.598572 1_555
O45 Sm0 2.598572 1_666
O46 Sm0 2.598572 1_665
O47 Sm1 2.598572 1_555
O48 Sm0 2.598572 1_556
O49 Sm1 2.598572 1_555
O50 Sm1 2.598572 1_555
O51 Sm1 2.598572 1_555
