# generated using pymatgen
data_HfMg6V
_symmetry_space_group_name_H-M   'P 1'
_cell_length_a   4.94058200
_cell_length_b   6.27055600
_cell_length_c   11.04310000
_cell_angle_alpha   90.00000000
_cell_angle_beta   90.00000000
_cell_angle_gamma   90.00000000
_symmetry_Int_Tables_number   1
_chemical_formula_structural   HfMg6V
_chemical_formula_sum   'Hf2 Mg12 V2'
_cell_volume   342.11740359
_cell_formula_units_Z   2
loop_
 _symmetry_equiv_pos_site_id
 _symmetry_equiv_pos_as_xyz
  1  'x, y, z'
loop_
 _atom_site_type_symbol
 _atom_site_label
 _atom_site_symmetry_multiplicity
 _atom_site_fract_x
 _atom_site_fract_y
 _atom_site_fract_z
 _atom_site_occupancy
  Hf  Hf0  1  0.50000000  0.50000000  0.18106200  1
  Hf  Hf1  1  0.50000000  0.00000000  0.68106200  1
  Mg  Mg0  1  0.00000000  0.74572200  0.08148500  1
  Mg  Mg1  1  0.00000000  0.25427800  0.08148500  1
  Mg  Mg2  1  0.00000000  0.00000000  0.33297900  1
  Mg  Mg3  1  0.50000000  0.25839000  0.42040600  1
  Mg  Mg4  1  0.50000000  0.74161000  0.42040600  1
  Mg  Mg5  1  0.50000000  0.00000000  0.16433700  1
  Mg  Mg6  1  0.00000000  0.24572200  0.58148500  1
  Mg  Mg7  1  0.00000000  0.75427800  0.58148500  1
  Mg  Mg8  1  0.00000000  0.50000000  0.83297900  1
  Mg  Mg9  1  0.50000000  0.75839000  0.92040600  1
  Mg  Mg10  1  0.50000000  0.24161000  0.92040600  1
  Mg  Mg11  1  0.50000000  0.50000000  0.66433700  1
  V  V0  1  0.00000000  0.50000000  0.31784000  1
  V  V1  1  0.00000000  0.00000000  0.81784000  1
loop_
_geom_bond_atom_site_label_1
_geom_bond_atom_site_label_2
_geom_bond_distance
_geom_bond_site_symmetry_2
Hf0 V0 2.895480 1_555
Hf0 V0 2.895480 1_655
Hf0 Mg3 3.046521 1_555
Hf0 Mg4 3.046521 1_555
Hf0 Mg1 3.112178 1_555
Hf0 Mg1 3.112178 1_655
Hf0 Mg0 3.112178 1_555
Hf0 Mg0 3.112178 1_655
Hf0 Mg5 3.140713 1_565
Hf0 Mg5 3.140713 1_555
Hf0 Mg9 3.303132 1_554
Hf0 Mg10 3.303132 1_554
Hf1 V1 2.895480 1_555
Hf1 V1 2.895480 1_655
Hf1 Mg9 3.046521 1_545
Hf1 Mg10 3.046521 1_555
Hf1 Mg7 3.112178 1_645
Hf1 Mg6 3.112178 1_655
Hf1 Mg7 3.112178 1_545
Hf1 Mg6 3.112178 1_555
Hf1 Mg11 3.140713 1_555
Hf1 Mg11 3.140713 1_545
Hf1 Mg4 3.303132 1_545
Hf1 Mg3 3.303132 1_555
Mg0 V0 3.030955 1_555
Mg0 Mg9 3.045130 1_554
Mg0 Mg9 3.045130 1_454
Mg0 Mg5 3.079249 1_565
Mg0 Mg5 3.079249 1_465
Mg0 Mg1 3.081627 1_555
Mg0 Mg8 3.147247 1_554
Mg0 Mg1 3.188929 1_565
Mg0 Mg2 3.202431 1_565
Mg0 V1 3.319474 1_564
Mg1 V0 3.030955 1_555
Mg1 Mg10 3.045130 1_454
Mg1 Mg10 3.045130 1_554
Mg1 Mg5 3.079249 1_555
Mg1 Mg5 3.079249 1_455
Mg1 Mg8 3.147247 1_554
Mg1 Mg2 3.202431 1_555
Mg1 V1 3.319474 1_554
Mg2 Mg5 3.093641 1_555
Mg2 Mg5 3.093641 1_455
Mg2 Mg3 3.108001 1_455
Mg2 Mg4 3.108001 1_445
Mg2 Mg3 3.108001 1_555
Mg2 Mg4 3.108001 1_545
Mg2 V0 3.139732 1_555
Mg2 V0 3.139732 1_545
Mg2 Mg7 3.147247 1_545
Mg2 Mg6 3.147247 1_555
Mg3 Mg4 3.030058 1_555
Mg3 Mg6 3.045130 1_655
Mg3 Mg6 3.045130 1_555
Mg3 V0 3.111356 1_655
Mg3 V0 3.111356 1_555
Mg3 Mg4 3.240498 1_545
Mg3 Mg5 3.259085 1_555
Mg4 Mg7 3.045130 1_555
Mg4 Mg7 3.045130 1_655
Mg4 V0 3.111356 1_655
Mg4 V0 3.111356 1_555
Mg4 Mg5 3.259085 1_565
Mg5 Mg9 3.090570 1_544
Mg6 V1 3.030955 1_555
Mg6 Mg7 3.081627 1_545
Mg6 Mg7 3.188929 1_555
Mg6 Mg8 3.202431 1_555
Mg6 V0 3.319474 1_555
Mg7 V1 3.030955 1_565
Mg7 Mg8 3.202431 1_555
Mg7 V0 3.319474 1_555
Mg8 Mg9 3.108001 1_455
Mg8 Mg9 3.108001 1_555
Mg8 V1 3.139732 1_565
Mg8 V1 3.139732 1_555
Mg9 V1 3.111356 1_665
Mg9 V1 3.111356 1_565
Mg10 Mg9 3.030058 1_545
Mg10 Mg5 3.090570 1_556
Mg10 Mg8 3.108001 1_655
Mg10 Mg8 3.108001 1_555
Mg10 V1 3.111356 1_555
Mg10 V1 3.111356 1_655
Mg10 Mg9 3.240498 1_555
Mg10 Mg11 3.259085 1_555
Mg11 Mg6 3.079249 1_555
Mg11 Mg7 3.079249 1_555
Mg11 Mg6 3.079249 1_655
Mg11 Mg7 3.079249 1_655
Mg11 Mg3 3.090570 1_555
Mg11 Mg4 3.090570 1_555
Mg11 Mg8 3.093641 1_655
Mg11 Mg8 3.093641 1_555
Mg11 Mg9 3.259085 1_555
