# generated using pymatgen
data_SnPS3
_symmetry_space_group_name_H-M   'P 1'
_cell_length_a   7.85639474
_cell_length_b   7.85639474
_cell_length_c   7.85639476
_cell_angle_alpha   50.87234041
_cell_angle_beta   50.87234041
_cell_angle_gamma   50.87233574
_symmetry_Int_Tables_number   1
_chemical_formula_structural   SnPS3
_chemical_formula_sum   'Sn2 P2 S6'
_cell_volume   269.08712498
_cell_formula_units_Z   2
loop_
 _symmetry_equiv_pos_site_id
 _symmetry_equiv_pos_as_xyz
  1  'x, y, z'
loop_
 _atom_site_type_symbol
 _atom_site_label
 _atom_site_symmetry_multiplicity
 _atom_site_fract_x
 _atom_site_fract_y
 _atom_site_fract_z
 _atom_site_occupancy
  Sn  Sn0  1  0.83222900  0.83222900  0.83222900  1
  Sn  Sn1  1  0.16777100  0.16777100  0.16777100  1
  P  P0  1  0.55512900  0.55512900  0.55512900  1
  P  P1  1  0.44487100  0.44487100  0.44487100  1
  S  S0  1  0.86948800  0.29038600  0.59415300  1
  S  S1  1  0.59415300  0.86948800  0.29038600  1
  S  S2  1  0.29038600  0.59415300  0.86948800  1
  S  S3  1  0.13051200  0.70961400  0.40584700  1
  S  S4  1  0.40584700  0.13051200  0.70961400  1
  S  S5  1  0.70961400  0.40584700  0.13051200  1
loop_
_geom_bond_atom_site_label_1
_geom_bond_atom_site_label_2
_geom_bond_distance
_geom_bond_site_symmetry_2
P0 S0 2.046278 1_555
P0 S2 2.046278 1_555
P0 S1 2.046278 1_555
P0 P1 2.256576 1_555
P1 S3 2.046278 1_555
P1 S5 2.046278 1_555
P1 S4 2.046278 1_555
S0 Sn0 2.946518 1_545
S0 Sn1 2.992815 1_655
S1 Sn0 2.946518 1_554
S1 Sn1 2.992815 1_565
S2 Sn0 2.946518 1_455
S2 Sn1 2.992815 1_556
S3 Sn1 2.946518 1_565
S3 Sn0 2.992815 1_455
S4 Sn1 2.946518 1_556
S4 Sn0 2.992815 1_545
S5 Sn1 2.946518 1_655
S5 Sn0 2.992815 1_554
