# generated using pymatgen
data_KCaCl3
_symmetry_space_group_name_H-M   'P 1'
_cell_length_a   7.20898851
_cell_length_b   7.59169634
_cell_length_c   10.45793088
_cell_angle_alpha   90.00000000
_cell_angle_beta   90.00000000
_cell_angle_gamma   90.00000000
_symmetry_Int_Tables_number   1
_chemical_formula_structural   KCaCl3
_chemical_formula_sum   'K4 Ca4 Cl12'
_cell_volume   572.34636491
_cell_formula_units_Z   4
loop_
 _symmetry_equiv_pos_site_id
 _symmetry_equiv_pos_as_xyz
  1  'x, y, z'
loop_
 _atom_site_type_symbol
 _atom_site_label
 _atom_site_symmetry_multiplicity
 _atom_site_fract_x
 _atom_site_fract_y
 _atom_site_fract_z
 _atom_site_occupancy
  K  K0  1  0.02413506  0.42972352  0.25000000  1
  K  K1  1  0.97586494  0.57027648  0.75000000  1
  K  K2  1  0.52413506  0.07027648  0.75000000  1
  K  K3  1  0.47586494  0.92972352  0.25000000  1
  Ca  Ca0  1  0.00000000  -0.00000000  -0.00000000  1
  Ca  Ca1  1  0.50000000  0.50000000  -0.00000000  1
  Ca  Ca2  1  0.00000000  -0.00000000  0.50000000  1
  Ca  Ca3  1  0.50000000  0.50000000  0.50000000  1
  Cl  Cl0  1  0.30563123  0.19955943  0.05366869  1
  Cl  Cl1  1  0.69436877  0.80044057  0.94633131  1
  Cl  Cl2  1  0.80563123  0.30044057  0.94633131  1
  Cl  Cl3  1  0.69436877  0.80044057  0.55366869  1
  Cl  Cl4  1  0.19436877  0.69955943  0.05366869  1
  Cl  Cl5  1  0.30563123  0.19955943  0.44633131  1
  Cl  Cl6  1  0.19436877  0.69955943  0.44633131  1
  Cl  Cl7  1  0.80563123  0.30044057  0.55366869  1
  Cl  Cl8  1  0.60299607  0.53015656  0.25000000  1
  Cl  Cl9  1  0.39700393  0.46984344  0.75000000  1
  Cl  Cl10  1  0.10299607  0.96984344  0.75000000  1
  Cl  Cl11  1  0.89700393  0.03015656  0.25000000  1
loop_
_geom_bond_atom_site_label_1
_geom_bond_atom_site_label_2
_geom_bond_distance
_geom_bond_site_symmetry_2
Ca0 Cl11 2.727496 1_455
Ca0 Cl10 2.727496 1_544
Ca0 Cl0 2.732164 1_555
Ca0 Cl1 2.732164 1_444
Ca0 Cl4 2.735083 1_545
Ca0 Cl2 2.735083 1_454
Ca1 Cl9 2.727496 1_554
Ca1 Cl8 2.727496 1_555
Ca1 Cl2 2.732164 1_554
Ca1 Cl4 2.732164 1_555
Ca1 Cl1 2.735083 1_554
Ca1 Cl0 2.735083 1_555
Ca2 Cl10 2.727496 1_545
Ca2 Cl11 2.727496 1_455
Ca2 Cl5 2.732164 1_555
Ca2 Cl3 2.732164 1_445
Ca2 Cl7 2.735083 1_455
Ca2 Cl6 2.735083 1_545
Ca3 Cl9 2.727496 1_555
Ca3 Cl8 2.727496 1_555
Ca3 Cl6 2.732164 1_555
Ca3 Cl7 2.732164 1_555
Ca3 Cl3 2.735083 1_555
Ca3 Cl5 2.735083 1_555
Cl0 K3 3.149312 1_545
Cl0 K0 3.374457 1_555
Cl0 K2 3.678300 1_554
Cl1 K2 3.149312 1_565
Cl1 K1 3.374457 1_555
Cl1 K3 3.678300 1_556
Cl2 K1 3.149312 1_555
Cl2 K2 3.374457 1_555
Cl2 K0 3.678300 1_656
Cl3 K2 3.149312 1_565
Cl3 K1 3.374457 1_555
Cl3 K3 3.678300 1_555
Cl4 K0 3.149312 1_555
Cl4 K3 3.374457 1_555
Cl4 K1 3.678300 1_454
Cl5 K3 3.149312 1_545
Cl5 K0 3.374457 1_555
Cl5 K2 3.678300 1_555
Cl6 K0 3.149312 1_555
Cl6 K3 3.374457 1_555
Cl6 K1 3.678300 1_455
Cl7 K1 3.149312 1_555
Cl7 K2 3.374457 1_555
Cl7 K0 3.678300 1_655
Cl8 K0 3.130264 1_655
Cl8 K3 3.168818 1_555
Cl9 K1 3.130264 1_455
Cl9 K2 3.168818 1_555
Cl10 K2 3.130264 1_565
Cl10 K1 3.168818 1_455
Cl11 K3 3.130264 1_545
Cl11 K0 3.168818 1_655
