# generated using pymatgen
data_NbVCN
_symmetry_space_group_name_H-M   'P 1'
_cell_length_a   3.08617300
_cell_length_b   3.08617300
_cell_length_c   4.30343100
_cell_angle_alpha   90.00000000
_cell_angle_beta   90.00000000
_cell_angle_gamma   90.00000000
_symmetry_Int_Tables_number   1
_chemical_formula_structural   NbVCN
_chemical_formula_sum   'Nb1 V1 C1 N1'
_cell_volume   40.98787271
_cell_formula_units_Z   1
loop_
 _symmetry_equiv_pos_site_id
 _symmetry_equiv_pos_as_xyz
  1  'x, y, z'
loop_
 _atom_site_type_symbol
 _atom_site_label
 _atom_site_symmetry_multiplicity
 _atom_site_fract_x
 _atom_site_fract_y
 _atom_site_fract_z
 _atom_site_occupancy
  Nb  Nb0  1  0.50000000  0.50000000  0.50000000  1
  V  V0  1  0.00000000  0.00000000  0.00000000  1
  C  C0  1  0.00000000  0.00000000  0.50000000  1
  N  N0  1  0.50000000  0.50000000  0.00000000  1
loop_
_geom_bond_atom_site_label_1
_geom_bond_atom_site_label_2
_geom_bond_distance
_geom_bond_site_symmetry_2
C0 V0 2.151715 1_555
C0 V0 2.151715 1_556
C0 Nb0 2.182254 1_555
C0 Nb0 2.182254 1_545
C0 Nb0 2.182254 1_455
C0 Nb0 2.182254 1_445
N0 Nb0 2.151715 1_555
N0 Nb0 2.151715 1_554
N0 V0 2.182254 1_665
N0 V0 2.182254 1_655
N0 V0 2.182254 1_565
N0 V0 2.182254 1_555
