# generated using pymatgen
data_YCoSi
_symmetry_space_group_name_H-M   'P 1'
_cell_length_a   4.15648523
_cell_length_b   6.87090824
_cell_length_c   6.94839421
_cell_angle_alpha   90.00000000
_cell_angle_beta   90.00000000
_cell_angle_gamma   90.00000000
_symmetry_Int_Tables_number   1
_chemical_formula_structural   YCoSi
_chemical_formula_sum   'Y4 Co4 Si4'
_cell_volume   198.43799940
_cell_formula_units_Z   4
loop_
 _symmetry_equiv_pos_site_id
 _symmetry_equiv_pos_as_xyz
  1  'x, y, z'
loop_
 _atom_site_type_symbol
 _atom_site_label
 _atom_site_symmetry_multiplicity
 _atom_site_fract_x
 _atom_site_fract_y
 _atom_site_fract_z
 _atom_site_occupancy
  Y  Y0  1  0.75000000  0.01645458  0.31014813  1
  Y  Y1  1  0.25000000  0.98354542  0.68985187  1
  Y  Y2  1  0.25000000  0.48354542  0.81014813  1
  Y  Y3  1  0.75000000  0.51645458  0.18985187  1
  Co  Co0  1  0.75000000  0.85498559  0.93696586  1
  Co  Co1  1  0.25000000  0.14501441  0.06303414  1
  Co  Co2  1  0.25000000  0.64501441  0.43696586  1
  Co  Co3  1  0.75000000  0.35498559  0.56303414  1
  Si  Si0  1  0.75000000  0.69404928  0.60361745  1
  Si  Si1  1  0.25000000  0.30595072  0.39638255  1
  Si  Si2  1  0.25000000  0.80595072  0.10361745  1
  Si  Si3  1  0.75000000  0.19404928  0.89638255  1
loop_
_geom_bond_atom_site_label_1
_geom_bond_atom_site_label_2
_geom_bond_distance
_geom_bond_site_symmetry_2
Co0 Si3 2.346680 1_565
Co0 Si2 2.402806 1_656
Co0 Si2 2.402806 1_556
Co0 Si0 2.566651 1_555
Co0 Y0 2.820389 1_566
Co0 Y1 2.836829 1_555
Co0 Y1 2.836829 1_655
Co0 Y3 2.915121 1_556
Co1 Si2 2.346680 1_545
Co1 Si3 2.402806 1_554
Co1 Si3 2.402806 1_454
Co1 Si1 2.566651 1_555
Co1 Y1 2.820389 1_544
Co1 Y0 2.836829 1_455
Co1 Y0 2.836829 1_555
Co1 Y2 2.915121 1_554
Co2 Si1 2.346680 1_555
Co2 Si0 2.402806 1_555
Co2 Si0 2.402806 1_455
Co2 Si2 2.566651 1_555
Co2 Y2 2.820389 1_555
Co2 Y3 2.836829 1_455
Co2 Y3 2.836829 1_555
Co2 Y1 2.915121 1_555
Co3 Si0 2.346680 1_555
Co3 Si1 2.402806 1_555
Co3 Si1 2.402806 1_655
Co3 Si3 2.566651 1_555
Co3 Y3 2.820389 1_555
Co3 Y2 2.836829 1_555
Co3 Y2 2.836829 1_655
Co3 Y0 2.915121 1_555
Si0 Y2 2.910398 1_555
Si0 Y2 2.910398 1_655
Si0 Y1 2.938477 1_555
Si0 Y1 2.938477 1_655
Si0 Y0 3.010861 1_565
Si0 Y3 3.123242 1_555
Si1 Y3 2.910398 1_455
Si1 Y3 2.910398 1_555
Si1 Y0 2.938477 1_455
Si1 Y0 2.938477 1_555
Si1 Y1 3.010861 1_545
Si1 Y2 3.123242 1_555
Si2 Y0 2.910398 1_465
Si2 Y0 2.910398 1_565
Si2 Y3 2.938477 1_555
Si2 Y3 2.938477 1_455
Si2 Y2 3.010861 1_554
Si2 Y1 3.123242 1_554
Si3 Y1 2.910398 1_645
Si3 Y1 2.910398 1_545
Si3 Y2 2.938477 1_555
Si3 Y2 2.938477 1_655
Si3 Y3 3.010861 1_556
Si3 Y0 3.123242 1_556
