# generated using pymatgen
data_Sc57Ir13
_symmetry_space_group_name_H-M   'P 1'
_cell_length_a   14.40781705
_cell_length_b   14.40781705
_cell_length_c   14.40781705
_cell_angle_alpha   90.00000000
_cell_angle_beta   90.00000000
_cell_angle_gamma   90.00000000
_symmetry_Int_Tables_number   1
_chemical_formula_structural   Sc57Ir13
_chemical_formula_sum   'Sc114 Ir26'
_cell_volume   2990.84947073
_cell_formula_units_Z   2
loop_
 _symmetry_equiv_pos_site_id
 _symmetry_equiv_pos_as_xyz
  1  'x, y, z'
loop_
 _atom_site_type_symbol
 _atom_site_label
 _atom_site_symmetry_multiplicity
 _atom_site_fract_x
 _atom_site_fract_y
 _atom_site_fract_z
 _atom_site_occupancy
  Sc  Sc0  1  -0.00000000  0.37357991  -0.00000000  1
  Sc  Sc1  1  -0.00000000  0.62642009  -0.00000000  1
  Sc  Sc2  1  -0.00000000  -0.00000000  0.37357991  1
  Sc  Sc3  1  -0.00000000  -0.00000000  0.62642009  1
  Sc  Sc4  1  0.37357991  -0.00000000  -0.00000000  1
  Sc  Sc5  1  0.62642009  -0.00000000  -0.00000000  1
  Sc  Sc6  1  -0.00000000  0.22737371  0.50000000  1
  Sc  Sc7  1  -0.00000000  0.77262629  0.50000000  1
  Sc  Sc8  1  0.50000000  -0.00000000  0.22737371  1
  Sc  Sc9  1  0.50000000  -0.00000000  0.77262629  1
  Sc  Sc10  1  0.22737371  0.50000000  -0.00000000  1
  Sc  Sc11  1  0.77262629  0.50000000  -0.00000000  1
  Sc  Sc12  1  0.50000000  0.86122488  0.50000000  1
  Sc  Sc13  1  0.50000000  0.13877512  0.50000000  1
  Sc  Sc14  1  0.50000000  0.50000000  0.86122488  1
  Sc  Sc15  1  0.50000000  0.50000000  0.13877512  1
  Sc  Sc16  1  0.86122488  0.50000000  0.50000000  1
  Sc  Sc17  1  0.13877512  0.50000000  0.50000000  1
  Sc  Sc18  1  0.62970036  -0.00000000  0.39269939  1
  Sc  Sc19  1  0.37029964  -0.00000000  0.60730061  1
  Sc  Sc20  1  0.37029964  -0.00000000  0.39269939  1
  Sc  Sc21  1  0.62970036  -0.00000000  0.60730061  1
  Sc  Sc22  1  0.39269939  0.62970036  -0.00000000  1
  Sc  Sc23  1  0.60730061  0.37029964  -0.00000000  1
  Sc  Sc24  1  0.39269939  0.37029964  -0.00000000  1
  Sc  Sc25  1  0.60730061  0.62970036  -0.00000000  1
  Sc  Sc26  1  -0.00000000  0.39269939  0.62970036  1
  Sc  Sc27  1  -0.00000000  0.60730061  0.37029964  1
  Sc  Sc28  1  -0.00000000  0.39269939  0.37029964  1
  Sc  Sc29  1  -0.00000000  0.60730061  0.62970036  1
  Sc  Sc30  1  0.89259580  -0.00000000  0.17733257  1
  Sc  Sc31  1  0.10740420  -0.00000000  0.82266743  1
  Sc  Sc32  1  0.10740420  -0.00000000  0.17733257  1
  Sc  Sc33  1  0.89259580  -0.00000000  0.82266743  1
  Sc  Sc34  1  0.17733257  0.89259580  -0.00000000  1
  Sc  Sc35  1  0.82266743  0.10740420  -0.00000000  1
  Sc  Sc36  1  0.17733257  0.10740420  -0.00000000  1
  Sc  Sc37  1  0.82266743  0.89259580  -0.00000000  1
  Sc  Sc38  1  -0.00000000  0.17733257  0.89259580  1
  Sc  Sc39  1  -0.00000000  0.82266743  0.10740420  1
  Sc  Sc40  1  -0.00000000  0.17733257  0.10740420  1
  Sc  Sc41  1  -0.00000000  0.82266743  0.89259580  1
  Sc  Sc42  1  0.10290682  0.50000000  0.82670374  1
  Sc  Sc43  1  0.89709318  0.50000000  0.17329626  1
  Sc  Sc44  1  0.89709318  0.50000000  0.82670374  1
  Sc  Sc45  1  0.10290682  0.50000000  0.17329626  1
  Sc  Sc46  1  0.82670374  0.10290682  0.50000000  1
  Sc  Sc47  1  0.17329626  0.89709318  0.50000000  1
  Sc  Sc48  1  0.82670374  0.89709318  0.50000000  1
  Sc  Sc49  1  0.17329626  0.10290682  0.50000000  1
  Sc  Sc50  1  0.50000000  0.82670374  0.10290682  1
  Sc  Sc51  1  0.50000000  0.17329626  0.89709318  1
  Sc  Sc52  1  0.50000000  0.82670374  0.89709318  1
  Sc  Sc53  1  0.50000000  0.17329626  0.10290682  1
  Sc  Sc54  1  0.39094419  0.50000000  0.67435842  1
  Sc  Sc55  1  0.60905581  0.50000000  0.32564158  1
  Sc  Sc56  1  0.60905581  0.50000000  0.67435842  1
  Sc  Sc57  1  0.39094419  0.50000000  0.32564158  1
  Sc  Sc58  1  0.67435842  0.39094419  0.50000000  1
  Sc  Sc59  1  0.32564158  0.60905581  0.50000000  1
  Sc  Sc60  1  0.67435842  0.60905581  0.50000000  1
  Sc  Sc61  1  0.32564158  0.39094419  0.50000000  1
  Sc  Sc62  1  0.50000000  0.67435842  0.39094419  1
  Sc  Sc63  1  0.50000000  0.32564158  0.60905581  1
  Sc  Sc64  1  0.50000000  0.67435842  0.60905581  1
  Sc  Sc65  1  0.50000000  0.32564158  0.39094419  1
  Sc  Sc66  1  0.70248059  0.11155451  0.18782697  1
  Sc  Sc67  1  0.29751941  0.11155451  0.81217303  1
  Sc  Sc68  1  0.29751941  0.88844549  0.18782697  1
  Sc  Sc69  1  0.70248059  0.88844549  0.81217303  1
  Sc  Sc70  1  0.18782697  0.70248059  0.11155451  1
  Sc  Sc71  1  0.81217303  0.29751941  0.11155451  1
  Sc  Sc72  1  0.18782697  0.29751941  0.88844549  1
  Sc  Sc73  1  0.81217303  0.70248059  0.88844549  1
  Sc  Sc74  1  0.11155451  0.18782697  0.70248059  1
  Sc  Sc75  1  0.11155451  0.81217303  0.29751941  1
  Sc  Sc76  1  0.88844549  0.18782697  0.29751941  1
  Sc  Sc77  1  0.88844549  0.81217303  0.70248059  1
  Sc  Sc78  1  0.29751941  0.88844549  0.81217303  1
  Sc  Sc79  1  0.70248059  0.88844549  0.18782697  1
  Sc  Sc80  1  0.70248059  0.11155451  0.81217303  1
  Sc  Sc81  1  0.29751941  0.11155451  0.18782697  1
  Sc  Sc82  1  0.81217303  0.29751941  0.88844549  1
  Sc  Sc83  1  0.18782697  0.70248059  0.88844549  1
  Sc  Sc84  1  0.81217303  0.70248059  0.11155451  1
  Sc  Sc85  1  0.18782697  0.29751941  0.11155451  1
  Sc  Sc86  1  0.88844549  0.81217303  0.29751941  1
  Sc  Sc87  1  0.88844549  0.18782697  0.70248059  1
  Sc  Sc88  1  0.11155451  0.81217303  0.70248059  1
  Sc  Sc89  1  0.11155451  0.18782697  0.29751941  1
  Sc  Sc90  1  0.20802169  0.61455017  0.67894176  1
  Sc  Sc91  1  0.79197831  0.61455017  0.32105824  1
  Sc  Sc92  1  0.79197831  0.38544983  0.67894176  1
  Sc  Sc93  1  0.20802169  0.38544983  0.32105824  1
  Sc  Sc94  1  0.67894176  0.20802169  0.61455017  1
  Sc  Sc95  1  0.32105824  0.79197831  0.61455017  1
  Sc  Sc96  1  0.67894176  0.79197831  0.38544983  1
  Sc  Sc97  1  0.32105824  0.20802169  0.38544983  1
  Sc  Sc98  1  0.61455017  0.67894176  0.20802169  1
  Sc  Sc99  1  0.61455017  0.32105824  0.79197831  1
  Sc  Sc100  1  0.38544983  0.67894176  0.79197831  1
  Sc  Sc101  1  0.38544983  0.32105824  0.20802169  1
  Sc  Sc102  1  0.79197831  0.38544983  0.32105824  1
  Sc  Sc103  1  0.20802169  0.38544983  0.67894176  1
  Sc  Sc104  1  0.20802169  0.61455017  0.32105824  1
  Sc  Sc105  1  0.79197831  0.61455017  0.67894176  1
  Sc  Sc106  1  0.32105824  0.79197831  0.38544983  1
  Sc  Sc107  1  0.67894176  0.20802169  0.38544983  1
  Sc  Sc108  1  0.32105824  0.20802169  0.61455017  1
  Sc  Sc109  1  0.67894176  0.79197831  0.61455017  1
  Sc  Sc110  1  0.38544983  0.32105824  0.79197831  1
  Sc  Sc111  1  0.38544983  0.67894176  0.20802169  1
  Sc  Sc112  1  0.61455017  0.32105824  0.20802169  1
  Sc  Sc113  1  0.61455017  0.67894176  0.79197831  1
  Ir  Ir0  1  -0.00000000  -0.00000000  -0.00000000  1
  Ir  Ir1  1  0.50000000  0.50000000  0.50000000  1
  Ir  Ir2  1  0.79886006  -0.00000000  0.33302026  1
  Ir  Ir3  1  0.20113994  -0.00000000  0.66697974  1
  Ir  Ir4  1  0.20113994  -0.00000000  0.33302026  1
  Ir  Ir5  1  0.79886006  -0.00000000  0.66697974  1
  Ir  Ir6  1  0.33302026  0.79886006  -0.00000000  1
  Ir  Ir7  1  0.66697974  0.20113994  -0.00000000  1
  Ir  Ir8  1  0.33302026  0.20113994  -0.00000000  1
  Ir  Ir9  1  0.66697974  0.79886006  -0.00000000  1
  Ir  Ir10  1  -0.00000000  0.33302026  0.79886006  1
  Ir  Ir11  1  -0.00000000  0.66697974  0.20113994  1
  Ir  Ir12  1  -0.00000000  0.33302026  0.20113994  1
  Ir  Ir13  1  -0.00000000  0.66697974  0.79886006  1
  Ir  Ir14  1  0.29909505  0.50000000  0.83163880  1
  Ir  Ir15  1  0.70090495  0.50000000  0.16836120  1
  Ir  Ir16  1  0.70090495  0.50000000  0.83163880  1
  Ir  Ir17  1  0.29909505  0.50000000  0.16836120  1
  Ir  Ir18  1  0.83163880  0.29909505  0.50000000  1
  Ir  Ir19  1  0.16836120  0.70090495  0.50000000  1
  Ir  Ir20  1  0.83163880  0.70090495  0.50000000  1
  Ir  Ir21  1  0.16836120  0.29909505  0.50000000  1
  Ir  Ir22  1  0.50000000  0.83163880  0.29909505  1
  Ir  Ir23  1  0.50000000  0.16836120  0.70090495  1
  Ir  Ir24  1  0.50000000  0.83163880  0.70090495  1
  Ir  Ir25  1  0.50000000  0.16836120  0.29909505  1
loop_
_geom_bond_atom_site_label_1
_geom_bond_atom_site_label_2
_geom_bond_distance
_geom_bond_site_symmetry_2
Ir0 Sc30 2.987061 1_455
Ir0 Sc38 2.987061 1_554
Ir0 Sc34 2.987061 1_545
Ir0 Sc33 2.987061 1_454
Ir0 Sc37 2.987061 1_445
Ir0 Sc32 2.987061 1_555
Ir0 Sc40 2.987061 1_555
Ir0 Sc36 2.987061 1_555
Ir0 Sc41 2.987061 1_544
Ir0 Sc31 2.987061 1_554
Ir0 Sc35 2.987061 1_455
Ir0 Sc39 2.987061 1_545
Ir1 Sc54 2.963041 1_555
Ir1 Sc58 2.963041 1_555
Ir1 Sc61 2.963041 1_555
Ir1 Sc55 2.963041 1_555
Ir1 Sc62 2.963041 1_555
Ir1 Sc59 2.963041 1_555
Ir1 Sc65 2.963041 1_555
Ir1 Sc57 2.963041 1_555
Ir1 Sc63 2.963041 1_555
Ir1 Sc56 2.963041 1_555
Ir1 Sc60 2.963041 1_555
Ir1 Sc64 2.963041 1_555
Ir2 Sc18 2.584451 1_555
Ir2 Sc30 2.618303 1_555
Ir2 Sc48 2.854323 1_545
Ir2 Sc46 2.854323 1_555
Ir2 Sc2 2.956320 1_655
Ir2 Sc66 2.981217 1_555
Ir2 Sc79 2.981217 1_545
Ir2 Sc86 3.041545 1_545
Ir2 Sc76 3.041545 1_555
Ir3 Sc19 2.584451 1_555
Ir3 Sc31 2.618303 1_555
Ir3 Sc47 2.854323 1_545
Ir3 Sc49 2.854323 1_555
Ir3 Sc3 2.956320 1_555
Ir3 Sc67 2.981217 1_555
Ir3 Sc78 2.981217 1_545
Ir3 Sc88 3.041545 1_545
Ir3 Sc74 3.041545 1_555
Ir4 Sc20 2.584451 1_555
Ir4 Sc32 2.618303 1_555
Ir4 Sc47 2.854323 1_545
Ir4 Sc49 2.854323 1_555
Ir4 Sc2 2.956320 1_555
Ir4 Sc81 2.981217 1_555
Ir4 Sc68 2.981217 1_545
Ir4 Sc75 3.041545 1_545
Ir4 Sc89 3.041545 1_555
Ir5 Sc21 2.584451 1_555
Ir5 Sc33 2.618303 1_555
Ir5 Sc48 2.854323 1_545
Ir5 Sc46 2.854323 1_555
Ir5 Sc3 2.956320 1_655
Ir5 Sc80 2.981217 1_555
Ir5 Sc69 2.981217 1_545
Ir5 Sc77 3.041545 1_545
Ir5 Sc87 3.041545 1_555
Ir6 Sc22 2.584451 1_555
Ir6 Sc34 2.618303 1_555
Ir6 Sc52 2.854323 1_554
Ir6 Sc50 2.854323 1_555
Ir6 Sc4 2.956320 1_565
Ir6 Sc70 2.981217 1_555
Ir6 Sc83 2.981217 1_554
Ir6 Sc68 3.041545 1_555
Ir6 Sc78 3.041545 1_554
Ir7 Sc23 2.584451 1_555
Ir7 Sc35 2.618303 1_555
Ir7 Sc51 2.854323 1_554
Ir7 Sc53 2.854323 1_555
Ir7 Sc5 2.956320 1_555
Ir7 Sc71 2.981217 1_555
Ir7 Sc82 2.981217 1_554
Ir7 Sc66 3.041545 1_555
Ir7 Sc80 3.041545 1_554
Ir8 Sc24 2.584451 1_555
Ir8 Sc36 2.618303 1_555
Ir8 Sc51 2.854323 1_554
Ir8 Sc53 2.854323 1_555
Ir8 Sc4 2.956320 1_555
Ir8 Sc85 2.981217 1_555
Ir8 Sc72 2.981217 1_554
Ir8 Sc67 3.041545 1_554
Ir8 Sc81 3.041545 1_555
Ir9 Sc25 2.584451 1_555
Ir9 Sc37 2.618303 1_555
Ir9 Sc52 2.854323 1_554
Ir9 Sc50 2.854323 1_555
Ir9 Sc5 2.956320 1_565
Ir9 Sc84 2.981217 1_555
Ir9 Sc73 2.981217 1_554
Ir9 Sc69 3.041545 1_554
Ir9 Sc79 3.041545 1_555
Ir10 Sc26 2.584451 1_555
Ir10 Sc38 2.618303 1_555
Ir10 Sc44 2.854323 1_455
Ir10 Sc42 2.854323 1_555
Ir10 Sc0 2.956320 1_556
Ir10 Sc74 2.981217 1_555
Ir10 Sc87 2.981217 1_455
Ir10 Sc82 3.041545 1_455
Ir10 Sc72 3.041545 1_555
Ir11 Sc27 2.584451 1_555
Ir11 Sc39 2.618303 1_555
Ir11 Sc43 2.854323 1_455
Ir11 Sc45 2.854323 1_555
Ir11 Sc1 2.956320 1_555
Ir11 Sc75 2.981217 1_555
Ir11 Sc86 2.981217 1_455
Ir11 Sc84 3.041545 1_455
Ir11 Sc70 3.041545 1_555
Ir12 Sc28 2.584451 1_555
Ir12 Sc40 2.618303 1_555
Ir12 Sc43 2.854323 1_455
Ir12 Sc45 2.854323 1_555
Ir12 Sc0 2.956320 1_555
Ir12 Sc89 2.981217 1_555
Ir12 Sc76 2.981217 1_455
Ir12 Sc71 3.041545 1_455
Ir12 Sc85 3.041545 1_555
Ir13 Sc29 2.584451 1_555
Ir13 Sc41 2.618303 1_555
Ir13 Sc44 2.854323 1_455
Ir13 Sc42 2.854323 1_555
Ir13 Sc1 2.956320 1_556
Ir13 Sc88 2.981217 1_555
Ir13 Sc77 2.981217 1_455
Ir13 Sc83 3.041545 1_555
Ir13 Sc73 3.041545 1_455
Ir14 Sc54 2.624177 1_555
Ir14 Sc10 2.636648 1_556
Ir14 Sc42 2.827538 1_555
Ir14 Sc100 2.919148 1_555
Ir14 Sc110 2.919148 1_555
Ir14 Sc14 2.925821 1_555
Ir14 Sc90 3.047261 1_555
Ir14 Sc103 3.047261 1_555
Ir14 Sc22 3.345886 1_556
Ir14 Sc24 3.345886 1_556
Ir14 Sc83 3.427909 1_555
Ir14 Sc72 3.427909 1_555
Ir15 Sc55 2.624177 1_555
Ir15 Sc11 2.636648 1_555
Ir15 Sc43 2.827538 1_555
Ir15 Sc98 2.919148 1_555
Ir15 Sc112 2.919148 1_555
Ir15 Sc15 2.925821 1_555
Ir15 Sc102 3.047261 1_555
Ir15 Sc91 3.047261 1_555
Ir15 Sc25 3.345886 1_555
Ir15 Sc23 3.345886 1_555
Ir15 Sc84 3.427909 1_555
Ir15 Sc71 3.427909 1_555
Ir16 Sc56 2.624177 1_555
Ir16 Sc11 2.636648 1_556
Ir16 Sc44 2.827538 1_555
Ir16 Sc113 2.919148 1_555
Ir16 Sc99 2.919148 1_555
Ir16 Sc14 2.925821 1_555
Ir16 Sc92 3.047261 1_555
Ir16 Sc105 3.047261 1_555
Ir16 Sc25 3.345886 1_556
Ir16 Sc23 3.345886 1_556
Ir16 Sc73 3.427909 1_555
Ir16 Sc82 3.427909 1_555
Ir17 Sc57 2.624177 1_555
Ir17 Sc10 2.636648 1_555
Ir17 Sc45 2.827538 1_555
Ir17 Sc111 2.919148 1_555
Ir17 Sc101 2.919148 1_555
Ir17 Sc15 2.925821 1_555
Ir17 Sc104 3.047261 1_555
Ir17 Sc93 3.047261 1_555
Ir17 Sc22 3.345886 1_555
Ir17 Sc24 3.345886 1_555
Ir17 Sc70 3.427909 1_555
Ir17 Sc85 3.427909 1_555
Ir18 Sc58 2.624177 1_555
Ir18 Sc6 2.636648 1_655
Ir18 Sc46 2.827538 1_555
Ir18 Sc92 2.919148 1_555
Ir18 Sc102 2.919148 1_555
Ir18 Sc16 2.925821 1_555
Ir18 Sc107 3.047261 1_555
Ir18 Sc94 3.047261 1_555
Ir18 Sc26 3.345886 1_655
Ir18 Sc28 3.345886 1_655
Ir18 Sc87 3.427909 1_555
Ir18 Sc76 3.427909 1_555
Ir19 Sc59 2.624177 1_555
Ir19 Sc7 2.636648 1_555
Ir19 Sc47 2.827538 1_555
Ir19 Sc90 2.919148 1_555
Ir19 Sc104 2.919148 1_555
Ir19 Sc17 2.925821 1_555
Ir19 Sc106 3.047261 1_555
Ir19 Sc95 3.047261 1_555
Ir19 Sc29 3.345886 1_555
Ir19 Sc27 3.345886 1_555
Ir19 Sc88 3.427909 1_555
Ir19 Sc75 3.427909 1_555
Ir20 Sc60 2.624177 1_555
Ir20 Sc7 2.636648 1_655
Ir20 Sc48 2.827538 1_555
Ir20 Sc105 2.919148 1_555
Ir20 Sc91 2.919148 1_555
Ir20 Sc16 2.925821 1_555
Ir20 Sc96 3.047261 1_555
Ir20 Sc109 3.047261 1_555
Ir20 Sc29 3.345886 1_655
Ir20 Sc27 3.345886 1_655
Ir20 Sc77 3.427909 1_555
Ir20 Sc86 3.427909 1_555
Ir21 Sc61 2.624177 1_555
Ir21 Sc6 2.636648 1_555
Ir21 Sc49 2.827538 1_555
Ir21 Sc103 2.919148 1_555
Ir21 Sc93 2.919148 1_555
Ir21 Sc17 2.925821 1_555
Ir21 Sc97 3.047261 1_555
Ir21 Sc108 3.047261 1_555
Ir21 Sc26 3.345886 1_555
Ir21 Sc28 3.345886 1_555
Ir21 Sc74 3.427909 1_555
Ir21 Sc89 3.427909 1_555
Ir22 Sc62 2.624177 1_555
Ir22 Sc8 2.636648 1_565
Ir22 Sc50 2.827538 1_555
Ir22 Sc96 2.919148 1_555
Ir22 Sc106 2.919148 1_555
Ir22 Sc12 2.925821 1_555
Ir22 Sc111 3.047261 1_555
Ir22 Sc98 3.047261 1_555
Ir22 Sc18 3.345886 1_565
Ir22 Sc20 3.345886 1_565
Ir22 Sc79 3.427909 1_555
Ir22 Sc68 3.427909 1_555
Ir23 Sc63 2.624177 1_555
Ir23 Sc9 2.636648 1_555
Ir23 Sc51 2.827538 1_555
Ir23 Sc94 2.919148 1_555
Ir23 Sc108 2.919148 1_555
Ir23 Sc13 2.925821 1_555
Ir23 Sc99 3.047261 1_555
Ir23 Sc110 3.047261 1_555
Ir23 Sc21 3.345886 1_555
Ir23 Sc19 3.345886 1_555
Ir23 Sc80 3.427909 1_555
Ir23 Sc67 3.427909 1_555
Ir24 Sc64 2.624177 1_555
Ir24 Sc9 2.636648 1_565
Ir24 Sc52 2.827538 1_555
Ir24 Sc109 2.919148 1_555
Ir24 Sc95 2.919148 1_555
Ir24 Sc12 2.925821 1_555
Ir24 Sc100 3.047261 1_555
Ir24 Sc113 3.047261 1_555
Ir24 Sc21 3.345886 1_565
Ir24 Sc19 3.345886 1_565
Ir24 Sc69 3.427909 1_555
Ir24 Sc78 3.427909 1_555
Ir25 Sc65 2.624177 1_555
Ir25 Sc8 2.636648 1_555
Ir25 Sc53 2.827538 1_555
Ir25 Sc107 2.919148 1_555
Ir25 Sc97 2.919148 1_555
Ir25 Sc13 2.925821 1_555
Ir25 Sc101 3.047261 1_555
Ir25 Sc112 3.047261 1_555
Ir25 Sc18 3.345886 1_555
Ir25 Sc20 3.345886 1_555
Ir25 Sc66 3.427909 1_555
Ir25 Sc81 3.427909 1_555
