# generated using pymatgen
data_Y3Ga
_symmetry_space_group_name_H-M   'P 1'
_cell_length_a   4.75707700
_cell_length_b   4.75707700
_cell_length_c   4.75707700
_cell_angle_alpha   90.00000000
_cell_angle_beta   90.00000000
_cell_angle_gamma   90.00000000
_symmetry_Int_Tables_number   1
_chemical_formula_structural   Y3Ga
_chemical_formula_sum   'Y3 Ga1'
_cell_volume   107.65161349
_cell_formula_units_Z   1
loop_
 _symmetry_equiv_pos_site_id
 _symmetry_equiv_pos_as_xyz
  1  'x, y, z'
loop_
 _atom_site_type_symbol
 _atom_site_label
 _atom_site_symmetry_multiplicity
 _atom_site_fract_x
 _atom_site_fract_y
 _atom_site_fract_z
 _atom_site_occupancy
  Y  Y0  1  0.00000000  0.50000000  0.50000000  1
  Y  Y1  1  0.50000000  0.00000000  0.50000000  1
  Y  Y2  1  0.50000000  0.50000000  0.00000000  1
  Ga  Ga0  1  0.00000000  0.00000000  0.00000000  1
loop_
_geom_bond_atom_site_label_1
_geom_bond_atom_site_label_2
_geom_bond_distance
_geom_bond_site_symmetry_2
Y0 Y1 3.363761 1_565
Y0 Y2 3.363761 1_556
Y0 Y2 3.363761 1_555
Y0 Y1 3.363761 1_465
Y0 Y1 3.363761 1_555
Y0 Y1 3.363761 1_455
Y0 Y2 3.363761 1_456
Y0 Y2 3.363761 1_455
Y1 Y2 3.363761 1_556
Y1 Y2 3.363761 1_555
Y1 Y2 3.363761 1_546
Y1 Y2 3.363761 1_545
Ga0 Y0 3.363761 1_545
Ga0 Y2 3.363761 1_555
Ga0 Y0 3.363761 1_554
Ga0 Y1 3.363761 1_555
Ga0 Y2 3.363761 1_545
Ga0 Y1 3.363761 1_554
Ga0 Y0 3.363761 1_555
Ga0 Y2 3.363761 1_445
Ga0 Y0 3.363761 1_544
Ga0 Y1 3.363761 1_455
Ga0 Y1 3.363761 1_454
Ga0 Y2 3.363761 1_455
