# generated using pymatgen
data_Ba4Ta10NiO30
_symmetry_space_group_name_H-M   'P 1'
_cell_length_a   10.03740521
_cell_length_b   10.03740521
_cell_length_c   10.03740521
_cell_angle_alpha   133.57749960
_cell_angle_beta   117.90682352
_cell_angle_gamma   80.94571598
_symmetry_Int_Tables_number   1
_chemical_formula_structural   Ba4Ta10NiO30
_chemical_formula_sum   'Ba4 Ta10 Ni1 O30'
_cell_volume   625.46513494
_cell_formula_units_Z   1
loop_
 _symmetry_equiv_pos_site_id
 _symmetry_equiv_pos_as_xyz
  1  'x, y, z'
loop_
 _atom_site_type_symbol
 _atom_site_label
 _atom_site_symmetry_multiplicity
 _atom_site_fract_x
 _atom_site_fract_y
 _atom_site_fract_z
 _atom_site_occupancy
  Ba  Ba0  1  0.04689400  0.54689400  0.50000000  1
  Ba  Ba1  1  0.04815300  0.04815300  0.00000000  1
  Ba  Ba2  1  0.45788600  0.45788600  0.00000000  1
  Ba  Ba3  1  0.44634400  0.94634400  0.50000000  1
  Ta  Ta0  1  0.80745700  0.36981000  0.93234800  1
  Ta  Ta1  1  0.80745700  0.87510900  0.43764700  1
  Ta  Ta2  1  0.43746200  0.87510900  0.06765200  1
  Ta  Ta3  1  0.43746200  0.36981000  0.56235300  1
  Ta  Ta4  1  0.25179100  0.50222800  0.25043700  1
  Ta  Ta5  1  0.25179100  0.00135400  0.74956300  1
  Ta  Ta6  1  0.05767300  0.62543500  0.93288600  1
  Ta  Ta7  1  0.05767300  0.12478600  0.43223700  1
  Ta  Ta8  1  0.69254900  0.62543500  0.56776300  1
  Ta  Ta9  1  0.69254900  0.12478600  0.06711400  1
  Ni  Ni0  1  0.72298200  0.72298200  0.00000000  1
  O  O0  1  0.02653400  0.89447500  0.60492300  1
  O  O1  1  0.02653400  0.42161100  0.13205900  1
  O  O2  1  0.28955200  0.89447500  0.86794100  1
  O  O3  1  0.28955200  0.42161100  0.39507700  1
  O  O4  1  0.25690800  0.73839000  0.98676400  1
  O  O5  1  0.25690800  0.27014400  0.51851800  1
  O  O6  1  0.75162600  0.73839000  0.48148200  1
  O  O7  1  0.75162600  0.27014400  0.01323600  1
  O  O8  1  0.21687900  0.59356500  0.11533500  1
  O  O9  1  0.21687900  0.10154400  0.62331500  1
  O  O10  1  0.47823000  0.59356500  0.37668500  1
  O  O11  1  0.47823000  0.10154400  0.88466500  1
  O  O12  1  0.92420700  0.67446000  0.75025300  1
  O  O13  1  0.92420700  0.17395400  0.24974700  1
  O  O14  1  0.05470100  0.37860400  0.67609700  1
  O  O15  1  0.08201500  0.89805200  0.18396300  1
  O  O16  1  0.70250700  0.37860400  0.32390300  1
  O  O17  1  0.71408900  0.89805200  0.81603700  1
  O  O18  1  0.58223200  0.30669500  0.72446300  1
  O  O19  1  0.58223200  0.85776900  0.27553700  1
  O  O20  1  0.81998700  0.12768200  0.69230500  1
  O  O21  1  0.76771500  0.62274200  0.14497300  1
  O  O22  1  0.43537700  0.12768200  0.30769500  1
  O  O23  1  0.47776900  0.62274200  0.85502700  1
  O  O24  1  0.88794700  0.53786100  0.91861800  1
  O  O25  1  0.88794700  0.96932900  0.35008600  1
  O  O26  1  0.61924300  0.96932900  0.08138200  1
  O  O27  1  0.61924300  0.53786100  0.64991400  1
  O  O28  1  0.25824500  0.75824500  0.50000000  1
  O  O29  1  0.24525400  0.24525400  0.00000000  1
loop_
_geom_bond_atom_site_label_1
_geom_bond_atom_site_label_2
_geom_bond_distance
_geom_bond_site_symmetry_2
Ba0 O12 2.725917 1_455
Ba0 O13 2.725917 1_455
Ba0 O0 2.869525 1_555
Ba0 O2 2.869525 1_555
Ba0 O3 2.869525 1_555
Ba0 O1 2.869525 1_555
Ba0 O14 3.151004 1_555
Ba0 O16 3.151004 1_455
Ba0 O28 3.227579 1_555
Ba0 O5 3.270582 1_555
Ba0 O4 3.270582 1_555
Ba0 O7 3.270582 1_455
Ba0 O6 3.270582 1_455
Ba1 O12 2.736275 1_444
Ba1 O13 2.736275 1_455
Ba1 O17 2.980243 1_444
Ba1 O15 2.980243 1_545
Ba1 O3 3.003101 1_555
Ba1 O1 3.003101 1_555
Ba1 O0 3.003101 1_544
Ba1 O2 3.003101 1_544
Ba1 O29 3.009965 1_555
Ba2 O18 2.891088 1_554
Ba2 O19 2.891088 1_555
Ba2 O10 2.908220 1_555
Ba2 O9 2.908229 1_554
Ba2 O11 2.908229 1_554
Ba2 O8 2.908229 1_555
Ba2 O21 2.931019 1_555
Ba2 O23 2.931019 1_554
Ba2 O6 3.239064 1_555
Ba2 O7 3.239064 1_555
Ba2 O4 3.239064 1_554
Ba2 O5 3.239064 1_554
Ba2 O29 3.247142 1_555
Ba3 O18 2.731351 1_565
Ba3 O19 2.731351 1_555
Ba3 O10 2.853879 1_555
Ba3 O11 2.853883 1_565
Ba3 O8 2.853883 1_555
Ba3 O9 2.853887 1_565
Ba3 O28 2.872494 1_555
Ni0 O23 2.143860 1_554
Ni0 O21 2.143860 1_555
Ni0 O24 2.250956 1_554
Ni0 O27 2.250956 1_554
Ni0 O25 2.250956 1_555
Ni0 O26 2.250956 1_555
O0 Ta5 1.978436 1_565
O0 Ta1 1.980110 1_455
O1 Ta4 1.978436 1_555
O1 Ta0 1.980110 1_454
O2 Ta5 1.978436 1_565
O2 Ta2 1.980110 1_556
O3 Ta4 1.978436 1_555
O3 Ta3 1.980110 1_555
O4 Ta2 1.922537 1_556
O4 Ta6 2.105486 1_555
O5 Ta3 1.922537 1_555
O5 Ta7 2.105487 1_555
O6 Ta1 1.922537 1_555
O6 Ta8 2.105495 1_555
O7 Ta0 1.922537 1_554
O7 Ta9 2.105495 1_555
O8 Ta6 1.979162 1_554
O8 Ta4 1.992560 1_555
O9 Ta7 1.979168 1_555
O9 Ta5 1.992551 1_555
O10 Ta8 1.979169 1_555
O10 Ta4 1.992562 1_555
O11 Ta9 1.979165 1_556
O11 Ta5 1.992560 1_555
O12 Ta8 2.033386 1_555
O12 Ta6 2.033388 1_655
O13 Ta9 2.033386 1_555
O13 Ta7 2.033388 1_655
O14 Ta6 1.982395 1_555
O14 Ta7 1.982403 1_555
O15 Ta7 2.006289 1_565
O15 Ta6 2.006297 1_554
O16 Ta9 1.982399 1_555
O16 Ta8 1.982399 1_555
O17 Ta9 2.006295 1_566
O17 Ta8 2.006295 1_555
O18 Ta0 2.019573 1_555
O18 Ta3 2.019573 1_555
O19 Ta2 2.019573 1_555
O19 Ta1 2.019573 1_555
O20 Ta0 1.960105 1_555
O20 Ta1 1.960105 1_545
O21 Ta1 2.041450 1_555
O21 Ta0 2.041450 1_554
O22 Ta3 1.960105 1_555
O22 Ta2 1.960105 1_545
O23 Ta3 2.041450 1_555
O23 Ta2 2.041450 1_556
O24 Ta6 1.940321 1_655
O24 Ta0 2.090605 1_555
O25 Ta7 1.940320 1_665
O25 Ta1 2.090605 1_555
O26 Ta9 1.940312 1_565
O26 Ta2 2.090605 1_555
O27 Ta8 1.940312 1_555
O27 Ta3 2.090605 1_555
O28 Ta5 1.976984 1_565
O28 Ta4 1.976984 1_555
O29 Ta4 1.983954 1_555
O29 Ta5 1.983954 1_554
