# generated using pymatgen
data_MgVMoS4
_symmetry_space_group_name_H-M   'P 1'
_cell_length_a   7.27712577
_cell_length_b   7.35946581
_cell_length_c   7.35762247
_cell_angle_alpha   60.48864864
_cell_angle_beta   60.30119666
_cell_angle_gamma   60.32081437
_symmetry_Int_Tables_number   1
_chemical_formula_structural   MgVMoS4
_chemical_formula_sum   'Mg2 V2 Mo2 S8'
_cell_volume   280.96196409
_cell_formula_units_Z   2
loop_
 _symmetry_equiv_pos_site_id
 _symmetry_equiv_pos_as_xyz
  1  'x, y, z'
loop_
 _atom_site_type_symbol
 _atom_site_label
 _atom_site_symmetry_multiplicity
 _atom_site_fract_x
 _atom_site_fract_y
 _atom_site_fract_z
 _atom_site_occupancy
  Mg  Mg0  1  0.87235560  0.87756668  0.87758227  1
  Mg  Mg1  1  0.12764857  0.12243356  0.12242233  1
  V  V0  1  0.49999268  0.50003806  0.49994503  1
  V  V1  1  0.99999415  0.49999634  0.50001282  1
  Mo  Mo0  1  0.50000759  0.49999047  0.00000681  1
  Mo  Mo1  1  0.50000109  0.99999139  0.50001121  1
  S  S0  1  0.74329143  0.73721801  0.73715830  1
  S  S1  1  0.26015755  0.26392087  0.71567191  1
  S  S2  1  0.26009816  0.71567842  0.26395702  1
  S  S3  1  0.71763916  0.26277657  0.26275264  1
  S  S4  1  0.73987665  0.28434047  0.73602742  1
  S  S5  1  0.28236991  0.73720265  0.73725561  1
  S  S6  1  0.25671282  0.26277009  0.26286149  1
  S  S7  1  0.73985865  0.73607142  0.28433614  1
loop_
_geom_bond_atom_site_label_1
_geom_bond_atom_site_label_2
_geom_bond_distance
_geom_bond_site_symmetry_2
Mg0 S5 2.445749 1_655
Mg0 S0 2.447459 1_555
Mg0 S7 2.456680 1_556
Mg0 S4 2.457885 1_565
Mg1 S3 2.445717 1_455
Mg1 S6 2.447478 1_555
Mg1 S1 2.456658 1_554
Mg1 S2 2.457771 1_545
Mo0 S3 2.502790 1_555
Mo0 S5 2.502849 1_554
Mo0 S0 2.502868 1_554
Mo0 S6 2.502890 1_555
Mo0 S4 2.504430 1_554
Mo0 S2 2.504458 1_555
Mo1 S5 2.502689 1_555
Mo1 S3 2.502703 1_565
Mo1 S0 2.502982 1_555
Mo1 S6 2.502988 1_565
Mo1 S1 2.504379 1_565
Mo1 S7 2.504398 1_555
S0 V1 2.474608 1_555
S1 V1 2.474672 1_455
S1 V0 2.475101 1_555
S2 V1 2.473976 1_455
S2 V0 2.475110 1_555
S3 V0 2.475415 1_555
S4 V1 2.473916 1_555
S4 V0 2.475541 1_555
S5 V0 2.475540 1_555
S6 V1 2.474666 1_455
S7 V1 2.474610 1_555
S7 V0 2.474859 1_555
