# generated using pymatgen
data_Li9Mn2Co5O16
_symmetry_space_group_name_H-M   'P 1'
_cell_length_a   2.94333700
_cell_length_b   10.04864004
_cell_length_c   10.16174457
_cell_angle_alpha   107.81864797
_cell_angle_beta   90.88685677
_cell_angle_gamma   91.41449182
_symmetry_Int_Tables_number   1
_chemical_formula_structural   Li9Mn2Co5O16
_chemical_formula_sum   'Li9 Mn2 Co5 O16'
_cell_volume   285.96083454
_cell_formula_units_Z   1
loop_
 _symmetry_equiv_pos_site_id
 _symmetry_equiv_pos_as_xyz
  1  'x, y, z'
loop_
 _atom_site_type_symbol
 _atom_site_label
 _atom_site_symmetry_multiplicity
 _atom_site_fract_x
 _atom_site_fract_y
 _atom_site_fract_z
 _atom_site_occupancy
  Li  Li0  1  0.99635800  0.25859700  0.25176800  1
  Li  Li1  1  0.49350400  0.50382000  0.75524600  1
  Li  Li2  1  0.99451700  0.74439000  0.25069900  1
  Li  Li3  1  0.50183300  0.49930300  0.24751400  1
  Li  Li4  1  0.00379100  0.74367600  0.74265900  1
  Li  Li5  1  0.50576300  0.99321100  0.26017000  1
  Li  Li6  1  0.50075700  0.00705000  0.73871200  1
  Li  Li7  1  0.01359800  0.24615600  0.74636900  1
  Li  Li8  1  0.98747600  0.00520700  0.51050800  1
  Mn  Mn0  1  0.98503400  0.99965500  0.00330200  1
  Mn  Mn1  1  0.51288900  0.24474000  0.49970100  1
  Co  Co0  1  0.01461400  0.49283800  0.99782000  1
  Co  Co1  1  0.48929400  0.75952100  0.49923600  1
  Co  Co2  1  0.01223700  0.50037700  0.49591600  1
  Co  Co3  1  0.50499900  0.74790300  0.00220200  1
  Co  Co4  1  0.49171700  0.25472500  0.99646700  1
  O  O0  1  0.49907800  0.10708500  0.11231400  1
  O  O1  1  0.02474500  0.36873600  0.60244800  1
  O  O2  1  0.51693200  0.62574100  0.11186700  1
  O  O3  1  0.99700000  0.37944900  0.12057100  1
  O  O4  1  0.47230000  0.62497000  0.60817200  1
  O  O5  1  0.96550900  0.87434000  0.11750800  1
  O  O6  1  0.95076400  0.86292800  0.61752200  1
  O  O7  1  0.50290000  0.13796800  0.61726300  1
  O  O8  1  0.54230400  0.37691600  0.38550000  1
  O  O9  1  0.03836000  0.63254200  0.88488700  1
  O  O10  1  0.49217300  0.85927800  0.38560100  1
  O  O11  1  0.02594900  0.62714900  0.38978500  1
  O  O12  1  0.47480000  0.88343500  0.89790000  1
  O  O13  1  0.00070800  0.14035400  0.38887200  1
  O  O14  1  0.98971300  0.11505900  0.88577900  1
  O  O15  1  0.49838500  0.38288300  0.87572500  1
loop_
_geom_bond_atom_site_label_1
_geom_bond_atom_site_label_2
_geom_bond_distance
_geom_bond_site_symmetry_2
Li0 O8 2.047492 1_555
Li0 O3 2.059851 1_555
Li0 O13 2.089571 1_655
Li0 O8 2.166037 1_655
Li0 O0 2.230202 1_555
Li0 O0 2.317602 1_655
Li1 O15 1.971489 1_555
Li1 O9 2.073773 1_555
Li1 O1 2.169876 1_555
Li1 O9 2.183973 1_655
Li1 O4 2.198620 1_555
Li1 O1 2.363975 1_655
Li2 O2 2.052854 1_555
Li2 O10 2.059937 1_655
Li2 O11 2.101065 1_655
Li2 O10 2.139302 1_555
Li2 O5 2.151248 1_555
Li2 O2 2.214582 1_655
Li3 O3 2.055210 1_455
Li3 O3 2.105396 1_555
Li3 O8 2.133117 1_555
Li3 O2 2.141767 1_555
Li3 O11 2.171930 1_555
Li3 O11 2.194702 1_655
Li4 O6 2.003246 1_455
Li4 O4 2.081819 1_555
Li4 O9 2.082108 1_555
Li4 O4 2.140501 1_455
Li4 O12 2.205245 1_555
Li4 O12 2.390236 1_455
Li5 O5 2.107198 1_555
Li5 O10 2.118081 1_555
Li5 O0 2.149323 1_565
Li5 O13 2.161041 1_665
Li5 O5 2.198199 1_455
Li5 O13 2.256480 1_565
Li6 O7 2.060888 1_555
Li6 O14 2.084751 1_555
Li6 O6 2.102856 1_545
Li6 O14 2.198049 1_455
Li6 O6 2.228352 1_445
Li6 O12 2.322587 1_545
Li7 O7 2.036648 1_455
Li7 O7 2.059147 1_555
Li7 O15 2.095568 1_555
Li7 O1 2.181554 1_555
Li7 O14 2.210858 1_455
Li7 O15 2.230338 1_455
Li8 O6 2.045927 1_545
Li8 O7 2.054624 1_655
Li8 O7 2.060809 1_555
Li8 O13 2.097563 1_655
Li8 O10 2.141199 1_545
Li8 O10 2.234915 1_645
Mn0 O14 1.902232 1_564
Mn0 O0 1.953787 1_665
Mn0 O5 1.956711 1_555
Mn0 O0 1.957485 1_565
Mn0 O12 1.965840 1_554
Mn0 O12 1.988593 1_654
Mn1 O7 1.833883 1_555
Mn1 O13 1.946186 1_555
Mn1 O13 1.957454 1_655
Mn1 O1 1.993691 1_655
Mn1 O1 2.011360 1_555
Mn1 O8 2.014708 1_555
Co0 O3 1.930222 1_456
Co0 O15 2.020152 1_555
Co0 O15 2.022030 1_455
Co0 O2 2.053003 1_556
Co0 O9 2.067904 1_555
Co0 O2 2.115258 1_456
Co1 O10 1.745458 1_555
Co1 O6 1.866755 1_555
Co1 O11 1.955583 1_555
Co1 O4 1.992568 1_555
Co1 O6 2.100685 1_455
Co1 O11 2.180374 1_655
Co2 O11 1.904507 1_555
Co2 O4 1.922703 1_555
Co2 O8 1.930425 1_455
Co2 O1 1.949534 1_555
Co2 O8 2.128381 1_555
Co2 O4 2.162087 1_455
Co3 O2 1.894238 1_555
Co3 O9 1.917379 1_554
Co3 O5 1.943981 1_555
Co3 O12 1.967881 1_554
Co3 O9 2.128717 1_654
Co3 O5 2.180519 1_455
Co4 O15 2.032432 1_555
Co4 O3 2.062910 1_556
Co4 O14 2.073183 1_455
Co4 O3 2.112129 1_456
Co4 O14 2.137707 1_555
Co4 O0 2.158000 1_556
