# generated using pymatgen
data_Yb15C19
_symmetry_space_group_name_H-M   'P 1'
_cell_length_a   8.22618900
_cell_length_b   8.22618900
_cell_length_c   15.77713400
_cell_angle_alpha   90.00000000
_cell_angle_beta   90.00000000
_cell_angle_gamma   90.00000000
_symmetry_Int_Tables_number   1
_chemical_formula_structural   Yb15C19
_chemical_formula_sum   'Yb30 C38'
_cell_volume   1067.64158387
_cell_formula_units_Z   2
loop_
 _symmetry_equiv_pos_site_id
 _symmetry_equiv_pos_as_xyz
  1  'x, y, z'
loop_
 _atom_site_type_symbol
 _atom_site_label
 _atom_site_symmetry_multiplicity
 _atom_site_fract_x
 _atom_site_fract_y
 _atom_site_fract_z
 _atom_site_occupancy
  Yb  Yb0  1  0.50000000  0.50000000  0.50000000  1
  Yb  Yb1  1  0.00000000  0.00000000  0.00000000  1
  Yb  Yb2  1  0.00000000  0.00000000  0.33210800  1
  Yb  Yb3  1  0.00000000  0.00000000  0.66789200  1
  Yb  Yb4  1  0.50000000  0.50000000  0.16789200  1
  Yb  Yb5  1  0.50000000  0.50000000  0.83210800  1
  Yb  Yb6  1  0.60183200  0.20849400  0.65665400  1
  Yb  Yb7  1  0.39816800  0.79150600  0.65665400  1
  Yb  Yb8  1  0.29150600  0.89816800  0.15665400  1
  Yb  Yb9  1  0.79150600  0.60183200  0.34334600  1
  Yb  Yb10  1  0.20849400  0.39816800  0.34334600  1
  Yb  Yb11  1  0.89816800  0.70849400  0.84334600  1
  Yb  Yb12  1  0.10183200  0.29150600  0.84334600  1
  Yb  Yb13  1  0.70849400  0.10183200  0.15665400  1
  Yb  Yb14  1  0.79150600  0.60183200  0.65665400  1
  Yb  Yb15  1  0.20849400  0.39816800  0.65665400  1
  Yb  Yb16  1  0.89816800  0.70849400  0.15665400  1
  Yb  Yb17  1  0.39816800  0.79150600  0.34334600  1
  Yb  Yb18  1  0.60183200  0.20849400  0.34334600  1
  Yb  Yb19  1  0.70849400  0.10183200  0.84334600  1
  Yb  Yb20  1  0.29150600  0.89816800  0.84334600  1
  Yb  Yb21  1  0.10183200  0.29150600  0.15665400  1
  Yb  Yb22  1  0.70137800  0.90539900  0.50000000  1
  Yb  Yb23  1  0.29862200  0.09460100  0.50000000  1
  Yb  Yb24  1  0.59460100  0.79862200  0.00000000  1
  Yb  Yb25  1  0.09460100  0.70137800  0.50000000  1
  Yb  Yb26  1  0.90539900  0.29862200  0.50000000  1
  Yb  Yb27  1  0.79862200  0.40539900  0.00000000  1
  Yb  Yb28  1  0.20137800  0.59460100  0.00000000  1
  Yb  Yb29  1  0.40539900  0.20137800  0.00000000  1
  C  C0  1  0.50000000  0.50000000  0.00000000  1
  C  C1  1  0.00000000  0.00000000  0.50000000  1
  C  C2  1  0.50000000  0.50000000  0.66007200  1
  C  C3  1  0.50000000  0.50000000  0.33992800  1
  C  C4  1  0.00000000  0.00000000  0.83992800  1
  C  C5  1  0.00000000  0.00000000  0.16007200  1
  C  C6  1  0.90769100  0.29845300  0.67673300  1
  C  C7  1  0.09230900  0.70154700  0.67673300  1
  C  C8  1  0.20154700  0.59230900  0.17673300  1
  C  C9  1  0.70154700  0.90769100  0.32326700  1
  C  C10  1  0.29845300  0.09230900  0.32326700  1
  C  C11  1  0.59230900  0.79845300  0.82326700  1
  C  C12  1  0.40769100  0.20154700  0.82326700  1
  C  C13  1  0.79845300  0.40769100  0.17673300  1
  C  C14  1  0.64929500  0.85070500  0.75000000  1
  C  C15  1  0.35070500  0.14929500  0.75000000  1
  C  C16  1  0.59842900  0.20175800  0.50000000  1
  C  C17  1  0.64929500  0.85070500  0.25000000  1
  C  C18  1  0.85070500  0.35070500  0.25000000  1
  C  C19  1  0.85070500  0.35070500  0.75000000  1
  C  C20  1  0.14929500  0.64929500  0.75000000  1
  C  C21  1  0.35070500  0.14929500  0.25000000  1
  C  C22  1  0.70154700  0.90769100  0.67673300  1
  C  C23  1  0.29845300  0.09230900  0.67673300  1
  C  C24  1  0.59230900  0.79845300  0.17673300  1
  C  C25  1  0.09230900  0.70154700  0.32326700  1
  C  C26  1  0.90769100  0.29845300  0.32326700  1
  C  C27  1  0.79845300  0.40769100  0.82326700  1
  C  C28  1  0.20154700  0.59230900  0.82326700  1
  C  C29  1  0.40769100  0.20154700  0.17673300  1
  C  C30  1  0.70175800  0.09842900  0.00000000  1
  C  C31  1  0.09842900  0.29824200  0.00000000  1
  C  C32  1  0.90157100  0.70175800  0.00000000  1
  C  C33  1  0.20175800  0.40157100  0.50000000  1
  C  C34  1  0.79824200  0.59842900  0.50000000  1
  C  C35  1  0.29824200  0.90157100  0.00000000  1
  C  C36  1  0.40157100  0.79824200  0.50000000  1
  C  C37  1  0.14929500  0.64929500  0.25000000  1
loop_
_geom_bond_atom_site_label_1
_geom_bond_atom_site_label_2
_geom_bond_distance
_geom_bond_site_symmetry_2
C0 Yb29 2.576839 1_555
C0 Yb28 2.576839 1_555
C0 Yb24 2.576839 1_555
C0 Yb27 2.576839 1_555
C0 Yb4 2.648855 1_555
C0 Yb5 2.648855 1_554
C1 Yb26 2.576839 1_455
C1 Yb23 2.576839 1_555
C1 Yb25 2.576839 1_545
C1 Yb22 2.576839 1_445
C1 Yb2 2.648855 1_555
C1 Yb3 2.648855 1_555
C2 Yb0 2.525477 1_555
C2 Yb15 2.540661 1_555
C2 Yb6 2.540661 1_555
C2 Yb7 2.540661 1_555
C2 Yb14 2.540661 1_555
C2 Yb5 2.714235 1_555
C3 Yb0 2.525477 1_555
C3 Yb10 2.540661 1_555
C3 Yb18 2.540661 1_555
C3 Yb17 2.540661 1_555
C3 Yb9 2.540661 1_555
C3 Yb4 2.714235 1_555
C4 Yb1 2.525477 1_556
C4 Yb12 2.540661 1_555
C4 Yb20 2.540661 1_545
C4 Yb19 2.540661 1_455
C4 Yb11 2.540661 1_445
C4 Yb3 2.714235 1_555
C5 Yb1 2.525477 1_555
C5 Yb21 2.540661 1_555
C5 Yb8 2.540661 1_545
C5 Yb16 2.540661 1_445
C5 Yb13 2.540661 1_455
C5 Yb2 2.714235 1_555
C6 Yb3 2.573662 1_655
C6 Yb15 2.626056 1_655
C6 Yb6 2.641687 1_555
C6 Yb14 2.691118 1_555
C6 Yb26 2.788404 1_555
C7 Yb3 2.573662 1_565
C7 Yb14 2.626056 1_455
C7 Yb7 2.641687 1_555
C7 Yb15 2.691118 1_555
C7 Yb25 2.788404 1_555
C8 Yb4 2.573662 1_555
C8 Yb21 2.626056 1_555
C8 Yb8 2.641687 1_555
C8 Yb16 2.691118 1_455
C8 Yb28 2.788404 1_555
C9 Yb2 2.573662 1_665
C9 Yb18 2.626056 1_565
C9 Yb9 2.641687 1_555
C9 Yb17 2.691118 1_555
C9 Yb22 2.788404 1_555
C10 C21 1.319362 1_555
C10 Yb2 2.573662 1_555
C10 Yb17 2.626056 1_545
C10 Yb10 2.641687 1_555
C10 Yb18 2.691118 1_555
C10 Yb23 2.788404 1_555
C11 C14 1.319362 1_555
C11 Yb5 2.573662 1_555
C11 Yb20 2.626056 1_555
C11 Yb11 2.641687 1_555
C11 Yb19 2.691118 1_565
C11 Yb24 2.788404 1_556
C12 C15 1.319362 1_555
C12 Yb5 2.573662 1_555
C12 Yb19 2.626056 1_555
C12 Yb12 2.641687 1_555
C12 Yb20 2.691118 1_545
C12 Yb29 2.788404 1_556
C13 C18 1.319362 1_555
C13 Yb4 2.573662 1_555
C13 Yb16 2.626056 1_555
C13 Yb13 2.641687 1_555
C13 Yb21 2.691118 1_655
C13 Yb27 2.788404 1_555
C14 C22 1.319362 1_555
C14 Yb19 2.583350 1_565
C14 Yb7 2.583350 1_555
C14 Yb11 2.780079 1_555
C14 Yb14 2.780079 1_555
C15 C23 1.319362 1_555
C15 Yb6 2.583350 1_555
C15 Yb20 2.583350 1_545
C15 Yb15 2.780079 1_555
C15 Yb12 2.780079 1_555
C16 Yb6 2.472331 1_555
C16 Yb18 2.472331 1_555
C16 Yb22 2.580811 1_545
C16 Yb0 2.583555 1_555
C16 Yb23 2.619067 1_555
C16 Yb26 2.647929 1_555
C17 C24 1.319362 1_555
C17 C9 1.319362 1_555
C17 Yb17 2.583350 1_555
C17 Yb13 2.583350 1_565
C17 Yb16 2.780079 1_555
C17 Yb9 2.780079 1_555
C18 C26 1.319362 1_555
C18 Yb21 2.583350 1_655
C18 Yb9 2.583350 1_555
C18 Yb18 2.780079 1_555
C18 Yb13 2.780079 1_555
C19 C6 1.319362 1_555
C19 C27 1.319362 1_555
C19 Yb12 2.583350 1_655
C19 Yb14 2.583350 1_555
C19 Yb6 2.780079 1_555
C19 Yb19 2.780079 1_555
C20 C28 1.319362 1_555
C20 C7 1.319362 1_555
C20 Yb15 2.583350 1_555
C20 Yb11 2.583350 1_455
C20 Yb20 2.780079 1_555
C20 Yb7 2.780079 1_555
C21 C29 1.319362 1_555
C21 Yb18 2.583350 1_555
C21 Yb8 2.583350 1_545
C21 Yb21 2.780079 1_555
C21 Yb10 2.780079 1_555
C22 Yb3 2.573662 1_665
C22 Yb6 2.626056 1_565
C22 Yb14 2.641687 1_555
C22 Yb7 2.691118 1_555
C22 Yb22 2.788404 1_555
C23 Yb3 2.573662 1_555
C23 Yb7 2.626056 1_545
C23 Yb15 2.641687 1_555
C23 Yb6 2.691118 1_555
C23 Yb23 2.788404 1_555
C24 Yb4 2.573662 1_555
C24 Yb8 2.626056 1_555
C24 Yb16 2.641687 1_555
C24 Yb13 2.691118 1_565
C24 Yb24 2.788404 1_555
C25 C37 1.319362 1_555
C25 Yb2 2.573662 1_565
C25 Yb9 2.626056 1_455
C25 Yb17 2.641687 1_555
C25 Yb10 2.691118 1_555
C25 Yb25 2.788404 1_555
C26 Yb2 2.573662 1_655
C26 Yb10 2.626056 1_655
C26 Yb18 2.641687 1_555
C26 Yb9 2.691118 1_555
C26 Yb26 2.788404 1_555
C27 Yb5 2.573662 1_555
C27 Yb11 2.626056 1_555
C27 Yb19 2.641687 1_555
C27 Yb12 2.691118 1_655
C27 Yb27 2.788404 1_556
C28 Yb5 2.573662 1_555
C28 Yb12 2.626056 1_555
C28 Yb20 2.641687 1_555
C28 Yb11 2.691118 1_455
C28 Yb28 2.788404 1_556
C29 Yb4 2.573662 1_555
C29 Yb13 2.626056 1_555
C29 Yb21 2.641687 1_555
C29 Yb8 2.691118 1_545
C29 Yb29 2.788404 1_555
C30 Yb19 2.472331 1_554
C30 Yb13 2.472331 1_555
C30 Yb29 2.580811 1_555
C30 Yb1 2.583555 1_655
C30 Yb24 2.619067 1_545
C30 Yb27 2.647929 1_555
C31 Yb12 2.472331 1_554
C31 Yb21 2.472331 1_555
C31 Yb28 2.580811 1_555
C31 Yb1 2.583555 1_555
C31 Yb27 2.619067 1_455
C31 Yb29 2.647929 1_555
C32 Yb11 2.472331 1_554
C32 Yb16 2.472331 1_555
C32 Yb27 2.580811 1_555
C32 Yb1 2.583555 1_665
C32 Yb28 2.619067 1_655
C32 Yb24 2.647929 1_555
C33 Yb15 2.472331 1_555
C33 Yb10 2.472331 1_555
C33 Yb26 2.580811 1_455
C33 Yb0 2.583555 1_555
C33 Yb25 2.619067 1_555
C33 Yb23 2.647929 1_555
C34 Yb14 2.472331 1_555
C34 Yb9 2.472331 1_555
C34 Yb25 2.580811 1_655
C34 Yb0 2.583555 1_555
C34 Yb26 2.619067 1_555
C34 Yb22 2.647929 1_555
C35 Yb20 2.472331 1_554
C35 Yb8 2.472331 1_555
C35 Yb24 2.580811 1_555
C35 Yb1 2.583555 1_565
C35 Yb29 2.619067 1_565
C35 Yb28 2.647929 1_555
C36 Yb7 2.472331 1_555
C36 Yb17 2.472331 1_555
C36 Yb23 2.580811 1_565
C36 Yb0 2.583555 1_555
C36 Yb22 2.619067 1_555
C36 Yb25 2.647929 1_555
C37 C8 1.319362 1_555
C37 Yb10 2.583350 1_555
C37 Yb16 2.583350 1_455
C37 Yb8 2.780079 1_555
C37 Yb17 2.780079 1_555
