# generated using pymatgen
data_Li4MnCo2O7
_symmetry_space_group_name_H-M   'P 1'
_cell_length_a   2.91795300
_cell_length_b   5.12455595
_cell_length_c   16.84140749
_cell_angle_alpha   87.62786344
_cell_angle_beta   88.01476594
_cell_angle_gamma   89.00807177
_symmetry_Int_Tables_number   1
_chemical_formula_structural   Li4MnCo2O7
_chemical_formula_sum   'Li8 Mn2 Co4 O14'
_cell_volume   251.43454240
_cell_formula_units_Z   2
loop_
 _symmetry_equiv_pos_site_id
 _symmetry_equiv_pos_as_xyz
  1  'x, y, z'
loop_
 _atom_site_type_symbol
 _atom_site_label
 _atom_site_symmetry_multiplicity
 _atom_site_fract_x
 _atom_site_fract_y
 _atom_site_fract_z
 _atom_site_occupancy
  Li  Li0  1  0.50000000  0.50000000  0.00000000  1
  Li  Li1  1  0.93960600  0.65000800  0.13837100  1
  Li  Li2  1  0.35349300  0.77938200  0.28749600  1
  Li  Li3  1  0.78225200  0.92703100  0.42898400  1
  Li  Li4  1  0.21774800  0.07296900  0.57101600  1
  Li  Li5  1  0.64650700  0.22061800  0.71250400  1
  Li  Li6  1  0.06039400  0.34999200  0.86162900  1
  Li  Li7  1  0.00000000  0.00000000  0.00000000  1
  Mn  Mn0  1  0.56485500  0.87051600  0.86167100  1
  Mn  Mn1  1  0.43514500  0.12948400  0.13832900  1
  Co  Co0  1  0.86603700  0.29048700  0.28591100  1
  Co  Co1  1  0.28918700  0.43100900  0.42919100  1
  Co  Co2  1  0.71081300  0.56899100  0.57080900  1
  Co  Co3  1  0.13396300  0.70951300  0.71408900  1
  O  O0  1  0.05637900  0.69908700  0.91963600  1
  O  O1  1  0.45490400  0.84252300  0.07815900  1
  O  O2  1  0.92367900  0.98564000  0.20797000  1
  O  O3  1  0.31868300  0.13194500  0.35622000  1
  O  O4  1  0.71231400  0.27108000  0.49757500  1
  O  O5  1  0.13244100  0.40228100  0.63868200  1
  O  O6  1  0.58891900  0.56432300  0.78251900  1
  O  O7  1  0.94362100  0.30091300  0.08036400  1
  O  O8  1  0.41108100  0.43567700  0.21748100  1
  O  O9  1  0.86755900  0.59771900  0.36131800  1
  O  O10  1  0.28768600  0.72892000  0.50242500  1
  O  O11  1  0.68131700  0.86805500  0.64378000  1
  O  O12  1  0.07632100  0.01436000  0.79203000  1
  O  O13  1  0.54509600  0.15747700  0.92184100  1
loop_
_geom_bond_atom_site_label_1
_geom_bond_atom_site_label_2
_geom_bond_distance
_geom_bond_site_symmetry_2
Li0 O7 2.123600 1_555
Li0 O0 2.123600 1_554
Li0 O1 2.236570 1_555
Li0 O13 2.236570 1_554
Li0 O7 2.301999 1_455
Li0 O0 2.301999 1_654
Li1 O1 1.992534 1_555
Li1 O1 2.031098 1_655
Li1 O7 2.073169 1_555
Li1 O2 2.120073 1_555
Li1 O8 2.197195 1_655
Li1 O8 2.270469 1_555
Li2 O9 2.061711 1_455
Li2 O2 2.106482 1_455
Li2 O9 2.155801 1_555
Li2 O8 2.160760 1_555
Li2 O3 2.184670 1_565
Li2 O2 2.338477 1_555
Li3 O9 2.081717 1_555
Li3 O3 2.096017 1_565
Li3 O10 2.113339 1_555
Li3 O4 2.150438 1_565
Li3 O10 2.169382 1_655
Li3 O3 2.207263 1_665
Li4 O5 2.081717 1_555
Li4 O11 2.096017 1_545
Li4 O4 2.113339 1_555
Li4 O10 2.150438 1_545
Li4 O4 2.169382 1_455
Li4 O11 2.207263 1_445
Li5 O5 2.061711 1_655
Li5 O12 2.106482 1_655
Li5 O5 2.155801 1_555
Li5 O6 2.160760 1_555
Li5 O11 2.184670 1_545
Li5 O12 2.338477 1_555
Li6 O13 1.992534 1_555
Li6 O13 2.031098 1_455
Li6 O0 2.073169 1_555
Li6 O12 2.120073 1_555
Li6 O6 2.197195 1_455
Li6 O6 2.270469 1_555
Li7 O1 2.035168 1_545
Li7 O13 2.035168 1_454
Li7 O7 2.094119 1_455
Li7 O0 2.094119 1_544
Li7 O1 2.173766 1_445
Li7 O13 2.173766 1_554
Mn0 O13 1.819088 1_565
Mn0 O0 1.940153 1_655
Mn0 O0 1.949340 1_555
Mn0 O12 1.989710 1_565
Mn0 O12 1.997889 1_665
Mn0 O6 2.099246 1_555
Mn1 O1 1.819088 1_545
Mn1 O7 1.940153 1_455
Mn1 O7 1.949340 1_555
Mn1 O2 1.989710 1_545
Mn1 O2 1.997889 1_445
Mn1 O8 2.099246 1_555
Co0 O8 1.909170 1_555
Co0 O3 1.948914 1_655
Co0 O8 2.062561 1_655
Co0 O9 2.063441 1_555
Co0 O2 2.082581 1_545
Co0 O3 2.108873 1_555
Co1 O4 1.872914 1_555
Co1 O9 1.878909 1_455
Co1 O10 2.001790 1_555
Co1 O3 2.002616 1_555
Co1 O4 2.160286 1_455
Co1 O9 2.172581 1_555
Co2 O10 1.872914 1_555
Co2 O5 1.878909 1_655
Co2 O4 2.001790 1_555
Co2 O11 2.002616 1_555
Co2 O10 2.160286 1_655
Co2 O5 2.172581 1_555
Co3 O6 1.909170 1_555
Co3 O11 1.948914 1_455
Co3 O6 2.062561 1_455
Co3 O5 2.063441 1_555
Co3 O12 2.082581 1_565
Co3 O11 2.108873 1_555
