# generated using pymatgen
data_TeMoWSeS2
_symmetry_space_group_name_H-M   'P 1'
_cell_length_a   3.30647358
_cell_length_b   3.30647358
_cell_length_c   37.60769400
_cell_angle_alpha   90.00000000
_cell_angle_beta   90.00000000
_cell_angle_gamma   119.99999167
_symmetry_Int_Tables_number   1
_chemical_formula_structural   TeMoWSeS2
_chemical_formula_sum   'Te2 Mo2 W2 Se2 S4'
_cell_volume   356.07172403
_cell_formula_units_Z   2
loop_
 _symmetry_equiv_pos_site_id
 _symmetry_equiv_pos_as_xyz
  1  'x, y, z'
loop_
 _atom_site_type_symbol
 _atom_site_label
 _atom_site_symmetry_multiplicity
 _atom_site_fract_x
 _atom_site_fract_y
 _atom_site_fract_z
 _atom_site_occupancy
  Te  Te0  1  0.33333300  0.66666700  0.04307700  1
  Te  Te1  1  0.33333300  0.66666700  0.14474900  1
  Mo  Mo0  1  0.00000000  0.00000000  0.09390900  1
  Mo  Mo1  1  0.00000000  0.00000000  0.46966000  1
  W  W0  1  0.33333300  0.66666700  0.28183300  1
  W  W1  1  0.33333300  0.66666700  0.65754100  1
  Se  Se0  1  0.00000000  0.00000000  0.70239000  1
  Se  Se1  1  0.00000000  0.00000000  0.61264400  1
  S  S0  1  0.00000000  0.00000000  0.32259700  1
  S  S1  1  0.33333300  0.66666700  0.42899500  1
  S  S2  1  0.33333300  0.66666700  0.51031300  1
  S  S3  1  0.00000000  0.00000000  0.24104200  1
loop_
_geom_bond_atom_site_label_1
_geom_bond_atom_site_label_2
_geom_bond_distance
_geom_bond_site_symmetry_2
Mo0 Te0 2.701619 1_545
Mo0 Te0 2.701622 1_445
Mo0 Te0 2.701622 1_555
Mo0 Te1 2.701832 1_545
Mo0 Te1 2.701834 1_555
Mo0 Te1 2.701834 1_445
Mo1 S2 2.445747 1_545
Mo1 S2 2.445749 1_555
Mo1 S2 2.445749 1_445
Mo1 S1 2.446029 1_545
Mo1 S1 2.446032 1_445
Mo1 S1 2.446032 1_555
Se0 W1 2.547370 1_545
Se0 W1 2.547373 1_555
Se0 W1 2.547373 1_445
Se1 W1 2.548566 1_545
Se1 W1 2.548568 1_555
Se1 W1 2.548568 1_445
S0 W0 2.448359 1_545
S0 W0 2.448361 1_555
S0 W0 2.448361 1_445
S3 W0 2.448995 1_545
S3 W0 2.448997 1_445
S3 W0 2.448997 1_555
