# generated using pymatgen
data_Mg6FeSi
_symmetry_space_group_name_H-M   'P 1'
_cell_length_a   4.66481200
_cell_length_b   6.06353400
_cell_length_c   10.34040000
_cell_angle_alpha   90.00000000
_cell_angle_beta   90.00000000
_cell_angle_gamma   90.00000000
_symmetry_Int_Tables_number   1
_chemical_formula_structural   Mg6FeSi
_chemical_formula_sum   'Mg12 Fe2 Si2'
_cell_volume   292.48075945
_cell_formula_units_Z   2
loop_
 _symmetry_equiv_pos_site_id
 _symmetry_equiv_pos_as_xyz
  1  'x, y, z'
loop_
 _atom_site_type_symbol
 _atom_site_label
 _atom_site_symmetry_multiplicity
 _atom_site_fract_x
 _atom_site_fract_y
 _atom_site_fract_z
 _atom_site_occupancy
  Mg  Mg0  1  0.00000000  0.25819500  0.08880200  1
  Mg  Mg1  1  0.00000000  0.74180500  0.08880200  1
  Mg  Mg2  1  0.00000000  0.50000000  0.83411500  1
  Mg  Mg3  1  0.50000000  0.23593000  0.90989000  1
  Mg  Mg4  1  0.50000000  0.76407000  0.90989000  1
  Mg  Mg5  1  0.50000000  0.50000000  0.66672700  1
  Mg  Mg6  1  0.00000000  0.75819500  0.58880200  1
  Mg  Mg7  1  0.00000000  0.24180500  0.58880200  1
  Mg  Mg8  1  0.00000000  0.00000000  0.33411500  1
  Mg  Mg9  1  0.50000000  0.73593000  0.40989000  1
  Mg  Mg10  1  0.50000000  0.26407000  0.40989000  1
  Mg  Mg11  1  0.50000000  0.00000000  0.16672700  1
  Fe  Fe0  1  0.00000000  0.50000000  0.31731800  1
  Fe  Fe1  1  0.00000000  0.00000000  0.81731800  1
  Si  Si0  1  0.50000000  0.50000000  0.18445500  1
  Si  Si1  1  0.50000000  0.00000000  0.68445500  1
loop_
_geom_bond_atom_site_label_1
_geom_bond_atom_site_label_2
_geom_bond_distance
_geom_bond_site_symmetry_2
Mg0 Mg11 2.922399 1_455
Mg0 Mg11 2.922399 1_555
Mg0 Si0 2.927138 1_455
Mg0 Si0 2.927138 1_555
Mg0 Mg1 2.932386 1_555
Mg0 Mg3 2.980088 1_554
Mg0 Mg3 2.980088 1_454
Mg0 Mg8 2.980862 1_555
Mg0 Mg2 3.014198 1_554
Mg0 Mg1 3.131148 1_545
Mg1 Mg11 2.922399 1_565
Mg1 Mg11 2.922399 1_465
Mg1 Si0 2.927138 1_455
Mg1 Si0 2.927138 1_555
Mg1 Mg4 2.980088 1_554
Mg1 Mg4 2.980088 1_454
Mg1 Mg8 2.980862 1_565
Mg1 Mg2 3.014198 1_554
Mg2 Mg5 2.904478 1_555
Mg2 Mg5 2.904478 1_455
Mg2 Mg3 2.935625 1_455
Mg2 Mg4 2.935625 1_455
Mg2 Mg3 2.935625 1_555
Mg2 Mg4 2.935625 1_555
Mg2 Mg6 2.980862 1_555
Mg2 Mg7 2.980862 1_555
Mg3 Si1 2.735050 1_555
Mg3 Mg5 2.980949 1_555
Mg4 Si1 2.735050 1_565
Mg4 Mg5 2.980949 1_555
Mg5 Mg6 2.922399 1_555
Mg5 Mg7 2.922399 1_555
Mg5 Mg6 2.922399 1_655
Mg5 Mg7 2.922399 1_655
Mg5 Mg9 3.016586 1_555
Mg5 Si1 3.037304 1_565
Mg5 Si1 3.037304 1_555
Mg6 Si1 2.927138 1_465
Mg6 Si1 2.927138 1_565
Mg6 Mg7 2.932386 1_565
Mg6 Mg9 2.980088 1_455
Mg6 Mg9 2.980088 1_555
Mg6 Mg8 3.014198 1_565
Mg6 Mg7 3.131148 1_555
Mg7 Si1 2.927138 1_455
Mg7 Si1 2.927138 1_555
Mg7 Mg8 3.014198 1_555
Mg8 Mg9 2.935625 1_545
Mg8 Mg9 2.935625 1_445
Mg9 Si0 2.735050 1_555
Mg10 Si0 2.735050 1_555
Mg10 Mg8 2.935625 1_555
Mg10 Mg8 2.935625 1_655
Mg10 Mg7 2.980088 1_655
Mg10 Mg7 2.980088 1_555
Mg10 Mg11 2.980949 1_555
Mg10 Mg5 3.016586 1_555
Mg11 Mg8 2.904478 1_555
Mg11 Mg8 2.904478 1_655
Mg11 Mg9 2.980949 1_545
Mg11 Mg4 3.016586 1_544
Mg11 Mg3 3.016586 1_554
Mg11 Si0 3.037304 1_545
Mg11 Si0 3.037304 1_555
Fe0 Si0 2.706954 1_555
Fe0 Si0 2.706954 1_455
Fe0 Mg0 2.780870 1_555
Fe0 Mg1 2.780870 1_555
Fe0 Mg9 2.898782 1_555
Fe0 Mg9 2.898782 1_455
Fe0 Mg10 2.898782 1_455
Fe0 Mg10 2.898782 1_555
Fe0 Mg8 3.036738 1_565
Fe0 Mg8 3.036738 1_555
Fe0 Mg6 3.214295 1_555
Fe0 Mg7 3.214295 1_555
Fe1 Si1 2.706954 1_455
Fe1 Si1 2.706954 1_555
Fe1 Mg6 2.780870 1_545
Fe1 Mg7 2.780870 1_555
Fe1 Mg3 2.898782 1_455
Fe1 Mg4 2.898782 1_545
Fe1 Mg3 2.898782 1_555
Fe1 Mg4 2.898782 1_445
Fe1 Mg2 3.036738 1_545
Fe1 Mg2 3.036738 1_555
Fe1 Mg1 3.214295 1_546
Fe1 Mg0 3.214295 1_556
