# generated using pymatgen
data_BaYb6Si7O24
_symmetry_space_group_name_H-M   'P 1'
_cell_length_a   27.90655400
_cell_length_b   5.66568000
_cell_length_c   7.04704403
_cell_angle_alpha   73.41277236
_cell_angle_beta   90.00000000
_cell_angle_gamma   90.00000000
_symmetry_Int_Tables_number   1
_chemical_formula_structural   BaYb6Si7O24
_chemical_formula_sum   'Ba2 Yb12 Si14 O48'
_cell_volume   1067.83906825
_cell_formula_units_Z   2
loop_
 _symmetry_equiv_pos_site_id
 _symmetry_equiv_pos_as_xyz
  1  'x, y, z'
loop_
 _atom_site_type_symbol
 _atom_site_label
 _atom_site_symmetry_multiplicity
 _atom_site_fract_x
 _atom_site_fract_y
 _atom_site_fract_z
 _atom_site_occupancy
  Ba  Ba0  1  0.75000000  0.71294900  0.91155900  1
  Ba  Ba1  1  0.25000000  0.28705100  0.08844100  1
  Yb  Yb0  1  0.68740600  0.11197300  0.24060100  1
  Yb  Yb1  1  0.18740600  0.88802700  0.75939900  1
  Yb  Yb2  1  0.31259400  0.88802700  0.75939900  1
  Yb  Yb3  1  0.81259400  0.11197300  0.24060100  1
  Yb  Yb4  1  0.60072200  0.78290100  0.59172000  1
  Yb  Yb5  1  0.10072200  0.21709900  0.40828000  1
  Yb  Yb6  1  0.39927800  0.21709900  0.40828000  1
  Yb  Yb7  1  0.89927800  0.78290100  0.59172000  1
  Yb  Yb8  1  0.54237900  0.18160200  0.81823100  1
  Yb  Yb9  1  0.04237900  0.81839800  0.18176900  1
  Yb  Yb10  1  0.45762100  0.81839800  0.18176900  1
  Yb  Yb11  1  0.95762100  0.18160200  0.81823100  1
  Si  Si0  1  0.47361500  0.72207300  0.70185600  1
  Si  Si1  1  0.97361500  0.27792700  0.29814400  1
  Si  Si2  1  0.52638500  0.27792700  0.29814400  1
  Si  Si3  1  0.02638500  0.72207300  0.70185600  1
  Si  Si4  1  0.61098300  0.68048500  0.11350300  1
  Si  Si5  1  0.11098300  0.31951500  0.88649700  1
  Si  Si6  1  0.38901700  0.31951500  0.88649700  1
  Si  Si7  1  0.88901700  0.68048500  0.11350300  1
  Si  Si8  1  0.66974000  0.25162100  0.69685400  1
  Si  Si9  1  0.16974000  0.74837900  0.30314600  1
  Si  Si10  1  0.33026000  0.74837900  0.30314600  1
  Si  Si11  1  0.83026000  0.25162100  0.69685400  1
  Si  Si12  1  0.75000000  0.54643400  0.42360500  1
  Si  Si13  1  0.25000000  0.45356600  0.57639500  1
  O  O0  1  0.45051200  0.87961700  0.49144500  1
  O  O1  1  0.95051200  0.12038300  0.50855500  1
  O  O2  1  0.54948800  0.12038300  0.50855500  1
  O  O3  1  0.04948800  0.87961700  0.49144500  1
  O  O4  1  0.52465000  0.59392100  0.67488400  1
  O  O5  1  0.02465000  0.40607900  0.32511600  1
  O  O6  1  0.47535000  0.40607900  0.32511600  1
  O  O7  1  0.97535000  0.59392100  0.67488400  1
  O  O8  1  0.43498500  0.49799400  0.79557600  1
  O  O9  1  0.93498500  0.50200600  0.20442400  1
  O  O10  1  0.56501500  0.50200600  0.20442400  1
  O  O11  1  0.06501500  0.49799400  0.79557600  1
  O  O12  1  0.48098500  0.88550300  0.85572000  1
  O  O13  1  0.98098500  0.11449700  0.14428000  1
  O  O14  1  0.51901500  0.11449700  0.14428000  1
  O  O15  1  0.01901500  0.88550300  0.85572000  1
  O  O16  1  0.65899200  0.52033800  0.09553200  1
  O  O17  1  0.15899200  0.47966200  0.90446800  1
  O  O18  1  0.34100800  0.47966200  0.90446800  1
  O  O19  1  0.84100800  0.52033800  0.09553200  1
  O  O20  1  0.59396800  0.84853100  0.89760800  1
  O  O21  1  0.09396800  0.15146900  0.10239200  1
  O  O22  1  0.40603200  0.15146900  0.10239200  1
  O  O23  1  0.90603200  0.84853100  0.89760800  1
  O  O24  1  0.62491200  0.83595100  0.26703800  1
  O  O25  1  0.12491200  0.16404900  0.73296200  1
  O  O26  1  0.37508800  0.16404900  0.73296200  1
  O  O27  1  0.87508800  0.83595100  0.26703800  1
  O  O28  1  0.69716800  0.12873300  0.90819600  1
  O  O29  1  0.19716800  0.87126700  0.09180400  1
  O  O30  1  0.30283200  0.87126700  0.09180400  1
  O  O31  1  0.80283200  0.12873300  0.90819600  1
  O  O32  1  0.61801500  0.36785600  0.73179400  1
  O  O33  1  0.11801500  0.63214400  0.26820600  1
  O  O34  1  0.38198500  0.63214400  0.26820600  1
  O  O35  1  0.88198500  0.36785600  0.73179400  1
  O  O36  1  0.66560300  0.05924200  0.56546100  1
  O  O37  1  0.16560300  0.94075800  0.43453900  1
  O  O38  1  0.33439700  0.94075800  0.43453900  1
  O  O39  1  0.83439700  0.05924200  0.56546100  1
  O  O40  1  0.70343600  0.49703800  0.57915600  1
  O  O41  1  0.20343600  0.50296200  0.42084400  1
  O  O42  1  0.29656400  0.50296200  0.42084400  1
  O  O43  1  0.79656400  0.49703800  0.57915600  1
  O  O44  1  0.75000000  0.36025800  0.28527100  1
  O  O45  1  0.25000000  0.63974200  0.71472900  1
  O  O46  1  0.75000000  0.83067300  0.29025400  1
  O  O47  1  0.25000000  0.16932700  0.70974600  1
loop_
_geom_bond_atom_site_label_1
_geom_bond_atom_site_label_2
_geom_bond_distance
_geom_bond_site_symmetry_2
Ba0 O31 2.773399 1_565
Ba0 O28 2.773399 1_565
Ba0 O44 2.814959 1_556
Ba0 O16 2.917893 1_556
Ba0 O19 2.917893 1_556
Ba0 O46 2.929676 1_556
Ba0 O43 3.210627 1_555
Ba0 O40 3.210627 1_555
Ba1 O30 2.773399 1_545
Ba1 O29 2.773399 1_545
Ba1 O45 2.814959 1_554
Ba1 O18 2.917893 1_554
Ba1 O17 2.917893 1_554
Ba1 O47 2.929676 1_554
Ba1 O42 3.210627 1_555
Ba1 O41 3.210627 1_555
O0 Si0 1.629527 1_555
O0 Yb10 2.313928 1_555
O0 Yb6 2.324627 1_565
O1 Si1 1.629527 1_555
O1 Yb11 2.313928 1_555
O1 Yb7 2.324627 1_545
O2 Si2 1.629527 1_555
O2 Yb8 2.313928 1_555
O2 Yb4 2.324627 1_545
O3 Si3 1.629527 1_555
O3 Yb9 2.313928 1_555
O3 Yb5 2.324627 1_565
O4 Si0 1.634159 1_555
O4 Yb8 2.318426 1_555
O4 Yb4 2.374518 1_555
O5 Si1 1.634159 1_455
O5 Yb9 2.318426 1_555
O5 Yb5 2.374518 1_555
O6 Si2 1.634159 1_555
O6 Yb10 2.318426 1_555
O6 Yb6 2.374518 1_555
O7 Si3 1.634159 1_655
O7 Yb11 2.318426 1_555
O7 Yb7 2.374518 1_555
O8 Si6 1.645825 1_555
O8 Si0 1.652693 1_555
O9 Si7 1.645825 1_555
O9 Si1 1.652693 1_555
O10 Si4 1.645825 1_555
O10 Si2 1.652693 1_555
O11 Si5 1.645825 1_555
O11 Si3 1.652693 1_555
O12 Si0 1.627443 1_555
O12 Yb10 2.313059 1_556
O12 Yb8 2.359339 1_565
O13 Si1 1.627443 1_555
O13 Yb11 2.313059 1_554
O13 Yb9 2.359339 1_645
O14 Si2 1.627443 1_555
O14 Yb8 2.313059 1_554
O14 Yb10 2.359339 1_545
O15 Si3 1.627443 1_555
O15 Yb9 2.313059 1_556
O15 Yb11 2.359339 1_465
O16 Si4 1.643133 1_555
O16 Yb0 2.382531 1_555
O17 Si5 1.643133 1_555
O17 Yb1 2.382531 1_555
O18 Si6 1.643133 1_555
O18 Yb2 2.382531 1_555
O19 Si7 1.643133 1_555
O19 Yb3 2.382531 1_555
O20 Si4 1.618527 1_556
O20 Yb4 2.297404 1_555
O20 Yb8 2.311691 1_565
O21 Si5 1.618527 1_554
O21 Yb5 2.297404 1_555
O21 Yb9 2.311691 1_545
O22 Si6 1.618527 1_554
O22 Yb6 2.297404 1_555
O22 Yb10 2.311691 1_545
O23 Si7 1.618527 1_556
O23 Yb7 2.297404 1_555
O23 Yb11 2.311691 1_565
O24 Si4 1.625337 1_555
O24 Yb0 2.314197 1_565
O24 Yb4 2.321328 1_555
O25 Si5 1.625337 1_555
O25 Yb1 2.314197 1_545
O25 Yb5 2.321328 1_555
O26 Si6 1.625337 1_555
O26 Yb2 2.314197 1_545
O26 Yb6 2.321328 1_555
O27 Si7 1.625337 1_555
O27 Yb3 2.314197 1_565
O27 Yb7 2.321328 1_555
O28 Si8 1.642165 1_555
O28 Yb0 2.333112 1_556
O29 Si9 1.642165 1_555
O29 Yb1 2.333112 1_554
O30 Si10 1.642165 1_555
O30 Yb2 2.333112 1_554
O31 Si11 1.642165 1_555
O31 Yb3 2.333112 1_556
O32 Si8 1.634163 1_555
O32 Yb4 2.326284 1_555
O32 Yb8 2.360683 1_555
O33 Si9 1.634163 1_555
O33 Yb5 2.326284 1_555
O33 Yb9 2.360683 1_555
O34 Si10 1.634163 1_555
O34 Yb6 2.326284 1_555
O34 Yb10 2.360683 1_555
O35 Si11 1.634163 1_555
O35 Yb7 2.326284 1_555
O35 Yb11 2.360683 1_555
O36 Si8 1.623239 1_555
O36 Yb0 2.304316 1_555
O36 Yb4 2.366095 1_545
O37 Si9 1.623239 1_555
O37 Yb1 2.304316 1_555
O37 Yb5 2.366095 1_565
O38 Si10 1.623239 1_555
O38 Yb2 2.304316 1_555
O38 Yb6 2.366095 1_565
O39 Si11 1.623239 1_555
O39 Yb3 2.304316 1_555
O39 Yb7 2.366095 1_545
O40 Si12 1.671321 1_555
O40 Si8 1.687330 1_555
O41 Si13 1.671321 1_555
O41 Si9 1.687330 1_555
O42 Si13 1.671321 1_555
O42 Si10 1.687330 1_555
O43 Si12 1.671321 1_555
O43 Si11 1.687330 1_555
O44 Si12 1.627898 1_555
O44 Yb3 2.319911 1_555
O44 Yb0 2.319911 1_555
O45 Si13 1.627898 1_555
O45 Yb2 2.319911 1_555
O45 Yb1 2.319911 1_555
O46 Si12 1.616310 1_555
O46 Yb3 2.322788 1_565
O46 Yb0 2.322788 1_565
O47 Si13 1.616310 1_555
O47 Yb2 2.322788 1_545
O47 Yb1 2.322788 1_545
