# generated using pymatgen
data_Ca4Mn3AlO11
_symmetry_space_group_name_H-M   'P 1'
_cell_length_a   10.82444028
_cell_length_b   15.22823835
_cell_length_c   10.76077842
_cell_angle_alpha   89.65482230
_cell_angle_beta   90.63937729
_cell_angle_gamma   90.17249684
_symmetry_Int_Tables_number   1
_chemical_formula_structural   Ca4Mn3AlO11
_chemical_formula_sum   'Ca32 Mn24 Al8 O88'
_cell_volume   1773.62580408
_cell_formula_units_Z   8
loop_
 _symmetry_equiv_pos_site_id
 _symmetry_equiv_pos_as_xyz
  1  'x, y, z'
loop_
 _atom_site_type_symbol
 _atom_site_label
 _atom_site_symmetry_multiplicity
 _atom_site_fract_x
 _atom_site_fract_y
 _atom_site_fract_z
 _atom_site_occupancy
  Ca  Ca0  1  0.01027586  0.11263540  0.50050150  1
  Ca  Ca1  1  0.02133907  0.12076352  0.99192042  1
  Ca  Ca2  1  0.02104961  0.62784237  0.50166736  1
  Ca  Ca3  1  0.02359972  0.62614246  0.99556851  1
  Ca  Ca4  1  0.52213111  0.12740028  0.50543159  1
  Ca  Ca5  1  0.52535245  0.12164893  0.97528362  1
  Ca  Ca6  1  0.52084396  0.62530514  0.49939008  1
  Ca  Ca7  1  0.52705201  0.62940443  0.99600911  1
  Ca  Ca8  1  0.49607620  0.36572885  0.00576840  1
  Ca  Ca9  1  0.47671685  0.38250039  0.50906358  1
  Ca  Ca10  1  0.49943879  0.87458742  0.97850173  1
  Ca  Ca11  1  0.48175743  0.87248379  0.50824734  1
  Ca  Ca12  1  0.97019463  0.37972368  0.00162884  1
  Ca  Ca13  1  0.97429826  0.38702657  0.50862872  1
  Ca  Ca14  1  0.98278036  0.87480445  0.01106809  1
  Ca  Ca15  1  0.97301841  0.87308115  0.50715071  1
  Ca  Ca16  1  0.22960379  0.38501806  0.25716981  1
  Ca  Ca17  1  0.23978479  0.37863728  0.74425582  1
  Ca  Ca18  1  0.22785961  0.88124386  0.24249035  1
  Ca  Ca19  1  0.23955434  0.87770325  0.75878040  1
  Ca  Ca20  1  0.72970504  0.38524926  0.24967696  1
  Ca  Ca21  1  0.72776517  0.37490600  0.75204025  1
  Ca  Ca22  1  0.73956399  0.86681428  0.24217657  1
  Ca  Ca23  1  0.72668778  0.87491302  0.74217667  1
  Ca  Ca24  1  0.24806804  0.12009972  0.25195541  1
  Ca  Ca25  1  0.27378907  0.11962140  0.73593685  1
  Ca  Ca26  1  0.26580547  0.62093562  0.25765290  1
  Ca  Ca27  1  0.25637790  0.63089662  0.74728111  1
  Ca  Ca28  1  0.75572098  0.11947894  0.25539345  1
  Ca  Ca29  1  0.76511491  0.11925834  0.75423162  1
  Ca  Ca30  1  0.77734033  0.62636542  0.25550244  1
  Ca  Ca31  1  0.77708745  0.62432105  0.75755202  1
  Mn  Mn0  1  0.99709563  0.99372238  0.25433696  1
  Mn  Mn1  1  0.99867530  0.99792089  0.75431642  1
  Mn  Mn2  1  0.99838295  0.50197645  0.25238961  1
  Mn  Mn3  1  0.00676084  0.49907297  0.75386493  1
  Mn  Mn4  1  0.49647074  0.50172103  0.24700711  1
  Mn  Mn5  1  0.50537063  0.50054781  0.74282257  1
  Mn  Mn6  1  0.25889354  0.00420909  0.00368841  1
  Mn  Mn7  1  0.24894700  0.50025413  0.50147133  1
  Mn  Mn8  1  0.75106238  0.99752905  0.99480146  1
  Mn  Mn9  1  0.74291883  0.00003583  0.50032165  1
  Mn  Mn10  1  0.74868777  0.50116608  0.00420061  1
  Mn  Mn11  1  0.75112797  0.50117749  0.49875194  1
  Mn  Mn12  1  0.25314011  0.74520354  0.99823621  1
  Mn  Mn13  1  0.25064469  0.75391519  0.49687188  1
  Mn  Mn14  1  0.75328579  0.24337130  0.00423443  1
  Mn  Mn15  1  0.75262762  0.25118307  0.50478713  1
  Mn  Mn16  1  0.75294704  0.74941502  0.99842556  1
  Mn  Mn17  1  0.75195861  0.74787148  0.50082697  1
  Mn  Mn18  1  0.99230606  0.24909893  0.75546365  1
  Mn  Mn19  1  0.00490082  0.74739795  0.25283937  1
  Mn  Mn20  1  0.00147359  0.75221671  0.75038709  1
  Mn  Mn21  1  0.49931839  0.24889022  0.74367508  1
  Mn  Mn22  1  0.50656396  0.74698130  0.25449118  1
  Mn  Mn23  1  0.49916987  0.74905913  0.74793119  1
  Al  Al0  1  0.51035274  0.98153553  0.22713356  1
  Al  Al1  1  0.49780678  0.99905934  0.74145569  1
  Al  Al2  1  0.23006588  0.99570544  0.51434906  1
  Al  Al3  1  0.23297530  0.49377817  0.01695622  1
  Al  Al4  1  0.25164676  0.25379256  0.95491400  1
  Al  Al5  1  0.27054547  0.24079615  0.46992576  1
  Al  Al6  1  0.98576687  0.26534006  0.28378462  1
  Al  Al7  1  0.51830026  0.26147512  0.27232826  1
  O  O0  1  0.11674804  0.76732651  0.11357614  1
  O  O1  1  0.10397912  0.77039599  0.60041861  1
  O  O2  1  0.56124118  0.24237411  0.11794242  1
  O  O3  1  0.60594631  0.27597490  0.60335199  1
  O  O4  1  0.60217097  0.76889744  0.10216195  1
  O  O5  1  0.59935719  0.76298279  0.60014604  1
  O  O6  1  0.39248855  0.21665007  0.35608157  1
  O  O7  1  0.39587164  0.22937341  0.88689528  1
  O  O8  1  0.39092447  0.72748306  0.38980951  1
  O  O9  1  0.40154852  0.73328325  0.89928754  1
  O  O10  1  0.89920322  0.22812633  0.41153947  1
  O  O11  1  0.90053429  0.23356245  0.90084536  1
  O  O12  1  0.89744869  0.72918570  0.39739742  1
  O  O13  1  0.89702684  0.72789255  0.89642170  1
  O  O14  1  0.13634547  0.23206892  0.33731857  1
  O  O15  1  0.15331779  0.23458547  0.82335529  1
  O  O16  1  0.14839452  0.72815093  0.35420506  1
  O  O17  1  0.14434736  0.73582726  0.85169537  1
  O  O18  1  0.65347960  0.23340578  0.35687927  1
  O  O19  1  0.64654300  0.23232451  0.85325225  1
  O  O20  1  0.65321583  0.72772690  0.35778084  1
  O  O21  1  0.64644615  0.73090260  0.85050664  1
  O  O22  1  0.35937308  0.26351213  0.62560345  1
  O  O23  1  0.34971682  0.76987203  0.64620793  1
  O  O24  1  0.89330319  0.24394125  0.14918987  1
  O  O25  1  0.86103704  0.27871755  0.64419223  1
  O  O26  1  0.85928537  0.76813282  0.14274987  1
  O  O27  1  0.85507412  0.77238362  0.64690033  1
  O  O28  1  0.36024712  0.47727191  0.13355694  1
  O  O29  1  0.35714698  0.47958588  0.64273549  1
  O  O30  1  0.36602071  0.01409947  0.16323812  1
  O  O31  1  0.35963108  0.98955133  0.62702182  1
  O  O32  1  0.85437215  0.48002630  0.14825224  1
  O  O33  1  0.85818872  0.47948646  0.64971611  1
  O  O34  1  0.85595577  0.98395476  0.14508200  1
  O  O35  1  0.85878196  0.97964691  0.64613232  1
  O  O36  1  0.13910997  0.01561307  0.36383235  1
  O  O37  1  0.14947764  0.02518771  0.86304427  1
  O  O38  1  0.14877921  0.51562097  0.35275596  1
  O  O39  1  0.16316902  0.51262134  0.85916691  1
  O  O40  1  0.59002684  0.03757282  0.34565226  1
  O  O41  1  0.64315646  0.01288120  0.85246356  1
  O  O42  1  0.64607731  0.52135553  0.34990526  1
  O  O43  1  0.63733231  0.52089503  0.86208646  1
  O  O44  1  0.39427518  0.01554843  0.88838077  1
  O  O45  1  0.39262103  0.51723199  0.39484641  1
  O  O46  1  0.88126442  0.02555602  0.38387650  1
  O  O47  1  0.89490538  0.02168665  0.89543876  1
  O  O48  1  0.90007392  0.52305185  0.39683452  1
  O  O49  1  0.89969310  0.51319972  0.89856184  1
  O  O50  1  0.10025890  0.47556270  0.11137736  1
  O  O51  1  0.10985604  0.47978159  0.60697622  1
  O  O52  1  0.10840737  0.99800016  0.11340247  1
  O  O53  1  0.10166960  0.98002744  0.61383192  1
  O  O54  1  0.60268945  0.47954241  0.10774669  1
  O  O55  1  0.61244447  0.48146141  0.59957392  1
  O  O56  1  0.60988465  0.97728939  0.09892933  1
  O  O57  1  0.60353106  0.98361088  0.60239164  1
  O  O58  1  0.00497732  0.37904792  0.29081762  1
  O  O59  1  0.02116914  0.37344435  0.78364426  1
  O  O60  1  0.00890182  0.86811485  0.28713095  1
  O  O61  1  0.01729597  0.87639246  0.79750480  1
  O  O62  1  0.50004430  0.37635229  0.28770178  1
  O  O63  1  0.49701732  0.37758148  0.79041699  1
  O  O64  1  0.48881298  0.87142581  0.27824198  1
  O  O65  1  0.50291466  0.87440084  0.76969927  1
  O  O66  1  0.49921853  0.12553098  0.71729982  1
  O  O67  1  0.48079722  0.62614404  0.20598913  1
  O  O68  1  0.47573487  0.62323350  0.72246878  1
  O  O69  1  0.98870327  0.12868063  0.71010378  1
  O  O70  1  0.99605097  0.62223306  0.20902539  1
  O  O71  1  0.99919795  0.62446977  0.71727832  1
  O  O72  1  0.21089531  0.17601867  0.06476573  1
  O  O73  1  0.23841638  0.12607301  0.51745175  1
  O  O74  1  0.25361550  0.61796095  0.03229130  1
  O  O75  1  0.23968900  0.62385792  0.53605956  1
  O  O76  1  0.73754655  0.12078083  0.03713894  1
  O  O77  1  0.73825265  0.12819179  0.54138326  1
  O  O78  1  0.74198832  0.62579911  0.03885069  1
  O  O79  1  0.74380833  0.62429419  0.54348628  1
  O  O80  1  0.24672638  0.36321637  0.46925029  1
  O  O81  1  0.25703791  0.36796245  0.98590628  1
  O  O82  1  0.26296382  0.87989894  0.45756965  1
  O  O83  1  0.28237357  0.86819223  0.00520608  1
  O  O84  1  0.76358605  0.37716793  0.45821614  1
  O  O85  1  0.74849792  0.36965593  0.98276683  1
  O  O86  1  0.75132610  0.87551200  0.45758539  1
  O  O87  1  0.76354113  0.87413971  0.95888543  1
loop_
_geom_bond_atom_site_label_1
_geom_bond_atom_site_label_2
_geom_bond_distance
_geom_bond_site_symmetry_2
Ca0 O69 2.284770 1_455
Ca0 O46 2.292019 1_455
Ca0 O10 2.328479 1_455
Ca0 O73 2.482115 1_555
Ca0 O36 2.524867 1_555
Ca0 O53 2.549367 1_545
Ca0 O14 2.872912 1_555
Ca1 O47 2.280788 1_455
Ca1 O72 2.343966 1_556
Ca1 O11 2.363396 1_455
Ca1 O37 2.458623 1_555
Ca1 O52 2.458802 1_546
Ca1 O15 2.887990 1_555
Ca1 O24 2.899928 1_456
Ca2 O12 2.321363 1_455
Ca2 O71 2.335034 1_455
Ca2 O48 2.347335 1_455
Ca2 O75 2.392221 1_555
Ca2 O1 2.577272 1_555
Ca2 O16 2.599675 1_555
Ca2 O51 2.692557 1_555
Ca2 O38 2.737956 1_555
Ca3 O13 2.318729 1_455
Ca3 O70 2.319921 1_456
Ca3 O49 2.413120 1_455
Ca3 O74 2.519932 1_556
Ca3 O17 2.626020 1_555
Ca3 O0 2.691255 1_556
Ca3 O50 2.730137 1_556
Ca3 O39 2.742458 1_555
Ca4 O66 2.296064 1_555
Ca4 O40 2.330252 1_555
Ca4 O77 2.366911 1_555
Ca4 O6 2.516773 1_555
Ca4 O57 2.573547 1_545
Ca4 O3 2.654705 1_555
Ca4 O18 2.681132 1_555
Ca5 O44 2.339433 1_555
Ca5 O7 2.350615 1_555
Ca5 O76 2.384290 1_556
Ca5 O2 2.429760 1_556
Ca5 O41 2.488562 1_555
Ca5 O19 2.506843 1_555
Ca5 O56 2.718446 1_546
Ca5 O66 2.787630 1_555
Ca5 O30 3.125452 1_556
Ca6 O8 2.396520 1_555
Ca6 O45 2.423672 1_555
Ca6 O79 2.454544 1_555
Ca6 O68 2.454989 1_555
Ca6 O5 2.507899 1_555
Ca6 O20 2.610444 1_555
Ca6 O55 2.627608 1_555
Ca6 O42 2.650126 1_555
Ca7 O67 2.320012 1_556
Ca7 O9 2.322224 1_555
Ca7 O78 2.367483 1_556
Ca7 O43 2.512208 1_555
Ca7 O4 2.544888 1_556
Ca7 O21 2.552388 1_555
Ca7 O54 2.698223 1_556
Ca7 O68 2.991346 1_555
Ca7 O74 2.994172 1_556
Ca8 O63 2.323416 1_554
Ca8 O2 2.333435 1_555
Ca8 O54 2.350004 1_555
Ca8 O81 2.594198 1_554
Ca8 O28 2.650693 1_555
Ca8 O7 2.666812 1_554
Ca8 O85 2.746701 1_554
Ca9 O55 2.313126 1_555
Ca9 O3 2.362174 1_555
Ca9 O62 2.400588 1_555
Ca9 O29 2.451259 1_555
Ca9 O80 2.537872 1_555
Ca9 O22 2.542364 1_555
Ca9 O45 2.550431 1_555
Ca10 O65 2.247631 1_555
Ca10 O56 2.352273 1_556
Ca10 O4 2.355768 1_556
Ca10 O83 2.371936 1_556
Ca10 O9 2.543203 1_555
Ca10 O44 2.609426 1_565
Ca11 O5 2.311651 1_555
Ca11 O57 2.367482 1_555
Ca11 O82 2.427162 1_555
Ca11 O64 2.477217 1_555
Ca11 O31 2.576546 1_555
Ca11 O23 2.587352 1_555
Ca11 O8 2.731231 1_555
Ca11 O65 2.820503 1_555
Ca11 O86 2.974564 1_555
Ca12 O50 2.340540 1_655
Ca12 O85 2.410551 1_554
Ca12 O59 2.418209 1_654
Ca12 O49 2.430476 1_554
Ca12 O32 2.545380 1_555
Ca12 O11 2.588348 1_554
Ca12 O24 2.732973 1_555
Ca13 O51 2.288905 1_655
Ca13 O84 2.343153 1_555
Ca13 O58 2.374777 1_655
Ca13 O33 2.438447 1_555
Ca13 O48 2.518319 1_555
Ca13 O25 2.519956 1_555
Ca13 O10 2.758118 1_555
Ca13 O59 3.002977 1_655
Ca13 O80 3.007176 1_655
Ca14 O61 2.332361 1_654
Ca14 O87 2.432571 1_554
Ca14 O0 2.440337 1_655
Ca14 O26 2.536736 1_555
Ca14 O52 2.560761 1_655
Ca14 O34 2.610332 1_555
Ca14 O13 2.717332 1_554
Ca14 O47 2.721931 1_564
Ca15 O1 2.329097 1_655
Ca15 O60 2.405182 1_655
Ca15 O53 2.425418 1_655
Ca15 O86 2.452777 1_555
Ca15 O27 2.499221 1_555
Ca15 O35 2.545942 1_555
Ca15 O12 2.620013 1_555
Ca15 O46 2.843376 1_565
Ca16 O80 2.309673 1_555
Ca16 O28 2.397977 1_555
Ca16 O38 2.415396 1_555
Ca16 O58 2.463587 1_555
Ca16 O50 2.501845 1_555
Ca16 O14 2.677473 1_555
Ca16 O62 2.945365 1_555
Ca16 O81 2.950456 1_554
Ca17 O29 2.273645 1_555
Ca17 O59 2.409682 1_555
Ca17 O15 2.528943 1_555
Ca17 O39 2.538357 1_555
Ca17 O22 2.541050 1_555
Ca17 O51 2.543980 1_555
Ca17 O81 2.609092 1_555
Ca17 O63 2.822973 1_555
Ca17 O80 2.971790 1_555
Ca18 O82 2.341196 1_555
Ca18 O60 2.430942 1_555
Ca18 O0 2.521805 1_555
Ca18 O52 2.589725 1_555
Ca18 O36 2.624272 1_565
Ca18 O83 2.635870 1_555
Ca18 O30 2.654522 1_565
Ca18 O16 2.756334 1_555
Ca18 O64 2.850744 1_555
Ca19 O23 2.377764 1_555
Ca19 O61 2.446223 1_555
Ca19 O31 2.568924 1_555
Ca19 O17 2.590974 1_555
Ca19 O53 2.649770 1_555
Ca19 O83 2.689951 1_556
Ca19 O37 2.705852 1_565
Ca19 O1 2.773294 1_555
Ca19 O65 2.852420 1_555
Ca19 O44 3.019622 1_565
Ca20 O32 2.257750 1_555
Ca20 O84 2.272434 1_555
Ca20 O54 2.494659 1_555
Ca20 O42 2.517658 1_555
Ca20 O18 2.708490 1_555
Ca20 O85 2.892857 1_554
Ca20 O24 3.004906 1_555
Ca21 O25 2.375722 1_555
Ca21 O33 2.396203 1_555
Ca21 O85 2.491249 1_555
Ca21 O63 2.536656 1_555
Ca21 O3 2.557038 1_555
Ca21 O19 2.579714 1_555
Ca21 O55 2.611009 1_555
Ca21 O43 2.715441 1_555
Ca22 O26 2.268125 1_555
Ca22 O86 2.324593 1_555
Ca22 O34 2.419588 1_555
Ca22 O4 2.582422 1_555
Ca22 O20 2.624799 1_555
Ca22 O56 2.666725 1_555
Ca22 O64 2.747295 1_555
Ca22 O60 2.949989 1_655
Ca23 O27 2.341873 1_555
Ca23 O87 2.361403 1_555
Ca23 O35 2.378180 1_555
Ca23 O65 2.443519 1_555
Ca23 O41 2.589528 1_565
Ca23 O57 2.591957 1_555
Ca23 O21 2.627354 1_555
Ca23 O5 2.666664 1_555
Ca24 O72 2.215350 1_555
Ca24 O30 2.281523 1_555
Ca24 O14 2.295581 1_555
Ca24 O36 2.317197 1_555
Ca24 O6 2.414118 1_555
Ca24 O52 2.816323 1_545
Ca25 O73 2.379315 1_555
Ca25 O15 2.389837 1_555
Ca25 O37 2.398998 1_555
Ca25 O66 2.451942 1_555
Ca25 O31 2.494732 1_545
Ca25 O44 2.614766 1_555
Ca25 O22 2.655217 1_555
Ca25 O7 2.673933 1_555
Ca26 O38 2.284932 1_555
Ca26 O16 2.328689 1_555
Ca26 O67 2.399644 1_555
Ca26 O74 2.427870 1_555
Ca26 O8 2.541815 1_555
Ca26 O45 2.549018 1_555
Ca26 O28 2.773739 1_555
Ca27 O75 2.281204 1_555
Ca27 O17 2.313010 1_555
Ca27 O39 2.387802 1_555
Ca27 O68 2.395611 1_555
Ca27 O23 2.581971 1_555
Ca27 O9 2.744891 1_555
Ca27 O29 2.799724 1_555
Ca27 O71 2.800393 1_455
Ca28 O18 2.342790 1_555
Ca28 O76 2.354594 1_555
Ca28 O40 2.393048 1_555
Ca28 O46 2.397891 1_555
Ca28 O34 2.630065 1_545
Ca28 O24 2.666673 1_555
Ca28 O10 2.816486 1_555
Ca29 O77 2.308825 1_555
Ca29 O41 2.341354 1_555
Ca29 O19 2.411059 1_555
Ca29 O69 2.475130 1_555
Ca29 O47 2.535371 1_555
Ca29 O35 2.640117 1_545
Ca29 O11 2.762920 1_555
Ca29 O25 2.890391 1_555
Ca29 O66 2.902869 1_555
Ca30 O20 2.337742 1_555
Ca30 O78 2.358383 1_555
Ca30 O42 2.367887 1_555
Ca30 O70 2.426205 1_555
Ca30 O12 2.538816 1_555
Ca30 O48 2.547905 1_555
Ca30 O26 2.626887 1_555
Ca30 O32 2.656504 1_555
Ca31 O79 2.327538 1_555
Ca31 O21 2.387362 1_555
Ca31 O71 2.447716 1_555
Ca31 O43 2.456972 1_555
Ca31 O13 2.525660 1_555
Ca31 O49 2.620085 1_555
Ca31 O33 2.654616 1_555
Ca31 O27 2.681942 1_555
Mn0 O34 1.923285 1_555
Mn0 O60 1.947287 1_655
Mn0 O52 1.948098 1_655
Mn0 O46 1.949598 1_565
Mn0 O36 1.955428 1_665
Mn1 O53 1.909676 1_655
Mn1 O61 1.916079 1_655
Mn1 O35 1.920339 1_555
Mn1 O47 1.935437 1_565
Mn1 O37 2.040838 1_665
Mn1 O69 2.047382 1_565
Mn2 O70 1.887260 1_555
Mn2 O58 1.916047 1_655
Mn2 O48 1.922590 1_555
Mn2 O50 1.930733 1_655
Mn2 O32 1.939029 1_555
Mn2 O38 1.954810 1_655
Mn3 O59 1.944291 1_555
Mn3 O71 1.949188 1_455
Mn3 O49 1.964602 1_455
Mn3 O51 1.969008 1_555
Mn3 O33 1.972875 1_455
Mn3 O39 2.037353 1_555
Mn4 O54 1.930947 1_555
Mn4 O28 1.940433 1_555
Mn4 O67 1.950345 1_555
Mn4 O62 1.956550 1_555
Mn4 O45 1.973910 1_555
Mn4 O42 1.974581 1_555
Mn5 O68 1.907481 1_555
Mn5 O43 1.935103 1_555
Mn5 O63 1.940469 1_555
Mn5 O29 1.948993 1_555
Mn5 O55 1.962451 1_555
Mn6 O37 1.936939 1_554
Mn6 O44 1.937360 1_554
Mn6 O52 2.024063 1_545
Mn6 O30 2.067037 1_555
Mn6 O83 2.087536 1_545
Mn7 O51 1.919367 1_555
Mn7 O75 1.924036 1_555
Mn7 O29 1.933454 1_555
Mn7 O38 1.936391 1_555
Mn7 O45 1.958505 1_555
Mn7 O80 2.117532 1_555
Mn8 O87 1.926060 1_555
Mn8 O56 1.927960 1_556
Mn8 O41 1.929335 1_565
Mn8 O47 1.931798 1_565
Mn8 O76 1.940409 1_566
Mn8 O34 1.975709 1_556
Mn9 O57 1.891244 1_545
Mn9 O86 1.956558 1_545
Mn9 O46 1.999049 1_555
Mn9 O77 2.004487 1_555
Mn9 O35 2.020825 1_545
Mn9 O40 2.401779 1_555
Mn10 O78 1.938150 1_555
Mn10 O32 1.942105 1_555
Mn10 O43 1.958901 1_554
Mn10 O54 1.969570 1_555
Mn10 O49 2.008655 1_554
Mn10 O85 2.017278 1_554
Mn11 O55 1.884258 1_555
Mn11 O79 1.940537 1_555
Mn11 O84 1.946139 1_555
Mn11 O42 1.976977 1_555
Mn11 O48 1.986186 1_555
Mn11 O33 2.011192 1_555
Mn12 O83 1.900292 1_556
Mn12 O9 1.946684 1_555
Mn12 O17 1.963168 1_555
Mn12 O74 1.969870 1_556
Mn12 O0 1.970415 1_556
Mn13 O16 1.924193 1_555
Mn13 O23 1.938072 1_555
Mn13 O8 1.960432 1_555
Mn13 O82 1.966538 1_555
Mn13 O1 1.967272 1_555
Mn13 O75 2.025852 1_555
Mn14 O76 1.905503 1_555
Mn14 O85 1.936315 1_554
Mn14 O11 1.960496 1_554
Mn14 O19 1.990766 1_554
Mn14 O24 2.162765 1_555
Mn14 O2 2.423851 1_555
Mn15 O77 1.917792 1_555
Mn15 O10 1.921081 1_555
Mn15 O18 1.929667 1_555
Mn15 O25 1.941262 1_555
Mn15 O3 1.958169 1_555
Mn15 O84 1.983515 1_555
Mn16 O78 1.933098 1_556
Mn16 O26 1.944626 1_556
Mn16 O13 1.946831 1_555
Mn16 O87 1.947231 1_555
Mn16 O21 1.975988 1_555
Mn16 O4 2.011298 1_556
Mn17 O20 1.890216 1_555
Mn17 O79 1.936341 1_555
Mn17 O27 1.954821 1_555
Mn17 O12 1.960990 1_555
Mn17 O5 1.992074 1_555
Mn17 O86 1.995946 1_555
Mn18 O11 1.875899 1_555
Mn18 O15 1.895284 1_655
Mn18 O69 1.900623 1_555
Mn18 O25 1.901447 1_555
Mn18 O59 1.943293 1_655
Mn19 O60 1.877430 1_555
Mn19 O16 1.910320 1_555
Mn19 O0 1.958672 1_555
Mn19 O70 1.968038 1_455
Mn19 O12 1.970466 1_455
Mn19 O26 1.986035 1_455
Mn20 O17 1.898394 1_555
Mn20 O27 1.950664 1_455
Mn20 O61 1.967198 1_555
Mn20 O13 1.978629 1_455
Mn20 O71 1.979857 1_455
Mn20 O1 1.986148 1_555
Mn21 O66 1.901548 1_555
Mn21 O7 1.936065 1_555
Mn21 O3 1.952139 1_555
Mn21 O22 1.978443 1_555
Mn21 O19 1.987595 1_555
Mn21 O63 2.026486 1_555
Mn22 O64 1.924229 1_555
Mn22 O67 1.934305 1_555
Mn22 O20 1.949556 1_555
Mn22 O8 1.951550 1_555
Mn22 O4 1.974460 1_555
Mn23 O65 1.924704 1_555
Mn23 O5 1.945014 1_555
Mn23 O21 1.948314 1_555
Mn23 O68 1.952619 1_555
Mn23 O9 1.964483 1_555
Mn23 O23 1.968537 1_555
Al0 O40 1.755747 1_565
Al0 O56 1.761483 1_555
Al0 O30 1.770892 1_565
Al0 O64 1.777021 1_555
Al1 O57 1.910083 1_555
Al1 O65 1.921558 1_555
Al1 O31 1.932378 1_555
Al1 O66 1.941887 1_565
Al1 O44 1.965866 1_565
Al1 O41 1.976275 1_565
Al2 O53 1.778404 1_555
Al2 O31 1.845862 1_555
Al2 O82 1.905721 1_555
Al2 O36 1.909157 1_565
Al2 O73 1.987518 1_565
Al3 O50 1.788809 1_555
Al3 O28 1.869521 1_555
Al3 O39 1.871651 1_554
Al3 O74 1.911476 1_555
Al3 O81 1.965454 1_554
Al4 O72 1.728076 1_556
Al4 O81 1.772941 1_555
Al4 O7 1.772988 1_555
Al4 O15 1.786624 1_555
Al5 O6 1.850056 1_555
Al5 O73 1.850449 1_555
Al5 O80 1.882717 1_555
Al5 O22 1.954363 1_555
Al5 O14 2.029505 1_555
Al6 O58 1.745383 1_655
Al6 O10 1.762158 1_555
Al6 O24 1.782413 1_555
Al6 O14 1.796031 1_655
Al7 O2 1.756270 1_555
Al7 O18 1.766621 1_555
Al7 O62 1.770038 1_555
Al7 O6 1.774035 1_555
