# generated using pymatgen
data_RbNa3Li12(SiO4)4
_symmetry_space_group_name_H-M   'P 1'
_cell_length_a   8.39277639
_cell_length_b   8.39277639
_cell_length_c   8.39277639
_cell_angle_alpha   98.24306150
_cell_angle_beta   98.24306150
_cell_angle_gamma   135.50032714
_symmetry_Int_Tables_number   1
_chemical_formula_structural   RbNa3Li12(SiO4)4
_chemical_formula_sum   'Rb1 Na3 Li12 Si4 O16'
_cell_volume   383.50600659
_cell_formula_units_Z   1
loop_
 _symmetry_equiv_pos_site_id
 _symmetry_equiv_pos_as_xyz
  1  'x, y, z'
loop_
 _atom_site_type_symbol
 _atom_site_label
 _atom_site_symmetry_multiplicity
 _atom_site_fract_x
 _atom_site_fract_y
 _atom_site_fract_z
 _atom_site_occupancy
  Rb  Rb0  1  0.00000000  0.00000000  0.00000000  1
  Na  Na0  1  0.75000000  0.25000000  0.50000000  1
  Na  Na1  1  0.25000000  0.75000000  0.50000000  1
  Na  Na2  1  0.50000000  0.50000000  0.00000000  1
  Li  Li0  1  0.71373000  0.92752800  0.64125800  1
  Li  Li1  1  0.92752800  0.28627000  0.21379700  1
  Li  Li2  1  0.28627000  0.07247200  0.35874200  1
  Li  Li3  1  0.07247200  0.71373000  0.78620300  1
  Li  Li4  1  0.36429900  0.49066800  0.34149000  1
  Li  Li5  1  0.02280800  0.36429900  0.87363100  1
  Li  Li6  1  0.63570100  0.50933200  0.65851000  1
  Li  Li7  1  0.14917800  0.02280800  0.65851000  1
  Li  Li8  1  0.85082200  0.97719200  0.34149000  1
  Li  Li9  1  0.50933200  0.85082200  0.87363100  1
  Li  Li10  1  0.97719200  0.63570100  0.12636900  1
  Li  Li11  1  0.49066800  0.14917800  0.12636900  1
  Si  Si0  1  0.42515400  0.78020600  0.20535900  1
  Si  Si1  1  0.78020600  0.57484600  0.35505200  1
  Si  Si2  1  0.21979400  0.42515400  0.64494800  1
  Si  Si3  1  0.57484600  0.21979400  0.79464100  1
  O  O0  1  0.36696200  0.08667900  0.88691000  1
  O  O1  1  0.08667900  0.19976800  0.71971700  1
  O  O2  1  0.19976800  0.48005200  0.11309000  1
  O  O3  1  0.48005200  0.36696200  0.28028300  1
  O  O4  1  0.91332100  0.80023200  0.28028300  1
  O  O5  1  0.63303800  0.91332100  0.11309000  1
  O  O6  1  0.51994800  0.63303800  0.71971700  1
  O  O7  1  0.80023200  0.51994800  0.88691000  1
  O  O8  1  0.83936800  0.43515500  0.27452400  1
  O  O9  1  0.56484500  0.83936800  0.40421300  1
  O  O10  1  0.43515500  0.16063200  0.59578700  1
  O  O11  1  0.16063200  0.56484500  0.72547600  1
  O  O12  1  0.32519400  0.89212100  0.21731500  1
  O  O13  1  0.10787900  0.32519400  0.43307300  1
  O  O14  1  0.89212100  0.67480600  0.56692700  1
  O  O15  1  0.67480600  0.10787900  0.78268500  1
loop_
_geom_bond_atom_site_label_1
_geom_bond_atom_site_label_2
_geom_bond_distance
_geom_bond_site_symmetry_2
Na0 O8 2.479113 1_555
Na0 O11 2.479117 1_655
Na0 O9 2.479120 1_545
Na0 O10 2.479120 1_555
Na0 O13 2.759858 1_655
Na0 O15 2.759858 1_555
Na0 O14 2.759858 1_555
Na0 O12 2.759858 1_545
Na1 O11 2.479113 1_555
Na1 O8 2.479117 1_455
Na1 O9 2.479120 1_555
Na1 O10 2.479120 1_565
Na1 O13 2.759858 1_555
Na1 O15 2.759858 1_565
Na1 O12 2.759858 1_555
Na1 O14 2.759858 1_455
Na2 O4 2.721710 1_555
Na2 O1 2.721710 1_554
Na2 O5 2.721711 1_555
Na2 O3 2.721711 1_555
Na2 O0 2.721711 1_554
Na2 O6 2.721711 1_554
Na2 O7 2.721718 1_554
Na2 O2 2.721718 1_555
Li0 O9 1.900793 1_555
Li0 O15 2.026849 1_565
Li0 O6 2.055978 1_555
Li0 O1 2.055978 1_665
Li1 O8 1.900796 1_555
Li1 O13 2.026855 1_655
Li1 O2 2.055967 1_655
Li1 O5 2.055978 1_545
Li2 O10 1.900793 1_555
Li2 O12 2.026849 1_545
Li2 O3 2.055978 1_555
Li2 O4 2.055978 1_445
Li3 O11 1.900796 1_555
Li3 O14 2.026855 1_455
Li3 O7 2.055967 1_455
Li3 O0 2.055978 1_565
Li4 O13 1.915166 1_555
Li4 O3 1.927331 1_555
Li4 O9 1.988039 1_555
Li4 O2 2.146111 1_555
Li5 O15 1.915161 1_455
Li5 O2 1.927331 1_556
Li5 O11 1.988046 1_555
Li5 O1 2.146120 1_555
Li6 O14 1.915166 1_555
Li6 O6 1.927331 1_555
Li6 O10 1.988039 1_555
Li6 O7 2.146111 1_555
Li7 O14 1.915161 1_445
Li7 O1 1.927331 1_555
Li7 O10 1.988037 1_555
Li7 O0 2.146103 1_555
Li8 O13 1.915161 1_665
Li8 O4 1.927331 1_555
Li8 O9 1.988037 1_555
Li8 O5 2.146103 1_555
Li9 O15 1.915166 1_565
Li9 O5 1.927331 1_556
Li9 O11 1.988041 1_555
Li9 O6 2.146107 1_555
Li10 O12 1.915161 1_655
Li10 O7 1.927331 1_554
Li10 O8 1.988046 1_555
Li10 O4 2.146120 1_555
Li11 O12 1.915166 1_545
Li11 O0 1.927331 1_554
Li11 O8 1.988041 1_555
Li11 O3 2.146107 1_555
O0 Si3 1.657354 1_555
O0 Rb0 2.958976 1_556
O1 Si2 1.657366 1_555
O1 Rb0 2.958972 1_556
O2 Si0 1.657360 1_555
O2 Rb0 2.958980 1_555
O3 Si1 1.657360 1_555
O3 Rb0 2.958976 1_555
O4 Si1 1.657366 1_555
O4 Rb0 2.958972 1_665
O5 Si0 1.657354 1_555
O5 Rb0 2.958976 1_665
O6 Si2 1.657360 1_555
O6 Rb0 2.958976 1_666
O7 Si3 1.657360 1_555
O7 Rb0 2.958980 1_666
O8 Si1 1.666515 1_555
O9 Si0 1.666525 1_555
O10 Si3 1.666525 1_555
O11 Si2 1.666515 1_555
O12 Si0 1.648434 1_555
O13 Si2 1.648434 1_555
O14 Si1 1.648434 1_555
O15 Si3 1.648434 1_555
