# generated using pymatgen
data_HoNiSb2
_symmetry_space_group_name_H-M   'P 1'
_cell_length_a   4.34533818
_cell_length_b   4.34533818
_cell_length_c   9.29111586
_cell_angle_alpha   90.00000000
_cell_angle_beta   90.00000000
_cell_angle_gamma   90.00000000
_symmetry_Int_Tables_number   1
_chemical_formula_structural   HoNiSb2
_chemical_formula_sum   'Ho2 Ni2 Sb4'
_cell_volume   175.43451425
_cell_formula_units_Z   2
loop_
 _symmetry_equiv_pos_site_id
 _symmetry_equiv_pos_as_xyz
  1  'x, y, z'
loop_
 _atom_site_type_symbol
 _atom_site_label
 _atom_site_symmetry_multiplicity
 _atom_site_fract_x
 _atom_site_fract_y
 _atom_site_fract_z
 _atom_site_occupancy
  Ho  Ho0  1  0.00000000  0.50000000  0.73922200  1
  Ho  Ho1  1  0.50000000  -0.00000000  0.26077800  1
  Ni  Ni0  1  0.50000000  0.50000000  0.50000000  1
  Ni  Ni1  1  -0.00000000  0.00000000  0.50000000  1
  Sb  Sb0  1  0.50000000  0.50000000  0.00000000  1
  Sb  Sb1  1  -0.00000000  -0.00000000  0.00000000  1
  Sb  Sb2  1  0.00000000  0.50000000  0.36053512  1
  Sb  Sb3  1  0.50000000  0.00000000  0.63946488  1
loop_
_geom_bond_atom_site_label_1
_geom_bond_atom_site_label_2
_geom_bond_distance
_geom_bond_site_symmetry_2
Ho0 Ni0 3.108153 1_455
Ho0 Ni0 3.108153 1_555
Ho0 Ni1 3.108153 1_555
Ho0 Ni1 3.108153 1_565
Ho0 Sb3 3.209368 1_555
Ho0 Sb3 3.209368 1_565
Ho0 Sb3 3.209368 1_455
Ho0 Sb3 3.209368 1_465
Ho0 Sb0 3.254386 1_456
Ho0 Sb1 3.254386 1_566
Ho0 Sb0 3.254386 1_556
Ho0 Sb1 3.254386 1_556
Ho1 Ni1 3.108153 1_555
Ho1 Ni0 3.108153 1_545
Ho1 Ni1 3.108153 1_655
Ho1 Ni0 3.108153 1_555
Ho1 Sb2 3.209368 1_545
Ho1 Sb2 3.209368 1_555
Ho1 Sb2 3.209368 1_645
Ho1 Sb2 3.209368 1_655
Ho1 Sb0 3.254386 1_545
Ho1 Sb1 3.254386 1_655
Ho1 Sb1 3.254386 1_555
Ho1 Sb0 3.254386 1_555
Ni0 Sb2 2.529733 1_555
Ni0 Sb3 2.529733 1_555
Ni0 Sb2 2.529733 1_655
Ni0 Sb3 2.529733 1_565
Ni1 Sb2 2.529733 1_545
Ni1 Sb2 2.529733 1_555
Ni1 Sb3 2.529733 1_555
Ni1 Sb3 2.529733 1_455
Sb0 Sb1 3.072618 1_555
Sb0 Sb1 3.072618 1_665
Sb0 Sb1 3.072618 1_565
Sb0 Sb1 3.072618 1_655
