# generated using pymatgen
data_Tb2AlFe3
_symmetry_space_group_name_H-M   'P 1'
_cell_length_a   5.20789500
_cell_length_b   5.20789500
_cell_length_c   5.20789540
_cell_angle_alpha   60.29932858
_cell_angle_beta   60.29932858
_cell_angle_gamma   60.29933434
_symmetry_Int_Tables_number   1
_chemical_formula_structural   Tb2AlFe3
_chemical_formula_sum   'Tb2 Al1 Fe3'
_cell_volume   100.55496813
_cell_formula_units_Z   1
loop_
 _symmetry_equiv_pos_site_id
 _symmetry_equiv_pos_as_xyz
  1  'x, y, z'
loop_
 _atom_site_type_symbol
 _atom_site_label
 _atom_site_symmetry_multiplicity
 _atom_site_fract_x
 _atom_site_fract_y
 _atom_site_fract_z
 _atom_site_occupancy
  Tb  Tb0  1  0.62272700  0.62272700  0.62272700  1
  Tb  Tb1  1  0.37727300  0.37727300  0.37727300  1
  Al  Al0  1  0.00000000  0.00000000  0.00000000  1
  Fe  Fe0  1  0.00000000  0.50000000  0.00000000  1
  Fe  Fe1  1  0.50000000  0.00000000  0.00000000  1
  Fe  Fe2  1  0.00000000  0.00000000  0.50000000  1
loop_
_geom_bond_atom_site_label_1
_geom_bond_atom_site_label_2
_geom_bond_distance
_geom_bond_site_symmetry_2
Al0 Fe1 2.603948 1_555
Al0 Fe0 2.603948 1_545
Al0 Fe0 2.603948 1_555
Al0 Fe1 2.603948 1_455
Al0 Fe2 2.603948 1_555
Al0 Fe2 2.603948 1_554
Al0 Tb1 3.071712 1_554
Al0 Tb0 3.071712 1_445
Al0 Tb1 3.071713 1_545
Al0 Tb0 3.071713 1_454
Al0 Tb1 3.071713 1_455
Al0 Tb0 3.071713 1_544
Fe0 Fe2 2.615720 1_564
Fe0 Fe2 2.615720 1_555
Fe0 Fe1 2.615720 1_555
Fe0 Fe1 2.615720 1_465
Fe0 Tb1 3.046630 1_455
Fe0 Tb0 3.046630 1_554
Fe0 Tb0 3.046630 1_455
Fe0 Tb1 3.046630 1_554
Fe0 Tb0 3.076684 1_454
Fe0 Tb1 3.076684 1_555
Fe1 Fe2 2.615720 1_654
Fe1 Fe2 2.615720 1_555
Fe1 Tb0 3.046630 1_554
Fe1 Tb1 3.046630 1_545
Fe1 Tb1 3.046630 1_554
Fe1 Tb0 3.046630 1_545
Fe1 Tb0 3.076684 1_544
Fe1 Tb1 3.076684 1_555
Fe2 Tb1 3.046630 1_545
Fe2 Tb1 3.046630 1_455
Fe2 Tb0 3.046630 1_545
Fe2 Tb0 3.046630 1_455
Fe2 Tb0 3.076684 1_445
Fe2 Tb1 3.076684 1_555
