# generated using pymatgen
data_Y(CoS2)2
_symmetry_space_group_name_H-M   'P 1'
_cell_length_a   7.06543839
_cell_length_b   7.06543839
_cell_length_c   7.06543839
_cell_angle_alpha   121.67104317
_cell_angle_beta   115.08604010
_cell_angle_gamma   92.92218475
_symmetry_Int_Tables_number   1
_chemical_formula_structural   Y(CoS2)2
_chemical_formula_sum   'Y2 Co4 S8'
_cell_volume   254.16581634
_cell_formula_units_Z   2
loop_
 _symmetry_equiv_pos_site_id
 _symmetry_equiv_pos_as_xyz
  1  'x, y, z'
loop_
 _atom_site_type_symbol
 _atom_site_label
 _atom_site_symmetry_multiplicity
 _atom_site_fract_x
 _atom_site_fract_y
 _atom_site_fract_z
 _atom_site_occupancy
  Y  Y0  1  0.50000000  0.00000000  0.50000000  1
  Y  Y1  1  0.00000000  0.00000000  0.00000000  1
  Co  Co0  1  0.50000000  0.50000000  0.50000000  1
  Co  Co1  1  0.50000000  0.50000000  0.00000000  1
  Co  Co2  1  0.50000000  0.00000000  0.00000000  1
  Co  Co3  1  0.00000000  0.50000000  0.50000000  1
  S  S0  1  0.72486400  0.27252400  0.45233900  1
  S  S1  1  0.74017300  0.71100000  0.47082700  1
  S  S2  1  0.32018500  0.27252400  0.04766100  1
  S  S3  1  0.25982700  0.73065400  0.97082700  1
  S  S4  1  0.67981500  0.72747600  0.95233900  1
  S  S5  1  0.25982700  0.28900000  0.52917300  1
  S  S6  1  0.74017300  0.26934600  0.02917300  1
  S  S7  1  0.27513600  0.72747600  0.54766100  1
loop_
_geom_bond_atom_site_label_1
_geom_bond_atom_site_label_2
_geom_bond_distance
_geom_bond_site_symmetry_2
Co0 S4 2.316544 1_555
Co0 S2 2.316544 1_555
Co0 S0 2.316549 1_555
Co0 S7 2.316549 1_555
Co0 S1 2.346462 1_555
Co0 S5 2.346462 1_555
Co1 S2 2.243560 1_555
Co1 S4 2.243560 1_554
Co1 S3 2.432279 1_554
Co1 S6 2.432279 1_555
Co1 S1 2.432279 1_555
Co1 S5 2.432279 1_554
Co2 S4 2.316544 1_544
Co2 S2 2.316544 1_555
Co2 S0 2.316544 1_555
Co2 S7 2.316544 1_544
Co2 S6 2.346462 1_555
Co2 S3 2.346462 1_544
Co3 S7 2.243554 1_555
Co3 S0 2.243554 1_455
Co3 S5 2.432279 1_555
Co3 S1 2.432279 1_455
Co3 S3 2.432279 1_555
Co3 S6 2.432279 1_455
S0 Y0 2.677266 1_555
S1 Y0 2.701735 1_565
S1 Y1 2.701735 1_666
S2 Y1 2.677262 1_555
S3 Y0 2.701735 1_566
S3 Y1 2.701735 1_566
S4 Y1 2.677262 1_666
S5 Y1 2.701735 1_555
S5 Y0 2.701735 1_555
S6 Y0 2.701735 1_554
S6 Y1 2.701735 1_655
S7 Y0 2.677266 1_565
