# generated using pymatgen
data_Sr3LaCu2HgBiO10
_symmetry_space_group_name_H-M   'P 1'
_cell_length_a   9.77181032
_cell_length_b   9.77181032
_cell_length_c   9.77181032
_cell_angle_alpha   148.55184766
_cell_angle_beta   148.51556611
_cell_angle_gamma   45.09812782
_symmetry_Int_Tables_number   1
_chemical_formula_structural   Sr3LaCu2HgBiO10
_chemical_formula_sum   'Sr3 La1 Cu2 Hg1 Bi1 O10'
_cell_volume   253.44793237
_cell_formula_units_Z   1
loop_
 _symmetry_equiv_pos_site_id
 _symmetry_equiv_pos_as_xyz
  1  'x, y, z'
loop_
 _atom_site_type_symbol
 _atom_site_label
 _atom_site_symmetry_multiplicity
 _atom_site_fract_x
 _atom_site_fract_y
 _atom_site_fract_z
 _atom_site_occupancy
  Sr  Sr0  1  0.85307600  0.35307600  0.50000000  1
  Sr  Sr1  1  0.35494100  0.85494100  0.50000000  1
  Sr  Sr2  1  0.64653600  0.14653600  0.50000000  1
  La  La0  1  0.15101500  0.65101500  0.50000000  1
  Cu  Cu0  1  0.75174400  0.75174400  0.00000000  1
  Cu  Cu1  1  0.25374700  0.25374700  0.00000000  1
  Hg  Hg0  1  0.99951400  0.99951400  0.00000000  1
  Bi  Bi0  1  0.49942200  0.49942200  0.00000000  1
  O  O0  1  0.88151700  0.88151700  0.00000000  1
  O  O1  1  0.37751000  0.37751000  0.00000000  1
  O  O2  1  0.62220800  0.62220800  0.00000000  1
  O  O3  1  0.11814100  0.11814100  0.00000000  1
  O  O4  1  0.00522000  0.50522000  0.50000000  1
  O  O5  1  0.50005100  0.00005100  0.50000000  1
  O  O6  1  0.00050600  0.50047500  0.00830100  1
  O  O7  1  0.49217400  0.99220500  0.99169900  1
  O  O8  1  0.00050600  0.99220500  0.50003200  1
  O  O9  1  0.49217400  0.50047500  0.49996800  1
loop_
_geom_bond_atom_site_label_1
_geom_bond_atom_site_label_2
_geom_bond_distance
_geom_bond_site_symmetry_2
La0 O8 2.520951 1_555
La0 O6 2.520957 1_555
La0 O7 2.520957 1_555
La0 O9 2.520964 1_555
La0 O4 2.631533 1_555
La0 O2 2.701693 1_455
La0 O2 2.701693 1_556
La0 O3 2.713870 1_566
La0 O3 2.713870 1_555
Cu0 O6 1.876566 1_655
Cu0 O7 1.876566 1_554
Cu0 O9 1.876569 1_554
Cu0 O8 1.876570 1_655
Cu0 O2 2.338065 1_555
Cu0 O0 2.342343 1_555
Cu1 O9 1.878486 1_555
Cu1 O8 1.878487 1_544
Cu1 O7 1.878490 1_544
Cu1 O6 1.878490 1_555
Cu1 O1 2.233865 1_555
Cu1 O3 2.447626 1_555
Hg0 O0 2.129792 1_555
Hg0 O3 2.141163 1_665
Hg0 O4 2.650211 1_654
Hg0 O4 2.650211 1_665
Hg0 O5 2.651205 1_665
Hg0 O5 2.651205 1_564
Bi0 O1 2.200456 1_555
Bi0 O2 2.216231 1_555
Bi0 O5 2.648233 1_565
Bi0 O5 2.648233 1_554
Bi0 O4 2.653252 1_554
Bi0 O4 2.653252 1_655
O0 Sr1 2.694233 1_554
O0 Sr1 2.694233 1_655
O0 Sr0 2.697506 1_554
O0 Sr0 2.697506 1_565
O1 Sr1 2.679357 1_555
O1 Sr1 2.679357 1_544
O1 Sr0 2.687619 1_555
O1 Sr0 2.687619 1_454
O2 Sr2 2.684367 1_554
O2 Sr2 2.684367 1_565
O3 Sr2 2.700271 1_454
O3 Sr2 2.700271 1_555
O4 Sr0 2.746129 1_455
O5 Sr1 2.619169 1_545
O5 Sr2 2.643987 1_555
O6 Sr2 2.621656 1_454
O6 Sr1 2.690211 1_555
O6 Sr0 2.709155 1_454
O7 Sr2 2.621656 1_566
O7 Sr1 2.690211 1_555
O7 Sr0 2.709155 1_566
O8 Sr2 2.621650 1_465
O8 Sr1 2.690217 1_555
O8 Sr0 2.709161 1_465
O9 Sr2 2.621662 1_555
O9 Sr1 2.690204 1_555
O9 Sr0 2.709148 1_555
