# generated using pymatgen
data_Ba3V2S4O3
_symmetry_space_group_name_H-M   'P 1'
_cell_length_a   6.00517877
_cell_length_b   10.23055573
_cell_length_c   10.20895922
_cell_angle_alpha   60.03567269
_cell_angle_beta   90.00072088
_cell_angle_gamma   89.99795692
_symmetry_Int_Tables_number   1
_chemical_formula_structural   Ba3V2S4O3
_chemical_formula_sum   'Ba6 V4 S8 O6'
_cell_volume   543.36700904
_cell_formula_units_Z   2
loop_
 _symmetry_equiv_pos_site_id
 _symmetry_equiv_pos_as_xyz
  1  'x, y, z'
loop_
 _atom_site_type_symbol
 _atom_site_label
 _atom_site_symmetry_multiplicity
 _atom_site_fract_x
 _atom_site_fract_y
 _atom_site_fract_z
 _atom_site_occupancy
  Ba  Ba0  1  0.16932355  0.93227998  0.68978023  1
  Ba  Ba1  1  0.67012005  0.30966835  0.62249689  1
  Ba  Ba2  1  0.66978534  0.62056381  0.06807355  1
  Ba  Ba3  1  0.16977741  0.37942535  0.93191985  1
  Ba  Ba4  1  0.17013499  0.69034880  0.37750973  1
  Ba  Ba5  1  0.66932137  0.06772710  0.31019619  1
  V  V0  1  0.81160042  0.66674672  0.66629705  1
  V  V1  1  0.43540777  0.00033522  0.00013987  1
  V  V2  1  0.31156664  0.33327565  0.33369313  1
  V  V3  1  0.93541369  -0.00035253  0.99986610  1
  S  S0  1  0.94387322  0.33289576  0.33340307  1
  S  S1  1  0.44391839  0.66707895  0.66661378  1
  S  S2  1  0.18613970  0.78953031  0.03574323  1
  S  S3  1  0.68581208  0.96326901  0.82845030  1
  S  S4  1  0.68612814  0.21045883  0.96426752  1
  S  S5  1  0.18581338  0.03672691  0.17154672  1
  S  S6  1  0.18556291  0.17309210  0.79261568  1
  S  S7  1  0.68560153  0.82688590  0.20739457  1
  O  O0  1  0.41261186  0.36902911  0.16293858  1
  O  O1  1  0.91297027  0.83718697  0.53164745  1
  O  O2  1  0.91310841  0.53218068  0.63033527  1
  O  O3  1  0.41304112  0.46781825  0.36969984  1
  O  O4  1  0.41293362  0.16282378  0.46832334  1
  O  O5  1  0.91265414  0.63100398  0.83704706  1
loop_
_geom_bond_atom_site_label_1
_geom_bond_atom_site_label_2
_geom_bond_distance
_geom_bond_site_symmetry_2
Ba0 O4 2.736455 1_565
Ba0 O1 2.737049 1_455
Ba0 S2 3.076517 1_556
Ba0 O5 3.083444 1_455
Ba0 S6 3.124880 1_565
Ba0 S1 3.282832 1_555
Ba0 S3 3.314176 1_455
Ba0 S3 3.488969 1_555
Ba1 O3 2.736829 1_555
Ba1 O2 2.738603 1_555
Ba1 O4 3.079231 1_555
Ba1 S3 3.089564 1_545
Ba1 S4 3.110600 1_555
Ba1 S0 3.281619 1_555
Ba1 S6 3.318461 1_555
Ba1 S6 3.482115 1_655
Ba2 O5 2.729416 1_554
Ba2 O0 2.730550 1_555
Ba2 S7 3.080008 1_555
Ba2 O3 3.081342 1_555
Ba2 S3 3.117457 1_554
Ba2 S0 3.277802 1_555
Ba2 S2 3.310917 1_555
Ba2 S2 3.484610 1_655
Ba3 O0 2.729380 1_556
Ba3 O5 2.730597 1_455
Ba3 S6 3.079966 1_555
Ba3 O2 3.080704 1_455
Ba3 S5 3.117406 1_556
Ba3 S1 3.277940 1_555
Ba3 S4 3.311023 1_455
Ba3 S4 3.484447 1_555
Ba4 O2 2.736964 1_455
Ba4 O3 2.738283 1_555
Ba4 O1 3.078807 1_455
Ba4 S5 3.089406 1_565
Ba4 S2 3.110631 1_555
Ba4 S1 3.281591 1_555
Ba4 S7 3.318135 1_455
Ba4 S7 3.482297 1_555
Ba5 O1 2.736419 1_545
Ba5 O4 2.737129 1_555
Ba5 S4 3.076221 1_554
Ba5 O0 3.083638 1_555
Ba5 S7 3.124915 1_545
Ba5 S0 3.282711 1_555
Ba5 S5 3.314081 1_555
Ba5 S5 3.488938 1_655
S0 V2 2.208073 1_655
S1 V0 2.208004 1_555
S2 V3 2.497051 1_464
S2 V1 2.498233 1_565
S3 V3 2.469454 1_565
S3 V1 2.478137 1_566
S4 V1 2.497194 1_556
S4 V3 2.498265 1_555
S5 V1 2.469435 1_555
S5 V3 2.478107 1_454
S6 V1 2.474394 1_556
S6 V3 2.476248 1_455
S7 V3 2.474420 1_564
S7 V1 2.476337 1_565
O0 V2 1.704091 1_555
O1 V0 1.704818 1_555
O2 V0 1.704833 1_555
O3 V2 1.704857 1_555
O4 V2 1.704771 1_555
O5 V0 1.704075 1_555
