# generated using pymatgen
data_HfIr
_symmetry_space_group_name_H-M   'P 1'
_cell_length_a   9.85893076
_cell_length_b   9.27339460
_cell_length_c   6.06517098
_cell_angle_alpha   90.00000000
_cell_angle_beta   90.00000000
_cell_angle_gamma   90.00000000
_symmetry_Int_Tables_number   1
_chemical_formula_structural   HfIr
_chemical_formula_sum   'Hf16 Ir16'
_cell_volume   554.51283770
_cell_formula_units_Z   16
loop_
 _symmetry_equiv_pos_site_id
 _symmetry_equiv_pos_as_xyz
  1  'x, y, z'
loop_
 _atom_site_type_symbol
 _atom_site_label
 _atom_site_symmetry_multiplicity
 _atom_site_fract_x
 _atom_site_fract_y
 _atom_site_fract_z
 _atom_site_occupancy
  Hf  Hf0_0  1  0.13452535  0.37500000  0.25000000  1
  Hf  Hf0_1  1  0.13452535  0.37500000  0.75000000  1
  Hf  Hf0_2  1  0.13452535  0.87500000  0.25000000  1
  Hf  Hf0_3  1  0.13452535  0.87500000  0.75000000  1
  Hf  Hf0_4  1  0.63452535  0.37500000  0.25000000  1
  Hf  Hf0_5  1  0.63452535  0.37500000  0.75000000  1
  Hf  Hf0_6  1  0.63452535  0.87500000  0.25000000  1
  Hf  Hf0_7  1  0.63452535  0.87500000  0.75000000  1
  Hf  Hf1_0  1  0.36547465  0.12500000  0.25000000  1
  Hf  Hf1_1  1  0.36547465  0.12500000  0.75000000  1
  Hf  Hf1_2  1  0.36547465  0.62500000  0.25000000  1
  Hf  Hf1_3  1  0.36547465  0.62500000  0.75000000  1
  Hf  Hf1_4  1  0.86547465  0.12500000  0.25000000  1
  Hf  Hf1_5  1  0.86547465  0.12500000  0.75000000  1
  Hf  Hf1_6  1  0.86547465  0.62500000  0.25000000  1
  Hf  Hf1_7  1  0.86547465  0.62500000  0.75000000  1
  Ir  Ir0_0  1  0.10283367  0.12500000  0.00000000  1
  Ir  Ir0_1  1  0.10283367  0.12500000  0.50000000  1
  Ir  Ir0_2  1  0.10283367  0.62500000  0.00000000  1
  Ir  Ir0_3  1  0.10283367  0.62500000  0.50000000  1
  Ir  Ir0_4  1  0.60283367  0.12500000  0.00000000  1
  Ir  Ir0_5  1  0.60283367  0.12500000  0.50000000  1
  Ir  Ir0_6  1  0.60283367  0.62500000  0.00000000  1
  Ir  Ir0_7  1  0.60283367  0.62500000  0.50000000  1
  Ir  Ir1_0  1  0.39716633  0.37500000  0.00000000  1
  Ir  Ir1_1  1  0.39716633  0.37500000  0.50000000  1
  Ir  Ir1_2  1  0.39716633  0.87500000  0.00000000  1
  Ir  Ir1_3  1  0.39716633  0.87500000  0.50000000  1
  Ir  Ir1_4  1  0.89716633  0.37500000  0.00000000  1
  Ir  Ir1_5  1  0.89716633  0.37500000  0.50000000  1
  Ir  Ir1_6  1  0.89716633  0.87500000  0.00000000  1
  Ir  Ir1_7  1  0.89716633  0.87500000  0.50000000  1
loop_
_geom_bond_atom_site_label_1
_geom_bond_atom_site_label_2
_geom_bond_distance
_geom_bond_site_symmetry_2
Hf0_0 Ir0_0 2.787742 1_555
Hf0_0 Ir0_1 2.787742 1_555
Hf0_0 Ir0_2 2.787742 1_555
Hf0_0 Ir0_3 2.787742 1_555
Hf0_0 Ir1_4 2.788412 1_455
Hf0_0 Ir1_5 2.788412 1_455
Hf0_0 Ir1_1 3.000654 1_555
Hf0_0 Ir1_0 3.000654 1_555
Hf0_0 Hf0_1 3.032585 1_554
Hf0_0 Hf0_1 3.032585 1_555
Hf0_0 Hf1_2 3.249473 1_555
Hf0_0 Hf1_0 3.249473 1_555
Hf0_1 Ir0_1 2.787742 1_555
Hf0_1 Ir0_0 2.787742 1_556
Hf0_1 Ir0_3 2.787742 1_555
Hf0_1 Ir0_2 2.787742 1_556
Hf0_1 Ir1_4 2.788412 1_456
Hf0_1 Ir1_5 2.788412 1_455
Hf0_1 Ir1_0 3.000654 1_556
Hf0_1 Ir1_1 3.000654 1_555
Hf0_1 Hf1_3 3.249473 1_555
Hf0_1 Hf1_1 3.249473 1_555
Hf0_2 Ir0_1 2.787742 1_565
Hf0_2 Ir0_0 2.787742 1_565
Hf0_2 Ir0_2 2.787742 1_555
Hf0_2 Ir0_3 2.787742 1_555
Hf0_2 Ir1_7 2.788412 1_455
Hf0_2 Ir1_6 2.788412 1_455
Hf0_2 Ir1_2 3.000654 1_555
Hf0_2 Ir1_3 3.000654 1_555
Hf0_2 Hf0_3 3.032585 1_554
Hf0_2 Hf0_3 3.032585 1_555
Hf0_2 Hf1_2 3.249473 1_555
Hf0_2 Hf1_0 3.249473 1_565
Hf0_3 Ir0_1 2.787742 1_565
Hf0_3 Ir0_0 2.787742 1_566
Hf0_3 Ir0_3 2.787742 1_555
Hf0_3 Ir0_2 2.787742 1_556
Hf0_3 Ir1_7 2.788412 1_455
Hf0_3 Ir1_6 2.788412 1_456
Hf0_3 Ir1_3 3.000654 1_555
Hf0_3 Ir1_2 3.000654 1_556
Hf0_3 Hf1_1 3.249473 1_565
Hf0_3 Hf1_3 3.249473 1_555
Hf0_4 Ir0_7 2.787742 1_555
Hf0_4 Ir0_4 2.787742 1_555
Hf0_4 Ir0_5 2.787742 1_555
Hf0_4 Ir0_6 2.787742 1_555
Hf0_4 Ir1_1 2.788412 1_555
Hf0_4 Ir1_0 2.788412 1_555
Hf0_4 Ir1_5 3.000654 1_555
Hf0_4 Ir1_4 3.000654 1_555
Hf0_4 Hf0_5 3.032585 1_554
Hf0_4 Hf0_5 3.032585 1_555
Hf0_4 Hf1_6 3.249473 1_555
Hf0_4 Hf1_4 3.249473 1_555
Hf0_5 Ir0_7 2.787742 1_555
Hf0_5 Ir0_6 2.787742 1_556
Hf0_5 Ir0_4 2.787742 1_556
Hf0_5 Ir0_5 2.787742 1_555
Hf0_5 Ir1_0 2.788412 1_556
Hf0_5 Ir1_1 2.788412 1_555
Hf0_5 Ir1_5 3.000654 1_555
Hf0_5 Ir1_4 3.000654 1_556
Hf0_5 Hf1_7 3.249473 1_555
Hf0_5 Hf1_5 3.249473 1_555
Hf0_6 Ir0_7 2.787742 1_555
Hf0_6 Ir0_5 2.787742 1_565
Hf0_6 Ir0_4 2.787742 1_565
Hf0_6 Ir0_6 2.787742 1_555
Hf0_6 Ir1_2 2.788412 1_555
Hf0_6 Ir1_3 2.788412 1_555
Hf0_6 Ir1_6 3.000654 1_555
Hf0_6 Ir1_7 3.000654 1_555
Hf0_6 Hf0_7 3.032585 1_555
Hf0_6 Hf0_7 3.032585 1_554
Hf0_6 Hf1_6 3.249473 1_555
Hf0_6 Hf1_4 3.249473 1_565
Hf0_7 Ir0_7 2.787742 1_555
Hf0_7 Ir0_5 2.787742 1_565
Hf0_7 Ir0_4 2.787742 1_566
Hf0_7 Ir0_6 2.787742 1_556
Hf0_7 Ir1_3 2.788412 1_555
Hf0_7 Ir1_2 2.788412 1_556
Hf0_7 Ir1_6 3.000654 1_556
Hf0_7 Ir1_7 3.000654 1_555
Hf0_7 Hf1_7 3.249473 1_555
Hf0_7 Hf1_5 3.249473 1_565
Hf1_0 Ir1_2 2.787742 1_545
Hf1_0 Ir1_3 2.787742 1_545
Hf1_0 Ir1_1 2.787742 1_555
Hf1_0 Ir1_0 2.787742 1_555
Hf1_0 Ir0_5 2.788412 1_555
Hf1_0 Ir0_4 2.788412 1_555
Hf1_0 Ir0_1 3.000654 1_555
Hf1_0 Ir0_0 3.000654 1_555
Hf1_0 Hf1_1 3.032585 1_554
Hf1_0 Hf1_1 3.032585 1_555
Hf1_1 Ir1_2 2.787742 1_546
Hf1_1 Ir1_0 2.787742 1_556
Hf1_1 Ir1_3 2.787742 1_545
Hf1_1 Ir1_1 2.787742 1_555
Hf1_1 Ir0_4 2.788412 1_556
Hf1_1 Ir0_5 2.788412 1_555
Hf1_1 Ir0_1 3.000654 1_555
Hf1_1 Ir0_0 3.000654 1_556
Hf1_2 Ir1_2 2.787742 1_555
Hf1_2 Ir1_1 2.787742 1_555
Hf1_2 Ir1_3 2.787742 1_555
Hf1_2 Ir1_0 2.787742 1_555
Hf1_2 Ir0_7 2.788412 1_555
Hf1_2 Ir0_6 2.788412 1_555
Hf1_2 Ir0_3 3.000654 1_555
Hf1_2 Ir0_2 3.000654 1_555
Hf1_2 Hf1_3 3.032585 1_554
Hf1_2 Hf1_3 3.032585 1_555
Hf1_3 Ir1_2 2.787742 1_556
Hf1_3 Ir1_0 2.787742 1_556
Hf1_3 Ir1_1 2.787742 1_555
Hf1_3 Ir1_3 2.787742 1_555
Hf1_3 Ir0_7 2.788412 1_555
Hf1_3 Ir0_6 2.788412 1_556
Hf1_3 Ir0_3 3.000654 1_555
Hf1_3 Ir0_2 3.000654 1_556
Hf1_4 Ir1_6 2.787742 1_545
Hf1_4 Ir1_7 2.787742 1_545
Hf1_4 Ir1_4 2.787742 1_555
Hf1_4 Ir1_5 2.787742 1_555
Hf1_4 Ir0_1 2.788412 1_655
Hf1_4 Ir0_0 2.788412 1_655
Hf1_4 Ir0_5 3.000654 1_555
Hf1_4 Ir0_4 3.000654 1_555
Hf1_4 Hf1_5 3.032585 1_555
Hf1_4 Hf1_5 3.032585 1_554
Hf1_5 Ir1_7 2.787742 1_545
Hf1_5 Ir1_4 2.787742 1_556
Hf1_5 Ir1_5 2.787742 1_555
Hf1_5 Ir1_6 2.787742 1_546
Hf1_5 Ir0_0 2.788412 1_656
Hf1_5 Ir0_1 2.788412 1_655
Hf1_5 Ir0_4 3.000654 1_556
Hf1_5 Ir0_5 3.000654 1_555
Hf1_6 Ir1_7 2.787742 1_555
Hf1_6 Ir1_4 2.787742 1_555
Hf1_6 Ir1_5 2.787742 1_555
Hf1_6 Ir1_6 2.787742 1_555
Hf1_6 Ir0_3 2.788412 1_655
Hf1_6 Ir0_2 2.788412 1_655
Hf1_6 Ir0_6 3.000654 1_555
Hf1_6 Ir0_7 3.000654 1_555
Hf1_6 Hf1_7 3.032585 1_555
Hf1_6 Hf1_7 3.032585 1_554
Hf1_7 Ir1_7 2.787742 1_555
Hf1_7 Ir1_6 2.787742 1_556
Hf1_7 Ir1_5 2.787742 1_555
Hf1_7 Ir1_4 2.787742 1_556
Hf1_7 Ir0_2 2.788412 1_656
Hf1_7 Ir0_3 2.788412 1_655
Hf1_7 Ir0_7 3.000654 1_555
Hf1_7 Ir0_6 3.000654 1_556
Ir0_0 Ir0_1 3.032585 1_555
Ir0_0 Ir0_1 3.032585 1_554
Ir0_0 Ir1_4 3.079959 1_455
Ir0_0 Ir1_6 3.079959 1_445
Ir0_1 Ir1_5 3.079959 1_455
Ir0_1 Ir1_7 3.079959 1_445
Ir0_2 Ir0_3 3.032585 1_555
Ir0_2 Ir0_3 3.032585 1_554
Ir0_2 Ir1_4 3.079959 1_455
Ir0_2 Ir1_6 3.079959 1_455
Ir0_3 Ir1_7 3.079959 1_455
Ir0_3 Ir1_5 3.079959 1_455
Ir0_4 Ir0_5 3.032585 1_555
Ir0_4 Ir0_5 3.032585 1_554
Ir0_4 Ir1_0 3.079959 1_555
Ir0_4 Ir1_2 3.079959 1_545
Ir0_5 Ir1_1 3.079959 1_555
Ir0_5 Ir1_3 3.079959 1_545
Ir0_6 Ir0_7 3.032585 1_555
Ir0_6 Ir0_7 3.032585 1_554
Ir0_6 Ir1_2 3.079959 1_555
Ir0_6 Ir1_0 3.079959 1_555
Ir0_7 Ir1_1 3.079959 1_555
Ir0_7 Ir1_3 3.079959 1_555
Ir1_0 Ir1_1 3.032585 1_555
Ir1_0 Ir1_1 3.032585 1_554
Ir1_2 Ir1_3 3.032585 1_554
Ir1_2 Ir1_3 3.032585 1_555
Ir1_4 Ir1_5 3.032585 1_555
Ir1_4 Ir1_5 3.032585 1_554
Ir1_6 Ir1_7 3.032585 1_554
Ir1_6 Ir1_7 3.032585 1_555
