# generated using pymatgen
data_Li7Mn2(CoO4)3
_symmetry_space_group_name_H-M   'P 1'
_cell_length_a   3.00666400
_cell_length_b   7.61880467
_cell_length_c   10.11683245
_cell_angle_alpha   107.26463112
_cell_angle_beta   88.00935801
_cell_angle_gamma   98.15075297
_symmetry_Int_Tables_number   1
_chemical_formula_structural   Li7Mn2(CoO4)3
_chemical_formula_sum   'Li7 Mn2 Co3 O12'
_cell_volume   219.06441444
_cell_formula_units_Z   1
loop_
 _symmetry_equiv_pos_site_id
 _symmetry_equiv_pos_as_xyz
  1  'x, y, z'
loop_
 _atom_site_type_symbol
 _atom_site_label
 _atom_site_symmetry_multiplicity
 _atom_site_fract_x
 _atom_site_fract_y
 _atom_site_fract_z
 _atom_site_occupancy
  Li  Li0  1  0.99757200  0.49721900  0.74309100  1
  Li  Li1  1  0.34245300  0.16594800  0.25441300  1
  Li  Li2  1  0.65754700  0.83405200  0.74558700  1
  Li  Li3  1  0.32893600  0.16351000  0.74535400  1
  Li  Li4  1  0.67106400  0.83649000  0.25464600  1
  Li  Li5  1  0.00242800  0.50278100  0.25690900  1
  Li  Li6  1  0.50000000  0.50000000  0.50000000  1
  Mn  Mn0  1  0.15920700  0.83055700  0.99601500  1
  Mn  Mn1  1  0.84079300  0.16944300  0.00398500  1
  Co  Co0  1  0.15592900  0.82359300  0.49777100  1
  Co  Co1  1  0.50000000  0.50000000  0.00000000  1
  Co  Co2  1  0.84407100  0.17640700  0.50222900  1
  O  O0  1  0.54979600  0.66840600  0.87772800  1
  O  O1  1  0.90292200  0.30759300  0.38604600  1
  O  O2  1  0.22136500  0.00331300  0.88310400  1
  O  O3  1  0.90837600  0.33901800  0.88799700  1
  O  O4  1  0.22445600  0.99451000  0.39213200  1
  O  O5  1  0.56579500  0.68141900  0.38472500  1
  O  O6  1  0.43420500  0.31858100  0.61527500  1
  O  O7  1  0.77863500  0.99668700  0.11689600  1
  O  O8  1  0.09707800  0.69240700  0.61395400  1
  O  O9  1  0.77554400  0.00549000  0.60786800  1
  O  O10  1  0.09162400  0.66098200  0.11200300  1
  O  O11  1  0.45020400  0.33159400  0.12227200  1
loop_
_geom_bond_atom_site_label_1
_geom_bond_atom_site_label_2
_geom_bond_distance
_geom_bond_site_symmetry_2
Li0 O6 2.142889 1_655
Li0 O3 2.145611 1_555
Li0 O0 2.164471 1_555
Li0 O0 2.191283 1_655
Li0 O6 2.201685 1_555
Li0 O8 2.237789 1_655
Li1 O1 2.028190 1_455
Li1 O11 2.083324 1_555
Li1 O1 2.136575 1_555
Li1 O7 2.146230 1_545
Li1 O4 2.165085 1_545
Li1 O7 2.225154 1_445
Li2 O8 2.028190 1_655
Li2 O0 2.083324 1_555
Li2 O8 2.136575 1_555
Li2 O2 2.146230 1_565
Li2 O9 2.165085 1_565
Li2 O2 2.225154 1_665
Li3 O6 2.003931 1_555
Li3 O2 2.098263 1_555
Li3 O9 2.126473 1_555
Li3 O3 2.162574 1_455
Li3 O9 2.179757 1_455
Li3 O3 2.296613 1_555
Li4 O5 2.003931 1_555
Li4 O7 2.098263 1_555
Li4 O4 2.126473 1_555
Li4 O10 2.162574 1_655
Li4 O4 2.179757 1_655
Li4 O10 2.296613 1_555
Li5 O5 2.142889 1_455
Li5 O10 2.145611 1_555
Li5 O11 2.164471 1_555
Li5 O11 2.191283 1_455
Li5 O5 2.201685 1_555
Li5 O1 2.237789 1_455
Li6 O6 2.042769 1_555
Li6 O5 2.042769 1_555
Li6 O1 2.085424 1_555
Li6 O8 2.085424 1_555
Li6 O8 2.257255 1_655
Li6 O1 2.257255 1_455
Mn0 O0 1.942587 1_555
Mn0 O7 1.949765 1_456
Mn0 O2 1.969770 1_565
Mn0 O10 1.973892 1_556
Mn0 O0 2.224526 1_455
Mn0 O7 2.266540 1_556
Mn1 O11 1.942587 1_555
Mn1 O2 1.949765 1_654
Mn1 O7 1.969770 1_545
Mn1 O3 1.973892 1_554
Mn1 O11 2.224526 1_655
Mn1 O2 2.266540 1_554
Co0 O8 1.744870 1_555
Co0 O5 1.882868 1_555
Co0 O4 1.901318 1_555
Co0 O9 1.978356 1_465
Co0 O5 2.119015 1_455
Co0 O9 2.264440 1_565
Co1 O10 1.949689 1_555
Co1 O3 1.949689 1_554
Co1 O11 2.018308 1_555
Co1 O0 2.018308 1_554
Co1 O10 2.156128 1_655
Co1 O3 2.156128 1_454
Co2 O1 1.744870 1_555
Co2 O6 1.882868 1_555
Co2 O9 1.901318 1_555
Co2 O4 1.978356 1_645
Co2 O6 2.119015 1_655
Co2 O4 2.264440 1_545
