# generated using pymatgen
data_Sr
_symmetry_space_group_name_H-M   'P 1'
_cell_length_a   8.84222382
_cell_length_b   21.97526086
_cell_length_c   21.97526086
_cell_angle_alpha   120.00000561
_cell_angle_beta   90.00000000
_cell_angle_gamma   90.00000000
_symmetry_Int_Tables_number   1
_chemical_formula_structural   Sr
_chemical_formula_sum   Sr8
_cell_volume   3697.94280152
_cell_formula_units_Z   8
loop_
 _symmetry_equiv_pos_site_id
 _symmetry_equiv_pos_as_xyz
  1  'x, y, z'
loop_
 _atom_site_type_symbol
 _atom_site_label
 _atom_site_symmetry_multiplicity
 _atom_site_fract_x
 _atom_site_fract_y
 _atom_site_fract_z
 _atom_site_occupancy
  Sr  Sr0_0  1  0.41900000  0.16666650  0.33333350  1
  Sr  Sr0_1  1  0.41900000  0.16666650  0.83333350  1
  Sr  Sr0_2  1  0.41900000  0.66666650  0.33333350  1
  Sr  Sr0_3  1  0.41900000  0.66666650  0.83333350  1
  Sr  Sr0_4  1  0.91900000  0.16666650  0.33333350  1
  Sr  Sr0_5  1  0.91900000  0.16666650  0.83333350  1
  Sr  Sr0_6  1  0.91900000  0.66666650  0.33333350  1
  Sr  Sr0_7  1  0.91900000  0.66666650  0.83333350  1
loop_
_geom_bond_atom_site_label_1
_geom_bond_atom_site_label_2
_geom_bond_distance
_geom_bond_site_symmetry_2
Sr0_0 Sr0_4 4.421112 1_455
Sr0_0 Sr0_4 4.421112 1_555
Sr0_1 Sr0_5 4.421112 1_455
Sr0_1 Sr0_5 4.421112 1_555
Sr0_2 Sr0_6 4.421112 1_455
Sr0_2 Sr0_6 4.421112 1_555
Sr0_3 Sr0_7 4.421112 1_455
Sr0_3 Sr0_7 4.421112 1_555
