# generated using pymatgen
data_Dy6Al2SiS14
_symmetry_space_group_name_H-M   'P 1'
_cell_length_a   9.68633459
_cell_length_b   9.68633459
_cell_length_c   5.94915900
_cell_angle_alpha   90.00000000
_cell_angle_beta   90.00000000
_cell_angle_gamma   120.00000406
_symmetry_Int_Tables_number   1
_chemical_formula_structural   Dy6Al2SiS14
_chemical_formula_sum   'Dy6 Al2 Si1 S14'
_cell_volume   483.39830552
_cell_formula_units_Z   1
loop_
 _symmetry_equiv_pos_site_id
 _symmetry_equiv_pos_as_xyz
  1  'x, y, z'
loop_
 _atom_site_type_symbol
 _atom_site_label
 _atom_site_symmetry_multiplicity
 _atom_site_fract_x
 _atom_site_fract_y
 _atom_site_fract_z
 _atom_site_occupancy
  Dy  Dy0  1  0.81089500  0.70067600  0.93979600  1
  Dy  Dy1  1  0.88978000  0.18910500  0.93979600  1
  Dy  Dy2  1  0.29932400  0.11022000  0.93979600  1
  Dy  Dy3  1  0.51617300  0.96424400  0.42714300  1
  Dy  Dy4  1  0.44807000  0.48382700  0.42714300  1
  Dy  Dy5  1  0.03575600  0.55193000  0.42714300  1
  Al  Al0  1  0.66666700  0.33333300  0.11867100  1
  Al  Al1  1  0.33333300  0.66666700  0.01300700  1
  Si  Si0  1  0.00000000  0.00000000  0.51629100  1
  S  S0  1  0.00000000  0.00000000  0.15781200  1
  S  S1  1  0.33333300  0.66666700  0.63901900  1
  S  S2  1  0.76682200  0.56928100  0.35027300  1
  S  S3  1  0.80245900  0.23317800  0.35027300  1
  S  S4  1  0.43071900  0.19754100  0.35027300  1
  S  S5  1  0.56864200  0.08961700  0.88471400  1
  S  S6  1  0.52097500  0.43135800  0.88471400  1
  S  S7  1  0.91038300  0.47902500  0.88471400  1
  S  S8  1  0.76884800  0.91094500  0.66165200  1
  S  S9  1  0.14209700  0.23115200  0.66165200  1
  S  S10  1  0.08905500  0.85790300  0.66165200  1
  S  S11  1  0.57677700  0.76394500  0.16828000  1
  S  S12  1  0.18716800  0.42322300  0.16828000  1
  S  S13  1  0.23605500  0.81283200  0.16828000  1
loop_
_geom_bond_atom_site_label_1
_geom_bond_atom_site_label_2
_geom_bond_distance
_geom_bond_site_symmetry_2
Dy0 S2 2.687396 1_556
Dy0 S6 2.733703 1_555
Dy0 S7 2.777515 1_555
Dy0 S8 2.807455 1_555
Dy0 S0 2.851822 1_666
Dy0 S10 2.865947 1_655
Dy0 S11 2.959001 1_556
Dy1 S3 2.687392 1_556
Dy1 S7 2.733698 1_555
Dy1 S5 2.777506 1_555
Dy1 S9 2.807463 1_655
Dy1 S0 2.851829 1_656
Dy1 S8 2.865947 1_545
Dy1 S12 2.959006 1_656
Dy2 S4 2.687395 1_556
Dy2 S5 2.733708 1_555
Dy2 S6 2.777508 1_555
Dy2 S10 2.807460 1_545
Dy2 S0 2.851821 1_556
Dy2 S9 2.865940 1_555
Dy2 S13 2.959009 1_546
Dy3 S3 2.731514 1_565
Dy3 S11 2.760331 1_555
Dy3 S4 2.805612 1_565
Dy3 S13 2.811638 1_555
Dy3 S1 2.815833 1_555
Dy3 S5 2.919940 1_565
Dy3 S8 3.076805 1_555
Dy3 S5 3.395495 1_564
Dy4 S4 2.731518 1_555
Dy4 S12 2.760323 1_555
Dy4 S2 2.805621 1_555
Dy4 S11 2.811638 1_555
Dy4 S1 2.815833 1_555
Dy4 S6 2.919943 1_555
Dy4 S9 3.076800 1_555
Dy4 S6 3.395498 1_554
Dy5 S2 2.731509 1_455
Dy5 S13 2.760325 1_555
Dy5 S3 2.805618 1_455
Dy5 S12 2.811645 1_555
Dy5 S1 2.815833 1_555
Dy5 S7 2.919940 1_455
Dy5 S10 3.076797 1_555
Dy5 S7 3.395495 1_454
Al0 S3 2.417794 1_555
Al0 S4 2.417800 1_555
Al0 S2 2.417801 1_555
Al0 S5 2.484001 1_554
Al0 S7 2.484002 1_554
Al0 S6 2.484009 1_554
Al1 S1 2.224914 1_554
Al1 S13 2.253826 1_555
Al1 S12 2.253833 1_555
Al1 S11 2.253834 1_555
S0 Si0 2.132649 1_555
S8 Si0 2.138626 1_665
S9 Si0 2.138626 1_555
S10 Si0 2.138627 1_565
