# generated using pymatgen
data_BaTl4
_symmetry_space_group_name_H-M   'P 1'
_cell_length_a   5.41063150
_cell_length_b   6.89292163
_cell_length_c   10.00696139
_cell_angle_alpha   75.14473320
_cell_angle_beta   74.31530226
_cell_angle_gamma   66.89126824
_symmetry_Int_Tables_number   1
_chemical_formula_structural   BaTl4
_chemical_formula_sum   'Ba2 Tl8'
_cell_volume   325.68906971
_cell_formula_units_Z   2
loop_
 _symmetry_equiv_pos_site_id
 _symmetry_equiv_pos_as_xyz
  1  'x, y, z'
loop_
 _atom_site_type_symbol
 _atom_site_label
 _atom_site_symmetry_multiplicity
 _atom_site_fract_x
 _atom_site_fract_y
 _atom_site_fract_z
 _atom_site_occupancy
  Ba  Ba0  1  0.17927571  0.35178698  0.28966259  1
  Ba  Ba1  1  0.82072429  0.64821302  0.71033741  1
  Tl  Tl0  1  0.40465941  0.74243328  0.44824891  1
  Tl  Tl1  1  0.59534059  0.25756672  0.55175109  1
  Tl  Tl2  1  0.15441199  0.73075149  0.96042354  1
  Tl  Tl3  1  0.84558801  0.26924851  0.03957646  1
  Tl  Tl4  1  0.12799352  0.06374333  0.68026964  1
  Tl  Tl5  1  0.87200648  0.93625667  0.31973036  1
  Tl  Tl6  1  0.54999120  0.78591494  0.11410565  1
  Tl  Tl7  1  0.45000880  0.21408506  0.88589435  1
loop_
_geom_bond_atom_site_label_1
_geom_bond_atom_site_label_2
_geom_bond_distance
_geom_bond_site_symmetry_2
Ba0 Tl2 3.639692 1_554
Ba0 Tl1 3.679601 1_555
Ba0 Tl1 3.679609 1_455
Ba0 Tl3 3.718301 1_455
Ba0 Tl3 3.718301 1_555
Ba0 Tl5 3.752822 1_545
Ba0 Tl5 3.752826 1_445
Ba0 Tl5 3.765445 1_455
Ba0 Tl4 3.894141 1_555
Ba0 Tl0 3.905820 1_545
Ba0 Tl6 4.021770 1_455
Ba0 Tl6 4.021777 1_555
Ba0 Tl7 4.128826 1_554
Ba0 Tl0 4.131728 1_555
Ba0 Tl0 4.131728 1_455
Ba0 Tl6 4.217900 1_545
Ba1 Tl3 3.639692 1_556
Ba1 Tl0 3.679601 1_555
Ba1 Tl0 3.679609 1_655
Ba1 Tl2 3.718301 1_655
Ba1 Tl2 3.718301 1_555
Ba1 Tl4 3.752822 1_565
Ba1 Tl4 3.752826 1_665
Ba1 Tl4 3.765445 1_655
Ba1 Tl5 3.894141 1_555
Ba1 Tl1 3.905820 1_565
Ba1 Tl7 4.021770 1_655
Ba1 Tl7 4.021777 1_555
Ba1 Tl6 4.128826 1_556
Ba1 Tl1 4.131728 1_555
Ba1 Tl1 4.131728 1_655
Ba1 Tl7 4.217900 1_565
Tl0 Tl1 3.066484 1_555
Tl0 Tl5 3.137739 1_555
Tl0 Tl5 3.137743 1_455
Tl0 Tl6 3.184079 1_555
Tl0 Tl4 3.269859 1_565
Tl1 Tl4 3.137739 1_555
Tl1 Tl4 3.137743 1_655
Tl1 Tl7 3.184079 1_555
Tl1 Tl5 3.269859 1_545
Tl2 Tl4 3.131768 1_565
Tl2 Tl6 3.131931 1_456
Tl2 Tl6 3.131949 1_556
Tl2 Tl7 3.470349 1_555
Tl3 Tl5 3.131768 1_545
Tl3 Tl7 3.131931 1_654
Tl3 Tl7 3.131949 1_554
Tl3 Tl6 3.470349 1_555
Tl4 Tl7 3.576680 1_555
Tl4 Tl7 3.576693 1_455
Tl5 Tl6 3.576680 1_555
Tl5 Tl6 3.576693 1_655
Tl6 Tl7 3.190160 1_564
