# generated using pymatgen
data_ThAlPd
_symmetry_space_group_name_H-M   'P 1'
_cell_length_a   7.26075517
_cell_length_b   7.26075517
_cell_length_c   4.21381866
_cell_angle_alpha   90.00000000
_cell_angle_beta   90.00000000
_cell_angle_gamma   120.00000228
_symmetry_Int_Tables_number   1
_chemical_formula_structural   ThAlPd
_chemical_formula_sum   'Th3 Al3 Pd3'
_cell_volume   192.38448683
_cell_formula_units_Z   3
loop_
 _symmetry_equiv_pos_site_id
 _symmetry_equiv_pos_as_xyz
  1  'x, y, z'
loop_
 _atom_site_type_symbol
 _atom_site_label
 _atom_site_symmetry_multiplicity
 _atom_site_fract_x
 _atom_site_fract_y
 _atom_site_fract_z
 _atom_site_occupancy
  Th  Th0  1  0.42190572  0.42190572  0.50000000  1
  Th  Th1  1  0.57809428  0.00000000  0.50000000  1
  Th  Th2  1  0.00000000  0.57809428  0.50000000  1
  Al  Al0  1  0.77087433  0.77087433  -0.00000000  1
  Al  Al1  1  0.22912567  0.00000000  0.00000000  1
  Al  Al2  1  0.00000000  0.22912567  0.00000000  1
  Pd  Pd0  1  0.66666700  0.33333300  0.00000000  1
  Pd  Pd1  1  0.33333300  0.66666700  0.00000000  1
  Pd  Pd2  1  -0.00000000  -0.00000000  0.50000000  1
loop_
_geom_bond_atom_site_label_1
_geom_bond_atom_site_label_2
_geom_bond_distance
_geom_bond_site_symmetry_2
Al0 Pd2 2.684533 1_664
Al0 Pd2 2.684533 1_665
Al0 Pd1 2.874256 1_555
Al0 Pd0 2.874256 1_555
Al1 Pd2 2.684533 1_554
Al1 Pd2 2.684533 1_555
Al1 Pd1 2.874249 1_545
Al1 Pd0 2.874253 1_555
Al2 Pd2 2.684533 1_554
Al2 Pd2 2.684533 1_555
Al2 Pd0 2.874249 1_455
Al2 Pd1 2.874253 1_555
Pd0 Th1 3.025522 1_555
Pd0 Th1 3.025522 1_554
Pd0 Th2 3.025523 1_655
Pd0 Th2 3.025523 1_654
Pd0 Th0 3.025527 1_555
Pd0 Th0 3.025527 1_554
Pd1 Th2 3.025522 1_554
Pd1 Th2 3.025522 1_555
Pd1 Th1 3.025523 1_564
Pd1 Th1 3.025523 1_565
Pd1 Th0 3.025527 1_555
Pd1 Th0 3.025527 1_554
Pd2 Th0 3.063354 1_555
Pd2 Th2 3.063354 1_545
Pd2 Th1 3.063354 1_455
