# generated using pymatgen
data_Tb2Ga3Fe
_symmetry_space_group_name_H-M   'P 1'
_cell_length_a   4.29963642
_cell_length_b   4.29963642
_cell_length_c   7.55552700
_cell_angle_alpha   90.00000000
_cell_angle_beta   90.00000000
_cell_angle_gamma   120.02013195
_symmetry_Int_Tables_number   1
_chemical_formula_structural   Tb2Ga3Fe
_chemical_formula_sum   'Tb2 Ga3 Fe1'
_cell_volume   120.94021092
_cell_formula_units_Z   1
loop_
 _symmetry_equiv_pos_site_id
 _symmetry_equiv_pos_as_xyz
  1  'x, y, z'
loop_
 _atom_site_type_symbol
 _atom_site_label
 _atom_site_symmetry_multiplicity
 _atom_site_fract_x
 _atom_site_fract_y
 _atom_site_fract_z
 _atom_site_occupancy
  Tb  Tb0  1  0.99999800  0.00000200  0.48271100  1
  Tb  Tb1  1  0.99999800  0.00000200  0.01728900  1
  Ga  Ga0  1  0.66664600  0.33335400  0.75000000  1
  Ga  Ga1  1  0.33334500  0.66665500  0.25000000  1
  Ga  Ga2  1  0.33336300  0.66663700  0.75000000  1
  Fe  Fe0  1  0.66665000  0.33335000  0.25000000  1
loop_
_geom_bond_atom_site_label_1
_geom_bond_atom_site_label_2
_geom_bond_distance
_geom_bond_site_symmetry_2
Ga0 Ga2 2.482080 1_655
Ga0 Ga2 2.482080 1_545
Ga0 Ga2 2.482273 1_555
Ga0 Tb1 3.199666 1_566
Ga0 Tb0 3.199666 1_565
Ga0 Tb1 3.199666 1_456
Ga0 Tb0 3.199666 1_455
Ga0 Tb1 3.200414 1_556
Ga0 Tb0 3.200414 1_555
Ga1 Tb1 3.041545 1_565
Ga1 Tb0 3.041545 1_565
Ga1 Tb1 3.041545 1_455
Ga1 Tb0 3.041545 1_455
Ga1 Tb0 3.042286 1_465
Ga1 Tb1 3.042286 1_465
Ga2 Tb1 3.199629 1_456
Ga2 Tb0 3.199629 1_455
Ga2 Tb1 3.199629 1_566
Ga2 Tb0 3.199629 1_565
Ga2 Tb1 3.200489 1_466
Ga2 Tb0 3.200489 1_465
Fe0 Ga1 2.481998 1_655
Fe0 Ga1 2.481998 1_545
Fe0 Ga1 2.482437 1_555
Fe0 Tb0 3.041542 1_565
Fe0 Tb1 3.041542 1_565
Fe0 Tb1 3.041542 1_455
Fe0 Tb0 3.041542 1_455
Fe0 Tb1 3.042292 1_555
Fe0 Tb0 3.042292 1_555
