# generated using pymatgen
data_Na5H7(Se2O9)2
_symmetry_space_group_name_H-M   'P 1'
_cell_length_a   6.07046979
_cell_length_b   7.46686268
_cell_length_c   10.03984333
_cell_angle_alpha   102.68323939
_cell_angle_beta   99.19690728
_cell_angle_gamma   100.01459436
_symmetry_Int_Tables_number   1
_chemical_formula_structural   Na5H7(Se2O9)2
_chemical_formula_sum   'Na5 H7 Se4 O18'
_cell_volume   427.82382616
_cell_formula_units_Z   1
loop_
 _symmetry_equiv_pos_site_id
 _symmetry_equiv_pos_as_xyz
  1  'x, y, z'
loop_
 _atom_site_type_symbol
 _atom_site_label
 _atom_site_symmetry_multiplicity
 _atom_site_fract_x
 _atom_site_fract_y
 _atom_site_fract_z
 _atom_site_occupancy
  Na  Na0  1  0.65503400  0.74106900  0.18951600  1
  Na  Na1  1  0.34615500  0.25797100  0.80678400  1
  Na  Na2  1  0.00023300  0.00059600  0.99985700  1
  Na  Na3  1  0.13596700  0.17632300  0.39994100  1
  Na  Na4  1  0.86875600  0.82257000  0.60545000  1
  H  H0  1  0.95285600  0.32397400  0.91684100  1
  H  H1  1  0.04999800  0.67770400  0.07951200  1
  H  H2  1  0.14570700  0.38836400  0.05445700  1
  H  H3  1  0.85413900  0.60937000  0.94377100  1
  H  H4  1  0.28819000  0.56086200  0.62106700  1
  H  H5  1  0.71273000  0.43785600  0.38186900  1
  H  H6  1  0.50039800  0.98464100  0.49822800  1
  Se  Se0  1  0.41413000  0.79876900  0.82591900  1
  Se  Se1  1  0.58647400  0.20167700  0.17571900  1
  Se  Se2  1  0.24857300  0.69278200  0.37435600  1
  Se  Se3  1  0.74817600  0.30622600  0.62711100  1
  O  O0  1  0.41367700  0.77317400  0.98390600  1
  O  O1  1  0.58569900  0.22784400  0.01780200  1
  O  O2  1  0.66895500  0.87518700  0.79502300  1
  O  O3  1  0.33132800  0.12550600  0.20685500  1
  O  O4  1  0.09423400  0.29574400  0.96403800  1
  O  O5  1  0.90612700  0.70320100  0.03389200  1
  O  O6  1  0.21999600  0.91548600  0.77400600  1
  O  O7  1  0.78002600  0.08392800  0.22690200  1
  O  O8  1  0.05571300  0.82308700  0.40022300  1
  O  O9  1  0.94575700  0.17916500  0.60246500  1
  O  O10  1  0.51723600  0.83955800  0.44844100  1
  O  O11  1  0.48540700  0.15958900  0.55814800  1
  O  O12  1  0.31317600  0.56302100  0.72435700  1
  O  O13  1  0.68828900  0.43687000  0.27811700  1
  O  O14  1  0.23190400  0.51994000  0.45393600  1
  O  O15  1  0.76904900  0.47990000  0.54680600  1
  O  O16  1  0.25998000  0.61696200  0.20792200  1
  O  O17  1  0.74893200  0.38908400  0.79576000  1
loop_
_geom_bond_atom_site_label_1
_geom_bond_atom_site_label_2
_geom_bond_distance
_geom_bond_site_symmetry_2
Na0 O5 2.358324 1_555
Na0 O0 2.416216 1_554
Na0 O7 2.466176 1_565
Na0 O16 2.467391 1_555
Na0 O13 2.642097 1_555
Na0 O8 2.834541 1_655
Na0 O10 2.840399 1_555
Na1 O4 2.374265 1_555
Na1 O1 2.447821 1_556
Na1 O6 2.470480 1_545
Na1 O17 2.500101 1_555
Na1 O12 2.616585 1_555
Na1 O11 2.751512 1_555
Na1 O9 2.800136 1_455
Na2 O4 2.299574 1_555
Na2 O5 2.308378 1_446
Na2 O2 2.515486 1_445
Na2 O3 2.527900 1_556
Na2 O6 2.820325 1_545
Na2 O7 2.830316 1_456
Na3 O3 2.424210 1_555
Na3 O7 2.432730 1_455
Na3 O14 2.446362 1_555
Na3 O11 2.478025 1_555
Na3 O9 2.491607 1_455
Na3 O8 2.598251 1_545
Na4 O6 2.389126 1_655
Na4 O2 2.413136 1_555
Na4 O15 2.438386 1_555
Na4 O10 2.482167 1_555
Na4 O8 2.506583 1_655
Na4 O9 2.629776 1_565
H0 O4 0.991116 1_655
H1 O5 0.988455 1_455
H2 O4 0.979026 1_554
H3 O5 0.981115 1_556
H4 O12 1.019900 1_555
H4 O14 1.606539 1_555
H5 O13 1.026626 1_555
H5 O15 1.584614 1_555
H6 O10 1.118451 1_555
H6 O11 1.338058 1_565
O0 Se0 1.639139 1_555
O1 Se1 1.638857 1_555
O2 Se0 1.654945 1_555
O3 Se1 1.657293 1_555
O6 Se0 1.667433 1_555
O7 Se1 1.668016 1_555
O8 Se2 1.663485 1_555
O9 Se3 1.669576 1_555
O10 Se2 1.745522 1_555
O11 Se3 1.711519 1_555
O12 Se0 1.775051 1_555
O13 Se1 1.774702 1_555
O14 Se2 1.657537 1_555
O15 Se3 1.668056 1_555
O16 Se2 1.659115 1_555
O17 Se3 1.669213 1_555
