# generated using pymatgen
data_K4MoC4(NO2)4
_symmetry_space_group_name_H-M   'P 1'
_cell_length_a   13.73254300
_cell_length_b   6.88418800
_cell_length_c   9.08539877
_cell_angle_alpha   71.51593490
_cell_angle_beta   90.00000000
_cell_angle_gamma   90.00000000
_symmetry_Int_Tables_number   1
_chemical_formula_structural   K4MoC4(NO2)4
_chemical_formula_sum   'K8 Mo2 C8 N8 O16'
_cell_volume   814.60048119
_cell_formula_units_Z   2
loop_
 _symmetry_equiv_pos_site_id
 _symmetry_equiv_pos_as_xyz
  1  'x, y, z'
loop_
 _atom_site_type_symbol
 _atom_site_label
 _atom_site_symmetry_multiplicity
 _atom_site_fract_x
 _atom_site_fract_y
 _atom_site_fract_z
 _atom_site_occupancy
  K  K0  1  0.87694700  0.81808600  0.65713900  1
  K  K1  1  0.37694700  0.18191400  0.84286100  1
  K  K2  1  0.12305300  0.18191400  0.34286100  1
  K  K3  1  0.62305300  0.81808600  0.15713900  1
  K  K4  1  0.64940400  0.47022200  0.89460400  1
  K  K5  1  0.14940400  0.52977800  0.60539600  1
  K  K6  1  0.35059600  0.52977800  0.10539600  1
  K  K7  1  0.85059600  0.47022200  0.39460400  1
  Mo  Mo0  1  0.50000000  0.00000000  0.50000000  1
  Mo  Mo1  1  0.00000000  0.00000000  0.00000000  1
  C  C0  1  0.50884500  0.86919600  0.75825600  1
  C  C1  1  0.00884500  0.13080400  0.74174400  1
  C  C2  1  0.49115500  0.13080400  0.24174400  1
  C  C3  1  0.99115500  0.86919600  0.25825600  1
  C  C4  1  0.85430700  0.86314100  0.97938700  1
  C  C5  1  0.35430700  0.13685900  0.52061300  1
  C  C6  1  0.14569300  0.13685900  0.02061300  1
  C  C7  1  0.64569300  0.86314100  0.47938700  1
  N  N0  1  0.51000000  0.80025800  0.89456500  1
  N  N1  1  0.01000000  0.19974200  0.60543500  1
  N  N2  1  0.49000000  0.19974200  0.10543500  1
  N  N3  1  0.99000000  0.80025800  0.39456500  1
  N  N4  1  0.78049100  0.78743100  0.96061800  1
  N  N5  1  0.28049100  0.21256900  0.53938200  1
  N  N6  1  0.21950900  0.21256900  0.03938200  1
  N  N7  1  0.71950900  0.78743100  0.46061800  1
  O  O0  1  0.55700800  0.23771800  0.50773300  1
  O  O1  1  0.05700800  0.76228200  0.99226700  1
  O  O2  1  0.44299200  0.76228200  0.49226700  1
  O  O3  1  0.94299200  0.23771800  0.00773300  1
  O  O4  1  0.52788800  0.39707700  0.68577900  1
  O  O5  1  0.02788800  0.60292300  0.81422100  1
  O  O6  1  0.47211200  0.60292300  0.31422100  1
  O  O7  1  0.97211200  0.39707700  0.18577900  1
  O  O8  1  0.79430800  0.36269800  0.72413900  1
  O  O9  1  0.29430800  0.63730200  0.77586100  1
  O  O10  1  0.20569200  0.63730200  0.27586100  1
  O  O11  1  0.70569200  0.36269800  0.22413900  1
  O  O12  1  0.75482600  0.22029500  0.68470100  1
  O  O13  1  0.25482600  0.77970500  0.81529900  1
  O  O14  1  0.24517400  0.77970500  0.31529900  1
  O  O15  1  0.74517400  0.22029500  0.18470100  1
loop_
_geom_bond_atom_site_label_1
_geom_bond_atom_site_label_2
_geom_bond_distance
_geom_bond_site_symmetry_2
K0 O5 2.680839 1_655
K0 N7 2.854070 1_555
K0 N3 2.881323 1_555
K0 N4 3.005398 1_555
K0 N1 3.111231 1_665
K0 O8 3.205691 1_555
K0 O12 3.313834 1_565
K1 O4 2.680839 1_555
K1 N6 2.854070 1_556
K1 N2 2.881323 1_556
K1 N5 3.005398 1_555
K1 N0 3.111231 1_545
K1 O9 3.205691 1_555
K1 O13 3.313834 1_545
K2 O7 2.680839 1_455
K2 N5 2.854070 1_555
K2 N1 2.881323 1_555
K2 N6 3.005398 1_555
K2 N3 3.111231 1_445
K2 O10 3.205691 1_555
K2 O14 3.313834 1_545
K3 O6 2.680839 1_555
K3 N4 2.854070 1_554
K3 N0 2.881323 1_554
K3 N7 3.005398 1_555
K3 N2 3.111231 1_565
K3 O11 3.205691 1_555
K3 O15 3.313834 1_565
K4 O4 2.691386 1_555
K4 O8 2.762814 1_555
K4 O11 2.950247 1_556
K4 O15 2.959927 1_556
K4 N0 2.970930 1_555
K4 N4 3.033054 1_555
K4 N2 3.109098 1_556
K5 O5 2.691386 1_555
K5 O9 2.762814 1_555
K5 O10 2.950247 1_555
K5 O14 2.959927 1_555
K5 N1 2.970930 1_555
K5 N5 3.033054 1_555
K5 N3 3.109098 1_455
K6 O6 2.691386 1_555
K6 O10 2.762814 1_555
K6 O9 2.950247 1_554
K6 O13 2.959927 1_554
K6 N2 2.970930 1_555
K6 N6 3.033054 1_555
K6 N0 3.109098 1_554
K7 O7 2.691386 1_555
K7 O11 2.762814 1_555
K7 O8 2.950247 1_555
K7 O12 2.959927 1_555
K7 N3 2.970930 1_555
K7 N7 3.033054 1_555
K7 N1 3.109098 1_655
Mo0 O0 1.835439 1_555
Mo0 O2 1.835439 1_545
Mo1 O1 1.835439 1_544
Mo1 O3 1.835439 1_455
C0 N0 1.177496 1_555
C0 Mo0 2.234121 1_565
C0 K1 3.091199 1_565
C1 N1 1.177496 1_555
C1 Mo1 2.234121 1_556
C1 K0 3.091199 1_445
C2 N2 1.177496 1_555
C2 Mo0 2.234121 1_555
C2 K3 3.091199 1_545
C3 N3 1.177496 1_555
C3 Mo1 2.234121 1_665
C3 K2 3.091199 1_665
C4 N4 1.176705 1_555
C4 Mo1 2.244453 1_666
C4 K0 3.056207 1_555
C5 N5 1.176705 1_555
C5 Mo0 2.244453 1_555
C5 K1 3.056207 1_555
C6 N6 1.176705 1_555
C6 Mo1 2.244453 1_555
C6 K2 3.056207 1_555
C7 N7 1.176705 1_555
C7 Mo0 2.244453 1_565
C7 K3 3.056207 1_555
O10 O14 1.267331 1_555
O11 O15 1.267331 1_555
O12 O8 1.267331 1_555
O13 O9 1.267331 1_555
