# generated using pymatgen
data_BaSrGdNbO6
_symmetry_space_group_name_H-M   'P 1'
_cell_length_a   5.99135121
_cell_length_b   6.02643843
_cell_length_c   8.49572678
_cell_angle_alpha   90.30603607
_cell_angle_beta   90.23774916
_cell_angle_gamma   90.25919757
_symmetry_Int_Tables_number   1
_chemical_formula_structural   BaSrGdNbO6
_chemical_formula_sum   'Ba2 Sr2 Gd2 Nb2 O12'
_cell_volume   306.74085052
_cell_formula_units_Z   2
loop_
 _symmetry_equiv_pos_site_id
 _symmetry_equiv_pos_as_xyz
  1  'x, y, z'
loop_
 _atom_site_type_symbol
 _atom_site_label
 _atom_site_symmetry_multiplicity
 _atom_site_fract_x
 _atom_site_fract_y
 _atom_site_fract_z
 _atom_site_occupancy
  Ba  Ba0  1  0.50609621  0.52620509  0.25002840  1
  Ba  Ba1  1  0.49390379  0.47379491  0.74997160  1
  Sr  Sr0  1  0.99421332  0.03247018  0.25090703  1
  Sr  Sr1  1  0.00578668  0.96752982  0.74909297  1
  Gd  Gd0  1  -0.00000000  0.50000000  -0.00000000  1
  Gd  Gd1  1  0.50000000  -0.00000000  0.50000000  1
  Nb  Nb0  1  0.50000000  -0.00000000  -0.00000000  1
  Nb  Nb1  1  -0.00000000  0.50000000  0.50000000  1
  O  O0  1  0.23027194  0.19807651  0.96113381  1
  O  O1  1  0.26432100  0.70491551  0.53386830  1
  O  O2  1  0.76972806  0.80192349  0.03886619  1
  O  O3  1  0.73567900  0.29508449  0.46613170  1
  O  O4  1  0.29705502  0.73435416  0.96417759  1
  O  O5  1  0.19553761  0.22729361  0.53757171  1
  O  O6  1  0.70294498  0.26564584  0.03582241  1
  O  O7  1  0.80446239  0.77270639  0.46242829  1
  O  O8  1  0.42347902  0.99179225  0.23366424  1
  O  O9  1  0.06155799  0.47822593  0.26582967  1
  O  O10  1  0.57652098  0.00820775  0.76633576  1
  O  O11  1  0.93844201  0.52177407  0.73417033  1
loop_
_geom_bond_atom_site_label_1
_geom_bond_atom_site_label_2
_geom_bond_distance
_geom_bond_site_symmetry_2
Ba0 O6 2.678147 1_555
Ba0 O9 2.681726 1_555
Ba0 O3 2.688204 1_555
Ba0 O8 2.855381 1_555
Ba0 O2 2.916459 1_555
Ba0 O7 2.929012 1_555
Ba0 O4 3.010198 1_554
Ba0 O1 3.014725 1_555
Ba0 O8 3.258354 1_545
Ba1 O4 2.678147 1_555
Ba1 O11 2.681726 1_555
Ba1 O1 2.688204 1_555
Ba1 O10 2.855381 1_555
Ba1 O0 2.916459 1_555
Ba1 O5 2.929012 1_555
Ba1 O6 3.010198 1_556
Ba1 O3 3.014725 1_555
Ba1 O10 3.258354 1_565
Gd0 O6 2.289359 1_455
Gd0 O4 2.289359 1_554
Gd0 O9 2.291370 1_555
Gd0 O11 2.291370 1_454
Gd0 O0 2.311531 1_554
Gd0 O2 2.311531 1_455
Gd1 O3 2.285856 1_555
Gd1 O1 2.285856 1_545
Gd1 O8 2.307056 1_545
Gd1 O10 2.307056 1_555
Gd1 O5 2.308337 1_555
Gd1 O7 2.308337 1_545
Nb0 O4 2.026834 1_544
Nb0 O6 2.026834 1_555
Nb0 O10 2.040060 1_554
Nb0 O8 2.040060 1_545
Nb0 O2 2.040281 1_545
Nb0 O0 2.040281 1_554
Nb1 O1 2.022484 1_555
Nb1 O3 2.022484 1_455
Nb1 O9 2.028517 1_555
Nb1 O11 2.028517 1_455
Nb1 O7 2.048225 1_455
Nb1 O5 2.048225 1_555
O0 Sr1 2.630731 1_545
O0 Sr0 3.016506 1_456
O1 Sr1 2.874399 1_555
O2 Sr0 2.630731 1_565
O2 Sr1 3.016506 1_654
O3 Sr0 2.874399 1_555
O4 Sr1 2.895196 1_555
O5 Sr1 2.646376 1_545
O5 Sr0 2.949063 1_455
O6 Sr0 2.895196 1_555
O7 Sr0 2.646376 1_565
O7 Sr1 2.949063 1_655
O8 Sr0 2.589320 1_465
O9 Sr0 2.716858 1_455
O10 Sr1 2.589320 1_645
O11 Sr1 2.716858 1_655
