# generated using pymatgen
data_Li4MnCo3O8
_symmetry_space_group_name_H-M   'P 1'
_cell_length_a   2.93462700
_cell_length_b   5.05559918
_cell_length_c   9.77065059
_cell_angle_alpha   85.43552590
_cell_angle_beta   83.09232738
_cell_angle_gamma   88.32928206
_symmetry_Int_Tables_number   1
_chemical_formula_structural   Li4MnCo3O8
_chemical_formula_sum   'Li4 Mn1 Co3 O8'
_cell_volume   143.42354021
_cell_formula_units_Z   1
loop_
 _symmetry_equiv_pos_site_id
 _symmetry_equiv_pos_as_xyz
  1  'x, y, z'
loop_
 _atom_site_type_symbol
 _atom_site_label
 _atom_site_symmetry_multiplicity
 _atom_site_fract_x
 _atom_site_fract_y
 _atom_site_fract_z
 _atom_site_occupancy
  Li  Li0  1  0.87674700  0.12420300  0.74827500  1
  Li  Li1  1  0.63453000  0.37496800  0.24514400  1
  Li  Li2  1  0.36547000  0.62503200  0.75485600  1
  Li  Li3  1  0.12325300  0.87579700  0.25172500  1
  Mn  Mn0  1  0.00000000  0.50000000  0.50000000  1
  Co  Co0  1  0.75049300  0.75056500  0.00139600  1
  Co  Co1  1  0.50000000  0.00000000  0.50000000  1
  Co  Co2  1  0.24950700  0.24943500  0.99860400  1
  O  O0  1  0.31569000  0.93456700  0.88406000  1
  O  O1  1  0.03564600  0.17657400  0.39344100  1
  O  O2  1  0.81318400  0.43757800  0.88297500  1
  O  O3  1  0.59137200  0.69667600  0.38596300  1
  O  O4  1  0.40862800  0.30332400  0.61403700  1
  O  O5  1  0.18681600  0.56242200  0.11702500  1
  O  O6  1  0.96435400  0.82342600  0.60655900  1
  O  O7  1  0.68431000  0.06543300  0.11594000  1
loop_
_geom_bond_atom_site_label_1
_geom_bond_atom_site_label_2
_geom_bond_distance
_geom_bond_site_symmetry_2
Li0 O4 2.092268 1_655
Li0 O0 2.115470 1_645
Li0 O6 2.126574 1_545
Li0 O2 2.128971 1_555
Li0 O4 2.144609 1_555
Li0 O0 2.180460 1_545
Li1 O7 2.078609 1_555
Li1 O5 2.079807 1_555
Li1 O5 2.122429 1_655
Li1 O1 2.145047 1_655
Li1 O3 2.203776 1_555
Li1 O1 2.335216 1_555
Li2 O0 2.078609 1_555
Li2 O2 2.079807 1_555
Li2 O2 2.122429 1_455
Li2 O6 2.145047 1_455
Li2 O4 2.203776 1_555
Li2 O6 2.335216 1_555
Li3 O3 2.092268 1_455
Li3 O7 2.115470 1_465
Li3 O1 2.126574 1_565
Li3 O5 2.128971 1_555
Li3 O3 2.144609 1_555
Li3 O7 2.180460 1_565
Mn0 O3 1.934860 1_455
Mn0 O4 1.934860 1_555
Mn0 O6 2.000829 1_455
Mn0 O1 2.000829 1_555
Mn0 O4 2.168205 1_455
Mn0 O3 2.168205 1_555
Co0 O0 1.980088 1_554
Co0 O5 1.981557 1_655
Co0 O7 2.009348 1_565
Co0 O2 2.024753 1_554
Co0 O5 2.094902 1_555
Co0 O0 2.096096 1_654
Co1 O3 1.959862 1_545
Co1 O4 1.959862 1_555
Co1 O1 1.964755 1_555
Co1 O6 1.964755 1_545
Co1 O6 1.972828 1_445
Co1 O1 1.972828 1_655
Co2 O7 1.980088 1_556
Co2 O2 1.981557 1_455
Co2 O0 2.009348 1_545
Co2 O5 2.024753 1_556
Co2 O2 2.094902 1_555
Co2 O7 2.096096 1_456
