# generated using pymatgen
data_In2Sb4Pb4Se13
_symmetry_space_group_name_H-M   'P 1'
_cell_length_a   22.47335700
_cell_length_b   27.93144700
_cell_length_c   4.12952900
_cell_angle_alpha   90.00000000
_cell_angle_beta   90.00000000
_cell_angle_gamma   90.00000000
_symmetry_Int_Tables_number   1
_chemical_formula_structural   In2Sb4Pb4Se13
_chemical_formula_sum   'In8 Sb16 Pb16 Se52'
_cell_volume   2592.16060622
_cell_formula_units_Z   4
loop_
 _symmetry_equiv_pos_site_id
 _symmetry_equiv_pos_as_xyz
  1  'x, y, z'
loop_
 _atom_site_type_symbol
 _atom_site_label
 _atom_site_symmetry_multiplicity
 _atom_site_fract_x
 _atom_site_fract_y
 _atom_site_fract_z
 _atom_site_occupancy
  In  In0  1  0.00000000  0.50000000  0.00000000  1
  In  In1  1  0.50000000  0.00000000  0.00000000  1
  In  In2  1  0.50000000  0.50000000  0.00000000  1
  In  In3  1  0.00000000  0.00000000  0.00000000  1
  In  In4  1  0.22903000  0.34330500  0.00000000  1
  In  In5  1  0.77097000  0.65669500  0.00000000  1
  In  In6  1  0.72903000  0.15669500  0.00000000  1
  In  In7  1  0.27097000  0.84330500  0.00000000  1
  Sb  Sb0  1  0.38936800  0.41517400  0.50000000  1
  Sb  Sb1  1  0.61063200  0.58482600  0.50000000  1
  Sb  Sb2  1  0.88936800  0.08482600  0.50000000  1
  Sb  Sb3  1  0.11063200  0.91517400  0.50000000  1
  Sb  Sb4  1  0.15382900  0.48010300  0.50000000  1
  Sb  Sb5  1  0.84617100  0.51989700  0.50000000  1
  Sb  Sb6  1  0.65382900  0.01989700  0.50000000  1
  Sb  Sb7  1  0.34617100  0.98010300  0.50000000  1
  Sb  Sb8  1  0.14367500  0.60850800  0.00000000  1
  Sb  Sb9  1  0.85632500  0.39149200  0.00000000  1
  Sb  Sb10  1  0.64367500  0.89149200  0.00000000  1
  Sb  Sb11  1  0.35632500  0.10850800  0.00000000  1
  Sb  Sb12  1  0.52170200  0.34381100  0.00000000  1
  Sb  Sb13  1  0.47829800  0.65618900  0.00000000  1
  Sb  Sb14  1  0.02170200  0.15618900  0.00000000  1
  Sb  Sb15  1  0.97829800  0.84381100  0.00000000  1
  Pb  Pb0  1  0.12343100  0.75051500  0.50000000  1
  Pb  Pb1  1  0.87656900  0.24948500  0.50000000  1
  Pb  Pb2  1  0.62343100  0.74948500  0.50000000  1
  Pb  Pb3  1  0.37656900  0.25051500  0.50000000  1
  Pb  Pb4  1  0.68047900  0.42618900  0.50000000  1
  Pb  Pb5  1  0.31952100  0.57381100  0.50000000  1
  Pb  Pb6  1  0.18047900  0.07381100  0.50000000  1
  Pb  Pb7  1  0.81952100  0.92618900  0.50000000  1
  Pb  Pb8  1  0.66897400  0.27079500  0.50000000  1
  Pb  Pb9  1  0.33102600  0.72920500  0.50000000  1
  Pb  Pb10  1  0.16897400  0.22920500  0.50000000  1
  Pb  Pb11  1  0.83102600  0.77079500  0.50000000  1
  Pb  Pb12  1  0.96782400  0.65066600  0.50000000  1
  Pb  Pb13  1  0.03217600  0.34933400  0.50000000  1
  Pb  Pb14  1  0.46782400  0.84933400  0.50000000  1
  Pb  Pb15  1  0.53217600  0.15066600  0.50000000  1
  Se  Se0  1  0.52509200  0.27887000  0.50000000  1
  Se  Se1  1  0.47490800  0.72113000  0.50000000  1
  Se  Se2  1  0.02509200  0.22113000  0.50000000  1
  Se  Se3  1  0.97490800  0.77887000  0.50000000  1
  Se  Se4  1  0.24959700  0.40040800  0.50000000  1
  Se  Se5  1  0.75040300  0.59959200  0.50000000  1
  Se  Se6  1  0.74959700  0.09959200  0.50000000  1
  Se  Se7  1  0.25040300  0.90040800  0.50000000  1
  Se  Se8  1  0.06173200  0.68409400  0.00000000  1
  Se  Se9  1  0.93826800  0.31590600  0.00000000  1
  Se  Se10  1  0.56173200  0.81590600  0.00000000  1
  Se  Se11  1  0.43826800  0.18409400  0.00000000  1
  Se  Se12  1  0.38161800  0.48907300  0.00000000  1
  Se  Se13  1  0.61838200  0.51092700  0.00000000  1
  Se  Se14  1  0.88161800  0.01092700  0.00000000  1
  Se  Se15  1  0.11838200  0.98907300  0.00000000  1
  Se  Se16  1  0.08208500  0.43073500  0.00000000  1
  Se  Se17  1  0.91791500  0.56926500  0.00000000  1
  Se  Se18  1  0.58208500  0.06926500  0.00000000  1
  Se  Se19  1  0.41791500  0.93073500  0.00000000  1
  Se  Se20  1  0.06442000  0.55008100  0.50000000  1
  Se  Se21  1  0.93558000  0.44991900  0.50000000  1
  Se  Se22  1  0.56442000  0.94991900  0.50000000  1
  Se  Se23  1  0.43558000  0.05008100  0.50000000  1
  Se  Se24  1  0.64890100  0.35546200  0.00000000  1
  Se  Se25  1  0.35109900  0.64453800  0.00000000  1
  Se  Se26  1  0.14890100  0.14453800  0.00000000  1
  Se  Se27  1  0.85109900  0.85546200  0.00000000  1
  Se  Se28  1  0.87902900  0.69569900  0.00000000  1
  Se  Se29  1  0.12097100  0.30430100  0.00000000  1
  Se  Se30  1  0.37902900  0.80430100  0.00000000  1
  Se  Se31  1  0.62097100  0.19569900  0.00000000  1
  Se  Se32  1  0.51124900  0.42906000  0.50000000  1
  Se  Se33  1  0.48875100  0.57094000  0.50000000  1
  Se  Se34  1  0.01124900  0.07094000  0.50000000  1
  Se  Se35  1  0.98875100  0.92906000  0.50000000  1
  Se  Se36  1  0.22212800  0.52431400  0.00000000  1
  Se  Se37  1  0.77787200  0.47568600  0.00000000  1
  Se  Se38  1  0.72212800  0.97568600  0.00000000  1
  Se  Se39  1  0.27787200  0.02431400  0.00000000  1
  Se  Se40  1  0.39527700  0.34285600  0.00000000  1
  Se  Se41  1  0.60472300  0.65714400  0.00000000  1
  Se  Se42  1  0.89527700  0.15714400  0.00000000  1
  Se  Se43  1  0.10472300  0.84285600  0.00000000  1
  Se  Se44  1  0.20941300  0.64631900  0.50000000  1
  Se  Se45  1  0.79058700  0.35368100  0.50000000  1
  Se  Se46  1  0.70941300  0.85368100  0.50000000  1
  Se  Se47  1  0.29058700  0.14631900  0.50000000  1
  Se  Se48  1  0.22664300  0.75672200  0.00000000  1
  Se  Se49  1  0.77335700  0.24327800  0.00000000  1
  Se  Se50  1  0.72664300  0.74327800  0.00000000  1
  Se  Se51  1  0.27335700  0.25672200  0.00000000  1
loop_
_geom_bond_atom_site_label_1
_geom_bond_atom_site_label_2
_geom_bond_distance
_geom_bond_site_symmetry_2
In0 Se17 2.673194 1_455
In0 Se16 2.673194 1_555
In0 Se21 2.883734 1_455
In0 Se21 2.883734 1_454
In0 Se20 2.883734 1_554
In0 Se20 2.883734 1_555
In1 Se18 2.673194 1_555
In1 Se19 2.673194 1_545
In1 Se23 2.883734 1_554
In1 Se23 2.883734 1_555
In1 Se22 2.883734 1_544
In1 Se22 2.883734 1_545
In2 Se12 2.677890 1_555
In2 Se13 2.677890 1_555
In2 Se32 2.872861 1_555
In2 Se33 2.872861 1_555
In2 Se32 2.872861 1_554
In2 Se33 2.872861 1_554
In3 Se14 2.677890 1_455
In3 Se15 2.677890 1_545
In3 Se34 2.872861 1_554
In3 Se35 2.872861 1_444
In3 Se35 2.872861 1_445
In3 Se34 2.872861 1_555
In4 Se51 2.615525 1_555
In4 Se4 2.649683 1_555
In4 Se4 2.649683 1_554
In4 Se29 2.661623 1_555
In5 Se50 2.615525 1_555
In5 Se5 2.649683 1_554
In5 Se5 2.649683 1_555
In5 Se28 2.661623 1_555
In6 Se49 2.615525 1_555
In6 Se6 2.649683 1_555
In6 Se6 2.649683 1_554
In6 Se31 2.661623 1_555
In7 Se48 2.615525 1_555
In7 Se7 2.649683 1_555
In7 Se7 2.649683 1_554
In7 Se30 2.661623 1_555
Sb0 Se32 2.766399 1_555
Sb0 Se40 2.891552 1_556
Sb0 Se40 2.891552 1_555
Sb0 Se12 2.924743 1_556
Sb0 Se12 2.924743 1_555
Sb0 Se4 3.168085 1_555
Sb1 Se33 2.766399 1_555
Sb1 Se41 2.891552 1_555
Sb1 Se41 2.891552 1_556
Sb1 Se13 2.924743 1_556
Sb1 Se13 2.924743 1_555
Sb1 Se5 3.168085 1_555
Sb2 Se34 2.766399 1_655
Sb2 Se42 2.891552 1_556
Sb2 Se42 2.891552 1_555
Sb2 Se14 2.924743 1_555
Sb2 Se14 2.924743 1_556
Sb2 Se6 3.168085 1_555
Sb3 Se35 2.766399 1_455
Sb3 Se43 2.891552 1_555
Sb3 Se43 2.891552 1_556
Sb3 Se15 2.924743 1_555
Sb3 Se15 2.924743 1_556
Sb3 Se7 3.168085 1_555
Sb4 Se20 2.803173 1_555
Sb4 Se36 2.853790 1_556
Sb4 Se36 2.853790 1_555
Sb4 Se16 2.960452 1_556
Sb4 Se16 2.960452 1_555
Sb4 Se4 3.096312 1_555
Sb5 Se21 2.803173 1_555
Sb5 Se37 2.853790 1_555
Sb5 Se37 2.853790 1_556
Sb5 Se17 2.960452 1_555
Sb5 Se17 2.960452 1_556
Sb5 Se5 3.096312 1_555
Sb6 Se22 2.803173 1_545
Sb6 Se38 2.853790 1_545
Sb6 Se38 2.853790 1_546
Sb6 Se18 2.960452 1_556
Sb6 Se18 2.960452 1_555
Sb6 Se6 3.096312 1_555
Sb7 Se23 2.803173 1_565
Sb7 Se39 2.853790 1_565
Sb7 Se39 2.853790 1_566
Sb7 Se19 2.960452 1_556
Sb7 Se19 2.960452 1_555
Sb7 Se7 3.096312 1_555
Sb8 Se44 2.749765 1_555
Sb8 Se44 2.749765 1_554
Sb8 Se8 2.801522 1_555
Sb8 Se36 2.939190 1_555
Sb8 Se20 3.177881 1_555
Sb8 Se20 3.177881 1_554
Sb9 Se45 2.749765 1_555
Sb9 Se45 2.749765 1_554
Sb9 Se9 2.801522 1_555
Sb9 Se37 2.939190 1_555
Sb9 Se21 3.177881 1_554
Sb9 Se21 3.177881 1_555
Sb10 Se46 2.749765 1_554
Sb10 Se46 2.749765 1_555
Sb10 Se10 2.801522 1_555
Sb10 Se38 2.939190 1_555
Sb10 Se22 3.177881 1_554
Sb10 Se22 3.177881 1_555
Sb11 Se47 2.749765 1_555
Sb11 Se47 2.749765 1_554
Sb11 Se11 2.801522 1_555
Sb11 Se39 2.939190 1_555
Sb11 Se23 3.177881 1_555
Sb11 Se23 3.177881 1_554
Sb12 Se0 2.749414 1_555
Sb12 Se0 2.749414 1_554
Sb12 Se40 2.841319 1_555
Sb12 Se24 2.877053 1_555
Sb12 Se32 3.160413 1_555
Sb12 Se32 3.160413 1_554
Sb13 Se1 2.749414 1_554
Sb13 Se1 2.749414 1_555
Sb13 Se41 2.841319 1_555
Sb13 Se25 2.877053 1_555
Sb13 Se33 3.160413 1_554
Sb13 Se33 3.160413 1_555
Sb14 Se2 2.749414 1_555
Sb14 Se2 2.749414 1_554
Sb14 Se42 2.841319 1_455
Sb14 Se26 2.877053 1_555
Sb14 Se34 3.160413 1_555
Sb14 Se34 3.160413 1_554
Sb15 Se3 2.749414 1_555
Sb15 Se3 2.749414 1_554
Sb15 Se43 2.841319 1_655
Sb15 Se27 2.877053 1_555
Sb15 Se35 3.160413 1_554
Sb15 Se35 3.160413 1_555
Pb0 Se8 3.102864 1_556
Pb0 Se8 3.102864 1_555
Pb0 Se48 3.110222 1_555
Pb0 Se48 3.110222 1_556
Pb0 Se43 3.330522 1_555
Pb0 Se43 3.330522 1_556
Pb1 Se9 3.102864 1_556
Pb1 Se9 3.102864 1_555
Pb1 Se49 3.110222 1_555
Pb1 Se49 3.110222 1_556
Pb1 Se42 3.330522 1_555
Pb1 Se42 3.330522 1_556
Pb2 Se10 3.102864 1_555
Pb2 Se10 3.102864 1_556
Pb2 Se50 3.110222 1_555
Pb2 Se50 3.110222 1_556
Pb2 Se41 3.330522 1_555
Pb2 Se41 3.330522 1_556
Pb3 Se11 3.102864 1_555
Pb3 Se11 3.102864 1_556
Pb3 Se51 3.110222 1_555
Pb3 Se51 3.110222 1_556
Pb3 Se40 3.330522 1_555
Pb3 Se40 3.330522 1_556
Pb4 Se24 2.944402 1_556
Pb4 Se24 2.944402 1_555
Pb4 Se45 3.197622 1_555
Pb4 Se37 3.311380 1_556
Pb4 Se37 3.311380 1_555
Pb5 Se25 2.944402 1_555
Pb5 Se25 2.944402 1_556
Pb5 Se44 3.197622 1_555
Pb5 Se36 3.311380 1_556
Pb5 Se36 3.311380 1_555
Pb6 Se26 2.944402 1_556
Pb6 Se26 2.944402 1_555
Pb6 Se47 3.197622 1_555
Pb6 Se39 3.311380 1_556
Pb6 Se39 3.311380 1_555
Pb7 Se27 2.944402 1_556
Pb7 Se27 2.944402 1_555
Pb7 Se46 3.197622 1_555
Pb7 Se38 3.311380 1_555
Pb7 Se38 3.311380 1_556
Pb8 Se31 3.134759 1_556
Pb8 Se31 3.134759 1_555
Pb8 Se24 3.171651 1_556
Pb8 Se24 3.171651 1_555
Pb8 Se49 3.218219 1_555
Pb8 Se49 3.218219 1_556
Pb8 Se0 3.241368 1_555
Pb9 Se30 3.134759 1_555
Pb9 Se30 3.134759 1_556
Pb9 Se25 3.171651 1_555
Pb9 Se25 3.171651 1_556
Pb9 Se48 3.218219 1_555
Pb9 Se48 3.218219 1_556
Pb9 Se1 3.241368 1_555
Pb10 Se29 3.134759 1_556
Pb10 Se29 3.134759 1_555
Pb10 Se26 3.171651 1_555
Pb10 Se26 3.171651 1_556
Pb10 Se51 3.218219 1_556
Pb10 Se51 3.218219 1_555
Pb10 Se2 3.241368 1_555
Pb11 Se28 3.134759 1_555
Pb11 Se28 3.134759 1_556
Pb11 Se27 3.171651 1_556
Pb11 Se27 3.171651 1_555
Pb11 Se50 3.218219 1_555
Pb11 Se50 3.218219 1_556
Pb11 Se3 3.241368 1_555
Pb12 Se8 3.096601 1_655
Pb12 Se8 3.096601 1_656
Pb12 Se28 3.134886 1_556
Pb12 Se28 3.134886 1_555
Pb12 Se17 3.269673 1_555
Pb12 Se17 3.269673 1_556
Pb13 Se9 3.096601 1_455
Pb13 Se9 3.096601 1_456
Pb13 Se29 3.134886 1_555
Pb13 Se29 3.134886 1_556
Pb13 Se16 3.269673 1_555
Pb13 Se16 3.269673 1_556
Pb14 Se10 3.096601 1_556
Pb14 Se10 3.096601 1_555
Pb14 Se30 3.134886 1_555
Pb14 Se30 3.134886 1_556
Pb14 Se19 3.269673 1_555
Pb14 Se19 3.269673 1_556
Pb15 Se11 3.096601 1_556
Pb15 Se11 3.096601 1_555
Pb15 Se31 3.134886 1_556
Pb15 Se31 3.134886 1_555
Pb15 Se18 3.269673 1_556
Pb15 Se18 3.269673 1_555
