# generated using pymatgen
data_Re3PbSe6
_symmetry_space_group_name_H-M   'P 1'
_cell_length_a   9.88561294
_cell_length_b   9.88561294
_cell_length_c   12.41676809
_cell_angle_alpha   89.68152852
_cell_angle_beta   89.68152852
_cell_angle_gamma   60.51558610
_symmetry_Int_Tables_number   1
_chemical_formula_structural   Re3PbSe6
_chemical_formula_sum   'Re12 Pb4 Se24'
_cell_volume   1056.25888972
_cell_formula_units_Z   4
loop_
 _symmetry_equiv_pos_site_id
 _symmetry_equiv_pos_as_xyz
  1  'x, y, z'
loop_
 _atom_site_type_symbol
 _atom_site_label
 _atom_site_symmetry_multiplicity
 _atom_site_fract_x
 _atom_site_fract_y
 _atom_site_fract_z
 _atom_site_occupancy
  Re  Re0  1  0.60003400  0.81016900  0.08142300  1
  Re  Re1  1  0.18690800  0.39840000  0.42425100  1
  Re  Re2  1  0.39840000  0.18690800  0.92425100  1
  Re  Re3  1  0.81016900  0.60003400  0.58142300  1
  Re  Re4  1  0.47786100  0.11024100  0.12979400  1
  Re  Re5  1  0.88681200  0.52218800  0.37361700  1
  Re  Re6  1  0.52218800  0.88681200  0.87361700  1
  Re  Re7  1  0.11024100  0.47786100  0.62979400  1
  Re  Re8  1  0.30853200  0.00906700  0.02998800  1
  Re  Re9  1  0.98589000  0.69152900  0.47449100  1
  Re  Re10  1  0.69152900  0.98589000  0.97449100  1
  Re  Re11  1  0.00906700  0.30853200  0.52998800  1
  Pb  Pb0  1  0.76301500  0.26148700  0.22614700  1
  Pb  Pb1  1  0.26148700  0.76301500  0.72614700  1
  Pb  Pb2  1  0.65385400  0.11444500  0.49589500  1
  Pb  Pb3  1  0.11444500  0.65385400  0.99589500  1
  Se  Se0  1  0.60556700  0.06379900  0.78040200  1
  Se  Se1  1  0.93596000  0.39286700  0.72509500  1
  Se  Se2  1  0.39286700  0.93596000  0.22509500  1
  Se  Se3  1  0.06379900  0.60556700  0.28040200  1
  Se  Se4  1  0.45440700  0.26587500  0.31118000  1
  Se  Se5  1  0.74521300  0.54752600  0.19094400  1
  Se  Se6  1  0.54752600  0.74521300  0.69094400  1
  Se  Se7  1  0.26587500  0.45440700  0.81118000  1
  Se  Se8  1  0.00856500  0.05721200  0.58687700  1
  Se  Se9  1  0.95045600  0.97583300  0.91914200  1
  Se  Se10  1  0.97583300  0.95045600  0.41914200  1
  Se  Se11  1  0.05721200  0.00856500  0.08687700  1
  Se  Se12  1  0.23850200  0.08172900  0.83444100  1
  Se  Se13  1  0.91453900  0.75996200  0.67118700  1
  Se  Se14  1  0.75996200  0.91453900  0.17118700  1
  Se  Se15  1  0.08172900  0.23850200  0.33444100  1
  Se  Se16  1  0.57164200  0.27405900  0.02271100  1
  Se  Se17  1  0.72148500  0.43111300  0.47985300  1
  Se  Se18  1  0.43111300  0.72148500  0.97985300  1
  Se  Se19  1  0.27405900  0.57164200  0.52271100  1
  Se  Se20  1  0.69289900  0.80094000  0.43177700  1
  Se  Se21  1  0.19778800  0.29563100  0.07678500  1
  Se  Se22  1  0.29563100  0.19778800  0.57678500  1
  Se  Se23  1  0.80094000  0.69289900  0.93177700  1
loop_
_geom_bond_atom_site_label_1
_geom_bond_atom_site_label_2
_geom_bond_distance
_geom_bond_site_symmetry_2
Re0 Se2 2.529848 1_555
Re0 Se14 2.538586 1_555
Re0 Se23 2.541167 1_554
Re0 Se18 2.573807 1_554
Re0 Se5 2.639068 1_555
Re1 Se3 2.528961 1_555
Re1 Se15 2.544322 1_555
Re1 Se22 2.560858 1_555
Re1 Se19 2.580176 1_555
Re1 Se4 2.692436 1_555
Re2 Se0 2.528961 1_555
Re2 Se12 2.544322 1_555
Re2 Se21 2.560858 1_556
Re2 Se16 2.580176 1_556
Re2 Se7 2.692436 1_555
Re3 Se1 2.529848 1_555
Re3 Se13 2.538586 1_555
Re3 Se20 2.541167 1_555
Re3 Se17 2.573807 1_555
Re3 Se6 2.639068 1_555
Re4 Se2 2.542791 1_545
Re4 Se21 2.543547 1_555
Re4 Se14 2.545200 1_545
Re4 Se16 2.586548 1_555
Re4 Se4 2.678611 1_555
Re5 Se3 2.542971 1_655
Re5 Se15 2.549436 1_655
Re5 Se20 2.568384 1_555
Re5 Se17 2.575476 1_555
Re5 Se5 2.617397 1_555
Re6 Se0 2.542971 1_565
Re6 Se12 2.549436 1_565
Re6 Se23 2.568384 1_555
Re6 Se18 2.575476 1_555
Re6 Se6 2.617397 1_555
Re7 Se1 2.542791 1_455
Re7 Se22 2.543547 1_555
Re7 Se13 2.545200 1_455
Re7 Se19 2.586548 1_555
Re7 Se7 2.678611 1_555
Re8 Se12 2.529922 1_554
Re8 Se2 2.548770 1_545
Re8 Se21 2.553354 1_555
Re8 Se18 2.560913 1_544
Re8 Se11 2.581489 1_555
Re9 Se13 2.539615 1_555
Re9 Se3 2.545797 1_655
Re9 Se19 2.562415 1_655
Re9 Se10 2.600908 1_555
Re9 Se20 2.601379 1_555
Re10 Se14 2.539615 1_556
Re10 Se0 2.545797 1_565
Re10 Se16 2.562415 1_566
Re10 Se9 2.600908 1_555
Re10 Se23 2.601379 1_555
Re11 Se15 2.529922 1_555
Re11 Se1 2.548770 1_455
Re11 Se22 2.553354 1_555
Re11 Se17 2.560913 1_455
Re11 Se8 2.581489 1_555
Pb0 Se5 2.777593 1_555
Pb0 Se16 3.129450 1_555
Pb0 Se4 3.202867 1_555
Pb0 Se11 3.245663 1_655
Pb0 Se15 3.335496 1_655
Pb1 Se6 2.777593 1_555
Pb1 Se19 3.129450 1_555
Pb1 Se7 3.202867 1_555
Pb1 Se8 3.245663 1_565
Pb1 Se12 3.335496 1_565
Pb2 Se4 2.914704 1_555
Pb2 Se10 2.927737 1_545
Pb2 Se20 3.038793 1_545
Pb3 Se7 2.914704 1_555
Pb3 Se9 2.927737 1_455
Pb3 Se23 3.038793 1_455
Se10 Se8 2.433986 1_665
Se11 Se9 2.433986 1_444
