# generated using pymatgen
data_CaNiP2O7
_symmetry_space_group_name_H-M   'P 1'
_cell_length_a   6.45949700
_cell_length_b   6.56031263
_cell_length_c   6.69225249
_cell_angle_alpha   113.69457043
_cell_angle_beta   87.33924833
_cell_angle_gamma   97.45370533
_symmetry_Int_Tables_number   1
_chemical_formula_structural   CaNiP2O7
_chemical_formula_sum   'Ca2 Ni2 P4 O14'
_cell_volume   257.48689189
_cell_formula_units_Z   2
loop_
 _symmetry_equiv_pos_site_id
 _symmetry_equiv_pos_as_xyz
  1  'x, y, z'
loop_
 _atom_site_type_symbol
 _atom_site_label
 _atom_site_symmetry_multiplicity
 _atom_site_fract_x
 _atom_site_fract_y
 _atom_site_fract_z
 _atom_site_occupancy
  Ca  Ca0  1  0.14288600  0.27102000  0.82591000  1
  Ca  Ca1  1  0.85711400  0.72898000  0.17409000  1
  Ni  Ni0  1  0.35232200  0.09982100  0.22351100  1
  Ni  Ni1  1  0.64767800  0.90017900  0.77648900  1
  P  P0  1  0.85665700  0.22850100  0.24836200  1
  P  P1  1  0.14334300  0.77149900  0.75163800  1
  P  P2  1  0.37351800  0.64248400  0.33189800  1
  P  P3  1  0.62648200  0.35751600  0.66810200  1
  O  O0  1  0.22211800  0.61026700  0.52037700  1
  O  O1  1  0.77788200  0.38973300  0.47962300  1
  O  O2  1  0.02733300  0.10081000  0.27945800  1
  O  O3  1  0.97266700  0.89919000  0.72054200  1
  O  O4  1  0.41054100  0.25374300  0.56155000  1
  O  O5  1  0.58945900  0.74625700  0.43845000  1
  O  O6  1  0.62500400  0.59891900  0.83820700  1
  O  O7  1  0.37499600  0.40108100  0.16179300  1
  O  O8  1  0.06793000  0.61609700  0.86261900  1
  O  O9  1  0.93207000  0.38390300  0.13738100  1
  O  O10  1  0.33073400  0.94976700  0.86703400  1
  O  O11  1  0.66926600  0.05023300  0.13296600  1
  O  O12  1  0.72691100  0.20536500  0.74614200  1
  O  O13  1  0.27308900  0.79463500  0.25385800  1
loop_
_geom_bond_atom_site_label_1
_geom_bond_atom_site_label_2
_geom_bond_distance
_geom_bond_site_symmetry_2
Ca0 O8 2.290411 1_555
Ca0 O9 2.346310 1_456
Ca0 O3 2.377000 1_445
Ca0 O4 2.395335 1_555
Ca0 O7 2.543254 1_556
Ca0 O10 2.674022 1_545
Ca0 O12 2.708968 1_455
Ca1 O9 2.290411 1_555
Ca1 O8 2.346310 1_654
Ca1 O2 2.377000 1_665
Ca1 O5 2.395335 1_555
Ca1 O6 2.543254 1_554
Ca1 O11 2.674022 1_565
Ca1 O13 2.708968 1_655
Ni0 O13 2.088768 1_545
Ni0 O4 2.103161 1_555
Ni0 O2 2.115596 1_555
Ni0 O11 2.136264 1_555
Ni0 O7 2.161806 1_555
Ni0 O10 2.188044 1_544
Ni1 O12 2.088768 1_565
Ni1 O5 2.103161 1_555
Ni1 O3 2.115596 1_555
Ni1 O10 2.136264 1_555
Ni1 O6 2.161806 1_555
Ni1 O11 2.188044 1_566
O0 P1 1.588645 1_555
O0 P2 1.624254 1_555
O1 P0 1.588645 1_555
O1 P3 1.624254 1_555
O2 P0 1.536725 1_455
O3 P1 1.536725 1_655
O4 P3 1.540587 1_555
O5 P2 1.540587 1_555
O6 P3 1.535574 1_555
O7 P2 1.535574 1_555
O8 P1 1.508110 1_555
O9 P0 1.508110 1_555
O10 P1 1.556572 1_555
O11 P0 1.556572 1_555
O12 P3 1.519327 1_555
O13 P2 1.519327 1_555
