# generated using pymatgen
data_AlCo2Ni
_symmetry_space_group_name_H-M   'P 1'
_cell_length_a   4.00570193
_cell_length_b   4.00570193
_cell_length_c   4.00570193
_cell_angle_alpha   60.00000000
_cell_angle_beta   60.00000000
_cell_angle_gamma   60.00000000
_symmetry_Int_Tables_number   1
_chemical_formula_structural   AlCo2Ni
_chemical_formula_sum   'Al1 Co2 Ni1'
_cell_volume   45.44864001
_cell_formula_units_Z   1
loop_
 _symmetry_equiv_pos_site_id
 _symmetry_equiv_pos_as_xyz
  1  'x, y, z'
loop_
 _atom_site_type_symbol
 _atom_site_label
 _atom_site_symmetry_multiplicity
 _atom_site_fract_x
 _atom_site_fract_y
 _atom_site_fract_z
 _atom_site_occupancy
  Al  Al0  1  0.00000000  0.00000000  0.00000000  1
  Co  Co0  1  0.25000000  0.25000000  0.25000000  1
  Co  Co1  1  0.75000000  0.75000000  0.75000000  1
  Ni  Ni0  1  0.50000000  0.50000000  0.50000000  1
loop_
_geom_bond_atom_site_label_1
_geom_bond_atom_site_label_2
_geom_bond_distance
_geom_bond_site_symmetry_2
Al0 Co0 2.452981 1_545
Al0 Co1 2.452981 1_454
Al0 Co0 2.452981 1_555
Al0 Co0 2.452981 1_554
Al0 Co1 2.452981 1_544
Al0 Co1 2.452981 1_444
Al0 Co1 2.452981 1_445
Al0 Co0 2.452981 1_455
Al0 Ni0 2.832459 1_454
Al0 Ni0 2.832459 1_445
Al0 Ni0 2.832459 1_554
Al0 Ni0 2.832459 1_455
Al0 Ni0 2.832459 1_544
Al0 Ni0 2.832459 1_545
Co0 Ni0 2.452981 1_554
Co0 Ni0 2.452981 1_455
Co0 Ni0 2.452981 1_545
Co0 Ni0 2.452981 1_555
Co1 Ni0 2.452981 1_565
Co1 Ni0 2.452981 1_655
Co1 Ni0 2.452981 1_556
Co1 Ni0 2.452981 1_555
