# generated using pymatgen
data_NdMgIn
_symmetry_space_group_name_H-M   'P 1'
_cell_length_a   7.69500357
_cell_length_b   7.69500357
_cell_length_c   4.76373693
_cell_angle_alpha   90.00000000
_cell_angle_beta   90.00000000
_cell_angle_gamma   120.00000744
_symmetry_Int_Tables_number   1
_chemical_formula_structural   NdMgIn
_chemical_formula_sum   'Nd3 Mg3 In3'
_cell_volume   244.28456107
_cell_formula_units_Z   3
loop_
 _symmetry_equiv_pos_site_id
 _symmetry_equiv_pos_as_xyz
  1  'x, y, z'
loop_
 _atom_site_type_symbol
 _atom_site_label
 _atom_site_symmetry_multiplicity
 _atom_site_fract_x
 _atom_site_fract_y
 _atom_site_fract_z
 _atom_site_occupancy
  Nd  Nd0  1  0.57021280  0.00000000  -0.00000000  1
  Nd  Nd1  1  0.00000000  0.57021280  0.00000000  1
  Nd  Nd2  1  0.42978720  0.42978720  0.00000000  1
  Mg  Mg0  1  0.24117328  0.00000000  0.50000000  1
  Mg  Mg1  1  0.00000000  0.24117328  0.50000000  1
  Mg  Mg2  1  0.75882672  0.75882672  0.50000000  1
  In  In0  1  0.33333300  0.66666700  0.50000000  1
  In  In1  1  0.66666700  0.33333300  0.50000000  1
  In  In2  1  0.00000000  0.00000000  -0.00000000  1
loop_
_geom_bond_atom_site_label_1
_geom_bond_atom_site_label_2
_geom_bond_distance
_geom_bond_site_symmetry_2
In0 Mg0 2.983481 1_565
In0 Mg1 2.983486 1_555
In0 Mg2 2.983488 1_555
In0 Nd1 3.301457 1_555
In0 Nd1 3.301457 1_556
In0 Nd0 3.301458 1_565
In0 Nd0 3.301458 1_566
In0 Nd2 3.301462 1_555
In0 Nd2 3.301462 1_556
In1 Mg1 2.983481 1_655
In1 Mg0 2.983486 1_555
In1 Mg2 2.983488 1_555
In1 Nd0 3.301457 1_555
In1 Nd0 3.301457 1_556
In1 Nd1 3.301458 1_656
In1 Nd1 3.301458 1_655
In1 Nd2 3.301462 1_555
In1 Nd2 3.301462 1_556
In2 Mg2 3.019503 1_445
In2 Mg2 3.019503 1_444
In2 Mg1 3.019503 1_554
In2 Mg1 3.019503 1_555
In2 Mg0 3.019503 1_555
In2 Mg0 3.019503 1_554
In2 Nd2 3.307214 1_555
In2 Nd1 3.307214 1_545
In2 Nd0 3.307214 1_455
