# generated using pymatgen
data_Ho3Tl5
_symmetry_space_group_name_H-M   'P 1'
_cell_length_a   6.49161417
_cell_length_b   6.49161417
_cell_length_c   10.59385400
_cell_angle_alpha   90.00000000
_cell_angle_beta   90.00000000
_cell_angle_gamma   104.82214454
_symmetry_Int_Tables_number   1
_chemical_formula_structural   Ho3Tl5
_chemical_formula_sum   'Ho6 Tl10'
_cell_volume   431.58083135
_cell_formula_units_Z   2
loop_
 _symmetry_equiv_pos_site_id
 _symmetry_equiv_pos_as_xyz
  1  'x, y, z'
loop_
 _atom_site_type_symbol
 _atom_site_label
 _atom_site_symmetry_multiplicity
 _atom_site_fract_x
 _atom_site_fract_y
 _atom_site_fract_z
 _atom_site_occupancy
  Ho  Ho0  1  0.61334600  0.61334600  0.25000000  1
  Ho  Ho1  1  0.38665400  0.38665400  0.75000000  1
  Ho  Ho2  1  0.79292600  0.20707400  0.50000000  1
  Ho  Ho3  1  0.79292600  0.20707400  0.00000000  1
  Ho  Ho4  1  0.20707400  0.79292600  0.50000000  1
  Ho  Ho5  1  0.20707400  0.79292600  0.00000000  1
  Tl  Tl0  1  0.99968600  0.99968600  0.25000000  1
  Tl  Tl1  1  0.00031400  0.00031400  0.75000000  1
  Tl  Tl2  1  0.29976100  0.29976100  0.04257100  1
  Tl  Tl3  1  0.70023900  0.70023900  0.95742900  1
  Tl  Tl4  1  0.29976100  0.29976100  0.45742900  1
  Tl  Tl5  1  0.70023900  0.70023900  0.54257100  1
  Tl  Tl6  1  0.05883100  0.51480900  0.25000000  1
  Tl  Tl7  1  0.48519100  0.94116900  0.75000000  1
  Tl  Tl8  1  0.94116900  0.48519100  0.75000000  1
  Tl  Tl9  1  0.51480900  0.05883100  0.25000000  1
loop_
_geom_bond_atom_site_label_1
_geom_bond_atom_site_label_2
_geom_bond_distance
_geom_bond_site_symmetry_2
Ho0 Tl0 3.059684 1_555
Ho0 Tl6 3.117501 1_655
Ho0 Tl9 3.117501 1_565
Ho0 Tl3 3.174931 1_554
Ho0 Tl5 3.174931 1_555
Ho0 Tl4 3.316112 1_555
Ho0 Tl2 3.316112 1_555
Ho0 Tl6 3.491260 1_555
Ho0 Tl9 3.491260 1_555
Ho1 Tl1 3.059684 1_555
Ho1 Tl7 3.117501 1_545
Ho1 Tl8 3.117501 1_455
Ho1 Tl2 3.174931 1_556
Ho1 Tl4 3.174931 1_555
Ho1 Tl5 3.316112 1_555
Ho1 Tl3 3.316112 1_555
Ho1 Tl7 3.491260 1_555
Ho1 Tl8 3.491260 1_555
Ho2 Tl8 3.211088 1_555
Ho2 Tl9 3.211088 1_555
Ho2 Tl4 3.221462 1_655
Ho2 Tl5 3.221462 1_545
Ho2 Tl0 3.398953 1_545
Ho2 Tl1 3.398953 1_655
Ho2 Tl5 3.435138 1_555
Ho2 Tl4 3.435138 1_555
Ho2 Tl6 3.495777 1_655
Ho2 Tl7 3.495777 1_545
Ho3 Tl8 3.211088 1_554
Ho3 Tl9 3.211088 1_555
Ho3 Tl2 3.221462 1_655
Ho3 Tl3 3.221462 1_544
Ho3 Tl1 3.398953 1_654
Ho3 Tl0 3.398953 1_545
Ho3 Tl3 3.435138 1_554
Ho3 Tl2 3.435138 1_555
Ho3 Tl6 3.495777 1_655
Ho3 Tl7 3.495777 1_544
Ho4 Tl7 3.211088 1_555
Ho4 Tl6 3.211088 1_555
Ho4 Tl4 3.221462 1_565
Ho4 Tl5 3.221462 1_455
Ho4 Tl0 3.398953 1_455
Ho4 Tl1 3.398953 1_565
Ho4 Tl4 3.435138 1_555
Ho4 Tl5 3.435138 1_555
Ho4 Tl8 3.495777 1_455
Ho4 Tl9 3.495777 1_565
Ho5 Tl7 3.211088 1_554
Ho5 Tl6 3.211088 1_555
Ho5 Tl2 3.221462 1_565
Ho5 Tl3 3.221462 1_454
Ho5 Tl0 3.398953 1_455
Ho5 Tl1 3.398953 1_564
Ho5 Tl2 3.435138 1_555
Ho5 Tl3 3.435138 1_554
Ho5 Tl8 3.495777 1_454
Ho5 Tl9 3.495777 1_565
Tl0 Tl4 3.236759 1_665
Tl0 Tl2 3.236759 1_665
Tl0 Tl6 3.266913 1_665
Tl0 Tl9 3.266913 1_665
Tl0 Tl6 3.267009 1_655
Tl0 Tl9 3.267009 1_565
Tl1 Tl3 3.236759 1_445
Tl1 Tl5 3.236759 1_445
Tl1 Tl8 3.266913 1_445
Tl1 Tl7 3.266913 1_445
Tl1 Tl7 3.267009 1_545
Tl1 Tl8 3.267009 1_455
Tl2 Tl6 3.215744 1_555
Tl2 Tl9 3.215744 1_555
Tl2 Tl3 3.297415 1_554
Tl3 Tl8 3.215744 1_555
Tl3 Tl7 3.215744 1_555
Tl4 Tl6 3.215744 1_555
Tl4 Tl9 3.215744 1_555
Tl4 Tl5 3.297415 1_555
Tl5 Tl8 3.215744 1_555
Tl5 Tl7 3.215744 1_555
