# generated using pymatgen
data_SmPO4
_symmetry_space_group_name_H-M   'P 1'
_cell_length_a   5.83727174
_cell_length_b   5.83727174
_cell_length_c   5.83727174
_cell_angle_alpha   106.06663025
_cell_angle_beta   106.06663025
_cell_angle_gamma   116.51870327
_symmetry_Int_Tables_number   1
_chemical_formula_structural   SmPO4
_chemical_formula_sum   'Sm2 P2 O8'
_cell_volume   151.35365549
_cell_formula_units_Z   2
loop_
 _symmetry_equiv_pos_site_id
 _symmetry_equiv_pos_as_xyz
  1  'x, y, z'
loop_
 _atom_site_type_symbol
 _atom_site_label
 _atom_site_symmetry_multiplicity
 _atom_site_fract_x
 _atom_site_fract_y
 _atom_site_fract_z
 _atom_site_occupancy
  Sm  Sm0  1  0.87500000  0.12500000  0.25000000  1
  Sm  Sm1  1  0.12500000  0.87500000  0.75000000  1
  P  P0  1  0.62500000  0.37500000  0.75000000  1
  P  P1  1  0.37500000  0.62500000  0.25000000  1
  O  O0  1  0.64241263  0.22004815  0.92236448  1
  O  O1  1  0.22004815  0.64241263  0.42236448  1
  O  O2  1  0.22004815  0.29768167  0.07763552  1
  O  O3  1  0.29768167  0.22004815  0.57763552  1
  O  O4  1  0.35758837  0.77995185  0.07763552  1
  O  O5  1  0.77995185  0.35758837  0.57763552  1
  O  O6  1  0.77995185  0.70231833  0.92236448  1
  O  O7  1  0.70231833  0.77995185  0.42236448  1
loop_
_geom_bond_atom_site_label_1
_geom_bond_atom_site_label_2
_geom_bond_distance
_geom_bond_site_symmetry_2
O0 P0 1.539471 1_555
O0 Sm0 2.373082 1_556
O0 Sm1 2.440331 1_545
O1 P1 1.539471 1_555
O1 Sm1 2.373082 1_555
O1 Sm0 2.440331 1_455
O2 P1 1.539480 1_555
O2 Sm1 2.373074 1_544
O2 Sm0 2.440329 1_455
O3 P0 1.539480 1_555
O3 Sm0 2.373074 1_455
O3 Sm1 2.440329 1_545
O4 P1 1.539470 1_555
O4 Sm1 2.373085 1_554
O4 Sm0 2.440327 1_565
O5 P0 1.539470 1_555
O5 Sm0 2.373085 1_555
O5 Sm1 2.440327 1_655
O6 P0 1.539480 1_555
O6 Sm0 2.373074 1_566
O6 Sm1 2.440329 1_655
O7 P1 1.539480 1_555
O7 Sm1 2.373074 1_655
O7 Sm0 2.440329 1_565
