# generated using pymatgen
data_BaMg6V
_symmetry_space_group_name_H-M   'P 1'
_cell_length_a   5.28318300
_cell_length_b   6.77251100
_cell_length_c   11.68796000
_cell_angle_alpha   90.00000000
_cell_angle_beta   90.00000000
_cell_angle_gamma   90.00000000
_symmetry_Int_Tables_number   1
_chemical_formula_structural   BaMg6V
_chemical_formula_sum   'Ba2 Mg12 V2'
_cell_volume   418.20005910
_cell_formula_units_Z   2
loop_
 _symmetry_equiv_pos_site_id
 _symmetry_equiv_pos_as_xyz
  1  'x, y, z'
loop_
 _atom_site_type_symbol
 _atom_site_label
 _atom_site_symmetry_multiplicity
 _atom_site_fract_x
 _atom_site_fract_y
 _atom_site_fract_z
 _atom_site_occupancy
  Ba  Ba0  1  0.50000000  0.50000000  0.83380300  1
  Ba  Ba1  1  0.50000000  0.00000000  0.33380300  1
  Mg  Mg0  1  0.50000000  0.24568700  0.08128500  1
  Mg  Mg1  1  0.50000000  0.75431300  0.08128500  1
  Mg  Mg2  1  0.00000000  0.22110800  0.91849500  1
  Mg  Mg3  1  0.00000000  0.77889200  0.91849500  1
  Mg  Mg4  1  0.00000000  0.50000000  0.17545600  1
  Mg  Mg5  1  0.00000000  0.50000000  0.65342200  1
  Mg  Mg6  1  0.50000000  0.74568700  0.58128500  1
  Mg  Mg7  1  0.50000000  0.25431300  0.58128500  1
  Mg  Mg8  1  0.00000000  0.72110800  0.41849500  1
  Mg  Mg9  1  0.00000000  0.27889200  0.41849500  1
  Mg  Mg10  1  0.00000000  0.00000000  0.67545600  1
  Mg  Mg11  1  0.00000000  0.00000000  0.15342200  1
  V  V0  1  0.50000000  0.50000000  0.33776200  1
  V  V1  1  0.50000000  0.00000000  0.83776200  1
loop_
_geom_bond_atom_site_label_1
_geom_bond_atom_site_label_2
_geom_bond_distance
_geom_bond_site_symmetry_2
Ba0 Mg1 3.366504 1_556
Ba0 Mg0 3.366504 1_556
Ba0 Mg5 3.379774 1_555
Ba0 Mg5 3.379774 1_655
Ba0 V1 3.386572 1_565
Ba0 V1 3.386572 1_555
Ba0 Mg6 3.388142 1_555
Ba0 Mg7 3.388142 1_555
Ba0 Mg3 3.394911 1_555
Ba0 Mg2 3.394911 1_555
Ba0 Mg2 3.394911 1_655
Ba0 Mg3 3.394911 1_655
Ba1 Mg6 3.366504 1_545
Ba1 Mg7 3.366504 1_555
Ba1 Mg11 3.379774 1_555
Ba1 Mg11 3.379774 1_655
Ba1 V0 3.386572 1_555
Ba1 V0 3.386572 1_545
Ba1 Mg0 3.388142 1_555
Ba1 Mg1 3.388142 1_545
Ba1 Mg9 3.394911 1_555
Ba1 Mg9 3.394911 1_655
Ba1 Mg8 3.394911 1_645
Ba1 Mg8 3.394911 1_545
Mg0 Mg11 3.233806 1_655
Mg0 Mg11 3.233806 1_555
Mg0 Mg2 3.259742 1_654
Mg0 Mg2 3.259742 1_554
Mg0 V1 3.296964 1_554
Mg0 Mg1 3.327836 1_545
Mg0 Mg4 3.340048 1_555
Mg0 Mg4 3.340048 1_655
Mg0 Mg1 3.444675 1_555
Mg0 V0 3.457255 1_555
Mg1 Mg11 3.233806 1_565
Mg1 Mg11 3.233806 1_665
Mg1 Mg3 3.259742 1_654
Mg1 Mg3 3.259742 1_554
Mg1 V1 3.296964 1_564
Mg1 Mg4 3.340048 1_555
Mg1 Mg4 3.340048 1_655
Mg1 V0 3.457255 1_555
Mg2 Mg3 2.994913 1_545
Mg2 V1 3.179744 1_455
Mg2 V1 3.179744 1_555
Mg3 V1 3.179744 1_565
Mg3 V1 3.179744 1_465
Mg4 Mg8 3.211161 1_555
Mg4 Mg9 3.211161 1_555
Mg4 V0 3.252186 1_555
Mg4 V0 3.252186 1_455
Mg5 Mg8 3.127601 1_555
Mg5 Mg9 3.127601 1_555
Mg5 Mg7 3.233806 1_555
Mg5 Mg6 3.233806 1_555
Mg5 Mg6 3.233806 1_455
Mg5 Mg7 3.233806 1_455
Mg6 Mg8 3.259742 1_555
Mg6 Mg8 3.259742 1_655
Mg6 V0 3.296964 1_555
Mg6 Mg7 3.327836 1_555
Mg6 Mg7 3.444675 1_565
Mg6 V1 3.457255 1_565
Mg7 Mg9 3.259742 1_555
Mg7 Mg9 3.259742 1_655
Mg7 V0 3.296964 1_555
Mg7 V1 3.457255 1_555
Mg8 Mg9 2.994913 1_555
Mg8 V0 3.179744 1_555
Mg8 V0 3.179744 1_455
Mg9 V0 3.179744 1_555
Mg9 V0 3.179744 1_455
Mg10 Mg2 3.211161 1_555
Mg10 Mg3 3.211161 1_545
Mg10 V1 3.252186 1_555
Mg10 V1 3.252186 1_455
Mg10 Mg7 3.340048 1_555
Mg10 Mg6 3.340048 1_445
Mg10 Mg6 3.340048 1_545
Mg10 Mg7 3.340048 1_455
Mg10 Mg5 3.396034 1_545
Mg10 Mg5 3.396034 1_555
Mg11 Mg2 3.127601 1_554
Mg11 Mg3 3.127601 1_544
Mg11 Mg4 3.396034 1_555
Mg11 Mg4 3.396034 1_545
