# generated using pymatgen
data_Ce2In8Pd
_symmetry_space_group_name_H-M   'P 1'
_cell_length_a   4.73317404
_cell_length_b   4.73317404
_cell_length_c   12.19757280
_cell_angle_alpha   90.00000000
_cell_angle_beta   90.00000000
_cell_angle_gamma   90.00000000
_symmetry_Int_Tables_number   1
_chemical_formula_structural   Ce2In8Pd
_chemical_formula_sum   'Ce2 In8 Pd1'
_cell_volume   273.26144881
_cell_formula_units_Z   1
loop_
 _symmetry_equiv_pos_site_id
 _symmetry_equiv_pos_as_xyz
  1  'x, y, z'
loop_
 _atom_site_type_symbol
 _atom_site_label
 _atom_site_symmetry_multiplicity
 _atom_site_fract_x
 _atom_site_fract_y
 _atom_site_fract_z
 _atom_site_occupancy
  Ce  Ce0  1  -0.00000000  0.00000000  0.69103848  1
  Ce  Ce1  1  0.00000000  -0.00000000  0.30896152  1
  In  In0  1  0.50000000  -0.00000000  0.87739581  1
  In  In1  1  0.00000000  0.50000000  0.87739581  1
  In  In2  1  0.50000000  0.00000000  0.12260419  1
  In  In3  1  -0.00000000  0.50000000  0.12260419  1
  In  In4  1  0.50000000  0.50000000  0.69462696  1
  In  In5  1  0.50000000  0.50000000  0.30537304  1
  In  In6  1  0.50000000  0.00000000  0.50000000  1
  In  In7  1  0.00000000  0.50000000  0.50000000  1
  Pd  Pd0  1  0.00000000  0.00000000  0.00000000  1
loop_
_geom_bond_atom_site_label_1
_geom_bond_atom_site_label_2
_geom_bond_distance
_geom_bond_site_symmetry_2
Ce0 In0 3.281425 1_455
Ce0 In0 3.281425 1_555
Ce0 In1 3.281425 1_555
Ce0 In1 3.281425 1_545
Ce0 In7 3.321234 1_555
Ce0 In7 3.321234 1_545
Ce0 In6 3.321234 1_455
Ce0 In6 3.321234 1_555
Ce0 In4 3.347146 1_545
Ce0 In4 3.347146 1_555
Ce0 In4 3.347146 1_445
Ce0 In4 3.347146 1_455
Ce1 In3 3.281425 1_545
Ce1 In3 3.281425 1_555
Ce1 In2 3.281425 1_555
Ce1 In2 3.281425 1_455
Ce1 In7 3.321234 1_555
Ce1 In7 3.321234 1_545
Ce1 In6 3.321234 1_455
Ce1 In6 3.321234 1_555
Ce1 In5 3.347146 1_555
Ce1 In5 3.347146 1_445
Ce1 In5 3.347146 1_455
Ce1 In5 3.347146 1_545
In0 Pd0 2.799496 1_656
In0 Pd0 2.799496 1_556
In0 In2 2.990947 1_556
In0 In4 3.251257 1_555
In0 In4 3.251257 1_545
In0 In1 3.346859 1_645
In0 In1 3.346859 1_555
In0 In1 3.346859 1_545
In0 In1 3.346859 1_655
In1 Pd0 2.799496 1_566
In1 Pd0 2.799496 1_556
In1 In3 2.990947 1_556
In1 In4 3.251257 1_455
In1 In4 3.251257 1_555
In2 Pd0 2.799496 1_655
In2 Pd0 2.799496 1_555
In2 In5 3.251257 1_555
In2 In5 3.251257 1_545
In2 In3 3.346859 1_655
In2 In3 3.346859 1_645
In2 In3 3.346859 1_555
In2 In3 3.346859 1_545
In3 Pd0 2.799496 1_565
In3 Pd0 2.799496 1_555
In3 In5 3.251257 1_555
In3 In5 3.251257 1_455
In4 In6 3.352089 1_565
In4 In7 3.352089 1_655
In4 In7 3.352089 1_555
In4 In6 3.352089 1_555
In5 In6 3.352089 1_565
In5 In7 3.352089 1_655
In5 In7 3.352089 1_555
In5 In6 3.352089 1_555
In6 In7 3.346859 1_645
In6 In7 3.346859 1_555
In6 In7 3.346859 1_655
In6 In7 3.346859 1_545
