# generated using pymatgen
data_LiPr2Zn2(PO)2
_symmetry_space_group_name_H-M   'P 1'
_cell_length_a   10.95213064
_cell_length_b   10.95213019
_cell_length_c   10.95213076
_cell_angle_alpha   21.15702732
_cell_angle_beta   21.15703057
_cell_angle_gamma   21.15703137
_symmetry_Int_Tables_number   1
_chemical_formula_structural   LiPr2Zn2(PO)2
_chemical_formula_sum   'Li1 Pr2 Zn2 P2 O2'
_cell_volume   149.88778745
_cell_formula_units_Z   1
loop_
 _symmetry_equiv_pos_site_id
 _symmetry_equiv_pos_as_xyz
  1  'x, y, z'
loop_
 _atom_site_type_symbol
 _atom_site_label
 _atom_site_symmetry_multiplicity
 _atom_site_fract_x
 _atom_site_fract_y
 _atom_site_fract_z
 _atom_site_occupancy
  Li  Li0  1  0.00000000  0.00000000  0.00000000  1
  Pr  Pr0  1  0.61110800  0.61110800  0.61110800  1
  Pr  Pr1  1  0.38889200  0.38889200  0.38889200  1
  Zn  Zn0  1  0.19571000  0.19571000  0.19571000  1
  Zn  Zn1  1  0.80429000  0.80429000  0.80429000  1
  P  P0  1  0.11629500  0.11629500  0.11629500  1
  P  P1  1  0.88370500  0.88370500  0.88370500  1
  O  O0  1  0.69223700  0.69223700  0.69223700  1
  O  O1  1  0.30776300  0.30776300  0.30776300  1
loop_
_geom_bond_atom_site_label_1
_geom_bond_atom_site_label_2
_geom_bond_distance
_geom_bond_site_symmetry_2
Li0 O0 2.462573 1_454
Li0 O1 2.462573 1_545
Li0 O1 2.462573 1_554
Li0 O0 2.462573 1_445
Li0 O1 2.462574 1_455
Li0 O0 2.462574 1_544
P0 Zn1 2.420568 1_454
P0 Zn1 2.420568 1_445
P0 Zn1 2.420568 1_544
P0 Zn0 2.549990 1_555
P0 Pr1 3.032080 1_545
P0 Pr1 3.032080 1_554
P0 Pr1 3.032080 1_455
P1 Zn0 2.420568 1_656
P1 Zn0 2.420568 1_665
P1 Zn0 2.420568 1_566
P1 Zn1 2.549990 1_555
P1 Pr0 3.032080 1_565
P1 Pr0 3.032080 1_556
P1 Pr0 3.032080 1_655
O0 Pr1 2.513432 1_565
O0 Pr1 2.513432 1_556
O0 Pr1 2.513433 1_655
O0 Pr0 2.605026 1_555
O1 Pr0 2.513432 1_545
O1 Pr0 2.513432 1_554
O1 Pr0 2.513433 1_455
O1 Pr1 2.605026 1_555
