# generated using pymatgen
data_BaTb2DyO6
_symmetry_space_group_name_H-M   'P 1'
_cell_length_a   5.95750776
_cell_length_b   6.17285106
_cell_length_c   8.63340536
_cell_angle_alpha   90.00000000
_cell_angle_beta   90.00000000
_cell_angle_gamma   88.84547775
_symmetry_Int_Tables_number   1
_chemical_formula_structural   BaTb2DyO6
_chemical_formula_sum   'Ba2 Tb4 Dy2 O12'
_cell_volume   317.42737146
_cell_formula_units_Z   2
loop_
 _symmetry_equiv_pos_site_id
 _symmetry_equiv_pos_as_xyz
  1  'x, y, z'
loop_
 _atom_site_type_symbol
 _atom_site_label
 _atom_site_symmetry_multiplicity
 _atom_site_fract_x
 _atom_site_fract_y
 _atom_site_fract_z
 _atom_site_occupancy
  Ba  Ba0  1  0.00887496  0.05208783  0.75000000  1
  Ba  Ba1  1  0.99112504  0.94791217  0.25000000  1
  Tb  Tb0  1  0.00000000  0.50000000  0.00000000  1
  Tb  Tb1  1  0.50000000  0.00000000  0.00000000  1
  Tb  Tb2  1  0.00000000  0.50000000  0.50000000  1
  Tb  Tb3  1  0.50000000  0.00000000  0.50000000  1
  Dy  Dy0  1  0.53507057  0.44423350  0.25000000  1
  Dy  Dy1  1  0.46492943  0.55576650  0.75000000  1
  O  O0  1  0.40585928  0.09156998  0.25000000  1
  O  O1  1  0.83775157  0.47721542  0.75000000  1
  O  O2  1  0.59414072  0.90843002  0.75000000  1
  O  O3  1  0.16224843  0.52278458  0.25000000  1
  O  O4  1  0.21145618  0.78376978  0.93632274  1
  O  O5  1  0.68610944  0.68665258  0.08037713  1
  O  O6  1  0.78854382  0.21623022  0.43632274  1
  O  O7  1  0.31389056  0.31334742  0.58037713  1
  O  O8  1  0.78854382  0.21623022  0.06367726  1
  O  O9  1  0.31389056  0.31334742  0.91962287  1
  O  O10  1  0.21145618  0.78376978  0.56367726  1
  O  O11  1  0.68610944  0.68665258  0.41962287  1
loop_
_geom_bond_atom_site_label_1
_geom_bond_atom_site_label_2
_geom_bond_distance
_geom_bond_site_symmetry_2
Ba0 O10 2.589766 1_545
Ba0 O4 2.589766 1_545
Ba0 O2 2.641862 1_445
Ba0 O1 2.796103 1_455
Ba0 O7 2.857526 1_555
Ba0 O9 2.857526 1_555
Ba0 O8 3.166992 1_456
Ba0 O6 3.166992 1_455
Ba1 O6 2.589766 1_565
Ba1 O8 2.589766 1_565
Ba1 O0 2.641862 1_665
Ba1 O3 2.796103 1_655
Ba1 O11 2.857526 1_555
Ba1 O5 2.857526 1_555
Ba1 O4 3.166992 1_654
Ba1 O10 3.166992 1_655
Dy0 O3 2.263837 1_555
Dy0 O11 2.290792 1_555
Dy0 O5 2.290792 1_555
Dy0 O0 2.323607 1_555
Dy0 O6 2.600599 1_555
Dy0 O8 2.600599 1_555
Dy1 O1 2.263837 1_555
Dy1 O9 2.290792 1_555
Dy1 O7 2.290792 1_555
Dy1 O2 2.323607 1_555
Dy1 O10 2.600599 1_555
Dy1 O4 2.600599 1_555
O0 Tb3 2.297772 1_555
O0 Tb1 2.297772 1_555
O1 Tb2 2.370242 1_655
O1 Tb0 2.370242 1_656
O2 Tb3 2.297772 1_565
O2 Tb1 2.297772 1_566
O3 Tb0 2.370242 1_555
O3 Tb2 2.370242 1_555
O4 Tb0 2.246435 1_556
O4 Tb1 2.265222 1_566
O5 Tb0 2.284545 1_655
O5 Tb1 2.316409 1_565
O6 Tb2 2.246435 1_655
O6 Tb3 2.265222 1_555
O7 Tb2 2.284545 1_555
O7 Tb3 2.316409 1_555
O8 Tb0 2.246435 1_655
O8 Tb1 2.265222 1_555
O9 Tb0 2.284545 1_556
O9 Tb1 2.316409 1_556
O10 Tb2 2.246435 1_555
O10 Tb3 2.265222 1_565
O11 Tb2 2.284545 1_655
O11 Tb3 2.316409 1_565
