# generated using pymatgen
data_NdTa3O9
_symmetry_space_group_name_H-M   'P 1'
_cell_length_a   12.60910000
_cell_length_b   11.81214200
_cell_length_c   14.86387889
_cell_angle_alpha   57.99510343
_cell_angle_beta   90.00000000
_cell_angle_gamma   90.00000000
_symmetry_Int_Tables_number   1
_chemical_formula_structural   NdTa3O9
_chemical_formula_sum   'Nd10 Ta30 O90'
_cell_volume   1877.33680867
_cell_formula_units_Z   10
loop_
 _symmetry_equiv_pos_site_id
 _symmetry_equiv_pos_as_xyz
  1  'x, y, z'
loop_
 _atom_site_type_symbol
 _atom_site_label
 _atom_site_symmetry_multiplicity
 _atom_site_fract_x
 _atom_site_fract_y
 _atom_site_fract_z
 _atom_site_occupancy
  Nd  Nd0  1  0.50164500  0.33121900  0.50115100  1
  Nd  Nd1  1  0.50000000  0.00000000  0.50000000  1
  Nd  Nd2  1  0.49835500  0.66878100  0.49884900  1
  Nd  Nd3  1  0.00164500  0.66878100  0.99884900  1
  Nd  Nd4  1  0.99835500  0.33121900  0.00115100  1
  Nd  Nd5  1  0.00000000  0.00000000  0.00000000  1
  Nd  Nd6  1  0.14585700  0.76525000  0.35422300  1
  Nd  Nd7  1  0.85414300  0.23475000  0.64577700  1
  Nd  Nd8  1  0.64585700  0.23475000  0.14577700  1
  Nd  Nd9  1  0.35414300  0.76525000  0.85422300  1
  Ta  Ta0  1  0.21244700  0.78065700  0.07954800  1
  Ta  Ta1  1  0.21028900  0.44520600  0.08084500  1
  Ta  Ta2  1  0.21058600  0.11375500  0.08041200  1
  Ta  Ta3  1  0.78755300  0.21934300  0.92045200  1
  Ta  Ta4  1  0.78941400  0.88624500  0.91958800  1
  Ta  Ta5  1  0.78971100  0.55479400  0.91915500  1
  Ta  Ta6  1  0.92025000  0.69234300  0.21000100  1
  Ta  Ta7  1  0.91909200  0.35985900  0.21093000  1
  Ta  Ta8  1  0.91980600  0.02428700  0.21270400  1
  Ta  Ta9  1  0.07975000  0.30765700  0.78999900  1
  Ta  Ta10  1  0.08019400  0.97571300  0.78729600  1
  Ta  Ta11  1  0.08090800  0.64014100  0.78907000  1
  Ta  Ta12  1  0.41909200  0.64014100  0.28907000  1
  Ta  Ta13  1  0.42025000  0.30765700  0.28999900  1
  Ta  Ta14  1  0.41980600  0.97571300  0.28729600  1
  Ta  Ta15  1  0.58090800  0.35985900  0.71093000  1
  Ta  Ta16  1  0.58019400  0.02428700  0.71270400  1
  Ta  Ta17  1  0.57975000  0.69234300  0.71000100  1
  Ta  Ta18  1  0.71028900  0.55479400  0.41915500  1
  Ta  Ta19  1  0.71244700  0.21934300  0.42045200  1
  Ta  Ta20  1  0.71058600  0.88624500  0.41958800  1
  Ta  Ta21  1  0.28971100  0.44520600  0.58084500  1
  Ta  Ta22  1  0.28941400  0.11375500  0.58041200  1
  Ta  Ta23  1  0.28755300  0.78065700  0.57954800  1
  Ta  Ta24  1  0.50455700  0.83389700  0.00444600  1
  Ta  Ta25  1  0.50000000  0.50000000  0.00000000  1
  Ta  Ta26  1  0.49544300  0.16610300  0.99555400  1
  Ta  Ta27  1  0.00000000  0.50000000  0.50000000  1
  Ta  Ta28  1  0.00455700  0.16610300  0.49555400  1
  Ta  Ta29  1  0.99544300  0.83389700  0.50444600  1
  O  O0  1  0.19075900  0.61800100  0.07383800  1
  O  O1  1  0.19736400  0.28329400  0.07530000  1
  O  O2  1  0.19149700  0.94862700  0.07626900  1
  O  O3  1  0.80850300  0.05137300  0.92373100  1
  O  O4  1  0.80263600  0.71670600  0.92470000  1
  O  O5  1  0.80924100  0.38199900  0.92616200  1
  O  O6  1  0.92294700  0.53643900  0.19506500  1
  O  O7  1  0.92418100  0.20497300  0.19128800  1
  O  O8  1  0.92728500  0.87203400  0.19248000  1
  O  O9  1  0.07271500  0.12796600  0.80752000  1
  O  O10  1  0.07581900  0.79502700  0.80871200  1
  O  O11  1  0.07705300  0.46356100  0.80493500  1
  O  O12  1  0.42294700  0.46356100  0.30493500  1
  O  O13  1  0.42728500  0.12796600  0.30752000  1
  O  O14  1  0.42418100  0.79502700  0.30871200  1
  O  O15  1  0.57581900  0.20497300  0.69128800  1
  O  O16  1  0.57271500  0.87203400  0.69248000  1
  O  O17  1  0.57705300  0.53643900  0.69506500  1
  O  O18  1  0.69075900  0.38199900  0.42616200  1
  O  O19  1  0.69149700  0.05137300  0.42373100  1
  O  O20  1  0.69736400  0.71670600  0.42470000  1
  O  O21  1  0.30263600  0.28329400  0.57530000  1
  O  O22  1  0.30850300  0.94862700  0.57626900  1
  O  O23  1  0.30924100  0.61800100  0.57383800  1
  O  O24  1  0.28896600  0.35954600  0.21126900  1
  O  O25  1  0.27546100  0.00056400  0.22512500  1
  O  O26  1  0.27478700  0.70025700  0.22306000  1
  O  O27  1  0.72521300  0.29974300  0.77694000  1
  O  O28  1  0.72453900  0.99943600  0.77487500  1
  O  O29  1  0.71103400  0.64045400  0.78873100  1
  O  O30  1  0.78896600  0.64045400  0.28873100  1
  O  O31  1  0.77478700  0.29974300  0.27694000  1
  O  O32  1  0.77546100  0.99943600  0.27487500  1
  O  O33  1  0.21103400  0.35954600  0.71126900  1
  O  O34  1  0.22453900  0.00056400  0.72512500  1
  O  O35  1  0.22521300  0.70025700  0.72306000  1
  O  O36  1  0.36638500  0.54083500  0.43928600  1
  O  O37  1  0.36767900  0.20454300  0.44012000  1
  O  O38  1  0.36995900  0.87607500  0.43953700  1
  O  O39  1  0.63361500  0.45916500  0.56071400  1
  O  O40  1  0.63004100  0.12392500  0.56046300  1
  O  O41  1  0.63232100  0.79545700  0.55988000  1
  O  O42  1  0.55951200  0.58969800  0.36825700  1
  O  O43  1  0.56080500  0.25553300  0.36904900  1
  O  O44  1  0.56011400  0.91810800  0.36756800  1
  O  O45  1  0.44048800  0.41030200  0.63174300  1
  O  O46  1  0.43988600  0.08189200  0.63243200  1
  O  O47  1  0.43919500  0.74446700  0.63095100  1
  O  O48  1  0.06080500  0.74446700  0.13095100  1
  O  O49  1  0.05951200  0.41030200  0.13174300  1
  O  O50  1  0.06011400  0.08189200  0.13243200  1
  O  O51  1  0.93919500  0.25553300  0.86904900  1
  O  O52  1  0.93988600  0.91810800  0.86756800  1
  O  O53  1  0.94048800  0.58969800  0.86825700  1
  O  O54  1  0.86638500  0.45916500  0.06071400  1
  O  O55  1  0.86995900  0.12392500  0.06046300  1
  O  O56  1  0.86767900  0.79545700  0.05988000  1
  O  O57  1  0.13004100  0.87607500  0.93953700  1
  O  O58  1  0.13361500  0.54083500  0.93928600  1
  O  O59  1  0.13232100  0.20454300  0.94012000  1
  O  O60  1  0.00907900  0.62225600  0.34056900  1
  O  O61  1  0.99104600  0.27280900  0.34501400  1
  O  O62  1  0.00915200  0.92113400  0.33960000  1
  O  O63  1  0.99092100  0.37774400  0.65943100  1
  O  O64  1  0.99084800  0.07886600  0.66040000  1
  O  O65  1  0.00895400  0.72719100  0.65498600  1
  O  O66  1  0.65455200  0.83679300  0.99079500  1
  O  O67  1  0.65892900  0.47883400  0.00779700  1
  O  O68  1  0.66085400  0.17932200  0.00973200  1
  O  O69  1  0.33914600  0.82067800  0.99026800  1
  O  O70  1  0.34107100  0.52116600  0.99220300  1
  O  O71  1  0.34544800  0.16320700  0.00920500  1
  O  O72  1  0.50907900  0.37774400  0.15943100  1
  O  O73  1  0.50915200  0.07886600  0.16040000  1
  O  O74  1  0.49104600  0.72719100  0.15498600  1
  O  O75  1  0.50895400  0.27280900  0.84501400  1
  O  O76  1  0.49084800  0.92113400  0.83960000  1
  O  O77  1  0.49092100  0.62225600  0.84056900  1
  O  O78  1  0.84107100  0.47883400  0.50779700  1
  O  O79  1  0.83914600  0.17932200  0.50973200  1
  O  O80  1  0.84544800  0.83679300  0.49079500  1
  O  O81  1  0.15892900  0.52116600  0.49220300  1
  O  O82  1  0.15455200  0.16320700  0.50920500  1
  O  O83  1  0.16085400  0.82067800  0.49026800  1
  O  O84  1  0.49566100  0.66764400  0.99636400  1
  O  O85  1  0.50433900  0.33235600  0.00363600  1
  O  O86  1  0.50000000  0.00000000  0.00000000  1
  O  O87  1  0.99566100  0.33235600  0.50363600  1
  O  O88  1  0.00000000  0.00000000  0.50000000  1
  O  O89  1  0.00433900  0.66764400  0.49636400  1
loop_
_geom_bond_atom_site_label_1
_geom_bond_atom_site_label_2
_geom_bond_distance
_geom_bond_site_symmetry_2
Nd0 O18 2.565076 1_555
Nd0 O15 2.572640 1_555
Nd0 O46 2.645013 1_555
Nd0 O43 2.659317 1_555
Nd0 O12 2.664927 1_555
Nd0 O40 2.665643 1_555
Nd0 O45 2.675290 1_555
Nd0 O21 2.677788 1_555
Nd0 O39 2.693540 1_555
Nd0 O37 2.711839 1_555
Nd0 O42 2.713570 1_555
Nd0 O36 2.733419 1_555
Nd1 O13 2.593609 1_555
Nd1 O16 2.593609 1_545
Nd1 O22 2.598948 1_545
Nd1 O19 2.598948 1_555
Nd1 O38 2.652082 1_545
Nd1 O40 2.652082 1_555
Nd1 O37 2.670950 1_555
Nd1 O41 2.670950 1_545
Nd1 O43 2.694367 1_555
Nd1 O47 2.694367 1_545
Nd1 O44 2.720918 1_545
Nd1 O46 2.720918 1_555
Nd2 O23 2.565076 1_555
Nd2 O14 2.572640 1_555
Nd2 O44 2.645013 1_555
Nd2 O47 2.659317 1_555
Nd2 O17 2.664927 1_555
Nd2 O38 2.665643 1_555
Nd2 O42 2.675290 1_555
Nd2 O20 2.677788 1_555
Nd2 O36 2.693540 1_555
Nd2 O41 2.711839 1_555
Nd2 O45 2.713570 1_555
Nd2 O39 2.733419 1_555
Nd3 O0 2.565076 1_556
Nd3 O10 2.572640 1_555
Nd3 O52 2.645013 1_455
Nd3 O48 2.659317 1_556
Nd3 O6 2.664927 1_456
Nd3 O57 2.665643 1_555
Nd3 O53 2.675290 1_455
Nd3 O4 2.677788 1_455
Nd3 O58 2.693540 1_555
Nd3 O56 2.711839 1_456
Nd3 O49 2.713570 1_556
Nd3 O54 2.733419 1_456
Nd4 O5 2.565076 1_554
Nd4 O7 2.572640 1_555
Nd4 O50 2.645013 1_655
Nd4 O51 2.659317 1_554
Nd4 O11 2.664927 1_654
Nd4 O55 2.665643 1_555
Nd4 O49 2.675290 1_655
Nd4 O1 2.677788 1_655
Nd4 O54 2.693540 1_555
Nd4 O59 2.711839 1_654
Nd4 O53 2.713570 1_554
Nd4 O58 2.733419 1_654
Nd5 O8 2.593609 1_445
Nd5 O9 2.593609 1_554
Nd5 O2 2.598948 1_545
Nd5 O3 2.598948 1_454
Nd5 O55 2.652082 1_455
Nd5 O57 2.652082 1_544
Nd5 O59 2.670950 1_554
Nd5 O56 2.670950 1_445
Nd5 O51 2.694367 1_454
Nd5 O48 2.694367 1_545
Nd5 O52 2.720918 1_444
Nd5 O50 2.720918 1_555
Nd6 O83 2.440677 1_555
Nd6 O62 2.446370 1_555
Nd6 O60 2.496378 1_555
Nd6 O81 2.505636 1_555
Nd6 O89 2.528870 1_555
Nd6 O25 2.902599 1_565
Nd6 O26 2.935923 1_555
Nd7 O79 2.440677 1_555
Nd7 O64 2.446370 1_555
Nd7 O63 2.496378 1_555
Nd7 O78 2.505636 1_555
Nd7 O87 2.528870 1_555
Nd7 O28 2.902599 1_545
Nd7 O27 2.935923 1_555
Nd8 O68 2.440677 1_555
Nd8 O73 2.446370 1_555
Nd8 O72 2.496378 1_555
Nd8 O67 2.505636 1_555
Nd8 O85 2.528870 1_555
Nd8 O32 2.902599 1_545
Nd8 O31 2.935923 1_555
Nd9 O69 2.440677 1_555
Nd9 O76 2.446370 1_555
Nd9 O77 2.496378 1_555
Nd9 O70 2.505636 1_555
Nd9 O84 2.528870 1_555
Nd9 O34 2.902599 1_565
Nd9 O35 2.935923 1_555
O0 Ta0 1.986527 1_555
O0 Ta1 2.003038 1_555
O1 Ta1 1.964230 1_555
O1 Ta2 1.970471 1_555
O2 Ta0 1.976423 1_555
O2 Ta2 1.998388 1_565
O3 Ta3 1.976423 1_555
O3 Ta4 1.998388 1_545
O4 Ta5 1.964230 1_555
O4 Ta4 1.970471 1_555
O5 Ta3 1.986527 1_555
O5 Ta5 2.003038 1_555
O6 Ta6 1.968540 1_555
O6 Ta7 1.971578 1_555
O7 Ta8 1.984795 1_555
O7 Ta7 2.000685 1_555
O8 Ta8 1.976531 1_565
O8 Ta6 1.998730 1_555
O9 Ta10 1.976531 1_545
O9 Ta9 1.998730 1_555
O10 Ta10 1.984795 1_555
O10 Ta11 2.000685 1_555
O11 Ta9 1.968540 1_555
O11 Ta11 1.971578 1_555
O12 Ta13 1.968540 1_555
O12 Ta12 1.971578 1_555
O13 Ta14 1.976531 1_545
O13 Ta13 1.998730 1_555
O14 Ta14 1.984795 1_555
O14 Ta12 2.000685 1_555
O15 Ta16 1.984795 1_555
O15 Ta15 2.000685 1_555
O16 Ta16 1.976531 1_565
O16 Ta17 1.998730 1_555
O17 Ta17 1.968540 1_555
O17 Ta15 1.971578 1_555
O18 Ta19 1.986527 1_555
O18 Ta18 2.003038 1_555
O19 Ta19 1.976423 1_555
O19 Ta20 1.998388 1_545
O20 Ta18 1.964230 1_555
O20 Ta20 1.970471 1_555
O21 Ta21 1.964230 1_555
O21 Ta22 1.970471 1_555
O22 Ta23 1.976423 1_555
O22 Ta22 1.998388 1_565
O23 Ta23 1.986527 1_555
O23 Ta21 2.003038 1_555
O24 Ta1 1.920143 1_555
O24 Ta13 1.930050 1_555
O25 Ta14 1.991285 1_545
O25 Ta2 2.008763 1_555
O26 Ta0 1.980593 1_555
O26 Ta12 2.009774 1_555
O27 Ta3 1.980593 1_555
O27 Ta15 2.009774 1_555
O28 Ta16 1.991285 1_565
O28 Ta4 2.008763 1_555
O29 Ta5 1.920143 1_555
O29 Ta17 1.930050 1_555
O30 Ta18 1.920143 1_555
O30 Ta6 1.930050 1_555
O31 Ta19 1.980593 1_555
O31 Ta7 2.009774 1_555
O32 Ta8 1.991285 1_565
O32 Ta20 2.008763 1_555
O33 Ta21 1.920143 1_555
O33 Ta9 1.930050 1_555
O34 Ta10 1.991285 1_545
O34 Ta22 2.008763 1_555
O35 Ta23 1.980593 1_555
O35 Ta11 2.009774 1_555
O36 Ta12 2.006689 1_555
O36 Ta21 2.029434 1_555
O37 Ta13 2.005277 1_555
O37 Ta22 2.025321 1_555
O38 Ta14 2.019374 1_555
O38 Ta23 2.048097 1_555
O39 Ta15 2.006689 1_555
O39 Ta18 2.029434 1_555
O40 Ta16 2.019374 1_555
O40 Ta19 2.048097 1_555
O41 Ta17 2.005277 1_555
O41 Ta20 2.025321 1_555
O42 Ta18 2.006522 1_555
O42 Ta12 2.032719 1_555
O43 Ta19 2.018987 1_555
O43 Ta13 2.033175 1_555
O44 Ta20 2.007700 1_555
O44 Ta14 2.038618 1_555
O45 Ta21 2.006522 1_555
O45 Ta15 2.032719 1_555
O46 Ta22 2.007700 1_555
O46 Ta16 2.038618 1_555
O47 Ta23 2.018987 1_555
O47 Ta17 2.033175 1_555
O48 Ta0 2.018987 1_555
O48 Ta6 2.033175 1_455
O49 Ta1 2.006522 1_555
O49 Ta7 2.032719 1_455
O50 Ta2 2.007700 1_555
O50 Ta8 2.038618 1_455
O51 Ta3 2.018987 1_555
O51 Ta9 2.033175 1_655
O52 Ta4 2.007700 1_555
O52 Ta10 2.038618 1_655
O53 Ta5 2.006522 1_555
O53 Ta11 2.032719 1_655
O54 Ta7 2.006689 1_555
O54 Ta5 2.029434 1_554
O55 Ta8 2.019374 1_555
O55 Ta3 2.048097 1_554
O56 Ta6 2.005277 1_555
O56 Ta4 2.025321 1_554
O57 Ta10 2.019374 1_555
O57 Ta0 2.048097 1_556
O58 Ta11 2.006689 1_555
O58 Ta1 2.029434 1_556
O59 Ta9 2.005277 1_555
O59 Ta2 2.025321 1_556
O60 Ta6 2.000831 1_455
O60 Ta27 2.021598 1_555
O61 Ta28 1.906587 1_655
O61 Ta7 1.918409 1_555
O62 Ta8 1.968594 1_465
O62 Ta29 2.102171 1_455
O63 Ta9 2.000831 1_655
O63 Ta27 2.021598 1_655
O64 Ta10 1.968594 1_645
O64 Ta28 2.102171 1_655
O65 Ta29 1.906587 1_455
O65 Ta11 1.918409 1_555
O66 Ta24 1.900528 1_556
O66 Ta4 1.922959 1_555
O67 Ta5 2.001819 1_554
O67 Ta25 2.015204 1_555
O68 Ta3 1.967679 1_554
O68 Ta26 2.110391 1_554
O69 Ta0 1.967679 1_556
O69 Ta24 2.110391 1_556
O70 Ta1 2.001819 1_556
O70 Ta25 2.015204 1_556
O71 Ta26 1.900528 1_554
O71 Ta2 1.922959 1_555
O72 Ta13 2.000831 1_555
O72 Ta25 2.021598 1_555
O73 Ta14 1.968594 1_545
O73 Ta26 2.102171 1_554
O74 Ta24 1.906587 1_555
O74 Ta12 1.918409 1_555
O75 Ta26 1.906587 1_555
O75 Ta15 1.918409 1_555
O76 Ta16 1.968594 1_565
O76 Ta24 2.102171 1_556
O77 Ta17 2.000831 1_555
O77 Ta25 2.021598 1_556
O78 Ta18 2.001819 1_555
O78 Ta27 2.015204 1_655
O79 Ta19 1.967679 1_555
O79 Ta28 2.110391 1_655
O80 Ta29 1.900528 1_555
O80 Ta20 1.922959 1_555
O81 Ta21 2.001819 1_555
O81 Ta27 2.015204 1_555
O82 Ta28 1.900528 1_555
O82 Ta22 1.922959 1_555
O83 Ta23 1.967679 1_555
O83 Ta29 2.110391 1_455
O84 Ta25 1.952896 1_556
O84 Ta24 2.033126 1_556
O85 Ta25 1.952896 1_555
O85 Ta26 2.033126 1_554
O86 Ta24 1.928679 1_545
O86 Ta26 1.928679 1_554
O87 Ta27 1.952896 1_655
O87 Ta28 2.033126 1_655
O88 Ta28 1.928679 1_555
O88 Ta29 1.928679 1_445
O89 Ta27 1.952896 1_555
O89 Ta29 2.033126 1_455
