# generated using pymatgen
data_CoS2N5ClO4
_symmetry_space_group_name_H-M   'P 1'
_cell_length_a   8.32457600
_cell_length_b   8.50035700
_cell_length_c   14.50298400
_cell_angle_alpha   90.00000000
_cell_angle_beta   90.00000000
_cell_angle_gamma   90.00000000
_symmetry_Int_Tables_number   1
_chemical_formula_structural   CoS2N5ClO4
_chemical_formula_sum   'Co4 S8 N20 Cl4 O16'
_cell_volume   1026.25823758
_cell_formula_units_Z   4
loop_
 _symmetry_equiv_pos_site_id
 _symmetry_equiv_pos_as_xyz
  1  'x, y, z'
loop_
 _atom_site_type_symbol
 _atom_site_label
 _atom_site_symmetry_multiplicity
 _atom_site_fract_x
 _atom_site_fract_y
 _atom_site_fract_z
 _atom_site_occupancy
  Co  Co0  1  0.25000000  0.17425200  0.67003500  1
  Co  Co1  1  0.25000000  0.32574800  0.17003500  1
  Co  Co2  1  0.75000000  0.82574800  0.32996500  1
  Co  Co3  1  0.75000000  0.67425200  0.82996500  1
  S  S0  1  0.25000000  0.52665400  0.63907500  1
  S  S1  1  0.25000000  0.97334600  0.13907500  1
  S  S2  1  0.75000000  0.47334600  0.36092500  1
  S  S3  1  0.75000000  0.02665400  0.86092500  1
  S  S4  1  0.25000000  0.51276200  0.89768700  1
  S  S5  1  0.25000000  0.98723800  0.39768700  1
  S  S6  1  0.75000000  0.48723800  0.10231300  1
  S  S7  1  0.75000000  0.01276200  0.60231300  1
  N  N0  1  0.25000000  0.01499500  0.61861300  1
  N  N1  1  0.25000000  0.48500500  0.11861300  1
  N  N2  1  0.75000000  0.98500500  0.38138700  1
  N  N3  1  0.75000000  0.51499500  0.88138700  1
  N  N4  1  0.38655900  0.17738800  0.76660500  1
  N  N5  1  0.11344100  0.32261200  0.26660500  1
  N  N6  1  0.88655900  0.82261200  0.23339500  1
  N  N7  1  0.61344100  0.67738800  0.73339500  1
  N  N8  1  0.61344100  0.82261200  0.23339500  1
  N  N9  1  0.88655900  0.67738800  0.73339500  1
  N  N10  1  0.11344100  0.17738800  0.76660500  1
  N  N11  1  0.38655900  0.32261200  0.26660500  1
  N  N12  1  0.16999300  0.34447700  0.58962000  1
  N  N13  1  0.33000700  0.15552300  0.08962000  1
  N  N14  1  0.66999300  0.65552300  0.41038000  1
  N  N15  1  0.83000700  0.84447700  0.91038000  1
  N  N16  1  0.83000700  0.65552300  0.41038000  1
  N  N17  1  0.66999300  0.84447700  0.91038000  1
  N  N18  1  0.33000700  0.34447700  0.58962000  1
  N  N19  1  0.16999300  0.15552300  0.08962000  1
  Cl  Cl0  1  0.75000000  0.58087700  0.65847800  1
  Cl  Cl1  1  0.75000000  0.91912300  0.15847800  1
  Cl  Cl2  1  0.25000000  0.41912300  0.34152200  1
  Cl  Cl3  1  0.25000000  0.08087700  0.84152200  1
  O  O0  1  0.25000000  0.66296500  0.85235900  1
  O  O1  1  0.25000000  0.83703500  0.35235900  1
  O  O2  1  0.75000000  0.33703500  0.14764100  1
  O  O3  1  0.75000000  0.16296500  0.64764100  1
  O  O4  1  0.39943200  0.43641300  0.91879100  1
  O  O5  1  0.10056800  0.06358700  0.41879100  1
  O  O6  1  0.89943200  0.56358700  0.08120900  1
  O  O7  1  0.60056800  0.93641300  0.58120900  1
  O  O8  1  0.60056800  0.56358700  0.08120900  1
  O  O9  1  0.89943200  0.93641300  0.58120900  1
  O  O10  1  0.10056800  0.43641300  0.91879100  1
  O  O11  1  0.39943200  0.06358700  0.41879100  1
  O  O12  1  0.75000000  0.14887100  0.93189800  1
  O  O13  1  0.75000000  0.35112900  0.43189800  1
  O  O14  1  0.25000000  0.85112900  0.06810200  1
  O  O15  1  0.25000000  0.64887100  0.56810200  1
loop_
_geom_bond_atom_site_label_1
_geom_bond_atom_site_label_2
_geom_bond_distance
_geom_bond_site_symmetry_2
Co0 N0 1.545572 1_555
Co0 N4 1.804041 1_555
Co0 N10 1.804041 1_555
Co0 N18 1.974203 1_555
Co0 N12 1.974203 1_555
Co1 N1 1.545572 1_555
Co1 N5 1.804041 1_555
Co1 N11 1.804041 1_555
Co1 N19 1.974203 1_555
Co1 N13 1.974203 1_555
Co2 N2 1.545572 1_555
Co2 N6 1.804041 1_555
Co2 N8 1.804041 1_555
Co2 N16 1.974203 1_555
Co2 N14 1.974203 1_555
Co3 N3 1.545572 1_555
Co3 N7 1.804041 1_555
Co3 N9 1.804041 1_555
Co3 N15 1.974203 1_555
Co3 N17 1.974203 1_555
N12 N18 1.332049 1_555
N12 S0 1.831965 1_555
N13 N19 1.332049 1_555
N13 S1 1.831965 1_545
N14 N16 1.332049 1_555
N14 S2 1.831965 1_555
N15 N17 1.332049 1_555
N15 S3 1.831965 1_565
N16 S2 1.831965 1_555
N17 S3 1.831965 1_565
N18 S0 1.831965 1_555
N19 S1 1.831965 1_545
Cl0 N9 1.773655 1_555
Cl0 N7 1.773655 1_555
Cl1 N8 1.773655 1_555
Cl1 N6 1.773655 1_555
Cl2 N11 1.773655 1_555
Cl2 N5 1.773655 1_555
Cl3 N10 1.773655 1_555
Cl3 N4 1.773655 1_555
O0 S4 1.436081 1_555
O1 S5 1.436081 1_555
O2 S6 1.436081 1_555
O3 S7 1.436081 1_555
O4 S4 1.436072 1_555
O5 S5 1.436072 1_545
O6 S6 1.436072 1_555
O7 S7 1.436072 1_565
O8 S6 1.436072 1_555
O9 S7 1.436072 1_565
O10 S4 1.436072 1_555
O11 S5 1.436072 1_545
O12 S3 1.462460 1_555
O13 S2 1.462460 1_555
O14 S1 1.462460 1_555
O15 S0 1.462460 1_555
