# generated using pymatgen
data_LaFeAsO
_symmetry_space_group_name_H-M   'P 1'
_cell_length_a   4.13866566
_cell_length_b   8.25932388
_cell_length_c   9.15989866
_cell_angle_alpha   90.41190411
_cell_angle_beta   90.05959446
_cell_angle_gamma   89.97402905
_symmetry_Int_Tables_number   1
_chemical_formula_structural   LaFeAsO
_chemical_formula_sum   'La4 Fe4 As4 O4'
_cell_volume   313.10067804
_cell_formula_units_Z   4
loop_
 _symmetry_equiv_pos_site_id
 _symmetry_equiv_pos_as_xyz
  1  'x, y, z'
loop_
 _atom_site_type_symbol
 _atom_site_label
 _atom_site_symmetry_multiplicity
 _atom_site_fract_x
 _atom_site_fract_y
 _atom_site_fract_z
 _atom_site_occupancy
  La  La0  1  0.75072800  0.37357500  0.86953100  1
  La  La1  1  0.75002000  0.87401200  0.86790800  1
  La  La2  1  0.25081500  0.12546200  0.13117200  1
  La  La3  1  0.25017700  0.62624700  0.13122000  1
  Fe  Fe0  1  0.75091500  0.62610000  0.50067000  1
  Fe  Fe1  1  0.25134900  0.87016100  0.50186300  1
  Fe  Fe2  1  0.74204500  0.12712600  0.49846900  1
  Fe  Fe3  1  0.24263000  0.37304600  0.50050900  1
  As  As0  1  0.75292700  0.38277600  0.32912800  1
  As  As1  1  0.75235400  0.87884300  0.33099800  1
  As  As2  1  0.25305100  0.12080700  0.67169200  1
  As  As3  1  0.25219200  0.62167300  0.66732100  1
  O  O0  1  0.75013600  0.12518400  0.00097800  1
  O  O1  1  0.75025700  0.62523300  0.99941200  1
  O  O2  1  0.25013900  0.37469400  0.99981900  1
  O  O3  1  0.25026600  0.87506000  0.99931000  1
loop_
_geom_bond_atom_site_label_1
_geom_bond_atom_site_label_2
_geom_bond_distance
_geom_bond_site_symmetry_2
La0 O2 2.385609 1_655
La0 O0 2.386225 1_556
La0 O1 2.387487 1_555
La0 O2 2.391976 1_555
La1 O1 2.389255 1_555
La1 O3 2.393707 1_655
La1 O3 2.394104 1_555
La1 O0 2.398536 1_566
La2 O0 2.387009 1_555
La2 O3 2.387513 1_544
La2 O0 2.389731 1_455
La2 O2 2.391782 1_554
La3 O3 2.391398 1_554
La3 O2 2.393618 1_554
La3 O1 2.394410 1_454
La3 O1 2.397145 1_554
As0 Fe0 2.542154 1_555
As0 Fe3 2.563876 1_655
As0 Fe2 2.629415 1_555
As0 Fe3 2.634393 1_555
As0 La3 3.410152 1_655
As0 La3 3.420555 1_555
As0 La2 3.463954 1_655
As0 La2 3.473283 1_555
As1 Fe2 2.552454 1_565
As1 Fe1 2.591215 1_655
As1 Fe1 2.600494 1_555
As1 Fe0 2.611471 1_555
As1 La2 3.438079 1_665
As1 La2 3.442341 1_565
As1 La3 3.448945 1_655
As1 La3 3.458594 1_555
As2 Fe2 2.573717 1_555
As2 Fe1 2.580556 1_545
As2 Fe3 2.616778 1_555
As2 Fe2 2.643331 1_455
As2 La1 3.414210 1_545
As2 La1 3.432752 1_445
As2 La0 3.438990 1_555
As2 La0 3.451667 1_455
As3 Fe3 2.551069 1_555
As3 Fe1 2.560040 1_555
As3 Fe0 2.568906 1_555
As3 Fe0 2.574829 1_455
As3 La1 3.450440 1_555
As3 La0 3.453913 1_555
As3 La1 3.462360 1_455
As3 La0 3.464579 1_455
