# generated using pymatgen
data_Ag2SO2
_symmetry_space_group_name_H-M   'P 1'
_cell_length_a   6.54328453
_cell_length_b   6.54328453
_cell_length_c   10.12848018
_cell_angle_alpha   104.23523425
_cell_angle_beta   104.23523425
_cell_angle_gamma   103.81113344
_symmetry_Int_Tables_number   1
_chemical_formula_structural   Ag2SO2
_chemical_formula_sum   'Ag8 S4 O8'
_cell_volume   386.21436754
_cell_formula_units_Z   4
loop_
 _symmetry_equiv_pos_site_id
 _symmetry_equiv_pos_as_xyz
  1  'x, y, z'
loop_
 _atom_site_type_symbol
 _atom_site_label
 _atom_site_symmetry_multiplicity
 _atom_site_fract_x
 _atom_site_fract_y
 _atom_site_fract_z
 _atom_site_occupancy
  Ag  Ag0  1  0.44572000  0.18696400  0.71480800  1
  Ag  Ag1  1  0.26908800  0.52784400  0.71480800  1
  Ag  Ag2  1  0.81303600  0.55428000  0.28519200  1
  Ag  Ag3  1  0.80428000  0.56303600  0.78519200  1
  Ag  Ag4  1  0.47215600  0.73091200  0.28519200  1
  Ag  Ag5  1  0.98091200  0.22215600  0.78519200  1
  Ag  Ag6  1  0.43696400  0.19572000  0.21480800  1
  Ag  Ag7  1  0.77784400  0.01908800  0.21480800  1
  S  S0  1  0.62500000  0.87500000  0.75000000  1
  S  S1  1  0.12500000  0.87500000  0.75000000  1
  S  S2  1  0.12500000  0.37500000  0.25000000  1
  S  S3  1  0.12500000  0.87500000  0.25000000  1
  O  O0  1  0.68135700  0.94840800  0.91420800  1
  O  O1  1  0.23285000  0.96580000  0.91420800  1
  O  O2  1  0.05159200  0.31864300  0.08579200  1
  O  O3  1  0.56864300  0.80159200  0.58579200  1
  O  O4  1  0.03420000  0.76715000  0.08579200  1
  O  O5  1  0.01715000  0.78420000  0.58579200  1
  O  O6  1  0.19840800  0.43135700  0.41420800  1
  O  O7  1  0.21580000  0.98285000  0.41420800  1
loop_
_geom_bond_atom_site_label_1
_geom_bond_atom_site_label_2
_geom_bond_distance
_geom_bond_site_symmetry_2
Ag0 S0 2.639207 1_545
Ag0 S1 2.716296 1_545
Ag0 Ag1 2.746193 1_555
Ag0 Ag3 2.761558 1_555
Ag0 O7 2.846918 1_545
Ag1 S1 2.639207 1_555
Ag1 S0 2.716296 1_555
Ag1 Ag5 2.761558 1_455
Ag1 O6 2.846918 1_555
Ag2 S2 2.639207 1_655
Ag2 S3 2.716296 1_655
Ag2 Ag4 2.746193 1_555
Ag2 Ag6 2.761558 1_555
Ag2 O5 2.846918 1_655
Ag3 S0 2.639207 1_555
Ag3 S1 2.716296 1_655
Ag3 Ag5 2.746193 1_555
Ag3 O4 2.846918 1_656
Ag4 S3 2.639207 1_555
Ag4 S2 2.716296 1_555
Ag4 Ag7 2.761558 1_565
Ag4 O3 2.846918 1_555
Ag5 S1 2.639207 1_645
Ag5 S0 2.716296 1_545
Ag5 O2 2.846918 1_656
Ag6 S2 2.639207 1_555
Ag6 S3 2.716296 1_545
Ag6 Ag7 2.746193 1_555
Ag6 O1 2.846918 1_544
Ag7 S3 2.639207 1_645
Ag7 S2 2.716296 1_655
Ag7 O0 2.846918 1_544
O0 S0 1.534200 1_555
O1 S1 1.534199 1_555
O2 S2 1.534200 1_555
O3 S0 1.534200 1_555
O4 S3 1.534199 1_555
O5 S1 1.534199 1_555
O6 S2 1.534200 1_555
O7 S3 1.534199 1_555
