# generated using pymatgen
data_Ca4Al6MoO16
_symmetry_space_group_name_H-M   'P 1'
_cell_length_a   8.14805925
_cell_length_b   8.14805925
_cell_length_c   8.14805925
_cell_angle_alpha   110.08185277
_cell_angle_beta   110.08185277
_cell_angle_gamma   108.25673997
_symmetry_Int_Tables_number   1
_chemical_formula_structural   Ca4Al6MoO16
_chemical_formula_sum   'Ca4 Al6 Mo1 O16'
_cell_volume   416.28872744
_cell_formula_units_Z   1
loop_
 _symmetry_equiv_pos_site_id
 _symmetry_equiv_pos_as_xyz
  1  'x, y, z'
loop_
 _atom_site_type_symbol
 _atom_site_label
 _atom_site_symmetry_multiplicity
 _atom_site_fract_x
 _atom_site_fract_y
 _atom_site_fract_z
 _atom_site_occupancy
  Ca  Ca0  1  0.52579500  0.97888200  0.96813300  1
  Ca  Ca1  1  0.02111800  0.98925100  0.54691300  1
  Ca  Ca2  1  0.01074900  0.55766200  0.03186700  1
  Ca  Ca3  1  0.44233800  0.47420500  0.45308700  1
  Al  Al0  1  0.51733700  0.75742700  0.26386900  1
  Al  Al1  1  0.25000000  0.75000000  0.50000000  1
  Al  Al2  1  0.74653200  0.48266300  0.24009000  1
  Al  Al3  1  0.75000000  0.25000000  0.50000000  1
  Al  Al4  1  0.49355800  0.25346800  0.73613100  1
  Al  Al5  1  0.24257300  0.50644200  0.75991000  1
  Mo  Mo0  1  0.00000000  0.00000000  0.00000000  1
  O  O0  1  0.37449500  0.00446200  0.68103800  1
  O  O1  1  0.69348900  0.27787700  0.28255300  1
  O  O2  1  0.39789000  0.70846000  0.01352200  1
  O  O3  1  0.72212300  0.00467600  0.41561200  1
  O  O4  1  0.99553800  0.67657600  0.37003300  1
  O  O5  1  0.29154000  0.30506200  0.68943000  1
  O  O6  1  0.32342400  0.69345700  0.31896200  1
  O  O7  1  0.99532400  0.41093600  0.71744700  1
  O  O8  1  0.69493800  0.38436800  0.98647800  1
  O  O9  1  0.58906400  0.30651100  0.58438800  1
  O  O10  1  0.30654300  0.62550500  0.62996700  1
  O  O11  1  0.61563200  0.60211000  0.31057000  1
  O  O12  1  0.09170200  0.95274000  0.82784400  1
  O  O13  1  0.04726000  0.87510400  0.13896200  1
  O  O14  1  0.12489600  0.26385800  0.17215600  1
  O  O15  1  0.73614200  0.90829800  0.86103800  1
loop_
_geom_bond_atom_site_label_1
_geom_bond_atom_site_label_2
_geom_bond_distance
_geom_bond_site_symmetry_2
Ca0 O15 2.308629 1_555
Ca0 O2 2.337404 1_556
Ca0 O0 2.356017 1_565
Ca0 O1 2.364295 1_566
Ca0 O10 2.650047 1_555
Ca1 O12 2.308629 1_555
Ca1 O5 2.337404 1_565
Ca1 O4 2.356017 1_455
Ca1 O3 2.364295 1_465
Ca1 O0 2.650047 1_565
Ca2 O13 2.308629 1_555
Ca2 O8 2.337404 1_454
Ca2 O6 2.356017 1_555
Ca2 O7 2.364295 1_454
Ca2 O4 2.650047 1_455
Ca3 O14 2.308629 1_555
Ca3 O11 2.337404 1_555
Ca3 O10 2.356017 1_555
Ca3 O9 2.364295 1_555
Ca3 O6 2.650047 1_555
Al0 O6 1.761078 1_555
Al0 O2 1.761200 1_555
Al0 O3 1.771458 1_565
Al0 O11 1.773218 1_555
Al1 O6 1.748757 1_555
Al1 O4 1.748757 1_455
Al1 O0 1.748757 1_565
Al1 O10 1.748757 1_555
Al2 O4 1.761078 1_555
Al2 O11 1.761200 1_555
Al2 O1 1.771458 1_555
Al2 O8 1.773218 1_554
Al3 O1 1.784500 1_555
Al3 O7 1.784500 1_555
Al3 O9 1.784500 1_555
Al3 O3 1.784500 1_555
Al4 O0 1.761078 1_555
Al4 O8 1.761200 1_555
Al4 O9 1.771458 1_555
Al4 O5 1.773218 1_555
Al5 O10 1.761078 1_555
Al5 O5 1.761200 1_555
Al5 O7 1.771458 1_455
Al5 O2 1.773218 1_556
Mo0 O14 1.789792 1_555
Mo0 O12 1.789792 1_544
Mo0 O13 1.789792 1_545
Mo0 O15 1.789792 1_444
