# generated using pymatgen
data_CaMn8O13F3
_symmetry_space_group_name_H-M   'P 1'
_cell_length_a   7.17334717
_cell_length_b   5.84634463
_cell_length_c   6.85143308
_cell_angle_alpha   87.32348366
_cell_angle_beta   95.00904363
_cell_angle_gamma   80.31627749
_symmetry_Int_Tables_number   1
_chemical_formula_structural   CaMn8O13F3
_chemical_formula_sum   'Ca1 Mn8 O13 F3'
_cell_volume   281.60677600
_cell_formula_units_Z   1
loop_
 _symmetry_equiv_pos_site_id
 _symmetry_equiv_pos_as_xyz
  1  'x, y, z'
loop_
 _atom_site_type_symbol
 _atom_site_label
 _atom_site_symmetry_multiplicity
 _atom_site_fract_x
 _atom_site_fract_y
 _atom_site_fract_z
 _atom_site_occupancy
  Ca  Ca0  1  0.73689000  0.71204000  0.07052000  1
  Mn  Mn0  1  0.35229300  0.33068600  0.11936300  1
  Mn  Mn1  1  0.16274200  0.73503700  0.37463500  1
  Mn  Mn2  1  0.88275400  0.17284500  0.12649200  1
  Mn  Mn3  1  0.37153500  0.11131500  0.65746800  1
  Mn  Mn4  1  0.15191000  0.85758900  0.87869600  1
  Mn  Mn5  1  0.65595600  0.93453200  0.42775200  1
  Mn  Mn6  1  0.53161300  0.51422000  0.72223300  1
  Mn  Mn7  1  0.93564700  0.41447900  0.65613300  1
  O  O0  1  0.15919500  0.09128500  0.08618100  1
  O  O1  1  0.15133800  0.62473400  0.08900700  1
  O  O2  1  0.50705500  0.53866500  0.16350500  1
  O  O3  1  0.11904400  0.66082200  0.64806300  1
  O  O4  1  0.39580300  0.89253900  0.45944000  1
  O  O5  1  0.10833400  0.11387800  0.67598100  1
  O  O6  1  0.59150300  0.09911200  0.17158000  1
  O  O7  1  0.41963500  0.81577600  0.85103700  1
  O  O8  1  0.60569800  0.20901900  0.60633400  1
  O  O9  1  0.90365800  0.90572100  0.31689400  1
  O  O10  1  0.36504600  0.34346000  0.84825800  1
  O  O11  1  0.71977000  0.66248200  0.60853200  1
  O  O12  1  0.81976900  0.39334800  0.90731600  1
  F  F0  1  0.28252600  0.36879800  0.39463200  1
  F  F1  1  0.89951500  0.41274400  0.34421000  1
  F  F2  1  0.88077100  0.93010900  0.88573500  1
loop_
_geom_bond_atom_site_label_1
_geom_bond_atom_site_label_2
_geom_bond_distance
_geom_bond_site_symmetry_2
Ca0 F2 2.193993 1_554
Ca0 O2 2.199261 1_555
Ca0 O12 2.239028 1_554
Ca0 O9 2.417487 1_555
Ca0 O6 2.483250 1_565
Ca0 F1 2.561980 1_555
Ca0 O7 2.580931 1_554
Mn0 O2 1.797836 1_555
Mn0 O10 1.866310 1_554
Mn0 O6 1.992834 1_555
Mn0 O1 2.038903 1_555
Mn0 O0 2.134533 1_555
Mn1 O9 1.953745 1_455
Mn1 O3 1.966833 1_555
Mn1 O1 2.088037 1_555
Mn1 O4 2.092543 1_555
Mn2 O12 1.904152 1_554
Mn2 O9 1.964680 1_545
Mn2 O0 2.006440 1_655
Mn2 O6 2.247096 1_555
Mn3 O5 1.900910 1_555
Mn3 O4 1.906699 1_545
Mn3 O8 1.917651 1_555
Mn3 O10 1.925605 1_555
Mn3 O7 2.090171 1_545
Mn4 O7 1.921945 1_555
Mn4 O1 1.936307 1_556
Mn4 O5 1.960624 1_565
Mn4 O3 2.017872 1_555
Mn4 O0 2.020574 1_566
Mn5 O11 1.935312 1_555
Mn5 O6 1.941912 1_565
Mn5 O4 1.951896 1_555
Mn5 O9 1.977222 1_555
Mn5 O8 2.065917 1_565
Mn6 O10 1.915931 1_555
Mn6 O11 1.921992 1_555
Mn6 O8 1.995934 1_555
Mn6 O7 2.079630 1_555
Mn6 O12 2.312412 1_555
Mn7 O11 1.928455 1_555
Mn7 O5 1.964021 1_655
Mn7 O12 1.983034 1_555
Mn7 O3 2.109657 1_655
F0 Mn0 2.005895 1_555
F0 Mn1 2.162117 1_555
F0 Mn3 2.267000 1_555
F1 Mn2 2.104155 1_555
F1 Mn7 2.130902 1_555
F2 Mn4 1.925066 1_655
F2 Mn2 2.226290 1_566
