# generated using pymatgen
data_MgCd
_symmetry_space_group_name_H-M   'P 1'
_cell_length_a   6.31872889
_cell_length_b   6.31872889
_cell_length_c   31.03856800
_cell_angle_alpha   90.00000000
_cell_angle_beta   90.00000000
_cell_angle_gamma   120.00000936
_symmetry_Int_Tables_number   1
_chemical_formula_structural   MgCd
_chemical_formula_sum   'Mg24 Cd24'
_cell_volume   1073.22730070
_cell_formula_units_Z   24
loop_
 _symmetry_equiv_pos_site_id
 _symmetry_equiv_pos_as_xyz
  1  'x, y, z'
loop_
 _atom_site_type_symbol
 _atom_site_label
 _atom_site_symmetry_multiplicity
 _atom_site_fract_x
 _atom_site_fract_y
 _atom_site_fract_z
 _atom_site_occupancy
  Mg  Mg0_0  1  0.00000000  0.00000000  0.00001700  1
  Mg  Mg0_1  1  0.00000000  0.00000000  0.50001700  1
  Mg  Mg0_2  1  0.00000000  0.50000000  0.00001700  1
  Mg  Mg0_3  1  0.00000000  0.50000000  0.50001700  1
  Mg  Mg0_4  1  0.50000000  0.00000000  0.00001700  1
  Mg  Mg0_5  1  0.50000000  0.00000000  0.50001700  1
  Mg  Mg0_6  1  0.50000000  0.50000000  0.00001700  1
  Mg  Mg0_7  1  0.50000000  0.50000000  0.50001700  1
  Mg  Mg1_0  1  0.33333350  0.16666650  0.25035050  1
  Mg  Mg1_1  1  0.33333350  0.16666650  0.75035050  1
  Mg  Mg1_2  1  0.33333350  0.66666650  0.25035050  1
  Mg  Mg1_3  1  0.33333350  0.66666650  0.75035050  1
  Mg  Mg1_4  1  0.83333350  0.16666650  0.25035050  1
  Mg  Mg1_5  1  0.83333350  0.16666650  0.75035050  1
  Mg  Mg1_6  1  0.83333350  0.66666650  0.25035050  1
  Mg  Mg1_7  1  0.83333350  0.66666650  0.75035050  1
  Mg  Mg2_0  1  0.00000000  0.00000000  0.16624900  1
  Mg  Mg2_1  1  0.00000000  0.00000000  0.66624900  1
  Mg  Mg2_2  1  0.00000000  0.50000000  0.16624900  1
  Mg  Mg2_3  1  0.00000000  0.50000000  0.66624900  1
  Mg  Mg2_4  1  0.50000000  0.00000000  0.16624900  1
  Mg  Mg2_5  1  0.50000000  0.00000000  0.66624900  1
  Mg  Mg2_6  1  0.50000000  0.50000000  0.16624900  1
  Mg  Mg2_7  1  0.50000000  0.50000000  0.66624900  1
  Cd  Cd0_0  1  0.33333350  0.16666650  0.41730550  1
  Cd  Cd0_1  1  0.33333350  0.16666650  0.91730550  1
  Cd  Cd0_2  1  0.33333350  0.66666650  0.41730550  1
  Cd  Cd0_3  1  0.33333350  0.66666650  0.91730550  1
  Cd  Cd0_4  1  0.83333350  0.16666650  0.41730550  1
  Cd  Cd0_5  1  0.83333350  0.16666650  0.91730550  1
  Cd  Cd0_6  1  0.83333350  0.66666650  0.41730550  1
  Cd  Cd0_7  1  0.83333350  0.66666650  0.91730550  1
  Cd  Cd1_0  1  0.00000000  0.00000000  0.33281050  1
  Cd  Cd1_1  1  0.00000000  0.00000000  0.83281050  1
  Cd  Cd1_2  1  0.00000000  0.50000000  0.33281050  1
  Cd  Cd1_3  1  0.00000000  0.50000000  0.83281050  1
  Cd  Cd1_4  1  0.50000000  0.00000000  0.33281050  1
  Cd  Cd1_5  1  0.50000000  0.00000000  0.83281050  1
  Cd  Cd1_6  1  0.50000000  0.50000000  0.33281050  1
  Cd  Cd1_7  1  0.50000000  0.50000000  0.83281050  1
  Cd  Cd2_0  1  0.33333350  0.16666650  0.08326700  1
  Cd  Cd2_1  1  0.33333350  0.16666650  0.58326700  1
  Cd  Cd2_2  1  0.33333350  0.66666650  0.08326700  1
  Cd  Cd2_3  1  0.33333350  0.66666650  0.58326700  1
  Cd  Cd2_4  1  0.83333350  0.16666650  0.08326700  1
  Cd  Cd2_5  1  0.83333350  0.16666650  0.58326700  1
  Cd  Cd2_6  1  0.83333350  0.66666650  0.08326700  1
  Cd  Cd2_7  1  0.83333350  0.66666650  0.58326700  1
loop_
_geom_bond_atom_site_label_1
_geom_bond_atom_site_label_2
_geom_bond_distance
_geom_bond_site_symmetry_2
Mg0_0 Mg0_6 3.159364 1_445
Mg0_0 Mg0_6 3.159364 1_555
Mg0_0 Mg0_4 3.159364 1_555
Mg0_0 Mg0_4 3.159364 1_455
Mg0_0 Mg0_2 3.159364 1_555
Mg0_0 Mg0_2 3.159364 1_545
Mg0_1 Mg0_7 3.159364 1_445
Mg0_1 Mg0_7 3.159364 1_555
Mg0_1 Mg0_3 3.159364 1_555
Mg0_1 Mg0_3 3.159364 1_545
Mg0_1 Mg0_5 3.159364 1_455
Mg0_1 Mg0_5 3.159364 1_555
Mg0_2 Mg0_4 3.159364 1_565
Mg0_2 Mg0_4 3.159364 1_455
Mg0_2 Mg0_6 3.159364 1_455
Mg0_2 Mg0_6 3.159364 1_555
Mg0_3 Mg0_5 3.159364 1_455
Mg0_3 Mg0_5 3.159364 1_565
Mg0_3 Mg0_7 3.159364 1_555
Mg0_3 Mg0_7 3.159364 1_455
Mg0_4 Mg0_6 3.159364 1_545
Mg0_4 Mg0_6 3.159364 1_555
Mg0_5 Mg0_7 3.159364 1_545
Mg0_5 Mg0_7 3.159364 1_555
Mg1_0 Mg1_6 3.159364 1_555
Mg1_0 Mg1_6 3.159364 1_445
Mg1_0 Mg1_2 3.159364 1_545
Mg1_0 Mg1_4 3.159364 1_455
Mg1_0 Mg1_2 3.159364 1_555
Mg1_0 Mg1_4 3.159364 1_555
Mg1_0 Mg2_4 3.184545 1_555
Mg1_0 Mg2_6 3.184546 1_555
Mg1_0 Mg2_0 3.184546 1_555
Mg1_1 Mg1_7 3.159364 1_445
Mg1_1 Mg1_7 3.159364 1_555
Mg1_1 Mg1_5 3.159364 1_455
Mg1_1 Mg1_3 3.159364 1_545
Mg1_1 Mg1_5 3.159364 1_555
Mg1_1 Mg1_3 3.159364 1_555
Mg1_1 Mg2_5 3.184545 1_555
Mg1_1 Mg2_7 3.184546 1_555
Mg1_1 Mg2_1 3.184546 1_555
Mg1_2 Mg1_4 3.159364 1_565
Mg1_2 Mg1_4 3.159364 1_455
Mg1_2 Mg1_6 3.159364 1_455
Mg1_2 Mg1_6 3.159364 1_555
Mg1_2 Mg2_6 3.184545 1_555
Mg1_2 Mg2_4 3.184546 1_565
Mg1_2 Mg2_2 3.184546 1_555
Mg1_3 Mg1_5 3.159364 1_565
Mg1_3 Mg1_5 3.159364 1_455
Mg1_3 Mg1_7 3.159364 1_455
Mg1_3 Mg1_7 3.159364 1_555
Mg1_3 Mg2_7 3.184545 1_555
Mg1_3 Mg2_5 3.184546 1_565
Mg1_3 Mg2_3 3.184546 1_555
Mg1_4 Mg1_6 3.159364 1_555
Mg1_4 Mg1_6 3.159364 1_545
Mg1_4 Mg2_0 3.184545 1_655
Mg1_4 Mg2_2 3.184546 1_655
Mg1_4 Mg2_4 3.184546 1_555
Mg1_5 Mg1_7 3.159364 1_545
Mg1_5 Mg1_7 3.159364 1_555
Mg1_5 Mg2_1 3.184545 1_655
Mg1_5 Mg2_5 3.184546 1_555
Mg1_5 Mg2_3 3.184546 1_655
Mg1_6 Mg2_2 3.184545 1_655
Mg1_6 Mg2_0 3.184546 1_665
Mg1_6 Mg2_6 3.184546 1_555
Mg1_7 Mg2_3 3.184545 1_655
Mg1_7 Mg2_7 3.184546 1_555
Mg1_7 Mg2_1 3.184546 1_665
Mg2_0 Mg2_6 3.159364 1_555
Mg2_0 Mg2_6 3.159364 1_445
Mg2_0 Mg2_2 3.159364 1_545
Mg2_0 Mg2_4 3.159364 1_455
Mg2_0 Mg2_4 3.159364 1_555
Mg2_0 Mg2_2 3.159364 1_555
Mg2_1 Mg2_7 3.159364 1_555
Mg2_1 Mg2_7 3.159364 1_445
Mg2_1 Mg2_3 3.159364 1_545
Mg2_1 Mg2_5 3.159364 1_455
Mg2_1 Mg2_5 3.159364 1_555
Mg2_1 Mg2_3 3.159364 1_555
Mg2_2 Mg2_4 3.159364 1_565
Mg2_2 Mg2_4 3.159364 1_455
Mg2_2 Mg2_6 3.159364 1_455
Mg2_2 Mg2_6 3.159364 1_555
Mg2_3 Mg2_5 3.159364 1_455
Mg2_3 Mg2_5 3.159364 1_565
Mg2_3 Mg2_7 3.159364 1_555
Mg2_3 Mg2_7 3.159364 1_455
Mg2_4 Mg2_6 3.159364 1_545
Mg2_4 Mg2_6 3.159364 1_555
Mg2_5 Mg2_7 3.159364 1_545
Mg2_5 Mg2_7 3.159364 1_555
Cd0_0 Mg0_5 3.149277 1_555
Cd0_0 Mg0_7 3.149278 1_555
Cd0_0 Mg0_1 3.149278 1_555
Cd0_0 Cd0_6 3.159364 1_555
Cd0_0 Cd0_6 3.159364 1_445
Cd0_0 Cd0_4 3.159364 1_455
Cd0_0 Cd0_2 3.159364 1_545
Cd0_0 Cd0_4 3.159364 1_555
Cd0_0 Cd0_2 3.159364 1_555
Cd0_0 Cd1_4 3.194564 1_555
Cd0_0 Cd1_0 3.194565 1_555
Cd0_0 Cd1_6 3.194565 1_555
Cd0_1 Mg0_4 3.149277 1_556
Cd0_1 Mg0_6 3.149278 1_556
Cd0_1 Mg0_0 3.149278 1_556
Cd0_1 Cd0_7 3.159364 1_555
Cd0_1 Cd0_7 3.159364 1_445
Cd0_1 Cd0_5 3.159364 1_455
Cd0_1 Cd0_3 3.159364 1_545
Cd0_1 Cd0_5 3.159364 1_555
Cd0_1 Cd0_3 3.159364 1_555
Cd0_1 Cd1_5 3.194564 1_555
Cd0_1 Cd1_1 3.194565 1_555
Cd0_1 Cd1_7 3.194565 1_555
Cd0_2 Mg0_7 3.149277 1_555
Cd0_2 Mg0_5 3.149278 1_565
Cd0_2 Mg0_3 3.149278 1_555
Cd0_2 Cd0_4 3.159364 1_565
Cd0_2 Cd0_4 3.159364 1_455
Cd0_2 Cd0_6 3.159364 1_455
Cd0_2 Cd0_6 3.159364 1_555
Cd0_2 Cd1_6 3.194564 1_555
Cd0_2 Cd1_4 3.194565 1_565
Cd0_2 Cd1_2 3.194565 1_555
Cd0_3 Mg0_6 3.149277 1_556
Cd0_3 Mg0_4 3.149278 1_566
Cd0_3 Mg0_2 3.149278 1_556
Cd0_3 Cd0_5 3.159364 1_565
Cd0_3 Cd0_5 3.159364 1_455
Cd0_3 Cd0_7 3.159364 1_455
Cd0_3 Cd0_7 3.159364 1_555
Cd0_3 Cd1_7 3.194564 1_555
Cd0_3 Cd1_5 3.194565 1_565
Cd0_3 Cd1_3 3.194565 1_555
Cd0_4 Mg0_1 3.149277 1_655
Cd0_4 Mg0_5 3.149278 1_555
Cd0_4 Mg0_3 3.149278 1_655
Cd0_4 Cd0_6 3.159364 1_555
Cd0_4 Cd0_6 3.159364 1_545
Cd0_4 Cd1_0 3.194564 1_655
Cd0_4 Cd1_4 3.194565 1_555
Cd0_4 Cd1_2 3.194565 1_655
Cd0_5 Mg0_0 3.149277 1_656
Cd0_5 Mg0_4 3.149278 1_556
Cd0_5 Mg0_2 3.149278 1_656
Cd0_5 Cd0_7 3.159364 1_545
Cd0_5 Cd0_7 3.159364 1_555
Cd0_5 Cd1_1 3.194564 1_655
Cd0_5 Cd1_5 3.194565 1_555
Cd0_5 Cd1_3 3.194565 1_655
Cd0_6 Mg0_3 3.149277 1_655
Cd0_6 Mg0_1 3.149278 1_665
Cd0_6 Mg0_7 3.149278 1_555
Cd0_6 Cd1_2 3.194564 1_655
Cd0_6 Cd1_0 3.194565 1_665
Cd0_6 Cd1_6 3.194565 1_555
Cd0_7 Mg0_2 3.149277 1_656
Cd0_7 Mg0_6 3.149278 1_556
Cd0_7 Mg0_0 3.149278 1_666
Cd0_7 Cd1_3 3.194564 1_655
Cd0_7 Cd1_7 3.194565 1_555
Cd0_7 Cd1_1 3.194565 1_665
Cd1_0 Mg1_4 3.142916 1_455
Cd1_0 Mg1_0 3.142918 1_555
Cd1_0 Mg1_6 3.142918 1_445
Cd1_0 Cd1_6 3.159364 1_445
Cd1_0 Cd1_6 3.159364 1_555
Cd1_0 Cd1_2 3.159364 1_545
Cd1_0 Cd1_4 3.159364 1_455
Cd1_0 Cd1_4 3.159364 1_555
Cd1_0 Cd1_2 3.159364 1_555
Cd1_1 Mg1_5 3.142916 1_455
Cd1_1 Mg1_1 3.142918 1_555
Cd1_1 Mg1_7 3.142918 1_445
Cd1_1 Cd1_7 3.159364 1_555
Cd1_1 Cd1_7 3.159364 1_445
Cd1_1 Cd1_3 3.159364 1_555
Cd1_1 Cd1_5 3.159364 1_455
Cd1_1 Cd1_3 3.159364 1_545
Cd1_1 Cd1_5 3.159364 1_555
Cd1_2 Mg1_6 3.142916 1_455
Cd1_2 Mg1_2 3.142918 1_555
Cd1_2 Mg1_4 3.142918 1_455
Cd1_2 Cd1_4 3.159364 1_565
Cd1_2 Cd1_4 3.159364 1_455
Cd1_2 Cd1_6 3.159364 1_455
Cd1_2 Cd1_6 3.159364 1_555
Cd1_3 Mg1_7 3.142916 1_455
Cd1_3 Mg1_3 3.142918 1_555
Cd1_3 Mg1_5 3.142918 1_455
Cd1_3 Cd1_5 3.159364 1_455
Cd1_3 Cd1_5 3.159364 1_565
Cd1_3 Cd1_7 3.159364 1_555
Cd1_3 Cd1_7 3.159364 1_455
Cd1_4 Mg1_0 3.142916 1_555
Cd1_4 Mg1_2 3.142918 1_545
Cd1_4 Mg1_4 3.142918 1_555
Cd1_4 Cd1_6 3.159364 1_545
Cd1_4 Cd1_6 3.159364 1_555
Cd1_5 Mg1_1 3.142916 1_555
Cd1_5 Mg1_3 3.142918 1_545
Cd1_5 Mg1_5 3.142918 1_555
Cd1_5 Cd1_7 3.159364 1_555
Cd1_5 Cd1_7 3.159364 1_545
Cd1_6 Mg1_2 3.142916 1_555
Cd1_6 Mg1_6 3.142918 1_555
Cd1_6 Mg1_0 3.142918 1_555
Cd1_7 Mg1_3 3.142916 1_555
Cd1_7 Mg1_1 3.142918 1_555
Cd1_7 Mg1_7 3.142918 1_555
Cd2_0 Mg2_4 3.156125 1_555
Cd2_0 Mg2_6 3.156126 1_555
Cd2_0 Mg2_0 3.156126 1_555
Cd2_0 Cd2_6 3.159364 1_555
Cd2_0 Cd2_6 3.159364 1_445
Cd2_0 Cd2_4 3.159364 1_455
Cd2_0 Cd2_2 3.159364 1_545
Cd2_0 Cd2_4 3.159364 1_555
Cd2_0 Cd2_2 3.159364 1_555
Cd2_0 Mg0_4 3.162917 1_555
Cd2_0 Mg0_6 3.162918 1_555
Cd2_0 Mg0_0 3.162918 1_555
Cd2_1 Mg2_5 3.156125 1_555
Cd2_1 Mg2_1 3.156126 1_555
Cd2_1 Mg2_7 3.156126 1_555
Cd2_1 Cd2_7 3.159364 1_445
Cd2_1 Cd2_7 3.159364 1_555
Cd2_1 Cd2_5 3.159364 1_455
Cd2_1 Cd2_3 3.159364 1_545
Cd2_1 Cd2_5 3.159364 1_555
Cd2_1 Cd2_3 3.159364 1_555
Cd2_1 Mg0_5 3.162917 1_555
Cd2_1 Mg0_1 3.162918 1_555
Cd2_1 Mg0_7 3.162918 1_555
Cd2_2 Mg2_6 3.156125 1_555
Cd2_2 Mg2_4 3.156126 1_565
Cd2_2 Mg2_2 3.156126 1_555
Cd2_2 Cd2_4 3.159364 1_455
Cd2_2 Cd2_4 3.159364 1_565
Cd2_2 Cd2_6 3.159364 1_455
Cd2_2 Cd2_6 3.159364 1_555
Cd2_2 Mg0_6 3.162917 1_555
Cd2_2 Mg0_4 3.162918 1_565
Cd2_2 Mg0_2 3.162918 1_555
Cd2_3 Mg2_7 3.156125 1_555
Cd2_3 Mg2_5 3.156126 1_565
Cd2_3 Mg2_3 3.156126 1_555
Cd2_3 Cd2_5 3.159364 1_565
Cd2_3 Cd2_5 3.159364 1_455
Cd2_3 Cd2_7 3.159364 1_455
Cd2_3 Cd2_7 3.159364 1_555
Cd2_3 Mg0_7 3.162917 1_555
Cd2_3 Mg0_5 3.162918 1_565
Cd2_3 Mg0_3 3.162918 1_555
Cd2_4 Mg2_0 3.156125 1_655
Cd2_4 Mg2_4 3.156126 1_555
Cd2_4 Mg2_2 3.156126 1_655
Cd2_4 Cd2_6 3.159364 1_545
Cd2_4 Cd2_6 3.159364 1_555
Cd2_4 Mg0_0 3.162917 1_655
Cd2_4 Mg0_4 3.162918 1_555
Cd2_4 Mg0_2 3.162918 1_655
Cd2_5 Mg2_1 3.156125 1_655
Cd2_5 Mg2_3 3.156126 1_655
Cd2_5 Mg2_5 3.156126 1_555
Cd2_5 Cd2_7 3.159364 1_545
Cd2_5 Cd2_7 3.159364 1_555
Cd2_5 Mg0_1 3.162917 1_655
Cd2_5 Mg0_3 3.162918 1_655
Cd2_5 Mg0_5 3.162918 1_555
Cd2_6 Mg2_2 3.156125 1_655
Cd2_6 Mg2_6 3.156126 1_555
Cd2_6 Mg2_0 3.156126 1_665
Cd2_6 Mg0_2 3.162917 1_655
Cd2_6 Mg0_0 3.162918 1_665
Cd2_6 Mg0_6 3.162918 1_555
Cd2_7 Mg2_3 3.156125 1_655
Cd2_7 Mg2_7 3.156126 1_555
Cd2_7 Mg2_1 3.156126 1_665
Cd2_7 Mg0_3 3.162917 1_655
Cd2_7 Mg0_1 3.162918 1_665
Cd2_7 Mg0_7 3.162918 1_555
