# generated using pymatgen
data_CaCuMo2O7
_symmetry_space_group_name_H-M   'P 1'
_cell_length_a   9.11016200
_cell_length_b   10.64679200
_cell_length_c   10.96314164
_cell_angle_alpha   85.27742210
_cell_angle_beta   90.00000000
_cell_angle_gamma   90.00000000
_symmetry_Int_Tables_number   1
_chemical_formula_structural   CaCuMo2O7
_chemical_formula_sum   'Ca6 Cu6 Mo12 O42'
_cell_volume   1059.74887738
_cell_formula_units_Z   6
loop_
 _symmetry_equiv_pos_site_id
 _symmetry_equiv_pos_as_xyz
  1  'x, y, z'
loop_
 _atom_site_type_symbol
 _atom_site_label
 _atom_site_symmetry_multiplicity
 _atom_site_fract_x
 _atom_site_fract_y
 _atom_site_fract_z
 _atom_site_occupancy
  Ca  Ca0  1  0.43499700  0.81976000  0.57495900  1
  Ca  Ca1  1  0.93073700  0.50000000  0.75000000  1
  Ca  Ca2  1  0.43499700  0.18024000  0.92504100  1
  Ca  Ca3  1  0.06926300  0.50000000  0.25000000  1
  Ca  Ca4  1  0.56500300  0.18024000  0.42504100  1
  Ca  Ca5  1  0.56500300  0.81976000  0.07495900  1
  Cu  Cu0  1  0.93575700  0.20509500  0.41146800  1
  Cu  Cu1  1  0.06424300  0.79490500  0.58853200  1
  Cu  Cu2  1  0.44515000  0.50000000  0.25000000  1
  Cu  Cu3  1  0.93575700  0.79490500  0.08853200  1
  Cu  Cu4  1  0.55485000  0.50000000  0.75000000  1
  Cu  Cu5  1  0.06424300  0.20509500  0.91146800  1
  Mo  Mo0  1  0.20812200  0.82889300  0.29033400  1
  Mo  Mo1  1  0.74106500  0.84208900  0.38225400  1
  Mo  Mo2  1  0.25893500  0.84208900  0.88225400  1
  Mo  Mo3  1  0.79187800  0.82889300  0.79033400  1
  Mo  Mo4  1  0.28837400  0.51342600  0.96314800  1
  Mo  Mo5  1  0.74106500  0.15791100  0.11774600  1
  Mo  Mo6  1  0.71162600  0.51342600  0.46314800  1
  Mo  Mo7  1  0.25893500  0.15791100  0.61774600  1
  Mo  Mo8  1  0.28837400  0.48657400  0.53685200  1
  Mo  Mo9  1  0.71162600  0.48657400  0.03685200  1
  Mo  Mo10  1  0.79187800  0.17110700  0.70966600  1
  Mo  Mo11  1  0.20812200  0.17110700  0.20966600  1
  O  O0  1  0.78231000  0.80165900  0.96083000  1
  O  O1  1  0.76324100  0.15837400  0.28115700  1
  O  O2  1  0.85045100  0.00000000  0.75000000  1
  O  O3  1  0.88333000  0.48842100  0.11248000  1
  O  O4  1  0.38977800  0.04609100  0.57053000  1
  O  O5  1  0.92774500  0.72734600  0.71481900  1
  O  O6  1  0.35100200  0.69195300  0.94153700  1
  O  O7  1  0.11667000  0.48842100  0.61248000  1
  O  O8  1  0.71624300  0.52615000  0.87062400  1
  O  O9  1  0.38977800  0.95390900  0.92947000  1
  O  O10  1  0.71624300  0.47385000  0.62937600  1
  O  O11  1  0.42429800  0.41690000  0.88312100  1
  O  O12  1  0.91232400  0.14156900  0.04421300  1
  O  O13  1  0.07225500  0.72734600  0.21481900  1
  O  O14  1  0.64899800  0.30804700  0.05846300  1
  O  O15  1  0.35100200  0.30804700  0.55846300  1
  O  O16  1  0.92774500  0.27265400  0.78518100  1
  O  O17  1  0.61022200  0.95390900  0.42947000  1
  O  O18  1  0.21769000  0.80165900  0.46083000  1
  O  O19  1  0.57570200  0.58310000  0.11687900  1
  O  O20  1  0.38186400  0.18703600  0.28441200  1
  O  O21  1  0.28375700  0.47385000  0.12937600  1
  O  O22  1  0.08767600  0.14156900  0.54421300  1
  O  O23  1  0.28375700  0.52615000  0.37062400  1
  O  O24  1  0.88333000  0.51157900  0.38752000  1
  O  O25  1  0.57570200  0.41690000  0.38312100  1
  O  O26  1  0.11667000  0.51157900  0.88752000  1
  O  O27  1  0.61813600  0.18703600  0.78441200  1
  O  O28  1  0.61813600  0.81296400  0.71558800  1
  O  O29  1  0.08767600  0.85843100  0.95578700  1
  O  O30  1  0.07225500  0.27265400  0.28518100  1
  O  O31  1  0.78231000  0.19834100  0.53917000  1
  O  O32  1  0.14954900  0.00000000  0.25000000  1
  O  O33  1  0.23675900  0.15837400  0.78115700  1
  O  O34  1  0.61022200  0.04609100  0.07053000  1
  O  O35  1  0.91232400  0.85843100  0.45578700  1
  O  O36  1  0.21769000  0.19834100  0.03917000  1
  O  O37  1  0.76324100  0.84162600  0.21884300  1
  O  O38  1  0.42429800  0.58310000  0.61687900  1
  O  O39  1  0.64899800  0.69195300  0.44153700  1
  O  O40  1  0.23675900  0.84162600  0.71884300  1
  O  O41  1  0.38186400  0.81296400  0.21558800  1
loop_
_geom_bond_atom_site_label_1
_geom_bond_atom_site_label_2
_geom_bond_distance
_geom_bond_site_symmetry_2
Ca0 O28 2.268802 1_555
Ca0 O18 2.358304 1_555
Ca0 O40 2.421670 1_555
Ca0 O4 2.441198 1_565
Ca0 O38 2.525623 1_555
Ca0 O17 2.599450 1_555
Ca0 O39 2.849523 1_555
Ca1 O26 2.277728 1_655
Ca1 O7 2.277728 1_655
Ca1 O10 2.388585 1_555
Ca1 O8 2.388585 1_555
Ca1 O16 2.419633 1_555
Ca1 O5 2.419633 1_555
Ca2 O27 2.268802 1_555
Ca2 O36 2.358304 1_556
Ca2 O33 2.421670 1_555
Ca2 O9 2.441198 1_545
Ca2 O11 2.525623 1_555
Ca2 O34 2.599450 1_556
Ca2 O14 2.849523 1_556
Ca3 O24 2.277728 1_455
Ca3 O3 2.277728 1_455
Ca3 O23 2.388585 1_555
Ca3 O21 2.388585 1_555
Ca3 O30 2.419633 1_555
Ca3 O13 2.419633 1_555
Ca4 O20 2.268802 1_555
Ca4 O31 2.358304 1_555
Ca4 O1 2.421670 1_555
Ca4 O17 2.441198 1_545
Ca4 O25 2.525623 1_555
Ca4 O4 2.599450 1_555
Ca4 O15 2.849523 1_555
Ca5 O41 2.268802 1_555
Ca5 O0 2.358304 1_554
Ca5 O37 2.421670 1_555
Ca5 O34 2.441198 1_565
Ca5 O19 2.525623 1_555
Ca5 O9 2.599450 1_554
Ca5 O6 2.849523 1_554
Cu0 O30 1.953607 1_655
Cu0 O31 1.975560 1_555
Cu0 O22 2.080565 1_655
Cu0 O1 2.208049 1_555
Cu1 O5 1.953607 1_455
Cu1 O18 1.975560 1_555
Cu1 O35 2.080565 1_455
Cu1 O40 2.208049 1_555
Cu2 O21 2.012153 1_555
Cu2 O23 2.012153 1_555
Cu2 O19 2.028457 1_555
Cu2 O25 2.028457 1_555
Cu3 O13 1.953607 1_655
Cu3 O0 1.975560 1_554
Cu3 O29 2.080565 1_654
Cu3 O37 2.208049 1_555
Cu4 O10 2.012153 1_555
Cu4 O8 2.012153 1_555
Cu4 O38 2.028457 1_555
Cu4 O11 2.028457 1_555
Cu5 O16 1.953607 1_455
Cu5 O36 1.975560 1_556
Cu5 O12 2.080565 1_456
Cu5 O33 2.208049 1_555
Mo0 O41 1.796791 1_555
Mo0 O18 1.869821 1_555
Mo0 O13 1.879822 1_555
Mo0 O32 1.914775 1_565
Mo1 O35 1.771289 1_555
Mo1 O17 1.790987 1_555
Mo1 O37 1.803263 1_555
Mo1 O39 1.873481 1_555
Mo2 O29 1.771289 1_555
Mo2 O9 1.790987 1_555
Mo2 O40 1.803263 1_555
Mo2 O6 1.873481 1_555
Mo3 O28 1.796791 1_555
Mo3 O0 1.869821 1_555
Mo3 O5 1.879822 1_555
Mo3 O2 1.914775 1_565
Mo4 O26 1.771269 1_555
Mo4 O21 1.836830 1_556
Mo4 O11 1.872890 1_555
Mo4 O6 1.979980 1_555
Mo5 O12 1.771289 1_555
Mo5 O34 1.790987 1_555
Mo5 O1 1.803263 1_555
Mo5 O14 1.873481 1_555
Mo6 O24 1.771269 1_555
Mo6 O10 1.836830 1_555
Mo6 O25 1.872890 1_555
Mo6 O39 1.979980 1_555
Mo7 O22 1.771289 1_555
Mo7 O4 1.790987 1_555
Mo7 O33 1.803263 1_555
Mo7 O15 1.873481 1_555
Mo8 O7 1.771269 1_555
Mo8 O23 1.836830 1_555
Mo8 O38 1.872890 1_555
Mo8 O15 1.979980 1_555
Mo9 O3 1.771269 1_555
Mo9 O8 1.836830 1_554
Mo9 O19 1.872890 1_555
Mo9 O14 1.979980 1_555
Mo10 O27 1.796791 1_555
Mo10 O31 1.869821 1_555
Mo10 O16 1.879822 1_555
Mo10 O2 1.914775 1_555
Mo11 O20 1.796791 1_555
Mo11 O36 1.869821 1_555
Mo11 O30 1.879822 1_555
Mo11 O32 1.914775 1_555
