# generated using pymatgen
data_Eu4As7Ir8
_symmetry_space_group_name_H-M   'P 1'
_cell_length_a   4.11460387
_cell_length_b   13.10629337
_cell_length_c   13.62219951
_cell_angle_alpha   98.49358790
_cell_angle_beta   90.00000000
_cell_angle_gamma   90.00000000
_symmetry_Int_Tables_number   1
_chemical_formula_structural   Eu4As7Ir8
_chemical_formula_sum   'Eu8 As14 Ir16'
_cell_volume   726.55027258
_cell_formula_units_Z   2
loop_
 _symmetry_equiv_pos_site_id
 _symmetry_equiv_pos_as_xyz
  1  'x, y, z'
loop_
 _atom_site_type_symbol
 _atom_site_label
 _atom_site_symmetry_multiplicity
 _atom_site_fract_x
 _atom_site_fract_y
 _atom_site_fract_z
 _atom_site_occupancy
  Eu  Eu0  1  0.75000000  0.21315359  0.56541190  1
  Eu  Eu1  1  0.25000000  0.78684641  0.43458810  1
  Eu  Eu2  1  0.75000000  0.51367118  0.70912775  1
  Eu  Eu3  1  0.25000000  0.48632882  0.29087225  1
  Eu  Eu4  1  0.75000000  0.28553232  0.89557091  1
  Eu  Eu5  1  0.25000000  0.71446768  0.10442909  1
  Eu  Eu6  1  0.75000000  0.10236501  0.20611303  1
  Eu  Eu7  1  0.25000000  0.89763499  0.79388697  1
  As  As0  1  0.75000000  0.74343234  0.91912037  1
  As  As1  1  0.25000000  0.25656766  0.08087963  1
  As  As2  1  0.75000000  0.90575798  0.58673036  1
  As  As3  1  0.25000000  0.09424202  0.41326964  1
  As  As4  1  0.75000000  0.53025442  0.12720354  1
  As  As5  1  0.25000000  0.46974558  0.87279646  1
  As  As6  1  0.75000000  0.84779796  0.27954090  1
  As  As7  1  0.25000000  0.15220204  0.72045910  1
  As  As8  1  0.75000000  0.60918398  0.43747362  1
  As  As9  1  0.25000000  0.39081602  0.56252638  1
  As  As10  1  0.75000000  0.31102194  0.31058126  1
  As  As11  1  0.25000000  0.68897806  0.68941874  1
  As  As12  1  0.75000000  0.05829339  0.89991951  1
  As  As13  1  0.25000000  0.94170661  0.10008049  1
  Ir  Ir0  1  0.75000000  0.34282877  0.13797406  1
  Ir  Ir1  1  0.25000000  0.65717123  0.86202594  1
  Ir  Ir2  1  0.75000000  0.72239915  0.60187984  1
  Ir  Ir3  1  0.25000000  0.27760085  0.39812016  1
  Ir  Ir4  1  0.75000000  0.92003618  0.00178645  1
  Ir  Ir5  1  0.25000000  0.07996382  0.99821355  1
  Ir  Ir6  1  0.75000000  0.42529482  0.47131232  1
  Ir  Ir7  1  0.25000000  0.57470518  0.52868768  1
  Ir  Ir8  1  0.75000000  0.05626649  0.72079263  1
  Ir  Ir9  1  0.25000000  0.94373351  0.27920737  1
  Ir  Ir10  1  0.75000000  0.55340398  0.95139663  1
  Ir  Ir11  1  0.25000000  0.44659602  0.04860337  1
  Ir  Ir12  1  0.75000000  0.66424164  0.27170948  1
  Ir  Ir13  1  0.25000000  0.33575836  0.72829052  1
  Ir  Ir14  1  0.75000000  0.98564525  0.42672747  1
  Ir  Ir15  1  0.25000000  0.01435475  0.57327253  1
loop_
_geom_bond_atom_site_label_1
_geom_bond_atom_site_label_2
_geom_bond_distance
_geom_bond_site_symmetry_2
Eu0 Ir8 3.161288 1_555
Eu0 Ir6 3.229004 1_555
Eu0 Ir13 3.268690 1_655
Eu0 Ir13 3.268690 1_555
Eu0 Ir3 3.272286 1_555
Eu0 Ir3 3.272286 1_655
Eu0 Ir14 3.285739 1_545
Eu0 Ir15 3.333929 1_655
Eu0 Ir15 3.333929 1_555
Eu1 Ir9 3.161288 1_555
Eu1 Ir7 3.229004 1_555
Eu1 Ir12 3.268690 1_455
Eu1 Ir12 3.268690 1_555
Eu1 Ir2 3.272286 1_555
Eu1 Ir2 3.272286 1_455
Eu1 Ir15 3.285739 1_565
Eu1 Ir14 3.333929 1_455
Eu1 Ir14 3.333929 1_555
Eu2 Ir13 3.149226 1_655
Eu2 Ir13 3.149226 1_555
Eu2 Ir10 3.264209 1_555
Eu2 Ir6 3.275363 1_555
Eu2 Ir2 3.286147 1_555
Eu2 Ir1 3.309181 1_555
Eu2 Ir1 3.309181 1_655
Eu2 Ir7 3.390415 1_555
Eu2 Ir7 3.390415 1_655
Eu3 Ir12 3.149226 1_555
Eu3 Ir12 3.149226 1_455
Eu3 Ir11 3.264209 1_555
Eu3 Ir7 3.275363 1_555
Eu3 Ir3 3.286147 1_555
Eu3 Ir0 3.309181 1_555
Eu3 Ir0 3.309181 1_455
Eu3 Ir6 3.390415 1_555
Eu3 Ir6 3.390415 1_455
Eu4 Ir13 3.209598 1_555
Eu4 Ir13 3.209598 1_655
Eu4 Ir0 3.276440 1_556
Eu4 Ir11 3.425550 1_556
Eu4 Ir11 3.425550 1_656
Eu4 Ir10 3.480717 1_555
Eu5 Ir12 3.209598 1_455
Eu5 Ir12 3.209598 1_555
Eu5 Ir1 3.276440 1_554
Eu5 Ir10 3.425550 1_454
Eu5 Ir10 3.425550 1_554
Eu5 Ir11 3.480717 1_555
Eu6 Ir9 3.187157 1_545
Eu6 Ir9 3.187157 1_645
Eu6 Ir0 3.414411 1_555
Eu6 Ir14 3.567880 1_545
Eu7 Ir8 3.187157 1_565
Eu7 Ir8 3.187157 1_465
Eu7 Ir1 3.414411 1_555
Eu7 Ir15 3.567880 1_565
As0 Ir4 2.419837 1_556
As0 Ir1 2.419880 1_655
As0 Ir1 2.419880 1_555
As0 Ir10 2.592240 1_555
As0 Eu5 3.321420 1_556
As0 Eu5 3.321420 1_656
As0 Eu7 3.499397 1_555
As0 Eu7 3.499397 1_655
As1 Ir5 2.419837 1_554
As1 Ir0 2.419880 1_455
As1 Ir0 2.419880 1_555
As1 Ir11 2.592240 1_555
As1 Eu4 3.321420 1_554
As1 Eu4 3.321420 1_454
As1 Eu6 3.499397 1_555
As1 Eu6 3.499397 1_455
As2 Ir2 2.442179 1_555
As2 Ir8 2.482364 1_565
As2 Ir15 2.523680 1_565
As2 Ir15 2.523680 1_665
As2 Ir14 2.553626 1_555
As2 Eu1 3.162682 1_655
As2 Eu1 3.162682 1_555
As2 Eu7 3.506544 1_555
As2 Eu7 3.506544 1_655
As3 Ir3 2.442179 1_555
As3 Ir9 2.482364 1_545
As3 Ir14 2.523680 1_445
As3 Ir14 2.523680 1_545
As3 Ir15 2.553626 1_555
As3 Eu0 3.162682 1_555
As3 Eu0 3.162682 1_455
As3 Eu6 3.506544 1_555
As3 Eu6 3.506544 1_455
As4 Ir12 2.436722 1_555
As4 Ir10 2.458075 1_554
As4 Ir0 2.482371 1_555
As4 Ir11 2.496862 1_655
As4 Ir11 2.496862 1_555
As4 Eu3 3.148630 1_555
As4 Eu3 3.148630 1_655
As4 Eu5 3.221661 1_555
As4 Eu5 3.221661 1_655
As5 Ir13 2.436722 1_555
As5 Ir11 2.458075 1_556
As5 Ir1 2.482371 1_555
As5 Ir10 2.496862 1_555
As5 Ir10 2.496862 1_455
As5 Eu2 3.148630 1_455
As5 Eu2 3.148630 1_555
As5 Eu4 3.221661 1_455
As5 Eu4 3.221661 1_555
As6 Ir12 2.392314 1_555
As6 Ir9 2.411463 1_655
As6 Ir9 2.411463 1_555
As6 Ir14 2.492800 1_555
As6 Eu1 3.135276 1_555
As6 Eu1 3.135276 1_655
As6 Eu5 3.427092 1_555
As6 Eu5 3.427092 1_655
As7 Ir13 2.392314 1_555
As7 Ir8 2.411463 1_455
As7 Ir8 2.411463 1_555
As7 Ir15 2.492800 1_555
As7 Eu0 3.135276 1_455
As7 Eu0 3.135276 1_555
As7 Eu4 3.427092 1_555
As7 Eu4 3.427092 1_455
As8 Ir12 2.470006 1_555
As8 Ir7 2.479204 1_555
As8 Ir7 2.479204 1_655
As8 Ir2 2.497158 1_555
As8 Ir6 2.519774 1_555
As8 Eu1 3.111746 1_555
As8 Eu1 3.111746 1_655
As8 Eu3 3.140609 1_655
As8 Eu3 3.140609 1_555
As9 Ir13 2.470006 1_555
As9 Ir6 2.479204 1_555
As9 Ir6 2.479204 1_455
As9 Ir3 2.497158 1_555
As9 Ir7 2.519774 1_555
As9 Eu0 3.111746 1_555
As9 Eu0 3.111746 1_455
As9 Eu2 3.140609 1_555
As9 Eu2 3.140609 1_455
As10 Ir0 2.447833 1_555
As10 Ir3 2.449621 1_555
As10 Ir3 2.449621 1_655
As10 Ir6 2.463406 1_555
As10 Eu6 2.890373 1_555
As10 Eu3 3.125039 1_655
As10 Eu3 3.125039 1_555
As11 Ir1 2.447833 1_555
As11 Ir2 2.449621 1_555
As11 Ir2 2.449621 1_455
As11 Ir7 2.463406 1_555
As11 Eu7 2.890373 1_555
As11 Eu2 3.125039 1_555
As11 Eu2 3.125039 1_455
As12 Ir8 2.436320 1_555
As12 Ir4 2.439638 1_546
As12 Ir5 2.448201 1_655
As12 Ir5 2.448201 1_555
As12 Eu4 2.987584 1_555
As12 Eu7 3.139118 1_545
As12 Eu7 3.139118 1_645
As13 Ir9 2.436320 1_555
As13 Ir5 2.439638 1_564
As13 Ir4 2.448201 1_455
As13 Ir4 2.448201 1_555
As13 Eu5 2.987584 1_555
As13 Eu6 3.139118 1_565
As13 Eu6 3.139118 1_465
Ir0 Ir11 2.837837 1_655
Ir0 Ir11 2.837837 1_555
Ir1 Ir10 2.837837 1_455
Ir1 Ir10 2.837837 1_555
Ir2 Ir7 2.898875 1_555
Ir2 Ir7 2.898875 1_655
Ir3 Ir6 2.898875 1_555
Ir3 Ir6 2.898875 1_455
Ir6 Ir7 2.868076 1_655
Ir6 Ir7 2.868076 1_555
Ir10 Ir11 2.914288 1_656
Ir10 Ir11 2.914288 1_556
Ir14 Ir15 2.852589 1_565
Ir14 Ir15 2.852589 1_665
Ir14 Ir9 2.871661 1_655
Ir14 Ir9 2.871661 1_555
Ir15 Ir8 2.871661 1_555
Ir15 Ir8 2.871661 1_455
