# generated using pymatgen
data_BiPdSe
_symmetry_space_group_name_H-M   'P 1'
_cell_length_a   6.49566443
_cell_length_b   6.49566339
_cell_length_c   6.49566339
_cell_angle_alpha   90.00000000
_cell_angle_beta   90.00000000
_cell_angle_gamma   90.00000000
_symmetry_Int_Tables_number   1
_chemical_formula_structural   BiPdSe
_chemical_formula_sum   'Bi4 Pd4 Se4'
_cell_volume   274.07574520
_cell_formula_units_Z   4
loop_
 _symmetry_equiv_pos_site_id
 _symmetry_equiv_pos_as_xyz
  1  'x, y, z'
loop_
 _atom_site_type_symbol
 _atom_site_label
 _atom_site_symmetry_multiplicity
 _atom_site_fract_x
 _atom_site_fract_y
 _atom_site_fract_z
 _atom_site_occupancy
  Bi  Bi0  1  0.12828690  0.62828690  0.87171310  1
  Bi  Bi1  1  0.62828690  0.87171310  0.12828690  1
  Bi  Bi2  1  0.87171310  0.12828690  0.62828690  1
  Bi  Bi3  1  0.37171310  0.37171310  0.37171310  1
  Pd  Pd0  1  0.48916962  0.98916962  0.51083038  1
  Pd  Pd1  1  0.98916962  0.51083038  0.48916962  1
  Pd  Pd2  1  0.51083038  0.48916962  0.98916962  1
  Pd  Pd3  1  0.01083038  0.01083038  0.01083038  1
  Se  Se0  1  0.88096819  0.38096819  0.11903181  1
  Se  Se1  1  0.38096819  0.11903181  0.88096819  1
  Se  Se2  1  0.11903181  0.88096819  0.38096819  1
  Se  Se3  1  0.61903181  0.61903181  0.61903181  1
loop_
_geom_bond_atom_site_label_1
_geom_bond_atom_site_label_2
_geom_bond_distance
_geom_bond_site_symmetry_2
Bi0 Pd3 2.751963 1_566
Bi0 Pd1 2.751963 1_455
Bi0 Pd2 2.751964 1_555
Bi0 Se0 2.782538 1_456
Bi1 Pd2 2.751963 1_554
Bi1 Pd0 2.751963 1_555
Bi1 Pd3 2.751964 1_665
Bi1 Se1 2.782538 1_564
Bi2 Pd1 2.751963 1_555
Bi2 Pd3 2.751963 1_656
Bi2 Pd0 2.751964 1_545
Bi2 Se2 2.782538 1_645
Bi3 Pd0 2.751963 1_545
Bi3 Pd2 2.751963 1_554
Bi3 Pd1 2.751964 1_455
Bi3 Se3 2.782538 1_555
Pd0 Se1 2.643134 1_565
Pd0 Se3 2.643134 1_555
Pd0 Se2 2.643135 1_555
Pd1 Se0 2.643134 1_555
Pd1 Se2 2.643134 1_655
Pd1 Se3 2.643135 1_555
Pd2 Se3 2.643134 1_555
Pd2 Se1 2.643134 1_555
Pd2 Se0 2.643135 1_556
Pd3 Se2 2.643134 1_545
Pd3 Se0 2.643134 1_455
Pd3 Se1 2.643135 1_554
