# generated using pymatgen
data_Ca3Re3N5
_symmetry_space_group_name_H-M   'P 1'
_cell_length_a   5.99328658
_cell_length_b   6.83429098
_cell_length_c   8.88475570
_cell_angle_alpha   107.36270827
_cell_angle_beta   105.00877476
_cell_angle_gamma   95.36320717
_symmetry_Int_Tables_number   1
_chemical_formula_structural   Ca3Re3N5
_chemical_formula_sum   'Ca6 Re6 N10'
_cell_volume   329.68247351
_cell_formula_units_Z   2
loop_
 _symmetry_equiv_pos_site_id
 _symmetry_equiv_pos_as_xyz
  1  'x, y, z'
loop_
 _atom_site_type_symbol
 _atom_site_label
 _atom_site_symmetry_multiplicity
 _atom_site_fract_x
 _atom_site_fract_y
 _atom_site_fract_z
 _atom_site_occupancy
  Ca  Ca0  1  0.80903600  0.44018800  0.61516400  1
  Ca  Ca1  1  0.19096400  0.55981200  0.38483600  1
  Ca  Ca2  1  0.64264200  0.86775800  0.88622300  1
  Ca  Ca3  1  0.35735800  0.13224200  0.11377700  1
  Ca  Ca4  1  0.66140500  0.64842300  0.20105300  1
  Ca  Ca5  1  0.33859500  0.35157700  0.79894700  1
  Re  Re0  1  0.88031900  0.31841900  0.96365400  1
  Re  Re1  1  0.11968100  0.68158100  0.03634600  1
  Re  Re2  1  0.68704500  0.92646700  0.56515500  1
  Re  Re3  1  0.31295500  0.07353300  0.43484500  1
  Re  Re4  1  0.11677400  0.88009900  0.69333900  1
  Re  Re5  1  0.88322600  0.11990100  0.30666100  1
  N  N0  1  0.92051500  0.08361300  0.79317900  1
  N  N1  1  0.07948500  0.91638700  0.20682100  1
  N  N2  1  0.87802300  0.71113600  0.47980400  1
  N  N3  1  0.12197700  0.28886400  0.52019600  1
  N  N4  1  0.74458600  0.55272800  0.91612900  1
  N  N5  1  0.25541400  0.44727200  0.08387100  1
  N  N6  1  0.38515800  0.93613700  0.62164800  1
  N  N7  1  0.61484200  0.06386300  0.37835200  1
  N  N8  1  0.19906500  0.76217700  0.86622200  1
  N  N9  1  0.80093500  0.23782300  0.13377800  1
loop_
_geom_bond_atom_site_label_1
_geom_bond_atom_site_label_2
_geom_bond_distance
_geom_bond_site_symmetry_2
Ca0 N3 2.441433 1_655
Ca0 N2 2.547506 1_555
Ca0 N4 2.693334 1_555
Ca0 N7 2.708988 1_555
Ca0 N8 2.947947 1_655
Ca1 N2 2.441433 1_455
Ca1 N3 2.547506 1_555
Ca1 N5 2.693334 1_555
Ca1 N6 2.708988 1_555
Ca1 N9 2.947947 1_455
Ca2 N4 2.362751 1_555
Ca2 N0 2.571917 1_565
Ca2 N8 2.634382 1_555
Ca2 N6 2.652760 1_555
Ca2 N9 2.699046 1_566
Ca3 N5 2.362751 1_555
Ca3 N1 2.571917 1_545
Ca3 N9 2.634382 1_555
Ca3 N7 2.652760 1_555
Ca3 N8 2.699046 1_544
Ca4 N2 2.366435 1_555
Ca4 N5 2.470375 1_555
Ca4 N4 2.609809 1_554
Ca4 N7 2.885655 1_565
Ca4 N9 2.937275 1_555
Ca4 N1 2.941855 1_655
Ca5 N3 2.366435 1_555
Ca5 N4 2.470375 1_555
Ca5 N5 2.609809 1_556
Ca5 N6 2.885655 1_545
Ca5 N8 2.937275 1_555
Ca5 N0 2.941855 1_455
N0 Re0 1.933363 1_555
N0 Re2 2.041565 1_545
N0 Re4 2.052996 1_645
N1 Re1 1.933363 1_555
N1 Re3 2.041565 1_565
N1 Re5 2.052996 1_465
N2 Re4 1.989430 1_655
N2 Re2 2.036961 1_555
N3 Re5 1.989430 1_455
N3 Re3 2.036961 1_555
N4 Re0 1.968121 1_555
N4 Re1 2.189743 1_656
N5 Re1 1.968121 1_555
N5 Re0 2.189743 1_454
N6 Re4 1.923734 1_555
N6 Re2 2.000689 1_555
N6 Re3 2.111331 1_565
N7 Re5 1.923734 1_555
N7 Re3 2.000689 1_555
N7 Re2 2.111331 1_545
N8 Re1 1.906515 1_556
N8 Re4 1.916473 1_555
N9 Re0 1.906515 1_554
N9 Re5 1.916473 1_555
