# generated using pymatgen
data_K2DyNb5O15
_symmetry_space_group_name_H-M   'P 1'
_cell_length_a   12.75088500
_cell_length_b   12.75088500
_cell_length_c   3.95388800
_cell_angle_alpha   90.00000000
_cell_angle_beta   90.00000000
_cell_angle_gamma   90.00000000
_symmetry_Int_Tables_number   1
_chemical_formula_structural   K2DyNb5O15
_chemical_formula_sum   'K4 Dy2 Nb10 O30'
_cell_volume   642.84315046
_cell_formula_units_Z   2
loop_
 _symmetry_equiv_pos_site_id
 _symmetry_equiv_pos_as_xyz
  1  'x, y, z'
loop_
 _atom_site_type_symbol
 _atom_site_label
 _atom_site_symmetry_multiplicity
 _atom_site_fract_x
 _atom_site_fract_y
 _atom_site_fract_z
 _atom_site_occupancy
  K  K0  1  0.66995200  0.16995200  0.50000000  1
  K  K1  1  0.33004800  0.83004800  0.50000000  1
  K  K2  1  0.16995200  0.33004800  0.50000000  1
  K  K3  1  0.83004800  0.66995200  0.50000000  1
  Dy  Dy0  1  0.00000000  0.00000000  0.50000000  1
  Dy  Dy1  1  0.50000000  0.50000000  0.50000000  1
  Nb  Nb0  1  0.50000000  0.00000000  0.00000000  1
  Nb  Nb1  1  0.00000000  0.50000000  0.00000000  1
  Nb  Nb2  1  0.21182700  0.07652400  0.00000000  1
  Nb  Nb3  1  0.78817300  0.92347600  0.00000000  1
  Nb  Nb4  1  0.07652400  0.78817300  0.00000000  1
  Nb  Nb5  1  0.71182700  0.42347600  0.00000000  1
  Nb  Nb6  1  0.92347600  0.21182700  0.00000000  1
  Nb  Nb7  1  0.28817300  0.57652400  0.00000000  1
  Nb  Nb8  1  0.57652400  0.71182700  0.00000000  1
  Nb  Nb9  1  0.42347600  0.28817300  0.00000000  1
  O  O0  1  0.18503200  0.07833700  0.50000000  1
  O  O1  1  0.81496800  0.92166300  0.50000000  1
  O  O2  1  0.07833700  0.81496800  0.50000000  1
  O  O3  1  0.68503200  0.42166300  0.50000000  1
  O  O4  1  0.92166300  0.18503200  0.50000000  1
  O  O5  1  0.31496800  0.57833700  0.50000000  1
  O  O6  1  0.57833700  0.68503200  0.50000000  1
  O  O7  1  0.42166300  0.31496800  0.50000000  1
  O  O8  1  0.21726400  0.71726400  0.00000000  1
  O  O9  1  0.78273600  0.28273600  0.00000000  1
  O  O10  1  0.71726400  0.78273600  0.00000000  1
  O  O11  1  0.28273600  0.21726400  0.00000000  1
  O  O12  1  0.50000000  0.00000000  0.50000000  1
  O  O13  1  0.00000000  0.50000000  0.50000000  1
  O  O14  1  0.05789700  0.13077100  0.00000000  1
  O  O15  1  0.94210300  0.86922900  0.00000000  1
  O  O16  1  0.13077100  0.94210300  0.00000000  1
  O  O17  1  0.55789700  0.36922900  0.00000000  1
  O  O18  1  0.86922900  0.05789700  0.00000000  1
  O  O19  1  0.44210300  0.63077100  0.00000000  1
  O  O20  1  0.63077100  0.55789700  0.00000000  1
  O  O21  1  0.36922900  0.44210300  0.00000000  1
  O  O22  1  0.34198300  0.99950800  0.00000000  1
  O  O23  1  0.65801700  0.00049200  0.00000000  1
  O  O24  1  0.99950800  0.65801700  0.00000000  1
  O  O25  1  0.84198300  0.50049200  0.00000000  1
  O  O26  1  0.00049200  0.34198300  0.00000000  1
  O  O27  1  0.15801700  0.49950800  0.00000000  1
  O  O28  1  0.49950800  0.84198300  0.00000000  1
  O  O29  1  0.50049200  0.15801700  0.00000000  1
loop_
_geom_bond_atom_site_label_1
_geom_bond_atom_site_label_2
_geom_bond_distance
_geom_bond_site_symmetry_2
K0 O9 2.836291 1_555
K0 O9 2.836291 1_556
K0 O29 2.932639 1_555
K0 O29 2.932639 1_556
K0 O23 2.932639 1_556
K0 O23 2.932639 1_555
K0 O12 3.064655 1_555
K0 O3 3.215293 1_555
K0 O4 3.215293 1_555
K1 O8 2.836291 1_556
K1 O8 2.836291 1_555
K1 O28 2.932639 1_556
K1 O28 2.932639 1_555
K1 O22 2.932639 1_555
K1 O22 2.932639 1_556
K1 O12 3.064655 1_565
K1 O5 3.215293 1_555
K1 O2 3.215293 1_555
K2 O11 2.836291 1_556
K2 O11 2.836291 1_555
K2 O27 2.932639 1_555
K2 O27 2.932639 1_556
K2 O26 2.932639 1_555
K2 O26 2.932639 1_556
K2 O13 3.064655 1_555
K2 O7 3.215293 1_555
K2 O0 3.215293 1_555
K3 O10 2.836291 1_556
K3 O10 2.836291 1_555
K3 O24 2.932639 1_555
K3 O24 2.932639 1_556
K3 O25 2.932639 1_555
K3 O25 2.932639 1_556
K3 O13 3.064655 1_655
K3 O6 3.215293 1_555
K3 O1 3.215293 1_555
Dy0 O0 2.562056 1_555
Dy0 O4 2.562056 1_455
Dy0 O2 2.562056 1_545
Dy0 O1 2.562056 1_445
Dy0 O14 2.689550 1_556
Dy0 O14 2.689550 1_555
Dy0 O16 2.689550 1_546
Dy0 O16 2.689550 1_545
Dy0 O18 2.689550 1_456
Dy0 O18 2.689550 1_455
Dy0 O15 2.689550 1_446
Dy0 O15 2.689550 1_445
Dy1 O6 2.562056 1_555
Dy1 O3 2.562056 1_555
Dy1 O5 2.562056 1_555
Dy1 O7 2.562056 1_555
Dy1 O20 2.689550 1_555
Dy1 O20 2.689550 1_556
Dy1 O17 2.689550 1_555
Dy1 O17 2.689550 1_556
Dy1 O19 2.689550 1_555
Dy1 O19 2.689550 1_556
Dy1 O21 2.689550 1_555
Dy1 O21 2.689550 1_556
Nb0 O12 1.976944 1_554
Nb0 O12 1.976944 1_555
Nb0 O23 2.014866 1_555
Nb0 O29 2.014866 1_555
Nb0 O22 2.014866 1_545
Nb0 O28 2.014866 1_545
Nb1 O13 1.976944 1_555
Nb1 O13 1.976944 1_554
Nb1 O24 2.014866 1_455
Nb1 O27 2.014866 1_555
Nb1 O26 2.014866 1_555
Nb1 O25 2.014866 1_455
Nb2 O22 1.928381 1_545
Nb2 O16 2.001486 1_545
Nb2 O0 2.006383 1_554
Nb2 O0 2.006383 1_555
Nb2 O11 2.009462 1_555
Nb2 O14 2.081059 1_555
Nb3 O23 1.928381 1_565
Nb3 O18 2.001486 1_565
Nb3 O1 2.006383 1_554
Nb3 O1 2.006383 1_555
Nb3 O10 2.009462 1_555
Nb3 O15 2.081059 1_555
Nb4 O24 1.928381 1_455
Nb4 O15 2.001486 1_455
Nb4 O2 2.006383 1_555
Nb4 O2 2.006383 1_554
Nb4 O8 2.009462 1_555
Nb4 O16 2.081059 1_555
Nb5 O25 1.928381 1_555
Nb5 O20 2.001486 1_555
Nb5 O3 2.006383 1_555
Nb5 O3 2.006383 1_554
Nb5 O9 2.009462 1_555
Nb5 O17 2.081059 1_555
Nb6 O26 1.928381 1_655
Nb6 O14 2.001486 1_655
Nb6 O4 2.006383 1_554
Nb6 O4 2.006383 1_555
Nb6 O9 2.009462 1_555
Nb6 O18 2.081059 1_555
Nb7 O27 1.928381 1_555
Nb7 O21 2.001486 1_555
Nb7 O5 2.006383 1_554
Nb7 O5 2.006383 1_555
Nb7 O8 2.009462 1_555
Nb7 O19 2.081059 1_555
Nb8 O28 1.928381 1_555
Nb8 O19 2.001486 1_555
Nb8 O6 2.006383 1_554
Nb8 O6 2.006383 1_555
Nb8 O10 2.009462 1_555
Nb8 O20 2.081059 1_555
Nb9 O29 1.928381 1_555
Nb9 O17 2.001486 1_555
Nb9 O7 2.006383 1_554
Nb9 O7 2.006383 1_555
Nb9 O11 2.009462 1_555
Nb9 O21 2.081059 1_555
