# generated using pymatgen
data_K5B(SO4)4
_symmetry_space_group_name_H-M   'P 1'
_cell_length_a   10.10268100
_cell_length_b   10.10268100
_cell_length_c   16.52966300
_cell_angle_alpha   90.00000000
_cell_angle_beta   90.00000000
_cell_angle_gamma   90.00000000
_symmetry_Int_Tables_number   1
_chemical_formula_structural   K5B(SO4)4
_chemical_formula_sum   'K20 B4 S16 O64'
_cell_volume   1687.08622518
_cell_formula_units_Z   4
loop_
 _symmetry_equiv_pos_site_id
 _symmetry_equiv_pos_as_xyz
  1  'x, y, z'
loop_
 _atom_site_type_symbol
 _atom_site_label
 _atom_site_symmetry_multiplicity
 _atom_site_fract_x
 _atom_site_fract_y
 _atom_site_fract_z
 _atom_site_occupancy
  K  K0  1  0.04659500  0.24742600  0.00427100  1
  K  K1  1  0.95340500  0.75257400  0.50427100  1
  K  K2  1  0.24742600  0.95340500  0.75427100  1
  K  K3  1  0.75257400  0.04659500  0.25427100  1
  K  K4  1  0.67477300  0.14672100  0.83299200  1
  K  K5  1  0.32522700  0.85327900  0.33299200  1
  K  K6  1  0.14672100  0.32522700  0.58299200  1
  K  K7  1  0.85327900  0.67477300  0.08299200  1
  K  K8  1  0.34604000  0.41557300  0.79973600  1
  K  K9  1  0.65396000  0.58442700  0.29973600  1
  K  K10  1  0.41557300  0.65396000  0.54973600  1
  K  K11  1  0.58442700  0.34604000  0.04973600  1
  K  K12  1  0.90489500  0.82698200  0.85419800  1
  K  K13  1  0.09510500  0.17301800  0.35419800  1
  K  K14  1  0.82698200  0.09510500  0.60419800  1
  K  K15  1  0.17301800  0.90489500  0.10419800  1
  K  K16  1  0.50461400  0.75643800  0.89868300  1
  K  K17  1  0.49538600  0.24356200  0.39868300  1
  K  K18  1  0.75643800  0.49538600  0.64868300  1
  K  K19  1  0.24356200  0.50461400  0.14868300  1
  B  B0  1  0.99338800  0.48527800  0.83052200  1
  B  B1  1  0.00661200  0.51472200  0.33052200  1
  B  B2  1  0.48527800  0.00661200  0.58052200  1
  B  B3  1  0.51472200  0.99338800  0.08052200  1
  S  S0  1  0.01403100  0.22362700  0.79025200  1
  S  S1  1  0.98596900  0.77637300  0.29025200  1
  S  S2  1  0.22362700  0.98596900  0.54025200  1
  S  S3  1  0.77637300  0.01403100  0.04025200  1
  S  S4  1  0.73019400  0.51101500  0.86552900  1
  S  S5  1  0.26980600  0.48898500  0.36552900  1
  S  S6  1  0.51101500  0.26980600  0.61552900  1
  S  S7  1  0.48898500  0.73019400  0.11552900  1
  S  S8  1  0.15706200  0.59968500  0.94699300  1
  S  S9  1  0.84293800  0.40031500  0.44699300  1
  S  S10  1  0.59968500  0.84293800  0.69699300  1
  S  S11  1  0.40031500  0.15706200  0.19699300  1
  S  S12  1  0.38076000  0.09984600  0.94584600  1
  S  S13  1  0.61924000  0.90015400  0.44584600  1
  S  S14  1  0.09984600  0.61924000  0.69584600  1
  S  S15  1  0.90015400  0.38076000  0.19584600  1
  O  O0  1  0.01094600  0.34395400  0.85350500  1
  O  O1  1  0.98905400  0.65604600  0.35350500  1
  O  O2  1  0.34395400  0.98905400  0.60350500  1
  O  O3  1  0.65604600  0.01094600  0.10350500  1
  O  O4  1  0.91517200  0.25126900  0.72722200  1
  O  O5  1  0.08482800  0.74873100  0.22722200  1
  O  O6  1  0.25126900  0.08482800  0.47722200  1
  O  O7  1  0.74873100  0.91517200  0.97722200  1
  O  O8  1  0.97866400  0.10881500  0.84070300  1
  O  O9  1  0.02133600  0.89118500  0.34070300  1
  O  O10  1  0.10881500  0.02133600  0.59070300  1
  O  O11  1  0.89118500  0.97866400  0.09070300  1
  O  O12  1  0.14951800  0.21689000  0.75845500  1
  O  O13  1  0.85048200  0.78311000  0.25845500  1
  O  O14  1  0.21689000  0.85048200  0.50845500  1
  O  O15  1  0.78311000  0.14951800  0.00845500  1
  O  O16  1  0.85550400  0.51714600  0.80580400  1
  O  O17  1  0.14449600  0.48285400  0.30580400  1
  O  O18  1  0.51714600  0.14449600  0.55580400  1
  O  O19  1  0.48285400  0.85550400  0.05580400  1
  O  O20  1  0.61812300  0.52167900  0.80922500  1
  O  O21  1  0.38187700  0.47832100  0.30922500  1
  O  O22  1  0.52167900  0.38187700  0.55922500  1
  O  O23  1  0.47832100  0.61812300  0.05922500  1
  O  O24  1  0.73436600  0.38481900  0.90923500  1
  O  O25  1  0.26563400  0.61518100  0.40923500  1
  O  O26  1  0.38481900  0.26563400  0.65923500  1
  O  O27  1  0.61518100  0.73436600  0.15923500  1
  O  O28  1  0.74098700  0.62571300  0.92009500  1
  O  O29  1  0.25901300  0.37428700  0.42009500  1
  O  O30  1  0.62571300  0.25901300  0.67009500  1
  O  O31  1  0.37428700  0.74098700  0.17009500  1
  O  O32  1  0.02050400  0.57004000  0.90145300  1
  O  O33  1  0.97949600  0.42996000  0.40145300  1
  O  O34  1  0.57004000  0.97949600  0.65145300  1
  O  O35  1  0.42996000  0.02050400  0.15145300  1
  O  O36  1  0.24672900  0.66181100  0.88844400  1
  O  O37  1  0.75327100  0.33818900  0.38844400  1
  O  O38  1  0.66181100  0.75327100  0.63844400  1
  O  O39  1  0.33818900  0.24672900  0.13844400  1
  O  O40  1  0.11211000  0.69051000  0.01108300  1
  O  O41  1  0.88789000  0.30949000  0.51108300  1
  O  O42  1  0.69051000  0.88789000  0.76108300  1
  O  O43  1  0.30949000  0.11211000  0.26108300  1
  O  O44  1  0.20712600  0.47303200  0.97760300  1
  O  O45  1  0.79287400  0.52696800  0.47760300  1
  O  O46  1  0.47303200  0.79287400  0.72760300  1
  O  O47  1  0.52696800  0.20712600  0.22760300  1
  O  O48  1  0.25260500  0.06534900  0.98167600  1
  O  O49  1  0.74739500  0.93465100  0.48167600  1
  O  O50  1  0.06534900  0.74739500  0.73167600  1
  O  O51  1  0.93465100  0.25260500  0.23167600  1
  O  O52  1  0.49299900  0.08482900  0.01254600  1
  O  O53  1  0.50700100  0.91517100  0.51254600  1
  O  O54  1  0.08482900  0.50700100  0.76254600  1
  O  O55  1  0.91517100  0.49299900  0.26254600  1
  O  O56  1  0.39527200  0.23935700  0.92304400  1
  O  O57  1  0.60472800  0.76064300  0.42304400  1
  O  O58  1  0.23935700  0.60472800  0.67304400  1
  O  O59  1  0.76064300  0.39527200  0.17304400  1
  O  O60  1  0.41866300  0.00981500  0.87963600  1
  O  O61  1  0.58133700  0.99018500  0.37963600  1
  O  O62  1  0.00981500  0.58133700  0.62963600  1
  O  O63  1  0.99018500  0.41866300  0.12963600  1
loop_
_geom_bond_atom_site_label_1
_geom_bond_atom_site_label_2
_geom_bond_distance
_geom_bond_site_symmetry_2
K0 O0 2.700245 1_554
K0 O63 2.758930 1_455
K0 O48 2.802631 1_554
K0 O44 2.831854 1_554
K0 O15 2.840582 1_455
K0 O8 3.121229 1_454
K1 O1 2.700245 1_555
K1 O62 2.758930 1_655
K1 O49 2.802631 1_555
K1 O45 2.831854 1_555
K1 O14 2.840582 1_655
K1 O9 3.121229 1_655
K2 O2 2.700245 1_555
K2 O60 2.758930 1_565
K2 O50 2.802631 1_555
K2 O46 2.831854 1_555
K2 O12 2.840582 1_565
K2 O10 3.121229 1_565
K3 O3 2.700245 1_555
K3 O61 2.758930 1_545
K3 O51 2.802631 1_555
K3 O47 2.831854 1_555
K3 O13 2.840582 1_545
K3 O11 3.121229 1_545
K4 O24 2.781516 1_555
K4 O42 2.876761 1_545
K4 O30 2.963596 1_555
K4 O60 3.033496 1_555
K4 O8 3.096530 1_555
K4 O15 3.100115 1_556
K4 O4 3.173445 1_555
K4 O56 3.326396 1_555
K4 O7 3.422607 1_545
K5 O25 2.781516 1_555
K5 O43 2.876761 1_565
K5 O31 2.963596 1_555
K5 O61 3.033496 1_555
K5 O9 3.096530 1_555
K5 O14 3.100115 1_555
K5 O5 3.173445 1_555
K5 O57 3.326396 1_555
K5 O6 3.422607 1_565
K6 O26 2.781516 1_555
K6 O41 2.876761 1_455
K6 O29 2.963596 1_555
K6 O62 3.033496 1_555
K6 O10 3.096530 1_555
K6 O12 3.100115 1_555
K6 O6 3.173445 1_555
K6 O58 3.326396 1_555
K6 O4 3.422607 1_455
K7 O27 2.781516 1_555
K7 O40 2.876761 1_655
K7 O28 2.963596 1_554
K7 O63 3.033496 1_555
K7 O11 3.096530 1_555
K7 O13 3.100115 1_555
K7 O7 3.173445 1_554
K7 O59 3.326396 1_555
K7 O5 3.422607 1_655
K8 O56 2.751565 1_555
K8 O26 2.800315 1_555
K8 O54 2.862695 1_555
K8 O12 2.904549 1_555
K8 O20 2.954558 1_555
K8 O58 3.032987 1_555
K8 O36 3.056987 1_555
K8 O44 3.309168 1_555
K9 O57 2.751565 1_555
K9 O27 2.800315 1_555
K9 O55 2.862695 1_555
K9 O13 2.904549 1_555
K9 O21 2.954558 1_555
K9 O59 3.032987 1_555
K9 O37 3.056987 1_555
K9 O45 3.309168 1_555
K10 O58 2.751565 1_555
K10 O25 2.800315 1_555
K10 O53 2.862695 1_555
K10 O14 2.904549 1_555
K10 O22 2.954558 1_555
K10 O57 3.032987 1_555
K10 O38 3.056987 1_555
K10 O46 3.309168 1_555
K11 O59 2.751565 1_555
K11 O24 2.800315 1_554
K11 O52 2.862695 1_555
K11 O15 2.904549 1_555
K11 O23 2.954558 1_555
K11 O56 3.032987 1_554
K11 O39 3.056987 1_555
K11 O47 3.309168 1_555
K12 O50 2.715843 1_655
K12 O7 2.723631 1_555
K12 O42 2.727382 1_555
K12 O28 2.839552 1_555
K12 O8 2.951630 1_565
K12 O32 2.951687 1_655
K13 O51 2.715843 1_455
K13 O6 2.723631 1_555
K13 O43 2.727382 1_555
K13 O29 2.839552 1_555
K13 O9 2.951630 1_545
K13 O33 2.951687 1_455
K14 O49 2.715843 1_545
K14 O4 2.723631 1_555
K14 O41 2.727382 1_555
K14 O30 2.839552 1_555
K14 O10 2.951630 1_655
K14 O34 2.951687 1_545
K15 O48 2.715843 1_564
K15 O5 2.723631 1_555
K15 O40 2.727382 1_555
K15 O31 2.839552 1_555
K15 O11 2.951630 1_455
K15 O35 2.951687 1_565
K16 O60 2.721331 1_565
K16 O28 2.751726 1_555
K16 O36 2.780341 1_555
K16 O19 2.791992 1_556
K16 O46 2.869545 1_555
K16 O23 3.010864 1_556
K16 O20 3.021018 1_555
K16 O7 3.215488 1_555
K16 O42 3.234805 1_555
K17 O61 2.721331 1_545
K17 O29 2.751726 1_555
K17 O37 2.780341 1_555
K17 O18 2.791992 1_555
K17 O47 2.869545 1_555
K17 O22 3.010864 1_555
K17 O21 3.021018 1_555
K17 O6 3.215488 1_555
K17 O43 3.234805 1_555
K18 O62 2.721331 1_655
K18 O30 2.751726 1_555
K18 O38 2.780341 1_555
K18 O16 2.791992 1_555
K18 O45 2.869545 1_555
K18 O20 3.010864 1_555
K18 O22 3.021018 1_555
K18 O4 3.215488 1_555
K18 O41 3.234805 1_555
K19 O63 2.721331 1_455
K19 O31 2.751726 1_555
K19 O39 2.780341 1_555
K19 O17 2.791992 1_555
K19 O44 2.869545 1_554
K19 O21 3.010864 1_555
K19 O23 3.021018 1_555
K19 O5 3.215488 1_555
K19 O40 3.234805 1_555
B0 O54 1.471085 1_655
B0 O32 1.477502 1_655
B0 O16 1.486955 1_555
B0 O0 1.488040 1_655
B1 O55 1.471085 1_455
B1 O33 1.477502 1_455
B1 O17 1.486955 1_555
B1 O1 1.488040 1_455
B2 O53 1.471085 1_545
B2 O34 1.477502 1_545
B2 O18 1.486955 1_555
B2 O2 1.488040 1_545
B3 O52 1.471085 1_565
B3 O35 1.477502 1_565
B3 O19 1.486955 1_555
B3 O3 1.488040 1_565
O0 S0 1.603712 1_555
O1 S1 1.603712 1_555
O2 S2 1.603712 1_555
O3 S3 1.603712 1_555
O4 S0 1.470017 1_655
O5 S1 1.470017 1_455
O6 S2 1.470017 1_545
O7 S3 1.470017 1_566
O8 S0 1.472585 1_655
O9 S1 1.472585 1_455
O10 S2 1.472585 1_545
O11 S3 1.472585 1_565
O12 S0 1.467803 1_555
O13 S1 1.467803 1_555
O14 S2 1.467803 1_555
O15 S3 1.467803 1_555
O16 S4 1.606593 1_555
O17 S5 1.606593 1_555
O18 S6 1.606593 1_555
O19 S7 1.606593 1_555
O20 S4 1.469592 1_555
O21 S5 1.469592 1_555
O22 S6 1.469592 1_555
O23 S7 1.469592 1_555
O24 S4 1.465988 1_555
O25 S5 1.465988 1_555
O26 S6 1.465988 1_555
O27 S7 1.465988 1_555
O28 S4 1.472459 1_555
O29 S5 1.472459 1_555
O30 S6 1.472459 1_555
O31 S7 1.472459 1_555
O32 S8 1.599890 1_555
O33 S9 1.599890 1_555
O34 S10 1.599890 1_555
O35 S11 1.599890 1_555
O36 S8 1.466687 1_555
O37 S9 1.466687 1_555
O38 S10 1.466687 1_555
O39 S11 1.466687 1_555
O40 S8 1.473256 1_554
O41 S9 1.473256 1_555
O42 S10 1.473256 1_555
O43 S11 1.473256 1_555
O44 S8 1.465958 1_555
O45 S9 1.465958 1_555
O46 S10 1.465958 1_555
O47 S11 1.465958 1_555
O48 S12 1.465777 1_555
O49 S13 1.465777 1_555
O50 S14 1.465777 1_555
O51 S15 1.465777 1_555
O52 S12 1.588820 1_554
O53 S13 1.588820 1_555
O54 S14 1.588820 1_555
O55 S15 1.588820 1_555
O56 S12 1.466309 1_555
O57 S13 1.466309 1_555
O58 S14 1.466309 1_555
O59 S15 1.466309 1_555
O60 S12 1.473667 1_555
O61 S13 1.473667 1_555
O62 S14 1.473667 1_555
O63 S15 1.473667 1_555
