# generated using pymatgen
data_Rb4UC3O11
_symmetry_space_group_name_H-M   'P 1'
_cell_length_a   7.35407639
_cell_length_b   7.35407639
_cell_length_c   12.81696421
_cell_angle_alpha   87.93723629
_cell_angle_beta   87.93723629
_cell_angle_gamma   80.93910087
_symmetry_Int_Tables_number   1
_chemical_formula_structural   Rb4UC3O11
_chemical_formula_sum   'Rb8 U2 C6 O22'
_cell_volume   683.75632044
_cell_formula_units_Z   2
loop_
 _symmetry_equiv_pos_site_id
 _symmetry_equiv_pos_as_xyz
  1  'x, y, z'
loop_
 _atom_site_type_symbol
 _atom_site_label
 _atom_site_symmetry_multiplicity
 _atom_site_fract_x
 _atom_site_fract_y
 _atom_site_fract_z
 _atom_site_occupancy
  Rb  Rb0  1  0.42755000  0.78312700  0.45945100  1
  Rb  Rb1  1  0.57245000  0.21687300  0.54054900  1
  Rb  Rb2  1  0.21687300  0.57245000  0.04054900  1
  Rb  Rb3  1  0.78312700  0.42755000  0.95945100  1
  Rb  Rb4  1  0.34397100  0.02534200  0.15403400  1
  Rb  Rb5  1  0.65602900  0.97465800  0.84596600  1
  Rb  Rb6  1  0.97465800  0.65602900  0.34596600  1
  Rb  Rb7  1  0.02534200  0.34397100  0.65403400  1
  U  U0  1  0.81061600  0.18938400  0.25000000  1
  U  U1  1  0.18938400  0.81061600  0.75000000  1
  C  C0  1  0.83923000  0.91646300  0.09085800  1
  C  C1  1  0.16077000  0.08353700  0.90914200  1
  C  C2  1  0.08353700  0.16077000  0.40914200  1
  C  C3  1  0.91646300  0.83923000  0.59085800  1
  C  C4  1  0.50704000  0.49296000  0.25000000  1
  C  C5  1  0.49296000  0.50704000  0.75000000  1
  O  O0  1  0.65987000  0.04036600  0.31711700  1
  O  O1  1  0.34013000  0.95963400  0.68288300  1
  O  O2  1  0.95963400  0.34013000  0.18288300  1
  O  O3  1  0.04036600  0.65987000  0.81711700  1
  O  O4  1  0.91098900  0.96256600  0.66369800  1
  O  O5  1  0.08901100  0.03743400  0.33630200  1
  O  O6  1  0.03743400  0.08901100  0.83630200  1
  O  O7  1  0.96256600  0.91098900  0.16369800  1
  O  O8  1  0.78312100  0.82919800  0.53361100  1
  O  O9  1  0.21687900  0.17080200  0.46638900  1
  O  O10  1  0.17080200  0.21687900  0.96638900  1
  O  O11  1  0.82919800  0.78312100  0.03361100  1
  O  O12  1  0.37426600  0.62573400  0.25000000  1
  O  O13  1  0.62573400  0.37426600  0.75000000  1
  O  O14  1  0.54325300  0.37954900  0.17189600  1
  O  O15  1  0.45674700  0.62045100  0.82810400  1
  O  O16  1  0.62045100  0.45674700  0.32810400  1
  O  O17  1  0.37954900  0.54325300  0.67189600  1
  O  O18  1  0.72464200  0.07414500  0.08480400  1
  O  O19  1  0.27535800  0.92585500  0.91519600  1
  O  O20  1  0.92585500  0.27535800  0.41519600  1
  O  O21  1  0.07414500  0.72464200  0.58480400  1
loop_
_geom_bond_atom_site_label_1
_geom_bond_atom_site_label_2
_geom_bond_distance
_geom_bond_site_symmetry_2
C0 O11 1.258522 1_555
C0 O7 1.320094 1_555
C0 O18 1.323358 1_565
C1 O10 1.258522 1_555
C1 O6 1.320094 1_555
C1 O19 1.323358 1_545
C2 O9 1.258522 1_555
C2 O5 1.320094 1_555
C2 O20 1.323358 1_455
C3 O8 1.258522 1_555
C3 O4 1.320094 1_555
C3 O21 1.323358 1_655
C4 O12 1.267492 1_555
C4 O16 1.318939 1_555
C4 O14 1.318939 1_555
C5 O13 1.267492 1_555
C5 O15 1.318939 1_555
C5 O17 1.318939 1_555
O0 U0 1.848271 1_555
O0 Rb1 3.189255 1_555
O0 Rb4 3.197704 1_555
O0 Rb0 3.220392 1_545
O0 Rb6 3.377886 1_545
O1 U1 1.848271 1_555
O1 Rb0 3.189255 1_555
O1 Rb5 3.197704 1_555
O1 Rb1 3.220392 1_565
O1 Rb7 3.377886 1_565
O2 U0 1.848271 1_555
O2 Rb3 3.189255 1_554
O2 Rb6 3.197704 1_555
O2 Rb2 3.220392 1_655
O2 Rb4 3.377886 1_655
O3 U1 1.848271 1_555
O3 Rb2 3.189255 1_556
O3 Rb7 3.197704 1_555
O3 Rb3 3.220392 1_455
O3 Rb5 3.377886 1_455
O4 U1 2.453013 1_655
O4 Rb5 2.937362 1_555
O4 Rb7 3.049648 1_665
O4 Rb1 3.284986 1_565
O5 U0 2.453013 1_455
O5 Rb4 2.937362 1_555
O5 Rb6 3.049648 1_445
O5 Rb0 3.284986 1_545
O6 U1 2.453013 1_545
O6 Rb7 2.937362 1_555
O6 Rb5 3.049648 1_445
O6 Rb3 3.284986 1_455
O7 U0 2.453013 1_565
O7 Rb6 2.937362 1_555
O7 Rb4 3.049648 1_665
O7 Rb2 3.284986 1_655
O8 Rb0 2.887402 1_555
O8 Rb6 2.966769 1_555
O8 Rb1 3.025471 1_565
O9 Rb1 2.887402 1_555
O9 Rb7 2.966769 1_555
O9 Rb0 3.025471 1_545
O10 Rb2 2.887402 1_556
O10 Rb4 2.966769 1_556
O10 Rb3 3.025471 1_455
O11 Rb3 2.887402 1_554
O11 Rb5 2.966769 1_554
O11 Rb2 3.025471 1_655
O12 Rb0 3.023618 1_555
O12 Rb2 3.023618 1_555
O12 Rb4 3.122828 1_565
O12 Rb6 3.122828 1_455
O13 Rb3 3.023618 1_555
O13 Rb1 3.023618 1_555
O13 Rb7 3.122828 1_655
O13 Rb5 3.122828 1_545
O14 U0 2.449223 1_555
O14 Rb2 3.107104 1_555
O14 Rb4 3.202345 1_555
O14 Rb3 3.229834 1_554
O15 U1 2.449223 1_555
O15 Rb3 3.107104 1_555
O15 Rb5 3.202345 1_555
O15 Rb2 3.229834 1_556
O16 U0 2.449223 1_555
O16 Rb0 3.107104 1_555
O16 Rb6 3.202345 1_555
O16 Rb1 3.229834 1_555
O17 U1 2.449223 1_555
O17 Rb1 3.107104 1_555
O17 Rb7 3.202345 1_555
O17 Rb0 3.229834 1_555
O18 U0 2.448528 1_555
O18 Rb4 2.977913 1_555
O18 Rb3 3.085882 1_554
O18 Rb5 3.247986 1_544
O19 U1 2.448528 1_555
O19 Rb5 2.977913 1_555
O19 Rb2 3.085882 1_556
O19 Rb4 3.247986 1_566
O20 U0 2.448528 1_555
O20 Rb6 2.977913 1_555
O20 Rb1 3.085882 1_555
O20 Rb7 3.247986 1_655
O21 U1 2.448528 1_555
O21 Rb7 2.977913 1_555
O21 Rb0 3.085882 1_555
O21 Rb6 3.247986 1_455
