# generated using pymatgen
data_TbGaNi
_symmetry_space_group_name_H-M   'P 1'
_cell_length_a   4.31657271
_cell_length_b   6.88271636
_cell_length_c   7.17967916
_cell_angle_alpha   90.00000000
_cell_angle_beta   90.00000000
_cell_angle_gamma   90.00000000
_symmetry_Int_Tables_number   1
_chemical_formula_structural   TbGaNi
_chemical_formula_sum   'Tb4 Ga4 Ni4'
_cell_volume   213.30644141
_cell_formula_units_Z   4
loop_
 _symmetry_equiv_pos_site_id
 _symmetry_equiv_pos_as_xyz
  1  'x, y, z'
loop_
 _atom_site_type_symbol
 _atom_site_label
 _atom_site_symmetry_multiplicity
 _atom_site_fract_x
 _atom_site_fract_y
 _atom_site_fract_z
 _atom_site_occupancy
  Tb  Tb0  1  0.25000000  0.02151333  0.80325395  1
  Tb  Tb1  1  0.25000000  0.52151333  0.69674605  1
  Tb  Tb2  1  0.75000000  0.97848667  0.19674605  1
  Tb  Tb3  1  0.75000000  0.47848667  0.30325395  1
  Ga  Ga0  1  0.25000000  0.17851263  0.41805016  1
  Ga  Ga1  1  0.25000000  0.67851263  0.08194984  1
  Ga  Ga2  1  0.75000000  0.82148737  0.58194984  1
  Ga  Ga3  1  0.75000000  0.32148737  0.91805016  1
  Ni  Ni0  1  0.25000000  0.79661494  0.40985820  1
  Ni  Ni1  1  0.25000000  0.29661494  0.09014180  1
  Ni  Ni2  1  0.75000000  0.20338506  0.59014180  1
  Ni  Ni3  1  0.75000000  0.70338506  0.90985820  1
loop_
_geom_bond_atom_site_label_1
_geom_bond_atom_site_label_2
_geom_bond_distance
_geom_bond_site_symmetry_2
Ga0 Ni1 2.490656 1_555
Ga0 Ni2 2.492814 1_555
Ga0 Ni2 2.492814 1_455
Ga0 Ni0 2.629151 1_545
Ga0 Tb0 2.969246 1_555
Ga0 Tb2 3.012996 1_445
Ga0 Tb2 3.012996 1_545
Ga0 Tb1 3.094682 1_555
Ga0 Tb3 3.098424 1_455
Ga0 Tb3 3.098424 1_555
Ga1 Ni0 2.490656 1_555
Ga1 Ni3 2.492814 1_454
Ga1 Ni3 2.492814 1_554
Ga1 Ni1 2.629151 1_555
Ga1 Tb1 2.969246 1_554
Ga1 Tb3 3.012996 1_455
Ga1 Tb3 3.012996 1_555
Ga1 Tb0 3.094682 1_564
Ga1 Tb2 3.098424 1_455
Ga1 Tb2 3.098424 1_555
Ga2 Ni3 2.490656 1_555
Ga2 Ni0 2.492814 1_555
Ga2 Ni0 2.492814 1_655
Ga2 Ni2 2.629151 1_565
Ga2 Tb2 2.969246 1_555
Ga2 Tb0 3.012996 1_665
Ga2 Tb0 3.012996 1_565
Ga2 Tb3 3.094682 1_555
Ga2 Tb1 3.098424 1_655
Ga2 Tb1 3.098424 1_555
Ga3 Ni2 2.490656 1_555
Ga3 Ni1 2.492814 1_556
Ga3 Ni1 2.492814 1_656
Ga3 Ni3 2.629151 1_555
Ga3 Tb3 2.969246 1_556
Ga3 Tb1 3.012996 1_555
Ga3 Tb1 3.012996 1_655
Ga3 Tb2 3.094682 1_546
Ga3 Tb0 3.098424 1_655
Ga3 Tb0 3.098424 1_555
Ni0 Tb1 2.797814 1_555
Ni0 Tb2 2.926819 1_555
Ni0 Tb2 2.926819 1_455
Ni0 Tb3 3.168328 1_455
Ni0 Tb3 3.168328 1_555
Ni0 Tb0 3.220804 1_565
Ni1 Tb0 2.797814 1_554
Ni1 Tb3 2.926819 1_555
Ni1 Tb3 2.926819 1_455
Ni1 Tb2 3.168328 1_445
Ni1 Tb2 3.168328 1_545
Ni1 Tb1 3.220804 1_554
Ni2 Tb3 2.797814 1_555
Ni2 Tb0 2.926819 1_555
Ni2 Tb0 2.926819 1_655
Ni2 Tb1 3.168328 1_555
Ni2 Tb1 3.168328 1_655
Ni2 Tb2 3.220804 1_545
Ni3 Tb2 2.797814 1_556
Ni3 Tb1 2.926819 1_555
Ni3 Tb1 2.926819 1_655
Ni3 Tb0 3.168328 1_565
Ni3 Tb0 3.168328 1_665
Ni3 Tb3 3.220804 1_556
