# generated using pymatgen
data_Ba2LaRuO6
_symmetry_space_group_name_H-M   'P 1'
_cell_length_a   6.08111969
_cell_length_b   6.08111969
_cell_length_c   6.08111904
_cell_angle_alpha   60.64916403
_cell_angle_beta   60.64916403
_cell_angle_gamma   60.64915948
_symmetry_Int_Tables_number   1
_chemical_formula_structural   Ba2LaRuO6
_chemical_formula_sum   'Ba2 La1 Ru1 O6'
_cell_volume   161.34470289
_cell_formula_units_Z   1
loop_
 _symmetry_equiv_pos_site_id
 _symmetry_equiv_pos_as_xyz
  1  'x, y, z'
loop_
 _atom_site_type_symbol
 _atom_site_label
 _atom_site_symmetry_multiplicity
 _atom_site_fract_x
 _atom_site_fract_y
 _atom_site_fract_z
 _atom_site_occupancy
  Ba  Ba0  1  0.25202900  0.25202900  0.25202900  1
  Ba  Ba1  1  0.74797100  0.74797100  0.74797100  1
  La  La0  1  0.00000000  0.00000000  0.00000000  1
  Ru  Ru0  1  0.50000000  0.50000000  0.50000000  1
  O  O0  1  0.72489900  0.22803300  0.31552900  1
  O  O1  1  0.22803300  0.31552900  0.72489900  1
  O  O2  1  0.31552900  0.72489900  0.22803300  1
  O  O3  1  0.27510100  0.77196700  0.68447100  1
  O  O4  1  0.68447100  0.27510100  0.77196700  1
  O  O5  1  0.77196700  0.68447100  0.27510100  1
loop_
_geom_bond_atom_site_label_1
_geom_bond_atom_site_label_2
_geom_bond_distance
_geom_bond_site_symmetry_2
Ba0 O5 2.809247 1_455
Ba0 O4 2.809247 1_554
Ba0 O3 2.809247 1_545
Ba0 O1 3.010202 1_555
Ba0 O0 3.010202 1_555
Ba0 O2 3.010202 1_555
Ba0 O1 3.104151 1_554
Ba0 O2 3.104151 1_545
Ba0 O0 3.104152 1_455
Ba0 O5 3.345322 1_545
Ba0 O3 3.345322 1_554
Ba0 O4 3.345322 1_455
Ba1 O1 2.809247 1_655
Ba1 O2 2.809247 1_556
Ba1 O0 2.809247 1_565
Ba1 O5 3.010202 1_555
Ba1 O3 3.010202 1_555
Ba1 O4 3.010202 1_555
Ba1 O5 3.104151 1_556
Ba1 O4 3.104151 1_565
Ba1 O3 3.104152 1_655
Ba1 O1 3.345322 1_565
Ba1 O0 3.345322 1_556
Ba1 O2 3.345322 1_655
La0 O0 2.364470 1_455
La0 O3 2.364470 1_544
La0 O2 2.364470 1_545
La0 O4 2.364470 1_454
La0 O1 2.364470 1_554
La0 O5 2.364470 1_445
O0 Ru0 1.990357 1_555
O1 Ru0 1.990357 1_555
O2 Ru0 1.990357 1_555
O3 Ru0 1.990357 1_555
O4 Ru0 1.990357 1_555
O5 Ru0 1.990357 1_555
