# generated using pymatgen
data_Tl(SeO3)2
_symmetry_space_group_name_H-M   'P 1'
_cell_length_a   6.21850700
_cell_length_b   6.18943300
_cell_length_c   19.30301800
_cell_angle_alpha   90.00000000
_cell_angle_beta   90.00000000
_cell_angle_gamma   90.00000000
_symmetry_Int_Tables_number   1
_chemical_formula_structural   Tl(SeO3)2
_chemical_formula_sum   'Tl4 Se8 O24'
_cell_volume   742.95448592
_cell_formula_units_Z   4
loop_
 _symmetry_equiv_pos_site_id
 _symmetry_equiv_pos_as_xyz
  1  'x, y, z'
loop_
 _atom_site_type_symbol
 _atom_site_label
 _atom_site_symmetry_multiplicity
 _atom_site_fract_x
 _atom_site_fract_y
 _atom_site_fract_z
 _atom_site_occupancy
  Tl  Tl0  1  0.97260900  0.52337100  0.33328600  1
  Tl  Tl1  1  0.52739100  0.47662900  0.83328600  1
  Tl  Tl2  1  0.47260900  0.97662900  0.66671400  1
  Tl  Tl3  1  0.02739100  0.02337100  0.16671400  1
  Se  Se0  1  0.49548400  0.54470200  0.49037900  1
  Se  Se1  1  0.00451600  0.45529800  0.99037900  1
  Se  Se2  1  0.99548400  0.95529800  0.50962100  1
  Se  Se3  1  0.50451600  0.04470200  0.00962100  1
  Se  Se4  1  0.00211400  0.95517700  0.83595200  1
  Se  Se5  1  0.49788600  0.04482300  0.33595200  1
  Se  Se6  1  0.50211400  0.54482300  0.16404800  1
  Se  Se7  1  0.99788600  0.45517700  0.66404800  1
  O  O0  1  0.96418000  0.89777800  0.42671400  1
  O  O1  1  0.53582000  0.10222200  0.92671400  1
  O  O2  1  0.46418000  0.60222200  0.57328600  1
  O  O3  1  0.03582000  0.39777800  0.07328600  1
  O  O4  1  0.76456900  0.54984300  0.96891600  1
  O  O5  1  0.73543100  0.45015700  0.46891700  1
  O  O6  1  0.26456900  0.95015700  0.03108400  1
  O  O7  1  0.23543100  0.04984300  0.53108400  1
  O  O8  1  0.71536700  0.93615000  0.04828100  1
  O  O9  1  0.78463300  0.06385000  0.54828100  1
  O  O10  1  0.21536700  0.56385000  0.95171900  1
  O  O11  1  0.28463300  0.43615000  0.45171900  1
  O  O12  1  0.81687200  0.80870000  0.79440500  1
  O  O13  1  0.68312800  0.19130000  0.29440500  1
  O  O14  1  0.31687200  0.69130000  0.20559500  1
  O  O15  1  0.18312800  0.30870000  0.70559500  1
  O  O16  1  0.55108700  0.78076400  0.33903100  1
  O  O17  1  0.94891300  0.21923600  0.83903100  1
  O  O18  1  0.05108700  0.71923600  0.66096900  1
  O  O19  1  0.44891300  0.28076400  0.16096900  1
  O  O20  1  0.75309200  0.60037900  0.18832300  1
  O  O21  1  0.74690800  0.39962100  0.68832300  1
  O  O22  1  0.25309200  0.89962100  0.81167700  1
  O  O23  1  0.24690800  0.10037900  0.31167700  1
loop_
_geom_bond_atom_site_label_1
_geom_bond_atom_site_label_2
_geom_bond_distance
_geom_bond_site_symmetry_2
O0 Se2 1.650993 1_555
O1 Se3 1.650993 1_556
O2 Se0 1.650993 1_555
O3 Se1 1.650993 1_554
O4 Se1 1.655439 1_655
O5 Se0 1.655434 1_555
O6 Se3 1.655439 1_565
O7 Se2 1.655439 1_445
O8 Se3 1.651515 1_565
O9 Se2 1.651515 1_545
O10 Se1 1.651515 1_555
O11 Se0 1.651515 1_555
O12 Se4 1.670945 1_655
O12 Tl1 2.833403 1_555
O13 Se5 1.670945 1_555
O13 Tl0 2.833403 1_555
O14 Se6 1.670945 1_555
O14 Tl3 2.833403 1_565
O15 Se7 1.670945 1_455
O15 Tl2 2.833403 1_545
O16 Se5 1.668582 1_565
O17 Se4 1.668582 1_645
O18 Se7 1.668582 1_455
O19 Se6 1.668582 1_555
O20 Se6 1.665418 1_555
O21 Se7 1.665418 1_555
O22 Se4 1.665418 1_555
O23 Se5 1.665418 1_555
