# generated using pymatgen
data_Pr6Cd(GeS7)2
_symmetry_space_group_name_H-M   'P 1'
_cell_length_a   10.33296955
_cell_length_b   10.33296955
_cell_length_c   5.84286300
_cell_angle_alpha   90.00000000
_cell_angle_beta   90.00000000
_cell_angle_gamma   119.99999714
_symmetry_Int_Tables_number   1
_chemical_formula_structural   Pr6Cd(GeS7)2
_chemical_formula_sum   'Pr6 Cd1 Ge2 S14'
_cell_volume   540.26476789
_cell_formula_units_Z   1
loop_
 _symmetry_equiv_pos_site_id
 _symmetry_equiv_pos_as_xyz
  1  'x, y, z'
loop_
 _atom_site_type_symbol
 _atom_site_label
 _atom_site_symmetry_multiplicity
 _atom_site_fract_x
 _atom_site_fract_y
 _atom_site_fract_z
 _atom_site_occupancy
  Pr  Pr0  1  0.64224200  0.76990700  0.75484200  1
  Pr  Pr1  1  0.12766500  0.35775800  0.75484200  1
  Pr  Pr2  1  0.23009300  0.87233500  0.75484200  1
  Pr  Pr3  1  0.35812900  0.23029500  0.24976300  1
  Pr  Pr4  1  0.87216600  0.64187100  0.24976300  1
  Pr  Pr5  1  0.76970500  0.12783400  0.24976300  1
  Cd  Cd0  1  0.00000000  0.00000000  0.51416300  1
  Ge  Ge0  1  0.33333300  0.66666700  0.16985400  1
  Ge  Ge1  1  0.66666700  0.33333300  0.66441400  1
  S  S0  1  0.74267800  0.83716400  0.28214800  1
  S  S1  1  0.09448600  0.25732200  0.28214800  1
  S  S2  1  0.16283600  0.90551400  0.28214800  1
  S  S3  1  0.25524500  0.16373000  0.76867200  1
  S  S4  1  0.90848500  0.74475500  0.76867200  1
  S  S5  1  0.83627000  0.09151500  0.76867200  1
  S  S6  1  0.33333300  0.66666700  0.54579600  1
  S  S7  1  0.66666700  0.33333300  0.04128200  1
  S  S8  1  0.47981300  0.89346400  0.01425200  1
  S  S9  1  0.41365100  0.52018700  0.01425200  1
  S  S10  1  0.10653600  0.58634900  0.01425200  1
  S  S11  1  0.52017600  0.10649700  0.51084400  1
  S  S12  1  0.58632100  0.47982400  0.51084400  1
  S  S13  1  0.89350300  0.41367900  0.51084400  1
loop_
_geom_bond_atom_site_label_1
_geom_bond_atom_site_label_2
_geom_bond_distance
_geom_bond_site_symmetry_2
Pr0 S4 2.890936 1_555
Pr0 S5 2.899476 1_565
Pr0 S9 2.905142 1_556
Pr0 S0 2.909775 1_555
Pr0 S8 2.981118 1_556
Pr0 S6 3.068115 1_555
Pr0 S12 3.101432 1_555
Pr0 S0 3.214217 1_556
Pr1 S5 2.890936 1_455
Pr1 S3 2.899476 1_555
Pr1 S10 2.905142 1_556
Pr1 S1 2.909775 1_555
Pr1 S9 2.981118 1_556
Pr1 S6 3.068113 1_555
Pr1 S13 3.101432 1_455
Pr1 S1 3.214217 1_556
Pr2 S3 2.890936 1_565
Pr2 S4 2.899476 1_455
Pr2 S8 2.905142 1_556
Pr2 S2 2.909775 1_555
Pr2 S10 2.981118 1_556
Pr2 S6 3.068106 1_555
Pr2 S11 3.101432 1_565
Pr2 S2 3.214217 1_556
Pr3 S1 2.880266 1_555
Pr3 S12 2.907782 1_555
Pr3 S2 2.932269 1_545
Pr3 S3 2.962007 1_554
Pr3 S11 2.984798 1_555
Pr3 S7 3.063840 1_555
Pr3 S9 3.078451 1_555
Pr3 S3 3.172468 1_555
Pr4 S2 2.880266 1_655
Pr4 S13 2.907781 1_555
Pr4 S0 2.932269 1_555
Pr4 S4 2.962007 1_554
Pr4 S12 2.984798 1_555
Pr4 S7 3.063838 1_555
Pr4 S10 3.078451 1_655
Pr4 S4 3.172468 1_555
Pr5 S0 2.880266 1_545
Pr5 S11 2.907781 1_555
Pr5 S1 2.932269 1_655
Pr5 S5 2.962007 1_554
Pr5 S13 2.984798 1_555
Pr5 S7 3.063831 1_555
Pr5 S8 3.078451 1_545
Pr5 S5 3.172468 1_555
Cd0 S2 2.695320 1_545
Cd0 S1 2.695320 1_555
Cd0 S0 2.695320 1_445
Cd0 S5 2.750930 1_455
Cd0 S4 2.750930 1_445
Cd0 S3 2.750930 1_555
Ge0 S6 2.196578 1_555
Ge0 S10 2.249969 1_555
Ge0 S8 2.249971 1_555
Ge0 S9 2.249978 1_555
Ge1 S7 2.201988 1_556
Ge1 S13 2.245500 1_555
Ge1 S11 2.245502 1_555
Ge1 S12 2.245509 1_555
