# generated using pymatgen
data_Ba2CuAg3(SnS4)2
_symmetry_space_group_name_H-M   'P 1'
_cell_length_a   6.49502800
_cell_length_b   6.51544988
_cell_length_c   10.78688749
_cell_angle_alpha   79.89862519
_cell_angle_beta   79.66224728
_cell_angle_gamma   68.02750686
_symmetry_Int_Tables_number   1
_chemical_formula_structural   Ba2CuAg3(SnS4)2
_chemical_formula_sum   'Ba2 Cu1 Ag3 Sn2 S8'
_cell_volume   413.50914705
_cell_formula_units_Z   1
loop_
 _symmetry_equiv_pos_site_id
 _symmetry_equiv_pos_as_xyz
  1  'x, y, z'
loop_
 _atom_site_type_symbol
 _atom_site_label
 _atom_site_symmetry_multiplicity
 _atom_site_fract_x
 _atom_site_fract_y
 _atom_site_fract_z
 _atom_site_occupancy
  Ba  Ba0  1  0.99884000  0.99893300  0.00073900  1
  Ba  Ba1  1  0.50019300  0.50041400  0.49850400  1
  Cu  Cu0  1  0.90303300  0.90164600  0.40259800  1
  Ag  Ag0  1  0.59746900  0.59423200  0.09966600  1
  Ag  Ag1  1  0.09795900  0.10071300  0.59525500  1
  Ag  Ag2  1  0.40096200  0.40177900  0.90148000  1
  Sn  Sn0  1  0.75403600  0.75157000  0.74619700  1
  Sn  Sn1  1  0.24584800  0.24853800  0.25388500  1
  S  S0  1  0.75938400  0.37197300  0.76647300  1
  S  S1  1  0.22455000  0.87595900  0.27823600  1
  S  S2  1  0.53902200  0.92431600  0.93504500  1
  S  S3  1  0.03876300  0.43767600  0.43657200  1
  S  S4  1  0.62957000  0.23469100  0.23664400  1
  S  S5  1  0.13406500  0.74503000  0.73299500  1
  S  S6  1  0.07237800  0.45836900  0.06603800  1
  S  S7  1  0.60392700  0.95416200  0.54967200  1
loop_
_geom_bond_atom_site_label_1
_geom_bond_atom_site_label_2
_geom_bond_distance
_geom_bond_site_symmetry_2
Ba0 S2 3.316653 1_654
Ba0 S4 3.318295 1_565
Ba0 S6 3.334750 1_655
Ba0 S0 3.337569 1_564
Ba0 S5 3.395237 1_654
Ba0 S1 3.406726 1_655
Ba0 S6 3.408107 1_665
Ba0 S2 3.409518 1_554
Ba1 S5 3.318471 1_555
Ba1 S3 3.322146 1_655
Ba1 S1 3.323687 1_555
Ba1 S7 3.327998 1_545
Ba1 S3 3.365489 1_555
Ba1 S4 3.384831 1_555
Ba1 S7 3.419816 1_555
Ba1 S0 3.425392 1_555
Cu0 S7 2.234927 1_555
Cu0 S1 2.236118 1_655
Cu0 S3 2.789790 1_655
Cu0 S4 2.821755 1_565
Ag0 S2 2.492795 1_554
Ag0 S4 2.499045 1_555
Ag0 S6 2.845593 1_655
Ag0 S1 3.030689 1_555
Ag1 S5 2.478632 1_545
Ag1 S3 2.486785 1_555
Ag1 S0 2.854733 1_455
Ag1 S7 3.031454 1_545
Ag2 S0 2.474285 1_555
Ag2 S6 2.474385 1_556
Ag2 S5 2.848426 1_555
Ag2 S2 2.871711 1_545
S0 Sn0 2.432010 1_555
S1 Sn1 2.448583 1_565
S2 Sn0 2.444135 1_555
S3 Sn1 2.423073 1_555
S4 Sn1 2.434231 1_555
S5 Sn0 2.431432 1_455
S6 Sn1 2.437067 1_555
S7 Sn0 2.446227 1_555
