# generated using pymatgen
data_ZnCoH22C5N10(Cl2O3)2
_symmetry_space_group_name_H-M   'P 1'
_cell_length_a   7.83244000
_cell_length_b   12.30385074
_cell_length_c   13.92812165
_cell_angle_alpha   108.08853367
_cell_angle_beta   103.46728547
_cell_angle_gamma   100.61421325
_symmetry_Int_Tables_number   1
_chemical_formula_structural   ZnCoH22C5N10(Cl2O3)2
_chemical_formula_sum   'Zn2 Co2 H44 C10 N20 Cl8 O12'
_cell_volume   1192.09991812
_cell_formula_units_Z   2
loop_
 _symmetry_equiv_pos_site_id
 _symmetry_equiv_pos_as_xyz
  1  'x, y, z'
loop_
 _atom_site_type_symbol
 _atom_site_label
 _atom_site_symmetry_multiplicity
 _atom_site_fract_x
 _atom_site_fract_y
 _atom_site_fract_z
 _atom_site_occupancy
  Zn  Zn0  1  0.95265900  0.71759300  0.29852800  1
  Zn  Zn1  1  0.04734100  0.28240700  0.70147200  1
  Co  Co0  1  0.46035500  0.76706800  0.74466200  1
  Co  Co1  1  0.53964500  0.23293200  0.25533800  1
  H  H0  1  0.44507900  0.63166800  0.06033100  1
  H  H1  1  0.55492100  0.36833200  0.93966900  1
  H  H2  1  0.28070900  0.54759800  0.93674000  1
  H  H3  1  0.71929100  0.45240200  0.06326000  1
  H  H4  1  0.66575100  0.84096700  0.97409900  1
  H  H5  1  0.33424900  0.15903300  0.02590100  1
  H  H6  1  0.66542500  0.79357000  0.08168000  1
  H  H7  1  0.33457500  0.20643000  0.91832000  1
  H  H8  1  0.02378000  0.69232000  0.76197400  1
  H  H9  1  0.97622000  0.30768000  0.23802600  1
  H  H10  1  0.97935800  0.55254300  0.77166500  1
  H  H11  1  0.02064200  0.44745700  0.22833500  1
  H  H12  1  0.70412900  0.46343300  0.77885700  1
  H  H13  1  0.29587100  0.53656700  0.22114300  1
  H  H14  1  0.52419000  0.52939600  0.76674600  1
  H  H15  1  0.47581000  0.47060400  0.23325400  1
  H  H16  1  0.64827800  0.00476800  0.73298100  1
  H  H17  1  0.35172200  0.99523200  0.26701900  1
  H  H18  1  0.76565800  0.15177800  0.81988700  1
  H  H19  1  0.23434200  0.84822200  0.18011300  1
  H  H20  1  0.72456500  0.09006300  0.04749000  1
  H  H21  1  0.27543500  0.90993700  0.95251000  1
  H  H22  1  0.79958800  0.20016900  0.00308400  1
  H  H23  1  0.20041200  0.79983100  0.99691600  1
  H  H24  1  0.38580600  0.85468200  0.44316800  1
  H  H25  1  0.61419400  0.14531800  0.55683200  1
  H  H26  1  0.53748100  0.78492700  0.39053800  1
  H  H27  1  0.46251900  0.21507300  0.60946200  1
  H  H28  1  0.71742500  0.72483600  0.62129800  1
  H  H29  1  0.28257500  0.27516400  0.37870200  1
  H  H30  1  0.72713400  0.70403800  0.49166300  1
  H  H31  1  0.27286600  0.29596200  0.50833700  1
  H  H32  1  0.30071200  0.90787900  0.62340700  1
  H  H33  1  0.69928800  0.09212100  0.37659300  1
  H  H34  1  0.14779100  0.99815900  0.62932500  1
  H  H35  1  0.85220900  0.00184100  0.37067500  1
  H  H36  1  0.98535700  0.91138000  0.81461900  1
  H  H37  1  0.01464300  0.08862000  0.18538100  1
  H  H38  1  0.97566500  0.00177000  0.74162100  1
  H  H39  1  0.02433500  0.99823000  0.25837900  1
  H  H40  1  0.21907900  0.62407300  0.55576800  1
  H  H41  1  0.78092100  0.37592700  0.44423200  1
  H  H42  1  0.22807600  0.54476100  0.62444900  1
  H  H43  1  0.77192400  0.45523900  0.37555100  1
  C  C0  1  0.46481300  0.69140400  0.93958700  1
  C  C1  1  0.53518700  0.30859600  0.06041300  1
  C  C2  1  0.76228600  0.62473900  0.76132400  1
  C  C3  1  0.23771400  0.37526100  0.23867600  1
  C  C4  1  0.69122000  0.03064100  0.88898300  1
  C  C5  1  0.30878000  0.96935900  0.11101700  1
  C  C6  1  0.55336400  0.80003000  0.54437300  1
  C  C7  1  0.44663600  0.19997000  0.45562700  1
  C  C8  1  0.16427300  0.90692000  0.73049100  1
  C  C9  1  0.83572700  0.09308000  0.26950900  1
  N  N0  1  0.38097300  0.62334100  0.98465900  1
  N  N1  1  0.61902700  0.37665900  0.01534100  1
  N  N2  1  0.61745200  0.77926600  0.00315100  1
  N  N3  1  0.38254800  0.22073400  0.99684900  1
  N  N4  1  0.93915400  0.62687400  0.77304500  1
  N  N5  1  0.06084600  0.37312600  0.22695500  1
  N  N6  1  0.65137100  0.52800500  0.76274500  1
  N  N7  1  0.34862900  0.47199500  0.23725500  1
  N  N8  1  0.70813000  0.06569100  0.80850800  1
  N  N9  1  0.29187000  0.93430900  0.19149200  1
  N  N10  1  0.76410600  0.11190700  0.98984000  1
  N  N11  1  0.23589400  0.88809300  0.01016000  1
  N  N12  1  0.49078500  0.81685400  0.45320300  1
  N  N13  1  0.50921500  0.18314600  0.54679700  1
  N  N14  1  0.68188700  0.74204400  0.55317700  1
  N  N15  1  0.31811300  0.25795600  0.44682300  1
  N  N16  1  0.20986800  0.94307600  0.65659600  1
  N  N17  1  0.79013200  0.05692400  0.34340400  1
  N  N18  1  0.05012200  0.95784100  0.77842000  1
  N  N19  1  0.94987800  0.04215900  0.22158000  1
  Cl  Cl0  1  0.11809500  0.91177800  0.38942100  1
  Cl  Cl1  1  0.88190500  0.08822200  0.61057900  1
  Cl  Cl2  1  0.97480800  0.61947400  0.41586500  1
  Cl  Cl3  1  0.02519200  0.38052600  0.58413500  1
  Cl  Cl4  1  0.65137100  0.71085000  0.23357100  1
  Cl  Cl5  1  0.34862900  0.28915000  0.76642900  1
  Cl  Cl6  1  0.06195800  0.63120500  0.16459400  1
  Cl  Cl7  1  0.93804200  0.36879500  0.83540600  1
  O  O0  1  0.39714000  0.67252700  0.84158800  1
  O  O1  1  0.60286000  0.32747300  0.15841200  1
  O  O2  1  0.70657500  0.71251000  0.74889500  1
  O  O3  1  0.29342500  0.28749000  0.25110500  1
  O  O4  1  0.61637900  0.92320900  0.87401600  1
  O  O5  1  0.38362100  0.07679100  0.12598400  1
  O  O6  1  0.49331100  0.84125500  0.62308300  1
  O  O7  1  0.50668900  0.15874500  0.37691700  1
  O  O8  1  0.22764900  0.82971800  0.76011000  1
  O  O9  1  0.77235100  0.17028200  0.23989000  1
  O  O10  1  0.30116000  0.61311000  0.61500200  1
  O  O11  1  0.69884000  0.38689000  0.38499800  1
loop_
_geom_bond_atom_site_label_1
_geom_bond_atom_site_label_2
_geom_bond_distance
_geom_bond_site_symmetry_2
Co0 O10 2.088327 1_555
Co0 O4 2.095332 1_555
Co0 O0 2.120147 1_555
Co0 O8 2.135370 1_555
Co0 O2 2.149820 1_555
Co0 O6 2.200891 1_555
Co1 O11 2.088327 1_555
Co1 O5 2.095332 1_555
Co1 O1 2.120147 1_555
Co1 O9 2.135370 1_555
Co1 O3 2.149820 1_555
Co1 O7 2.200891 1_555
H0 N0 1.020274 1_554
H1 N1 1.020274 1_556
H2 N0 1.015225 1_555
H3 N1 1.015225 1_555
H4 N2 1.019521 1_556
H5 N3 1.019521 1_554
H6 N2 1.016441 1_555
H7 N3 1.016441 1_555
H8 N4 1.019614 1_455
H9 N5 1.019614 1_655
H10 N4 1.016828 1_555
H11 N5 1.016828 1_555
H12 N6 1.020187 1_555
H13 N7 1.020187 1_555
H14 N6 1.013525 1_555
H15 N7 1.013525 1_555
H16 N8 1.019529 1_555
H17 N9 1.019529 1_555
H18 N8 1.018199 1_555
H19 N9 1.018199 1_555
H20 N10 1.015906 1_554
H21 N11 1.015906 1_556
H22 N10 1.015443 1_554
H23 N11 1.015443 1_556
H24 N12 1.019848 1_555
H25 N13 1.019848 1_555
H26 N12 1.019107 1_555
H27 N13 1.019107 1_555
H28 N14 1.022724 1_555
H29 N15 1.022724 1_555
H30 N14 1.015881 1_555
H31 N15 1.015881 1_555
H32 N16 1.024648 1_555
H33 N17 1.024648 1_555
H34 N16 1.017461 1_555
H35 N17 1.017461 1_555
H36 N18 1.014682 1_655
H37 N19 1.014682 1_455
H38 N18 1.021692 1_645
H39 N19 1.021692 1_465
H40 O10 0.982936 1_555
H41 O11 0.982936 1_555
H42 O10 0.989266 1_555
H43 O11 0.989266 1_555
C0 O0 1.272306 1_555
C0 N2 1.348453 1_556
C0 N0 1.357385 1_555
C1 O1 1.272306 1_555
C1 N3 1.348453 1_554
C1 N1 1.357385 1_555
C2 O2 1.281055 1_555
C2 N6 1.346626 1_555
C2 N4 1.350930 1_555
C3 O3 1.281055 1_555
C3 N7 1.346626 1_555
C3 N5 1.350930 1_555
C4 O4 1.273118 1_545
C4 N8 1.344666 1_555
C4 N10 1.357560 1_555
C5 O5 1.273118 1_565
C5 N9 1.344666 1_555
C5 N11 1.357560 1_555
C6 O6 1.289621 1_555
C6 N14 1.341193 1_555
C6 N12 1.343969 1_555
C7 O7 1.289621 1_555
C7 N15 1.341193 1_555
C7 N13 1.343969 1_555
C8 O8 1.280827 1_555
C8 N16 1.334809 1_555
C8 N18 1.364623 1_555
C9 O9 1.280827 1_555
C9 N17 1.334809 1_555
C9 N19 1.364623 1_555
Cl0 Zn0 2.281946 1_455
Cl1 Zn1 2.281946 1_655
Cl2 Zn0 2.308392 1_555
Cl3 Zn1 2.308392 1_555
Cl4 Zn0 2.298041 1_555
Cl5 Zn1 2.298041 1_555
Cl6 Zn0 2.278228 1_455
Cl7 Zn1 2.278228 1_655
