# generated using pymatgen
data_Ba6Y2Ru3PtO18
_symmetry_space_group_name_H-M   'P 1'
_cell_length_a   5.97091469
_cell_length_b   5.97091469
_cell_length_c   14.78236000
_cell_angle_alpha   90.00000000
_cell_angle_beta   90.00000000
_cell_angle_gamma   120.00000760
_symmetry_Int_Tables_number   1
_chemical_formula_structural   Ba6Y2Ru3PtO18
_chemical_formula_sum   'Ba6 Y2 Ru3 Pt1 O18'
_cell_volume   456.41100212
_cell_formula_units_Z   1
loop_
 _symmetry_equiv_pos_site_id
 _symmetry_equiv_pos_as_xyz
  1  'x, y, z'
loop_
 _atom_site_type_symbol
 _atom_site_label
 _atom_site_symmetry_multiplicity
 _atom_site_fract_x
 _atom_site_fract_y
 _atom_site_fract_z
 _atom_site_occupancy
  Ba  Ba0  1  0.00000000  0.00000000  0.59164200  1
  Ba  Ba1  1  0.33333300  0.66666700  0.40422000  1
  Ba  Ba2  1  0.33333300  0.66666700  0.09536900  1
  Ba  Ba3  1  0.00000000  0.00000000  0.90278900  1
  Ba  Ba4  1  0.66666700  0.33333300  0.25279700  1
  Ba  Ba5  1  0.66666700  0.33333300  0.74934200  1
  Y  Y0  1  0.66666700  0.33333300  0.50027200  1
  Y  Y1  1  0.66666700  0.33333300  0.99727000  1
  Ru  Ru0  1  0.33333300  0.66666700  0.66535800  1
  Ru  Ru1  1  0.33333300  0.66666700  0.83519500  1
  Ru  Ru2  1  0.00000000  0.00000000  0.15711500  1
  Pt  Pt0  1  0.00000000  0.00000000  0.33915200  1
  O  O0  1  0.84165200  0.15834800  0.08635800  1
  O  O1  1  0.84165200  0.68330300  0.08635800  1
  O  O2  1  0.31669700  0.15834800  0.08635800  1
  O  O3  1  0.49023900  0.50976100  0.91154300  1
  O  O4  1  0.49023900  0.98047900  0.91154300  1
  O  O5  1  0.01952100  0.50976100  0.91154300  1
  O  O6  1  0.49012900  0.50987100  0.59095300  1
  O  O7  1  0.49012900  0.98025800  0.59095300  1
  O  O8  1  0.01974200  0.50987100  0.59095300  1
  O  O9  1  0.84054500  0.15945500  0.41628100  1
  O  O10  1  0.84054500  0.68109100  0.41628100  1
  O  O11  1  0.31890900  0.15945500  0.41628100  1
  O  O12  1  0.15196800  0.84803200  0.24775800  1
  O  O13  1  0.15196800  0.30393700  0.24775800  1
  O  O14  1  0.69606300  0.84803200  0.24775800  1
  O  O15  1  0.17703500  0.82296500  0.75025800  1
  O  O16  1  0.17703500  0.35407000  0.75025800  1
  O  O17  1  0.64593000  0.82296500  0.75025800  1
loop_
_geom_bond_atom_site_label_1
_geom_bond_atom_site_label_2
_geom_bond_distance
_geom_bond_site_symmetry_2
Ba0 O16 2.974868 1_555
Ba0 O17 2.974868 1_445
Ba0 O15 2.974868 1_545
Ba0 O6 2.987219 1_445
Ba0 O6 2.987219 1_555
Ba0 O7 2.987220 1_445
Ba0 O8 2.987220 1_555
Ba0 O7 2.987220 1_545
Ba0 O8 2.987220 1_545
Ba0 O11 3.072325 1_555
Ba0 O10 3.072325 1_445
Ba0 O9 3.072327 1_455
Ba1 O14 2.977838 1_555
Ba1 O13 2.977838 1_555
Ba1 O12 2.977838 1_555
Ba1 O9 2.991706 1_565
Ba1 O9 2.991706 1_455
Ba1 O10 2.991706 1_555
Ba1 O11 2.991706 1_555
Ba1 O11 2.991706 1_565
Ba1 O10 2.991706 1_455
Ba1 O7 3.201412 1_555
Ba1 O8 3.201412 1_555
Ba1 O6 3.201415 1_555
Ba2 O13 2.931319 1_555
Ba2 O14 2.931319 1_555
Ba2 O12 2.931319 1_555
Ba2 O2 2.989659 1_565
Ba2 O1 2.989659 1_455
Ba2 O0 2.989665 1_565
Ba2 O0 2.989665 1_455
Ba2 O1 2.989671 1_555
Ba2 O2 2.989671 1_555
Ba2 O5 3.165020 1_554
Ba2 O4 3.165020 1_554
Ba2 O3 3.165021 1_554
Ba3 O17 2.904499 1_445
Ba3 O16 2.904499 1_555
Ba3 O15 2.904499 1_545
Ba3 O4 2.989962 1_545
Ba3 O5 2.989962 1_545
Ba3 O3 2.989965 1_445
Ba3 O3 2.989965 1_555
Ba3 O4 2.989968 1_445
Ba3 O5 2.989968 1_555
Ba3 O0 3.169439 1_456
Ba3 O1 3.169442 1_446
Ba3 O2 3.169442 1_556
Ba4 O14 2.990247 1_545
Ba4 O13 2.990247 1_655
Ba4 O12 2.990253 1_545
Ba4 O12 2.990253 1_655
Ba4 O13 2.990258 1_555
Ba4 O14 2.990258 1_555
Ba4 O9 3.012305 1_555
Ba4 O10 3.012311 1_555
Ba4 O11 3.012311 1_555
Ba4 O2 3.054231 1_555
Ba4 O1 3.054231 1_555
Ba4 O0 3.054231 1_555
Ba5 O7 2.969057 1_545
Ba5 O8 2.969057 1_655
Ba5 O6 2.969061 1_555
Ba5 O16 2.987410 1_655
Ba5 O17 2.987410 1_545
Ba5 O15 2.987413 1_545
Ba5 O15 2.987413 1_655
Ba5 O17 2.987416 1_555
Ba5 O16 2.987416 1_555
Ba5 O5 3.013001 1_655
Ba5 O4 3.013001 1_545
Ba5 O3 3.013008 1_555
O0 Ru2 1.943151 1_655
O0 Y1 2.238137 1_554
O1 Ru2 1.943155 1_665
O1 Y1 2.238137 1_554
O2 Ru2 1.943155 1_555
O2 Y1 2.238137 1_554
O3 Ru1 1.976597 1_555
O3 Y1 2.221509 1_555
O4 Ru1 1.976597 1_555
O4 Y1 2.221500 1_565
O5 Ru1 1.976597 1_555
O5 Y1 2.221500 1_455
O6 Ru0 1.959397 1_555
O6 Y0 2.265000 1_555
O7 Ru0 1.959393 1_555
O7 Y0 2.264995 1_565
O8 Ru0 1.959393 1_555
O8 Y0 2.264995 1_455
O9 Pt0 2.004839 1_655
O9 Y0 2.185218 1_555
O10 Pt0 2.004834 1_665
O10 Y0 2.185227 1_555
O11 Pt0 2.004834 1_555
O11 Y0 2.185227 1_555
O12 Ru2 2.065294 1_565
O12 Pt0 2.072513 1_565
O13 Ru2 2.065297 1_555
O13 Pt0 2.072517 1_555
O14 Ru2 2.065297 1_665
O14 Pt0 2.072517 1_665
O15 Ru0 2.046437 1_555
O15 Ru1 2.046772 1_555
O16 Ru0 2.046441 1_555
O16 Ru1 2.046776 1_555
O17 Ru0 2.046441 1_555
O17 Ru1 2.046776 1_555
