# generated using pymatgen
data_Pr(NiBi)2
_symmetry_space_group_name_H-M   'P 1'
_cell_length_a   4.65198100
_cell_length_b   4.65198100
_cell_length_c   10.34937300
_cell_angle_alpha   90.00000000
_cell_angle_beta   90.00000000
_cell_angle_gamma   90.00000000
_symmetry_Int_Tables_number   1
_chemical_formula_structural   Pr(NiBi)2
_chemical_formula_sum   'Pr2 Ni4 Bi4'
_cell_volume   223.97002791
_cell_formula_units_Z   2
loop_
 _symmetry_equiv_pos_site_id
 _symmetry_equiv_pos_as_xyz
  1  'x, y, z'
loop_
 _atom_site_type_symbol
 _atom_site_label
 _atom_site_symmetry_multiplicity
 _atom_site_fract_x
 _atom_site_fract_y
 _atom_site_fract_z
 _atom_site_occupancy
  Pr  Pr0  1  0.00000000  0.50000000  0.23070700  1
  Pr  Pr1  1  0.50000000  0.00000000  0.76929300  1
  Ni  Ni0  1  0.00000000  0.00000000  0.00000000  1
  Ni  Ni1  1  0.50000000  0.50000000  0.00000000  1
  Ni  Ni2  1  0.00000000  0.50000000  0.62606500  1
  Ni  Ni3  1  0.50000000  0.00000000  0.37393500  1
  Bi  Bi0  1  0.00000000  0.00000000  0.50000000  1
  Bi  Bi1  1  0.50000000  0.50000000  0.50000000  1
  Bi  Bi2  1  0.00000000  0.50000000  0.87502800  1
  Bi  Bi3  1  0.50000000  0.00000000  0.12497200  1
loop_
_geom_bond_atom_site_label_1
_geom_bond_atom_site_label_2
_geom_bond_distance
_geom_bond_site_symmetry_2
Ni0 Pr1 3.333349 1_554
Ni0 Pr0 3.333349 1_555
Ni0 Pr1 3.333349 1_454
Ni0 Pr0 3.333349 1_545
Ni1 Pr1 3.333349 1_564
Ni1 Pr1 3.333349 1_554
Ni1 Pr0 3.333349 1_555
Ni1 Pr0 3.333349 1_655
Ni2 Pr1 3.608010 1_465
Ni2 Pr1 3.608010 1_455
Ni2 Pr1 3.608010 1_565
Ni2 Pr1 3.608010 1_555
Ni3 Pr0 3.608010 1_645
Ni3 Pr0 3.608010 1_555
Ni3 Pr0 3.608010 1_655
Ni3 Pr0 3.608010 1_545
Bi0 Ni2 2.666919 1_555
Bi0 Ni2 2.666919 1_545
Bi0 Ni3 2.666919 1_455
Bi0 Ni3 2.666919 1_555
Bi0 Pr1 3.630107 1_555
Bi0 Pr1 3.630107 1_455
Bi0 Pr0 3.630107 1_555
Bi0 Pr0 3.630107 1_545
Bi1 Ni2 2.666919 1_555
Bi1 Ni2 2.666919 1_655
Bi1 Ni3 2.666919 1_565
Bi1 Ni3 2.666919 1_555
Bi1 Pr1 3.630107 1_555
Bi1 Pr0 3.630107 1_555
Bi1 Pr0 3.630107 1_655
Bi1 Pr1 3.630107 1_565
Bi2 Ni2 2.576611 1_555
Bi2 Ni0 2.661403 1_566
Bi2 Ni1 2.661403 1_556
Bi2 Ni0 2.661403 1_556
Bi2 Ni1 2.661403 1_456
Bi2 Pr1 3.466690 1_565
Bi2 Pr1 3.466690 1_465
Bi2 Pr1 3.466690 1_555
Bi2 Pr1 3.466690 1_455
Bi3 Ni3 2.576611 1_555
Bi3 Ni0 2.661403 1_555
Bi3 Ni1 2.661403 1_545
Bi3 Ni1 2.661403 1_555
Bi3 Ni0 2.661403 1_655
Bi3 Pr0 3.466690 1_655
Bi3 Pr0 3.466690 1_545
Bi3 Pr0 3.466690 1_645
Bi3 Pr0 3.466690 1_555
