# generated using pymatgen
data_Ba2Ho2Fe(CoO4)3
_symmetry_space_group_name_H-M   'P 1'
_cell_length_a   3.95490200
_cell_length_b   3.95490200
_cell_length_c   15.15114700
_cell_angle_alpha   90.00000000
_cell_angle_beta   90.00000000
_cell_angle_gamma   90.00000000
_symmetry_Int_Tables_number   1
_chemical_formula_structural   Ba2Ho2Fe(CoO4)3
_chemical_formula_sum   'Ba2 Ho2 Fe1 Co3 O12'
_cell_volume   236.98287543
_cell_formula_units_Z   1
loop_
 _symmetry_equiv_pos_site_id
 _symmetry_equiv_pos_as_xyz
  1  'x, y, z'
loop_
 _atom_site_type_symbol
 _atom_site_label
 _atom_site_symmetry_multiplicity
 _atom_site_fract_x
 _atom_site_fract_y
 _atom_site_fract_z
 _atom_site_occupancy
  Ba  Ba0  1  0.50000000  0.50000000  0.24569000  1
  Ba  Ba1  1  0.50000000  0.50000000  0.75076100  1
  Ho  Ho0  1  0.50000000  0.50000000  0.99929500  1
  Ho  Ho1  1  0.50000000  0.50000000  0.50421600  1
  Fe  Fe0  1  0.00000000  0.00000000  0.37858600  1
  Co  Co0  1  0.00000000  0.00000000  0.87967100  1
  Co  Co1  1  0.00000000  0.00000000  0.11974200  1
  Co  Co2  1  0.00000000  0.00000000  0.62377800  1
  O  O0  1  0.50000000  0.00000000  0.39200500  1
  O  O1  1  0.50000000  0.00000000  0.89183900  1
  O  O2  1  0.00000000  0.50000000  0.39200500  1
  O  O3  1  0.00000000  0.50000000  0.89183900  1
  O  O4  1  0.50000000  0.00000000  0.10631100  1
  O  O5  1  0.50000000  0.00000000  0.60921800  1
  O  O6  1  0.00000000  0.50000000  0.10631100  1
  O  O7  1  0.00000000  0.50000000  0.60921800  1
  O  O8  1  0.00000000  0.00000000  0.24409100  1
  O  O9  1  0.00000000  0.00000000  0.74740200  1
  O  O10  1  0.00000000  0.00000000  0.00131200  1
  O  O11  1  0.00000000  0.00000000  0.50670800  1
loop_
_geom_bond_atom_site_label_1
_geom_bond_atom_site_label_2
_geom_bond_distance
_geom_bond_site_symmetry_2
Ba0 O8 2.796643 1_555
Ba0 O8 2.796643 1_565
Ba0 O8 2.796643 1_655
Ba0 O8 2.796643 1_665
Ba0 O4 2.893062 1_555
Ba0 O6 2.893062 1_655
Ba0 O4 2.893062 1_565
Ba0 O6 2.893062 1_555
Ba0 O0 2.970638 1_565
Ba0 O2 2.970638 1_555
Ba0 O0 2.970638 1_555
Ba0 O2 2.970638 1_655
Ba1 O9 2.797001 1_565
Ba1 O9 2.797001 1_655
Ba1 O9 2.797001 1_665
Ba1 O9 2.797001 1_555
Ba1 O3 2.911905 1_655
Ba1 O1 2.911905 1_555
Ba1 O1 2.911905 1_565
Ba1 O3 2.911905 1_555
Ba1 O7 2.917081 1_655
Ba1 O5 2.917081 1_555
Ba1 O5 2.917081 1_565
Ba1 O7 2.917081 1_555
Ho0 O4 2.557205 1_556
Ho0 O4 2.557205 1_566
Ho0 O6 2.557205 1_556
Ho0 O6 2.557205 1_656
Ho0 O3 2.561438 1_655
Ho0 O1 2.561438 1_555
Ho0 O1 2.561438 1_565
Ho0 O3 2.561438 1_555
Ho0 O10 2.796705 1_556
Ho0 O10 2.796705 1_566
Ho0 O10 2.796705 1_666
Ho0 O10 2.796705 1_656
Ho1 O7 2.537967 1_555
Ho1 O7 2.537967 1_655
Ho1 O5 2.537967 1_555
Ho1 O5 2.537967 1_565
Ho1 O2 2.607823 1_655
Ho1 O0 2.607823 1_565
Ho1 O2 2.607823 1_555
Ho1 O0 2.607823 1_555
Ho1 O11 2.796793 1_555
Ho1 O11 2.796793 1_655
Ho1 O11 2.796793 1_665
Ho1 O11 2.796793 1_565
Fe0 O11 1.941195 1_555
Fe0 O0 1.987875 1_555
Fe0 O0 1.987875 1_455
Fe0 O2 1.987875 1_545
Fe0 O2 1.987875 1_555
Fe0 O8 2.037754 1_555
Co0 O10 1.843001 1_556
Co0 O1 1.986026 1_555
Co0 O3 1.986026 1_545
Co0 O3 1.986026 1_555
Co0 O1 1.986026 1_455
Co0 O9 2.004027 1_555
Co1 O10 1.794350 1_555
Co1 O8 1.884030 1_555
Co1 O6 1.987894 1_555
Co1 O4 1.987894 1_455
Co1 O4 1.987894 1_555
Co1 O6 1.987894 1_545
Co2 O11 1.773745 1_555
Co2 O9 1.873045 1_555
Co2 O7 1.989718 1_545
Co2 O5 1.989718 1_555
Co2 O5 1.989718 1_455
Co2 O7 1.989718 1_555
