# generated using pymatgen
data_Nd2(Ga3Co)3
_symmetry_space_group_name_H-M   'P 1'
_cell_length_a   7.34697383
_cell_length_b   7.34697383
_cell_length_c   9.54941581
_cell_angle_alpha   90.00000000
_cell_angle_beta   90.00000000
_cell_angle_gamma   119.64042095
_symmetry_Int_Tables_number   1
_chemical_formula_structural   Nd2(Ga3Co)3
_chemical_formula_sum   'Nd4 Ga18 Co6'
_cell_volume   448.00890864
_cell_formula_units_Z   2
loop_
 _symmetry_equiv_pos_site_id
 _symmetry_equiv_pos_as_xyz
  1  'x, y, z'
loop_
 _atom_site_type_symbol
 _atom_site_label
 _atom_site_symmetry_multiplicity
 _atom_site_fract_x
 _atom_site_fract_y
 _atom_site_fract_z
 _atom_site_occupancy
  Nd  Nd0  1  0.33167179  0.00223910  0.25000000  1
  Nd  Nd1  1  0.99776090  0.66832821  0.75000000  1
  Nd  Nd2  1  0.66832821  0.99776090  0.75000000  1
  Nd  Nd3  1  0.00223910  0.33167179  0.25000000  1
  Ga  Ga0  1  0.33426432  0.00455220  0.93213879  1
  Ga  Ga1  1  0.99544780  0.66573568  0.06786121  1
  Ga  Ga2  1  0.33426432  0.00455220  0.56786121  1
  Ga  Ga3  1  0.99544780  0.66573568  0.43213879  1
  Ga  Ga4  1  0.66573568  0.99544780  0.06786121  1
  Ga  Ga5  1  0.00455220  0.33426432  0.93213879  1
  Ga  Ga6  1  0.66573568  0.99544780  0.43213879  1
  Ga  Ga7  1  0.00455220  0.33426432  0.56786121  1
  Ga  Ga8  1  0.66321674  0.66321674  0.94595937  1
  Ga  Ga9  1  0.33678326  0.33678326  0.05404063  1
  Ga  Ga10  1  0.66321674  0.66321674  0.55404063  1
  Ga  Ga11  1  0.33678326  0.33678326  0.44595937  1
  Ga  Ga12  1  0.12696473  0.12696473  0.75000000  1
  Ga  Ga13  1  0.87303527  0.87303527  0.25000000  1
  Ga  Ga14  1  0.45553008  0.66386974  0.25000000  1
  Ga  Ga15  1  0.33613026  0.54446992  0.75000000  1
  Ga  Ga16  1  0.54446992  0.33613026  0.75000000  1
  Ga  Ga17  1  0.66386974  0.45553008  0.25000000  1
  Co  Co0  1  0.00000000  0.00000000  0.00000000  1
  Co  Co1  1  0.00000000  0.00000000  0.50000000  1
  Co  Co2  1  0.32978352  0.67021648  0.00000000  1
  Co  Co3  1  0.32978352  0.67021648  0.50000000  1
  Co  Co4  1  0.67021648  0.32978352  0.00000000  1
  Co  Co5  1  0.67021648  0.32978352  0.50000000  1
loop_
_geom_bond_atom_site_label_1
_geom_bond_atom_site_label_2
_geom_bond_distance
_geom_bond_site_symmetry_2
Ga0 Ga9 2.696058 1_556
Ga0 Ga12 2.740168 1_555
Ga0 Ga16 2.761089 1_555
Ga0 Ga4 2.788572 1_546
Ga0 Ga1 2.818470 1_446
Ga0 Nd2 3.028651 1_545
Ga0 Nd1 3.032959 1_445
Ga0 Nd0 3.035443 1_556
Ga1 Ga8 2.696058 1_554
Ga1 Ga13 2.740168 1_555
Ga1 Ga17 2.761089 1_555
Ga1 Ga5 2.788572 1_654
Ga1 Nd3 3.028651 1_655
Ga1 Nd0 3.032959 1_665
Ga1 Nd1 3.035443 1_554
Ga2 Ga6 2.788572 1_545
Ga2 Ga3 2.818470 1_445
Ga2 Nd2 3.028651 1_545
Ga2 Nd1 3.032959 1_445
Ga2 Nd0 3.035443 1_555
Ga3 Ga7 2.788572 1_655
Ga3 Nd3 3.028651 1_655
Ga3 Nd0 3.032959 1_665
Ga3 Nd1 3.035443 1_555
Ga4 Ga8 2.696058 1_554
Ga4 Ga5 2.818470 1_664
Ga4 Nd0 3.028651 1_565
Ga4 Nd3 3.032959 1_665
Ga4 Nd2 3.035443 1_554
Ga5 Ga9 2.696058 1_556
Ga5 Nd1 3.028651 1_455
Ga5 Nd2 3.032959 1_445
Ga5 Nd3 3.035443 1_556
Ga6 Ga7 2.818470 1_665
Ga6 Nd0 3.028651 1_565
Ga6 Nd3 3.032959 1_665
Ga6 Nd2 3.035443 1_555
Ga7 Nd1 3.028651 1_455
Ga7 Nd2 3.032959 1_445
Ga7 Nd3 3.035443 1_555
Ga8 Ga9 2.622923 1_556
Ga8 Nd2 3.074586 1_555
Ga8 Nd1 3.074586 1_555
Ga9 Nd0 3.074586 1_555
Ga9 Nd3 3.074586 1_555
Ga10 Ga11 2.622923 1_555
Ga10 Ga6 2.696058 1_555
Ga10 Ga3 2.696058 1_555
Ga10 Ga15 2.822066 1_555
Ga10 Ga16 2.822066 1_555
Ga10 Nd2 3.074586 1_555
Ga10 Nd1 3.074586 1_555
Ga11 Ga7 2.696058 1_555
Ga11 Ga2 2.696058 1_555
Ga11 Ga14 2.822066 1_555
Ga11 Ga17 2.822066 1_555
Ga11 Nd0 3.074586 1_555
Ga11 Nd3 3.074586 1_555
Ga12 Ga16 2.666092 1_555
Ga12 Ga15 2.666092 1_555
Ga12 Ga7 2.740168 1_555
Ga12 Ga2 2.740168 1_555
Ga12 Ga5 2.740168 1_555
Ga12 Nd1 3.015204 1_445
Ga12 Nd2 3.015204 1_445
Ga13 Ga17 2.666092 1_555
Ga13 Ga14 2.666092 1_555
Ga13 Ga3 2.740168 1_555
Ga13 Ga4 2.740168 1_555
Ga13 Ga6 2.740168 1_555
Ga13 Nd0 3.015204 1_665
Ga13 Nd3 3.015204 1_665
Ga14 Ga17 2.646375 1_555
Ga14 Ga4 2.761089 1_555
Ga14 Ga6 2.761089 1_555
Ga14 Ga9 2.822066 1_555
Ga14 Nd3 3.001359 1_555
Ga14 Nd0 3.040690 1_565
Ga15 Ga16 2.646375 1_555
Ga15 Ga7 2.761089 1_555
Ga15 Ga5 2.761089 1_555
Ga15 Ga8 2.822066 1_555
Ga15 Nd2 3.001359 1_555
Ga15 Nd1 3.040690 1_455
Ga16 Ga2 2.761089 1_555
Ga16 Ga8 2.822066 1_555
Ga16 Nd1 3.001359 1_555
Ga16 Nd2 3.040690 1_545
Ga17 Ga3 2.761089 1_555
Ga17 Ga9 2.822066 1_555
Ga17 Nd0 3.001359 1_555
Ga17 Nd3 3.040690 1_655
Co0 Ga4 2.524071 1_445
Co0 Ga1 2.524071 1_445
Co0 Ga5 2.524071 1_554
Co0 Ga0 2.524071 1_554
Co0 Ga9 2.540735 1_555
Co0 Ga8 2.540735 1_444
Co0 Ga13 2.564968 1_445
Co0 Ga12 2.564968 1_554
Co1 Ga6 2.524071 1_445
Co1 Ga3 2.524071 1_445
Co1 Ga7 2.524071 1_555
Co1 Ga2 2.524071 1_555
Co1 Ga11 2.540735 1_555
Co1 Ga10 2.540735 1_445
Co1 Ga13 2.564968 1_445
Co1 Ga12 2.564968 1_555
Co2 Ga0 2.524823 1_564
Co2 Ga1 2.524823 1_455
Co2 Ga5 2.527476 1_554
Co2 Ga4 2.527476 1_555
Co2 Ga8 2.528779 1_554
Co2 Ga9 2.528779 1_555
Co2 Ga15 2.568609 1_554
Co2 Ga14 2.568609 1_555
Co3 Ga2 2.524823 1_565
Co3 Ga3 2.524823 1_455
Co3 Ga7 2.527476 1_555
Co3 Ga6 2.527476 1_555
Co3 Ga10 2.528779 1_555
Co3 Ga11 2.528779 1_555
Co3 Ga15 2.568609 1_555
Co3 Ga14 2.568609 1_555
Co4 Ga5 2.524823 1_654
Co4 Ga4 2.524823 1_545
Co4 Ga0 2.527476 1_554
Co4 Ga1 2.527476 1_555
Co4 Ga8 2.528779 1_554
Co4 Ga9 2.528779 1_555
Co4 Ga16 2.568609 1_554
Co4 Ga17 2.568609 1_555
Co5 Ga7 2.524823 1_655
Co5 Ga6 2.524823 1_545
Co5 Ga2 2.527476 1_555
Co5 Ga3 2.527476 1_555
Co5 Ga10 2.528779 1_555
Co5 Ga11 2.528779 1_555
Co5 Ga16 2.568609 1_555
Co5 Ga17 2.568609 1_555
