# generated using pymatgen
data_SnPOF7
_symmetry_space_group_name_H-M   'P 1'
_cell_length_a   10.05736900
_cell_length_b   11.20784900
_cell_length_c   12.48672600
_cell_angle_alpha   90.00000000
_cell_angle_beta   90.00000000
_cell_angle_gamma   90.00000000
_symmetry_Int_Tables_number   1
_chemical_formula_structural   SnPOF7
_chemical_formula_sum   'Sn8 P8 O8 F56'
_cell_volume   1407.52214878
_cell_formula_units_Z   8
loop_
 _symmetry_equiv_pos_site_id
 _symmetry_equiv_pos_as_xyz
  1  'x, y, z'
loop_
 _atom_site_type_symbol
 _atom_site_label
 _atom_site_symmetry_multiplicity
 _atom_site_fract_x
 _atom_site_fract_y
 _atom_site_fract_z
 _atom_site_occupancy
  Sn  Sn0  1  0.65788100  0.44034400  0.00033400  1
  Sn  Sn1  1  0.84211900  0.94034400  0.99966600  1
  Sn  Sn2  1  0.15788100  0.55965600  0.49966600  1
  Sn  Sn3  1  0.34211900  0.05965600  0.50033400  1
  Sn  Sn4  1  0.34211900  0.55965600  0.99966600  1
  Sn  Sn5  1  0.15788100  0.05965600  0.00033400  1
  Sn  Sn6  1  0.84211900  0.44034400  0.50033400  1
  Sn  Sn7  1  0.65788100  0.94034400  0.49966600  1
  P  P0  1  0.56710500  0.30141300  0.24012300  1
  P  P1  1  0.93289500  0.80141300  0.75987700  1
  P  P2  1  0.06710500  0.69858700  0.25987700  1
  P  P3  1  0.43289500  0.19858700  0.74012300  1
  P  P4  1  0.43289500  0.69858700  0.75987700  1
  P  P5  1  0.06710500  0.19858700  0.24012300  1
  P  P6  1  0.93289500  0.30141300  0.74012300  1
  P  P7  1  0.56710500  0.80141300  0.25987700  1
  O  O0  1  0.59766400  0.39745600  0.16392900  1
  O  O1  1  0.90233600  0.89745600  0.83607100  1
  O  O2  1  0.09766400  0.60254400  0.33607100  1
  O  O3  1  0.40233600  0.10254400  0.66392900  1
  O  O4  1  0.40233600  0.60254400  0.83607100  1
  O  O5  1  0.09766400  0.10254400  0.16392900  1
  O  O6  1  0.90233600  0.39745600  0.66392900  1
  O  O7  1  0.59766400  0.89745600  0.33607100  1
  F  F0  1  0.45210500  0.40431800  0.96651200  1
  F  F1  1  0.04789500  0.90431800  0.03348800  1
  F  F2  1  0.95210500  0.59568200  0.53348800  1
  F  F3  1  0.54789500  0.09568200  0.46651200  1
  F  F4  1  0.54789500  0.59568200  0.03348800  1
  F  F5  1  0.95210500  0.09568200  0.96651200  1
  F  F6  1  0.04789500  0.40431800  0.46651200  1
  F  F7  1  0.45210500  0.90431800  0.53348800  1
  F  F8  1  0.69102600  0.27085000  0.98254100  1
  F  F9  1  0.80897400  0.77085000  0.01745900  1
  F  F10  1  0.19102600  0.72915000  0.51745900  1
  F  F11  1  0.30897400  0.22915000  0.48254100  1
  F  F12  1  0.30897400  0.72915000  0.01745900  1
  F  F13  1  0.19102600  0.22915000  0.98254100  1
  F  F14  1  0.80897400  0.27085000  0.48254100  1
  F  F15  1  0.69102600  0.77085000  0.51745900  1
  F  F16  1  0.82213700  0.49713400  0.06107800  1
  F  F17  1  0.67786300  0.99713400  0.93892200  1
  F  F18  1  0.32213700  0.50286600  0.43892200  1
  F  F19  1  0.17786300  0.00286600  0.56107800  1
  F  F20  1  0.17786300  0.50286600  0.93892200  1
  F  F21  1  0.32213700  0.00286600  0.06107800  1
  F  F22  1  0.67786300  0.49713400  0.56107800  1
  F  F23  1  0.82213700  0.99713400  0.43892200  1
  F  F24  1  0.68370500  0.48854600  0.85186200  1
  F  F25  1  0.81629500  0.98854600  0.14813800  1
  F  F26  1  0.18370500  0.51145400  0.64813800  1
  F  F27  1  0.31629500  0.01145400  0.35186200  1
  F  F28  1  0.31629500  0.51145400  0.14813800  1
  F  F29  1  0.18370500  0.01145400  0.85186200  1
  F  F30  1  0.81629500  0.48854600  0.35186200  1
  F  F31  1  0.68370500  0.98854600  0.64813800  1
  F  F32  1  0.45164400  0.21990100  0.20761300  1
  F  F33  1  0.04835600  0.71990100  0.79238700  1
  F  F34  1  0.95164400  0.78009900  0.29238700  1
  F  F35  1  0.54835600  0.28009900  0.70761300  1
  F  F36  1  0.54835600  0.78009900  0.79238700  1
  F  F37  1  0.95164400  0.28009900  0.20761300  1
  F  F38  1  0.04835600  0.21990100  0.70761300  1
  F  F39  1  0.45164400  0.71990100  0.29238700  1
  F  F40  1  0.68093900  0.21408400  0.26185200  1
  F  F41  1  0.81906100  0.71408400  0.73814800  1
  F  F42  1  0.18093900  0.78591600  0.23814800  1
  F  F43  1  0.31906100  0.28591600  0.76185200  1
  F  F44  1  0.31906100  0.78591600  0.73814800  1
  F  F45  1  0.18093900  0.28591600  0.26185200  1
  F  F46  1  0.81906100  0.21408400  0.76185200  1
  F  F47  1  0.68093900  0.71408400  0.23814800  1
  F  F48  1  0.52802300  0.34797600  0.35041900  1
  F  F49  1  0.97197700  0.84797600  0.64958100  1
  F  F50  1  0.02802300  0.65202400  0.14958100  1
  F  F51  1  0.47197700  0.15202400  0.85041900  1
  F  F52  1  0.47197700  0.65202400  0.64958100  1
  F  F53  1  0.02802300  0.15202400  0.35041900  1
  F  F54  1  0.97197700  0.34797600  0.85041900  1
  F  F55  1  0.52802300  0.84797600  0.14958100  1
loop_
_geom_bond_atom_site_label_1
_geom_bond_atom_site_label_2
_geom_bond_distance
_geom_bond_site_symmetry_2
O0 P0 1.469136 1_555
O0 Sn0 2.184200 1_555
O1 P1 1.469136 1_555
O1 Sn1 2.184200 1_555
O2 P2 1.469136 1_555
O2 Sn2 2.184200 1_555
O3 P3 1.469136 1_555
O3 Sn3 2.184200 1_555
O4 P4 1.469136 1_555
O4 Sn4 2.184200 1_555
O5 P5 1.469136 1_555
O5 Sn5 2.184200 1_555
O6 P6 1.469136 1_555
O6 Sn6 2.184200 1_555
O7 P7 1.469136 1_555
O7 Sn7 2.184200 1_555
F0 Sn4 2.103828 1_555
F0 Sn0 2.150463 1_556
F1 Sn5 2.103828 1_565
F1 Sn1 2.150463 1_454
F2 Sn6 2.103828 1_555
F2 Sn2 2.150463 1_655
F3 Sn7 2.103828 1_545
F3 Sn3 2.150463 1_555
F4 Sn0 2.103828 1_555
F4 Sn4 2.150463 1_554
F5 Sn1 2.103828 1_545
F5 Sn5 2.150463 1_656
F6 Sn2 2.103828 1_555
F6 Sn6 2.150463 1_455
F7 Sn3 2.103828 1_565
F7 Sn7 2.150463 1_555
F8 Sn0 1.941444 1_556
F9 Sn1 1.941444 1_554
F10 Sn2 1.941444 1_555
F11 Sn3 1.941444 1_555
F12 Sn4 1.941444 1_554
F13 Sn5 1.941444 1_556
F14 Sn6 1.941444 1_555
F15 Sn7 1.941444 1_555
F16 Sn0 1.926002 1_555
F17 Sn1 1.926002 1_555
F18 Sn2 1.926002 1_555
F19 Sn3 1.926002 1_555
F20 Sn4 1.926002 1_555
F21 Sn5 1.926002 1_555
F22 Sn6 1.926002 1_555
F23 Sn7 1.926002 1_555
F24 Sn0 1.948427 1_556
F25 Sn1 1.948427 1_554
F26 Sn2 1.948427 1_555
F27 Sn3 1.948427 1_555
F28 Sn4 1.948427 1_554
F29 Sn5 1.948427 1_556
F30 Sn6 1.948427 1_555
F31 Sn7 1.948427 1_555
F32 P0 1.532277 1_555
F33 P1 1.532277 1_455
F34 P2 1.532277 1_655
F35 P3 1.532277 1_555
F36 P4 1.532277 1_555
F37 P5 1.532277 1_655
F38 P6 1.532277 1_455
F39 P7 1.532277 1_555
F40 P0 1.530469 1_555
F41 P1 1.530469 1_555
F42 P2 1.530469 1_555
F43 P3 1.530469 1_555
F44 P4 1.530469 1_555
F45 P5 1.530469 1_555
F46 P6 1.530469 1_555
F47 P7 1.530469 1_555
F48 P0 1.524344 1_555
F49 P1 1.524344 1_555
F50 P2 1.524344 1_555
F51 P3 1.524344 1_555
F52 P4 1.524344 1_555
F53 P5 1.524344 1_555
F54 P6 1.524344 1_555
F55 P7 1.524344 1_555
