# generated using pymatgen
data_TaZn2MoO6
_symmetry_space_group_name_H-M   'P 1'
_cell_length_a   7.85846800
_cell_length_b   5.39094900
_cell_length_c   5.40205421
_cell_angle_alpha   88.31632659
_cell_angle_beta   90.00000000
_cell_angle_gamma   90.00000000
_symmetry_Int_Tables_number   1
_chemical_formula_structural   TaZn2MoO6
_chemical_formula_sum   'Ta2 Zn4 Mo2 O12'
_cell_volume   228.75706375
_cell_formula_units_Z   2
loop_
 _symmetry_equiv_pos_site_id
 _symmetry_equiv_pos_as_xyz
  1  'x, y, z'
loop_
 _atom_site_type_symbol
 _atom_site_label
 _atom_site_symmetry_multiplicity
 _atom_site_fract_x
 _atom_site_fract_y
 _atom_site_fract_z
 _atom_site_occupancy
  Ta  Ta0  1  0.00000000  0.50000000  0.00000000  1
  Ta  Ta1  1  0.50000000  0.50000000  0.00000000  1
  Zn  Zn0  1  0.25000000  0.98460500  0.97988700  1
  Zn  Zn1  1  0.25000000  0.46899800  0.50585100  1
  Zn  Zn2  1  0.75000000  0.53100200  0.49414900  1
  Zn  Zn3  1  0.75000000  0.01539500  0.02011300  1
  Mo  Mo0  1  0.00000000  0.00000000  0.50000000  1
  Mo  Mo1  1  0.50000000  0.00000000  0.50000000  1
  O  O0  1  0.56743100  0.81941300  0.84705900  1
  O  O1  1  0.43391700  0.66108600  0.31261300  1
  O  O2  1  0.43256900  0.18058700  0.15294100  1
  O  O3  1  0.93391700  0.33891400  0.68738700  1
  O  O4  1  0.75000000  0.42396400  0.12148100  1
  O  O5  1  0.56608300  0.33891400  0.68738700  1
  O  O6  1  0.06608300  0.66108600  0.31261300  1
  O  O7  1  0.93256900  0.81941300  0.84705900  1
  O  O8  1  0.25000000  0.10330100  0.62291000  1
  O  O9  1  0.06743100  0.18058700  0.15294100  1
  O  O10  1  0.75000000  0.89669900  0.37709000  1
  O  O11  1  0.25000000  0.57603600  0.87851900  1
loop_
_geom_bond_atom_site_label_1
_geom_bond_atom_site_label_2
_geom_bond_distance
_geom_bond_site_symmetry_2
Mo0 O8 2.152307 1_555
Mo0 O10 2.152307 1_445
Mo0 O9 2.153209 1_555
Mo0 O7 2.153209 1_445
Mo0 O3 2.177440 1_455
Mo0 O6 2.177440 1_545
Mo1 O8 2.152307 1_555
Mo1 O10 2.152307 1_545
Mo1 O2 2.153209 1_555
Mo1 O0 2.153209 1_545
Mo1 O5 2.177440 1_555
Mo1 O1 2.177440 1_545
O0 Ta1 1.960835 1_556
O0 Zn3 2.026483 1_566
O1 Ta1 1.990446 1_555
O1 Zn1 2.046317 1_555
O2 Ta1 1.960835 1_555
O2 Zn0 2.026483 1_544
O3 Ta0 1.990446 1_656
O3 Zn2 2.046317 1_555
O4 Ta0 2.107747 1_655
O4 Ta1 2.107747 1_555
O4 Zn2 2.110474 1_555
O4 Zn3 2.285185 1_555
O5 Ta1 1.990446 1_556
O5 Zn2 2.046317 1_555
O6 Ta0 1.990446 1_555
O6 Zn1 2.046317 1_555
O7 Ta0 1.960835 1_656
O7 Zn3 2.026483 1_566
O8 Zn0 2.013877 1_545
O8 Zn1 2.052620 1_555
O9 Ta0 1.960835 1_555
O9 Zn0 2.026483 1_544
O10 Zn3 2.013877 1_565
O10 Zn2 2.052620 1_555
O11 Ta1 2.107747 1_556
O11 Ta0 2.107747 1_556
O11 Zn1 2.110474 1_555
O11 Zn0 2.285185 1_555
