# generated using pymatgen
data_SnH7C2SeClO3
_symmetry_space_group_name_H-M   'P 1'
_cell_length_a   7.12946000
_cell_length_b   7.77169263
_cell_length_c   8.01348465
_cell_angle_alpha   107.80012316
_cell_angle_beta   86.73360578
_cell_angle_gamma   103.90537331
_symmetry_Int_Tables_number   1
_chemical_formula_structural   SnH7C2SeClO3
_chemical_formula_sum   'Sn2 H14 C4 Se2 Cl2 O6'
_cell_volume   410.30097523
_cell_formula_units_Z   2
loop_
 _symmetry_equiv_pos_site_id
 _symmetry_equiv_pos_as_xyz
  1  'x, y, z'
loop_
 _atom_site_type_symbol
 _atom_site_label
 _atom_site_symmetry_multiplicity
 _atom_site_fract_x
 _atom_site_fract_y
 _atom_site_fract_z
 _atom_site_occupancy
  Sn  Sn0  1  0.22039200  0.92296100  0.83241600  1
  Sn  Sn1  1  0.77960800  0.07703900  0.16758400  1
  H  H0  1  0.71637600  0.51359600  0.61452000  1
  H  H1  1  0.28362400  0.48640400  0.38548000  1
  H  H2  1  0.19827100  0.71858800  0.05234600  1
  H  H3  1  0.80172900  0.28141200  0.94765400  1
  H  H4  1  0.02170100  0.60342700  0.87592000  1
  H  H5  1  0.97829900  0.39657300  0.12408000  1
  H  H6  1  0.27292900  0.59746700  0.83891200  1
  H  H7  1  0.72707100  0.40253300  0.16108800  1
  H  H8  1  0.41588800  0.20467700  0.72218900  1
  H  H9  1  0.58411200  0.79532300  0.27781100  1
  H  H10  1  0.18429200  0.24623300  0.80410600  1
  H  H11  1  0.81570800  0.75376700  0.19589400  1
  H  H12  1  0.38112200  0.29012400  0.95494100  1
  H  H13  1  0.61887800  0.70987600  0.04505900  1
  C  C0  1  0.17177100  0.67860800  0.91110000  1
  C  C1  1  0.82822900  0.32139200  0.08890000  1
  C  C2  1  0.31299000  0.20314300  0.82880500  1
  C  C3  1  0.68701000  0.79685700  0.17119500  1
  Se  Se0  1  0.72327500  0.83371900  0.68708700  1
  Se  Se1  1  0.27672500  0.16628100  0.31291300  1
  Cl  Cl0  1  0.17518000  0.76711100  0.50602400  1
  Cl  Cl1  1  0.82482000  0.23288900  0.49397600  1
  O  O0  1  0.90728900  0.92635500  0.84331000  1
  O  O1  1  0.09271100  0.07364500  0.15669000  1
  O  O2  1  0.64336200  0.59599200  0.69759000  1
  O  O3  1  0.35663800  0.40400800  0.30241000  1
  O  O4  1  0.55151100  0.92098600  0.81300900  1
  O  O5  1  0.44848900  0.07901400  0.18699100  1
loop_
_geom_bond_atom_site_label_1
_geom_bond_atom_site_label_2
_geom_bond_distance
_geom_bond_site_symmetry_2
H0 O2 0.992101 1_555
H1 O3 0.992101 1_555
C0 H2 1.092935 1_556
C0 H4 1.094892 1_555
C0 H6 1.095649 1_555
C0 Sn0 2.124819 1_555
C1 H3 1.092935 1_554
C1 H5 1.094892 1_555
C1 H7 1.095649 1_555
C1 Sn1 2.124819 1_555
C2 H12 1.093150 1_555
C2 H8 1.094925 1_555
C2 H10 1.096412 1_555
C2 Sn0 2.126862 1_545
C3 H13 1.093150 1_555
C3 H9 1.094925 1_555
C3 H11 1.096412 1_555
C3 Sn1 2.126862 1_565
Cl0 Sn0 2.526563 1_555
Cl1 Sn1 2.526563 1_555
O0 Se0 1.728824 1_555
O0 Sn0 2.235166 1_655
O0 Sn1 2.708294 1_566
O1 Se1 1.728824 1_555
O1 Sn1 2.235166 1_455
O1 Sn0 2.708294 1_544
O2 Se0 1.824493 1_555
O3 Se1 1.824493 1_555
O4 Se0 1.678618 1_555
O4 Sn0 2.360391 1_555
O5 Se1 1.678618 1_555
O5 Sn1 2.360391 1_555
