# generated using pymatgen
data_CaF2
_symmetry_space_group_name_H-M   'P 1'
_cell_length_a   3.56361707
_cell_length_b   5.92909833
_cell_length_c   6.99178186
_cell_angle_alpha   90.00000000
_cell_angle_beta   90.00000000
_cell_angle_gamma   90.00000000
_symmetry_Int_Tables_number   1
_chemical_formula_structural   CaF2
_chemical_formula_sum   'Ca4 F8'
_cell_volume   147.72961075
_cell_formula_units_Z   4
loop_
 _symmetry_equiv_pos_site_id
 _symmetry_equiv_pos_as_xyz
  1  'x, y, z'
loop_
 _atom_site_type_symbol
 _atom_site_label
 _atom_site_symmetry_multiplicity
 _atom_site_fract_x
 _atom_site_fract_y
 _atom_site_fract_z
 _atom_site_occupancy
  Ca  Ca0  1  0.25000000  0.74906968  0.38814077  1
  Ca  Ca1  1  0.75000000  0.25093032  0.61185923  1
  Ca  Ca2  1  0.25000000  0.24906968  0.11185923  1
  Ca  Ca3  1  0.75000000  0.75093032  0.88814077  1
  F  F0  1  0.25000000  0.97858423  0.66573719  1
  F  F1  1  0.75000000  0.02141577  0.33426281  1
  F  F2  1  0.25000000  0.47858423  0.83426281  1
  F  F3  1  0.75000000  0.52141577  0.16573719  1
  F  F4  1  0.75000000  0.14348926  0.92648095  1
  F  F5  1  0.25000000  0.85651074  0.07351905  1
  F  F6  1  0.75000000  0.64348926  0.57351905  1
  F  F7  1  0.25000000  0.35651074  0.42648095  1
loop_
_geom_bond_atom_site_label_1
_geom_bond_atom_site_label_2
_geom_bond_distance
_geom_bond_site_symmetry_2
Ca0 F5 2.290148 1_555
Ca0 F6 2.290557 1_455
Ca0 F6 2.290557 1_555
Ca0 F7 2.342907 1_555
Ca0 F0 2.370418 1_555
Ca0 F1 2.433972 1_565
Ca0 F1 2.433972 1_465
Ca0 F3 2.723008 1_455
Ca0 F3 2.723008 1_555
Ca1 F4 2.290148 1_555
Ca1 F7 2.290557 1_555
Ca1 F7 2.290557 1_655
Ca1 F6 2.342907 1_555
Ca1 F1 2.370418 1_555
Ca1 F0 2.433972 1_645
Ca1 F0 2.433972 1_545
Ca1 F2 2.723008 1_655
Ca1 F2 2.723008 1_555
Ca2 F7 2.290148 1_555
Ca2 F4 2.290557 1_554
Ca2 F4 2.290557 1_454
Ca2 F5 2.342907 1_545
Ca2 F2 2.370418 1_554
Ca2 F3 2.433972 1_555
Ca2 F3 2.433972 1_455
Ca2 F1 2.723008 1_555
Ca2 F1 2.723008 1_455
Ca3 F6 2.290148 1_555
Ca3 F5 2.290557 1_556
Ca3 F5 2.290557 1_656
Ca3 F4 2.342907 1_565
Ca3 F3 2.370418 1_556
Ca3 F2 2.433972 1_655
Ca3 F2 2.433972 1_555
Ca3 F0 2.723008 1_555
Ca3 F0 2.723008 1_655
