# generated using pymatgen
data_LaCuPbS3
_symmetry_space_group_name_H-M   'P 1'
_cell_length_a   4.15847600
_cell_length_b   8.11425200
_cell_length_c   16.04067800
_cell_angle_alpha   90.00000000
_cell_angle_beta   90.00000000
_cell_angle_gamma   90.00000000
_symmetry_Int_Tables_number   1
_chemical_formula_structural   LaCuPbS3
_chemical_formula_sum   'La4 Cu4 Pb4 S12'
_cell_volume   541.25934979
_cell_formula_units_Z   4
loop_
 _symmetry_equiv_pos_site_id
 _symmetry_equiv_pos_as_xyz
  1  'x, y, z'
loop_
 _atom_site_type_symbol
 _atom_site_label
 _atom_site_symmetry_multiplicity
 _atom_site_fract_x
 _atom_site_fract_y
 _atom_site_fract_z
 _atom_site_occupancy
  La  La0  1  0.25000000  0.24930500  0.96140600  1
  La  La1  1  0.25000000  0.74930500  0.53859400  1
  La  La2  1  0.75000000  0.75069500  0.03859400  1
  La  La3  1  0.75000000  0.25069500  0.46140600  1
  Cu  Cu0  1  0.25000000  0.12310800  0.63261600  1
  Cu  Cu1  1  0.25000000  0.62310800  0.86738400  1
  Cu  Cu2  1  0.75000000  0.87689200  0.36738400  1
  Cu  Cu3  1  0.75000000  0.37689200  0.13261600  1
  Pb  Pb0  1  0.25000000  0.08823600  0.22088200  1
  Pb  Pb1  1  0.25000000  0.58823600  0.27911800  1
  Pb  Pb2  1  0.75000000  0.91176400  0.77911800  1
  Pb  Pb3  1  0.75000000  0.41176400  0.72088200  1
  S  S0  1  0.25000000  0.18078500  0.77899900  1
  S  S1  1  0.25000000  0.68078500  0.72100100  1
  S  S2  1  0.75000000  0.81921500  0.22100100  1
  S  S3  1  0.75000000  0.31921500  0.27899900  1
  S  S4  1  0.25000000  0.37739600  0.56430200  1
  S  S5  1  0.25000000  0.87739600  0.93569800  1
  S  S6  1  0.75000000  0.62260400  0.43569800  1
  S  S7  1  0.75000000  0.12260400  0.06430200  1
  S  S8  1  0.25000000  0.01077700  0.40218000  1
  S  S9  1  0.25000000  0.51077700  0.09782000  1
  S  S10  1  0.75000000  0.98922300  0.59782000  1
  S  S11  1  0.75000000  0.48922300  0.90218000  1
loop_
_geom_bond_atom_site_label_1
_geom_bond_atom_site_label_2
_geom_bond_distance
_geom_bond_site_symmetry_2
La0 S7 2.846824 1_556
La0 S7 2.846824 1_456
La0 S0 2.978288 1_555
La0 S11 3.002605 1_455
La0 S11 3.002605 1_555
La0 S5 3.045808 1_545
La0 S9 3.047868 1_556
La1 S6 2.846824 1_555
La1 S6 2.846824 1_455
La1 S1 2.978288 1_555
La1 S10 3.002605 1_455
La1 S10 3.002605 1_555
La1 S4 3.045808 1_555
La1 S8 3.047868 1_565
La2 S5 2.846824 1_554
La2 S5 2.846824 1_654
La2 S2 2.978288 1_555
La2 S9 3.002605 1_555
La2 S9 3.002605 1_655
La2 S7 3.045808 1_565
La2 S11 3.047868 1_554
La3 S4 2.846824 1_555
La3 S4 2.846824 1_655
La3 S3 2.978288 1_555
La3 S8 3.002605 1_555
La3 S8 3.002605 1_655
La3 S6 3.045808 1_555
La3 S10 3.047868 1_545
Cu0 S4 2.336285 1_555
Cu0 S0 2.394268 1_555
Cu0 S10 2.411427 1_445
Cu0 S10 2.411427 1_545
Cu1 S5 2.336285 1_555
Cu1 S1 2.394268 1_555
Cu1 S11 2.411427 1_455
Cu1 S11 2.411427 1_555
Cu2 S6 2.336285 1_555
Cu2 S2 2.394268 1_555
Cu2 S8 2.411427 1_565
Cu2 S8 2.411427 1_665
Cu3 S7 2.336285 1_555
Cu3 S3 2.394268 1_555
Cu3 S9 2.411427 1_555
Cu3 S9 2.411427 1_655
Pb0 S3 2.950424 1_555
Pb0 S3 2.950424 1_455
Pb0 S8 2.975287 1_555
Pb0 S2 3.014682 1_445
Pb0 S2 3.014682 1_545
Pb1 S2 2.950424 1_455
Pb1 S2 2.950424 1_555
Pb1 S9 2.975287 1_555
Pb1 S3 3.014682 1_455
Pb1 S3 3.014682 1_555
Pb2 S1 2.950424 1_555
Pb2 S1 2.950424 1_655
Pb2 S10 2.975287 1_555
Pb2 S0 3.014682 1_565
Pb2 S0 3.014682 1_665
Pb3 S0 2.950424 1_555
Pb3 S0 2.950424 1_655
Pb3 S11 2.975287 1_555
Pb3 S1 3.014682 1_655
Pb3 S1 3.014682 1_555
