# generated using pymatgen
data_Na6W6Se2O25
_symmetry_space_group_name_H-M   'P 1'
_cell_length_a   21.86272646
_cell_length_b   21.86272646
_cell_length_c   6.90209252
_cell_angle_alpha   81.78276737
_cell_angle_beta   81.78276737
_cell_angle_gamma   19.51038191
_symmetry_Int_Tables_number   1
_chemical_formula_structural   Na6W6Se2O25
_chemical_formula_sum   'Na12 W12 Se4 O50'
_cell_volume   1090.16220234
_cell_formula_units_Z   2
loop_
 _symmetry_equiv_pos_site_id
 _symmetry_equiv_pos_as_xyz
  1  'x, y, z'
loop_
 _atom_site_type_symbol
 _atom_site_label
 _atom_site_symmetry_multiplicity
 _atom_site_fract_x
 _atom_site_fract_y
 _atom_site_fract_z
 _atom_site_occupancy
  Na  Na0  1  0.99603300  0.23556500  0.48914100  1
  Na  Na1  1  0.76443500  0.00396700  0.51085900  1
  Na  Na2  1  0.84114000  0.08476200  0.77051600  1
  Na  Na3  1  0.91523800  0.15886000  0.22948400  1
  Na  Na4  1  0.41761100  0.65464300  0.18507000  1
  Na  Na5  1  0.34535700  0.58238900  0.81493000  1
  Na  Na6  1  0.06551600  0.29162500  0.73937900  1
  Na  Na7  1  0.70837500  0.93448400  0.26062100  1
  Na  Na8  1  0.68981100  0.81380400  0.04754700  1
  Na  Na9  1  0.18619600  0.31018900  0.95245300  1
  Na  Na10  1  0.34163600  0.02228500  0.24076700  1
  Na  Na11  1  0.97771500  0.65836400  0.75923300  1
  W  W0  1  0.74739100  0.46903200  0.96519300  1
  W  W1  1  0.53096800  0.25260900  0.03480700  1
  W  W2  1  0.67503200  0.41565200  0.69874100  1
  W  W3  1  0.58434800  0.32496800  0.30125900  1
  W  W4  1  0.23500000  0.98167700  0.96670900  1
  W  W5  1  0.01832300  0.76500000  0.03329100  1
  W  W6  1  0.17454500  0.91647700  0.69915500  1
  W  W7  1  0.08352300  0.82545500  0.30084500  1
  W  W8  1  0.56616700  0.79673100  0.76780800  1
  W  W9  1  0.20326900  0.43383300  0.23219200  1
  W  W10  1  0.40591900  0.09635300  0.47482900  1
  W  W11  1  0.90364700  0.59408100  0.52517100  1
  Se  Se0  1  0.49326300  0.73470800  0.50188400  1
  Se  Se1  1  0.26529200  0.50673700  0.49811600  1
  Se  Se2  1  0.92646500  0.45213100  0.23208000  1
  Se  Se3  1  0.54786900  0.07353500  0.76792000  1
  O  O0  1  0.80576700  0.41813100  0.21025900  1
  O  O1  1  0.58186900  0.19423300  0.78974100  1
  O  O2  1  0.73847900  0.39147000  0.96357000  1
  O  O3  1  0.60853000  0.26152100  0.03643000  1
  O  O4  1  0.48363100  0.71978800  0.01315500  1
  O  O5  1  0.28021200  0.51636900  0.98684500  1
  O  O6  1  0.00250200  0.23678200  0.85599400  1
  O  O7  1  0.76321800  0.99749800  0.14400600  1
  O  O8  1  0.72029400  0.58298600  0.85924400  1
  O  O9  1  0.41701400  0.27970600  0.14075600  1
  O  O10  1  0.66831000  0.53445400  0.65092400  1
  O  O11  1  0.46554600  0.33169000  0.34907600  1
  O  O12  1  0.93971900  0.18097800  0.64775100  1
  O  O13  1  0.81902200  0.06028100  0.35224900  1
  O  O14  1  0.37175300  0.10660900  0.23707900  1
  O  O15  1  0.89339100  0.62824700  0.76292100  1
  O  O16  1  0.42332100  0.66426200  0.79406400  1
  O  O17  1  0.33573800  0.57667900  0.20593600  1
  O  O18  1  0.68222900  0.32828100  0.77861300  1
  O  O19  1  0.67171900  0.31777100  0.22138700  1
  O  O20  1  0.29399300  0.90762300  0.65420500  1
  O  O21  1  0.09237700  0.70600700  0.34579500  1
  O  O22  1  0.57977500  0.82308200  0.97680000  1
  O  O23  1  0.17691800  0.42022500  0.02320000  1
  O  O24  1  0.08641400  0.92442100  0.77778900  1
  O  O25  1  0.07557900  0.91358600  0.22221100  1
  O  O26  1  0.52559000  0.78207900  0.50594800  1
  O  O27  1  0.21792100  0.47441000  0.49405200  1
  O  O28  1  0.15189600  0.97838900  0.96864800  1
  O  O29  1  0.02161100  0.84810400  0.03135200  1
  O  O30  1  0.18737400  0.04015500  0.21048500  1
  O  O31  1  0.95984500  0.81262600  0.78951500  1
  O  O32  1  0.23016500  0.86491900  0.44509100  1
  O  O33  1  0.13508100  0.76983500  0.55490900  1
  O  O34  1  0.05148800  0.29465200  0.41413800  1
  O  O35  1  0.70534800  0.94851200  0.58586200  1
  O  O36  1  0.62392500  0.47071100  0.44451300  1
  O  O37  1  0.52928900  0.37607500  0.55548700  1
  O  O38  1  0.37203900  0.21570000  0.37617100  1
  O  O39  1  0.78430000  0.62796100  0.62382900  1
  O  O40  1  0.67353100  0.84476300  0.42372600  1
  O  O41  1  0.15523700  0.32646900  0.57627400  1
  O  O42  1  0.34589200  0.95926200  0.85931300  1
  O  O43  1  0.04073800  0.65410800  0.14068700  1
  O  O44  1  0.07623000  0.31416200  0.03836400  1
  O  O45  1  0.68583800  0.92377000  0.96163600  1
  O  O46  1  0.42688200  0.99141000  0.60913500  1
  O  O47  1  0.00859000  0.57311800  0.39086500  1
  O  O48  1  0.93828700  0.52255500  0.26663700  1
  O  O49  1  0.47744500  0.06171300  0.73336300  1
loop_
_geom_bond_atom_site_label_1
_geom_bond_atom_site_label_2
_geom_bond_distance
_geom_bond_site_symmetry_2
Na0 O0 2.394318 1_555
Na0 O30 2.410038 1_655
Na0 O34 2.447158 1_655
Na0 O12 2.479851 1_555
Na0 O6 2.561391 1_655
Na0 O10 2.611456 1_555
Na0 O20 2.622533 1_645
Na1 O1 2.394318 1_555
Na1 O31 2.410038 1_545
Na1 O35 2.447158 1_545
Na1 O13 2.479851 1_555
Na1 O7 2.561391 1_545
Na1 O11 2.611456 1_555
Na1 O21 2.622533 1_645
Na2 O18 2.361868 1_555
Na2 O24 2.373986 1_645
Na2 O29 2.542103 1_646
Na2 O3 2.544754 1_556
Na2 O37 2.753430 1_555
Na2 O33 2.775143 1_645
Na3 O19 2.361868 1_555
Na3 O25 2.373986 1_645
Na3 O28 2.542103 1_644
Na3 O2 2.544754 1_554
Na3 O36 2.753430 1_555
Na3 O32 2.775143 1_645
Na4 O36 2.404056 1_555
Na4 O32 2.426852 1_555
Na4 O16 2.670967 1_554
Na4 O19 2.811757 1_555
Na4 O2 2.830586 1_554
Na4 O28 2.832157 1_554
Na4 O25 2.844979 1_555
Na4 O4 2.902153 1_555
Na5 O37 2.404056 1_555
Na5 O33 2.426852 1_555
Na5 O17 2.670967 1_556
Na5 O18 2.811757 1_555
Na5 O3 2.830586 1_556
Na5 O29 2.832157 1_556
Na5 O24 2.844979 1_555
Na5 O5 2.902153 1_555
Na6 O44 2.280916 1_556
Na6 O34 2.292124 1_555
Na6 O6 2.550405 1_555
Na6 O42 2.612113 1_545
Na6 O39 2.646736 1_455
Na6 O8 2.704381 1_455
Na6 O41 2.763313 1_555
Na6 O46 2.864759 1_545
Na7 O45 2.280916 1_554
Na7 O35 2.292124 1_555
Na7 O7 2.550405 1_555
Na7 O43 2.612113 1_655
Na7 O38 2.646736 1_565
Na7 O9 2.704381 1_565
Na7 O40 2.763313 1_555
Na7 O47 2.864759 1_655
Na8 O45 2.313583 1_554
Na8 O22 2.335483 1_554
Na8 O15 2.422152 1_554
Na8 O48 2.594080 1_555
Na8 O14 2.630879 1_565
Na8 O40 2.666506 1_555
Na8 O49 2.777495 1_564
Na9 O44 2.313583 1_556
Na9 O23 2.335483 1_556
Na9 O14 2.422152 1_556
Na9 O49 2.594080 1_555
Na9 O15 2.630879 1_455
Na9 O41 2.666506 1_555
Na9 O48 2.777495 1_456
Na10 O34 2.405793 1_555
Na10 O14 2.470427 1_555
Na10 O22 2.490899 1_544
Na10 O44 2.511484 1_555
Na10 O26 2.577684 1_545
Na11 O35 2.405793 1_555
Na11 O15 2.470427 1_555
Na11 O23 2.490899 1_656
Na11 O45 2.511484 1_555
Na11 O27 2.577684 1_655
O0 W0 1.769149 1_554
O1 W1 1.769149 1_556
O2 W0 1.882138 1_555
O2 W2 2.147277 1_555
O3 W1 1.882138 1_555
O3 W3 2.147277 1_555
O4 W4 1.932440 1_554
O4 W0 1.947797 1_554
O5 W5 1.932440 1_556
O5 W1 1.947797 1_556
O6 W0 1.990579 1_455
O6 W4 1.993961 1_545
O7 W1 1.990579 1_565
O7 W5 1.993961 1_655
O8 W8 1.915809 1_555
O8 W0 1.978191 1_555
O9 W9 1.915809 1_555
O9 W1 1.978191 1_555
O10 Se0 1.767474 1_555
O10 W0 2.294204 1_555
O10 W2 2.434321 1_555
O11 Se1 1.767474 1_555
O11 W1 2.294204 1_555
O11 W3 2.434321 1_555
O12 W6 1.972388 1_645
O12 W2 1.974313 1_555
O13 W7 1.972388 1_645
O13 W3 1.974313 1_555
O14 W10 1.797355 1_555
O15 W11 1.797355 1_555
O16 W2 1.964592 1_555
O16 W6 1.965903 1_555
O17 W3 1.964592 1_555
O17 W7 1.965903 1_555
O18 W2 1.770479 1_555
O19 W3 1.770479 1_555
O20 Se0 1.776366 1_555
O20 W4 2.281138 1_555
O20 W6 2.405421 1_555
O21 Se1 1.776366 1_555
O21 W5 2.281138 1_555
O21 W7 2.405421 1_555
O22 W8 1.784515 1_555
O23 W9 1.784515 1_555
O24 W6 1.770422 1_555
O25 W7 1.770422 1_555
O26 Se0 1.722415 1_555
O26 W8 2.305596 1_555
O27 Se1 1.722415 1_555
O27 W9 2.305596 1_555
O28 W4 1.882920 1_555
O28 W6 2.174873 1_555
O29 W5 1.882920 1_555
O29 W7 2.174873 1_555
O30 W4 1.776034 1_544
O31 W5 1.776034 1_656
O32 W6 1.787679 1_555
O33 W7 1.787679 1_555
O34 Se2 1.705380 1_455
O35 Se3 1.705380 1_565
O36 W2 1.788176 1_555
O37 W3 1.788176 1_555
O38 W10 1.952785 1_555
O38 W9 1.966321 1_555
O39 W11 1.952785 1_555
O39 W8 1.966321 1_555
O40 W11 1.941344 1_555
O40 W10 1.976730 1_565
O41 W10 1.941344 1_555
O41 W11 1.976730 1_455
O42 W8 1.931289 1_555
O42 W4 2.004428 1_555
O43 W9 1.931289 1_555
O43 W5 2.004428 1_555
O44 Se2 1.699948 1_455
O45 Se3 1.699948 1_565
O46 W8 1.943024 1_555
O46 W10 1.965849 1_565
O47 W9 1.943024 1_555
O47 W11 1.965849 1_455
O48 Se2 1.834947 1_555
O48 W11 2.093286 1_555
O49 Se3 1.834947 1_555
O49 W10 2.093286 1_555
