# generated using pymatgen
data_Mg2SbWO6
_symmetry_space_group_name_H-M   'P 1'
_cell_length_a   7.19609045
_cell_length_b   7.83691917
_cell_length_c   7.27379519
_cell_angle_alpha   81.68216075
_cell_angle_beta   132.58977438
_cell_angle_gamma   135.92841216
_symmetry_Int_Tables_number   1
_chemical_formula_structural   Mg2SbWO6
_chemical_formula_sum   'Mg2 Sb1 W1 O6'
_cell_volume   156.50661745
_cell_formula_units_Z   1
loop_
 _symmetry_equiv_pos_site_id
 _symmetry_equiv_pos_as_xyz
  1  'x, y, z'
loop_
 _atom_site_type_symbol
 _atom_site_label
 _atom_site_symmetry_multiplicity
 _atom_site_fract_x
 _atom_site_fract_y
 _atom_site_fract_z
 _atom_site_occupancy
  Mg  Mg0  1  0.06217400  0.71051800  0.32265800  1
  Mg  Mg1  1  0.83905800  0.55938200  0.67496600  1
  Sb  Sb0  1  0.83585400  0.99634500  0.39253900  1
  W  W0  1  0.02348000  0.96365300  0.00036700  1
  O  O0  1  0.25977700  0.07717800  0.40368200  1
  O  O1  1  0.89291400  0.85030400  0.65145000  1
  O  O2  1  0.67690800  0.42517100  0.32301600  1
  O  O3  1  0.65151800  0.93748400  0.77094200  1
  O  O4  1  0.27671500  0.83490100  0.15598200  1
  O  O5  1  0.45850800  0.46772400  0.79506200  1
loop_
_geom_bond_atom_site_label_1
_geom_bond_atom_site_label_2
_geom_bond_distance
_geom_bond_site_symmetry_2
Mg0 O2 1.945867 1_455
Mg0 O3 1.975756 1_555
Mg0 O0 2.027458 1_565
Mg0 O4 2.198287 1_555
Mg0 O5 2.211383 1_454
Mg1 O0 1.984820 1_555
Mg1 O2 1.998480 1_555
Mg1 O1 2.021080 1_555
Mg1 O4 2.079067 1_656
O0 W0 2.029459 1_545
O0 Sb0 2.572406 1_445
O1 Sb0 2.007542 1_555
O1 W0 2.082921 1_656
O2 W0 1.944550 1_545
O3 W0 1.804423 1_656
O4 Sb0 2.166813 1_555
O4 W0 2.267161 1_555
O5 Sb0 1.970818 1_445
O5 W0 2.149618 1_656
