# generated using pymatgen
data_Zn2In2O5
_symmetry_space_group_name_H-M   'P 1'
_cell_length_a   3.48067974
_cell_length_b   3.48067974
_cell_length_c   23.19752600
_cell_angle_alpha   90.00000000
_cell_angle_beta   90.00000000
_cell_angle_gamma   119.99999502
_symmetry_Int_Tables_number   1
_chemical_formula_structural   Zn2In2O5
_chemical_formula_sum   'Zn4 In4 O10'
_cell_volume   243.38872401
_cell_formula_units_Z   2
loop_
 _symmetry_equiv_pos_site_id
 _symmetry_equiv_pos_as_xyz
  1  'x, y, z'
loop_
 _atom_site_type_symbol
 _atom_site_label
 _atom_site_symmetry_multiplicity
 _atom_site_fract_x
 _atom_site_fract_y
 _atom_site_fract_z
 _atom_site_occupancy
  Zn  Zn0  1  0.33333300  0.66666700  0.55685900  1
  Zn  Zn1  1  0.66666700  0.33333300  0.05685900  1
  Zn  Zn2  1  0.66666700  0.33333300  0.81794900  1
  Zn  Zn3  1  0.33333300  0.66666700  0.31794900  1
  In  In0  1  0.00000000  0.00000000  0.68707500  1
  In  In1  1  0.00000000  0.00000000  0.18707500  1
  In  In2  1  0.33333300  0.66666700  0.93890800  1
  In  In3  1  0.66666700  0.33333300  0.43890800  1
  O  O0  1  0.66666700  0.33333300  0.53465300  1
  O  O1  1  0.33333300  0.66666700  0.03465300  1
  O  O2  1  0.33333300  0.66666700  0.64318700  1
  O  O3  1  0.66666700  0.33333300  0.14318700  1
  O  O4  1  0.66666700  0.33333300  0.73267300  1
  O  O5  1  0.33333300  0.66666700  0.23267300  1
  O  O6  1  0.33333300  0.66666700  0.84377700  1
  O  O7  1  0.66666700  0.33333300  0.34377700  1
  O  O8  1  0.66666700  0.33333300  0.94292000  1
  O  O9  1  0.33333300  0.66666700  0.44292000  1
loop_
_geom_bond_atom_site_label_1
_geom_bond_atom_site_label_2
_geom_bond_distance
_geom_bond_site_symmetry_2
In0 O2 2.252750 1_545
In0 O2 2.252753 1_555
In0 O2 2.252753 1_445
In0 O4 2.270953 1_455
In0 O4 2.270956 1_555
In0 O4 2.270956 1_445
In1 O3 2.252750 1_455
In1 O3 2.252753 1_555
In1 O3 2.252753 1_445
In1 O5 2.270953 1_545
In1 O5 2.270956 1_445
In1 O5 2.270956 1_555
In2 O8 2.011723 1_455
In2 O8 2.011723 1_565
In2 O8 2.011729 1_555
In2 O6 2.206804 1_555
In2 O1 2.221047 1_556
In3 O9 2.011723 1_545
In3 O9 2.011723 1_655
In3 O9 2.011729 1_555
In3 O7 2.206804 1_555
In3 O0 2.221047 1_555
O0 Zn0 2.074542 1_545
O0 Zn0 2.074542 1_655
O0 Zn0 2.074547 1_555
O1 Zn1 2.074542 1_455
O1 Zn1 2.074542 1_565
O1 Zn1 2.074547 1_555
O2 Zn0 2.002596 1_555
O3 Zn1 2.002596 1_555
O4 Zn2 1.978192 1_555
O5 Zn3 1.978192 1_555
O6 Zn2 2.096985 1_455
O6 Zn2 2.096985 1_565
O6 Zn2 2.096990 1_555
O7 Zn3 2.096985 1_545
O7 Zn3 2.096985 1_655
O7 Zn3 2.096990 1_555
