# generated using pymatgen
data_VZn(Si2O5)2
_symmetry_space_group_name_H-M   'P 1'
_cell_length_a   7.34782900
_cell_length_b   7.34782900
_cell_length_c   15.03407700
_cell_angle_alpha   90.00000000
_cell_angle_beta   90.00000000
_cell_angle_gamma   90.00000000
_symmetry_Int_Tables_number   1
_chemical_formula_structural   VZn(Si2O5)2
_chemical_formula_sum   'V4 Zn4 Si16 O40'
_cell_volume   811.69870257
_cell_formula_units_Z   4
loop_
 _symmetry_equiv_pos_site_id
 _symmetry_equiv_pos_as_xyz
  1  'x, y, z'
loop_
 _atom_site_type_symbol
 _atom_site_label
 _atom_site_symmetry_multiplicity
 _atom_site_fract_x
 _atom_site_fract_y
 _atom_site_fract_z
 _atom_site_occupancy
  V  V0  1  0.50000000  0.00000000  0.57033500  1
  V  V1  1  0.00000000  0.50000000  0.92966500  1
  V  V2  1  0.00000000  0.50000000  0.42966500  1
  V  V3  1  0.50000000  0.00000000  0.07033500  1
  Zn  Zn0  1  0.50000000  0.50000000  0.50000000  1
  Zn  Zn1  1  0.00000000  0.00000000  0.50000000  1
  Zn  Zn2  1  0.00000000  0.00000000  0.00000000  1
  Zn  Zn3  1  0.50000000  0.50000000  0.00000000  1
  Si  Si0  1  0.15564300  0.23899600  0.64613800  1
  Si  Si1  1  0.84435700  0.76100400  0.64613800  1
  Si  Si2  1  0.23899600  0.15564300  0.85386200  1
  Si  Si3  1  0.73899600  0.34435700  0.64613800  1
  Si  Si4  1  0.26100400  0.65564300  0.64613800  1
  Si  Si5  1  0.34435700  0.73899600  0.85386200  1
  Si  Si6  1  0.65564300  0.26100400  0.85386200  1
  Si  Si7  1  0.76100400  0.84435700  0.85386200  1
  Si  Si8  1  0.34435700  0.26100400  0.35386200  1
  Si  Si9  1  0.65564300  0.73899600  0.35386200  1
  Si  Si10  1  0.26100400  0.34435700  0.14613800  1
  Si  Si11  1  0.76100400  0.15564300  0.35386200  1
  Si  Si12  1  0.23899600  0.84435700  0.35386200  1
  Si  Si13  1  0.15564300  0.76100400  0.14613800  1
  Si  Si14  1  0.84435700  0.23899600  0.14613800  1
  Si  Si15  1  0.73899600  0.65564300  0.14613800  1
  O  O0  1  0.22775400  0.08773700  0.57570000  1
  O  O1  1  0.77224600  0.91226300  0.57570000  1
  O  O2  1  0.08773700  0.22775400  0.92430000  1
  O  O3  1  0.58773700  0.27224600  0.57570000  1
  O  O4  1  0.41226300  0.72775400  0.57570000  1
  O  O5  1  0.27224600  0.58773700  0.92430000  1
  O  O6  1  0.72775400  0.41226300  0.92430000  1
  O  O7  1  0.91226300  0.77224600  0.92430000  1
  O  O8  1  0.27224600  0.41226300  0.42430000  1
  O  O9  1  0.72775400  0.58773700  0.42430000  1
  O  O10  1  0.41226300  0.27224600  0.07570000  1
  O  O11  1  0.91226300  0.22775400  0.42430000  1
  O  O12  1  0.08773700  0.77224600  0.42430000  1
  O  O13  1  0.22775400  0.91226300  0.07570000  1
  O  O14  1  0.77224600  0.08773700  0.07570000  1
  O  O15  1  0.25382800  0.06229000  0.37218900  1
  O  O16  1  0.58773700  0.72775400  0.07570000  1
  O  O17  1  0.75382800  0.56229000  0.62781100  1
  O  O18  1  0.43771000  0.24617200  0.87218900  1
  O  O19  1  0.93771000  0.25382800  0.62781100  1
  O  O20  1  0.06229000  0.74617200  0.62781100  1
  O  O21  1  0.25382800  0.93771000  0.87218900  1
  O  O22  1  0.74617200  0.06229000  0.87218900  1
  O  O23  1  0.56229000  0.75382800  0.87218900  1
  O  O24  1  0.68877300  0.68877300  0.25000000  1
  O  O25  1  0.81122700  0.18877300  0.25000000  1
  O  O26  1  0.18877300  0.81122700  0.25000000  1
  O  O27  1  0.31122700  0.31122700  0.25000000  1
  O  O28  1  0.81122700  0.81122700  0.75000000  1
  O  O29  1  0.68877300  0.31122700  0.75000000  1
  O  O30  1  0.31122700  0.68877300  0.75000000  1
  O  O31  1  0.18877300  0.18877300  0.75000000  1
  O  O32  1  0.93771000  0.74617200  0.12781100  1
  O  O33  1  0.75382800  0.43771000  0.12781100  1
  O  O34  1  0.24617200  0.56229000  0.12781100  1
  O  O35  1  0.43771000  0.75382800  0.37218900  1
  O  O36  1  0.56229000  0.24617200  0.37218900  1
  O  O37  1  0.06229000  0.25382800  0.12781100  1
  O  O38  1  0.74617200  0.93771000  0.37218900  1
  O  O39  1  0.24617200  0.43771000  0.62781100  1
loop_
_geom_bond_atom_site_label_1
_geom_bond_atom_site_label_2
_geom_bond_distance
_geom_bond_site_symmetry_2
O0 Si0 1.624018 1_555
O0 V0 2.103279 1_555
O0 Zn1 2.124012 1_555
O1 Si1 1.624018 1_555
O1 V0 2.103279 1_565
O1 Zn1 2.124012 1_665
O2 Si2 1.624018 1_555
O2 V1 2.103279 1_555
O2 Zn2 2.124012 1_556
O3 Si3 1.624018 1_555
O3 V0 2.103279 1_555
O3 Zn0 2.124012 1_555
O4 Si4 1.624018 1_555
O4 V0 2.103279 1_565
O4 Zn0 2.124012 1_555
O5 Si5 1.624018 1_555
O5 V1 2.103279 1_555
O5 Zn3 2.124012 1_556
O6 Si6 1.624018 1_555
O6 V1 2.103279 1_655
O6 Zn3 2.124012 1_556
O7 Si7 1.624018 1_555
O7 V1 2.103279 1_655
O7 Zn2 2.124012 1_666
O8 Si8 1.624018 1_555
O8 V2 2.103279 1_555
O8 Zn0 2.124012 1_555
O9 Si9 1.624018 1_555
O9 V2 2.103279 1_655
O9 Zn0 2.124012 1_555
O10 Si10 1.624018 1_555
O10 V3 2.103279 1_555
O10 Zn3 2.124012 1_555
O11 Si11 1.624018 1_555
O11 V2 2.103279 1_655
O11 Zn1 2.124012 1_655
O12 Si12 1.624018 1_555
O12 V2 2.103279 1_555
O12 Zn1 2.124012 1_565
O13 Si13 1.624018 1_555
O13 V3 2.103279 1_565
O13 Zn2 2.124012 1_565
O14 Si14 1.624018 1_555
O14 V3 2.103279 1_555
O14 Zn2 2.124012 1_655
O15 Si8 1.627985 1_555
O15 Si12 1.628516 1_545
O16 Si15 1.624018 1_555
O16 V3 2.103279 1_565
O16 Zn3 2.124012 1_555
O17 Si1 1.627985 1_555
O17 Si3 1.628516 1_555
O18 Si2 1.627985 1_555
O18 Si6 1.628516 1_555
O19 Si3 1.627985 1_555
O19 Si0 1.628516 1_655
O20 Si4 1.627985 1_555
O20 Si1 1.628516 1_455
O21 Si5 1.627985 1_555
O21 Si2 1.628516 1_565
O22 Si6 1.627985 1_555
O22 Si7 1.628516 1_545
O23 Si7 1.627985 1_555
O23 Si5 1.628516 1_555
O24 Si9 1.622846 1_555
O24 Si15 1.622846 1_555
O25 Si11 1.622846 1_555
O25 Si14 1.622846 1_555
O26 Si13 1.622846 1_555
O26 Si12 1.622846 1_555
O27 Si8 1.622846 1_555
O27 Si10 1.622846 1_555
O28 Si7 1.622846 1_555
O28 Si1 1.622846 1_555
O29 Si3 1.622846 1_555
O29 Si6 1.622846 1_555
O30 Si5 1.622846 1_555
O30 Si4 1.622846 1_555
O31 Si2 1.622846 1_555
O31 Si0 1.622846 1_555
O32 Si15 1.627985 1_555
O32 Si13 1.628516 1_655
O33 Si14 1.627985 1_555
O33 Si15 1.628516 1_555
O34 Si13 1.627985 1_555
O34 Si10 1.628516 1_555
O35 Si12 1.627985 1_555
O35 Si9 1.628516 1_555
O36 Si11 1.627985 1_555
O36 Si8 1.628516 1_555
O37 Si10 1.627985 1_555
O37 Si14 1.628516 1_455
O38 Si9 1.627985 1_555
O38 Si11 1.628516 1_565
O39 Si0 1.627985 1_555
O39 Si4 1.628516 1_555
