# generated using pymatgen
data_Nd2Ga7Pd
_symmetry_space_group_name_H-M   'P 1'
_cell_length_a   4.27401856
_cell_length_b   4.27401856
_cell_length_c   10.56787752
_cell_angle_alpha   90.00000000
_cell_angle_beta   90.00000000
_cell_angle_gamma   90.00000000
_symmetry_Int_Tables_number   1
_chemical_formula_structural   Nd2Ga7Pd
_chemical_formula_sum   'Nd2 Ga7 Pd1'
_cell_volume   193.04589842
_cell_formula_units_Z   1
loop_
 _symmetry_equiv_pos_site_id
 _symmetry_equiv_pos_as_xyz
  1  'x, y, z'
loop_
 _atom_site_type_symbol
 _atom_site_label
 _atom_site_symmetry_multiplicity
 _atom_site_fract_x
 _atom_site_fract_y
 _atom_site_fract_z
 _atom_site_occupancy
  Nd  Nd0  1  0.50000000  0.00000000  0.75206508  1
  Nd  Nd1  1  0.00000000  0.50000000  0.24793492  1
  Ga  Ga0  1  -0.00000000  0.50000000  0.87115862  1
  Ga  Ga1  1  0.50000000  0.00000000  0.36171272  1
  Ga  Ga2  1  0.50000000  0.00000000  0.12884138  1
  Ga  Ga3  1  0.00000000  0.50000000  0.63828728  1
  Ga  Ga4  1  0.00000000  0.00000000  0.50000000  1
  Ga  Ga5  1  -0.00000000  0.00000000  0.00000000  1
  Ga  Ga6  1  0.50000000  0.50000000  0.50000000  1
  Pd  Pd0  1  0.50000000  0.50000000  0.00000000  1
loop_
_geom_bond_atom_site_label_1
_geom_bond_atom_site_label_2
_geom_bond_distance
_geom_bond_site_symmetry_2
Nd0 Pd0 3.381120 1_546
Nd0 Pd0 3.381120 1_556
Nd1 Pd0 3.381120 1_455
Nd1 Pd0 3.381120 1_555
Ga0 Ga3 2.460956 1_555
Ga0 Pd0 2.533912 1_456
Ga0 Pd0 2.533912 1_556
Ga0 Ga5 2.533912 1_556
Ga0 Ga5 2.533912 1_566
Ga0 Nd0 3.273775 1_565
Ga0 Nd0 3.273775 1_455
Ga0 Nd0 3.273775 1_555
Ga0 Nd0 3.273775 1_465
Ga1 Ga2 2.460956 1_555
Ga1 Ga4 2.588920 1_555
Ga1 Ga6 2.588920 1_545
Ga1 Ga4 2.588920 1_655
Ga1 Ga6 2.588920 1_555
Ga1 Nd1 3.252593 1_645
Ga1 Nd1 3.252593 1_555
Ga1 Nd1 3.252593 1_545
Ga1 Nd1 3.252593 1_655
Ga2 Ga5 2.533912 1_655
Ga2 Pd0 2.533912 1_545
Ga2 Pd0 2.533912 1_555
Ga2 Ga5 2.533912 1_555
Ga2 Nd1 3.273775 1_655
Ga2 Nd1 3.273775 1_645
Ga2 Nd1 3.273775 1_555
Ga2 Nd1 3.273775 1_545
Ga3 Ga4 2.588920 1_555
Ga3 Ga6 2.588920 1_455
Ga3 Ga4 2.588920 1_565
Ga3 Ga6 2.588920 1_555
Ga3 Nd0 3.252593 1_455
Ga3 Nd0 3.252593 1_555
Ga3 Nd0 3.252593 1_465
Ga3 Nd0 3.252593 1_565
Ga4 Nd1 3.415055 1_555
Ga4 Nd1 3.415055 1_545
Ga4 Nd0 3.415055 1_455
Ga4 Nd0 3.415055 1_555
Ga5 Nd0 3.381120 1_554
Ga5 Nd0 3.381120 1_454
Ga5 Nd1 3.381120 1_555
Ga5 Nd1 3.381120 1_545
Ga6 Nd1 3.415055 1_655
Ga6 Nd1 3.415055 1_555
Ga6 Nd0 3.415055 1_565
Ga6 Nd0 3.415055 1_555
