# generated using pymatgen
data_CeHfMg14
_symmetry_space_group_name_H-M   'P 1'
_cell_length_a   6.48260323
_cell_length_b   6.48260269
_cell_length_c   10.22356755
_cell_angle_alpha   90.00000000
_cell_angle_beta   90.00000000
_cell_angle_gamma   120.00000270
_symmetry_Int_Tables_number   1
_chemical_formula_structural   CeHfMg14
_chemical_formula_sum   'Ce1 Hf1 Mg14'
_cell_volume   372.07623944
_cell_formula_units_Z   1
loop_
 _symmetry_equiv_pos_site_id
 _symmetry_equiv_pos_as_xyz
  1  'x, y, z'
loop_
 _atom_site_type_symbol
 _atom_site_label
 _atom_site_symmetry_multiplicity
 _atom_site_fract_x
 _atom_site_fract_y
 _atom_site_fract_z
 _atom_site_occupancy
  Ce  Ce0  1  0.16666700  0.33333300  0.12500000  1
  Hf  Hf0  1  0.16666700  0.33333300  0.62500000  1
  Mg  Mg0  1  0.17637224  0.83818562  0.12500000  1
  Mg  Mg1  1  0.16761965  0.83380932  0.62500000  1
  Mg  Mg2  1  0.66181438  0.32362776  0.12500000  1
  Mg  Mg3  1  0.66619068  0.33238035  0.62500000  1
  Mg  Mg4  1  0.66181438  0.83818562  0.12500000  1
  Mg  Mg5  1  0.66619068  0.83380932  0.62500000  1
  Mg  Mg6  1  0.33402570  0.16597430  0.38212263  1
  Mg  Mg7  1  0.33402570  0.16597430  0.86787737  1
  Mg  Mg8  1  0.33402570  0.66805239  0.38212263  1
  Mg  Mg9  1  0.33402570  0.66805239  0.86787737  1
  Mg  Mg10  1  0.83194761  0.16597430  0.38212263  1
  Mg  Mg11  1  0.83194761  0.16597430  0.86787737  1
  Mg  Mg12  1  0.83333300  0.66666700  0.36923461  1
  Mg  Mg13  1  0.83333300  0.66666700  0.88076539  1
loop_
_geom_bond_atom_site_label_1
_geom_bond_atom_site_label_2
_geom_bond_distance
_geom_bond_site_symmetry_2
Ce0 Mg6 3.231296 1_555
Ce0 Mg7 3.231296 1_554
Ce0 Mg8 3.231302 1_555
Ce0 Mg9 3.231302 1_554
Ce0 Mg11 3.231302 1_454
Ce0 Mg10 3.231302 1_455
Ce0 Mg0 3.241759 1_555
Ce0 Mg4 3.241759 1_555
Ce0 Mg0 3.241759 1_545
Ce0 Mg4 3.241759 1_445
Ce0 Mg2 3.241760 1_555
Ce0 Mg2 3.241760 1_455
Hf0 Mg7 3.113970 1_555
Hf0 Mg6 3.113970 1_555
Hf0 Mg9 3.113976 1_555
Hf0 Mg8 3.113976 1_555
Hf0 Mg10 3.113976 1_455
Hf0 Mg11 3.113976 1_455
Hf0 Mg1 3.241306 1_555
Hf0 Mg5 3.241306 1_555
Hf0 Mg5 3.241306 1_445
Hf0 Mg1 3.241306 1_545
Hf0 Mg3 3.241306 1_455
Hf0 Mg3 3.241306 1_555
Mg0 Mg2 3.146929 1_565
Mg0 Mg4 3.146929 1_555
Mg0 Mg12 3.153360 1_455
Mg0 Mg13 3.153360 1_454
Mg0 Mg8 3.209079 1_555
Mg0 Mg9 3.209079 1_554
Mg0 Mg7 3.209086 1_564
Mg0 Mg6 3.209086 1_565
Mg0 Mg2 3.335674 1_455
Mg0 Mg4 3.335674 1_455
Mg1 Mg9 3.105337 1_555
Mg1 Mg8 3.105337 1_555
Mg1 Mg6 3.105344 1_565
Mg1 Mg7 3.105344 1_565
Mg1 Mg12 3.218607 1_455
Mg1 Mg13 3.218607 1_455
Mg1 Mg3 3.232038 1_565
Mg1 Mg5 3.232038 1_555
Mg1 Mg3 3.250565 1_455
Mg1 Mg5 3.250565 1_455
Mg2 Mg4 3.146929 1_545
Mg2 Mg7 3.209086 1_554
Mg2 Mg6 3.209086 1_555
Mg2 Mg4 3.335674 1_555
Mg3 Mg7 3.105344 1_555
Mg3 Mg6 3.105344 1_555
Mg3 Mg5 3.232038 1_545
Mg3 Mg5 3.250565 1_555
Mg4 Mg8 3.209086 1_555
Mg4 Mg9 3.209086 1_554
Mg5 Mg8 3.105344 1_555
Mg5 Mg9 3.105344 1_555
Mg6 Mg8 3.227830 1_545
Mg6 Mg8 3.254773 1_555
Mg7 Mg9 3.227830 1_545
Mg7 Mg9 3.254773 1_555
Mg10 Mg3 3.105337 1_555
Mg10 Mg5 3.105344 1_545
Mg10 Mg2 3.209079 1_555
Mg10 Mg4 3.209086 1_545
Mg10 Mg8 3.227830 1_545
Mg10 Mg6 3.227830 1_555
Mg10 Mg12 3.243988 1_545
Mg10 Mg12 3.243988 1_555
Mg10 Mg8 3.254773 1_655
Mg10 Mg6 3.254773 1_655
Mg11 Mg3 3.105337 1_555
Mg11 Mg5 3.105344 1_545
Mg11 Mg2 3.209079 1_556
Mg11 Mg4 3.209086 1_546
Mg11 Mg9 3.227830 1_545
Mg11 Mg7 3.227830 1_555
Mg11 Mg13 3.243988 1_545
Mg11 Mg13 3.243988 1_555
Mg11 Mg9 3.254773 1_655
Mg11 Mg7 3.254773 1_655
Mg12 Mg4 3.153353 1_555
Mg12 Mg2 3.153359 1_555
Mg12 Mg5 3.218601 1_555
Mg12 Mg3 3.218607 1_555
Mg12 Mg6 3.243988 1_555
Mg12 Mg6 3.243988 1_665
Mg12 Mg8 3.243988 1_555
Mg12 Mg8 3.243988 1_655
Mg13 Mg4 3.153353 1_556
Mg13 Mg2 3.153359 1_556
Mg13 Mg5 3.218601 1_555
Mg13 Mg3 3.218607 1_555
Mg13 Mg7 3.243988 1_555
Mg13 Mg7 3.243988 1_665
Mg13 Mg9 3.243988 1_555
Mg13 Mg9 3.243988 1_655
