# generated using pymatgen
data_CeSe2
_symmetry_space_group_name_H-M   'P 1'
_cell_length_a   4.56544300
_cell_length_b   7.26839600
_cell_length_c   13.97491917
_cell_angle_alpha   79.44786880
_cell_angle_beta   90.00000000
_cell_angle_gamma   90.00000000
_symmetry_Int_Tables_number   1
_chemical_formula_structural   CeSe2
_chemical_formula_sum   'Ce4 Se8'
_cell_volume   455.89361599
_cell_formula_units_Z   4
loop_
 _symmetry_equiv_pos_site_id
 _symmetry_equiv_pos_as_xyz
  1  'x, y, z'
loop_
 _atom_site_type_symbol
 _atom_site_label
 _atom_site_symmetry_multiplicity
 _atom_site_fract_x
 _atom_site_fract_y
 _atom_site_fract_z
 _atom_site_occupancy
  Ce  Ce0  1  0.50000000  0.83493800  0.33764700  1
  Ce  Ce1  1  0.50000000  0.16506200  0.66235300  1
  Ce  Ce2  1  0.00000000  0.55457200  0.80161100  1
  Ce  Ce3  1  0.00000000  0.44542800  0.19838900  1
  Se  Se0  1  0.00000000  0.94778400  0.75831200  1
  Se  Se1  1  0.00000000  0.05221600  0.24168800  1
  Se  Se2  1  0.00000000  0.50000000  0.00000000  1
  Se  Se3  1  0.00000000  0.58421400  0.37925900  1
  Se  Se4  1  0.00000000  0.41578600  0.62074100  1
  Se  Se5  1  0.50000000  0.00000000  0.50000000  1
  Se  Se6  1  0.50000000  0.33433800  0.83533500  1
  Se  Se7  1  0.50000000  0.66566200  0.16466500  1
loop_
_geom_bond_atom_site_label_1
_geom_bond_atom_site_label_2
_geom_bond_distance
_geom_bond_site_symmetry_2
Ce0 Se5 2.753927 1_565
Ce0 Se7 2.906378 1_555
Ce0 Se3 2.912361 1_655
Ce0 Se3 2.912361 1_555
Ce0 Se1 2.954242 1_565
Ce0 Se1 2.954242 1_665
Ce1 Se5 2.753927 1_555
Ce1 Se6 2.906378 1_555
Ce1 Se4 2.912361 1_555
Ce1 Se4 2.912361 1_655
Ce1 Se0 2.954242 1_645
Ce1 Se0 2.954242 1_545
Ce2 Se2 2.727846 1_556
Ce2 Se6 2.778311 1_455
Ce2 Se6 2.778311 1_555
Ce2 Se0 2.810876 1_555
Ce2 Se4 2.887982 1_555
Ce3 Se2 2.727846 1_555
Ce3 Se7 2.778311 1_555
Ce3 Se7 2.778311 1_455
Ce3 Se1 2.810876 1_555
Ce3 Se3 2.887982 1_555
