# generated using pymatgen
data_SrMg2
_symmetry_space_group_name_H-M   'P 1'
_cell_length_a   4.05211429
_cell_length_b   4.05211429
_cell_length_c   14.95765100
_cell_angle_alpha   90.00000000
_cell_angle_beta   90.00000000
_cell_angle_gamma   120.00000476
_symmetry_Int_Tables_number   1
_chemical_formula_structural   SrMg2
_chemical_formula_sum   'Sr2 Mg4'
_cell_volume   212.69504831
_cell_formula_units_Z   2
loop_
 _symmetry_equiv_pos_site_id
 _symmetry_equiv_pos_as_xyz
  1  'x, y, z'
loop_
 _atom_site_type_symbol
 _atom_site_label
 _atom_site_symmetry_multiplicity
 _atom_site_fract_x
 _atom_site_fract_y
 _atom_site_fract_z
 _atom_site_occupancy
  Sr  Sr0  1  0.66666700  0.33333300  0.18208100  1
  Sr  Sr1  1  0.66666700  0.33333300  0.81791900  1
  Mg  Mg0  1  0.66666700  0.33333300  0.50000000  1
  Mg  Mg1  1  0.00000000  0.00000000  0.36706300  1
  Mg  Mg2  1  0.00000000  0.00000000  0.00000000  1
  Mg  Mg3  1  0.00000000  0.00000000  0.63293700  1
loop_
_geom_bond_atom_site_label_1
_geom_bond_atom_site_label_2
_geom_bond_distance
_geom_bond_site_symmetry_2
Mg0 Mg3 3.070348 1_655
Mg0 Mg1 3.070348 1_655
Mg0 Mg3 3.070350 1_665
Mg0 Mg3 3.070350 1_555
Mg0 Mg1 3.070350 1_555
Mg0 Mg1 3.070350 1_665
Mg1 Sr0 3.623384 1_455
Mg1 Sr0 3.623386 1_555
Mg1 Sr0 3.623386 1_445
Mg2 Sr0 3.590358 1_455
Mg2 Sr1 3.590358 1_454
Mg2 Sr0 3.590361 1_555
Mg2 Sr0 3.590361 1_445
Mg2 Sr1 3.590361 1_444
Mg2 Sr1 3.590361 1_554
Mg3 Sr1 3.623384 1_455
Mg3 Sr1 3.623386 1_445
Mg3 Sr1 3.623386 1_555
