# generated using pymatgen
data_Co
_symmetry_space_group_name_H-M   'P 1'
_cell_length_a   4.96857760
_cell_length_b   4.96857779
_cell_length_c   4.96857618
_cell_angle_alpha   59.99999673
_cell_angle_beta   59.99999552
_cell_angle_gamma   59.99999023
_symmetry_Int_Tables_number   1
_chemical_formula_structural   Co
_chemical_formula_sum   Co8
_cell_volume   86.73234106
_cell_formula_units_Z   8
loop_
 _symmetry_equiv_pos_site_id
 _symmetry_equiv_pos_as_xyz
  1  'x, y, z'
loop_
 _atom_site_type_symbol
 _atom_site_label
 _atom_site_symmetry_multiplicity
 _atom_site_fract_x
 _atom_site_fract_y
 _atom_site_fract_z
 _atom_site_occupancy
  Co  Co0_0  1  0.00000000  0.00000000  0.00000000  1
  Co  Co0_1  1  0.00000000  0.00000000  0.50000000  1
  Co  Co0_2  1  0.00000000  0.50000000  0.00000000  1
  Co  Co0_3  1  0.00000000  0.50000000  0.50000000  1
  Co  Co0_4  1  0.50000000  0.00000000  0.00000000  1
  Co  Co0_5  1  0.50000000  0.00000000  0.50000000  1
  Co  Co0_6  1  0.50000000  0.50000000  1.00000000  1
  Co  Co0_7  1  0.50000000  0.50000000  0.50000000  1
loop_
_geom_bond_atom_site_label_1
_geom_bond_atom_site_label_2
_geom_bond_distance
_geom_bond_site_symmetry_2
Co0_0 Co0_1 2.484288 1_554
Co0_0 Co0_1 2.484288 1_555
Co0_0 Co0_5 2.484288 1_554
Co0_0 Co0_5 2.484288 1_455
Co0_0 Co0_3 2.484288 1_554
Co0_0 Co0_3 2.484288 1_545
Co0_0 Co0_6 2.484288 1_454
Co0_0 Co0_6 2.484288 1_544
Co0_0 Co0_4 2.484289 1_555
Co0_0 Co0_4 2.484289 1_455
Co0_0 Co0_2 2.484289 1_555
Co0_0 Co0_2 2.484289 1_545
Co0_1 Co0_4 2.484288 1_456
Co0_1 Co0_4 2.484288 1_555
Co0_1 Co0_2 2.484288 1_546
Co0_1 Co0_2 2.484288 1_555
Co0_1 Co0_7 2.484288 1_545
Co0_1 Co0_7 2.484288 1_455
Co0_1 Co0_5 2.484289 1_555
Co0_1 Co0_5 2.484289 1_455
Co0_1 Co0_3 2.484289 1_545
Co0_1 Co0_3 2.484289 1_555
Co0_2 Co0_3 2.484288 1_554
Co0_2 Co0_3 2.484288 1_555
Co0_2 Co0_7 2.484288 1_455
Co0_2 Co0_7 2.484288 1_554
Co0_2 Co0_4 2.484288 1_465
Co0_2 Co0_4 2.484288 1_555
Co0_2 Co0_6 2.484289 1_554
Co0_2 Co0_6 2.484289 1_454
Co0_3 Co0_6 2.484288 1_455
Co0_3 Co0_6 2.484288 1_554
Co0_3 Co0_5 2.484288 1_555
Co0_3 Co0_5 2.484288 1_465
Co0_3 Co0_7 2.484289 1_555
Co0_3 Co0_7 2.484289 1_455
Co0_4 Co0_5 2.484288 1_554
Co0_4 Co0_5 2.484288 1_555
Co0_4 Co0_7 2.484288 1_554
Co0_4 Co0_7 2.484288 1_545
Co0_4 Co0_6 2.484289 1_554
Co0_4 Co0_6 2.484289 1_544
Co0_5 Co0_6 2.484288 1_545
Co0_5 Co0_6 2.484288 1_554
Co0_5 Co0_7 2.484289 1_555
Co0_5 Co0_7 2.484289 1_545
Co0_6 Co0_7 2.484288 1_555
Co0_6 Co0_7 2.484288 1_556
