# generated using pymatgen
data_EuAsS
_symmetry_space_group_name_H-M   'P 1'
_cell_length_a   3.89900500
_cell_length_b   4.04794900
_cell_length_c   17.84741300
_cell_angle_alpha   90.00000000
_cell_angle_beta   90.00000000
_cell_angle_gamma   90.00000000
_symmetry_Int_Tables_number   1
_chemical_formula_structural   EuAsS
_chemical_formula_sum   'Eu4 As4 S4'
_cell_volume   281.68524447
_cell_formula_units_Z   4
loop_
 _symmetry_equiv_pos_site_id
 _symmetry_equiv_pos_as_xyz
  1  'x, y, z'
loop_
 _atom_site_type_symbol
 _atom_site_label
 _atom_site_symmetry_multiplicity
 _atom_site_fract_x
 _atom_site_fract_y
 _atom_site_fract_z
 _atom_site_occupancy
  Eu  Eu0  1  0.25000000  0.21800800  0.15726600  1
  Eu  Eu1  1  0.25000000  0.28199200  0.65726600  1
  Eu  Eu2  1  0.75000000  0.78199200  0.84273400  1
  Eu  Eu3  1  0.75000000  0.71800800  0.34273400  1
  As  As0  1  0.75000000  0.19312400  0.49637400  1
  As  As1  1  0.75000000  0.30687600  0.99637400  1
  As  As2  1  0.25000000  0.80687600  0.50362600  1
  As  As3  1  0.25000000  0.69312400  0.00362600  1
  S  S0  1  0.25000000  0.22077800  0.31816000  1
  S  S1  1  0.25000000  0.27922200  0.81816000  1
  S  S2  1  0.75000000  0.77922200  0.68184000  1
  S  S3  1  0.75000000  0.72077800  0.18184000  1
loop_
_geom_bond_atom_site_label_1
_geom_bond_atom_site_label_2
_geom_bond_distance
_geom_bond_site_symmetry_2
Eu0 S3 2.836217 1_445
Eu0 S3 2.836217 1_545
Eu0 S3 2.852175 1_455
Eu0 S3 2.852175 1_555
Eu0 S0 2.871564 1_555
Eu1 S2 2.836217 1_455
Eu1 S2 2.836217 1_555
Eu1 S2 2.852175 1_445
Eu1 S2 2.852175 1_545
Eu1 S1 2.871564 1_555
Eu2 S1 2.836217 1_565
Eu2 S1 2.836217 1_665
Eu2 S1 2.852175 1_655
Eu2 S1 2.852175 1_555
Eu2 S2 2.871564 1_555
Eu3 S0 2.836217 1_555
Eu3 S0 2.836217 1_655
Eu3 S0 2.852175 1_565
Eu3 S0 2.852175 1_665
Eu3 S3 2.871564 1_555
As0 As2 2.502375 1_545
As0 As2 2.502375 1_645
As0 Eu3 3.349307 1_545
As0 Eu3 3.468912 1_555
As0 Eu1 3.489343 1_555
As0 Eu1 3.489343 1_655
As1 As3 2.502375 1_656
As1 As3 2.502375 1_556
As1 Eu2 3.349307 1_555
As1 Eu2 3.468912 1_545
As1 Eu0 3.489343 1_556
As1 Eu0 3.489343 1_656
As2 Eu1 3.349307 1_565
As2 Eu1 3.468912 1_555
As2 Eu3 3.489343 1_455
As2 Eu3 3.489343 1_555
As3 Eu0 3.349307 1_555
As3 Eu0 3.468912 1_565
As3 Eu2 3.489343 1_454
As3 Eu2 3.489343 1_554
