# generated using pymatgen
data_LaAlCo4
_symmetry_space_group_name_H-M   'P 1'
_cell_length_a   5.23170214
_cell_length_b   5.23170214
_cell_length_c   3.83662200
_cell_angle_alpha   90.00000000
_cell_angle_beta   90.00000000
_cell_angle_gamma   120.00000178
_symmetry_Int_Tables_number   1
_chemical_formula_structural   LaAlCo4
_chemical_formula_sum   'La1 Al1 Co4'
_cell_volume   90.94224206
_cell_formula_units_Z   1
loop_
 _symmetry_equiv_pos_site_id
 _symmetry_equiv_pos_as_xyz
  1  'x, y, z'
loop_
 _atom_site_type_symbol
 _atom_site_label
 _atom_site_symmetry_multiplicity
 _atom_site_fract_x
 _atom_site_fract_y
 _atom_site_fract_z
 _atom_site_occupancy
  La  La0  1  0.66666700  0.33333300  0.00000000  1
  Al  Al0  1  0.00000000  0.00000000  0.00000000  1
  Co  Co0  1  0.33333300  0.66666700  0.00000000  1
  Co  Co1  1  0.65909600  0.82954800  0.50000000  1
  Co  Co2  1  0.17045200  0.82954800  0.50000000  1
  Co  Co3  1  0.17045200  0.34090400  0.50000000  1
loop_
_geom_bond_atom_site_label_1
_geom_bond_atom_site_label_2
_geom_bond_distance
_geom_bond_site_symmetry_2
Al0 Co1 2.462842 1_445
Al0 Co3 2.462842 1_555
Al0 Co3 2.462842 1_554
Al0 Co1 2.462842 1_444
Al0 Co2 2.462843 1_544
Al0 Co2 2.462843 1_545
Al0 Co0 3.020522 1_545
Al0 La0 3.020522 1_455
Al0 La0 3.020526 1_445
Al0 Co0 3.020526 1_555
Al0 Co0 3.020526 1_445
Al0 La0 3.020526 1_555
Co0 Co2 2.420407 1_555
Co0 Co2 2.420407 1_554
Co0 Co1 2.420410 1_554
Co0 Co1 2.420410 1_555
Co0 Co3 2.420410 1_555
Co0 Co3 2.420410 1_554
Co0 La0 3.020522 1_455
Co0 La0 3.020522 1_565
Co0 La0 3.020531 1_555
Co1 Co3 2.556440 1_555
Co1 Co2 2.556440 1_555
Co1 Co3 2.675262 1_665
Co1 Co2 2.675262 1_655
Co1 La0 3.244034 1_566
Co1 La0 3.244034 1_565
Co1 La0 3.244038 1_556
Co1 La0 3.244038 1_555
Co2 Co3 2.556440 1_555
Co2 Co3 2.675262 1_565
Co2 La0 3.244036 1_456
Co2 La0 3.244036 1_455
Co2 La0 3.244036 1_566
Co2 La0 3.244036 1_565
Co3 La0 3.244034 1_456
Co3 La0 3.244034 1_455
Co3 La0 3.244038 1_556
Co3 La0 3.244038 1_555
