# generated using pymatgen
data_Nd(FeP3)4
_symmetry_space_group_name_H-M   'P 1'
_cell_length_a   6.73505209
_cell_length_b   6.73505184
_cell_length_c   6.73505201
_cell_angle_alpha   109.47122118
_cell_angle_beta   109.47122044
_cell_angle_gamma   109.47122162
_symmetry_Int_Tables_number   1
_chemical_formula_structural   Nd(FeP3)4
_chemical_formula_sum   'Nd1 Fe4 P12'
_cell_volume   235.18030935
_cell_formula_units_Z   1
loop_
 _symmetry_equiv_pos_site_id
 _symmetry_equiv_pos_as_xyz
  1  'x, y, z'
loop_
 _atom_site_type_symbol
 _atom_site_label
 _atom_site_symmetry_multiplicity
 _atom_site_fract_x
 _atom_site_fract_y
 _atom_site_fract_z
 _atom_site_occupancy
  Nd  Nd0  1  -0.00000000  0.00000000  -0.00000000  1
  Fe  Fe0  1  0.50000000  0.00000000  -0.00000000  1
  Fe  Fe1  1  -0.00000000  0.00000000  0.50000000  1
  Fe  Fe2  1  -0.00000000  0.50000000  -0.00000000  1
  Fe  Fe3  1  0.50000000  0.50000000  0.50000000  1
  P  P0  1  0.49563925  0.84926909  0.64636916  1
  P  P1  1  0.20289993  0.84926909  0.35363084  1
  P  P2  1  0.79710007  0.15073091  0.64636916  1
  P  P3  1  0.15073091  0.35363084  0.50436075  1
  P  P4  1  0.35363084  0.50436075  0.15073091  1
  P  P5  1  0.50436075  0.15073091  0.35363084  1
  P  P6  1  0.15073091  0.64636916  0.79710007  1
  P  P7  1  0.35363084  0.20289993  0.84926909  1
  P  P8  1  0.84926909  0.64636916  0.49563925  1
  P  P9  1  0.64636916  0.79710007  0.15073091  1
  P  P10  1  0.84926909  0.35363084  0.20289993  1
  P  P11  1  0.64636916  0.49563925  0.84926909  1
loop_
_geom_bond_atom_site_label_1
_geom_bond_atom_site_label_2
_geom_bond_distance
_geom_bond_site_symmetry_2
Nd0 P4 2.989575 1_555
Nd0 P11 2.989575 1_444
Nd0 P8 2.989575 1_444
Nd0 P3 2.989575 1_555
Nd0 P5 2.989575 1_555
Nd0 P0 2.989575 1_444
Nd0 P10 2.989580 1_455
Nd0 P6 2.989580 1_544
Nd0 P9 2.989580 1_445
Nd0 P7 2.989580 1_554
Nd0 P1 2.989580 1_545
Nd0 P2 2.989580 1_454
Fe0 P6 2.241787 1_544
Fe0 P10 2.241787 1_555
Fe0 P9 2.241787 1_545
Fe0 P7 2.241787 1_554
Fe0 P0 2.241790 1_544
Fe0 P5 2.241790 1_555
Fe1 P9 2.241787 1_445
Fe1 P7 2.241787 1_555
Fe1 P2 2.241787 1_455
Fe1 P1 2.241787 1_545
Fe1 P3 2.241790 1_555
Fe1 P8 2.241790 1_445
Fe2 P1 2.241787 1_555
Fe2 P2 2.241787 1_454
Fe2 P10 2.241787 1_455
Fe2 P6 2.241787 1_554
Fe2 P4 2.241791 1_555
Fe2 P11 2.241791 1_454
Fe3 P0 2.241784 1_555
Fe3 P5 2.241784 1_555
Fe3 P4 2.241784 1_555
Fe3 P11 2.241784 1_555
Fe3 P3 2.241784 1_555
Fe3 P8 2.241784 1_555
P0 P1 2.276621 1_555
P0 P2 2.344455 1_565
P1 P5 2.344455 1_565
P2 P5 2.276621 1_555
P3 P6 2.276620 1_555
P4 P9 2.276620 1_555
P4 P7 2.344455 1_554
P6 P8 2.344455 1_455
P10 P8 2.276620 1_555
P10 P3 2.344455 1_655
P11 P7 2.276620 1_555
P11 P9 2.344455 1_556
