# generated using pymatgen
data_TbNi4Au
_symmetry_space_group_name_H-M   'P 1'
_cell_length_a   4.88638725
_cell_length_b   4.88645057
_cell_length_c   4.88638998
_cell_angle_alpha   60.00671230
_cell_angle_beta   60.00621207
_cell_angle_gamma   60.00676180
_symmetry_Int_Tables_number   1
_chemical_formula_structural   TbNi4Au
_chemical_formula_sum   'Tb1 Ni4 Au1'
_cell_volume   82.51238200
_cell_formula_units_Z   1
loop_
 _symmetry_equiv_pos_site_id
 _symmetry_equiv_pos_as_xyz
  1  'x, y, z'
loop_
 _atom_site_type_symbol
 _atom_site_label
 _atom_site_symmetry_multiplicity
 _atom_site_fract_x
 _atom_site_fract_y
 _atom_site_fract_z
 _atom_site_occupancy
  Tb  Tb0  1  0.99999648  -0.00001639  0.99999710  1
  Ni  Ni0  1  0.62402987  0.62402791  0.12790163  1
  Ni  Ni1  1  0.62402893  0.12790209  0.62402962  1
  Ni  Ni2  1  0.12790106  0.62402781  0.62403048  1
  Ni  Ni3  1  0.62403027  0.62402798  0.62403079  1
  Au  Au0  1  0.25001338  0.25002860  0.25000938  1
loop_
_geom_bond_atom_site_label_1
_geom_bond_atom_site_label_2
_geom_bond_distance
_geom_bond_site_symmetry_2
Ni0 Ni3 2.424282 1_555
Ni0 Ni2 2.424506 1_555
Ni0 Ni1 2.424531 1_555
Ni0 Ni3 2.462108 1_554
Ni0 Ni2 2.462342 1_654
Ni0 Ni1 2.462386 1_564
Ni0 Tb0 2.866858 1_564
Ni0 Tb0 2.867123 1_464
Ni0 Tb0 2.867194 1_554
Ni1 Ni3 2.424301 1_555
Ni1 Ni2 2.424531 1_555
Ni1 Ni3 2.462150 1_545
Ni1 Ni2 2.462387 1_645
Ni1 Tb0 2.866873 1_555
Ni1 Tb0 2.867130 1_455
Ni1 Tb0 2.867132 1_554
Ni2 Ni3 2.424281 1_555
Ni2 Ni3 2.462107 1_455
Ni2 Tb0 2.866861 1_465
Ni2 Tb0 2.867123 1_464
Ni2 Tb0 2.867192 1_455
Ni3 Tb0 2.867184 1_564
Ni3 Tb0 2.867187 1_465
Ni3 Tb0 2.867261 1_555
Au0 Ni0 2.862654 1_555
Au0 Ni2 2.862665 1_555
Au0 Ni1 2.862688 1_555
Au0 Ni3 2.863101 1_554
Au0 Ni3 2.863122 1_455
Au0 Ni2 2.863162 1_554
Au0 Ni0 2.863172 1_455
Au0 Ni1 2.863179 1_554
Au0 Ni1 2.863196 1_455
Au0 Ni3 2.863225 1_545
Au0 Ni0 2.863270 1_545
Au0 Ni2 2.863277 1_545
Au0 Tb0 2.992406 1_464
Au0 Tb0 2.992450 1_454
Au0 Tb0 2.992464 1_554
Au0 Tb0 2.992483 1_455
