# generated using pymatgen
data_Li7Mn2(CoO4)3
_symmetry_space_group_name_H-M   'P 1'
_cell_length_a   5.09519100
_cell_length_b   5.87588438
_cell_length_c   7.71321938
_cell_angle_alpha   102.17049980
_cell_angle_beta   108.22322728
_cell_angle_gamma   90.56666941
_symmetry_Int_Tables_number   1
_chemical_formula_structural   Li7Mn2(CoO4)3
_chemical_formula_sum   'Li7 Mn2 Co3 O12'
_cell_volume   213.69641009
_cell_formula_units_Z   1
loop_
 _symmetry_equiv_pos_site_id
 _symmetry_equiv_pos_as_xyz
  1  'x, y, z'
loop_
 _atom_site_type_symbol
 _atom_site_label
 _atom_site_symmetry_multiplicity
 _atom_site_fract_x
 _atom_site_fract_y
 _atom_site_fract_z
 _atom_site_occupancy
  Li  Li0  1  0.49919100  0.25126900  0.00035100  1
  Li  Li1  1  0.49305500  0.40600900  0.66274900  1
  Li  Li2  1  0.49552400  0.74972500  0.99864400  1
  Li  Li3  1  0.50216900  0.92431900  0.66132600  1
  Li  Li4  1  0.50667800  0.08358500  0.33763600  1
  Li  Li5  1  0.50376700  0.58063300  0.33561800  1
  Li  Li6  1  0.00025000  0.16637000  0.66753900  1
  Mn  Mn0  1  0.99761800  0.00360500  0.99730500  1
  Mn  Mn1  1  0.99667400  0.67007600  0.66619600  1
  Co  Co0  1  0.00013700  0.32899700  0.33908700  1
  Co  Co1  1  0.99984400  0.49885500  0.99742000  1
  Co  Co2  1  0.00582900  0.84390200  0.34361200  1
  O  O0  1  0.77130600  0.03666300  0.16402000  1
  O  O1  1  0.77885200  0.21273600  0.85785700  1
  O  O2  1  0.78744500  0.54514200  0.16826100  1
  O  O3  1  0.76539600  0.73027000  0.82711200  1
  O  O4  1  0.76938700  0.85545400  0.50406000  1
  O  O5  1  0.77436400  0.38940200  0.49938000  1
  O  O6  1  0.21290000  0.47618800  0.82964400  1
  O  O7  1  0.23097500  0.62525800  0.50874600  1
  O  O8  1  0.21928100  0.94836000  0.83414700  1
  O  O9  1  0.24167800  0.11211700  0.48731100  1
  O  O10  1  0.23492400  0.27163800  0.16693600  1
  O  O11  1  0.21275400  0.78942800  0.14504100  1
loop_
_geom_bond_atom_site_label_1
_geom_bond_atom_site_label_2
_geom_bond_distance
_geom_bond_site_symmetry_2
Li0 O1 2.042215 1_554
Li0 O10 2.121032 1_555
Li0 O2 2.152525 1_555
Li0 O8 2.165542 1_544
Li0 O0 2.171916 1_555
Li0 O6 2.275683 1_554
Li1 O9 2.083426 1_555
Li1 O7 2.130968 1_555
Li1 O5 2.175394 1_555
Li1 O6 2.191316 1_555
Li1 O3 2.234267 1_555
Li1 O1 2.248923 1_555
Li2 O6 2.062277 1_555
Li2 O11 2.078080 1_556
Li2 O0 2.090341 1_566
Li2 O8 2.119707 1_555
Li2 O3 2.175204 1_555
Li2 O2 2.202372 1_556
Li3 O3 2.075192 1_555
Li3 O9 2.078480 1_565
Li3 O4 2.079861 1_555
Li3 O7 2.108363 1_555
Li3 O1 2.165712 1_565
Li3 O8 2.236230 1_555
Li4 O9 2.020356 1_555
Li4 O10 2.091705 1_555
Li4 O5 2.141900 1_555
Li4 O0 2.160619 1_555
Li4 O11 2.216262 1_545
Li4 O4 2.218724 1_545
Li5 O4 2.024769 1_555
Li5 O5 2.073377 1_555
Li5 O10 2.169274 1_555
Li5 O7 2.191874 1_555
Li5 O2 2.204173 1_555
Li5 O11 2.301680 1_555
Li6 O6 2.050686 1_555
Li6 O8 2.088846 1_545
Li6 O4 2.090393 1_445
Li6 O1 2.091609 1_455
Li6 O9 2.106594 1_555
Li6 O5 2.130091 1_455
Mn0 O8 1.920592 1_645
Mn0 O1 1.934920 1_555
Mn0 O10 1.938637 1_656
Mn0 O3 1.950577 1_545
Mn0 O0 1.961491 1_556
Mn0 O11 1.983571 1_646
Mn1 O7 1.935859 1_655
Mn1 O4 1.945535 1_555
Mn1 O8 1.946688 1_655
Mn1 O3 1.947354 1_555
Mn1 O5 1.953269 1_555
Mn1 O6 1.965403 1_655
Co0 O5 1.921071 1_455
Co0 O10 2.029930 1_555
Co0 O0 2.032501 1_455
Co0 O7 2.040232 1_555
Co0 O9 2.052080 1_555
Co0 O2 2.088849 1_455
Co1 O6 1.918248 1_655
Co1 O1 1.922105 1_555
Co1 O2 1.930857 1_556
Co1 O11 1.938955 1_656
Co1 O10 2.171389 1_656
Co1 O3 2.192118 1_555
Co2 O9 1.883964 1_565
Co2 O4 1.971348 1_455
Co2 O2 2.041598 1_455
Co2 O0 2.069462 1_465
Co2 O11 2.090420 1_555
Co2 O7 2.096212 1_555
