# generated using pymatgen
data_RbYMg6
_symmetry_space_group_name_H-M   'P 1'
_cell_length_a   6.85970460
_cell_length_b   6.85970460
_cell_length_c   5.47240200
_cell_angle_alpha   90.00000000
_cell_angle_beta   90.00000000
_cell_angle_gamma   118.09108866
_symmetry_Int_Tables_number   1
_chemical_formula_structural   RbYMg6
_chemical_formula_sum   'Rb1 Y1 Mg6'
_cell_volume   227.17259022
_cell_formula_units_Z   1
loop_
 _symmetry_equiv_pos_site_id
 _symmetry_equiv_pos_as_xyz
  1  'x, y, z'
loop_
 _atom_site_type_symbol
 _atom_site_label
 _atom_site_symmetry_multiplicity
 _atom_site_fract_x
 _atom_site_fract_y
 _atom_site_fract_z
 _atom_site_occupancy
  Rb  Rb0  1  0.14835300  0.85164700  0.00000000  1
  Y  Y0  1  0.34935900  0.65064100  0.50000000  1
  Mg  Mg0  1  0.82101600  0.64734600  0.50000000  1
  Mg  Mg1  1  0.35265400  0.17898400  0.50000000  1
  Mg  Mg2  1  0.84238400  0.15761600  0.50000000  1
  Mg  Mg3  1  0.64570800  0.82478000  0.00000000  1
  Mg  Mg4  1  0.17522000  0.35429200  0.00000000  1
  Mg  Mg5  1  0.66530700  0.33469300  0.00000000  1
loop_
_geom_bond_atom_site_label_1
_geom_bond_atom_site_label_2
_geom_bond_distance
_geom_bond_site_symmetry_2
Rb0 Y0 3.616582 1_555
Rb0 Y0 3.616582 1_554
Mg0 Y0 3.246132 1_555
Mg0 Mg1 3.305075 1_555
Mg0 Mg5 3.327173 1_556
Mg0 Mg5 3.327173 1_555
Mg0 Rb0 3.395479 1_656
Mg0 Rb0 3.395479 1_655
Mg0 Mg2 3.430861 1_555
Mg0 Mg2 3.433717 1_565
Mg0 Mg3 3.434068 1_556
Mg0 Mg3 3.434068 1_555
Mg0 Y0 3.613689 1_655
Mg1 Y0 3.246132 1_555
Mg1 Mg5 3.327173 1_556
Mg1 Mg5 3.327173 1_555
Mg1 Rb0 3.395479 1_546
Mg1 Rb0 3.395479 1_545
Mg1 Mg2 3.430861 1_555
Mg1 Mg2 3.433717 1_455
Mg1 Mg4 3.434068 1_556
Mg1 Mg4 3.434068 1_555
Mg1 Y0 3.613689 1_545
Mg2 Mg3 3.408652 1_546
Mg2 Mg3 3.408652 1_545
Mg2 Mg4 3.408652 1_655
Mg2 Mg4 3.408652 1_656
Mg2 Mg5 3.439085 1_556
Mg2 Mg5 3.439085 1_555
Mg2 Y0 3.529288 1_545
Mg2 Y0 3.529288 1_655
Mg3 Y0 3.280150 1_555
Mg3 Y0 3.280150 1_554
Mg3 Mg4 3.320078 1_555
Mg3 Rb0 3.365144 1_655
Mg3 Mg5 3.427211 1_555
Mg3 Mg5 3.436594 1_565
Mg3 Rb0 3.502266 1_555
Mg4 Y0 3.280150 1_555
Mg4 Y0 3.280150 1_554
Mg4 Rb0 3.365144 1_545
Mg4 Mg5 3.427211 1_555
Mg4 Mg5 3.436594 1_455
Mg4 Rb0 3.502266 1_555
Mg5 Rb0 3.533968 1_655
Mg5 Rb0 3.533968 1_545
