# generated using pymatgen
data_Sr3CoRuO6
_symmetry_space_group_name_H-M   'P 1'
_cell_length_a   6.63099437
_cell_length_b   6.77941444
_cell_length_c   6.63347757
_cell_angle_alpha   92.07051520
_cell_angle_beta   93.39088701
_cell_angle_gamma   92.08239356
_symmetry_Int_Tables_number   1
_chemical_formula_structural   Sr3CoRuO6
_chemical_formula_sum   'Sr6 Co2 Ru2 O12'
_cell_volume   297.26532222
_cell_formula_units_Z   2
loop_
 _symmetry_equiv_pos_site_id
 _symmetry_equiv_pos_as_xyz
  1  'x, y, z'
loop_
 _atom_site_type_symbol
 _atom_site_label
 _atom_site_symmetry_multiplicity
 _atom_site_fract_x
 _atom_site_fract_y
 _atom_site_fract_z
 _atom_site_occupancy
  Sr  Sr0  1  0.61542438  0.88853002  0.25057001  1
  Sr  Sr1  1  0.88431073  0.24993267  0.61574689  1
  Sr  Sr2  1  0.24927297  0.61130493  0.88433853  1
  Sr  Sr3  1  0.11568743  0.75005821  0.38426162  1
  Sr  Sr4  1  0.75071544  0.38867740  0.11567184  1
  Sr  Sr5  1  0.38454221  0.11148944  0.74941656  1
  Co  Co0  1  0.23732499  0.25039781  0.26307884  1
  Co  Co1  1  0.76274174  0.74959896  0.73685590  1
  Ru  Ru0  1  -0.00002193  0.00001964  0.00000526  1
  Ru  Ru1  1  0.49995074  0.49998350  0.50000696  1
  O  O0  1  0.52783934  0.21405363  0.39943527  1
  O  O1  1  0.20864091  0.40709744  0.53345827  1
  O  O2  1  0.41655961  0.55231235  0.21972361  1
  O  O3  1  0.03280843  0.90680125  0.70863688  1
  O  O4  1  0.89928547  0.71414454  0.02794092  1
  O  O5  1  0.71969177  0.05293196  0.91748212  1
  O  O6  1  0.47215019  0.78596815  0.60054552  1
  O  O7  1  0.79139048  0.59294168  0.46652774  1
  O  O8  1  0.58341272  0.44769429  0.78025424  1
  O  O9  1  0.96717628  0.09316330  0.29138938  1
  O  O10  1  0.10072413  0.28583039  0.97208713  1
  O  O11  1  0.28036998  0.94706545  0.08256652  1
loop_
_geom_bond_atom_site_label_1
_geom_bond_atom_site_label_2
_geom_bond_distance
_geom_bond_site_symmetry_2
Co0 O9 2.072674 1_455
Co0 O1 2.073386 1_555
Co0 O0 2.105789 1_555
Co0 O10 2.108712 1_554
Co0 O2 2.364496 1_555
Co0 O11 2.376825 1_545
Co1 O3 2.072007 1_655
Co1 O7 2.072919 1_555
Co1 O6 2.106159 1_555
Co1 O4 2.109146 1_556
Co1 O8 2.364791 1_555
Co1 O5 2.377198 1_565
O0 Ru1 2.045486 1_555
O0 Sr0 2.487206 1_545
O0 Sr5 2.665660 1_555
O0 Sr1 2.690209 1_555
O0 Sr4 2.737117 1_555
O1 Ru1 2.037043 1_555
O1 Sr1 2.464307 1_455
O1 Sr3 2.638870 1_555
O1 Sr2 2.659429 1_555
O1 Sr5 2.758365 1_555
O2 Ru1 1.956718 1_555
O2 Sr2 2.478838 1_554
O2 Sr0 2.586925 1_555
O2 Sr4 2.630779 1_555
O2 Sr3 2.704641 1_555
O3 Ru0 2.038123 1_566
O3 Sr3 2.465416 1_555
O3 Sr1 2.637973 1_465
O3 Sr5 2.664893 1_565
O3 Sr2 2.758928 1_555
O4 Ru0 2.045189 1_665
O4 Sr4 2.486042 1_555
O4 Sr2 2.666563 1_654
O4 Sr3 2.690169 1_655
O4 Sr0 2.736056 1_555
O5 Ru0 1.955744 1_656
O5 Sr5 2.478399 1_555
O5 Sr4 2.582511 1_556
O5 Sr0 2.627725 1_546
O5 Sr1 2.706870 1_555
O6 Ru1 2.045685 1_555
O6 Sr5 2.487250 1_565
O6 Sr0 2.665560 1_555
O6 Sr3 2.690081 1_555
O6 Sr2 2.737382 1_555
O7 Ru1 2.038025 1_555
O7 Sr3 2.463938 1_655
O7 Sr1 2.639171 1_555
O7 Sr4 2.659487 1_555
O7 Sr0 2.758441 1_555
O8 Ru1 1.956542 1_555
O8 Sr4 2.479104 1_556
O8 Sr5 2.586868 1_555
O8 Sr2 2.630677 1_555
O8 Sr1 2.704741 1_555
O9 Ru0 2.038047 1_655
O9 Sr1 2.465361 1_555
O9 Sr3 2.637818 1_645
O9 Sr0 2.664823 1_545
O9 Sr4 2.759051 1_555
O10 Ru0 2.044868 1_556
O10 Sr2 2.486068 1_555
O10 Sr4 2.666657 1_456
O10 Sr1 2.690310 1_455
O10 Sr5 2.735869 1_555
O11 Ru0 1.956525 1_565
O11 Sr0 2.477649 1_555
O11 Sr2 2.582727 1_554
O11 Sr5 2.627962 1_564
O11 Sr3 2.706865 1_555
