# generated using pymatgen
data_SmVSb3
_symmetry_space_group_name_H-M   'P 1'
_cell_length_a   6.03701700
_cell_length_b   6.27042800
_cell_length_c   13.09078100
_cell_angle_alpha   90.00000000
_cell_angle_beta   90.00000000
_cell_angle_gamma   90.00000000
_symmetry_Int_Tables_number   1
_chemical_formula_structural   SmVSb3
_chemical_formula_sum   'Sm4 V4 Sb12'
_cell_volume   495.54733138
_cell_formula_units_Z   4
loop_
 _symmetry_equiv_pos_site_id
 _symmetry_equiv_pos_as_xyz
  1  'x, y, z'
loop_
 _atom_site_type_symbol
 _atom_site_label
 _atom_site_symmetry_multiplicity
 _atom_site_fract_x
 _atom_site_fract_y
 _atom_site_fract_z
 _atom_site_occupancy
  Sm  Sm0  1  0.25000000  0.50265200  0.30937500  1
  Sm  Sm1  1  0.75000000  0.49734800  0.69062500  1
  Sm  Sm2  1  0.25000000  0.00265200  0.69062500  1
  Sm  Sm3  1  0.75000000  0.99734800  0.30937500  1
  V  V0  1  0.00000000  0.75000000  0.90493200  1
  V  V1  1  0.00000000  0.25000000  0.09506800  1
  V  V2  1  0.50000000  0.25000000  0.09506800  1
  V  V3  1  0.50000000  0.75000000  0.90493200  1
  Sb  Sb0  1  0.00000000  0.75000000  0.50117000  1
  Sb  Sb1  1  0.00000000  0.25000000  0.49883000  1
  Sb  Sb2  1  0.50000000  0.25000000  0.49883000  1
  Sb  Sb3  1  0.50000000  0.75000000  0.50117000  1
  Sb  Sb4  1  0.25000000  0.60428400  0.06539700  1
  Sb  Sb5  1  0.75000000  0.39571600  0.93460300  1
  Sb  Sb6  1  0.25000000  0.10428400  0.93460300  1
  Sb  Sb7  1  0.75000000  0.89571600  0.06539700  1
  Sb  Sb8  1  0.25000000  0.99679700  0.22050700  1
  Sb  Sb9  1  0.75000000  0.00320300  0.77949300  1
  Sb  Sb10  1  0.25000000  0.49679700  0.77949300  1
  Sb  Sb11  1  0.75000000  0.50320300  0.22050700  1
loop_
_geom_bond_atom_site_label_1
_geom_bond_atom_site_label_2
_geom_bond_distance
_geom_bond_site_symmetry_2
Sb0 Sb3 3.018508 1_555
Sb0 Sb3 3.018508 1_455
Sb0 Sb1 3.135364 1_555
Sb0 Sb1 3.135364 1_565
Sb0 Sm2 3.307358 1_565
Sb0 Sm1 3.307358 1_455
Sb0 Sm3 3.314699 1_455
Sb0 Sm0 3.314699 1_555
Sb1 Sb2 3.018508 1_455
Sb1 Sb2 3.018508 1_555
Sb1 Sm0 3.307358 1_555
Sb1 Sm3 3.307358 1_445
Sb1 Sm1 3.314699 1_455
Sb1 Sm2 3.314699 1_555
Sb2 Sb3 3.135364 1_545
Sb2 Sb3 3.135364 1_555
Sb2 Sm0 3.307358 1_555
Sb2 Sm3 3.307358 1_545
Sb2 Sm1 3.314699 1_555
Sb2 Sm2 3.314699 1_555
Sb3 Sm2 3.307358 1_565
Sb3 Sm1 3.307358 1_555
Sb3 Sm3 3.314699 1_555
Sb3 Sm0 3.314699 1_555
Sb4 V2 2.713638 1_555
Sb4 V1 2.713638 1_555
Sb4 V3 2.743223 1_554
Sb4 V0 2.743223 1_554
Sb4 Sb8 3.190705 1_555
Sb4 Sm0 3.256820 1_555
Sb5 V3 2.713638 1_555
Sb5 V0 2.713638 1_655
Sb5 V1 2.743223 1_656
Sb5 V2 2.743223 1_556
Sb5 Sb9 3.190705 1_555
Sb5 Sm1 3.256820 1_555
Sb6 V0 2.713638 1_545
Sb6 V3 2.713638 1_545
Sb6 V1 2.743223 1_556
Sb6 V2 2.743223 1_556
Sb6 Sm2 3.256820 1_555
Sb7 V1 2.713638 1_665
Sb7 V2 2.713638 1_565
Sb7 V3 2.743223 1_554
Sb7 V0 2.743223 1_654
Sb7 Sm3 3.256820 1_555
Sb8 V2 2.737715 1_565
Sb8 V1 2.737715 1_565
Sb8 Sm3 3.234933 1_455
Sb8 Sm3 3.234933 1_555
Sb8 Sm0 3.309697 1_555
Sb8 Sm0 3.378537 1_565
Sb9 V0 2.737715 1_645
Sb9 V3 2.737715 1_545
Sb9 Sm2 3.234933 1_555
Sb9 Sm2 3.234933 1_655
Sb9 Sm1 3.309697 1_555
Sb9 Sm1 3.378537 1_545
Sb10 V3 2.737715 1_555
Sb10 V0 2.737715 1_555
Sb10 Sb6 3.190705 1_555
Sb10 Sm1 3.234933 1_455
Sb10 Sm1 3.234933 1_555
Sb10 Sm2 3.309697 1_555
Sb10 Sm2 3.378537 1_565
Sb11 V1 2.737715 1_655
Sb11 V2 2.737715 1_555
Sb11 Sb7 3.190705 1_555
Sb11 Sm0 3.234933 1_655
Sb11 Sm0 3.234933 1_555
Sb11 Sm3 3.309697 1_555
Sb11 Sm3 3.378537 1_545
