# generated using pymatgen
data_Ba6Nd2Al4O15
_symmetry_space_group_name_H-M   'P 1'
_cell_length_a   5.99095875
_cell_length_b   7.96238133
_cell_length_c   18.62672453
_cell_angle_alpha   91.43502205
_cell_angle_beta   90.00000000
_cell_angle_gamma   90.00000000
_symmetry_Int_Tables_number   1
_chemical_formula_structural   Ba6Nd2Al4O15
_chemical_formula_sum   'Ba12 Nd4 Al8 O30'
_cell_volume   888.25889255
_cell_formula_units_Z   2
loop_
 _symmetry_equiv_pos_site_id
 _symmetry_equiv_pos_as_xyz
  1  'x, y, z'
loop_
 _atom_site_type_symbol
 _atom_site_label
 _atom_site_symmetry_multiplicity
 _atom_site_fract_x
 _atom_site_fract_y
 _atom_site_fract_z
 _atom_site_occupancy
  Ba  Ba0  1  0.75637418  0.50359221  0.41678447  1
  Ba  Ba1  1  0.24362582  0.49640779  0.58321553  1
  Ba  Ba2  1  0.75637418  0.49640779  0.08321553  1
  Ba  Ba3  1  0.24362582  0.50359221  0.91678447  1
  Ba  Ba4  1  0.74957961  0.96878174  0.40872930  1
  Ba  Ba5  1  0.25042039  0.03121826  0.59127070  1
  Ba  Ba6  1  0.74957961  0.03121826  0.09127070  1
  Ba  Ba7  1  0.25042039  0.96878174  0.90872930  1
  Ba  Ba8  1  0.72023318  -0.00000000  0.75000000  1
  Ba  Ba9  1  0.27976682  -0.00000000  0.25000000  1
  Ba  Ba10  1  0.67045540  0.50000000  0.75000000  1
  Ba  Ba11  1  0.32954460  0.50000000  0.25000000  1
  Nd  Nd0  1  0.74854872  0.75385034  0.58981053  1
  Nd  Nd1  1  0.25145128  0.24614966  0.41018947  1
  Nd  Nd2  1  0.74854872  0.24614966  0.91018947  1
  Nd  Nd3  1  0.25145128  0.75385034  0.08981053  1
  Al  Al0  1  0.74742165  0.75249642  0.94180795  1
  Al  Al1  1  0.25257835  0.24750358  0.05819205  1
  Al  Al2  1  0.74742165  0.24750358  0.55819205  1
  Al  Al3  1  0.25257835  0.75249642  0.44180795  1
  Al  Al4  1  0.77456713  0.78068395  0.23410517  1
  Al  Al5  1  0.22543287  0.21931605  0.76589483  1
  Al  Al6  1  0.77456713  0.21931605  0.26589483  1
  Al  Al7  1  0.22543287  0.78068395  0.73410517  1
  O  O0  1  0.20664199  -0.00000000  0.75000000  1
  O  O1  1  0.79335801  -0.00000000  0.25000000  1
  O  O2  1  0.50020336  0.76331594  0.49415443  1
  O  O3  1  0.49979664  0.23668406  0.50584557  1
  O  O4  1  0.50020336  0.23668406  0.00584557  1
  O  O5  1  0.49979664  0.76331594  0.99415443  1
  O  O6  1  0.76435087  0.93932540  0.89157050  1
  O  O7  1  0.23564913  0.06067460  0.10842950  1
  O  O8  1  0.76435087  0.06067460  0.60842950  1
  O  O9  1  0.23564913  0.93932540  0.39157050  1
  O  O10  1  0.02213563  0.76349268  0.50254394  1
  O  O11  1  0.97786437  0.23650732  0.49745606  1
  O  O12  1  0.02213563  0.23650732  0.99745606  1
  O  O13  1  0.97786437  0.76349268  0.00254394  1
  O  O14  1  0.32085177  0.69665344  0.81350692  1
  O  O15  1  0.67914823  0.30334656  0.18649308  1
  O  O16  1  0.32085177  0.30334656  0.68649308  1
  O  O17  1  0.67914823  0.69665344  0.31350692  1
  O  O18  1  0.43511641  0.75426948  0.66683865  1
  O  O19  1  0.56488359  0.24573052  0.33316135  1
  O  O20  1  0.43511641  0.24573052  0.83316135  1
  O  O21  1  0.56488359  0.75426948  0.16683865  1
  O  O22  1  0.96650588  0.72829869  0.69519027  1
  O  O23  1  0.03349412  0.27170131  0.30480973  1
  O  O24  1  0.96650588  0.27170131  0.80480973  1
  O  O25  1  0.03349412  0.72829869  0.19519027  1
  O  O26  1  0.75629951  0.54427336  0.90535592  1
  O  O27  1  0.24370149  0.45572664  0.09464408  1
  O  O28  1  0.75629951  0.45572664  0.59464408  1
  O  O29  1  0.24370149  0.54427336  0.40535592  1
loop_
_geom_bond_atom_site_label_1
_geom_bond_atom_site_label_2
_geom_bond_distance
_geom_bond_site_symmetry_2
Ba0 O17 2.534944 1_555
Ba0 O19 2.792438 1_555
Ba0 O2 2.925692 1_555
Ba0 O29 2.945762 1_655
Ba0 O11 2.949802 1_555
Ba0 O10 3.033758 1_655
Ba0 O29 3.096320 1_555
Ba0 O3 3.131770 1_555
Ba0 O23 3.212922 1_655
Ba0 O28 3.344261 1_555
Ba1 O16 2.534944 1_555
Ba1 O18 2.792438 1_555
Ba1 O3 2.925692 1_555
Ba1 O28 2.945756 1_455
Ba1 O10 2.949802 1_555
Ba1 O11 3.033758 1_455
Ba1 O28 3.096326 1_555
Ba1 O2 3.131770 1_555
Ba1 O22 3.212922 1_455
Ba1 O29 3.344261 1_555
Ba2 O15 2.534944 1_555
Ba2 O21 2.792438 1_555
Ba2 O4 2.925692 1_555
Ba2 O27 2.945762 1_655
Ba2 O13 2.949802 1_555
Ba2 O12 3.033758 1_654
Ba2 O27 3.096320 1_555
Ba2 O5 3.131770 1_554
Ba2 O25 3.212922 1_655
Ba2 O26 3.344261 1_554
Ba3 O14 2.534944 1_555
Ba3 O20 2.792438 1_555
Ba3 O5 2.925692 1_555
Ba3 O26 2.945756 1_455
Ba3 O12 2.949802 1_555
Ba3 O13 3.033758 1_456
Ba3 O26 3.096326 1_555
Ba3 O4 3.131770 1_556
Ba3 O24 3.212922 1_455
Ba3 O27 3.344261 1_556
Ba4 O2 2.751509 1_555
Ba4 O17 2.797583 1_555
Ba4 O19 2.867734 1_565
Ba4 O10 2.921444 1_655
Ba4 O9 2.938245 1_655
Ba4 O1 2.984780 1_565
Ba4 O11 2.994939 1_565
Ba4 O9 3.103749 1_555
Ba4 O3 3.141445 1_565
Ba5 O3 2.751509 1_555
Ba5 O16 2.797583 1_555
Ba5 O18 2.867734 1_545
Ba5 O11 2.921444 1_455
Ba5 O8 2.938245 1_455
Ba5 O0 2.984780 1_555
Ba5 O10 2.994939 1_545
Ba5 O8 3.103749 1_555
Ba5 O2 3.141445 1_545
Ba6 O4 2.751509 1_555
Ba6 O15 2.797583 1_555
Ba6 O21 2.867734 1_545
Ba6 O12 2.921444 1_654
Ba6 O7 2.938245 1_655
Ba6 O1 2.984780 1_555
Ba6 O13 2.994939 1_545
Ba6 O7 3.103749 1_555
Ba6 O5 3.141445 1_544
Ba7 O5 2.751509 1_555
Ba7 O14 2.797583 1_555
Ba7 O20 2.867734 1_565
Ba7 O13 2.921444 1_456
Ba7 O6 2.938245 1_455
Ba7 O0 2.984780 1_565
Ba7 O12 2.994939 1_565
Ba7 O6 3.103749 1_555
Ba7 O4 3.141445 1_566
Ba8 O6 2.705699 1_545
Ba8 O8 2.705699 1_555
Ba8 O22 2.790834 1_545
Ba8 O24 2.790834 1_555
Ba8 O0 2.914055 1_655
Ba8 O18 2.998940 1_545
Ba8 O20 2.998940 1_555
Ba8 O0 3.076904 1_555
Ba9 O7 2.705699 1_555
Ba9 O9 2.705699 1_545
Ba9 O25 2.790834 1_545
Ba9 O23 2.790834 1_555
Ba9 O1 2.914055 1_455
Ba9 O21 2.998940 1_545
Ba9 O19 2.998940 1_555
Ba9 O1 3.076904 1_555
Ba10 O22 2.754159 1_555
Ba10 O24 2.754159 1_555
Ba10 O16 2.853967 1_555
Ba10 O14 2.853967 1_555
Ba10 O20 2.939958 1_555
Ba10 O18 2.939958 1_555
Ba10 O26 2.951540 1_555
Ba10 O28 2.951540 1_555
Ba11 O23 2.754159 1_555
Ba11 O25 2.754159 1_555
Ba11 O15 2.853967 1_555
Ba11 O17 2.853967 1_555
Ba11 O19 2.939958 1_555
Ba11 O21 2.939958 1_555
Ba11 O27 2.951539 1_555
Ba11 O29 2.951539 1_555
Nd0 O10 2.311026 1_655
Nd0 O2 2.323941 1_555
Nd0 O18 2.363123 1_555
Nd0 O22 2.370513 1_555
Nd0 O28 2.378187 1_555
Nd0 O8 2.460753 1_565
Nd1 O11 2.311026 1_455
Nd1 O3 2.323941 1_555
Nd1 O19 2.363123 1_555
Nd1 O23 2.370513 1_555
Nd1 O29 2.378187 1_555
Nd1 O9 2.460753 1_545
Nd2 O12 2.311026 1_655
Nd2 O4 2.323941 1_556
Nd2 O20 2.363123 1_555
Nd2 O24 2.370513 1_555
Nd2 O26 2.378187 1_555
Nd2 O6 2.460753 1_545
Nd3 O13 2.311026 1_455
Nd3 O5 2.323941 1_554
Nd3 O21 2.363123 1_555
Nd3 O25 2.370513 1_555
Nd3 O27 2.378187 1_555
Nd3 O7 2.460753 1_565
Al0 O5 1.776156 1_555
Al0 O26 1.776588 1_555
Al0 O6 1.780061 1_555
Al0 O13 1.785652 1_556
Al1 O4 1.776156 1_555
Al1 O27 1.776588 1_555
Al1 O7 1.780061 1_555
Al1 O12 1.785652 1_554
Al2 O3 1.776156 1_555
Al2 O28 1.776588 1_555
Al2 O8 1.780061 1_555
Al2 O11 1.785652 1_555
Al3 O2 1.776156 1_555
Al3 O29 1.776588 1_555
Al3 O9 1.780061 1_555
Al3 O10 1.785652 1_555
Al4 O17 1.735352 1_555
Al4 O25 1.757994 1_655
Al4 O1 1.767462 1_565
Al4 O21 1.782971 1_555
Al5 O16 1.735352 1_555
Al5 O24 1.757994 1_455
Al5 O0 1.767462 1_555
Al5 O20 1.782971 1_555
Al6 O15 1.735352 1_555
Al6 O23 1.757994 1_655
Al6 O1 1.767462 1_555
Al6 O19 1.782971 1_555
Al7 O14 1.735352 1_555
Al7 O22 1.757994 1_455
Al7 O0 1.767462 1_565
Al7 O18 1.782971 1_555
