# generated using pymatgen
data_Li2Ni3TeO8
_symmetry_space_group_name_H-M   'P 1'
_cell_length_a   5.92347533
_cell_length_b   10.49528431
_cell_length_c   5.92330813
_cell_angle_alpha   107.19058841
_cell_angle_beta   59.59495237
_cell_angle_gamma   90.97439967
_symmetry_Int_Tables_number   1
_chemical_formula_structural   Li2Ni3TeO8
_chemical_formula_sum   'Li4 Ni6 Te2 O16'
_cell_volume   299.45709978
_cell_formula_units_Z   2
loop_
 _symmetry_equiv_pos_site_id
 _symmetry_equiv_pos_as_xyz
  1  'x, y, z'
loop_
 _atom_site_type_symbol
 _atom_site_label
 _atom_site_symmetry_multiplicity
 _atom_site_fract_x
 _atom_site_fract_y
 _atom_site_fract_z
 _atom_site_occupancy
  Li  Li0  1  0.92727600  0.20254400  0.12986700  1
  Li  Li1  1  0.42722100  0.70253300  0.12975000  1
  Li  Li2  1  0.57273100  0.29731200  0.87016200  1
  Li  Li3  1  0.07284600  0.79730800  0.87023600  1
  Ni  Ni0  1  0.99992200  0.00007100  0.49993400  1
  Ni  Ni1  1  0.49998000  0.00000700  0.49993100  1
  Ni  Ni2  1  0.49991200  0.00010100  0.99992400  1
  Ni  Ni3  1  0.50012400  0.49994200  0.49997600  1
  Ni  Ni4  1  0.00008700  0.50037900  0.50049600  1
  Ni  Ni5  1  0.00003900  0.49992000  0.00007500  1
  Te  Te0  1  0.74992600  0.75004300  0.49997100  1
  Te  Te1  1  0.24995200  0.25003100  0.50001500  1
  O  O0  1  0.85360500  0.40608000  0.25981900  1
  O  O1  1  0.35332300  0.90611600  0.25935800  1
  O  O2  1  0.64649200  0.09409000  0.74035100  1
  O  O3  1  0.14686800  0.59413700  0.74096600  1
  O  O4  1  0.63143200  0.62613100  0.71697800  1
  O  O5  1  0.13139200  0.12617400  0.71710400  1
  O  O6  1  0.63291300  0.63432600  0.26731500  1
  O  O7  1  0.13293800  0.13436900  0.26736700  1
  O  O8  1  0.09078000  0.62612700  0.25758600  1
  O  O9  1  0.59084600  0.12619500  0.25754300  1
  O  O10  1  0.40916200  0.87371100  0.74223800  1
  O  O11  1  0.90914600  0.37375000  0.74229000  1
  O  O12  1  0.86708800  0.86549700  0.73248700  1
  O  O13  1  0.36696200  0.36561700  0.73255200  1
  O  O14  1  0.86856200  0.87371100  0.28280600  1
  O  O15  1  0.36847600  0.37377600  0.28290300  1
loop_
_geom_bond_atom_site_label_1
_geom_bond_atom_site_label_2
_geom_bond_distance
_geom_bond_site_symmetry_2
Li0 O9 1.990925 1_555
Li0 O5 1.991063 1_654
Li0 O7 2.009435 1_655
Li0 O0 2.016407 1_555
Li1 O4 1.991118 1_554
Li1 O8 1.991268 1_555
Li1 O6 2.010058 1_555
Li1 O1 2.017017 1_555
Li2 O15 1.991002 1_556
Li2 O11 1.991311 1_555
Li2 O13 2.011149 1_555
Li2 O2 2.013332 1_555
Li3 O14 1.990157 1_456
Li3 O10 1.990653 1_555
Li3 O12 2.011177 1_455
Li3 O3 2.013023 1_555
Ni0 O1 1.898755 1_645
Ni0 O2 1.899056 1_555
Ni0 O5 1.996354 1_655
Ni0 O14 1.996993 1_545
Ni0 O7 2.125197 1_655
Ni0 O12 2.127568 1_545
Ni1 O2 2.036386 1_555
Ni1 O1 2.037204 1_545
Ni1 O9 2.102980 1_555
Ni1 O5 2.103241 1_555
Ni1 O10 2.103592 1_545
Ni1 O14 2.103875 1_545
Ni2 O1 1.898589 1_546
Ni2 O2 1.899221 1_555
Ni2 O9 1.996022 1_556
Ni2 O10 1.996944 1_545
Ni2 O7 2.125924 1_556
Ni2 O12 2.128333 1_545
Ni3 O0 1.898698 1_555
Ni3 O3 1.899022 1_555
Ni3 O4 1.995456 1_555
Ni3 O15 1.997034 1_555
Ni3 O13 2.125500 1_555
Ni3 O6 2.126287 1_555
Ni4 O3 2.036924 1_555
Ni4 O0 2.038039 1_455
Ni4 O8 2.101555 1_555
Ni4 O4 2.101918 1_455
Ni4 O11 2.104169 1_455
Ni4 O15 2.104262 1_555
Ni5 O0 1.898755 1_455
Ni5 O3 1.899068 1_554
Ni5 O8 1.995347 1_555
Ni5 O11 1.996903 1_454
Ni5 O13 2.125910 1_554
Ni5 O6 2.127144 1_455
O4 Te0 1.969776 1_555
O5 Te1 1.969617 1_555
O6 Te0 1.950244 1_555
O7 Te1 1.949979 1_555
O8 Te0 1.969925 1_455
O9 Te1 1.969703 1_555
O10 Te0 1.968357 1_555
O11 Te1 1.968771 1_655
O12 Te0 1.949157 1_555
O13 Te1 1.949175 1_555
O14 Te0 1.968245 1_555
O15 Te1 1.968710 1_555
