# generated using pymatgen
data_HfMg14Cr
_symmetry_space_group_name_H-M   'P 1'
_cell_length_a   6.35133053
_cell_length_b   6.27316629
_cell_length_c   10.16426781
_cell_angle_alpha   90.00000000
_cell_angle_beta   90.00000000
_cell_angle_gamma   119.59372940
_symmetry_Int_Tables_number   1
_chemical_formula_structural   HfMg14Cr
_chemical_formula_sum   'Hf1 Mg14 Cr1'
_cell_volume   352.14511249
_cell_formula_units_Z   1
loop_
 _symmetry_equiv_pos_site_id
 _symmetry_equiv_pos_as_xyz
  1  'x, y, z'
loop_
 _atom_site_type_symbol
 _atom_site_label
 _atom_site_symmetry_multiplicity
 _atom_site_fract_x
 _atom_site_fract_y
 _atom_site_fract_z
 _atom_site_occupancy
  Hf  Hf0  1  0.16322027  0.83160964  0.12500000  1
  Mg  Mg0  1  0.16614729  0.33307315  0.62500000  1
  Mg  Mg1  1  0.16695416  0.83347658  0.62500000  1
  Mg  Mg2  1  0.66295838  0.33672550  0.12500000  1
  Mg  Mg3  1  0.66615874  0.33249383  0.62500000  1
  Mg  Mg4  1  0.66295838  0.82623189  0.12500000  1
  Mg  Mg5  1  0.66615874  0.83366390  0.62500000  1
  Mg  Mg6  1  0.32962134  0.16579085  0.36995727  1
  Mg  Mg7  1  0.32962134  0.16579085  0.88004273  1
  Mg  Mg8  1  0.32962134  0.66383148  0.36995727  1
  Mg  Mg9  1  0.32962134  0.66383148  0.88004273  1
  Mg  Mg10  1  0.83974533  0.16987316  0.36788207  1
  Mg  Mg11  1  0.83974533  0.16987316  0.88211793  1
  Mg  Mg12  1  0.83802650  0.66901375  0.37508210  1
  Mg  Mg13  1  0.83802650  0.66901375  0.87491790  1
  Cr  Cr0  1  0.17141502  0.33570701  0.12500000  1
loop_
_geom_bond_atom_site_label_1
_geom_bond_atom_site_label_2
_geom_bond_distance
_geom_bond_site_symmetry_2
Hf0 Mg9 3.085863 1_554
Hf0 Mg8 3.085863 1_555
Hf0 Mg6 3.085870 1_565
Hf0 Mg7 3.085870 1_564
Hf0 Mg12 3.112362 1_455
Hf0 Mg13 3.112362 1_454
Hf0 Mg2 3.160804 1_455
Hf0 Mg4 3.160805 1_455
Hf0 Mg2 3.190797 1_565
Hf0 Mg4 3.190797 1_555
Mg0 Mg1 3.136586 1_555
Mg0 Mg1 3.136586 1_545
Mg0 Mg6 3.158405 1_555
Mg0 Mg7 3.158405 1_555
Mg0 Mg9 3.158412 1_555
Mg0 Mg8 3.158412 1_555
Mg0 Mg5 3.173799 1_445
Mg0 Mg3 3.173799 1_455
Mg0 Mg10 3.174821 1_455
Mg0 Mg11 3.174821 1_455
Mg0 Mg5 3.177534 1_555
Mg0 Mg3 3.177534 1_555
Mg1 Mg13 3.122950 1_455
Mg1 Mg12 3.122950 1_455
Mg1 Mg8 3.163234 1_555
Mg1 Mg9 3.163234 1_555
Mg1 Mg6 3.163240 1_565
Mg1 Mg7 3.163240 1_565
Mg1 Mg3 3.170033 1_565
Mg1 Mg5 3.170033 1_555
Mg1 Mg3 3.181298 1_455
Mg1 Mg5 3.181298 1_455
Mg2 Mg4 3.070755 1_555
Mg2 Mg7 3.096608 1_554
Mg2 Mg6 3.096608 1_555
Mg2 Mg4 3.202411 1_545
Mg3 Mg5 3.129243 1_545
Mg3 Mg5 3.143923 1_555
Mg3 Mg6 3.189784 1_555
Mg3 Mg7 3.189784 1_555
Mg4 Mg8 3.096608 1_555
Mg4 Mg9 3.096608 1_554
Mg5 Mg8 3.189784 1_555
Mg5 Mg9 3.189784 1_555
Mg6 Mg8 3.124292 1_555
Mg6 Mg8 3.148875 1_545
Mg7 Mg9 3.124292 1_555
Mg7 Mg9 3.148875 1_545
Mg10 Mg2 3.100272 1_555
Mg10 Mg4 3.100278 1_545
Mg10 Mg8 3.124162 1_655
Mg10 Mg6 3.124162 1_655
Mg10 Mg12 3.137451 1_545
Mg10 Mg12 3.137451 1_555
Mg10 Mg3 3.193280 1_555
Mg10 Mg5 3.193286 1_545
Mg10 Mg8 3.227465 1_545
Mg10 Mg6 3.227465 1_555
Mg11 Mg2 3.100272 1_556
Mg11 Mg4 3.100278 1_546
Mg11 Mg9 3.124162 1_655
Mg11 Mg7 3.124162 1_655
Mg11 Mg13 3.137451 1_545
Mg11 Mg13 3.137451 1_555
Mg11 Mg3 3.193280 1_555
Mg11 Mg5 3.193286 1_545
Mg11 Mg9 3.227465 1_545
Mg11 Mg7 3.227465 1_555
Mg12 Mg4 3.123052 1_555
Mg12 Mg2 3.123058 1_555
Mg12 Mg5 3.134452 1_555
Mg12 Mg3 3.134458 1_555
Mg12 Mg6 3.138895 1_665
Mg12 Mg8 3.138895 1_655
Mg12 Mg6 3.213541 1_555
Mg12 Mg8 3.213541 1_555
Mg13 Mg4 3.123052 1_556
Mg13 Mg2 3.123058 1_556
Mg13 Mg5 3.134452 1_555
Mg13 Mg3 3.134458 1_555
Mg13 Mg7 3.138895 1_665
Mg13 Mg9 3.138895 1_655
Mg13 Mg7 3.213541 1_555
Mg13 Mg9 3.213541 1_555
Cr0 Mg6 3.066409 1_555
Cr0 Mg7 3.066409 1_554
Cr0 Mg8 3.066415 1_555
Cr0 Mg9 3.066415 1_554
Cr0 Mg11 3.074061 1_454
Cr0 Mg10 3.074061 1_455
Cr0 Mg4 3.118804 1_555
Cr0 Mg2 3.118804 1_555
Cr0 Hf0 3.136910 1_545
Cr0 Hf0 3.136910 1_555
Cr0 Mg4 3.232536 1_445
Cr0 Mg2 3.232536 1_455
