# generated using pymatgen
data_Li9Mn2Co5O16
_symmetry_space_group_name_H-M   'P 1'
_cell_length_a   5.78553500
_cell_length_b   6.59419340
_cell_length_c   7.70826370
_cell_angle_alpha   89.72499495
_cell_angle_beta   100.62818124
_cell_angle_gamma   102.70215196
_symmetry_Int_Tables_number   1
_chemical_formula_structural   Li9Mn2Co5O16
_chemical_formula_sum   'Li9 Mn2 Co5 O16'
_cell_volume   281.76269250
_cell_formula_units_Z   1
loop_
 _symmetry_equiv_pos_site_id
 _symmetry_equiv_pos_as_xyz
  1  'x, y, z'
loop_
 _atom_site_type_symbol
 _atom_site_label
 _atom_site_symmetry_multiplicity
 _atom_site_fract_x
 _atom_site_fract_y
 _atom_site_fract_z
 _atom_site_occupancy
  Li  Li0  1  0.38159500  0.37615900  0.12276400  1
  Li  Li1  1  0.62664000  0.12169000  0.37006900  1
  Li  Li2  1  0.61762400  0.62962800  0.87337700  1
  Li  Li3  1  0.86459000  0.36632000  0.12412600  1
  Li  Li4  1  0.87750600  0.87637000  0.62795400  1
  Li  Li5  1  0.13426400  0.63441500  0.87023200  1
  Li  Li6  1  0.12087400  0.11848700  0.37587000  1
  Li  Li7  1  0.37759600  0.87903600  0.63680500  1
  Li  Li8  1  0.50045700  0.99519900  0.99971400  1
  Mn  Mn0  1  0.99651900  0.99712300  0.00137900  1
  Mn  Mn1  1  0.25559600  0.75563300  0.24672900  1
  Co  Co0  1  0.50118000  0.49807700  0.50108500  1
  Co  Co1  1  0.74309900  0.23994900  0.75476100  1
  Co  Co2  1  0.74918900  0.75337800  0.24745800  1
  Co  Co3  1  0.99946100  0.50437600  0.50261400  1
  Co  Co4  1  0.25442500  0.24060600  0.75547300  1
  O  O0  1  0.29237400  0.03876600  0.18115700  1
  O  O1  1  0.55530000  0.80751400  0.41534800  1
  O  O2  1  0.55916300  0.31402400  0.91904100  1
  O  O3  1  0.81795600  0.04024000  0.17998300  1
  O  O4  1  0.80866100  0.55389000  0.67443400  1
  O  O5  1  0.05595200  0.28411100  0.94357800  1
  O  O6  1  0.05552700  0.80340800  0.41788100  1
  O  O7  1  0.30921300  0.55628600  0.67690600  1
  O  O8  1  0.44023900  0.69012500  0.08439600  1
  O  O9  1  0.69428300  0.46355100  0.31651200  1
  O  O10  1  0.70710300  0.94443800  0.82248200  1
  O  O11  1  0.94806600  0.70763200  0.07548000  1
  O  O12  1  0.94518600  0.20152900  0.57608600  1
  O  O13  1  0.17648900  0.94576000  0.82269800  1
  O  O14  1  0.19321100  0.46513600  0.31882700  1
  O  O15  1  0.44066300  0.19714500  0.56478200  1
loop_
_geom_bond_atom_site_label_1
_geom_bond_atom_site_label_2
_geom_bond_distance
_geom_bond_site_symmetry_2
Li0 O8 2.052113 1_555
Li0 O5 2.090686 1_554
Li0 O9 2.094860 1_555
Li0 O2 2.115573 1_554
Li0 O14 2.171062 1_555
Li0 O0 2.233828 1_555
Li1 O1 2.062626 1_545
Li1 O15 2.120448 1_555
Li1 O3 2.127854 1_555
Li1 O0 2.159465 1_555
Li1 O12 2.167324 1_555
Li1 O9 2.251252 1_555
Li2 O2 2.072879 1_555
Li2 O10 2.079864 1_555
Li2 O7 2.083750 1_555
Li2 O8 2.158749 1_556
Li2 O4 2.167476 1_555
Li2 O11 2.196149 1_556
Li3 O5 2.072683 1_654
Li3 O9 2.099297 1_555
Li3 O2 2.108871 1_554
Li3 O3 2.158824 1_555
Li3 O14 2.168825 1_655
Li3 O11 2.240555 1_555
Li4 O13 2.038533 1_655
Li4 O10 2.041615 1_555
Li4 O4 2.117036 1_555
Li4 O12 2.142639 1_565
Li4 O6 2.180595 1_655
Li4 O1 2.207924 1_555
Li5 O13 2.052865 1_555
Li5 O7 2.074541 1_555
Li5 O4 2.151173 1_455
Li5 O8 2.153087 1_556
Li5 O11 2.182057 1_456
Li5 O5 2.341493 1_555
Li6 O3 2.061862 1_455
Li6 O6 2.063460 1_545
Li6 O0 2.073606 1_555
Li6 O15 2.098571 1_555
Li6 O12 2.132227 1_455
Li6 O14 2.287186 1_555
Li7 O13 2.108733 1_555
Li7 O7 2.109535 1_555
Li7 O10 2.122883 1_555
Li7 O15 2.137412 1_565
Li7 O6 2.237861 1_555
Li7 O1 2.249847 1_555
Li8 O10 2.047102 1_555
Li8 O3 2.053242 1_566
Li8 O0 2.065185 1_566
Li8 O13 2.067216 1_555
Li8 O8 2.087470 1_556
Li8 O2 2.161816 1_565
Mn0 O5 1.913212 1_664
Mn0 O3 1.923808 1_565
Mn0 O10 1.929522 1_554
Mn0 O13 1.945362 1_654
Mn0 O0 1.961535 1_665
Mn0 O11 1.965256 1_555
Mn1 O8 1.895980 1_555
Mn1 O0 1.908527 1_565
Mn1 O1 1.930042 1_555
Mn1 O14 1.966811 1_555
Mn1 O11 1.974418 1_455
Mn1 O6 1.976671 1_555
Co0 O4 1.981299 1_555
Co0 O7 1.991307 1_555
Co0 O9 2.006350 1_555
Co0 O15 2.012470 1_555
Co0 O14 2.026073 1_555
Co0 O1 2.116793 1_555
Co1 O2 1.925152 1_555
Co1 O10 1.991231 1_545
Co1 O12 2.013865 1_555
Co1 O15 2.031601 1_555
Co1 O5 2.068778 1_655
Co1 O4 2.131184 1_555
Co2 O3 1.934676 1_565
Co2 O1 1.943345 1_555
Co2 O8 1.948645 1_555
Co2 O9 1.955109 1_555
Co2 O6 1.965684 1_655
Co2 O11 1.972656 1_555
Co3 O4 1.944538 1_555
Co3 O7 1.995051 1_655
Co3 O14 2.011791 1_655
Co3 O9 2.026853 1_555
Co3 O12 2.046082 1_555
Co3 O6 2.050514 1_655
Co4 O2 1.934686 1_555
Co4 O13 1.985701 1_545
Co4 O12 2.016800 1_455
Co4 O15 2.031690 1_555
Co4 O5 2.065486 1_555
Co4 O7 2.137537 1_555
