# generated using pymatgen
data_InPb
_symmetry_space_group_name_H-M   'P 1'
_cell_length_a   6.77714417
_cell_length_b   6.77714417
_cell_length_c   11.98337627
_cell_angle_alpha   79.28111198
_cell_angle_beta   79.28111198
_cell_angle_gamma   61.37883280
_symmetry_Int_Tables_number   1
_chemical_formula_structural   InPb
_chemical_formula_sum   'In8 Pb8'
_cell_volume   471.70265817
_cell_formula_units_Z   8
loop_
 _symmetry_equiv_pos_site_id
 _symmetry_equiv_pos_as_xyz
  1  'x, y, z'
loop_
 _atom_site_type_symbol
 _atom_site_label
 _atom_site_symmetry_multiplicity
 _atom_site_fract_x
 _atom_site_fract_y
 _atom_site_fract_z
 _atom_site_occupancy
  In  In0_0  1  0.33593303  0.33593303  0.12282531  1
  In  In0_1  1  0.33593303  0.33593303  0.62282531  1
  In  In0_2  1  0.33593303  0.83593303  0.12282531  1
  In  In0_3  1  0.33593303  0.83593303  0.62282531  1
  In  In0_4  1  0.83593303  0.33593303  0.12282531  1
  In  In0_5  1  0.83593303  0.33593303  0.62282531  1
  In  In0_6  1  0.83593303  0.83593303  0.12282531  1
  In  In0_7  1  0.83593303  0.83593303  0.62282531  1
  Pb  Pb0_0  1  0.16406297  0.16406297  0.37717419  1
  Pb  Pb0_1  1  0.16406297  0.16406297  0.87717419  1
  Pb  Pb0_2  1  0.16406297  0.66406297  0.37717419  1
  Pb  Pb0_3  1  0.16406297  0.66406297  0.87717419  1
  Pb  Pb0_4  1  0.66406297  0.16406297  0.37717419  1
  Pb  Pb0_5  1  0.66406297  0.16406297  0.87717419  1
  Pb  Pb0_6  1  0.66406297  0.66406297  0.37717419  1
  Pb  Pb0_7  1  0.66406297  0.66406297  0.87717419  1
loop_
_geom_bond_atom_site_label_1
_geom_bond_atom_site_label_2
_geom_bond_distance
_geom_bond_site_symmetry_2
In0_0 Pb0_0 3.265283 1_555
In0_0 Pb0_3 3.365464 1_554
In0_0 Pb0_5 3.365464 1_554
In0_0 In0_2 3.388572 1_555
In0_0 In0_4 3.388572 1_455
In0_0 In0_4 3.388572 1_555
In0_0 In0_2 3.388572 1_545
In0_0 In0_6 3.458946 1_455
In0_0 In0_6 3.458946 1_545
In0_1 Pb0_1 3.265283 1_555
In0_1 Pb0_2 3.365464 1_555
In0_1 Pb0_4 3.365464 1_555
In0_1 In0_3 3.388572 1_555
In0_1 In0_5 3.388572 1_455
In0_1 In0_5 3.388572 1_555
In0_1 In0_3 3.388572 1_545
In0_1 In0_7 3.458946 1_545
In0_1 In0_7 3.458946 1_455
In0_2 Pb0_2 3.265283 1_555
In0_2 Pb0_7 3.365464 1_554
In0_2 Pb0_1 3.365464 1_564
In0_2 In0_6 3.388572 1_455
In0_2 In0_6 3.388572 1_555
In0_2 In0_4 3.458946 1_465
In0_2 In0_4 3.458946 1_555
In0_3 Pb0_3 3.265283 1_555
In0_3 Pb0_0 3.365464 1_565
In0_3 Pb0_6 3.365464 1_555
In0_3 In0_7 3.388572 1_455
In0_3 In0_7 3.388572 1_555
In0_3 In0_5 3.458946 1_465
In0_3 In0_5 3.458946 1_555
In0_4 Pb0_4 3.265283 1_555
In0_4 Pb0_7 3.365464 1_554
In0_4 Pb0_1 3.365464 1_654
In0_4 In0_6 3.388572 1_555
In0_4 In0_6 3.388572 1_545
In0_5 Pb0_5 3.265283 1_555
In0_5 Pb0_0 3.365464 1_655
In0_5 Pb0_6 3.365464 1_555
In0_5 In0_7 3.388572 1_555
In0_5 In0_7 3.388572 1_545
In0_6 Pb0_6 3.265283 1_555
In0_6 Pb0_3 3.365464 1_654
In0_6 Pb0_5 3.365464 1_564
In0_7 Pb0_7 3.265283 1_555
In0_7 Pb0_4 3.365464 1_565
In0_7 Pb0_2 3.365464 1_655
Pb0_0 Pb0_4 3.388572 1_455
Pb0_0 Pb0_2 3.388572 1_555
Pb0_0 Pb0_2 3.388572 1_545
Pb0_0 Pb0_4 3.388572 1_555
Pb0_0 Pb0_6 3.458946 1_545
Pb0_0 Pb0_6 3.458946 1_455
Pb0_1 Pb0_3 3.388572 1_555
Pb0_1 Pb0_5 3.388572 1_455
Pb0_1 Pb0_5 3.388572 1_555
Pb0_1 Pb0_3 3.388572 1_545
Pb0_1 Pb0_7 3.458946 1_545
Pb0_1 Pb0_7 3.458946 1_455
Pb0_2 Pb0_6 3.388572 1_455
Pb0_2 Pb0_6 3.388572 1_555
Pb0_2 Pb0_4 3.458946 1_465
Pb0_2 Pb0_4 3.458946 1_555
Pb0_3 Pb0_7 3.388572 1_455
Pb0_3 Pb0_7 3.388572 1_555
Pb0_3 Pb0_5 3.458946 1_465
Pb0_3 Pb0_5 3.458946 1_555
Pb0_4 Pb0_6 3.388572 1_555
Pb0_4 Pb0_6 3.388572 1_545
Pb0_5 Pb0_7 3.388572 1_555
Pb0_5 Pb0_7 3.388572 1_545
