# generated using pymatgen
data_K2GaOF5
_symmetry_space_group_name_H-M   'P 1'
_cell_length_a   6.29924498
_cell_length_b   6.29924498
_cell_length_c   8.05938604
_cell_angle_alpha   86.46113031
_cell_angle_beta   86.46113031
_cell_angle_gamma   75.60422047
_symmetry_Int_Tables_number   1
_chemical_formula_structural   K2GaOF5
_chemical_formula_sum   'K4 Ga2 O2 F10'
_cell_volume   308.81245574
_cell_formula_units_Z   2
loop_
 _symmetry_equiv_pos_site_id
 _symmetry_equiv_pos_as_xyz
  1  'x, y, z'
loop_
 _atom_site_type_symbol
 _atom_site_label
 _atom_site_symmetry_multiplicity
 _atom_site_fract_x
 _atom_site_fract_y
 _atom_site_fract_z
 _atom_site_occupancy
  K  K0  1  0.19341900  0.20366100  0.96678100  1
  K  K1  1  0.80658100  0.79633900  0.03321900  1
  K  K2  1  0.79633900  0.80658100  0.53321900  1
  K  K3  1  0.20366100  0.19341900  0.46678100  1
  Ga  Ga0  1  0.29534700  0.70465300  0.75000000  1
  Ga  Ga1  1  0.70465300  0.29534700  0.25000000  1
  O  O0  1  0.56920400  0.43079600  0.75000000  1
  O  O1  1  0.43079600  0.56920400  0.25000000  1
  F  F0  1  0.49734200  0.86540300  0.81077400  1
  F  F1  1  0.50265800  0.13459700  0.18922600  1
  F  F2  1  0.13459700  0.50265800  0.68922600  1
  F  F3  1  0.86540300  0.49734200  0.31077400  1
  F  F4  1  0.05027800  0.94972200  0.75000000  1
  F  F5  1  0.94972200  0.05027800  0.25000000  1
  F  F6  1  0.37955100  0.76003200  0.52342100  1
  F  F7  1  0.62044900  0.23996800  0.47657900  1
  F  F8  1  0.23996800  0.62044900  0.97657900  1
  F  F9  1  0.76003200  0.37955100  0.02342100  1
loop_
_geom_bond_atom_site_label_1
_geom_bond_atom_site_label_2
_geom_bond_distance
_geom_bond_site_symmetry_2
Ga0 O0 2.114743 1_555
Ga1 O1 2.114743 1_555
F0 Ga0 1.913935 1_555
F0 K1 2.666709 1_556
F0 K0 2.791320 1_565
F0 K2 2.814909 1_555
F1 Ga1 1.913935 1_555
F1 K0 2.666709 1_554
F1 K1 2.791320 1_545
F1 K3 2.814909 1_555
F2 Ga0 1.913935 1_555
F2 K3 2.666709 1_555
F2 K2 2.791320 1_455
F2 K0 2.814909 1_555
F3 Ga1 1.913935 1_555
F3 K2 2.666709 1_555
F3 K3 2.791320 1_655
F3 K1 2.814909 1_555
F4 Ga0 1.892440 1_555
F4 K2 2.771451 1_455
F4 K0 2.771451 1_565
F4 K1 2.921113 1_456
F4 K3 2.921113 1_565
F5 Ga1 1.892440 1_555
F5 K1 2.771451 1_545
F5 K3 2.771451 1_655
F5 K2 2.921113 1_545
F5 K0 2.921113 1_654
F6 Ga0 1.905630 1_555
F6 K3 2.700649 1_565
F6 K2 2.719641 1_555
F7 Ga1 1.905630 1_555
F7 K2 2.700649 1_545
F7 K3 2.719641 1_555
F8 Ga0 1.905630 1_555
F8 K1 2.700649 1_456
F8 K0 2.719641 1_555
F9 Ga1 1.905630 1_555
F9 K0 2.700649 1_654
F9 K1 2.719641 1_555
