# generated using pymatgen
data_Sr2ZnPb
_symmetry_space_group_name_H-M   'P 1'
_cell_length_a   13.73145201
_cell_length_b   13.73145201
_cell_length_c   13.73145201
_cell_angle_alpha   120.77695487
_cell_angle_beta   119.70518306
_cell_angle_gamma   89.58548535
_symmetry_Int_Tables_number   1
_chemical_formula_structural   Sr2ZnPb
_chemical_formula_sum   'Sr2 Zn1 Pb1'
_cell_volume   1823.84867718
_cell_formula_units_Z   1
loop_
 _symmetry_equiv_pos_site_id
 _symmetry_equiv_pos_as_xyz
  1  'x, y, z'
loop_
 _atom_site_type_symbol
 _atom_site_label
 _atom_site_symmetry_multiplicity
 _atom_site_fract_x
 _atom_site_fract_y
 _atom_site_fract_z
 _atom_site_occupancy
  Sr  Sr0  1  0.00000000  0.25496800  0.25496800  1
  Sr  Sr1  1  0.00000000  0.74503200  0.74503200  1
  Zn  Zn0  1  0.00000000  0.00000000  0.00000000  1
  Pb  Pb0  1  0.00000000  0.50000000  0.50000000  1
loop_
_geom_bond_atom_site_label_1
_geom_bond_atom_site_label_2
_geom_bond_distance
_geom_bond_site_symmetry_2
Sr0 Zn0 3.459885 1_555
Sr1 Zn0 3.459885 1_566
Pb0 Sr0 3.325055 1_555
Pb0 Sr1 3.325055 1_555
