# generated using pymatgen
data_Ho2(Ga3Rh)3
_symmetry_space_group_name_H-M   'P 1'
_cell_length_a   7.46184005
_cell_length_b   7.46184005
_cell_length_c   9.46296136
_cell_angle_alpha   90.00000000
_cell_angle_beta   90.00000000
_cell_angle_gamma   119.72502516
_symmetry_Int_Tables_number   1
_chemical_formula_structural   Ho2(Ga3Rh)3
_chemical_formula_sum   'Ho4 Ga18 Rh6'
_cell_volume   457.55812178
_cell_formula_units_Z   2
loop_
 _symmetry_equiv_pos_site_id
 _symmetry_equiv_pos_as_xyz
  1  'x, y, z'
loop_
 _atom_site_type_symbol
 _atom_site_label
 _atom_site_symmetry_multiplicity
 _atom_site_fract_x
 _atom_site_fract_y
 _atom_site_fract_z
 _atom_site_occupancy
  Ho  Ho0  1  0.99801299  0.66947678  0.25000000  1
  Ho  Ho1  1  0.00198701  0.33052322  0.75000000  1
  Ho  Ho2  1  0.66947678  0.99801299  0.25000000  1
  Ho  Ho3  1  0.33052322  0.00198701  0.75000000  1
  Ga  Ga0  1  0.12794317  0.12794317  0.25000000  1
  Ga  Ga1  1  0.87205683  0.87205683  0.75000000  1
  Ga  Ga2  1  0.00169406  0.33455423  0.07797560  1
  Ga  Ga3  1  0.99830594  0.66544577  0.92202440  1
  Ga  Ga4  1  0.99830594  0.66544577  0.57797560  1
  Ga  Ga5  1  0.33455423  0.00169406  0.42202440  1
  Ga  Ga6  1  0.00169406  0.33455423  0.42202440  1
  Ga  Ga7  1  0.66544577  0.99830594  0.57797560  1
  Ga  Ga8  1  0.66544577  0.99830594  0.92202440  1
  Ga  Ga9  1  0.33455423  0.00169406  0.07797560  1
  Ga  Ga10  1  0.33439495  0.33439495  0.56654182  1
  Ga  Ga11  1  0.66560505  0.66560505  0.43345818  1
  Ga  Ga12  1  0.66560505  0.66560505  0.06654182  1
  Ga  Ga13  1  0.33439495  0.33439495  0.93345818  1
  Ga  Ga14  1  0.33727521  0.54566716  0.25000000  1
  Ga  Ga15  1  0.66272479  0.45433284  0.75000000  1
  Ga  Ga16  1  0.54566716  0.33727521  0.25000000  1
  Ga  Ga17  1  0.45433284  0.66272479  0.75000000  1
  Rh  Rh0  1  0.67152827  0.32847173  0.00000000  1
  Rh  Rh1  1  0.32847173  0.67152827  0.00000000  1
  Rh  Rh2  1  0.32847173  0.67152827  0.50000000  1
  Rh  Rh3  1  0.67152827  0.32847173  0.50000000  1
  Rh  Rh4  1  0.00000000  0.00000000  0.00000000  1
  Rh  Rh5  1  0.00000000  0.00000000  0.50000000  1
loop_
_geom_bond_atom_site_label_1
_geom_bond_atom_site_label_2
_geom_bond_distance
_geom_bond_site_symmetry_2
Ga0 Rh4 2.552597 1_555
Ga0 Rh5 2.552597 1_555
Ga0 Ga14 2.706891 1_555
Ga0 Ga16 2.706891 1_555
Ga0 Ga5 2.711917 1_555
Ga0 Ga6 2.711917 1_555
Ga0 Ga9 2.711917 1_555
Ga0 Ga2 2.711917 1_555
Ga0 Ho2 3.058449 1_445
Ga0 Ho0 3.058449 1_445
Ga1 Rh5 2.552597 1_665
Ga1 Rh4 2.552597 1_666
Ga1 Ga17 2.706891 1_555
Ga1 Ga15 2.706891 1_555
Ga1 Ga4 2.711917 1_555
Ga1 Ga3 2.711917 1_555
Ga1 Ga7 2.711917 1_555
Ga1 Ga8 2.711917 1_555
Ga1 Ho3 3.058449 1_665
Ga1 Ho1 3.058449 1_665
Ga2 Rh0 2.550526 1_455
Ga2 Rh1 2.594691 1_555
Ga2 Rh4 2.597171 1_555
Ga2 Ga3 2.887328 1_454
Ga2 Ga8 2.919847 1_444
Ga2 Ho2 2.987972 1_445
Ga2 Ho0 2.994069 1_455
Ga2 Ho1 3.103777 1_554
Ga3 Rh1 2.550526 1_656
Ga3 Rh0 2.594691 1_556
Ga3 Rh4 2.597171 1_666
Ga3 Ga9 2.919847 1_666
Ga3 Ho3 2.987972 1_665
Ga3 Ho1 2.994069 1_655
Ga3 Ho0 3.103777 1_556
Ga4 Rh2 2.550526 1_655
Ga4 Rh3 2.594691 1_555
Ga4 Rh5 2.597171 1_665
Ga4 Ga6 2.887328 1_655
Ga4 Ga5 2.919847 1_665
Ga4 Ho3 2.987972 1_665
Ga4 Ho1 2.994069 1_655
Ga4 Ho0 3.103777 1_555
Ga5 Rh2 2.550526 1_545
Ga5 Rh3 2.594691 1_555
Ga5 Rh5 2.597171 1_555
Ga5 Ga7 2.887328 1_545
Ga5 Ho0 2.987972 1_445
Ga5 Ho2 2.994069 1_545
Ga5 Ho3 3.103777 1_555
Ga6 Rh3 2.550526 1_455
Ga6 Rh2 2.594691 1_555
Ga6 Rh5 2.597171 1_555
Ga6 Ga7 2.919847 1_445
Ga6 Ho2 2.987972 1_445
Ga6 Ho0 2.994069 1_455
Ga6 Ho1 3.103777 1_555
Ga7 Rh3 2.550526 1_565
Ga7 Rh2 2.594691 1_555
Ga7 Rh5 2.597171 1_665
Ga7 Ho1 2.987972 1_665
Ga7 Ho3 2.994069 1_565
Ga7 Ho2 3.103777 1_555
Ga8 Rh0 2.550526 1_566
Ga8 Rh1 2.594691 1_556
Ga8 Rh4 2.597171 1_666
Ga8 Ga9 2.887328 1_566
Ga8 Ho1 2.987972 1_665
Ga8 Ho3 2.994069 1_565
Ga8 Ho2 3.103777 1_556
Ga9 Rh1 2.550526 1_545
Ga9 Rh0 2.594691 1_555
Ga9 Rh4 2.597171 1_555
Ga9 Ho0 2.987972 1_445
Ga9 Ho2 2.994069 1_545
Ga9 Ho3 3.103777 1_554
Ga10 Rh5 2.583478 1_555
Ga10 Rh2 2.614791 1_555
Ga10 Rh3 2.614791 1_555
Ga10 Ga17 2.764549 1_555
Ga10 Ga15 2.764549 1_555
Ga10 Ga11 2.782956 1_555
Ga10 Ga6 2.834830 1_555
Ga10 Ga5 2.834830 1_555
Ga10 Ho3 3.015946 1_555
Ga10 Ho1 3.015946 1_555
Ga11 Rh5 2.583478 1_665
Ga11 Rh2 2.614791 1_555
Ga11 Rh3 2.614791 1_555
Ga11 Ga14 2.764549 1_555
Ga11 Ga16 2.764549 1_555
Ga11 Ga4 2.834830 1_555
Ga11 Ga7 2.834830 1_555
Ga11 Ho0 3.015946 1_555
Ga11 Ho2 3.015946 1_555
Ga12 Rh4 2.583478 1_665
Ga12 Rh0 2.614791 1_555
Ga12 Rh1 2.614791 1_555
Ga12 Ga16 2.764549 1_555
Ga12 Ga14 2.764549 1_555
Ga12 Ga13 2.782956 1_554
Ga12 Ga3 2.834830 1_554
Ga12 Ga8 2.834830 1_554
Ga12 Ho0 3.015946 1_555
Ga12 Ho2 3.015946 1_555
Ga13 Rh4 2.583478 1_556
Ga13 Rh0 2.614791 1_556
Ga13 Rh1 2.614791 1_556
Ga13 Ga17 2.764549 1_555
Ga13 Ga15 2.764549 1_555
Ga13 Ga9 2.834830 1_556
Ga13 Ga2 2.834830 1_556
Ga13 Ho1 3.015946 1_555
Ga13 Ho3 3.015946 1_555
Ga14 Rh1 2.558170 1_555
Ga14 Rh2 2.558170 1_555
Ga14 Ga16 2.689578 1_555
Ga14 Ga2 2.736782 1_555
Ga14 Ga6 2.736782 1_555
Ga14 Ho2 3.039777 1_555
Ga14 Ho0 3.095377 1_455
Ga15 Rh3 2.558170 1_555
Ga15 Rh0 2.558170 1_556
Ga15 Ga17 2.689578 1_555
Ga15 Ga4 2.736782 1_555
Ga15 Ga3 2.736782 1_555
Ga15 Ho3 3.039777 1_555
Ga15 Ho1 3.095377 1_655
Ga16 Rh3 2.558170 1_555
Ga16 Rh0 2.558170 1_555
Ga16 Ga5 2.736782 1_555
Ga16 Ga9 2.736782 1_555
Ga16 Ho0 3.039777 1_555
Ga16 Ho2 3.095377 1_545
Ga17 Rh1 2.558170 1_556
Ga17 Rh2 2.558170 1_555
Ga17 Ga7 2.736782 1_555
Ga17 Ga8 2.736782 1_555
Ga17 Ho1 3.039777 1_555
Ga17 Ho3 3.095377 1_565
