# generated using pymatgen
data_Mn2ZnO4
_symmetry_space_group_name_H-M   'P 1'
_cell_length_a   3.01639100
_cell_length_b   9.72080500
_cell_length_c   9.90275800
_cell_angle_alpha   90.00000000
_cell_angle_beta   90.00000000
_cell_angle_gamma   90.00000000
_symmetry_Int_Tables_number   1
_chemical_formula_structural   Mn2ZnO4
_chemical_formula_sum   'Mn8 Zn4 O16'
_cell_volume   290.36618166
_cell_formula_units_Z   4
loop_
 _symmetry_equiv_pos_site_id
 _symmetry_equiv_pos_as_xyz
  1  'x, y, z'
loop_
 _atom_site_type_symbol
 _atom_site_label
 _atom_site_symmetry_multiplicity
 _atom_site_fract_x
 _atom_site_fract_y
 _atom_site_fract_z
 _atom_site_occupancy
  Mn  Mn0  1  0.29473700  0.57044700  0.11578700  1
  Mn  Mn1  1  0.29473700  0.07044700  0.38421300  1
  Mn  Mn2  1  0.70526300  0.07044700  0.88421300  1
  Mn  Mn3  1  0.29473700  0.42955300  0.38421300  1
  Mn  Mn4  1  0.70526300  0.42955300  0.88421300  1
  Mn  Mn5  1  0.29473700  0.92955300  0.11578700  1
  Mn  Mn6  1  0.70526300  0.92955300  0.61578700  1
  Mn  Mn7  1  0.70526300  0.57044700  0.61578700  1
  Zn  Zn0  1  0.82502100  0.75000000  0.35391600  1
  Zn  Zn1  1  0.82502100  0.25000000  0.14608400  1
  Zn  Zn2  1  0.17497900  0.75000000  0.85391600  1
  Zn  Zn3  1  0.17497900  0.25000000  0.64608400  1
  O  O0  1  0.71083500  0.88702600  0.96956800  1
  O  O1  1  0.28916500  0.11297400  0.03043200  1
  O  O2  1  0.87488800  0.00000000  0.25000000  1
  O  O3  1  0.28916500  0.88702600  0.46956800  1
  O  O4  1  0.28916500  0.61297400  0.46956800  1
  O  O5  1  0.32295400  0.25000000  0.29268900  1
  O  O6  1  0.71083500  0.11297400  0.53043200  1
  O  O7  1  0.67704600  0.25000000  0.79268900  1
  O  O8  1  0.87488800  0.50000000  0.25000000  1
  O  O9  1  0.12511200  0.00000000  0.75000000  1
  O  O10  1  0.71083500  0.61297400  0.96956800  1
  O  O11  1  0.67704600  0.75000000  0.70731100  1
  O  O12  1  0.32295400  0.75000000  0.20731100  1
  O  O13  1  0.12511200  0.50000000  0.75000000  1
  O  O14  1  0.71083500  0.38702600  0.53043200  1
  O  O15  1  0.28916500  0.38702600  0.03043200  1
loop_
_geom_bond_atom_site_label_1
_geom_bond_atom_site_label_2
_geom_bond_distance
_geom_bond_site_symmetry_2
Mn0 O8 1.959399 1_455
Mn0 O10 1.960314 1_554
Mn0 O12 1.968532 1_555
Mn0 O15 1.973276 1_555
Mn0 O8 2.301689 1_555
Mn0 O10 2.317243 1_454
Mn1 O2 1.959399 1_455
Mn1 O6 1.960314 1_555
Mn1 O5 1.968532 1_555
Mn1 O3 1.973276 1_545
Mn1 O2 2.301689 1_555
Mn1 O6 2.317243 1_455
Mn2 O9 1.959399 1_655
Mn2 O1 1.960314 1_556
Mn2 O7 1.968532 1_555
Mn2 O0 1.973276 1_545
Mn2 O9 2.301689 1_555
Mn2 O1 2.317243 1_656
Mn3 O8 1.959399 1_455
Mn3 O14 1.960314 1_555
Mn3 O5 1.968532 1_555
Mn3 O4 1.973276 1_555
Mn3 O8 2.301689 1_555
Mn3 O14 2.317243 1_455
Mn4 O13 1.959399 1_655
Mn4 O15 1.960314 1_556
Mn4 O7 1.968532 1_555
Mn4 O10 1.973276 1_555
Mn4 O13 2.301689 1_555
Mn4 O15 2.317243 1_656
Mn5 O2 1.959399 1_465
Mn5 O0 1.960314 1_554
Mn5 O12 1.968532 1_555
Mn5 O1 1.973276 1_565
Mn5 O2 2.301689 1_565
Mn5 O0 2.317243 1_454
Mn6 O9 1.959399 1_665
Mn6 O3 1.960314 1_555
Mn6 O11 1.968532 1_555
Mn6 O6 1.973276 1_565
Mn6 O9 2.301689 1_565
Mn6 O3 2.317243 1_655
Mn7 O13 1.959399 1_655
Mn7 O4 1.960314 1_555
Mn7 O11 1.968532 1_555
Mn7 O14 1.973276 1_555
Mn7 O13 2.301689 1_555
Mn7 O4 2.317243 1_655
O0 Zn2 2.246329 1_655
O0 Zn2 2.387148 1_555
O1 Zn1 2.246329 1_455
O1 Zn1 2.387148 1_555
O3 Zn0 2.246329 1_455
O3 Zn0 2.387148 1_555
O4 Zn0 2.246329 1_455
O4 Zn0 2.387148 1_555
O5 Zn1 2.088921 1_455
O5 Zn1 2.097905 1_555
O6 Zn3 2.246329 1_655
O6 Zn3 2.387148 1_555
O7 Zn3 2.088921 1_655
O7 Zn3 2.097905 1_555
O10 Zn2 2.246329 1_655
O10 Zn2 2.387148 1_555
O11 Zn2 2.088921 1_655
O11 Zn2 2.097905 1_555
O12 Zn0 2.088921 1_455
O12 Zn0 2.097905 1_555
O14 Zn3 2.246329 1_655
O14 Zn3 2.387148 1_555
O15 Zn1 2.246329 1_455
O15 Zn1 2.387148 1_555
