# generated using pymatgen
data_IrC
_symmetry_space_group_name_H-M   'P 1'
_cell_length_a   3.05025224
_cell_length_b   3.05025224
_cell_length_c   2.67338200
_cell_angle_alpha   90.00000000
_cell_angle_beta   90.00000000
_cell_angle_gamma   120.00000526
_symmetry_Int_Tables_number   1
_chemical_formula_structural   IrC
_chemical_formula_sum   'Ir1 C1'
_cell_volume   21.54086498
_cell_formula_units_Z   1
loop_
 _symmetry_equiv_pos_site_id
 _symmetry_equiv_pos_as_xyz
  1  'x, y, z'
loop_
 _atom_site_type_symbol
 _atom_site_label
 _atom_site_symmetry_multiplicity
 _atom_site_fract_x
 _atom_site_fract_y
 _atom_site_fract_z
 _atom_site_occupancy
  Ir  Ir0  1  0.00000000  0.00000000  0.00000000  1
  C  C0  1  0.33333300  0.66666700  0.50000000  1
loop_
_geom_bond_atom_site_label_1
_geom_bond_atom_site_label_2
_geom_bond_distance
_geom_bond_site_symmetry_2
C0 Ir0 2.210901 1_566
C0 Ir0 2.210901 1_565
C0 Ir0 2.210903 1_556
C0 Ir0 2.210903 1_666
C0 Ir0 2.210903 1_555
C0 Ir0 2.210903 1_665
