# generated using pymatgen
data_Na3P6(PbO9)2
_symmetry_space_group_name_H-M   'P 1'
_cell_length_a   7.79122299
_cell_length_b   7.80857447
_cell_length_c   8.36413737
_cell_angle_alpha   117.63328841
_cell_angle_beta   102.82010052
_cell_angle_gamma   96.00305710
_symmetry_Int_Tables_number   1
_chemical_formula_structural   Na3P6(PbO9)2
_chemical_formula_sum   'Na3 P6 Pb2 O18'
_cell_volume   426.70921571
_cell_formula_units_Z   1
loop_
 _symmetry_equiv_pos_site_id
 _symmetry_equiv_pos_as_xyz
  1  'x, y, z'
loop_
 _atom_site_type_symbol
 _atom_site_label
 _atom_site_symmetry_multiplicity
 _atom_site_fract_x
 _atom_site_fract_y
 _atom_site_fract_z
 _atom_site_occupancy
  Na  Na0  1  0.32774000  0.65135400  0.46903600  1
  Na  Na1  1  0.67226000  0.34864600  0.53096400  1
  Na  Na2  1  0.00000000  0.50000000  0.00000000  1
  P  P0  1  0.01183900  0.22188200  0.27594900  1
  P  P1  1  0.98816100  0.77811800  0.72405100  1
  P  P2  1  0.25879600  0.33955800  0.64927900  1
  P  P3  1  0.74120400  0.66044200  0.35072100  1
  P  P4  1  0.73471600  0.01504000  0.68650800  1
  P  P5  1  0.26528400  0.98496000  0.31349200  1
  Pb  Pb0  1  0.39637500  0.18414600  0.03200100  1
  Pb  Pb1  1  0.60362500  0.81585400  0.96799900  1
  O  O0  1  0.06789900  0.32169600  0.50608700  1
  O  O1  1  0.93210100  0.67830400  0.49391300  1
  O  O2  1  0.24463100  0.77150400  0.25731000  1
  O  O3  1  0.75536900  0.22849600  0.74269000  1
  O  O4  1  0.80807200  0.16742100  0.20511400  1
  O  O5  1  0.19192800  0.83257900  0.79488600  1
  O  O6  1  0.22916800  0.37572400  0.83107900  1
  O  O7  1  0.77083200  0.62427600  0.16892100  1
  O  O8  1  0.58987500  0.52136500  0.35009600  1
  O  O9  1  0.41012500  0.47863500  0.64990400  1
  O  O10  1  0.28251500  0.11159700  0.53738200  1
  O  O11  1  0.71748500  0.88840300  0.46261800  1
  O  O12  1  0.41719900  0.08836700  0.27904300  1
  O  O13  1  0.58280100  0.91163300  0.72095700  1
  O  O14  1  0.11984700  0.34775800  0.22361500  1
  O  O15  1  0.88015300  0.65224200  0.77638500  1
  O  O16  1  0.07414300  0.01258700  0.21437100  1
  O  O17  1  0.92585700  0.98741300  0.78562900  1
loop_
_geom_bond_atom_site_label_1
_geom_bond_atom_site_label_2
_geom_bond_distance
_geom_bond_site_symmetry_2
Na0 O2 2.365376 1_555
Na0 O14 2.380018 1_555
Na0 O13 2.417459 1_555
Na0 O9 2.482403 1_555
Na0 O8 2.567052 1_555
Na0 O5 2.926715 1_555
Na1 O3 2.365376 1_555
Na1 O15 2.380018 1_555
Na1 O12 2.417459 1_555
Na1 O8 2.482403 1_555
Na1 O9 2.567052 1_555
Na1 O4 2.926715 1_555
Na2 O2 2.420989 1_555
Na2 O3 2.420989 1_454
Na2 O6 2.517148 1_554
Na2 O7 2.517148 1_455
Na2 O15 2.702404 1_454
Na2 O14 2.702404 1_555
O0 P0 1.633248 1_555
O0 P2 1.636197 1_555
O1 P1 1.633248 1_555
O1 P3 1.636197 1_555
O2 P5 1.486163 1_555
O3 P4 1.486163 1_555
O4 P0 1.503319 1_655
O4 Pb1 2.576800 1_544
O5 P1 1.503319 1_455
O5 Pb0 2.576800 1_566
O6 P2 1.488734 1_555
O7 P3 1.488734 1_555
O8 P3 1.514503 1_555
O8 Pb0 2.678835 1_555
O9 P2 1.514503 1_555
O9 Pb1 2.678835 1_555
O10 P5 1.626524 1_545
O10 P2 1.636714 1_555
O11 P4 1.626524 1_565
O11 P3 1.636714 1_555
O12 P5 1.517630 1_545
O12 Pb0 2.483016 1_555
O13 P4 1.517630 1_565
O13 Pb1 2.483016 1_555
O14 P0 1.501812 1_555
O15 P1 1.501812 1_555
O16 P5 1.623838 1_545
O16 P0 1.633372 1_555
O17 P4 1.623838 1_565
O17 P1 1.633372 1_555
