# generated using pymatgen
data_Sb2P2O9
_symmetry_space_group_name_H-M   'P 1'
_cell_length_a   6.63705100
_cell_length_b   8.41639800
_cell_length_c   14.67202400
_cell_angle_alpha   90.00000000
_cell_angle_beta   90.00000000
_cell_angle_gamma   90.00000000
_symmetry_Int_Tables_number   1
_chemical_formula_structural   Sb2P2O9
_chemical_formula_sum   'Sb8 P8 O36'
_cell_volume   819.58018149
_cell_formula_units_Z   4
loop_
 _symmetry_equiv_pos_site_id
 _symmetry_equiv_pos_as_xyz
  1  'x, y, z'
loop_
 _atom_site_type_symbol
 _atom_site_label
 _atom_site_symmetry_multiplicity
 _atom_site_fract_x
 _atom_site_fract_y
 _atom_site_fract_z
 _atom_site_occupancy
  Sb  Sb0  1  0.25000000  0.86101500  0.37891300  1
  Sb  Sb1  1  0.75000000  0.13898500  0.62108700  1
  Sb  Sb2  1  0.75000000  0.36101500  0.12108700  1
  Sb  Sb3  1  0.25000000  0.63898500  0.87891300  1
  Sb  Sb4  1  0.00000000  0.50000000  0.50000000  1
  Sb  Sb5  1  0.00000000  0.00000000  0.00000000  1
  Sb  Sb6  1  0.50000000  0.00000000  0.00000000  1
  Sb  Sb7  1  0.50000000  0.50000000  0.50000000  1
  P  P0  1  0.75000000  0.86272600  0.43946000  1
  P  P1  1  0.25000000  0.13727400  0.56054000  1
  P  P2  1  0.25000000  0.36272600  0.06054000  1
  P  P3  1  0.75000000  0.63727400  0.93946000  1
  P  P4  1  0.25000000  0.89294200  0.19647600  1
  P  P5  1  0.25000000  0.60705800  0.69647600  1
  P  P6  1  0.75000000  0.39294200  0.30352400  1
  P  P7  1  0.75000000  0.10705800  0.80352400  1
  O  O0  1  0.55850600  0.09425900  0.86082300  1
  O  O1  1  0.05850600  0.90574100  0.13917700  1
  O  O2  1  0.44149400  0.59425900  0.63917700  1
  O  O3  1  0.94149400  0.40574100  0.36082300  1
  O  O4  1  0.44149400  0.90574100  0.13917700  1
  O  O5  1  0.94149400  0.09425900  0.86082300  1
  O  O6  1  0.55850600  0.40574100  0.36082300  1
  O  O7  1  0.05850600  0.59425900  0.63917700  1
  O  O8  1  0.75000000  0.80549500  0.98573400  1
  O  O9  1  0.25000000  0.19450500  0.01426600  1
  O  O10  1  0.25000000  0.30549500  0.51426600  1
  O  O11  1  0.75000000  0.69450500  0.48573400  1
  O  O12  1  0.25000000  0.66590900  0.45014600  1
  O  O13  1  0.75000000  0.33409100  0.54985400  1
  O  O14  1  0.75000000  0.16590900  0.04985400  1
  O  O15  1  0.25000000  0.83409100  0.95014600  1
  O  O16  1  0.25000000  0.73795800  0.25925300  1
  O  O17  1  0.75000000  0.26204200  0.74074700  1
  O  O18  1  0.75000000  0.23795800  0.24074700  1
  O  O19  1  0.25000000  0.76204200  0.75925300  1
  O  O20  1  0.93934500  0.62148400  0.87907800  1
  O  O21  1  0.43934500  0.37851600  0.12092200  1
  O  O22  1  0.06065500  0.12148400  0.62092200  1
  O  O23  1  0.56065500  0.87851600  0.37907800  1
  O  O24  1  0.06065500  0.37851600  0.12092200  1
  O  O25  1  0.56065500  0.62148400  0.87907800  1
  O  O26  1  0.93934500  0.87851600  0.37907800  1
  O  O27  1  0.43934500  0.12148400  0.62092200  1
  O  O28  1  0.25000000  0.00684700  0.48661500  1
  O  O29  1  0.75000000  0.52246900  0.22112300  1
  O  O30  1  0.75000000  0.97753100  0.72112300  1
  O  O31  1  0.25000000  0.02246900  0.27887700  1
  O  O32  1  0.25000000  0.49315300  0.98661500  1
  O  O33  1  0.75000000  0.50684700  0.01338500  1
  O  O34  1  0.75000000  0.99315300  0.51338500  1
  O  O35  1  0.25000000  0.47753100  0.77887700  1
loop_
_geom_bond_atom_site_label_1
_geom_bond_atom_site_label_2
_geom_bond_distance
_geom_bond_site_symmetry_2
O0 P7 1.527644 1_555
O0 Sb6 2.224846 1_556
O1 P4 1.527644 1_555
O1 Sb5 2.224846 1_565
O2 P5 1.527644 1_555
O2 Sb7 2.224846 1_555
O3 P6 1.527644 1_555
O3 Sb4 2.224846 1_655
O4 P4 1.527644 1_555
O4 Sb6 2.224846 1_565
O5 P7 1.527644 1_555
O5 Sb5 2.224846 1_656
O6 P6 1.527644 1_555
O6 Sb7 2.224846 1_555
O7 P5 1.527644 1_555
O7 Sb4 2.224846 1_555
O8 P3 1.570185 1_555
O8 Sb6 2.340264 1_566
O8 Sb5 2.340264 1_666
O9 P2 1.570185 1_555
O9 Sb5 2.340264 1_555
O9 Sb6 2.340264 1_555
O10 P1 1.570185 1_555
O10 Sb4 2.340264 1_555
O10 Sb7 2.340264 1_555
O11 P0 1.570185 1_555
O11 Sb4 2.340264 1_655
O11 Sb7 2.340264 1_555
O12 Sb0 1.946474 1_555
O12 Sb4 2.288667 1_555
O12 Sb7 2.288667 1_555
O13 Sb1 1.946474 1_555
O13 Sb4 2.288667 1_655
O13 Sb7 2.288667 1_555
O14 Sb2 1.946474 1_555
O14 Sb6 2.288667 1_555
O14 Sb5 2.288667 1_655
O15 Sb3 1.946474 1_555
O15 Sb5 2.288667 1_566
O15 Sb6 2.288667 1_566
O16 P4 1.596822 1_555
O16 Sb0 2.038379 1_555
O17 P7 1.596822 1_555
O17 Sb1 2.038379 1_555
O18 P6 1.596822 1_555
O18 Sb2 2.038379 1_555
O19 P5 1.596822 1_555
O19 Sb3 2.038379 1_555
O20 P3 1.543309 1_555
O20 Sb3 2.067089 1_655
O21 P2 1.543309 1_555
O21 Sb2 2.067089 1_555
O22 P1 1.543309 1_555
O22 Sb1 2.067089 1_455
O23 P0 1.543309 1_555
O23 Sb0 2.067089 1_555
O24 P2 1.543309 1_555
O24 Sb2 2.067089 1_455
O25 P3 1.543309 1_555
O25 Sb3 2.067089 1_555
O26 P0 1.543309 1_555
O26 Sb0 2.067089 1_655
O27 P1 1.543309 1_555
O27 Sb1 2.067089 1_555
O28 P1 1.543186 1_555
O28 Sb0 2.000878 1_545
O29 P6 1.627908 1_555
O29 Sb2 2.000184 1_555
O30 P7 1.627908 1_565
O30 Sb1 2.000184 1_565
O31 P4 1.627908 1_545
O31 Sb0 2.000184 1_545
O32 P2 1.543186 1_556
O32 Sb3 2.000878 1_555
O33 P3 1.543186 1_554
O33 Sb2 2.000878 1_555
O34 P0 1.543186 1_555
O34 Sb1 2.000878 1_565
O35 P5 1.627908 1_555
O35 Sb3 2.000184 1_555
