# generated using pymatgen
data_AgSbPbS3
_symmetry_space_group_name_H-M   'P 1'
_cell_length_a   7.02007075
_cell_length_b   7.02007075
_cell_length_c   7.02007075
_cell_angle_alpha   146.57864857
_cell_angle_beta   131.75022421
_cell_angle_gamma   59.96511111
_symmetry_Int_Tables_number   1
_chemical_formula_structural   AgSbPbS3
_chemical_formula_sum   'Ag1 Sb1 Pb1 S3'
_cell_volume   140.87093409
_cell_formula_units_Z   1
loop_
 _symmetry_equiv_pos_site_id
 _symmetry_equiv_pos_as_xyz
  1  'x, y, z'
loop_
 _atom_site_type_symbol
 _atom_site_label
 _atom_site_symmetry_multiplicity
 _atom_site_fract_x
 _atom_site_fract_y
 _atom_site_fract_z
 _atom_site_occupancy
  Ag  Ag0  1  0.00087900  0.00087900  0.00000000  1
  Sb  Sb0  1  0.33293900  0.33293900  0.00000000  1
  Pb  Pb0  1  0.66876600  0.66876600  0.00000000  1
  S  S0  1  0.48463800  0.98463800  0.50000000  1
  S  S1  1  0.17175600  0.67175600  0.50000000  1
  S  S2  1  0.84102100  0.34102100  0.50000000  1
loop_
_geom_bond_atom_site_label_1
_geom_bond_atom_site_label_2
_geom_bond_distance
_geom_bond_site_symmetry_2
Ag0 S2 2.802489 1_444
Ag0 S2 2.802489 1_455
Ag0 S0 2.876082 1_444
Ag0 S0 2.876082 1_545
Ag0 S1 2.897056 1_544
Ag0 S1 2.897056 1_555
Pb0 S1 2.869522 1_554
Pb0 S1 2.869522 1_655
Pb0 S2 2.909100 1_554
Pb0 S2 2.909100 1_565
Pb0 S0 3.014741 1_544
Pb0 S0 3.014741 1_555
S0 Sb0 2.734592 1_566
S0 Sb0 2.734592 1_555
S1 Sb0 2.813691 1_555
S1 Sb0 2.813691 1_566
S2 Sb0 2.870975 1_555
S2 Sb0 2.870975 1_656
