# generated using pymatgen
data_Ni(AsO2)2
_symmetry_space_group_name_H-M   'P 1'
_cell_length_a   8.22575459
_cell_length_b   8.22575459
_cell_length_c   5.62437595
_cell_angle_alpha   90.00000000
_cell_angle_beta   90.00000000
_cell_angle_gamma   90.00000000
_symmetry_Int_Tables_number   1
_chemical_formula_structural   Ni(AsO2)2
_chemical_formula_sum   'Ni4 As8 O16'
_cell_volume   380.56236686
_cell_formula_units_Z   4
loop_
 _symmetry_equiv_pos_site_id
 _symmetry_equiv_pos_as_xyz
  1  'x, y, z'
loop_
 _atom_site_type_symbol
 _atom_site_label
 _atom_site_symmetry_multiplicity
 _atom_site_fract_x
 _atom_site_fract_y
 _atom_site_fract_z
 _atom_site_occupancy
  Ni  Ni0  1  0.50000000  -0.00000000  0.25000000  1
  Ni  Ni1  1  0.00000000  0.50000000  0.75000000  1
  Ni  Ni2  1  0.50000000  -0.00000000  0.75000000  1
  Ni  Ni3  1  0.00000000  0.50000000  0.25000000  1
  As  As0  1  0.17034101  0.18284096  -0.00000000  1
  As  As1  1  0.18284096  0.82965899  0.50000000  1
  As  As2  1  0.82965899  0.81715904  0.00000000  1
  As  As3  1  0.81715904  0.17034101  0.50000000  1
  As  As4  1  0.32965899  0.68284096  -0.00000000  1
  As  As5  1  0.67034101  0.31715904  0.00000000  1
  As  As6  1  0.68284096  0.67034101  0.50000000  1
  As  As7  1  0.31715904  0.32965899  0.50000000  1
  O  O0  1  0.31884176  0.18115824  0.25000000  1
  O  O1  1  0.18115824  0.68115824  0.75000000  1
  O  O2  1  0.68115824  0.81884176  0.25000000  1
  O  O3  1  0.81884176  0.31884176  0.75000000  1
  O  O4  1  0.68115824  0.81884176  0.75000000  1
  O  O5  1  0.81884176  0.31884176  0.25000000  1
  O  O6  1  0.31884176  0.18115824  0.75000000  1
  O  O7  1  0.18115824  0.68115824  0.25000000  1
  O  O8  1  0.63746000  0.10798010  -0.00000000  1
  O  O9  1  0.10798010  0.36254000  0.50000000  1
  O  O10  1  0.36254000  0.89201990  0.00000000  1
  O  O11  1  0.89201990  0.63746000  0.50000000  1
  O  O12  1  0.86254000  0.60798010  -0.00000000  1
  O  O13  1  0.13746000  0.39201990  0.00000000  1
  O  O14  1  0.60798010  0.13746000  0.50000000  1
  O  O15  1  0.39201990  0.86254000  0.50000000  1
loop_
_geom_bond_atom_site_label_1
_geom_bond_atom_site_label_2
_geom_bond_distance
_geom_bond_site_symmetry_2
Ni0 O8 2.011104 1_555
Ni0 O10 2.011104 1_545
Ni0 O14 2.011104 1_555
Ni0 O15 2.011104 1_545
Ni0 O0 2.107409 1_555
Ni0 O2 2.107409 1_545
Ni1 O9 2.011104 1_555
Ni1 O13 2.011104 1_556
Ni1 O12 2.011104 1_456
Ni1 O11 2.011104 1_455
Ni1 O1 2.107409 1_555
Ni1 O3 2.107409 1_455
Ni2 O10 2.011104 1_546
Ni2 O8 2.011104 1_556
Ni2 O14 2.011104 1_555
Ni2 O15 2.011104 1_545
Ni2 O4 2.107409 1_545
Ni2 O6 2.107409 1_555
Ni3 O9 2.011104 1_555
Ni3 O13 2.011104 1_555
Ni3 O12 2.011104 1_455
Ni3 O11 2.011104 1_455
Ni3 O5 2.107409 1_455
Ni3 O7 2.107409 1_555
As0 O13 1.741783 1_555
As0 O6 1.862640 1_554
As0 O0 1.862640 1_555
As1 O15 1.741783 1_555
As1 O7 1.862640 1_555
As1 O1 1.862640 1_555
As2 O12 1.741783 1_555
As2 O4 1.862640 1_554
As2 O2 1.862640 1_555
As3 O14 1.741783 1_555
As3 O3 1.862640 1_555
As3 O5 1.862640 1_555
As4 O10 1.741783 1_555
As4 O1 1.862640 1_554
As4 O7 1.862640 1_555
As5 O8 1.741783 1_555
As5 O5 1.862640 1_555
As5 O3 1.862640 1_554
As6 O11 1.741783 1_555
As6 O2 1.862640 1_555
As6 O4 1.862640 1_555
As7 O9 1.741783 1_555
As7 O0 1.862640 1_555
As7 O6 1.862640 1_555
