# generated using pymatgen
data_Ce2Al3Fe
_symmetry_space_group_name_H-M   'P 1'
_cell_length_a   5.47769624
_cell_length_b   5.47769624
_cell_length_c   5.47769605
_cell_angle_alpha   60.57788536
_cell_angle_beta   60.57788536
_cell_angle_gamma   60.57787801
_symmetry_Int_Tables_number   1
_chemical_formula_structural   Ce2Al3Fe
_chemical_formula_sum   'Ce2 Al3 Fe1'
_cell_volume   117.73651445
_cell_formula_units_Z   1
loop_
 _symmetry_equiv_pos_site_id
 _symmetry_equiv_pos_as_xyz
  1  'x, y, z'
loop_
 _atom_site_type_symbol
 _atom_site_label
 _atom_site_symmetry_multiplicity
 _atom_site_fract_x
 _atom_site_fract_y
 _atom_site_fract_z
 _atom_site_occupancy
  Ce  Ce0  1  0.62571000  0.62571000  0.62571000  1
  Ce  Ce1  1  0.37429000  0.37429000  0.37429000  1
  Al  Al0  1  0.00000000  0.50000000  0.00000000  1
  Al  Al1  1  0.50000000  0.00000000  0.00000000  1
  Al  Al2  1  0.00000000  0.00000000  0.50000000  1
  Fe  Fe0  1  0.00000000  0.00000000  0.00000000  1
loop_
_geom_bond_atom_site_label_1
_geom_bond_atom_site_label_2
_geom_bond_distance
_geom_bond_site_symmetry_2
Ce0 Fe0 3.236710 1_566
Ce0 Fe0 3.236710 1_656
Ce0 Fe0 3.236711 1_665
Ce1 Fe0 3.236710 1_655
Ce1 Fe0 3.236710 1_565
Ce1 Fe0 3.236711 1_556
Al0 Fe0 2.738848 1_555
Al0 Fe0 2.738848 1_565
Al0 Al1 2.762736 1_555
Al0 Al1 2.762736 1_465
Al0 Al2 2.762736 1_564
Al0 Al2 2.762736 1_555
Al0 Ce0 3.199520 1_454
Al0 Ce1 3.199520 1_555
Al0 Ce1 3.233082 1_554
Al0 Ce0 3.233082 1_455
Al0 Ce1 3.233082 1_455
Al0 Ce0 3.233082 1_554
Al1 Fe0 2.738848 1_555
Al1 Fe0 2.738848 1_655
Al1 Al2 2.762736 1_654
Al1 Al2 2.762736 1_555
Al1 Ce0 3.199520 1_544
Al1 Ce1 3.199520 1_555
Al1 Ce1 3.233082 1_554
Al1 Ce0 3.233082 1_545
Al1 Ce1 3.233082 1_545
Al1 Ce0 3.233082 1_554
Al2 Fe0 2.738848 1_555
Al2 Fe0 2.738848 1_556
Al2 Ce0 3.199520 1_445
Al2 Ce1 3.199520 1_555
Al2 Ce1 3.233082 1_455
Al2 Ce1 3.233082 1_545
Al2 Ce0 3.233082 1_455
Al2 Ce0 3.233082 1_545
