# generated using pymatgen
data_CaV2(PO4)2
_symmetry_space_group_name_H-M   'P 1'
_cell_length_a   8.90887803
_cell_length_b   8.90887803
_cell_length_c   17.49409403
_cell_angle_alpha   64.26735978
_cell_angle_beta   64.26735978
_cell_angle_gamma   32.66598710
_symmetry_Int_Tables_number   1
_chemical_formula_structural   CaV2(PO4)2
_chemical_formula_sum   'Ca4 V8 P8 O32'
_cell_volume   668.32829021
_cell_formula_units_Z   4
loop_
 _symmetry_equiv_pos_site_id
 _symmetry_equiv_pos_as_xyz
  1  'x, y, z'
loop_
 _atom_site_type_symbol
 _atom_site_label
 _atom_site_symmetry_multiplicity
 _atom_site_fract_x
 _atom_site_fract_y
 _atom_site_fract_z
 _atom_site_occupancy
  Ca  Ca0  1  0.49414700  0.81871000  0.85011800  1
  Ca  Ca1  1  0.18129000  0.50585300  0.64988200  1
  Ca  Ca2  1  0.81871000  0.49414700  0.35011800  1
  Ca  Ca3  1  0.50585300  0.18129000  0.14988200  1
  V  V0  1  0.17481800  0.63384200  0.96188800  1
  V  V1  1  0.36615800  0.82518200  0.53811200  1
  V  V2  1  0.82518200  0.36615800  0.03811200  1
  V  V3  1  0.50000000  0.00000000  0.00000000  1
  V  V4  1  0.63384200  0.17481800  0.46188800  1
  V  V5  1  0.69482100  0.30517900  0.25000000  1
  V  V6  1  0.30517900  0.69482100  0.75000000  1
  V  V7  1  0.00000000  0.50000000  0.50000000  1
  P  P0  1  0.05459600  0.50412100  0.86748600  1
  P  P1  1  0.76931800  0.20571200  0.61345200  1
  P  P2  1  0.94540400  0.49587900  0.13251400  1
  P  P3  1  0.20571200  0.76931800  0.11345200  1
  P  P4  1  0.50412100  0.05459600  0.36748600  1
  P  P5  1  0.49587900  0.94540400  0.63251400  1
  P  P6  1  0.23068200  0.79428800  0.38654800  1
  P  P7  1  0.79428800  0.23068200  0.88654800  1
  O  O0  1  0.69497300  0.81945300  0.10722500  1
  O  O1  1  0.78674900  0.35289300  0.93186300  1
  O  O2  1  0.81945300  0.69497300  0.60722500  1
  O  O3  1  0.82301400  0.35141300  0.54957200  1
  O  O4  1  0.18969500  0.36812800  0.05493800  1
  O  O5  1  0.55436200  0.35357000  0.69235100  1
  O  O6  1  0.64858700  0.17698600  0.95042800  1
  O  O7  1  0.88990200  0.06198100  0.13850800  1
  O  O8  1  0.17698600  0.64858700  0.45042800  1
  O  O9  1  0.64710700  0.21325100  0.56813700  1
  O  O10  1  0.86600200  0.38588800  0.14327400  1
  O  O11  1  0.59844400  0.94687200  0.28810100  1
  O  O12  1  0.21325100  0.64710700  0.06813700  1
  O  O13  1  0.06198100  0.88990200  0.63850800  1
  O  O14  1  0.30502700  0.18054700  0.89277500  1
  O  O15  1  0.13399800  0.61411200  0.85672600  1
  O  O16  1  0.94687200  0.59844400  0.78810100  1
  O  O17  1  0.35141300  0.82301400  0.04957200  1
  O  O18  1  0.38588800  0.86600200  0.64327400  1
  O  O19  1  0.40155600  0.05312800  0.71189900  1
  O  O20  1  0.93801900  0.11009800  0.36149200  1
  O  O21  1  0.36812800  0.18969500  0.55493800  1
  O  O22  1  0.11009800  0.93801900  0.86149200  1
  O  O23  1  0.35357000  0.55436200  0.19235100  1
  O  O24  1  0.35289300  0.78674900  0.43186300  1
  O  O25  1  0.18054700  0.30502700  0.39277500  1
  O  O26  1  0.05312800  0.40155600  0.21189900  1
  O  O27  1  0.63187200  0.81030500  0.44506200  1
  O  O28  1  0.81030500  0.63187200  0.94506200  1
  O  O29  1  0.64643000  0.44563800  0.80764900  1
  O  O30  1  0.44563800  0.64643000  0.30764900  1
  O  O31  1  0.61411200  0.13399800  0.35672600  1
loop_
_geom_bond_atom_site_label_1
_geom_bond_atom_site_label_2
_geom_bond_distance
_geom_bond_site_symmetry_2
Ca0 O19 2.309818 1_565
Ca0 O14 2.374806 1_565
Ca0 O1 2.435609 1_555
Ca0 O16 2.453274 1_555
Ca0 O22 2.518967 1_555
Ca0 O29 2.667655 1_555
Ca0 O28 2.689023 1_555
Ca1 O16 2.309818 1_455
Ca1 O2 2.374806 1_455
Ca1 O9 2.435609 1_555
Ca1 O19 2.453274 1_555
Ca1 O13 2.518967 1_555
Ca1 O5 2.667655 1_555
Ca1 O21 2.689023 1_555
Ca2 O26 2.309818 1_655
Ca2 O25 2.374806 1_655
Ca2 O24 2.435609 1_555
Ca2 O11 2.453274 1_555
Ca2 O20 2.518967 1_555
Ca2 O30 2.667655 1_555
Ca2 O27 2.689023 1_555
Ca3 O11 2.309818 1_545
Ca3 O0 2.374806 1_545
Ca3 O12 2.435609 1_555
Ca3 O26 2.453274 1_555
Ca3 O7 2.518967 1_555
Ca3 O23 2.667655 1_555
Ca3 O4 2.689023 1_555
O0 P2 1.550648 1_555
O0 V3 2.151351 1_565
O1 P7 1.548704 1_555
O1 V2 2.097039 1_556
O2 P5 1.550648 1_555
O2 V7 2.151351 1_655
O3 P1 1.576143 1_555
O3 V1 2.339006 1_555
O3 V7 2.514051 1_655
O3 V1 2.685657 1_645
O4 P2 1.574726 1_455
O4 V3 2.118256 1_555
O4 V0 2.141051 1_554
O5 P1 1.531009 1_555
O5 V6 2.131462 1_555
O6 P7 1.576143 1_555
O6 V0 2.339006 1_555
O6 V3 2.514051 1_556
O6 V0 2.685657 1_645
O7 P3 1.573758 1_645
O7 V2 2.208264 1_555
O7 V5 2.430062 1_555
O8 P6 1.576143 1_555
O8 V4 2.339006 1_555
O8 V7 2.514051 1_555
O8 V4 2.685657 1_465
O9 P1 1.548704 1_555
O9 V4 2.097039 1_555
O10 P2 1.545082 1_555
O10 V2 2.125338 1_555
O10 V5 2.129947 1_555
O11 P4 1.530364 1_565
O12 P3 1.548704 1_555
O12 V0 2.097039 1_554
O13 P1 1.573758 1_465
O13 V1 2.208264 1_555
O13 V6 2.430062 1_555
O14 P0 1.550648 1_555
O14 V3 2.151351 1_556
O15 P0 1.545082 1_555
O15 V0 2.125338 1_555
O15 V6 2.129947 1_555
O16 P0 1.530364 1_655
O17 P3 1.576143 1_555
O17 V2 2.339006 1_555
O17 V3 2.514051 1_565
O17 V2 2.685657 1_465
O18 P5 1.545082 1_555
O18 V1 2.125338 1_555
O18 V6 2.129947 1_555
O19 P5 1.530364 1_545
O20 P6 1.573758 1_645
O20 V4 2.208264 1_555
O20 V5 2.430062 1_555
O21 P5 1.574726 1_545
O21 V7 2.118256 1_555
O21 V4 2.141051 1_555
O22 P7 1.573758 1_465
O22 V0 2.208264 1_555
O22 V6 2.430062 1_555
O23 P3 1.531009 1_555
O23 V5 2.131462 1_555
O24 P6 1.548704 1_555
O24 V1 2.097039 1_555
O25 P4 1.550648 1_555
O25 V7 2.151351 1_555
O26 P2 1.530364 1_455
O27 P4 1.574726 1_565
O27 V7 2.118256 1_655
O27 V1 2.141051 1_555
O28 P0 1.574726 1_655
O28 V3 2.118256 1_566
O28 V2 2.141051 1_556
O29 P7 1.531009 1_555
O29 V6 2.131462 1_555
O30 P6 1.531009 1_555
O30 V5 2.131462 1_555
O31 P4 1.545082 1_555
O31 V4 2.125338 1_555
O31 V5 2.129947 1_555
