# generated using pymatgen
data_V4NiSb4
_symmetry_space_group_name_H-M   'P 1'
_cell_length_a   4.25227044
_cell_length_b   4.25165800
_cell_length_c   10.94185400
_cell_angle_alpha   90.00000000
_cell_angle_beta   90.00000000
_cell_angle_gamma   60.00476422
_symmetry_Int_Tables_number   1
_chemical_formula_structural   V4NiSb4
_chemical_formula_sum   'V4 Ni1 Sb4'
_cell_volume   171.32533695
_cell_formula_units_Z   1
loop_
 _symmetry_equiv_pos_site_id
 _symmetry_equiv_pos_as_xyz
  1  'x, y, z'
loop_
 _atom_site_type_symbol
 _atom_site_label
 _atom_site_symmetry_multiplicity
 _atom_site_fract_x
 _atom_site_fract_y
 _atom_site_fract_z
 _atom_site_occupancy
  V  V0  1  0.99997200  0.00001400  0.24986600  1
  V  V1  1  0.00004100  0.99998000  0.75062200  1
  V  V2  1  0.99997200  0.00001400  0.00013400  1
  V  V3  1  0.00004100  0.99998000  0.49937800  1
  Ni  Ni0  1  0.33332100  0.33334000  0.12500000  1
  Sb  Sb0  1  0.33341000  0.33329500  0.37505700  1
  Sb  Sb1  1  0.33341000  0.33329500  0.87494300  1
  Sb  Sb2  1  0.66668400  0.66665800  0.12500000  1
  Sb  Sb3  1  0.66654900  0.66672500  0.62500000  1
loop_
_geom_bond_atom_site_label_1
_geom_bond_atom_site_label_2
_geom_bond_distance
_geom_bond_site_symmetry_2
V0 V3 2.730124 1_645
V0 V2 2.732531 1_555
V1 V2 2.730124 1_466
V1 V3 2.749075 1_555
Ni0 Sb2 2.454867 1_555
Ni0 Sb2 2.454870 1_545
Ni0 Sb2 2.455058 1_455
Ni0 Sb0 2.736087 1_555
Ni0 Sb1 2.736087 1_554
Ni0 V2 2.809435 1_465
Ni0 V0 2.809435 1_465
Ni0 V2 2.809438 1_455
Ni0 V0 2.809438 1_455
Ni0 V0 2.809670 1_555
Ni0 V2 2.809670 1_555
Sb0 V3 2.806572 1_545
Sb0 V3 2.806575 1_555
Sb0 V3 2.806711 1_645
Sb0 V0 2.811115 1_555
Sb0 V0 2.811311 1_465
Sb0 V0 2.811311 1_455
Sb1 V1 2.806572 1_545
Sb1 V1 2.806575 1_555
Sb1 V1 2.806711 1_645
Sb1 V2 2.811115 1_556
Sb1 V2 2.811311 1_466
Sb1 V2 2.811311 1_456
Sb2 V0 2.809338 1_555
Sb2 V2 2.809338 1_565
Sb2 V0 2.809338 1_565
Sb2 V2 2.809338 1_555
Sb2 V0 2.809866 1_465
Sb2 V2 2.809866 1_465
Sb3 V3 2.813242 1_555
Sb3 V1 2.813242 1_555
Sb3 V1 2.813695 1_645
Sb3 V3 2.813695 1_645
Sb3 V1 2.813702 1_655
Sb3 V3 2.813702 1_655
