# generated using pymatgen
data_LaMnFeSi2
_symmetry_space_group_name_H-M   'P 1'
_cell_length_a   5.91695329
_cell_length_b   5.91695329
_cell_length_c   5.91695329
_cell_angle_alpha   140.25158794
_cell_angle_beta   140.25158794
_cell_angle_gamma   57.47149682
_symmetry_Int_Tables_number   1
_chemical_formula_structural   LaMnFeSi2
_chemical_formula_sum   'La1 Mn1 Fe1 Si2'
_cell_volume   83.96994569
_cell_formula_units_Z   1
loop_
 _symmetry_equiv_pos_site_id
 _symmetry_equiv_pos_as_xyz
  1  'x, y, z'
loop_
 _atom_site_type_symbol
 _atom_site_label
 _atom_site_symmetry_multiplicity
 _atom_site_fract_x
 _atom_site_fract_y
 _atom_site_fract_z
 _atom_site_occupancy
  La  La0  1  0.00000000  0.00000000  0.00000000  1
  Mn  Mn0  1  0.25000000  0.75000000  0.50000000  1
  Fe  Fe0  1  0.75000000  0.25000000  0.50000000  1
  Si  Si0  1  0.63126300  0.63126300  0.00000000  1
  Si  Si1  1  0.36873700  0.36873700  0.00000000  1
loop_
_geom_bond_atom_site_label_1
_geom_bond_atom_site_label_2
_geom_bond_distance
_geom_bond_site_symmetry_2
La0 Si1 3.153965 1_444
La0 Si0 3.153965 1_556
La0 Si0 3.153965 1_545
La0 Si1 3.153965 1_556
La0 Si1 3.153965 1_545
La0 Si1 3.153965 1_455
La0 Si0 3.153965 1_444
La0 Si0 3.153965 1_455
La0 Mn0 3.282630 1_444
La0 Mn0 3.282630 1_545
La0 Mn0 3.282630 1_544
La0 Mn0 3.282630 1_555
Mn0 Si1 2.358848 1_566
Mn0 Si1 2.358848 1_555
Mn0 Si0 2.358848 1_455
Mn0 Si0 2.358848 1_556
Fe0 Si1 2.358848 1_656
Fe0 Si1 2.358848 1_555
Fe0 Si0 2.358848 1_545
Fe0 Si0 2.358848 1_556
Fe0 Mn0 2.844698 1_656
Fe0 Mn0 2.844698 1_555
Fe0 Mn0 2.844698 1_645
Fe0 Mn0 2.844698 1_544
Fe0 La0 3.282630 1_655
Fe0 La0 3.282630 1_656
Fe0 La0 3.282630 1_666
Fe0 La0 3.282630 1_555
Si0 Si1 2.724106 1_555
