# generated using pymatgen
data_LiTiCrO4
_symmetry_space_group_name_H-M   'P 1'
_cell_length_a   5.05654800
_cell_length_b   9.64785700
_cell_length_c   5.96997400
_cell_angle_alpha   90.00007402
_cell_angle_beta   89.99999040
_cell_angle_gamma   90.00031898
_symmetry_Int_Tables_number   1
_chemical_formula_structural   LiTiCrO4
_chemical_formula_sum   'Li4 Ti4 Cr4 O16'
_cell_volume   291.24429814
_cell_formula_units_Z   4
loop_
 _symmetry_equiv_pos_site_id
 _symmetry_equiv_pos_as_xyz
  1  'x, y, z'
loop_
 _atom_site_type_symbol
 _atom_site_label
 _atom_site_symmetry_multiplicity
 _atom_site_fract_x
 _atom_site_fract_y
 _atom_site_fract_z
 _atom_site_occupancy
  Li  Li0  1  0.55991100  0.96424000  0.12500000  1
  Li  Li1  1  0.55991300  0.96423900  0.62501100  1
  Li  Li2  1  0.94008500  0.46424100  0.12500900  1
  Li  Li3  1  0.94009000  0.46424200  0.62499500  1
  Ti  Ti0  1  0.51316900  0.64298800  0.12503000  1
  Ti  Ti1  1  0.51318300  0.64299500  0.62498400  1
  Ti  Ti2  1  0.98681500  0.14299700  0.12497900  1
  Ti  Ti3  1  0.98682800  0.14299000  0.62502200  1
  Cr  Cr0  1  0.48452500  0.36192800  0.87497200  1
  Cr  Cr1  1  0.01547700  0.86190600  0.37499800  1
  Cr  Cr2  1  0.48454200  0.36183600  0.37499700  1
  Cr  Cr3  1  0.01545300  0.86186800  0.87501300  1
  O  O0  1  0.30819900  0.46409200  0.12501300  1
  O  O1  1  0.30818700  0.46409800  0.62496900  1
  O  O2  1  0.19180700  0.96410100  0.12499200  1
  O  O3  1  0.19180500  0.96409600  0.62502000  1
  O  O4  1  0.71086500  0.53543400  0.37500000  1
  O  O5  1  0.71088000  0.53545000  0.87499200  1
  O  O6  1  0.78911600  0.03545300  0.37500400  1
  O  O7  1  0.78913200  0.03543800  0.87500400  1
  O  O8  1  0.78892800  0.78062700  0.12502000  1
  O  O9  1  0.78893800  0.78062300  0.62499400  1
  O  O10  1  0.71106000  0.28062100  0.12497000  1
  O  O11  1  0.71107200  0.28062400  0.62500900  1
  O  O12  1  0.18481300  0.21770600  0.37500600  1
  O  O13  1  0.18481800  0.21772700  0.87499800  1
  O  O14  1  0.31519300  0.71773100  0.37500100  1
  O  O15  1  0.31519500  0.71771000  0.87500100  1
loop_
_geom_bond_atom_site_label_1
_geom_bond_atom_site_label_2
_geom_bond_distance
_geom_bond_site_symmetry_2
Li0 O2 1.861336 1_555
Li0 O7 2.010656 1_564
Li0 O6 2.010693 1_565
Li0 O8 2.116408 1_555
Li1 O3 1.861356 1_555
Li1 O7 2.010639 1_565
Li1 O6 2.010705 1_565
Li1 O9 2.116454 1_555
Li2 O0 1.861387 1_655
Li2 O4 2.010618 1_555
Li2 O5 2.010743 1_554
Li2 O10 2.116476 1_555
Li3 O1 1.861301 1_655
Li3 O4 2.010648 1_555
Li3 O5 2.010664 1_555
Li3 O11 2.116440 1_555
Cr0 O1 1.998577 1_555
Cr0 O0 1.998689 1_556
Cr0 O5 2.027978 1_555
Cr0 O11 2.038249 1_555
Cr0 O10 2.038380 1_556
Cr0 O13 2.057228 1_555
Cr1 O2 1.998687 1_555
Cr1 O3 1.998728 1_555
Cr1 O6 2.028204 1_465
Cr1 O8 2.038222 1_455
Cr1 O9 2.038289 1_455
Cr1 O14 2.057103 1_555
Cr2 O0 1.998913 1_555
Cr2 O1 1.998913 1_555
Cr2 O4 2.028492 1_555
Cr2 O11 2.038075 1_555
Cr2 O10 2.038116 1_555
Cr2 O12 2.056847 1_555
Cr3 O2 1.998800 1_556
Cr3 O3 1.998835 1_555
Cr3 O7 2.028273 1_465
Cr3 O8 2.038141 1_456
Cr3 O9 2.038179 1_455
Cr3 O15 2.057089 1_555
O0 Ti0 2.013241 1_555
O1 Ti1 2.013317 1_555
O2 Ti2 2.013308 1_465
O3 Ti3 2.013252 1_465
O4 Ti0 2.074388 1_555
O4 Ti1 2.074446 1_555
O5 Ti1 2.074511 1_555
O5 Ti0 2.074638 1_556
O6 Ti3 2.074544 1_555
O6 Ti2 2.074578 1_555
O7 Ti2 2.074395 1_556
O7 Ti3 2.074424 1_555
O8 Ti0 1.925532 1_555
O9 Ti1 1.925444 1_555
O10 Ti2 1.925428 1_555
O11 Ti3 1.925499 1_555
O12 Ti3 1.936410 1_455
O12 Ti2 1.936468 1_455
O13 Ti3 1.936313 1_455
O13 Ti2 1.936346 1_456
O14 Ti0 1.936279 1_555
O14 Ti1 1.936347 1_555
O15 Ti1 1.936421 1_555
O15 Ti0 1.936467 1_556
