# generated using pymatgen
data_CeNd3Si8
_symmetry_space_group_name_H-M   'P 1'
_cell_length_a   4.12568400
_cell_length_b   4.14666600
_cell_length_c   14.32710300
_cell_angle_alpha   90.00000000
_cell_angle_beta   90.00000000
_cell_angle_gamma   90.00000000
_symmetry_Int_Tables_number   1
_chemical_formula_structural   CeNd3Si8
_chemical_formula_sum   'Ce1 Nd3 Si8'
_cell_volume   245.10569366
_cell_formula_units_Z   1
loop_
 _symmetry_equiv_pos_site_id
 _symmetry_equiv_pos_as_xyz
  1  'x, y, z'
loop_
 _atom_site_type_symbol
 _atom_site_label
 _atom_site_symmetry_multiplicity
 _atom_site_fract_x
 _atom_site_fract_y
 _atom_site_fract_z
 _atom_site_occupancy
  Ce  Ce0  1  0.25000000  0.00000000  0.37571900  1
  Nd  Nd0  1  0.75000000  0.50000000  0.87637500  1
  Nd  Nd1  1  0.25000000  0.50000000  0.12395000  1
  Nd  Nd2  1  0.75000000  0.00000000  0.62356700  1
  Si  Si0  1  0.75000000  0.50000000  0.29184800  1
  Si  Si1  1  0.25000000  0.00000000  0.79102800  1
  Si  Si2  1  0.75000000  0.00000000  0.21025500  1
  Si  Si3  1  0.25000000  0.50000000  0.70780100  1
  Si  Si4  1  0.75000000  0.50000000  0.45647600  1
  Si  Si5  1  0.25000000  0.00000000  0.95814100  1
  Si  Si6  1  0.75000000  0.00000000  0.04375600  1
  Si  Si7  1  0.25000000  0.50000000  0.54108400  1
loop_
_geom_bond_atom_site_label_1
_geom_bond_atom_site_label_2
_geom_bond_distance
_geom_bond_site_symmetry_2
Ce0 Si2 3.142476 1_555
Ce0 Si2 3.142476 1_455
Ce0 Si4 3.145268 1_455
Ce0 Si4 3.145268 1_445
Ce0 Si4 3.145268 1_545
Ce0 Si4 3.145268 1_555
Ce0 Si7 3.148305 1_555
Ce0 Si7 3.148305 1_545
Ce0 Si0 3.161952 1_455
Ce0 Si0 3.161952 1_545
Ce0 Si0 3.161952 1_555
Ce0 Si0 3.161952 1_445
Nd0 Si5 3.150614 1_655
Nd0 Si5 3.150614 1_665
Nd0 Si5 3.150614 1_565
Nd0 Si5 3.150614 1_555
Nd0 Si1 3.170048 1_665
Nd0 Si1 3.170048 1_555
Nd0 Si1 3.170048 1_655
Nd0 Si1 3.170048 1_565
Nd0 Si6 3.170098 1_556
Nd0 Si6 3.170098 1_566
Nd0 Si3 3.176224 1_555
Nd0 Si3 3.176224 1_655
Nd1 Si6 3.142309 1_565
Nd1 Si6 3.142309 1_465
Nd1 Si6 3.142309 1_555
Nd1 Si6 3.142309 1_455
Nd1 Si5 3.153095 1_564
Nd1 Si5 3.153095 1_554
Nd1 Si0 3.168866 1_555
Nd1 Si0 3.168866 1_455
Nd1 Si2 3.175368 1_555
Nd1 Si2 3.175368 1_455
Nd1 Si2 3.175368 1_565
Nd1 Si2 3.175368 1_465
Nd2 Si7 3.154448 1_655
Nd2 Si7 3.154448 1_645
Nd2 Si7 3.154448 1_555
Nd2 Si7 3.154448 1_545
Nd2 Si3 3.163932 1_655
Nd2 Si3 3.163932 1_555
Nd2 Si3 3.163932 1_545
Nd2 Si3 3.163932 1_645
Nd2 Si1 3.164115 1_655
Nd2 Si1 3.164115 1_555
Nd2 Si4 3.166956 1_545
Nd2 Si4 3.166956 1_555
Si0 Si4 2.358642 1_555
Si0 Si2 2.380179 1_565
Si0 Si2 2.380179 1_555
Si1 Si3 2.391763 1_545
Si1 Si3 2.391763 1_555
Si1 Si5 2.394245 1_555
Si2 Si6 2.385448 1_555
Si3 Si7 2.388572 1_555
Si4 Si7 2.392638 1_555
Si4 Si7 2.392638 1_655
Si5 Si6 2.399979 1_556
Si5 Si6 2.399979 1_456
