# generated using pymatgen
data_AlSb3Se2ClO8
_symmetry_space_group_name_H-M   'P 1'
_cell_length_a   6.94301700
_cell_length_b   8.00499700
_cell_length_c   9.40238100
_cell_angle_alpha   90.00000000
_cell_angle_beta   90.00000000
_cell_angle_gamma   90.00000000
_symmetry_Int_Tables_number   1
_chemical_formula_structural   AlSb3Se2ClO8
_chemical_formula_sum   'Al2 Sb6 Se4 Cl2 O16'
_cell_volume   522.57333760
_cell_formula_units_Z   2
loop_
 _symmetry_equiv_pos_site_id
 _symmetry_equiv_pos_as_xyz
  1  'x, y, z'
loop_
 _atom_site_type_symbol
 _atom_site_label
 _atom_site_symmetry_multiplicity
 _atom_site_fract_x
 _atom_site_fract_y
 _atom_site_fract_z
 _atom_site_occupancy
  Al  Al0  1  0.66757000  0.50000000  0.50000000  1
  Al  Al1  1  0.33153600  0.00000000  0.00000000  1
  Sb  Sb0  1  0.00203400  0.24290200  0.75466500  1
  Sb  Sb1  1  0.00203400  0.24290200  0.24533500  1
  Sb  Sb2  1  0.00203400  0.75709800  0.75466500  1
  Sb  Sb3  1  0.86586200  0.00000000  0.00000000  1
  Sb  Sb4  1  0.10941800  0.50000000  0.50000000  1
  Sb  Sb5  1  0.00203400  0.75709800  0.24533500  1
  Se  Se0  1  0.55455900  0.00000000  0.68771300  1
  Se  Se1  1  0.44606500  0.50000000  0.81203200  1
  Se  Se2  1  0.55455900  0.00000000  0.31228700  1
  Se  Se3  1  0.44606500  0.50000000  0.18796800  1
  Cl  Cl0  1  0.91385100  0.50000000  0.00000000  1
  Cl  Cl1  1  0.08674200  0.00000000  0.50000000  1
  O  O0  1  0.86058700  0.50000000  0.63765600  1
  O  O1  1  0.46759000  0.50000000  0.62615000  1
  O  O2  1  0.53445900  0.00000000  0.12473600  1
  O  O3  1  0.70330800  0.16972000  0.66794500  1
  O  O4  1  0.29750000  0.32962000  0.16804200  1
  O  O5  1  0.29750000  0.67038000  0.16804200  1
  O  O6  1  0.14401500  0.00000000  0.85960100  1
  O  O7  1  0.70330800  0.83028000  0.66794500  1
  O  O8  1  0.70330800  0.83028000  0.33205500  1
  O  O9  1  0.29750000  0.67038000  0.83195800  1
  O  O10  1  0.86058700  0.50000000  0.36234400  1
  O  O11  1  0.14401500  0.00000000  0.14039900  1
  O  O12  1  0.29750000  0.32962000  0.83195800  1
  O  O13  1  0.70330800  0.16972000  0.33205500  1
  O  O14  1  0.53445900  0.00000000  0.87526400  1
  O  O15  1  0.46759000  0.50000000  0.37385000  1
loop_
_geom_bond_atom_site_label_1
_geom_bond_atom_site_label_2
_geom_bond_distance
_geom_bond_site_symmetry_2
Al0 O1 1.826114 1_555
Al0 O15 1.826114 1_555
Al0 O0 1.863094 1_555
Al0 O10 1.863094 1_555
Al1 O14 1.833164 1_554
Al1 O2 1.833164 1_555
Al1 O11 1.854111 1_555
Al1 O6 1.854111 1_554
Cl0 Sb0 3.151432 1_654
Cl0 Sb2 3.151432 1_654
Cl0 Sb1 3.151432 1_655
Cl0 Sb5 3.151432 1_655
Cl1 Sb5 3.140084 1_545
Cl1 Sb2 3.140084 1_545
Cl1 Sb0 3.140084 1_555
Cl1 Sb1 3.140084 1_555
O0 Sb4 2.158687 1_655
O0 Sb0 2.531890 1_655
O0 Sb2 2.531890 1_655
O1 Se1 1.754111 1_555
O2 Se2 1.768939 1_555
O2 Sb3 2.582597 1_555
O3 Se0 1.716674 1_555
O3 Sb0 2.304289 1_655
O4 Se3 1.720253 1_555
O4 Sb1 2.284377 1_555
O5 Se3 1.720253 1_555
O5 Sb5 2.284377 1_555
O6 Sb3 2.339282 1_456
O6 Sb2 2.392914 1_545
O6 Sb0 2.392914 1_555
O7 Se0 1.716674 1_565
O7 Sb2 2.304289 1_655
O8 Se2 1.716674 1_565
O8 Sb5 2.304289 1_655
O9 Se1 1.720253 1_555
O9 Sb2 2.284377 1_555
O10 Sb4 2.158687 1_655
O10 Sb1 2.531890 1_655
O10 Sb5 2.531890 1_655
O11 Sb3 2.339282 1_455
O11 Sb5 2.392914 1_545
O11 Sb1 2.392914 1_555
O12 Se1 1.720253 1_555
O12 Sb0 2.284377 1_555
O13 Se2 1.716674 1_555
O13 Sb1 2.304289 1_655
O14 Se0 1.768939 1_555
O14 Sb3 2.582597 1_556
O15 Se3 1.754111 1_555
