# generated using pymatgen
data_Be5Fe
_symmetry_space_group_name_H-M   'P 1'
_cell_length_a   4.12848305
_cell_length_b   4.12848305
_cell_length_c   4.12848305
_cell_angle_alpha   60.00122697
_cell_angle_beta   60.00122697
_cell_angle_gamma   60.00122697
_symmetry_Int_Tables_number   1
_chemical_formula_structural   Be5Fe
_chemical_formula_sum   'Be5 Fe1'
_cell_volume   49.75865135
_cell_formula_units_Z   1
loop_
 _symmetry_equiv_pos_site_id
 _symmetry_equiv_pos_as_xyz
  1  'x, y, z'
loop_
 _atom_site_type_symbol
 _atom_site_label
 _atom_site_symmetry_multiplicity
 _atom_site_fract_x
 _atom_site_fract_y
 _atom_site_fract_z
 _atom_site_occupancy
  Be  Be0  1  0.62575505  0.62575505  0.62575605  1
  Be  Be1  1  0.62576373  0.62576373  0.12271862  1
  Be  Be2  1  0.62576373  0.12271962  0.62576373  1
  Be  Be3  1  0.12272062  0.62576373  0.62576373  1
  Be  Be4  1  0.24999918  0.24999918  0.24999918  1
  Fe  Fe0  1  -0.00000033  -0.00000033  -0.00000033  1
loop_
_geom_bond_atom_site_label_1
_geom_bond_atom_site_label_2
_geom_bond_distance
_geom_bond_site_symmetry_2
Be0 Be1 2.051737 1_556
Be0 Be2 2.051744 1_565
Be0 Be3 2.051748 1_655
Be0 Be3 2.076735 1_555
Be0 Be2 2.076739 1_555
Be0 Be1 2.076746 1_555
Be0 Fe0 2.419261 1_566
Be0 Fe0 2.419261 1_656
Be0 Fe0 2.419264 1_665
Be0 Be4 2.421921 1_556
Be0 Be4 2.421925 1_655
Be0 Be4 2.421925 1_565
Be1 Be2 2.051710 1_564
Be1 Be3 2.051712 1_654
Be1 Be3 2.076848 1_555
Be1 Be2 2.076850 1_555
Be1 Fe0 2.419179 1_665
Be1 Fe0 2.419251 1_565
Be1 Fe0 2.419251 1_655
Be1 Be4 2.421899 1_565
Be1 Be4 2.421899 1_655
Be1 Be4 2.421913 1_555
Be2 Be3 2.051714 1_645
Be2 Be3 2.076846 1_555
Be2 Fe0 2.419177 1_656
Be2 Fe0 2.419252 1_556
Be2 Fe0 2.419252 1_655
Be2 Be4 2.421897 1_556
Be2 Be4 2.421897 1_655
Be2 Be4 2.421914 1_555
Be3 Fe0 2.419175 1_566
Be3 Fe0 2.419254 1_556
Be3 Fe0 2.419254 1_565
Be3 Be4 2.421895 1_556
Be3 Be4 2.421895 1_565
Be3 Be4 2.421916 1_555
Be4 Fe0 2.528141 1_555
Be4 Fe0 2.528210 1_556
Be4 Fe0 2.528210 1_655
Be4 Fe0 2.528210 1_565
