# generated using pymatgen
data_CaSn2(PO5)2
_symmetry_space_group_name_H-M   'P 1'
_cell_length_a   10.27263542
_cell_length_b   9.17235494
_cell_length_c   7.08070152
_cell_angle_alpha   77.21641950
_cell_angle_beta   60.54705377
_cell_angle_gamma   42.23652673
_symmetry_Int_Tables_number   1
_chemical_formula_structural   CaSn2(PO5)2
_chemical_formula_sum   'Ca2 Sn4 P4 O20'
_cell_volume   378.71235393
_cell_formula_units_Z   2
loop_
 _symmetry_equiv_pos_site_id
 _symmetry_equiv_pos_as_xyz
  1  'x, y, z'
loop_
 _atom_site_type_symbol
 _atom_site_label
 _atom_site_symmetry_multiplicity
 _atom_site_fract_x
 _atom_site_fract_y
 _atom_site_fract_z
 _atom_site_occupancy
  Ca  Ca0  1  0.00002200  0.49997800  0.49997800  1
  Ca  Ca1  1  0.75002200  0.24997800  0.24997800  1
  Sn  Sn0  1  0.37972900  0.87400600  0.36294900  1
  Sn  Sn1  1  0.38331600  0.36294900  0.87400600  1
  Sn  Sn2  1  0.37599400  0.87027100  0.86668400  1
  Sn  Sn3  1  0.88705100  0.86668400  0.87027100  1
  P  P0  1  0.54850400  0.03926900  0.45088100  1
  P  P1  1  0.21073100  0.70149600  0.28865500  1
  P  P2  1  0.96134500  0.45088100  0.03926900  1
  P  P3  1  0.79911900  0.28865500  0.70149600  1
  O  O0  1  0.73079600  0.57082000  0.24450400  1
  O  O1  1  0.18360700  0.66026500  0.82545500  1
  O  O2  1  0.66447700  0.31098500  0.62944500  1
  O  O3  1  0.00549600  0.79612000  0.51920400  1
  O  O4  1  0.07233600  0.22451600  0.94705700  1
  O  O5  1  0.09855300  0.42161700  0.11405000  1
  O  O6  1  0.58973500  0.06639300  0.91932700  1
  O  O7  1  0.33067300  0.82545500  0.66026500  1
  O  O8  1  0.42454500  0.91932700  0.06639300  1
  O  O9  1  0.02548400  0.17766400  0.49390900  1
  O  O10  1  0.45388000  0.24450400  0.57082000  1
  O  O11  1  0.30294300  0.49390900  0.17766400  1
  O  O12  1  0.75609100  0.94705700  0.22451600  1
  O  O13  1  0.82838300  0.15144700  0.88422000  1
  O  O14  1  0.36578000  0.11405000  0.42161700  1
  O  O15  1  0.13595000  0.88422000  0.15144700  1
  O  O16  1  0.62055500  0.85490800  0.58552300  1
  O  O17  1  0.39509200  0.62944500  0.31098500  1
  O  O18  1  0.67918000  0.51920400  0.79612000  1
  O  O19  1  0.93901500  0.58552300  0.85490800  1
loop_
_geom_bond_atom_site_label_1
_geom_bond_atom_site_label_2
_geom_bond_distance
_geom_bond_site_symmetry_2
Ca0 O16 2.433100 1_455
Ca0 O19 2.433105 1_455
Ca0 O14 2.465832 1_555
Ca0 O5 2.465832 1_555
Ca0 O11 2.776792 1_555
Ca0 O9 2.776792 1_555
Ca0 O18 2.792389 1_455
Ca0 O3 2.792389 1_555
Ca1 O2 2.433098 1_555
Ca1 O17 2.433102 1_555
Ca1 O13 2.465832 1_554
Ca1 O15 2.465832 1_645
Ca1 O12 2.776792 1_545
Ca1 O4 2.776792 1_654
Ca1 O10 2.792389 1_555
Ca1 O0 2.792389 1_555
O0 P2 1.547886 1_555
O0 Sn0 2.156395 1_555
O1 Sn3 1.934019 1_455
O1 Sn1 1.938630 1_555
O2 P3 1.563162 1_555
O2 Sn1 2.230726 1_555
O3 P1 1.547888 1_555
O3 Sn3 2.156395 1_455
O4 P2 1.549102 1_456
O4 Sn2 2.162448 1_545
O5 P2 1.565219 1_455
O5 Sn1 2.218092 1_554
O6 Sn1 1.934019 1_555
O6 Sn3 1.938630 1_545
O7 Sn2 1.934019 1_555
O7 Sn0 1.938630 1_555
O8 Sn0 1.934019 1_555
O8 Sn2 1.938630 1_554
O9 P3 1.549105 1_455
O9 Sn0 2.162448 1_545
O10 P0 1.547891 1_555
O10 Sn1 2.156395 1_555
O11 P1 1.549111 1_555
O11 Sn1 2.162448 1_554
O12 P0 1.549107 1_565
O12 Sn3 2.162448 1_554
O13 P3 1.565214 1_555
O13 Sn3 2.218092 1_545
O14 P0 1.565209 1_555
O14 Sn0 2.218092 1_545
O15 P1 1.565214 1_555
O15 Sn2 2.218092 1_554
O16 P0 1.563151 1_565
O16 Sn2 2.230731 1_555
O17 P1 1.563143 1_555
O17 Sn0 2.230734 1_555
O18 P3 1.547883 1_555
O18 Sn2 2.156395 1_555
O19 P2 1.563152 1_556
O19 Sn3 2.230725 1_555
