# generated using pymatgen
data_NbVH4
_symmetry_space_group_name_H-M   'P 1'
_cell_length_a   3.11827100
_cell_length_b   3.11827100
_cell_length_c   4.40986600
_cell_angle_alpha   90.00000000
_cell_angle_beta   90.00000000
_cell_angle_gamma   90.00000000
_symmetry_Int_Tables_number   1
_chemical_formula_structural   NbVH4
_chemical_formula_sum   'Nb1 V1 H4'
_cell_volume   42.87983491
_cell_formula_units_Z   1
loop_
 _symmetry_equiv_pos_site_id
 _symmetry_equiv_pos_as_xyz
  1  'x, y, z'
loop_
 _atom_site_type_symbol
 _atom_site_label
 _atom_site_symmetry_multiplicity
 _atom_site_fract_x
 _atom_site_fract_y
 _atom_site_fract_z
 _atom_site_occupancy
  Nb  Nb0  1  0.00000000  0.00000000  0.00000000  1
  V  V0  1  0.50000000  0.50000000  0.50000000  1
  H  H0  1  0.50000000  0.00000000  0.72657600  1
  H  H1  1  0.00000000  0.50000000  0.27342400  1
  H  H2  1  0.50000000  0.00000000  0.27342400  1
  H  H3  1  0.00000000  0.50000000  0.72657600  1
loop_
_geom_bond_atom_site_label_1
_geom_bond_atom_site_label_2
_geom_bond_distance
_geom_bond_site_symmetry_2
H0 V0 1.851822 1_555
H0 V0 1.851822 1_545
H0 Nb0 1.970982 1_556
H0 Nb0 1.970982 1_656
H1 V0 1.851822 1_555
H1 V0 1.851822 1_455
H1 Nb0 1.970982 1_565
H1 Nb0 1.970982 1_555
H2 V0 1.851822 1_555
H2 V0 1.851822 1_545
H2 Nb0 1.970982 1_555
H2 Nb0 1.970982 1_655
H3 V0 1.851822 1_555
H3 V0 1.851822 1_455
H3 Nb0 1.970982 1_556
H3 Nb0 1.970982 1_566
