# generated using pymatgen
data_Gd3Cu3Sb4
_symmetry_space_group_name_H-M   'P 1'
_cell_length_a   8.37332943
_cell_length_b   8.37332943
_cell_length_c   8.37332943
_cell_angle_alpha   109.47122063
_cell_angle_beta   109.47122063
_cell_angle_gamma   109.47122063
_symmetry_Int_Tables_number   1
_chemical_formula_structural   Gd3Cu3Sb4
_chemical_formula_sum   'Gd6 Cu6 Sb8'
_cell_volume   451.93153095
_cell_formula_units_Z   2
loop_
 _symmetry_equiv_pos_site_id
 _symmetry_equiv_pos_as_xyz
  1  'x, y, z'
loop_
 _atom_site_type_symbol
 _atom_site_label
 _atom_site_symmetry_multiplicity
 _atom_site_fract_x
 _atom_site_fract_y
 _atom_site_fract_z
 _atom_site_occupancy
  Gd  Gd0  1  0.87500000  0.25000000  0.12500000  1
  Gd  Gd1  1  0.62500000  0.75000000  0.37500000  1
  Gd  Gd2  1  0.25000000  0.12500000  0.87500000  1
  Gd  Gd3  1  0.75000000  0.37500000  0.62500000  1
  Gd  Gd4  1  0.12500000  0.87500000  0.25000000  1
  Gd  Gd5  1  0.37500000  0.62500000  0.75000000  1
  Cu  Cu0  1  0.37500000  0.25000000  0.62500000  1
  Cu  Cu1  1  0.12500000  0.75000000  0.87500000  1
  Cu  Cu2  1  0.25000000  0.62500000  0.37500000  1
  Cu  Cu3  1  0.75000000  0.87500000  0.12500000  1
  Cu  Cu4  1  0.62500000  0.37500000  0.25000000  1
  Cu  Cu5  1  0.87500000  0.12500000  0.75000000  1
  Sb  Sb0  1  0.65905700  0.50000000  0.00000000  1
  Sb  Sb1  1  0.50000000  0.00000000  0.65905700  1
  Sb  Sb2  1  0.00000000  0.65905700  0.50000000  1
  Sb  Sb3  1  0.84094300  0.84094300  0.84094300  1
  Sb  Sb4  1  0.50000000  0.00000000  0.15905700  1
  Sb  Sb5  1  0.15905700  0.50000000  0.00000000  1
  Sb  Sb6  1  0.00000000  0.15905700  0.50000000  1
  Sb  Sb7  1  0.34094300  0.34094300  0.34094300  1
loop_
_geom_bond_atom_site_label_1
_geom_bond_atom_site_label_2
_geom_bond_distance
_geom_bond_site_symmetry_2
Gd0 Sb4 3.306938 1_555
Gd0 Sb3 3.306938 1_544
Gd0 Sb2 3.306938 1_655
Gd0 Sb5 3.306938 1_655
Gd0 Sb6 3.386647 1_655
Gd0 Sb1 3.386647 1_554
Gd0 Sb0 3.386647 1_555
Gd0 Sb7 3.386647 1_655
Gd1 Sb7 3.306938 1_555
Gd1 Sb1 3.306938 1_565
Gd1 Sb0 3.306938 1_555
Gd1 Sb6 3.306938 1_665
Gd1 Sb4 3.386647 1_565
Gd1 Sb5 3.386647 1_555
Gd1 Sb2 3.386647 1_655
Gd1 Sb3 3.386647 1_555
Gd2 Sb3 3.306938 1_445
Gd2 Sb4 3.306938 1_556
Gd2 Sb0 3.306938 1_556
Gd2 Sb6 3.306938 1_555
Gd2 Sb5 3.386647 1_556
Gd2 Sb7 3.386647 1_556
Gd2 Sb1 3.386647 1_555
Gd2 Sb2 3.386647 1_545
Gd3 Sb7 3.306938 1_555
Gd3 Sb1 3.306938 1_555
Gd3 Sb2 3.306938 1_655
Gd3 Sb5 3.306938 1_656
Gd3 Sb4 3.386647 1_555
Gd3 Sb6 3.386647 1_655
Gd3 Sb3 3.386647 1_555
Gd3 Sb0 3.386647 1_556
Gd4 Sb6 3.306938 1_565
Gd4 Sb5 3.306938 1_555
Gd4 Sb1 3.306938 1_565
Gd4 Sb3 3.306938 1_454
Gd4 Sb4 3.386647 1_565
Gd4 Sb7 3.386647 1_565
Gd4 Sb2 3.386647 1_555
Gd4 Sb0 3.386647 1_455
Gd5 Sb7 3.306938 1_555
Gd5 Sb2 3.306938 1_555
Gd5 Sb4 3.306938 1_566
Gd5 Sb0 3.306938 1_556
Gd5 Sb5 3.386647 1_556
Gd5 Sb1 3.386647 1_565
Gd5 Sb6 3.386647 1_555
Gd5 Sb3 3.386647 1_555
Cu0 Sb0 2.686734 1_556
Cu0 Sb6 2.686734 1_555
Cu0 Sb7 2.686734 1_555
Cu0 Sb1 2.686734 1_555
Cu0 Gd4 2.960419 1_545
Cu0 Gd5 2.960419 1_555
Cu0 Gd2 2.960419 1_555
Cu0 Gd3 2.960419 1_555
Cu1 Sb4 2.686734 1_566
Cu1 Sb2 2.686734 1_555
Cu1 Sb5 2.686734 1_556
Cu1 Sb3 2.686734 1_455
Cu1 Gd5 2.960419 1_555
Cu1 Gd3 2.960419 1_455
Cu1 Gd2 2.960419 1_565
Cu1 Gd4 2.960419 1_556
Cu2 Sb7 2.686734 1_555
Cu2 Sb5 2.686734 1_555
Cu2 Sb2 2.686734 1_555
Cu2 Sb1 2.686734 1_565
Cu2 Gd1 2.960419 1_555
Cu2 Gd5 2.960419 1_555
Cu2 Gd0 2.960419 1_455
Cu2 Gd4 2.960419 1_555
Cu3 Sb0 2.686734 1_555
Cu3 Sb6 2.686734 1_665
Cu3 Sb4 2.686734 1_565
Cu3 Sb3 2.686734 1_554
Cu3 Gd1 2.960419 1_555
Cu3 Gd4 2.960419 1_655
Cu3 Gd0 2.960419 1_565
Cu3 Gd5 2.960419 1_554
Cu4 Sb2 2.686734 1_655
Cu4 Sb0 2.686734 1_555
Cu4 Sb4 2.686734 1_555
Cu4 Sb7 2.686734 1_555
Cu4 Gd2 2.960419 1_554
Cu4 Gd1 2.960419 1_555
Cu4 Gd0 2.960419 1_555
Cu4 Gd3 2.960419 1_555
Cu5 Sb5 2.686734 1_656
Cu5 Sb3 2.686734 1_545
Cu5 Sb1 2.686734 1_555
Cu5 Sb6 2.686734 1_655
Cu5 Gd0 2.960419 1_556
Cu5 Gd1 2.960419 1_545
Cu5 Gd2 2.960419 1_655
Cu5 Gd3 2.960419 1_555
