# generated using pymatgen
data_Li9Mn2Co5O16
_symmetry_space_group_name_H-M   'P 1'
_cell_length_a   11.67183200
_cell_length_b   5.07991000
_cell_length_c   5.13807606
_cell_angle_alpha   70.29221890
_cell_angle_beta   90.00000000
_cell_angle_gamma   90.00000000
_symmetry_Int_Tables_number   1
_chemical_formula_structural   Li9Mn2Co5O16
_chemical_formula_sum   'Li9 Mn2 Co5 O16'
_cell_volume   286.80134862
_cell_formula_units_Z   1
loop_
 _symmetry_equiv_pos_site_id
 _symmetry_equiv_pos_as_xyz
  1  'x, y, z'
loop_
 _atom_site_type_symbol
 _atom_site_label
 _atom_site_symmetry_multiplicity
 _atom_site_fract_x
 _atom_site_fract_y
 _atom_site_fract_z
 _atom_site_occupancy
  Li  Li0  1  0.87501500  0.00000000  0.50000000  1
  Li  Li1  1  0.75113400  0.50000000  0.50000000  1
  Li  Li2  1  0.62217500  0.00000000  0.50000000  1
  Li  Li3  1  0.49371200  0.50000000  0.50000000  1
  Li  Li4  1  0.36835800  0.00000000  0.50000000  1
  Li  Li5  1  0.25043800  0.50000000  0.50000000  1
  Li  Li6  1  0.13434300  0.00000000  0.50000000  1
  Li  Li7  1  0.00424300  0.50000000  0.50000000  1
  Li  Li8  1  0.24956300  0.00000000  0.00000000  1
  Mn  Mn0  1  0.00203200  0.00000000  0.00000000  1
  Mn  Mn1  1  0.62641200  0.50000000  0.00000000  1
  Co  Co0  1  0.87451300  0.50000000  0.00000000  1
  Co  Co1  1  0.75137100  0.00000000  0.00000000  1
  Co  Co2  1  0.49035300  0.00000000  0.00000000  1
  Co  Co3  1  0.37108100  0.50000000  0.00000000  1
  Co  Co4  1  0.13361500  0.50000000  0.00000000  1
  O  O0  1  0.87305200  0.77035900  0.22109500  1
  O  O1  1  0.74699000  0.27582200  0.23309500  1
  O  O2  1  0.63109000  0.75700200  0.20957000  1
  O  O3  1  0.50861000  0.26415200  0.23070300  1
  O  O4  1  0.38407300  0.74611300  0.23062800  1
  O  O5  1  0.24906000  0.27331700  0.24136100  1
  O  O6  1  0.11179300  0.75914200  0.22971000  1
  O  O7  1  0.99615500  0.24901200  0.21911800  1
  O  O8  1  0.87305200  0.22964100  0.77890500  1
  O  O9  1  0.74699000  0.72417800  0.76690500  1
  O  O10  1  0.63109000  0.24299800  0.79043000  1
  O  O11  1  0.50861000  0.73584800  0.76929700  1
  O  O12  1  0.38407300  0.25388700  0.76937200  1
  O  O13  1  0.24906000  0.72668300  0.75863900  1
  O  O14  1  0.11179300  0.24085800  0.77029000  1
  O  O15  1  0.99615500  0.75098800  0.78088200  1
loop_
_geom_bond_atom_site_label_1
_geom_bond_atom_site_label_2
_geom_bond_distance
_geom_bond_site_symmetry_2
Li0 O15 2.109705 1_545
Li0 O7 2.109705 1_555
Li0 O8 2.131302 1_555
Li0 O0 2.131302 1_545
Li0 O9 2.186513 1_545
Li0 O1 2.186513 1_555
Li1 O9 2.057473 1_555
Li1 O1 2.057473 1_555
Li1 O2 2.140206 1_555
Li1 O10 2.140206 1_555
Li1 O8 2.153454 1_555
Li1 O0 2.153454 1_555
Li2 O3 2.054236 1_555
Li2 O11 2.054236 1_545
Li2 O9 2.161081 1_545
Li2 O1 2.161081 1_555
Li2 O2 2.236910 1_545
Li2 O10 2.236910 1_555
Li3 O4 1.987268 1_555
Li3 O12 1.987268 1_555
Li3 O11 2.120909 1_555
Li3 O3 2.120909 1_555
Li3 O2 2.277799 1_555
Li3 O10 2.277799 1_555
Li4 O5 2.094793 1_555
Li4 O13 2.094793 1_545
Li4 O12 2.194665 1_555
Li4 O4 2.194665 1_545
Li4 O3 2.267745 1_555
Li4 O11 2.267745 1_545
Li5 O13 2.030852 1_555
Li5 O5 2.030852 1_555
Li5 O4 2.178187 1_555
Li5 O12 2.178187 1_555
Li5 O6 2.246624 1_555
Li5 O14 2.246624 1_555
Li6 O5 2.059639 1_555
Li6 O13 2.059639 1_545
Li6 O6 2.154304 1_545
Li6 O14 2.154304 1_555
Li6 O15 2.247919 1_445
Li6 O7 2.247919 1_455
Li7 O14 2.001102 1_555
Li7 O6 2.001102 1_555
Li7 O8 2.226457 1_455
Li7 O0 2.226457 1_455
Li7 O15 2.226737 1_455
Li7 O7 2.226737 1_455
Li8 O12 2.121709 1_554
Li8 O4 2.121709 1_545
Li8 O14 2.121759 1_554
Li8 O6 2.121759 1_545
Li8 O5 2.151039 1_555
Li8 O13 2.151039 1_544
Mn0 O14 1.886095 1_554
Mn0 O6 1.886095 1_545
Mn0 O7 1.957770 1_455
Mn0 O15 1.957770 1_444
Mn0 O8 2.005966 1_454
Mn0 O0 2.005966 1_445
Mn1 O3 1.942475 1_555
Mn1 O11 1.942475 1_554
Mn1 O1 1.947323 1_555
Mn1 O9 1.947323 1_554
Mn1 O10 1.953212 1_554
Mn1 O2 1.953212 1_555
Co0 O15 1.985145 1_554
Co0 O7 1.985145 1_555
Co0 O9 2.006689 1_554
Co0 O1 2.006689 1_555
Co0 O0 2.056522 1_555
Co0 O8 2.056522 1_554
Co1 O10 1.938478 1_554
Co1 O2 1.938478 1_545
Co1 O0 1.942847 1_545
Co1 O8 1.942847 1_554
Co1 O9 2.128854 1_544
Co1 O1 2.128854 1_555
Co2 O12 1.890929 1_554
Co2 O4 1.890929 1_545
Co2 O3 2.079399 1_555
Co2 O11 2.079399 1_544
Co2 O10 2.117803 1_554
Co2 O2 2.117803 1_545
Co3 O13 1.982214 1_554
Co3 O5 1.982214 1_555
Co3 O4 1.997363 1_555
Co3 O12 1.997363 1_554
Co3 O3 2.111728 1_555
Co3 O11 2.111728 1_554
Co4 O5 1.927806 1_555
Co4 O13 1.927806 1_554
Co4 O14 2.058826 1_554
Co4 O6 2.058826 1_555
Co4 O7 2.121118 1_455
Co4 O15 2.121118 1_454
