# generated using pymatgen
data_Li9Mn2Co5O16
_symmetry_space_group_name_H-M   'P 1'
_cell_length_a   5.01544000
_cell_length_b   5.95140501
_cell_length_c   10.24382425
_cell_angle_alpha   91.51321518
_cell_angle_beta   100.15588034
_cell_angle_gamma   103.89795324
_symmetry_Int_Tables_number   1
_chemical_formula_structural   Li9Mn2Co5O16
_chemical_formula_sum   'Li9 Mn2 Co5 O16'
_cell_volume   291.40766293
_cell_formula_units_Z   1
loop_
 _symmetry_equiv_pos_site_id
 _symmetry_equiv_pos_as_xyz
  1  'x, y, z'
loop_
 _atom_site_type_symbol
 _atom_site_label
 _atom_site_symmetry_multiplicity
 _atom_site_fract_x
 _atom_site_fract_y
 _atom_site_fract_z
 _atom_site_occupancy
  Li  Li0  1  0.50186300  0.37011400  0.13246900  1
  Li  Li1  1  0.00421600  0.24486000  0.25158100  1
  Li  Li2  1  0.99760900  0.50538600  0.00443600  1
  Li  Li3  1  0.49025300  0.12351000  0.37063200  1
  Li  Li4  1  0.98818500  0.99908700  0.49240200  1
  Li  Li5  1  0.50537800  0.87021800  0.62395000  1
  Li  Li6  1  0.00699500  0.75033000  0.74949800  1
  Li  Li7  1  0.50222900  0.63336200  0.87367600  1
  Li  Li8  1  0.00317200  0.75503500  0.24940100  1
  Mn  Mn0  1  0.99407500  0.99619100  0.99912500  1
  Mn  Mn1  1  0.50123700  0.37481000  0.62596900  1
  Co  Co0  1  0.50258600  0.87119900  0.13176600  1
  Co  Co1  1  0.51185600  0.64015600  0.36917300  1
  Co  Co2  1  0.00783500  0.50184400  0.49813700  1
  Co  Co3  1  0.99616300  0.24688900  0.75232000  1
  Co  Co4  1  0.48938600  0.11600800  0.87547200  1
  O  O0  1  0.24616700  0.05632800  0.16818000  1
  O  O1  1  0.73523500  0.93698000  0.30865800  1
  O  O2  1  0.74768000  0.17719800  0.05123100  1
  O  O3  1  0.27513600  0.78536200  0.43433100  1
  O  O4  1  0.76306800  0.68267400  0.54742800  1
  O  O5  1  0.25635000  0.55016800  0.68353400  1
  O  O6  1  0.74129000  0.41369100  0.80466200  1
  O  O7  1  0.21483000  0.28158200  0.93196700  1
  O  O8  1  0.75882200  0.72505000  0.05714900  1
  O  O9  1  0.28648400  0.58125400  0.19657400  1
  O  O10  1  0.23829800  0.82588400  0.94158600  1
  O  O11  1  0.73050400  0.45473500  0.32281800  1
  O  O12  1  0.24501900  0.31419100  0.44951100  1
  O  O13  1  0.76286100  0.20578100  0.57634300  1
  O  O14  1  0.24217000  0.06829800  0.70275000  1
  O  O15  1  0.75304800  0.94182100  0.82326900  1
loop_
_geom_bond_atom_site_label_1
_geom_bond_atom_site_label_2
_geom_bond_distance
_geom_bond_site_symmetry_2
Li0 O9 2.008916 1_555
Li0 O11 2.062259 1_555
Li0 O0 2.077722 1_555
Li0 O2 2.126512 1_555
Li0 O7 2.259276 1_554
Li0 O8 2.418117 1_555
Li1 O0 2.104871 1_555
Li1 O12 2.143066 1_555
Li1 O1 2.160205 1_445
Li1 O2 2.192252 1_455
Li1 O11 2.259655 1_455
Li1 O9 2.304159 1_555
Li2 O8 2.092328 1_555
Li2 O7 2.107650 1_654
Li2 O2 2.168221 1_555
Li2 O10 2.177797 1_654
Li2 O9 2.193189 1_655
Li2 O6 2.194229 1_554
Li3 O1 2.009523 1_545
Li3 O12 2.103823 1_555
Li3 O11 2.166968 1_555
Li3 O0 2.187522 1_555
Li3 O3 2.216842 1_545
Li3 O13 2.271023 1_555
Li4 O1 2.045684 1_555
Li4 O4 2.097073 1_555
Li4 O12 2.109926 1_665
Li4 O13 2.117627 1_565
Li4 O14 2.273425 1_665
Li4 O3 2.276920 1_655
Li5 O3 2.058775 1_555
Li5 O4 2.129477 1_555
Li5 O15 2.167679 1_555
Li5 O5 2.178986 1_555
Li5 O14 2.203878 1_565
Li5 O13 2.220007 1_565
Li6 O10 2.077875 1_555
Li6 O14 2.091980 1_565
Li6 O5 2.100218 1_555
Li6 O15 2.117377 1_455
Li6 O4 2.184008 1_455
Li6 O6 2.269784 1_455
Li7 O8 2.059573 1_556
Li7 O5 2.090081 1_555
Li7 O15 2.094971 1_555
Li7 O10 2.135476 1_555
Li7 O6 2.156313 1_555
Li7 O7 2.395255 1_555
Li8 O1 2.073360 1_455
Li8 O9 2.080657 1_555
Li8 O3 2.105769 1_555
Li8 O8 2.106539 1_455
Li8 O0 2.186183 1_565
Li8 O11 2.211220 1_455
Mn0 O10 1.922116 1_655
Mn0 O0 1.924430 1_666
Mn0 O8 1.932026 1_556
Mn0 O2 1.953016 1_566
Mn0 O15 1.955647 1_555
Mn0 O7 2.002725 1_665
Mn1 O5 1.945269 1_555
Mn1 O13 1.958182 1_555
Mn1 O6 1.980004 1_555
Mn1 O12 1.993143 1_555
Mn1 O14 2.220829 1_555
Mn1 O4 2.241306 1_555
Co0 O1 1.948269 1_555
Co0 O0 1.958352 1_565
Co0 O8 1.959756 1_555
Co0 O9 2.002222 1_555
Co0 O10 2.124843 1_554
Co0 O2 2.206748 1_565
Co1 O3 1.828597 1_555
Co1 O11 1.839318 1_555
Co1 O9 1.897042 1_555
Co1 O4 1.999225 1_555
Co1 O1 2.027822 1_555
Co1 O12 2.336079 1_555
Co2 O12 1.930869 1_555
Co2 O4 1.935132 1_455
Co2 O11 2.035640 1_455
Co2 O5 2.051166 1_555
Co2 O3 2.086188 1_555
Co2 O13 2.153532 1_455
Co3 O6 1.931374 1_555
Co3 O14 1.931916 1_655
Co3 O13 1.942675 1_555
Co3 O7 1.947157 1_655
Co3 O15 2.151758 1_545
Co3 O5 2.171902 1_655
Co4 O14 1.944017 1_555
Co4 O2 1.992145 1_556
Co4 O15 1.996988 1_545
Co4 O7 2.026048 1_555
Co4 O10 2.084190 1_545
Co4 O6 2.139356 1_555
