# generated using pymatgen
data_Li2Mn3VO8
_symmetry_space_group_name_H-M   'P 1'
_cell_length_a   8.17501200
_cell_length_b   8.57567900
_cell_length_c   8.62005300
_cell_angle_alpha   90.00000000
_cell_angle_beta   90.00000000
_cell_angle_gamma   90.00000000
_symmetry_Int_Tables_number   1
_chemical_formula_structural   Li2Mn3VO8
_chemical_formula_sum   'Li8 Mn12 V4 O32'
_cell_volume   604.31983831
_cell_formula_units_Z   4
loop_
 _symmetry_equiv_pos_site_id
 _symmetry_equiv_pos_as_xyz
  1  'x, y, z'
loop_
 _atom_site_type_symbol
 _atom_site_label
 _atom_site_symmetry_multiplicity
 _atom_site_fract_x
 _atom_site_fract_y
 _atom_site_fract_z
 _atom_site_occupancy
  Li  Li0  1  0.49783700  0.99338900  0.50253100  1
  Li  Li1  1  0.75476300  0.24812000  0.74907500  1
  Li  Li2  1  0.24523700  0.74812000  0.75092500  1
  Li  Li3  1  0.50216300  0.49338900  0.99746900  1
  Li  Li4  1  0.00216300  0.00661100  0.00253100  1
  Li  Li5  1  0.74523700  0.75188000  0.24907500  1
  Li  Li6  1  0.25476300  0.25188000  0.25092500  1
  Li  Li7  1  0.99783700  0.50661100  0.49746900  1
  Mn  Mn0  1  0.62229000  0.62511000  0.63122900  1
  Mn  Mn1  1  0.87543500  0.86795800  0.61850500  1
  Mn  Mn2  1  0.12664200  0.12128300  0.62121800  1
  Mn  Mn3  1  0.87335800  0.62128300  0.87878200  1
  Mn  Mn4  1  0.12456500  0.36795800  0.88149500  1
  Mn  Mn5  1  0.37771000  0.12511000  0.86877100  1
  Mn  Mn6  1  0.87771000  0.37489000  0.13122900  1
  Mn  Mn7  1  0.62456500  0.13204200  0.11850500  1
  Mn  Mn8  1  0.37335800  0.87871700  0.12121800  1
  Mn  Mn9  1  0.62664200  0.37871700  0.37878200  1
  Mn  Mn10  1  0.37543500  0.63204200  0.38149500  1
  Mn  Mn11  1  0.12229000  0.87489000  0.36877100  1
  V  V0  1  0.36778800  0.37872400  0.62588000  1
  V  V1  1  0.63221200  0.87872400  0.87412000  1
  V  V2  1  0.13221200  0.62127600  0.12588000  1
  V  V3  1  0.86778800  0.12127600  0.37412000  1
  O  O0  1  0.61375800  0.39636100  0.61725100  1
  O  O1  1  0.38873900  0.60848500  0.63183100  1
  O  O2  1  0.11040000  0.87122800  0.59441000  1
  O  O3  1  0.63413400  0.85320700  0.64066100  1
  O  O4  1  0.89102300  0.10629500  0.60592300  1
  O  O5  1  0.86103100  0.63597500  0.64323300  1
  O  O6  1  0.14787100  0.37419600  0.62375100  1
  O  O7  1  0.36569200  0.13867000  0.63953900  1
  O  O8  1  0.63430800  0.63867000  0.86046100  1
  O  O9  1  0.85212900  0.87419600  0.87624900  1
  O  O10  1  0.13896900  0.13597500  0.85676700  1
  O  O11  1  0.10897700  0.60629500  0.89407700  1
  O  O12  1  0.36586600  0.35320700  0.85933900  1
  O  O13  1  0.88960000  0.37122800  0.90559000  1
  O  O14  1  0.61126100  0.10848500  0.86816900  1
  O  O15  1  0.38624200  0.89636100  0.88274900  1
  O  O16  1  0.88624200  0.60363900  0.11725100  1
  O  O17  1  0.11126100  0.39151500  0.13183100  1
  O  O18  1  0.38960000  0.12877200  0.09441000  1
  O  O19  1  0.86586600  0.14679300  0.14066100  1
  O  O20  1  0.60897700  0.89370500  0.10592300  1
  O  O21  1  0.63896900  0.36402500  0.14323300  1
  O  O22  1  0.35212900  0.62580400  0.12375100  1
  O  O23  1  0.13430800  0.86133000  0.13953900  1
  O  O24  1  0.86569200  0.36133000  0.36046100  1
  O  O25  1  0.64787100  0.12580400  0.37624900  1
  O  O26  1  0.36103100  0.86402500  0.35676700  1
  O  O27  1  0.39102300  0.39370500  0.39407700  1
  O  O28  1  0.13413400  0.64679300  0.35933900  1
  O  O29  1  0.61040000  0.62877200  0.40559000  1
  O  O30  1  0.88873900  0.89151500  0.36816900  1
  O  O31  1  0.11375800  0.10363900  0.38274900  1
loop_
_geom_bond_atom_site_label_1
_geom_bond_atom_site_label_2
_geom_bond_distance
_geom_bond_site_symmetry_2
Li0 O25 1.994694 1_565
Li0 O26 2.015020 1_555
Li0 O3 2.025938 1_555
Li0 O7 2.028311 1_565
Li1 O14 1.965721 1_555
Li1 O13 2.037126 1_555
Li1 O0 2.058185 1_555
Li1 O4 2.059803 1_555
Li2 O1 1.965721 1_555
Li2 O2 2.037126 1_555
Li2 O15 2.058185 1_555
Li2 O11 2.059803 1_555
Li3 O22 1.994694 1_556
Li3 O21 2.015020 1_556
Li3 O12 2.025938 1_555
Li3 O8 2.028311 1_555
Li4 O9 1.994694 1_444
Li4 O10 2.015020 1_554
Li4 O19 2.025938 1_455
Li4 O23 2.028311 1_545
Li5 O30 1.965721 1_555
Li5 O29 2.037126 1_555
Li5 O16 2.058185 1_555
Li5 O20 2.059803 1_555
Li6 O17 1.965721 1_555
Li6 O18 2.037126 1_555
Li6 O31 2.058185 1_555
Li6 O27 2.059803 1_555
Li7 O6 1.994694 1_655
Li7 O5 2.015020 1_555
Li7 O28 2.025938 1_655
Li7 O24 2.028311 1_555
Mn0 O1 1.914605 1_555
Mn0 O29 1.947701 1_555
Mn0 O5 1.956671 1_555
Mn0 O3 1.960168 1_555
Mn0 O0 1.966612 1_555
Mn0 O8 1.981847 1_555
Mn1 O2 1.932242 1_655
Mn1 O3 1.985895 1_555
Mn1 O5 2.004261 1_555
Mn1 O4 2.050740 1_565
Mn1 O30 2.170072 1_555
Mn1 O9 2.230563 1_555
Mn2 O4 1.934969 1_455
Mn2 O7 1.966269 1_555
Mn2 O10 2.036845 1_555
Mn2 O31 2.063866 1_555
Mn2 O2 2.160890 1_545
Mn2 O6 2.175942 1_555
Mn3 O11 1.934969 1_655
Mn3 O8 1.966269 1_555
Mn3 O5 2.036845 1_555
Mn3 O16 2.063866 1_556
Mn3 O13 2.160890 1_555
Mn3 O9 2.175942 1_555
Mn4 O13 1.932242 1_455
Mn4 O12 1.985895 1_555
Mn4 O10 2.004261 1_555
Mn4 O11 2.050740 1_555
Mn4 O17 2.170072 1_556
Mn4 O6 2.230563 1_555
Mn5 O14 1.914605 1_555
Mn5 O18 1.947701 1_556
Mn5 O10 1.956671 1_555
Mn5 O12 1.960168 1_555
Mn5 O15 1.966612 1_545
Mn5 O7 1.981847 1_555
Mn6 O17 1.914605 1_655
Mn6 O13 1.947701 1_554
Mn6 O21 1.956671 1_555
Mn6 O19 1.960168 1_555
Mn6 O16 1.966612 1_555
Mn6 O24 1.981847 1_555
Mn7 O18 1.932242 1_555
Mn7 O19 1.985895 1_555
Mn7 O21 2.004261 1_555
Mn7 O20 2.050740 1_545
Mn7 O14 2.170072 1_554
Mn7 O25 2.230563 1_555
Mn8 O20 1.934969 1_555
Mn8 O23 1.966269 1_555
Mn8 O26 2.036845 1_555
Mn8 O15 2.063866 1_554
Mn8 O18 2.160890 1_565
Mn8 O22 2.175942 1_555
Mn9 O27 1.934969 1_555
Mn9 O24 1.966269 1_555
Mn9 O21 2.036845 1_555
Mn9 O0 2.063866 1_555
Mn9 O29 2.160890 1_555
Mn9 O25 2.175942 1_555
Mn10 O29 1.932242 1_555
Mn10 O28 1.985895 1_555
Mn10 O26 2.004261 1_555
Mn10 O27 2.050740 1_555
Mn10 O1 2.170072 1_555
Mn10 O22 2.230563 1_555
Mn11 O30 1.914605 1_455
Mn11 O2 1.947701 1_555
Mn11 O26 1.956671 1_555
Mn11 O28 1.960168 1_555
Mn11 O31 1.966612 1_565
Mn11 O23 1.981847 1_555
O0 V0 2.017859 1_555
O1 V0 1.978452 1_555
O3 V1 2.024352 1_555
O4 V3 2.011269 1_555
O6 V0 1.798337 1_555
O7 V0 2.062062 1_555
O8 V1 2.062062 1_555
O9 V1 1.798337 1_555
O11 V2 2.011269 1_556
O12 V0 2.024352 1_555
O14 V1 1.978452 1_545
O15 V1 2.017859 1_555
O16 V2 2.017859 1_655
O17 V2 1.978452 1_555
O19 V3 2.024352 1_555
O20 V1 2.011269 1_554
O22 V2 1.798337 1_555
O23 V2 2.062062 1_555
O24 V3 2.062062 1_555
O25 V3 1.798337 1_555
O27 V0 2.011269 1_555
O28 V2 2.024352 1_555
O30 V3 1.978452 1_565
O31 V3 2.017859 1_455
