# generated using pymatgen
data_SrNiO3
_symmetry_space_group_name_H-M   'P 1'
_cell_length_a   5.49100000
_cell_length_b   5.51572700
_cell_length_c   7.79842000
_cell_angle_alpha   90.00000000
_cell_angle_beta   90.00000000
_cell_angle_gamma   90.00000000
_symmetry_Int_Tables_number   1
_chemical_formula_structural   SrNiO3
_chemical_formula_sum   'Sr4 Ni4 O12'
_cell_volume   236.18963103
_cell_formula_units_Z   4
loop_
 _symmetry_equiv_pos_site_id
 _symmetry_equiv_pos_as_xyz
  1  'x, y, z'
loop_
 _atom_site_type_symbol
 _atom_site_label
 _atom_site_symmetry_multiplicity
 _atom_site_fract_x
 _atom_site_fract_y
 _atom_site_fract_z
 _atom_site_occupancy
  Sr  Sr0  1  0.00087800  0.99466800  0.25000000  1
  Sr  Sr1  1  0.49912200  0.49466800  0.25000000  1
  Sr  Sr2  1  0.50087800  0.50533200  0.75000000  1
  Sr  Sr3  1  0.99912200  0.00533200  0.75000000  1
  Ni  Ni0  1  0.00000000  0.50000000  0.00000000  1
  Ni  Ni1  1  0.00000000  0.50000000  0.50000000  1
  Ni  Ni2  1  0.50000000  0.00000000  0.00000000  1
  Ni  Ni3  1  0.50000000  0.00000000  0.50000000  1
  O  O0  1  0.01204300  0.50675300  0.75000000  1
  O  O1  1  0.23916800  0.23927200  0.49359200  1
  O  O2  1  0.23916800  0.23927200  0.00640800  1
  O  O3  1  0.26083200  0.73927200  0.49359200  1
  O  O4  1  0.26083200  0.73927200  0.00640800  1
  O  O5  1  0.48795700  0.00675300  0.75000000  1
  O  O6  1  0.51204300  0.99324700  0.25000000  1
  O  O7  1  0.73916800  0.26072800  0.99359200  1
  O  O8  1  0.73916800  0.26072800  0.50640800  1
  O  O9  1  0.76083200  0.76072800  0.99359200  1
  O  O10  1  0.76083200  0.76072800  0.50640800  1
  O  O11  1  0.98795700  0.49324700  0.25000000  1
loop_
_geom_bond_atom_site_label_1
_geom_bond_atom_site_label_2
_geom_bond_distance
_geom_bond_site_symmetry_2
Ni0 O2 1.948159 1_555
Ni0 O9 1.948159 1_454
Ni0 O7 1.948214 1_454
Ni0 O4 1.948214 1_555
Ni0 O11 1.951082 1_455
Ni0 O0 1.951082 1_554
Ni1 O1 1.948159 1_555
Ni1 O10 1.948159 1_455
Ni1 O8 1.948214 1_455
Ni1 O3 1.948214 1_555
Ni1 O11 1.951082 1_455
Ni1 O0 1.951082 1_555
Ni2 O4 1.948159 1_545
Ni2 O7 1.948159 1_554
Ni2 O9 1.948214 1_544
Ni2 O2 1.948214 1_555
Ni2 O6 1.951082 1_545
Ni2 O5 1.951082 1_554
Ni3 O3 1.948159 1_545
Ni3 O8 1.948159 1_555
Ni3 O10 1.948214 1_545
Ni3 O1 1.948214 1_555
Ni3 O6 1.951082 1_545
Ni3 O5 1.951082 1_555
O0 Sr2 2.684204 1_555
O0 Sr3 2.750941 1_465
O0 Sr3 2.766611 1_455
O0 Sr2 2.806818 1_455
O1 Sr0 2.672247 1_545
O1 Sr3 2.720419 1_455
O1 Sr1 2.762339 1_555
O1 Sr2 2.866534 1_555
O2 Sr0 2.672247 1_545
O2 Sr3 2.720419 1_454
O2 Sr1 2.762339 1_555
O2 Sr2 2.866534 1_554
O3 Sr1 2.672247 1_555
O3 Sr2 2.720419 1_555
O3 Sr0 2.762339 1_555
O3 Sr3 2.866534 1_465
O4 Sr1 2.672247 1_555
O4 Sr2 2.720419 1_554
O4 Sr0 2.762339 1_555
O4 Sr3 2.866534 1_464
O5 Sr3 2.684204 1_455
O5 Sr2 2.750941 1_555
O5 Sr2 2.766611 1_545
O5 Sr3 2.806818 1_555
O6 Sr0 2.684204 1_655
O6 Sr1 2.750941 1_555
O6 Sr1 2.766611 1_565
O6 Sr0 2.806818 1_555
O7 Sr2 2.672247 1_555
O7 Sr1 2.720419 1_556
O7 Sr3 2.762339 1_555
O7 Sr0 2.866534 1_646
O8 Sr2 2.672247 1_555
O8 Sr1 2.720419 1_555
O8 Sr3 2.762339 1_555
O8 Sr0 2.866534 1_645
O9 Sr3 2.672247 1_565
O9 Sr0 2.720419 1_656
O9 Sr2 2.762339 1_555
O9 Sr1 2.866534 1_556
O10 Sr3 2.672247 1_565
O10 Sr0 2.720419 1_655
O10 Sr2 2.762339 1_555
O10 Sr1 2.866534 1_555
O11 Sr1 2.684204 1_555
O11 Sr0 2.750941 1_645
O11 Sr0 2.766611 1_655
O11 Sr1 2.806818 1_655
