# generated using pymatgen
data_PbSe
_symmetry_space_group_name_H-M   'P 1'
_cell_length_a   6.50144624
_cell_length_b   6.50144624
_cell_length_c   4.45049357
_cell_angle_alpha   90.00000000
_cell_angle_beta   90.00000000
_cell_angle_gamma   141.28690225
_symmetry_Int_Tables_number   1
_chemical_formula_structural   PbSe
_chemical_formula_sum   'Pb2 Se2'
_cell_volume   117.65235390
_cell_formula_units_Z   2
loop_
 _symmetry_equiv_pos_site_id
 _symmetry_equiv_pos_as_xyz
  1  'x, y, z'
loop_
 _atom_site_type_symbol
 _atom_site_label
 _atom_site_symmetry_multiplicity
 _atom_site_fract_x
 _atom_site_fract_y
 _atom_site_fract_z
 _atom_site_occupancy
  Pb  Pb0  1  0.63176073  0.36823927  0.75000000  1
  Pb  Pb1  1  0.36823927  0.63176073  0.25000000  1
  Se  Se0  1  0.86128996  0.13871004  0.75000000  1
  Se  Se1  1  0.13871004  0.86128996  0.25000000  1
loop_
_geom_bond_atom_site_label_1
_geom_bond_atom_site_label_2
_geom_bond_distance
_geom_bond_site_symmetry_2
Pb0 Se0 2.815840 1_555
Pb0 Se1 3.098788 1_545
Pb0 Se1 3.098788 1_546
Pb0 Se1 3.098788 1_655
Pb0 Se1 3.098788 1_656
Pb1 Se1 2.815840 1_555
Pb1 Se0 3.098788 1_455
Pb1 Se0 3.098788 1_454
Pb1 Se0 3.098788 1_565
Pb1 Se0 3.098788 1_564
