# generated using pymatgen
data_CaMo2O5
_symmetry_space_group_name_H-M   'P 1'
_cell_length_a   3.58292000
_cell_length_b   5.25925400
_cell_length_c   13.01768800
_cell_angle_alpha   90.00000000
_cell_angle_beta   90.00000000
_cell_angle_gamma   90.00000000
_symmetry_Int_Tables_number   1
_chemical_formula_structural   CaMo2O5
_chemical_formula_sum   'Ca2 Mo4 O10'
_cell_volume   245.29862603
_cell_formula_units_Z   2
loop_
 _symmetry_equiv_pos_site_id
 _symmetry_equiv_pos_as_xyz
  1  'x, y, z'
loop_
 _atom_site_type_symbol
 _atom_site_label
 _atom_site_symmetry_multiplicity
 _atom_site_fract_x
 _atom_site_fract_y
 _atom_site_fract_z
 _atom_site_occupancy
  Ca  Ca0  1  0.50000000  0.55423100  0.00000000  1
  Ca  Ca1  1  0.00000000  0.44576900  0.50000000  1
  Mo  Mo0  1  0.00000000  0.03472900  0.85596100  1
  Mo  Mo1  1  0.50000000  0.96527100  0.64403900  1
  Mo  Mo2  1  0.50000000  0.96527100  0.35596100  1
  Mo  Mo3  1  0.00000000  0.03472900  0.14403900  1
  O  O0  1  0.50000000  0.13147900  0.50000000  1
  O  O1  1  0.00000000  0.86852100  0.00000000  1
  O  O2  1  0.50000000  0.88922600  0.81679900  1
  O  O3  1  0.00000000  0.11077400  0.68320100  1
  O  O4  1  0.50000000  0.88922600  0.18320100  1
  O  O5  1  0.00000000  0.11077400  0.31679900  1
  O  O6  1  0.00000000  0.37500200  0.10878600  1
  O  O7  1  0.50000000  0.62499800  0.39121400  1
  O  O8  1  0.50000000  0.62499800  0.60878600  1
  O  O9  1  0.00000000  0.37500200  0.89121400  1
loop_
_geom_bond_atom_site_label_1
_geom_bond_atom_site_label_2
_geom_bond_distance
_geom_bond_site_symmetry_2
Ca0 O1 2.437521 1_555
Ca0 O1 2.437521 1_655
Ca0 O6 2.470486 1_655
Ca0 O6 2.470486 1_555
Ca0 O9 2.470486 1_654
Ca0 O9 2.470486 1_554
Ca0 O2 2.965055 1_554
Ca0 O4 2.965055 1_555
Ca1 O0 2.437521 1_455
Ca1 O0 2.437521 1_555
Ca1 O7 2.470486 1_555
Ca1 O7 2.470486 1_455
Ca1 O8 2.470486 1_555
Ca1 O8 2.470486 1_455
Ca1 O3 2.965055 1_555
Ca1 O5 2.965055 1_555
Mo0 O9 1.847486 1_555
Mo0 O2 2.013656 1_445
Mo0 O2 2.013656 1_545
Mo0 O1 2.068800 1_546
Mo0 O3 2.284221 1_555
Mo1 O8 1.847486 1_555
Mo1 O3 2.013656 1_565
Mo1 O3 2.013656 1_665
Mo1 O0 2.068800 1_565
Mo1 O2 2.284221 1_555
Mo2 O7 1.847486 1_555
Mo2 O5 2.013656 1_565
Mo2 O5 2.013656 1_665
Mo2 O0 2.068800 1_565
Mo2 O4 2.284221 1_555
Mo3 O6 1.847486 1_555
Mo3 O4 2.013656 1_545
Mo3 O4 2.013656 1_445
Mo3 O1 2.068800 1_545
Mo3 O5 2.284221 1_555
