# generated using pymatgen
data_Tm2CuRh
_symmetry_space_group_name_H-M   'P 1'
_cell_length_a   4.77401709
_cell_length_b   4.77401709
_cell_length_c   4.77401709
_cell_angle_alpha   60.00000000
_cell_angle_beta   60.00000000
_cell_angle_gamma   60.00000000
_symmetry_Int_Tables_number   1
_chemical_formula_structural   Tm2CuRh
_chemical_formula_sum   'Tm2 Cu1 Rh1'
_cell_volume   76.93729464
_cell_formula_units_Z   1
loop_
 _symmetry_equiv_pos_site_id
 _symmetry_equiv_pos_as_xyz
  1  'x, y, z'
loop_
 _atom_site_type_symbol
 _atom_site_label
 _atom_site_symmetry_multiplicity
 _atom_site_fract_x
 _atom_site_fract_y
 _atom_site_fract_z
 _atom_site_occupancy
  Tm  Tm0  1  0.25000000  0.25000000  0.25000000  1
  Tm  Tm1  1  0.75000000  0.75000000  0.75000000  1
  Cu  Cu0  1  0.50000000  0.50000000  0.50000000  1
  Rh  Rh0  1  -0.00000000  -0.00000000  0.00000000  1
loop_
_geom_bond_atom_site_label_1
_geom_bond_atom_site_label_2
_geom_bond_distance
_geom_bond_site_symmetry_2
Cu0 Tm1 2.923476 1_554
Cu0 Tm1 2.923476 1_555
Cu0 Tm1 2.923476 1_545
Cu0 Tm0 2.923476 1_555
Cu0 Tm0 2.923476 1_565
Cu0 Tm0 2.923476 1_655
Cu0 Tm0 2.923476 1_556
Cu0 Tm1 2.923476 1_455
Rh0 Tm0 2.923476 1_545
Rh0 Tm1 2.923476 1_444
Rh0 Tm1 2.923476 1_445
Rh0 Tm1 2.923476 1_454
Rh0 Tm1 2.923476 1_544
Rh0 Tm0 2.923476 1_555
Rh0 Tm0 2.923476 1_554
Rh0 Tm0 2.923476 1_455
