# generated using pymatgen
data_Li7Mn4CoO12
_symmetry_space_group_name_H-M   'P 1'
_cell_length_a   5.21474647
_cell_length_b   12.95233656
_cell_length_c   6.49687319
_cell_angle_alpha   82.88093851
_cell_angle_beta   95.80426868
_cell_angle_gamma   95.71756033
_symmetry_Int_Tables_number   1
_chemical_formula_structural   Li7Mn4CoO12
_chemical_formula_sum   'Li14 Mn8 Co2 O24'
_cell_volume   431.51485245
_cell_formula_units_Z   2
loop_
 _symmetry_equiv_pos_site_id
 _symmetry_equiv_pos_as_xyz
  1  'x, y, z'
loop_
 _atom_site_type_symbol
 _atom_site_label
 _atom_site_symmetry_multiplicity
 _atom_site_fract_x
 _atom_site_fract_y
 _atom_site_fract_z
 _atom_site_occupancy
  Li  Li0  1  0.50001700  0.08341700  0.83314500  1
  Li  Li1  1  0.49998400  0.58325000  0.83352400  1
  Li  Li2  1  0.25486700  0.20401900  0.07272400  1
  Li  Li3  1  0.24484800  0.70299800  0.07095600  1
  Li  Li4  1  0.74513300  0.46265000  0.59394000  1
  Li  Li5  1  0.75515300  0.96367000  0.59570800  1
  Li  Li6  1  0.75589700  0.12828000  0.25086700  1
  Li  Li7  1  0.76075000  0.62870400  0.25227500  1
  Li  Li8  1  0.75508000  0.29118400  0.92637200  1
  Li  Li9  1  0.76148400  0.79216300  0.92426200  1
  Li  Li10  1  0.23925200  0.03796500  0.41438700  1
  Li  Li11  1  0.24410200  0.53838800  0.41579600  1
  Li  Li12  1  0.24491900  0.37548500  0.74029200  1
  Li  Li13  1  0.23851900  0.87450700  0.74240100  1
  Mn  Mn0  1  0.99996500  0.50020300  0.99940700  1
  Mn  Mn1  1  0.99990800  0.99919500  0.00162000  1
  Mn  Mn2  1  0.00003500  0.16646200  0.66726000  1
  Mn  Mn3  1  0.00009300  0.66746900  0.66504800  1
  Mn  Mn4  1  0.49946400  0.41809800  0.16401300  1
  Mn  Mn5  1  0.50008100  0.91852900  0.16233500  1
  Mn  Mn6  1  0.50054000  0.24856900  0.50265700  1
  Mn  Mn7  1  0.49991800  0.74813600  0.50433700  1
  Co  Co0  1  0.99999900  0.83333400  0.33333300  1
  Co  Co1  1  0.00000000  0.33333200  0.33333400  1
  O  O0  1  0.89548200  0.14062400  0.94775500  1
  O  O1  1  0.89457400  0.64105700  0.94694600  1
  O  O2  1  0.10542900  0.02560800  0.71971700  1
  O  O3  1  0.10451700  0.52604200  0.71891100  1
  O  O4  1  0.38729300  0.39183000  0.44956000  1
  O  O5  1  0.35320200  0.88594200  0.43807100  1
  O  O6  1  0.61270500  0.27483700  0.21710800  1
  O  O7  1  0.64679600  0.78072400  0.22860200  1
  O  O8  1  0.89453600  0.30760800  0.61418000  1
  O  O9  1  0.89183000  0.80827800  0.61509700  1
  O  O10  1  0.89569400  0.47346400  0.28166700  1
  O  O11  1  0.89184900  0.97492600  0.28207700  1
  O  O12  1  0.10430500  0.19320200  0.38500300  1
  O  O13  1  0.10815400  0.69174300  0.38458400  1
  O  O14  1  0.10546200  0.35905500  0.05248900  1
  O  O15  1  0.10817000  0.85839100  0.05156500  1
  O  O16  1  0.34560700  0.05074700  0.11640500  1
  O  O17  1  0.34665400  0.55172700  0.11610300  1
  O  O18  1  0.34614200  0.22485700  0.76782500  1
  O  O19  1  0.34603300  0.72519000  0.76897200  1
  O  O20  1  0.65334300  0.11493800  0.55056400  1
  O  O21  1  0.65439500  0.61591900  0.55026200  1
  O  O22  1  0.65385500  0.44180800  0.89884200  1
  O  O23  1  0.65396600  0.94147700  0.89770000  1
loop_
_geom_bond_atom_site_label_1
_geom_bond_atom_site_label_2
_geom_bond_distance
_geom_bond_site_symmetry_2
Li0 O18 2.052179 1_555
Li0 O20 2.054885 1_555
Li0 O23 2.057953 1_545
Li0 O16 2.062268 1_556
Li0 O2 2.204727 1_555
Li0 O0 2.208630 1_555
Li1 O22 2.052193 1_555
Li1 O17 2.054884 1_556
Li1 O19 2.057957 1_555
Li1 O21 2.062281 1_555
Li1 O1 2.204717 1_555
Li1 O3 2.208648 1_555
Li2 O18 2.062986 1_554
Li2 O16 2.065418 1_555
Li2 O0 2.096794 1_454
Li2 O6 2.172915 1_555
Li2 O14 2.209582 1_555
Li2 O12 2.232055 1_555
Li3 O1 2.049335 1_454
Li3 O17 2.059151 1_555
Li3 O19 2.061476 1_554
Li3 O15 2.186244 1_555
Li3 O13 2.209216 1_555
Li3 O7 2.420098 1_555
Li4 O22 2.063010 1_555
Li4 O21 2.065377 1_555
Li4 O3 2.096781 1_655
Li4 O4 2.172923 1_555
Li4 O8 2.209647 1_555
Li4 O10 2.232020 1_555
Li5 O2 2.049327 1_665
Li5 O20 2.059121 1_565
Li5 O23 2.061529 1_555
Li5 O9 2.186231 1_555
Li5 O11 2.209237 1_555
Li5 O5 2.420097 1_555
Li6 O20 2.053251 1_555
Li6 O12 2.079545 1_655
Li6 O6 2.086902 1_555
Li6 O0 2.149922 1_554
Li6 O11 2.154244 1_545
Li6 O16 2.400132 1_555
Li7 O21 2.049991 1_555
Li7 O13 2.061995 1_655
Li7 O7 2.096040 1_555
Li7 O1 2.150973 1_554
Li7 O10 2.175829 1_555
Li7 O17 2.417237 1_555
Li8 O22 2.053381 1_555
Li8 O6 2.077765 1_556
Li8 O14 2.082867 1_656
Li8 O0 2.134251 1_555
Li8 O8 2.201946 1_555
Li8 O18 2.399306 1_555
Li9 O23 2.048932 1_555
Li9 O15 2.062215 1_656
Li9 O7 2.106680 1_556
Li9 O1 2.124242 1_555
Li9 O9 2.164265 1_555
Li9 O19 2.421639 1_555
Li10 O16 2.049962 1_555
Li10 O11 2.061993 1_445
Li10 O5 2.096064 1_545
Li10 O2 2.150974 1_555
Li10 O12 2.175802 1_555
Li10 O20 2.417207 1_555
Li11 O17 2.053224 1_555
Li11 O10 2.079537 1_455
Li11 O4 2.086910 1_555
Li11 O3 2.149939 1_555
Li11 O13 2.154247 1_555
Li11 O21 2.400144 1_555
Li12 O18 2.053426 1_555
Li12 O4 2.077740 1_555
Li12 O8 2.082889 1_455
Li12 O3 2.134216 1_555
Li12 O14 2.201975 1_556
Li12 O22 2.399288 1_555
Li13 O19 2.048958 1_555
Li13 O9 2.062235 1_455
Li13 O5 2.106612 1_555
Li13 O2 2.124180 1_565
Li13 O15 2.164265 1_556
Li13 O23 2.421632 1_555
Mn0 O3 1.934850 1_655
Mn0 O1 1.937621 1_555
Mn0 O14 1.941556 1_656
Mn0 O10 1.945558 1_556
Mn0 O22 1.966849 1_555
Mn0 O17 1.973939 1_656
Mn1 O11 1.940819 1_555
Mn1 O15 1.942026 1_655
Mn1 O0 1.943180 1_564
Mn1 O2 1.945561 1_664
Mn1 O16 1.965577 1_665
Mn1 O23 1.969561 1_554
Mn2 O0 1.934845 1_455
Mn2 O2 1.937626 1_555
Mn2 O8 1.941535 1_455
Mn2 O12 1.945538 1_555
Mn2 O18 1.966836 1_555
Mn2 O20 1.973952 1_455
Mn3 O13 1.940867 1_555
Mn3 O9 1.942090 1_455
Mn3 O3 1.943152 1_555
Mn3 O1 1.945526 1_455
Mn3 O21 1.965568 1_455
Mn3 O19 1.969573 1_555
Mn4 O22 1.952084 1_554
Mn4 O17 1.954145 1_555
Mn4 O4 1.980639 1_555
Mn4 O6 1.982247 1_555
Mn4 O14 2.203281 1_555
Mn4 O10 2.211123 1_555
Mn5 O16 1.941725 1_565
Mn5 O23 1.947605 1_554
Mn5 O7 1.992878 1_555
Mn5 O5 1.999924 1_555
Mn5 O15 2.196745 1_555
Mn5 O11 2.198766 1_555
Mn6 O18 1.952084 1_555
Mn6 O20 1.954151 1_555
Mn6 O6 1.980639 1_555
Mn6 O4 1.982259 1_555
Mn6 O8 2.203237 1_555
Mn6 O12 2.211149 1_555
Mn7 O21 1.941720 1_555
Mn7 O19 1.947605 1_555
Mn7 O5 1.992891 1_555
Mn7 O7 1.999917 1_555
Mn7 O9 2.196747 1_555
Mn7 O13 2.198755 1_555
Co0 O9 1.949274 1_555
Co0 O15 1.949302 1_655
Co0 O13 1.951674 1_655
Co0 O11 1.951678 1_555
Co0 O7 1.982711 1_555
Co0 O5 1.982716 1_655
Co1 O12 1.926541 1_555
Co1 O10 1.926567 1_455
Co1 O14 1.938672 1_555
Co1 O8 1.938682 1_455
Co1 O6 2.179826 1_455
Co1 O4 2.179828 1_555
