# generated using pymatgen
data_Rb3AuF6
_symmetry_space_group_name_H-M   'P 1'
_cell_length_a   7.35990334
_cell_length_b   8.44515813
_cell_length_c   7.35876958
_cell_angle_alpha   125.92942937
_cell_angle_beta   73.90821427
_cell_angle_gamma   102.05564019
_symmetry_Int_Tables_number   1
_chemical_formula_structural   Rb3AuF6
_chemical_formula_sum   'Rb3 Au1 F6'
_cell_volume   355.22603031
_cell_formula_units_Z   1
loop_
 _symmetry_equiv_pos_site_id
 _symmetry_equiv_pos_as_xyz
  1  'x, y, z'
loop_
 _atom_site_type_symbol
 _atom_site_label
 _atom_site_symmetry_multiplicity
 _atom_site_fract_x
 _atom_site_fract_y
 _atom_site_fract_z
 _atom_site_occupancy
  Rb  Rb0  1  0.50000000  0.00000000  0.00000000  1
  Rb  Rb1  1  0.00000000  0.50000000  0.50000000  1
  Rb  Rb2  1  0.00000000  0.00000000  0.50000000  1
  Au  Au0  1  0.00000000  0.00000000  0.00000000  1
  F  F0  1  0.79097100  0.07426500  0.26968500  1
  F  F1  1  0.20902900  0.92573500  0.73031500  1
  F  F2  1  0.78417600  0.79674900  0.66817200  1
  F  F3  1  0.21582400  0.20325100  0.33182800  1
  F  F4  1  0.04414200  0.76746700  0.98268600  1
  F  F5  1  0.95585800  0.23253300  0.01731400  1
loop_
_geom_bond_atom_site_label_1
_geom_bond_atom_site_label_2
_geom_bond_distance
_geom_bond_site_symmetry_2
Au0 F4 1.981951 1_544
Au0 F5 1.981951 1_455
Au0 F0 1.987060 1_455
Au0 F1 1.987060 1_544
F0 Rb2 2.954410 1_655
F0 Rb0 3.041727 1_555
F0 Rb1 3.185859 1_655
F1 Rb2 2.954410 1_565
F1 Rb0 3.041727 1_566
F1 Rb1 3.185859 1_555
F2 Rb0 2.651962 1_566
F2 Rb2 2.695413 1_665
F2 Rb1 2.696030 1_655
F3 Rb0 2.651962 1_555
F3 Rb2 2.695413 1_555
F3 Rb1 2.696030 1_555
F4 Rb1 2.956615 1_555
F4 Rb2 3.043231 1_566
F5 Rb1 2.956615 1_655
F5 Rb2 3.043231 1_654
