# generated using pymatgen
data_Ca3Mg
_symmetry_space_group_name_H-M   'P 1'
_cell_length_a   6.48093479
_cell_length_b   6.48093479
_cell_length_c   6.48093479
_cell_angle_alpha   131.89141544
_cell_angle_beta   131.89141544
_cell_angle_gamma   70.40057854
_symmetry_Int_Tables_number   1
_chemical_formula_structural   Ca3Mg
_chemical_formula_sum   'Ca3 Mg1'
_cell_volume   147.82345041
_cell_formula_units_Z   1
loop_
 _symmetry_equiv_pos_site_id
 _symmetry_equiv_pos_as_xyz
  1  'x, y, z'
loop_
 _atom_site_type_symbol
 _atom_site_label
 _atom_site_symmetry_multiplicity
 _atom_site_fract_x
 _atom_site_fract_y
 _atom_site_fract_z
 _atom_site_occupancy
  Ca  Ca0  1  0.50000000  0.50000000  0.00000000  1
  Ca  Ca1  1  0.25000000  0.75000000  0.50000000  1
  Ca  Ca2  1  0.75000000  0.25000000  0.50000000  1
  Mg  Mg0  1  -0.00000000  0.00000000  0.00000000  1
loop_
_geom_bond_atom_site_label_1
_geom_bond_atom_site_label_2
_geom_bond_distance
_geom_bond_site_symmetry_2
Ca0 Mg0 3.735847 1_666
Ca0 Mg0 3.735847 1_554
Ca0 Mg0 3.735847 1_565
Ca0 Mg0 3.735847 1_655
Ca0 Ca2 3.740290 1_554
Ca0 Ca2 3.740290 1_454
Ca0 Ca1 3.740290 1_555
Ca0 Ca2 3.740290 1_555
Ca0 Ca1 3.740290 1_554
Ca0 Ca1 3.740290 1_655
Ca0 Ca1 3.740290 1_544
Ca0 Ca2 3.740290 1_565
Ca1 Ca2 3.735847 1_555
Ca1 Ca2 3.735847 1_454
Ca1 Ca2 3.735847 1_566
Ca1 Ca2 3.735847 1_465
Ca1 Mg0 3.740290 1_555
Ca1 Mg0 3.740290 1_666
Ca1 Mg0 3.740290 1_566
Ca1 Mg0 3.740290 1_565
Ca2 Mg0 3.740290 1_555
Ca2 Mg0 3.740290 1_666
Ca2 Mg0 3.740290 1_655
Ca2 Mg0 3.740290 1_656
