# generated using pymatgen
data_Sr2Ca6Mn8O21
_symmetry_space_group_name_H-M   'P 1'
_cell_length_a   7.88973534
_cell_length_b   7.70962072
_cell_length_c   7.68442248
_cell_angle_alpha   90.07934917
_cell_angle_beta   87.76971103
_cell_angle_gamma   89.82048592
_symmetry_Int_Tables_number   1
_chemical_formula_structural   Sr2Ca6Mn8O21
_chemical_formula_sum   'Sr2 Ca6 Mn8 O21'
_cell_volume   467.06244349
_cell_formula_units_Z   1
loop_
 _symmetry_equiv_pos_site_id
 _symmetry_equiv_pos_as_xyz
  1  'x, y, z'
loop_
 _atom_site_type_symbol
 _atom_site_label
 _atom_site_symmetry_multiplicity
 _atom_site_fract_x
 _atom_site_fract_y
 _atom_site_fract_z
 _atom_site_occupancy
  Sr  Sr0  1  0.24131800  0.24163800  0.24096700  1
  Sr  Sr1  1  0.76449400  0.25602000  0.26958400  1
  Ca  Ca0  1  0.26348700  0.28093900  0.73074900  1
  Ca  Ca1  1  0.24201700  0.72927800  0.23909500  1
  Ca  Ca2  1  0.26469400  0.75257000  0.69250400  1
  Ca  Ca3  1  0.75071700  0.25836700  0.75416900  1
  Ca  Ca4  1  0.75486800  0.73460100  0.26438700  1
  Ca  Ca5  1  0.74447000  0.73084200  0.77286100  1
  Mn  Mn0  1  0.01892800  0.98869300  0.96822500  1
  Mn  Mn1  1  0.99459300  0.00079800  0.52564500  1
  Mn  Mn2  1  0.00167300  0.50286700  0.00265900  1
  Mn  Mn3  1  0.00507500  0.50688600  0.50204600  1
  Mn  Mn4  1  0.48708900  0.99120500  0.99613200  1
  Mn  Mn5  1  0.51056300  0.99974300  0.49113000  1
  Mn  Mn6  1  0.50073200  0.50028400  0.98721400  1
  Mn  Mn7  1  0.50594100  0.50585700  0.50715200  1
  O  O0  1  0.88447800  0.98981700  0.77263100  1
  O  O1  1  0.99383900  0.48816400  0.25322400  1
  O  O2  1  0.02605400  0.53336400  0.75372000  1
  O  O3  1  0.51232000  0.05667200  0.24081700  1
  O  O4  1  0.51357500  0.93864200  0.74412800  1
  O  O5  1  0.48080100  0.54937100  0.74719600  1
  O  O6  1  0.23470200  0.96505500  0.05554900  1
  O  O7  1  0.23850000  0.03331000  0.54751400  1
  O  O8  1  0.26247000  0.50949200  0.03349000  1
  O  O9  1  0.26423700  0.47128900  0.48032400  1
  O  O10  1  0.77521800  0.97559500  0.43158400  1
  O  O11  1  0.74233500  0.46863700  0.99784900  1
  O  O12  1  0.74943100  0.54038100  0.50458200  1
  O  O13  1  0.01054500  0.23527200  0.99788200  1
  O  O14  1  0.97045500  0.25596300  0.52197800  1
  O  O15  1  0.95539800  0.76047100  0.03526300  1
  O  O16  1  0.04768200  0.75691400  0.47704400  1
  O  O17  1  0.48468800  0.24410800  0.94666800  1
  O  O18  1  0.53937100  0.25795700  0.53160500  1
  O  O19  1  0.54238000  0.74492900  0.04660000  1
  O  O20  1  0.47086300  0.74401100  0.43583300  1
loop_
_geom_bond_atom_site_label_1
_geom_bond_atom_site_label_2
_geom_bond_distance
_geom_bond_site_symmetry_2
Ca0 O7 2.383855 1_555
Ca0 O9 2.421542 1_555
Ca0 O17 2.470420 1_555
Ca0 O18 2.616987 1_555
Ca0 O5 2.697573 1_555
Ca0 O2 2.697800 1_555
Ca0 O13 2.829832 1_555
Ca0 O14 2.871674 1_455
Ca0 O8 2.916179 1_556
Ca1 O6 2.304275 1_555
Ca1 O8 2.316149 1_555
Ca1 O16 2.349114 1_555
Ca1 O20 2.402439 1_555
Ca1 O1 2.703350 1_455
Ca1 O9 2.730639 1_555
Ca1 O19 2.747355 1_555
Ca1 O15 2.810381 1_455
Ca2 O5 2.361949 1_555
Ca2 O16 2.427832 1_555
Ca2 O7 2.447548 1_565
Ca2 O4 2.479463 1_555
Ca2 O20 2.507935 1_555
Ca2 O2 2.564280 1_555
Ca2 O9 2.711437 1_555
Ca3 O0 2.327934 1_545
Ca3 O18 2.434640 1_555
Ca3 O14 2.438951 1_555
Ca3 O11 2.473870 1_555
Ca3 O17 2.523067 1_555
Ca3 O13 2.835296 1_655
Ca3 O12 2.901505 1_555
Ca4 O10 2.267134 1_555
Ca4 O15 2.330035 1_555
Ca4 O12 2.377532 1_555
Ca4 O19 2.415707 1_555
Ca4 O20 2.555537 1_555
Ca4 O1 2.671410 1_555
Ca4 O16 2.886644 1_655
Ca4 O11 2.900817 1_554
Ca5 O0 2.284795 1_555
Ca5 O4 2.438839 1_555
Ca5 O5 2.524533 1_555
Ca5 O12 2.528383 1_555
Ca5 O19 2.591541 1_556
Ca5 O11 2.661481 1_555
Ca5 O15 2.673913 1_556
Ca5 O2 2.688483 1_655
Mn0 O6 1.862517 1_556
Mn0 O0 1.873094 1_455
Mn0 O15 1.897475 1_456
Mn0 O13 1.914959 1_565
Mn1 O10 1.911804 1_545
Mn1 O7 1.955074 1_655
Mn1 O16 1.957350 1_645
Mn1 O14 1.976173 1_555
Mn1 O0 2.058326 1_545
Mn2 O1 1.927538 1_455
Mn2 O2 1.929912 1_554
Mn2 O15 2.031585 1_455
Mn2 O13 2.064251 1_554
Mn2 O11 2.065626 1_454
Mn2 O8 2.081130 1_555
Mn3 O1 1.922797 1_455
Mn3 O2 1.957891 1_555
Mn3 O14 1.959927 1_455
Mn3 O16 1.966138 1_555
Mn3 O12 2.031962 1_455
Mn3 O9 2.062486 1_555
Mn4 O3 1.963898 1_566
Mn4 O4 1.980843 1_555
Mn4 O17 1.987180 1_565
Mn4 O19 1.988909 1_556
Mn4 O6 2.036238 1_556
Mn5 O3 1.973074 1_565
Mn5 O4 2.002055 1_555
Mn5 O18 2.029294 1_565
Mn5 O20 2.043960 1_555
Mn5 O10 2.127671 1_555
Mn5 O7 2.187695 1_565
Mn6 O5 1.895756 1_555
Mn6 O8 1.900605 1_556
Mn6 O11 1.925879 1_555
Mn6 O19 1.971508 1_556
Mn6 O17 2.004180 1_555
Mn7 O5 1.877186 1_555
Mn7 O18 1.938894 1_555
Mn7 O20 1.938952 1_555
Mn7 O12 1.939592 1_555
Mn7 O9 1.945182 1_555
O1 Sr1 2.548800 1_555
O1 Sr0 2.719485 1_655
O3 Sr1 2.534132 1_555
O3 Sr0 2.566290 1_555
O6 Sr0 2.564733 1_565
O7 Sr0 2.852332 1_555
O8 Sr0 2.612429 1_555
O9 Sr0 2.563088 1_555
O10 Sr1 2.499100 1_565
O11 Sr1 2.667190 1_556
O12 Sr1 2.837617 1_555
O13 Sr0 2.659289 1_556
O13 Sr1 2.799111 1_456
O14 Sr1 2.578278 1_555
O14 Sr0 2.980076 1_655
O17 Sr0 2.909308 1_556
O18 Sr1 2.632579 1_555
