# generated using pymatgen
data_Ca8H3N4
_symmetry_space_group_name_H-M   'P 1'
_cell_length_a   7.18130900
_cell_length_b   7.18303560
_cell_length_c   29.63560255
_cell_angle_alpha   96.91735676
_cell_angle_beta   90.04104680
_cell_angle_gamma   119.94335489
_symmetry_Int_Tables_number   1
_chemical_formula_structural   Ca8H3N4
_chemical_formula_sum   'Ca40 H15 N20'
_cell_volume   1311.72299621
_cell_formula_units_Z   5
loop_
 _symmetry_equiv_pos_site_id
 _symmetry_equiv_pos_as_xyz
  1  'x, y, z'
loop_
 _atom_site_type_symbol
 _atom_site_label
 _atom_site_symmetry_multiplicity
 _atom_site_fract_x
 _atom_site_fract_y
 _atom_site_fract_z
 _atom_site_occupancy
  Ca  Ca0  1  0.31224900  0.63035300  0.05311600  1
  Ca  Ca1  1  0.40754200  0.45131900  0.14245800  1
  Ca  Ca2  1  0.76757600  0.63413300  0.05197400  1
  Ca  Ca3  1  0.31218800  0.18222600  0.05276700  1
  Ca  Ca4  1  0.51389900  0.23364100  0.25232500  1
  Ca  Ca5  1  0.88260100  0.41778800  0.14724900  1
  Ca  Ca6  1  0.79860200  0.14870800  0.05755300  1
  Ca  Ca7  1  0.43509000  0.96972600  0.14689600  1
  Ca  Ca8  1  0.60617900  0.05133600  0.34246400  1
  Ca  Ca9  1  0.96508300  0.23080500  0.25276300  1
  Ca  Ca10  1  0.88538300  0.96573100  0.14803600  1
  Ca  Ca11  1  0.51640300  0.78223200  0.25276300  1
  Ca  Ca12  1  0.71392700  0.83372900  0.45232600  1
  Ca  Ca13  1  0.08352000  0.01778100  0.34725600  1
  Ca  Ca14  1  0.99385900  0.74868700  0.25755000  1
  Ca  Ca15  1  0.63494300  0.56922200  0.34725800  1
  Ca  Ca16  1  0.16505400  0.83077400  0.45274900  1
  Ca  Ca17  1  0.80618200  0.65133700  0.54245800  1
  Ca  Ca18  1  0.08606700  0.56627100  0.34768300  1
  Ca  Ca19  1  0.71647400  0.38221100  0.45275300  1
  Ca  Ca20  1  0.91393300  0.43372900  0.65231700  1
  Ca  Ca21  1  0.28352600  0.61778900  0.54724700  1
  Ca  Ca22  1  0.83494600  0.16922600  0.54725100  1
  Ca  Ca23  1  0.19381800  0.34866300  0.45754200  1
  Ca  Ca24  1  0.00614100  0.25131300  0.74245000  1
  Ca  Ca25  1  0.36505700  0.43077800  0.65274200  1
  Ca  Ca26  1  0.28607300  0.16627100  0.54767400  1
  Ca  Ca27  1  0.91648000  0.98221900  0.65274400  1
  Ca  Ca28  1  0.11461700  0.03426900  0.85196400  1
  Ca  Ca29  1  0.48359700  0.21776800  0.74723700  1
  Ca  Ca30  1  0.39382100  0.94866400  0.65753600  1
  Ca  Ca31  1  0.03491700  0.76919500  0.74723700  1
  Ca  Ca32  1  0.20139800  0.85129200  0.94244700  1
  Ca  Ca33  1  0.56490900  0.03027400  0.85310400  1
  Ca  Ca34  1  0.48610100  0.76635900  0.74767500  1
  Ca  Ca35  1  0.11739900  0.58221200  0.85275100  1
  Ca  Ca36  1  0.68781200  0.81777400  0.94723300  1
  Ca  Ca37  1  0.59245800  0.54868100  0.85754200  1
  Ca  Ca38  1  0.23242400  0.36586700  0.94802600  1
  Ca  Ca39  1  0.68775100  0.36964700  0.94688400  1
  H  H0  1  0.00000000  0.00000000  0.00000000  1
  H  H1  1  0.00000000  0.50000000  0.00000000  1
  H  H2  1  0.19991500  0.10001900  0.20000000  1
  H  H3  1  0.40000500  0.70000600  0.39999600  1
  H  H4  1  0.70000300  0.60004600  0.20000100  1
  H  H5  1  0.09914800  0.80000700  0.09999400  1
  H  H6  1  0.30000800  0.40000800  0.29999100  1
  H  H7  1  0.59999500  0.29999400  0.60000400  1
  H  H8  1  0.89999800  0.19999900  0.39999600  1
  H  H9  1  0.90085200  0.19999300  0.90000600  1
  H  H10  1  0.80008500  0.89998100  0.80000000  1
  H  H11  1  0.69999200  0.59999200  0.70000900  1
  H  H12  1  0.10000200  0.80000100  0.60000400  1
  H  H13  1  0.50000000  0.00000000  0.50000000  1
  H  H14  1  0.29999700  0.39995400  0.79999900  1
  N  N0  1  0.50000000  0.50000000  0.00000000  1
  N  N1  1  0.09986900  0.29976700  0.10014300  1
  N  N2  1  0.60024100  0.30023100  0.09984200  1
  N  N3  1  0.80000700  0.40001000  0.29998800  1
  N  N4  1  0.70015100  0.10000800  0.19999300  1
  N  N5  1  0.30001800  0.90000200  0.29999000  1
  N  N6  1  0.80000000  0.89999700  0.29999100  1
  N  N7  1  0.60031600  0.80001200  0.09999000  1
  N  N8  1  0.00000000  0.00000000  0.50000000  1
  N  N9  1  0.90000500  0.70000100  0.39999300  1
  N  N10  1  0.50000000  0.50000000  0.50000000  1
  N  N11  1  0.00000000  0.50000000  0.50000000  1
  N  N12  1  0.19999300  0.59999000  0.70001200  1
  N  N13  1  0.69998200  0.09999800  0.70001000  1
  N  N14  1  0.09999500  0.29999900  0.60000700  1
  N  N15  1  0.20000000  0.10000300  0.70000900  1
  N  N16  1  0.29984900  0.89999200  0.80000700  1
  N  N17  1  0.90013100  0.70023300  0.89985700  1
  N  N18  1  0.39975900  0.69976900  0.90015800  1
  N  N19  1  0.39968400  0.19998800  0.90001000  1
loop_
_geom_bond_atom_site_label_1
_geom_bond_atom_site_label_2
_geom_bond_distance
_geom_bond_site_symmetry_2
Ca0 N7 2.183057 1_555
Ca0 H1 2.434476 1_555
Ca0 N0 2.465927 1_555
Ca0 N1 2.663075 1_555
Ca0 H5 2.685894 1_555
Ca1 N1 2.214853 1_555
Ca1 H4 2.403462 1_555
Ca1 N2 2.420631 1_555
Ca1 N7 2.659738 1_555
Ca2 N0 2.187051 1_555
Ca2 H5 2.422622 1_655
Ca2 N7 2.431073 1_555
Ca2 N2 2.674642 1_555
Ca2 H1 2.708931 1_655
Ca3 N2 2.214607 1_555
Ca3 H0 2.399449 1_555
Ca3 N1 2.451848 1_555
Ca3 N0 2.695213 1_555
Ca4 N3 2.186989 1_555
Ca4 H2 2.426116 1_555
Ca4 N4 2.457990 1_555
Ca4 H6 2.685481 1_555
Ca4 N5 2.691062 1_545
Ca5 N2 2.190744 1_555
Ca5 N1 2.477999 1_655
Ca5 H4 2.664795 1_555
Ca5 N4 2.692042 1_555
Ca6 N1 2.184914 1_655
Ca6 N2 2.450753 1_555
Ca6 N7 2.661519 1_545
Ca6 H0 2.692370 1_655
Ca7 N4 2.199510 1_565
Ca7 N7 2.421671 1_555
Ca7 H5 2.426804 1_555
Ca7 N2 2.641247 1_565
Ca7 H2 2.726141 1_565
Ca8 N5 2.209214 1_545
Ca8 H8 2.409650 1_555
Ca8 N6 2.426283 1_545
Ca8 N3 2.660172 1_555
Ca9 N4 2.192148 1_555
Ca9 N3 2.423271 1_555
Ca9 H6 2.426582 1_655
Ca9 N6 2.646138 1_545
Ca9 H2 2.720853 1_655
Ca10 N7 2.188628 1_555
Ca10 H2 2.422005 1_665
Ca10 N4 2.448810 1_565
Ca10 H5 2.686979 1_655
Ca10 N1 2.697798 1_665
Ca11 N6 2.193892 1_555
Ca11 N5 2.473744 1_555
Ca11 H4 2.669919 1_555
Ca11 N4 2.693161 1_565
Ca12 N8 2.187011 1_665
Ca12 H3 2.425773 1_555
Ca12 N9 2.457484 1_555
Ca12 H13 2.685338 1_565
Ca12 N10 2.691705 1_555
Ca13 N6 2.194112 1_445
Ca13 N5 2.475037 1_545
Ca13 H8 2.669315 1_455
Ca13 N9 2.692400 1_445
Ca14 N5 2.208699 1_655
Ca14 H4 2.410166 1_555
Ca14 N6 2.425920 1_555
Ca14 N3 2.659536 1_555
Ca15 N9 2.192084 1_555
Ca15 N3 2.423931 1_555
Ca15 H6 2.427226 1_555
Ca15 N6 2.646699 1_555
Ca15 H3 2.721053 1_555
Ca16 N9 2.192438 1_455
Ca16 N8 2.423655 1_565
Ca16 H13 2.427035 1_565
Ca16 N11 2.646392 1_555
Ca16 H3 2.721296 1_555
Ca17 N10 2.209083 1_555
Ca17 H12 2.409925 1_655
Ca17 N11 2.426050 1_655
Ca17 N8 2.659797 1_665
Ca18 N3 2.187310 1_455
Ca18 H3 2.425547 1_555
Ca18 N9 2.457009 1_455
Ca18 H6 2.685632 1_555
Ca18 N5 2.692093 1_555
Ca19 N11 2.193823 1_655
Ca19 N10 2.474646 1_555
Ca19 H8 2.669562 1_555
Ca19 N9 2.692922 1_555
Ca20 N12 2.187310 1_655
Ca20 H7 2.425547 1_555
Ca20 N14 2.457009 1_655
Ca20 H11 2.685632 1_555
Ca20 N13 2.692093 1_555
Ca21 N11 2.193823 1_555
Ca21 N10 2.474646 1_555
Ca21 H12 2.669562 1_555
Ca21 N14 2.692922 1_555
Ca22 N14 2.192438 1_655
Ca22 N8 2.423655 1_655
Ca22 H13 2.427035 1_555
Ca22 N11 2.646392 1_655
Ca22 H7 2.721296 1_555
Ca23 N10 2.209083 1_555
Ca23 H8 2.409925 1_455
Ca23 N11 2.426050 1_555
Ca23 N8 2.659797 1_555
Ca24 N13 2.208699 1_455
Ca24 H14 2.410166 1_555
Ca24 N15 2.425920 1_555
Ca24 N12 2.659536 1_555
Ca25 N14 2.192084 1_555
Ca25 N12 2.423931 1_555
Ca25 H11 2.427226 1_555
Ca25 N15 2.646699 1_555
Ca25 H7 2.721053 1_555
Ca26 N8 2.187011 1_555
Ca26 H7 2.425773 1_555
Ca26 N14 2.457484 1_555
Ca26 H13 2.685338 1_555
Ca26 N10 2.691705 1_555
Ca27 N15 2.194112 1_665
Ca27 N13 2.475037 1_565
Ca27 H12 2.669315 1_655
Ca27 N14 2.692400 1_665
Ca28 N19 2.188628 1_555
Ca28 H10 2.422005 1_445
Ca28 N16 2.448810 1_545
Ca28 H9 2.686979 1_455
Ca28 N17 2.697798 1_445
Ca29 N15 2.193892 1_555
Ca29 N13 2.473744 1_555
Ca29 H14 2.669919 1_555
Ca29 N16 2.693161 1_545
Ca30 N13 2.209214 1_565
Ca30 H12 2.409650 1_555
Ca30 N15 2.426283 1_565
Ca30 N12 2.660172 1_555
Ca31 N16 2.192148 1_555
Ca31 N12 2.423271 1_555
Ca31 H11 2.426582 1_455
Ca31 N15 2.646138 1_565
Ca31 H10 2.720853 1_455
Ca32 N17 2.184914 1_455
Ca32 N18 2.450753 1_555
Ca32 N19 2.661519 1_565
Ca32 H0 2.692370 1_566
Ca33 N16 2.199505 1_545
Ca33 N19 2.421666 1_555
Ca33 H9 2.426809 1_555
Ca33 N18 2.641247 1_545
Ca33 H10 2.726147 1_545
Ca34 N12 2.186989 1_555
Ca34 H10 2.426116 1_555
Ca34 N16 2.457990 1_555
Ca34 H11 2.685481 1_555
Ca34 N13 2.691062 1_565
Ca35 N18 2.190744 1_555
Ca35 N17 2.477999 1_455
Ca35 H14 2.664795 1_555
Ca35 N16 2.692042 1_555
Ca36 N18 2.214607 1_555
Ca36 H0 2.399449 1_666
Ca36 N17 2.451848 1_555
Ca36 N0 2.695213 1_556
Ca37 N17 2.214853 1_555
Ca37 H14 2.403462 1_555
Ca37 N18 2.420631 1_555
Ca37 N19 2.659738 1_555
Ca38 N0 2.187051 1_556
Ca38 H9 2.422622 1_455
Ca38 N19 2.431073 1_555
Ca38 N18 2.674642 1_555
Ca38 H1 2.708931 1_556
Ca39 N19 2.183057 1_555
Ca39 H1 2.434476 1_656
Ca39 N0 2.465927 1_556
Ca39 N17 2.663075 1_555
Ca39 H9 2.685894 1_555
