# generated using pymatgen
data_Pr3Mg
_symmetry_space_group_name_H-M   'P 1'
_cell_length_a   6.25484792
_cell_length_b   6.25484792
_cell_length_c   6.25484792
_cell_angle_alpha   132.58658931
_cell_angle_beta   132.58658931
_cell_angle_gamma   69.30413580
_symmetry_Int_Tables_number   1
_chemical_formula_structural   Pr3Mg
_chemical_formula_sum   'Pr3 Mg1'
_cell_volume   130.16083063
_cell_formula_units_Z   1
loop_
 _symmetry_equiv_pos_site_id
 _symmetry_equiv_pos_as_xyz
  1  'x, y, z'
loop_
 _atom_site_type_symbol
 _atom_site_label
 _atom_site_symmetry_multiplicity
 _atom_site_fract_x
 _atom_site_fract_y
 _atom_site_fract_z
 _atom_site_occupancy
  Pr  Pr0  1  0.50000000  0.50000000  -0.00000000  1
  Pr  Pr1  1  0.75000000  0.25000000  0.50000000  1
  Pr  Pr2  1  0.25000000  0.75000000  0.50000000  1
  Mg  Mg0  1  -0.00000000  0.00000000  -0.00000000  1
loop_
_geom_bond_atom_site_label_1
_geom_bond_atom_site_label_2
_geom_bond_distance
_geom_bond_site_symmetry_2
Pr0 Pr2 3.597620 1_555
Pr0 Pr1 3.597620 1_565
Pr0 Pr2 3.597620 1_554
Pr0 Pr1 3.597620 1_555
Pr0 Pr1 3.597620 1_554
Pr0 Pr2 3.597620 1_544
Pr0 Pr2 3.597620 1_655
Pr0 Pr1 3.597620 1_454
Pr1 Pr2 3.556454 1_645
Pr1 Pr2 3.556454 1_656
Pr1 Pr2 3.556454 1_555
Pr1 Pr2 3.556454 1_544
Mg0 Pr0 3.556454 1_455
Mg0 Pr0 3.556454 1_545
Mg0 Pr0 3.556454 1_556
Mg0 Pr0 3.556454 1_444
Mg0 Pr2 3.597620 1_555
Mg0 Pr1 3.597620 1_444
Mg0 Pr1 3.597620 1_454
Mg0 Pr2 3.597620 1_545
Mg0 Pr2 3.597620 1_544
Mg0 Pr1 3.597620 1_455
Mg0 Pr2 3.597620 1_444
Mg0 Pr1 3.597620 1_555
