# generated using pymatgen
data_Ba2CrBiO6
_symmetry_space_group_name_H-M   'P 1'
_cell_length_a   8.40829932
_cell_length_b   8.40829932
_cell_length_c   8.40829932
_cell_angle_alpha   90.00000000
_cell_angle_beta   90.00000000
_cell_angle_gamma   90.00000000
_symmetry_Int_Tables_number   1
_chemical_formula_structural   Ba2CrBiO6
_chemical_formula_sum   'Ba8 Cr4 Bi4 O24'
_cell_volume   594.46253637
_cell_formula_units_Z   4
loop_
 _symmetry_equiv_pos_site_id
 _symmetry_equiv_pos_as_xyz
  1  'x, y, z'
loop_
 _atom_site_type_symbol
 _atom_site_label
 _atom_site_symmetry_multiplicity
 _atom_site_fract_x
 _atom_site_fract_y
 _atom_site_fract_z
 _atom_site_occupancy
  Ba  Ba0  1  0.50000000  0.50000000  0.50000000  1
  Ba  Ba1  1  0.00000000  -0.00000000  0.00000000  1
  Ba  Ba2  1  0.00000000  -0.00000000  0.50000000  1
  Ba  Ba3  1  0.00000000  0.50000000  0.00000000  1
  Ba  Ba4  1  0.50000000  -0.00000000  0.00000000  1
  Ba  Ba5  1  0.50000000  0.50000000  0.00000000  1
  Ba  Ba6  1  0.50000000  -0.00000000  0.50000000  1
  Ba  Ba7  1  0.00000000  0.50000000  0.50000000  1
  Cr  Cr0  1  0.25000000  0.25000000  0.25000000  1
  Cr  Cr1  1  0.25000000  0.75000000  0.75000000  1
  Cr  Cr2  1  0.75000000  0.25000000  0.75000000  1
  Cr  Cr3  1  0.75000000  0.75000000  0.25000000  1
  Bi  Bi0  1  0.75000000  0.75000000  0.75000000  1
  Bi  Bi1  1  0.75000000  0.25000000  0.25000000  1
  Bi  Bi2  1  0.25000000  0.75000000  0.25000000  1
  Bi  Bi3  1  0.25000000  0.25000000  0.75000000  1
  O  O0  1  0.24157780  0.26043377  0.48557268  1
  O  O1  1  0.24157780  0.73956623  0.51442732  1
  O  O2  1  0.75842220  0.26043377  0.51442732  1
  O  O3  1  0.75842220  0.73956623  0.48557268  1
  O  O4  1  0.26043377  0.48557268  0.24157780  1
  O  O5  1  0.73956623  0.51442732  0.24157780  1
  O  O6  1  0.26043377  0.51442732  0.75842220  1
  O  O7  1  0.73956623  0.48557268  0.75842220  1
  O  O8  1  0.48557268  0.24157780  0.26043377  1
  O  O9  1  0.51442732  0.24157780  0.73956623  1
  O  O10  1  0.51442732  0.75842220  0.26043377  1
  O  O11  1  0.48557268  0.75842220  0.73956623  1
  O  O12  1  0.25842220  0.23956623  0.01442732  1
  O  O13  1  0.25842220  0.76043377  0.98557268  1
  O  O14  1  0.74157780  0.23956623  0.98557268  1
  O  O15  1  0.74157780  0.76043377  0.01442732  1
  O  O16  1  0.23956623  0.01442732  0.25842220  1
  O  O17  1  0.76043377  0.98557268  0.25842220  1
  O  O18  1  0.23956623  0.98557268  0.74157780  1
  O  O19  1  0.76043377  0.01442732  0.74157780  1
  O  O20  1  0.01442732  0.25842220  0.23956623  1
  O  O21  1  0.98557268  0.25842220  0.76043377  1
  O  O22  1  0.98557268  0.74157780  0.23956623  1
  O  O23  1  0.01442732  0.74157780  0.76043377  1
loop_
_geom_bond_atom_site_label_1
_geom_bond_atom_site_label_2
_geom_bond_distance
_geom_bond_site_symmetry_2
Ba0 O6 2.965427 1_555
Ba0 O7 2.965427 1_555
Ba0 O10 2.965427 1_555
Ba0 O2 2.965427 1_555
Ba0 O3 2.965427 1_555
Ba0 O11 2.965427 1_555
Ba0 O4 2.965427 1_555
Ba0 O1 2.965427 1_555
Ba0 O5 2.965427 1_555
Ba0 O8 2.965427 1_555
Ba0 O0 2.965427 1_555
Ba0 O9 2.965427 1_555
Ba1 O17 2.965427 1_445
Ba1 O16 2.965427 1_555
Ba1 O20 2.965427 1_555
Ba1 O13 2.965427 1_544
Ba1 O19 2.965427 1_454
Ba1 O21 2.965427 1_454
Ba1 O18 2.965427 1_544
Ba1 O12 2.965427 1_555
Ba1 O23 2.965427 1_544
Ba1 O15 2.965427 1_445
Ba1 O22 2.965427 1_445
Ba1 O14 2.965427 1_454
Ba2 O18 2.863269 1_545
Ba2 O19 2.863269 1_455
Ba2 O17 2.863269 1_445
Ba2 O16 2.863269 1_555
Ba2 O1 2.989310 1_545
Ba2 O0 2.989310 1_555
Ba2 O3 2.989310 1_445
Ba2 O2 2.989310 1_455
Ba2 O21 3.087300 1_455
Ba2 O22 3.087300 1_445
Ba2 O20 3.087300 1_555
Ba2 O23 3.087300 1_545
Ba3 O22 2.863269 1_455
Ba3 O23 2.863269 1_554
Ba3 O21 2.863269 1_454
Ba3 O20 2.863269 1_555
Ba3 O4 2.989310 1_555
Ba3 O5 2.989310 1_455
Ba3 O7 2.989310 1_454
Ba3 O6 2.989310 1_554
Ba3 O13 3.087300 1_554
Ba3 O12 3.087300 1_555
Ba3 O15 3.087300 1_455
Ba3 O14 3.087300 1_454
Ba4 O14 2.863269 1_554
Ba4 O15 2.863269 1_545
Ba4 O13 2.863269 1_544
Ba4 O12 2.863269 1_555
Ba4 O8 2.989310 1_555
Ba4 O9 2.989310 1_554
Ba4 O11 2.989310 1_544
Ba4 O10 2.989310 1_545
Ba4 O17 3.087300 1_545
Ba4 O16 3.087300 1_555
Ba4 O18 3.087300 1_544
Ba4 O19 3.087300 1_554
Ba5 O4 2.863269 1_555
Ba5 O5 2.863269 1_555
Ba5 O7 2.863269 1_554
Ba5 O6 2.863269 1_554
Ba5 O15 2.989310 1_555
Ba5 O14 2.989310 1_554
Ba5 O12 2.989310 1_555
Ba5 O13 2.989310 1_554
Ba5 O11 3.087300 1_554
Ba5 O10 3.087300 1_555
Ba5 O9 3.087300 1_554
Ba5 O8 3.087300 1_555
Ba6 O9 2.863269 1_555
Ba6 O8 2.863269 1_555
Ba6 O10 2.863269 1_545
Ba6 O11 2.863269 1_545
Ba6 O19 2.989310 1_555
Ba6 O18 2.989310 1_545
Ba6 O17 2.989310 1_545
Ba6 O16 2.989310 1_555
Ba6 O3 3.087300 1_545
Ba6 O2 3.087300 1_555
Ba6 O1 3.087300 1_545
Ba6 O0 3.087300 1_555
Ba7 O1 2.863269 1_555
Ba7 O0 2.863269 1_555
Ba7 O2 2.863269 1_455
Ba7 O3 2.863269 1_455
Ba7 O22 2.989310 1_455
Ba7 O23 2.989310 1_555
Ba7 O20 2.989310 1_555
Ba7 O21 2.989310 1_455
Ba7 O6 3.087300 1_555
Ba7 O7 3.087300 1_455
Ba7 O4 3.087300 1_555
Ba7 O5 3.087300 1_455
Cr0 O12 1.983972 1_555
Cr0 O16 1.983972 1_555
Cr0 O20 1.983972 1_555
Cr0 O0 1.983972 1_555
Cr0 O4 1.983972 1_555
Cr0 O8 1.983972 1_555
Cr1 O6 1.983972 1_555
Cr1 O18 1.983972 1_555
Cr1 O13 1.983972 1_555
Cr1 O11 1.983972 1_555
Cr1 O23 1.983972 1_555
Cr1 O1 1.983972 1_555
Cr2 O2 1.983972 1_555
Cr2 O21 1.983972 1_555
Cr2 O14 1.983972 1_555
Cr2 O7 1.983972 1_555
Cr2 O19 1.983972 1_555
Cr2 O9 1.983972 1_555
Cr3 O10 1.983972 1_555
Cr3 O17 1.983972 1_555
Cr3 O22 1.983972 1_555
Cr3 O5 1.983972 1_555
Cr3 O15 1.983972 1_555
Cr3 O3 1.983972 1_555
Bi0 O11 2.226241 1_555
Bi0 O7 2.226241 1_555
Bi0 O3 2.226241 1_555
Bi0 O15 2.226241 1_556
Bi0 O19 2.226241 1_565
Bi0 O23 2.226241 1_655
Bi1 O8 2.226241 1_555
Bi1 O20 2.226241 1_655
Bi1 O17 2.226241 1_545
Bi1 O2 2.226241 1_555
Bi1 O14 2.226241 1_554
Bi1 O5 2.226241 1_555
Bi2 O4 2.226241 1_555
Bi2 O22 2.226241 1_455
Bi2 O13 2.226241 1_554
Bi2 O10 2.226241 1_555
Bi2 O1 2.226241 1_555
Bi2 O16 2.226241 1_565
Bi3 O21 2.226241 1_455
Bi3 O12 2.226241 1_556
Bi3 O6 2.226241 1_555
Bi3 O0 2.226241 1_555
Bi3 O18 2.226241 1_545
Bi3 O9 2.226241 1_555
