# generated using pymatgen
data_Co
_symmetry_space_group_name_H-M   'P 1'
_cell_length_a   4.51614872
_cell_length_b   8.31756739
_cell_length_c   8.31757222
_cell_angle_alpha   89.99444503
_cell_angle_beta   89.99997977
_cell_angle_gamma   90.00000000
_symmetry_Int_Tables_number   1
_chemical_formula_structural   Co
_chemical_formula_sum   Co28
_cell_volume   312.43605231
_cell_formula_units_Z   28
loop_
 _symmetry_equiv_pos_site_id
 _symmetry_equiv_pos_as_xyz
  1  'x, y, z'
loop_
 _atom_site_type_symbol
 _atom_site_label
 _atom_site_symmetry_multiplicity
 _atom_site_fract_x
 _atom_site_fract_y
 _atom_site_fract_z
 _atom_site_occupancy
  Co  Co0  1  0.50000000  0.09479365  0.90520960  1
  Co  Co1  1  0.50000000  0.90520635  0.09479040  1
  Co  Co2  1  -0.00000000  0.40523566  0.40524501  1
  Co  Co3  1  0.00000000  0.59476434  0.59475499  1
  Co  Co4  1  0.50000000  0.36248548  0.97320359  1
  Co  Co5  1  0.50000000  0.63751452  0.02679641  1
  Co  Co6  1  -0.00000000  0.13751170  0.47315153  1
  Co  Co7  1  0.00000000  0.86248830  0.52684847  1
  Co  Co8  1  0.50000000  0.97316595  0.36246584  1
  Co  Co9  1  0.50000000  0.02683405  0.63753416  1
  Co  Co10  1  -0.00000000  0.47317267  0.13750485  1
  Co  Co11  1  0.00000000  0.52682733  0.86249515  1
  Co  Co12  1  0.50000000  0.44652618  0.25291486  1
  Co  Co13  1  0.50000000  0.55347382  0.74708514  1
  Co  Co14  1  0.00000000  0.05360329  0.75280983  1
  Co  Co15  1  -0.00000000  0.94639671  0.24719017  1
  Co  Co16  1  0.50000000  0.25290046  0.44648104  1
  Co  Co17  1  0.50000000  0.74709954  0.55351896  1
  Co  Co18  1  -0.00000000  0.75281853  0.05357264  1
  Co  Co19  1  0.00000000  0.24718147  0.94642736  1
  Co  Co20  1  0.24916019  0.31289085  0.68710070  1
  Co  Co21  1  0.24916019  0.68711015  0.31289930  1
  Co  Co22  1  0.74928010  0.18719048  0.18720683  1
  Co  Co23  1  0.74928010  0.81280952  0.81279317  1
  Co  Co24  1  0.75083981  0.68710915  0.31289930  1
  Co  Co25  1  0.75083981  0.31288985  0.68710070  1
  Co  Co26  1  0.25071990  0.81280952  0.81279317  1
  Co  Co27  1  0.25071990  0.18719048  0.18720683  1
loop_
_geom_bond_atom_site_label_1
_geom_bond_atom_site_label_2
_geom_bond_distance
_geom_bond_site_symmetry_2
Co0 Co1 2.229935 1_546
Co0 Co9 2.297099 1_555
Co0 Co4 2.297300 1_555
Co0 Co19 2.612099 1_555
Co0 Co19 2.612100 1_655
Co0 Co14 2.612118 1_655
Co0 Co14 2.612119 1_555
Co0 Co23 2.712861 1_545
Co0 Co26 2.712862 1_545
Co0 Co27 2.712910 1_556
Co0 Co22 2.712911 1_556
Co0 Co25 2.804364 1_555
Co0 Co20 2.804370 1_555
Co1 Co8 2.297099 1_555
Co1 Co5 2.297300 1_555
Co1 Co18 2.612099 1_655
Co1 Co18 2.612100 1_555
Co1 Co15 2.612118 1_555
Co1 Co15 2.612119 1_655
Co1 Co27 2.712861 1_565
Co1 Co22 2.712862 1_565
Co1 Co23 2.712910 1_554
Co1 Co26 2.712911 1_554
Co1 Co21 2.804364 1_555
Co1 Co24 2.804370 1_555
Co2 Co3 2.229390 1_555
Co2 Co6 2.297274 1_555
Co2 Co20 2.711417 1_555
Co2 Co25 2.711419 1_455
Co2 Co24 2.711546 1_455
Co2 Co21 2.711553 1_555
Co2 Co27 2.803718 1_555
Co2 Co22 2.803719 1_455
Co3 Co7 2.297274 1_555
Co4 Co5 2.330642 1_556
Co6 Co7 2.330676 1_545
Co6 Co8 2.795583 1_545
Co6 Co8 2.795584 1_445
Co6 Co9 2.795624 1_455
Co6 Co9 2.795625 1_555
Co7 Co9 2.795583 1_465
Co7 Co9 2.795584 1_565
Co7 Co8 2.795624 1_555
Co7 Co8 2.795625 1_455
Co8 Co9 2.331083 1_565
Co10 Co2 2.297468 1_555
Co10 Co11 2.330498 1_554
Co10 Co18 2.428415 1_555
Co10 Co19 2.461649 1_554
Co10 Co12 2.463625 1_455
Co10 Co12 2.463625 1_555
Co10 Co24 2.561506 1_455
Co10 Co21 2.561512 1_555
Co10 Co22 2.666624 1_455
Co10 Co27 2.666624 1_555
Co10 Co4 2.795406 1_554
Co10 Co4 2.795407 1_454
Co10 Co5 2.795542 1_555
Co10 Co5 2.795543 1_455
Co11 Co3 2.297468 1_555
Co11 Co19 2.428415 1_555
Co11 Co18 2.461649 1_556
Co11 Co13 2.463625 1_555
Co11 Co13 2.463625 1_455
Co11 Co20 2.561506 1_555
Co11 Co25 2.561512 1_455
Co11 Co26 2.666624 1_555
Co11 Co23 2.666624 1_455
Co11 Co5 2.795406 1_456
Co11 Co5 2.795407 1_556
Co11 Co4 2.795542 1_455
Co11 Co4 2.795543 1_555
Co12 Co16 2.277124 1_555
Co12 Co24 2.353016 1_555
Co12 Co21 2.353023 1_555
Co12 Co4 2.429326 1_554
Co12 Co5 2.461744 1_555
Co12 Co22 2.493822 1_555
Co12 Co27 2.493822 1_555
Co12 Co2 2.611914 1_555
Co12 Co2 2.611915 1_655
Co13 Co17 2.277124 1_555
Co13 Co20 2.353016 1_555
Co13 Co25 2.353023 1_555
Co13 Co5 2.429326 1_556
Co13 Co4 2.461744 1_555
Co13 Co26 2.493822 1_555
Co13 Co23 2.493822 1_555
Co13 Co3 2.611914 1_655
Co13 Co3 2.611915 1_555
Co14 Co19 2.277367 1_555
Co14 Co23 2.354163 1_445
Co14 Co26 2.354163 1_545
Co14 Co6 2.428458 1_555
Co14 Co7 2.461661 1_545
Co14 Co9 2.463298 1_555
Co14 Co9 2.463299 1_455
Co14 Co25 2.493135 1_455
Co14 Co20 2.493142 1_555
Co15 Co18 2.277367 1_555
Co15 Co27 2.354163 1_565
Co15 Co22 2.354163 1_465
Co15 Co7 2.428458 1_555
Co15 Co6 2.461661 1_565
Co15 Co8 2.463298 1_455
Co15 Co8 2.463299 1_555
Co15 Co21 2.493135 1_555
Co15 Co24 2.493142 1_455
Co16 Co25 2.353286 1_555
Co16 Co20 2.353287 1_555
Co16 Co8 2.429449 1_545
Co16 Co9 2.461761 1_555
Co16 Co6 2.463574 1_555
Co16 Co6 2.463574 1_655
Co16 Co22 2.493384 1_555
Co16 Co27 2.493385 1_555
Co16 Co2 2.611875 1_655
Co16 Co2 2.611875 1_555
Co17 Co21 2.353286 1_555
Co17 Co24 2.353287 1_555
Co17 Co9 2.429449 1_565
Co17 Co8 2.461761 1_555
Co17 Co7 2.463574 1_655
Co17 Co7 2.463574 1_555
Co17 Co26 2.493384 1_555
Co17 Co23 2.493385 1_555
Co17 Co3 2.611875 1_555
Co17 Co3 2.611875 1_655
Co18 Co26 2.354076 1_554
Co18 Co23 2.354076 1_454
Co18 Co5 2.463395 1_555
Co18 Co5 2.463396 1_455
Co18 Co21 2.493423 1_555
Co18 Co24 2.493424 1_455
Co19 Co22 2.354076 1_456
Co19 Co27 2.354076 1_556
Co19 Co4 2.463395 1_455
Co19 Co4 2.463396 1_555
Co19 Co25 2.493423 1_455
Co19 Co20 2.493424 1_555
Co20 Co25 2.250489 1_455
Co20 Co25 2.265660 1_555
Co20 Co6 2.561508 1_555
Co20 Co9 2.667305 1_555
Co20 Co4 2.667685 1_555
Co20 Co3 2.711546 1_555
Co21 Co24 2.250489 1_455
Co21 Co24 2.265660 1_555
Co21 Co7 2.561502 1_555
Co21 Co8 2.667298 1_555
Co21 Co5 2.667685 1_555
Co21 Co3 2.711419 1_555
Co22 Co27 2.251572 1_555
Co22 Co27 2.264577 1_655
Co22 Co8 2.561415 1_545
Co22 Co4 2.561463 1_554
Co22 Co6 2.666318 1_655
Co23 Co26 2.251572 1_555
Co23 Co26 2.264577 1_655
Co23 Co9 2.561415 1_565
Co23 Co5 2.561463 1_556
Co23 Co7 2.666317 1_655
Co23 Co3 2.803718 1_655
Co24 Co7 2.561508 1_655
Co24 Co8 2.667305 1_555
Co24 Co5 2.667685 1_555
Co24 Co3 2.711417 1_655
Co25 Co6 2.561502 1_655
Co25 Co9 2.667298 1_555
Co25 Co4 2.667685 1_555
Co25 Co3 2.711553 1_655
Co26 Co9 2.561415 1_565
Co26 Co5 2.561463 1_556
Co26 Co7 2.666318 1_555
Co26 Co3 2.803719 1_555
Co27 Co8 2.561415 1_545
Co27 Co4 2.561463 1_554
Co27 Co6 2.666317 1_555
