# generated using pymatgen
data_Mg30CuCO32
_symmetry_space_group_name_H-M   'P 1'
_cell_length_a   8.50537100
_cell_length_b   8.50537100
_cell_length_c   8.48686900
_cell_angle_alpha   90.00000000
_cell_angle_beta   90.00000000
_cell_angle_gamma   90.00000000
_symmetry_Int_Tables_number   1
_chemical_formula_structural   Mg30CuCO32
_chemical_formula_sum   'Mg30 Cu1 C1 O32'
_cell_volume   613.95144062
_cell_formula_units_Z   1
loop_
 _symmetry_equiv_pos_site_id
 _symmetry_equiv_pos_as_xyz
  1  'x, y, z'
loop_
 _atom_site_type_symbol
 _atom_site_label
 _atom_site_symmetry_multiplicity
 _atom_site_fract_x
 _atom_site_fract_y
 _atom_site_fract_z
 _atom_site_occupancy
  Mg  Mg0  1  0.50000000  0.00000000  0.00000000  1
  Mg  Mg1  1  0.50000000  0.00000000  0.50000000  1
  Mg  Mg2  1  0.00000000  0.50000000  0.00000000  1
  Mg  Mg3  1  0.00000000  0.50000000  0.50000000  1
  Mg  Mg4  1  0.50000000  0.50000000  0.00000000  1
  Mg  Mg5  1  0.50000000  0.50000000  0.50000000  1
  Mg  Mg6  1  0.24755100  0.00000000  0.25147900  1
  Mg  Mg7  1  0.24755100  0.00000000  0.74852100  1
  Mg  Mg8  1  0.75244900  0.00000000  0.25147900  1
  Mg  Mg9  1  0.75244900  0.00000000  0.74852100  1
  Mg  Mg10  1  0.24941000  0.50000000  0.25024000  1
  Mg  Mg11  1  0.24941000  0.50000000  0.74976000  1
  Mg  Mg12  1  0.75059000  0.50000000  0.25024000  1
  Mg  Mg13  1  0.75059000  0.50000000  0.74976000  1
  Mg  Mg14  1  0.00000000  0.24755100  0.25147900  1
  Mg  Mg15  1  0.00000000  0.24755100  0.74852100  1
  Mg  Mg16  1  0.50000000  0.24941000  0.25024000  1
  Mg  Mg17  1  0.50000000  0.24941000  0.74976000  1
  Mg  Mg18  1  0.00000000  0.75244900  0.25147900  1
  Mg  Mg19  1  0.00000000  0.75244900  0.74852100  1
  Mg  Mg20  1  0.50000000  0.75059000  0.25024000  1
  Mg  Mg21  1  0.50000000  0.75059000  0.74976000  1
  Mg  Mg22  1  0.24895400  0.24895400  0.00000000  1
  Mg  Mg23  1  0.24780400  0.24780400  0.50000000  1
  Mg  Mg24  1  0.75104600  0.24895400  0.00000000  1
  Mg  Mg25  1  0.75219600  0.24780400  0.50000000  1
  Mg  Mg26  1  0.24895400  0.75104600  0.00000000  1
  Mg  Mg27  1  0.24780400  0.75219600  0.50000000  1
  Mg  Mg28  1  0.75104600  0.75104600  0.00000000  1
  Mg  Mg29  1  0.75219600  0.75219600  0.50000000  1
  Cu  Cu0  1  0.00000000  0.00000000  0.00000000  1
  C  C0  1  0.00000000  0.00000000  0.50000000  1
  O  O0  1  0.00000000  0.25204100  0.00000000  1
  O  O1  1  0.00000000  0.25188000  0.50000000  1
  O  O2  1  0.50000000  0.24985600  0.00000000  1
  O  O3  1  0.50000000  0.24932500  0.50000000  1
  O  O4  1  0.00000000  0.74795900  0.00000000  1
  O  O5  1  0.00000000  0.74812000  0.50000000  1
  O  O6  1  0.50000000  0.75014400  0.00000000  1
  O  O7  1  0.50000000  0.75067500  0.50000000  1
  O  O8  1  0.24881000  0.24881000  0.25022000  1
  O  O9  1  0.24881000  0.24881000  0.74978000  1
  O  O10  1  0.75119000  0.24881000  0.25022000  1
  O  O11  1  0.75119000  0.24881000  0.74978000  1
  O  O12  1  0.24881000  0.75119000  0.25022000  1
  O  O13  1  0.24881000  0.75119000  0.74978000  1
  O  O14  1  0.75119000  0.75119000  0.25022000  1
  O  O15  1  0.75119000  0.75119000  0.74978000  1
  O  O16  1  0.00000000  0.00000000  0.25475700  1
  O  O17  1  0.00000000  0.00000000  0.74524300  1
  O  O18  1  0.50000000  0.00000000  0.25049600  1
  O  O19  1  0.50000000  0.00000000  0.74950400  1
  O  O20  1  0.00000000  0.50000000  0.25049600  1
  O  O21  1  0.00000000  0.50000000  0.74950400  1
  O  O22  1  0.50000000  0.50000000  0.25000500  1
  O  O23  1  0.50000000  0.50000000  0.74999500  1
  O  O24  1  0.25204100  0.00000000  0.00000000  1
  O  O25  1  0.25188000  0.00000000  0.50000000  1
  O  O26  1  0.74795900  0.00000000  0.00000000  1
  O  O27  1  0.74812000  0.00000000  0.50000000  1
  O  O28  1  0.24985600  0.50000000  0.00000000  1
  O  O29  1  0.24932500  0.50000000  0.50000000  1
  O  O30  1  0.75014400  0.50000000  0.00000000  1
  O  O31  1  0.75067500  0.50000000  0.50000000  1
loop_
_geom_bond_atom_site_label_1
_geom_bond_atom_site_label_2
_geom_bond_distance
_geom_bond_site_symmetry_2
Mg0 O24 2.108983 1_555
Mg0 O26 2.108983 1_555
Mg0 O6 2.125118 1_545
Mg0 O2 2.125118 1_555
Mg0 O18 2.125927 1_555
Mg0 O19 2.125927 1_554
Mg1 O27 2.110353 1_555
Mg1 O25 2.110353 1_555
Mg1 O19 2.117508 1_555
Mg1 O18 2.117508 1_555
Mg1 O3 2.120602 1_555
Mg1 O7 2.120602 1_545
Mg2 O0 2.108983 1_555
Mg2 O4 2.108983 1_555
Mg2 O28 2.125118 1_555
Mg2 O30 2.125118 1_455
Mg2 O20 2.125927 1_555
Mg2 O21 2.125927 1_554
Mg3 O5 2.110353 1_555
Mg3 O1 2.110353 1_555
Mg3 O21 2.117508 1_555
Mg3 O20 2.117508 1_555
Mg3 O29 2.120602 1_555
Mg3 O31 2.120602 1_455
Mg4 O22 2.121760 1_555
Mg4 O23 2.121760 1_554
Mg4 O28 2.127568 1_555
Mg4 O6 2.127568 1_555
Mg4 O30 2.127568 1_555
Mg4 O2 2.127568 1_555
Mg5 O23 2.121675 1_555
Mg5 O22 2.121675 1_555
Mg5 O29 2.132084 1_555
Mg5 O31 2.132084 1_555
Mg5 O3 2.132084 1_555
Mg5 O7 2.132084 1_555
Mg6 O16 2.105697 1_555
Mg6 O25 2.109487 1_555
Mg6 O12 2.116275 1_545
Mg6 O8 2.116275 1_555
Mg6 O24 2.134611 1_555
Mg6 O18 2.147189 1_555
Mg7 O17 2.105697 1_555
Mg7 O25 2.109487 1_555
Mg7 O13 2.116275 1_545
Mg7 O9 2.116275 1_555
Mg7 O24 2.134611 1_556
Mg7 O19 2.147189 1_555
Mg8 O16 2.105697 1_655
Mg8 O27 2.109487 1_555
Mg8 O14 2.116275 1_545
Mg8 O10 2.116275 1_555
Mg8 O26 2.134611 1_555
Mg8 O18 2.147189 1_555
Mg9 O17 2.105697 1_655
Mg9 O27 2.109487 1_555
Mg9 O15 2.116275 1_545
Mg9 O11 2.116275 1_555
Mg9 O26 2.134611 1_556
Mg9 O19 2.147189 1_555
Mg10 O29 2.119681 1_555
Mg10 O20 2.121326 1_555
Mg10 O28 2.123757 1_555
Mg10 O22 2.131362 1_555
Mg10 O8 2.136470 1_555
Mg10 O12 2.136470 1_555
Mg11 O29 2.119681 1_555
Mg11 O21 2.121326 1_555
Mg11 O28 2.123757 1_556
Mg11 O23 2.131362 1_555
Mg11 O9 2.136470 1_555
Mg11 O13 2.136470 1_555
Mg12 O31 2.119681 1_555
Mg12 O20 2.121326 1_655
Mg12 O30 2.123757 1_555
Mg12 O22 2.131362 1_555
Mg12 O14 2.136470 1_555
Mg12 O10 2.136470 1_555
Mg13 O31 2.119681 1_555
Mg13 O21 2.121326 1_655
Mg13 O30 2.123757 1_556
Mg13 O23 2.131362 1_555
Mg13 O11 2.136470 1_555
Mg13 O15 2.136470 1_555
Mg14 O16 2.105697 1_555
Mg14 O1 2.109487 1_555
Mg14 O10 2.116275 1_455
Mg14 O8 2.116275 1_555
Mg14 O0 2.134611 1_555
Mg14 O20 2.147189 1_555
Mg15 O17 2.105697 1_555
Mg15 O1 2.109487 1_555
Mg15 O11 2.116275 1_455
Mg15 O9 2.116275 1_555
Mg15 O0 2.134611 1_556
Mg15 O21 2.147189 1_555
Mg16 O3 2.119681 1_555
Mg16 O18 2.121326 1_555
Mg16 O2 2.123757 1_555
Mg16 O22 2.131362 1_555
Mg16 O8 2.136470 1_555
Mg16 O10 2.136470 1_555
Mg17 O3 2.119681 1_555
Mg17 O19 2.121326 1_555
Mg17 O2 2.123757 1_556
Mg17 O23 2.131362 1_555
Mg17 O11 2.136470 1_555
Mg17 O9 2.136470 1_555
Mg18 O16 2.105697 1_565
Mg18 O5 2.109487 1_555
Mg18 O14 2.116275 1_455
Mg18 O12 2.116275 1_555
Mg18 O4 2.134611 1_555
Mg18 O20 2.147189 1_555
Mg19 O17 2.105697 1_565
Mg19 O5 2.109487 1_555
Mg19 O15 2.116275 1_455
Mg19 O13 2.116275 1_555
Mg19 O4 2.134611 1_556
Mg19 O21 2.147189 1_555
Mg20 O7 2.119681 1_555
Mg20 O18 2.121326 1_565
Mg20 O6 2.123757 1_555
Mg20 O22 2.131362 1_555
Mg20 O14 2.136470 1_555
Mg20 O12 2.136470 1_555
Mg21 O7 2.119681 1_555
Mg21 O19 2.121326 1_565
Mg21 O6 2.123757 1_556
Mg21 O23 2.131362 1_555
Mg21 O15 2.136470 1_555
Mg21 O13 2.136470 1_555
Mg22 O24 2.117609 1_555
Mg22 O0 2.117609 1_555
Mg22 O8 2.123585 1_555
Mg22 O9 2.123585 1_554
Mg22 O28 2.135253 1_555
Mg22 O2 2.135253 1_555
Mg23 O25 2.107950 1_555
Mg23 O1 2.107950 1_555
Mg23 O8 2.119885 1_555
Mg23 O9 2.119885 1_555
Mg23 O3 2.145060 1_555
Mg23 O29 2.145060 1_555
Mg24 O0 2.117609 1_655
Mg24 O26 2.117609 1_555
Mg24 O11 2.123585 1_554
Mg24 O10 2.123585 1_555
Mg24 O30 2.135253 1_555
Mg24 O2 2.135253 1_555
Mg25 O1 2.107950 1_655
Mg25 O27 2.107950 1_555
Mg25 O11 2.119885 1_555
Mg25 O10 2.119885 1_555
Mg25 O3 2.145060 1_555
Mg25 O31 2.145060 1_555
Mg26 O4 2.117609 1_555
Mg26 O24 2.117609 1_565
Mg26 O12 2.123585 1_555
Mg26 O13 2.123585 1_554
Mg26 O28 2.135253 1_555
Mg26 O6 2.135253 1_555
Mg27 O25 2.107950 1_565
Mg27 O5 2.107950 1_555
Mg27 O13 2.119885 1_555
Mg27 O12 2.119885 1_555
Mg27 O29 2.145060 1_555
Mg27 O7 2.145060 1_555
Mg28 O26 2.117609 1_565
Mg28 O4 2.117609 1_655
Mg28 O15 2.123585 1_554
Mg28 O14 2.123585 1_555
Mg28 O30 2.135253 1_555
Mg28 O6 2.135253 1_555
Mg29 O27 2.107950 1_565
Mg29 O5 2.107950 1_655
Mg29 O15 2.119885 1_555
Mg29 O14 2.119885 1_555
Mg29 O7 2.145060 1_555
Mg29 O31 2.145060 1_555
Cu0 O4 2.143702 1_545
Cu0 O26 2.143702 1_455
Cu0 O24 2.143702 1_555
Cu0 O0 2.143702 1_555
Cu0 O16 2.162089 1_555
Cu0 O17 2.162089 1_554
C0 O16 2.081345 1_555
C0 O17 2.081345 1_555
C0 O1 2.142333 1_555
C0 O27 2.142333 1_455
C0 O25 2.142333 1_555
C0 O5 2.142333 1_545
