# generated using pymatgen
data_TiFe2Bi2PbO9
_symmetry_space_group_name_H-M   'P 1'
_cell_length_a   5.65286775
_cell_length_b   5.65286775
_cell_length_c   14.18489500
_cell_angle_alpha   90.00000000
_cell_angle_beta   90.00000000
_cell_angle_gamma   119.99999704
_symmetry_Int_Tables_number   1
_chemical_formula_structural   TiFe2Bi2PbO9
_chemical_formula_sum   'Ti2 Fe4 Bi4 Pb2 O18'
_cell_volume   392.54949222
_cell_formula_units_Z   2
loop_
 _symmetry_equiv_pos_site_id
 _symmetry_equiv_pos_as_xyz
  1  'x, y, z'
loop_
 _atom_site_type_symbol
 _atom_site_label
 _atom_site_symmetry_multiplicity
 _atom_site_fract_x
 _atom_site_fract_y
 _atom_site_fract_z
 _atom_site_occupancy
  Ti  Ti0  1  0.00000000  0.00000000  0.14268400  1
  Ti  Ti1  1  0.33333300  0.66666700  0.80852400  1
  Fe  Fe0  1  0.66666700  0.33333300  0.48220600  1
  Fe  Fe1  1  0.66666700  0.33333300  0.98518200  1
  Fe  Fe2  1  0.00000000  0.00000000  0.65402300  1
  Fe  Fe3  1  0.33333300  0.66666700  0.31331000  1
  Bi  Bi0  1  0.33333300  0.66666700  0.53394700  1
  Bi  Bi1  1  0.66666700  0.33333300  0.69954700  1
  Bi  Bi2  1  0.00000000  0.00000000  0.36626000  1
  Bi  Bi3  1  0.33333300  0.66666700  0.03085900  1
  Pb  Pb0  1  0.66666700  0.33333300  0.21809200  1
  Pb  Pb1  1  0.00000000  0.00000000  0.88706700  1
  O  O0  1  0.33386600  0.21583200  0.07981800  1
  O  O1  1  0.01634000  0.57221400  0.41696800  1
  O  O2  1  0.66696700  0.88883400  0.74728400  1
  O  O3  1  0.78416800  0.11803400  0.07981800  1
  O  O4  1  0.42778600  0.44412600  0.41696800  1
  O  O5  1  0.11116600  0.77813400  0.74728400  1
  O  O6  1  0.88196600  0.66613400  0.07981800  1
  O  O7  1  0.55587400  0.98366000  0.41696800  1
  O  O8  1  0.22186600  0.33303300  0.74728400  1
  O  O9  1  0.19895600  0.88520700  0.24872300  1
  O  O10  1  0.89066200  0.24099100  0.58558000  1
  O  O11  1  0.53120200  0.54961000  0.91652700  1
  O  O12  1  0.11479300  0.31374900  0.24872300  1
  O  O13  1  0.75900900  0.64967100  0.58558000  1
  O  O14  1  0.45039000  0.98159100  0.91652700  1
  O  O15  1  0.68625100  0.80104400  0.24872300  1
  O  O16  1  0.35032900  0.10933800  0.58558000  1
  O  O17  1  0.01840900  0.46879800  0.91652700  1
loop_
_geom_bond_atom_site_label_1
_geom_bond_atom_site_label_2
_geom_bond_distance
_geom_bond_site_symmetry_2
Fe0 O7 1.979342 1_545
Fe0 O1 1.979343 1_655
Fe0 O4 1.979347 1_555
Fe0 O10 2.164929 1_555
Fe0 O16 2.164933 1_555
Fe0 O13 2.164933 1_555
Fe1 O11 1.991416 1_555
Fe1 O17 1.991416 1_655
Fe1 O14 1.991416 1_545
Fe1 O3 2.129048 1_556
Fe1 O6 2.129051 1_556
Fe1 O0 2.129052 1_556
Fe2 O10 2.005594 1_455
Fe2 O16 2.005594 1_555
Fe2 O13 2.005594 1_445
Fe2 O5 2.122746 1_545
Fe2 O8 2.122750 1_555
Fe2 O2 2.122751 1_445
Fe3 O9 1.970009 1_555
Fe3 O12 1.970013 1_555
Fe3 O15 1.970013 1_555
Fe3 O1 2.168250 1_555
Fe3 O7 2.168251 1_555
Fe3 O4 2.168254 1_555
Bi0 O1 2.300585 1_555
Bi0 O7 2.300585 1_555
Bi0 O4 2.300588 1_555
Bi0 O16 2.562625 1_565
Bi0 O10 2.562627 1_455
Bi0 O13 2.562630 1_555
Bi1 O10 2.269398 1_555
Bi1 O16 2.269401 1_555
Bi1 O13 2.269402 1_555
Bi1 O2 2.603156 1_545
Bi1 O5 2.603161 1_655
Bi1 O8 2.603167 1_555
Bi2 O9 2.279365 1_545
Bi2 O12 2.279365 1_555
Bi2 O15 2.279365 1_445
Bi2 O1 2.568472 1_545
Bi2 O7 2.568472 1_445
Bi2 O4 2.568472 1_555
Bi3 O14 2.249280 1_554
Bi3 O17 2.249281 1_554
Bi3 O11 2.249287 1_554
Bi3 O6 2.642890 1_455
Bi3 O3 2.642892 1_565
Bi3 O0 2.642895 1_555
O0 Ti0 1.882299 1_555
O0 Pb0 2.564745 1_555
O2 Ti1 1.876226 1_555
O2 Pb1 2.586027 1_665
O3 Ti0 1.882299 1_655
O3 Pb0 2.564742 1_555
O5 Ti1 1.876226 1_555
O5 Pb1 2.586024 1_565
O6 Ti0 1.882299 1_665
O6 Pb0 2.564745 1_555
O8 Ti1 1.876226 1_555
O8 Pb1 2.586027 1_555
O9 Ti0 2.162927 1_565
O9 Pb0 2.626516 1_565
O11 Ti1 2.185442 1_555
O11 Pb1 2.632960 1_665
O12 Ti0 2.162927 1_555
O12 Pb0 2.626513 1_455
O14 Ti1 2.185435 1_555
O14 Pb1 2.632963 1_565
O15 Ti0 2.162927 1_665
O15 Pb0 2.626519 1_555
O17 Ti1 2.185436 1_555
O17 Pb1 2.632958 1_555
