# generated using pymatgen
data_TiCr2O5
_symmetry_space_group_name_H-M   'P 1'
_cell_length_a   5.08375900
_cell_length_b   5.61490221
_cell_length_c   7.24362120
_cell_angle_alpha   109.56061677
_cell_angle_beta   90.00009266
_cell_angle_gamma   63.08374105
_symmetry_Int_Tables_number   1
_chemical_formula_structural   TiCr2O5
_chemical_formula_sum   'Ti2 Cr4 O10'
_cell_volume   170.87835945
_cell_formula_units_Z   2
loop_
 _symmetry_equiv_pos_site_id
 _symmetry_equiv_pos_as_xyz
  1  'x, y, z'
loop_
 _atom_site_type_symbol
 _atom_site_label
 _atom_site_symmetry_multiplicity
 _atom_site_fract_x
 _atom_site_fract_y
 _atom_site_fract_z
 _atom_site_occupancy
  Ti  Ti0  1  0.99999800  0.00000900  0.00001100  1
  Ti  Ti1  1  0.99999200  0.00000500  0.50001100  1
  Cr  Cr0  1  0.61690200  0.75293100  0.28560200  1
  Cr  Cr1  1  0.63016900  0.75293400  0.78560300  1
  Cr  Cr2  1  0.38308300  0.24705100  0.71438300  1
  Cr  Cr3  1  0.36986300  0.24705000  0.21438300  1
  O  O0  1  0.19205400  0.00002800  0.75001400  1
  O  O1  1  0.80794100  0.99998500  0.24999600  1
  O  O2  1  0.03776800  0.62833400  0.84831800  1
  O  O3  1  0.96224300  0.37166500  0.15169400  1
  O  O4  1  0.66608600  0.37165900  0.65168100  1
  O  O5  1  0.33390200  0.62834000  0.34832600  1
  O  O6  1  0.74599600  0.83811400  0.55451700  1
  O  O7  1  0.25399100  0.16189100  0.44547300  1
  O  O8  1  0.58410500  0.16187700  0.94547400  1
  O  O9  1  0.41590700  0.83812500  0.05451500  1
loop_
_geom_bond_atom_site_label_1
_geom_bond_atom_site_label_2
_geom_bond_distance
_geom_bond_site_symmetry_2
Cr0 O3 1.952638 1_555
Cr0 O5 1.972248 1_555
Cr0 O6 2.028346 1_555
Cr0 O9 2.041693 1_555
Cr0 O1 2.096030 1_555
Cr0 O7 2.097984 1_565
Cr1 O4 1.952686 1_555
Cr1 O2 1.972276 1_655
Cr1 O9 2.028288 1_556
Cr1 O6 2.041685 1_555
Cr1 O0 2.096153 1_565
Cr1 O8 2.097846 1_565
Cr2 O2 1.952660 1_555
Cr2 O4 1.972279 1_555
Cr2 O7 2.028302 1_555
Cr2 O8 2.041742 1_555
Cr2 O0 2.095895 1_555
Cr2 O6 2.097916 1_545
Cr3 O5 1.952690 1_555
Cr3 O3 1.972302 1_455
Cr3 O8 2.028259 1_554
Cr3 O7 2.041726 1_555
Cr3 O1 2.096033 1_545
Cr3 O9 2.097794 1_545
O0 Ti1 2.057367 1_455
O0 Ti0 2.057382 1_456
O1 Ti0 2.057322 1_565
O1 Ti1 2.057418 1_565
O2 Ti0 1.923847 1_466
O3 Ti0 1.923771 1_555
O4 Ti1 1.923781 1_555
O5 Ti1 1.923842 1_465
O6 Ti1 1.988093 1_565
O7 Ti1 1.988164 1_455
O8 Ti0 1.988214 1_556
O9 Ti0 1.988203 1_465
