# generated using pymatgen
data_Cu2H3ClO3
_symmetry_space_group_name_H-M   'P 1'
_cell_length_a   6.17992078
_cell_length_b   6.84354100
_cell_length_c   9.19137948
_cell_angle_alpha   90.00000000
_cell_angle_beta   99.97193884
_cell_angle_gamma   90.00000000
_symmetry_Int_Tables_number   1
_chemical_formula_structural   Cu2H3ClO3
_chemical_formula_sum   'Cu8 H12 Cl4 O12'
_cell_volume   382.85417553
_cell_formula_units_Z   4
loop_
 _symmetry_equiv_pos_site_id
 _symmetry_equiv_pos_as_xyz
  1  'x, y, z'
loop_
 _atom_site_type_symbol
 _atom_site_label
 _atom_site_symmetry_multiplicity
 _atom_site_fract_x
 _atom_site_fract_y
 _atom_site_fract_z
 _atom_site_occupancy
  Cu  Cu0  1  0.25956300  0.26537000  0.24872700  1
  Cu  Cu1  1  0.75956300  0.23463000  0.74872700  1
  Cu  Cu2  1  0.74043700  0.73463000  0.75127300  1
  Cu  Cu3  1  0.24043700  0.76537000  0.25127300  1
  Cu  Cu4  1  0.00000000  0.50000000  0.50000000  1
  Cu  Cu5  1  0.50000000  0.00000000  0.00000000  1
  Cu  Cu6  1  0.50000000  0.50000000  0.50000000  1
  Cu  Cu7  1  0.00000000  0.00000000  0.00000000  1
  H  H0  1  0.77827400  0.18410500  0.47737400  1
  H  H1  1  0.27827400  0.31589500  0.97737400  1
  H  H2  1  0.22172600  0.81589500  0.52262600  1
  H  H3  1  0.72172600  0.68410500  0.02262600  1
  H  H4  1  0.73745300  0.79230500  0.47135300  1
  H  H5  1  0.23745300  0.70769500  0.97135300  1
  H  H6  1  0.26254700  0.20769500  0.52864700  1
  H  H7  1  0.76254700  0.29230500  0.02864700  1
  H  H8  1  0.94433800  0.02087700  0.26915500  1
  H  H9  1  0.44433800  0.47912300  0.76915500  1
  H  H10  1  0.05566200  0.97912300  0.73084500  1
  H  H11  1  0.55566200  0.52087700  0.23084500  1
  Cl  Cl0  1  0.87593900  0.49482600  0.18718300  1
  Cl  Cl1  1  0.37593900  0.00517400  0.68718300  1
  Cl  Cl2  1  0.12406100  0.50517400  0.81281700  1
  Cl  Cl3  1  0.62406100  0.99482600  0.31281700  1
  O  O0  1  0.42133000  0.51923300  0.27668300  1
  O  O1  1  0.92133000  0.98076700  0.77668300  1
  O  O2  1  0.57867000  0.48076700  0.72331700  1
  O  O3  1  0.07867000  0.01923300  0.22331700  1
  O  O4  1  0.23889800  0.32193900  0.46027500  1
  O  O5  1  0.73889800  0.17806100  0.96027500  1
  O  O6  1  0.76110200  0.67806100  0.53972500  1
  O  O7  1  0.26110200  0.82193900  0.03972500  1
  O  O8  1  0.18890400  0.70853800  0.45023400  1
  O  O9  1  0.68890400  0.79146200  0.95023400  1
  O  O10  1  0.81109600  0.29146200  0.54976600  1
  O  O11  1  0.31109600  0.20853800  0.04976600  1
loop_
_geom_bond_atom_site_label_1
_geom_bond_atom_site_label_2
_geom_bond_distance
_geom_bond_site_symmetry_2
Cu0 O11 1.949008 1_555
Cu0 O0 1.998690 1_555
Cu0 O4 2.008219 1_555
Cu0 O3 2.012760 1_555
Cu1 O10 1.949008 1_555
Cu1 O1 1.998690 1_545
Cu1 O5 2.008219 1_555
Cu1 O2 2.012760 1_555
Cu2 O9 1.949008 1_555
Cu2 O2 1.998690 1_555
Cu2 O6 2.008219 1_555
Cu2 O1 2.012760 1_555
Cu3 O8 1.949008 1_555
Cu3 O3 1.998690 1_565
Cu3 O7 2.008219 1_555
Cu3 O0 2.012760 1_555
Cu4 O8 1.947754 1_555
Cu4 O10 1.947754 1_455
Cu4 O4 1.996144 1_555
Cu4 O6 1.996144 1_455
Cu5 O11 1.947754 1_555
Cu5 O9 1.947754 1_544
Cu5 O5 1.996144 1_554
Cu5 O7 1.996144 1_545
Cu6 O6 2.004458 1_555
Cu6 O4 2.004458 1_555
Cu6 O2 2.030076 1_555
Cu6 O0 2.030076 1_555
Cu6 O10 2.374359 1_555
Cu6 O8 2.374359 1_555
Cu7 O7 2.004458 1_545
Cu7 O5 2.004458 1_454
Cu7 O3 2.030076 1_555
Cu7 O1 2.030076 1_444
Cu7 O11 2.374359 1_555
Cu7 O9 2.374359 1_444
H0 O10 0.988393 1_555
H1 O11 0.988393 1_556
H2 O8 0.988393 1_555
H3 O9 0.988393 1_554
H4 O6 0.997869 1_555
H5 O7 0.997869 1_556
H6 O4 0.997869 1_555
H7 O5 0.997869 1_554
H8 O3 0.993948 1_655
H9 O2 0.993948 1_555
H10 O1 0.993948 1_455
H11 O0 0.993948 1_555
Cl0 H7 2.044903 1_555
Cl0 H3 2.091557 1_555
Cl0 H11 2.094161 1_555
Cl0 Cu0 2.818133 1_655
Cl0 Cu4 2.844732 1_655
Cl0 Cu3 2.896462 1_655
Cl1 H6 2.044903 1_555
Cl1 H2 2.091557 1_545
Cl1 H10 2.094161 1_545
Cl1 Cu1 2.818133 1_555
Cl1 Cu5 2.844732 1_556
Cl1 Cu2 2.896462 1_545
Cl2 H5 2.044903 1_555
Cl2 H1 2.091557 1_555
Cl2 H9 2.094161 1_555
Cl2 Cu2 2.818133 1_455
Cl2 Cu4 2.844732 1_555
Cl2 Cu1 2.896462 1_455
Cl3 H4 2.044903 1_555
Cl3 H0 2.091557 1_565
Cl3 H8 2.094161 1_565
Cl3 Cu3 2.818133 1_555
Cl3 Cu5 2.844732 1_565
Cl3 Cu0 2.896462 1_565
