# generated using pymatgen
data_La8ScTi6NbO28
_symmetry_space_group_name_H-M   'P 1'
_cell_length_a   5.59093071
_cell_length_b   7.90216000
_cell_length_c   26.59205661
_cell_angle_alpha   90.00000000
_cell_angle_beta   89.43164452
_cell_angle_gamma   90.00000000
_symmetry_Int_Tables_number   1
_chemical_formula_structural   La8ScTi6NbO28
_chemical_formula_sum   'La16 Sc2 Ti12 Nb2 O56'
_cell_volume   1174.79066852
_cell_formula_units_Z   2
loop_
 _symmetry_equiv_pos_site_id
 _symmetry_equiv_pos_as_xyz
  1  'x, y, z'
loop_
 _atom_site_type_symbol
 _atom_site_label
 _atom_site_symmetry_multiplicity
 _atom_site_fract_x
 _atom_site_fract_y
 _atom_site_fract_z
 _atom_site_occupancy
  La  La0  1  0.71264900  0.87009600  0.45922200  1
  La  La1  1  0.21524500  0.12187100  0.55241200  1
  La  La2  1  0.21524500  0.37812900  0.05241200  1
  La  La3  1  0.71264900  0.62990400  0.95922200  1
  La  La4  1  0.22328000  0.87598100  0.30418300  1
  La  La5  1  0.72514800  0.12182300  0.69333400  1
  La  La6  1  0.72514800  0.37817700  0.19333400  1
  La  La7  1  0.22328000  0.62401900  0.80418300  1
  La  La8  1  0.71787100  0.87699700  0.19979800  1
  La  La9  1  0.21605500  0.11956400  0.79666200  1
  La  La10  1  0.21605500  0.38043600  0.29666200  1
  La  La11  1  0.71787100  0.62300300  0.69979800  1
  La  La12  1  0.16820800  0.87485200  0.03965900  1
  La  La13  1  0.66484200  0.11612700  0.96491800  1
  La  La14  1  0.66484200  0.38387300  0.46491800  1
  La  La15  1  0.16820800  0.62514800  0.53965900  1
  Sc  Sc0  1  0.20757700  0.62517000  0.40794300  1
  Sc  Sc1  1  0.20757700  0.87483000  0.90794300  1
  Ti  Ti0  1  0.71305400  0.62710800  0.30560000  1
  Ti  Ti1  1  0.21426100  0.37210000  0.69230000  1
  Ti  Ti2  1  0.21426100  0.12790000  0.19230000  1
  Ti  Ti3  1  0.71305400  0.87289200  0.80560000  1
  Ti  Ti4  1  0.21778900  0.62556900  0.19093900  1
  Ti  Ti5  1  0.71400700  0.37618100  0.80647400  1
  Ti  Ti6  1  0.71400700  0.12381900  0.30647400  1
  Ti  Ti7  1  0.21778900  0.87443100  0.69093900  1
  Ti  Ti8  1  0.71319300  0.38508000  0.59189600  1
  Ti  Ti9  1  0.71319300  0.11492000  0.09189600  1
  Ti  Ti10  1  0.70368300  0.61862500  0.09049900  1
  Ti  Ti11  1  0.70368300  0.88137500  0.59049900  1
  Nb  Nb0  1  0.20473500  0.37102700  0.91069600  1
  Nb  Nb1  1  0.20473500  0.12897300  0.41069600  1
  O  O0  1  0.93707400  0.61032400  0.03542700  1
  O  O1  1  0.42643800  0.38782000  0.96855600  1
  O  O2  1  0.42643800  0.11218000  0.46855600  1
  O  O3  1  0.93707400  0.88967600  0.53542700  1
  O  O4  1  0.77734300  0.88036000  0.09794400  1
  O  O5  1  0.29484800  0.13132500  0.90014300  1
  O  O6  1  0.29484800  0.36867500  0.40014300  1
  O  O7  1  0.77734300  0.61964000  0.59794400  1
  O  O8  1  0.49622500  0.67431600  0.35487400  1
  O  O9  1  0.00139100  0.33022900  0.64170900  1
  O  O10  1  0.00139100  0.16977100  0.14170900  1
  O  O11  1  0.49622500  0.82568400  0.85487400  1
  O  O12  1  0.01418700  0.58722800  0.13854600  1
  O  O13  1  0.50897000  0.42109700  0.85904600  1
  O  O14  1  0.50897000  0.07890300  0.35904600  1
  O  O15  1  0.01418700  0.91277200  0.63854600  1
  O  O16  1  0.95788300  0.59798700  0.24023600  1
  O  O17  1  0.45590300  0.40187300  0.75718800  1
  O  O18  1  0.45590300  0.09812700  0.25718800  1
  O  O19  1  0.95788300  0.90201300  0.74023600  1
  O  O20  1  0.52483500  0.65074300  0.15506400  1
  O  O21  1  0.01725000  0.34585100  0.84274400  1
  O  O22  1  0.01725000  0.15414900  0.34274400  1
  O  O23  1  0.52483500  0.84925700  0.65506400  1
  O  O24  1  0.45954300  0.66920900  0.25400800  1
  O  O25  1  0.96210600  0.32985200  0.74298200  1
  O  O26  1  0.96210600  0.17014800  0.24298200  1
  O  O27  1  0.45954300  0.83079100  0.75400800  1
  O  O28  1  0.44102000  0.63988700  0.46621300  1
  O  O29  1  0.93971100  0.35617900  0.53947700  1
  O  O30  1  0.93971100  0.14382100  0.03947700  1
  O  O31  1  0.44102000  0.86011300  0.96621300  1
  O  O32  1  0.79549200  0.88365700  0.29234500  1
  O  O33  1  0.29448300  0.11750200  0.70345700  1
  O  O34  1  0.29448300  0.38249800  0.20345700  1
  O  O35  1  0.79549200  0.61634300  0.79234500  1
  O  O36  1  0.45063200  0.63911300  0.04741600  1
  O  O37  1  0.93570300  0.35233900  0.95437500  1
  O  O38  1  0.93570300  0.14766100  0.45437500  1
  O  O39  1  0.45063200  0.86088700  0.54741600  1
  O  O40  1  0.94401200  0.61233900  0.46238800  1
  O  O41  1  0.45432300  0.38642300  0.54620600  1
  O  O42  1  0.45432300  0.11357700  0.04620600  1
  O  O43  1  0.94401200  0.88766100  0.96238800  1
  O  O44  1  0.14069800  0.88431800  0.40147900  1
  O  O45  1  0.66020100  0.11914000  0.59785600  1
  O  O46  1  0.66020100  0.38086000  0.09785600  1
  O  O47  1  0.14069800  0.61568200  0.90147900  1
  O  O48  1  0.17080600  0.88262300  0.19896900  1
  O  O49  1  0.66355300  0.11937300  0.79779000  1
  O  O50  1  0.66355300  0.38062700  0.29779000  1
  O  O51  1  0.17080600  0.61737700  0.69896900  1
  O  O52  1  0.00772200  0.60547100  0.34052600  1
  O  O53  1  0.51965200  0.38926500  0.65649900  1
  O  O54  1  0.51965200  0.11073500  0.15649900  1
  O  O55  1  0.00772200  0.89452900  0.84052600  1
loop_
_geom_bond_atom_site_label_1
_geom_bond_atom_site_label_2
_geom_bond_distance
_geom_bond_site_symmetry_2
La0 O28 2.375834 1_555
La0 O3 2.399012 1_555
La0 O40 2.414785 1_555
La0 O2 2.504764 1_565
La0 O38 2.525762 1_565
La0 O39 2.753791 1_555
La0 O44 2.832821 1_655
La1 O29 2.435188 1_455
La1 O39 2.449359 1_545
La1 O3 2.450171 1_445
La1 O41 2.485934 1_555
La1 O2 2.514022 1_555
La1 O45 2.776544 1_555
La2 O30 2.435188 1_455
La2 O36 2.449359 1_555
La2 O0 2.450171 1_455
La2 O42 2.485934 1_555
La2 O1 2.514022 1_554
La2 O46 2.776544 1_555
La3 O31 2.375834 1_555
La3 O0 2.399012 1_556
La3 O43 2.414785 1_555
La3 O1 2.504764 1_555
La3 O37 2.525762 1_555
La3 O36 2.753791 1_556
La3 O47 2.832821 1_655
La4 O32 2.416216 1_455
La4 O24 2.481916 1_555
La4 O18 2.510486 1_565
La4 O8 2.593474 1_555
La4 O44 2.624489 1_555
La4 O52 2.633005 1_555
La4 O22 2.680799 1_565
La4 O14 2.701341 1_565
La4 O48 2.816578 1_555
La5 O33 2.420405 1_555
La5 O25 2.497041 1_555
La5 O19 2.509575 1_545
La5 O45 2.568441 1_555
La5 O53 2.601560 1_555
La5 O9 2.634395 1_655
La5 O23 2.636598 1_545
La5 O15 2.723293 1_645
La5 O49 2.795641 1_555
La6 O34 2.420405 1_555
La6 O26 2.497041 1_555
La6 O16 2.509575 1_555
La6 O46 2.568441 1_555
La6 O54 2.601560 1_555
La6 O10 2.634395 1_655
La6 O20 2.636598 1_555
La6 O12 2.723293 1_655
La6 O50 2.795641 1_555
La7 O35 2.416216 1_455
La7 O27 2.481916 1_555
La7 O17 2.510486 1_555
La7 O11 2.593474 1_555
La7 O47 2.624489 1_555
La7 O55 2.633005 1_555
La7 O21 2.680799 1_555
La7 O13 2.701341 1_555
La7 O51 2.816578 1_555
La8 O20 2.408713 1_555
La8 O54 2.447605 1_565
La8 O32 2.503774 1_555
La8 O48 2.532596 1_655
La8 O24 2.611291 1_555
La8 O4 2.725694 1_555
La8 O18 2.735562 1_565
La8 O16 2.801195 1_555
La8 O26 2.929284 1_565
La8 O48 3.059224 1_555
La8 O10 3.194168 1_665
La8 O12 3.253812 1_655
La9 O55 2.419201 1_545
La9 O21 2.430548 1_555
La9 O49 2.502408 1_555
La9 O33 2.512767 1_555
La9 O25 2.618218 1_455
La9 O19 2.708001 1_445
La9 O5 2.792669 1_555
La9 O17 2.801578 1_555
La9 O27 2.883803 1_545
La10 O52 2.419201 1_555
La10 O22 2.430548 1_555
La10 O50 2.502408 1_555
La10 O34 2.512767 1_555
La10 O26 2.618218 1_455
La10 O16 2.708001 1_455
La10 O6 2.792669 1_555
La10 O18 2.801578 1_555
La10 O24 2.883803 1_555
La11 O23 2.408713 1_555
La11 O53 2.447605 1_555
La11 O35 2.503774 1_555
La11 O51 2.532596 1_655
La11 O27 2.611291 1_555
La11 O7 2.725694 1_555
La11 O17 2.735562 1_555
La11 O19 2.801195 1_555
La11 O25 2.929284 1_555
La11 O51 3.059224 1_555
La11 O9 3.194168 1_655
La11 O15 3.253812 1_655
La12 O43 2.419648 1_454
La12 O36 2.452039 1_555
La12 O0 2.460692 1_455
La12 O31 2.468896 1_554
La12 O30 2.479851 1_465
La12 O42 2.480601 1_565
La12 O4 2.666923 1_455
La13 O31 2.378876 1_545
La13 O43 2.387044 1_545
La13 O37 2.418185 1_555
La13 O42 2.451088 1_556
La13 O1 2.528412 1_555
La13 O30 2.530024 1_556
La13 O5 2.707632 1_555
La14 O28 2.378876 1_555
La14 O40 2.387044 1_555
La14 O38 2.418185 1_555
La14 O41 2.451088 1_555
La14 O2 2.528412 1_555
La14 O29 2.530024 1_555
La14 O6 2.707632 1_555
La15 O40 2.419648 1_455
La15 O39 2.452039 1_555
La15 O3 2.460692 1_455
La15 O28 2.468896 1_555
La15 O29 2.479851 1_455
La15 O41 2.480601 1_555
La15 O7 2.666923 1_455
Nb0 O37 1.897024 1_455
Nb0 O5 1.979301 1_555
Nb0 O47 1.981832 1_555
Nb0 O1 1.989777 1_555
Nb0 O21 2.107392 1_555
Nb0 O13 2.211312 1_555
Nb1 O38 1.897024 1_455
Nb1 O6 1.979301 1_555
Nb1 O44 1.981832 1_545
Nb1 O2 1.989777 1_555
Nb1 O22 2.107392 1_555
Nb1 O14 2.211312 1_555
O0 Ti10 1.952890 1_555
O3 Ti11 1.952890 1_555
O4 Ti9 1.895052 1_565
O4 Ti10 2.118529 1_555
O5 Sc1 2.094580 1_545
O6 Sc0 2.094580 1_555
O7 Ti8 1.895052 1_555
O7 Ti11 2.118529 1_555
O8 Ti0 1.814977 1_555
O8 Sc0 2.168306 1_555
O9 Ti1 1.835091 1_555
O9 Ti8 2.140358 1_455
O10 Ti2 1.835091 1_555
O10 Ti9 2.140358 1_455
O11 Ti3 1.814977 1_555
O11 Sc1 2.168306 1_555
O12 Ti4 1.833072 1_555
O12 Ti10 2.179843 1_455
O13 Ti5 1.833765 1_555
O14 Ti6 1.833765 1_555
O15 Ti7 1.833072 1_555
O15 Ti11 2.179843 1_455
O16 Ti4 1.959526 1_655
O16 Ti0 2.213738 1_555
O17 Ti5 1.969473 1_555
O17 Ti1 2.214538 1_555
O18 Ti6 1.969473 1_555
O18 Ti2 2.214538 1_555
O19 Ti7 1.959526 1_655
O19 Ti3 2.213738 1_555
O20 Ti4 1.965743 1_555
O20 Ti10 1.994495 1_555
O21 Ti5 1.973461 1_455
O22 Ti6 1.973461 1_455
O23 Ti7 1.965743 1_555
O23 Ti11 1.994495 1_555
O24 Ti0 2.010072 1_555
O24 Ti4 2.191706 1_555
O25 Ti1 1.969173 1_655
O25 Ti5 2.205054 1_555
O26 Ti2 1.969173 1_655
O26 Ti6 2.205054 1_555
O27 Ti3 2.010072 1_555
O27 Ti7 2.191706 1_555
O28 Sc0 2.039144 1_555
O29 Ti8 1.887872 1_555
O30 Ti9 1.887872 1_555
O31 Sc1 2.039144 1_555
O32 Ti6 1.986695 1_565
O32 Ti0 2.107928 1_555
O33 Ti7 1.996727 1_545
O33 Ti1 2.083139 1_555
O34 Ti4 1.996727 1_555
O34 Ti2 2.083139 1_555
O35 Ti5 1.986695 1_555
O35 Ti3 2.107928 1_555
O36 Ti10 1.836450 1_555
O39 Ti11 1.836450 1_555
O40 Sc0 2.058036 1_655
O41 Ti8 1.898934 1_555
O42 Ti9 1.898934 1_555
O43 Sc1 2.058036 1_655
O44 Sc0 2.089076 1_555
O45 Ti11 1.904346 1_545
O45 Ti8 2.127973 1_555
O46 Ti10 1.904346 1_555
O46 Ti9 2.127973 1_555
O47 Sc1 2.089076 1_555
O48 Ti2 1.961202 1_565
O48 Ti4 2.059026 1_555
O49 Ti3 1.978517 1_545
O49 Ti5 2.062136 1_555
O50 Ti0 1.978517 1_555
O50 Ti6 2.062136 1_555
O51 Ti1 1.961202 1_555
O51 Ti7 2.059026 1_555
O52 Ti0 1.906915 1_455
O52 Sc0 2.127552 1_555
O53 Ti1 1.951353 1_555
O53 Ti8 2.021477 1_555
O54 Ti2 1.951353 1_555
O54 Ti9 2.021477 1_555
O55 Ti3 1.906915 1_455
O55 Sc1 2.127552 1_555
