# generated using pymatgen
data_NiSnP2O9
_symmetry_space_group_name_H-M   'P 1'
_cell_length_a   6.43853689
_cell_length_b   7.94293073
_cell_length_c   14.16812302
_cell_angle_alpha   89.95865300
_cell_angle_beta   89.98434784
_cell_angle_gamma   90.26717800
_symmetry_Int_Tables_number   1
_chemical_formula_structural   NiSnP2O9
_chemical_formula_sum   'Ni4 Sn4 P8 O36'
_cell_volume   724.56179537
_cell_formula_units_Z   4
loop_
 _symmetry_equiv_pos_site_id
 _symmetry_equiv_pos_as_xyz
  1  'x, y, z'
loop_
 _atom_site_type_symbol
 _atom_site_label
 _atom_site_symmetry_multiplicity
 _atom_site_fract_x
 _atom_site_fract_y
 _atom_site_fract_z
 _atom_site_occupancy
  Ni  Ni0  1  0.49998500  0.99997000  0.99998700  1
  Ni  Ni1  1  0.50007900  0.49996400  0.49999600  1
  Ni  Ni2  1  0.99991500  0.49997400  0.49998900  1
  Ni  Ni3  1  0.00001400  0.99997700  0.00000400  1
  Sn  Sn0  1  0.74924200  0.34938600  0.87839500  1
  Sn  Sn1  1  0.25076300  0.65055200  0.12161000  1
  Sn  Sn2  1  0.24937000  0.85098700  0.62218200  1
  Sn  Sn3  1  0.75063000  0.14900900  0.37784700  1
  P  P0  1  0.24965700  0.34633100  0.93660300  1
  P  P1  1  0.75034700  0.65363100  0.06340200  1
  P  P2  1  0.74944500  0.84613600  0.56358500  1
  P  P3  1  0.25055200  0.15385100  0.43643800  1
  P  P4  1  0.74953000  0.39322600  0.68277600  1
  P  P5  1  0.25045700  0.60680300  0.31723200  1
  P  P6  1  0.24967800  0.89236600  0.81716200  1
  P  P7  1  0.75029200  0.10769600  0.18285200  1
  O  O0  1  0.04840200  0.59602100  0.37661300  1
  O  O1  1  0.54847300  0.40362900  0.62288300  1
  O  O2  1  0.95171700  0.09686400  0.12357400  1
  O  O3  1  0.45120200  0.90393200  0.87622400  1
  O  O4  1  0.95151500  0.40403800  0.62338800  1
  O  O5  1  0.45160000  0.59643300  0.37712900  1
  O  O6  1  0.04833500  0.90315600  0.87645400  1
  O  O7  1  0.54877800  0.09607400  0.12380700  1
  O  O8  1  0.25065600  0.33423000  0.47805500  1
  O  O9  1  0.74934000  0.66581400  0.52188300  1
  O  O10  1  0.75052200  0.83460800  0.02223200  1
  O  O11  1  0.24948200  0.16540500  0.97778000  1
  O  O12  1  0.74748200  0.13143000  0.95552200  1
  O  O13  1  0.25252100  0.86855400  0.04451000  1
  O  O14  1  0.24859800  0.63194800  0.54482100  1
  O  O15  1  0.75139200  0.36806300  0.45509700  1
  O  O16  1  0.74923900  0.22656000  0.74133100  1
  O  O17  1  0.25074400  0.77346600  0.25864200  1
  O  O18  1  0.24909500  0.72666600  0.75802600  1
  O  O19  1  0.75092100  0.27337100  0.24196800  1
  O  O20  1  0.43901900  0.13214000  0.37047900  1
  O  O21  1  0.93785400  0.86773800  0.62966600  1
  O  O22  1  0.56207800  0.63213000  0.12971300  1
  O  O23  1  0.06090900  0.36677700  0.87058100  1
  O  O24  1  0.56099300  0.86782300  0.62952400  1
  O  O25  1  0.06213300  0.13221600  0.37033700  1
  O  O26  1  0.43793500  0.36783100  0.87027100  1
  O  O27  1  0.93909600  0.63319500  0.12940100  1
  O  O28  1  0.75001700  0.96864000  0.26204200  1
  O  O29  1  0.24997300  0.03137600  0.73795200  1
  O  O30  1  0.24951900  0.46943200  0.23741300  1
  O  O31  1  0.75049900  0.53048900  0.76260000  1
  O  O32  1  0.75015400  0.97780800  0.48492200  1
  O  O33  1  0.24984900  0.02226200  0.51510700  1
  O  O34  1  0.24987800  0.47754100  0.01502100  1
  O  O35  1  0.75012300  0.52248500  0.98497200  1
loop_
_geom_bond_atom_site_label_1
_geom_bond_atom_site_label_2
_geom_bond_distance
_geom_bond_site_symmetry_2
Ni0 O3 1.937853 1_555
Ni0 O7 1.938801 1_566
Ni0 O13 2.002276 1_556
Ni0 O12 2.002367 1_565
Ni0 O10 2.108557 1_556
Ni0 O11 2.108672 1_565
Ni1 O1 1.927314 1_555
Ni1 O5 1.927571 1_555
Ni1 O15 2.033893 1_555
Ni1 O14 2.034770 1_555
Ni1 O9 2.094828 1_555
Ni1 O8 2.095162 1_555
Ni2 O4 1.931322 1_555
Ni2 O0 1.931463 1_655
Ni2 O15 2.012119 1_555
Ni2 O14 2.012926 1_655
Ni2 O9 2.110539 1_555
Ni2 O8 2.110964 1_655
Ni3 O6 1.938104 1_554
Ni3 O2 1.938544 1_465
Ni3 O13 2.036146 1_555
Ni3 O12 2.036293 1_464
Ni3 O10 2.093885 1_455
Ni3 O11 2.094050 1_564
O0 P5 1.551080 1_555
O1 P4 1.550536 1_555
O2 P7 1.547649 1_555
O3 P6 1.546551 1_555
O4 P4 1.550768 1_555
O5 P5 1.551015 1_555
O6 P6 1.547294 1_555
O7 P7 1.546392 1_555
O8 P3 1.549715 1_555
O9 P2 1.549756 1_555
O10 P1 1.550931 1_555
O11 P0 1.550593 1_555
O12 Sn0 2.046555 1_555
O13 Sn1 2.046660 1_555
O14 Sn2 2.056937 1_555
O15 Sn3 2.056200 1_555
O16 P4 1.561776 1_555
O16 Sn0 2.173857 1_555
O17 P5 1.562019 1_555
O17 Sn1 2.173767 1_555
O18 P6 1.560699 1_555
O18 Sn2 2.162554 1_555
O19 P7 1.560379 1_555
O19 Sn3 2.163144 1_555
O20 P3 1.541780 1_555
O20 Sn3 2.012907 1_555
O21 P2 1.541578 1_555
O21 Sn2 2.013505 1_655
O22 P1 1.542212 1_555
O22 Sn1 2.013728 1_555
O23 P0 1.542875 1_555
O23 Sn0 2.013795 1_455
O24 P2 1.541511 1_555
O24 Sn2 2.012948 1_555
O25 P3 1.541829 1_555
O25 Sn3 2.013464 1_455
O26 P0 1.542438 1_555
O26 Sn0 2.013708 1_555
O27 P1 1.542674 1_555
O27 Sn1 2.013760 1_655
O28 P7 1.573838 1_565
O28 Sn3 2.178967 1_565
O29 P6 1.573784 1_545
O29 Sn2 2.178698 1_545
O30 P5 1.572012 1_555
O30 Sn1 2.181310 1_555
O31 P4 1.571468 1_555
O31 Sn0 2.181136 1_555
O32 P2 1.527823 1_555
O32 Sn3 2.036565 1_565
O33 P3 1.527434 1_555
O33 Sn2 2.036957 1_545
O34 P0 1.523885 1_554
O34 Sn1 2.042554 1_555
O35 P1 1.523661 1_556
O35 Sn0 2.042899 1_555
