# generated using pymatgen
data_Na19Zr11S30
_symmetry_space_group_name_H-M   'P 1'
_cell_length_a   11.61781215
_cell_length_b   11.61780212
_cell_length_c   10.99220630
_cell_angle_alpha   78.96545150
_cell_angle_beta   78.96549865
_cell_angle_gamma   58.97094874
_symmetry_Int_Tables_number   1
_chemical_formula_structural   Na19Zr11S30
_chemical_formula_sum   'Na19 Zr11 S30'
_cell_volume   1240.24006015
_cell_formula_units_Z   1
loop_
 _symmetry_equiv_pos_site_id
 _symmetry_equiv_pos_as_xyz
  1  'x, y, z'
loop_
 _atom_site_type_symbol
 _atom_site_label
 _atom_site_symmetry_multiplicity
 _atom_site_fract_x
 _atom_site_fract_y
 _atom_site_fract_z
 _atom_site_occupancy
  Na  Na0  1  0.73851004  0.05735470  0.30490321  1
  Na  Na1  1  0.13897172  0.46236377  0.10165317  1
  Na  Na2  1  0.34167733  0.65832489  0.49999464  1
  Na  Na3  1  0.53762810  0.86103078  0.89835271  1
  Na  Na4  1  0.94264466  0.26148997  0.69509738  1
  Na  Na5  1  0.46235611  0.13897431  0.10165623  1
  Na  Na6  1  0.86102927  0.53763466  0.89834976  1
  Na  Na7  1  0.05735694  0.73850778  0.30490268  1
  Na  Na8  1  0.26149186  0.94264283  0.69509813  1
  Na  Na9  1  0.65832529  0.34167701  0.49999483  1
  Na  Na10  1  0.39898361  0.39898406  0.30151799  1
  Na  Na11  1  0.79587859  0.79587772  0.10177437  1
  Na  Na12  1  0.00000194  0.00000177  0.49999686  1
  Na  Na13  1  0.20412276  0.20412198  0.89822877  1
  Na  Na14  1  0.60101608  0.60101610  0.69848240  1
  Na  Na15  1  0.19964785  0.19964817  0.40011331  1
  Na  Na16  1  0.40051753  0.40052122  0.79904378  1
  Na  Na17  1  0.59947849  0.59948242  0.20095637  1
  Na  Na18  1  0.80035093  0.80035076  0.59988602  1
  Zr  Zr0  1  0.65996744  0.34003132  -0.00000069  1
  Zr  Zr1  1  0.06821438  0.73399178  0.80203484  1
  Zr  Zr2  1  0.26600861  0.93178099  0.19796368  1
  Zr  Zr3  1  0.47069783  0.13159970  0.60192758  1
  Zr  Zr4  1  0.86840598  0.52930285  0.39807132  1
  Zr  Zr5  1  0.73399084  0.06821525  0.80203489  1
  Zr  Zr6  1  0.13159956  0.47069761  0.60192730  1
  Zr  Zr7  1  0.34003185  0.65996746  0.00000042  1
  Zr  Zr8  1  0.52930381  0.86840572  0.39807184  1
  Zr  Zr9  1  0.93178185  0.26600932  0.19796426  1
  Zr  Zr10  1  0.00000117  0.00000022  0.00000152  1
  S  S0  1  0.51426920  0.87537004  0.16482138  1
  S  S1  1  0.92429718  0.25995564  0.96313014  1
  S  S2  1  0.11563782  0.47462305  0.36842932  1
  S  S3  1  0.31661480  0.67593710  0.76848564  1
  S  S4  1  0.71923297  0.07475102  0.56867268  1
  S  S5  1  0.47462347  0.11563723  0.36842955  1
  S  S6  1  0.87536962  0.51426949  0.16482128  1
  S  S7  1  0.07475166  0.71923205  0.56867282  1
  S  S8  1  0.25995539  0.92429590  0.96313118  1
  S  S9  1  0.67593640  0.31661568  0.76848490  1
  S  S10  1  0.68338549  0.32406416  0.23151392  1
  S  S11  1  0.07570461  0.74004346  0.03687100  1
  S  S12  1  0.28076812  0.92524953  0.43132473  1
  S  S13  1  0.48572870  0.12462884  0.83518081  1
  S  S14  1  0.88436259  0.52537588  0.63157031  1
  S  S15  1  0.74004315  0.07570347  0.03687150  1
  S  S16  1  0.12462880  0.48572953  0.83518059  1
  S  S17  1  0.32406323  0.68338797  0.23151255  1
  S  S18  1  0.52537627  0.88436226  0.63157050  1
  S  S19  1  0.92524985  0.28076762  0.43132432  1
  S  S20  1  0.81317951  0.81317961  0.84806605  1
  S  S21  1  0.21381700  0.21381560  0.64742527  1
  S  S22  1  0.40881558  0.40881582  0.04818079  1
  S  S23  1  0.61170987  0.61169788  0.44680064  1
  S  S24  1  0.00725383  0.00725277  0.23867887  1
  S  S25  1  0.38829739  0.38829803  0.55320023  1
  S  S26  1  0.78618439  0.78618305  0.35257508  1
  S  S27  1  0.99274880  0.99274740  0.76131821  1
  S  S28  1  0.18681852  0.18681913  0.15193582  1
  S  S29  1  0.59118338  0.59118371  0.95182037  1
loop_
_geom_bond_atom_site_label_1
_geom_bond_atom_site_label_2
_geom_bond_distance
_geom_bond_site_symmetry_2
Na0 S5 2.750727 1_555
Na0 S10 2.803068 1_555
Na0 S24 2.834698 1_655
Na0 S26 2.861246 1_545
Na0 S4 2.902871 1_555
Na0 S15 2.910259 1_555
Na1 S6 2.768921 1_455
Na1 S22 2.825709 1_555
Na1 S11 2.886344 1_555
Na1 S28 2.909995 1_555
Na1 S2 2.916994 1_555
Na1 S16 2.918396 1_554
Na2 S12 2.780878 1_555
Na2 S7 2.780908 1_555
Na2 S25 2.853790 1_555
Na2 S23 2.853826 1_555
Na2 S17 2.945693 1_555
Na2 S3 2.945787 1_555
Na3 S13 2.768899 1_565
Na3 S29 2.825713 1_555
Na3 S8 2.886274 1_555
Na3 S20 2.910058 1_555
Na3 S18 2.917047 1_555
Na3 S0 2.918355 1_556
Na4 S14 2.750719 1_555
Na4 S9 2.803052 1_555
Na4 S27 2.834670 1_545
Na4 S21 2.861257 1_655
Na4 S19 2.902905 1_555
Na4 S1 2.910271 1_555
Na5 S0 2.768912 1_545
Na5 S22 2.825708 1_555
Na5 S15 2.886418 1_555
Na5 S28 2.909926 1_555
Na5 S5 2.916976 1_555
Na5 S13 2.918424 1_554
Na6 S16 2.768895 1_655
Na6 S29 2.825727 1_555
Na6 S1 2.886333 1_555
Na6 S20 2.909987 1_555
Na6 S14 2.917030 1_555
Na6 S6 2.918380 1_556
Na7 S2 2.750709 1_555
Na7 S17 2.803054 1_555
Na7 S24 2.834703 1_565
Na7 S26 2.861255 1_455
Na7 S7 2.902876 1_555
Na7 S11 2.910256 1_555
Na8 S18 2.750711 1_555
Na8 S3 2.803030 1_555
Na8 S27 2.834677 1_455
Na8 S21 2.861256 1_565
Na8 S12 2.902908 1_555
Na8 S8 2.910271 1_555
Na9 S19 2.780880 1_555
Na9 S4 2.780906 1_555
Na9 S23 2.853737 1_555
Na9 S25 2.853801 1_555
Na9 S10 2.945682 1_555
Na9 S9 2.945776 1_555
Na10 S25 2.727182 1_555
Na10 S22 2.747866 1_555
Na10 S2 2.913389 1_555
Na10 S5 2.913395 1_555
Na10 S10 2.930048 1_555
Na10 S17 2.930066 1_555
Na11 S26 2.720472 1_555
Na11 S20 2.733272 1_554
Na11 S6 2.880817 1_555
Na11 S0 2.880829 1_555
Na11 S15 2.934914 1_565
Na11 S11 2.934925 1_655
Na12 S24 2.843813 1_555
Na12 S27 2.843842 1_445
Na12 S19 2.889954 1_455
Na12 S12 2.889960 1_545
Na12 S4 2.890002 1_455
Na12 S7 2.890006 1_545
Na13 S21 2.720504 1_555
Na13 S28 2.733254 1_556
Na13 S13 2.880791 1_555
Na13 S16 2.880803 1_555
Na13 S1 2.934920 1_455
Na13 S8 2.934927 1_545
Na14 S23 2.727172 1_555
Na14 S29 2.747872 1_555
Na14 S18 2.913388 1_555
Na14 S14 2.913394 1_555
Na14 S9 2.930026 1_555
Na14 S3 2.930038 1_555
Na15 S2 2.787319 1_555
Na15 S5 2.787328 1_555
Na15 S19 2.788614 1_455
Na15 S12 2.788615 1_545
Na15 S21 2.795528 1_555
Na15 S28 2.796554 1_555
Na16 S25 2.767244 1_555
Na16 S22 2.780285 1_556
Na16 S3 2.792786 1_555
Na16 S9 2.792815 1_555
Na16 S16 2.793424 1_555
Na16 S13 2.793453 1_555
Na17 S23 2.767262 1_555
Na17 S29 2.780277 1_554
Na17 S17 2.792776 1_555
Na17 S10 2.792802 1_555
Na17 S0 2.793406 1_555
Na17 S6 2.793439 1_555
Na18 S14 2.787314 1_555
Na18 S18 2.787316 1_555
Na18 S4 2.788638 1_565
Na18 S7 2.788645 1_655
Na18 S26 2.795509 1_555
Na18 S20 2.796578 1_555
S0 Zr2 2.573232 1_555
S0 Zr8 2.586171 1_555
S1 Zr9 2.614876 1_556
S1 Zr10 2.643547 1_656
S1 Zr0 2.680101 1_556
S2 Zr4 2.568979 1_455
S2 Zr6 2.598629 1_555
S3 Zr1 2.569106 1_555
S3 Zr7 2.572351 1_556
S4 Zr3 2.574771 1_555
S4 Zr5 2.587588 1_555
S5 Zr8 2.568970 1_545
S5 Zr3 2.598631 1_555
S6 Zr9 2.573220 1_555
S6 Zr4 2.586165 1_555
S7 Zr6 2.574763 1_555
S7 Zr1 2.587588 1_555
S8 Zr2 2.614858 1_556
S8 Zr10 2.643536 1_566
S8 Zr7 2.680082 1_556
S9 Zr5 2.569104 1_555
S9 Zr0 2.572344 1_556
S10 Zr9 2.569061 1_555
S10 Zr0 2.572357 1_555
S11 Zr1 2.614908 1_554
S11 Zr10 2.643563 1_565
S11 Zr7 2.680073 1_555
S12 Zr8 2.574794 1_555
S12 Zr2 2.587590 1_555
S13 Zr5 2.573239 1_555
S13 Zr3 2.586176 1_555
S14 Zr6 2.569041 1_655
S14 Zr4 2.598621 1_555
S15 Zr5 2.614909 1_554
S15 Zr10 2.643580 1_655
S15 Zr0 2.680077 1_555
S16 Zr1 2.573235 1_555
S16 Zr6 2.586180 1_555
S17 Zr2 2.569021 1_555
S17 Zr7 2.572335 1_555
S18 Zr3 2.569043 1_565
S18 Zr8 2.598616 1_555
S19 Zr4 2.574786 1_555
S19 Zr9 2.587574 1_555
S20 Zr1 2.583703 1_655
S20 Zr5 2.583707 1_565
S21 Zr3 2.596492 1_555
S21 Zr6 2.596499 1_555
S22 Zr7 2.568935 1_555
S22 Zr0 2.568939 1_555
S23 Zr4 2.595906 1_555
S23 Zr8 2.596005 1_555
S24 Zr2 2.631332 1_545
S24 Zr9 2.631347 1_455
S24 Zr10 2.659698 1_555
S25 Zr6 2.595914 1_555
S25 Zr3 2.595914 1_555
S26 Zr4 2.596469 1_555
S26 Zr8 2.596475 1_555
S27 Zr1 2.631354 1_655
S27 Zr5 2.631377 1_565
S27 Zr10 2.659763 1_666
S28 Zr9 2.583716 1_455
S28 Zr2 2.583729 1_545
S29 Zr7 2.568936 1_556
S29 Zr0 2.568941 1_556
