# generated using pymatgen
data_TbPu
_symmetry_space_group_name_H-M   'P 1'
_cell_length_a   7.10771100
_cell_length_b   7.10771100
_cell_length_c   11.72284200
_cell_angle_alpha   90.00000000
_cell_angle_beta   90.00000000
_cell_angle_gamma   119.99999069
_symmetry_Int_Tables_number   1
_chemical_formula_structural   TbPu
_chemical_formula_sum   'Tb8 Pu8'
_cell_volume   512.88867093
_cell_formula_units_Z   8
loop_
 _symmetry_equiv_pos_site_id
 _symmetry_equiv_pos_as_xyz
  1  'x, y, z'
loop_
 _atom_site_type_symbol
 _atom_site_label
 _atom_site_symmetry_multiplicity
 _atom_site_fract_x
 _atom_site_fract_y
 _atom_site_fract_z
 _atom_site_occupancy
  Tb  Tb0_0  1  0.00000000  0.00000000  0.00000000  1
  Tb  Tb0_1  1  0.00000000  0.00000000  0.50000000  1
  Tb  Tb0_2  1  0.00000000  0.50000000  0.00000000  1
  Tb  Tb0_3  1  0.00000000  0.50000000  0.50000000  1
  Tb  Tb0_4  1  0.50000000  0.00000000  0.00000000  1
  Tb  Tb0_5  1  0.50000000  0.00000000  0.50000000  1
  Tb  Tb0_6  1  0.50000000  0.50000000  0.00000000  1
  Tb  Tb0_7  1  0.50000000  0.50000000  0.50000000  1
  Pu  Pu0_0  1  0.16666650  0.33333350  0.25000000  1
  Pu  Pu0_1  1  0.16666650  0.33333350  0.75000000  1
  Pu  Pu0_2  1  0.16666650  0.83333350  0.25000000  1
  Pu  Pu0_3  1  0.16666650  0.83333350  0.75000000  1
  Pu  Pu0_4  1  0.66666650  0.33333350  0.25000000  1
  Pu  Pu0_5  1  0.66666650  0.33333350  0.75000000  1
  Pu  Pu0_6  1  0.66666650  0.83333350  0.25000000  1
  Pu  Pu0_7  1  0.66666650  0.83333350  0.75000000  1
loop_
_geom_bond_atom_site_label_1
_geom_bond_atom_site_label_2
_geom_bond_distance
_geom_bond_site_symmetry_2
Tb0_0 Tb0_4 3.553855 1_555
Tb0_0 Tb0_2 3.553855 1_555
Tb0_0 Tb0_4 3.553855 1_455
Tb0_0 Tb0_2 3.553855 1_545
Tb0_0 Tb0_6 3.553856 1_555
Tb0_0 Tb0_6 3.553856 1_445
Tb0_1 Tb0_5 3.553855 1_555
Tb0_1 Tb0_3 3.553855 1_545
Tb0_1 Tb0_3 3.553855 1_555
Tb0_1 Tb0_5 3.553855 1_455
Tb0_1 Tb0_7 3.553856 1_555
Tb0_1 Tb0_7 3.553856 1_445
Tb0_2 Tb0_6 3.553855 1_555
Tb0_2 Tb0_6 3.553855 1_455
Tb0_2 Tb0_4 3.553856 1_565
Tb0_2 Tb0_4 3.553856 1_455
Tb0_3 Tb0_7 3.553855 1_455
Tb0_3 Tb0_7 3.553855 1_555
Tb0_3 Tb0_5 3.553856 1_565
Tb0_3 Tb0_5 3.553856 1_455
Tb0_4 Tb0_6 3.553855 1_555
Tb0_4 Tb0_6 3.553855 1_545
Tb0_5 Tb0_7 3.553855 1_555
Tb0_5 Tb0_7 3.553855 1_545
Pu0_0 Pu0_4 3.553855 1_455
Pu0_0 Pu0_2 3.553855 1_555
Pu0_0 Pu0_2 3.553855 1_545
Pu0_0 Pu0_4 3.553855 1_555
Pu0_0 Pu0_6 3.553856 1_445
Pu0_0 Pu0_6 3.553856 1_555
Pu0_0 Tb0_3 3.577572 1_555
Pu0_0 Tb0_2 3.577572 1_555
Pu0_0 Tb0_0 3.577573 1_555
Pu0_0 Tb0_6 3.577573 1_555
Pu0_0 Tb0_1 3.577573 1_555
Pu0_0 Tb0_7 3.577573 1_555
Pu0_1 Pu0_3 3.553855 1_545
Pu0_1 Pu0_3 3.553855 1_555
Pu0_1 Pu0_5 3.553855 1_455
Pu0_1 Pu0_5 3.553855 1_555
Pu0_1 Pu0_7 3.553856 1_555
Pu0_1 Pu0_7 3.553856 1_445
Pu0_1 Tb0_2 3.577572 1_556
Pu0_1 Tb0_3 3.577572 1_555
Pu0_1 Tb0_0 3.577573 1_556
Pu0_1 Tb0_1 3.577573 1_555
Pu0_1 Tb0_7 3.577573 1_555
Pu0_1 Tb0_6 3.577573 1_556
Pu0_2 Pu0_6 3.553855 1_555
Pu0_2 Pu0_6 3.553855 1_455
Pu0_2 Pu0_4 3.553856 1_565
Pu0_2 Pu0_4 3.553856 1_455
Pu0_2 Tb0_0 3.577572 1_565
Pu0_2 Tb0_1 3.577572 1_565
Pu0_2 Tb0_3 3.577573 1_555
Pu0_2 Tb0_4 3.577573 1_565
Pu0_2 Tb0_5 3.577573 1_565
Pu0_2 Tb0_2 3.577573 1_555
Pu0_3 Pu0_7 3.553855 1_555
Pu0_3 Pu0_7 3.553855 1_455
Pu0_3 Pu0_5 3.553856 1_565
Pu0_3 Pu0_5 3.553856 1_455
Pu0_3 Tb0_0 3.577572 1_566
Pu0_3 Tb0_1 3.577572 1_565
Pu0_3 Tb0_3 3.577573 1_555
Pu0_3 Tb0_5 3.577573 1_565
Pu0_3 Tb0_4 3.577573 1_566
Pu0_3 Tb0_2 3.577573 1_556
Pu0_4 Pu0_6 3.553855 1_545
Pu0_4 Pu0_6 3.553855 1_555
Pu0_4 Tb0_6 3.577572 1_555
Pu0_4 Tb0_7 3.577572 1_555
Pu0_4 Tb0_4 3.577573 1_555
Pu0_4 Tb0_5 3.577573 1_555
Pu0_4 Tb0_2 3.577573 1_655
Pu0_4 Tb0_3 3.577573 1_655
Pu0_5 Pu0_7 3.553855 1_545
Pu0_5 Pu0_7 3.553855 1_555
Pu0_5 Tb0_6 3.577572 1_556
Pu0_5 Tb0_7 3.577572 1_555
Pu0_5 Tb0_4 3.577573 1_556
Pu0_5 Tb0_5 3.577573 1_555
Pu0_5 Tb0_2 3.577573 1_656
Pu0_5 Tb0_3 3.577573 1_655
Pu0_6 Tb0_5 3.577572 1_565
Pu0_6 Tb0_4 3.577572 1_565
Pu0_6 Tb0_7 3.577573 1_555
Pu0_6 Tb0_1 3.577573 1_665
Pu0_6 Tb0_6 3.577573 1_555
Pu0_6 Tb0_0 3.577573 1_665
Pu0_7 Tb0_4 3.577572 1_566
Pu0_7 Tb0_5 3.577572 1_565
Pu0_7 Tb0_6 3.577573 1_556
Pu0_7 Tb0_1 3.577573 1_665
Pu0_7 Tb0_7 3.577573 1_555
Pu0_7 Tb0_0 3.577573 1_666
