# generated using pymatgen
data_Ba6LiNb2Ir(ClO6)2
_symmetry_space_group_name_H-M   'P 1'
_cell_length_a   6.12271158
_cell_length_b   6.12218430
_cell_length_c   15.21938484
_cell_angle_alpha   84.83982403
_cell_angle_beta   95.14896230
_cell_angle_gamma   121.35666778
_symmetry_Int_Tables_number   1
_chemical_formula_structural   Ba6LiNb2Ir(ClO6)2
_chemical_formula_sum   'Ba6 Li1 Nb2 Ir1 Cl2 O12'
_cell_volume   484.57270257
_cell_formula_units_Z   1
loop_
 _symmetry_equiv_pos_site_id
 _symmetry_equiv_pos_as_xyz
  1  'x, y, z'
loop_
 _atom_site_type_symbol
 _atom_site_label
 _atom_site_symmetry_multiplicity
 _atom_site_fract_x
 _atom_site_fract_y
 _atom_site_fract_z
 _atom_site_occupancy
  Ba  Ba0  1  0.32928900  0.67059400  0.36338400  1
  Ba  Ba1  1  0.35170500  0.64839600  0.78300700  1
  Ba  Ba2  1  0.67071100  0.32940600  0.63661600  1
  Ba  Ba3  1  0.71649100  0.28356200  0.90124700  1
  Ba  Ba4  1  0.28350900  0.71643800  0.09875300  1
  Ba  Ba5  1  0.64829500  0.35160400  0.21699300  1
  Li  Li0  1  0.50000000  0.50000000  0.00000000  1
  Nb  Nb0  1  0.02907100  0.97109000  0.81892400  1
  Nb  Nb1  1  0.97092900  0.02891000  0.18107600  1
  Ir  Ir0  1  0.00000000  0.00000000  0.00000000  1
  Cl  Cl0  1  0.65537700  0.34475500  0.42419200  1
  Cl  Cl1  1  0.34462300  0.65524500  0.57580800  1
  O  O0  1  0.20528800  0.29837700  0.90867100  1
  O  O1  1  0.34794900  0.12572200  0.76063100  1
  O  O2  1  0.12568500  0.34784800  0.23935500  1
  O  O3  1  0.87431500  0.65215200  0.76064500  1
  O  O4  1  0.86217700  0.13779300  0.75521400  1
  O  O5  1  0.79471200  0.70162300  0.09132900  1
  O  O6  1  0.13782300  0.86220700  0.24478600  1
  O  O7  1  0.29846400  0.20531400  0.09134700  1
  O  O8  1  0.83845500  0.16159500  0.06935700  1
  O  O9  1  0.70153600  0.79468600  0.90865300  1
  O  O10  1  0.65205100  0.87427800  0.23936900  1
  O  O11  1  0.16154500  0.83840500  0.93064300  1
loop_
_geom_bond_atom_site_label_1
_geom_bond_atom_site_label_2
_geom_bond_distance
_geom_bond_site_symmetry_2
Ba0 O6 2.584361 1_555
Ba0 O10 2.589236 1_555
Ba0 O2 2.589692 1_555
Ba0 Cl1 3.220209 1_555
Ba0 Cl0 3.507612 1_555
Ba0 Cl0 3.694343 1_455
Ba0 Cl0 3.695537 1_565
Ba1 O9 2.573534 1_555
Ba1 O0 2.573835 1_555
Ba1 O1 2.923308 1_565
Ba1 O3 2.924007 1_455
Ba1 O4 3.031178 1_565
Ba1 O4 3.032093 1_455
Ba1 Cl1 3.146648 1_555
Ba1 O11 3.179112 1_555
Ba1 O3 3.236124 1_555
Ba1 O1 3.236346 1_555
Ba2 O4 2.584361 1_555
Ba2 O1 2.589236 1_555
Ba2 O3 2.589692 1_555
Ba2 Cl0 3.220209 1_555
Ba2 Cl1 3.507612 1_555
Ba2 Cl1 3.694343 1_655
Ba2 Cl1 3.695537 1_545
Ba3 O8 2.748637 1_556
Ba3 O3 2.799668 1_555
Ba3 O1 2.800246 1_555
Ba3 O4 2.841268 1_555
Ba3 O9 2.938541 1_545
Ba3 O0 2.938754 1_655
Ba3 O11 3.096029 1_655
Ba3 O11 3.096576 1_545
Ba4 O11 2.748637 1_554
Ba4 O2 2.799668 1_555
Ba4 O10 2.800246 1_555
Ba4 O6 2.841268 1_555
Ba4 O7 2.938541 1_565
Ba4 O5 2.938754 1_455
Ba4 O8 3.096029 1_455
Ba4 O8 3.096576 1_565
Ba5 O7 2.573534 1_555
Ba5 O5 2.573835 1_555
Ba5 O10 2.923308 1_545
Ba5 O2 2.924007 1_655
Ba5 O6 3.031178 1_545
Ba5 O6 3.032093 1_655
Ba5 Cl0 3.146648 1_555
Ba5 O8 3.179112 1_555
Ba5 O2 3.236124 1_555
Ba5 O10 3.236346 1_555
Li0 O9 2.061588 1_554
Li0 O7 2.061588 1_555
Li0 O5 2.062055 1_555
Li0 O0 2.062055 1_554
Nb0 O1 1.931685 1_565
Nb0 O3 1.931930 1_455
Nb0 O4 1.937897 1_465
Nb0 O11 2.097254 1_555
Nb0 O0 2.241092 1_565
Nb0 O9 2.241690 1_455
Nb1 O10 1.931685 1_545
Nb1 O2 1.931930 1_655
Nb1 O6 1.937897 1_645
Nb1 O8 2.097254 1_555
Nb1 O5 2.241092 1_545
Nb1 O7 2.241690 1_655
Ir0 O0 2.077515 1_554
Ir0 O5 2.077515 1_445
Ir0 O9 2.078452 1_444
Ir0 O7 2.078452 1_555
Ir0 O11 2.113032 1_544
Ir0 O8 2.113032 1_455
