# generated using pymatgen
data_Li3Fe2(SiO4)2
_symmetry_space_group_name_H-M   'P 1'
_cell_length_a   6.44731574
_cell_length_b   7.35517112
_cell_length_c   7.61588823
_cell_angle_alpha   90.02139486
_cell_angle_beta   90.86068248
_cell_angle_gamma   89.97929588
_symmetry_Int_Tables_number   1
_chemical_formula_structural   Li3Fe2(SiO4)2
_chemical_formula_sum   'Li6 Fe4 Si4 O16'
_cell_volume   361.11308273
_cell_formula_units_Z   2
loop_
 _symmetry_equiv_pos_site_id
 _symmetry_equiv_pos_as_xyz
  1  'x, y, z'
loop_
 _atom_site_type_symbol
 _atom_site_label
 _atom_site_symmetry_multiplicity
 _atom_site_fract_x
 _atom_site_fract_y
 _atom_site_fract_z
 _atom_site_occupancy
  Li  Li0  1  0.24904600  0.82053300  0.99534700  1
  Li  Li1  1  0.25125100  0.32071400  0.50443200  1
  Li  Li2  1  0.49943000  0.50078300  0.18980400  1
  Li  Li3  1  0.49951300  0.99813500  0.69620000  1
  Li  Li4  1  0.00049400  0.49849200  0.80369000  1
  Li  Li5  1  0.00049900  0.00062700  0.31039000  1
  Fe  Fe0  1  0.98649700  0.99601500  0.68024100  1
  Fe  Fe1  1  0.50716400  0.99713600  0.31845200  1
  Fe  Fe2  1  0.99288800  0.49737400  0.18140600  1
  Fe  Fe3  1  0.51367700  0.49556600  0.82000600  1
  Si  Si0  1  0.25944300  0.18445800  0.00378200  1
  Si  Si1  1  0.24023900  0.68453400  0.49635300  1
  Si  Si2  1  0.73898200  0.82407500  0.00464000  1
  Si  Si3  1  0.76119200  0.32412600  0.49527000  1
  O  O0  1  0.75753900  0.45136600  0.31597200  1
  O  O1  1  0.74558500  0.94101400  0.82528300  1
  O  O2  1  0.75443700  0.44141600  0.67455900  1
  O  O3  1  0.74244800  0.95150400  0.18388600  1
  O  O4  1  0.23712400  0.53936100  0.32429900  1
  O  O5  1  0.24498500  0.04652000  0.83305800  1
  O  O6  1  0.25510400  0.54666800  0.66697300  1
  O  O7  1  0.26277000  0.03940900  0.17575000  1
  O  O8  1  0.46337700  0.31177200  0.01128900  1
  O  O9  1  0.44795100  0.81601500  0.48693200  1
  O  O10  1  0.05153000  0.31583500  0.01300300  1
  O  O11  1  0.03607800  0.81170600  0.48885200  1
  O  O12  1  0.52562200  0.69975500  0.00945600  1
  O  O13  1  0.54540100  0.19441400  0.48465700  1
  O  O14  1  0.95497800  0.69450900  0.01541300  1
  O  O15  1  0.97475700  0.19991000  0.49060400  1
loop_
_geom_bond_atom_site_label_1
_geom_bond_atom_site_label_2
_geom_bond_distance
_geom_bond_site_symmetry_2
Li0 O12 1.993383 1_556
Li0 O5 2.071634 1_565
Li0 O7 2.117072 1_566
Li0 O14 2.118314 1_456
Li1 O15 1.993449 1_455
Li1 O6 2.071854 1_555
Li1 O4 2.115273 1_555
Li1 O13 2.118838 1_555
Li2 O0 1.943310 1_555
Li2 O8 1.955611 1_555
Li2 O4 2.010282 1_555
Li2 O12 2.016296 1_555
Li3 O1 1.900770 1_555
Li3 O5 1.989138 1_565
Li3 O9 2.104216 1_555
Li3 O13 2.187160 1_565
Li4 O2 1.900893 1_455
Li4 O6 1.989079 1_555
Li4 O10 2.107103 1_556
Li4 O14 2.185617 1_456
Li5 O3 1.943913 1_445
Li5 O11 1.955135 1_545
Li5 O7 2.011161 1_555
Li5 O15 2.016158 1_455
Fe0 O1 1.961816 1_555
Fe0 O11 2.019084 1_655
Fe0 O5 2.052259 1_665
Fe0 O15 2.083002 1_565
Fe1 O3 1.873543 1_555
Fe1 O9 1.892936 1_555
Fe1 O7 1.925889 1_565
Fe1 O13 1.938549 1_565
Fe2 O0 1.874718 1_555
Fe2 O10 1.893058 1_655
Fe2 O4 1.925582 1_655
Fe2 O14 1.937039 1_555
Fe3 O2 1.961128 1_555
Fe3 O8 2.017635 1_556
Fe3 O6 2.054350 1_555
Fe3 O12 2.082872 1_556
O0 Si3 1.655600 1_555
O1 Si2 1.615581 1_556
O2 Si3 1.615997 1_555
O3 Si2 1.655490 1_555
O4 Si1 1.689888 1_555
O5 Si0 1.650460 1_556
O6 Si1 1.650185 1_555
O7 Si0 1.689414 1_555
O8 Si0 1.614777 1_555
O9 Si1 1.654586 1_555
O10 Si0 1.654508 1_555
O11 Si1 1.614836 1_555
O12 Si2 1.652933 1_555
O13 Si3 1.688169 1_555
O14 Si2 1.688161 1_555
O15 Si3 1.653006 1_555
