# generated using pymatgen
data_Ba(GaO3)2
_symmetry_space_group_name_H-M   'P 1'
_cell_length_a   7.34920300
_cell_length_b   12.60580100
_cell_length_c   12.77381100
_cell_angle_alpha   90.00000000
_cell_angle_beta   90.00000000
_cell_angle_gamma   90.00000000
_symmetry_Int_Tables_number   1
_chemical_formula_structural   Ba(GaO3)2
_chemical_formula_sum   'Ba8 Ga16 O48'
_cell_volume   1183.39894194
_cell_formula_units_Z   8
loop_
 _symmetry_equiv_pos_site_id
 _symmetry_equiv_pos_as_xyz
  1  'x, y, z'
loop_
 _atom_site_type_symbol
 _atom_site_label
 _atom_site_symmetry_multiplicity
 _atom_site_fract_x
 _atom_site_fract_y
 _atom_site_fract_z
 _atom_site_occupancy
  Ba  Ba0  1  0.88715500  0.15500400  0.07396900  1
  Ba  Ba1  1  0.61284500  0.65500400  0.92603100  1
  Ba  Ba2  1  0.38715500  0.84499600  0.42603100  1
  Ba  Ba3  1  0.11284500  0.34499600  0.57396900  1
  Ba  Ba4  1  0.11284500  0.84499600  0.92603100  1
  Ba  Ba5  1  0.38715500  0.34499600  0.07396900  1
  Ba  Ba6  1  0.61284500  0.15500400  0.57396900  1
  Ba  Ba7  1  0.88715500  0.65500400  0.42603100  1
  Ga  Ga0  1  0.23607100  0.15200600  0.33435800  1
  Ga  Ga1  1  0.26392900  0.65200600  0.66564200  1
  Ga  Ga2  1  0.73607100  0.84799400  0.16564200  1
  Ga  Ga3  1  0.76392900  0.34799400  0.83435800  1
  Ga  Ga4  1  0.76392900  0.84799400  0.66564200  1
  Ga  Ga5  1  0.73607100  0.34799400  0.33435800  1
  Ga  Ga6  1  0.26392900  0.15200600  0.83435800  1
  Ga  Ga7  1  0.23607100  0.65200600  0.16564200  1
  Ga  Ga8  1  0.87623300  0.49086600  0.14599900  1
  Ga  Ga9  1  0.62376700  0.99086600  0.85400100  1
  Ga  Ga10  1  0.37623300  0.50913400  0.35400100  1
  Ga  Ga11  1  0.12376700  0.00913400  0.64599900  1
  Ga  Ga12  1  0.12376700  0.50913400  0.85400100  1
  Ga  Ga13  1  0.37623300  0.00913400  0.14599900  1
  Ga  Ga14  1  0.62376700  0.49086600  0.64599900  1
  Ga  Ga15  1  0.87623300  0.99086600  0.35400100  1
  O  O0  1  0.00593100  0.61409000  0.11212600  1
  O  O1  1  0.49406900  0.11409000  0.88787400  1
  O  O2  1  0.50593100  0.38591000  0.38787400  1
  O  O3  1  0.99406900  0.88591000  0.61212600  1
  O  O4  1  0.99406900  0.38591000  0.88787400  1
  O  O5  1  0.50593100  0.88591000  0.11212600  1
  O  O6  1  0.49406900  0.61409000  0.61212600  1
  O  O7  1  0.00593100  0.11409000  0.38787400  1
  O  O8  1  0.35998600  0.02882000  0.29064600  1
  O  O9  1  0.14001400  0.52882000  0.70935400  1
  O  O10  1  0.85998600  0.97118000  0.20935400  1
  O  O11  1  0.64001400  0.47118000  0.79064600  1
  O  O12  1  0.64001400  0.97118000  0.70935400  1
  O  O13  1  0.85998600  0.47118000  0.29064600  1
  O  O14  1  0.14001400  0.02882000  0.79064600  1
  O  O15  1  0.35998600  0.52882000  0.20935400  1
  O  O16  1  0.19404500  0.22278100  0.20885700  1
  O  O17  1  0.30595500  0.72278100  0.79114300  1
  O  O18  1  0.69404500  0.77721900  0.29114300  1
  O  O19  1  0.80595500  0.27721900  0.70885700  1
  O  O20  1  0.80595500  0.77721900  0.79114300  1
  O  O21  1  0.69404500  0.27721900  0.20885700  1
  O  O22  1  0.30595500  0.22278100  0.70885700  1
  O  O23  1  0.19404500  0.72278100  0.29114300  1
  O  O24  1  0.33598400  0.22313600  0.44524800  1
  O  O25  1  0.16401600  0.72313600  0.55475200  1
  O  O26  1  0.83598400  0.77686400  0.05475200  1
  O  O27  1  0.66401600  0.27686400  0.94524800  1
  O  O28  1  0.66401600  0.77686400  0.55475200  1
  O  O29  1  0.83598400  0.27686400  0.44524800  1
  O  O30  1  0.16401600  0.22313600  0.94524800  1
  O  O31  1  0.33598400  0.72313600  0.05475200  1
  O  O32  1  0.99153200  0.37331500  0.08702300  1
  O  O33  1  0.50846800  0.87331500  0.91297700  1
  O  O34  1  0.49153200  0.62668500  0.41297700  1
  O  O35  1  0.00846800  0.12668500  0.58702300  1
  O  O36  1  0.00846800  0.62668500  0.91297700  1
  O  O37  1  0.49153200  0.12668500  0.08702300  1
  O  O38  1  0.50846800  0.37331500  0.58702300  1
  O  O39  1  0.99153200  0.87331500  0.41297700  1
  O  O40  1  0.14805900  0.99878300  0.08371600  1
  O  O41  1  0.35194100  0.49878300  0.91628400  1
  O  O42  1  0.64805900  0.00121700  0.41628400  1
  O  O43  1  0.85194100  0.50121700  0.58371600  1
  O  O44  1  0.85194100  0.00121700  0.91628400  1
  O  O45  1  0.64805900  0.50121700  0.08371600  1
  O  O46  1  0.35194100  0.99878300  0.58371600  1
  O  O47  1  0.14805900  0.49878300  0.41628400  1
loop_
_geom_bond_atom_site_label_1
_geom_bond_atom_site_label_2
_geom_bond_distance
_geom_bond_site_symmetry_2
Ba0 O21 2.712285 1_555
Ba0 O40 2.751394 1_645
Ba0 O30 2.753408 1_654
Ba0 O27 2.784344 1_554
Ba0 O44 2.807549 1_554
Ba0 O32 2.861757 1_555
Ba0 O10 2.898323 1_545
Ba0 O37 2.934089 1_555
Ba0 O16 2.964057 1_655
Ba1 O20 2.712285 1_555
Ba1 O41 2.751394 1_555
Ba1 O31 2.753408 1_556
Ba1 O26 2.784344 1_556
Ba1 O45 2.807549 1_556
Ba1 O33 2.861757 1_555
Ba1 O11 2.898323 1_555
Ba1 O36 2.934089 1_655
Ba1 O17 2.964057 1_555
Ba2 O23 2.712285 1_555
Ba2 O42 2.751394 1_565
Ba2 O28 2.753408 1_555
Ba2 O25 2.784344 1_555
Ba2 O46 2.807549 1_555
Ba2 O34 2.861757 1_555
Ba2 O8 2.898323 1_565
Ba2 O39 2.934089 1_455
Ba2 O18 2.964057 1_555
Ba3 O22 2.712285 1_555
Ba3 O43 2.751394 1_455
Ba3 O29 2.753408 1_455
Ba3 O24 2.784344 1_555
Ba3 O47 2.807549 1_555
Ba3 O35 2.861757 1_555
Ba3 O9 2.898323 1_555
Ba3 O38 2.934089 1_555
Ba3 O19 2.964057 1_455
Ba4 O17 2.712285 1_555
Ba4 O44 2.751394 1_465
Ba4 O26 2.753408 1_456
Ba4 O31 2.784344 1_556
Ba4 O40 2.807549 1_556
Ba4 O36 2.861757 1_555
Ba4 O14 2.898323 1_565
Ba4 O33 2.934089 1_555
Ba4 O20 2.964057 1_455
Ba5 O16 2.712285 1_555
Ba5 O45 2.751394 1_555
Ba5 O27 2.753408 1_554
Ba5 O30 2.784344 1_554
Ba5 O41 2.807549 1_554
Ba5 O37 2.861757 1_555
Ba5 O15 2.898323 1_555
Ba5 O32 2.934089 1_455
Ba5 O21 2.964057 1_555
Ba6 O19 2.712285 1_555
Ba6 O46 2.751394 1_545
Ba6 O24 2.753408 1_555
Ba6 O29 2.784344 1_555
Ba6 O42 2.807549 1_555
Ba6 O38 2.861757 1_555
Ba6 O12 2.898323 1_545
Ba6 O35 2.934089 1_655
Ba6 O22 2.964057 1_555
Ba7 O18 2.712285 1_555
Ba7 O47 2.751394 1_655
Ba7 O25 2.753408 1_655
Ba7 O28 2.784344 1_555
Ba7 O43 2.807549 1_555
Ba7 O39 2.861757 1_555
Ba7 O13 2.898323 1_555
Ba7 O34 2.934089 1_555
Ba7 O23 2.964057 1_655
Ga0 O24 1.830188 1_555
Ga0 O16 1.860479 1_555
Ga0 O8 1.884801 1_555
Ga0 O7 1.885845 1_555
Ga1 O25 1.830188 1_555
Ga1 O17 1.860479 1_555
Ga1 O9 1.884801 1_555
Ga1 O6 1.885845 1_555
Ga2 O26 1.830188 1_555
Ga2 O18 1.860479 1_555
Ga2 O10 1.884801 1_555
Ga2 O5 1.885845 1_555
Ga3 O27 1.830188 1_555
Ga3 O19 1.860479 1_555
Ga3 O11 1.884801 1_555
Ga3 O4 1.885845 1_555
Ga4 O28 1.830188 1_555
Ga4 O20 1.860479 1_555
Ga4 O12 1.884801 1_555
Ga4 O3 1.885845 1_555
Ga5 O29 1.830188 1_555
Ga5 O21 1.860479 1_555
Ga5 O13 1.884801 1_555
Ga5 O2 1.885845 1_555
Ga6 O30 1.830188 1_555
Ga6 O22 1.860479 1_555
Ga6 O14 1.884801 1_555
Ga6 O1 1.885845 1_555
Ga7 O31 1.830188 1_555
Ga7 O23 1.860479 1_555
Ga7 O15 1.884801 1_555
Ga7 O0 1.885845 1_555
Ga8 O45 1.860638 1_555
Ga8 O32 1.865837 1_555
Ga8 O13 1.868103 1_555
Ga8 O0 1.873131 1_655
Ga9 O44 1.860638 1_565
Ga9 O33 1.865837 1_555
Ga9 O12 1.868103 1_555
Ga9 O1 1.873131 1_565
Ga10 O47 1.860638 1_555
Ga10 O34 1.865837 1_555
Ga10 O15 1.868103 1_555
Ga10 O2 1.873131 1_555
Ga11 O46 1.860638 1_545
Ga11 O35 1.865837 1_555
Ga11 O14 1.868103 1_555
Ga11 O3 1.873131 1_445
Ga12 O41 1.860638 1_555
Ga12 O36 1.865837 1_555
Ga12 O9 1.868103 1_555
Ga12 O4 1.873131 1_455
Ga13 O40 1.860638 1_545
Ga13 O37 1.865837 1_555
Ga13 O8 1.868103 1_555
Ga13 O5 1.873131 1_545
Ga14 O43 1.860638 1_555
Ga14 O38 1.865837 1_555
Ga14 O11 1.868103 1_555
Ga14 O6 1.873131 1_555
Ga15 O42 1.860638 1_565
Ga15 O39 1.865837 1_555
Ga15 O10 1.868103 1_555
Ga15 O7 1.873131 1_665
