# generated using pymatgen
data_CaY3Ti4O12
_symmetry_space_group_name_H-M   'P 1'
_cell_length_a   7.72033900
_cell_length_b   5.35155300
_cell_length_c   5.64787814
_cell_angle_alpha   89.90890095
_cell_angle_beta   90.00000000
_cell_angle_gamma   90.00000000
_symmetry_Int_Tables_number   1
_chemical_formula_structural   CaY3Ti4O12
_chemical_formula_sum   'Ca1 Y3 Ti4 O12'
_cell_volume   233.34632751
_cell_formula_units_Z   1
loop_
 _symmetry_equiv_pos_site_id
 _symmetry_equiv_pos_as_xyz
  1  'x, y, z'
loop_
 _atom_site_type_symbol
 _atom_site_label
 _atom_site_symmetry_multiplicity
 _atom_site_fract_x
 _atom_site_fract_y
 _atom_site_fract_z
 _atom_site_occupancy
  Ca  Ca0  1  0.00000000  0.01598000  0.93868800  1
  Y  Y0  1  0.00000000  0.47979600  0.43197000  1
  Y  Y1  1  0.50000000  0.98197300  0.06864800  1
  Y  Y2  1  0.50000000  0.51801200  0.56976600  1
  Ti  Ti0  1  0.24774800  0.00185000  0.50148800  1
  Ti  Ti1  1  0.75271700  0.49802200  0.99992000  1
  Ti  Ti2  1  0.75225200  0.00185000  0.50148800  1
  Ti  Ti3  1  0.24728300  0.49802200  0.99992000  1
  O  O0  1  0.00000000  0.59257700  0.03509300  1
  O  O1  1  0.00000000  0.89267800  0.53046000  1
  O  O2  1  0.50000000  0.38835800  0.96219900  1
  O  O3  1  0.50000000  0.10747600  0.46285700  1
  O  O4  1  0.68922700  0.80330300  0.80021300  1
  O  O5  1  0.30687000  0.69569000  0.29991700  1
  O  O6  1  0.20006500  0.19947600  0.20519100  1
  O  O7  1  0.80006500  0.31323400  0.69343000  1
  O  O8  1  0.79993500  0.19947600  0.20519100  1
  O  O9  1  0.19993500  0.31323400  0.69343000  1
  O  O10  1  0.31077300  0.80330300  0.80021300  1
  O  O11  1  0.69313000  0.69569000  0.29991700  1
loop_
_geom_bond_atom_site_label_1
_geom_bond_atom_site_label_2
_geom_bond_distance
_geom_bond_site_symmetry_2
Ca0 O0 2.329523 1_546
Ca0 O6 2.370707 1_556
Ca0 O8 2.370707 1_456
Ca0 O1 2.399196 1_545
Ca0 O9 2.612448 1_555
Ca0 O7 2.612448 1_455
Ca0 O10 2.768826 1_545
Ca0 O4 2.768826 1_445
O0 Ti3 1.985077 1_554
O0 Ti1 1.985077 1_454
O0 Y0 2.320421 1_555
O1 Ti0 2.006545 1_565
O1 Ti2 2.006545 1_465
O1 Y0 2.279361 1_555
O2 Ti1 2.048620 1_555
O2 Ti3 2.048620 1_555
O2 Y1 2.255441 1_546
O2 Y2 2.321428 1_555
O3 Ti2 2.039455 1_555
O3 Ti0 2.039455 1_555
O3 Y2 2.279394 1_555
O3 Y1 2.326565 1_545
O4 Ti1 2.043446 1_555
O4 Ti2 2.050988 1_565
O4 Y1 2.313352 1_556
O4 Y2 2.483043 1_555
O5 Ti0 2.048119 1_565
O5 Ti3 2.051133 1_554
O5 Y2 2.333556 1_555
O5 Y1 2.504019 1_555
O5 Y0 2.738833 1_555
O6 Ti3 2.005911 1_554
O6 Ti0 2.012176 1_555
O6 Y0 2.506541 1_555
O6 Y1 2.704518 1_545
O7 Ti2 2.023376 1_555
O7 Ti1 2.028156 1_555
O7 Y0 2.313778 1_655
O7 Y2 2.655746 1_555
O8 Ti1 2.005911 1_554
O8 Ti2 2.012176 1_555
O8 Y0 2.506541 1_655
O8 Y1 2.704518 1_545
O9 Ti0 2.023376 1_555
O9 Ti3 2.028156 1_555
O9 Y0 2.313778 1_555
O9 Y2 2.655746 1_555
O10 Ti3 2.043446 1_555
O10 Ti0 2.050988 1_565
O10 Y1 2.313352 1_556
O10 Y2 2.483043 1_555
O11 Ti2 2.048119 1_565
O11 Ti1 2.051133 1_554
O11 Y2 2.333556 1_555
O11 Y1 2.504019 1_555
O11 Y0 2.738833 1_655
