# generated using pymatgen
data_CdH5N2F3
_symmetry_space_group_name_H-M   'P 1'
_cell_length_a   14.41158600
_cell_length_b   4.48153700
_cell_length_c   6.98107300
_cell_angle_alpha   90.00000000
_cell_angle_beta   90.00000000
_cell_angle_gamma   90.00000000
_symmetry_Int_Tables_number   1
_chemical_formula_structural   CdH5N2F3
_chemical_formula_sum   'Cd4 H20 N8 F12'
_cell_volume   450.87997093
_cell_formula_units_Z   4
loop_
 _symmetry_equiv_pos_site_id
 _symmetry_equiv_pos_as_xyz
  1  'x, y, z'
loop_
 _atom_site_type_symbol
 _atom_site_label
 _atom_site_symmetry_multiplicity
 _atom_site_fract_x
 _atom_site_fract_y
 _atom_site_fract_z
 _atom_site_occupancy
  Cd  Cd0  1  0.45776300  0.25000000  0.68014900  1
  Cd  Cd1  1  0.95776300  0.25000000  0.81985100  1
  Cd  Cd2  1  0.54223700  0.75000000  0.31985100  1
  Cd  Cd3  1  0.04223700  0.75000000  0.18014900  1
  H  H0  1  0.60832100  0.43939900  0.91770100  1
  H  H1  1  0.10832100  0.06060100  0.58229900  1
  H  H2  1  0.39167900  0.93939900  0.08229900  1
  H  H3  1  0.89167900  0.56060100  0.41770100  1
  H  H4  1  0.39167900  0.56060100  0.08229900  1
  H  H5  1  0.89167900  0.93939900  0.41770100  1
  H  H6  1  0.60832100  0.06060100  0.91770100  1
  H  H7  1  0.10832100  0.43939900  0.58229900  1
  H  H8  1  0.68265300  0.44147500  0.62056600  1
  H  H9  1  0.18265300  0.05852500  0.87943400  1
  H  H10  1  0.31734700  0.94147500  0.37943400  1
  H  H11  1  0.81734700  0.55852500  0.12056600  1
  H  H12  1  0.31734700  0.55852500  0.37943400  1
  H  H13  1  0.81734700  0.94147500  0.12056600  1
  H  H14  1  0.68265300  0.05852500  0.62056600  1
  H  H15  1  0.18265300  0.44147500  0.87943400  1
  H  H16  1  0.74366900  0.25000000  0.79350600  1
  H  H17  1  0.24366900  0.25000000  0.70649400  1
  H  H18  1  0.25633100  0.75000000  0.20649400  1
  H  H19  1  0.75633100  0.75000000  0.29350600  1
  N  N0  1  0.60232600  0.25000000  0.83073700  1
  N  N1  1  0.10232600  0.25000000  0.66926300  1
  N  N2  1  0.39767400  0.75000000  0.16926300  1
  N  N3  1  0.89767400  0.75000000  0.33073700  1
  N  N4  1  0.68378700  0.25000000  0.70872800  1
  N  N5  1  0.18378700  0.25000000  0.79127200  1
  N  N6  1  0.31621300  0.75000000  0.29127200  1
  N  N7  1  0.81621300  0.75000000  0.20872800  1
  F  F0  1  0.46377200  0.75000000  0.61573900  1
  F  F1  1  0.96377200  0.75000000  0.88426100  1
  F  F2  1  0.53622800  0.25000000  0.38426100  1
  F  F3  1  0.03622800  0.25000000  0.11573900  1
  F  F4  1  0.32121300  0.25000000  0.51237600  1
  F  F5  1  0.82121300  0.25000000  0.98762400  1
  F  F6  1  0.67878700  0.75000000  0.48762400  1
  F  F7  1  0.17878700  0.75000000  0.01237600  1
  F  F8  1  0.37791400  0.25000000  0.95147900  1
  F  F9  1  0.87791400  0.25000000  0.54852100  1
  F  F10  1  0.62208600  0.75000000  0.04852100  1
  F  F11  1  0.12208600  0.75000000  0.45147900  1
loop_
_geom_bond_atom_site_label_1
_geom_bond_atom_site_label_2
_geom_bond_distance
_geom_bond_site_symmetry_2
Cd0 F8 2.216331 1_555
Cd0 F0 2.287079 1_545
Cd0 F0 2.287079 1_555
Cd0 F4 2.290072 1_555
Cd0 N0 2.333590 1_555
Cd0 F2 2.354886 1_555
Cd1 F9 2.216331 1_555
Cd1 F1 2.287079 1_545
Cd1 F1 2.287079 1_555
Cd1 F5 2.290072 1_555
Cd1 N1 2.333590 1_655
Cd1 F3 2.354886 1_656
Cd2 F10 2.216331 1_555
Cd2 F2 2.287079 1_565
Cd2 F2 2.287079 1_555
Cd2 F6 2.290072 1_555
Cd2 N2 2.333590 1_555
Cd2 F0 2.354886 1_555
Cd3 F11 2.216331 1_555
Cd3 F3 2.287079 1_555
Cd3 F3 2.287079 1_565
Cd3 F7 2.290072 1_555
Cd3 N3 2.333590 1_455
Cd3 F1 2.354886 1_454
H0 N0 1.047137 1_555
H1 N1 1.047137 1_555
H2 N2 1.047137 1_555
H3 N3 1.047137 1_555
H4 N2 1.047137 1_555
H5 N3 1.047137 1_555
H6 N0 1.047137 1_555
H7 N1 1.047137 1_555
H8 N4 1.056127 1_555
H9 N5 1.056127 1_555
H10 N6 1.056127 1_555
H11 N7 1.056127 1_555
H12 N6 1.056127 1_555
H13 N7 1.056127 1_555
H14 N4 1.056127 1_555
H15 N5 1.056127 1_555
H16 N4 1.046440 1_555
H17 N5 1.046440 1_555
H18 N6 1.046440 1_555
H19 N7 1.046440 1_555
F4 H12 1.666193 1_555
F4 H10 1.666193 1_545
F5 H11 1.666193 1_556
F5 H13 1.666193 1_546
F6 H14 1.666193 1_565
F6 H8 1.666193 1_555
F7 H9 1.666193 1_564
F7 H15 1.666193 1_554
F8 H2 1.676599 1_546
F8 H4 1.676599 1_556
F9 H5 1.676599 1_545
F9 H3 1.676599 1_555
F10 H6 1.676599 1_564
F10 H0 1.676599 1_554
F11 H1 1.676599 1_565
F11 H7 1.676599 1_555
