# generated using pymatgen
data_Mg2TaSnO6
_symmetry_space_group_name_H-M   'P 1'
_cell_length_a   7.82250800
_cell_length_b   5.45312600
_cell_length_c   5.53927491
_cell_angle_alpha   88.00518430
_cell_angle_beta   90.00000000
_cell_angle_gamma   90.00000000
_symmetry_Int_Tables_number   1
_chemical_formula_structural   Mg2TaSnO6
_chemical_formula_sum   'Mg4 Ta2 Sn2 O12'
_cell_volume   236.14632818
_cell_formula_units_Z   2
loop_
 _symmetry_equiv_pos_site_id
 _symmetry_equiv_pos_as_xyz
  1  'x, y, z'
loop_
 _atom_site_type_symbol
 _atom_site_label
 _atom_site_symmetry_multiplicity
 _atom_site_fract_x
 _atom_site_fract_y
 _atom_site_fract_z
 _atom_site_occupancy
  Mg  Mg0  1  0.75000000  0.01166700  0.03716400  1
  Mg  Mg1  1  0.75000000  0.49176400  0.53962900  1
  Mg  Mg2  1  0.25000000  0.50823600  0.46037100  1
  Mg  Mg3  1  0.25000000  0.98833300  0.96283600  1
  Ta  Ta0  1  0.00000000  0.00000000  0.50000000  1
  Ta  Ta1  1  0.50000000  0.00000000  0.50000000  1
  Sn  Sn0  1  0.00000000  0.50000000  0.00000000  1
  Sn  Sn1  1  0.50000000  0.50000000  0.00000000  1
  O  O0  1  0.43066000  0.14119200  0.18188300  1
  O  O1  1  0.57122500  0.69003200  0.34862700  1
  O  O2  1  0.56934000  0.85880800  0.81811700  1
  O  O3  1  0.07122500  0.30996800  0.65137300  1
  O  O4  1  0.25000000  0.86744800  0.58061300  1
  O  O5  1  0.42877500  0.30996800  0.65137300  1
  O  O6  1  0.92877500  0.69003200  0.34862700  1
  O  O7  1  0.06934000  0.14119200  0.18188300  1
  O  O8  1  0.75000000  0.37263600  0.90560200  1
  O  O9  1  0.93066000  0.85880800  0.81811700  1
  O  O10  1  0.25000000  0.62736400  0.09439800  1
  O  O11  1  0.75000000  0.13255200  0.41938700  1
loop_
_geom_bond_atom_site_label_1
_geom_bond_atom_site_label_2
_geom_bond_distance
_geom_bond_site_symmetry_2
Mg0 O2 2.057828 1_544
Mg0 O9 2.057828 1_544
Mg0 O8 2.075056 1_554
Mg0 O11 2.239288 1_555
Mg1 O6 2.040691 1_555
Mg1 O1 2.040691 1_555
Mg1 O11 2.090805 1_555
Mg1 O8 2.107123 1_555
Mg2 O5 2.040691 1_555
Mg2 O3 2.040691 1_555
Mg2 O4 2.090805 1_555
Mg2 O10 2.107123 1_555
Mg3 O7 2.057828 1_566
Mg3 O0 2.057828 1_566
Mg3 O10 2.075056 1_556
Mg3 O4 2.239288 1_555
O0 Ta1 1.974257 1_555
O0 Sn1 2.236160 1_555
O1 Ta1 1.992302 1_565
O1 Sn1 2.291921 1_555
O2 Ta1 1.974257 1_565
O2 Sn1 2.236160 1_556
O3 Ta0 1.992302 1_555
O3 Sn0 2.291921 1_556
O4 Ta1 2.126940 1_565
O4 Ta0 2.126940 1_565
O5 Ta1 1.992302 1_555
O5 Sn1 2.291921 1_556
O6 Ta0 1.992302 1_665
O6 Sn0 2.291921 1_655
O7 Ta0 1.974257 1_555
O7 Sn0 2.236160 1_555
O8 Sn0 2.146056 1_656
O8 Sn1 2.146056 1_556
O9 Ta0 1.974257 1_665
O9 Sn0 2.236160 1_656
O10 Sn0 2.146056 1_555
O10 Sn1 2.146056 1_555
O11 Ta0 2.126940 1_655
O11 Ta1 2.126940 1_555
