# generated using pymatgen
data_Ca2CdAs2
_symmetry_space_group_name_H-M   'P 1'
_cell_length_a   4.29637513
_cell_length_b   10.96221832
_cell_length_c   14.36943386
_cell_angle_alpha   109.57782871
_cell_angle_beta   90.00000000
_cell_angle_gamma   101.30097357
_symmetry_Int_Tables_number   1
_chemical_formula_structural   Ca2CdAs2
_chemical_formula_sum   'Ca10 Cd5 As10'
_cell_volume   623.69859663
_cell_formula_units_Z   5
loop_
 _symmetry_equiv_pos_site_id
 _symmetry_equiv_pos_as_xyz
  1  'x, y, z'
loop_
 _atom_site_type_symbol
 _atom_site_label
 _atom_site_symmetry_multiplicity
 _atom_site_fract_x
 _atom_site_fract_y
 _atom_site_fract_z
 _atom_site_occupancy
  Ca  Ca0  1  0.98127817  0.96255734  0.38562512  1
  Ca  Ca1  1  0.83856457  0.67712913  0.49849842  1
  Ca  Ca2  1  0.80970558  0.61941215  0.23024674  1
  Ca  Ca3  1  0.43556246  0.87112592  0.78773906  1
  Ca  Ca4  1  0.40540942  0.81081984  0.06388988  1
  Ca  Ca5  1  0.27698525  0.55397050  0.80714198  1
  Ca  Ca6  1  0.17336103  0.34672207  0.42065235  1
  Ca  Ca7  1  0.14681658  0.29363416  0.14790728  1
  Ca  Ca8  1  0.11505172  0.23010145  0.87680646  1
  Ca  Ca9  1  0.10590993  0.21181886  0.63349372  1
  Cd  Cd0  1  -0.00005679  -0.00011358  0.99985896  1
  Cd  Cd1  1  0.76523895  0.53047690  0.96764403  1
  Cd  Cd2  1  0.71846053  0.43692305  0.61665467  1
  Cd  Cd3  1  0.56585634  0.13171269  0.27012580  1
  Cd  Cd4  1  0.47262741  0.94525382  0.56172450  1
  As  As0  1  0.99328491  0.98657081  0.18983971  1
  As  As1  1  0.98207038  0.96413876  0.67597862  1
  As  As2  1  0.87334584  0.74669168  0.89412726  1
  As  As3  1  0.69614579  0.39229157  0.29862351  1
  As  As4  1  0.67381289  0.34762478  0.77847608  1
  As  As5  1  0.58598618  0.17197236  0.48098193  1
  As  As6  1  0.56841748  0.13683596  0.97861525  1
  As  As7  1  0.38153352  0.76306504  0.37886436  1
  As  As8  1  0.28977882  0.57955863  0.60973789  1
  As  As9  1  0.26413205  0.52826510  0.07216240  1
loop_
_geom_bond_atom_site_label_1
_geom_bond_atom_site_label_2
_geom_bond_distance
_geom_bond_site_symmetry_2
Ca0 Cd4 3.372556 1_555
Ca0 Cd4 3.372562 1_655
Ca1 Cd4 3.458018 1_555
Ca1 Cd4 3.458021 1_655
Ca3 Cd0 3.596914 1_565
Ca3 Cd0 3.596917 1_665
Ca3 Cd4 3.598777 1_555
Ca4 Cd0 3.296957 1_564
Ca4 Cd0 3.296960 1_664
Ca6 Cd3 3.349418 1_555
Ca6 Cd3 3.349418 1_455
Ca6 Cd2 3.408937 1_555
Ca6 Cd2 3.408942 1_455
Ca7 Cd0 3.147343 1_554
Ca8 Cd0 3.498768 1_555
Ca9 Cd4 3.445238 1_545
Ca9 Cd4 3.445238 1_445
As0 Cd3 2.673912 1_565
As0 Cd3 2.673915 1_665
As0 Cd0 2.782082 1_664
As0 Ca0 2.911658 1_555
As0 Ca4 3.020383 1_655
As0 Ca4 3.020383 1_555
As1 Cd4 2.668995 1_655
As1 Cd4 2.668998 1_555
As1 Ca9 2.927855 1_665
As1 Ca3 3.048082 1_655
As1 Ca3 3.048091 1_555
As1 Ca1 3.262731 1_555
As1 Ca8 3.295923 1_665
As2 Cd0 2.624916 1_665
As2 Cd1 2.862879 1_555
As2 Ca5 2.949445 1_655
As2 Ca5 2.949445 1_555
As2 Ca4 3.145043 1_656
As2 Ca4 3.145046 1_556
As2 Ca3 3.184103 1_655
As2 Ca3 3.184106 1_555
As3 Cd3 2.688892 1_555
As3 Ca6 2.918289 1_655
As3 Ca6 2.918290 1_555
As3 Ca2 2.926702 1_555
As3 Ca7 2.976580 1_655
As3 Ca7 2.976583 1_555
As3 Ca1 3.407947 1_555
As4 Cd1 2.756969 1_555
As4 Cd2 2.802476 1_555
As4 Ca9 3.001263 1_655
As4 Ca9 3.001264 1_555
As4 Ca5 3.013325 1_655
As4 Ca5 3.013328 1_555
As4 Ca8 3.070357 1_555
As4 Ca8 3.070360 1_655
As5 Cd2 2.849179 1_555
As5 Cd3 2.910556 1_555
As5 Ca9 2.993217 1_555
As5 Ca9 2.993220 1_655
As5 Cd4 3.036167 1_545
As5 Ca0 3.074376 1_545
As5 Ca0 3.074379 1_445
As5 Ca6 3.163533 1_555
As5 Ca6 3.163533 1_655
As6 Cd0 2.679977 1_555
As6 Cd0 2.679980 1_655
As6 Ca8 2.960134 1_555
As6 Ca8 2.960143 1_655
As6 Ca3 3.213596 1_545
As6 Ca7 3.251336 1_556
As6 Ca7 3.251336 1_656
As7 Cd4 2.687549 1_555
As7 Ca0 3.013391 1_555
As7 Ca0 3.013400 1_455
As7 Ca2 3.050591 1_555
As7 Ca2 3.050601 1_455
As7 Ca1 3.083601 1_555
As7 Ca1 3.083607 1_455
As8 Cd2 2.660770 1_555
As8 Cd2 2.660773 1_455
As8 Ca5 2.941957 1_555
As8 Ca6 2.999883 1_555
As8 Ca1 3.068487 1_455
As8 Ca1 3.068490 1_555
As8 Ca3 3.299536 1_555
As9 Cd1 2.625885 1_454
As9 Cd1 2.625892 1_554
As9 Ca2 3.035409 1_455
As9 Ca2 3.035409 1_555
As9 Ca7 3.069576 1_555
As9 Ca4 3.080018 1_555
As9 Ca8 3.464700 1_554
