# generated using pymatgen
data_BaYMg30O32
_symmetry_space_group_name_H-M   'P 1'
_cell_length_a   8.71949400
_cell_length_b   8.71949400
_cell_length_c   8.84569600
_cell_angle_alpha   90.00000000
_cell_angle_beta   90.00000000
_cell_angle_gamma   90.00000000
_symmetry_Int_Tables_number   1
_chemical_formula_structural   BaYMg30O32
_chemical_formula_sum   'Ba1 Y1 Mg30 O32'
_cell_volume   672.53451291
_cell_formula_units_Z   1
loop_
 _symmetry_equiv_pos_site_id
 _symmetry_equiv_pos_as_xyz
  1  'x, y, z'
loop_
 _atom_site_type_symbol
 _atom_site_label
 _atom_site_symmetry_multiplicity
 _atom_site_fract_x
 _atom_site_fract_y
 _atom_site_fract_z
 _atom_site_occupancy
  Ba  Ba0  1  0.00000000  0.00000000  0.50000000  1
  Y  Y0  1  0.00000000  0.00000000  0.00000000  1
  Mg  Mg0  1  0.00000000  0.50000000  0.00000000  1
  Mg  Mg1  1  0.00000000  0.50000000  0.50000000  1
  Mg  Mg2  1  0.50000000  0.00000000  0.00000000  1
  Mg  Mg3  1  0.50000000  0.00000000  0.50000000  1
  Mg  Mg4  1  0.50000000  0.50000000  0.00000000  1
  Mg  Mg5  1  0.50000000  0.50000000  0.50000000  1
  Mg  Mg6  1  0.00000000  0.26388200  0.24944800  1
  Mg  Mg7  1  0.00000000  0.26388200  0.75055200  1
  Mg  Mg8  1  0.00000000  0.73611800  0.24944800  1
  Mg  Mg9  1  0.00000000  0.73611800  0.75055200  1
  Mg  Mg10  1  0.50000000  0.25232400  0.25035200  1
  Mg  Mg11  1  0.50000000  0.25232400  0.74964800  1
  Mg  Mg12  1  0.50000000  0.74767600  0.25035200  1
  Mg  Mg13  1  0.50000000  0.74767600  0.74964800  1
  Mg  Mg14  1  0.26388200  0.00000000  0.24944800  1
  Mg  Mg15  1  0.26388200  0.00000000  0.75055200  1
  Mg  Mg16  1  0.25232400  0.50000000  0.25035200  1
  Mg  Mg17  1  0.25232400  0.50000000  0.74964800  1
  Mg  Mg18  1  0.73611800  0.00000000  0.24944800  1
  Mg  Mg19  1  0.73611800  0.00000000  0.75055200  1
  Mg  Mg20  1  0.74767600  0.50000000  0.25035200  1
  Mg  Mg21  1  0.74767600  0.50000000  0.74964800  1
  Mg  Mg22  1  0.25725900  0.25725900  0.00000000  1
  Mg  Mg23  1  0.25861200  0.25861200  0.50000000  1
  Mg  Mg24  1  0.25725900  0.74274100  0.00000000  1
  Mg  Mg25  1  0.25861200  0.74138800  0.50000000  1
  Mg  Mg26  1  0.74274100  0.25725900  0.00000000  1
  Mg  Mg27  1  0.74138800  0.25861200  0.50000000  1
  Mg  Mg28  1  0.74274100  0.74274100  0.00000000  1
  Mg  Mg29  1  0.74138800  0.74138800  0.50000000  1
  O  O0  1  0.26140800  0.00000000  0.00000000  1
  O  O1  1  0.27987000  0.00000000  0.50000000  1
  O  O2  1  0.25271500  0.50000000  0.00000000  1
  O  O3  1  0.25627400  0.50000000  0.50000000  1
  O  O4  1  0.73859200  0.00000000  0.00000000  1
  O  O5  1  0.72013000  0.00000000  0.50000000  1
  O  O6  1  0.74728500  0.50000000  0.00000000  1
  O  O7  1  0.74372600  0.50000000  0.50000000  1
  O  O8  1  0.24950000  0.24950000  0.25028100  1
  O  O9  1  0.24950000  0.24950000  0.74971900  1
  O  O10  1  0.24950000  0.75050000  0.25028100  1
  O  O11  1  0.24950000  0.75050000  0.74971900  1
  O  O12  1  0.75050000  0.24950000  0.25028100  1
  O  O13  1  0.75050000  0.24950000  0.74971900  1
  O  O14  1  0.75050000  0.75050000  0.25028100  1
  O  O15  1  0.75050000  0.75050000  0.74971900  1
  O  O16  1  0.00000000  0.00000000  0.23489900  1
  O  O17  1  0.00000000  0.00000000  0.76510100  1
  O  O18  1  0.00000000  0.50000000  0.24458400  1
  O  O19  1  0.00000000  0.50000000  0.75541600  1
  O  O20  1  0.50000000  0.00000000  0.24458400  1
  O  O21  1  0.50000000  0.00000000  0.75541600  1
  O  O22  1  0.50000000  0.50000000  0.24838700  1
  O  O23  1  0.50000000  0.50000000  0.75161300  1
  O  O24  1  0.00000000  0.26140800  0.00000000  1
  O  O25  1  0.00000000  0.27987000  0.50000000  1
  O  O26  1  0.00000000  0.73859200  0.00000000  1
  O  O27  1  0.00000000  0.72013000  0.50000000  1
  O  O28  1  0.50000000  0.25271500  0.00000000  1
  O  O29  1  0.50000000  0.25627400  0.50000000  1
  O  O30  1  0.50000000  0.74728500  0.00000000  1
  O  O31  1  0.50000000  0.74372600  0.50000000  1
loop_
_geom_bond_atom_site_label_1
_geom_bond_atom_site_label_2
_geom_bond_distance
_geom_bond_site_symmetry_2
Ba0 O17 2.345003 1_555
Ba0 O16 2.345003 1_555
Ba0 O27 2.440325 1_545
Ba0 O5 2.440325 1_455
Ba0 O1 2.440325 1_555
Ba0 O25 2.440325 1_555
Mg0 O26 2.080402 1_555
Mg0 O24 2.080402 1_555
Mg0 O18 2.163516 1_555
Mg0 O19 2.163516 1_554
Mg0 O2 2.203547 1_555
Mg0 O6 2.203547 1_455
Mg1 O25 1.919422 1_555
Mg1 O27 1.919422 1_555
Mg1 O3 2.234580 1_555
Mg1 O7 2.234580 1_455
Mg1 O18 2.259332 1_555
Mg1 O19 2.259332 1_555
Mg2 O4 2.080402 1_555
Mg2 O0 2.080402 1_555
Mg2 O20 2.163516 1_555
Mg2 O21 2.163516 1_554
Mg2 O28 2.203547 1_555
Mg2 O30 2.203547 1_545
Mg3 O1 1.919422 1_555
Mg3 O5 1.919422 1_555
Mg3 O31 2.234580 1_545
Mg3 O29 2.234580 1_555
Mg3 O20 2.259332 1_555
Mg3 O21 2.259332 1_555
Mg4 O6 2.156200 1_555
Mg4 O30 2.156200 1_555
Mg4 O2 2.156200 1_555
Mg4 O28 2.156200 1_555
Mg4 O22 2.197156 1_555
Mg4 O23 2.197156 1_554
Mg5 O31 2.125167 1_555
Mg5 O3 2.125167 1_555
Mg5 O7 2.125167 1_555
Mg5 O29 2.125167 1_555
Mg5 O22 2.225692 1_555
Mg5 O23 2.225692 1_555
Mg6 O18 2.059279 1_555
Mg6 O12 2.179138 1_455
Mg6 O8 2.179138 1_555
Mg6 O24 2.206647 1_555
Mg6 O25 2.220687 1_555
Mg6 O16 2.304514 1_555
Mg7 O19 2.059279 1_555
Mg7 O13 2.179138 1_455
Mg7 O9 2.179138 1_555
Mg7 O24 2.206647 1_556
Mg7 O25 2.220687 1_555
Mg7 O17 2.304514 1_555
Mg8 O18 2.059279 1_555
Mg8 O14 2.179138 1_455
Mg8 O10 2.179138 1_555
Mg8 O26 2.206647 1_555
Mg8 O27 2.220687 1_555
Mg8 O16 2.304514 1_565
Mg9 O19 2.059279 1_555
Mg9 O15 2.179138 1_455
Mg9 O11 2.179138 1_555
Mg9 O26 2.206647 1_556
Mg9 O27 2.220687 1_555
Mg9 O17 2.304514 1_565
Mg10 O22 2.159679 1_555
Mg10 O8 2.184372 1_555
Mg10 O12 2.184372 1_555
Mg10 O20 2.200729 1_555
Mg10 O29 2.208579 1_555
Mg10 O28 2.214540 1_555
Mg11 O23 2.159679 1_555
Mg11 O9 2.184372 1_555
Mg11 O13 2.184372 1_555
Mg11 O21 2.200729 1_555
Mg11 O29 2.208579 1_555
Mg11 O28 2.214540 1_556
Mg12 O22 2.159679 1_555
Mg12 O10 2.184372 1_555
Mg12 O14 2.184372 1_555
Mg12 O20 2.200729 1_565
Mg12 O31 2.208579 1_555
Mg12 O30 2.214540 1_555
Mg13 O23 2.159679 1_555
Mg13 O11 2.184372 1_555
Mg13 O15 2.184372 1_555
Mg13 O21 2.200729 1_565
Mg13 O31 2.208579 1_555
Mg13 O30 2.214540 1_556
Mg14 O20 2.059279 1_555
Mg14 O10 2.179138 1_545
Mg14 O8 2.179138 1_555
Mg14 O0 2.206647 1_555
Mg14 O1 2.220687 1_555
Mg14 O16 2.304514 1_555
Mg15 O21 2.059279 1_555
Mg15 O11 2.179138 1_545
Mg15 O9 2.179138 1_555
Mg15 O0 2.206647 1_556
Mg15 O1 2.220687 1_555
Mg15 O17 2.304514 1_555
Mg16 O22 2.159679 1_555
Mg16 O8 2.184372 1_555
Mg16 O10 2.184372 1_555
Mg16 O18 2.200729 1_555
Mg16 O3 2.208579 1_555
Mg16 O2 2.214540 1_555
Mg17 O23 2.159679 1_555
Mg17 O9 2.184372 1_555
Mg17 O11 2.184372 1_555
Mg17 O19 2.200729 1_555
Mg17 O3 2.208579 1_555
Mg17 O2 2.214540 1_556
Mg18 O20 2.059279 1_555
Mg18 O14 2.179138 1_545
Mg18 O12 2.179138 1_555
Mg18 O4 2.206647 1_555
Mg18 O5 2.220687 1_555
Mg18 O16 2.304514 1_655
Mg19 O21 2.059279 1_555
Mg19 O15 2.179138 1_545
Mg19 O13 2.179138 1_555
Mg19 O4 2.206647 1_556
Mg19 O5 2.220687 1_555
Mg19 O17 2.304514 1_655
Mg20 O22 2.159679 1_555
Mg20 O12 2.184372 1_555
Mg20 O14 2.184372 1_555
Mg20 O18 2.200729 1_655
Mg20 O7 2.208579 1_555
Mg20 O6 2.214540 1_555
Mg21 O23 2.159679 1_555
Mg21 O13 2.184372 1_555
Mg21 O15 2.184372 1_555
Mg21 O19 2.200729 1_655
Mg21 O7 2.208579 1_555
Mg21 O6 2.214540 1_556
Mg22 O2 2.116950 1_555
Mg22 O28 2.116950 1_555
Mg22 O8 2.215976 1_555
Mg22 O9 2.215976 1_554
Mg22 O0 2.243460 1_555
Mg22 O24 2.243460 1_555
Mg23 O3 2.104880 1_555
Mg23 O29 2.104880 1_555
Mg23 O9 2.211794 1_555
Mg23 O8 2.211794 1_555
Mg23 O1 2.262571 1_555
Mg23 O25 2.262571 1_555
Mg24 O30 2.116950 1_555
Mg24 O2 2.116950 1_555
Mg24 O10 2.215976 1_555
Mg24 O11 2.215976 1_554
Mg24 O26 2.243460 1_555
Mg24 O0 2.243460 1_565
Mg25 O3 2.104880 1_555
Mg25 O31 2.104880 1_555
Mg25 O11 2.211794 1_555
Mg25 O10 2.211794 1_555
Mg25 O27 2.262571 1_555
Mg25 O1 2.262571 1_565
Mg26 O6 2.116950 1_555
Mg26 O28 2.116950 1_555
Mg26 O12 2.215976 1_555
Mg26 O13 2.215976 1_554
Mg26 O24 2.243460 1_655
Mg26 O4 2.243460 1_555
Mg27 O29 2.104880 1_555
Mg27 O7 2.104880 1_555
Mg27 O13 2.211794 1_555
Mg27 O12 2.211794 1_555
Mg27 O5 2.262571 1_555
Mg27 O25 2.262571 1_655
Mg28 O30 2.116950 1_555
Mg28 O6 2.116950 1_555
Mg28 O14 2.215976 1_555
Mg28 O15 2.215976 1_554
Mg28 O26 2.243460 1_655
Mg28 O4 2.243460 1_565
Mg29 O31 2.104880 1_555
Mg29 O7 2.104880 1_555
Mg29 O15 2.211794 1_555
Mg29 O14 2.211794 1_555
Mg29 O27 2.262571 1_655
Mg29 O5 2.262571 1_565
O0 Y0 2.279345 1_555
O4 Y0 2.279345 1_655
O16 Y0 2.077845 1_555
O17 Y0 2.077845 1_556
O24 Y0 2.279345 1_555
O26 Y0 2.279345 1_565
