# generated using pymatgen
data_Sr2Cu6P5
_symmetry_space_group_name_H-M   'P 1'
_cell_length_a   4.10555400
_cell_length_b   4.10555400
_cell_length_c   12.65254572
_cell_angle_alpha   99.33706623
_cell_angle_beta   99.33706623
_cell_angle_gamma   90.00000000
_symmetry_Int_Tables_number   1
_chemical_formula_structural   Sr2Cu6P5
_chemical_formula_sum   'Sr2 Cu6 P5'
_cell_volume   207.57632204
_cell_formula_units_Z   1
loop_
 _symmetry_equiv_pos_site_id
 _symmetry_equiv_pos_as_xyz
  1  'x, y, z'
loop_
 _atom_site_type_symbol
 _atom_site_label
 _atom_site_symmetry_multiplicity
 _atom_site_fract_x
 _atom_site_fract_y
 _atom_site_fract_z
 _atom_site_occupancy
  Sr  Sr0  1  0.64893100  0.64893100  0.29786200  1
  Sr  Sr1  1  0.35106900  0.35106900  0.70213800  1
  Cu  Cu0  1  0.94784000  0.44784000  0.89568100  1
  Cu  Cu1  1  0.44784000  0.94784000  0.89568100  1
  Cu  Cu2  1  0.05216000  0.55216000  0.10431900  1
  Cu  Cu3  1  0.55216000  0.05216000  0.10431900  1
  Cu  Cu4  1  0.25000000  0.75000000  0.50000000  1
  Cu  Cu5  1  0.75000000  0.25000000  0.50000000  1
  P  P0  1  0.50000000  0.50000000  0.00000000  1
  P  P1  1  0.89615100  0.89615100  0.79230300  1
  P  P2  1  0.10384900  0.10384900  0.20769700  1
  P  P3  1  0.80173400  0.80173400  0.60346800  1
  P  P4  1  0.19826600  0.19826600  0.39653200  1
loop_
_geom_bond_atom_site_label_1
_geom_bond_atom_site_label_2
_geom_bond_distance
_geom_bond_site_symmetry_2
Cu0 P1 2.415507 1_555
Cu0 P1 2.415507 1_545
Cu0 P0 2.421633 1_556
Cu0 P0 2.421637 1_656
Cu0 Sr1 3.145611 1_555
Cu0 Sr1 3.145614 1_655
Cu1 P1 2.415507 1_555
Cu1 P1 2.415507 1_455
Cu1 P0 2.421633 1_556
Cu1 P0 2.421637 1_566
Cu1 Sr1 3.145611 1_555
Cu1 Sr1 3.145614 1_565
Cu2 P2 2.415507 1_555
Cu2 P2 2.415507 1_565
Cu2 P0 2.421633 1_555
Cu2 P0 2.421637 1_455
Cu2 Sr0 3.145611 1_555
Cu2 Sr0 3.145614 1_455
Cu3 P2 2.415507 1_555
Cu3 P2 2.415507 1_655
Cu3 P0 2.421633 1_555
Cu3 P0 2.421637 1_545
Cu3 Sr0 3.145611 1_555
Cu3 Sr0 3.145614 1_545
Cu4 P3 2.416092 1_555
Cu4 P4 2.416092 1_555
Cu4 P4 2.416092 1_565
Cu4 P3 2.416092 1_455
Cu4 Sr0 3.226554 1_555
Cu4 Sr0 3.226554 1_455
Cu4 Sr1 3.226554 1_565
Cu4 Sr1 3.226554 1_555
Cu5 P3 2.416092 1_555
Cu5 P4 2.416092 1_555
Cu5 P4 2.416092 1_655
Cu5 P3 2.416092 1_545
Cu5 Sr0 3.226554 1_555
Cu5 Sr0 3.226554 1_545
Cu5 Sr1 3.226554 1_655
Cu5 Sr1 3.226554 1_555
P1 P3 2.325502 1_555
P1 Sr1 3.108169 1_555
P1 Sr1 3.108172 1_655
P1 Sr1 3.108172 1_565
P1 Sr1 3.108175 1_665
P2 P4 2.325502 1_555
P2 Sr0 3.108169 1_555
P2 Sr0 3.108172 1_455
P2 Sr0 3.108172 1_545
P2 Sr0 3.108175 1_445
P3 Sr1 3.147111 1_655
P3 Sr1 3.147111 1_555
P3 Sr1 3.147111 1_565
P3 Sr1 3.147111 1_665
P4 Sr0 3.147111 1_455
P4 Sr0 3.147111 1_555
P4 Sr0 3.147111 1_445
P4 Sr0 3.147111 1_545
