# generated using pymatgen
data_Sr3Fe2MoO9
_symmetry_space_group_name_H-M   'P 1'
_cell_length_a   9.77507866
_cell_length_b   9.77507866
_cell_length_c   5.63018111
_cell_angle_alpha   73.29080494
_cell_angle_beta   73.29080494
_cell_angle_gamma   48.36775695
_symmetry_Int_Tables_number   1
_chemical_formula_structural   Sr3Fe2MoO9
_chemical_formula_sum   'Sr6 Fe4 Mo2 O18'
_cell_volume   381.60287002
_cell_formula_units_Z   2
loop_
 _symmetry_equiv_pos_site_id
 _symmetry_equiv_pos_as_xyz
  1  'x, y, z'
loop_
 _atom_site_type_symbol
 _atom_site_label
 _atom_site_symmetry_multiplicity
 _atom_site_fract_x
 _atom_site_fract_y
 _atom_site_fract_z
 _atom_site_occupancy
  Sr  Sr0  1  0.91754100  0.39919600  0.84357200  1
  Sr  Sr1  1  0.23311700  0.76688300  0.50000000  1
  Sr  Sr2  1  0.60080400  0.08245900  0.15642800  1
  Sr  Sr3  1  0.76688300  0.23311700  0.50000000  1
  Sr  Sr4  1  0.08245900  0.60080400  0.15642800  1
  Sr  Sr5  1  0.39919600  0.91754100  0.84357200  1
  Fe  Fe0  1  0.50000000  0.50000000  0.00000000  1
  Fe  Fe1  1  0.83510400  0.83510400  0.66431100  1
  Fe  Fe2  1  0.16489600  0.16489600  0.33568900  1
  Fe  Fe3  1  0.00000000  0.00000000  0.00000000  1
  Mo  Mo0  1  0.33223000  0.33223000  0.66609300  1
  Mo  Mo1  1  0.66777000  0.66777000  0.33390700  1
  O  O0  1  0.42608300  0.91179200  0.33057700  1
  O  O1  1  0.74430300  0.25569700  0.00000000  1
  O  O2  1  0.08820800  0.57391700  0.66942300  1
  O  O3  1  0.91179200  0.42608300  0.33057700  1
  O  O4  1  0.25569700  0.74430300  0.00000000  1
  O  O5  1  0.57391700  0.08820800  0.66942300  1
  O  O6  1  0.07904700  0.07904700  0.19097000  1
  O  O7  1  0.40633700  0.40633700  0.85723200  1
  O  O8  1  0.73884500  0.73884500  0.53257100  1
  O  O9  1  0.59366300  0.59366300  0.14276800  1
  O  O10  1  0.92095300  0.92095300  0.80903000  1
  O  O11  1  0.26115500  0.26115500  0.46742900  1
  O  O12  1  0.57852800  0.57852800  0.63987300  1
  O  O13  1  0.90713100  0.90713100  0.32324300  1
  O  O14  1  0.24510400  0.24510400  0.97686500  1
  O  O15  1  0.09286900  0.09286900  0.67675700  1
  O  O16  1  0.42147200  0.42147200  0.36012700  1
  O  O17  1  0.75489600  0.75489600  0.02313500  1
loop_
_geom_bond_atom_site_label_1
_geom_bond_atom_site_label_2
_geom_bond_distance
_geom_bond_site_symmetry_2
Fe0 O4 1.956633 1_555
Fe0 O1 1.956633 1_555
Fe0 O16 2.069424 1_555
Fe0 O12 2.069424 1_554
Fe0 O7 2.069488 1_554
Fe0 O9 2.069488 1_555
Fe1 O13 1.944904 1_555
Fe1 O10 1.947922 1_555
Fe1 O5 2.060634 1_565
Fe1 O2 2.060634 1_655
Fe1 O8 2.073621 1_555
Fe1 O17 2.075081 1_556
Fe2 O15 1.944904 1_555
Fe2 O6 1.947922 1_555
Fe2 O3 2.060634 1_455
Fe2 O0 2.060634 1_545
Fe2 O11 2.073621 1_555
Fe2 O14 2.075081 1_554
Fe3 O10 2.024575 1_444
Fe3 O6 2.024575 1_555
Fe3 O15 2.038443 1_554
Fe3 O13 2.038443 1_445
Fe3 O1 2.047888 1_455
Fe3 O4 2.047888 1_545
Mo0 O11 1.936888 1_555
Mo0 O14 1.939613 1_555
Mo0 O16 1.942258 1_555
Mo0 O5 1.945170 1_555
Mo0 O2 1.945170 1_555
Mo0 O7 1.949716 1_555
Mo1 O8 1.936888 1_555
Mo1 O17 1.939613 1_555
Mo1 O12 1.942258 1_555
Mo1 O3 1.945170 1_555
Mo1 O0 1.945170 1_555
Mo1 O9 1.949716 1_555
O0 Sr5 2.810081 1_554
O0 Sr5 2.837509 1_555
O0 Sr1 2.865805 1_555
O0 Sr2 2.922975 1_565
O1 Sr2 2.683110 1_555
O1 Sr0 2.683110 1_554
O1 Sr3 2.820893 1_555
O1 Sr3 2.820893 1_554
O2 Sr4 2.810081 1_556
O2 Sr4 2.837509 1_555
O2 Sr1 2.865805 1_555
O2 Sr0 2.922975 1_455
O3 Sr0 2.810081 1_554
O3 Sr0 2.837509 1_555
O3 Sr3 2.865805 1_555
O3 Sr4 2.922975 1_655
O4 Sr5 2.683110 1_554
O4 Sr4 2.683110 1_555
O4 Sr1 2.820893 1_555
O4 Sr1 2.820893 1_554
O5 Sr2 2.810081 1_556
O5 Sr2 2.837509 1_555
O5 Sr3 2.865805 1_555
O5 Sr5 2.922975 1_545
O6 Sr3 2.637110 1_455
O6 Sr1 2.637110 1_545
O6 Sr5 2.793376 1_544
O6 Sr0 2.793376 1_454
O7 Sr2 2.693062 1_556
O7 Sr4 2.693062 1_556
O7 Sr3 3.047389 1_555
O7 Sr1 3.047389 1_555
O8 Sr5 2.801855 1_555
O8 Sr0 2.801855 1_555
O8 Sr4 3.019670 1_655
O8 Sr2 3.019670 1_565
O9 Sr5 2.693062 1_554
O9 Sr0 2.693062 1_554
O9 Sr3 3.047389 1_555
O9 Sr1 3.047389 1_555
O10 Sr1 2.637110 1_655
O10 Sr3 2.637110 1_565
O10 Sr4 2.793376 1_656
O10 Sr2 2.793376 1_566
O11 Sr4 2.801855 1_555
O11 Sr2 2.801855 1_555
O11 Sr5 3.019670 1_545
O11 Sr0 3.019670 1_455
O12 Sr1 2.800997 1_555
O12 Sr3 2.800997 1_555
O12 Sr5 2.946319 1_555
O12 Sr0 2.946319 1_555
O13 Sr2 2.580402 1_565
O13 Sr4 2.580402 1_655
O13 Sr1 2.873743 1_655
O13 Sr3 2.873743 1_565
O14 Sr0 2.721768 1_455
O14 Sr5 2.721768 1_545
O14 Sr2 3.064528 1_556
O14 Sr4 3.064528 1_556
O15 Sr0 2.580402 1_455
O15 Sr5 2.580402 1_545
O15 Sr3 2.873743 1_455
O15 Sr1 2.873743 1_545
O16 Sr3 2.800997 1_555
O16 Sr1 2.800997 1_555
O16 Sr4 2.946319 1_555
O16 Sr2 2.946319 1_555
O17 Sr2 2.721768 1_565
O17 Sr4 2.721768 1_655
O17 Sr0 3.064528 1_554
O17 Sr5 3.064528 1_554
