# generated using pymatgen
data_Ti6Ga16Ir7
_symmetry_space_group_name_H-M   'P 1'
_cell_length_a   8.63477506
_cell_length_b   8.63477506
_cell_length_c   8.63477506
_cell_angle_alpha   60.00000000
_cell_angle_beta   60.00000000
_cell_angle_gamma   60.00000000
_symmetry_Int_Tables_number   1
_chemical_formula_structural   Ti6Ga16Ir7
_chemical_formula_sum   'Ti6 Ga16 Ir7'
_cell_volume   455.23756093
_cell_formula_units_Z   1
loop_
 _symmetry_equiv_pos_site_id
 _symmetry_equiv_pos_as_xyz
  1  'x, y, z'
loop_
 _atom_site_type_symbol
 _atom_site_label
 _atom_site_symmetry_multiplicity
 _atom_site_fract_x
 _atom_site_fract_y
 _atom_site_fract_z
 _atom_site_occupancy
  Ti  Ti0  1  0.69621900  0.69621900  0.30378100  1
  Ti  Ti1  1  0.30378100  0.69621900  0.30378100  1
  Ti  Ti2  1  0.69621900  0.30378100  0.30378100  1
  Ti  Ti3  1  0.30378100  0.30378100  0.69621900  1
  Ti  Ti4  1  0.69621900  0.30378100  0.69621900  1
  Ti  Ti5  1  0.30378100  0.69621900  0.69621900  1
  Ga  Ga0  1  0.87684600  0.87684600  0.36946100  1
  Ga  Ga1  1  0.87684600  0.36946100  0.87684600  1
  Ga  Ga2  1  0.36946100  0.87684600  0.87684600  1
  Ga  Ga3  1  0.87684600  0.87684600  0.87684600  1
  Ga  Ga4  1  0.12315400  0.12315400  0.63053900  1
  Ga  Ga5  1  0.12315400  0.63053900  0.12315400  1
  Ga  Ga6  1  0.63053900  0.12315400  0.12315400  1
  Ga  Ga7  1  0.12315400  0.12315400  0.12315400  1
  Ga  Ga8  1  0.64676500  0.64676500  0.05970400  1
  Ga  Ga9  1  0.64676500  0.05970400  0.64676500  1
  Ga  Ga10  1  0.05970400  0.64676500  0.64676500  1
  Ga  Ga11  1  0.64676500  0.64676500  0.64676500  1
  Ga  Ga12  1  0.35323500  0.35323500  0.94029600  1
  Ga  Ga13  1  0.35323500  0.94029600  0.35323500  1
  Ga  Ga14  1  0.94029600  0.35323500  0.35323500  1
  Ga  Ga15  1  0.35323500  0.35323500  0.35323500  1
  Ir  Ir0  1  0.00000000  0.00000000  0.00000000  1
  Ir  Ir1  1  0.00000000  0.00000000  0.50000000  1
  Ir  Ir2  1  0.50000000  0.00000000  0.50000000  1
  Ir  Ir3  1  0.00000000  0.50000000  0.50000000  1
  Ir  Ir4  1  0.50000000  0.50000000  0.00000000  1
  Ir  Ir5  1  0.00000000  0.50000000  0.00000000  1
  Ir  Ir6  1  0.50000000  0.00000000  0.00000000  1
loop_
_geom_bond_atom_site_label_1
_geom_bond_atom_site_label_2
_geom_bond_distance
_geom_bond_site_symmetry_2
Ga0 Ir0 2.604798 1_665
Ga0 Ir2 2.657119 1_565
Ga0 Ir3 2.657119 1_655
Ga0 Ir1 2.657126 1_665
Ga1 Ir0 2.604798 1_656
Ga1 Ir3 2.657119 1_655
Ga1 Ir4 2.657119 1_556
Ga1 Ir5 2.657126 1_656
Ga2 Ir0 2.604798 1_566
Ga2 Ir2 2.657119 1_565
Ga2 Ir4 2.657119 1_556
Ga2 Ir6 2.657126 1_566
Ga3 Ir0 2.604805 1_666
Ga3 Ir1 2.657119 1_665
Ga3 Ir5 2.657119 1_656
Ga3 Ir6 2.657119 1_566
Ga4 Ir0 2.604798 1_556
Ga4 Ir3 2.657119 1_555
Ga4 Ir2 2.657119 1_555
Ga4 Ir1 2.657126 1_555
Ga5 Ir0 2.604798 1_565
Ga5 Ir4 2.657119 1_555
Ga5 Ir3 2.657119 1_555
Ga5 Ir5 2.657126 1_555
Ga6 Ir0 2.604798 1_655
Ga6 Ir2 2.657119 1_555
Ga6 Ir4 2.657119 1_555
Ga6 Ir6 2.657126 1_555
Ga7 Ir0 2.604805 1_555
Ga7 Ir6 2.657119 1_555
Ga7 Ir5 2.657119 1_555
Ga7 Ir1 2.657119 1_555
Ga8 Ir4 2.527931 1_555
Ga8 Ir6 2.527938 1_565
Ga8 Ir5 2.527938 1_655
Ga8 Ti2 2.605520 1_555
Ga8 Ti1 2.605520 1_555
Ga8 Ti0 2.605526 1_555
Ga9 Ir2 2.527931 1_555
Ga9 Ir6 2.527938 1_556
Ga9 Ir1 2.527938 1_655
Ga9 Ti3 2.605520 1_555
Ga9 Ti2 2.605520 1_555
Ga9 Ti4 2.605526 1_555
Ga10 Ir3 2.527931 1_555
Ga10 Ir5 2.527938 1_556
Ga10 Ir1 2.527938 1_565
Ga10 Ti1 2.605520 1_555
Ga10 Ti3 2.605520 1_555
Ga10 Ti5 2.605526 1_555
Ga11 Ir4 2.527937 1_556
Ga11 Ir2 2.527937 1_565
Ga11 Ir3 2.527937 1_655
Ga11 Ti5 2.605518 1_555
Ga11 Ti0 2.605518 1_555
Ga11 Ti4 2.605518 1_555
Ga12 Ir4 2.527931 1_556
Ga12 Ir6 2.527938 1_556
Ga12 Ir5 2.527938 1_556
Ga12 Ti5 2.605520 1_555
Ga12 Ti4 2.605520 1_555
Ga12 Ti3 2.605526 1_555
Ga13 Ir2 2.527931 1_565
Ga13 Ir6 2.527938 1_565
Ga13 Ir1 2.527938 1_565
Ga13 Ti5 2.605520 1_555
Ga13 Ti0 2.605520 1_555
Ga13 Ti1 2.605526 1_555
Ga14 Ir3 2.527931 1_655
Ga14 Ir5 2.527938 1_655
Ga14 Ir1 2.527938 1_655
Ga14 Ti0 2.605520 1_555
Ga14 Ti4 2.605520 1_555
Ga14 Ti2 2.605526 1_555
Ga15 Ir4 2.527937 1_555
Ga15 Ir3 2.527937 1_555
Ga15 Ir2 2.527937 1_555
Ga15 Ti1 2.605518 1_555
Ga15 Ti2 2.605518 1_555
Ga15 Ti3 2.605518 1_555
