# generated using pymatgen
data_Li3TiNi3O8
_symmetry_space_group_name_H-M   'P 1'
_cell_length_a   5.84899389
_cell_length_b   5.87855820
_cell_length_c   10.01802483
_cell_angle_alpha   88.69836175
_cell_angle_beta   106.45621032
_cell_angle_gamma   119.21908775
_symmetry_Int_Tables_number   1
_chemical_formula_structural   Li3TiNi3O8
_chemical_formula_sum   'Li6 Ti2 Ni6 O16'
_cell_volume   285.55127647
_cell_formula_units_Z   2
loop_
 _symmetry_equiv_pos_site_id
 _symmetry_equiv_pos_as_xyz
  1  'x, y, z'
loop_
 _atom_site_type_symbol
 _atom_site_label
 _atom_site_symmetry_multiplicity
 _atom_site_fract_x
 _atom_site_fract_y
 _atom_site_fract_z
 _atom_site_occupancy
  Li  Li0  1  0.50005600  0.25006200  0.75004300  1
  Li  Li1  1  0.49982800  0.74981900  0.24994200  1
  Li  Li2  1  0.50738100  0.00172300  0.50273700  1
  Li  Li3  1  0.49260900  0.49828900  0.99725700  1
  Li  Li4  1  0.49996400  0.25001200  0.24988700  1
  Li  Li5  1  0.49991900  0.74993500  0.75014600  1
  Ti  Ti0  1  0.98704300  0.98361100  0.99558600  1
  Ti  Ti1  1  0.01290300  0.51635300  0.50441300  1
  Ni  Ni0  1  0.99986300  0.74984700  0.25000500  1
  Ni  Ni1  1  0.00018200  0.25015200  0.74999800  1
  Ni  Ni2  1  0.00013800  0.75009400  0.75008000  1
  Ni  Ni3  1  0.00061900  0.00272200  0.49961600  1
  Ni  Ni4  1  0.99951000  0.49737200  0.00034600  1
  Ni  Ni5  1  0.99995400  0.24992500  0.24996400  1
  O  O0  1  0.23483100  0.85822300  0.61503000  1
  O  O1  1  0.21461500  0.34620800  0.12448300  1
  O  O2  1  0.76498600  0.64215400  0.88487100  1
  O  O3  1  0.78554900  0.15352900  0.37562700  1
  O  O4  1  0.20155300  0.08655000  0.35697600  1
  O  O5  1  0.20841800  0.57849900  0.86414700  1
  O  O6  1  0.79816200  0.41323000  0.14309800  1
  O  O7  1  0.79194500  0.92164900  0.63570700  1
  O  O8  1  0.21986600  0.12827300  0.87152400  1
  O  O9  1  0.22682800  0.63472200  0.36924200  1
  O  O10  1  0.22359200  0.37017400  0.62988600  1
  O  O11  1  0.22042300  0.86789200  0.12891200  1
  O  O12  1  0.77663300  0.13009800  0.87004200  1
  O  O13  1  0.77934500  0.63185100  0.37114400  1
  O  O14  1  0.78035100  0.37186100  0.62853700  1
  O  O15  1  0.77293700  0.86517200  0.13075400  1
loop_
_geom_bond_atom_site_label_1
_geom_bond_atom_site_label_2
_geom_bond_distance
_geom_bond_site_symmetry_2
Li0 O12 2.129062 1_555
Li0 O10 2.129701 1_555
Li0 O8 2.150425 1_555
Li0 O14 2.151082 1_555
Li0 O0 2.237396 1_545
Li0 O2 2.237613 1_555
Li1 O15 2.103229 1_555
Li1 O9 2.103705 1_555
Li1 O11 2.137565 1_555
Li1 O13 2.138234 1_555
Li1 O1 2.252857 1_555
Li1 O3 2.254314 1_565
Li2 O0 2.044126 1_545
Li2 O7 2.060724 1_545
Li2 O14 2.112995 1_555
Li2 O9 2.137092 1_545
Li2 O3 2.183965 1_555
Li2 O4 2.222294 1_555
Li3 O2 2.044137 1_555
Li3 O5 2.060184 1_555
Li3 O8 2.112127 1_555
Li3 O15 2.136523 1_556
Li3 O1 2.184206 1_556
Li3 O6 2.222284 1_556
Li4 O1 2.094006 1_555
Li4 O3 2.097382 1_555
Li4 O6 2.117523 1_555
Li4 O4 2.120698 1_555
Li4 O13 2.145362 1_555
Li4 O11 2.145528 1_545
Li5 O2 2.088392 1_555
Li5 O0 2.092102 1_555
Li5 O10 2.131628 1_555
Li5 O12 2.132096 1_565
Li5 O5 2.144835 1_555
Li5 O7 2.150427 1_555
Ni0 O6 1.885688 1_555
Ni0 O4 1.886339 1_665
Ni0 O9 1.894510 1_655
Ni0 O15 1.895216 1_555
Ni0 O11 1.895217 1_655
Ni0 O13 1.895424 1_555
Ni1 O5 1.879574 1_555
Ni1 O7 1.880876 1_445
Ni1 O10 1.898786 1_555
Ni1 O12 1.898789 1_455
Ni1 O14 1.902087 1_455
Ni1 O8 1.902482 1_555
Ni2 O5 2.041102 1_555
Ni2 O7 2.041741 1_455
Ni2 O2 2.068588 1_455
Ni2 O0 2.068840 1_555
Ni2 O8 2.126460 1_565
Ni2 O14 2.127100 1_455
Ni3 O7 1.980139 1_445
Ni3 O4 2.005022 1_555
Ni3 O3 2.016110 1_455
Ni3 O0 2.032022 1_545
Ni3 O10 2.117406 1_555
Ni3 O13 2.124537 1_445
Ni4 O5 1.981992 1_654
Ni4 O6 2.007516 1_555
Ni4 O1 2.018416 1_655
Ni4 O2 2.034778 1_554
Ni4 O12 2.116829 1_554
Ni4 O11 2.123570 1_655
Ni5 O1 1.909211 1_655
Ni5 O3 1.909667 1_555
Ni5 O6 1.950494 1_555
Ni5 O4 1.950571 1_655
Ni5 O15 2.144120 1_545
Ni5 O9 2.144640 1_655
O0 Ti1 1.921249 1_555
O1 Ti0 2.088999 1_444
O2 Ti0 1.919883 1_555
O3 Ti1 2.089499 1_655
O8 Ti0 1.975499 1_445
O9 Ti1 1.987624 1_555
O10 Ti1 1.986012 1_555
O11 Ti0 1.985547 1_454
O12 Ti0 1.986572 1_545
O13 Ti1 1.985109 1_655
O14 Ti1 1.974884 1_655
O15 Ti0 1.988300 1_554
