# generated using pymatgen
data_ThSi3Ru
_symmetry_space_group_name_H-M   'P 1'
_cell_length_a   5.78570398
_cell_length_b   5.78570398
_cell_length_c   5.78570398
_cell_angle_alpha   137.13008712
_cell_angle_beta   137.13008712
_cell_angle_gamma   62.23795769
_symmetry_Int_Tables_number   1
_chemical_formula_structural   ThSi3Ru
_chemical_formula_sum   'Th1 Si3 Ru1'
_cell_volume   88.57160814
_cell_formula_units_Z   1
loop_
 _symmetry_equiv_pos_site_id
 _symmetry_equiv_pos_as_xyz
  1  'x, y, z'
loop_
 _atom_site_type_symbol
 _atom_site_label
 _atom_site_symmetry_multiplicity
 _atom_site_fract_x
 _atom_site_fract_y
 _atom_site_fract_z
 _atom_site_occupancy
  Th  Th0  1  0.99496581  0.99496581  -0.00000000  1
  Si  Si0  1  0.41801741  0.41801741  0.00000000  1
  Si  Si1  1  0.26286549  0.76286549  0.50000000  1
  Si  Si2  1  0.76286549  0.26286549  0.50000000  1
  Ru  Ru0  1  0.65528380  0.65528380  0.00000000  1
loop_
_geom_bond_atom_site_label_1
_geom_bond_atom_site_label_2
_geom_bond_distance
_geom_bond_site_symmetry_2
Si0 Si1 2.613959 1_544
Si0 Si1 2.613959 1_555
Si0 Si2 2.613959 1_555
Si0 Si2 2.613959 1_454
Si0 Th0 3.085782 1_444
Si0 Th0 3.085782 1_545
Si0 Th0 3.085782 1_556
Si0 Th0 3.085782 1_455
Si1 Th0 3.123620 1_455
Si1 Th0 3.123620 1_556
Si1 Th0 3.393164 1_456
Si1 Th0 3.393164 1_445
Si2 Th0 3.123620 1_545
Si2 Th0 3.123620 1_556
Si2 Th0 3.393164 1_445
Si2 Th0 3.393164 1_546
Ru0 Si0 2.350417 1_555
Ru0 Si2 2.367758 1_565
Ru0 Si1 2.367758 1_655
Ru0 Si2 2.367758 1_554
Ru0 Si1 2.367758 1_554
Ru0 Th0 3.364970 1_555
Ru0 Th0 3.385736 1_455
Ru0 Th0 3.385736 1_545
Ru0 Th0 3.385736 1_444
Ru0 Th0 3.385736 1_556
