# generated using pymatgen
data_BaSc8Ni2O15
_symmetry_space_group_name_H-M   'P 1'
_cell_length_a   8.11844045
_cell_length_b   8.11844045
_cell_length_c   9.80846800
_cell_angle_alpha   90.00000000
_cell_angle_beta   90.00000000
_cell_angle_gamma   96.32331578
_symmetry_Int_Tables_number   1
_chemical_formula_structural   BaSc8Ni2O15
_chemical_formula_sum   'Ba2 Sc16 Ni4 O30'
_cell_volume   642.53409210
_cell_formula_units_Z   2
loop_
 _symmetry_equiv_pos_site_id
 _symmetry_equiv_pos_as_xyz
  1  'x, y, z'
loop_
 _atom_site_type_symbol
 _atom_site_label
 _atom_site_symmetry_multiplicity
 _atom_site_fract_x
 _atom_site_fract_y
 _atom_site_fract_z
 _atom_site_occupancy
  Ba  Ba0  1  0.76463500  0.76463500  0.51156600  1
  Ba  Ba1  1  0.23536500  0.23536500  0.01156600  1
  Sc  Sc0  1  0.43625100  0.43625100  0.63679000  1
  Sc  Sc1  1  0.06345500  0.06345500  0.36311600  1
  Sc  Sc2  1  0.56374900  0.56374900  0.13679000  1
  Sc  Sc3  1  0.93654500  0.93654500  0.86311600  1
  Sc  Sc4  1  0.03152200  0.29624200  0.64837200  1
  Sc  Sc5  1  0.20306300  0.46226200  0.35420400  1
  Sc  Sc6  1  0.70375800  0.96847800  0.14837200  1
  Sc  Sc7  1  0.53773800  0.79693700  0.85420400  1
  Sc  Sc8  1  0.46226200  0.20306300  0.35420400  1
  Sc  Sc9  1  0.29624200  0.03152200  0.64837200  1
  Sc  Sc10  1  0.79693700  0.53773800  0.85420400  1
  Sc  Sc11  1  0.96847800  0.70375800  0.14837200  1
  Sc  Sc12  1  0.17476900  0.65078000  0.88592400  1
  Sc  Sc13  1  0.34922000  0.82523100  0.38592400  1
  Sc  Sc14  1  0.65078000  0.17476900  0.88592400  1
  Sc  Sc15  1  0.82523100  0.34922000  0.38592400  1
  Ni  Ni0  1  0.84494900  0.33085500  0.11199400  1
  Ni  Ni1  1  0.66914500  0.15505100  0.61199400  1
  Ni  Ni2  1  0.33085500  0.84494900  0.11199400  1
  Ni  Ni3  1  0.15505100  0.66914500  0.61199400  1
  O  O0  1  0.11156200  0.85619000  0.00361800  1
  O  O1  1  0.64317000  0.39067900  0.99399500  1
  O  O2  1  0.14381000  0.88843800  0.50361800  1
  O  O3  1  0.60932100  0.35683000  0.49399500  1
  O  O4  1  0.39067900  0.64317000  0.99399500  1
  O  O5  1  0.85619000  0.11156200  0.00361800  1
  O  O6  1  0.35683000  0.60932100  0.49399500  1
  O  O7  1  0.88843800  0.14381000  0.50361800  1
  O  O8  1  0.10118400  0.10118400  0.76381500  1
  O  O9  1  0.39794700  0.39794700  0.23575200  1
  O  O10  1  0.89881600  0.89881600  0.26381500  1
  O  O11  1  0.60205300  0.60205300  0.73575200  1
  O  O12  1  0.81667800  0.32050300  0.75072400  1
  O  O13  1  0.18332200  0.67949700  0.25072400  1
  O  O14  1  0.67949700  0.18332200  0.25072400  1
  O  O15  1  0.32050300  0.81667800  0.75072400  1
  O  O16  1  0.99695000  0.50692000  0.99894400  1
  O  O17  1  0.49308000  0.00305000  0.49894400  1
  O  O18  1  0.50692000  0.99695000  0.99894400  1
  O  O19  1  0.00305000  0.49308000  0.49894400  1
  O  O20  1  0.71205900  0.96980700  0.75700000  1
  O  O21  1  0.53423300  0.78947900  0.24078700  1
  O  O22  1  0.03019300  0.28794100  0.25700000  1
  O  O23  1  0.21052100  0.46576700  0.74078700  1
  O  O24  1  0.78947900  0.53423300  0.24078700  1
  O  O25  1  0.96980700  0.71205900  0.75700000  1
  O  O26  1  0.46576700  0.21052100  0.74078700  1
  O  O27  1  0.28794100  0.03019300  0.25700000  1
  O  O28  1  0.74982700  0.74982700  0.99783500  1
  O  O29  1  0.25017300  0.25017300  0.49783500  1
loop_
_geom_bond_atom_site_label_1
_geom_bond_atom_site_label_2
_geom_bond_distance
_geom_bond_site_symmetry_2
Ba0 O11 2.817061 1_555
Ba0 O10 2.831450 1_555
Ba0 O25 2.984715 1_555
Ba0 O20 2.984715 1_555
Ba0 O17 3.092239 1_565
Ba0 O19 3.092239 1_655
Ba0 O7 3.132209 1_565
Ba0 O2 3.132209 1_655
Ba0 O21 3.267495 1_555
Ba0 O24 3.267495 1_555
Ba0 O6 3.414826 1_555
Ba0 O3 3.414826 1_555
Ba1 O9 2.817061 1_555
Ba1 O8 2.831450 1_554
Ba1 O22 2.984715 1_555
Ba1 O27 2.984715 1_555
Ba1 O18 3.092239 1_544
Ba1 O16 3.092239 1_454
Ba1 O5 3.132209 1_455
Ba1 O0 3.132209 1_545
Ba1 O26 3.267495 1_554
Ba1 O23 3.267495 1_554
Ba1 O1 3.414826 1_554
Ba1 O4 3.414826 1_554
Ni0 O5 2.084135 1_555
Ni0 O16 2.099260 1_554
Ni0 O1 2.105744 1_554
Ni0 O22 2.126355 1_655
Ni0 O24 2.165314 1_555
Ni0 O14 2.176233 1_555
Ni1 O7 2.084135 1_555
Ni1 O17 2.099260 1_555
Ni1 O3 2.105744 1_555
Ni1 O20 2.126355 1_545
Ni1 O26 2.165314 1_555
Ni1 O12 2.176233 1_555
Ni2 O0 2.084135 1_555
Ni2 O18 2.099260 1_554
Ni2 O4 2.105744 1_554
Ni2 O27 2.126355 1_565
Ni2 O21 2.165314 1_555
Ni2 O13 2.176233 1_555
Ni3 O2 2.084135 1_555
Ni3 O19 2.099260 1_555
Ni3 O6 2.105744 1_555
Ni3 O25 2.126355 1_455
Ni3 O23 2.165314 1_555
Ni3 O15 2.176233 1_555
O0 Sc3 2.132555 1_454
O0 Sc12 2.136671 1_554
O0 Sc11 2.140096 1_455
O1 Sc14 2.055185 1_555
O1 Sc10 2.129662 1_555
O1 Sc2 2.133346 1_556
O2 Sc1 2.132555 1_565
O2 Sc13 2.136671 1_555
O2 Sc9 2.140096 1_565
O3 Sc15 2.055185 1_555
O3 Sc8 2.129662 1_555
O3 Sc0 2.133346 1_555
O4 Sc12 2.055185 1_555
O4 Sc7 2.129662 1_555
O4 Sc2 2.133346 1_556
O5 Sc3 2.132555 1_544
O5 Sc14 2.136671 1_554
O5 Sc6 2.140096 1_545
O6 Sc13 2.055185 1_555
O6 Sc5 2.129662 1_555
O6 Sc0 2.133346 1_555
O7 Sc1 2.132555 1_655
O7 Sc15 2.136671 1_555
O7 Sc4 2.140096 1_655
O8 Sc3 2.031794 1_445
O8 Sc9 2.075319 1_555
O8 Sc4 2.075319 1_555
O9 Sc2 2.041274 1_555
O9 Sc5 2.075492 1_555
O9 Sc8 2.075492 1_555
O10 Sc1 2.031794 1_665
O10 Sc6 2.075319 1_555
O10 Sc11 2.075319 1_555
O11 Sc0 2.041274 1_555
O11 Sc10 2.075492 1_555
O11 Sc7 2.075492 1_555
O12 Sc4 2.040721 1_655
O12 Sc10 2.056319 1_555
O12 Sc14 2.149723 1_555
O13 Sc11 2.040721 1_455
O13 Sc5 2.056319 1_555
O13 Sc13 2.149723 1_555
O14 Sc6 2.040721 1_545
O14 Sc8 2.056319 1_555
O14 Sc15 2.149723 1_555
O15 Sc9 2.040721 1_565
O15 Sc7 2.056319 1_555
O15 Sc12 2.149723 1_555
O16 Sc12 2.074982 1_655
O16 Sc10 2.191866 1_555
O16 Sc11 2.199230 1_556
O17 Sc13 2.074982 1_545
O17 Sc8 2.191866 1_555
O17 Sc9 2.199230 1_555
O18 Sc14 2.074982 1_565
O18 Sc7 2.191866 1_555
O18 Sc6 2.199230 1_556
O19 Sc15 2.074982 1_455
O19 Sc5 2.191866 1_555
O19 Sc4 2.199230 1_555
O20 Sc7 2.108072 1_555
O20 Sc3 2.141514 1_555
O20 Sc14 2.190371 1_565
O21 Sc6 2.094519 1_555
O21 Sc13 2.112555 1_555
O21 Sc2 2.133773 1_555
O22 Sc5 2.108072 1_555
O22 Sc1 2.141514 1_555
O22 Sc15 2.190371 1_455
O23 Sc4 2.094519 1_555
O23 Sc12 2.112555 1_555
O23 Sc0 2.133773 1_555
O24 Sc11 2.094519 1_555
O24 Sc15 2.112555 1_555
O24 Sc2 2.133773 1_555
O25 Sc10 2.108072 1_555
O25 Sc3 2.141514 1_555
O25 Sc12 2.190371 1_655
O26 Sc9 2.094519 1_555
O26 Sc14 2.112555 1_555
O26 Sc0 2.133773 1_555
O27 Sc8 2.108072 1_555
O27 Sc1 2.141514 1_555
O27 Sc13 2.190371 1_545
O28 Sc7 2.289270 1_555
O28 Sc10 2.289270 1_555
O28 Sc6 2.370081 1_556
O28 Sc11 2.370081 1_556
O28 Sc3 2.415690 1_555
O28 Sc2 2.432921 1_556
O29 Sc8 2.289270 1_555
O29 Sc5 2.289270 1_555
O29 Sc9 2.370081 1_555
O29 Sc4 2.370081 1_555
O29 Sc1 2.415690 1_555
O29 Sc0 2.432921 1_555
