# generated using pymatgen
data_Ti3Si3Mo2
_symmetry_space_group_name_H-M   'P 1'
_cell_length_a   5.05289100
_cell_length_b   7.44171008
_cell_length_c   7.35508081
_cell_angle_alpha   120.39038980
_cell_angle_beta   90.00162703
_cell_angle_gamma   89.99678602
_symmetry_Int_Tables_number   1
_chemical_formula_structural   Ti3Si3Mo2
_chemical_formula_sum   'Ti6 Si6 Mo4'
_cell_volume   238.56616014
_cell_formula_units_Z   2
loop_
 _symmetry_equiv_pos_site_id
 _symmetry_equiv_pos_as_xyz
  1  'x, y, z'
loop_
 _atom_site_type_symbol
 _atom_site_label
 _atom_site_symmetry_multiplicity
 _atom_site_fract_x
 _atom_site_fract_y
 _atom_site_fract_z
 _atom_site_occupancy
  Ti  Ti0  1  0.25003600  0.23297100  0.23326800  1
  Ti  Ti1  1  0.25003600  0.99970300  0.76673200  1
  Ti  Ti2  1  0.49968900  0.33464200  0.66646300  1
  Ti  Ti3  1  0.49968900  0.66817800  0.33353700  1
  Ti  Ti4  1  0.00030700  0.66821100  0.33355000  1
  Ti  Ti5  1  0.00030700  0.33466100  0.66645000  1
  Si  Si0  1  0.74994800  0.61430000  0.00000000  1
  Si  Si1  1  0.75000400  0.38877400  0.38740500  1
  Si  Si2  1  0.75000400  0.00136900  0.61259500  1
  Si  Si3  1  0.24997700  0.39666700  0.00000000  1
  Si  Si4  1  0.25002300  0.60316400  0.60370100  1
  Si  Si5  1  0.25002300  0.99946300  0.39629900  1
  Mo  Mo0  1  0.74996000  0.26753700  0.00000000  1
  Mo  Mo1  1  0.75004300  0.74060900  0.73818300  1
  Mo  Mo2  1  0.75004300  0.00242600  0.26181700  1
  Mo  Mo3  1  0.24990900  0.74732700  0.00000000  1
loop_
_geom_bond_atom_site_label_1
_geom_bond_atom_site_label_2
_geom_bond_distance
_geom_bond_site_symmetry_2
Si0 Ti2 2.604395 1_554
Si0 Ti3 2.604397 1_555
Si0 Ti4 2.604600 1_655
Si0 Ti5 2.604600 1_654
Si1 Ti5 2.609621 1_655
Si1 Ti2 2.609889 1_555
Si1 Ti3 2.629291 1_555
Si1 Ti4 2.629545 1_655
Si1 Ti0 2.771625 1_555
Si1 Ti0 2.771860 1_655
Si2 Ti4 2.609621 1_645
Si2 Ti3 2.609893 1_545
Si2 Ti2 2.629297 1_555
Si2 Ti5 2.629545 1_655
Si2 Ti1 2.771625 1_545
Si2 Ti1 2.771860 1_645
Si3 Ti1 2.557783 1_544
Si3 Ti0 2.557783 1_555
Si3 Ti5 2.584104 1_554
Si3 Ti4 2.584104 1_555
Si3 Ti3 2.584123 1_555
Si3 Ti2 2.584125 1_554
Si4 Ti1 2.562358 1_555
Si4 Ti2 2.594341 1_555
Si4 Ti5 2.594409 1_555
Si4 Ti3 2.597487 1_555
Si4 Ti4 2.597587 1_555
Si4 Ti0 2.723662 1_555
Si5 Ti0 2.562358 1_565
Si5 Ti3 2.594347 1_555
Si5 Ti4 2.594409 1_555
Si5 Ti2 2.597491 1_565
Si5 Ti5 2.597587 1_565
Si5 Ti1 2.723662 1_555
Mo0 Si2 2.516347 1_554
Mo0 Si1 2.516347 1_555
Mo0 Si0 2.580510 1_555
Mo0 Si3 2.702895 1_555
Mo0 Si3 2.703156 1_655
Mo1 Si0 2.534395 1_556
Mo1 Si2 2.536208 1_565
Mo1 Si1 2.583989 1_555
Mo1 Si4 2.717203 1_655
Mo1 Si4 2.717445 1_555
Mo2 Si0 2.534394 1_545
Mo2 Si1 2.536208 1_555
Mo2 Si2 2.583989 1_555
Mo2 Si5 2.717203 1_645
Mo2 Si5 2.717445 1_545
Mo3 Si5 2.546207 1_555
Mo3 Si4 2.546207 1_554
Mo3 Si3 2.609510 1_555
Mo3 Si0 2.713339 1_455
Mo3 Si0 2.713603 1_555
