# generated using pymatgen
data_BaMg30CoO32
_symmetry_space_group_name_H-M   'P 1'
_cell_length_a   8.66025500
_cell_length_b   8.66025500
_cell_length_c   8.60128100
_cell_angle_alpha   90.00000000
_cell_angle_beta   90.00000000
_cell_angle_gamma   90.00000000
_symmetry_Int_Tables_number   1
_chemical_formula_structural   BaMg30CoO32
_chemical_formula_sum   'Ba1 Mg30 Co1 O32'
_cell_volume   645.09621834
_cell_formula_units_Z   1
loop_
 _symmetry_equiv_pos_site_id
 _symmetry_equiv_pos_as_xyz
  1  'x, y, z'
loop_
 _atom_site_type_symbol
 _atom_site_label
 _atom_site_symmetry_multiplicity
 _atom_site_fract_x
 _atom_site_fract_y
 _atom_site_fract_z
 _atom_site_occupancy
  Ba  Ba0  1  0.00000000  0.00000000  0.50000000  1
  Mg  Mg0  1  0.50000000  0.00000000  0.00000000  1
  Mg  Mg1  1  0.50000000  0.00000000  0.50000000  1
  Mg  Mg2  1  0.00000000  0.50000000  0.00000000  1
  Mg  Mg3  1  0.00000000  0.50000000  0.50000000  1
  Mg  Mg4  1  0.50000000  0.50000000  0.00000000  1
  Mg  Mg5  1  0.50000000  0.50000000  0.50000000  1
  Mg  Mg6  1  0.25781100  0.00000000  0.24196500  1
  Mg  Mg7  1  0.25781100  0.00000000  0.75803500  1
  Mg  Mg8  1  0.74218900  0.00000000  0.24196500  1
  Mg  Mg9  1  0.74218900  0.00000000  0.75803500  1
  Mg  Mg10  1  0.25086100  0.50000000  0.24864300  1
  Mg  Mg11  1  0.25086100  0.50000000  0.75135700  1
  Mg  Mg12  1  0.74913900  0.50000000  0.24864300  1
  Mg  Mg13  1  0.74913900  0.50000000  0.75135700  1
  Mg  Mg14  1  0.00000000  0.25781100  0.24196500  1
  Mg  Mg15  1  0.00000000  0.25781100  0.75803500  1
  Mg  Mg16  1  0.50000000  0.25086100  0.24864300  1
  Mg  Mg17  1  0.50000000  0.25086100  0.75135700  1
  Mg  Mg18  1  0.00000000  0.74218900  0.24196500  1
  Mg  Mg19  1  0.00000000  0.74218900  0.75803500  1
  Mg  Mg20  1  0.50000000  0.74913900  0.24864300  1
  Mg  Mg21  1  0.50000000  0.74913900  0.75135700  1
  Mg  Mg22  1  0.24912000  0.24912000  0.00000000  1
  Mg  Mg23  1  0.25759600  0.25759600  0.50000000  1
  Mg  Mg24  1  0.75088000  0.24912000  0.00000000  1
  Mg  Mg25  1  0.74240400  0.25759600  0.50000000  1
  Mg  Mg26  1  0.24912000  0.75088000  0.00000000  1
  Mg  Mg27  1  0.25759600  0.74240400  0.50000000  1
  Mg  Mg28  1  0.75088000  0.75088000  0.00000000  1
  Mg  Mg29  1  0.74240400  0.74240400  0.50000000  1
  Co  Co0  1  0.00000000  0.00000000  0.00000000  1
  O  O0  1  0.00000000  0.25754400  0.00000000  1
  O  O1  1  0.00000000  0.27871300  0.50000000  1
  O  O2  1  0.50000000  0.25145400  0.00000000  1
  O  O3  1  0.50000000  0.25577300  0.50000000  1
  O  O4  1  0.00000000  0.74245600  0.00000000  1
  O  O5  1  0.00000000  0.72128700  0.50000000  1
  O  O6  1  0.50000000  0.74854600  0.00000000  1
  O  O7  1  0.50000000  0.74422700  0.50000000  1
  O  O8  1  0.24920200  0.24920200  0.25030900  1
  O  O9  1  0.24920200  0.24920200  0.74969100  1
  O  O10  1  0.75079800  0.24920200  0.25030900  1
  O  O11  1  0.75079800  0.24920200  0.74969100  1
  O  O12  1  0.24920200  0.75079800  0.25030900  1
  O  O13  1  0.24920200  0.75079800  0.74969100  1
  O  O14  1  0.75079800  0.75079800  0.25030900  1
  O  O15  1  0.75079800  0.75079800  0.74969100  1
  O  O16  1  0.00000000  0.00000000  0.21879800  1
  O  O17  1  0.00000000  0.00000000  0.78120200  1
  O  O18  1  0.50000000  0.00000000  0.24447500  1
  O  O19  1  0.50000000  0.00000000  0.75552500  1
  O  O20  1  0.00000000  0.50000000  0.24447500  1
  O  O21  1  0.00000000  0.50000000  0.75552500  1
  O  O22  1  0.50000000  0.50000000  0.24839800  1
  O  O23  1  0.50000000  0.50000000  0.75160200  1
  O  O24  1  0.25754400  0.00000000  0.00000000  1
  O  O25  1  0.27871300  0.00000000  0.50000000  1
  O  O26  1  0.74245600  0.00000000  0.00000000  1
  O  O27  1  0.72128700  0.00000000  0.50000000  1
  O  O28  1  0.25145400  0.50000000  0.00000000  1
  O  O29  1  0.25577300  0.50000000  0.50000000  1
  O  O30  1  0.74854600  0.50000000  0.00000000  1
  O  O31  1  0.74422700  0.50000000  0.50000000  1
loop_
_geom_bond_atom_site_label_1
_geom_bond_atom_site_label_2
_geom_bond_distance
_geom_bond_site_symmetry_2
Ba0 O27 2.413726 1_455
Ba0 O25 2.413726 1_555
Ba0 O5 2.413726 1_545
Ba0 O1 2.413726 1_555
Ba0 O17 2.418697 1_555
Ba0 O16 2.418697 1_555
Mg0 O26 2.099731 1_555
Mg0 O24 2.099731 1_555
Mg0 O19 2.102798 1_554
Mg0 O18 2.102798 1_555
Mg0 O6 2.177656 1_545
Mg0 O2 2.177656 1_555
Mg1 O25 1.916402 1_555
Mg1 O27 1.916402 1_555
Mg1 O18 2.197842 1_555
Mg1 O19 2.197842 1_555
Mg1 O3 2.215059 1_555
Mg1 O7 2.215059 1_545
Mg2 O4 2.099731 1_555
Mg2 O0 2.099731 1_555
Mg2 O20 2.102798 1_555
Mg2 O21 2.102798 1_554
Mg2 O30 2.177656 1_455
Mg2 O28 2.177656 1_555
Mg3 O5 1.916402 1_555
Mg3 O1 1.916402 1_555
Mg3 O21 2.197842 1_555
Mg3 O20 2.197842 1_555
Mg3 O29 2.215059 1_555
Mg3 O31 2.215059 1_455
Mg4 O22 2.136541 1_555
Mg4 O23 2.136541 1_554
Mg4 O2 2.152472 1_555
Mg4 O28 2.152472 1_555
Mg4 O30 2.152472 1_555
Mg4 O6 2.152472 1_555
Mg5 O31 2.115068 1_555
Mg5 O7 2.115068 1_555
Mg5 O29 2.115068 1_555
Mg5 O3 2.115068 1_555
Mg5 O22 2.164100 1_555
Mg5 O23 2.164100 1_555
Mg6 O24 2.081210 1_555
Mg6 O18 2.097530 1_555
Mg6 O12 2.160633 1_545
Mg6 O8 2.160633 1_555
Mg6 O25 2.226801 1_555
Mg6 O16 2.241583 1_555
Mg7 O24 2.081210 1_556
Mg7 O19 2.097530 1_555
Mg7 O13 2.160633 1_545
Mg7 O9 2.160633 1_555
Mg7 O25 2.226801 1_555
Mg7 O17 2.241583 1_555
Mg8 O26 2.081210 1_555
Mg8 O18 2.097530 1_555
Mg8 O14 2.160633 1_545
Mg8 O10 2.160633 1_555
Mg8 O27 2.226801 1_555
Mg8 O16 2.241583 1_655
Mg9 O26 2.081210 1_556
Mg9 O19 2.097530 1_555
Mg9 O11 2.160633 1_555
Mg9 O15 2.160633 1_545
Mg9 O27 2.226801 1_555
Mg9 O17 2.241583 1_655
Mg10 O28 2.138654 1_555
Mg10 O22 2.157608 1_555
Mg10 O29 2.162411 1_555
Mg10 O8 2.172069 1_555
Mg10 O12 2.172069 1_555
Mg10 O20 2.172816 1_555
Mg11 O28 2.138654 1_556
Mg11 O23 2.157608 1_555
Mg11 O29 2.162411 1_555
Mg11 O9 2.172069 1_555
Mg11 O13 2.172069 1_555
Mg11 O21 2.172816 1_555
Mg12 O30 2.138654 1_555
Mg12 O22 2.157608 1_555
Mg12 O31 2.162411 1_555
Mg12 O14 2.172069 1_555
Mg12 O10 2.172069 1_555
Mg12 O20 2.172816 1_655
Mg13 O30 2.138654 1_556
Mg13 O23 2.157608 1_555
Mg13 O31 2.162411 1_555
Mg13 O15 2.172069 1_555
Mg13 O11 2.172069 1_555
Mg13 O21 2.172816 1_655
Mg14 O0 2.081210 1_555
Mg14 O20 2.097530 1_555
Mg14 O10 2.160633 1_455
Mg14 O8 2.160633 1_555
Mg14 O1 2.226801 1_555
Mg14 O16 2.241583 1_555
Mg15 O0 2.081210 1_556
Mg15 O21 2.097530 1_555
Mg15 O11 2.160633 1_455
Mg15 O9 2.160633 1_555
Mg15 O1 2.226801 1_555
Mg15 O17 2.241583 1_555
Mg16 O2 2.138654 1_555
Mg16 O22 2.157608 1_555
Mg16 O3 2.162411 1_555
Mg16 O8 2.172069 1_555
Mg16 O10 2.172069 1_555
Mg16 O18 2.172816 1_555
Mg17 O2 2.138654 1_556
Mg17 O23 2.157608 1_555
Mg17 O3 2.162411 1_555
Mg17 O9 2.172069 1_555
Mg17 O11 2.172069 1_555
Mg17 O19 2.172816 1_555
Mg18 O4 2.081210 1_555
Mg18 O20 2.097530 1_555
Mg18 O14 2.160633 1_455
Mg18 O12 2.160633 1_555
Mg18 O5 2.226801 1_555
Mg18 O16 2.241583 1_565
Mg19 O4 2.081210 1_556
Mg19 O21 2.097530 1_555
Mg19 O13 2.160633 1_555
Mg19 O15 2.160633 1_455
Mg19 O5 2.226801 1_555
Mg19 O17 2.241583 1_565
Mg20 O6 2.138654 1_555
Mg20 O22 2.157608 1_555
Mg20 O7 2.162411 1_555
Mg20 O14 2.172069 1_555
Mg20 O12 2.172069 1_555
Mg20 O18 2.172816 1_565
Mg21 O6 2.138654 1_556
Mg21 O23 2.157608 1_555
Mg21 O7 2.162411 1_555
Mg21 O15 2.172069 1_555
Mg21 O13 2.172069 1_555
Mg21 O19 2.172816 1_565
Mg22 O8 2.152978 1_555
Mg22 O9 2.152978 1_554
Mg22 O24 2.158676 1_555
Mg22 O0 2.158676 1_555
Mg22 O28 2.172779 1_555
Mg22 O2 2.172779 1_555
Mg23 O3 2.099340 1_555
Mg23 O29 2.099340 1_555
Mg23 O8 2.150122 1_555
Mg23 O9 2.150122 1_555
Mg23 O1 2.238330 1_555
Mg23 O25 2.238330 1_555
Mg24 O11 2.152978 1_554
Mg24 O10 2.152978 1_555
Mg24 O26 2.158676 1_555
Mg24 O0 2.158676 1_655
Mg24 O30 2.172779 1_555
Mg24 O2 2.172779 1_555
Mg25 O3 2.099340 1_555
Mg25 O31 2.099340 1_555
Mg25 O11 2.150122 1_555
Mg25 O10 2.150122 1_555
Mg25 O27 2.238330 1_555
Mg25 O1 2.238330 1_655
Mg26 O12 2.152978 1_555
Mg26 O13 2.152978 1_554
Mg26 O4 2.158676 1_555
Mg26 O24 2.158676 1_565
Mg26 O28 2.172779 1_555
Mg26 O6 2.172779 1_555
Mg27 O29 2.099340 1_555
Mg27 O7 2.099340 1_555
Mg27 O12 2.150122 1_555
Mg27 O13 2.150122 1_555
Mg27 O5 2.238330 1_555
Mg27 O25 2.238330 1_565
Mg28 O15 2.152978 1_554
Mg28 O14 2.152978 1_555
Mg28 O26 2.158676 1_565
Mg28 O4 2.158676 1_655
Mg28 O6 2.172779 1_555
Mg28 O30 2.172779 1_555
Mg29 O7 2.099340 1_555
Mg29 O31 2.099340 1_555
Mg29 O14 2.150122 1_555
Mg29 O15 2.150122 1_555
Mg29 O5 2.238330 1_655
Mg29 O27 2.238330 1_565
Co0 O16 1.881943 1_555
Co0 O17 1.881943 1_554
Co0 O4 2.230397 1_545
Co0 O0 2.230397 1_555
Co0 O24 2.230397 1_555
Co0 O26 2.230397 1_455
