# generated using pymatgen
data_Mg3V6(FeO6)4
_symmetry_space_group_name_H-M   'P 1'
_cell_length_a   6.76522700
_cell_length_b   8.19601658
_cell_length_c   9.95291827
_cell_angle_alpha   105.40092555
_cell_angle_beta   105.10449532
_cell_angle_gamma   102.32516809
_symmetry_Int_Tables_number   1
_chemical_formula_structural   Mg3V6(FeO6)4
_chemical_formula_sum   'Mg3 V6 Fe4 O24'
_cell_volume   489.41146661
_cell_formula_units_Z   1
loop_
 _symmetry_equiv_pos_site_id
 _symmetry_equiv_pos_as_xyz
  1  'x, y, z'
loop_
 _atom_site_type_symbol
 _atom_site_label
 _atom_site_symmetry_multiplicity
 _atom_site_fract_x
 _atom_site_fract_y
 _atom_site_fract_z
 _atom_site_occupancy
  Mg  Mg0  1  0.00000000  0.50000000  0.50000000  1
  Mg  Mg1  1  0.72080500  0.71360600  0.20667600  1
  Mg  Mg2  1  0.27919500  0.28639400  0.79332400  1
  V  V0  1  0.89625800  0.90340400  0.66697800  1
  V  V1  1  0.10374200  0.09659600  0.33302200  1
  V  V2  1  0.22184000  0.65883900  0.27024200  1
  V  V3  1  0.77816000  0.34116100  0.72975800  1
  V  V4  1  0.59615100  0.27262100  0.12886600  1
  V  V5  1  0.40384900  0.72737900  0.87113400  1
  Fe  Fe0  1  0.38032400  0.95101500  0.60699600  1
  Fe  Fe1  1  0.61967600  0.04898500  0.39300400  1
  Fe  Fe2  1  0.04201800  0.21009300  0.01590100  1
  Fe  Fe3  1  0.95798200  0.78990700  0.98409900  1
  O  O0  1  0.07397000  0.05609200  0.14351700  1
  O  O1  1  0.92603000  0.94390800  0.85648300  1
  O  O2  1  0.55917100  0.13647600  0.23242900  1
  O  O3  1  0.44082900  0.86352400  0.76757100  1
  O  O4  1  0.18000000  0.44061700  0.18323700  1
  O  O5  1  0.82000000  0.55938300  0.81676300  1
  O  O6  1  0.98642300  0.27856100  0.83334300  1
  O  O7  1  0.01357700  0.72143900  0.16665700  1
  O  O8  1  0.23628000  0.78409100  0.96671000  1
  O  O9  1  0.76372000  0.21590900  0.03329000  1
  O  O10  1  0.86838000  0.97212200  0.34768100  1
  O  O11  1  0.13162000  0.02787800  0.65231900  1
  O  O12  1  0.52769200  0.22568800  0.72939600  1
  O  O13  1  0.47230800  0.77431200  0.27060400  1
  O  O14  1  0.34879800  0.25544600  0.99656700  1
  O  O15  1  0.65120200  0.74455400  0.00343300  1
  O  O16  1  0.33280500  0.04073100  0.42567400  1
  O  O17  1  0.66719500  0.95926900  0.57432600  1
  O  O18  1  0.21273800  0.69748300  0.45364700  1
  O  O19  1  0.78726200  0.30251700  0.54635300  1
  O  O20  1  0.72295500  0.48799700  0.25266900  1
  O  O21  1  0.27704500  0.51200300  0.74733100  1
  O  O22  1  0.12423600  0.30907600  0.41474800  1
  O  O23  1  0.87576400  0.69092400  0.58525200  1
loop_
_geom_bond_atom_site_label_1
_geom_bond_atom_site_label_2
_geom_bond_distance
_geom_bond_site_symmetry_2
Mg0 O23 2.025575 1_455
Mg0 O22 2.025575 1_555
Mg0 O19 2.156881 1_455
Mg0 O18 2.156881 1_555
Mg0 O20 2.640166 1_455
Mg0 O21 2.640166 1_555
Mg1 O20 2.021512 1_555
Mg1 O15 2.050643 1_555
Mg1 O13 2.055488 1_555
Mg1 O10 2.059843 1_555
Mg1 O7 2.110987 1_655
Mg2 O21 2.021512 1_555
Mg2 O14 2.050643 1_555
Mg2 O12 2.055488 1_555
Mg2 O11 2.059843 1_555
Mg2 O6 2.110987 1_455
Fe0 O3 1.905004 1_555
Fe0 O11 2.031850 1_565
Fe0 O17 2.039932 1_555
Fe0 O18 2.083425 1_555
Fe0 O16 2.098644 1_565
Fe0 O12 2.120905 1_565
Fe1 O2 1.905004 1_555
Fe1 O10 2.031850 1_545
Fe1 O16 2.039932 1_555
Fe1 O19 2.083425 1_555
Fe1 O17 2.098644 1_545
Fe1 O13 2.120905 1_545
Fe2 O9 1.944408 1_455
Fe2 O4 1.995094 1_555
Fe2 O6 2.008312 1_454
Fe2 O0 2.019420 1_555
Fe2 O14 2.097478 1_554
Fe2 O1 2.162078 1_444
Fe3 O8 1.944408 1_655
Fe3 O5 1.995094 1_555
Fe3 O7 2.008312 1_656
Fe3 O1 2.019420 1_555
Fe3 O15 2.097478 1_556
Fe3 O0 2.162078 1_666
O0 V1 1.774584 1_555
O1 V0 1.774584 1_555
O2 V4 1.730974 1_555
O3 V5 1.730974 1_555
O4 V2 1.691863 1_555
O5 V3 1.691863 1_555
O6 V3 1.773081 1_555
O7 V2 1.773081 1_555
O8 V5 1.719946 1_555
O9 V4 1.719946 1_555
O10 V1 1.761833 1_665
O11 V0 1.761833 1_445
O12 V3 1.754231 1_555
O13 V2 1.754231 1_555
O14 V4 1.790688 1_556
O15 V5 1.790688 1_554
O16 V1 1.801084 1_555
O17 V0 1.801084 1_555
O18 V2 1.787755 1_555
O19 V3 1.787755 1_555
O20 V4 1.737118 1_555
O21 V5 1.737118 1_555
O22 V1 1.673142 1_555
O23 V0 1.673142 1_555
