# generated using pymatgen
data_Sr2CaCu2Bi2O9
_symmetry_space_group_name_H-M   'P 1'
_cell_length_a   3.63599469
_cell_length_b   4.17593082
_cell_length_c   15.98560693
_cell_angle_alpha   82.49507097
_cell_angle_beta   83.47004108
_cell_angle_gamma   90.00192938
_symmetry_Int_Tables_number   1
_chemical_formula_structural   Sr2CaCu2Bi2O9
_chemical_formula_sum   'Sr2 Ca1 Cu2 Bi2 O9'
_cell_volume   239.05236859
_cell_formula_units_Z   1
loop_
 _symmetry_equiv_pos_site_id
 _symmetry_equiv_pos_as_xyz
  1  'x, y, z'
loop_
 _atom_site_type_symbol
 _atom_site_label
 _atom_site_symmetry_multiplicity
 _atom_site_fract_x
 _atom_site_fract_y
 _atom_site_fract_z
 _atom_site_occupancy
  Sr  Sr0  1  0.88454000  0.88454000  0.73092000  1
  Sr  Sr1  1  0.10812100  0.10812100  0.28375800  1
  Ca  Ca0  1  0.99680400  0.99680400  0.50639200  1
  Cu  Cu0  1  0.44124300  0.44124300  0.61751400  1
  Cu  Cu1  1  0.55406700  0.55406700  0.39186700  1
  Bi  Bi0  1  0.30234000  0.30234000  0.89532000  1
  Bi  Bi1  1  0.69197600  0.69197600  0.11604800  1
  O  O0  1  0.95308800  0.45308800  0.59382500  1
  O  O1  1  0.55028500  0.05028500  0.39943000  1
  O  O2  1  0.04466600  0.54466600  0.41066700  1
  O  O3  1  0.44541600  0.94541600  0.60916800  1
  O  O4  1  0.37152600  0.37152600  0.75694800  1
  O  O5  1  0.62276100  0.62276100  0.25447800  1
  O  O6  1  0.32285500  0.82285500  0.85429000  1
  O  O7  1  0.22911200  0.72911200  0.04177500  1
  O  O8  1  0.67839900  0.17839900  0.14320100  1
loop_
_geom_bond_atom_site_label_1
_geom_bond_atom_site_label_2
_geom_bond_distance
_geom_bond_site_symmetry_2
Ca0 O3 2.433803 1_655
Ca0 O3 2.433803 1_555
Ca0 O1 2.478108 1_565
Ca0 O1 2.478109 1_665
Ca0 O0 2.500896 1_555
Ca0 O0 2.500899 1_565
Ca0 O2 2.575061 1_665
Ca0 O2 2.575064 1_655
Cu0 O0 1.855858 1_455
Cu0 O0 1.855861 1_555
Cu0 O3 2.092096 1_545
Cu0 O3 2.092096 1_555
Cu0 O4 2.195256 1_555
Cu1 O2 1.841931 1_655
Cu1 O2 1.841938 1_555
Cu1 O1 2.091356 1_565
Cu1 O1 2.091360 1_555
Cu1 O5 2.163060 1_555
Bi0 O4 2.178536 1_555
Bi0 O6 2.185609 1_545
Bi0 O6 2.185609 1_555
Bi1 O8 2.131278 1_565
Bi1 O8 2.131282 1_555
Bi1 O7 2.161598 1_655
Bi1 O7 2.161601 1_555
Bi1 O5 2.179449 1_555
O0 Sr0 3.003067 1_555
O0 Sr0 3.003070 1_545
O1 Sr1 2.573264 1_555
O1 Sr1 2.573264 1_655
O2 Sr1 2.889955 1_555
O2 Sr1 2.889958 1_565
O3 Sr0 2.641875 1_555
O3 Sr0 2.641875 1_455
O4 Sr0 2.798639 1_445
O4 Sr0 2.798639 1_555
O4 Sr0 2.798731 1_545
O4 Sr0 2.798731 1_455
O5 Sr1 2.806593 1_665
O5 Sr1 2.806593 1_555
O5 Sr1 2.806684 1_565
O5 Sr1 2.806684 1_655
O6 Sr0 2.660416 1_455
O6 Sr0 2.660416 1_555
O8 Sr1 2.863948 1_555
O8 Sr1 2.863950 1_655
