# generated using pymatgen
data_H6PbC2S2O7
_symmetry_space_group_name_H-M   'P 1'
_cell_length_a   9.44410200
_cell_length_b   10.16563672
_cell_length_c   10.60535124
_cell_angle_alpha   79.31742846
_cell_angle_beta   84.38310605
_cell_angle_gamma   65.59726789
_symmetry_Int_Tables_number   1
_chemical_formula_structural   H6PbC2S2O7
_chemical_formula_sum   'H24 Pb4 C8 S8 O28'
_cell_volume   910.88353613
_cell_formula_units_Z   4
loop_
 _symmetry_equiv_pos_site_id
 _symmetry_equiv_pos_as_xyz
  1  'x, y, z'
loop_
 _atom_site_type_symbol
 _atom_site_label
 _atom_site_symmetry_multiplicity
 _atom_site_fract_x
 _atom_site_fract_y
 _atom_site_fract_z
 _atom_site_occupancy
  H  H0  1  0.84141700  0.13594100  0.24709300  1
  H  H1  1  0.15858300  0.86405900  0.75290700  1
  H  H2  1  0.96848200  0.04528200  0.12157300  1
  H  H3  1  0.03151800  0.95471800  0.87842700  1
  H  H4  1  0.90240900  0.24020200  0.11414600  1
  H  H5  1  0.09759100  0.75979800  0.88585400  1
  H  H6  1  0.88622500  0.78376800  0.13753000  1
  H  H7  1  0.11377500  0.21623200  0.86247000  1
  H  H8  1  0.89211300  0.61758700  0.23627800  1
  H  H9  1  0.10788700  0.38241300  0.76372200  1
  H  H10  1  0.01001300  0.60889500  0.08988300  1
  H  H11  1  0.98998700  0.39110500  0.91011700  1
  H  H12  1  0.97383400  0.88254300  0.42321200  1
  H  H13  1  0.02616600  0.11745700  0.57678800  1
  H  H14  1  0.07510700  0.84563000  0.27188800  1
  H  H15  1  0.92489300  0.15437000  0.72811200  1
  H  H16  1  0.09106300  0.69608400  0.39798200  1
  H  H17  1  0.90893700  0.30391600  0.60201800  1
  H  H18  1  0.08485000  0.23071500  0.39034800  1
  H  H19  1  0.91515000  0.76928500  0.60965200  1
  H  H20  1  0.99814700  0.42505400  0.39161400  1
  H  H21  1  0.00185300  0.57494600  0.60838600  1
  H  H22  1  0.09419400  0.35359200  0.24794800  1
  H  H23  1  0.90580600  0.64640800  0.75205200  1
  Pb  Pb0  1  0.47430300  0.55478000  0.19421100  1
  Pb  Pb1  1  0.52569700  0.44522000  0.80578900  1
  Pb  Pb2  1  0.44510400  0.99715100  0.22797900  1
  Pb  Pb3  1  0.55489600  0.00284900  0.77202100  1
  C  C0  1  0.87274400  0.14542700  0.14454400  1
  C  C1  1  0.12725600  0.85457300  0.85545600  1
  C  C2  1  0.90067000  0.67107400  0.13808100  1
  C  C3  1  0.09933000  0.32892600  0.86191900  1
  C  C4  1  0.07774200  0.81002500  0.37589800  1
  C  C5  1  0.92225800  0.18997500  0.62410200  1
  C  C6  1  0.09329100  0.33501300  0.35302900  1
  C  C7  1  0.90670900  0.66498700  0.64697100  1
  S  S0  1  0.70822400  0.17449000  0.05790400  1
  S  S1  1  0.29177600  0.82551000  0.94209600  1
  S  S2  1  0.74437600  0.67872900  0.05261600  1
  S  S3  1  0.25562400  0.32127100  0.94738400  1
  S  S4  1  0.24395600  0.82040700  0.43014800  1
  S  S5  1  0.75604400  0.17959300  0.56985200  1
  S  S6  1  0.27287900  0.32449000  0.40102100  1
  S  S7  1  0.72712100  0.67551000  0.59897900  1
  O  O0  1  0.71072600  0.45525100  0.33223100  1
  O  O1  1  0.28927400  0.54474900  0.66776900  1
  O  O2  1  0.58260400  0.31462200  0.08304900  1
  O  O3  1  0.41739600  0.68537800  0.91695100  1
  O  O4  1  0.59966000  0.74986600  0.13030200  1
  O  O5  1  0.40034000  0.25013400  0.86969800  1
  O  O6  1  0.38143800  0.72837500  0.35912500  1
  O  O7  1  0.61856200  0.27162500  0.64087500  1
  O  O8  1  0.28408900  0.46298800  0.33962000  1
  O  O9  1  0.71591100  0.53701200  0.66038000  1
  O  O10  1  0.25427000  0.23386000  0.07412900  1
  O  O11  1  0.74573000  0.76614000  0.92587100  1
  O  O12  1  0.66731400  0.04709200  0.10505000  1
  O  O13  1  0.33268600  0.95290800  0.89495000  1
  O  O14  1  0.67734200  0.91568200  0.36466200  1
  O  O15  1  0.32265800  0.08431800  0.63533800  1
  O  O16  1  0.22089100  0.97586000  0.39879700  1
  O  O17  1  0.77910900  0.02414000  0.60120300  1
  O  O18  1  0.75439200  0.18101700  0.92034700  1
  O  O19  1  0.24560800  0.81898300  0.07965300  1
  O  O20  1  0.76641100  0.52736900  0.04741000  1
  O  O21  1  0.23358900  0.47263100  0.95259000  1
  O  O22  1  0.25301300  0.77291700  0.57105400  1
  O  O23  1  0.74698700  0.22708300  0.42894600  1
  O  O24  1  0.39791500  0.19429600  0.35874500  1
  O  O25  1  0.60208500  0.80570400  0.64125500  1
  O  O26  1  0.26530600  0.31627700  0.54317200  1
  O  O27  1  0.73469400  0.68372300  0.45682800  1
loop_
_geom_bond_atom_site_label_1
_geom_bond_atom_site_label_2
_geom_bond_distance
_geom_bond_site_symmetry_2
C0 H4 1.095835 1_555
C0 H0 1.096057 1_555
C0 H2 1.096131 1_555
C1 H5 1.095835 1_555
C1 H1 1.096057 1_555
C1 H3 1.096131 1_555
C2 H8 1.093901 1_555
C2 H6 1.095261 1_555
C2 H10 1.097401 1_655
C3 H9 1.093901 1_555
C3 H7 1.095261 1_555
C3 H11 1.097401 1_455
C4 H16 1.094115 1_555
C4 H14 1.094663 1_555
C4 H12 1.095998 1_455
C5 H17 1.094115 1_555
C5 H15 1.094663 1_555
C5 H13 1.095998 1_655
C6 H18 1.093266 1_555
C6 H22 1.095042 1_555
C6 H20 1.095421 1_455
C7 H19 1.093266 1_555
C7 H23 1.095042 1_555
C7 H21 1.095421 1_655
O0 Pb0 2.525015 1_555
O1 Pb1 2.525015 1_555
O2 S0 1.479974 1_555
O2 Pb0 2.676547 1_555
O3 S1 1.479974 1_555
O3 Pb1 2.676547 1_555
O4 S2 1.501147 1_555
O4 Pb0 2.660556 1_555
O4 Pb2 2.675895 1_555
O5 S3 1.501147 1_555
O5 Pb1 2.660556 1_555
O5 Pb3 2.675895 1_555
O6 S4 1.481397 1_555
O6 Pb0 2.550957 1_555
O7 S5 1.481397 1_555
O7 Pb1 2.550957 1_555
O8 S6 1.478938 1_555
O8 Pb0 2.604844 1_555
O9 S7 1.478938 1_555
O9 Pb1 2.604844 1_555
O10 S3 1.469616 1_554
O10 Pb2 2.690209 1_545
O11 S2 1.469616 1_556
O11 Pb3 2.690209 1_565
O12 S0 1.487305 1_555
O12 Pb2 2.541811 1_545
O13 S1 1.487305 1_555
O13 Pb3 2.541811 1_565
O14 Pb2 2.504794 1_555
O15 Pb3 2.504794 1_555
O16 S4 1.479942 1_555
O16 Pb2 2.700902 1_555
O17 S5 1.479942 1_555
O17 Pb3 2.700902 1_555
O18 S0 1.478591 1_556
O18 Pb1 2.804475 1_555
O19 S1 1.478591 1_554
O19 Pb0 2.804475 1_555
O20 S2 1.475984 1_555
O21 S3 1.475984 1_555
O22 S4 1.482203 1_555
O23 S5 1.482203 1_555
O24 S6 1.473792 1_555
O24 Pb2 2.511916 1_545
O25 S7 1.473792 1_555
O25 Pb3 2.511916 1_565
O26 S6 1.490635 1_555
O27 S7 1.490635 1_555
