# generated using pymatgen
data_V5Si3
_symmetry_space_group_name_H-M   'P 1'
_cell_length_a   6.16568609
_cell_length_b   6.16568609
_cell_length_c   7.00580027
_cell_angle_alpha   116.10653988
_cell_angle_beta   116.10653988
_cell_angle_gamma   90.00000000
_symmetry_Int_Tables_number   1
_chemical_formula_structural   V5Si3
_chemical_formula_sum   'V10 Si6'
_cell_volume   208.47498875
_cell_formula_units_Z   2
loop_
 _symmetry_equiv_pos_site_id
 _symmetry_equiv_pos_as_xyz
  1  'x, y, z'
loop_
 _atom_site_type_symbol
 _atom_site_label
 _atom_site_symmetry_multiplicity
 _atom_site_fract_x
 _atom_site_fract_y
 _atom_site_fract_z
 _atom_site_occupancy
  V  V0  1  0.50000000  0.50000000  -0.00000000  1
  V  V1  1  0.00000000  0.00000000  -0.00000000  1
  V  V2  1  0.98616207  0.81727035  0.30343142  1
  V  V3  1  0.31727035  0.48616207  0.30343142  1
  V  V4  1  0.81727035  0.31727035  0.30343142  1
  V  V5  1  0.48616207  0.98616207  0.30343142  1
  V  V6  1  0.01383793  0.18272965  0.69656858  1
  V  V7  1  0.68272965  0.51383793  0.69656858  1
  V  V8  1  0.18272965  0.68272965  0.69656858  1
  V  V9  1  0.51383793  0.01383793  0.69656858  1
  Si  Si0  1  0.75000000  0.75000000  0.50000000  1
  Si  Si1  1  0.25000000  0.25000000  0.50000000  1
  Si  Si2  1  0.36742130  0.13257870  -0.00000000  1
  Si  Si3  1  0.63257870  0.86742130  -0.00000000  1
  Si  Si4  1  0.13257870  0.63257870  0.00000000  1
  Si  Si5  1  0.86742130  0.36742130  -0.00000000  1
loop_
_geom_bond_atom_site_label_1
_geom_bond_atom_site_label_2
_geom_bond_distance
_geom_bond_site_symmetry_2
Si0 V6 2.540893 1_665
Si0 V3 2.540893 1_555
Si0 V4 2.540896 1_555
Si0 V8 2.540896 1_655
Si0 V9 2.540899 1_565
Si0 V5 2.540899 1_555
Si0 V7 2.540901 1_555
Si0 V2 2.540901 1_555
Si0 V1 2.741960 1_666
Si0 V0 2.741960 1_555
Si1 V2 2.540893 1_445
Si1 V7 2.540893 1_555
Si1 V8 2.540896 1_555
Si1 V4 2.540896 1_455
Si1 V5 2.540899 1_545
Si1 V9 2.540899 1_555
Si1 V6 2.540901 1_555
Si1 V3 2.540901 1_555
Si1 V0 2.741960 1_556
Si1 V1 2.741960 1_555
Si2 Si3 2.312066 1_545
Si2 V0 2.408374 1_555
Si2 V1 2.408374 1_555
Si2 V6 2.422226 1_554
Si2 V3 2.422226 1_555
Si2 V9 2.487802 1_554
Si2 V5 2.487802 1_545
Si2 V8 2.487806 1_544
Si2 V4 2.487806 1_555
Si3 V0 2.408374 1_555
Si3 V1 2.408374 1_665
Si3 V7 2.422226 1_554
Si3 V2 2.422226 1_555
Si3 V5 2.487802 1_555
Si3 V9 2.487802 1_564
Si3 V8 2.487806 1_554
Si3 V4 2.487806 1_565
Si4 Si5 2.312066 1_455
Si4 V0 2.408374 1_555
Si4 V1 2.408374 1_565
Si4 V8 2.422223 1_554
Si4 V5 2.422229 1_555
Si4 V3 2.487802 1_555
Si4 V2 2.487802 1_455
Si4 V6 2.487806 1_554
Si4 V7 2.487806 1_454
Si5 V0 2.408374 1_555
Si5 V1 2.408374 1_655
Si5 V4 2.422223 1_555
Si5 V9 2.422229 1_554
Si5 V6 2.487802 1_654
Si5 V7 2.487802 1_554
Si5 V2 2.487806 1_555
Si5 V3 2.487806 1_655
