# generated using pymatgen
data_Na3OsN2
_symmetry_space_group_name_H-M   'P 1'
_cell_length_a   8.77163600
_cell_length_b   5.73348400
_cell_length_c   9.09222039
_cell_angle_alpha   66.42108689
_cell_angle_beta   90.00000000
_cell_angle_gamma   90.00000000
_symmetry_Int_Tables_number   1
_chemical_formula_structural   Na3OsN2
_chemical_formula_sum   'Na12 Os4 N8'
_cell_volume   419.08910724
_cell_formula_units_Z   4
loop_
 _symmetry_equiv_pos_site_id
 _symmetry_equiv_pos_as_xyz
  1  'x, y, z'
loop_
 _atom_site_type_symbol
 _atom_site_label
 _atom_site_symmetry_multiplicity
 _atom_site_fract_x
 _atom_site_fract_y
 _atom_site_fract_z
 _atom_site_occupancy
  Na  Na0  1  0.03680800  0.76376700  0.97377800  1
  Na  Na1  1  0.53680800  0.23623300  0.52622200  1
  Na  Na2  1  0.96319200  0.23623300  0.02622200  1
  Na  Na3  1  0.46319200  0.76376700  0.47377800  1
  Na  Na4  1  0.40604400  0.70643100  0.83847300  1
  Na  Na5  1  0.90604400  0.29356900  0.66152700  1
  Na  Na6  1  0.59395600  0.29356900  0.16152700  1
  Na  Na7  1  0.09395600  0.70643100  0.33847300  1
  Na  Na8  1  0.25356100  0.26096200  0.76272200  1
  Na  Na9  1  0.75356100  0.73903800  0.73727800  1
  Na  Na10  1  0.74643900  0.73903800  0.23727800  1
  Na  Na11  1  0.24643900  0.26096200  0.26272200  1
  Os  Os0  1  0.10985800  0.86244300  0.61498300  1
  Os  Os1  1  0.60985800  0.13755700  0.88501700  1
  Os  Os2  1  0.89014200  0.13755700  0.38501700  1
  Os  Os3  1  0.39014200  0.86244300  0.11498300  1
  N  N0  1  0.79085300  0.98639600  0.92930500  1
  N  N1  1  0.29085300  0.01360400  0.57069500  1
  N  N2  1  0.20914700  0.01360400  0.07069500  1
  N  N3  1  0.70914700  0.98639600  0.42930500  1
  N  N4  1  0.53427600  0.42295500  0.73422900  1
  N  N5  1  0.03427600  0.57704500  0.76577100  1
  N  N6  1  0.46572400  0.57704500  0.26577100  1
  N  N7  1  0.96572400  0.42295500  0.23422900  1
loop_
_geom_bond_atom_site_label_1
_geom_bond_atom_site_label_2
_geom_bond_distance
_geom_bond_site_symmetry_2
N0 Os1 1.776126 1_565
N0 Na0 2.456497 1_655
N0 Na2 2.474555 1_566
N0 Na5 2.572931 1_565
N0 Na10 2.612839 1_556
N0 Na9 2.673515 1_555
N1 Os0 1.776126 1_545
N1 Na1 2.456497 1_555
N1 Na3 2.474555 1_545
N1 Na4 2.572931 1_545
N1 Na11 2.612839 1_555
N1 Na8 2.673515 1_555
N2 Os3 1.776126 1_545
N2 Na2 2.456497 1_455
N2 Na0 2.474555 1_544
N2 Na7 2.572931 1_545
N2 Na8 2.612839 1_554
N2 Na11 2.673515 1_555
N3 Os2 1.776126 1_565
N3 Na3 2.456497 1_555
N3 Na1 2.474555 1_565
N3 Na6 2.572931 1_565
N3 Na9 2.612839 1_555
N3 Na10 2.673515 1_555
N4 Os1 1.789403 1_555
N4 Na4 2.457146 1_555
N4 Na3 2.472424 1_555
N4 Na1 2.518577 1_555
N4 Na8 2.607743 1_555
N4 Na9 2.650480 1_555
N5 Os0 1.789403 1_555
N5 Na5 2.457146 1_455
N5 Na2 2.472424 1_456
N5 Na0 2.518577 1_555
N5 Na9 2.607743 1_455
N5 Na8 2.650480 1_555
N6 Os3 1.789403 1_555
N6 Na6 2.457146 1_555
N6 Na1 2.472424 1_555
N6 Na3 2.518577 1_555
N6 Na10 2.607743 1_555
N6 Na11 2.650480 1_555
N7 Os2 1.789403 1_555
N7 Na7 2.457146 1_655
N7 Na0 2.472424 1_654
N7 Na2 2.518577 1_555
N7 Na11 2.607743 1_655
N7 Na10 2.650480 1_555
