# generated using pymatgen
data_SrCa2Lu10O18
_symmetry_space_group_name_H-M   'P 1'
_cell_length_a   3.30593000
_cell_length_b   17.42811814
_cell_length_c   17.42957232
_cell_angle_alpha   60.04632904
_cell_angle_beta   89.92269973
_cell_angle_gamma   89.93522871
_symmetry_Int_Tables_number   1
_chemical_formula_structural   SrCa2Lu10O18
_chemical_formula_sum   'Sr2 Ca4 Lu20 O36'
_cell_volume   870.08886955
_cell_formula_units_Z   2
loop_
 _symmetry_equiv_pos_site_id
 _symmetry_equiv_pos_as_xyz
  1  'x, y, z'
loop_
 _atom_site_type_symbol
 _atom_site_label
 _atom_site_symmetry_multiplicity
 _atom_site_fract_x
 _atom_site_fract_y
 _atom_site_fract_z
 _atom_site_occupancy
  Sr  Sr0  1  0.46372500  0.66675200  0.65970500  1
  Sr  Sr1  1  0.96558800  0.33857400  0.33131600  1
  Ca  Ca0  1  0.75103600  0.32740500  0.66898900  1
  Ca  Ca1  1  0.75093300  0.00205900  0.32679800  1
  Ca  Ca2  1  0.75154200  0.67036200  0.00241300  1
  Ca  Ca3  1  0.25138500  0.67318300  0.32814400  1
  Lu  Lu0  1  0.24096200  0.89679500  0.55234500  1
  Lu  Lu1  1  0.24205700  0.55082600  0.89562900  1
  Lu  Lu2  1  0.24242300  0.55310600  0.54845400  1
  Lu  Lu3  1  0.74416100  0.10333200  0.44684900  1
  Lu  Lu4  1  0.74193100  0.45018800  0.10248000  1
  Lu  Lu5  1  0.74373400  0.44765600  0.45065900  1
  Lu  Lu6  1  0.25066500  0.23030900  0.88214800  1
  Lu  Lu7  1  0.25153900  0.88452300  0.23134200  1
  Lu  Lu8  1  0.25115200  0.88150300  0.88790300  1
  Lu  Lu9  1  0.75164200  0.76787300  0.11714300  1
  Lu  Lu10  1  0.75074000  0.11495600  0.76806700  1
  Lu  Lu11  1  0.75101300  0.11616900  0.11596400  1
  Lu  Lu12  1  0.25118300  0.99698800  0.67480300  1
  Lu  Lu13  1  0.25081800  0.32750000  0.99756500  1
  Lu  Lu14  1  0.25866500  0.56395200  0.22032000  1
  Lu  Lu15  1  0.26006400  0.21739800  0.56178700  1
  Lu  Lu16  1  0.25914200  0.22100100  0.21751200  1
  Lu  Lu17  1  0.75848100  0.43613700  0.77933400  1
  Lu  Lu18  1  0.75829900  0.78448400  0.43514400  1
  Lu  Lu19  1  0.75645800  0.77951200  0.78364400  1
  O  O0  1  0.25321200  0.88615700  0.36435200  1
  O  O1  1  0.25319200  0.75472700  0.88440700  1
  O  O2  1  0.25437200  0.35948500  0.75481800  1
  O  O3  1  0.75183200  0.10588200  0.63882300  1
  O  O4  1  0.75116200  0.25602500  0.10602100  1
  O  O5  1  0.75364100  0.63528000  0.24968500  1
  O  O6  1  0.25157400  0.21711800  0.68835900  1
  O  O7  1  0.25128500  0.09555600  0.21778100  1
  O  O8  1  0.25218300  0.68699800  0.09137000  1
  O  O9  1  0.75193400  0.77941500  0.31319300  1
  O  O10  1  0.75198600  0.91334100  0.77106300  1
  O  O11  1  0.75231100  0.31477000  0.91326200  1
  O  O12  1  0.25086700  0.02459400  0.80716100  1
  O  O13  1  0.25127300  0.16915300  0.02463300  1
  O  O14  1  0.25097500  0.81722400  0.15635800  1
  O  O15  1  0.75116600  0.97506500  0.18126400  1
  O  O16  1  0.75073200  0.84669700  0.97285900  1
  O  O17  1  0.75119500  0.17771100  0.84827300  1
  O  O18  1  0.24442200  0.36143900  0.17810700  1
  O  O19  1  0.24937900  0.45617500  0.36260600  1
  O  O20  1  0.24550000  0.17869300  0.46008500  1
  O  O21  1  0.74499700  0.63787600  0.82013900  1
  O  O22  1  0.74749200  0.54129000  0.64000300  1
  O  O23  1  0.74557000  0.82046800  0.54352200  1
  O  O24  1  0.25669600  0.69455800  0.50766900  1
  O  O25  1  0.25685900  0.80943000  0.69382600  1
  O  O26  1  0.25779200  0.49681400  0.80863500  1
  O  O27  1  0.75894000  0.30398500  0.49867900  1
  O  O28  1  0.75764900  0.19780800  0.30456900  1
  O  O29  1  0.75814700  0.49402300  0.19913300  1
  O  O30  1  0.24733400  0.54964800  0.02341500  1
  O  O31  1  0.24858100  0.42177700  0.55249100  1
  O  O32  1  0.24818400  0.02504300  0.42617200  1
  O  O33  1  0.75027400  0.43828100  0.97675300  1
  O  O34  1  0.74784300  0.57688200  0.44999900  1
  O  O35  1  0.75011300  0.97806700  0.58406100  1
loop_
_geom_bond_atom_site_label_1
_geom_bond_atom_site_label_2
_geom_bond_distance
_geom_bond_site_symmetry_2
Ca0 O6 2.427449 1_555
Ca0 O6 2.427532 1_655
Ca0 O2 2.464337 1_555
Ca0 O2 2.482619 1_655
Ca0 O31 2.489131 1_655
Ca0 O31 2.501051 1_555
Ca0 O17 2.903445 1_555
Ca1 O0 2.429072 1_545
Ca1 O7 2.429942 1_555
Ca1 O7 2.430543 1_655
Ca1 O0 2.437406 1_645
Ca1 O32 2.562181 1_655
Ca1 O32 2.570295 1_555
Ca1 O15 2.801307 1_545
Ca2 O8 2.377871 1_555
Ca2 O8 2.384172 1_655
Ca2 O1 2.467852 1_554
Ca2 O1 2.473662 1_654
Ca2 O30 2.543881 1_655
Ca2 O30 2.564326 1_555
Ca2 O16 2.851139 1_554
Ca3 O9 2.394668 1_455
Ca3 O9 2.399573 1_555
Ca3 O5 2.434079 1_455
Ca3 O5 2.440679 1_555
Ca3 O34 2.542636 1_555
Ca3 O34 2.556564 1_455
Ca3 O14 2.785859 1_555
Lu0 O25 2.157028 1_555
Lu0 O23 2.164538 1_455
Lu0 O23 2.185093 1_555
Lu0 O32 2.219026 1_565
Lu0 O35 2.391505 1_455
Lu0 O35 2.436153 1_555
Lu1 O26 2.147756 1_555
Lu1 O21 2.177144 1_455
Lu1 O21 2.191762 1_555
Lu1 O30 2.217168 1_556
Lu1 O33 2.391917 1_455
Lu1 O33 2.428750 1_555
Lu2 O24 2.198897 1_555
Lu2 O22 2.220652 1_455
Lu2 O22 2.248286 1_555
Lu2 O31 2.254579 1_555
Lu2 O34 2.255171 1_455
Lu2 O34 2.278609 1_555
Lu3 O28 2.187522 1_555
Lu3 O20 2.189195 1_555
Lu3 O20 2.198572 1_655
Lu3 O32 2.275466 1_555
Lu3 O32 2.291783 1_655
Lu3 O35 2.296134 1_545
Lu4 O29 2.170248 1_555
Lu4 O18 2.190652 1_555
Lu4 O18 2.203090 1_655
Lu4 O30 2.278505 1_555
Lu4 O33 2.302140 1_554
Lu4 O30 2.304420 1_655
Lu5 O19 2.197055 1_555
Lu5 O27 2.209005 1_555
Lu5 O19 2.222130 1_655
Lu5 O34 2.246501 1_555
Lu5 O31 2.286408 1_555
Lu5 O31 2.312157 1_655
Lu6 O17 2.112206 1_555
Lu6 O17 2.112332 1_455
Lu6 O13 2.158775 1_556
Lu6 O2 2.237069 1_555
Lu6 O11 2.442224 1_455
Lu6 O11 2.452810 1_555
Lu7 O15 2.146320 1_555
Lu7 O15 2.147285 1_455
Lu7 O14 2.148149 1_555
Lu7 O0 2.332671 1_555
Lu7 O9 2.347267 1_455
Lu7 O9 2.348899 1_555
Lu8 O16 2.096580 1_555
Lu8 O16 2.096701 1_455
Lu8 O12 2.166783 1_565
Lu8 O1 2.240516 1_555
Lu8 O10 2.461073 1_455
Lu8 O10 2.461928 1_555
Lu9 O14 2.127264 1_655
Lu9 O14 2.127747 1_555
Lu9 O16 2.182107 1_554
Lu9 O5 2.312127 1_555
Lu9 O8 2.356202 1_655
Lu9 O8 2.356778 1_555
Lu10 O12 2.145616 1_655
Lu10 O12 2.146296 1_555
Lu10 O17 2.162702 1_555
Lu10 O6 2.313620 1_555
Lu10 O6 2.317754 1_655
Lu10 O3 2.335649 1_555
Lu11 O15 2.132591 1_545
Lu11 O13 2.156458 1_655
Lu11 O13 2.156832 1_555
Lu11 O7 2.316134 1_555
Lu11 O7 2.320251 1_655
Lu11 O4 2.355688 1_555
Lu12 O10 2.284551 1_455
Lu12 O10 2.289278 1_555
Lu12 O3 2.351046 1_465
Lu12 O3 2.355885 1_565
Lu12 O35 2.417299 1_555
Lu12 O35 2.425551 1_455
Lu12 O12 2.581050 1_565
Lu13 O11 2.292848 1_455
Lu13 O11 2.296742 1_555
Lu13 O4 2.344868 1_456
Lu13 O4 2.348080 1_556
Lu13 O33 2.427298 1_555
Lu13 O33 2.427441 1_455
Lu13 O13 2.557012 1_556
Lu14 O29 2.188958 1_555
Lu14 O29 2.194370 1_455
Lu14 O8 2.199461 1_555
Lu14 O19 2.242239 1_555
Lu14 O5 2.264325 1_555
Lu14 O5 2.285416 1_455
Lu15 O27 2.133147 1_555
Lu15 O27 2.138555 1_455
Lu15 O20 2.189496 1_555
Lu15 O6 2.203804 1_555
Lu15 O3 2.369811 1_555
Lu15 O3 2.408006 1_455
Lu16 O28 2.138820 1_555
Lu16 O28 2.143985 1_455
Lu16 O7 2.184117 1_555
Lu16 O18 2.187655 1_555
Lu16 O4 2.367228 1_555
Lu16 O4 2.406443 1_455
Lu17 O26 2.156244 1_655
Lu17 O26 2.156847 1_555
Lu17 O22 2.193894 1_555
Lu17 O11 2.234465 1_555
Lu17 O2 2.284290 1_655
Lu17 O2 2.306858 1_555
Lu18 O9 2.171144 1_555
Lu18 O24 2.188694 1_655
Lu18 O24 2.196784 1_555
Lu18 O23 2.268486 1_555
Lu18 O0 2.270921 1_655
Lu18 O0 2.294785 1_555
Lu19 O25 2.153867 1_655
Lu19 O25 2.154170 1_555
Lu19 O21 2.220692 1_555
Lu19 O10 2.231039 1_555
Lu19 O1 2.283933 1_655
Lu19 O1 2.296803 1_555
O18 Sr1 2.659124 1_455
O19 Sr1 2.549566 1_455
O20 Sr1 2.722585 1_455
O21 Sr0 2.745518 1_555
O22 Sr0 2.554086 1_555
O23 Sr0 2.594028 1_555
O24 Sr0 2.539122 1_555
O25 Sr0 2.911429 1_555
O26 Sr0 2.880257 1_555
O27 Sr1 2.752985 1_555
O28 Sr1 2.802727 1_555
O29 Sr1 2.623936 1_555
