# generated using pymatgen
data_RbMg149
_symmetry_space_group_name_H-M   'P 1'
_cell_length_a   16.02967280
_cell_length_b   16.02967826
_cell_length_c   15.67793300
_cell_angle_alpha   90.00000000
_cell_angle_beta   90.00000000
_cell_angle_gamma   120.00000955
_symmetry_Int_Tables_number   1
_chemical_formula_structural   RbMg149
_chemical_formula_sum   'Rb1 Mg149'
_cell_volume   3488.74202842
_cell_formula_units_Z   1
loop_
 _symmetry_equiv_pos_site_id
 _symmetry_equiv_pos_as_xyz
  1  'x, y, z'
loop_
 _atom_site_type_symbol
 _atom_site_label
 _atom_site_symmetry_multiplicity
 _atom_site_fract_x
 _atom_site_fract_y
 _atom_site_fract_z
 _atom_site_occupancy
  Rb  Rb0  1  0.00000000  -0.00000000  0.00000000  1
  Mg  Mg0  1  0.60054965  0.20110031  0.00000000  1
  Mg  Mg1  1  0.79887054  0.20112846  0.00000000  1
  Mg  Mg2  1  0.40225793  0.20112946  0.00000000  1
  Mg  Mg3  1  0.00240718  0.21241958  0.00000000  1
  Mg  Mg4  1  0.21001340  0.21241958  0.00000000  1
  Mg  Mg5  1  0.60054965  0.39944935  0.00000000  1
  Mg  Mg6  1  0.79889969  0.39945035  0.00000000  1
  Mg  Mg7  1  0.00052740  0.40304935  0.00000000  1
  Mg  Mg8  1  0.40252195  0.40305035  0.00000000  1
  Mg  Mg9  1  0.20202049  0.40404198  0.00000000  1
  Mg  Mg10  1  0.59694965  0.59747805  0.00000000  1
  Mg  Mg11  1  0.00052740  0.59747805  0.00000000  1
  Mg  Mg12  1  0.79887054  0.59774207  0.00000000  1
  Mg  Mg13  1  0.39933671  0.60066329  0.00000000  1
  Mg  Mg14  1  0.20132558  0.60066329  0.00000000  1
  Mg  Mg15  1  0.00240718  0.78998660  0.00000000  1
  Mg  Mg16  1  0.78758042  0.78998660  0.00000000  1
  Mg  Mg17  1  0.20202049  0.79797851  0.00000000  1
  Mg  Mg18  1  0.59595802  0.79797951  0.00000000  1
  Mg  Mg19  1  0.39933671  0.79867442  0.00000000  1
  Mg  Mg20  1  0.78758042  0.99759282  0.00000000  1
  Mg  Mg21  1  0.21001340  0.99759382  0.00000000  1
  Mg  Mg22  1  0.59694965  0.99947160  0.00000000  1
  Mg  Mg23  1  0.40252195  0.99947260  0.00000000  1
  Mg  Mg24  1  0.26323982  0.13161991  0.16521219  1
  Mg  Mg25  1  0.86838009  0.13161991  0.16521219  1
  Mg  Mg26  1  0.86838009  0.73676018  0.16521219  1
  Mg  Mg27  1  0.66666700  0.33333300  0.16623514  1
  Mg  Mg28  1  0.46579277  0.13310910  0.16652748  1
  Mg  Mg29  1  0.66731733  0.13311010  0.16652748  1
  Mg  Mg30  1  0.86688990  0.33268267  0.16652748  1
  Mg  Mg31  1  0.46579277  0.33268267  0.16652748  1
  Mg  Mg32  1  0.86688990  0.53420723  0.16652748  1
  Mg  Mg33  1  0.66731733  0.53420823  0.16652748  1
  Mg  Mg34  1  0.26709973  0.53419947  0.16734461  1
  Mg  Mg35  1  0.46580053  0.73290027  0.16734461  1
  Mg  Mg36  1  0.26709973  0.73290027  0.16734461  1
  Mg  Mg37  1  0.46649022  0.53350978  0.16784225  1
  Mg  Mg38  1  0.06702057  0.53350978  0.16784225  1
  Mg  Mg39  1  0.46649022  0.93297943  0.16784225  1
  Mg  Mg40  1  0.26849285  0.33631798  0.16810300  1
  Mg  Mg41  1  0.06782613  0.33631898  0.16810300  1
  Mg  Mg42  1  0.66368202  0.73150715  0.16810300  1
  Mg  Mg43  1  0.06782613  0.73150715  0.16810300  1
  Mg  Mg44  1  0.26849285  0.93217387  0.16810300  1
  Mg  Mg45  1  0.66368202  0.93217387  0.16810300  1
  Mg  Mg46  1  0.07059654  0.14119309  0.17590544  1
  Mg  Mg47  1  0.07059654  0.92940346  0.17590544  1
  Mg  Mg48  1  0.85880691  0.92940346  0.17590544  1
  Mg  Mg49  1  0.40009557  0.20004779  0.33272624  1
  Mg  Mg50  1  0.79995221  0.20004779  0.33272624  1
  Mg  Mg51  1  0.79995221  0.59990443  0.33272624  1
  Mg  Mg52  1  0.60010423  0.20020946  0.33309467  1
  Mg  Mg53  1  0.60010423  0.39989477  0.33309467  1
  Mg  Mg54  1  0.79979054  0.39989477  0.33309467  1
  Mg  Mg55  1  0.40004794  0.59995206  0.33386732  1
  Mg  Mg56  1  0.19990413  0.59995206  0.33386732  1
  Mg  Mg57  1  0.40004794  0.80009587  0.33386732  1
  Mg  Mg58  1  0.20008660  0.40017221  0.33385138  1
  Mg  Mg59  1  0.20008660  0.79991340  0.33385138  1
  Mg  Mg60  1  0.59982779  0.79991340  0.33385138  1
  Mg  Mg61  1  0.59938017  0.00021921  0.33398442  1
  Mg  Mg62  1  0.40083904  0.00021921  0.33398442  1
  Mg  Mg63  1  0.99978079  0.40061983  0.33398442  1
  Mg  Mg64  1  0.40083904  0.40061983  0.33398442  1
  Mg  Mg65  1  0.99978079  0.59916096  0.33398442  1
  Mg  Mg66  1  0.59938017  0.59916096  0.33398442  1
  Mg  Mg67  1  0.00000000  -0.00000000  0.33389430  1
  Mg  Mg68  1  0.20179924  0.00055693  0.33545304  1
  Mg  Mg69  1  0.79875769  0.00055693  0.33545304  1
  Mg  Mg70  1  0.20179924  0.20124231  0.33545304  1
  Mg  Mg71  1  0.99944307  0.20124231  0.33545304  1
  Mg  Mg72  1  0.99944307  0.79820076  0.33545304  1
  Mg  Mg73  1  0.79875769  0.79820076  0.33545304  1
  Mg  Mg74  1  0.06678609  0.13357119  0.50000000  1
  Mg  Mg75  1  0.86617435  0.13382565  0.50000000  1
  Mg  Mg76  1  0.26765130  0.13382565  0.50000000  1
  Mg  Mg77  1  0.66709582  0.13412503  0.50000000  1
  Mg  Mg78  1  0.46702921  0.13412503  0.50000000  1
  Mg  Mg79  1  0.46702921  0.33290418  0.50000000  1
  Mg  Mg80  1  0.86587597  0.33290418  0.50000000  1
  Mg  Mg81  1  0.66666700  0.33333300  0.50000000  1
  Mg  Mg82  1  0.26689138  0.33419615  0.50000000  1
  Mg  Mg83  1  0.06730478  0.33419615  0.50000000  1
  Mg  Mg84  1  0.66709582  0.53297079  0.50000000  1
  Mg  Mg85  1  0.86587597  0.53297079  0.50000000  1
  Mg  Mg86  1  0.06680309  0.53340205  0.50000000  1
  Mg  Mg87  1  0.46659895  0.53340205  0.50000000  1
  Mg  Mg88  1  0.26689908  0.53379716  0.50000000  1
  Mg  Mg89  1  0.86617435  0.73234870  0.50000000  1
  Mg  Mg90  1  0.66580385  0.73310862  0.50000000  1
  Mg  Mg91  1  0.06730478  0.73310862  0.50000000  1
  Mg  Mg92  1  0.46620284  0.73310092  0.50000000  1
  Mg  Mg93  1  0.26689908  0.73310192  0.50000000  1
  Mg  Mg94  1  0.26689138  0.93269522  0.50000000  1
  Mg  Mg95  1  0.66580385  0.93269622  0.50000000  1
  Mg  Mg96  1  0.06678609  0.93321391  0.50000000  1
  Mg  Mg97  1  0.86642881  0.93321391  0.50000000  1
  Mg  Mg98  1  0.46659895  0.93319691  0.50000000  1
  Mg  Mg99  1  0.20179924  0.00055693  0.66454696  1
  Mg  Mg100  1  0.79875769  0.00055693  0.66454696  1
  Mg  Mg101  1  0.20179924  0.20124231  0.66454696  1
  Mg  Mg102  1  0.99944307  0.20124231  0.66454696  1
  Mg  Mg103  1  0.99944307  0.79820076  0.66454696  1
  Mg  Mg104  1  0.79875769  0.79820076  0.66454696  1
  Mg  Mg105  1  0.00000000  -0.00000000  0.66610670  1
  Mg  Mg106  1  0.59938017  0.00021921  0.66601558  1
  Mg  Mg107  1  0.40083904  0.00021921  0.66601558  1
  Mg  Mg108  1  0.99978079  0.40061983  0.66601558  1
  Mg  Mg109  1  0.40083904  0.40061983  0.66601558  1
  Mg  Mg110  1  0.99978079  0.59916096  0.66601558  1
  Mg  Mg111  1  0.59938017  0.59916096  0.66601558  1
  Mg  Mg112  1  0.20008660  0.40017221  0.66614862  1
  Mg  Mg113  1  0.20008660  0.79991340  0.66614862  1
  Mg  Mg114  1  0.59982779  0.79991340  0.66614862  1
  Mg  Mg115  1  0.40004794  0.59995206  0.66613168  1
  Mg  Mg116  1  0.19990413  0.59995206  0.66613168  1
  Mg  Mg117  1  0.40004794  0.80009587  0.66613168  1
  Mg  Mg118  1  0.60010423  0.20020946  0.66690533  1
  Mg  Mg119  1  0.60010423  0.39989477  0.66690533  1
  Mg  Mg120  1  0.79979054  0.39989477  0.66690533  1
  Mg  Mg121  1  0.40009557  0.20004779  0.66727476  1
  Mg  Mg122  1  0.79995221  0.20004779  0.66727476  1
  Mg  Mg123  1  0.79995221  0.59990443  0.66727476  1
  Mg  Mg124  1  0.07059654  0.14119309  0.82409456  1
  Mg  Mg125  1  0.07059654  0.92940346  0.82409456  1
  Mg  Mg126  1  0.85880691  0.92940346  0.82409456  1
  Mg  Mg127  1  0.26849285  0.33631798  0.83189700  1
  Mg  Mg128  1  0.06782613  0.33631898  0.83189700  1
  Mg  Mg129  1  0.66368202  0.73150715  0.83189700  1
  Mg  Mg130  1  0.06782613  0.73150715  0.83189700  1
  Mg  Mg131  1  0.26849285  0.93217387  0.83189700  1
  Mg  Mg132  1  0.66368202  0.93217387  0.83189700  1
  Mg  Mg133  1  0.46649022  0.53350978  0.83215775  1
  Mg  Mg134  1  0.06702057  0.53350978  0.83215775  1
  Mg  Mg135  1  0.46649022  0.93297943  0.83215775  1
  Mg  Mg136  1  0.26709973  0.53419947  0.83265639  1
  Mg  Mg137  1  0.46580053  0.73290027  0.83265639  1
  Mg  Mg138  1  0.26709973  0.73290027  0.83265639  1
  Mg  Mg139  1  0.46579277  0.13310910  0.83347352  1
  Mg  Mg140  1  0.66731733  0.13311010  0.83347352  1
  Mg  Mg141  1  0.86688990  0.33268267  0.83347352  1
  Mg  Mg142  1  0.46579277  0.33268267  0.83347352  1
  Mg  Mg143  1  0.86688990  0.53420723  0.83347352  1
  Mg  Mg144  1  0.66731733  0.53420823  0.83347352  1
  Mg  Mg145  1  0.66666700  0.33333300  0.83376486  1
  Mg  Mg146  1  0.26323982  0.13161991  0.83478781  1
  Mg  Mg147  1  0.86838009  0.13161991  0.83478781  1
  Mg  Mg148  1  0.86838009  0.73676018  0.83478781  1
loop_
_geom_bond_atom_site_label_1
_geom_bond_atom_site_label_2
_geom_bond_distance
_geom_bond_site_symmetry_2
Mg0 Mg2 3.178785 1_555
Mg0 Mg1 3.178793 1_555
Mg0 Mg5 3.179471 1_555
Mg0 Mg6 3.179486 1_555
Mg0 Mg145 3.187802 1_554
Mg0 Mg27 3.187802 1_555
Mg0 Mg23 3.203563 1_545
Mg0 Mg22 3.203580 1_545
Mg0 Mg139 3.211834 1_554
Mg0 Mg140 3.211842 1_554
Mg0 Mg28 3.211847 1_555
Mg0 Mg29 3.211855 1_555
Mg1 Mg20 3.175992 1_545
Mg1 Mg3 3.175999 1_655
Mg1 Mg6 3.178802 1_555
Mg1 Mg140 3.186323 1_554
Mg1 Mg141 3.186332 1_554
Mg1 Mg29 3.186336 1_555
Mg1 Mg30 3.186344 1_555
Mg1 Mg147 3.230083 1_554
Mg1 Mg25 3.230083 1_555
Mg1 Mg22 3.234612 1_545
Mg1 Mg7 3.234612 1_655
Mg2 Mg4 3.175975 1_555
Mg2 Mg21 3.175984 1_545
Mg2 Mg5 3.178777 1_555
Mg2 Mg31 3.186336 1_555
Mg2 Mg28 3.186352 1_555
Mg2 Mg24 3.230083 1_555
Mg2 Mg23 3.234613 1_545
Mg2 Mg8 3.234613 1_555
Mg3 Mg7 3.070911 1_555
Mg3 Mg9 3.137652 1_555
Mg3 Mg41 3.147593 1_555
Mg3 Mg4 3.327860 1_555
Mg3 Mg46 3.369267 1_555
Mg3 Rb0 3.385889 1_555
Mg4 Mg8 3.070910 1_555
Mg4 Mg9 3.137670 1_555
Mg4 Mg40 3.147585 1_555
Mg4 Mg46 3.369274 1_555
Mg4 Rb0 3.385896 1_555
Mg5 Mg6 3.179478 1_555
Mg5 Mg8 3.203571 1_555
Mg6 Mg7 3.203570 1_655
Mg7 Mg9 3.221942 1_555
Mg8 Mg9 3.221950 1_555
Mg10 Mg16 3.070910 1_555
Mg10 Mg8 3.116612 1_555
Mg10 Mg13 3.193506 1_555
Mg10 Mg37 3.194477 1_555
Mg10 Mg133 3.194477 1_554
Mg10 Mg144 3.203299 1_554
Mg10 Mg33 3.203311 1_555
Mg10 Mg5 3.203580 1_555
Mg10 Mg18 3.221951 1_555
Mg10 Mg42 3.226109 1_555
Mg10 Mg129 3.226109 1_554
Mg10 Mg12 3.234612 1_555
Mg11 Mg15 3.070895 1_555
Mg11 Mg7 3.116630 1_555
Mg11 Mg14 3.193506 1_555
Mg11 Mg134 3.194493 1_554
Mg11 Mg38 3.194493 1_555
Mg11 Mg143 3.203298 1_454
Mg11 Mg32 3.203311 1_455
Mg11 Mg6 3.203563 1_455
Mg11 Mg17 3.221942 1_555
Mg11 Mg43 3.226109 1_555
Mg11 Mg130 3.226109 1_554
Mg11 Mg12 3.234612 1_455
Mg12 Mg16 3.175976 1_555
Mg12 Mg15 3.175992 1_655
Mg12 Mg6 3.178786 1_555
Mg12 Mg5 3.178793 1_555
Mg12 Mg144 3.186323 1_554
Mg12 Mg143 3.186332 1_554
Mg12 Mg33 3.186336 1_555
Mg12 Mg32 3.186344 1_555
Mg12 Mg148 3.230083 1_554
Mg12 Mg26 3.230083 1_555
Mg13 Mg9 3.157360 1_555
Mg13 Mg18 3.157360 1_555
Mg13 Mg14 3.174054 1_555
Mg13 Mg19 3.174055 1_555
Mg13 Mg8 3.193507 1_555
Mg13 Mg136 3.202064 1_554
Mg13 Mg137 3.202064 1_554
Mg13 Mg34 3.202077 1_555
Mg13 Mg35 3.202077 1_555
Mg13 Mg133 3.224996 1_554
Mg13 Mg37 3.224996 1_555
Mg14 Mg17 3.157345 1_555
Mg14 Mg9 3.157361 1_555
Mg14 Mg19 3.174054 1_555
Mg14 Mg7 3.193514 1_555
Mg14 Mg36 3.202077 1_555
Mg14 Mg34 3.202085 1_555
Mg14 Mg38 3.224979 1_555
Mg15 Mg17 3.137644 1_555
Mg15 Mg43 3.147585 1_555
Mg15 Mg26 3.196819 1_455
Mg15 Mg21 3.327868 1_555
Mg15 Mg47 3.369275 1_555
Mg15 Rb0 3.385905 1_565
Mg15 Mg16 3.443603 1_455
Mg16 Mg18 3.137669 1_555
Mg16 Mg42 3.147585 1_555
Mg16 Mg26 3.196811 1_555
Mg16 Mg20 3.327861 1_555
Mg16 Mg48 3.369275 1_555
Mg16 Rb0 3.385896 1_665
Mg17 Mg21 3.137670 1_555
Mg17 Mg19 3.157352 1_555
Mg17 Mg36 3.185610 1_555
Mg17 Mg23 3.221958 1_555
Mg17 Mg43 3.227444 1_555
Mg17 Mg44 3.227453 1_555
Mg18 Mg20 3.137652 1_555
Mg18 Mg19 3.157360 1_555
Mg18 Mg35 3.185610 1_555
Mg18 Mg22 3.221935 1_555
Mg18 Mg45 3.227445 1_555
Mg18 Mg42 3.227461 1_555
Mg19 Mg22 3.193498 1_555
Mg19 Mg23 3.193507 1_555
Mg19 Mg36 3.202077 1_555
Mg19 Mg35 3.202085 1_555
Mg19 Mg39 3.224979 1_555
Mg20 Mg22 3.070918 1_555
Mg20 Mg45 3.147585 1_555
Mg20 Mg25 3.196819 1_565
Mg20 Mg48 3.369267 1_555
Mg20 Rb0 3.385888 1_665
Mg20 Mg3 3.443603 1_665
Mg21 Mg23 3.070902 1_555
Mg21 Mg44 3.147593 1_555
Mg21 Mg24 3.196811 1_565
Mg21 Mg47 3.369274 1_555
Mg21 Rb0 3.385896 1_565
Mg21 Mg4 3.443588 1_565
Mg22 Mg23 3.116620 1_555
Mg22 Mg39 3.194477 1_555
Mg22 Mg29 3.203319 1_565
Mg22 Mg45 3.226117 1_555
Mg23 Mg39 3.194493 1_555
Mg23 Mg28 3.203303 1_565
Mg23 Mg44 3.226108 1_555
Mg24 Mg47 3.171959 1_545
Mg24 Mg46 3.171959 1_555
Mg24 Mg4 3.196811 1_555
Mg24 Mg70 3.230839 1_555
Mg24 Mg68 3.230839 1_555
Mg24 Mg31 3.235046 1_555
Mg24 Mg28 3.235054 1_555
Mg24 Mg40 3.240280 1_555
Mg24 Mg44 3.240296 1_545
Mg24 Mg49 3.241408 1_555
Mg25 Mg46 3.171959 1_655
Mg25 Mg48 3.171960 1_545
Mg25 Mg3 3.196818 1_655
Mg25 Mg71 3.230838 1_555
Mg25 Mg69 3.230839 1_555
Mg25 Mg29 3.235046 1_555
Mg25 Mg30 3.235047 1_555
Mg25 Mg45 3.240286 1_545
Mg25 Mg41 3.240295 1_655
Mg25 Mg50 3.241409 1_555
Mg26 Mg47 3.171959 1_655
Mg26 Mg48 3.171960 1_555
Mg26 Mg72 3.230838 1_555
Mg26 Mg73 3.230839 1_555
Mg26 Mg33 3.235038 1_555
Mg26 Mg32 3.235047 1_555
Mg26 Mg42 3.240279 1_555
Mg26 Mg43 3.240295 1_655
Mg26 Mg51 3.241409 1_555
Mg27 Mg6 3.187801 1_555
Mg27 Mg5 3.187810 1_555
Mg27 Mg54 3.202929 1_555
Mg27 Mg52 3.202929 1_555
Mg27 Mg53 3.202937 1_555
Mg27 Mg30 3.214736 1_555
Mg27 Mg29 3.214737 1_555
Mg27 Mg32 3.214744 1_555
Mg27 Mg31 3.214752 1_555
Mg27 Mg28 3.214752 1_555
Mg27 Mg33 3.214769 1_555
Mg28 Mg49 3.190578 1_555
Mg28 Mg44 3.192284 1_545
Mg28 Mg31 3.199100 1_555
Mg28 Mg52 3.208741 1_555
Mg28 Mg62 3.208807 1_555
Mg28 Mg39 3.213685 1_545
Mg28 Mg29 3.230365 1_555
Mg29 Mg50 3.190569 1_555
Mg29 Mg45 3.192301 1_545
Mg29 Mg30 3.199083 1_555
Mg29 Mg52 3.208749 1_555
Mg29 Mg61 3.208815 1_555
Mg29 Mg39 3.213692 1_545
Mg30 Mg50 3.190570 1_555
Mg30 Mg41 3.192292 1_655
Mg30 Mg7 3.203311 1_655
Mg30 Mg54 3.208741 1_555
Mg30 Mg63 3.208814 1_555
Mg30 Mg6 3.211855 1_555
Mg30 Mg38 3.213692 1_655
Mg30 Mg32 3.230374 1_555
Mg31 Mg49 3.190570 1_555
Mg31 Mg40 3.192284 1_555
Mg31 Mg8 3.203319 1_555
Mg31 Mg53 3.208741 1_555
Mg31 Mg64 3.208815 1_555
Mg31 Mg5 3.211847 1_555
Mg31 Mg37 3.213685 1_555
Mg31 Mg33 3.230381 1_555
Mg32 Mg51 3.190570 1_555
Mg32 Mg43 3.192292 1_655
Mg32 Mg33 3.199091 1_555
Mg32 Mg54 3.208749 1_555
Mg32 Mg65 3.208814 1_555
Mg32 Mg6 3.211847 1_555
Mg32 Mg38 3.213700 1_655
Mg33 Mg51 3.190569 1_555
Mg33 Mg42 3.192269 1_555
Mg33 Mg53 3.208757 1_555
Mg33 Mg66 3.208807 1_555
Mg33 Mg5 3.211863 1_555
Mg33 Mg37 3.213676 1_555
Mg34 Mg41 3.183206 1_555
Mg34 Mg40 3.183223 1_555
Mg34 Mg35 3.185109 1_555
Mg34 Mg36 3.185110 1_555
Mg34 Mg9 3.185610 1_555
Mg34 Mg55 3.197233 1_555
Mg34 Mg56 3.197233 1_555
Mg34 Mg38 3.201700 1_555
Mg34 Mg37 3.201716 1_555
Mg34 Mg58 3.205679 1_555
Mg35 Mg45 3.183214 1_555
Mg35 Mg42 3.183222 1_555
Mg35 Mg36 3.185109 1_555
Mg35 Mg57 3.197233 1_555
Mg35 Mg55 3.197233 1_555
Mg35 Mg39 3.201701 1_555
Mg35 Mg37 3.201717 1_555
Mg35 Mg60 3.205679 1_555
Mg36 Mg43 3.183206 1_555
Mg36 Mg44 3.183207 1_555
Mg36 Mg57 3.197233 1_555
Mg36 Mg56 3.197233 1_555
Mg36 Mg38 3.201708 1_555
Mg36 Mg39 3.201708 1_555
Mg36 Mg59 3.205671 1_555
Mg37 Mg40 3.167399 1_555
Mg37 Mg42 3.167399 1_555
Mg37 Mg55 3.190333 1_555
Mg37 Mg66 3.191900 1_555
Mg37 Mg64 3.191900 1_555
Mg37 Mg8 3.194477 1_555
Mg38 Mg41 3.167384 1_555
Mg38 Mg43 3.167400 1_555
Mg38 Mg56 3.190325 1_555
Mg38 Mg63 3.191900 1_455
Mg38 Mg65 3.191908 1_455
Mg38 Mg7 3.194485 1_555
Mg39 Mg45 3.167399 1_555
Mg39 Mg44 3.167399 1_555
Mg39 Mg57 3.190325 1_555
Mg39 Mg61 3.191900 1_565
Mg39 Mg62 3.191908 1_565
Mg40 Mg46 3.152610 1_555
Mg40 Mg58 3.181997 1_555
Mg40 Mg64 3.184319 1_555
Mg40 Mg41 3.216630 1_555
Mg40 Mg70 3.224923 1_555
Mg40 Mg8 3.226108 1_555
Mg40 Mg9 3.227461 1_555
Mg41 Mg46 3.152619 1_555
Mg41 Mg58 3.181997 1_555
Mg41 Mg63 3.184320 1_455
Mg41 Mg71 3.224931 1_455
Mg41 Mg7 3.226109 1_555
Mg41 Mg9 3.227444 1_555
Mg42 Mg48 3.152610 1_555
Mg42 Mg60 3.181997 1_555
Mg42 Mg66 3.184319 1_555
Mg42 Mg45 3.216623 1_555
Mg42 Mg73 3.224923 1_555
Mg43 Mg47 3.152619 1_555
Mg43 Mg59 3.181997 1_555
Mg43 Mg65 3.184320 1_455
Mg43 Mg44 3.216622 1_555
Mg43 Mg72 3.224931 1_455
Mg44 Mg47 3.152618 1_555
Mg44 Mg59 3.181997 1_555
Mg44 Mg62 3.184319 1_565
Mg44 Mg68 3.224931 1_565
Mg45 Mg48 3.152601 1_555
Mg45 Mg60 3.181997 1_555
Mg45 Mg61 3.184327 1_565
Mg45 Mg69 3.224923 1_565
Mg46 Mg70 3.095512 1_555
Mg46 Mg71 3.095512 1_455
Mg46 Mg67 3.158647 1_555
Mg46 Rb0 3.383411 1_555
Mg46 Mg48 3.394919 1_445
Mg46 Mg47 3.394920 1_545
Mg47 Mg68 3.095512 1_565
Mg47 Mg72 3.095512 1_455
Mg47 Mg67 3.158647 1_565
Mg47 Rb0 3.383411 1_565
Mg47 Mg48 3.394918 1_455
Mg48 Mg69 3.095512 1_565
Mg48 Mg73 3.095512 1_555
Mg48 Mg67 3.158647 1_665
Mg48 Rb0 3.383411 1_665
Mg49 Mg70 3.188529 1_555
Mg49 Mg68 3.188529 1_555
Mg49 Mg76 3.202813 1_555
Mg49 Mg52 3.204784 1_555
Mg49 Mg53 3.204784 1_555
Mg49 Mg79 3.206111 1_555
Mg49 Mg78 3.206111 1_555
Mg49 Mg64 3.209224 1_555
Mg49 Mg62 3.209224 1_555
Mg50 Mg71 3.188529 1_555
Mg50 Mg69 3.188530 1_555
Mg50 Mg75 3.202813 1_555
Mg50 Mg54 3.204785 1_555
Mg50 Mg52 3.204799 1_555
Mg50 Mg77 3.206111 1_555
Mg50 Mg80 3.206111 1_555
Mg50 Mg61 3.209223 1_555
Mg50 Mg63 3.209223 1_555
Mg51 Mg72 3.188529 1_555
Mg51 Mg73 3.188530 1_555
Mg51 Mg89 3.202813 1_555
Mg51 Mg53 3.204800 1_555
Mg51 Mg54 3.204801 1_555
Mg51 Mg84 3.206111 1_555
Mg51 Mg85 3.206119 1_555
Mg51 Mg66 3.209223 1_555
Mg51 Mg65 3.209223 1_555
Mg52 Mg62 3.200013 1_555
Mg52 Mg61 3.200022 1_555
Mg52 Mg53 3.200891 1_555
Mg52 Mg54 3.200898 1_555
Mg52 Mg78 3.203135 1_555
Mg52 Mg77 3.203143 1_555
Mg52 Mg81 3.203516 1_555
Mg53 Mg64 3.200013 1_555
Mg53 Mg66 3.200022 1_555
Mg53 Mg54 3.200906 1_555
Mg53 Mg79 3.203135 1_555
Mg53 Mg84 3.203144 1_555
Mg53 Mg81 3.203524 1_555
Mg54 Mg63 3.200013 1_555
Mg54 Mg65 3.200021 1_555
Mg54 Mg80 3.203143 1_555
Mg54 Mg85 3.203143 1_555
Mg54 Mg81 3.203515 1_555
Mg55 Mg87 3.193448 1_555
Mg55 Mg88 3.193839 1_555
Mg55 Mg92 3.193839 1_555
Mg55 Mg66 3.201590 1_555
Mg55 Mg64 3.201591 1_555
Mg55 Mg58 3.203861 1_555
Mg55 Mg60 3.203861 1_555
Mg55 Mg56 3.208240 1_555
Mg55 Mg57 3.208241 1_555
Mg56 Mg86 3.193448 1_555
Mg56 Mg88 3.193847 1_555
Mg56 Mg93 3.193847 1_555
Mg56 Mg65 3.201590 1_455
Mg56 Mg63 3.201590 1_455
Mg56 Mg59 3.203854 1_555
Mg56 Mg58 3.203870 1_555
Mg56 Mg57 3.208240 1_555
Mg57 Mg98 3.193448 1_555
Mg57 Mg93 3.193839 1_555
Mg57 Mg92 3.193847 1_555
Mg57 Mg61 3.201590 1_565
Mg57 Mg62 3.201592 1_565
Mg57 Mg59 3.203853 1_555
Mg57 Mg60 3.203869 1_555
Mg58 Mg82 3.191089 1_555
Mg58 Mg83 3.191097 1_555
Mg58 Mg88 3.197865 1_555
Mg58 Mg70 3.202696 1_555
Mg58 Mg71 3.202703 1_455
Mg58 Mg64 3.214415 1_555
Mg58 Mg63 3.214431 1_455
Mg59 Mg91 3.191096 1_555
Mg59 Mg94 3.191097 1_555
Mg59 Mg93 3.197857 1_555
Mg59 Mg72 3.202710 1_455
Mg59 Mg68 3.202711 1_565
Mg59 Mg62 3.214423 1_565
Mg59 Mg65 3.214423 1_455
Mg60 Mg90 3.191089 1_555
Mg60 Mg95 3.191105 1_555
Mg60 Mg92 3.197865 1_555
Mg60 Mg73 3.202694 1_555
Mg60 Mg69 3.202703 1_565
Mg60 Mg66 3.214416 1_555
Mg60 Mg61 3.214432 1_565
Mg61 Mg62 3.182549 1_555
Mg61 Mg98 3.189398 1_545
Mg61 Mg69 3.193336 1_555
Mg61 Mg77 3.198454 1_555
Mg61 Mg95 3.198773 1_545
Mg62 Mg98 3.189407 1_545
Mg62 Mg68 3.193336 1_555
Mg62 Mg78 3.198454 1_555
Mg62 Mg94 3.198780 1_545
Mg63 Mg65 3.182550 1_555
Mg63 Mg86 3.189407 1_655
Mg63 Mg71 3.193337 1_555
Mg63 Mg80 3.198446 1_555
Mg63 Mg83 3.198781 1_655
Mg64 Mg66 3.182549 1_555
Mg64 Mg87 3.189407 1_555
Mg64 Mg70 3.193336 1_555
Mg64 Mg79 3.198454 1_555
Mg64 Mg82 3.198780 1_555
Mg65 Mg86 3.189399 1_655
Mg65 Mg72 3.193337 1_555
Mg65 Mg85 3.198446 1_555
Mg65 Mg91 3.198781 1_655
Mg66 Mg87 3.189398 1_555
Mg66 Mg73 3.193336 1_555
Mg66 Mg84 3.198454 1_555
Mg66 Mg90 3.198781 1_555
Mg67 Mg97 3.196884 1_445
Mg67 Mg74 3.196884 1_555
Mg67 Mg96 3.196892 1_545
Mg67 Mg68 3.230414 1_555
Mg67 Mg69 3.230414 1_455
Mg67 Mg70 3.230414 1_555
Mg67 Mg73 3.230414 1_445
Mg67 Mg71 3.230415 1_455
Mg67 Mg72 3.230415 1_445
Mg68 Mg94 3.172092 1_545
Mg68 Mg76 3.174585 1_555
Mg68 Mg96 3.188734 1_545
Mg68 Mg70 3.216922 1_555
Mg68 Mg72 3.243703 1_445
Mg69 Mg95 3.172092 1_545
Mg69 Mg75 3.174585 1_555
Mg69 Mg97 3.188742 1_545
Mg69 Mg71 3.216921 1_555
Mg69 Mg73 3.243704 1_545
Mg70 Mg82 3.172092 1_555
Mg70 Mg76 3.174584 1_555
Mg70 Mg74 3.188734 1_555
Mg70 Mg71 3.243703 1_455
Mg71 Mg83 3.172092 1_655
Mg71 Mg75 3.174584 1_555
Mg71 Mg74 3.188742 1_655
Mg72 Mg91 3.172092 1_655
Mg72 Mg89 3.174584 1_555
Mg72 Mg96 3.188734 1_655
Mg72 Mg73 3.216921 1_555
Mg73 Mg90 3.172092 1_555
Mg73 Mg89 3.174584 1_555
Mg73 Mg97 3.188734 1_555
Mg74 Mg97 3.211662 1_445
Mg74 Mg96 3.211663 1_545
Mg74 Mg82 3.211796 1_555
Mg74 Mg83 3.211804 1_555
Mg74 Mg76 3.217766 1_555
Mg74 Mg75 3.217782 1_455
Mg75 Mg80 3.193559 1_555
Mg75 Mg77 3.193566 1_555
Mg75 Mg97 3.217783 1_545
Mg75 Mg95 3.217974 1_545
Mg75 Mg83 3.217982 1_655
Mg76 Mg99 3.174585 1_555
Mg76 Mg78 3.193566 1_555
Mg76 Mg79 3.193566 1_555
Mg76 Mg96 3.217774 1_545
Mg76 Mg82 3.217983 1_555
Mg76 Mg94 3.217983 1_545
Mg77 Mg80 3.186373 1_555
Mg77 Mg81 3.196682 1_555
Mg77 Mg78 3.207002 1_555
Mg77 Mg98 3.217361 1_545
Mg77 Mg95 3.218534 1_545
Mg78 Mg79 3.186366 1_555
Mg78 Mg81 3.196689 1_555
Mg78 Mg98 3.217370 1_545
Mg78 Mg94 3.218549 1_545
Mg79 Mg81 3.196697 1_555
Mg79 Mg84 3.207002 1_555
Mg79 Mg87 3.217370 1_555
Mg79 Mg82 3.218549 1_555
Mg80 Mg81 3.196697 1_555
Mg80 Mg85 3.207003 1_555
Mg80 Mg86 3.217361 1_655
Mg80 Mg83 3.218533 1_655
Mg81 Mg85 3.196697 1_555
Mg81 Mg84 3.196698 1_555
Mg82 Mg87 3.197234 1_555
Mg82 Mg83 3.199308 1_555
Mg82 Mg88 3.199478 1_555
Mg83 Mg86 3.197235 1_555
Mg83 Mg88 3.199485 1_555
Mg84 Mg85 3.186381 1_555
Mg84 Mg89 3.193566 1_555
Mg84 Mg87 3.217361 1_555
Mg84 Mg90 3.218550 1_555
Mg85 Mg89 3.193575 1_555
Mg85 Mg86 3.217345 1_655
Mg85 Mg91 3.218541 1_655
Mg86 Mg91 3.197219 1_555
Mg86 Mg93 3.204303 1_555
Mg86 Mg88 3.204311 1_555
Mg87 Mg90 3.197218 1_555
Mg87 Mg92 3.204288 1_555
Mg87 Mg88 3.204295 1_555
Mg88 Mg92 3.194774 1_555
Mg88 Mg93 3.194791 1_555
Mg89 Mg97 3.217767 1_555
Mg89 Mg96 3.217774 1_655
Mg89 Mg90 3.217981 1_555
Mg89 Mg91 3.217982 1_655
Mg90 Mg95 3.199325 1_555
Mg90 Mg92 3.199477 1_555
Mg90 Mg97 3.211796 1_555
Mg91 Mg94 3.199308 1_555
Mg91 Mg93 3.199485 1_555
Mg91 Mg96 3.211789 1_555
Mg92 Mg93 3.194782 1_555
Mg92 Mg95 3.199493 1_555
Mg92 Mg98 3.204304 1_555
Mg93 Mg94 3.199478 1_555
Mg93 Mg98 3.204295 1_555
Mg94 Mg99 3.172092 1_565
Mg94 Mg98 3.197234 1_555
Mg94 Mg96 3.211788 1_555
Mg95 Mg98 3.197210 1_555
Mg95 Mg97 3.211811 1_555
Mg96 Mg99 3.188734 1_565
Mg96 Mg97 3.211662 1_455
Mg100 Mg126 3.095512 1_545
Mg100 Mg95 3.172092 1_545
Mg100 Mg75 3.174585 1_555
Mg100 Mg122 3.188530 1_555
Mg100 Mg97 3.188742 1_545
Mg100 Mg106 3.193336 1_555
Mg100 Mg114 3.202703 1_545
Mg100 Mg102 3.216921 1_555
Mg100 Mg132 3.224923 1_545
Mg100 Mg105 3.230414 1_655
Mg100 Mg147 3.230839 1_555
Mg100 Mg104 3.243704 1_545
Mg101 Mg124 3.095512 1_555
Mg101 Mg82 3.172092 1_555
Mg101 Mg76 3.174584 1_555
Mg101 Mg121 3.188529 1_555
Mg101 Mg74 3.188734 1_555
Mg101 Mg109 3.193336 1_555
Mg101 Mg112 3.202696 1_555
Mg101 Mg99 3.216922 1_555
Mg101 Mg127 3.224923 1_555
Mg101 Mg105 3.230414 1_555
Mg101 Mg146 3.230839 1_555
Mg101 Mg102 3.243703 1_455
Mg102 Mg124 3.095512 1_655
Mg102 Mg83 3.172092 1_655
Mg102 Mg75 3.174584 1_555
Mg102 Mg122 3.188529 1_555
Mg102 Mg74 3.188742 1_655
Mg102 Mg108 3.193337 1_555
Mg102 Mg112 3.202703 1_655
Mg102 Mg128 3.224931 1_655
Mg102 Mg105 3.230415 1_655
Mg102 Mg147 3.230838 1_555
Mg103 Mg125 3.095512 1_655
Mg103 Mg91 3.172092 1_655
Mg103 Mg89 3.174584 1_555
Mg103 Mg123 3.188529 1_555
Mg103 Mg96 3.188734 1_655
Mg103 Mg110 3.193337 1_555
Mg103 Mg113 3.202710 1_655
Mg103 Mg104 3.216921 1_555
Mg103 Mg130 3.224931 1_655
Mg103 Mg105 3.230415 1_665
Mg103 Mg148 3.230838 1_555
Mg103 Mg99 3.243703 1_665
Mg104 Mg126 3.095512 1_555
Mg104 Mg90 3.172092 1_555
Mg104 Mg89 3.174584 1_555
Mg104 Mg123 3.188530 1_555
Mg104 Mg97 3.188734 1_555
Mg104 Mg111 3.193336 1_555
Mg104 Mg114 3.202694 1_555
Mg104 Mg129 3.224923 1_555
Mg104 Mg105 3.230414 1_665
Mg104 Mg148 3.230839 1_555
Mg105 Mg126 3.158634 1_445
Mg105 Mg125 3.158635 1_545
Mg105 Mg124 3.158635 1_555
Mg105 Mg97 3.196897 1_445
Mg105 Mg74 3.196897 1_555
Mg105 Mg96 3.196905 1_545
Mg105 Mg99 3.230414 1_555
Mg106 Mg107 3.182549 1_555
Mg106 Mg132 3.184327 1_545
Mg106 Mg98 3.189398 1_545
Mg106 Mg135 3.191900 1_545
Mg106 Mg77 3.198454 1_555
Mg106 Mg95 3.198773 1_545
Mg106 Mg118 3.200022 1_555
Mg106 Mg117 3.201590 1_545
Mg106 Mg140 3.208828 1_555
Mg106 Mg122 3.209223 1_555
Mg106 Mg114 3.214432 1_545
Mg107 Mg131 3.184319 1_545
Mg107 Mg98 3.189407 1_545
Mg107 Mg135 3.191908 1_545
Mg107 Mg99 3.193336 1_555
Mg107 Mg78 3.198454 1_555
Mg107 Mg94 3.198780 1_545
Mg107 Mg118 3.200013 1_555
Mg107 Mg117 3.201592 1_545
Mg107 Mg139 3.208820 1_555
Mg107 Mg121 3.209224 1_555
Mg107 Mg113 3.214423 1_545
Mg108 Mg110 3.182550 1_555
Mg108 Mg128 3.184320 1_655
Mg108 Mg86 3.189407 1_655
Mg108 Mg134 3.191900 1_655
Mg108 Mg80 3.198446 1_555
Mg108 Mg83 3.198781 1_655
Mg108 Mg120 3.200013 1_555
Mg108 Mg116 3.201590 1_655
Mg108 Mg141 3.208827 1_555
Mg108 Mg122 3.209223 1_555
Mg108 Mg112 3.214431 1_655
Mg109 Mg111 3.182549 1_555
Mg109 Mg127 3.184319 1_555
Mg109 Mg87 3.189407 1_555
Mg109 Mg133 3.191900 1_555
Mg109 Mg79 3.198454 1_555
Mg109 Mg82 3.198780 1_555
Mg109 Mg119 3.200013 1_555
Mg109 Mg115 3.201591 1_555
Mg109 Mg142 3.208828 1_555
Mg109 Mg121 3.209224 1_555
Mg109 Mg112 3.214415 1_555
Mg110 Mg130 3.184320 1_655
Mg110 Mg86 3.189399 1_655
Mg110 Mg134 3.191908 1_655
Mg110 Mg85 3.198446 1_555
Mg110 Mg91 3.198781 1_655
Mg110 Mg120 3.200021 1_555
Mg110 Mg116 3.201590 1_655
Mg110 Mg143 3.208827 1_555
Mg110 Mg123 3.209223 1_555
Mg110 Mg113 3.214423 1_655
Mg111 Mg129 3.184319 1_555
Mg111 Mg87 3.189398 1_555
Mg111 Mg133 3.191900 1_555
Mg111 Mg84 3.198454 1_555
Mg111 Mg90 3.198781 1_555
Mg111 Mg119 3.200022 1_555
Mg111 Mg115 3.201590 1_555
Mg111 Mg144 3.208820 1_555
Mg111 Mg123 3.209223 1_555
Mg111 Mg114 3.214416 1_555
Mg112 Mg128 3.181997 1_555
Mg112 Mg127 3.181997 1_555
Mg112 Mg82 3.191089 1_555
Mg112 Mg83 3.191097 1_555
Mg112 Mg88 3.197865 1_555
Mg112 Mg115 3.203861 1_555
Mg112 Mg116 3.203870 1_555
Mg112 Mg136 3.205692 1_555
Mg113 Mg130 3.181997 1_555
Mg113 Mg131 3.181997 1_555
Mg113 Mg91 3.191096 1_555
Mg113 Mg94 3.191097 1_555
Mg113 Mg93 3.197857 1_555
Mg113 Mg99 3.202711 1_565
Mg113 Mg117 3.203853 1_555
Mg113 Mg116 3.203854 1_555
Mg113 Mg138 3.205684 1_555
Mg114 Mg132 3.181997 1_555
Mg114 Mg129 3.181997 1_555
Mg114 Mg90 3.191089 1_555
Mg114 Mg95 3.191105 1_555
Mg114 Mg92 3.197865 1_555
Mg114 Mg115 3.203861 1_555
Mg114 Mg117 3.203869 1_555
Mg114 Mg137 3.205691 1_555
Mg115 Mg133 3.190346 1_555
Mg115 Mg87 3.193435 1_555
Mg115 Mg88 3.193826 1_555
Mg115 Mg92 3.193826 1_555
Mg115 Mg136 3.197258 1_555
Mg115 Mg137 3.197259 1_555
Mg115 Mg116 3.208240 1_555
Mg115 Mg117 3.208241 1_555
Mg116 Mg134 3.190338 1_555
Mg116 Mg86 3.193435 1_555
Mg116 Mg88 3.193834 1_555
Mg116 Mg93 3.193834 1_555
Mg116 Mg136 3.197258 1_555
Mg116 Mg138 3.197259 1_555
Mg116 Mg117 3.208240 1_555
Mg117 Mg135 3.190338 1_555
Mg117 Mg98 3.193435 1_555
Mg117 Mg93 3.193826 1_555
Mg117 Mg92 3.193834 1_555
Mg117 Mg138 3.197258 1_555
Mg117 Mg137 3.197258 1_555
Mg118 Mg119 3.200891 1_555
Mg118 Mg120 3.200898 1_555
Mg118 Mg145 3.202929 1_555
Mg118 Mg78 3.203135 1_555
Mg118 Mg77 3.203143 1_555
Mg118 Mg81 3.203516 1_555
Mg118 Mg121 3.204784 1_555
Mg118 Mg122 3.204800 1_555
Mg118 Mg139 3.208754 1_555
Mg118 Mg140 3.208762 1_555
Mg119 Mg120 3.200906 1_555
Mg119 Mg145 3.202937 1_555
Mg119 Mg79 3.203135 1_555
Mg119 Mg84 3.203144 1_555
Mg119 Mg81 3.203524 1_555
Mg119 Mg121 3.204784 1_555
Mg119 Mg123 3.204800 1_555
Mg119 Mg142 3.208754 1_555
Mg119 Mg144 3.208770 1_555
Mg120 Mg145 3.202929 1_555
Mg120 Mg80 3.203143 1_555
Mg120 Mg85 3.203143 1_555
Mg120 Mg81 3.203515 1_555
Mg120 Mg122 3.204785 1_555
Mg120 Mg123 3.204801 1_555
Mg120 Mg141 3.208754 1_555
Mg120 Mg143 3.208762 1_555
Mg121 Mg99 3.188529 1_555
Mg121 Mg142 3.190570 1_555
Mg121 Mg139 3.190578 1_555
Mg121 Mg76 3.202826 1_555
Mg121 Mg79 3.206124 1_555
Mg121 Mg78 3.206124 1_555
Mg121 Mg146 3.241396 1_555
Mg122 Mg140 3.190569 1_555
Mg122 Mg141 3.190570 1_555
Mg122 Mg75 3.202826 1_555
Mg122 Mg77 3.206124 1_555
Mg122 Mg80 3.206124 1_555
Mg122 Mg147 3.241396 1_555
Mg123 Mg144 3.190569 1_555
Mg123 Mg143 3.190570 1_555
Mg123 Mg89 3.202826 1_555
Mg123 Mg84 3.206124 1_555
Mg123 Mg85 3.206132 1_555
Mg123 Mg148 3.241396 1_555
Mg124 Mg127 3.152610 1_555
Mg124 Mg128 3.152619 1_555
Mg124 Mg147 3.171959 1_455
Mg124 Mg146 3.171959 1_555
Mg124 Mg3 3.369267 1_556
Mg124 Mg4 3.369274 1_556
Mg124 Rb0 3.383411 1_556
Mg124 Mg126 3.394919 1_445
Mg124 Mg125 3.394920 1_545
Mg125 Mg99 3.095512 1_565
Mg125 Mg131 3.152618 1_555
Mg125 Mg130 3.152619 1_555
Mg125 Mg148 3.171959 1_455
Mg125 Mg146 3.171959 1_565
Mg125 Mg21 3.369274 1_556
Mg125 Mg15 3.369275 1_556
Mg125 Rb0 3.383411 1_566
Mg125 Mg126 3.394918 1_455
Mg126 Mg132 3.152601 1_555
Mg126 Mg129 3.152610 1_555
Mg126 Mg147 3.171960 1_565
Mg126 Mg148 3.171960 1_555
Mg126 Mg20 3.369267 1_556
Mg126 Mg16 3.369275 1_556
Mg126 Rb0 3.383411 1_666
Mg127 Mg4 3.147585 1_556
Mg127 Mg133 3.167399 1_555
Mg127 Mg136 3.183223 1_555
Mg127 Mg142 3.192284 1_555
Mg127 Mg128 3.216630 1_555
Mg127 Mg8 3.226108 1_556
Mg127 Mg9 3.227461 1_556
Mg127 Mg146 3.240280 1_555
Mg128 Mg3 3.147593 1_556
Mg128 Mg134 3.167384 1_555
Mg128 Mg136 3.183206 1_555
Mg128 Mg141 3.192292 1_455
Mg128 Mg7 3.226109 1_556
Mg128 Mg9 3.227444 1_556
Mg128 Mg147 3.240295 1_455
Mg129 Mg16 3.147585 1_556
Mg129 Mg133 3.167399 1_555
Mg129 Mg137 3.183222 1_555
Mg129 Mg144 3.192269 1_555
Mg129 Mg132 3.216623 1_555
Mg129 Mg18 3.227461 1_556
Mg129 Mg148 3.240279 1_555
Mg130 Mg15 3.147585 1_556
Mg130 Mg134 3.167400 1_555
Mg130 Mg138 3.183206 1_555
Mg130 Mg143 3.192292 1_455
Mg130 Mg131 3.216622 1_555
Mg130 Mg17 3.227444 1_556
Mg130 Mg148 3.240295 1_455
Mg131 Mg21 3.147593 1_556
Mg131 Mg135 3.167399 1_555
Mg131 Mg138 3.183207 1_555
Mg131 Mg139 3.192284 1_565
Mg131 Mg99 3.224931 1_565
Mg131 Mg23 3.226108 1_556
Mg131 Mg17 3.227453 1_556
Mg131 Mg146 3.240296 1_565
Mg132 Mg20 3.147585 1_556
Mg132 Mg135 3.167399 1_555
Mg132 Mg137 3.183214 1_555
Mg132 Mg140 3.192301 1_565
Mg132 Mg22 3.226117 1_556
Mg132 Mg18 3.227445 1_556
Mg132 Mg147 3.240286 1_565
Mg133 Mg8 3.194477 1_556
Mg133 Mg136 3.201716 1_555
Mg133 Mg137 3.201717 1_555
Mg133 Mg144 3.213676 1_555
Mg133 Mg142 3.213685 1_555
Mg134 Mg7 3.194485 1_556
Mg134 Mg136 3.201700 1_555
Mg134 Mg138 3.201708 1_555
Mg134 Mg141 3.213692 1_455
Mg134 Mg143 3.213700 1_455
Mg134 Mg14 3.224979 1_556
Mg135 Mg22 3.194477 1_556
Mg135 Mg23 3.194493 1_556
Mg135 Mg137 3.201701 1_555
Mg135 Mg138 3.201708 1_555
Mg135 Mg139 3.213685 1_565
Mg135 Mg140 3.213692 1_565
Mg135 Mg19 3.224979 1_556
Mg136 Mg137 3.185109 1_555
Mg136 Mg138 3.185110 1_555
Mg136 Mg9 3.185597 1_556
Mg136 Mg14 3.202072 1_556
Mg137 Mg138 3.185109 1_555
Mg137 Mg18 3.185597 1_556
Mg137 Mg19 3.202072 1_556
Mg138 Mg17 3.185597 1_556
Mg138 Mg19 3.202064 1_556
Mg138 Mg14 3.202064 1_556
Mg139 Mg2 3.186340 1_556
Mg139 Mg142 3.199100 1_555
Mg139 Mg23 3.203290 1_546
Mg139 Mg145 3.214752 1_555
Mg139 Mg140 3.230365 1_555
Mg139 Mg146 3.235054 1_555
Mg140 Mg141 3.199083 1_555
Mg140 Mg22 3.203307 1_546
Mg140 Mg145 3.214737 1_555
Mg140 Mg147 3.235046 1_555
Mg141 Mg7 3.203298 1_656
Mg141 Mg6 3.211842 1_556
Mg141 Mg145 3.214736 1_555
Mg141 Mg143 3.230374 1_555
Mg141 Mg147 3.235047 1_555
Mg142 Mg2 3.186324 1_556
Mg142 Mg8 3.203306 1_556
Mg142 Mg5 3.211834 1_556
Mg142 Mg145 3.214752 1_555
Mg142 Mg144 3.230381 1_555
Mg142 Mg146 3.235046 1_555
Mg143 Mg144 3.199091 1_555
Mg143 Mg6 3.211834 1_556
Mg143 Mg145 3.214744 1_555
Mg143 Mg148 3.235047 1_555
Mg144 Mg5 3.211850 1_556
Mg144 Mg145 3.214769 1_555
Mg144 Mg148 3.235038 1_555
Mg145 Mg6 3.187801 1_556
Mg145 Mg5 3.187810 1_556
Mg146 Mg4 3.196811 1_556
Mg146 Mg21 3.196811 1_546
Mg146 Mg2 3.230083 1_556
Mg146 Mg99 3.230839 1_555
Mg147 Mg3 3.196818 1_656
Mg147 Mg20 3.196819 1_546
Mg148 Mg16 3.196811 1_556
Mg148 Mg15 3.196819 1_656
