# generated using pymatgen
data_Ge5P6O25
_symmetry_space_group_name_H-M   'P 1'
_cell_length_a   9.51439059
_cell_length_b   9.51439060
_cell_length_c   9.51439065
_cell_angle_alpha   49.80956172
_cell_angle_beta   49.80956171
_cell_angle_gamma   49.80955557
_symmetry_Int_Tables_number   1
_chemical_formula_structural   Ge5P6O25
_chemical_formula_sum   'Ge5 P6 O25'
_cell_volume   462.32508028
_cell_formula_units_Z   1
loop_
 _symmetry_equiv_pos_site_id
 _symmetry_equiv_pos_as_xyz
  1  'x, y, z'
loop_
 _atom_site_type_symbol
 _atom_site_label
 _atom_site_symmetry_multiplicity
 _atom_site_fract_x
 _atom_site_fract_y
 _atom_site_fract_z
 _atom_site_occupancy
  Ge  Ge0  1  0.56824320  0.56824320  0.56824320  1
  Ge  Ge1  1  0.43175680  0.43175680  0.43175680  1
  Ge  Ge2  1  0.82322738  0.82322738  0.82322738  1
  Ge  Ge3  1  0.17677262  0.17677262  0.17677262  1
  Ge  Ge4  1  -0.00000000  -0.00000000  0.00000000  1
  P  P0  1  0.17547669  0.93155874  0.61942697  1
  P  P1  1  0.61942697  0.17547669  0.93155874  1
  P  P2  1  0.93155874  0.61942697  0.17547669  1
  P  P3  1  0.82452331  0.06844126  0.38057303  1
  P  P4  1  0.38057303  0.82452331  0.06844126  1
  P  P5  1  0.06844126  0.38057303  0.82452331  1
  O  O0  1  0.13434501  0.09320349  0.43305340  1
  O  O1  1  0.43305340  0.13434501  0.09320349  1
  O  O2  1  0.09320349  0.43305340  0.13434501  1
  O  O3  1  0.86565499  0.90679651  0.56694660  1
  O  O4  1  0.56694660  0.86565499  0.90679651  1
  O  O5  1  0.90679651  0.56694660  0.86565499  1
  O  O6  1  0.40737592  0.80996335  0.56400803  1
  O  O7  1  0.56400803  0.40737592  0.80996335  1
  O  O8  1  0.80996335  0.56400803  0.40737592  1
  O  O9  1  0.59262408  0.19003665  0.43599197  1
  O  O10  1  0.43599197  0.59262408  0.19003665  1
  O  O11  1  0.50000000  0.50000000  0.50000000  1
  O  O12  1  0.22179714  0.26617503  0.91174828  1
  O  O13  1  0.26617503  0.91174828  0.22179714  1
  O  O14  1  0.91174828  0.22179714  0.26617503  1
  O  O15  1  0.77820286  0.73382497  0.08825172  1
  O  O16  1  0.73382497  0.08825172  0.77820286  1
  O  O17  1  0.08825172  0.77820286  0.73382497  1
  O  O18  1  0.96424375  0.26104544  0.89938739  1
  O  O19  1  0.26104544  0.89938739  0.96424375  1
  O  O20  1  0.89938739  0.96424375  0.26104544  1
  O  O21  1  0.03575625  0.73895456  0.10061261  1
  O  O22  1  0.73895456  0.10061261  0.03575625  1
  O  O23  1  0.10061261  0.03575625  0.73895456  1
  O  O24  1  0.19003665  0.43599197  0.59262408  1
loop_
_geom_bond_atom_site_label_1
_geom_bond_atom_site_label_2
_geom_bond_distance
_geom_bond_site_symmetry_2
Ge0 O11 1.702085 1_555
Ge0 O6 1.746499 1_555
Ge0 O8 1.746500 1_555
Ge0 O7 1.746500 1_555
Ge1 O11 1.702085 1_555
Ge1 O9 1.746499 1_555
Ge1 O24 1.746500 1_555
Ge1 O10 1.746500 1_555
Ge2 O5 1.839106 1_555
Ge2 O4 1.839106 1_555
Ge2 O3 1.839106 1_555
Ge2 O16 1.890268 1_565
Ge2 O17 1.890268 1_655
Ge2 O15 1.890268 1_556
Ge3 O2 1.839106 1_555
Ge3 O1 1.839106 1_555
Ge3 O0 1.839106 1_555
Ge3 O13 1.890268 1_545
Ge3 O14 1.890268 1_455
Ge3 O12 1.890268 1_554
Ge4 O22 1.860636 1_455
Ge4 O19 1.860636 1_544
Ge4 O21 1.860636 1_545
Ge4 O18 1.860636 1_454
Ge4 O23 1.860636 1_554
Ge4 O20 1.860636 1_445
O0 P0 1.503933 1_545
O1 P1 1.503933 1_554
O2 P2 1.503933 1_455
O3 P3 1.503933 1_565
O4 P4 1.503933 1_556
O5 P5 1.503933 1_655
O6 P0 1.573484 1_555
O7 P1 1.573485 1_555
O8 P2 1.573485 1_555
O9 P3 1.573484 1_555
O10 P4 1.573485 1_555
O12 P5 1.532853 1_555
O13 P4 1.532853 1_555
O14 P3 1.532853 1_555
O15 P2 1.532853 1_555
O16 P1 1.532853 1_555
O17 P0 1.532853 1_555
O18 P5 1.510538 1_655
O19 P4 1.510538 1_556
O20 P3 1.510538 1_565
O21 P2 1.510538 1_455
O22 P1 1.510538 1_554
O23 P0 1.510538 1_545
O24 P5 1.573485 1_555
