# generated using pymatgen
data_DyHo3
_symmetry_space_group_name_H-M   'P 1'
_cell_length_a   7.23874105
_cell_length_b   7.23873267
_cell_length_c   5.55594537
_cell_angle_alpha   90.00000000
_cell_angle_beta   90.00000000
_cell_angle_gamma   119.99990417
_symmetry_Int_Tables_number   1
_chemical_formula_structural   DyHo3
_chemical_formula_sum   'Dy2 Ho6'
_cell_volume   252.12423700
_cell_formula_units_Z   2
loop_
 _symmetry_equiv_pos_site_id
 _symmetry_equiv_pos_as_xyz
  1  'x, y, z'
loop_
 _atom_site_type_symbol
 _atom_site_label
 _atom_site_symmetry_multiplicity
 _atom_site_fract_x
 _atom_site_fract_y
 _atom_site_fract_z
 _atom_site_occupancy
  Dy  Dy0  1  0.33333300  0.66666700  0.75000200  1
  Dy  Dy1  1  0.66666600  0.33333400  0.25000100  1
  Ho  Ho0  1  0.16643798  0.33287796  0.25000100  1
  Ho  Ho1  1  0.66712304  0.83356302  0.25000100  1
  Ho  Ho2  1  0.16643798  0.83356302  0.25000100  1
  Ho  Ho3  1  0.83356102  0.66712104  0.75000200  1
  Ho  Ho4  1  0.33287696  0.16643798  0.75000200  1
  Ho  Ho5  1  0.83356102  0.16643798  0.75000200  1
loop_
_geom_bond_atom_site_label_1
_geom_bond_atom_site_label_2
_geom_bond_distance
_geom_bond_site_symmetry_2
Dy0 Ho0 3.477882 1_556
Dy0 Ho1 3.477887 1_556
Dy0 Ho2 3.477888 1_556
Dy0 Ho0 3.477891 1_555
Dy0 Ho1 3.477896 1_555
Dy0 Ho2 3.477897 1_555
Dy0 Ho4 3.619360 1_565
Dy0 Ho3 3.619364 1_455
Dy0 Ho5 3.619371 1_565
Dy0 Ho4 3.619375 1_555
Dy0 Ho5 3.619378 1_455
Dy0 Ho3 3.619379 1_555
Dy1 Ho3 3.477874 1_554
Dy1 Ho3 3.477883 1_555
Dy1 Ho4 3.477883 1_554
Dy1 Ho5 3.477888 1_554
Dy1 Ho4 3.477892 1_555
Dy1 Ho5 3.477897 1_555
Dy1 Ho1 3.619364 1_545
Dy1 Ho1 3.619371 1_555
Dy1 Ho2 3.619371 1_545
Dy1 Ho0 3.619372 1_655
Dy1 Ho0 3.619372 1_555
Dy1 Ho2 3.619378 1_655
Ho0 Ho5 3.474446 1_454
Ho0 Ho4 3.474451 1_554
Ho0 Ho5 3.474455 1_455
Ho0 Ho4 3.474460 1_555
Ho0 Ho2 3.614407 1_545
Ho0 Ho1 3.614415 1_445
Ho0 Ho2 3.624325 1_555
Ho0 Ho1 3.624333 1_555
Ho1 Ho5 3.474437 1_564
Ho1 Ho5 3.474446 1_565
Ho1 Ho3 3.474455 1_554
Ho1 Ho3 3.474464 1_555
Ho1 Ho2 3.614412 1_655
Ho1 Ho2 3.624329 1_555
Ho2 Ho4 3.474437 1_564
Ho2 Ho4 3.474446 1_565
Ho2 Ho3 3.474446 1_454
Ho2 Ho3 3.474455 1_455
Ho3 Ho5 3.614422 1_565
Ho3 Ho4 3.614426 1_665
Ho3 Ho5 3.624311 1_555
Ho3 Ho4 3.624322 1_555
Ho4 Ho5 3.614419 1_455
Ho4 Ho5 3.624322 1_555
