# generated using pymatgen
data_Zn3Ga3N5
_symmetry_space_group_name_H-M   'P 1'
_cell_length_a   5.86787476
_cell_length_b   6.59647726
_cell_length_c   8.43892162
_cell_angle_alpha   107.66743829
_cell_angle_beta   107.43733247
_cell_angle_gamma   98.91808093
_symmetry_Int_Tables_number   1
_chemical_formula_structural   Zn3Ga3N5
_chemical_formula_sum   'Zn6 Ga6 N10'
_cell_volume   285.86195576
_cell_formula_units_Z   2
loop_
 _symmetry_equiv_pos_site_id
 _symmetry_equiv_pos_as_xyz
  1  'x, y, z'
loop_
 _atom_site_type_symbol
 _atom_site_label
 _atom_site_symmetry_multiplicity
 _atom_site_fract_x
 _atom_site_fract_y
 _atom_site_fract_z
 _atom_site_occupancy
  Zn  Zn0  1  0.70511700  0.44223800  0.59668600  1
  Zn  Zn1  1  0.29488300  0.55776200  0.40331400  1
  Zn  Zn2  1  0.62377300  0.71487200  0.96127400  1
  Zn  Zn3  1  0.37622700  0.28512800  0.03872600  1
  Zn  Zn4  1  0.82336800  0.61529100  0.28199500  1
  Zn  Zn5  1  0.17663200  0.38470900  0.71800500  1
  Ga  Ga0  1  0.89028900  0.29577500  0.96627800  1
  Ga  Ga1  1  0.10971100  0.70422500  0.03372200  1
  Ga  Ga2  1  0.71560000  0.95604900  0.58675200  1
  Ga  Ga3  1  0.28440000  0.04395100  0.41324800  1
  Ga  Ga4  1  0.16269700  0.85376500  0.70656800  1
  Ga  Ga5  1  0.83730300  0.14623500  0.29343200  1
  N  N0  1  0.04760800  0.13287900  0.79888900  1
  N  N1  1  0.95239200  0.86712100  0.20111100  1
  N  N2  1  0.82047800  0.68791400  0.52432900  1
  N  N3  1  0.17952200  0.31208600  0.47567100  1
  N  N4  1  0.77644100  0.49732200  0.85059200  1
  N  N5  1  0.22355900  0.50267800  0.14940800  1
  N  N6  1  0.36958400  0.88103000  0.57213900  1
  N  N7  1  0.63041600  0.11897000  0.42786100  1
  N  N8  1  0.28557000  0.72314700  0.87896100  1
  N  N9  1  0.71443000  0.27685300  0.12103900  1
loop_
_geom_bond_atom_site_label_1
_geom_bond_atom_site_label_2
_geom_bond_distance
_geom_bond_site_symmetry_2
Ga0 N9 1.911240 1_556
Ga0 N4 1.959407 1_555
Ga0 N5 2.038708 1_656
Ga0 N0 2.042040 1_655
Ga1 N8 1.911240 1_554
Ga1 N5 1.959407 1_555
Ga1 N4 2.038708 1_454
Ga1 N1 2.042040 1_455
Ga2 N2 1.936729 1_555
Ga2 N7 1.960184 1_565
Ga2 N6 1.970764 1_555
Ga2 N0 2.073299 1_665
Ga3 N3 1.936729 1_555
Ga3 N6 1.960184 1_545
Ga3 N7 1.970764 1_555
Ga3 N1 2.073299 1_445
Ga4 N6 1.916922 1_555
Ga4 N8 1.924453 1_555
Ga4 N2 2.010282 1_455
Ga4 N0 2.069568 1_565
Ga5 N7 1.916922 1_555
Ga5 N9 1.924453 1_555
Ga5 N3 2.010282 1_655
Ga5 N1 2.069568 1_545
N0 Zn5 2.099211 1_555
N0 Zn3 2.156411 1_556
N1 Zn4 2.099211 1_555
N1 Zn2 2.156411 1_554
N2 Zn4 1.959748 1_555
N2 Zn0 1.991395 1_555
N3 Zn5 1.959748 1_555
N3 Zn1 1.991395 1_555
N4 Zn2 1.954693 1_555
N4 Zn0 1.959884 1_555
N5 Zn3 1.954693 1_555
N5 Zn1 1.959884 1_555
N6 Zn1 2.064225 1_555
N7 Zn0 2.064225 1_555
N8 Zn2 1.911618 1_555
N8 Zn5 2.105751 1_555
N9 Zn3 1.911618 1_555
N9 Zn4 2.105751 1_555
