# generated using pymatgen
data_VSi4Mo
_symmetry_space_group_name_H-M   'P 1'
_cell_length_a   12.89355300
_cell_length_b   4.61402600
_cell_length_c   4.61957886
_cell_angle_alpha   60.07726941
_cell_angle_beta   90.00000000
_cell_angle_gamma   90.00000000
_symmetry_Int_Tables_number   1
_chemical_formula_structural   VSi4Mo
_chemical_formula_sum   'V3 Si12 Mo3'
_cell_volume   238.18986976
_cell_formula_units_Z   3
loop_
 _symmetry_equiv_pos_site_id
 _symmetry_equiv_pos_as_xyz
  1  'x, y, z'
loop_
 _atom_site_type_symbol
 _atom_site_label
 _atom_site_symmetry_multiplicity
 _atom_site_fract_x
 _atom_site_fract_y
 _atom_site_fract_z
 _atom_site_occupancy
  V  V0  1  0.74976200  0.00000000  0.50000000  1
  V  V1  1  0.41789100  0.50000000  0.00000000  1
  V  V2  1  0.91558700  0.50000000  0.00000000  1
  Si  Si0  1  0.08022500  0.83533800  0.83784500  1
  Si  Si1  1  0.58405900  0.83425700  0.83658100  1
  Si  Si2  1  0.25229100  0.32786800  0.83844600  1
  Si  Si3  1  0.75217500  0.32252100  0.84237800  1
  Si  Si4  1  0.41754600  0.84128500  0.32039300  1
  Si  Si5  1  0.91368400  0.84035200  0.32363500  1
  Si  Si6  1  0.08022500  0.16466200  0.16215500  1
  Si  Si7  1  0.58405900  0.16574300  0.16341900  1
  Si  Si8  1  0.25229100  0.67213200  0.16155400  1
  Si  Si9  1  0.75217500  0.67747900  0.15762200  1
  Si  Si10  1  0.41754600  0.15871500  0.67960700  1
  Si  Si11  1  0.91368400  0.15964800  0.67636500  1
  Mo  Mo0  1  0.08224200  0.50000000  0.50000000  1
  Mo  Mo1  1  0.58440900  0.50000000  0.50000000  1
  Mo  Mo2  1  0.25014800  0.00000000  0.50000000  1
loop_
_geom_bond_atom_site_label_1
_geom_bond_atom_site_label_2
_geom_bond_distance
_geom_bond_site_symmetry_2
Si0 Si11 2.508563 1_465
Si0 V2 2.510969 1_456
Si0 Si8 2.569388 1_556
Si0 Si6 2.612396 1_566
Si0 Si6 2.682399 1_556
Si0 Si6 2.705577 1_565
Si1 Si10 2.508653 1_565
Si1 Si9 2.520122 1_556
Si1 V1 2.525316 1_556
Si1 V0 2.526019 1_565
Si1 Si7 2.631138 1_566
Si1 Si7 2.673524 1_556
Si1 Si7 2.695283 1_565
Si2 V1 2.517555 1_556
Si2 Si6 2.569388 1_556
Si2 Si8 2.622322 1_546
Si2 Si8 2.667673 1_556
Si2 Si8 2.710280 1_555
Si3 V2 2.496988 1_556
Si3 Si7 2.520122 1_556
Si3 Si9 2.579660 1_546
Si3 V0 2.633302 1_556
Si3 V0 2.658051 1_555
Si3 Si9 2.680048 1_556
Si3 V0 2.709490 1_565
Si3 Si9 2.742268 1_555
Si4 Si8 2.501779 1_555
Si4 Si7 2.508653 1_565
Si4 V1 2.634433 1_565
Si4 V1 2.644913 1_555
Si4 V1 2.721017 1_556
Si5 Si9 2.462597 1_555
Si5 V0 2.504432 1_565
Si5 Si6 2.508563 1_665
Si5 V2 2.638130 1_565
Si5 V2 2.654105 1_555
Si5 V2 2.708156 1_556
Si6 V2 2.510969 1_455
Si7 V1 2.525316 1_555
Si7 V0 2.526019 1_555
Si8 V1 2.517555 1_555
Si9 V2 2.496988 1_555
Si9 V0 2.633302 1_564
Si9 V0 2.658051 1_565
Si9 V0 2.709490 1_555
Si10 Si2 2.501779 1_555
Si10 Si4 2.565597 1_546
Si10 V1 2.634433 1_546
Si10 V1 2.644913 1_556
Si10 Si4 2.706208 1_545
Si10 V1 2.721017 1_555
Si10 Si4 2.731009 1_555
Si11 Si3 2.462597 1_555
Si11 V0 2.504432 1_555
Si11 Si5 2.591594 1_546
Si11 V2 2.638130 1_546
Si11 V2 2.654105 1_556
Si11 Si5 2.687112 1_545
Si11 V2 2.708156 1_555
Si11 Si5 2.722839 1_555
Mo0 Si11 2.564517 1_455
Mo0 Si5 2.564517 1_455
Mo0 Si8 2.577522 1_555
Mo0 Si2 2.577522 1_555
Mo0 Si6 2.651339 1_556
Mo0 Si0 2.651339 1_554
Mo0 Si0 2.658271 1_545
Mo0 Si6 2.658271 1_565
Mo0 Si0 2.690658 1_555
Mo0 Si6 2.690658 1_555
Mo1 Si4 2.548209 1_555
Mo1 Si10 2.548209 1_555
Mo1 Si3 2.561056 1_555
Mo1 Si9 2.561056 1_555
Mo1 Si7 2.656224 1_556
Mo1 Si1 2.656224 1_554
Mo1 Si1 2.662387 1_545
Mo1 Si7 2.662387 1_565
Mo1 Si1 2.681162 1_555
Mo1 Si7 2.681162 1_555
Mo2 Si10 2.547427 1_555
Mo2 Si4 2.547427 1_545
Mo2 Si0 2.574904 1_545
Mo2 Si6 2.574904 1_555
Mo2 Si8 2.648889 1_546
Mo2 Si2 2.648889 1_554
Mo2 Si8 2.663354 1_545
Mo2 Si2 2.663354 1_555
Mo2 Si8 2.688029 1_555
Mo2 Si2 2.688029 1_545
