# generated using pymatgen
data_ScTl3F6
_symmetry_space_group_name_H-M   'P 1'
_cell_length_a   6.34323017
_cell_length_b   6.34323017
_cell_length_c   9.39503009
_cell_angle_alpha   90.00000000
_cell_angle_beta   90.00000000
_cell_angle_gamma   90.00000000
_symmetry_Int_Tables_number   1
_chemical_formula_structural   ScTl3F6
_chemical_formula_sum   'Sc2 Tl6 F12'
_cell_volume   378.02377638
_cell_formula_units_Z   2
loop_
 _symmetry_equiv_pos_site_id
 _symmetry_equiv_pos_as_xyz
  1  'x, y, z'
loop_
 _atom_site_type_symbol
 _atom_site_label
 _atom_site_symmetry_multiplicity
 _atom_site_fract_x
 _atom_site_fract_y
 _atom_site_fract_z
 _atom_site_occupancy
  Sc  Sc0  1  -0.00000000  0.00000000  -0.00000000  1
  Sc  Sc1  1  0.50000000  0.50000000  0.50000000  1
  Tl  Tl0  1  -0.00000000  0.50000000  0.25000000  1
  Tl  Tl1  1  -0.00000000  0.50000000  0.75000000  1
  Tl  Tl2  1  0.50000000  0.00000000  0.25000000  1
  Tl  Tl3  1  0.50000000  0.00000000  0.75000000  1
  Tl  Tl4  1  -0.00000000  0.00000000  0.50000000  1
  Tl  Tl5  1  0.50000000  0.50000000  -0.00000000  1
  F  F0  1  0.13006877  0.29144008  -0.00000000  1
  F  F1  1  0.86993123  0.70855992  0.00000000  1
  F  F2  1  0.70855992  0.13006877  0.00000000  1
  F  F3  1  0.36993123  0.79144008  0.50000000  1
  F  F4  1  0.29144008  0.86993123  0.00000000  1
  F  F5  1  0.63006877  0.20855992  0.50000000  1
  F  F6  1  0.79144008  0.63006877  0.50000000  1
  F  F7  1  0.20855992  0.36993123  0.50000000  1
  F  F8  1  -0.00000000  0.00000000  0.21577991  1
  F  F9  1  -0.00000000  0.00000000  0.78422009  1
  F  F10  1  0.50000000  0.50000000  0.28422009  1
  F  F11  1  0.50000000  0.50000000  0.71577991  1
loop_
_geom_bond_atom_site_label_1
_geom_bond_atom_site_label_2
_geom_bond_distance
_geom_bond_site_symmetry_2
F0 Sc0 2.024427 1_555
F0 Tl5 2.693793 1_555
F1 Sc0 2.024427 1_665
F1 Tl5 2.693793 1_555
F2 Sc0 2.024427 1_655
F2 Tl5 2.693793 1_555
F3 Sc1 2.024427 1_555
F3 Tl4 2.693793 1_565
F4 Sc0 2.024427 1_565
F4 Tl5 2.693793 1_555
F5 Sc1 2.024427 1_555
F5 Tl4 2.693793 1_655
F6 Sc1 2.024427 1_555
F6 Tl4 2.693793 1_665
F7 Sc1 2.024427 1_555
F7 Tl4 2.693793 1_555
F8 Sc0 2.027259 1_555
F8 Tl4 2.670256 1_555
F9 Sc0 2.027259 1_556
F9 Tl4 2.670256 1_555
F10 Sc1 2.027259 1_555
F10 Tl5 2.670256 1_555
F11 Sc1 2.027259 1_555
F11 Tl5 2.670256 1_556
