# generated using pymatgen
data_PuCoH24C4N6O13
_symmetry_space_group_name_H-M   'P 1'
_cell_length_a   8.27777300
_cell_length_b   8.55841971
_cell_length_c   14.60870188
_cell_angle_alpha   102.20258198
_cell_angle_beta   100.75694218
_cell_angle_gamma   107.32606511
_symmetry_Int_Tables_number   1
_chemical_formula_structural   PuCoH24C4N6O13
_chemical_formula_sum   'Pu2 Co2 H48 C8 N12 O26'
_cell_volume   930.47553183
_cell_formula_units_Z   2
loop_
 _symmetry_equiv_pos_site_id
 _symmetry_equiv_pos_as_xyz
  1  'x, y, z'
loop_
 _atom_site_type_symbol
 _atom_site_label
 _atom_site_symmetry_multiplicity
 _atom_site_fract_x
 _atom_site_fract_y
 _atom_site_fract_z
 _atom_site_occupancy
  Pu  Pu0  1  0.00474600  0.85229000  0.63548700  1
  Pu  Pu1  1  0.99525400  0.14771000  0.36451300  1
  Co  Co0  1  0.50000000  0.50000000  0.50000000  1
  Co  Co1  1  0.50000000  0.50000000  0.00000000  1
  H  H0  1  0.44311900  0.06312600  0.86190000  1
  H  H1  1  0.55688100  0.93687400  0.13810000  1
  H  H2  1  0.31097500  0.97640200  0.97074400  1
  H  H3  1  0.68902500  0.02359800  0.02925600  1
  H  H4  1  0.12461700  0.73521700  0.02828700  1
  H  H5  1  0.87538300  0.26478300  0.97171300  1
  H  H6  1  0.10155300  0.82164300  0.11232700  1
  H  H7  1  0.89844700  0.17835700  0.88767300  1
  H  H8  1  0.09278400  0.09436100  0.77112100  1
  H  H9  1  0.90721600  0.90563900  0.22887900  1
  H  H10  1  0.18779400  0.11609000  0.85255400  1
  H  H11  1  0.81220600  0.88391000  0.14744600  1
  H  H12  1  0.38253400  0.18103600  0.52660500  1
  H  H13  1  0.61746600  0.81896400  0.47339500  1
  H  H14  1  0.38694700  0.27744500  0.41630900  1
  H  H15  1  0.61305300  0.72255500  0.58369100  1
  H  H16  1  0.57363100  0.26645200  0.43662100  1
  H  H17  1  0.42636900  0.73354800  0.56337900  1
  H  H18  1  0.18561000  0.43415900  0.49120100  1
  H  H19  1  0.81439000  0.56584100  0.50879900  1
  H  H20  1  0.18725000  0.31422600  0.59437400  1
  H  H21  1  0.81275000  0.68577400  0.40562600  1
  H  H22  1  0.20771100  0.51961200  0.58220600  1
  H  H23  1  0.79229000  0.48038800  0.41779400  1
  H  H24  1  0.39679800  0.54122900  0.34988900  1
  H  H25  1  0.60320200  0.45877100  0.65011100  1
  H  H26  1  0.48955100  0.73047800  0.36113600  1
  H  H27  1  0.51044900  0.26952200  0.63886400  1
  H  H28  1  0.61442100  0.62717600  0.31529500  1
  H  H29  1  0.38557900  0.37282400  0.68470500  1
  H  H30  1  0.16676500  0.33870100  0.05039600  1
  H  H31  1  0.83323500  0.66129900  0.94960400  1
  H  H32  1  0.23497800  0.45213500  0.93419000  1
  H  H33  1  0.76502200  0.54786500  0.06581000  1
  H  H34  1  0.26899100  0.26906900  0.96660300  1
  H  H35  1  0.73100900  0.73093100  0.03339700  1
  H  H36  1  0.50695800  0.80130700  0.97946700  1
  H  H37  1  0.49304200  0.19869300  0.02053300  1
  H  H38  1  0.59925000  0.78885200  0.87082400  1
  H  H39  1  0.40075000  0.21114800  0.12917600  1
  H  H40  1  0.38105600  0.71118300  0.91582300  1
  H  H41  1  0.61894400  0.28881700  0.08417700  1
  H  H42  1  0.73409600  0.56493900  0.84106500  1
  H  H43  1  0.26590400  0.43506100  0.15893500  1
  H  H44  1  0.60876400  0.36101000  0.87407000  1
  H  H45  1  0.39123600  0.63899000  0.12593000  1
  H  H46  1  0.53460900  0.50957100  0.82502200  1
  H  H47  1  0.46539100  0.49042900  0.17497800  1
  C  C0  1  0.23454300  0.65592200  0.74616700  1
  C  C1  1  0.76545700  0.34407800  0.25383300  1
  C  C2  1  0.10789400  0.68258900  0.83117100  1
  C  C3  1  0.89210600  0.31741100  0.16882900  1
  C  C4  1  0.69997600  0.02120200  0.70700100  1
  C  C5  1  0.30002400  0.97879800  0.29299900  1
  C  C6  1  0.77336500  0.10704800  0.59511700  1
  C  C7  1  0.22663500  0.89295200  0.40488300  1
  N  N0  1  0.45730200  0.28188700  0.46622000  1
  N  N1  1  0.54269800  0.71811300  0.53378000  1
  N  N2  1  0.24078700  0.43563800  0.54775400  1
  N  N3  1  0.75921300  0.56436200  0.45224600  1
  N  N4  1  0.50330200  0.61362500  0.36714000  1
  N  N5  1  0.49669800  0.38637500  0.63286000  1
  N  N6  1  0.26662500  0.37659400  0.98660400  1
  N  N7  1  0.73337500  0.62340600  0.01339600  1
  N  N8  1  0.49722300  0.72424700  0.93416300  1
  N  N9  1  0.50277700  0.27575300  0.06583700  1
  N  N10  1  0.60632800  0.48088300  0.87112700  1
  N  N11  1  0.39367200  0.51911700  0.12887300  1
  O  O0  1  0.83815700  0.65727900  0.63071100  1
  O  O1  1  0.16184300  0.34272100  0.36928900  1
  O  O2  1  0.16654600  0.04982000  0.64210200  1
  O  O3  1  0.83345400  0.95018000  0.35789800  1
  O  O4  1  0.20689700  0.69960700  0.66280100  1
  O  O5  1  0.79310300  0.30039300  0.33719900  1
  O  O6  1  0.98047600  0.72562400  0.81107200  1
  O  O7  1  0.01952400  0.27437600  0.18892800  1
  O  O8  1  0.34825000  0.59500900  0.76304900  1
  O  O9  1  0.65175000  0.40499100  0.23695100  1
  O  O10  1  0.13571100  0.65855300  0.91294000  1
  O  O11  1  0.86428900  0.34144700  0.08706000  1
  O  O12  1  0.76776400  0.91345600  0.74150400  1
  O  O13  1  0.23223600  0.08654400  0.25849600  1
  O  O14  1  0.87187300  0.03855900  0.54859700  1
  O  O15  1  0.12812700  0.96144100  0.45140300  1
  O  O16  1  0.58225500  0.06213900  0.75295500  1
  O  O17  1  0.41774500  0.93786100  0.24704500  1
  O  O18  1  0.73651400  0.22903200  0.55614800  1
  O  O19  1  0.26348600  0.77096800  0.44385200  1
  O  O20  1  0.36512700  0.08404200  0.91558900  1
  O  O21  1  0.63487300  0.91595800  0.08441100  1
  O  O22  1  0.19024400  0.79710700  0.06667100  1
  O  O23  1  0.80975600  0.20289300  0.93332900  1
  O  O24  1  0.10759900  0.15584600  0.82019500  1
  O  O25  1  0.89240100  0.84415400  0.17980500  1
loop_
_geom_bond_atom_site_label_1
_geom_bond_atom_site_label_2
_geom_bond_distance
_geom_bond_site_symmetry_2
Co0 N1 1.733645 1_555
Co0 N0 1.733645 1_555
Co1 N6 1.855256 1_554
Co1 N7 1.855256 1_555
H0 O20 1.123615 1_555
H1 O21 1.123615 1_555
H2 O20 1.378938 1_565
H3 O21 1.378938 1_545
H4 O22 0.692424 1_555
H4 O10 1.704306 1_554
H5 O23 0.692424 1_555
H5 O11 1.704306 1_556
H6 O22 1.115057 1_555
H7 O23 1.115057 1_555
H8 O24 0.758397 1_555
H9 O25 0.758397 1_555
H10 O24 0.930215 1_555
H10 O20 1.708801 1_555
H11 O25 0.930215 1_555
H11 O21 1.708801 1_555
H12 N0 1.453863 1_555
H13 N1 1.453863 1_555
H14 N0 0.829962 1_555
H15 N1 0.829962 1_555
H16 N0 1.157036 1_555
H17 N1 1.157036 1_555
H18 N2 0.861744 1_555
H19 N3 0.861744 1_555
H20 N2 1.370222 1_555
H21 N3 1.370222 1_555
H22 N2 0.927638 1_555
H22 O4 1.732557 1_555
H23 N3 0.927643 1_555
H23 O5 1.732554 1_555
H24 N4 0.866231 1_555
H25 N5 0.866231 1_555
H26 N4 1.059227 1_555
H27 N5 1.059227 1_555
H28 N4 1.291046 1_555
H29 N5 1.291046 1_555
H30 N6 1.382965 1_554
H31 N7 1.382965 1_556
H32 N6 1.143753 1_555
H33 N7 1.143753 1_555
H34 N6 0.912036 1_555
H35 N7 0.912036 1_555
H36 N8 0.802116 1_555
H36 O21 1.604254 1_556
H37 N9 0.802116 1_555
H37 O20 1.604254 1_554
H38 N8 1.450871 1_555
H39 N9 1.450871 1_555
H40 N8 0.914381 1_555
H41 N9 0.914381 1_555
H42 N10 1.297204 1_555
H43 N11 1.297204 1_555
H44 N10 1.041834 1_555
H45 N11 1.041834 1_555
H46 N10 0.934795 1_555
H47 N11 0.934795 1_555
C0 O8 1.215933 1_555
C0 O4 1.347133 1_555
C1 O9 1.215933 1_555
C1 O5 1.347133 1_555
C2 O6 1.223042 1_455
C2 O10 1.245663 1_555
C3 O7 1.223042 1_655
C3 O11 1.245663 1_555
C4 O12 1.348470 1_545
C4 O16 1.367896 1_555
C5 O13 1.348470 1_565
C5 O17 1.367896 1_555
C6 O14 1.339217 1_555
C6 O18 1.372282 1_555
C7 O15 1.339217 1_555
C7 O19 1.372282 1_555
O0 Pu0 1.798895 1_655
O1 Pu1 1.798895 1_455
O2 Pu0 1.787494 1_545
O3 Pu1 1.787494 1_565
O4 Pu0 2.437304 1_555
O5 Pu1 2.437304 1_555
