# generated using pymatgen
data_Li2VFeP2(HO5)2
_symmetry_space_group_name_H-M   'P 1'
_cell_length_a   6.96682935
_cell_length_b   7.39202942
_cell_length_c   7.98973414
_cell_angle_alpha   90.97522292
_cell_angle_beta   92.68691590
_cell_angle_gamma   116.98155399
_symmetry_Int_Tables_number   1
_chemical_formula_structural   Li2VFeP2(HO5)2
_chemical_formula_sum   'Li4 V2 Fe2 P4 H4 O20'
_cell_volume   365.93457335
_cell_formula_units_Z   2
loop_
 _symmetry_equiv_pos_site_id
 _symmetry_equiv_pos_as_xyz
  1  'x, y, z'
loop_
 _atom_site_type_symbol
 _atom_site_label
 _atom_site_symmetry_multiplicity
 _atom_site_fract_x
 _atom_site_fract_y
 _atom_site_fract_z
 _atom_site_occupancy
  Li  Li0  1  0.57015700  0.82433000  0.17507400  1
  Li  Li1  1  0.07024300  0.82445700  0.67507000  1
  Li  Li2  1  0.42985100  0.17567000  0.82491600  1
  Li  Li3  1  0.92974900  0.17552100  0.32493000  1
  V  V0  1  0.49995800  0.99997700  0.50000400  1
  V  V1  1  0.99997600  0.99998400  0.99997700  1
  Fe  Fe0  1  0.00010700  0.50003800  0.00011700  1
  Fe  Fe1  1  0.50005700  0.50018300  0.49999100  1
  P  P0  1  0.51877100  0.23205500  0.15746200  1
  P  P1  1  0.01872100  0.23208000  0.65745300  1
  P  P2  1  0.48122500  0.76794900  0.84253400  1
  P  P3  1  0.98127600  0.76793300  0.34253800  1
  H  H0  1  0.20984900  0.34076200  0.15033200  1
  H  H1  1  0.70984200  0.34076400  0.65022700  1
  H  H2  1  0.79015900  0.65919700  0.84966900  1
  H  H3  1  0.29012400  0.65922400  0.34975100  1
  O  O0  1  0.44241900  0.72286900  0.39527900  1
  O  O1  1  0.94245100  0.72288300  0.89521200  1
  O  O2  1  0.55755900  0.27715600  0.60468500  1
  O  O3  1  0.05755100  0.27709000  0.10479200  1
  O  O4  1  0.46504600  0.37977400  0.26142000  1
  O  O5  1  0.96505200  0.37979400  0.76146900  1
  O  O6  1  0.53493800  0.62023200  0.73856400  1
  O  O7  1  0.03496000  0.62020800  0.23854800  1
  O  O8  1  0.32340800  0.65939400  0.98009200  1
  O  O9  1  0.82341700  0.65946700  0.48006900  1
  O  O10  1  0.67660700  0.34058600  0.01990600  1
  O  O11  1  0.17657900  0.34052200  0.51990900  1
  O  O12  1  0.31253700  0.07274600  0.05839100  1
  O  O13  1  0.81254200  0.07272700  0.55830300  1
  O  O14  1  0.68744200  0.92722400  0.94162000  1
  O  O15  1  0.18743400  0.92723400  0.44170000  1
  O  O16  1  0.61193600  0.11808800  0.27337900  1
  O  O17  1  0.11193800  0.11808500  0.77336400  1
  O  O18  1  0.38805600  0.88190100  0.72662600  1
  O  O19  1  0.88806100  0.88189900  0.22662900  1
loop_
_geom_bond_atom_site_label_1
_geom_bond_atom_site_label_2
_geom_bond_distance
_geom_bond_site_symmetry_2
Li0 O0 2.008970 1_555
Li0 O19 2.075883 1_555
Li0 O14 2.086268 1_554
Li0 O8 2.156613 1_554
Li0 O16 2.182632 1_565
Li1 O1 2.008790 1_455
Li1 O18 2.075534 1_555
Li1 O15 2.085301 1_555
Li1 O9 2.157064 1_455
Li1 O17 2.181907 1_565
Li2 O2 2.009126 1_555
Li2 O17 2.075907 1_555
Li2 O12 2.086521 1_556
Li2 O10 2.156652 1_556
Li2 O18 2.182630 1_545
Li3 O3 2.008776 1_655
Li3 O16 2.075551 1_555
Li3 O13 2.085378 1_555
Li3 O11 2.156975 1_655
Li3 O19 2.181901 1_545
Fe0 O8 2.029550 1_554
Fe0 O10 2.030519 1_455
Fe0 O7 2.044595 1_555
Fe0 O5 2.046216 1_454
Fe0 O3 2.046863 1_555
Fe0 O1 2.047737 1_454
Fe1 O9 2.029742 1_555
Fe1 O11 2.030655 1_555
Fe1 O6 2.045288 1_555
Fe1 O0 2.045973 1_555
Fe1 O4 2.046133 1_555
Fe1 O2 2.047671 1_555
H0 O3 0.992235 1_555
H1 O2 0.992161 1_555
H2 O1 0.992206 1_555
H3 O0 0.992192 1_555
O0 V0 2.054706 1_555
O1 V1 2.054808 1_555
O2 V0 2.054926 1_545
O3 V1 2.054898 1_444
O4 P0 1.546436 1_555
O5 P1 1.546426 1_655
O6 P2 1.546426 1_555
O7 P3 1.546441 1_455
O8 P2 1.550299 1_555
O9 P3 1.550149 1_555
O10 P0 1.550318 1_555
O11 P1 1.550187 1_555
O12 P0 1.550494 1_555
O12 V1 2.020464 1_444
O13 P1 1.550674 1_655
O13 V0 2.020474 1_545
O14 P2 1.550399 1_555
O14 V1 2.020209 1_555
O15 P3 1.550509 1_455
O15 V0 2.020097 1_555
O16 P0 1.566883 1_555
O16 V0 2.053682 1_545
O17 P1 1.567235 1_555
O17 V1 2.053550 1_445
O18 P2 1.566777 1_555
O18 V0 2.053471 1_555
O19 P3 1.567060 1_555
O19 V1 2.053726 1_554
