# generated using pymatgen
data_Lu3Co11B4
_symmetry_space_group_name_H-M   'P 1'
_cell_length_a   4.98695413
_cell_length_b   4.98905253
_cell_length_c   9.78736600
_cell_angle_alpha   89.99963330
_cell_angle_beta   90.00073216
_cell_angle_gamma   119.98607943
_symmetry_Int_Tables_number   1
_chemical_formula_structural   Lu3Co11B4
_chemical_formula_sum   'Lu3 Co11 B4'
_cell_volume   210.91662525
_cell_formula_units_Z   1
loop_
 _symmetry_equiv_pos_site_id
 _symmetry_equiv_pos_as_xyz
  1  'x, y, z'
loop_
 _atom_site_type_symbol
 _atom_site_label
 _atom_site_symmetry_multiplicity
 _atom_site_fract_x
 _atom_site_fract_y
 _atom_site_fract_z
 _atom_site_occupancy
  Lu  Lu0  1  0.99998800  0.00000000  0.99999300  1
  Lu  Lu1  1  0.99999200  0.00000000  0.34129300  1
  Lu  Lu2  1  0.00000200  0.00000000  0.65861200  1
  Co  Co0  1  0.33335200  0.66675500  0.00009000  1
  Co  Co1  1  0.66659600  0.33324500  0.00009000  1
  Co  Co2  1  0.50000100  0.00000000  0.50002400  1
  Co  Co3  1  0.50000100  0.50000000  0.50002700  1
  Co  Co4  1  0.00000100  0.50000000  0.50002700  1
  Co  Co5  1  0.49999600  0.00000000  0.20154900  1
  Co  Co6  1  0.49998900  0.50000100  0.20156900  1
  Co  Co7  1  0.99998800  0.49999900  0.20156900  1
  Co  Co8  1  0.50000200  0.00000000  0.79853900  1
  Co  Co9  1  0.50000100  0.50000200  0.79852000  1
  Co  Co10  1  0.99999900  0.49999800  0.79852000  1
  B  B0  1  0.33325000  0.66651400  0.34944500  1
  B  B1  1  0.66673600  0.33348600  0.34944500  1
  B  B2  1  0.66675900  0.33351300  0.65034400  1
  B  B3  1  0.33324600  0.66648700  0.65034400  1
loop_
_geom_bond_atom_site_label_1
_geom_bond_atom_site_label_2
_geom_bond_distance
_geom_bond_site_symmetry_2
Co0 Co5 2.441621 1_565
Co0 Co7 2.441738 1_455
Co0 Co6 2.441781 1_555
Co0 Co8 2.442348 1_564
Co0 Co10 2.442404 1_454
Co0 Co9 2.442554 1_554
Co0 Lu0 2.879374 1_464
Co0 Lu0 2.879491 1_564
Co0 Lu0 2.881217 1_454
Co1 Co5 2.441621 1_555
Co1 Co6 2.441735 1_555
Co1 Co7 2.441784 1_555
Co1 Co8 2.442348 1_554
Co1 Co9 2.442401 1_554
Co1 Co10 2.442557 1_554
Co1 Lu0 2.879370 1_454
Co1 Lu0 2.879495 1_554
Co1 Lu0 2.881217 1_564
Co2 Lu2 2.937099 1_655
Co2 Lu2 2.937124 1_555
Co2 Lu1 2.937830 1_555
Co2 Lu1 2.937873 1_455
Co3 Lu2 2.937981 1_665
Co3 Lu2 2.937993 1_555
Co3 Lu1 2.938747 1_565
Co3 Lu1 2.938768 1_455
Co4 Lu2 2.937981 1_555
Co4 Lu2 2.937993 1_565
Co4 Lu1 2.938747 1_455
Co4 Lu1 2.938768 1_465
Co5 Lu1 2.843926 1_555
Co5 Lu1 2.843992 1_455
Co6 Lu1 2.844782 1_565
Co6 Lu1 2.844788 1_455
Co7 Lu1 2.844781 1_555
Co7 Lu1 2.844788 1_565
Co8 Lu2 2.844805 1_555
Co8 Lu2 2.844836 1_655
Co9 Lu2 2.845646 1_555
Co9 Lu2 2.845656 1_665
Co10 Lu2 2.845645 1_665
Co10 Lu2 2.845656 1_655
B0 Co6 2.041278 1_555
B0 Co7 2.041286 1_455
B0 Co5 2.042546 1_565
B0 Co4 2.060132 1_555
B0 Co3 2.060158 1_555
B0 Co2 2.061239 1_565
B0 Lu1 2.881055 1_565
B0 Lu1 2.881062 1_465
B0 Lu1 2.881280 1_455
B1 Co7 2.041278 1_555
B1 Co6 2.041286 1_555
B1 Co5 2.042546 1_555
B1 Co3 2.060132 1_555
B1 Co4 2.060158 1_655
B1 Co2 2.061239 1_555
B1 Lu1 2.881055 1_555
B1 Lu1 2.881062 1_455
B1 Lu1 2.881280 1_565
B2 Co10 2.043302 1_555
B2 Co9 2.043346 1_555
B2 Co8 2.044703 1_555
B2 Co3 2.058243 1_555
B2 Co4 2.058256 1_655
B2 Co2 2.059509 1_555
B2 Lu2 2.881145 1_655
B2 Lu2 2.881152 1_555
B2 Lu2 2.881195 1_665
B3 Co9 2.043302 1_555
B3 Co10 2.043346 1_455
B3 Co8 2.044703 1_565
B3 Co4 2.058243 1_555
B3 Co3 2.058256 1_555
B3 Co2 2.059509 1_565
B3 Lu2 2.881145 1_665
B3 Lu2 2.881151 1_565
B3 Lu2 2.881195 1_555
