# generated using pymatgen
data_Mg2TaAgO6
_symmetry_space_group_name_H-M   'P 1'
_cell_length_a   7.40607500
_cell_length_b   5.63893000
_cell_length_c   5.73935743
_cell_angle_alpha   76.91713553
_cell_angle_beta   90.00000000
_cell_angle_gamma   90.00000000
_symmetry_Int_Tables_number   1
_chemical_formula_structural   Mg2TaAgO6
_chemical_formula_sum   'Mg4 Ta2 Ag2 O12'
_cell_volume   233.46755071
_cell_formula_units_Z   2
loop_
 _symmetry_equiv_pos_site_id
 _symmetry_equiv_pos_as_xyz
  1  'x, y, z'
loop_
 _atom_site_type_symbol
 _atom_site_label
 _atom_site_symmetry_multiplicity
 _atom_site_fract_x
 _atom_site_fract_y
 _atom_site_fract_z
 _atom_site_occupancy
  Mg  Mg0  1  0.75000000  0.96092600  0.06991800  1
  Mg  Mg1  1  0.75000000  0.46962000  0.54316000  1
  Mg  Mg2  1  0.25000000  0.53038000  0.45684000  1
  Mg  Mg3  1  0.25000000  0.03907400  0.93008200  1
  Ta  Ta0  1  0.00000000  0.00000000  0.50000000  1
  Ta  Ta1  1  0.50000000  0.00000000  0.50000000  1
  Ag  Ag0  1  0.00000000  0.50000000  0.00000000  1
  Ag  Ag1  1  0.50000000  0.50000000  0.00000000  1
  O  O0  1  0.43897600  0.15122600  0.15570500  1
  O  O1  1  0.57325000  0.72108200  0.37335600  1
  O  O2  1  0.56102400  0.84877400  0.84429500  1
  O  O3  1  0.07325000  0.27891800  0.62664400  1
  O  O4  1  0.25000000  0.85296600  0.56114600  1
  O  O5  1  0.42675000  0.27891800  0.62664400  1
  O  O6  1  0.92675000  0.72108200  0.37335600  1
  O  O7  1  0.06102400  0.15122600  0.15570500  1
  O  O8  1  0.75000000  0.36239300  0.90868400  1
  O  O9  1  0.93897600  0.84877400  0.84429500  1
  O  O10  1  0.25000000  0.63760700  0.09131600  1
  O  O11  1  0.75000000  0.14703400  0.43885400  1
loop_
_geom_bond_atom_site_label_1
_geom_bond_atom_site_label_2
_geom_bond_distance
_geom_bond_site_symmetry_2
Mg0 O2 2.099129 1_554
Mg0 O9 2.099129 1_554
Mg0 O8 2.243414 1_564
Mg0 O6 2.347198 1_555
Mg0 O1 2.347198 1_555
Mg0 O11 2.567291 1_565
Mg0 O7 2.634216 1_665
Mg0 O0 2.634216 1_565
Mg1 O6 2.012054 1_555
Mg1 O1 2.012054 1_555
Mg1 O11 2.039678 1_555
Mg1 O8 2.047536 1_555
Mg1 O5 2.623739 1_555
Mg1 O3 2.623739 1_655
Mg2 O3 2.012054 1_555
Mg2 O5 2.012054 1_555
Mg2 O4 2.039678 1_555
Mg2 O10 2.047536 1_555
Mg2 O1 2.623739 1_555
Mg2 O6 2.623739 1_455
Mg3 O7 2.099129 1_556
Mg3 O0 2.099129 1_556
Mg3 O10 2.243414 1_546
Mg3 O5 2.347198 1_555
Mg3 O3 2.347198 1_555
Mg3 O4 2.567291 1_545
Mg3 O2 2.634216 1_545
Mg3 O9 2.634216 1_445
Ag0 O9 2.018698 1_454
Ag0 O7 2.018698 1_555
Ag0 O10 2.118730 1_555
Ag0 O8 2.118730 1_454
Ag0 O6 2.765784 1_455
Ag0 O3 2.765784 1_554
Ag1 O0 2.018698 1_555
Ag1 O2 2.018698 1_554
Ag1 O8 2.118730 1_554
Ag1 O10 2.118730 1_555
Ag1 O5 2.765784 1_554
Ag1 O1 2.765784 1_555
O0 Ta1 2.018238 1_555
O1 Ta1 1.952912 1_565
O2 Ta1 2.018238 1_565
O3 Ta0 1.952912 1_555
O4 Ta1 2.026569 1_565
O4 Ta0 2.026569 1_565
O5 Ta1 1.952912 1_555
O6 Ta0 1.952912 1_665
O7 Ta0 2.018238 1_555
O9 Ta0 2.018238 1_665
O11 Ta1 2.026569 1_555
O11 Ta0 2.026569 1_655
