# generated using pymatgen
data_Mn5SiB2
_symmetry_space_group_name_H-M   'P 1'
_cell_length_a   5.55864100
_cell_length_b   5.55864100
_cell_length_c   6.49026510
_cell_angle_alpha   115.35522305
_cell_angle_beta   115.35522305
_cell_angle_gamma   90.00000000
_symmetry_Int_Tables_number   1
_chemical_formula_structural   Mn5SiB2
_chemical_formula_sum   'Mn10 Si2 B4'
_cell_volume   159.58195537
_cell_formula_units_Z   2
loop_
 _symmetry_equiv_pos_site_id
 _symmetry_equiv_pos_as_xyz
  1  'x, y, z'
loop_
 _atom_site_type_symbol
 _atom_site_label
 _atom_site_symmetry_multiplicity
 _atom_site_fract_x
 _atom_site_fract_y
 _atom_site_fract_z
 _atom_site_occupancy
  Mn  Mn0  1  0.50000000  0.50000000  0.00000000  1
  Mn  Mn1  1  0.00000000  0.00000000  0.00000000  1
  Mn  Mn2  1  0.02967500  0.52967500  0.72580800  1
  Mn  Mn3  1  0.69613300  0.19613300  0.72580800  1
  Mn  Mn4  1  0.19613300  0.02967500  0.72580800  1
  Mn  Mn5  1  0.52967500  0.69613300  0.72580800  1
  Mn  Mn6  1  0.97032500  0.47032500  0.27419200  1
  Mn  Mn7  1  0.30386700  0.80386700  0.27419200  1
  Mn  Mn8  1  0.80386700  0.97032500  0.27419200  1
  Mn  Mn9  1  0.47032500  0.30386700  0.27419200  1
  Si  Si0  1  0.25000000  0.25000000  0.50000000  1
  Si  Si1  1  0.75000000  0.75000000  0.50000000  1
  B  B0  1  0.37900500  0.87900500  0.00000000  1
  B  B1  1  0.62099500  0.12099500  0.00000000  1
  B  B2  1  0.12099500  0.37900500  0.00000000  1
  B  B3  1  0.87900500  0.62099500  0.00000000  1
loop_
_geom_bond_atom_site_label_1
_geom_bond_atom_site_label_2
_geom_bond_distance
_geom_bond_site_symmetry_2
Mn0 Si1 2.582359 1_555
Mn0 Si0 2.582359 1_554
Mn1 Si0 2.582359 1_555
Mn1 Si1 2.582359 1_444
Mn2 Si1 2.377075 1_455
Mn2 Si0 2.377075 1_555
Mn3 Si1 2.377075 1_545
Mn3 Si0 2.377075 1_555
Mn4 Si0 2.377075 1_555
Mn4 Si1 2.377075 1_445
Mn5 Si1 2.377075 1_555
Mn5 Si0 2.377075 1_555
Mn6 Si1 2.377075 1_555
Mn6 Si0 2.377075 1_655
Mn7 Si0 2.377075 1_565
Mn7 Si1 2.377075 1_555
Mn8 Si1 2.377075 1_555
Mn8 Si0 2.377075 1_665
Mn9 Si0 2.377075 1_555
Mn9 Si1 2.377075 1_555
B0 B1 1.902309 1_565
B0 Mn4 2.151473 1_564
B0 Mn5 2.151473 1_554
B0 Mn9 2.151473 1_565
B0 Mn8 2.151473 1_555
B0 Mn7 2.188366 1_555
B0 Mn2 2.188366 1_554
B0 Mn0 2.211505 1_555
B0 Mn1 2.211505 1_565
B1 Mn9 2.151473 1_555
B1 Mn8 2.151473 1_545
B1 Mn4 2.151473 1_554
B1 Mn5 2.151473 1_544
B1 Mn3 2.188366 1_554
B1 Mn6 2.188366 1_555
B1 Mn0 2.211505 1_555
B1 Mn1 2.211505 1_655
B2 B3 1.902309 1_455
B2 Mn2 2.151473 1_554
B2 Mn6 2.151473 1_455
B2 Mn3 2.151473 1_454
B2 Mn7 2.151473 1_555
B2 Mn9 2.188366 1_555
B2 Mn4 2.188366 1_554
B2 Mn0 2.211505 1_555
B2 Mn1 2.211505 1_555
B3 Mn2 2.151473 1_654
B3 Mn6 2.151473 1_555
B3 Mn3 2.151473 1_554
B3 Mn7 2.151473 1_655
B3 Mn5 2.188366 1_554
B3 Mn8 2.188366 1_555
B3 Mn0 2.211505 1_555
B3 Mn1 2.211505 1_665
