# generated using pymatgen
data_BaAl4O7
_symmetry_space_group_name_H-M   'P 1'
_cell_length_a   4.98027500
_cell_length_b   10.41318700
_cell_length_c   13.14671500
_cell_angle_alpha   90.00000000
_cell_angle_beta   90.00000000
_cell_angle_gamma   90.00000000
_symmetry_Int_Tables_number   1
_chemical_formula_structural   BaAl4O7
_chemical_formula_sum   'Ba4 Al16 O28'
_cell_volume   681.79567190
_cell_formula_units_Z   4
loop_
 _symmetry_equiv_pos_site_id
 _symmetry_equiv_pos_as_xyz
  1  'x, y, z'
loop_
 _atom_site_type_symbol
 _atom_site_label
 _atom_site_symmetry_multiplicity
 _atom_site_fract_x
 _atom_site_fract_y
 _atom_site_fract_z
 _atom_site_occupancy
  Ba  Ba0  1  0.79254600  0.82345400  0.75000000  1
  Ba  Ba1  1  0.70745400  0.32345400  0.75000000  1
  Ba  Ba2  1  0.20745400  0.17654600  0.25000000  1
  Ba  Ba3  1  0.29254600  0.67654600  0.25000000  1
  Al  Al0  1  0.70536400  0.65876600  0.49824800  1
  Al  Al1  1  0.70536400  0.65876600  0.00175200  1
  Al  Al2  1  0.79463600  0.15876600  0.00175200  1
  Al  Al3  1  0.79463600  0.15876600  0.49824800  1
  Al  Al4  1  0.20536400  0.84123400  0.50175200  1
  Al  Al5  1  0.20536400  0.84123400  0.99824800  1
  Al  Al6  1  0.29463600  0.34123400  0.99824800  1
  Al  Al7  1  0.29463600  0.34123400  0.50175200  1
  Al  Al8  1  0.71375100  0.90912300  0.36861900  1
  Al  Al9  1  0.71375100  0.90912300  0.13138100  1
  Al  Al10  1  0.78624900  0.40912300  0.13138100  1
  Al  Al11  1  0.78624900  0.40912300  0.36861900  1
  Al  Al12  1  0.21375100  0.59087700  0.63138100  1
  Al  Al13  1  0.21375100  0.59087700  0.86861900  1
  Al  Al14  1  0.28624900  0.09087700  0.86861900  1
  Al  Al15  1  0.28624900  0.09087700  0.63138100  1
  O  O0  1  0.28957600  0.65922100  0.75000000  1
  O  O1  1  0.21042400  0.15922100  0.75000000  1
  O  O2  1  0.78957600  0.84077900  0.25000000  1
  O  O3  1  0.71042400  0.34077900  0.25000000  1
  O  O4  1  0.86484900  0.61378600  0.61123700  1
  O  O5  1  0.86484900  0.61378600  0.88876300  1
  O  O6  1  0.63515100  0.11378600  0.88876300  1
  O  O7  1  0.63515100  0.11378600  0.61123700  1
  O  O8  1  0.36676400  0.69422500  0.53561300  1
  O  O9  1  0.36676400  0.69422500  0.96438700  1
  O  O10  1  0.13323600  0.19422500  0.96438700  1
  O  O11  1  0.13323600  0.19422500  0.53561300  1
  O  O12  1  0.36484900  0.88621400  0.38876300  1
  O  O13  1  0.36484900  0.88621400  0.11123700  1
  O  O14  1  0.13515100  0.38621400  0.11123700  1
  O  O15  1  0.13515100  0.38621400  0.38876300  1
  O  O16  1  0.68856800  0.56925200  0.38608100  1
  O  O17  1  0.68856800  0.56925200  0.11391900  1
  O  O18  1  0.81143200  0.06925200  0.11391900  1
  O  O19  1  0.81143200  0.06925200  0.38608100  1
  O  O20  1  0.18856800  0.93074800  0.61391900  1
  O  O21  1  0.18856800  0.93074800  0.88608100  1
  O  O22  1  0.31143200  0.43074800  0.88608100  1
  O  O23  1  0.31143200  0.43074800  0.61391900  1
  O  O24  1  0.86676400  0.80577500  0.46438700  1
  O  O25  1  0.86676400  0.80577500  0.03561300  1
  O  O26  1  0.63323600  0.30577500  0.03561300  1
  O  O27  1  0.63323600  0.30577500  0.46438700  1
loop_
_geom_bond_atom_site_label_1
_geom_bond_atom_site_label_2
_geom_bond_distance
_geom_bond_site_symmetry_2
Ba0 O5 2.867840 1_555
Ba0 O4 2.867840 1_555
Ba0 O20 2.887706 1_655
Ba0 O21 2.887706 1_655
Ba0 O0 3.008668 1_655
Ba0 O0 3.033054 1_555
Ba1 O7 2.867840 1_555
Ba1 O6 2.867840 1_555
Ba1 O23 2.887706 1_555
Ba1 O22 2.887706 1_555
Ba1 O1 3.008668 1_555
Ba1 O1 3.033054 1_655
Ba2 O14 2.867840 1_555
Ba2 O15 2.867840 1_555
Ba2 O18 2.887706 1_455
Ba2 O19 2.887706 1_455
Ba2 O3 3.008668 1_455
Ba2 O3 3.033054 1_555
Ba3 O13 2.867840 1_555
Ba3 O12 2.867840 1_555
Ba3 O17 2.887706 1_555
Ba3 O16 2.887706 1_555
Ba3 O2 3.008668 1_555
Ba3 O2 3.033054 1_455
Al0 O16 1.746534 1_555
Al0 O4 1.748365 1_555
Al0 O24 1.785423 1_555
Al0 O8 1.794804 1_555
Al1 O17 1.746534 1_555
Al1 O5 1.748365 1_554
Al1 O25 1.785423 1_555
Al1 O9 1.794804 1_554
Al2 O18 1.746534 1_555
Al2 O6 1.748365 1_554
Al2 O26 1.785423 1_555
Al2 O10 1.794804 1_654
Al3 O19 1.746534 1_555
Al3 O7 1.748365 1_555
Al3 O27 1.785423 1_555
Al3 O11 1.794804 1_655
Al4 O20 1.746534 1_555
Al4 O12 1.748365 1_555
Al4 O8 1.785423 1_555
Al4 O24 1.794804 1_455
Al5 O21 1.746534 1_555
Al5 O13 1.748365 1_556
Al5 O9 1.785423 1_555
Al5 O25 1.794804 1_456
Al6 O22 1.746534 1_555
Al6 O14 1.748365 1_556
Al6 O10 1.785423 1_555
Al6 O26 1.794804 1_556
Al7 O23 1.746534 1_555
Al7 O15 1.748365 1_555
Al7 O11 1.785423 1_555
Al7 O27 1.794804 1_555
Al8 O19 1.752074 1_565
Al8 O2 1.755271 1_555
Al8 O12 1.773808 1_555
Al8 O24 1.823198 1_555
Al9 O18 1.752074 1_565
Al9 O2 1.755271 1_555
Al9 O13 1.773808 1_555
Al9 O25 1.823198 1_555
Al10 O17 1.752074 1_555
Al10 O3 1.755271 1_555
Al10 O14 1.773808 1_655
Al10 O26 1.823198 1_555
Al11 O16 1.752074 1_555
Al11 O3 1.755271 1_555
Al11 O15 1.773808 1_655
Al11 O27 1.823198 1_555
Al12 O23 1.752074 1_555
Al12 O0 1.755271 1_555
Al12 O4 1.773808 1_455
Al12 O8 1.823198 1_555
Al13 O22 1.752074 1_555
Al13 O0 1.755271 1_555
Al13 O5 1.773808 1_455
Al13 O9 1.823198 1_555
Al14 O21 1.752074 1_545
Al14 O1 1.755271 1_555
Al14 O6 1.773808 1_555
Al14 O10 1.823198 1_555
Al15 O20 1.752074 1_545
Al15 O1 1.755271 1_555
Al15 O7 1.773808 1_555
Al15 O11 1.823198 1_555
