# generated using pymatgen
data_Dy6Fe23
_symmetry_space_group_name_H-M   'P 1'
_cell_length_a   8.50929755
_cell_length_b   8.50929755
_cell_length_c   8.50929755
_cell_angle_alpha   60.00000000
_cell_angle_beta   60.00000000
_cell_angle_gamma   60.00000000
_symmetry_Int_Tables_number   1
_chemical_formula_structural   Dy6Fe23
_chemical_formula_sum   'Dy6 Fe23'
_cell_volume   435.67850377
_cell_formula_units_Z   1
loop_
 _symmetry_equiv_pos_site_id
 _symmetry_equiv_pos_as_xyz
  1  'x, y, z'
loop_
 _atom_site_type_symbol
 _atom_site_label
 _atom_site_symmetry_multiplicity
 _atom_site_fract_x
 _atom_site_fract_y
 _atom_site_fract_z
 _atom_site_occupancy
  Dy  Dy0  1  0.71024600  0.71024600  0.28975400  1
  Dy  Dy1  1  0.28975400  0.71024600  0.28975400  1
  Dy  Dy2  1  0.71024600  0.28975400  0.28975400  1
  Dy  Dy3  1  0.28975400  0.28975400  0.71024600  1
  Dy  Dy4  1  0.71024600  0.28975400  0.71024600  1
  Dy  Dy5  1  0.28975400  0.71024600  0.71024600  1
  Fe  Fe0  1  0.00000000  0.00000000  0.00000000  1
  Fe  Fe1  1  0.00000000  0.00000000  0.50000000  1
  Fe  Fe2  1  0.50000000  0.00000000  0.50000000  1
  Fe  Fe3  1  0.00000000  0.50000000  0.50000000  1
  Fe  Fe4  1  0.50000000  0.50000000  0.00000000  1
  Fe  Fe5  1  0.00000000  0.50000000  0.00000000  1
  Fe  Fe6  1  0.50000000  0.00000000  0.00000000  1
  Fe  Fe7  1  0.87835900  0.87835900  0.36492300  1
  Fe  Fe8  1  0.87835900  0.36492300  0.87835900  1
  Fe  Fe9  1  0.36492300  0.87835900  0.87835900  1
  Fe  Fe10  1  0.87835900  0.87835900  0.87835900  1
  Fe  Fe11  1  0.12164100  0.12164100  0.63507700  1
  Fe  Fe12  1  0.12164100  0.63507700  0.12164100  1
  Fe  Fe13  1  0.63507700  0.12164100  0.12164100  1
  Fe  Fe14  1  0.12164100  0.12164100  0.12164100  1
  Fe  Fe15  1  0.67575400  0.67575400  0.97273800  1
  Fe  Fe16  1  0.67575400  0.97273800  0.67575400  1
  Fe  Fe17  1  0.97273800  0.67575400  0.67575400  1
  Fe  Fe18  1  0.67575400  0.67575400  0.67575400  1
  Fe  Fe19  1  0.32424600  0.32424600  0.02726200  1
  Fe  Fe20  1  0.32424600  0.02726200  0.32424600  1
  Fe  Fe21  1  0.02726200  0.32424600  0.32424600  1
  Fe  Fe22  1  0.32424600  0.32424600  0.32424600  1
loop_
_geom_bond_atom_site_label_1
_geom_bond_atom_site_label_2
_geom_bond_distance
_geom_bond_site_symmetry_2
Dy0 Fe12 2.894539 1_655
Dy0 Fe13 2.894539 1_565
Dy0 Fe7 2.894539 1_555
Dy0 Fe10 2.894539 1_554
Dy0 Fe18 3.019749 1_555
Dy0 Fe20 3.019749 1_565
Dy0 Fe21 3.019749 1_655
Dy0 Fe15 3.019749 1_554
Dy0 Fe3 3.046290 1_655
Dy0 Fe2 3.046290 1_565
Dy0 Fe5 3.046290 1_655
Dy0 Fe6 3.046290 1_565
Dy1 Fe14 2.894539 1_565
Dy1 Fe9 2.894539 1_554
Dy1 Fe7 2.894539 1_455
Dy1 Fe12 2.894539 1_555
Dy1 Fe20 3.019749 1_565
Dy1 Fe15 3.019749 1_554
Dy1 Fe17 3.019749 1_455
Dy1 Fe22 3.019749 1_555
Dy1 Fe1 3.046290 1_565
Dy1 Fe6 3.046290 1_565
Dy1 Fe3 3.046290 1_555
Dy1 Fe4 3.046290 1_555
Dy2 Fe14 2.894539 1_655
Dy2 Fe7 2.894539 1_545
Dy2 Fe13 2.894539 1_555
Dy2 Fe8 2.894539 1_554
Dy2 Fe21 3.019749 1_655
Dy2 Fe16 3.019749 1_545
Dy2 Fe15 3.019749 1_554
Dy2 Fe22 3.019749 1_555
Dy2 Fe1 3.046290 1_655
Dy2 Fe5 3.046290 1_655
Dy2 Fe2 3.046290 1_555
Dy2 Fe4 3.046290 1_555
Dy3 Fe14 2.894539 1_556
Dy3 Fe9 2.894539 1_545
Dy3 Fe8 2.894539 1_455
Dy3 Fe11 2.894539 1_555
Dy3 Fe19 3.019749 1_556
Dy3 Fe17 3.019749 1_455
Dy3 Fe16 3.019749 1_545
Dy3 Fe22 3.019749 1_555
Dy3 Fe6 3.046290 1_556
Dy3 Fe5 3.046290 1_556
Dy3 Fe2 3.046290 1_555
Dy3 Fe3 3.046290 1_555
Dy4 Fe13 2.894539 1_556
Dy4 Fe8 2.894539 1_555
Dy4 Fe11 2.894539 1_655
Dy4 Fe10 2.894539 1_545
Dy4 Fe18 3.019749 1_555
Dy4 Fe21 3.019749 1_655
Dy4 Fe19 3.019749 1_556
Dy4 Fe16 3.019749 1_545
Dy4 Fe3 3.046290 1_655
Dy4 Fe4 3.046290 1_556
Dy4 Fe1 3.046290 1_655
Dy4 Fe6 3.046290 1_556
Dy5 Fe11 2.894539 1_565
Dy5 Fe9 2.894539 1_555
Dy5 Fe12 2.894539 1_556
Dy5 Fe10 2.894539 1_455
Dy5 Fe18 3.019749 1_555
Dy5 Fe19 3.019749 1_556
Dy5 Fe20 3.019749 1_565
Dy5 Fe17 3.019749 1_455
Dy5 Fe2 3.046290 1_565
Dy5 Fe4 3.046290 1_556
Dy5 Fe1 3.046290 1_565
Dy5 Fe5 3.046290 1_556
Fe0 Fe8 2.535417 1_454
Fe0 Fe13 2.535417 1_455
Fe0 Fe12 2.535417 1_545
Fe0 Fe9 2.535417 1_544
Fe0 Fe10 2.535417 1_444
Fe0 Fe14 2.535417 1_555
Fe0 Fe11 2.535417 1_554
Fe0 Fe7 2.535417 1_445
Fe1 Fe20 2.463714 1_555
Fe1 Fe21 2.463714 1_555
Fe1 Fe17 2.463714 1_445
Fe1 Fe16 2.463714 1_445
Fe1 Fe14 2.629596 1_555
Fe1 Fe11 2.629596 1_555
Fe1 Fe10 2.629596 1_445
Fe1 Fe7 2.629596 1_445
Fe2 Fe22 2.463714 1_555
Fe2 Fe20 2.463714 1_555
Fe2 Fe7 2.629596 1_545
Fe2 Fe9 2.629596 1_545
Fe3 Fe7 2.629596 1_455
Fe3 Fe8 2.629596 1_455
Fe4 Fe8 2.629596 1_554
Fe4 Fe9 2.629596 1_554
Fe5 Fe8 2.629596 1_454
Fe6 Fe9 2.629596 1_544
Fe10 Fe16 2.606269 1_555
Fe10 Fe17 2.606269 1_555
Fe10 Fe15 2.606269 1_555
Fe10 Fe5 2.629596 1_656
Fe10 Fe6 2.629596 1_566
Fe10 Fe12 2.927647 1_656
Fe10 Fe13 2.927647 1_566
Fe10 Fe11 2.927647 1_665
Fe11 Fe22 2.606269 1_555
Fe11 Fe20 2.606269 1_555
Fe11 Fe21 2.606269 1_555
Fe11 Fe3 2.629596 1_555
Fe11 Fe2 2.629596 1_555
Fe11 Fe8 2.927647 1_455
Fe11 Fe9 2.927647 1_545
Fe12 Fe19 2.606269 1_555
Fe12 Fe22 2.606269 1_555
Fe12 Fe21 2.606269 1_555
Fe12 Fe5 2.629596 1_555
Fe12 Fe3 2.629596 1_555
Fe12 Fe4 2.629596 1_555
Fe12 Fe9 2.927647 1_554
Fe12 Fe7 2.927647 1_455
Fe13 Fe20 2.606269 1_555
Fe13 Fe19 2.606269 1_555
Fe13 Fe22 2.606269 1_555
Fe13 Fe6 2.629596 1_555
Fe13 Fe4 2.629596 1_555
Fe13 Fe2 2.629596 1_555
Fe13 Fe7 2.927647 1_545
Fe13 Fe8 2.927647 1_554
Fe14 Fe20 2.606269 1_555
Fe14 Fe19 2.606269 1_555
Fe14 Fe21 2.606269 1_555
Fe14 Fe6 2.629596 1_555
Fe14 Fe5 2.629596 1_555
Fe14 Fe7 2.927647 1_445
Fe14 Fe8 2.927647 1_454
Fe14 Fe9 2.927647 1_544
Fe15 Fe4 2.463714 1_556
Fe15 Fe6 2.463714 1_566
Fe15 Fe5 2.463714 1_656
Fe15 Fe18 2.527125 1_555
Fe15 Fe16 2.527125 1_555
Fe15 Fe17 2.527125 1_555
Fe15 Fe8 2.606269 1_555
Fe15 Fe9 2.606269 1_555
Fe16 Fe2 2.463714 1_565
Fe16 Fe6 2.463714 1_566
Fe16 Fe18 2.527125 1_555
Fe16 Fe17 2.527125 1_555
Fe16 Fe7 2.606269 1_555
Fe16 Fe9 2.606269 1_555
Fe17 Fe3 2.463714 1_655
Fe17 Fe5 2.463714 1_656
Fe17 Fe18 2.527125 1_555
Fe17 Fe8 2.606269 1_555
Fe17 Fe7 2.606269 1_555
Fe18 Fe3 2.463714 1_655
Fe18 Fe2 2.463714 1_565
Fe18 Fe4 2.463714 1_556
Fe18 Fe8 2.606269 1_555
Fe18 Fe9 2.606269 1_555
Fe18 Fe7 2.606269 1_555
Fe19 Fe5 2.463714 1_555
Fe19 Fe6 2.463714 1_555
Fe19 Fe4 2.463714 1_555
Fe19 Fe22 2.527125 1_555
Fe19 Fe20 2.527125 1_555
Fe19 Fe21 2.527125 1_555
Fe20 Fe6 2.463714 1_555
Fe20 Fe22 2.527125 1_555
Fe20 Fe21 2.527125 1_555
Fe21 Fe5 2.463714 1_555
Fe21 Fe3 2.463714 1_555
Fe21 Fe22 2.527125 1_555
Fe22 Fe3 2.463714 1_555
Fe22 Fe4 2.463714 1_555
