# generated using pymatgen
data_Ba6Ho2Ga4O15
_symmetry_space_group_name_H-M   'P 1'
_cell_length_a   6.03235900
_cell_length_b   8.04465200
_cell_length_c   18.63506328
_cell_angle_alpha   88.65985598
_cell_angle_beta   90.00000000
_cell_angle_gamma   90.00000000
_symmetry_Int_Tables_number   1
_chemical_formula_structural   Ba6Ho2Ga4O15
_chemical_formula_sum   'Ba12 Ho4 Ga8 O30'
_cell_volume   904.07925434
_cell_formula_units_Z   2
loop_
 _symmetry_equiv_pos_site_id
 _symmetry_equiv_pos_as_xyz
  1  'x, y, z'
loop_
 _atom_site_type_symbol
 _atom_site_label
 _atom_site_symmetry_multiplicity
 _atom_site_fract_x
 _atom_site_fract_y
 _atom_site_fract_z
 _atom_site_occupancy
  Ba  Ba0  1  0.75613800  0.49864900  0.07848200  1
  Ba  Ba1  1  0.24386200  0.50135100  0.92151800  1
  Ba  Ba2  1  0.75613800  0.50135100  0.42151800  1
  Ba  Ba3  1  0.24386200  0.49864900  0.57848200  1
  Ba  Ba4  1  0.74486700  0.97203000  0.08956900  1
  Ba  Ba5  1  0.25513300  0.02797000  0.91043100  1
  Ba  Ba6  1  0.74486700  0.02797000  0.41043100  1
  Ba  Ba7  1  0.25513300  0.97203000  0.58956900  1
  Ba  Ba8  1  0.72211700  0.00000000  0.75000000  1
  Ba  Ba9  1  0.27788300  0.00000000  0.25000000  1
  Ba  Ba10  1  0.66790600  0.50000000  0.75000000  1
  Ba  Ba11  1  0.33209400  0.50000000  0.25000000  1
  Ho  Ho0  1  0.74495200  0.75140900  0.91017300  1
  Ho  Ho1  1  0.25504800  0.24859100  0.08982700  1
  Ho  Ho2  1  0.74495200  0.24859100  0.58982700  1
  Ho  Ho3  1  0.25504800  0.75140900  0.41017300  1
  Ga  Ga0  1  0.75078800  0.75373300  0.55842300  1
  Ga  Ga1  1  0.24921200  0.24626700  0.44157700  1
  Ga  Ga2  1  0.75078800  0.24626700  0.94157700  1
  Ga  Ga3  1  0.24921200  0.75373300  0.05842300  1
  Ga  Ga4  1  0.77509900  0.77018300  0.26641700  1
  Ga  Ga5  1  0.22490100  0.22981700  0.73358300  1
  Ga  Ga6  1  0.77509900  0.22981700  0.23358300  1
  Ga  Ga7  1  0.22490100  0.77018300  0.76641700  1
  O  O0  1  0.20577700  0.00000000  0.75000000  1
  O  O1  1  0.79422300  0.00000000  0.25000000  1
  O  O2  1  0.50373500  0.76493900  0.99981800  1
  O  O3  1  0.49626500  0.23506100  0.00018200  1
  O  O4  1  0.50373500  0.23506100  0.50018200  1
  O  O5  1  0.49626500  0.76493900  0.49981800  1
  O  O6  1  0.76087400  0.95379900  0.60796200  1
  O  O7  1  0.23912600  0.04620100  0.39203800  1
  O  O8  1  0.76087400  0.04620100  0.89203800  1
  O  O9  1  0.23912600  0.95379900  0.10796200  1
  O  O10  1  0.00348700  0.76340400  0.99462300  1
  O  O11  1  0.99651300  0.23659600  0.00537700  1
  O  O12  1  0.00348700  0.23659600  0.50537700  1
  O  O13  1  0.99651300  0.76340400  0.49462300  1
  O  O14  1  0.32582000  0.68846100  0.68211600  1
  O  O15  1  0.67418000  0.31153900  0.31788400  1
  O  O16  1  0.32582000  0.31153900  0.81788400  1
  O  O17  1  0.67418000  0.68846100  0.18211600  1
  O  O18  1  0.45212700  0.74920500  0.83592700  1
  O  O19  1  0.54787300  0.25079500  0.16407300  1
  O  O20  1  0.45212700  0.25079500  0.66407300  1
  O  O21  1  0.54787300  0.74920500  0.33592700  1
  O  O22  1  0.95629000  0.72623200  0.81083400  1
  O  O23  1  0.04371000  0.27376800  0.18916600  1
  O  O24  1  0.95629000  0.27376800  0.68916600  1
  O  O25  1  0.04371000  0.72623200  0.31083400  1
  O  O26  1  0.75536900  0.53180100  0.59163900  1
  O  O27  1  0.24463100  0.46819900  0.40836100  1
  O  O28  1  0.75536900  0.46819900  0.90836100  1
  O  O29  1  0.24463100  0.53180100  0.09163900  1
loop_
_geom_bond_atom_site_label_1
_geom_bond_atom_site_label_2
_geom_bond_distance
_geom_bond_site_symmetry_2
Ba0 O17 2.538434 1_555
Ba0 O19 2.819440 1_555
Ba0 O11 2.921817 1_555
Ba0 O29 2.969465 1_655
Ba0 O2 2.984850 1_554
Ba0 O10 3.008167 1_654
Ba0 O3 3.037713 1_555
Ba0 O29 3.107280 1_555
Ba0 O28 3.185376 1_554
Ba0 O23 3.218992 1_655
Ba1 O16 2.538434 1_555
Ba1 O18 2.819440 1_555
Ba1 O10 2.921817 1_555
Ba1 O28 2.969465 1_455
Ba1 O3 2.984850 1_556
Ba1 O11 3.008167 1_456
Ba1 O2 3.037713 1_555
Ba1 O28 3.107280 1_555
Ba1 O29 3.185376 1_556
Ba1 O22 3.218992 1_455
Ba2 O15 2.538434 1_555
Ba2 O21 2.819440 1_555
Ba2 O13 2.921817 1_555
Ba2 O27 2.969465 1_655
Ba2 O4 2.984850 1_555
Ba2 O12 3.008167 1_655
Ba2 O5 3.037713 1_555
Ba2 O27 3.107280 1_555
Ba2 O26 3.185376 1_555
Ba2 O25 3.218992 1_655
Ba3 O14 2.538434 1_555
Ba3 O20 2.819440 1_555
Ba3 O12 2.921817 1_555
Ba3 O26 2.969465 1_455
Ba3 O5 2.984850 1_555
Ba3 O13 3.008167 1_455
Ba3 O4 3.037713 1_555
Ba3 O26 3.107280 1_555
Ba3 O27 3.185376 1_555
Ba3 O24 3.218992 1_455
Ba4 O2 2.796241 1_554
Ba4 O17 2.859379 1_555
Ba4 O19 2.917964 1_565
Ba4 O10 2.918914 1_654
Ba4 O9 3.004374 1_655
Ba4 O1 3.018062 1_565
Ba4 O11 3.023168 1_565
Ba4 O3 3.055518 1_565
Ba4 O9 3.073124 1_555
Ba5 O3 2.796241 1_556
Ba5 O16 2.859379 1_555
Ba5 O18 2.917964 1_545
Ba5 O11 2.918914 1_456
Ba5 O8 3.004374 1_455
Ba5 O0 3.018062 1_555
Ba5 O10 3.023168 1_545
Ba5 O2 3.055518 1_545
Ba5 O8 3.073124 1_555
Ba6 O4 2.796241 1_555
Ba6 O15 2.859379 1_555
Ba6 O21 2.917964 1_545
Ba6 O12 2.918914 1_655
Ba6 O7 3.004374 1_655
Ba6 O1 3.018062 1_555
Ba6 O13 3.023168 1_545
Ba6 O5 3.055518 1_545
Ba6 O7 3.073124 1_555
Ba7 O5 2.796241 1_555
Ba7 O14 2.859379 1_555
Ba7 O20 2.917964 1_565
Ba7 O13 2.918914 1_455
Ba7 O6 3.004374 1_455
Ba7 O0 3.018062 1_565
Ba7 O12 3.023168 1_565
Ba7 O4 3.055518 1_565
Ba7 O6 3.073124 1_555
Ba8 O6 2.691622 1_545
Ba8 O8 2.691622 1_555
Ba8 O24 2.830950 1_555
Ba8 O22 2.830950 1_545
Ba8 O0 2.917611 1_655
Ba8 O18 3.022587 1_545
Ba8 O20 3.022587 1_555
Ba8 O0 3.114748 1_555
Ba9 O7 2.691622 1_555
Ba9 O9 2.691622 1_545
Ba9 O23 2.830950 1_555
Ba9 O25 2.830950 1_545
Ba9 O1 2.917611 1_455
Ba9 O21 3.022587 1_545
Ba9 O19 3.022587 1_555
Ba9 O1 3.114748 1_555
Ba10 O22 2.778532 1_555
Ba10 O24 2.778532 1_555
Ba10 O16 2.840339 1_555
Ba10 O14 2.840339 1_555
Ba10 O20 2.903029 1_555
Ba10 O18 2.903029 1_555
Ba10 O28 3.002882 1_555
Ba10 O26 3.002882 1_555
Ba11 O23 2.778532 1_555
Ba11 O25 2.778532 1_555
Ba11 O17 2.840339 1_555
Ba11 O15 2.840339 1_555
Ba11 O21 2.903029 1_555
Ba11 O19 2.903029 1_555
Ba11 O27 3.002882 1_555
Ba11 O29 3.002882 1_555
Ho0 O10 2.219306 1_655
Ho0 O2 2.219999 1_555
Ho0 O18 2.244106 1_555
Ho0 O22 2.260696 1_555
Ho0 O28 2.280232 1_555
Ho0 O8 2.389551 1_565
Ho1 O11 2.219306 1_455
Ho1 O3 2.219999 1_555
Ho1 O19 2.244106 1_555
Ho1 O23 2.260696 1_555
Ho1 O29 2.280232 1_555
Ho1 O9 2.389551 1_545
Ho2 O12 2.219306 1_655
Ho2 O4 2.219999 1_555
Ho2 O20 2.244106 1_555
Ho2 O24 2.260696 1_555
Ho2 O26 2.280232 1_555
Ho2 O6 2.389551 1_545
Ho3 O13 2.219306 1_455
Ho3 O5 2.219999 1_555
Ho3 O21 2.244106 1_555
Ho3 O25 2.260696 1_555
Ho3 O27 2.280232 1_555
Ho3 O7 2.389551 1_565
Ga0 O6 1.875045 1_555
Ga0 O26 1.876097 1_555
Ga0 O5 1.885098 1_555
Ga0 O13 1.900649 1_555
Ga1 O7 1.875045 1_555
Ga1 O27 1.876097 1_555
Ga1 O4 1.885098 1_555
Ga1 O12 1.900649 1_555
Ga2 O8 1.875045 1_555
Ga2 O28 1.876097 1_555
Ga2 O3 1.885098 1_556
Ga2 O11 1.900649 1_556
Ga3 O9 1.875045 1_555
Ga3 O29 1.876097 1_555
Ga3 O2 1.885098 1_554
Ga3 O10 1.900649 1_554
Ga4 O17 1.821820 1_555
Ga4 O25 1.849863 1_655
Ga4 O1 1.870428 1_565
Ga4 O21 1.890756 1_555
Ga5 O16 1.821820 1_555
Ga5 O24 1.849863 1_455
Ga5 O0 1.870428 1_555
Ga5 O20 1.890756 1_555
Ga6 O15 1.821820 1_555
Ga6 O23 1.849863 1_655
Ga6 O1 1.870428 1_555
Ga6 O19 1.890756 1_555
Ga7 O14 1.821820 1_555
Ga7 O22 1.849863 1_455
Ga7 O0 1.870428 1_565
Ga7 O18 1.890756 1_555
