# generated using pymatgen
data_Na4Ge2PbS6
_symmetry_space_group_name_H-M   'P 1'
_cell_length_a   6.89806974
_cell_length_b   6.89806974
_cell_length_c   7.83642157
_cell_angle_alpha   81.55415971
_cell_angle_beta   81.55415971
_cell_angle_gamma   119.75738829
_symmetry_Int_Tables_number   1
_chemical_formula_structural   Na4Ge2PbS6
_chemical_formula_sum   'Na4 Ge2 Pb1 S6'
_cell_volume   309.53810882
_cell_formula_units_Z   1
loop_
 _symmetry_equiv_pos_site_id
 _symmetry_equiv_pos_as_xyz
  1  'x, y, z'
loop_
 _atom_site_type_symbol
 _atom_site_label
 _atom_site_symmetry_multiplicity
 _atom_site_fract_x
 _atom_site_fract_y
 _atom_site_fract_z
 _atom_site_occupancy
  Na  Na0  1  0.82122800  0.17877200  0.00000000  1
  Na  Na1  1  0.17888000  0.82112000  0.00000000  1
  Na  Na2  1  0.49991700  0.50008300  0.00000000  1
  Na  Na3  1  0.66490400  0.33509600  0.50000000  1
  Ge  Ge0  1  0.05216600  0.05215900  0.33815800  1
  Ge  Ge1  1  0.94784100  0.94783400  0.66184200  1
  Pb  Pb0  1  0.33522700  0.66477300  0.50000000  1
  S  S0  1  0.08285200  0.39317800  0.24873500  1
  S  S1  1  0.39279900  0.08212900  0.24854200  1
  S  S2  1  0.91787100  0.60720100  0.75145800  1
  S  S3  1  0.60682200  0.91714800  0.75126500  1
  S  S4  1  0.77472400  0.77523200  0.24669700  1
  S  S5  1  0.22476800  0.22527600  0.75330300  1
loop_
_geom_bond_atom_site_label_1
_geom_bond_atom_site_label_2
_geom_bond_distance
_geom_bond_site_symmetry_2
Na0 S0 2.911069 1_655
Na0 S3 2.911069 1_544
Na0 S4 2.989914 1_545
Na0 S5 2.989914 1_654
Na0 S1 2.990640 1_555
Na0 S2 2.990640 1_554
Na1 S1 2.906825 1_565
Na1 S2 2.906825 1_454
Na1 S0 2.990273 1_555
Na1 S3 2.990273 1_554
Na1 S4 2.995156 1_455
Na1 S5 2.995156 1_564
Na2 S3 2.905939 1_554
Na2 S0 2.905939 1_555
Na2 S2 2.909406 1_554
Na2 S1 2.909406 1_555
Na2 S4 3.084805 1_555
Na2 S5 3.084805 1_554
Na3 S4 3.039207 1_555
Na3 S5 3.039207 1_555
Na3 S1 3.048993 1_555
Na3 S2 3.048993 1_555
Na3 S0 3.050173 1_655
Na3 S3 3.050173 1_545
Ge0 S4 2.236416 1_445
Ge0 S0 2.246652 1_555
Ge0 S1 2.246661 1_555
Ge1 S5 2.236416 1_665
Ge1 S3 2.246652 1_555
Ge1 S2 2.246661 1_555
Pb0 S5 3.034268 1_555
Pb0 S4 3.034268 1_555
Pb0 S0 3.044775 1_555
Pb0 S3 3.044775 1_555
Pb0 S1 3.049228 1_565
Pb0 S2 3.049228 1_455
