# generated using pymatgen
data_In2CuAgTe4
_symmetry_space_group_name_H-M   'P 1'
_cell_length_a   6.45231900
_cell_length_b   6.45231900
_cell_length_c   7.83331684
_cell_angle_alpha   65.67883009
_cell_angle_beta   65.67883009
_cell_angle_gamma   90.00000000
_symmetry_Int_Tables_number   1
_chemical_formula_structural   In2CuAgTe4
_chemical_formula_sum   'In2 Cu1 Ag1 Te4'
_cell_volume   265.09306352
_cell_formula_units_Z   1
loop_
 _symmetry_equiv_pos_site_id
 _symmetry_equiv_pos_as_xyz
  1  'x, y, z'
loop_
 _atom_site_type_symbol
 _atom_site_label
 _atom_site_symmetry_multiplicity
 _atom_site_fract_x
 _atom_site_fract_y
 _atom_site_fract_z
 _atom_site_occupancy
  In  In0  1  0.25000000  0.75000000  0.50000000  1
  In  In1  1  0.50000000  0.50000000  0.00000000  1
  Cu  Cu0  1  0.00000000  0.00000000  0.00000000  1
  Ag  Ag0  1  0.75000000  0.25000000  0.50000000  1
  Te  Te0  1  0.35759100  0.88916900  0.76091600  1
  Te  Te1  1  0.88149300  0.34991500  0.76091600  1
  Te  Te2  1  0.11083100  0.11850700  0.23908400  1
  Te  Te3  1  0.65008500  0.64240900  0.23908400  1
loop_
_geom_bond_atom_site_label_1
_geom_bond_atom_site_label_2
_geom_bond_distance
_geom_bond_site_symmetry_2
In0 Te1 2.854117 1_455
In0 Te3 2.854117 1_555
In0 Te2 2.854117 1_565
In0 Te0 2.854117 1_555
In1 Te2 2.863730 1_555
In1 Te0 2.863730 1_554
In1 Te1 2.863730 1_554
In1 Te3 2.863730 1_555
Cu0 Te3 2.624172 1_445
Cu0 Te0 2.624172 1_544
Cu0 Te1 2.624172 1_454
Cu0 Te2 2.624172 1_555
Ag0 Te0 2.797573 1_545
Ag0 Te3 2.797573 1_555
Ag0 Te2 2.797573 1_655
Ag0 Te1 2.797573 1_555
