# generated using pymatgen
data_Mg2OsS6
_symmetry_space_group_name_H-M   'P 1'
_cell_length_a   6.27117872
_cell_length_b   6.27117872
_cell_length_c   6.27117872
_cell_angle_alpha   60.00000000
_cell_angle_beta   60.00000000
_cell_angle_gamma   60.00000000
_symmetry_Int_Tables_number   1
_chemical_formula_structural   Mg2OsS6
_chemical_formula_sum   'Mg2 Os1 S6'
_cell_volume   174.39440024
_cell_formula_units_Z   1
loop_
 _symmetry_equiv_pos_site_id
 _symmetry_equiv_pos_as_xyz
  1  'x, y, z'
loop_
 _atom_site_type_symbol
 _atom_site_label
 _atom_site_symmetry_multiplicity
 _atom_site_fract_x
 _atom_site_fract_y
 _atom_site_fract_z
 _atom_site_occupancy
  Mg  Mg0  1  0.75000000  0.75000000  0.75000000  1
  Mg  Mg1  1  0.25000000  0.25000000  0.25000000  1
  Os  Os0  1  0.00000000  0.00000000  0.00000000  1
  S  S0  1  0.73790100  0.73790100  0.26209900  1
  S  S1  1  0.26209900  0.73790100  0.26209900  1
  S  S2  1  0.73790100  0.26209900  0.26209900  1
  S  S3  1  0.26209900  0.26209900  0.73790100  1
  S  S4  1  0.73790100  0.26209900  0.73790100  1
  S  S5  1  0.26209900  0.73790100  0.73790100  1
loop_
_geom_bond_atom_site_label_1
_geom_bond_atom_site_label_2
_geom_bond_distance
_geom_bond_site_symmetry_2
Mg0 S0 3.137425 1_555
Mg0 S4 3.137425 1_555
Mg0 S5 3.137425 1_555
Mg0 S2 3.137425 1_565
Mg0 S3 3.137425 1_565
Mg0 S3 3.137425 1_655
Mg0 S1 3.137425 1_556
Mg0 S2 3.137425 1_556
Mg0 S1 3.137425 1_655
Mg0 S4 3.137425 1_565
Mg0 S0 3.137425 1_556
Mg0 S5 3.137425 1_655
Mg1 S3 3.137425 1_554
Mg1 S2 3.137425 1_455
Mg1 S1 3.137425 1_545
Mg1 S5 3.137425 1_545
Mg1 S4 3.137425 1_455
Mg1 S4 3.137425 1_554
Mg1 S0 3.137425 1_545
Mg1 S0 3.137425 1_455
Mg1 S5 3.137425 1_554
Mg1 S1 3.137425 1_555
Mg1 S3 3.137425 1_555
Mg1 S2 3.137425 1_555
Os0 S4 2.324500 1_454
Os0 S0 2.324500 1_445
Os0 S5 2.324500 1_544
Os0 S2 2.324500 1_455
Os0 S1 2.324500 1_545
Os0 S3 2.324500 1_554
