# generated using pymatgen
data_Li4Mn3CoO8
_symmetry_space_group_name_H-M   'P 1'
_cell_length_a   2.87738400
_cell_length_b   39.15383253
_cell_length_c   3.08499362
_cell_angle_alpha   91.46629654
_cell_angle_beta   118.63959574
_cell_angle_gamma   90.61441750
_symmetry_Int_Tables_number   1
_chemical_formula_structural   Li4Mn3CoO8
_chemical_formula_sum   'Li8 Mn6 Co2 O16'
_cell_volume   304.82974297
_cell_formula_units_Z   2
loop_
 _symmetry_equiv_pos_site_id
 _symmetry_equiv_pos_as_xyz
  1  'x, y, z'
loop_
 _atom_site_type_symbol
 _atom_site_label
 _atom_site_symmetry_multiplicity
 _atom_site_fract_x
 _atom_site_fract_y
 _atom_site_fract_z
 _atom_site_occupancy
  Li  Li0  1  0.30179800  0.06158400  0.63006200  1
  Li  Li1  1  0.80347800  0.56197700  0.63166300  1
  Li  Li2  1  0.19815000  0.43833700  0.37095300  1
  Li  Li3  1  0.69771600  0.93807900  0.36922400  1
  Li  Li4  1  0.93591900  0.18711100  0.87850500  1
  Li  Li5  1  0.43542300  0.68744100  0.87707200  1
  Li  Li6  1  0.56309300  0.31275900  0.12146700  1
  Li  Li7  1  0.06415000  0.81274100  0.12120900  1
  Mn  Mn0  1  0.74924100  0.75011100  0.49782300  1
  Mn  Mn1  1  0.12101300  0.62473500  0.25773400  1
  Mn  Mn2  1  0.37963300  0.87538200  0.74145800  1
  Mn  Mn3  1  0.24867700  0.24994400  0.49861200  1
  Mn  Mn4  1  0.62174000  0.12428200  0.25989100  1
  Mn  Mn5  1  0.87828400  0.37557800  0.74177600  1
  Co  Co0  1  0.00050400  0.99974500  0.00223600  1
  Co  Co1  1  0.50042400  0.50023100  0.99951300  1
  O  O0  1  0.64204900  0.02784900  0.33169200  1
  O  O1  1  0.13971100  0.52844600  0.32605300  1
  O  O2  1  0.85891500  0.47210800  0.67023700  1
  O  O3  1  0.36131400  0.97154000  0.67574100  1
  O  O4  1  0.26320100  0.15338000  0.53111600  1
  O  O5  1  0.76239500  0.65384900  0.52927500  1
  O  O6  1  0.23710500  0.34645000  0.47069400  1
  O  O7  1  0.73792300  0.84628500  0.46963000  1
  O  O8  1  0.89023600  0.27907200  0.77060300  1
  O  O9  1  0.39097300  0.77919500  0.77021200  1
  O  O10  1  0.60785100  0.22082400  0.22770500  1
  O  O11  1  0.10806900  0.72102600  0.22642300  1
  O  O12  1  0.51975900  0.40473700  0.01223500  1
  O  O13  1  0.02150200  0.90443800  0.01295000  1
  O  O14  1  0.98062800  0.09510200  0.98965600  1
  O  O15  1  0.47912900  0.59566100  0.98657900  1
loop_
_geom_bond_atom_site_label_1
_geom_bond_atom_site_label_2
_geom_bond_distance
_geom_bond_site_symmetry_2
Li0 O0 2.092796 1_555
Li0 O0 2.098721 1_455
Li0 O14 2.135774 1_555
Li0 O14 2.177425 1_455
Li0 O14 2.210888 1_454
Li0 O0 2.351803 1_556
Li1 O1 2.094461 1_655
Li1 O1 2.101671 1_555
Li1 O15 2.132694 1_655
Li1 O15 2.177446 1_555
Li1 O15 2.225114 1_554
Li1 O1 2.330894 1_656
Li2 O2 2.093503 1_455
Li2 O2 2.101558 1_555
Li2 O12 2.136667 1_455
Li2 O12 2.178305 1_555
Li2 O12 2.214791 1_556
Li2 O2 2.350618 1_454
Li3 O3 2.094932 1_555
Li3 O3 2.099678 1_655
Li3 O13 2.133017 1_555
Li3 O13 2.178251 1_655
Li3 O13 2.221107 1_656
Li3 O3 2.327210 1_554
Li4 O10 2.125295 1_656
Li4 O4 2.126914 1_555
Li4 O4 2.168244 1_655
Li4 O10 2.173196 1_556
Li4 O10 2.238297 1_555
Li4 O4 2.242710 1_656
Li5 O11 2.123685 1_656
Li5 O5 2.124319 1_455
Li5 O5 2.165237 1_555
Li5 O11 2.169122 1_556
Li5 O11 2.234881 1_555
Li5 O5 2.238466 1_556
Li6 O8 2.126730 1_454
Li6 O6 2.128741 1_655
Li6 O6 2.168680 1_555
Li6 O8 2.174318 1_554
Li6 O8 2.234031 1_555
Li6 O6 2.237726 1_554
Li7 O9 2.124068 1_454
Li7 O7 2.124722 1_555
Li7 O7 2.163983 1_455
Li7 O9 2.170677 1_554
Li7 O9 2.230334 1_555
Li7 O7 2.235948 1_454
Mn0 O11 1.956255 1_555
Mn0 O9 1.957295 1_655
Mn0 O11 1.966972 1_655
Mn0 O9 1.967788 1_555
Mn0 O9 2.309944 1_554
Mn0 O11 2.312293 1_656
Mn1 O5 1.957317 1_555
Mn1 O15 1.957543 1_454
Mn1 O15 1.964719 1_554
Mn1 O5 1.967468 1_455
Mn1 O5 2.312559 1_454
Mn1 O15 2.312681 1_555
Mn2 O13 1.957075 1_656
Mn2 O7 1.957600 1_455
Mn2 O13 1.965035 1_556
Mn2 O7 1.966979 1_555
Mn2 O13 2.311510 1_555
Mn2 O7 2.311543 1_556
Mn3 O10 1.956355 1_455
Mn3 O8 1.957944 1_555
Mn3 O10 1.967484 1_555
Mn3 O8 1.968328 1_455
Mn3 O8 2.311784 1_454
Mn3 O10 2.314166 1_556
Mn4 O4 1.957170 1_655
Mn4 O14 1.958361 1_454
Mn4 O4 1.966296 1_555
Mn4 O14 1.966859 1_554
Mn4 O4 2.312987 1_554
Mn4 O14 2.317003 1_555
Mn5 O6 1.957253 1_555
Mn5 O12 1.958635 1_656
Mn5 O12 1.966076 1_556
Mn5 O6 1.967274 1_655
Mn5 O6 2.313928 1_656
Mn5 O12 2.316057 1_555
Co0 O3 1.934018 1_454
Co0 O0 1.937045 1_565
Co0 O0 2.068732 1_465
Co0 O3 2.069294 1_554
Co0 O0 2.156251 1_464
Co0 O3 2.165339 1_555
Co1 O1 1.934433 1_656
Co1 O2 1.937348 1_455
Co1 O2 2.068801 1_555
Co1 O1 2.069393 1_556
Co1 O2 2.157068 1_556
Co1 O1 2.165440 1_555
