# generated using pymatgen
data_Li9Mn2Co5O16
_symmetry_space_group_name_H-M   'P 1'
_cell_length_a   5.09167600
_cell_length_b   7.69256927
_cell_length_c   7.80082191
_cell_angle_alpha   99.14352743
_cell_angle_beta   101.48294306
_cell_angle_gamma   102.21980867
_symmetry_Int_Tables_number   1
_chemical_formula_structural   Li9Mn2Co5O16
_chemical_formula_sum   'Li9 Mn2 Co5 O16'
_cell_volume   286.12348181
_cell_formula_units_Z   1
loop_
 _symmetry_equiv_pos_site_id
 _symmetry_equiv_pos_as_xyz
  1  'x, y, z'
loop_
 _atom_site_type_symbol
 _atom_site_label
 _atom_site_symmetry_multiplicity
 _atom_site_fract_x
 _atom_site_fract_y
 _atom_site_fract_z
 _atom_site_occupancy
  Li  Li0  1  0.49638000  0.12253800  0.86915100  1
  Li  Li1  1  0.49748600  0.99698600  0.50659500  1
  Li  Li2  1  0.49992300  0.37351800  0.62502100  1
  Li  Li3  1  0.50139300  0.25117900  0.25282200  1
  Li  Li4  1  0.50753100  0.62708400  0.38024500  1
  Li  Li5  1  0.49821500  0.49808200  0.99880400  1
  Li  Li6  1  0.49981900  0.87678700  0.12477300  1
  Li  Li7  1  0.50237900  0.75368000  0.74131700  1
  Li  Li8  1  0.00409300  0.87668900  0.62635800  1
  Mn  Mn0  1  0.99486800  0.99887100  0.99589900  1
  Mn  Mn1  1  0.99882000  0.62680700  0.87074800  1
  Co  Co0  1  0.99746100  0.75598100  0.26193900  1
  Co  Co1  1  0.00512400  0.50784700  0.50306900  1
  Co  Co2  1  0.99348900  0.37531100  0.12643100  1
  Co  Co3  1  0.00918300  0.23672300  0.74165400  1
  Co  Co4  1  0.99975300  0.12328300  0.37511500  1
  O  O0  1  0.76801500  0.12471500  0.11507300  1
  O  O1  1  0.77091700  0.00557000  0.77038000  1
  O  O2  1  0.77999000  0.38705500  0.87568400  1
  O  O3  1  0.77906900  0.24824600  0.49718400  1
  O  O4  1  0.77406400  0.61933400  0.64070800  1
  O  O5  1  0.76246500  0.50095800  0.25280000  1
  O  O6  1  0.77006800  0.88309100  0.36548300  1
  O  O7  1  0.77541800  0.75793800  0.99461100  1
  O  O8  1  0.24565800  0.13381900  0.63286400  1
  O  O9  1  0.21755300  0.00391400  0.23969800  1
  O  O10  1  0.21908000  0.35997900  0.37067700  1
  O  O11  1  0.22502900  0.23750300  0.00122000  1
  O  O12  1  0.21437400  0.62349400  0.11325500  1
  O  O13  1  0.23119500  0.50848200  0.75531900  1
  O  O14  1  0.22292300  0.86742700  0.88674200  1
  O  O15  1  0.23826500  0.73710900  0.48836100  1
loop_
_geom_bond_atom_site_label_1
_geom_bond_atom_site_label_2
_geom_bond_distance
_geom_bond_site_symmetry_2
Li0 O1 2.024402 1_555
Li0 O8 2.048314 1_555
Li0 O0 2.125321 1_556
Li0 O11 2.132336 1_556
Li0 O14 2.194009 1_545
Li0 O2 2.218604 1_555
Li1 O8 2.113526 1_565
Li1 O15 2.115816 1_555
Li1 O3 2.170420 1_565
Li1 O6 2.173055 1_555
Li1 O1 2.225802 1_565
Li1 O9 2.292395 1_565
Li2 O8 2.033871 1_555
Li2 O4 2.068852 1_555
Li2 O2 2.151760 1_555
Li2 O10 2.175755 1_555
Li2 O3 2.186781 1_555
Li2 O13 2.191558 1_555
Li3 O5 2.092347 1_555
Li3 O10 2.098307 1_555
Li3 O9 2.105383 1_555
Li3 O3 2.141787 1_555
Li3 O11 2.148357 1_555
Li3 O0 2.179834 1_555
Li4 O15 2.008006 1_555
Li4 O5 2.086872 1_555
Li4 O6 2.167363 1_555
Li4 O4 2.224517 1_555
Li4 O10 2.239342 1_555
Li4 O12 2.300672 1_555
Li5 O2 2.125309 1_555
Li5 O13 2.128069 1_555
Li5 O12 2.155630 1_556
Li5 O5 2.156081 1_556
Li5 O11 2.189837 1_556
Li5 O7 2.198599 1_555
Li6 O14 2.076768 1_554
Li6 O6 2.082244 1_555
Li6 O0 2.119532 1_565
Li6 O12 2.147214 1_555
Li6 O7 2.156698 1_554
Li6 O9 2.157544 1_565
Li7 O1 2.071458 1_565
Li7 O4 2.092201 1_555
Li7 O13 2.121144 1_555
Li7 O15 2.123537 1_555
Li7 O7 2.168971 1_555
Li7 O14 2.220697 1_555
Li8 O1 2.080890 1_465
Li8 O8 2.083553 1_565
Li8 O15 2.102146 1_555
Li8 O4 2.108240 1_455
Li8 O14 2.133274 1_555
Li8 O6 2.157518 1_455
Mn0 O1 1.911228 1_565
Mn0 O14 1.926889 1_655
Mn0 O0 1.936606 1_566
Mn0 O11 1.946943 1_666
Mn0 O7 1.948491 1_555
Mn0 O9 2.000858 1_666
Mn1 O4 1.911773 1_555
Mn1 O13 1.912803 1_655
Mn1 O14 1.928614 1_655
Mn1 O2 1.952988 1_555
Mn1 O7 1.964333 1_555
Mn1 O12 1.996109 1_656
Co0 O6 1.884049 1_555
Co0 O15 1.984621 1_655
Co0 O9 2.049706 1_665
Co0 O5 2.052620 1_555
Co0 O12 2.052957 1_655
Co0 O7 2.169260 1_554
Co1 O15 1.940345 1_555
Co1 O4 1.977338 1_455
Co1 O10 2.036279 1_555
Co1 O13 2.071186 1_555
Co1 O3 2.071643 1_455
Co1 O5 2.078427 1_455
Co2 O5 1.982380 1_555
Co2 O0 2.002581 1_555
Co2 O12 2.029729 1_655
Co2 O11 2.031298 1_655
Co2 O10 2.054488 1_655
Co2 O2 2.065689 1_554
Co3 O8 1.842118 1_555
Co3 O1 2.001382 1_455
Co3 O3 2.055627 1_455
Co3 O11 2.101222 1_556
Co3 O2 2.113093 1_455
Co3 O13 2.130799 1_555
Co4 O3 1.919837 1_555
Co4 O10 1.933463 1_655
Co4 O9 1.943739 1_655
Co4 O6 1.947679 1_545
Co4 O8 2.126002 1_655
Co4 O0 2.137044 1_555
