# generated using pymatgen
data_Eu2Ge(BO4)2
_symmetry_space_group_name_H-M   'P 1'
_cell_length_a   4.50331700
_cell_length_b   9.62295300
_cell_length_c   13.70751900
_cell_angle_alpha   90.00000000
_cell_angle_beta   90.00000000
_cell_angle_gamma   90.00000000
_symmetry_Int_Tables_number   1
_chemical_formula_structural   Eu2Ge(BO4)2
_chemical_formula_sum   'Eu8 Ge4 B8 O32'
_cell_volume   594.01818477
_cell_formula_units_Z   4
loop_
 _symmetry_equiv_pos_site_id
 _symmetry_equiv_pos_as_xyz
  1  'x, y, z'
loop_
 _atom_site_type_symbol
 _atom_site_label
 _atom_site_symmetry_multiplicity
 _atom_site_fract_x
 _atom_site_fract_y
 _atom_site_fract_z
 _atom_site_occupancy
  Eu  Eu0  1  0.46503700  0.52894100  0.63975100  1
  Eu  Eu1  1  0.03496300  0.02894100  0.86024900  1
  Eu  Eu2  1  0.03496300  0.47105900  0.13975100  1
  Eu  Eu3  1  0.46503700  0.97105900  0.36024900  1
  Eu  Eu4  1  0.53496300  0.47105900  0.36024900  1
  Eu  Eu5  1  0.96503700  0.97105900  0.13975100  1
  Eu  Eu6  1  0.96503700  0.52894100  0.86024900  1
  Eu  Eu7  1  0.53496300  0.02894100  0.63975100  1
  Ge  Ge0  1  0.91981000  0.75000000  0.50000000  1
  Ge  Ge1  1  0.58019000  0.25000000  0.00000000  1
  Ge  Ge2  1  0.08019000  0.25000000  0.50000000  1
  Ge  Ge3  1  0.41981000  0.75000000  0.00000000  1
  B  B0  1  0.53295300  0.70502000  0.20100600  1
  B  B1  1  0.96704700  0.20502000  0.29899400  1
  B  B2  1  0.96704700  0.29498000  0.70100600  1
  B  B3  1  0.53295300  0.79498000  0.79899400  1
  B  B4  1  0.46704700  0.29498000  0.79899400  1
  B  B5  1  0.03295300  0.79498000  0.70100600  1
  B  B6  1  0.03295300  0.70502000  0.29899400  1
  B  B7  1  0.46704700  0.20502000  0.20100600  1
  O  O0  1  0.53937700  0.55398100  0.19385100  1
  O  O1  1  0.96062300  0.05398100  0.30614900  1
  O  O2  1  0.96062300  0.44601900  0.69385100  1
  O  O3  1  0.53937700  0.94601900  0.80614900  1
  O  O4  1  0.46062300  0.44601900  0.80614900  1
  O  O5  1  0.03937700  0.94601900  0.69385100  1
  O  O6  1  0.03937700  0.55398100  0.30614900  1
  O  O7  1  0.46062300  0.05398100  0.19385100  1
  O  O8  1  0.65161600  0.76539800  0.10673700  1
  O  O9  1  0.84838400  0.26539800  0.39326300  1
  O  O10  1  0.84838400  0.23460200  0.60673700  1
  O  O11  1  0.65161600  0.73460200  0.89326300  1
  O  O12  1  0.34838400  0.23460200  0.89326300  1
  O  O13  1  0.15161600  0.73460200  0.60673700  1
  O  O14  1  0.15161600  0.76539800  0.39326300  1
  O  O15  1  0.34838400  0.26539800  0.10673700  1
  O  O16  1  0.22480400  0.75865400  0.21792000  1
  O  O17  1  0.27519600  0.25865400  0.28208000  1
  O  O18  1  0.27519600  0.24134600  0.71792000  1
  O  O19  1  0.22480400  0.74134600  0.78208000  1
  O  O20  1  0.77519600  0.24134600  0.78208000  1
  O  O21  1  0.72480400  0.74134600  0.71792000  1
  O  O22  1  0.72480400  0.75865400  0.28208000  1
  O  O23  1  0.77519600  0.25865400  0.21792000  1
  O  O24  1  0.70538100  0.59904300  0.49537200  1
  O  O25  1  0.79461900  0.09904300  0.00462800  1
  O  O26  1  0.79461900  0.40095700  0.99537200  1
  O  O27  1  0.70538100  0.90095700  0.50462800  1
  O  O28  1  0.29461900  0.40095700  0.50462800  1
  O  O29  1  0.20538100  0.90095700  0.99537200  1
  O  O30  1  0.20538100  0.59904300  0.00462800  1
  O  O31  1  0.29461900  0.09904300  0.49537200  1
loop_
_geom_bond_atom_site_label_1
_geom_bond_atom_site_label_2
_geom_bond_distance
_geom_bond_site_symmetry_2
Eu0 O28 2.352960 1_555
Eu0 O24 2.354419 1_555
Eu0 O4 2.416536 1_555
Eu0 O13 2.472578 1_555
Eu0 O2 2.483448 1_555
Eu0 O2 2.519235 1_455
Eu0 O21 2.587348 1_555
Eu1 O29 2.352960 1_545
Eu1 O25 2.354419 1_456
Eu1 O5 2.416536 1_545
Eu1 O12 2.472578 1_555
Eu1 O3 2.483448 1_445
Eu1 O3 2.519235 1_545
Eu1 O20 2.587348 1_455
Eu2 O30 2.352960 1_555
Eu2 O26 2.354419 1_454
Eu2 O6 2.416536 1_555
Eu2 O15 2.472578 1_555
Eu2 O0 2.483448 1_455
Eu2 O0 2.519235 1_555
Eu2 O23 2.587348 1_455
Eu3 O31 2.352960 1_565
Eu3 O27 2.354419 1_555
Eu3 O7 2.416536 1_565
Eu3 O14 2.472578 1_555
Eu3 O1 2.483448 1_565
Eu3 O1 2.519235 1_465
Eu3 O22 2.587348 1_555
Eu4 O24 2.352960 1_555
Eu4 O28 2.354419 1_555
Eu4 O0 2.416536 1_555
Eu4 O9 2.472578 1_555
Eu4 O6 2.483448 1_555
Eu4 O6 2.519235 1_655
Eu4 O17 2.587348 1_555
Eu5 O25 2.352960 1_565
Eu5 O29 2.354419 1_654
Eu5 O1 2.416536 1_565
Eu5 O8 2.472578 1_555
Eu5 O7 2.483448 1_665
Eu5 O7 2.519235 1_565
Eu5 O16 2.587348 1_655
Eu6 O26 2.352960 1_555
Eu6 O30 2.354419 1_656
Eu6 O2 2.416536 1_555
Eu6 O11 2.472578 1_555
Eu6 O4 2.483448 1_655
Eu6 O4 2.519235 1_555
Eu6 O19 2.587348 1_655
Eu7 O27 2.352960 1_545
Eu7 O31 2.354419 1_555
Eu7 O3 2.416536 1_545
Eu7 O10 2.472578 1_555
Eu7 O5 2.483448 1_545
Eu7 O5 2.519235 1_645
Eu7 O18 2.587348 1_555
Ge0 O27 1.745476 1_555
Ge0 O24 1.745476 1_555
Ge0 O14 1.803423 1_655
Ge0 O13 1.803423 1_655
Ge1 O26 1.745476 1_554
Ge1 O25 1.745476 1_555
Ge1 O15 1.803423 1_555
Ge1 O12 1.803423 1_554
Ge2 O28 1.745476 1_555
Ge2 O31 1.745476 1_555
Ge2 O9 1.803423 1_455
Ge2 O10 1.803423 1_455
Ge3 O30 1.745476 1_555
Ge3 O29 1.745476 1_554
Ge3 O8 1.803423 1_555
Ge3 O11 1.803423 1_554
B0 O0 1.457034 1_555
B0 O16 1.498607 1_555
B0 O22 1.499284 1_555
B0 O8 1.514233 1_555
B1 O1 1.457034 1_555
B1 O17 1.498607 1_655
B1 O23 1.499284 1_555
B1 O9 1.514233 1_555
B2 O2 1.457034 1_555
B2 O18 1.498607 1_655
B2 O20 1.499284 1_555
B2 O10 1.514233 1_555
B3 O3 1.457034 1_555
B3 O19 1.498607 1_555
B3 O21 1.499284 1_555
B3 O11 1.514233 1_555
B4 O4 1.457034 1_555
B4 O20 1.498607 1_555
B4 O18 1.499284 1_555
B4 O12 1.514233 1_555
B5 O5 1.457034 1_555
B5 O21 1.498607 1_455
B5 O19 1.499284 1_555
B5 O13 1.514233 1_555
B6 O6 1.457034 1_555
B6 O22 1.498607 1_455
B6 O16 1.499284 1_555
B6 O14 1.514233 1_555
B7 O7 1.457034 1_555
B7 O23 1.498607 1_555
B7 O17 1.499284 1_555
B7 O15 1.514233 1_555
