# generated using pymatgen
data_Li2MnO2F
_symmetry_space_group_name_H-M   'P 1'
_cell_length_a   3.05066224
_cell_length_b   14.80018179
_cell_length_c   5.06001388
_cell_angle_alpha   82.68117469
_cell_angle_beta   93.75171315
_cell_angle_gamma   81.41244532
_symmetry_Int_Tables_number   1
_chemical_formula_structural   Li2MnO2F
_chemical_formula_sum   'Li8 Mn4 O8 F4'
_cell_volume   223.22729950
_cell_formula_units_Z   4
loop_
 _symmetry_equiv_pos_site_id
 _symmetry_equiv_pos_as_xyz
  1  'x, y, z'
loop_
 _atom_site_type_symbol
 _atom_site_label
 _atom_site_symmetry_multiplicity
 _atom_site_fract_x
 _atom_site_fract_y
 _atom_site_fract_z
 _atom_site_occupancy
  Li  Li0  1  0.08327200  0.83337500  0.41664900  1
  Li  Li1  1  0.58315600  0.83335300  0.91666500  1
  Li  Li2  1  0.33228300  0.33329600  0.66654600  1
  Li  Li3  1  0.83397600  0.33335300  0.16639200  1
  Li  Li4  1  0.49971800  0.99406600  0.50852600  1
  Li  Li5  1  0.99886800  0.99402000  0.00859300  1
  Li  Li6  1  0.66670400  0.67263600  0.32470400  1
  Li  Li7  1  0.16739800  0.67266200  0.82460700  1
  Mn  Mn0  1  0.25023800  0.50279500  0.24676300  1
  Mn  Mn1  1  0.91659200  0.16383800  0.58631900  1
  Mn  Mn2  1  0.75037200  0.50273900  0.74679400  1
  Mn  Mn3  1  0.41627000  0.16388800  0.08644100  1
  O  O0  1  0.91193300  0.24263800  0.86859200  1
  O  O1  1  0.41187900  0.24266100  0.36847400  1
  O  O2  1  0.75511200  0.42400300  0.46508400  1
  O  O3  1  0.25518100  0.42400500  0.96502700  1
  O  O4  1  0.42167200  0.08506600  0.80448500  1
  O  O5  1  0.92191800  0.08505300  0.30450300  1
  O  O6  1  0.24520800  0.58159200  0.52913200  1
  O  O7  1  0.74526300  0.58159900  0.02910100  1
  F  F0  1  0.62810600  0.75298200  0.61943600  1
  F  F1  1  0.12775900  0.75295800  0.11946600  1
  F  F2  1  0.53827200  0.91369600  0.21387400  1
  F  F3  1  0.03885100  0.91372700  0.71382600  1
loop_
_geom_bond_atom_site_label_1
_geom_bond_atom_site_label_2
_geom_bond_distance
_geom_bond_site_symmetry_2
Li2 O1 2.144596 1_555
Li2 O3 2.146509 1_555
Li2 O2 2.156895 1_455
Li2 O0 2.162824 1_555
Li2 O0 2.196779 1_455
Li2 O2 2.201329 1_555
Li3 O0 2.144012 1_554
Li3 O2 2.147085 1_555
Li3 O1 2.159412 1_655
Li3 O3 2.159805 1_554
Li3 O3 2.197099 1_654
Li3 O1 2.200940 1_555
Li4 O4 2.139638 1_565
Li4 O5 2.164479 1_465
Li4 O5 2.208136 1_565
Li5 O5 2.139578 1_565
Li5 O4 2.163741 1_564
Li5 O4 2.210176 1_664
Li6 O7 2.138704 1_555
Li6 O6 2.167039 1_655
Li6 O6 2.208039 1_555
Li7 O6 2.138393 1_555
Li7 O7 2.165933 1_556
Li7 O7 2.209734 1_456
Mn0 O3 1.952803 1_554
Mn0 O6 1.955450 1_555
Mn0 O7 1.964838 1_455
Mn0 O2 1.966011 1_555
Mn0 O7 2.295704 1_555
Mn0 O2 2.297373 1_455
Mn1 O5 1.953039 1_555
Mn1 O0 1.955126 1_555
Mn1 O1 1.964827 1_555
Mn1 O4 1.965964 1_655
Mn1 O4 2.296371 1_555
Mn1 O1 2.296893 1_655
Mn2 O2 1.952167 1_555
Mn2 O7 1.955830 1_556
Mn2 O3 1.965340 1_655
Mn2 O6 1.965511 1_555
Mn2 O6 2.295659 1_655
Mn2 O3 2.296853 1_555
Mn3 O1 1.953899 1_555
Mn3 O4 1.953981 1_554
Mn3 O0 1.963643 1_454
Mn3 O5 1.967254 1_555
Mn3 O5 2.295313 1_455
Mn3 O0 2.297192 1_554
F0 Li7 2.018808 1_655
F0 Li6 2.021144 1_555
F0 Li0 2.026408 1_555
F0 Li1 2.032184 1_555
F0 Li0 2.182998 1_655
F0 Li7 2.200391 1_555
F1 Li6 2.018217 1_555
F1 Li7 2.021233 1_554
F1 Li1 2.025954 1_454
F1 Li0 2.032409 1_555
F1 Li1 2.183574 1_554
F1 Li6 2.201353 1_455
F2 Li5 2.019284 1_455
F2 Li4 2.021051 1_555
F2 Li0 2.026313 1_655
F2 Li1 2.031818 1_554
F2 Li0 2.181974 1_555
F2 Li5 2.200417 1_555
F3 Li4 2.018837 1_455
F3 Li5 2.020844 1_456
F3 Li1 2.025267 1_555
F3 Li0 2.031735 1_555
F3 Li1 2.184159 1_455
F3 Li4 2.201207 1_555
