# generated using pymatgen
data_Sr(Ni5P3)2
_symmetry_space_group_name_H-M   'P 1'
_cell_length_a   8.65425477
_cell_length_b   8.65425477
_cell_length_c   8.72641600
_cell_angle_alpha   90.00000000
_cell_angle_beta   90.00000000
_cell_angle_gamma   136.38577955
_symmetry_Int_Tables_number   1
_chemical_formula_structural   Sr(Ni5P3)2
_chemical_formula_sum   'Sr2 Ni20 P12'
_cell_volume   450.83537669
_cell_formula_units_Z   2
loop_
 _symmetry_equiv_pos_site_id
 _symmetry_equiv_pos_as_xyz
  1  'x, y, z'
loop_
 _atom_site_type_symbol
 _atom_site_label
 _atom_site_symmetry_multiplicity
 _atom_site_fract_x
 _atom_site_fract_y
 _atom_site_fract_z
 _atom_site_occupancy
  Sr  Sr0  1  0.00000000  0.00000000  0.50000000  1
  Sr  Sr1  1  0.50000000  0.50000000  0.00000000  1
  Ni  Ni0  1  0.20652300  0.79347700  0.29074400  1
  Ni  Ni1  1  0.29347700  0.70652300  0.79074400  1
  Ni  Ni2  1  0.91352300  0.58647700  0.75000000  1
  Ni  Ni3  1  0.70652300  0.29347700  0.20925600  1
  Ni  Ni4  1  0.08647700  0.41352300  0.25000000  1
  Ni  Ni5  1  0.41352300  0.08647700  0.75000000  1
  Ni  Ni6  1  0.95632400  0.04367600  0.88054300  1
  Ni  Ni7  1  0.04367600  0.95632400  0.11945700  1
  Ni  Ni8  1  0.54367600  0.45632400  0.38054300  1
  Ni  Ni9  1  0.45632400  0.54367600  0.61945700  1
  Ni  Ni10  1  0.47323000  0.12624300  0.47005600  1
  Ni  Ni11  1  0.12624300  0.47323000  0.52994400  1
  Ni  Ni12  1  0.02677000  0.37375700  0.97005600  1
  Ni  Ni13  1  0.37375700  0.02677000  0.02994400  1
  Ni  Ni14  1  0.52677000  0.87375700  0.52994400  1
  Ni  Ni15  1  0.87375700  0.52677000  0.47005600  1
  Ni  Ni16  1  0.97323000  0.62624300  0.02994400  1
  Ni  Ni17  1  0.62624300  0.97323000  0.97005600  1
  Ni  Ni18  1  0.58647700  0.91352200  0.25000000  1
  Ni  Ni19  1  0.79347700  0.20652300  0.70925600  1
  P  P0  1  0.14444200  0.35555800  0.75000000  1
  P  P1  1  0.35555800  0.14444200  0.25000000  1
  P  P2  1  0.40881600  0.59118400  0.37142000  1
  P  P3  1  0.59118400  0.40881600  0.62858000  1
  P  P4  1  0.09118400  0.90881600  0.87142000  1
  P  P5  1  0.90881600  0.09118400  0.12858000  1
  P  P6  1  0.29158800  0.70841200  0.07302700  1
  P  P7  1  0.70841200  0.29158800  0.92697300  1
  P  P8  1  0.20841200  0.79158800  0.57302700  1
  P  P9  1  0.79158800  0.20841200  0.42697300  1
  P  P10  1  0.85555800  0.64444200  0.25000000  1
  P  P11  1  0.64444200  0.85555800  0.75000000  1
loop_
_geom_bond_atom_site_label_1
_geom_bond_atom_site_label_2
_geom_bond_distance
_geom_bond_site_symmetry_2
Ni0 P1 2.311455 1_565
Ni0 P10 2.311455 1_455
Ni0 P6 2.340562 1_555
Ni0 P8 2.463506 1_555
Ni1 P11 2.311455 1_555
Ni1 P0 2.311455 1_555
Ni1 P8 2.340562 1_555
Ni1 P6 2.463506 1_556
Ni2 P3 2.248987 1_555
Ni2 P4 2.248987 1_655
Ni2 P7 2.342917 1_555
Ni2 P8 2.342917 1_655
Ni3 P10 2.311455 1_555
Ni3 P1 2.311455 1_555
Ni3 P9 2.340562 1_555
Ni3 P7 2.463506 1_554
Ni4 P5 2.248987 1_455
Ni4 P2 2.248987 1_555
Ni4 P9 2.342917 1_455
Ni4 P6 2.342917 1_555
Ni5 P4 2.248987 1_545
Ni5 P3 2.248987 1_555
Ni5 P8 2.342917 1_545
Ni5 P7 2.342917 1_555
Ni6 P4 2.168650 1_645
Ni6 P11 2.206928 1_545
Ni6 P0 2.206928 1_655
Ni6 P5 2.295169 1_556
Ni6 Sr0 3.394139 1_655
Ni6 Sr1 3.451800 1_546
Ni6 Sr1 3.451800 1_656
Ni7 P5 2.168650 1_465
Ni7 P1 2.206928 1_565
Ni7 P10 2.206928 1_455
Ni7 P4 2.295169 1_554
Ni7 Sr0 3.394139 1_565
Ni7 Sr1 3.451800 1_565
Ni7 Sr1 3.451800 1_455
Ni8 P2 2.168650 1_555
Ni8 P1 2.206928 1_555
Ni8 P10 2.206928 1_555
Ni8 P3 2.295169 1_555
Ni8 Sr1 3.394139 1_555
Ni8 Sr0 3.451800 1_665
Ni8 Sr0 3.451800 1_555
Ni9 P3 2.168650 1_555
Ni9 P0 2.206928 1_555
Ni9 P11 2.206928 1_555
Ni9 P2 2.295169 1_555
Ni9 Sr1 3.394139 1_556
Ni9 Sr0 3.451800 1_665
Ni9 Sr0 3.451800 1_555
Ni10 P8 2.199226 1_545
Ni10 P1 2.231965 1_555
Ni10 P3 2.306786 1_555
Ni10 P9 2.323990 1_555
Ni10 Sr0 3.399361 1_555
Ni11 P9 2.199226 1_455
Ni11 P0 2.231965 1_555
Ni11 P2 2.306786 1_555
Ni11 P8 2.323990 1_555
Ni11 Sr0 3.399361 1_555
Ni12 P6 2.199226 1_556
Ni12 P0 2.231965 1_555
Ni12 P5 2.306786 1_456
Ni12 P7 2.323990 1_455
Ni12 Sr1 3.399361 1_556
Ni13 P7 2.199226 1_554
Ni13 P1 2.231965 1_555
Ni13 P4 2.306786 1_544
Ni13 P6 2.323990 1_545
Ni13 Sr1 3.399361 1_555
Ni14 P9 2.199226 1_565
Ni14 P11 2.231965 1_555
Ni14 P2 2.306786 1_555
Ni14 P8 2.323990 1_555
Ni14 Sr0 3.399361 1_665
Ni15 P8 2.199226 1_655
Ni15 P10 2.231965 1_555
Ni15 P3 2.306786 1_555
Ni15 P9 2.323990 1_555
Ni15 Sr0 3.399361 1_665
Ni16 P7 2.199226 1_554
Ni16 P10 2.231965 1_555
Ni16 P4 2.306786 1_654
Ni16 P6 2.323990 1_655
Ni16 Sr1 3.399361 1_555
Ni17 P6 2.199226 1_556
Ni17 P11 2.231965 1_555
Ni17 P5 2.306786 1_566
Ni17 P7 2.323990 1_565
Ni17 Sr1 3.399361 1_556
Ni18 P2 2.248981 1_555
Ni18 P5 2.248985 1_565
Ni18 P6 2.342917 1_555
Ni18 P9 2.342922 1_565
Ni19 P0 2.311455 1_655
Ni19 P11 2.311455 1_545
Ni19 P7 2.340562 1_555
Ni19 P9 2.463506 1_555
P0 Sr1 3.196993 1_556
P0 Sr0 3.196993 1_555
P1 Sr1 3.196993 1_555
P1 Sr0 3.196993 1_555
P2 Sr1 3.557009 1_555
P3 Sr1 3.557009 1_556
P4 Sr0 3.557009 1_565
P5 Sr0 3.557009 1_655
P6 Sr1 3.409251 1_555
P7 Sr1 3.409251 1_556
P8 Sr0 3.409251 1_565
P9 Sr0 3.409251 1_655
P10 Sr0 3.196993 1_665
P10 Sr1 3.196993 1_555
P11 Sr0 3.196993 1_665
P11 Sr1 3.196993 1_556
