# generated using pymatgen
data_Si3C10NO7
_symmetry_space_group_name_H-M   'P 1'
_cell_length_a   8.83998800
_cell_length_b   11.51733500
_cell_length_c   14.57949700
_cell_angle_alpha   90.00000000
_cell_angle_beta   90.00000000
_cell_angle_gamma   90.00000000
_symmetry_Int_Tables_number   1
_chemical_formula_structural   Si3C10NO7
_chemical_formula_sum   'Si12 C40 N4 O28'
_cell_volume   1484.38383255
_cell_formula_units_Z   4
loop_
 _symmetry_equiv_pos_site_id
 _symmetry_equiv_pos_as_xyz
  1  'x, y, z'
loop_
 _atom_site_type_symbol
 _atom_site_label
 _atom_site_symmetry_multiplicity
 _atom_site_fract_x
 _atom_site_fract_y
 _atom_site_fract_z
 _atom_site_occupancy
  Si  Si0  1  0.24736900  0.74470000  0.47593200  1
  Si  Si1  1  0.75263100  0.24470000  0.52406800  1
  Si  Si2  1  0.25263100  0.24470000  0.47593200  1
  Si  Si3  1  0.74736900  0.74470000  0.52406800  1
  Si  Si4  1  0.97241800  0.63206600  0.37643800  1
  Si  Si5  1  0.02758200  0.13206600  0.62356200  1
  Si  Si6  1  0.52758200  0.13206600  0.37643800  1
  Si  Si7  1  0.47241800  0.63206600  0.62356200  1
  Si  Si8  1  0.47228400  0.36042200  0.61629100  1
  Si  Si9  1  0.52771600  0.86042200  0.38370900  1
  Si  Si10  1  0.02771600  0.86042200  0.61629100  1
  Si  Si11  1  0.97228400  0.36042200  0.38370900  1
  C  C0  1  0.03316300  0.48785100  0.91888000  1
  C  C1  1  0.96683700  0.98785100  0.08112000  1
  C  C2  1  0.46683700  0.98785100  0.91888000  1
  C  C3  1  0.53316300  0.48785100  0.08112000  1
  C  C4  1  0.03476500  0.39707600  0.98234300  1
  C  C5  1  0.96523500  0.89707600  0.01765700  1
  C  C6  1  0.46523500  0.89707600  0.98234300  1
  C  C7  1  0.53476500  0.39707600  0.01765700  1
  C  C8  1  0.04997700  0.37907100  0.07237400  1
  C  C9  1  0.95002300  0.87907100  0.92762600  1
  C  C10  1  0.45002300  0.87907100  0.07237400  1
  C  C11  1  0.54997700  0.37907100  0.92762600  1
  C  C12  1  0.06651000  0.49337100  0.08773100  1
  C  C13  1  0.93349000  0.99337100  0.91226900  1
  C  C14  1  0.43349000  0.99337100  0.08773100  1
  C  C15  1  0.56651000  0.49337100  0.91226900  1
  C  C16  1  0.07436900  0.60619500  0.06554000  1
  C  C17  1  0.92563100  0.10619500  0.93446000  1
  C  C18  1  0.42563100  0.10619500  0.06554000  1
  C  C19  1  0.57436900  0.60619500  0.93446000  1
  C  C20  1  0.05491300  0.58310500  0.97646400  1
  C  C21  1  0.94508700  0.08310500  0.02353600  1
  C  C22  1  0.44508700  0.08310500  0.97646400  1
  C  C23  1  0.55491300  0.58310500  0.02353600  1
  C  C24  1  0.97871800  0.98326400  0.18074400  1
  C  C25  1  0.02128200  0.48326400  0.81925600  1
  C  C26  1  0.52128200  0.48326400  0.18074400  1
  C  C27  1  0.47871800  0.98326400  0.81925600  1
  C  C28  1  0.94526500  0.18383800  0.26242200  1
  C  C29  1  0.05473500  0.68383800  0.73757800  1
  C  C30  1  0.55473500  0.68383800  0.26242200  1
  C  C31  1  0.44526500  0.18383800  0.73757800  1
  C  C32  1  0.53108700  0.58748000  0.23147700  1
  C  C33  1  0.46891300  0.08748000  0.76852300  1
  C  C34  1  0.96891300  0.08748000  0.23147700  1
  C  C35  1  0.03108700  0.58748000  0.76852300  1
  C  C36  1  0.03564800  0.78927500  0.25116900  1
  C  C37  1  0.96435200  0.28927500  0.74883100  1
  C  C38  1  0.46435200  0.28927500  0.25116900  1
  C  C39  1  0.53564800  0.78927500  0.74883100  1
  N  N0  1  0.51415300  0.38246700  0.22065100  1
  N  N1  1  0.48584700  0.88246700  0.77934900  1
  N  N2  1  0.98584700  0.88246700  0.22065100  1
  N  N3  1  0.01415300  0.38246700  0.77934900  1
  O  O0  1  0.95952300  0.49455700  0.35326700  1
  O  O1  1  0.04047700  0.99455700  0.64673300  1
  O  O2  1  0.54047700  0.99455700  0.35326700  1
  O  O3  1  0.45952300  0.49455700  0.64673300  1
  O  O4  1  0.84527900  0.66705200  0.45242100  1
  O  O5  1  0.15472100  0.16705200  0.54757900  1
  O  O6  1  0.65472100  0.16705200  0.45242100  1
  O  O7  1  0.34527900  0.66705200  0.54757900  1
  O  O8  1  0.64215500  0.31887600  0.59150200  1
  O  O9  1  0.35784500  0.81887600  0.40849800  1
  O  O10  1  0.85784500  0.81887600  0.59150200  1
  O  O11  1  0.14215500  0.31887600  0.40849800  1
  O  O12  1  0.93667400  0.70649900  0.28220900  1
  O  O13  1  0.06332600  0.20649900  0.71779100  1
  O  O14  1  0.56332600  0.20649900  0.28220900  1
  O  O15  1  0.43667400  0.70649900  0.71779100  1
  O  O16  1  0.41282800  0.28600400  0.70734700  1
  O  O17  1  0.58717200  0.78600400  0.29265300  1
  O  O18  1  0.08717200  0.78600400  0.70734700  1
  O  O19  1  0.91282800  0.28600400  0.29265300  1
  O  O20  1  0.14060900  0.65913100  0.41588600  1
  O  O21  1  0.85939100  0.15913100  0.58411400  1
  O  O22  1  0.35939100  0.15913100  0.41588600  1
  O  O23  1  0.64060900  0.65913100  0.58411400  1
  O  O24  1  0.35806900  0.33722000  0.53130000  1
  O  O25  1  0.64193100  0.83722000  0.46870000  1
  O  O26  1  0.14193100  0.83722000  0.53130000  1
  O  O27  1  0.85806900  0.33722000  0.46870000  1
loop_
_geom_bond_atom_site_label_1
_geom_bond_atom_site_label_2
_geom_bond_distance
_geom_bond_site_symmetry_2
C0 C20 1.394766 1_555
C0 C4 1.396190 1_555
C0 C25 1.457218 1_555
C1 C21 1.394766 1_565
C1 C5 1.396190 1_555
C1 C24 1.457218 1_555
C2 C22 1.394766 1_565
C2 C6 1.396190 1_555
C2 C27 1.457218 1_555
C3 C7 1.396190 1_555
C4 C8 1.335673 1_556
C5 C9 1.335673 1_554
C10 C6 1.335673 1_554
C10 C14 1.343310 1_555
C11 C7 1.335673 1_556
C11 C15 1.343310 1_555
C12 C16 1.340904 1_555
C12 C8 1.343310 1_555
C13 C17 1.340904 1_565
C13 C9 1.343310 1_555
C14 C18 1.340904 1_565
C15 C19 1.340904 1_555
C16 C20 1.336743 1_554
C17 C21 1.336743 1_556
C18 C22 1.336743 1_554
C19 C23 1.336743 1_556
C23 C3 1.394766 1_555
C24 N2 1.300080 1_555
C24 C34 1.412554 1_565
C25 N3 1.300080 1_555
C25 C35 1.412554 1_555
C26 N0 1.300080 1_555
C26 C32 1.412554 1_555
C26 C3 1.457218 1_555
C27 N1 1.300080 1_555
C27 C33 1.412554 1_565
C28 C34 1.216091 1_555
C28 O19 1.288821 1_555
C29 C35 1.216091 1_555
C29 O18 1.288821 1_555
C30 C32 1.216091 1_555
C30 O17 1.288821 1_555
C31 C33 1.216091 1_555
C31 O16 1.288821 1_555
C36 N2 1.242499 1_455
C36 O12 1.370837 1_455
C37 N3 1.242499 1_655
C37 O13 1.370837 1_655
C38 N0 1.242499 1_555
C38 O14 1.370837 1_555
C39 N1 1.242499 1_555
C39 O15 1.370837 1_555
O0 Si11 1.611321 1_555
O0 Si4 1.623373 1_555
O1 Si10 1.611321 1_555
O1 Si5 1.623373 1_565
O2 Si9 1.611321 1_555
O2 Si6 1.623373 1_565
O3 Si8 1.611321 1_555
O3 Si7 1.623373 1_555
O4 Si3 1.624820 1_555
O4 Si4 1.628723 1_555
O5 Si2 1.624820 1_555
O5 Si5 1.628723 1_555
O6 Si1 1.624820 1_555
O6 Si6 1.628723 1_555
O7 Si0 1.624820 1_555
O7 Si7 1.628723 1_555
O8 Si8 1.616959 1_555
O8 Si1 1.627943 1_555
O9 Si9 1.616959 1_555
O9 Si0 1.627943 1_555
O10 Si10 1.616959 1_655
O10 Si3 1.627943 1_555
O11 Si11 1.616959 1_455
O11 Si2 1.627943 1_555
O12 Si4 1.649882 1_555
O13 Si5 1.649882 1_555
O14 Si6 1.649882 1_555
O15 Si7 1.649882 1_555
O16 Si8 1.665308 1_555
O17 Si9 1.665308 1_555
O18 Si10 1.665308 1_555
O19 Si11 1.665308 1_555
O20 Si0 1.621215 1_555
O20 Si4 1.624358 1_455
O21 Si1 1.621215 1_555
O21 Si5 1.624358 1_655
O22 Si2 1.621215 1_555
O22 Si6 1.624358 1_555
O23 Si3 1.621215 1_555
O23 Si7 1.624358 1_555
O24 Si8 1.620572 1_555
O24 Si2 1.629680 1_555
O25 Si9 1.620572 1_555
O25 Si3 1.629680 1_555
O26 Si10 1.620572 1_555
O26 Si0 1.629680 1_555
O27 Si11 1.620572 1_555
O27 Si1 1.629680 1_555
