# generated using pymatgen
data_Mn3O4
_symmetry_space_group_name_H-M   'P 1'
_cell_length_a   11.49933700
_cell_length_b   2.88442700
_cell_length_c   14.95094498
_cell_angle_alpha   89.41286965
_cell_angle_beta   90.00000000
_cell_angle_gamma   90.00000000
_symmetry_Int_Tables_number   1
_chemical_formula_structural   Mn3O4
_chemical_formula_sum   'Mn12 O16'
_cell_volume   495.88182901
_cell_formula_units_Z   4
loop_
 _symmetry_equiv_pos_site_id
 _symmetry_equiv_pos_as_xyz
  1  'x, y, z'
loop_
 _atom_site_type_symbol
 _atom_site_label
 _atom_site_symmetry_multiplicity
 _atom_site_fract_x
 _atom_site_fract_y
 _atom_site_fract_z
 _atom_site_occupancy
  Mn  Mn0  1  0.86458800  0.90123600  0.79515900  1
  Mn  Mn1  1  0.63884700  0.90768100  0.69784900  1
  Mn  Mn2  1  0.37881700  0.46382100  0.77900300  1
  Mn  Mn3  1  0.87881700  0.53617900  0.22099700  1
  Mn  Mn4  1  0.13884700  0.09231900  0.30215100  1
  Mn  Mn5  1  0.36458800  0.09876400  0.20484100  1
  Mn  Mn6  1  0.13266800  0.47715400  0.72495900  1
  Mn  Mn7  1  0.63266800  0.52284600  0.27504100  1
  Mn  Mn8  1  0.11744000  0.03258300  0.50242600  1
  Mn  Mn9  1  0.86819800  0.00722700  0.00011400  1
  Mn  Mn10  1  0.61744000  0.96741700  0.49757400  1
  Mn  Mn11  1  0.36819800  0.99277300  0.99988600  1
  O  O0  1  0.88256900  0.50739800  0.91190600  1
  O  O1  1  0.52446100  0.02217300  0.25705800  1
  O  O2  1  0.60607500  0.45711800  0.58743000  1
  O  O3  1  0.02446100  0.97782700  0.74294200  1
  O  O4  1  0.38256900  0.49260200  0.08809400  1
  O  O5  1  0.48844500  0.96246200  0.76753800  1
  O  O6  1  0.98844500  0.03753800  0.23246200  1
  O  O7  1  0.10607500  0.54288200  0.41257000  1
  O  O8  1  0.35148000  0.49513000  0.91768200  1
  O  O9  1  0.85148000  0.50487000  0.08231800  1
  O  O10  1  0.63450600  0.47443500  0.41585600  1
  O  O11  1  0.13450600  0.52556500  0.58414400  1
  O  O12  1  0.25703200  0.97449600  0.74754800  1
  O  O13  1  0.25487200  0.60116200  0.25624200  1
  O  O14  1  0.75703200  0.02550400  0.25245200  1
  O  O15  1  0.75487200  0.39883800  0.74375800  1
loop_
_geom_bond_atom_site_label_1
_geom_bond_atom_site_label_2
_geom_bond_distance
_geom_bond_site_symmetry_2
Mn0 O3 2.008629 1_655
Mn0 O15 2.054225 1_565
Mn0 O15 2.074891 1_555
Mn0 O0 2.083098 1_555
Mn0 O0 2.491787 1_565
Mn1 O5 2.026125 1_555
Mn1 O15 2.068387 1_565
Mn1 O15 2.093991 1_555
Mn1 O2 2.144845 1_555
Mn1 O2 2.307681 1_565
Mn2 O5 1.918920 1_555
Mn2 O5 1.927434 1_545
Mn2 O12 2.046493 1_545
Mn2 O12 2.082778 1_555
Mn2 O8 2.099935 1_555
Mn3 O6 1.918920 1_555
Mn3 O6 1.927434 1_565
Mn3 O14 2.046493 1_565
Mn3 O14 2.082778 1_555
Mn3 O9 2.099935 1_555
Mn4 O6 2.026125 1_455
Mn4 O13 2.068387 1_545
Mn4 O13 2.093991 1_555
Mn4 O7 2.144845 1_555
Mn4 O7 2.307681 1_545
Mn5 O1 2.008629 1_555
Mn5 O13 2.054225 1_545
Mn5 O13 2.074891 1_555
Mn5 O4 2.083098 1_555
Mn5 O4 2.491787 1_545
Mn6 O3 1.920167 1_545
Mn6 O3 1.927208 1_555
Mn6 O12 2.055993 1_555
Mn6 O12 2.061886 1_545
Mn6 O11 2.108621 1_555
Mn7 O1 1.920167 1_565
Mn7 O1 1.927208 1_555
Mn7 O14 2.055993 1_555
Mn7 O14 2.061886 1_565
Mn7 O10 2.108621 1_555
Mn8 O11 1.894418 1_555
Mn8 O11 1.906141 1_545
Mn8 O7 1.963659 1_545
Mn8 O7 1.986936 1_555
Mn9 O9 1.900159 1_545
Mn9 O9 1.908936 1_555
Mn9 O0 1.951649 1_554
Mn9 O0 1.970799 1_544
Mn10 O10 1.894418 1_555
Mn10 O10 1.906141 1_565
Mn10 O2 1.963659 1_565
Mn10 O2 1.986936 1_555
Mn11 O8 1.900159 1_565
Mn11 O8 1.908936 1_555
Mn11 O4 1.951649 1_556
Mn11 O4 1.970799 1_566
