# generated using pymatgen
data_LiCa2HC3
_symmetry_space_group_name_H-M   'P 1'
_cell_length_a   6.81752200
_cell_length_b   6.81752200
_cell_length_c   3.77604800
_cell_angle_alpha   90.00000000
_cell_angle_beta   90.00000000
_cell_angle_gamma   90.00000000
_symmetry_Int_Tables_number   1
_chemical_formula_structural   LiCa2HC3
_chemical_formula_sum   'Li2 Ca4 H2 C6'
_cell_volume   175.50544806
_cell_formula_units_Z   2
loop_
 _symmetry_equiv_pos_site_id
 _symmetry_equiv_pos_as_xyz
  1  'x, y, z'
loop_
 _atom_site_type_symbol
 _atom_site_label
 _atom_site_symmetry_multiplicity
 _atom_site_fract_x
 _atom_site_fract_y
 _atom_site_fract_z
 _atom_site_occupancy
  Li  Li0  1  0.50000000  0.50000000  0.00000000  1
  Li  Li1  1  0.00000000  0.00000000  0.00000000  1
  Ca  Ca0  1  0.68171000  0.18171000  0.50000000  1
  Ca  Ca1  1  0.31829000  0.81829000  0.50000000  1
  Ca  Ca2  1  0.18171000  0.31829000  0.50000000  1
  Ca  Ca3  1  0.81829000  0.68171000  0.50000000  1
  H  H0  1  0.50000000  0.50000000  0.50000000  1
  H  H1  1  0.00000000  0.00000000  0.50000000  1
  C  C0  1  0.13799700  0.63799700  0.00000000  1
  C  C1  1  0.86200300  0.36200300  0.00000000  1
  C  C2  1  0.63799700  0.86200300  0.00000000  1
  C  C3  1  0.36200300  0.13799700  0.00000000  1
  C  C4  1  0.50000000  0.00000000  0.00000000  1
  C  C5  1  0.00000000  0.50000000  0.00000000  1
loop_
_geom_bond_atom_site_label_1
_geom_bond_atom_site_label_2
_geom_bond_distance
_geom_bond_site_symmetry_2
Ca0 H0 2.498666 1_555
Ca0 H1 2.498666 1_655
Ca1 H1 2.498666 1_565
Ca1 H0 2.498666 1_555
Ca2 H0 2.498666 1_555
Ca2 H1 2.498666 1_555
Ca3 H1 2.498666 1_665
Ca3 H0 2.498666 1_555
H0 Li0 1.888024 1_556
H0 Li0 1.888024 1_555
H1 Li1 1.888024 1_555
H1 Li1 1.888024 1_556
C0 C5 1.330489 1_555
C0 Ca1 2.566371 1_555
C0 Ca1 2.566371 1_554
C0 Li1 2.641201 1_565
C0 Li0 2.641201 1_555
C1 C5 1.330489 1_655
C1 Ca0 2.566371 1_555
C1 Ca0 2.566371 1_554
C1 Li1 2.641201 1_655
C1 Li0 2.641201 1_555
C2 C4 1.330489 1_565
C2 Ca3 2.566371 1_555
C2 Ca3 2.566371 1_554
C2 Li0 2.641201 1_555
C2 Li1 2.641201 1_665
C3 C4 1.330489 1_555
C3 Ca2 2.566371 1_555
C3 Ca2 2.566371 1_554
C3 Li1 2.641201 1_555
C3 Li0 2.641201 1_555
C4 Ca1 2.575644 1_544
C4 Ca1 2.575644 1_545
C4 Ca0 2.575644 1_554
C4 Ca0 2.575644 1_555
C5 Ca2 2.575644 1_555
C5 Ca3 2.575644 1_455
C5 Ca3 2.575644 1_454
C5 Ca2 2.575644 1_554
