# generated using pymatgen
data_La(IO3)3
_symmetry_space_group_name_H-M   'P 1'
_cell_length_a   6.92033100
_cell_length_b   7.50992100
_cell_length_c   8.58794700
_cell_angle_alpha   90.00000000
_cell_angle_beta   90.00000000
_cell_angle_gamma   90.00000000
_symmetry_Int_Tables_number   1
_chemical_formula_structural   La(IO3)3
_chemical_formula_sum   'La2 I6 O18'
_cell_volume   446.32538815
_cell_formula_units_Z   2
loop_
 _symmetry_equiv_pos_site_id
 _symmetry_equiv_pos_as_xyz
  1  'x, y, z'
loop_
 _atom_site_type_symbol
 _atom_site_label
 _atom_site_symmetry_multiplicity
 _atom_site_fract_x
 _atom_site_fract_y
 _atom_site_fract_z
 _atom_site_occupancy
  La  La0  1  0.00000000  0.50000000  0.65329100  1
  La  La1  1  0.50000000  0.00000000  0.34670900  1
  I  I0  1  0.50000000  0.73122100  0.80381500  1
  I  I1  1  0.50000000  0.26877900  0.80381500  1
  I  I2  1  0.00000000  0.76877900  0.19618500  1
  I  I3  1  0.00000000  0.23122100  0.19618500  1
  I  I4  1  0.00000000  0.00000000  0.64532700  1
  I  I5  1  0.50000000  0.50000000  0.35467300  1
  O  O0  1  0.71664800  0.67564900  0.53723500  1
  O  O1  1  0.71664800  0.32435100  0.53723500  1
  O  O2  1  0.28335200  0.67564900  0.53723500  1
  O  O3  1  0.28335200  0.32435100  0.53723500  1
  O  O4  1  0.78335200  0.82435100  0.46276500  1
  O  O5  1  0.78335200  0.17564900  0.46276500  1
  O  O6  1  0.21664800  0.82435100  0.46276500  1
  O  O7  1  0.21664800  0.17564900  0.46276500  1
  O  O8  1  0.00000000  0.50000000  0.29994600  1
  O  O9  1  0.50000000  0.00000000  0.70005400  1
  O  O10  1  0.31792400  0.50000000  0.82562800  1
  O  O11  1  0.68207600  0.50000000  0.82562800  1
  O  O12  1  0.18207600  0.00000000  0.17437200  1
  O  O13  1  0.81792400  0.00000000  0.17437200  1
  O  O14  1  0.00000000  0.80428400  0.77925000  1
  O  O15  1  0.00000000  0.19571600  0.77925000  1
  O  O16  1  0.50000000  0.69571600  0.22075000  1
  O  O17  1  0.50000000  0.30428400  0.22075000  1
loop_
_geom_bond_atom_site_label_1
_geom_bond_atom_site_label_2
_geom_bond_distance
_geom_bond_site_symmetry_2
La0 O14 2.528249 1_555
La0 O15 2.528249 1_555
La0 O3 2.564862 1_555
La0 O1 2.564862 1_455
La0 O2 2.564862 1_555
La0 O0 2.564862 1_455
La0 O10 2.651617 1_555
La0 O11 2.651617 1_455
La0 O8 3.034508 1_555
La1 O17 2.528249 1_555
La1 O16 2.528249 1_545
La1 O7 2.564862 1_555
La1 O6 2.564862 1_545
La1 O5 2.564862 1_555
La1 O4 2.564862 1_545
La1 O12 2.651617 1_555
La1 O13 2.651617 1_555
La1 O9 3.034508 1_555
I0 O11 2.153607 1_555
I0 O10 2.153607 1_555
I0 O9 2.206451 1_565
I1 O11 2.153607 1_555
I1 O10 2.153607 1_555
I1 O9 2.206451 1_555
I2 O12 2.153607 1_565
I2 O13 2.153607 1_465
I2 O8 2.206451 1_555
I3 O13 2.153607 1_455
I3 O12 2.153607 1_555
I3 O8 2.206451 1_555
I4 O15 1.866315 1_555
I4 O14 1.866315 1_545
I4 O5 2.538893 1_455
I4 O7 2.538893 1_555
I4 O6 2.538893 1_545
I4 O4 2.538893 1_445
I5 O16 1.866315 1_555
I5 O17 1.866315 1_555
I5 O1 2.538893 1_555
I5 O2 2.538893 1_555
I5 O3 2.538893 1_555
I5 O0 2.538893 1_555
O0 O4 1.367192 1_555
O1 O5 1.367192 1_555
O2 O6 1.367192 1_555
O3 O7 1.367192 1_555
