# generated using pymatgen
data_AgH28S8Br2(N3O4)3
_symmetry_space_group_name_H-M   'P 1'
_cell_length_a   12.69259905
_cell_length_b   12.69259905
_cell_length_c   12.69259905
_cell_angle_alpha   115.77716065
_cell_angle_beta   115.77716065
_cell_angle_gamma   97.48436525
_symmetry_Int_Tables_number   1
_chemical_formula_structural   AgH28S8Br2(N3O4)3
_chemical_formula_sum   'Ag2 H56 S16 Br4 N18 O24'
_cell_volume   1524.08496939
_cell_formula_units_Z   2
loop_
 _symmetry_equiv_pos_site_id
 _symmetry_equiv_pos_as_xyz
  1  'x, y, z'
loop_
 _atom_site_type_symbol
 _atom_site_label
 _atom_site_symmetry_multiplicity
 _atom_site_fract_x
 _atom_site_fract_y
 _atom_site_fract_z
 _atom_site_occupancy
  Ag  Ag0  1  0.75000000  0.25000000  0.50000000  1
  Ag  Ag1  1  0.00000000  0.00000000  0.00000000  1
  H  H0  1  0.34870300  0.78752300  0.56377200  1
  H  H1  1  0.52624800  0.46247700  0.06118000  1
  H  H2  1  0.22375200  0.78493100  0.43622800  1
  H  H3  1  0.40129700  0.46506900  0.93882000  1
  H  H4  1  0.21506900  0.65129700  0.43882000  1
  H  H5  1  0.53752300  0.59870300  0.06377200  1
  H  H6  1  0.21247700  0.77624800  0.56118000  1
  H  H7  1  0.53493100  0.47375200  0.93622800  1
  H  H8  1  0.81945300  0.58644800  0.75754500  1
  H  H9  1  0.92109800  0.66355200  0.73300600  1
  H  H10  1  0.82890200  0.06190800  0.24245500  1
  H  H11  1  0.93054700  0.18809200  0.26699400  1
  H  H12  1  0.93809200  0.18054700  0.76699400  1
  H  H13  1  0.33644800  0.06945300  0.25754500  1
  H  H14  1  0.41355200  0.17109800  0.23300600  1
  H  H15  1  0.81190800  0.07890200  0.74245500  1
  H  H16  1  0.77362900  0.55641600  0.59515300  1
  H  H17  1  0.78873700  0.69358500  0.71721400  1
  H  H18  1  0.96126300  0.17847600  0.40484700  1
  H  H19  1  0.97637100  0.07152400  0.28278600  1
  H  H20  1  0.82152400  0.22637100  0.78278600  1
  H  H21  1  0.30641600  0.02362900  0.09515300  1
  H  H22  1  0.44358500  0.03873700  0.21721400  1
  H  H23  1  0.92847600  0.21126300  0.90484700  1
  H  H24  1  0.55557200  0.01255400  0.03459600  1
  H  H25  1  0.77204200  0.23744600  0.04301900  1
  H  H26  1  0.97795800  0.52097700  0.96540400  1
  H  H27  1  0.19442800  0.72902300  0.95698100  1
  H  H28  1  0.47902300  0.44442800  0.45698100  1
  H  H29  1  0.76255400  0.80557200  0.53459600  1
  H  H30  1  0.98744600  0.02204200  0.54301900  1
  H  H31  1  0.27097700  0.22795800  0.46540400  1
  H  H32  1  0.41837100  0.88741300  0.90055200  1
  H  H33  1  0.76313900  0.36258700  0.03095800  1
  H  H34  1  0.98686100  0.51781900  0.09944800  1
  H  H35  1  0.33162900  0.73218100  0.96904200  1
  H  H36  1  0.48218100  0.58162900  0.46904200  1
  H  H37  1  0.63741300  0.66837100  0.40055200  1
  H  H38  1  0.11258700  0.01313900  0.53095800  1
  H  H39  1  0.26781900  0.23686100  0.59944800  1
  H  H40  1  0.52659800  0.93105200  0.86967600  1
  H  H41  1  0.68862400  0.31894800  0.09554600  1
  H  H42  1  0.06137600  0.65692200  0.13032400  1
  H  H43  1  0.22340200  0.59307800  0.90445400  1
  H  H44  1  0.34307800  0.47340200  0.40445400  1
  H  H45  1  0.68105200  0.77659800  0.36967600  1
  H  H46  1  0.06894800  0.93862400  0.59554600  1
  H  H47  1  0.40692200  0.31137600  0.63032400  1
  H  H48  1  0.44542800  0.02227100  0.90269600  1
  H  H49  1  0.63042500  0.22772900  0.92315600  1
  H  H50  1  0.11957500  0.54273100  0.09730400  1
  H  H51  1  0.30457200  0.70726900  0.07684400  1
  H  H52  1  0.45726900  0.55457200  0.57684400  1
  H  H53  1  0.77227100  0.69542800  0.40269600  1
  H  H54  1  0.97772900  0.88042500  0.42315600  1
  H  H55  1  0.29273100  0.36957500  0.59730400  1
  S  S0  1  0.67575800  0.23520200  0.27974200  1
  S  S1  1  0.79454000  0.01479800  0.94055600  1
  S  S2  1  0.95546000  0.39601600  0.72025800  1
  S  S3  1  0.07424200  0.85398400  0.05944400  1
  S  S4  1  0.60398400  0.32424200  0.55944400  1
  S  S5  1  0.98520200  0.92575800  0.77974200  1
  S  S6  1  0.76479800  0.04454000  0.44055600  1
  S  S7  1  0.14601600  0.20546000  0.22025800  1
  S  S8  1  0.59858000  0.37113300  0.28121900  1
  S  S9  1  0.66008600  0.87886700  0.72744700  1
  S  S10  1  0.08991400  0.31736100  0.71878100  1
  S  S11  1  0.15142000  0.93263900  0.27255300  1
  S  S12  1  0.68263900  0.40142000  0.77255300  1
  S  S13  1  0.12113300  0.84858000  0.78121900  1
  S  S14  1  0.62886700  0.91008600  0.22744700  1
  S  S15  1  0.06736100  0.33991400  0.21878100  1
  Br  Br0  1  0.37896800  0.12500000  0.75396800  1
  Br  Br1  1  0.37103200  0.62500000  0.24603200  1
  Br  Br2  1  0.37500000  0.62103200  0.74603200  1
  Br  Br3  1  0.87500000  0.62896800  0.25396800  1
  N  N0  1  0.25000000  0.75000000  0.50000000  1
  N  N1  1  0.50000000  0.50000000  0.00000000  1
  N  N2  1  0.00811000  0.50811000  0.50000000  1
  N  N3  1  0.74189000  0.74189000  0.00000000  1
  N  N4  1  0.49189000  0.99189000  0.50000000  1
  N  N5  1  0.25811000  0.25811000  0.00000000  1
  N  N6  1  0.82737400  0.62500000  0.70237400  1
  N  N7  1  0.92262600  0.12500000  0.29762600  1
  N  N8  1  0.87500000  0.17262600  0.79762600  1
  N  N9  1  0.37500000  0.07737400  0.20237400  1
  N  N10  1  0.48748500  0.96483100  0.92830500  1
  N  N11  1  0.71347400  0.28516900  0.02265400  1
  N  N12  1  0.03652600  0.55918000  0.07169500  1
  N  N13  1  0.26251500  0.69082000  0.97734600  1
  N  N14  1  0.44082000  0.51251500  0.47734600  1
  N  N15  1  0.71483100  0.73748500  0.42830500  1
  N  N16  1  0.03516900  0.96347400  0.52265400  1
  N  N17  1  0.30918000  0.28652600  0.57169500  1
  O  O0  1  0.68627200  0.49756400  0.41147700  1
  O  O1  1  0.66391300  0.75243600  0.68870800  1
  O  O2  1  0.08608700  0.27479600  0.58852300  1
  O  O3  1  0.06372800  0.97520400  0.31129200  1
  O  O4  1  0.72520400  0.31372800  0.81129200  1
  O  O5  1  0.24756400  0.93627200  0.91147700  1
  O  O6  1  0.50243600  0.91391300  0.18870800  1
  O  O7  1  0.02479600  0.33608700  0.08852300  1
  O  O8  1  0.58305800  0.36783000  0.15725000  1
  O  O9  1  0.53942000  0.88217000  0.71522800  1
  O  O10  1  0.21058000  0.42580900  0.84275000  1
  O  O11  1  0.16694200  0.82419100  0.28477200  1
  O  O12  1  0.57419100  0.41694200  0.78477200  1
  O  O13  1  0.11783000  0.83305800  0.65725000  1
  O  O14  1  0.63217000  0.78942000  0.21522800  1
  O  O15  1  0.17580900  0.46058000  0.34275000  1
  O  O16  1  0.47738300  0.32602000  0.26793500  1
  O  O17  1  0.69191500  0.92398000  0.65136300  1
  O  O18  1  0.05808500  0.20944800  0.73206500  1
  O  O19  1  0.27261700  0.04055200  0.34863700  1
  O  O20  1  0.79055200  0.52261700  0.84863700  1
  O  O21  1  0.07602000  0.72738300  0.76793500  1
  O  O22  1  0.67398000  0.94191500  0.15136300  1
  O  O23  1  0.95944800  0.30808500  0.23206500  1
loop_
_geom_bond_atom_site_label_1
_geom_bond_atom_site_label_2
_geom_bond_distance
_geom_bond_site_symmetry_2
Ag0 S4 2.438202 1_555
Ag0 S6 2.438202 1_555
Ag0 S0 2.438202 1_555
Ag0 S2 2.438202 1_555
Ag1 S1 2.438202 1_454
Ag1 S7 2.438202 1_555
Ag1 S3 2.438202 1_545
Ag1 S5 2.438202 1_444
H0 N0 1.038660 1_555
H1 N1 1.038659 1_555
H2 N0 1.038660 1_555
H3 N1 1.038660 1_556
H4 N0 1.038660 1_555
H5 N1 1.038660 1_555
H6 N0 1.038659 1_555
H7 N1 1.038660 1_556
H8 N6 1.042284 1_555
H9 N6 1.042291 1_555
H10 N7 1.042293 1_555
H11 N7 1.042293 1_555
H12 N8 1.042293 1_555
H13 N9 1.042284 1_555
H14 N9 1.042291 1_555
H15 N8 1.042293 1_555
H16 N6 1.040530 1_555
H17 N6 1.040541 1_555
H18 N7 1.040530 1_555
H19 N7 1.040532 1_555
H20 N8 1.040532 1_555
H21 N9 1.040530 1_555
H22 N9 1.040541 1_555
H23 N8 1.040530 1_555
H24 N10 1.035707 1_544
H25 N11 1.035710 1_555
H26 N12 1.035710 1_656
H27 N13 1.035700 1_555
H28 N14 1.035700 1_555
H29 N15 1.035707 1_555
H30 N16 1.035710 1_645
H31 N17 1.035710 1_555
H32 N10 1.031903 1_555
H33 N11 1.031903 1_555
H34 N12 1.031903 1_655
H35 N13 1.031903 1_555
H36 N14 1.031903 1_555
H37 N15 1.031903 1_555
H38 N16 1.031903 1_545
H39 N17 1.031903 1_555
H40 N10 1.040823 1_555
H41 N11 1.040823 1_555
H42 N12 1.040823 1_555
H43 N13 1.040823 1_555
H44 N14 1.040823 1_555
H45 N15 1.040823 1_555
H46 N16 1.040823 1_555
H47 N17 1.040823 1_555
H48 N10 1.038618 1_545
H49 N11 1.038624 1_556
H50 N12 1.038624 1_555
H51 N13 1.038625 1_554
H52 N14 1.038625 1_555
H53 N15 1.038618 1_555
H54 N16 1.038624 1_655
H55 N17 1.038624 1_555
S0 S8 2.089210 1_555
S1 S9 2.089210 1_545
S10 S2 2.089210 1_455
S11 S3 2.089210 1_555
S12 S4 2.089210 1_555
S13 S5 2.089210 1_455
S14 S6 2.089210 1_565
S15 S7 2.089210 1_555
O0 S8 1.474490 1_555
O1 S9 1.474490 1_555
O2 S10 1.474492 1_555
O3 S11 1.474486 1_555
O4 S12 1.474486 1_555
O5 S13 1.474490 1_555
O6 S14 1.474490 1_555
O7 S15 1.474492 1_555
O8 S8 1.478950 1_555
O9 S9 1.478950 1_555
O10 S10 1.478954 1_555
O11 S11 1.478963 1_555
O12 S12 1.478963 1_555
O13 S13 1.478950 1_555
O14 S14 1.478950 1_555
O15 S15 1.478954 1_555
O16 S8 1.477721 1_555
O17 S9 1.477721 1_555
O18 S10 1.477721 1_555
O19 S11 1.477721 1_545
O20 S12 1.477721 1_555
O21 S13 1.477721 1_555
O22 S14 1.477721 1_555
O23 S15 1.477721 1_655
