# generated using pymatgen
data_Na2B4O17
_symmetry_space_group_name_H-M   'P 1'
_cell_length_a   7.60902771
_cell_length_b   7.60902771
_cell_length_c   13.53406152
_cell_angle_alpha   79.58313763
_cell_angle_beta   79.58313763
_cell_angle_gamma   90.79225930
_symmetry_Int_Tables_number   1
_chemical_formula_structural   Na2B4O17
_chemical_formula_sum   'Na4 B8 O34'
_cell_volume   757.09186600
_cell_formula_units_Z   2
loop_
 _symmetry_equiv_pos_site_id
 _symmetry_equiv_pos_as_xyz
  1  'x, y, z'
loop_
 _atom_site_type_symbol
 _atom_site_label
 _atom_site_symmetry_multiplicity
 _atom_site_fract_x
 _atom_site_fract_y
 _atom_site_fract_z
 _atom_site_occupancy
  Na  Na0  1  0.50000000  0.00000000  0.50000000  1
  Na  Na1  1  0.00000000  0.50000000  0.00000000  1
  Na  Na2  1  0.46479600  0.53520400  0.75000000  1
  Na  Na3  1  0.53520400  0.46479600  0.25000000  1
  B  B0  1  0.96608200  0.22384300  0.72331500  1
  B  B1  1  0.77615700  0.03391800  0.77668500  1
  B  B2  1  0.03391800  0.77615700  0.27668500  1
  B  B3  1  0.22384300  0.96608200  0.22331500  1
  B  B4  1  0.82736300  0.21461900  0.89342800  1
  B  B5  1  0.78538100  0.17263700  0.60657200  1
  B  B6  1  0.17263700  0.78538100  0.10657200  1
  B  B7  1  0.21461900  0.82736300  0.39342800  1
  O  O0  1  0.96503300  0.03496700  0.75000000  1
  O  O1  1  0.03496700  0.96503300  0.25000000  1
  O  O2  1  0.95562500  0.30983000  0.80598300  1
  O  O3  1  0.69017000  0.04437500  0.69401700  1
  O  O4  1  0.04437500  0.69017000  0.19401700  1
  O  O5  1  0.30983000  0.95562500  0.30598300  1
  O  O6  1  0.91234100  0.29179800  0.63234700  1
  O  O7  1  0.70820200  0.08765900  0.86765300  1
  O  O8  1  0.08765900  0.70820200  0.36765300  1
  O  O9  1  0.29179800  0.91234100  0.13234700  1
  O  O10  1  0.31172000  0.23009200  0.69092000  1
  O  O11  1  0.76990800  0.68828000  0.80908000  1
  O  O12  1  0.68828000  0.76990800  0.30908000  1
  O  O13  1  0.23009200  0.31172000  0.19092000  1
  O  O14  1  0.81920700  0.25763200  0.98412000  1
  O  O15  1  0.74236800  0.18079300  0.51588000  1
  O  O16  1  0.18079300  0.74236800  0.01588000  1
  O  O17  1  0.25763200  0.81920700  0.48412000  1
  O  O18  1  0.30407500  0.39680300  0.90639200  1
  O  O19  1  0.60319700  0.69592500  0.59360800  1
  O  O20  1  0.69592500  0.60319700  0.09360800  1
  O  O21  1  0.39680300  0.30407500  0.40639200  1
  O  O22  1  0.34307600  0.07018400  0.69842600  1
  O  O23  1  0.92981600  0.65692400  0.80157400  1
  O  O24  1  0.65692400  0.92981600  0.30157400  1
  O  O25  1  0.07018400  0.34307600  0.19842600  1
  O  O26  1  0.88820300  0.81723100  0.00101900  1
  O  O27  1  0.18276900  0.11179700  0.49898100  1
  O  O28  1  0.11179700  0.18276900  0.99898100  1
  O  O29  1  0.81723100  0.88820300  0.50101900  1
  O  O30  1  0.77420700  0.76123500  0.57843600  1
  O  O31  1  0.23876500  0.22579300  0.92156400  1
  O  O32  1  0.22579300  0.23876500  0.42156400  1
  O  O33  1  0.76123500  0.77420700  0.07843600  1
loop_
_geom_bond_atom_site_label_1
_geom_bond_atom_site_label_2
_geom_bond_distance
_geom_bond_site_symmetry_2
Na0 O15 2.349411 1_555
Na0 O17 2.349411 1_545
Na0 O29 2.571950 1_545
Na0 O27 2.571950 1_555
Na0 O19 2.631517 1_545
Na0 O21 2.631517 1_555
Na0 O22 2.880897 1_555
Na0 O24 2.880897 1_545
Na1 O16 2.349411 1_555
Na1 O14 2.349411 1_454
Na1 O26 2.571950 1_455
Na1 O28 2.571950 1_554
Na1 O20 2.631517 1_455
Na1 O18 2.631517 1_554
Na1 O25 2.880897 1_555
Na1 O23 2.880897 1_454
Na2 O19 2.303682 1_555
Na2 O18 2.303682 1_555
Na2 O11 2.884295 1_555
Na2 O10 2.884295 1_555
Na3 O20 2.303682 1_555
Na3 O21 2.303682 1_555
Na3 O12 2.884295 1_555
Na3 O13 2.884295 1_555
B0 O6 1.381319 1_555
B0 O2 1.385699 1_555
B0 O0 1.416644 1_555
B1 O7 1.381319 1_555
B1 O3 1.385699 1_555
B1 O0 1.416644 1_555
B2 O8 1.381319 1_555
B2 O4 1.385699 1_555
B2 O1 1.416644 1_555
B3 O9 1.381319 1_555
B3 O5 1.385699 1_555
B3 O1 1.416644 1_555
B4 O14 1.317513 1_555
B4 O7 1.445354 1_555
B4 O2 1.459687 1_555
B5 O15 1.317513 1_555
B5 O6 1.445354 1_555
B5 O3 1.459687 1_555
B6 O16 1.317513 1_555
B6 O9 1.445354 1_555
B6 O4 1.459687 1_555
B7 O17 1.317513 1_555
B7 O8 1.445354 1_555
B7 O5 1.459687 1_555
O10 O22 1.232804 1_555
O11 O23 1.232804 1_555
O12 O24 1.232804 1_555
O13 O25 1.232804 1_555
O18 O31 1.353103 1_555
O19 O30 1.353103 1_555
O20 O33 1.353103 1_555
O21 O32 1.353103 1_555
O26 O33 1.280434 1_555
O27 O32 1.280434 1_555
O28 O31 1.280434 1_555
O29 O30 1.280434 1_555
