# generated using pymatgen
data_BaSrTbZrO6
_symmetry_space_group_name_H-M   'P 1'
_cell_length_a   6.06131108
_cell_length_b   6.10939419
_cell_length_c   8.58579945
_cell_angle_alpha   90.17760698
_cell_angle_beta   90.15422372
_cell_angle_gamma   90.02597735
_symmetry_Int_Tables_number   1
_chemical_formula_structural   BaSrTbZrO6
_chemical_formula_sum   'Ba2 Sr2 Tb2 Zr2 O12'
_cell_volume   317.93749977
_cell_formula_units_Z   2
loop_
 _symmetry_equiv_pos_site_id
 _symmetry_equiv_pos_as_xyz
  1  'x, y, z'
loop_
 _atom_site_type_symbol
 _atom_site_label
 _atom_site_symmetry_multiplicity
 _atom_site_fract_x
 _atom_site_fract_y
 _atom_site_fract_z
 _atom_site_occupancy
  Ba  Ba0  1  0.50615193  0.52805586  0.24999678  1
  Ba  Ba1  1  0.49384807  0.47194414  0.75000322  1
  Sr  Sr0  1  0.99292090  0.03335816  0.25050450  1
  Sr  Sr1  1  0.00707910  0.96664184  0.74949550  1
  Tb  Tb0  1  0.00000000  0.50000000  0.00000000  1
  Tb  Tb1  1  0.50000000  0.00000000  0.50000000  1
  Zr  Zr0  1  0.50000000  0.00000000  0.00000000  1
  Zr  Zr1  1  0.00000000  0.50000000  0.50000000  1
  O  O0  1  0.22156570  0.20354949  0.95379197  1
  O  O1  1  0.27495097  0.70884092  0.53354157  1
  O  O2  1  0.77843430  0.79645051  0.04620803  1
  O  O3  1  0.72504903  0.29115908  0.46645843  1
  O  O4  1  0.29244668  0.72581824  0.96304412  1
  O  O5  1  0.20147419  0.22074238  0.54579132  1
  O  O6  1  0.70755332  0.27418176  0.03695588  1
  O  O7  1  0.79852581  0.77925762  0.45420868  1
  O  O8  1  0.41284119  0.99062778  0.24043472  1
  O  O9  1  0.06782083  0.46309642  0.25896905  1
  O  O10  1  0.58715881  0.00937222  0.75956528  1
  O  O11  1  0.93217917  0.53690358  0.74103095  1
loop_
_geom_bond_atom_site_label_1
_geom_bond_atom_site_label_2
_geom_bond_distance
_geom_bond_site_symmetry_2
Ba0 O9 2.687505 1_555
Ba0 O6 2.690307 1_555
Ba0 O3 2.704482 1_555
Ba0 O8 2.883701 1_555
Ba0 O2 2.916296 1_555
Ba0 O7 2.921322 1_555
Ba0 O1 3.018849 1_555
Ba0 O4 3.034841 1_554
Ba0 O8 3.332188 1_545
Ba1 O11 2.687505 1_555
Ba1 O4 2.690307 1_555
Ba1 O1 2.704482 1_555
Ba1 O10 2.883701 1_555
Ba1 O0 2.916296 1_555
Ba1 O5 2.921322 1_555
Ba1 O3 3.018849 1_555
Ba1 O6 3.034841 1_556
Ba1 O10 3.332188 1_565
O0 Zr0 2.133884 1_556
O0 Tb0 2.289500 1_556
O0 Sr1 2.613810 1_545
O0 Sr0 3.086381 1_456
O1 Zr1 2.116950 1_555
O1 Tb1 2.260734 1_565
O1 Sr1 2.924919 1_555
O2 Zr0 2.133884 1_565
O2 Tb0 2.289500 1_655
O2 Sr0 2.613810 1_565
O2 Sr1 3.086381 1_654
O3 Zr1 2.116950 1_655
O3 Tb1 2.260734 1_555
O3 Sr0 2.924919 1_555
O4 Zr0 2.117052 1_566
O4 Tb0 2.269290 1_556
O4 Sr1 2.918935 1_555
O5 Zr1 2.135443 1_555
O5 Tb1 2.291330 1_555
O5 Sr1 2.623633 1_545
O5 Sr0 3.049523 1_455
O6 Zr0 2.117052 1_555
O6 Tb0 2.269290 1_655
O6 Sr0 2.918935 1_555
O7 Zr1 2.135443 1_655
O7 Tb1 2.291330 1_565
O7 Sr0 2.623633 1_565
O7 Sr1 3.049523 1_655
O8 Zr0 2.133164 1_565
O8 Tb1 2.289491 1_565
O8 Sr0 2.560402 1_465
O9 Zr1 2.122307 1_555
O9 Tb0 2.271971 1_555
O9 Sr0 2.664936 1_455
O10 Zr0 2.133164 1_556
O10 Tb1 2.289491 1_555
O10 Sr1 2.560402 1_645
O11 Zr1 2.122307 1_655
O11 Tb0 2.271971 1_656
O11 Sr1 2.664936 1_655
