# generated using pymatgen
data_VPNO6
_symmetry_space_group_name_H-M   'P 1'
_cell_length_a   6.65305700
_cell_length_b   10.09626900
_cell_length_c   18.97267300
_cell_angle_alpha   90.00000000
_cell_angle_beta   90.00000000
_cell_angle_gamma   90.00000000
_symmetry_Int_Tables_number   1
_chemical_formula_structural   VPNO6
_chemical_formula_sum   'V8 P8 N8 O48'
_cell_volume   1274.41442637
_cell_formula_units_Z   8
loop_
 _symmetry_equiv_pos_site_id
 _symmetry_equiv_pos_as_xyz
  1  'x, y, z'
loop_
 _atom_site_type_symbol
 _atom_site_label
 _atom_site_symmetry_multiplicity
 _atom_site_fract_x
 _atom_site_fract_y
 _atom_site_fract_z
 _atom_site_occupancy
  V  V0  1  0.53581800  0.95212000  0.74217200  1
  V  V1  1  0.03581800  0.54788000  0.25782800  1
  V  V2  1  0.46418200  0.45212000  0.75782800  1
  V  V3  1  0.96418200  0.04788000  0.24217200  1
  V  V4  1  0.46418200  0.04788000  0.25782800  1
  V  V5  1  0.96418200  0.45212000  0.74217200  1
  V  V6  1  0.53581800  0.54788000  0.24217200  1
  V  V7  1  0.03581800  0.95212000  0.75782800  1
  P  P0  1  0.29885500  0.94225900  0.89292600  1
  P  P1  1  0.79885500  0.55774100  0.10707400  1
  P  P2  1  0.70114500  0.44225900  0.60707400  1
  P  P3  1  0.20114500  0.05774100  0.39292600  1
  P  P4  1  0.70114500  0.05774100  0.10707400  1
  P  P5  1  0.20114500  0.44225900  0.89292600  1
  P  P6  1  0.29885500  0.55774100  0.39292600  1
  P  P7  1  0.79885500  0.94225900  0.60707400  1
  N  N0  1  0.63336800  0.78334300  0.41518800  1
  N  N1  1  0.13336800  0.71665700  0.58481200  1
  N  N2  1  0.36663200  0.28334300  0.08481200  1
  N  N3  1  0.86663200  0.21665700  0.91518800  1
  N  N4  1  0.36663200  0.21665700  0.58481200  1
  N  N5  1  0.86663200  0.28334300  0.41518800  1
  N  N6  1  0.63336800  0.71665700  0.91518800  1
  N  N7  1  0.13336800  0.78334300  0.08481200  1
  O  O0  1  0.46692300  0.73501200  0.93142500  1
  O  O1  1  0.96692300  0.76498800  0.06857500  1
  O  O2  1  0.53307700  0.23501200  0.56857500  1
  O  O3  1  0.03307700  0.26498800  0.43142500  1
  O  O4  1  0.53307700  0.26498800  0.06857500  1
  O  O5  1  0.03307700  0.23501200  0.93142500  1
  O  O6  1  0.46692300  0.76498800  0.43142500  1
  O  O7  1  0.96692300  0.73501200  0.56857500  1
  O  O8  1  0.28514000  0.98833000  0.96606600  1
  O  O9  1  0.78514000  0.51167000  0.03393400  1
  O  O10  1  0.71486000  0.48833000  0.53393400  1
  O  O11  1  0.21486000  0.01167000  0.46606600  1
  O  O12  1  0.71486000  0.01167000  0.03393400  1
  O  O13  1  0.21486000  0.48833000  0.96606600  1
  O  O14  1  0.28514000  0.51167000  0.46606600  1
  O  O15  1  0.78514000  0.98833000  0.53393400  1
  O  O16  1  0.61642800  0.88549700  0.64511400  1
  O  O17  1  0.11642800  0.61450300  0.35488600  1
  O  O18  1  0.38357200  0.38549700  0.85488600  1
  O  O19  1  0.88357200  0.11450300  0.14511400  1
  O  O20  1  0.38357200  0.11450300  0.35488600  1
  O  O21  1  0.88357200  0.38549700  0.64511400  1
  O  O22  1  0.61642800  0.61450300  0.14511400  1
  O  O23  1  0.11642800  0.88549700  0.85488600  1
  O  O24  1  0.97813700  0.97337100  0.65365900  1
  O  O25  1  0.47813700  0.52662900  0.34634100  1
  O  O26  1  0.02186300  0.47337100  0.84634100  1
  O  O27  1  0.52186300  0.02662900  0.15365900  1
  O  O28  1  0.02186300  0.02662900  0.34634100  1
  O  O29  1  0.52186300  0.47337100  0.65365900  1
  O  O30  1  0.97813700  0.52662900  0.15365900  1
  O  O31  1  0.47813700  0.97337100  0.84634100  1
  O  O32  1  0.45641200  0.89216800  0.27720800  1
  O  O33  1  0.95641200  0.60783200  0.72279200  1
  O  O34  1  0.54358800  0.39216800  0.22279200  1
  O  O35  1  0.04358800  0.10783200  0.77720800  1
  O  O36  1  0.54358800  0.10783200  0.72279200  1
  O  O37  1  0.04358800  0.39216800  0.27720800  1
  O  O38  1  0.45641200  0.60783200  0.77720800  1
  O  O39  1  0.95641200  0.89216800  0.22279200  1
  O  O40  1  0.71352700  0.11056300  0.26996500  1
  O  O41  1  0.21352700  0.38943700  0.73003500  1
  O  O42  1  0.28647300  0.61056300  0.23003500  1
  O  O43  1  0.78647300  0.88943700  0.76996500  1
  O  O44  1  0.28647300  0.88943700  0.73003500  1
  O  O45  1  0.78647300  0.61056300  0.26996500  1
  O  O46  1  0.71352700  0.38943700  0.76996500  1
  O  O47  1  0.21352700  0.11056300  0.23003500  1
loop_
_geom_bond_atom_site_label_1
_geom_bond_atom_site_label_2
_geom_bond_distance
_geom_bond_site_symmetry_2
N0 O6 1.164262 1_555
N1 O7 1.164262 1_455
N2 O4 1.164262 1_555
N3 O5 1.164262 1_655
N4 O2 1.164262 1_555
N5 O3 1.164262 1_655
N6 O0 1.164262 1_555
N7 O1 1.164262 1_455
O8 P0 1.466387 1_555
O9 P1 1.466387 1_555
O10 P2 1.466387 1_555
O11 P3 1.466387 1_555
O12 P4 1.466387 1_555
O13 P5 1.466387 1_555
O14 P6 1.466387 1_555
O15 P7 1.466387 1_555
O16 P7 1.523931 1_555
O16 V0 2.032488 1_555
O17 P6 1.523931 1_555
O17 V1 2.032488 1_555
O18 P5 1.523931 1_555
O18 V2 2.032488 1_555
O19 P4 1.523931 1_555
O19 V3 2.032488 1_555
O20 P3 1.523931 1_555
O20 V4 2.032488 1_555
O21 P2 1.523931 1_555
O21 V5 2.032488 1_555
O22 P1 1.523931 1_555
O22 V6 2.032488 1_555
O23 P0 1.523931 1_555
O23 V7 2.032488 1_555
O24 P7 1.517417 1_555
O24 V7 2.024677 1_655
O25 P6 1.517417 1_555
O25 V6 2.024677 1_555
O26 P5 1.517417 1_555
O26 V5 2.024677 1_455
O27 P4 1.517417 1_555
O27 V4 2.024677 1_555
O28 P3 1.517417 1_555
O28 V3 2.024677 1_455
O29 P2 1.517417 1_555
O29 V2 2.024677 1_555
O30 P1 1.517417 1_555
O30 V1 2.024677 1_655
O31 P0 1.517417 1_555
O31 V0 2.024677 1_555
O32 V4 1.615363 1_565
O33 V5 1.615363 1_555
O34 V6 1.615363 1_555
O35 V7 1.615363 1_545
O36 V0 1.615363 1_545
O37 V1 1.615363 1_555
O38 V2 1.615363 1_555
O39 V3 1.615363 1_565
O40 V4 1.790395 1_555
O40 V3 1.859982 1_555
O41 V5 1.790395 1_455
O41 V2 1.859982 1_555
O42 V6 1.790395 1_555
O42 V1 1.859982 1_555
O43 V7 1.790395 1_655
O43 V0 1.859982 1_555
O44 V0 1.790395 1_555
O44 V7 1.859982 1_555
O45 V1 1.790395 1_655
O45 V6 1.859982 1_555
O46 V2 1.790395 1_555
O46 V5 1.859982 1_555
O47 V3 1.790395 1_455
O47 V4 1.859982 1_555
