# generated using pymatgen
data_Na4ZnP3H32C3NO22
_symmetry_space_group_name_H-M   'P 1'
_cell_length_a   11.24458300
_cell_length_b   11.38539963
_cell_length_c   12.52294774
_cell_angle_alpha   109.00788668
_cell_angle_beta   97.13379322
_cell_angle_gamma   117.17010349
_symmetry_Int_Tables_number   1
_chemical_formula_structural   Na4ZnP3H32C3NO22
_chemical_formula_sum   'Na8 Zn2 P6 H64 C6 N2 O44'
_cell_volume   1275.60244490
_cell_formula_units_Z   2
loop_
 _symmetry_equiv_pos_site_id
 _symmetry_equiv_pos_as_xyz
  1  'x, y, z'
loop_
 _atom_site_type_symbol
 _atom_site_label
 _atom_site_symmetry_multiplicity
 _atom_site_fract_x
 _atom_site_fract_y
 _atom_site_fract_z
 _atom_site_occupancy
  Na  Na0  1  0.01668800  0.41697400  0.80654400  1
  Na  Na1  1  0.98331200  0.58302600  0.19345600  1
  Na  Na2  1  0.82709800  0.45305300  0.41215400  1
  Na  Na3  1  0.17290200  0.54694700  0.58784600  1
  Na  Na4  1  0.75973600  0.47061900  0.68786900  1
  Na  Na5  1  0.24026400  0.52938100  0.31213100  1
  Na  Na6  1  0.38301100  0.81411800  0.97370900  1
  Na  Na7  1  0.61698900  0.18588200  0.02629100  1
  Zn  Zn0  1  0.92325700  0.89431200  0.86062200  1
  Zn  Zn1  1  0.07674300  0.10568800  0.13937800  1
  P  P0  1  0.05207200  0.78914200  0.68323000  1
  P  P1  1  0.94792800  0.21085800  0.31677000  1
  P  P2  1  0.12929800  0.24038600  0.93441000  1
  P  P3  1  0.87070200  0.75961400  0.06559000  1
  P  P4  1  0.67695900  0.84830900  0.68365900  1
  P  P5  1  0.32304100  0.15169100  0.31634100  1
  H  H0  1  0.66609900  0.92377400  0.94087500  1
  H  H1  1  0.33390100  0.07622600  0.05912500  1
  H  H2  1  0.69830600  0.99913300  0.08075600  1
  H  H3  1  0.30169400  0.00086700  0.91924400  1
  H  H4  1  0.08106500  0.70838400  0.86568400  1
  H  H5  1  0.91893500  0.29161600  0.13431600  1
  H  H6  1  0.76746900  0.24829800  0.57982600  1
  H  H7  1  0.23253100  0.75170200  0.42017400  1
  H  H8  1  0.62752400  0.63425500  0.76677600  1
  H  H9  1  0.37247600  0.36574500  0.23322400  1
  H  H10  1  0.66296000  0.56865900  0.53929900  1
  H  H11  1  0.33704000  0.43134100  0.46070100  1
  H  H12  1  0.37078800  0.51822600  0.96928600  1
  H  H13  1  0.62921200  0.48177400  0.03071400  1
  H  H14  1  0.56774600  0.18612400  0.26217500  1
  H  H15  1  0.43225400  0.81387600  0.73782500  1
  H  H16  1  0.53222200  0.15713200  0.46975900  1
  H  H17  1  0.46777800  0.84286800  0.53024100  1
  H  H18  1  0.85134400  0.50320300  0.92843500  1
  H  H19  1  0.14865600  0.49679700  0.07156500  1
  H  H20  1  0.64560700  0.57619800  0.86031700  1
  H  H21  1  0.35439300  0.42380200  0.13968300  1
  H  H22  1  0.69751100  0.17394700  0.24095600  1
  H  H23  1  0.30248900  0.82605300  0.75904400  1
  H  H24  1  0.56530300  0.40066300  0.47659500  1
  H  H25  1  0.43469700  0.59933700  0.52340500  1
  H  H26  1  0.90209400  0.31385000  0.53824600  1
  H  H27  1  0.09790600  0.68615000  0.46175400  1
  H  H28  1  0.51662500  0.63885100  0.97400400  1
  H  H29  1  0.48337500  0.36114900  0.02599600  1
  H  H30  1  0.08199300  0.69033500  0.98180800  1
  H  H31  1  0.91800700  0.30966500  0.01819200  1
  H  H32  1  0.24087400  0.38199500  0.68470200  1
  H  H33  1  0.75912600  0.61800500  0.31529800  1
  H  H34  1  0.52083500  0.13636800  0.58683300  1
  H  H35  1  0.47916500  0.86363200  0.41316700  1
  H  H36  1  0.74490200  0.32891400  0.84954500  1
  H  H37  1  0.25509800  0.67108600  0.15045500  1
  H  H38  1  0.64714100  0.70582900  0.43694300  1
  H  H39  1  0.35285900  0.29417100  0.56305700  1
  H  H40  1  0.30998500  0.01861700  0.68890000  1
  H  H41  1  0.69001500  0.98138300  0.31110000  1
  H  H42  1  0.47150000  0.85239400  0.22058800  1
  H  H43  1  0.52850000  0.14760600  0.77941200  1
  H  H44  1  0.28672200  0.52286100  0.79393700  1
  H  H45  1  0.71327800  0.47713900  0.20606300  1
  H  H46  1  0.38794500  0.92973100  0.21990000  1
  H  H47  1  0.61205500  0.07026900  0.78010000  1
  H  H48  1  0.55853700  0.60446500  0.30197600  1
  H  H49  1  0.44146300  0.39553500  0.69802400  1
  H  H50  1  0.35586800  0.16205400  0.66378400  1
  H  H51  1  0.64413200  0.83794600  0.33621600  1
  H  H52  1  0.18485600  0.10567000  0.78294400  1
  H  H53  1  0.81514400  0.89433000  0.21705600  1
  H  H54  1  0.02813900  0.92308200  0.57150500  1
  H  H55  1  0.97186100  0.07691800  0.42849500  1
  H  H56  1  0.86333700  0.78565200  0.56728600  1
  H  H57  1  0.13666300  0.21434800  0.43271400  1
  H  H58  1  0.10744000  0.18685800  0.72446300  1
  H  H59  1  0.89256000  0.81314200  0.27553700  1
  H  H60  1  0.86079600  0.09891400  0.75468300  1
  H  H61  1  0.13920400  0.90108600  0.24531700  1
  H  H62  1  0.83093600  0.00170400  0.60065500  1
  H  H63  1  0.16906400  0.99829600  0.39934500  1
  C  C0  1  0.97109700  0.87372100  0.62582700  1
  C  C1  1  0.02890300  0.12627900  0.37417300  1
  C  C2  1  0.09877400  0.12646700  0.77918400  1
  C  C3  1  0.90122600  0.87353300  0.22081600  1
  C  C4  1  0.84213300  0.99637700  0.68749100  1
  C  C5  1  0.15786700  0.00362300  0.31250900  1
  N  N0  1  0.96374900  0.98277300  0.72494700  1
  N  N1  1  0.03625100  0.01722700  0.27505300  1
  O  O0  1  0.20921000  0.90787400  0.75346300  1
  O  O1  1  0.79079000  0.09212600  0.24653700  1
  O  O2  1  0.02900400  0.65749800  0.57709200  1
  O  O3  1  0.97099600  0.34250200  0.42290800  1
  O  O4  1  0.97022300  0.74281600  0.76934300  1
  O  O5  1  0.02977700  0.25718400  0.23065700  1
  O  O6  1  0.06812800  0.12085000  0.98292000  1
  O  O7  1  0.93187200  0.87915000  0.01708000  1
  O  O8  1  0.28958200  0.34792800  0.99203800  1
  O  O9  1  0.71041800  0.65207200  0.00796200  1
  O  O10  1  0.04665700  0.31736100  0.93802400  1
  O  O11  1  0.95334300  0.68263900  0.06197600  1
  O  O12  1  0.62698800  0.70670300  0.57237100  1
  O  O13  1  0.37301200  0.29329700  0.42762900  1
  O  O14  1  0.57013100  0.89651700  0.68204600  1
  O  O15  1  0.42986900  0.10348300  0.31795400  1
  O  O16  1  0.71828100  0.83526900  0.80141000  1
  O  O17  1  0.28171900  0.16473100  0.19859000  1
  O  O18  1  0.81917800  0.42122400  0.84973100  1
  O  O19  1  0.18082200  0.57877600  0.15026900  1
  O  O20  1  0.66713800  0.47862000  0.51141900  1
  O  O21  1  0.33286200  0.52138000  0.48858100  1
  O  O22  1  0.63079100  0.96320800  0.00245300  1
  O  O23  1  0.36920900  0.03679200  0.99754700  1
  O  O24  1  0.12462300  0.67915300  0.91727500  1
  O  O25  1  0.87537700  0.32084700  0.08272500  1
  O  O26  1  0.65297500  0.23185000  0.23899700  1
  O  O27  1  0.34702500  0.76815000  0.76100300  1
  O  O28  1  0.38662800  0.84025400  0.17070800  1
  O  O29  1  0.61337200  0.15974600  0.82929200  1
  O  O30  1  0.61081100  0.54341000  0.77175900  1
  O  O31  1  0.38918900  0.45659000  0.22824100  1
  O  O32  1  0.65377600  0.69333200  0.35556700  1
  O  O33  1  0.34622400  0.30666800  0.64443300  1
  O  O34  1  0.20462400  0.44492800  0.72201300  1
  O  O35  1  0.79537600  0.55507200  0.27798700  1
  O  O36  1  0.41595900  0.60600900  0.95354600  1
  O  O37  1  0.58404100  0.39399100  0.04645400  1
  O  O38  1  0.58803300  0.19279500  0.55349800  1
  O  O39  1  0.41196700  0.80720500  0.44650200  1
  O  O40  1  0.87094000  0.32020300  0.60960400  1
  O  O41  1  0.12906000  0.67979700  0.39039600  1
  O  O42  1  0.38117600  0.08956300  0.66605200  1
  O  O43  1  0.61882400  0.91043700  0.33394800  1
loop_
_geom_bond_atom_site_label_1
_geom_bond_atom_site_label_2
_geom_bond_distance
_geom_bond_site_symmetry_2
Na0 O10 2.353395 1_555
Na0 O40 2.357820 1_455
Na0 O18 2.367856 1_455
Na0 O34 2.418387 1_555
Na0 O24 2.425543 1_555
Na1 O11 2.353395 1_555
Na1 O41 2.357820 1_655
Na1 O19 2.367856 1_655
Na1 O35 2.418387 1_555
Na1 O25 2.425543 1_555
Na2 O20 2.379721 1_555
Na2 O2 2.390832 1_655
Na2 O26 2.400656 1_555
Na2 O35 2.408341 1_555
Na2 O3 2.477258 1_555
Na3 O21 2.379721 1_555
Na3 O3 2.390832 1_455
Na3 O27 2.400656 1_555
Na3 O34 2.408341 1_555
Na3 O2 2.477258 1_555
Na4 O18 2.370878 1_555
Na4 O20 2.370950 1_555
Na4 O30 2.394170 1_555
Na4 O40 2.573671 1_555
Na4 O38 2.590969 1_555
Na4 O4 2.624665 1_555
Na5 O19 2.370878 1_555
Na5 O21 2.370950 1_555
Na5 O31 2.394170 1_555
Na5 O41 2.573671 1_555
Na5 O39 2.590969 1_555
Na5 O5 2.624665 1_555
Na6 O28 2.379530 1_556
Na6 O22 2.409855 1_556
Na6 O24 2.451045 1_555
Na6 O27 2.482691 1_555
Na6 O36 2.500062 1_555
Na6 O23 2.533467 1_565
Na7 O29 2.379530 1_554
Na7 O23 2.409855 1_554
Na7 O25 2.451045 1_555
Na7 O26 2.482691 1_555
Na7 O37 2.500062 1_555
Na7 O22 2.533467 1_545
H0 O22 0.983446 1_556
H1 O23 0.983446 1_554
H2 O22 0.987647 1_555
H3 O23 0.987647 1_555
H4 O24 0.989140 1_555
H5 O25 0.989140 1_555
H6 O40 0.993206 1_555
H6 Na4 2.498920 1_555
H7 O41 0.993206 1_555
H7 Na5 2.498920 1_555
H8 O30 0.988149 1_555
H9 O31 0.988149 1_555
H10 O20 0.994943 1_555
H11 O21 0.994943 1_555
H12 O36 0.992628 1_555
H13 O37 0.992628 1_555
H14 O26 0.992778 1_555
H15 O27 0.992778 1_555
H16 O38 0.992403 1_555
H17 O39 0.992403 1_555
H18 O18 0.988594 1_555
H19 O19 0.988594 1_555
H20 O30 1.005733 1_555
H20 O9 1.657082 1_556
H21 O31 1.005733 1_555
H21 O8 1.657082 1_554
H22 O26 0.997494 1_555
H23 O27 0.997494 1_555
H24 O20 0.992388 1_555
H25 O21 0.992388 1_555
H26 O40 0.992615 1_555
H27 O41 0.992615 1_555
H28 O36 0.982741 1_555
H29 O37 0.982741 1_555
H30 O24 0.991977 1_555
H31 O25 0.991977 1_555
H32 O34 0.996906 1_555
H33 O35 0.996906 1_555
H34 O38 0.983697 1_555
H35 O39 0.983697 1_555
H36 O18 0.999204 1_555
H37 O19 0.999204 1_555
H38 O32 0.999219 1_555
H39 O33 0.999219 1_555
H40 O42 0.996018 1_555
H41 O43 0.996018 1_555
H42 O28 0.997647 1_555
H43 O29 0.997647 1_555
H44 O34 0.987724 1_555
H45 O35 0.987724 1_555
H46 O28 0.996336 1_555
H47 O29 0.996336 1_555
H48 O32 1.005283 1_555
H49 O33 1.005283 1_555
H50 O42 0.995359 1_555
H51 O43 0.995359 1_555
C0 H56 1.096373 1_555
C0 H54 1.103731 1_655
C0 N0 1.484727 1_555
C0 P0 1.833638 1_655
C1 H57 1.096373 1_555
C1 H55 1.103731 1_455
C1 N1 1.484727 1_555
C1 P1 1.833638 1_455
C2 H52 1.095664 1_555
C2 H58 1.101892 1_555
C2 N0 1.481424 1_445
C2 P2 1.834159 1_555
C3 H53 1.095664 1_555
C3 H59 1.101892 1_555
C3 N1 1.481424 1_665
C3 P3 1.834159 1_555
C4 H60 1.098846 1_565
C4 H62 1.103627 1_565
C4 N0 1.481745 1_555
C4 P4 1.832902 1_555
C5 H61 1.098846 1_545
C5 H63 1.103627 1_545
C5 N1 1.481745 1_555
C5 P5 1.832902 1_555
N0 Zn0 2.235283 1_555
N1 Zn1 2.235283 1_555
O0 P0 1.543109 1_555
O1 P1 1.543109 1_555
O2 P0 1.530368 1_555
O3 P1 1.530368 1_555
O4 P0 1.569031 1_655
O4 Zn0 2.063528 1_555
O5 P1 1.569031 1_455
O5 Zn1 2.063528 1_555
O6 P2 1.575371 1_555
O6 Zn1 2.016569 1_556
O6 Zn0 2.149817 1_445
O7 P3 1.575371 1_555
O7 Zn0 2.016569 1_554
O7 Zn1 2.149817 1_665
O8 P2 1.534386 1_555
O9 P3 1.534386 1_555
O10 P2 1.536884 1_555
O11 P3 1.536884 1_555
O12 P4 1.540081 1_555
O13 P5 1.540081 1_555
O14 P4 1.532306 1_555
O15 P5 1.532306 1_555
O16 P4 1.564540 1_555
O16 Zn0 2.037142 1_555
O17 P5 1.564540 1_555
O17 Zn1 2.037142 1_555
