# generated using pymatgen
data_Na(CrS2)2
_symmetry_space_group_name_H-M   'P 1'
_cell_length_a   11.52441800
_cell_length_b   3.52446700
_cell_length_c   12.27054200
_cell_angle_alpha   90.00000000
_cell_angle_beta   90.00000000
_cell_angle_gamma   90.00000000
_symmetry_Int_Tables_number   1
_chemical_formula_structural   Na(CrS2)2
_chemical_formula_sum   'Na4 Cr8 S16'
_cell_volume   498.39789222
_cell_formula_units_Z   4
loop_
 _symmetry_equiv_pos_site_id
 _symmetry_equiv_pos_as_xyz
  1  'x, y, z'
loop_
 _atom_site_type_symbol
 _atom_site_label
 _atom_site_symmetry_multiplicity
 _atom_site_fract_x
 _atom_site_fract_y
 _atom_site_fract_z
 _atom_site_occupancy
  Na  Na0  1  0.13516700  0.75000000  0.41293000  1
  Na  Na1  1  0.86483300  0.25000000  0.58707000  1
  Na  Na2  1  0.36483300  0.25000000  0.91293000  1
  Na  Na3  1  0.63516700  0.75000000  0.08707000  1
  Cr  Cr0  1  0.10334000  0.25000000  0.07968400  1
  Cr  Cr1  1  0.89666000  0.75000000  0.92031600  1
  Cr  Cr2  1  0.39666000  0.75000000  0.57968400  1
  Cr  Cr3  1  0.60334000  0.25000000  0.42031600  1
  Cr  Cr4  1  0.15175600  0.25000000  0.70490300  1
  Cr  Cr5  1  0.84824400  0.75000000  0.29509700  1
  Cr  Cr6  1  0.34824400  0.75000000  0.20490300  1
  Cr  Cr7  1  0.65175600  0.25000000  0.79509700  1
  S  S0  1  0.04409400  0.75000000  0.63530200  1
  S  S1  1  0.95590600  0.25000000  0.36469800  1
  S  S2  1  0.45590600  0.25000000  0.13530200  1
  S  S3  1  0.54409400  0.75000000  0.86469800  1
  S  S4  1  0.03490700  0.25000000  0.88383200  1
  S  S5  1  0.96509300  0.75000000  0.11616800  1
  S  S6  1  0.46509300  0.75000000  0.38383200  1
  S  S7  1  0.53490700  0.25000000  0.61616800  1
  S  S8  1  0.21200600  0.25000000  0.24679200  1
  S  S9  1  0.78799400  0.75000000  0.75320800  1
  S  S10  1  0.28799400  0.75000000  0.74679200  1
  S  S11  1  0.71200600  0.25000000  0.25320800  1
  S  S12  1  0.23403400  0.75000000  0.03936700  1
  S  S13  1  0.76596600  0.25000000  0.96063300  1
  S  S14  1  0.26596600  0.25000000  0.53936700  1
  S  S15  1  0.73403400  0.75000000  0.46063300  1
loop_
_geom_bond_atom_site_label_1
_geom_bond_atom_site_label_2
_geom_bond_distance
_geom_bond_site_symmetry_2
Na0 S1 2.779134 1_465
Na0 S1 2.779134 1_455
Na0 S14 2.790102 1_565
Na0 S14 2.790102 1_555
Na0 S8 2.836463 1_555
Na0 S8 2.836463 1_565
Na0 S0 2.923521 1_555
Na1 S0 2.779134 1_655
Na1 S0 2.779134 1_645
Na1 S15 2.790102 1_555
Na1 S15 2.790102 1_545
Na1 S9 2.836463 1_555
Na1 S9 2.836463 1_545
Na1 S1 2.923521 1_555
Na2 S3 2.779134 1_545
Na2 S3 2.779134 1_555
Na2 S12 2.790102 1_556
Na2 S12 2.790102 1_546
Na2 S10 2.836463 1_545
Na2 S10 2.836463 1_555
Na2 S2 2.923521 1_556
Na3 S2 2.779134 1_555
Na3 S2 2.779134 1_565
Na3 S13 2.790102 1_554
Na3 S13 2.790102 1_564
Na3 S11 2.836463 1_555
Na3 S11 2.836463 1_565
Na3 S3 2.923521 1_554
Cr0 S12 2.370393 1_555
Cr0 S12 2.370393 1_545
Cr0 S8 2.402678 1_555
Cr0 S5 2.417482 1_455
Cr0 S5 2.417482 1_445
Cr0 S4 2.529306 1_554
Cr1 S13 2.370393 1_565
Cr1 S13 2.370393 1_555
Cr1 S9 2.402678 1_555
Cr1 S4 2.417482 1_655
Cr1 S4 2.417482 1_665
Cr1 S5 2.529306 1_556
Cr2 S14 2.370393 1_555
Cr2 S14 2.370393 1_565
Cr2 S10 2.402678 1_555
Cr2 S7 2.417482 1_555
Cr2 S7 2.417482 1_565
Cr2 S6 2.529306 1_555
Cr3 S15 2.370393 1_545
Cr3 S15 2.370393 1_555
Cr3 S11 2.402678 1_555
Cr3 S6 2.417482 1_545
Cr3 S6 2.417482 1_555
Cr3 S7 2.529306 1_555
Cr4 S0 2.318253 1_545
Cr4 S0 2.318253 1_555
Cr4 S10 2.415526 1_555
Cr4 S10 2.415526 1_545
Cr4 S14 2.420379 1_555
Cr4 S4 2.575625 1_555
Cr5 S1 2.318253 1_555
Cr5 S1 2.318253 1_565
Cr5 S11 2.415526 1_555
Cr5 S11 2.415526 1_565
Cr5 S15 2.420379 1_555
Cr5 S5 2.575625 1_555
Cr6 S2 2.318253 1_565
Cr6 S2 2.318253 1_555
Cr6 S8 2.415526 1_565
Cr6 S8 2.415526 1_555
Cr6 S12 2.420379 1_555
Cr6 S6 2.575625 1_555
Cr7 S3 2.318253 1_555
Cr7 S3 2.318253 1_545
Cr7 S9 2.415526 1_545
Cr7 S9 2.415526 1_555
Cr7 S13 2.420379 1_555
Cr7 S7 2.575625 1_555
