# generated using pymatgen
data_Na3Np
_symmetry_space_group_name_H-M   'P 1'
_cell_length_a   7.36221953
_cell_length_b   7.36221953
_cell_length_c   5.88546700
_cell_angle_alpha   90.00000000
_cell_angle_beta   90.00000000
_cell_angle_gamma   119.99999573
_symmetry_Int_Tables_number   1
_chemical_formula_structural   Na3Np
_chemical_formula_sum   'Na6 Np2'
_cell_volume   276.26705957
_cell_formula_units_Z   2
loop_
 _symmetry_equiv_pos_site_id
 _symmetry_equiv_pos_as_xyz
  1  'x, y, z'
loop_
 _atom_site_type_symbol
 _atom_site_label
 _atom_site_symmetry_multiplicity
 _atom_site_fract_x
 _atom_site_fract_y
 _atom_site_fract_z
 _atom_site_occupancy
  Na  Na0  1  0.15993300  0.31986600  0.25000000  1
  Na  Na1  1  0.68013400  0.84006700  0.25000000  1
  Na  Na2  1  0.15993300  0.84006700  0.25000000  1
  Na  Na3  1  0.84006700  0.68013400  0.75000000  1
  Na  Na4  1  0.31986600  0.15993300  0.75000000  1
  Na  Na5  1  0.84006700  0.15993300  0.75000000  1
  Np  Np0  1  0.33333300  0.66666700  0.75000000  1
  Np  Np1  1  0.66666700  0.33333300  0.25000000  1
loop_
_geom_bond_atom_site_label_1
_geom_bond_atom_site_label_2
_geom_bond_distance
_geom_bond_site_symmetry_2
Na0 Na2 3.532386 1_545
Na0 Na1 3.532386 1_445
Na0 Na4 3.580353 1_555
Na0 Na4 3.580353 1_554
Na0 Na5 3.580353 1_455
Na0 Na5 3.580353 1_454
Na0 Np0 3.680883 1_555
Na0 Np0 3.680883 1_554
Na0 Np1 3.682107 1_455
Na0 Np1 3.682115 1_555
Na0 Na2 3.829834 1_555
Na0 Na1 3.829834 1_555
Na1 Na2 3.532386 1_655
Na1 Na3 3.580353 1_555
Na1 Na3 3.580353 1_554
Na1 Na5 3.580353 1_564
Na1 Na5 3.580353 1_565
Na1 Np0 3.680883 1_555
Na1 Np0 3.680883 1_554
Na1 Np1 3.682107 1_565
Na1 Np1 3.682115 1_555
Na1 Na2 3.829834 1_555
Na2 Na3 3.580353 1_455
Na2 Na3 3.580353 1_454
Na2 Na4 3.580353 1_564
Na2 Na4 3.580353 1_565
Na2 Np0 3.680879 1_554
Na2 Np0 3.680879 1_555
Na2 Np1 3.682111 1_455
Na2 Np1 3.682111 1_565
Na3 Na5 3.532386 1_565
Na3 Na4 3.532386 1_665
Na3 Np1 3.680883 1_555
Na3 Np1 3.680883 1_556
Na3 Np0 3.682107 1_655
Na3 Np0 3.682115 1_555
Na3 Na5 3.829834 1_555
Na3 Na4 3.829834 1_555
Na4 Na5 3.532386 1_455
Na4 Np1 3.680883 1_555
Na4 Np1 3.680883 1_556
Na4 Np0 3.682107 1_545
Na4 Np0 3.682115 1_555
Na4 Na5 3.829834 1_555
Na5 Np1 3.680879 1_555
Na5 Np1 3.680879 1_556
Na5 Np0 3.682111 1_545
Na5 Np0 3.682111 1_655
