# generated using pymatgen
data_LiCa3
_symmetry_space_group_name_H-M   'P 1'
_cell_length_a   7.58493686
_cell_length_b   7.58494029
_cell_length_c   6.21285476
_cell_angle_alpha   90.00000000
_cell_angle_beta   90.00000000
_cell_angle_gamma   119.99999115
_symmetry_Int_Tables_number   1
_chemical_formula_structural   LiCa3
_chemical_formula_sum   'Li2 Ca6'
_cell_volume   309.54657834
_cell_formula_units_Z   2
loop_
 _symmetry_equiv_pos_site_id
 _symmetry_equiv_pos_as_xyz
  1  'x, y, z'
loop_
 _atom_site_type_symbol
 _atom_site_label
 _atom_site_symmetry_multiplicity
 _atom_site_fract_x
 _atom_site_fract_y
 _atom_site_fract_z
 _atom_site_occupancy
  Li  Li0  1  0.33333300  0.66666700  0.75000000  1
  Li  Li1  1  0.66666700  0.33333300  0.25000000  1
  Ca  Ca0  1  0.16907034  0.33813968  0.25000000  1
  Ca  Ca1  1  0.66186032  0.83092966  0.25000000  1
  Ca  Ca2  1  0.16907034  0.83092966  0.25000000  1
  Ca  Ca3  1  0.83092966  0.66186032  0.75000000  1
  Ca  Ca4  1  0.33813968  0.16907034  0.75000000  1
  Ca  Ca5  1  0.83092966  0.16907034  0.75000000  1
loop_
_geom_bond_atom_site_label_1
_geom_bond_atom_site_label_2
_geom_bond_distance
_geom_bond_site_symmetry_2
Ca0 Ca1 3.737782 1_555
Ca0 Ca2 3.737783 1_555
Ca0 Li0 3.782449 1_555
Ca0 Li0 3.782449 1_554
Ca0 Li1 3.792600 1_455
Ca0 Li1 3.792600 1_555
Ca0 Ca4 3.818821 1_554
Ca0 Ca4 3.818821 1_555
Ca0 Ca5 3.818828 1_455
Ca0 Ca5 3.818828 1_454
Ca0 Ca1 3.847157 1_445
Ca0 Ca2 3.847158 1_545
Ca1 Ca2 3.737781 1_555
Ca1 Li0 3.782448 1_554
Ca1 Li0 3.782448 1_555
Ca1 Li1 3.792602 1_555
Ca1 Li1 3.792602 1_565
Ca1 Ca3 3.818821 1_555
Ca1 Ca3 3.818821 1_554
Ca1 Ca5 3.818829 1_565
Ca1 Ca5 3.818829 1_564
Ca1 Ca2 3.847156 1_655
Ca2 Li0 3.782441 1_555
Ca2 Li0 3.782441 1_554
Ca2 Li1 3.792601 1_455
Ca2 Li1 3.792601 1_565
Ca2 Ca3 3.818828 1_455
Ca2 Ca3 3.818828 1_454
Ca2 Ca4 3.818829 1_564
Ca2 Ca4 3.818829 1_565
Ca3 Ca4 3.737782 1_555
Ca3 Ca5 3.737783 1_555
Ca3 Li1 3.782449 1_555
Ca3 Li1 3.782449 1_556
Ca3 Li0 3.792600 1_655
Ca3 Li0 3.792600 1_555
Ca3 Ca4 3.847157 1_665
Ca3 Ca5 3.847158 1_565
Ca4 Ca5 3.737781 1_555
Ca4 Li1 3.782448 1_555
Ca4 Li1 3.782448 1_556
Ca4 Li0 3.792602 1_555
Ca4 Li0 3.792602 1_545
Ca4 Ca5 3.847156 1_455
Ca5 Li1 3.782441 1_555
Ca5 Li1 3.782441 1_556
Ca5 Li0 3.792601 1_655
Ca5 Li0 3.792601 1_545
