# generated using pymatgen
data_La6Fe(SiS7)2
_symmetry_space_group_name_H-M   'P 1'
_cell_length_a   10.32298230
_cell_length_b   10.32298230
_cell_length_c   5.78482800
_cell_angle_alpha   90.00000000
_cell_angle_beta   90.00000000
_cell_angle_gamma   120.00000192
_symmetry_Int_Tables_number   1
_chemical_formula_structural   La6Fe(SiS7)2
_chemical_formula_sum   'La6 Fe1 Si2 S14'
_cell_volume   533.86498725
_cell_formula_units_Z   1
loop_
 _symmetry_equiv_pos_site_id
 _symmetry_equiv_pos_as_xyz
  1  'x, y, z'
loop_
 _atom_site_type_symbol
 _atom_site_label
 _atom_site_symmetry_multiplicity
 _atom_site_fract_x
 _atom_site_fract_y
 _atom_site_fract_z
 _atom_site_occupancy
  La  La0  1  0.45666100  0.43326100  0.25185500  1
  La  La1  1  0.56673900  0.02340000  0.25185500  1
  La  La2  1  0.97660000  0.54333900  0.25185500  1
  La  La3  1  0.21350300  0.90002900  0.75118700  1
  La  La4  1  0.09997100  0.31347400  0.75118700  1
  La  La5  1  0.68652600  0.78649700  0.75118700  1
  Fe  Fe0  1  0.33333300  0.66666700  0.48753000  1
  Si  Si0  1  0.66666700  0.33333300  0.83549000  1
  Si  Si1  1  0.00000000  0.00000000  0.33718600  1
  S  S0  1  0.66666700  0.33333300  0.47146100  1
  S  S1  1  0.00000000  0.00000000  0.97281100  1
  S  S2  1  0.41627400  0.50892500  0.72687600  1
  S  S3  1  0.49107500  0.90734900  0.72687600  1
  S  S4  1  0.09265100  0.58372600  0.72687600  1
  S  S5  1  0.25643900  0.82612800  0.25435400  1
  S  S6  1  0.17387200  0.43031100  0.25435400  1
  S  S7  1  0.56968900  0.74356100  0.25435400  1
  S  S8  1  0.74316300  0.55111600  0.97585300  1
  S  S9  1  0.44888400  0.19204600  0.97585300  1
  S  S10  1  0.80795400  0.25683700  0.97585300  1
  S  S11  1  0.92626500  0.78265800  0.47697800  1
  S  S12  1  0.21734200  0.14360700  0.47697800  1
  S  S13  1  0.85639300  0.07373500  0.47697800  1
loop_
_geom_bond_atom_site_label_1
_geom_bond_atom_site_label_2
_geom_bond_distance
_geom_bond_site_symmetry_2
La0 S7 2.807980 1_555
La0 S6 2.904155 1_555
La0 S9 2.925088 1_554
La0 S2 2.942886 1_555
La0 S8 3.029569 1_554
La0 S12 3.058260 1_555
La0 S0 3.100647 1_555
La0 S2 3.214403 1_554
La1 S5 2.807980 1_545
La1 S7 2.904155 1_545
La1 S10 2.925083 1_554
La1 S3 2.942886 1_545
La1 S9 3.029561 1_554
La1 S13 3.058260 1_555
La1 S0 3.100638 1_555
La1 S3 3.214403 1_544
La2 S6 2.807980 1_655
La2 S5 2.904155 1_655
La2 S8 2.925079 1_554
La2 S4 2.942886 1_655
La2 S10 3.029568 1_554
La2 S11 3.058260 1_555
La2 S0 3.100640 1_555
La2 S4 3.214403 1_654
La3 S3 2.831840 1_555
La3 S4 2.857295 1_555
La3 S12 2.956448 1_565
La3 S11 3.030464 1_455
La3 S9 3.058696 1_565
La3 S5 3.062185 1_555
La3 S5 3.096601 1_556
La3 S1 3.136999 1_565
La4 S4 2.831840 1_555
La4 S2 2.857295 1_555
La4 S13 2.956448 1_455
La4 S12 3.030464 1_555
La4 S10 3.058693 1_455
La4 S6 3.062185 1_555
La4 S6 3.096601 1_556
La4 S1 3.136999 1_555
La5 S2 2.831840 1_555
La5 S3 2.857295 1_555
La5 S11 2.956448 1_555
La5 S13 3.030464 1_565
La5 S8 3.058702 1_555
La5 S7 3.062185 1_555
La5 S7 3.096601 1_556
La5 S1 3.136999 1_665
Fe0 S5 2.542813 1_555
Fe0 S6 2.542819 1_555
Fe0 S7 2.542821 1_555
Fe0 S4 2.587638 1_555
Fe0 S3 2.587640 1_555
Fe0 S2 2.587646 1_555
S0 Si0 2.105845 1_555
S1 Si1 2.107847 1_556
S8 Si0 2.135847 1_555
S9 Si0 2.135847 1_555
S10 Si0 2.135847 1_555
S11 Si1 2.135271 1_665
S12 Si1 2.135271 1_555
S13 Si1 2.135271 1_655
