# generated using pymatgen
data_LiCr2O4
_symmetry_space_group_name_H-M   'P 1'
_cell_length_a   5.94437067
_cell_length_b   5.94437067
_cell_length_c   5.94437067
_cell_angle_alpha   120.89308541
_cell_angle_beta   119.29340728
_cell_angle_gamma   89.84416680
_symmetry_Int_Tables_number   1
_chemical_formula_structural   LiCr2O4
_chemical_formula_sum   'Li2 Cr4 O8'
_cell_volume   148.27987412
_cell_formula_units_Z   2
loop_
 _symmetry_equiv_pos_site_id
 _symmetry_equiv_pos_as_xyz
  1  'x, y, z'
loop_
 _atom_site_type_symbol
 _atom_site_label
 _atom_site_symmetry_multiplicity
 _atom_site_fract_x
 _atom_site_fract_y
 _atom_site_fract_z
 _atom_site_occupancy
  Li  Li0  1  0.00000000  0.50000000  0.50000000  1
  Li  Li1  1  0.50000000  0.50000000  0.00000000  1
  Cr  Cr0  1  0.50000000  0.50000000  0.50000000  1
  Cr  Cr1  1  0.00000000  0.00000000  0.00000000  1
  Cr  Cr2  1  0.50000000  0.00000000  0.00000000  1
  Cr  Cr3  1  0.50000000  0.00000000  0.50000000  1
  O  O0  1  0.29476600  0.75900500  0.53576100  1
  O  O1  1  0.73079400  0.74766300  0.51686900  1
  O  O2  1  0.72324400  0.75900500  0.96423900  1
  O  O3  1  0.26920600  0.78607400  0.01686900  1
  O  O4  1  0.27675600  0.24099500  0.03576100  1
  O  O5  1  0.26920600  0.25233700  0.48313100  1
  O  O6  1  0.73079400  0.21392600  0.98313100  1
  O  O7  1  0.70523400  0.24099500  0.46423900  1
loop_
_geom_bond_atom_site_label_1
_geom_bond_atom_site_label_2
_geom_bond_distance
_geom_bond_site_symmetry_2
Li0 O3 2.175059 1_556
Li0 O6 2.175059 1_454
Li0 O1 2.175059 1_455
Li0 O5 2.175059 1_555
Li0 O0 2.190872 1_555
Li0 O7 2.190872 1_455
Li1 O6 2.175055 1_554
Li1 O3 2.175055 1_555
Li1 O5 2.175059 1_554
Li1 O1 2.175059 1_555
Li1 O4 2.190872 1_555
Li1 O2 2.190872 1_554
Cr0 O5 1.945348 1_555
Cr0 O1 1.945348 1_555
Cr0 O2 1.952299 1_555
Cr0 O0 1.952299 1_555
Cr0 O7 1.952299 1_555
Cr0 O4 1.952299 1_555
Cr1 O1 2.037358 1_444
Cr1 O5 2.037358 1_555
Cr1 O6 2.037362 1_454
Cr1 O3 2.037362 1_545
Cr1 O2 2.040048 1_444
Cr1 O4 2.040048 1_555
Cr2 O3 1.945352 1_545
Cr2 O6 1.945352 1_554
Cr2 O0 1.952299 1_544
Cr2 O2 1.952299 1_544
Cr2 O4 1.952299 1_555
Cr2 O7 1.952299 1_555
Cr3 O6 2.037357 1_555
Cr3 O3 2.037357 1_545
Cr3 O5 2.037358 1_555
Cr3 O1 2.037358 1_545
Cr3 O7 2.040048 1_555
Cr3 O0 2.040048 1_545
