# generated using pymatgen
data_YLuCr2O8
_symmetry_space_group_name_H-M   'P 1'
_cell_length_a   5.94934225
_cell_length_b   5.94934225
_cell_length_c   5.94934225
_cell_angle_alpha   106.06499624
_cell_angle_beta   106.06499624
_cell_angle_gamma   116.52221296
_symmetry_Int_Tables_number   1
_chemical_formula_structural   YLuCr2O8
_chemical_formula_sum   'Y1 Lu1 Cr2 O8'
_cell_volume   160.23780676
_cell_formula_units_Z   1
loop_
 _symmetry_equiv_pos_site_id
 _symmetry_equiv_pos_as_xyz
  1  'x, y, z'
loop_
 _atom_site_type_symbol
 _atom_site_label
 _atom_site_symmetry_multiplicity
 _atom_site_fract_x
 _atom_site_fract_y
 _atom_site_fract_z
 _atom_site_occupancy
  Y  Y0  1  0.00000000  0.00000000  0.00000000  1
  Lu  Lu0  1  0.75000000  0.25000000  0.50000000  1
  Cr  Cr0  1  0.25000000  0.75000000  0.50000000  1
  Cr  Cr1  1  0.50000000  0.50000000  0.00000000  1
  O  O0  1  0.07121100  0.75405200  0.68284000  1
  O  O1  1  0.07121100  0.38837100  0.31716000  1
  O  O2  1  0.67395100  0.86126200  0.18731200  1
  O  O3  1  0.67395100  0.48663900  0.81268800  1
  O  O4  1  0.61162900  0.92878900  0.68284000  1
  O  O5  1  0.24594800  0.92878900  0.31716000  1
  O  O6  1  0.51336100  0.32604900  0.18731200  1
  O  O7  1  0.13873800  0.32604900  0.81268800  1
loop_
_geom_bond_atom_site_label_1
_geom_bond_atom_site_label_2
_geom_bond_distance
_geom_bond_site_symmetry_2
Lu0 O6 2.287489 1_555
Lu0 O3 2.287489 1_555
Lu0 O7 2.287493 1_655
Lu0 O2 2.287493 1_545
Lu0 O1 2.398742 1_655
Lu0 O4 2.398742 1_545
Lu0 O5 2.398747 1_545
Lu0 O0 2.398747 1_655
Cr0 O1 1.721629 1_555
Cr0 O4 1.721629 1_555
Cr0 O5 1.721630 1_555
Cr0 O0 1.721630 1_555
Cr1 O7 1.726813 1_554
Cr1 O2 1.726813 1_555
Cr1 O3 1.726818 1_554
Cr1 O6 1.726818 1_555
O0 Y0 2.312767 1_566
O1 Y0 2.312770 1_555
O2 Y0 2.441599 1_665
O3 Y0 2.441598 1_666
O4 Y0 2.312770 1_666
O5 Y0 2.312767 1_565
O6 Y0 2.441598 1_555
O7 Y0 2.441599 1_556
