# generated using pymatgen
data_CaBi2O5
_symmetry_space_group_name_H-M   'P 1'
_cell_length_a   5.64716900
_cell_length_b   10.84121300
_cell_length_c   16.48929200
_cell_angle_alpha   90.00000000
_cell_angle_beta   90.00000000
_cell_angle_gamma   90.00000000
_symmetry_Int_Tables_number   1
_chemical_formula_structural   CaBi2O5
_chemical_formula_sum   'Ca8 Bi16 O40'
_cell_volume   1009.51010569
_cell_formula_units_Z   8
loop_
 _symmetry_equiv_pos_site_id
 _symmetry_equiv_pos_as_xyz
  1  'x, y, z'
loop_
 _atom_site_type_symbol
 _atom_site_label
 _atom_site_symmetry_multiplicity
 _atom_site_fract_x
 _atom_site_fract_y
 _atom_site_fract_z
 _atom_site_occupancy
  Ca  Ca0  1  0.53621000  0.36543800  0.42629900  1
  Ca  Ca1  1  0.03621000  0.13456200  0.42629900  1
  Ca  Ca2  1  0.03621000  0.63456200  0.07370100  1
  Ca  Ca3  1  0.96379000  0.36543800  0.92629900  1
  Ca  Ca4  1  0.46379000  0.13456200  0.92629900  1
  Ca  Ca5  1  0.96379000  0.86543800  0.57370100  1
  Ca  Ca6  1  0.46379000  0.63456200  0.57370100  1
  Ca  Ca7  1  0.53621000  0.86543800  0.07370100  1
  Bi  Bi0  1  0.03603900  0.38115800  0.57420100  1
  Bi  Bi1  1  0.46396100  0.88115800  0.42579900  1
  Bi  Bi2  1  0.96396100  0.61884200  0.42579900  1
  Bi  Bi3  1  0.53603900  0.11884200  0.57420100  1
  Bi  Bi4  1  0.96396100  0.11884200  0.07420100  1
  Bi  Bi5  1  0.03603900  0.88115800  0.92579900  1
  Bi  Bi6  1  0.46396100  0.38115800  0.07420100  1
  Bi  Bi7  1  0.53603900  0.61884200  0.92579900  1
  Bi  Bi8  1  0.97029700  0.85121300  0.24141800  1
  Bi  Bi9  1  0.02970300  0.14878700  0.75858200  1
  Bi  Bi10  1  0.52970300  0.35121300  0.75858200  1
  Bi  Bi11  1  0.02970300  0.64878700  0.74141800  1
  Bi  Bi12  1  0.47029700  0.14878700  0.25858200  1
  Bi  Bi13  1  0.47029700  0.64878700  0.24141800  1
  Bi  Bi14  1  0.52970300  0.85121300  0.74141800  1
  Bi  Bi15  1  0.97029700  0.35121300  0.25858200  1
  O  O0  1  0.88358900  0.30948500  0.68341200  1
  O  O1  1  0.22504400  0.99512400  0.02805800  1
  O  O2  1  0.27495600  0.49512400  0.97194200  1
  O  O3  1  0.26281800  0.77327300  0.16454600  1
  O  O4  1  0.23718200  0.27327300  0.83545400  1
  O  O5  1  0.88358900  0.80948500  0.81658800  1
  O  O6  1  0.23718200  0.77327300  0.66454600  1
  O  O7  1  0.61641100  0.80948500  0.31658800  1
  O  O8  1  0.22504400  0.49512400  0.47194200  1
  O  O9  1  0.11641200  0.69051500  0.31658800  1
  O  O10  1  0.61641100  0.30948500  0.18341200  1
  O  O11  1  0.78688700  0.24514600  0.51822900  1
  O  O12  1  0.72504400  0.00487600  0.47194200  1
  O  O13  1  0.73718200  0.72672700  0.66454600  1
  O  O14  1  0.23933700  0.99493800  0.85102300  1
  O  O15  1  0.72504400  0.50487600  0.02805800  1
  O  O16  1  0.11641200  0.19051500  0.18341200  1
  O  O17  1  0.76281800  0.22672700  0.33545400  1
  O  O18  1  0.28688600  0.75485400  0.98177100  1
  O  O19  1  0.27495600  0.99512400  0.52805800  1
  O  O20  1  0.21311400  0.75485400  0.48177100  1
  O  O21  1  0.76066300  0.00506200  0.14897700  1
  O  O22  1  0.73718200  0.22672700  0.83545400  1
  O  O23  1  0.73933700  0.00506200  0.64897700  1
  O  O24  1  0.21311400  0.25485400  0.01822900  1
  O  O25  1  0.28688600  0.25485400  0.51822900  1
  O  O26  1  0.77495600  0.50487600  0.52805800  1
  O  O27  1  0.77495600  0.00487600  0.97194200  1
  O  O28  1  0.73933700  0.50506200  0.85102300  1
  O  O29  1  0.71311300  0.74514600  0.48177100  1
  O  O30  1  0.71311300  0.24514600  0.01822900  1
  O  O31  1  0.78688700  0.74514600  0.98177100  1
  O  O32  1  0.76066300  0.50506200  0.35102300  1
  O  O33  1  0.76281800  0.72672700  0.16454600  1
  O  O34  1  0.26281800  0.27327300  0.33545400  1
  O  O35  1  0.23933700  0.49493800  0.64897700  1
  O  O36  1  0.26066300  0.49493800  0.14897700  1
  O  O37  1  0.38358800  0.19051500  0.68341200  1
  O  O38  1  0.26066300  0.99493800  0.35102300  1
  O  O39  1  0.38358800  0.69051500  0.81658800  1
loop_
_geom_bond_atom_site_label_1
_geom_bond_atom_site_label_2
_geom_bond_distance
_geom_bond_site_symmetry_2
Ca0 O32 2.332077 1_555
Ca0 O34 2.371892 1_555
Ca0 O8 2.372956 1_555
Ca0 O25 2.391130 1_555
Ca0 O11 2.450001 1_555
Ca0 O17 2.478494 1_555
Ca0 O26 2.630281 1_555
Ca1 O38 2.332077 1_545
Ca1 O17 2.371892 1_455
Ca1 O12 2.372956 1_455
Ca1 O11 2.391127 1_455
Ca1 O25 2.449998 1_555
Ca1 O34 2.478494 1_555
Ca1 O19 2.630281 1_545
Ca2 O36 2.332077 1_555
Ca2 O33 2.371892 1_455
Ca2 O15 2.372956 1_455
Ca2 O31 2.391127 1_454
Ca2 O18 2.449998 1_554
Ca2 O3 2.478494 1_555
Ca2 O2 2.630281 1_554
Ca3 O28 2.332077 1_555
Ca3 O4 2.371892 1_655
Ca3 O2 2.372956 1_655
Ca3 O24 2.391130 1_656
Ca3 O30 2.450001 1_556
Ca3 O22 2.478494 1_555
Ca3 O15 2.630281 1_556
Ca4 O14 2.332077 1_545
Ca4 O22 2.371892 1_555
Ca4 O27 2.372956 1_555
Ca4 O30 2.391127 1_556
Ca4 O24 2.449998 1_556
Ca4 O4 2.478494 1_555
Ca4 O1 2.630281 1_546
Ca5 O23 2.332077 1_565
Ca5 O6 2.371892 1_655
Ca5 O19 2.372956 1_655
Ca5 O20 2.391130 1_655
Ca5 O29 2.450001 1_555
Ca5 O13 2.478494 1_555
Ca5 O12 2.630281 1_565
Ca6 O35 2.332077 1_555
Ca6 O13 2.371892 1_555
Ca6 O26 2.372956 1_555
Ca6 O29 2.391127 1_555
Ca6 O20 2.449998 1_555
Ca6 O6 2.478494 1_555
Ca6 O8 2.630281 1_555
Ca7 O21 2.332077 1_565
Ca7 O3 2.371892 1_555
Ca7 O1 2.372956 1_555
Ca7 O18 2.391130 1_554
Ca7 O31 2.450001 1_554
Ca7 O33 2.478494 1_555
Ca7 O27 2.630281 1_564
Bi0 O35 2.088035 1_555
Bi0 O26 2.133465 1_455
Bi0 O0 2.141928 1_455
Bi0 O25 2.175650 1_555
Bi0 O11 2.237348 1_455
Bi0 O8 2.347116 1_555
Bi1 O38 2.088035 1_555
Bi1 O12 2.133465 1_565
Bi1 O7 2.141928 1_555
Bi1 O20 2.175650 1_555
Bi1 O29 2.237348 1_555
Bi1 O19 2.347116 1_555
Bi2 O32 2.088035 1_555
Bi2 O8 2.133465 1_655
Bi2 O9 2.141930 1_655
Bi2 O29 2.175654 1_555
Bi2 O20 2.237352 1_655
Bi2 O26 2.347116 1_555
Bi3 O23 2.088035 1_555
Bi3 O19 2.133465 1_545
Bi3 O37 2.141930 1_555
Bi3 O11 2.175654 1_555
Bi3 O25 2.237352 1_555
Bi3 O12 2.347116 1_555
Bi4 O21 2.088035 1_555
Bi4 O1 2.133465 1_645
Bi4 O16 2.141930 1_655
Bi4 O30 2.175654 1_555
Bi4 O24 2.237352 1_655
Bi4 O27 2.347116 1_554
Bi5 O14 2.088035 1_555
Bi5 O27 2.133465 1_465
Bi5 O5 2.141928 1_455
Bi5 O18 2.175650 1_555
Bi5 O31 2.237348 1_455
Bi5 O1 2.347116 1_556
Bi6 O36 2.088035 1_555
Bi6 O15 2.133465 1_555
Bi6 O10 2.141928 1_555
Bi6 O24 2.175650 1_555
Bi6 O30 2.237348 1_555
Bi6 O2 2.347116 1_554
Bi7 O28 2.088035 1_555
Bi7 O2 2.133465 1_555
Bi7 O39 2.141930 1_555
Bi7 O31 2.175654 1_555
Bi7 O18 2.237352 1_555
Bi7 O15 2.347116 1_556
Bi8 O33 2.191094 1_555
Bi8 O3 2.247111 1_655
Bi8 O9 2.291798 1_655
Bi8 O7 2.394750 1_555
Bi8 O21 2.550852 1_565
Bi9 O4 2.191094 1_555
Bi9 O22 2.247111 1_455
Bi9 O0 2.291795 1_455
Bi9 O37 2.394746 1_555
Bi9 O14 2.550852 1_545
Bi10 O22 2.191094 1_555
Bi10 O4 2.247111 1_555
Bi10 O37 2.291798 1_555
Bi10 O0 2.394750 1_555
Bi10 O28 2.550852 1_555
Bi11 O6 2.191094 1_555
Bi11 O13 2.247111 1_455
Bi11 O5 2.291795 1_455
Bi11 O39 2.394746 1_555
Bi11 O35 2.550852 1_555
Bi12 O34 2.191094 1_555
Bi12 O17 2.247111 1_555
Bi12 O10 2.291795 1_555
Bi12 O16 2.394746 1_555
Bi12 O38 2.550852 1_545
Bi13 O3 2.191094 1_555
Bi13 O33 2.247111 1_555
Bi13 O7 2.291795 1_555
Bi13 O9 2.394746 1_555
Bi13 O36 2.550852 1_555
Bi14 O13 2.191094 1_555
Bi14 O6 2.247111 1_555
Bi14 O39 2.291798 1_555
Bi14 O5 2.394750 1_555
Bi14 O23 2.550852 1_565
Bi15 O17 2.191094 1_555
Bi15 O34 2.247111 1_655
Bi15 O16 2.291798 1_655
Bi15 O10 2.394750 1_555
Bi15 O32 2.550852 1_555
