# generated using pymatgen
data_MgSn8(P2O9)2
_symmetry_space_group_name_H-M   'P 1'
_cell_length_a   11.43678425
_cell_length_b   8.01817194
_cell_length_c   7.36978338
_cell_angle_alpha   70.12631553
_cell_angle_beta   63.37445645
_cell_angle_gamma   91.45301375
_symmetry_Int_Tables_number   1
_chemical_formula_structural   MgSn8(P2O9)2
_chemical_formula_sum   'Mg1 Sn8 P4 O18'
_cell_volume   555.33747297
_cell_formula_units_Z   1
loop_
 _symmetry_equiv_pos_site_id
 _symmetry_equiv_pos_as_xyz
  1  'x, y, z'
loop_
 _atom_site_type_symbol
 _atom_site_label
 _atom_site_symmetry_multiplicity
 _atom_site_fract_x
 _atom_site_fract_y
 _atom_site_fract_z
 _atom_site_occupancy
  Mg  Mg0  1  -0.00000000  0.50000000  0.00000000  1
  Sn  Sn0  1  0.11314791  0.19197716  0.31905737  1
  Sn  Sn1  1  0.03143266  0.17786764  0.79419026  1
  Sn  Sn2  1  0.30554407  0.52306722  0.59919072  1
  Sn  Sn3  1  0.37567026  0.04700431  0.85568156  1
  Sn  Sn4  1  0.62432974  0.95299569  0.14431844  1
  Sn  Sn5  1  0.69445593  0.47693278  0.40080928  1
  Sn  Sn6  1  0.96856734  0.82213236  0.20580974  1
  Sn  Sn7  1  0.88685209  0.80802284  0.68094263  1
  P  P0  1  0.28452517  0.92363875  0.53402634  1
  P  P1  1  0.23969253  0.59822077  0.15406310  1
  P  P2  1  0.76030747  0.40177923  0.84593690  1
  P  P3  1  0.71547483  0.07636125  0.46597366  1
  O  O0  1  0.10381479  0.61735494  0.14915286  1
  O  O1  1  0.19296493  0.72968547  0.68838022  1
  O  O2  1  0.24721193  0.02055732  0.35280359  1
  O  O3  1  0.21737927  0.57871475  0.38340581  1
  O  O4  1  0.35470600  0.76103881  0.96657081  1
  O  O5  1  0.26949631  0.04085246  0.67177657  1
  O  O6  1  0.42955347  0.89477780  0.42542516  1
  O  O7  1  0.27557127  0.42298332  0.11352665  1
  O  O8  1  0.12430862  0.34805259  0.87275150  1
  O  O9  1  0.87569138  0.65194741  0.12724850  1
  O  O10  1  0.72442873  0.57701668  0.88647335  1
  O  O11  1  0.57044653  0.10522220  0.57457484  1
  O  O12  1  0.73050369  0.95914754  0.32822343  1
  O  O13  1  0.64529400  0.23896119  0.03342919  1
  O  O14  1  0.78262073  0.42128525  0.61659419  1
  O  O15  1  0.75278807  0.97944268  0.64719641  1
  O  O16  1  0.80703507  0.27031453  0.31161978  1
  O  O17  1  0.89618521  0.38264506  0.85084714  1
loop_
_geom_bond_atom_site_label_1
_geom_bond_atom_site_label_2
_geom_bond_distance
_geom_bond_site_symmetry_2
Mg0 O8 2.013618 1_554
Mg0 O9 2.013618 1_455
Mg0 O17 2.306469 1_454
Mg0 O0 2.306469 1_555
Mg0 O16 2.431421 1_455
Mg0 O1 2.431421 1_554
O0 P1 1.580664 1_555
O0 Sn6 2.297592 1_455
O1 P0 1.567163 1_555
O1 Sn2 2.219115 1_555
O2 P0 1.546538 1_545
O2 Sn0 2.125600 1_555
O3 P1 1.542083 1_555
O3 Sn2 2.173122 1_555
O4 P1 1.549583 1_556
O4 Sn3 2.122572 1_565
O5 P0 1.563311 1_545
O5 Sn3 2.198050 1_555
O6 P0 1.549447 1_555
O6 Sn4 2.150676 1_555
O7 P1 1.560975 1_555
O7 Sn0 2.138186 1_555
O8 Sn1 2.083369 1_555
O8 Sn2 2.124506 1_555
O9 Sn6 2.083369 1_555
O9 Sn5 2.124506 1_555
O10 P2 1.560975 1_555
O10 Sn7 2.138186 1_555
O11 P3 1.549447 1_555
O11 Sn3 2.150676 1_555
O12 P3 1.563311 1_565
O12 Sn4 2.198050 1_555
O13 P2 1.549583 1_554
O13 Sn4 2.122572 1_545
O14 P2 1.542083 1_555
O14 Sn5 2.173122 1_555
O15 P3 1.546538 1_565
O15 Sn7 2.125600 1_555
O16 P3 1.567163 1_555
O16 Sn5 2.219115 1_555
O17 P2 1.580664 1_555
O17 Sn1 2.297592 1_655
