# generated using pymatgen
data_Tb2Ti2Fe22H
_symmetry_space_group_name_H-M   'P 1'
_cell_length_a   4.76792500
_cell_length_b   6.47588990
_cell_length_c   12.01249023
_cell_angle_alpha   90.05872436
_cell_angle_beta   90.00000000
_cell_angle_gamma   111.60026576
_symmetry_Int_Tables_number   1
_chemical_formula_structural   Tb2Ti2Fe22H
_chemical_formula_sum   'Tb2 Ti2 Fe22 H1'
_cell_volume   344.85729411
_cell_formula_units_Z   1
loop_
 _symmetry_equiv_pos_site_id
 _symmetry_equiv_pos_as_xyz
  1  'x, y, z'
loop_
 _atom_site_type_symbol
 _atom_site_label
 _atom_site_symmetry_multiplicity
 _atom_site_fract_x
 _atom_site_fract_y
 _atom_site_fract_z
 _atom_site_occupancy
  Tb  Tb0  1  0.00312700  0.00625400  0.00301800  1
  Tb  Tb1  1  0.50295400  0.00590900  0.50304200  1
  Ti  Ti0  1  0.31716800  0.63433700  0.31670800  1
  Ti  Ti1  1  0.81697700  0.63395400  0.81734000  1
  Fe  Fe0  1  0.38827100  0.77654100  0.11099600  1
  Fe  Fe1  1  0.88898400  0.77796800  0.61036700  1
  Fe  Fe2  1  0.11064300  0.22128700  0.38916100  1
  Fe  Fe3  1  0.61090000  0.22180000  0.88784600  1
  Fe  Fe4  1  0.88751400  0.77502700  0.38773200  1
  Fe  Fe5  1  0.38731800  0.77463600  0.88710000  1
  Fe  Fe6  1  0.61361200  0.22722400  0.11365600  1
  Fe  Fe7  1  0.11360000  0.22720000  0.61341100  1
  Fe  Fe8  1  0.25015700  0.00240300  0.25009400  1
  Fe  Fe9  1  0.75088500  0.00255900  0.74960500  1
  Fe  Fe10  1  0.75224600  0.00240300  0.25009400  1
  Fe  Fe11  1  0.25167400  0.00255900  0.74960500  1
  Fe  Fe12  1  0.50067800  0.49963700  0.50118500  1
  Fe  Fe13  1  0.00041900  0.49946200  0.00128200  1
  Fe  Fe14  1  0.99895900  0.49963700  0.50118500  1
  Fe  Fe15  1  0.49904300  0.49946200  0.00128200  1
  Fe  Fe16  1  0.67842800  0.35685600  0.32085300  1
  Fe  Fe17  1  0.17848000  0.35696100  0.82178500  1
  Fe  Fe18  1  0.82103900  0.64207900  0.17812100  1
  Fe  Fe19  1  0.32144500  0.64289000  0.67880600  1
  Fe  Fe20  1  0.17772500  0.35545000  0.17739600  1
  Fe  Fe21  1  0.67738700  0.35477400  0.67794300  1
  H  H0  1  0.50036500  0.00073000  0.00038600  1
loop_
_geom_bond_atom_site_label_1
_geom_bond_atom_site_label_2
_geom_bond_distance
_geom_bond_site_symmetry_2
Tb0 Ti1 3.160531 1_444
Tb1 Ti0 3.162993 1_545
Fe0 H0 1.895138 1_565
Fe0 Fe15 2.434836 1_555
Fe0 Fe13 2.434839 1_555
Fe0 Fe10 2.463553 1_565
Fe0 Fe8 2.463556 1_565
Fe0 Ti0 2.616141 1_555
Fe0 Fe18 2.643926 1_555
Fe0 Fe18 2.643935 1_455
Fe1 Fe14 2.436165 1_555
Fe1 Fe12 2.436165 1_555
Fe1 Fe9 2.458980 1_565
Fe1 Fe11 2.458980 1_665
Fe1 Ti1 2.634038 1_555
Fe1 Fe19 2.649930 1_655
Fe1 Fe19 2.649930 1_555
Fe1 Fe4 2.674440 1_555
Fe1 Fe21 2.675132 1_555
Fe1 Fe7 2.705086 1_665
Fe1 Tb1 3.038578 1_665
Fe1 Tb1 3.038581 1_565
Fe2 Fe8 2.435521 1_555
Fe2 Ti0 2.635821 1_555
Fe2 Fe20 2.669857 1_555
Fe2 Fe4 2.687021 1_445
Fe2 Fe7 2.693997 1_555
Fe2 Tb1 3.039791 1_555
Fe2 Tb1 3.039791 1_455
Fe3 H0 1.898252 1_556
Fe3 Fe9 2.431411 1_555
Fe3 Ti1 2.623060 1_555
Fe4 Fe8 2.453961 1_665
Fe4 Ti0 2.669675 1_655
Fe4 Ti0 2.669684 1_555
Fe4 Tb1 3.087110 1_665
Fe4 Tb1 3.087117 1_565
Fe5 H0 1.923815 1_566
Fe5 Fe9 2.456147 1_565
Fe5 Ti1 2.664856 1_555
Fe5 Ti1 2.664856 1_455
Fe6 H0 1.925382 1_555
Fe6 Fe8 2.440539 1_555
Fe7 Fe9 2.436448 1_455
Fe7 Tb1 3.035206 1_555
Fe7 Tb1 3.035210 1_455
Fe8 Ti0 2.643548 1_545
Fe8 Tb0 3.196666 1_555
Fe8 Tb1 3.265840 1_555
Fe9 Ti1 2.648989 1_545
Fe9 Tb1 3.192077 1_555
Fe9 Tb0 3.269912 1_656
Fe10 Fe8 2.374002 1_655
Fe10 Fe8 2.393923 1_555
Fe10 Fe2 2.435518 1_655
Fe10 Fe6 2.440539 1_555
Fe10 Fe4 2.453963 1_545
Fe10 Fe20 2.587364 1_655
Fe10 Fe16 2.589600 1_555
Fe10 Fe18 2.619023 1_545
Fe10 Ti0 2.643550 1_545
Fe10 Tb0 3.196666 1_655
Fe10 Tb1 3.265842 1_555
Fe11 Fe9 2.380201 1_555
Fe11 Fe9 2.387724 1_455
Fe11 Fe3 2.431411 1_555
Fe11 Fe7 2.436448 1_555
Fe11 Fe5 2.456147 1_545
Fe11 Fe21 2.580484 1_555
Fe11 Fe17 2.593558 1_555
Fe11 Fe19 2.612556 1_545
Fe11 Ti1 2.648989 1_445
Fe11 Tb1 3.192075 1_555
Fe11 Tb0 3.269912 1_556
Fe12 Fe14 2.375766 1_555
Fe12 Fe14 2.392159 1_455
Fe12 Fe7 2.437975 1_555
Fe12 Fe4 2.454161 1_555
Fe12 Fe2 2.458743 1_555
Fe12 Fe21 2.585414 1_555
Fe12 Fe19 2.592890 1_555
Fe12 Fe16 2.615077 1_555
Fe12 Ti0 2.646346 1_555
Fe12 Tb1 3.201439 1_555
Fe12 Tb1 3.274636 1_565
Fe13 Fe15 2.377402 1_555
Fe13 Fe15 2.390523 1_455
Fe13 Fe6 2.437753 1_455
Fe13 Fe5 2.458557 1_554
Fe13 Fe3 2.464848 1_454
Fe13 Fe20 2.577706 1_555
Fe13 Fe18 2.583520 1_455
Fe13 Fe17 2.606595 1_554
Fe13 Ti1 2.640208 1_454
Fe13 Tb0 3.198826 1_555
Fe13 Tb0 3.277243 1_565
Fe14 Fe7 2.437975 1_655
Fe14 Fe4 2.454158 1_555
Fe14 Fe2 2.458741 1_655
Fe14 Fe21 2.585414 1_555
Fe14 Fe19 2.592890 1_655
Fe14 Fe16 2.615077 1_555
Fe14 Ti0 2.646344 1_655
Fe14 Tb1 3.201441 1_555
Fe14 Tb1 3.274634 1_665
Fe15 Fe6 2.437753 1_555
Fe15 Fe5 2.458557 1_554
Fe15 Fe3 2.464848 1_554
Fe15 Fe20 2.577706 1_555
Fe15 Fe18 2.583518 1_555
Fe15 Fe17 2.606598 1_554
Fe15 Ti1 2.640208 1_554
Fe15 Tb0 3.198826 1_555
Fe15 Tb0 3.277243 1_665
Fe16 Fe18 2.428078 1_555
Fe16 Fe8 2.589600 1_555
Fe16 Fe6 2.607647 1_555
Fe16 Fe4 2.642077 1_555
Fe16 Fe2 2.650349 1_655
Fe16 Fe2 2.650354 1_555
Fe16 Ti0 2.911584 1_655
Fe16 Ti0 2.911588 1_555
Fe16 Fe20 2.941598 1_655
Fe16 Fe20 2.941598 1_555
Fe16 Tb1 3.043860 1_555
Fe17 Fe19 2.433185 1_555
Fe17 Fe9 2.593556 1_455
Fe17 Fe7 2.621372 1_555
Fe17 Fe5 2.633594 1_555
Fe17 Fe3 2.641349 1_455
Fe17 Fe3 2.641354 1_555
Fe17 Ti1 2.909965 1_455
Fe17 Ti1 2.909969 1_555
Fe17 Fe21 2.944322 1_455
Fe17 Fe21 2.944325 1_555
Fe17 Tb0 3.034598 1_556
Fe18 Fe6 2.614358 1_555
Fe18 Fe8 2.619026 1_665
Fe18 Fe4 2.641292 1_555
Fe18 Ti0 2.908109 1_655
Fe18 Ti0 2.908109 1_555
Fe18 Fe20 2.943092 1_555
Fe18 Fe20 2.943095 1_655
Fe18 Tb0 3.040176 1_665
Fe19 Fe9 2.612556 1_565
Fe19 Fe7 2.622474 1_555
Fe19 Fe5 2.624030 1_555
Fe19 Ti1 2.907873 1_555
Fe19 Ti1 2.907873 1_455
Fe19 Fe21 2.948357 1_555
Fe19 Fe21 2.948357 1_455
Fe19 Tb1 3.040669 1_565
Fe20 Ti0 2.369410 1_555
Fe20 Fe8 2.587364 1_555
Fe21 Ti1 2.371380 1_555
Fe21 Fe9 2.580484 1_555
Fe21 Fe7 2.621625 1_655
Fe21 Fe7 2.621626 1_555
Fe21 Tb1 2.969310 1_555
H0 Tb0 2.384404 1_555
H0 Tb0 2.384404 1_655
