# generated using pymatgen
data_Ba2CaV2(Si2O7)2
_symmetry_space_group_name_H-M   'P 1'
_cell_length_a   5.70074423
_cell_length_b   7.71517445
_cell_length_c   8.45459954
_cell_angle_alpha   104.03914169
_cell_angle_beta   109.48930543
_cell_angle_gamma   90.35563969
_symmetry_Int_Tables_number   1
_chemical_formula_structural   Ba2CaV2(Si2O7)2
_chemical_formula_sum   'Ba2 Ca1 V2 Si4 O14'
_cell_volume   338.52845356
_cell_formula_units_Z   1
loop_
 _symmetry_equiv_pos_site_id
 _symmetry_equiv_pos_as_xyz
  1  'x, y, z'
loop_
 _atom_site_type_symbol
 _atom_site_label
 _atom_site_symmetry_multiplicity
 _atom_site_fract_x
 _atom_site_fract_y
 _atom_site_fract_z
 _atom_site_occupancy
  Ba  Ba0  1  0.84685500  0.68688900  0.66564900  1
  Ba  Ba1  1  0.19556900  0.32006000  0.37876100  1
  Ca  Ca0  1  0.21965800  0.89119000  0.42835800  1
  V  V0  1  0.06841900  0.56319700  0.09984800  1
  V  V1  1  0.88986000  0.20257600  0.74674300  1
  Si  Si0  1  0.41155100  0.49244600  0.79330100  1
  Si  Si1  1  0.61697500  0.51135100  0.20681700  1
  Si  Si2  1  0.42600500  0.93358200  0.81560500  1
  Si  Si3  1  0.62319600  0.08791700  0.23453100  1
  O  O0  1  0.12627400  0.39947600  0.69859200  1
  O  O1  1  0.41404100  0.61162500  0.29248000  1
  O  O2  1  0.14536100  0.98373000  0.71805200  1
  O  O3  1  0.42263400  0.04475100  0.31842600  1
  O  O4  1  0.51128900  0.50314000  0.00168900  1
  O  O5  1  0.53550100  0.00183900  0.02488500  1
  O  O6  1  0.01457000  0.72933600  0.99706900  1
  O  O7  1  0.01893100  0.32994800  0.01072800  1
  O  O8  1  0.39861800  0.70282200  0.76271100  1
  O  O9  1  0.63953800  0.31615800  0.25560100  1
  O  O10  1  0.60022200  0.39765100  0.69839600  1
  O  O11  1  0.90698200  0.61082400  0.28934100  1
  O  O12  1  0.60616600  0.98341100  0.71461600  1
  O  O13  1  0.90028300  0.04793500  0.33998900  1
loop_
_geom_bond_atom_site_label_1
_geom_bond_atom_site_label_2
_geom_bond_distance
_geom_bond_site_symmetry_2
Ba0 O6 2.576046 1_655
Ba0 O12 2.691881 1_555
Ba0 O2 2.700609 1_655
Ba0 O10 2.748399 1_555
Ba0 O0 2.753070 1_655
Ba0 O8 2.927825 1_555
Ba0 O8 2.967549 1_655
Ba0 O1 3.205949 1_555
Ba0 O11 3.226198 1_555
Ba1 O3 2.529120 1_555
Ba1 O13 2.569633 1_455
Ba1 O0 2.784825 1_555
Ba1 O10 2.832138 1_555
Ba1 O11 2.889499 1_455
Ba1 O1 2.917360 1_555
Ba1 O7 2.954167 1_555
Ba1 O9 2.985625 1_455
Ba1 O9 3.038933 1_555
Ca0 O3 2.200278 1_565
Ca0 O13 2.212132 1_465
Ca0 O2 2.556462 1_555
Ca0 O11 2.560917 1_455
Ca0 O12 2.608701 1_555
Ca0 O1 2.622365 1_555
O0 Si0 1.624322 1_555
O0 V1 2.220488 1_455
O1 Si1 1.661247 1_555
O1 V0 2.056352 1_555
O2 Si2 1.634498 1_555
O2 V1 2.258042 1_465
O3 Si3 1.603835 1_555
O4 Si1 1.619793 1_555
O4 Si0 1.641532 1_554
O5 Si2 1.613860 1_544
O5 Si3 1.632832 1_555
O6 V0 1.691033 1_556
O7 V0 1.754915 1_555
O7 V1 2.078351 1_454
O8 Si0 1.702692 1_555
O8 Si2 1.719798 1_555
O9 Si1 1.650120 1_555
O9 Si3 1.725093 1_555
O10 Si0 1.623717 1_555
O10 V1 2.244437 1_555
O11 Si1 1.662473 1_555
O11 V0 2.061816 1_655
O12 Si2 1.634358 1_555
O12 V1 2.235747 1_565
O13 Si3 1.607788 1_555
