# generated using pymatgen
data_NaEuTiNbO6F
_symmetry_space_group_name_H-M   'P 1'
_cell_length_a   7.35656984
_cell_length_b   7.35656984
_cell_length_c   7.35656984
_cell_angle_alpha   121.27739846
_cell_angle_beta   118.19103356
_cell_angle_gamma   90.48158515
_symmetry_Int_Tables_number   1
_chemical_formula_structural   NaEuTiNbO6F
_chemical_formula_sum   'Na2 Eu2 Ti2 Nb2 O12 F2'
_cell_volume   282.38763603
_cell_formula_units_Z   2
loop_
 _symmetry_equiv_pos_site_id
 _symmetry_equiv_pos_as_xyz
  1  'x, y, z'
loop_
 _atom_site_type_symbol
 _atom_site_label
 _atom_site_symmetry_multiplicity
 _atom_site_fract_x
 _atom_site_fract_y
 _atom_site_fract_z
 _atom_site_occupancy
  Na  Na0  1  0.00000000  0.00000000  0.50000000  1
  Na  Na1  1  0.00000000  0.50000000  0.00000000  1
  Eu  Eu0  1  0.00000000  0.00000000  0.00000000  1
  Eu  Eu1  1  0.50000000  0.00000000  0.50000000  1
  Ti  Ti0  1  0.50000000  0.50000000  0.50000000  1
  Ti  Ti1  1  0.50000000  0.00000000  0.00000000  1
  Nb  Nb0  1  0.50000000  0.50000000  0.00000000  1
  Nb  Nb1  1  0.00000000  0.50000000  0.50000000  1
  O  O0  1  0.42410400  0.17410400  0.25000000  1
  O  O1  1  0.81678700  0.56678700  0.25000000  1
  O  O2  1  0.43617200  0.58086800  0.26445300  1
  O  O3  1  0.81641500  0.17171900  0.23554700  1
  O  O4  1  0.43617200  0.17171900  0.85530400  1
  O  O5  1  0.81641500  0.58086800  0.64469600  1
  O  O6  1  0.57589600  0.82589600  0.75000000  1
  O  O7  1  0.18321300  0.43321300  0.75000000  1
  O  O8  1  0.56382800  0.41913200  0.73554700  1
  O  O9  1  0.18358500  0.82828100  0.76445300  1
  O  O10  1  0.56382800  0.82828100  0.14469600  1
  O  O11  1  0.18358500  0.41913200  0.35530400  1
  F  F0  1  0.12324300  0.87324300  0.25000000  1
  F  F1  1  0.87675700  0.12675700  0.75000000  1
loop_
_geom_bond_atom_site_label_1
_geom_bond_atom_site_label_2
_geom_bond_distance
_geom_bond_site_symmetry_2
Na0 O7 2.618277 1_555
Na0 O1 2.618277 1_445
Na0 O4 2.702366 1_555
Na0 O10 2.702366 1_445
Na0 O3 2.702366 1_455
Na0 O9 2.702366 1_545
Na1 O1 2.618277 1_455
Na1 O7 2.618277 1_554
Na1 O2 2.702366 1_555
Na1 O8 2.702366 1_454
Na1 O11 2.702366 1_555
Na1 O5 2.702366 1_454
Eu0 F0 2.300772 1_545
Eu0 F1 2.300772 1_454
Eu0 O5 2.527713 1_444
Eu0 O11 2.527713 1_555
Eu0 O9 2.527713 1_544
Eu0 O3 2.527713 1_455
Eu0 O0 2.611979 1_555
Eu0 O6 2.611979 1_444
Eu1 F1 2.300772 1_555
Eu1 F0 2.300772 1_545
Eu1 O2 2.527713 1_545
Eu1 O4 2.527713 1_555
Eu1 O8 2.527713 1_555
Eu1 O10 2.527713 1_545
Eu1 O0 2.611979 1_555
Eu1 O6 2.611979 1_545
Nb0 O4 2.006305 1_554
Nb0 O2 2.006305 1_555
Nb0 O10 2.006305 1_555
Nb0 O8 2.006305 1_554
Nb0 O7 2.011917 1_554
Nb0 O1 2.011917 1_555
Nb1 O11 2.006305 1_555
Nb1 O3 2.006305 1_455
Nb1 O9 2.006305 1_555
Nb1 O5 2.006305 1_455
Nb1 O1 2.011917 1_455
Nb1 O7 2.011917 1_555
O0 Ti0 1.967464 1_555
O0 Ti1 1.967464 1_555
O2 Ti0 1.970638 1_555
O3 Ti1 1.970638 1_555
O4 Ti1 1.970638 1_556
O5 Ti0 1.970638 1_555
O6 Ti1 1.967464 1_566
O6 Ti0 1.967464 1_555
O8 Ti0 1.970638 1_555
O9 Ti1 1.970638 1_566
O10 Ti1 1.970638 1_565
O11 Ti0 1.970638 1_555
F0 Na0 2.209723 1_565
F0 Na1 2.209723 1_555
F1 Na0 2.209723 1_655
F1 Na1 2.209723 1_656
