# generated using pymatgen
data_NaAl2Sb
_symmetry_space_group_name_H-M   'P 1'
_cell_length_a   5.10656250
_cell_length_b   5.10656250
_cell_length_c   8.64892300
_cell_angle_alpha   90.00000000
_cell_angle_beta   90.00000000
_cell_angle_gamma   120.00000653
_symmetry_Int_Tables_number   1
_chemical_formula_structural   NaAl2Sb
_chemical_formula_sum   'Na2 Al4 Sb2'
_cell_volume   195.32144916
_cell_formula_units_Z   2
loop_
 _symmetry_equiv_pos_site_id
 _symmetry_equiv_pos_as_xyz
  1  'x, y, z'
loop_
 _atom_site_type_symbol
 _atom_site_label
 _atom_site_symmetry_multiplicity
 _atom_site_fract_x
 _atom_site_fract_y
 _atom_site_fract_z
 _atom_site_occupancy
  Na  Na0  1  0.00000000  0.00000000  0.50000000  1
  Na  Na1  1  0.00000000  0.00000000  0.00000000  1
  Al  Al0  1  0.33333300  0.66666700  0.40896400  1
  Al  Al1  1  0.66666700  0.33333300  0.59103600  1
  Al  Al2  1  0.66666700  0.33333300  0.90896400  1
  Al  Al3  1  0.33333300  0.66666700  0.09103600  1
  Sb  Sb0  1  0.33333300  0.66666700  0.75000000  1
  Sb  Sb1  1  0.66666700  0.33333300  0.25000000  1
loop_
_geom_bond_atom_site_label_1
_geom_bond_atom_site_label_2
_geom_bond_distance
_geom_bond_site_symmetry_2
Na0 Sb1 3.656166 1_455
Na0 Sb0 3.656166 1_545
Na0 Sb1 3.656170 1_445
Na0 Sb0 3.656170 1_555
Na0 Sb0 3.656170 1_445
Na0 Sb1 3.656170 1_555
Na1 Sb0 3.656166 1_544
Na1 Sb1 3.656166 1_455
Na1 Sb1 3.656170 1_445
Na1 Sb0 3.656170 1_554
Na1 Sb0 3.656170 1_444
Na1 Sb1 3.656170 1_555
Al0 Al3 2.749735 1_555
Al0 Sb0 2.949594 1_555
Al0 Na0 3.051598 1_565
Al0 Na0 3.051602 1_555
Al0 Na0 3.051602 1_665
Al0 Sb1 3.253086 1_455
Al0 Sb1 3.253086 1_565
Al0 Sb1 3.253094 1_555
Al1 Al2 2.749735 1_555
Al1 Sb1 2.949594 1_555
Al1 Na0 3.051598 1_655
Al1 Na0 3.051602 1_555
Al1 Na0 3.051602 1_665
Al1 Sb0 3.253086 1_545
Al1 Sb0 3.253086 1_655
Al1 Sb0 3.253094 1_555
Al2 Sb1 2.949594 1_556
Al2 Na1 3.051598 1_656
Al2 Na1 3.051602 1_556
Al2 Na1 3.051602 1_666
Al2 Sb0 3.253086 1_545
Al2 Sb0 3.253086 1_655
Al2 Sb0 3.253094 1_555
Al3 Sb0 2.949594 1_554
Al3 Na1 3.051598 1_565
Al3 Na1 3.051602 1_555
Al3 Na1 3.051602 1_665
Al3 Sb1 3.253086 1_455
Al3 Sb1 3.253086 1_565
Al3 Sb1 3.253094 1_555
