# generated using pymatgen
data_Na3LiV4O12
_symmetry_space_group_name_H-M   'P 1'
_cell_length_a   5.92494260
_cell_length_b   7.09178391
_cell_length_c   7.09178391
_cell_angle_alpha   83.26401238
_cell_angle_beta   75.74080088
_cell_angle_gamma   75.74080088
_symmetry_Int_Tables_number   1
_chemical_formula_structural   Na3LiV4O12
_chemical_formula_sum   'Na3 Li1 V4 O12'
_cell_volume   279.39822248
_cell_formula_units_Z   1
loop_
 _symmetry_equiv_pos_site_id
 _symmetry_equiv_pos_as_xyz
  1  'x, y, z'
loop_
 _atom_site_type_symbol
 _atom_site_label
 _atom_site_symmetry_multiplicity
 _atom_site_fract_x
 _atom_site_fract_y
 _atom_site_fract_z
 _atom_site_occupancy
  Na  Na0  1  0.75000000  0.71136459  0.28863541  1
  Na  Na1  1  0.25000000  0.28850199  0.71149801  1
  Na  Na2  1  0.25000000  0.91550655  0.08449345  1
  Li  Li0  1  0.75000000  0.08984915  0.91015085  1
  V  V0  1  0.75431773  0.61637080  0.80205399  1
  V  V1  1  0.74568227  0.19794601  0.38362920  1
  V  V2  1  0.24993855  0.37872106  0.19808747  1
  V  V3  1  0.25006145  0.80191253  0.62127894  1
  O  O0  1  0.53449685  0.64382177  0.65333765  1
  O  O1  1  0.96550315  0.34666235  0.35617823  1
  O  O2  1  0.46341053  0.35869532  0.35178486  1
  O  O3  1  0.03658947  0.64821514  0.64130468  1
  O  O4  1  0.80977002  0.38677144  0.89797210  1
  O  O5  1  0.69022998  0.10202790  0.61322856  1
  O  O6  1  0.18524664  0.60543306  0.10068155  1
  O  O7  1  0.31475336  0.89931845  0.39456694  1
  O  O8  1  0.66680098  0.78085873  0.97338419  1
  O  O9  1  0.83319902  0.02661581  0.21914127  1
  O  O10  1  0.35552680  0.22132061  0.01991327  1
  O  O11  1  0.14447320  0.98008673  0.77867939  1
loop_
_geom_bond_atom_site_label_1
_geom_bond_atom_site_label_2
_geom_bond_distance
_geom_bond_site_symmetry_2
Na0 O8 2.376755 1_554
Na0 O9 2.376755 1_565
Na0 O6 2.564873 1_655
Na0 O7 2.564873 1_555
Na0 O0 2.633062 1_555
Na0 O1 2.633062 1_555
Na1 O11 2.384176 1_545
Na1 O10 2.384176 1_556
Na1 O4 2.580592 1_455
Na1 O5 2.580592 1_555
Na1 O2 2.603352 1_555
Na1 O3 2.603352 1_555
Na2 O6 2.308797 1_555
Na2 O7 2.308797 1_555
Na2 O10 2.366040 1_565
Na2 O11 2.366040 1_554
Na2 O9 2.384852 1_465
Na2 O8 2.384852 1_554
Li0 O4 2.208279 1_555
Li0 O5 2.208279 1_555
Li0 O10 2.266807 1_556
Li0 O11 2.266807 1_645
Li0 O9 2.332074 1_556
Li0 O8 2.332074 1_545
O0 V3 1.829469 1_555
O0 V0 1.830336 1_555
O1 V2 1.829469 1_655
O1 V1 1.830336 1_555
O2 V1 1.825956 1_555
O2 V2 1.833664 1_555
O3 V0 1.825956 1_455
O3 V3 1.833664 1_555
O4 V0 1.675902 1_555
O5 V1 1.675902 1_555
O6 V2 1.665953 1_555
O7 V3 1.665953 1_555
O8 V0 1.682290 1_555
O9 V1 1.682290 1_555
O10 V2 1.682697 1_555
O11 V3 1.682697 1_555
