# generated using pymatgen
data_CaSm4(Mo2O7)2
_symmetry_space_group_name_H-M   'P 1'
_cell_length_a   7.71198028
_cell_length_b   7.76192546
_cell_length_c   7.62315510
_cell_angle_alpha   59.92943107
_cell_angle_beta   59.55499789
_cell_angle_gamma   60.07791743
_symmetry_Int_Tables_number   1
_chemical_formula_structural   CaSm4(Mo2O7)2
_chemical_formula_sum   'Ca1 Sm4 Mo4 O14'
_cell_volume   321.58495477
_cell_formula_units_Z   1
loop_
 _symmetry_equiv_pos_site_id
 _symmetry_equiv_pos_as_xyz
  1  'x, y, z'
loop_
 _atom_site_type_symbol
 _atom_site_label
 _atom_site_symmetry_multiplicity
 _atom_site_fract_x
 _atom_site_fract_y
 _atom_site_fract_z
 _atom_site_occupancy
  Ca  Ca0  1  0.11806844  0.15312321  0.09202289  1
  Sm  Sm0  1  0.52176833  0.99705395  0.52095546  1
  Sm  Sm1  1  0.48107967  0.52454568  0.49671111  1
  Sm  Sm2  1  0.50388391  0.49529414  -0.00067335  1
  Sm  Sm3  1  -0.00029482  0.45319569  0.50642684  1
  Mo  Mo0  1  0.99084893  0.97996893  0.99202252  1
  Mo  Mo1  1  0.99643490  0.98540759  0.51926832  1
  Mo  Mo2  1  0.52856663  0.98855528  -0.00006904  1
  Mo  Mo3  1  0.98431567  0.54679519  0.99485844  1
  O  O0  1  0.67372652  0.06908674  0.68104688  1
  O  O1  1  0.09741627  0.67966772  0.66302405  1
  O  O2  1  0.90803666  0.32825676  0.34580453  1
  O  O3  1  0.65503303  0.66426877  0.09658352  1
  O  O4  1  0.37647276  0.36605195  0.38532117  1
  O  O5  1  0.90343922  0.34727593  0.89295797  1
  O  O6  1  0.09774655  0.06887155  0.65480030  1
  O  O7  1  0.34394806  0.91457597  0.90833916  1
  O  O8  1  0.34503579  0.34233985  0.90862153  1
  O  O9  1  0.09119413  0.65179582  0.11183666  1
  O  O10  1  0.62486564  0.63104978  0.61698368  1
  O  O11  1  0.32595940  0.90954299  0.31623719  1
  O  O12  1  0.89700581  0.94606087  0.33632852  1
  O  O13  1  0.66044848  0.08221563  0.08559166  1
loop_
_geom_bond_atom_site_label_1
_geom_bond_atom_site_label_2
_geom_bond_distance
_geom_bond_site_symmetry_2
Ca0 O5 2.253625 1_454
Ca0 O8 2.280879 1_554
Ca0 O7 2.309113 1_544
Ca0 O12 2.339721 1_445
Ca0 O2 2.340383 1_455
Ca0 O11 2.362419 1_545
Ca0 Mo3 2.512230 1_454
Ca0 Mo0 2.539746 1_444
Mo0 O13 2.083055 1_566
Mo0 O9 2.083218 1_656
Mo0 O6 2.099144 1_665
Mo0 O12 2.248288 1_556
Mo0 O7 2.294545 1_655
Mo0 O5 2.365144 1_565
Mo1 O1 1.963184 1_655
Mo1 O6 2.022727 1_665
Mo1 O0 2.053332 1_565
Mo1 O12 2.090517 1_555
Mo1 O11 2.152848 1_655
Mo1 O2 2.207338 1_565
Mo2 O13 1.968707 1_565
Mo2 O0 1.992671 1_564
Mo2 O3 2.061646 1_555
Mo2 O11 2.070646 1_555
Mo2 O7 2.251499 1_554
Mo2 O8 2.287787 1_564
Mo3 O1 2.066495 1_655
Mo3 O9 2.069350 1_656
Mo3 O3 2.069858 1_556
Mo3 O2 2.287699 1_556
Mo3 O8 2.340351 1_655
Mo3 O5 2.459877 1_555
O0 Sm0 2.441761 1_545
O0 Sm1 2.928702 1_555
O1 Sm1 2.446563 1_555
O2 Sm3 2.385509 1_655
O2 Sm1 2.720174 1_555
O3 Sm1 2.503858 1_555
O3 Sm2 2.646544 1_555
O4 Sm0 2.352138 1_545
O4 Sm1 2.369909 1_555
O4 Sm3 2.387265 1_555
O4 Sm2 2.392761 1_555
O5 Sm3 2.423589 1_655
O5 Sm2 2.518317 1_556
O6 Sm3 2.446438 1_555
O6 Sm0 2.723076 1_545
O7 Sm0 2.426598 1_555
O7 Sm2 2.682165 1_556
O8 Sm2 2.553501 1_556
O8 Sm1 2.579177 1_555
O9 Sm3 2.491932 1_555
O9 Sm2 2.600242 1_555
O10 Sm1 2.336243 1_555
O10 Sm0 2.343303 1_555
O10 Sm2 2.371328 1_556
O10 Sm3 2.384995 1_655
O11 Sm1 2.497067 1_555
O11 Sm0 3.106613 1_555
O12 Sm0 2.408274 1_555
O13 Sm2 2.645761 1_555
O13 Sm0 2.739555 1_545
