# generated using pymatgen
data_Ba6Tm2Al4O15
_symmetry_space_group_name_H-M   'P 1'
_cell_length_a   5.92925100
_cell_length_b   7.91434900
_cell_length_c   18.43934658
_cell_angle_alpha   88.44465196
_cell_angle_beta   90.00000000
_cell_angle_gamma   90.00000000
_symmetry_Int_Tables_number   1
_chemical_formula_structural   Ba6Tm2Al4O15
_chemical_formula_sum   'Ba12 Tm4 Al8 O30'
_cell_volume   864.96896304
_cell_formula_units_Z   2
loop_
 _symmetry_equiv_pos_site_id
 _symmetry_equiv_pos_as_xyz
  1  'x, y, z'
loop_
 _atom_site_type_symbol
 _atom_site_label
 _atom_site_symmetry_multiplicity
 _atom_site_fract_x
 _atom_site_fract_y
 _atom_site_fract_z
 _atom_site_occupancy
  Ba  Ba0  1  0.75686000  0.50135600  0.08086200  1
  Ba  Ba1  1  0.24314000  0.49864400  0.91913800  1
  Ba  Ba2  1  0.75686000  0.49864400  0.41913800  1
  Ba  Ba3  1  0.24314000  0.50135600  0.58086200  1
  Ba  Ba4  1  0.74639300  0.97095700  0.08906900  1
  Ba  Ba5  1  0.25360700  0.02904300  0.91093100  1
  Ba  Ba6  1  0.74639300  0.02904300  0.41093100  1
  Ba  Ba7  1  0.25360700  0.97095700  0.58906900  1
  Ba  Ba8  1  0.72121500  0.00000000  0.75000000  1
  Ba  Ba9  1  0.27878500  0.00000000  0.25000000  1
  Ba  Ba10  1  0.67243700  0.50000000  0.75000000  1
  Ba  Ba11  1  0.32756300  0.50000000  0.25000000  1
  Tm  Tm0  1  0.74375000  0.75119800  0.91018300  1
  Tm  Tm1  1  0.25625000  0.24880200  0.08981700  1
  Tm  Tm2  1  0.74375000  0.24880200  0.58981700  1
  Tm  Tm3  1  0.25625000  0.75119800  0.41018300  1
  Al  Al0  1  0.75274200  0.75283700  0.55530700  1
  Al  Al1  1  0.24725800  0.24716300  0.44469300  1
  Al  Al2  1  0.75274200  0.24716300  0.94469300  1
  Al  Al3  1  0.24725800  0.75283700  0.05530800  1
  Al  Al4  1  0.77270400  0.77912100  0.26833700  1
  Al  Al5  1  0.22729600  0.22087900  0.73166300  1
  Al  Al6  1  0.77270400  0.22087900  0.23166300  1
  Al  Al7  1  0.22729600  0.77912100  0.76833700  1
  O  O0  1  0.21086000  0.00000000  0.75000000  1
  O  O1  1  0.78914000  0.00000000  0.25000000  1
  O  O2  1  0.49232500  0.76294400  0.99815600  1
  O  O3  1  0.50767500  0.23705600  0.00184400  1
  O  O4  1  0.49232500  0.23705600  0.50184400  1
  O  O5  1  0.50767500  0.76294400  0.49815600  1
  O  O6  1  0.75719600  0.94709000  0.60432800  1
  O  O7  1  0.24280400  0.05291000  0.39567200  1
  O  O8  1  0.75719600  0.05291000  0.89567200  1
  O  O9  1  0.24280400  0.94709000  0.10432800  1
  O  O10  1  0.00310200  0.76177500  0.99626400  1
  O  O11  1  0.99689800  0.23822500  0.00373600  1
  O  O12  1  0.00310200  0.23822500  0.50373600  1
  O  O13  1  0.99689800  0.76177500  0.49626400  1
  O  O14  1  0.31317200  0.69143700  0.68667200  1
  O  O15  1  0.68682800  0.30856300  0.31332800  1
  O  O16  1  0.31317200  0.30856300  0.81332800  1
  O  O17  1  0.68682800  0.69143700  0.18667200  1
  O  O18  1  0.45142400  0.75271600  0.83344700  1
  O  O19  1  0.54857600  0.24728400  0.16655300  1
  O  O20  1  0.45142400  0.24728400  0.66655300  1
  O  O21  1  0.54857600  0.75271600  0.33344700  1
  O  O22  1  0.96772200  0.73258600  0.81248300  1
  O  O23  1  0.03227800  0.26741400  0.18751700  1
  O  O24  1  0.96772200  0.26741400  0.68751700  1
  O  O25  1  0.03227800  0.73258600  0.31248300  1
  O  O26  1  0.75379600  0.53888900  0.59158800  1
  O  O27  1  0.24620400  0.46111100  0.40841200  1
  O  O28  1  0.75379600  0.46111100  0.90841200  1
  O  O29  1  0.24620400  0.53888900  0.09158800  1
loop_
_geom_bond_atom_site_label_1
_geom_bond_atom_site_label_2
_geom_bond_distance
_geom_bond_site_symmetry_2
Ba0 O17 2.530127 1_555
Ba0 O19 2.809398 1_555
Ba0 O11 2.923315 1_555
Ba0 O29 2.923853 1_655
Ba0 O10 2.939126 1_654
Ba0 O3 2.974363 1_555
Ba0 O2 2.983400 1_554
Ba0 O29 3.049289 1_555
Ba0 O23 3.124876 1_655
Ba0 O28 3.204420 1_554
Ba1 O16 2.530127 1_555
Ba1 O18 2.809398 1_555
Ba1 O10 2.923315 1_555
Ba1 O28 2.923853 1_455
Ba1 O11 2.939126 1_456
Ba1 O2 2.974363 1_555
Ba1 O3 2.983400 1_556
Ba1 O28 3.049289 1_555
Ba1 O22 3.124876 1_455
Ba1 O29 3.204420 1_556
Ba2 O15 2.530127 1_555
Ba2 O21 2.809398 1_555
Ba2 O13 2.923315 1_555
Ba2 O27 2.923853 1_655
Ba2 O12 2.939126 1_655
Ba2 O5 2.974363 1_555
Ba2 O4 2.983400 1_555
Ba2 O27 3.049289 1_555
Ba2 O25 3.124876 1_655
Ba2 O26 3.204420 1_555
Ba3 O14 2.530127 1_555
Ba3 O20 2.809398 1_555
Ba3 O12 2.923315 1_555
Ba3 O26 2.923853 1_455
Ba3 O13 2.939126 1_455
Ba3 O4 2.974363 1_555
Ba3 O5 2.983400 1_555
Ba3 O26 3.049289 1_555
Ba3 O24 3.124876 1_455
Ba3 O27 3.204420 1_555
Ba4 O2 2.817740 1_554
Ba4 O17 2.835765 1_555
Ba4 O10 2.853032 1_654
Ba4 O19 2.892994 1_565
Ba4 O9 2.962304 1_655
Ba4 O3 2.973488 1_565
Ba4 O1 2.993315 1_565
Ba4 O11 2.995931 1_565
Ba4 O9 3.004595 1_555
Ba5 O3 2.817740 1_556
Ba5 O16 2.835765 1_555
Ba5 O11 2.853032 1_456
Ba5 O18 2.892994 1_545
Ba5 O8 2.962304 1_455
Ba5 O2 2.973488 1_545
Ba5 O0 2.993315 1_555
Ba5 O10 2.995931 1_545
Ba5 O8 3.004595 1_555
Ba6 O4 2.817740 1_555
Ba6 O15 2.835765 1_555
Ba6 O12 2.853032 1_655
Ba6 O21 2.892994 1_545
Ba6 O7 2.962304 1_655
Ba6 O5 2.973488 1_545
Ba6 O1 2.993315 1_555
Ba6 O13 2.995931 1_545
Ba6 O7 3.004595 1_555
Ba7 O5 2.817740 1_555
Ba7 O14 2.835765 1_555
Ba7 O13 2.853032 1_455
Ba7 O20 2.892994 1_565
Ba7 O6 2.962304 1_455
Ba7 O4 2.973488 1_565
Ba7 O0 2.993315 1_565
Ba7 O12 2.995931 1_565
Ba7 O6 3.004595 1_555
Ba8 O8 2.738072 1_555
Ba8 O6 2.738072 1_545
Ba8 O24 2.794733 1_555
Ba8 O22 2.794733 1_545
Ba8 O0 2.903228 1_655
Ba8 O18 2.931427 1_545
Ba8 O20 2.931427 1_555
Ba8 O0 3.026023 1_555
Ba9 O9 2.738072 1_545
Ba9 O7 2.738072 1_555
Ba9 O23 2.794733 1_555
Ba9 O25 2.794733 1_545
Ba9 O1 2.903228 1_455
Ba9 O21 2.931427 1_545
Ba9 O19 2.931427 1_555
Ba9 O1 3.026023 1_555
Ba10 O24 2.810046 1_555
Ba10 O22 2.810046 1_555
Ba10 O14 2.846173 1_555
Ba10 O16 2.846173 1_555
Ba10 O20 2.872677 1_555
Ba10 O18 2.872677 1_555
Ba10 O28 2.968325 1_555
Ba10 O26 2.968325 1_555
Ba11 O25 2.810046 1_555
Ba11 O23 2.810046 1_555
Ba11 O15 2.846173 1_555
Ba11 O17 2.846173 1_555
Ba11 O19 2.872677 1_555
Ba11 O21 2.872677 1_555
Ba11 O27 2.968325 1_555
Ba11 O29 2.968325 1_555
Al0 O5 1.795486 1_555
Al0 O26 1.803671 1_555
Al0 O6 1.804648 1_555
Al0 O13 1.811587 1_555
Al1 O4 1.795486 1_555
Al1 O27 1.803671 1_555
Al1 O7 1.804648 1_555
Al1 O12 1.811587 1_555
Al2 O3 1.795486 1_556
Al2 O28 1.803671 1_555
Al2 O8 1.804648 1_555
Al2 O11 1.811587 1_556
Al3 O2 1.795496 1_554
Al3 O29 1.803665 1_555
Al3 O9 1.804638 1_555
Al3 O10 1.811598 1_554
Al4 O17 1.750759 1_555
Al4 O1 1.774158 1_565
Al4 O25 1.775040 1_655
Al4 O21 1.799295 1_555
Al5 O16 1.750759 1_555
Al5 O0 1.774158 1_555
Al5 O24 1.775040 1_455
Al5 O20 1.799295 1_555
Al6 O15 1.750759 1_555
Al6 O1 1.774158 1_555
Al6 O23 1.775040 1_655
Al6 O19 1.799295 1_555
Al7 O14 1.750759 1_555
Al7 O0 1.774158 1_565
Al7 O22 1.775040 1_455
Al7 O18 1.799295 1_555
O2 Tm0 2.206948 1_555
O3 Tm1 2.206948 1_555
O4 Tm2 2.206948 1_555
O5 Tm3 2.206948 1_555
O6 Tm2 2.396897 1_565
O7 Tm3 2.396897 1_545
O8 Tm0 2.396897 1_545
O9 Tm1 2.396897 1_565
O10 Tm0 2.213230 1_455
O11 Tm1 2.213230 1_655
O12 Tm2 2.213230 1_455
O13 Tm3 2.213230 1_655
O18 Tm0 2.237315 1_555
O19 Tm1 2.237315 1_555
O20 Tm2 2.237315 1_555
O21 Tm3 2.237315 1_555
O22 Tm0 2.246139 1_555
O23 Tm1 2.246139 1_555
O24 Tm2 2.246139 1_555
O25 Tm3 2.246139 1_555
O26 Tm2 2.297740 1_555
O27 Tm3 2.297740 1_555
O28 Tm0 2.297740 1_555
O29 Tm1 2.297740 1_555
