# generated using pymatgen
data_Pr2MgS4
_symmetry_space_group_name_H-M   'P 1'
_cell_length_a   14.12643700
_cell_length_b   8.29669300
_cell_length_c   6.67727500
_cell_angle_alpha   90.00000000
_cell_angle_beta   90.00000000
_cell_angle_gamma   90.00000000
_symmetry_Int_Tables_number   1
_chemical_formula_structural   Pr2MgS4
_chemical_formula_sum   'Pr8 Mg4 S16'
_cell_volume   782.59473191
_cell_formula_units_Z   4
loop_
 _symmetry_equiv_pos_site_id
 _symmetry_equiv_pos_as_xyz
  1  'x, y, z'
loop_
 _atom_site_type_symbol
 _atom_site_label
 _atom_site_symmetry_multiplicity
 _atom_site_fract_x
 _atom_site_fract_y
 _atom_site_fract_z
 _atom_site_occupancy
  Pr  Pr0  1  0.00000000  0.00000000  0.50000000  1
  Pr  Pr1  1  0.50000000  0.00000000  0.00000000  1
  Pr  Pr2  1  0.50000000  0.50000000  0.00000000  1
  Pr  Pr3  1  0.00000000  0.50000000  0.50000000  1
  Pr  Pr4  1  0.23038000  0.75000000  0.99808500  1
  Pr  Pr5  1  0.76962000  0.25000000  0.00191500  1
  Pr  Pr6  1  0.26962000  0.25000000  0.49808500  1
  Pr  Pr7  1  0.73038000  0.75000000  0.50191500  1
  Mg  Mg0  1  0.09254900  0.25000000  0.92281200  1
  Mg  Mg1  1  0.90745100  0.75000000  0.07718800  1
  Mg  Mg2  1  0.40745100  0.75000000  0.42281200  1
  Mg  Mg3  1  0.59254900  0.25000000  0.57718800  1
  S  S0  1  0.16727400  0.01862200  0.75110000  1
  S  S1  1  0.83272600  0.98137800  0.24890000  1
  S  S2  1  0.33272600  0.98137800  0.25110000  1
  S  S3  1  0.66727400  0.01862200  0.74890000  1
  S  S4  1  0.66727400  0.48137800  0.74890000  1
  S  S5  1  0.33272600  0.51862200  0.25110000  1
  S  S6  1  0.83272600  0.51862200  0.24890000  1
  S  S7  1  0.16727400  0.48137800  0.75110000  1
  S  S8  1  0.06562300  0.75000000  0.24112200  1
  S  S9  1  0.93437700  0.25000000  0.75887800  1
  S  S10  1  0.43437700  0.25000000  0.74112200  1
  S  S11  1  0.56562300  0.75000000  0.25887800  1
  S  S12  1  0.09286200  0.25000000  0.28488100  1
  S  S13  1  0.90713800  0.75000000  0.71511900  1
  S  S14  1  0.40713800  0.75000000  0.78488100  1
  S  S15  1  0.59286200  0.25000000  0.21511900  1
loop_
_geom_bond_atom_site_label_1
_geom_bond_atom_site_label_2
_geom_bond_distance
_geom_bond_site_symmetry_2
Pr0 S13 2.843643 1_445
Pr0 S12 2.843643 1_555
Pr0 S9 2.854753 1_455
Pr0 S8 2.854753 1_545
Pr0 S1 2.901512 1_445
Pr0 S0 2.901512 1_555
Pr1 S15 2.843643 1_555
Pr1 S14 2.843643 1_544
Pr1 S11 2.854753 1_545
Pr1 S10 2.854753 1_554
Pr1 S3 2.901512 1_554
Pr1 S2 2.901512 1_545
Pr2 S15 2.843643 1_555
Pr2 S14 2.843643 1_554
Pr2 S11 2.854753 1_555
Pr2 S10 2.854753 1_554
Pr2 S4 2.901512 1_554
Pr2 S5 2.901512 1_555
Pr3 S13 2.843643 1_455
Pr3 S12 2.843643 1_555
Pr3 S9 2.854753 1_455
Pr3 S8 2.854753 1_555
Pr3 S7 2.901512 1_555
Pr3 S6 2.901512 1_455
Pr4 S8 2.837338 1_556
Pr4 S14 2.874285 1_555
Pr4 S0 2.912304 1_565
Pr4 S7 2.912304 1_555
Pr4 S5 2.937631 1_556
Pr4 S2 2.937631 1_556
Pr5 S9 2.837338 1_554
Pr5 S15 2.874285 1_555
Pr5 S1 2.912304 1_545
Pr5 S6 2.912304 1_555
Pr5 S4 2.937631 1_554
Pr5 S3 2.937631 1_554
Pr6 S10 2.837338 1_555
Pr6 S12 2.874285 1_555
Pr6 S2 2.912304 1_545
Pr6 S5 2.912304 1_555
Pr6 S7 2.937631 1_555
Pr6 S0 2.937631 1_555
Pr7 S11 2.837338 1_555
Pr7 S13 2.874285 1_555
Pr7 S3 2.912304 1_565
Pr7 S4 2.912304 1_555
Pr7 S1 2.937631 1_555
Pr7 S6 2.937631 1_555
Mg0 S12 2.417638 1_556
Mg0 S7 2.472660 1_555
Mg0 S0 2.472660 1_555
Mg0 S9 2.488131 1_455
Mg1 S13 2.417638 1_554
Mg1 S6 2.472660 1_555
Mg1 S1 2.472660 1_555
Mg1 S8 2.488131 1_655
Mg2 S14 2.417638 1_555
Mg2 S5 2.472660 1_555
Mg2 S2 2.472660 1_555
Mg2 S11 2.488131 1_555
Mg3 S15 2.417638 1_555
Mg3 S3 2.472660 1_555
Mg3 S4 2.472660 1_555
Mg3 S10 2.488131 1_555
