# generated using pymatgen
data_CeAl3Ag
_symmetry_space_group_name_H-M   'P 1'
_cell_length_a   4.30562453
_cell_length_b   4.30562451
_cell_length_c   6.32159831
_cell_angle_alpha   70.16755411
_cell_angle_beta   70.16752025
_cell_angle_gamma   90.10063256
_symmetry_Int_Tables_number   1
_chemical_formula_structural   CeAl3Ag
_chemical_formula_sum   'Ce1 Al3 Ag1'
_cell_volume   102.79464769
_cell_formula_units_Z   1
loop_
 _symmetry_equiv_pos_site_id
 _symmetry_equiv_pos_as_xyz
  1  'x, y, z'
loop_
 _atom_site_type_symbol
 _atom_site_label
 _atom_site_symmetry_multiplicity
 _atom_site_fract_x
 _atom_site_fract_y
 _atom_site_fract_z
 _atom_site_occupancy
  Ce  Ce0  1  0.98631426  0.98631414  0.02729764  1
  Al  Al0  1  0.74934333  0.24903231  0.50158860  1
  Al  Al1  1  0.24903197  0.74934317  0.50158897  1
  Al  Al2  1  0.39388237  0.39388185  0.21199841  1
  Ag  Ag0  1  0.62142708  0.62142754  0.75752539  1
loop_
_geom_bond_atom_site_label_1
_geom_bond_atom_site_label_2
_geom_bond_distance
_geom_bond_site_symmetry_2
Al0 Al2 2.685607 1_555
Al0 Al2 2.685833 1_655
Al0 Ce0 3.397030 1_545
Al0 Ce0 3.400358 1_555
Al0 Ce0 3.622030 1_546
Al0 Ce0 3.625607 1_446
Al1 Al2 2.685610 1_555
Al1 Al2 2.685833 1_565
Al1 Ce0 3.397032 1_455
Al1 Ce0 3.400360 1_555
Al1 Ce0 3.622027 1_456
Al1 Ce0 3.625607 1_446
Al2 Ce0 3.208110 1_445
Al2 Ce0 3.211181 1_555
Al2 Ce0 3.214712 1_545
Al2 Ce0 3.214716 1_455
Ag0 Al2 2.520042 1_556
Ag0 Al1 2.578102 1_655
Ag0 Al0 2.578103 1_565
Ag0 Al1 2.578878 1_555
Ag0 Al0 2.578880 1_555
Ag0 Ce0 3.387063 1_556
Ag0 Ce0 3.392486 1_446
Ag0 Ce0 3.394573 1_456
Ag0 Ce0 3.394577 1_546
