# generated using pymatgen
data_SrGe3Ir
_symmetry_space_group_name_H-M   'P 1'
_cell_length_a   5.96466315
_cell_length_b   5.96466315
_cell_length_c   5.96466315
_cell_angle_alpha   135.88965064
_cell_angle_beta   135.88965064
_cell_angle_gamma   64.15098324
_symmetry_Int_Tables_number   1
_chemical_formula_structural   SrGe3Ir
_chemical_formula_sum   'Sr1 Ge3 Ir1'
_cell_volume   101.41410684
_cell_formula_units_Z   1
loop_
 _symmetry_equiv_pos_site_id
 _symmetry_equiv_pos_as_xyz
  1  'x, y, z'
loop_
 _atom_site_type_symbol
 _atom_site_label
 _atom_site_symmetry_multiplicity
 _atom_site_fract_x
 _atom_site_fract_y
 _atom_site_fract_z
 _atom_site_occupancy
  Sr  Sr0  1  0.99999627  0.99999627  0.00000000  1
  Ge  Ge0  1  0.25385045  0.75385045  0.50000000  1
  Ge  Ge1  1  0.75385045  0.25385045  0.50000000  1
  Ge  Ge2  1  0.41167274  0.41167274  -0.00000000  1
  Ir  Ir0  1  0.64962809  0.64962809  0.00000000  1
loop_
_geom_bond_atom_site_label_1
_geom_bond_atom_site_label_2
_geom_bond_distance
_geom_bond_site_symmetry_2
Ge0 Ir0 2.475129 1_455
Ge0 Ir0 2.475129 1_556
Ge0 Ge2 2.749801 1_566
Ge0 Ge2 2.749801 1_555
Ge0 Sr0 3.347701 1_556
Ge0 Sr0 3.347701 1_455
Ge0 Sr0 3.406011 1_445
Ge0 Sr0 3.406011 1_456
Ge1 Ir0 2.475129 1_556
Ge1 Ir0 2.475129 1_545
Ge1 Ge2 2.749801 1_656
Ge1 Ge2 2.749801 1_555
Ge1 Sr0 3.347701 1_556
Ge1 Sr0 3.347701 1_545
Ge1 Sr0 3.406011 1_445
Ge1 Sr0 3.406011 1_546
Ge2 Ir0 2.405325 1_555
Ge2 Sr0 3.290873 1_455
Ge2 Sr0 3.290873 1_556
Ge2 Sr0 3.290873 1_444
Ge2 Sr0 3.290873 1_545
Ir0 Sr0 3.510054 1_545
Ir0 Sr0 3.510054 1_455
Ir0 Sr0 3.510054 1_556
Ir0 Sr0 3.510054 1_444
Ir0 Sr0 3.541628 1_555
