# generated using pymatgen
data_V6O7F5
_symmetry_space_group_name_H-M   'P 1'
_cell_length_a   5.63095889
_cell_length_b   5.63095889
_cell_length_c   7.62117655
_cell_angle_alpha   69.81972754
_cell_angle_beta   69.81972754
_cell_angle_gamma   69.55097136
_symmetry_Int_Tables_number   1
_chemical_formula_structural   V6O7F5
_chemical_formula_sum   'V6 O7 F5'
_cell_volume   205.48471562
_cell_formula_units_Z   1
loop_
 _symmetry_equiv_pos_site_id
 _symmetry_equiv_pos_as_xyz
  1  'x, y, z'
loop_
 _atom_site_type_symbol
 _atom_site_label
 _atom_site_symmetry_multiplicity
 _atom_site_fract_x
 _atom_site_fract_y
 _atom_site_fract_z
 _atom_site_occupancy
  V  V0  1  0.66587600  0.66587600  0.82982700  1
  V  V1  1  0.33381700  0.33381700  0.66153900  1
  V  V2  1  0.66026200  0.66026200  0.32737600  1
  V  V3  1  0.34604900  0.34604900  0.19244700  1
  V  V4  1  0.99863900  0.99863900  0.50032200  1
  V  V5  1  0.99948000  0.99948000  0.00249800  1
  O  O0  1  0.63314200  0.03246100  0.66600700  1
  O  O1  1  0.97592800  0.36731400  0.32947900  1
  O  O2  1  0.43424000  0.43424000  0.36573800  1
  O  O3  1  0.69305700  0.29974100  0.00170300  1
  O  O4  1  0.03246100  0.63314200  0.66600700  1
  O  O5  1  0.36731400  0.97592800  0.32947900  1
  O  O6  1  0.29974100  0.69305700  0.00170300  1
  F  F0  1  0.23059100  0.23059100  0.96495200  1
  F  F1  1  0.56638200  0.56638200  0.62616500  1
  F  F2  1  0.89598100  0.89598100  0.29697700  1
  F  F3  1  0.09858000  0.09858000  0.70550300  1
  F  F4  1  0.76846000  0.76846000  0.03227600  1
loop_
_geom_bond_atom_site_label_1
_geom_bond_atom_site_label_2
_geom_bond_distance
_geom_bond_site_symmetry_2
O0 V1 1.929452 1_555
O0 V4 1.991354 1_545
O0 V0 1.992119 1_545
O1 V2 1.957926 1_555
O1 V3 1.964384 1_655
O1 V4 2.021340 1_545
O2 V3 1.820645 1_555
O2 V2 1.985825 1_555
O2 V1 2.045969 1_555
O3 V5 1.948734 1_545
O3 V3 1.986201 1_555
O3 V0 2.011064 1_554
O4 V1 1.929452 1_555
O4 V4 1.991354 1_455
O4 V0 1.992119 1_455
O5 V2 1.957926 1_555
O5 V3 1.964384 1_565
O5 V4 2.021340 1_455
O6 V5 1.948734 1_455
O6 V3 1.986201 1_555
O6 V0 2.011064 1_554
F0 V5 2.034349 1_446
F0 V1 2.098602 1_555
F0 V3 2.387912 1_556
F1 V1 2.052742 1_555
F1 V2 2.068428 1_555
F1 V0 2.110962 1_555
F2 V5 2.036802 1_555
F2 V2 2.093792 1_555
F2 V4 2.130641 1_555
F3 V5 2.054429 1_446
F3 V1 2.057920 1_555
F3 V4 2.124675 1_445
F4 V2 2.041820 1_555
F4 V5 2.052090 1_555
F4 V0 2.123883 1_554
