# generated using pymatgen
data_TiCr2
_symmetry_space_group_name_H-M   'P 1'
_cell_length_a   4.85969359
_cell_length_b   4.85969310
_cell_length_c   7.78169066
_cell_angle_alpha   90.00000000
_cell_angle_beta   90.00000000
_cell_angle_gamma   119.99999646
_symmetry_Int_Tables_number   1
_chemical_formula_structural   TiCr2
_chemical_formula_sum   'Ti4 Cr8'
_cell_volume   159.15575263
_cell_formula_units_Z   4
loop_
 _symmetry_equiv_pos_site_id
 _symmetry_equiv_pos_as_xyz
  1  'x, y, z'
loop_
 _atom_site_type_symbol
 _atom_site_label
 _atom_site_symmetry_multiplicity
 _atom_site_fract_x
 _atom_site_fract_y
 _atom_site_fract_z
 _atom_site_occupancy
  Ti  Ti0  1  0.33333300  0.66666700  0.43955843  1
  Ti  Ti1  1  0.66666700  0.33333300  0.93955843  1
  Ti  Ti2  1  0.66666700  0.33333300  0.56044157  1
  Ti  Ti3  1  0.33333300  0.66666700  0.06044157  1
  Cr  Cr0  1  0.66010976  0.83005588  0.75000000  1
  Cr  Cr1  1  0.33989024  0.16994412  0.25000000  1
  Cr  Cr2  1  0.83005588  0.16994412  0.25000000  1
  Cr  Cr3  1  0.16994412  0.33989024  0.75000000  1
  Cr  Cr4  1  0.16994412  0.83005588  0.75000000  1
  Cr  Cr5  1  0.83005588  0.66010976  0.25000000  1
  Cr  Cr6  1  -0.00000000  0.00000000  0.50000000  1
  Cr  Cr7  1  -0.00000000  0.00000000  0.00000000  1
loop_
_geom_bond_atom_site_label_1
_geom_bond_atom_site_label_2
_geom_bond_distance
_geom_bond_site_symmetry_2
Ti0 Ti3 2.950170 1_555
Ti0 Ti2 2.959233 1_565
Ti0 Ti2 2.959233 1_455
Ti0 Ti2 2.959241 1_555
Ti1 Ti2 2.950170 1_555
Ti1 Ti3 2.959233 1_546
Ti1 Ti3 2.959233 1_656
Ti1 Ti3 2.959241 1_556
Cr0 Cr4 2.382055 1_555
Cr0 Cr3 2.382055 1_555
Cr0 Cr6 2.414727 1_665
Cr0 Cr7 2.414727 1_666
Cr0 Cr4 2.477639 1_655
Cr0 Cr3 2.477639 1_665
Cr0 Ti0 2.779800 1_555
Cr0 Ti3 2.779800 1_556
Cr0 Ti2 2.842667 1_565
Cr0 Ti1 2.842667 1_565
Cr0 Ti2 2.842680 1_555
Cr0 Ti1 2.842680 1_555
Cr1 Cr2 2.382055 1_555
Cr1 Cr5 2.382055 1_555
Cr1 Cr7 2.414727 1_555
Cr1 Cr6 2.414727 1_555
Cr1 Cr2 2.477639 1_455
Cr1 Cr5 2.477639 1_445
Cr1 Ti1 2.779800 1_554
Cr1 Ti2 2.779800 1_555
Cr1 Ti3 2.842667 1_545
Cr1 Ti0 2.842667 1_545
Cr1 Ti0 2.842680 1_555
Cr1 Ti3 2.842680 1_555
Cr2 Cr5 2.382055 1_555
Cr2 Cr6 2.414722 1_655
Cr2 Cr7 2.414722 1_655
Cr2 Cr5 2.477639 1_545
Cr2 Ti1 2.779802 1_554
Cr2 Ti2 2.779802 1_555
Cr2 Ti3 2.842673 1_545
Cr2 Ti0 2.842673 1_545
Cr2 Ti3 2.842673 1_655
Cr2 Ti0 2.842673 1_655
Cr3 Cr4 2.382055 1_555
Cr3 Cr6 2.414727 1_555
Cr3 Cr7 2.414727 1_556
Cr3 Cr4 2.477639 1_545
Cr3 Ti0 2.779800 1_555
Cr3 Ti3 2.779800 1_556
Cr3 Ti2 2.842667 1_455
Cr3 Ti1 2.842667 1_455
Cr3 Ti2 2.842680 1_555
Cr3 Ti1 2.842680 1_555
Cr4 Cr7 2.414722 1_566
Cr4 Cr6 2.414722 1_565
Cr4 Ti0 2.779802 1_555
Cr4 Ti3 2.779802 1_556
Cr4 Ti2 2.842673 1_565
Cr4 Ti1 2.842673 1_565
Cr4 Ti2 2.842673 1_455
Cr4 Ti1 2.842673 1_455
Cr5 Cr6 2.414727 1_665
Cr5 Cr7 2.414727 1_665
Cr5 Ti1 2.779800 1_554
Cr5 Ti2 2.779800 1_555
Cr5 Ti3 2.842667 1_655
Cr5 Ti0 2.842667 1_655
Cr5 Ti0 2.842680 1_555
Cr5 Ti3 2.842680 1_555
Cr6 Ti0 2.844892 1_545
Cr6 Ti2 2.844892 1_455
Cr6 Ti2 2.844896 1_445
Cr6 Ti0 2.844896 1_555
Cr6 Ti0 2.844896 1_445
Cr6 Ti2 2.844896 1_555
Cr7 Ti3 2.844892 1_545
Cr7 Ti1 2.844892 1_454
Cr7 Ti1 2.844896 1_444
Cr7 Ti3 2.844896 1_555
Cr7 Ti1 2.844896 1_554
Cr7 Ti3 2.844896 1_445
