# generated using pymatgen
data_K2MgGeO4
_symmetry_space_group_name_H-M   'P 1'
_cell_length_a   5.67934500
_cell_length_b   11.36138900
_cell_length_c   16.03685500
_cell_angle_alpha   90.00000000
_cell_angle_beta   90.00000000
_cell_angle_gamma   90.00000000
_symmetry_Int_Tables_number   1
_chemical_formula_structural   K2MgGeO4
_chemical_formula_sum   'K16 Mg8 Ge8 O32'
_cell_volume   1034.78204297
_cell_formula_units_Z   8
loop_
 _symmetry_equiv_pos_site_id
 _symmetry_equiv_pos_as_xyz
  1  'x, y, z'
loop_
 _atom_site_type_symbol
 _atom_site_label
 _atom_site_symmetry_multiplicity
 _atom_site_fract_x
 _atom_site_fract_y
 _atom_site_fract_z
 _atom_site_occupancy
  K  K0  1  0.03359600  0.22947100  0.87018000  1
  K  K1  1  0.96640400  0.77052900  0.37018000  1
  K  K2  1  0.96640400  0.72947100  0.87018000  1
  K  K3  1  0.03359600  0.27052900  0.37018000  1
  K  K4  1  0.01453200  0.49543300  0.74354400  1
  K  K5  1  0.98546800  0.50456700  0.24354400  1
  K  K6  1  0.98546800  0.99543300  0.74354400  1
  K  K7  1  0.01453200  0.00456700  0.24354400  1
  K  K8  1  0.53430100  0.26651200  0.50017500  1
  K  K9  1  0.46569900  0.73348800  0.00017500  1
  K  K10  1  0.46569900  0.76651200  0.50017500  1
  K  K11  1  0.53430100  0.23348800  0.00017500  1
  K  K12  1  0.51231000  0.00771200  0.62516000  1
  K  K13  1  0.48769000  0.99228800  0.12516000  1
  K  K14  1  0.48769000  0.50771200  0.62516000  1
  K  K15  1  0.51231000  0.49228800  0.12516000  1
  Mg  Mg0  1  0.02188200  0.01667900  0.49521600  1
  Mg  Mg1  1  0.97811800  0.98332100  0.99521600  1
  Mg  Mg2  1  0.97811800  0.51667900  0.49521600  1
  Mg  Mg3  1  0.02188200  0.48332100  0.99521600  1
  Mg  Mg4  1  0.51289400  0.23674700  0.74920900  1
  Mg  Mg5  1  0.48710600  0.76325300  0.24920900  1
  Mg  Mg6  1  0.48710600  0.73674700  0.74920900  1
  Mg  Mg7  1  0.51289400  0.26325300  0.24920900  1
  Ge  Ge0  1  0.52269400  0.48634100  0.87435900  1
  Ge  Ge1  1  0.47730600  0.51365900  0.37435900  1
  Ge  Ge2  1  0.47730600  0.98634100  0.87435900  1
  Ge  Ge3  1  0.52269400  0.01365900  0.37435900  1
  Ge  Ge4  1  0.00995000  0.26866700  0.61956600  1
  Ge  Ge5  1  0.99005000  0.73133300  0.11956600  1
  Ge  Ge6  1  0.99005000  0.76866700  0.61956600  1
  Ge  Ge7  1  0.00995000  0.23133300  0.11956600  1
  O  O0  1  0.58480000  0.33903200  0.84458400  1
  O  O1  1  0.41520000  0.66096800  0.34458400  1
  O  O2  1  0.41520000  0.83903200  0.84458400  1
  O  O3  1  0.58480000  0.16096800  0.34458400  1
  O  O4  1  0.26027800  0.30562400  0.68050300  1
  O  O5  1  0.73972200  0.69437600  0.18050300  1
  O  O6  1  0.73972200  0.80562400  0.68050300  1
  O  O7  1  0.26027800  0.19437600  0.18050300  1
  O  O8  1  0.11314400  0.59706300  0.08298700  1
  O  O9  1  0.88685600  0.40293700  0.58298700  1
  O  O10  1  0.88685600  0.09706300  0.08298700  1
  O  O11  1  0.11314400  0.90293700  0.58298700  1
  O  O12  1  0.21673700  0.50958000  0.89503300  1
  O  O13  1  0.78326300  0.49042000  0.39503300  1
  O  O14  1  0.78326300  0.00958000  0.89503300  1
  O  O15  1  0.21673700  0.99042000  0.39503300  1
  O  O16  1  0.20750400  0.69675200  0.68113700  1
  O  O17  1  0.79249600  0.30324800  0.18113700  1
  O  O18  1  0.79249600  0.19675200  0.68113700  1
  O  O19  1  0.20750400  0.80324800  0.18113700  1
  O  O20  1  0.31174300  0.01546500  0.96674900  1
  O  O21  1  0.68825700  0.98453500  0.46674900  1
  O  O22  1  0.68825700  0.51546500  0.96674900  1
  O  O23  1  0.31174300  0.48453500  0.46674900  1
  O  O24  1  0.09001300  0.17888000  0.53339800  1
  O  O25  1  0.90998700  0.82112000  0.03339800  1
  O  O26  1  0.90998700  0.67888000  0.53339800  1
  O  O27  1  0.09001300  0.32112000  0.03339800  1
  O  O28  1  0.39268000  0.08509700  0.79290000  1
  O  O29  1  0.60732000  0.91490300  0.29290000  1
  O  O30  1  0.60732000  0.58509700  0.79290000  1
  O  O31  1  0.39268000  0.41490300  0.29290000  1
loop_
_geom_bond_atom_site_label_1
_geom_bond_atom_site_label_2
_geom_bond_distance
_geom_bond_site_symmetry_2
K0 O27 2.835174 1_556
K0 O0 2.866122 1_455
K0 O28 2.895769 1_555
K0 O14 2.901982 1_455
K1 O26 2.835174 1_555
K1 O1 2.866122 1_655
K1 O29 2.895769 1_555
K1 O15 2.901982 1_655
K2 O25 2.835174 1_556
K2 O2 2.866122 1_655
K2 O30 2.895769 1_555
K2 O12 2.901982 1_655
K3 O24 2.835174 1_555
K3 O3 2.866122 1_455
K3 O31 2.895769 1_555
K3 O13 2.901982 1_455
K4 O30 2.648175 1_455
K4 O12 2.691962 1_555
K4 O16 2.726594 1_555
K4 O4 2.760518 1_555
K4 O9 2.874003 1_455
K5 O31 2.648175 1_655
K5 O13 2.691962 1_555
K5 O17 2.726594 1_555
K5 O5 2.760518 1_555
K5 O8 2.874003 1_655
K6 O28 2.648175 1_665
K6 O14 2.691962 1_565
K6 O18 2.726594 1_565
K6 O6 2.760518 1_555
K6 O11 2.874003 1_655
K7 O29 2.648175 1_445
K7 O15 2.691962 1_545
K7 O19 2.726594 1_545
K7 O7 2.760518 1_555
K7 O10 2.874003 1_455
K8 O24 2.764416 1_555
K8 O3 2.783188 1_555
K8 O23 2.832093 1_555
K8 O9 2.859242 1_555
K9 O25 2.764416 1_555
K9 O2 2.783188 1_554
K9 O22 2.832093 1_554
K9 O8 2.859242 1_555
K10 O26 2.764416 1_555
K10 O1 2.783188 1_555
K10 O21 2.832093 1_555
K10 O11 2.859242 1_555
K11 O27 2.764416 1_555
K11 O0 2.783188 1_554
K11 O20 2.832093 1_554
K11 O10 2.859242 1_555
K12 O11 2.648346 1_545
K12 O21 2.742548 1_545
K12 O6 2.779825 1_545
K12 O18 2.819728 1_555
K12 O28 2.910468 1_555
K13 O10 2.648346 1_565
K13 O20 2.742548 1_564
K13 O7 2.779825 1_565
K13 O19 2.819728 1_555
K13 O29 2.910468 1_555
K14 O9 2.648346 1_555
K14 O23 2.742548 1_555
K14 O4 2.779825 1_555
K14 O16 2.819728 1_555
K14 O30 2.910468 1_555
K15 O8 2.648346 1_555
K15 O22 2.742548 1_554
K15 O5 2.779825 1_555
K15 O17 2.819728 1_555
K15 O31 2.910468 1_555
Mg0 O15 1.973552 1_545
Mg0 O11 1.979862 1_545
Mg0 O24 1.980069 1_555
Mg0 O21 1.982912 1_445
Mg1 O14 1.973552 1_565
Mg1 O10 1.979862 1_566
Mg1 O25 1.980069 1_556
Mg1 O20 1.982912 1_665
Mg2 O13 1.973552 1_555
Mg2 O9 1.979862 1_555
Mg2 O26 1.980069 1_555
Mg2 O23 1.982912 1_655
Mg3 O12 1.973552 1_555
Mg3 O8 1.979862 1_556
Mg3 O27 1.980069 1_556
Mg3 O22 1.982912 1_455
Mg4 O0 1.963839 1_555
Mg4 O4 1.970974 1_555
Mg4 O18 1.979850 1_555
Mg4 O28 1.981322 1_555
Mg5 O1 1.963839 1_555
Mg5 O5 1.970974 1_555
Mg5 O19 1.979850 1_555
Mg5 O29 1.981322 1_555
Mg6 O2 1.963839 1_555
Mg6 O6 1.970974 1_555
Mg6 O16 1.979850 1_555
Mg6 O30 1.981322 1_555
Mg7 O3 1.963839 1_555
Mg7 O7 1.970974 1_555
Mg7 O17 1.979850 1_555
Mg7 O31 1.981322 1_555
Ge0 O0 1.775801 1_555
Ge0 O22 1.785750 1_555
Ge0 O30 1.787857 1_555
Ge0 O12 1.788578 1_555
Ge1 O1 1.775801 1_555
Ge1 O23 1.785750 1_555
Ge1 O31 1.787857 1_555
Ge1 O13 1.788578 1_555
Ge2 O2 1.775801 1_555
Ge2 O20 1.785750 1_565
Ge2 O28 1.787857 1_565
Ge2 O14 1.788578 1_565
Ge3 O3 1.775801 1_555
Ge3 O21 1.785750 1_545
Ge3 O29 1.787857 1_545
Ge3 O15 1.788578 1_545
Ge4 O4 1.775535 1_555
Ge4 O24 1.776772 1_555
Ge4 O9 1.777632 1_455
Ge4 O18 1.779821 1_455
Ge5 O5 1.775535 1_555
Ge5 O25 1.776772 1_555
Ge5 O8 1.777632 1_655
Ge5 O19 1.779821 1_655
Ge6 O6 1.775535 1_555
Ge6 O26 1.776772 1_555
Ge6 O11 1.777632 1_655
Ge6 O16 1.779821 1_655
Ge7 O7 1.775535 1_555
Ge7 O27 1.776772 1_555
Ge7 O10 1.777632 1_455
Ge7 O17 1.779821 1_455
