# generated using pymatgen
data_Mg6CoNi
_symmetry_space_group_name_H-M   'P 1'
_cell_length_a   4.53091700
_cell_length_b   6.59026900
_cell_length_c   9.44565200
_cell_angle_alpha   90.00000000
_cell_angle_beta   90.00000000
_cell_angle_gamma   90.00000000
_symmetry_Int_Tables_number   1
_chemical_formula_structural   Mg6CoNi
_chemical_formula_sum   'Mg12 Co2 Ni2'
_cell_volume   282.04680834
_cell_formula_units_Z   2
loop_
 _symmetry_equiv_pos_site_id
 _symmetry_equiv_pos_as_xyz
  1  'x, y, z'
loop_
 _atom_site_type_symbol
 _atom_site_label
 _atom_site_symmetry_multiplicity
 _atom_site_fract_x
 _atom_site_fract_y
 _atom_site_fract_z
 _atom_site_occupancy
  Mg  Mg0  1  0.00000000  0.27756100  0.13833600  1
  Mg  Mg1  1  0.00000000  0.72243900  0.13833600  1
  Mg  Mg2  1  0.00000000  0.50000000  0.88516900  1
  Mg  Mg3  1  0.50000000  0.22187000  0.86188100  1
  Mg  Mg4  1  0.50000000  0.77813000  0.86188100  1
  Mg  Mg5  1  0.50000000  0.50000000  0.61268100  1
  Mg  Mg6  1  0.00000000  0.77756100  0.63833600  1
  Mg  Mg7  1  0.00000000  0.22243900  0.63833600  1
  Mg  Mg8  1  0.00000000  0.00000000  0.38516900  1
  Mg  Mg9  1  0.50000000  0.72187000  0.36188100  1
  Mg  Mg10  1  0.50000000  0.27813000  0.36188100  1
  Mg  Mg11  1  0.50000000  0.00000000  0.11268100  1
  Co  Co0  1  0.00000000  0.50000000  0.40005900  1
  Co  Co1  1  0.00000000  0.00000000  0.90005900  1
  Ni  Ni0  1  0.50000000  0.50000000  0.10165600  1
  Ni  Ni1  1  0.50000000  0.00000000  0.60165600  1
loop_
_geom_bond_atom_site_label_1
_geom_bond_atom_site_label_2
_geom_bond_distance
_geom_bond_site_symmetry_2
Mg0 Ni0 2.720533 1_555
Mg0 Ni0 2.720533 1_455
Mg0 Mg2 2.804890 1_554
Mg0 Mg11 2.921815 1_455
Mg0 Mg11 2.921815 1_555
Mg0 Mg8 2.963421 1_555
Mg1 Ni0 2.720533 1_455
Mg1 Ni0 2.720533 1_555
Mg1 Mg2 2.804890 1_554
Mg1 Mg11 2.921815 1_465
Mg1 Mg11 2.921815 1_565
Mg1 Mg8 2.963421 1_565
Mg2 Mg3 2.922396 1_455
Mg2 Mg4 2.922396 1_455
Mg2 Mg3 2.922396 1_555
Mg2 Mg4 2.922396 1_555
Mg2 Mg7 2.963421 1_555
Mg2 Mg6 2.963421 1_555
Mg2 Ni0 3.051845 1_456
Mg2 Ni0 3.051845 1_556
Mg3 Ni1 2.860021 1_555
Mg3 Ni0 2.913618 1_556
Mg3 Mg5 2.983346 1_555
Mg4 Ni1 2.860021 1_565
Mg4 Ni0 2.913618 1_556
Mg4 Mg5 2.983346 1_555
Mg5 Mg9 2.783881 1_555
Mg5 Mg6 2.921815 1_555
Mg5 Mg6 2.921815 1_655
Mg5 Mg7 2.921815 1_555
Mg5 Mg7 2.921815 1_655
Mg5 Ni1 3.296780 1_565
Mg5 Ni1 3.296780 1_555
Mg6 Ni1 2.720533 1_465
Mg6 Ni1 2.720533 1_565
Mg6 Mg8 2.804890 1_565
Mg7 Ni1 2.720533 1_555
Mg7 Ni1 2.720533 1_455
Mg7 Mg8 2.804890 1_555
Mg8 Mg9 2.922396 1_445
Mg8 Mg9 2.922396 1_545
Mg8 Ni1 3.051845 1_555
Mg8 Ni1 3.051845 1_455
Mg9 Ni0 2.860021 1_555
Mg9 Ni1 2.913618 1_565
Mg10 Mg5 2.783881 1_555
Mg10 Ni0 2.860021 1_555
Mg10 Ni1 2.913618 1_555
Mg10 Mg8 2.922396 1_655
Mg10 Mg8 2.922396 1_555
Mg10 Mg11 2.983346 1_555
Mg11 Mg4 2.783881 1_544
Mg11 Mg3 2.783881 1_554
Mg11 Mg9 2.983346 1_545
Mg11 Ni0 3.296780 1_545
Mg11 Ni0 3.296780 1_555
Co0 Mg9 2.720354 1_455
Co0 Mg9 2.720354 1_555
Co0 Mg10 2.720354 1_455
Co0 Mg10 2.720354 1_555
Co0 Mg0 2.874101 1_555
Co0 Mg1 2.874101 1_555
Co0 Mg6 2.900267 1_555
Co0 Mg7 2.900267 1_555
Co0 Mg5 3.027505 1_555
Co0 Mg5 3.027505 1_455
Co0 Mg8 3.298135 1_565
Co0 Mg8 3.298135 1_555
Co1 Mg3 2.720354 1_555
Co1 Mg4 2.720354 1_545
Co1 Mg4 2.720354 1_445
Co1 Mg3 2.720354 1_455
Co1 Mg6 2.874101 1_545
Co1 Mg7 2.874101 1_555
Co1 Mg1 2.900267 1_546
Co1 Mg0 2.900267 1_556
Co1 Mg11 3.027505 1_456
Co1 Mg11 3.027505 1_556
Co1 Mg2 3.298135 1_545
Co1 Mg2 3.298135 1_555
