# generated using pymatgen
data_LaPPt
_symmetry_space_group_name_H-M   'P 1'
_cell_length_a   4.22140770
_cell_length_b   8.25721547
_cell_length_c   7.29663474
_cell_angle_alpha   90.00000000
_cell_angle_beta   90.00000000
_cell_angle_gamma   90.00000000
_symmetry_Int_Tables_number   1
_chemical_formula_structural   LaPPt
_chemical_formula_sum   'La4 P4 Pt4'
_cell_volume   254.33932954
_cell_formula_units_Z   4
loop_
 _symmetry_equiv_pos_site_id
 _symmetry_equiv_pos_as_xyz
  1  'x, y, z'
loop_
 _atom_site_type_symbol
 _atom_site_label
 _atom_site_symmetry_multiplicity
 _atom_site_fract_x
 _atom_site_fract_y
 _atom_site_fract_z
 _atom_site_occupancy
  La  La0  1  0.75000000  0.50002219  0.25004476  1
  La  La1  1  0.25000000  0.99997781  0.75004476  1
  La  La2  1  0.75000000  0.00002219  0.24995524  1
  La  La3  1  0.25000000  0.49997781  0.74995524  1
  P  P0  1  0.25000000  0.75018259  0.41685747  1
  P  P1  1  0.25000000  0.25018259  0.08314253  1
  P  P2  1  0.75000000  0.24981741  0.58314253  1
  P  P3  1  0.75000000  0.74981741  0.91685747  1
  Pt  Pt0  1  0.25000000  0.75002025  0.08324294  1
  Pt  Pt1  1  0.25000000  0.25002025  0.41675706  1
  Pt  Pt2  1  0.75000000  0.74997975  0.58324294  1
  Pt  Pt3  1  0.75000000  0.24997975  0.91675706  1
loop_
_geom_bond_atom_site_label_1
_geom_bond_atom_site_label_2
_geom_bond_distance
_geom_bond_site_symmetry_2
La0 P3 3.188235 1_554
La0 Pt2 3.189163 1_555
La0 P2 3.189926 1_555
La0 Pt3 3.190115 1_554
La0 P1 3.192812 1_655
La0 P1 3.192812 1_555
La0 Pt1 3.193151 1_555
La0 Pt1 3.193151 1_655
La0 Pt0 3.193379 1_555
La0 Pt0 3.193379 1_655
La0 P0 3.194276 1_655
La0 P0 3.194276 1_555
La1 P0 3.188235 1_555
La1 Pt0 3.189163 1_556
La1 P1 3.189926 1_566
La1 Pt1 3.190115 1_565
La1 P2 3.192812 1_565
La1 P2 3.192812 1_465
La1 Pt3 3.193151 1_565
La1 Pt3 3.193151 1_465
La1 Pt2 3.193379 1_555
La1 Pt2 3.193379 1_455
La1 P3 3.194276 1_555
La1 P3 3.194276 1_455
La2 P2 3.188235 1_555
La2 Pt3 3.189163 1_554
La2 P3 3.189926 1_544
La2 Pt2 3.190115 1_545
La2 P0 3.192812 1_645
La2 P0 3.192812 1_545
La2 Pt0 3.193151 1_645
La2 Pt0 3.193151 1_545
La2 Pt1 3.193379 1_655
La2 Pt1 3.193379 1_555
La2 P1 3.194276 1_555
La2 P1 3.194276 1_655
La3 P1 3.188235 1_556
La3 Pt1 3.189163 1_555
La3 P0 3.189926 1_555
La3 Pt0 3.190115 1_556
La3 P3 3.192812 1_555
La3 P3 3.192812 1_455
La3 Pt2 3.193151 1_455
La3 Pt2 3.193151 1_555
La3 Pt3 3.193379 1_455
La3 Pt3 3.193379 1_555
La3 P2 3.194276 1_555
La3 P2 3.194276 1_455
P0 Pt0 2.434264 1_555
P0 Pt2 2.434954 1_455
P0 Pt2 2.434954 1_555
P1 Pt1 2.434264 1_555
P1 Pt3 2.434954 1_554
P1 Pt3 2.434954 1_454
P2 Pt3 2.434264 1_555
P2 Pt1 2.434954 1_555
P2 Pt1 2.434954 1_655
P3 Pt2 2.434264 1_555
P3 Pt0 2.434954 1_556
P3 Pt0 2.434954 1_656
