# generated using pymatgen
data_Ce5CuPb3
_symmetry_space_group_name_H-M   'P 1'
_cell_length_a   6.58792600
_cell_length_b   9.61353703
_cell_length_c   9.61353703
_cell_angle_alpha   119.90351304
_cell_angle_beta   90.00000000
_cell_angle_gamma   90.00000000
_symmetry_Int_Tables_number   1
_chemical_formula_structural   Ce5CuPb3
_chemical_formula_sum   'Ce10 Cu2 Pb6'
_cell_volume   527.79731942
_cell_formula_units_Z   2
loop_
 _symmetry_equiv_pos_site_id
 _symmetry_equiv_pos_as_xyz
  1  'x, y, z'
loop_
 _atom_site_type_symbol
 _atom_site_label
 _atom_site_symmetry_multiplicity
 _atom_site_fract_x
 _atom_site_fract_y
 _atom_site_fract_z
 _atom_site_occupancy
  Ce  Ce0  1  0.75000000  0.73688300  0.73688300  1
  Ce  Ce1  1  0.75000000  0.26341900  0.00016100  1
  Ce  Ce2  1  0.75000000  0.00016100  0.26341900  1
  Ce  Ce3  1  0.25000000  0.26311700  0.26311700  1
  Ce  Ce4  1  0.25000000  0.73658100  0.99983900  1
  Ce  Ce5  1  0.25000000  0.99983900  0.73658100  1
  Ce  Ce6  1  0.00000000  0.66666100  0.33333900  1
  Ce  Ce7  1  0.00000000  0.33333900  0.66666100  1
  Ce  Ce8  1  0.50000000  0.33333900  0.66666100  1
  Ce  Ce9  1  0.50000000  0.66666100  0.33333900  1
  Cu  Cu0  1  0.00000000  0.00000000  0.00000000  1
  Cu  Cu1  1  0.50000000  0.00000000  0.00000000  1
  Pb  Pb0  1  0.75000000  0.38106600  0.38106600  1
  Pb  Pb1  1  0.75000000  0.61892100  0.99991000  1
  Pb  Pb2  1  0.75000000  0.99991000  0.61892100  1
  Pb  Pb3  1  0.25000000  0.61893400  0.61893400  1
  Pb  Pb4  1  0.25000000  0.38107900  0.00009000  1
  Pb  Pb5  1  0.25000000  0.00009000  0.38107900  1
loop_
_geom_bond_atom_site_label_1
_geom_bond_atom_site_label_2
_geom_bond_distance
_geom_bond_site_symmetry_2
Ce0 Cu1 3.021509 1_566
Ce0 Cu0 3.021509 1_666
Ce0 Pb2 3.246400 1_555
Ce0 Pb1 3.246400 1_555
Ce0 Pb0 3.425647 1_555
Ce0 Pb3 3.484206 1_655
Ce0 Pb3 3.484206 1_555
Ce1 Cu1 3.020204 1_555
Ce1 Cu0 3.020204 1_655
Ce1 Pb0 3.249431 1_555
Ce1 Pb2 3.254632 1_544
Ce1 Pb1 3.418835 1_554
Ce1 Pb4 3.482875 1_655
Ce1 Pb4 3.482875 1_555
Ce2 Cu1 3.020204 1_555
Ce2 Cu0 3.020204 1_655
Ce2 Pb0 3.249431 1_555
Ce2 Pb1 3.254632 1_544
Ce2 Pb2 3.418835 1_545
Ce2 Pb5 3.482875 1_655
Ce2 Pb5 3.482875 1_555
Ce3 Cu1 3.021509 1_555
Ce3 Cu0 3.021509 1_555
Ce3 Pb4 3.246400 1_555
Ce3 Pb5 3.246400 1_555
Ce3 Pb3 3.425647 1_555
Ce3 Pb0 3.484206 1_555
Ce3 Pb0 3.484206 1_455
Ce4 Cu1 3.020204 1_566
Ce4 Cu0 3.020204 1_566
Ce4 Pb3 3.249431 1_555
Ce4 Pb5 3.254632 1_566
Ce4 Pb4 3.418835 1_556
Ce4 Pb1 3.482875 1_555
Ce4 Pb1 3.482875 1_455
Ce5 Cu0 3.020204 1_566
Ce5 Cu1 3.020204 1_566
Ce5 Pb3 3.249431 1_555
Ce5 Pb4 3.254632 1_566
Ce5 Pb5 3.418835 1_565
Ce5 Pb2 3.482875 1_455
Ce5 Pb2 3.482875 1_555
Ce6 Ce9 3.293963 1_555
Ce6 Ce9 3.293963 1_455
Ce6 Pb3 3.423059 1_555
Ce6 Pb0 3.423059 1_455
Ce6 Pb1 3.425075 1_454
Ce6 Pb5 3.425075 1_565
Ce6 Pb2 3.426926 1_455
Ce6 Pb4 3.426926 1_555
Ce7 Ce8 3.293963 1_555
Ce7 Ce8 3.293963 1_455
Ce7 Pb3 3.423059 1_555
Ce7 Pb0 3.423059 1_455
Ce7 Pb2 3.425075 1_445
Ce7 Pb4 3.425075 1_556
Ce7 Pb1 3.426926 1_455
Ce7 Pb5 3.426926 1_555
Ce8 Pb3 3.423059 1_555
Ce8 Pb0 3.423059 1_555
Ce8 Pb2 3.425075 1_545
Ce8 Pb4 3.425075 1_556
Ce8 Pb1 3.426926 1_555
Ce8 Pb5 3.426926 1_555
Ce9 Pb3 3.423059 1_555
Ce9 Pb0 3.423059 1_555
Ce9 Pb1 3.425075 1_554
Ce9 Pb5 3.425075 1_565
Ce9 Pb2 3.426926 1_555
Ce9 Pb4 3.426926 1_555
Cu0 Cu1 3.293963 1_555
Cu0 Cu1 3.293963 1_455
