# generated using pymatgen
data_Ba4Mg(RhO3)4
_symmetry_space_group_name_H-M   'P 1'
_cell_length_a   5.77236100
_cell_length_b   5.77236189
_cell_length_c   10.84175800
_cell_angle_alpha   90.00000000
_cell_angle_beta   90.00000000
_cell_angle_gamma   120.00000065
_symmetry_Int_Tables_number   1
_chemical_formula_structural   Ba4Mg(RhO3)4
_chemical_formula_sum   'Ba4 Mg1 Rh4 O12'
_cell_volume   312.85087370
_cell_formula_units_Z   1
loop_
 _symmetry_equiv_pos_site_id
 _symmetry_equiv_pos_as_xyz
  1  'x, y, z'
loop_
 _atom_site_type_symbol
 _atom_site_label
 _atom_site_symmetry_multiplicity
 _atom_site_fract_x
 _atom_site_fract_y
 _atom_site_fract_z
 _atom_site_occupancy
  Ba  Ba0  1  0.66666700  0.33333300  0.73455200  1
  Ba  Ba1  1  0.33333300  0.66666700  0.33285800  1
  Ba  Ba2  1  0.00000000  0.00000000  0.53924400  1
  Ba  Ba3  1  0.00000000  0.00000000  0.95870100  1
  Mg  Mg0  1  0.33333300  0.66666700  0.08282000  1
  Rh  Rh0  1  0.33333300  0.66666700  0.85995500  1
  Rh  Rh1  1  0.66666700  0.33333300  0.37705400  1
  Rh  Rh2  1  0.66666700  0.33333300  0.11534000  1
  Rh  Rh3  1  0.33333300  0.66666700  0.60922300  1
  O  O0  1  0.18154200  0.36308500  0.73762400  1
  O  O1  1  0.81168300  0.18831700  0.24705400  1
  O  O2  1  0.37663400  0.18831700  0.24705400  1
  O  O3  1  0.63691500  0.81845800  0.73762400  1
  O  O4  1  0.18154200  0.81845800  0.73762400  1
  O  O5  1  0.81168300  0.62336600  0.24705400  1
  O  O6  1  0.50732300  0.01464600  0.50810800  1
  O  O7  1  0.49836900  0.50163100  0.99354800  1
  O  O8  1  0.49836900  0.99673900  0.99354800  1
  O  O9  1  0.50732300  0.49267700  0.50810800  1
  O  O10  1  0.98535400  0.49267700  0.50810800  1
  O  O11  1  0.00326100  0.50163100  0.99354800  1
loop_
_geom_bond_atom_site_label_1
_geom_bond_atom_site_label_2
_geom_bond_distance
_geom_bond_site_symmetry_2
Ba0 O0 2.890196 1_655
Ba0 O3 2.890197 1_545
Ba0 O4 2.890202 1_655
Ba0 O4 2.890202 1_545
Ba0 O0 2.890208 1_555
Ba0 O3 2.890208 1_555
Ba0 O10 2.926655 1_555
Ba0 O6 2.926655 1_555
Ba0 O9 2.926657 1_555
Ba0 O11 3.273526 1_655
Ba0 O8 3.273526 1_545
Ba0 O7 3.273532 1_555
Ba1 O10 2.576064 1_455
Ba1 O6 2.576064 1_565
Ba1 O9 2.576068 1_555
Ba1 Mg0 2.710851 1_555
Ba1 O5 3.040111 1_455
Ba1 O2 3.040111 1_565
Ba1 O1 3.040113 1_455
Ba1 O1 3.040113 1_565
Ba1 O5 3.040116 1_555
Ba1 O2 3.040116 1_555
Ba2 O4 2.814309 1_545
Ba2 O3 2.814312 1_445
Ba2 O0 2.814312 1_555
Ba2 O6 2.906777 1_555
Ba2 O6 2.906777 1_455
Ba2 O9 2.906777 1_555
Ba2 O9 2.906777 1_445
Ba2 O10 2.906777 1_455
Ba2 O10 2.906777 1_445
Ba3 O8 2.910846 1_545
Ba3 O11 2.910846 1_545
Ba3 O7 2.910849 1_445
Ba3 O7 2.910849 1_555
Ba3 O8 2.910851 1_445
Ba3 O11 2.910852 1_555
Ba3 O4 3.006560 1_545
Ba3 O3 3.006563 1_445
Ba3 O0 3.006563 1_555
Mg0 O11 1.912949 1_554
Mg0 O7 1.912949 1_554
Mg0 O8 1.912949 1_554
O0 Rh0 2.015482 1_555
O0 Rh3 2.059384 1_555
O1 Rh1 2.022034 1_555
O1 Rh2 2.035030 1_555
O2 Rh1 2.022038 1_555
O2 Rh2 2.035034 1_555
O3 Rh0 2.015482 1_555
O3 Rh3 2.059384 1_555
O4 Rh0 2.015482 1_555
O4 Rh3 2.059384 1_555
O5 Rh1 2.022038 1_555
O5 Rh2 2.035034 1_555
O6 Rh3 2.056170 1_545
O6 Rh1 2.134681 1_555
O7 Rh2 2.138893 1_556
O7 Rh0 2.195547 1_555
O8 Rh2 2.138885 1_566
O8 Rh0 2.195547 1_555
O9 Rh3 2.056174 1_555
O9 Rh1 2.134685 1_555
O10 Rh3 2.056169 1_655
O10 Rh1 2.134681 1_555
O11 Rh2 2.138885 1_456
O11 Rh0 2.195546 1_555
