# generated using pymatgen
data_SrCaMn2O6
_symmetry_space_group_name_H-M   'P 1'
_cell_length_a   3.82952769
_cell_length_b   5.40709326
_cell_length_c   10.88132878
_cell_angle_alpha   89.99514468
_cell_angle_beta   89.99986485
_cell_angle_gamma   90.00021600
_symmetry_Int_Tables_number   1
_chemical_formula_structural   SrCaMn2O6
_chemical_formula_sum   'Sr2 Ca2 Mn4 O12'
_cell_volume   225.31546715
_cell_formula_units_Z   2
loop_
 _symmetry_equiv_pos_site_id
 _symmetry_equiv_pos_as_xyz
  1  'x, y, z'
loop_
 _atom_site_type_symbol
 _atom_site_label
 _atom_site_symmetry_multiplicity
 _atom_site_fract_x
 _atom_site_fract_y
 _atom_site_fract_z
 _atom_site_occupancy
  Sr  Sr0  1  0.49999900  0.99990800  0.25138600  1
  Sr  Sr1  1  0.49999900  0.99992700  0.75139800  1
  Ca  Ca0  1  0.50000200  0.50005300  0.01177100  1
  Ca  Ca1  1  0.49999700  0.50005100  0.51175600  1
  Mn  Mn0  1  0.99999400  0.00002000  0.50288600  1
  Mn  Mn1  1  0.00000300  0.49992300  0.75603300  1
  Mn  Mn2  1  0.00001500  0.00001400  0.00286500  1
  Mn  Mn3  1  0.99999900  0.49991400  0.25593100  1
  O  O0  1  0.50000300  0.49999900  0.24073500  1
  O  O1  1  0.49999900  0.50000900  0.74073100  1
  O  O2  1  0.50000800  0.00006700  0.99866800  1
  O  O3  1  0.50000200  0.00005800  0.49869100  1
  O  O4  1  0.99999800  0.25153700  0.37398800  1
  O  O5  1  0.99999900  0.25164100  0.87395700  1
  O  O6  1  0.99999800  0.74449900  0.12034400  1
  O  O7  1  0.99999300  0.74458500  0.62031600  1
  O  O8  1  0.99999800  0.25650300  0.11985600  1
  O  O9  1  0.99999900  0.25641500  0.61981300  1
  O  O10  1  0.99999500  0.74746500  0.37445500  1
  O  O11  1  0.99999900  0.74741300  0.87442100  1
loop_
_geom_bond_atom_site_label_1
_geom_bond_atom_site_label_2
_geom_bond_distance
_geom_bond_site_symmetry_2
Ca0 O0 2.491433 1_555
Ca0 O8 2.604511 1_555
Ca0 O8 2.604522 1_455
Ca0 O6 2.609458 1_555
Ca0 O6 2.609484 1_455
Ca0 O2 2.707240 1_554
Ca0 O2 2.707367 1_564
Ca0 O11 2.772812 1_554
Ca0 O11 2.772840 1_454
Ca0 O5 2.778412 1_554
Ca0 O5 2.778426 1_454
Ca0 O1 2.949275 1_554
Ca1 O1 2.491552 1_555
Ca1 O9 2.604603 1_455
Ca1 O9 2.604626 1_555
Ca1 O7 2.609635 1_555
Ca1 O7 2.609661 1_455
Ca1 O3 2.707256 1_555
Ca1 O3 2.707308 1_565
Ca1 O10 2.772669 1_555
Ca1 O10 2.772691 1_455
Ca1 O4 2.778412 1_455
Ca1 O4 2.778419 1_555
Ca1 O0 2.949069 1_555
Mn0 O7 1.881506 1_545
Mn0 O9 1.881773 1_555
Mn0 O3 1.915277 1_555
Mn0 O3 1.915338 1_655
Mn0 O4 1.953573 1_555
Mn0 O10 1.954012 1_545
Mn1 O5 1.857013 1_455
Mn1 O11 1.857574 1_455
Mn1 O1 1.921974 1_555
Mn1 O1 1.922006 1_455
Mn1 O7 1.982585 1_455
Mn1 O9 1.982683 1_455
Mn2 O6 1.882186 1_445
Mn2 O8 1.882619 1_455
Mn2 O2 1.915282 1_554
Mn2 O2 1.915335 1_454
Mn2 O5 1.954065 1_454
Mn2 O11 1.954287 1_444
Mn3 O4 1.858384 1_555
Mn3 O10 1.858839 1_555
Mn3 O0 1.921875 1_555
Mn3 O0 1.921905 1_655
Mn3 O8 1.981155 1_555
Mn3 O6 1.981254 1_555
O0 Sr0 2.705548 1_555
O0 Sr0 2.706511 1_545
O1 Sr1 2.705604 1_555
O1 Sr1 2.706470 1_545
O2 Sr1 2.690626 1_545
O2 Sr0 2.749908 1_546
O3 Sr0 2.691007 1_545
O3 Sr1 2.749788 1_545
O4 Sr0 2.701396 1_545
O4 Sr0 2.701404 1_645
O5 Sr1 2.701399 1_545
O5 Sr1 2.701402 1_645
O6 Sr0 2.758095 1_555
O6 Sr0 2.758097 1_655
O7 Sr1 2.758125 1_555
O7 Sr1 2.758154 1_655
O8 Sr0 2.763929 1_545
O8 Sr0 2.763946 1_645
O9 Sr1 2.763951 1_545
O9 Sr1 2.763963 1_645
O10 Sr0 2.706011 1_555
O10 Sr0 2.706021 1_655
O11 Sr1 2.705956 1_655
O11 Sr1 2.705968 1_555
