# generated using pymatgen
data_Na3GdV2O8
_symmetry_space_group_name_H-M   'P 1'
_cell_length_a   5.62747699
_cell_length_b   14.35592020
_cell_length_c   14.92606252
_cell_angle_alpha   91.40532194
_cell_angle_beta   100.86594567
_cell_angle_gamma   90.00000000
_symmetry_Int_Tables_number   1
_chemical_formula_structural   Na3GdV2O8
_chemical_formula_sum   'Na18 Gd6 V12 O48'
_cell_volume   1183.85199903
_cell_formula_units_Z   6
loop_
 _symmetry_equiv_pos_site_id
 _symmetry_equiv_pos_as_xyz
  1  'x, y, z'
loop_
 _atom_site_type_symbol
 _atom_site_label
 _atom_site_symmetry_multiplicity
 _atom_site_fract_x
 _atom_site_fract_y
 _atom_site_fract_z
 _atom_site_occupancy
  Na  Na0  1  0.70694471  0.41760853  0.42047869  1
  Na  Na1  1  0.71353398  0.91760853  0.42047869  1
  Na  Na2  1  0.81860696  0.32778092  0.67490317  1
  Na  Na3  1  0.85629620  0.82778092  0.67490317  1
  Na  Na4  1  0.66560920  0.07498696  0.22192107  1
  Na  Na5  1  0.55631187  0.57498696  0.22192107  1
  Na  Na6  1  0.45530166  0.23510072  0.00664630  1
  Na  Na7  1  0.55134464  0.73510072  0.00664630  1
  Na  Na8  1  0.94997727  0.00864667  0.87823361  1
  Na  Na9  1  0.92825634  0.50864667  0.87823361  1
  Na  Na10  1  0.39596888  0.39062604  0.80301966  1
  Na  Na11  1  0.40705079  0.89062604  0.80301966  1
  Na  Na12  1  0.06822530  0.15452778  0.11743557  1
  Na  Na13  1  0.04921026  0.65452778  0.11743557  1
  Na  Na14  1  0.28720382  0.47561371  0.55684667  1
  Na  Na15  1  0.26964285  0.97561371  0.55684667  1
  Na  Na16  1  0.19463052  0.29484341  0.35914797  1
  Na  Na17  1  0.16451746  0.79484341  0.35914797  1
  Gd  Gd0  1  0.41845255  0.63438261  0.76127375  1
  Gd  Gd1  1  0.34282120  0.13438261  0.76127375  1
  Gd  Gd2  1  0.95850846  0.40057558  0.11540844  1
  Gd  Gd3  1  0.15689998  0.90057558  0.11540844  1
  Gd  Gd4  1  0.77064125  0.16992728  0.46572042  1
  Gd  Gd5  1  0.69507917  0.66992728  0.46572042  1
  V  V0  1  0.29928476  0.25079126  0.57151851  1
  V  V1  1  0.27223375  0.75079126  0.57151851  1
  V  V2  1  0.91537063  0.25816173  0.89054690  1
  V  V3  1  0.97517626  0.75816173  0.89054690  1
  V  V4  1  0.81914052  0.04994243  0.65306441  1
  V  V5  1  0.83392389  0.54994243  0.65306441  1
  V  V6  1  0.20000203  0.04828252  0.33599892  1
  V  V7  1  0.13599689  0.54828252  0.33599892  1
  V  V8  1  0.57107715  0.30828190  0.22858498  1
  V  V9  1  0.65750783  0.80828190  0.22858498  1
  V  V10  1  0.54857305  0.00210876  0.00011183  1
  V  V11  1  0.45153878  0.50210876  0.00011183  1
  O  O0  1  0.07473433  0.16219699  0.85672828  1
  O  O1  1  0.78199395  0.66219699  0.85672828  1
  O  O2  1  0.57899116  0.01855731  0.70498275  1
  O  O3  1  0.12599159  0.51855731  0.70498275  1
  O  O4  1  0.59325452  0.39389265  0.00692746  1
  O  O5  1  0.41367293  0.89389265  0.00692746  1
  O  O6  1  0.54011302  0.28776916  0.52225781  1
  O  O7  1  0.98214479  0.78776916  0.52225781  1
  O  O8  1  0.68779558  0.41894353  0.21867387  1
  O  O9  1  0.53087829  0.91894353  0.21867387  1
  O  O10  1  0.98407488  0.35438909  0.83349493  1
  O  O11  1  0.84942005  0.85438909  0.83349493  1
  O  O12  1  0.86786887  0.16817575  0.65668944  1
  O  O13  1  0.78882057  0.66817575  0.65668944  1
  O  O14  1  0.41529806  0.07606410  0.06883067  1
  O  O15  1  0.65353261  0.57606410  0.06883067  1
  O  O16  1  0.12675524  0.52538838  0.21931407  1
  O  O17  1  0.09255883  0.02538838  0.21931407  1
  O  O18  1  0.64782366  0.27666488  0.34244530  1
  O  O19  1  0.69462164  0.77666488  0.34244530  1
  O  O20  1  0.33502080  0.64230389  0.36683402  1
  O  O21  1  0.03181322  0.14230389  0.36683402  1
  O  O22  1  0.25145208  0.30468394  0.19751473  1
  O  O23  1  0.94606264  0.80468394  0.19751473  1
  O  O24  1  0.50873716  0.07958994  0.35926472  1
  O  O25  1  0.85052756  0.57958994  0.35926472  1
  O  O26  1  0.27366794  0.13194309  0.56533151  1
  O  O27  1  0.29166357  0.63194309  0.56533151  1
  O  O28  1  0.03609677  0.29967576  0.51043669  1
  O  O29  1  0.47433991  0.79967576  0.51043669  1
  O  O30  1  0.76535005  0.01959081  0.53713204  1
  O  O31  1  0.77178198  0.51959081  0.53713204  1
  O  O32  1  0.48020784  0.03537718  0.88598904  1
  O  O33  1  0.40578120  0.53537718  0.88598904  1
  O  O34  1  0.60246616  0.23500849  0.86175398  1
  O  O35  1  0.25928782  0.73500849  0.86175398  1
  O  O36  1  0.24862348  0.45303403  0.39779764  1
  O  O37  1  0.14917416  0.95303403  0.39779764  1
  O  O38  1  0.62833604  0.49698765  0.71118293  1
  O  O39  1  0.08284689  0.99698765  0.71118293  1
  O  O40  1  0.01336949  0.27608274  0.00847012  1
  O  O41  1  0.99510064  0.77608274  0.00847012  1
  O  O42  1  0.71355682  0.23918036  0.15845160  1
  O  O43  1  0.44489477  0.73918036  0.15845160  1
  O  O44  1  0.16527401  0.49753415  0.03281152  1
  O  O45  1  0.86753752  0.99753415  0.03281152  1
  O  O46  1  0.34328048  0.78157732  0.68768403  1
  O  O47  1  0.34440356  0.28157732  0.68768403  1
loop_
_geom_bond_atom_site_label_1
_geom_bond_atom_site_label_2
_geom_bond_distance
_geom_bond_site_symmetry_2
Na0 O31 2.223444 1_555
Na0 O18 2.302095 1_555
Na0 O36 2.589348 1_555
Na0 O28 2.697046 1_655
Na0 O25 2.697722 1_555
Na0 O6 2.709291 1_555
Na1 O30 2.223444 1_565
Na1 O19 2.302095 1_555
Na1 O37 2.589348 1_655
Na1 O29 2.697046 1_555
Na1 O24 2.697722 1_565
Na1 O7 2.709291 1_555
Na2 O12 2.323484 1_555
Na2 O10 2.396037 1_555
Na2 O6 2.562567 1_555
Na2 O38 2.737597 1_555
Na2 O47 2.792088 1_555
Na2 O28 2.961619 1_655
Na2 O47 3.004144 1_655
Na3 O13 2.323484 1_555
Na3 O11 2.396037 1_555
Na3 O7 2.562567 1_555
Na3 O39 2.737597 1_655
Na3 O46 2.792088 1_655
Na3 O29 2.961619 1_555
Na3 O46 3.004144 1_555
Na4 O9 2.361416 1_545
Na4 O24 2.379466 1_555
Na4 O14 2.448271 1_555
Na4 O17 2.512990 1_655
Na4 O42 2.594672 1_555
Na4 O21 2.841868 1_655
Na5 O8 2.361416 1_555
Na5 O25 2.379466 1_555
Na5 O15 2.448271 1_555
Na5 O16 2.512990 1_555
Na5 O43 2.594672 1_555
Na5 O20 2.841868 1_555
Na6 O4 2.407820 1_555
Na6 O42 2.449822 1_555
Na6 O34 2.457262 1_554
Na6 O14 2.511477 1_555
Na6 O40 2.560587 1_555
Na7 O5 2.407820 1_555
Na7 O43 2.449822 1_555
Na7 O35 2.457262 1_554
Na7 O15 2.511477 1_555
Na7 O41 2.560587 1_555
Na8 O11 2.335635 1_545
Na8 O0 2.361099 1_655
Na8 O45 2.446559 1_546
Na8 O32 2.694914 1_555
Na8 O39 2.736171 1_645
Na9 O10 2.335635 1_555
Na9 O1 2.361099 1_555
Na9 O44 2.446559 1_656
Na9 O33 2.694914 1_655
Na9 O38 2.736171 1_555
Na10 O47 2.275529 1_555
Na10 O33 2.388079 1_555
Na10 O10 2.501886 1_455
Na10 O38 2.588215 1_555
Na10 O34 2.611860 1_555
Na10 O3 2.667607 1_555
Na11 O46 2.275529 1_555
Na11 O32 2.388079 1_565
Na11 O11 2.501886 1_555
Na11 O39 2.588215 1_555
Na11 O35 2.611860 1_555
Na11 O2 2.667607 1_565
Na12 O40 2.394914 1_555
Na12 O17 2.414101 1_555
Na12 O14 2.470639 1_555
Na12 O42 2.501886 1_455
Na12 O22 2.558816 1_555
Na12 O45 2.696850 1_445
Na13 O41 2.394914 1_455
Na13 O16 2.414101 1_555
Na13 O15 2.470639 1_455
Na13 O43 2.501886 1_555
Na13 O23 2.558816 1_455
Na13 O44 2.696850 1_555
Na14 O27 2.244593 1_555
Na14 O36 2.357096 1_555
Na14 O3 2.604121 1_555
Na14 O38 2.717386 1_555
Na14 O31 2.869336 1_555
Na14 O28 2.898490 1_555
Na14 O31 2.930108 1_455
Na15 O26 2.244593 1_565
Na15 O37 2.357096 1_555
Na15 O2 2.604121 1_565
Na15 O39 2.717386 1_555
Na15 O30 2.869336 1_465
Na15 O29 2.898490 1_555
Na15 O30 2.930107 1_565
Na16 O36 2.334971 1_555
Na16 O21 2.387478 1_555
Na16 O22 2.500032 1_555
Na16 O28 2.579112 1_555
Na16 O18 2.621257 1_555
Na16 O6 2.818684 1_555
Na17 O37 2.334971 1_555
Na17 O20 2.387478 1_555
Na17 O23 2.500032 1_455
Na17 O29 2.579112 1_555
Na17 O19 2.621257 1_455
Na17 O7 2.818684 1_455
Gd0 O1 2.290832 1_555
Gd0 O35 2.353423 1_555
Gd0 O3 2.364235 1_555
Gd0 O33 2.381229 1_555
Gd0 O46 2.406110 1_555
Gd0 O38 2.470853 1_555
Gd0 O27 2.876125 1_555
Gd0 O13 2.877505 1_555
Gd1 O0 2.290832 1_555
Gd1 O34 2.353423 1_555
Gd1 O2 2.364235 1_555
Gd1 O32 2.381229 1_555
Gd1 O47 2.406110 1_555
Gd1 O39 2.470853 1_545
Gd1 O26 2.876125 1_555
Gd1 O12 2.877505 1_455
Gd2 O22 2.331454 1_655
Gd2 O44 2.331584 1_655
Gd2 O4 2.365053 1_555
Gd2 O8 2.373075 1_555
Gd2 O16 2.412958 1_655
Gd2 O40 2.425500 1_655
Gd2 O42 2.843977 1_555
Gd3 O23 2.331454 1_455
Gd3 O45 2.331584 1_455
Gd3 O5 2.365053 1_555
Gd3 O9 2.373075 1_555
Gd3 O17 2.412958 1_565
Gd3 O41 2.425500 1_455
Gd3 O43 2.843977 1_555
Gd4 O21 2.298934 1_655
Gd4 O24 2.322697 1_555
Gd4 O6 2.366384 1_555
Gd4 O28 2.389488 1_655
Gd4 O18 2.422840 1_555
Gd4 O30 2.433049 1_555
Gd4 O12 2.800068 1_555
Gd4 O26 2.995688 1_655
Gd5 O20 2.298934 1_555
Gd5 O25 2.322697 1_555
Gd5 O7 2.366384 1_555
Gd5 O29 2.389488 1_555
Gd5 O19 2.422840 1_555
Gd5 O31 2.433049 1_555
Gd5 O13 2.800068 1_555
Gd5 O27 2.995688 1_555
O0 V2 1.758863 1_455
O1 V3 1.758863 1_555
O2 V4 1.744100 1_555
O3 V5 1.744100 1_455
O4 V11 1.742703 1_555
O5 V10 1.742703 1_565
O6 V0 1.747564 1_555
O7 V1 1.747564 1_655
O8 V8 1.739333 1_555
O9 V9 1.739333 1_555
O10 V2 1.721868 1_555
O11 V3 1.721868 1_555
O12 V4 1.717270 1_555
O13 V5 1.717270 1_555
O14 V10 1.725801 1_555
O15 V11 1.725801 1_555
O16 V7 1.755513 1_555
O17 V6 1.755513 1_555
O18 V8 1.744106 1_555
O19 V9 1.744106 1_555
O20 V7 1.750221 1_555
O21 V6 1.750221 1_555
O22 V8 1.771250 1_555
O23 V9 1.771250 1_555
O24 V6 1.762392 1_555
O25 V7 1.762392 1_655
O26 V0 1.711022 1_555
O27 V1 1.711022 1_555
O28 V0 1.743447 1_555
O29 V1 1.743447 1_555
O30 V4 1.743946 1_555
O31 V5 1.743946 1_555
O32 V10 1.752291 1_556
O33 V11 1.752291 1_556
O34 V2 1.761674 1_555
O35 V3 1.761674 1_455
O36 V7 1.721547 1_555
O37 V6 1.721547 1_565
O38 V5 1.754907 1_555
O39 V4 1.754907 1_465
O40 V2 1.755049 1_454
O41 V3 1.755049 1_554
O42 V8 1.728675 1_555
O43 V9 1.728675 1_555
O44 V11 1.770791 1_555
O45 V10 1.770791 1_565
O46 V1 1.750033 1_555
O47 V0 1.750033 1_555
