# generated using pymatgen
data_Fe2H6(SeO4)3
_symmetry_space_group_name_H-M   'P 1'
_cell_length_a   8.78391346
_cell_length_b   8.78391346
_cell_length_c   8.78391383
_cell_angle_alpha   65.72579781
_cell_angle_beta   65.72579781
_cell_angle_gamma   65.72580271
_symmetry_Int_Tables_number   1
_chemical_formula_structural   Fe2H6(SeO4)3
_chemical_formula_sum   'Fe4 H12 Se6 O24'
_cell_volume   538.76798308
_cell_formula_units_Z   2
loop_
 _symmetry_equiv_pos_site_id
 _symmetry_equiv_pos_as_xyz
  1  'x, y, z'
loop_
 _atom_site_type_symbol
 _atom_site_label
 _atom_site_symmetry_multiplicity
 _atom_site_fract_x
 _atom_site_fract_y
 _atom_site_fract_z
 _atom_site_occupancy
  Fe  Fe0  1  0.39991900  0.39991900  0.39991900  1
  Fe  Fe1  1  0.89991900  0.89991900  0.89991900  1
  Fe  Fe2  1  0.16588100  0.16588100  0.16588100  1
  Fe  Fe3  1  0.66588100  0.66588100  0.66588100  1
  H  H0  1  0.18047800  0.34159700  0.81560000  1
  H  H1  1  0.34159700  0.81560000  0.18047800  1
  H  H2  1  0.81560000  0.18047800  0.34159700  1
  H  H3  1  0.68047800  0.31560000  0.84159700  1
  H  H4  1  0.31560000  0.84159700  0.68047800  1
  H  H5  1  0.84159700  0.68047800  0.31560000  1
  H  H6  1  0.15552100  0.15768200  0.85967900  1
  H  H7  1  0.15768200  0.85967900  0.15552100  1
  H  H8  1  0.85967900  0.15552100  0.15768200  1
  H  H9  1  0.65552100  0.35967900  0.65768200  1
  H  H10  1  0.35967900  0.65768200  0.65552100  1
  H  H11  1  0.65768200  0.65552100  0.35967900  1
  Se  Se0  1  0.60622300  0.05771000  0.67841900  1
  Se  Se1  1  0.05771000  0.67841900  0.60622300  1
  Se  Se2  1  0.67841900  0.60622300  0.05771000  1
  Se  Se3  1  0.10622300  0.17841900  0.55771000  1
  Se  Se4  1  0.17841900  0.55771000  0.10622300  1
  Se  Se5  1  0.55771000  0.10622300  0.17841900  1
  O  O0  1  0.60135600  0.25645700  0.51286400  1
  O  O1  1  0.25645700  0.51286400  0.60135600  1
  O  O2  1  0.51286400  0.60135600  0.25645700  1
  O  O3  1  0.10135600  0.01286400  0.75645700  1
  O  O4  1  0.01286400  0.75645700  0.10135600  1
  O  O5  1  0.75645700  0.10135600  0.01286400  1
  O  O6  1  0.30432100  0.19483600  0.53508200  1
  O  O7  1  0.19483600  0.53508200  0.30432100  1
  O  O8  1  0.53508200  0.30432100  0.19483600  1
  O  O9  1  0.80432100  0.03508200  0.69483600  1
  O  O10  1  0.03508200  0.69483600  0.80432100  1
  O  O11  1  0.69483600  0.80432100  0.03508200  1
  O  O12  1  0.67316300  0.91082600  0.56143900  1
  O  O13  1  0.91082600  0.56143900  0.67316300  1
  O  O14  1  0.56143900  0.67316300  0.91082600  1
  O  O15  1  0.17316300  0.06143900  0.41082600  1
  O  O16  1  0.06143900  0.41082600  0.17316300  1
  O  O17  1  0.41082600  0.17316300  0.06143900  1
  O  O18  1  0.13990000  0.24468100  0.91277600  1
  O  O19  1  0.24468100  0.91277600  0.13990000  1
  O  O20  1  0.91277600  0.13990000  0.24468100  1
  O  O21  1  0.63990000  0.41277600  0.74468100  1
  O  O22  1  0.41277600  0.74468100  0.63990000  1
  O  O23  1  0.74468100  0.63990000  0.41277600  1
loop_
_geom_bond_atom_site_label_1
_geom_bond_atom_site_label_2
_geom_bond_distance
_geom_bond_site_symmetry_2
Fe0 O6 2.006342 1_555
Fe0 O8 2.006342 1_555
Fe0 O7 2.006342 1_555
Fe0 O2 2.070060 1_555
Fe0 O1 2.070061 1_555
Fe0 O0 2.070061 1_555
Fe1 O11 2.006342 1_556
Fe1 O9 2.006342 1_565
Fe1 O10 2.006342 1_655
Fe1 O3 2.070060 1_665
Fe1 O4 2.070061 1_656
Fe1 O5 2.070061 1_566
Fe2 O17 1.979136 1_555
Fe2 O16 1.979136 1_555
Fe2 O15 1.979136 1_555
Fe2 O20 2.120390 1_455
Fe2 O19 2.120390 1_545
Fe2 O18 2.120390 1_554
Fe3 O12 1.979136 1_555
Fe3 O13 1.979136 1_555
Fe3 O14 1.979136 1_555
Fe3 O21 2.120390 1_555
Fe3 O22 2.120390 1_555
Fe3 O23 2.120390 1_555
H0 O18 0.991077 1_555
H1 O19 0.991077 1_555
H2 O20 0.991077 1_555
H3 O21 0.991077 1_555
H4 O22 0.991077 1_555
H5 O23 0.991077 1_555
H6 O18 0.987199 1_555
H7 O19 0.987199 1_555
H8 O20 0.987199 1_555
H9 O21 0.987199 1_555
H10 O22 0.987199 1_555
H11 O23 0.987199 1_555
O0 Se0 1.751199 1_555
O1 Se1 1.751199 1_555
O2 Se2 1.751199 1_555
O3 Se3 1.751199 1_555
O4 Se4 1.751199 1_555
O5 Se5 1.751199 1_555
O6 Se3 1.728162 1_555
O7 Se4 1.728162 1_555
O8 Se5 1.728162 1_555
O9 Se0 1.728162 1_555
O10 Se1 1.728162 1_555
O11 Se2 1.728162 1_555
O12 Se0 1.742341 1_565
O13 Se1 1.742341 1_655
O14 Se2 1.742341 1_556
O15 Se3 1.742341 1_555
O16 Se4 1.742341 1_555
O17 Se5 1.742341 1_555
