# generated using pymatgen
data_SrNdTi4O12
_symmetry_space_group_name_H-M   'P 1'
_cell_length_a   5.50612618
_cell_length_b   5.50612618
_cell_length_c   7.77873738
_cell_angle_alpha   90.00000000
_cell_angle_beta   90.00000000
_cell_angle_gamma   89.82885248
_symmetry_Int_Tables_number   1
_chemical_formula_structural   SrNdTi4O12
_chemical_formula_sum   'Sr1 Nd1 Ti4 O12'
_cell_volume   235.83023926
_cell_formula_units_Z   1
loop_
 _symmetry_equiv_pos_site_id
 _symmetry_equiv_pos_as_xyz
  1  'x, y, z'
loop_
 _atom_site_type_symbol
 _atom_site_label
 _atom_site_symmetry_multiplicity
 _atom_site_fract_x
 _atom_site_fract_y
 _atom_site_fract_z
 _atom_site_occupancy
  Sr  Sr0  1  0.98655243  0.98655243  0.50000000  1
  Nd  Nd0  1  0.51659079  0.51659079  0.00000000  1
  Ti  Ti0  1  0.49626188  0.00630407  0.74878519  1
  Ti  Ti1  1  0.49626188  0.00630407  0.25121481  1
  Ti  Ti2  1  0.00630407  0.49626188  0.25121481  1
  Ti  Ti3  1  0.00630407  0.49626188  0.74878519  1
  O  O0  1  0.76260160  0.23605815  0.75498880  1
  O  O1  1  0.23605815  0.76260160  0.75498880  1
  O  O2  1  0.23605815  0.76260160  0.24501120  1
  O  O3  1  0.76260160  0.23605815  0.24501120  1
  O  O4  1  0.73400571  0.73400571  0.74155517  1
  O  O5  1  0.27463611  0.27463611  0.78459344  1
  O  O6  1  0.27463611  0.27463611  0.21540656  1
  O  O7  1  0.73400571  0.73400571  0.25844483  1
  O  O8  1  0.51486307  0.96529756  -0.00000000  1
  O  O9  1  0.47910542  0.01555568  0.50000000  1
  O  O10  1  0.96529756  0.51486307  -0.00000000  1
  O  O11  1  0.01555568  0.47910542  0.50000000  1
loop_
_geom_bond_atom_site_label_1
_geom_bond_atom_site_label_2
_geom_bond_distance
_geom_bond_site_symmetry_2
Nd0 O10 2.470626 1_555
Nd0 O8 2.470626 1_555
Nd0 O5 2.523469 1_554
Nd0 O6 2.523469 1_555
Nd0 O4 2.629892 1_554
Nd0 O7 2.629892 1_555
Nd0 O1 2.800118 1_554
Nd0 O2 2.800118 1_555
Nd0 O0 2.800118 1_554
Nd0 O3 2.800118 1_555
Nd0 O8 3.035533 1_545
Nd0 O10 3.035533 1_455
O0 Ti0 1.940206 1_555
O0 Ti3 1.966485 1_655
O0 Sr0 2.707768 1_545
O1 Ti3 1.940206 1_555
O1 Ti0 1.966485 1_565
O1 Sr0 2.707768 1_455
O2 Ti2 1.940206 1_555
O2 Ti1 1.966485 1_565
O2 Sr0 2.707768 1_455
O3 Ti1 1.940206 1_555
O3 Ti2 1.966485 1_655
O3 Sr0 2.707768 1_545
O4 Ti0 1.988208 1_565
O4 Ti3 1.988208 1_655
O4 Sr0 2.722031 1_555
O5 Ti0 1.933614 1_555
O5 Ti3 1.933614 1_555
O5 Sr0 3.154055 1_445
O6 Ti1 1.933614 1_555
O6 Ti2 1.933614 1_555
O6 Sr0 3.154055 1_445
O7 Ti1 1.988208 1_565
O7 Ti2 1.988208 1_655
O7 Sr0 2.722031 1_555
O8 Ti1 1.969764 1_565
O8 Ti0 1.969764 1_564
O9 Ti0 1.938201 1_555
O9 Ti1 1.938201 1_555
O9 Sr0 2.717233 1_445
O9 Sr0 2.798151 1_545
O10 Ti2 1.969764 1_655
O10 Ti3 1.969764 1_654
O11 Ti2 1.938201 1_555
O11 Ti3 1.938201 1_555
O11 Sr0 2.717233 1_445
O11 Sr0 2.798151 1_455
