# generated using pymatgen
data_La3Ni13B2
_symmetry_space_group_name_H-M   'P 1'
_cell_length_a   5.07405864
_cell_length_b   5.06191140
_cell_length_c   11.10818072
_cell_angle_alpha   90.03157240
_cell_angle_beta   89.93701509
_cell_angle_gamma   120.07940589
_symmetry_Int_Tables_number   1
_chemical_formula_structural   La3Ni13B2
_chemical_formula_sum   'La3 Ni13 B2'
_cell_volume   246.88532257
_cell_formula_units_Z   1
loop_
 _symmetry_equiv_pos_site_id
 _symmetry_equiv_pos_as_xyz
  1  'x, y, z'
loop_
 _atom_site_type_symbol
 _atom_site_label
 _atom_site_symmetry_multiplicity
 _atom_site_fract_x
 _atom_site_fract_y
 _atom_site_fract_z
 _atom_site_occupancy
  La  La0  1  0.00002400  0.00000000  0.00013800  1
  La  La1  1  0.99988400  0.00000000  0.32858700  1
  La  La2  1  0.00009200  0.00000000  0.67149500  1
  Ni  Ni0  1  0.50007200  0.00000000  0.49990700  1
  Ni  Ni1  1  0.49991900  0.49994600  0.49985200  1
  Ni  Ni2  1  0.99997300  0.50005400  0.49985200  1
  Ni  Ni3  1  0.33258500  0.66549900  0.31654900  1
  Ni  Ni4  1  0.66708600  0.33450100  0.31654900  1
  Ni  Ni5  1  0.66725600  0.33421600  0.68371200  1
  Ni  Ni6  1  0.33304000  0.66578400  0.68371200  1
  Ni  Ni7  1  0.50027200  0.00000000  0.13190400  1
  Ni  Ni8  1  0.50035100  0.49988800  0.13207600  1
  Ni  Ni9  1  0.00046300  0.50011200  0.13207600  1
  Ni  Ni10  1  0.49974100  0.00000000  0.86784600  1
  Ni  Ni11  1  0.49963600  0.50010700  0.86763100  1
  Ni  Ni12  1  0.99952900  0.49989300  0.86763100  1
  B  B0  1  0.33403100  0.66808500  0.00024000  1
  B  B1  1  0.66594600  0.33191500  0.00024000  1
loop_
_geom_bond_atom_site_label_1
_geom_bond_atom_site_label_2
_geom_bond_distance
_geom_bond_site_symmetry_2
La0 Ni9 2.923497 1_555
La0 Ni8 2.923498 1_445
La0 Ni9 2.925846 1_545
La0 Ni8 2.925846 1_555
La0 Ni7 2.926488 1_455
La0 Ni12 2.926523 1_444
La0 Ni11 2.926524 1_554
La0 Ni12 2.929165 1_454
La0 Ni11 2.929165 1_444
La0 Ni10 2.929256 1_554
La0 Ni7 2.931456 1_555
La0 Ni10 2.934537 1_454
La1 Ni4 2.918105 1_545
La1 Ni3 2.918105 1_655
La1 Ni3 2.932438 1_645
La1 Ni4 2.932438 1_655
La1 Ni4 2.933118 1_555
La1 Ni3 2.933118 1_545
La1 Ni2 3.165432 1_555
La1 Ni1 3.165432 1_545
La1 Ni2 3.167032 1_545
La1 Ni1 3.167032 1_655
La1 Ni0 3.169019 1_555
La1 Ni0 3.173892 1_655
La1 Ni9 3.342034 1_645
La1 Ni8 3.342034 1_655
La1 Ni8 3.342484 1_545
La1 Ni9 3.342484 1_655
La1 Ni7 3.347779 1_655
La1 Ni7 3.348435 1_555
La2 Ni6 2.919444 1_555
La2 Ni5 2.919444 1_445
La2 Ni5 2.931871 1_455
La2 Ni6 2.931871 1_445
La2 Ni6 2.932621 1_545
La2 Ni5 2.932621 1_555
La2 Ni2 3.167458 1_445
La2 Ni1 3.167458 1_555
La2 Ni2 3.170056 1_455
La2 Ni1 3.170056 1_445
La2 Ni0 3.171486 1_555
La2 Ni0 3.174999 1_455
La2 Ni12 3.339305 1_455
La2 Ni11 3.339305 1_445
La2 Ni11 3.339775 1_555
La2 Ni12 3.339775 1_445
La2 Ni10 3.345234 1_455
La2 Ni10 3.346169 1_555
Ni0 Ni3 2.509032 1_545
Ni0 Ni4 2.509032 1_555
Ni0 Ni5 2.512336 1_555
Ni0 Ni6 2.512336 1_545
Ni0 Ni1 2.530840 1_545
Ni0 Ni2 2.530840 1_555
Ni0 Ni1 2.531072 1_555
Ni0 Ni2 2.531072 1_445
Ni1 Ni4 2.504628 1_555
Ni1 Ni3 2.507599 1_555
Ni1 Ni6 2.509921 1_555
Ni1 Ni5 2.513087 1_555
Ni1 Ni2 2.537029 1_455
Ni1 Ni2 2.537029 1_555
Ni2 Ni3 2.504628 1_655
Ni2 Ni4 2.507599 1_555
Ni2 Ni5 2.509921 1_555
Ni2 Ni6 2.513087 1_655
Ni3 Ni9 2.516216 1_555
Ni3 Ni8 2.517151 1_555
Ni3 Ni7 2.520649 1_565
Ni4 Ni8 2.516216 1_555
Ni4 Ni9 2.517151 1_655
Ni4 Ni7 2.520649 1_555
Ni10 Ni6 2.515305 1_545
Ni10 Ni5 2.515306 1_555
Ni11 Ni6 2.511585 1_555
Ni11 Ni5 2.512486 1_555
Ni12 Ni5 2.511585 1_555
Ni12 Ni6 2.512486 1_655
B0 Ni7 2.062226 1_565
B0 Ni10 2.067984 1_564
B0 Ni9 2.070181 1_555
B0 Ni8 2.075100 1_555
B0 Ni11 2.076305 1_554
B0 Ni12 2.081128 1_454
B0 La0 2.923924 1_565
B0 La0 2.924235 1_665
B0 La0 2.926368 1_555
B1 Ni7 2.062226 1_555
B1 Ni10 2.067984 1_554
B1 Ni8 2.070181 1_555
B1 Ni9 2.075100 1_655
B1 Ni12 2.076305 1_554
B1 Ni11 2.081128 1_554
B1 La0 2.923925 1_555
B1 La0 2.924235 1_655
B1 La0 2.926368 1_665
