# generated using pymatgen
data_Ta4(Pd3Rh)3
_symmetry_space_group_name_H-M   'P 1'
_cell_length_a   5.58578997
_cell_length_b   5.58578997
_cell_length_c   9.16017600
_cell_angle_alpha   90.00000000
_cell_angle_beta   90.00000000
_cell_angle_gamma   119.99999959
_symmetry_Int_Tables_number   1
_chemical_formula_structural   Ta4(Pd3Rh)3
_chemical_formula_sum   'Ta4 Pd9 Rh3'
_cell_volume   247.51621465
_cell_formula_units_Z   1
loop_
 _symmetry_equiv_pos_site_id
 _symmetry_equiv_pos_as_xyz
  1  'x, y, z'
loop_
 _atom_site_type_symbol
 _atom_site_label
 _atom_site_symmetry_multiplicity
 _atom_site_fract_x
 _atom_site_fract_y
 _atom_site_fract_z
 _atom_site_occupancy
  Ta  Ta0  1  0.66666700  0.33333300  0.50000000  1
  Ta  Ta1  1  0.33333300  0.66666700  0.00000000  1
  Ta  Ta2  1  0.00000000  0.00000000  0.73264200  1
  Ta  Ta3  1  0.00000000  0.00000000  0.26735800  1
  Pd  Pd0  1  0.83435600  0.16564400  0.00000000  1
  Pd  Pd1  1  0.83435600  0.66871100  0.00000000  1
  Pd  Pd2  1  0.33128900  0.16564400  0.00000000  1
  Pd  Pd3  1  0.00219900  0.50110000  0.74903000  1
  Pd  Pd4  1  0.49890000  0.50110000  0.74903000  1
  Pd  Pd5  1  0.49890000  0.99780100  0.74903000  1
  Pd  Pd6  1  0.00219900  0.50110000  0.25097000  1
  Pd  Pd7  1  0.49890000  0.50110000  0.25097000  1
  Pd  Pd8  1  0.49890000  0.99780100  0.25097000  1
  Rh  Rh0  1  0.16739500  0.83260500  0.50000000  1
  Rh  Rh1  1  0.16739500  0.33479100  0.50000000  1
  Rh  Rh2  1  0.66520900  0.83260500  0.50000000  1
loop_
_geom_bond_atom_site_label_1
_geom_bond_atom_site_label_2
_geom_bond_distance
_geom_bond_site_symmetry_2
Pd0 Pd2 2.775763 1_655
Pd0 Pd1 2.775763 1_545
Pd0 Ta1 2.792913 1_545
Pd0 Ta1 2.792913 1_655
Pd0 Pd2 2.810027 1_555
Pd0 Pd1 2.810027 1_555
Pd0 Pd5 2.813962 1_544
Pd0 Pd8 2.813962 1_545
Pd0 Pd3 2.813962 1_654
Pd0 Pd6 2.813962 1_655
Pd0 Ta3 2.926791 1_655
Pd0 Ta2 2.926791 1_654
Pd1 Pd2 2.775763 1_665
Pd1 Ta1 2.792907 1_655
Pd1 Ta1 2.792918 1_555
Pd1 Pd2 2.810027 1_555
Pd1 Pd3 2.813957 1_654
Pd1 Pd6 2.813957 1_655
Pd1 Pd4 2.813962 1_554
Pd1 Pd7 2.813962 1_555
Pd1 Ta2 2.926794 1_664
Pd1 Ta3 2.926794 1_665
Pd2 Ta1 2.792907 1_545
Pd2 Ta1 2.792918 1_555
Pd2 Pd5 2.813957 1_544
Pd2 Pd8 2.813957 1_545
Pd2 Pd4 2.813962 1_554
Pd2 Pd7 2.813962 1_555
Pd2 Ta3 2.926794 1_555
Pd2 Ta2 2.926794 1_554
Pd3 Pd4 2.774467 1_555
Pd3 Pd5 2.774467 1_555
Pd3 Rh1 2.788429 1_555
Pd3 Rh0 2.788429 1_555
Pd3 Ta2 2.796944 1_565
Pd3 Ta2 2.796949 1_555
Pd3 Ta0 2.799676 1_455
Pd3 Ta1 2.801958 1_556
Pd3 Pd4 2.811323 1_455
Pd3 Pd5 2.811323 1_445
Pd4 Pd5 2.774467 1_555
Pd4 Rh2 2.788429 1_555
Pd4 Rh1 2.788429 1_555
Pd4 Ta2 2.796947 1_555
Pd4 Ta2 2.796947 1_665
Pd4 Ta0 2.799682 1_555
Pd4 Ta1 2.801958 1_556
Pd4 Pd5 2.811323 1_545
Pd5 Rh2 2.788429 1_555
Pd5 Rh0 2.788429 1_555
Pd5 Ta2 2.796944 1_565
Pd5 Ta2 2.796949 1_665
Pd5 Ta0 2.799676 1_565
Pd5 Ta1 2.801958 1_556
Pd6 Pd7 2.774467 1_555
Pd6 Pd8 2.774467 1_555
Pd6 Rh1 2.788429 1_555
Pd6 Rh0 2.788429 1_555
Pd6 Ta3 2.796944 1_565
Pd6 Ta3 2.796949 1_555
Pd6 Ta0 2.799676 1_455
Pd6 Ta1 2.801958 1_555
Pd6 Pd7 2.811323 1_455
Pd6 Pd8 2.811323 1_445
Pd7 Pd8 2.774467 1_555
Pd7 Rh2 2.788429 1_555
Pd7 Rh1 2.788429 1_555
Pd7 Ta3 2.796947 1_665
Pd7 Ta3 2.796947 1_555
Pd7 Ta0 2.799682 1_555
Pd7 Ta1 2.801958 1_555
Pd7 Pd8 2.811323 1_545
Pd8 Rh2 2.788429 1_555
Pd8 Rh0 2.788429 1_555
Pd8 Ta3 2.796944 1_565
Pd8 Ta3 2.796949 1_665
Pd8 Ta0 2.799676 1_565
Pd8 Ta1 2.801958 1_555
Rh0 Ta2 2.676602 1_565
Rh0 Ta3 2.676602 1_565
Rh0 Rh1 2.780684 1_555
Rh0 Rh2 2.780684 1_555
Rh0 Ta0 2.792904 1_455
Rh0 Ta0 2.792904 1_565
Rh0 Rh2 2.805106 1_455
Rh0 Rh1 2.805106 1_565
Rh1 Ta2 2.676605 1_555
Rh1 Ta3 2.676605 1_555
Rh1 Rh2 2.780684 1_555
Rh1 Ta0 2.792898 1_455
Rh1 Ta0 2.792909 1_555
Rh1 Rh2 2.805106 1_445
Rh2 Ta3 2.676605 1_665
Rh2 Ta2 2.676605 1_665
Rh2 Ta0 2.792898 1_565
Rh2 Ta0 2.792909 1_555
