# generated using pymatgen
data_NbReSi
_symmetry_space_group_name_H-M   'P 1'
_cell_length_a   6.71019944
_cell_length_b   6.98833657
_cell_length_c   7.55065384
_cell_angle_alpha   117.56628831
_cell_angle_beta   116.38233122
_cell_angle_gamma   90.00052479
_symmetry_Int_Tables_number   1
_chemical_formula_structural   NbReSi
_chemical_formula_sum   'Nb6 Re6 Si6'
_cell_volume   271.59586844
_cell_formula_units_Z   6
loop_
 _symmetry_equiv_pos_site_id
 _symmetry_equiv_pos_as_xyz
  1  'x, y, z'
loop_
 _atom_site_type_symbol
 _atom_site_label
 _atom_site_symmetry_multiplicity
 _atom_site_fract_x
 _atom_site_fract_y
 _atom_site_fract_z
 _atom_site_occupancy
  Nb  Nb0  1  0.90561581  0.94616054  0.39231721  1
  Nb  Nb1  1  0.51333728  0.05383926  0.60764086  1
  Nb  Nb2  1  0.50029899  0.53695284  0.57395613  1
  Nb  Nb3  1  0.92638986  0.46303728  0.42606299  1
  Nb  Nb4  1  0.08858777  0.74698195  0.99399104  1
  Nb  Nb5  1  0.09462990  0.25301280  0.00602272  1
  Re  Re0  1  0.75420761  0.50003960  -0.00000630  1
  Re  Re1  1  0.75420138  0.00003366  0.99998993  1
  Re  Re2  1  0.25128840  0.90720514  0.74713858  1
  Re  Re3  1  0.50415070  0.09280059  0.25288070  1
  Re  Re4  1  0.25129191  0.33991618  0.74713341  1
  Re  Re5  1  0.50414019  0.66005173  0.25286000  1
  Si  Si0  1  0.46701025  0.72492556  0.94985042  1
  Si  Si1  1  0.51718269  0.27507137  0.05015817  1
  Si  Si2  1  0.17419866  0.67136454  0.33568631  1
  Si  Si3  1  0.83856828  0.32863602  0.66434903  1
  Si  Si4  1  0.17417811  0.16428619  0.33565533  1
  Si  Si5  1  0.83852521  0.83568573  0.66431348  1
loop_
_geom_bond_atom_site_label_1
_geom_bond_atom_site_label_2
_geom_bond_distance
_geom_bond_site_symmetry_2
Nb0 Si4 2.653863 1_665
Nb0 Si2 2.653991 1_655
Nb0 Si3 2.702877 1_565
Nb0 Si5 2.702925 1_555
Nb0 Re4 2.789917 1_665
Nb0 Re2 2.790047 1_655
Nb0 Re3 2.809589 1_565
Nb0 Re5 2.809668 1_555
Nb0 Re0 2.881761 1_555
Nb0 Re1 2.882154 1_564
Nb0 Si0 2.948679 1_554
Nb1 Si3 2.653732 1_555
Nb1 Si5 2.653825 1_545
Nb1 Si4 2.702983 1_555
Nb1 Si2 2.703063 1_545
Nb1 Re3 2.789534 1_555
Nb1 Re5 2.789801 1_545
Nb1 Re4 2.809829 1_555
Nb1 Re2 2.810062 1_545
Nb1 Re1 2.881965 1_555
Nb1 Re0 2.882113 1_556
Nb1 Si1 2.949128 1_556
Nb2 Si0 2.635107 1_555
Nb2 Si4 2.640506 1_555
Nb2 Si2 2.640590 1_555
Nb2 Si5 2.698184 1_555
Nb2 Si3 2.698197 1_555
Nb2 Re3 2.933125 1_555
Nb2 Re5 2.933389 1_555
Nb2 Re0 3.035582 1_556
Nb2 Re1 3.036034 1_565
Nb2 Re4 3.163201 1_555
Nb2 Re2 3.163398 1_555
Nb3 Si1 2.635173 1_555
Nb3 Si5 2.640505 1_555
Nb3 Si3 2.640641 1_555
Nb3 Si2 2.697813 1_655
Nb3 Si4 2.697978 1_655
Nb3 Re2 2.933081 1_655
Nb3 Re4 2.933264 1_655
Nb3 Re1 3.035820 1_554
Nb3 Re0 3.036138 1_555
Nb3 Re5 3.163451 1_555
Nb3 Re3 3.163492 1_555
Nb4 Si3 2.666599 1_455
Nb4 Si5 2.666921 1_455
Nb4 Si4 2.685095 1_566
Nb4 Si2 2.685231 1_556
Nb4 Si0 2.699525 1_555
Nb4 Re0 2.859598 1_456
Nb4 Re1 2.860109 1_465
Nb4 Re5 2.867097 1_556
Nb4 Re3 2.867145 1_566
Nb4 Re4 3.107994 1_555
Nb4 Re2 3.108024 1_555
Nb5 Si2 2.666784 1_555
Nb5 Si4 2.666812 1_555
Nb5 Si3 2.685087 1_454
Nb5 Si5 2.685274 1_444
Nb5 Si1 2.699459 1_555
Nb5 Re1 2.859842 1_454
Nb5 Re0 2.860180 1_455
Nb5 Re4 2.867074 1_554
Nb5 Re2 2.867084 1_544
Nb5 Re5 3.107632 1_555
Nb5 Re3 3.107839 1_555
Re0 Si0 2.495886 1_554
Re0 Si1 2.496254 1_555
Re0 Si2 2.577455 1_655
Re0 Si3 2.577480 1_554
Re0 Re4 2.929542 1_554
Re0 Re5 2.929644 1_555
Re1 Si1 2.495777 1_556
Re1 Si0 2.496228 1_545
Re1 Si4 2.577341 1_656
Re1 Si5 2.577521 1_545
Re1 Re2 2.929481 1_545
Re1 Re3 2.929745 1_556
Re2 Si0 2.428234 1_555
Re2 Si1 2.440312 1_566
Re2 Si2 2.543300 1_555
Re2 Si5 2.546285 1_455
Re2 Re3 2.966659 1_566
Re2 Re4 3.023948 1_565
Re3 Si1 2.428308 1_555
Re3 Si0 2.440385 1_544
Re3 Si3 2.543448 1_555
Re3 Si4 2.546311 1_555
Re3 Re5 3.024122 1_545
Re4 Si0 2.428275 1_555
Re4 Si1 2.440375 1_556
Re4 Si4 2.543418 1_555
Re4 Si3 2.546123 1_455
Re4 Re5 2.966548 1_556
Re5 Si1 2.428210 1_555
Re5 Si0 2.440414 1_554
Re5 Si5 2.543314 1_555
Re5 Si2 2.546332 1_555
