# generated using pymatgen
data_NaMg14SbO16
_symmetry_space_group_name_H-M   'P 1'
_cell_length_a   8.66111741
_cell_length_b   8.71384232
_cell_length_c   4.35847579
_cell_angle_alpha   90.00000000
_cell_angle_beta   90.00000000
_cell_angle_gamma   90.00000000
_symmetry_Int_Tables_number   1
_chemical_formula_structural   NaMg14SbO16
_chemical_formula_sum   'Na1 Mg14 Sb1 O16'
_cell_volume   328.94119123
_cell_formula_units_Z   1
loop_
 _symmetry_equiv_pos_site_id
 _symmetry_equiv_pos_as_xyz
  1  'x, y, z'
loop_
 _atom_site_type_symbol
 _atom_site_label
 _atom_site_symmetry_multiplicity
 _atom_site_fract_x
 _atom_site_fract_y
 _atom_site_fract_z
 _atom_site_occupancy
  Na  Na0  1  -0.00000000  0.00000000  0.00000000  1
  Mg  Mg0  1  0.50000000  0.00000000  0.00000000  1
  Mg  Mg1  1  0.50000000  0.50000000  0.00000000  1
  Mg  Mg2  1  -0.00000000  0.23270156  0.50000000  1
  Mg  Mg3  1  -0.00000000  0.76729844  0.50000000  1
  Mg  Mg4  1  0.50000000  0.24665175  0.50000000  1
  Mg  Mg5  1  0.50000000  0.75334825  0.50000000  1
  Mg  Mg6  1  0.24815377  0.00000000  0.50000000  1
  Mg  Mg7  1  0.26132635  0.50000000  0.50000000  1
  Mg  Mg8  1  0.75184623  0.00000000  0.50000000  1
  Mg  Mg9  1  0.73867365  0.50000000  0.50000000  1
  Mg  Mg10  1  0.25478037  0.24008198  0.00000000  1
  Mg  Mg11  1  0.25478037  0.75991802  0.00000000  1
  Mg  Mg12  1  0.74521963  0.24008198  -0.00000000  1
  Mg  Mg13  1  0.74521963  0.75991802  0.00000000  1
  Sb  Sb0  1  -0.00000000  0.50000000  0.00000000  1
  O  O0  1  0.26612728  0.00000000  0.00000000  1
  O  O1  1  0.26449891  0.50000000  -0.00000000  1
  O  O2  1  0.73387272  0.00000000  -0.00000000  1
  O  O3  1  0.73550109  0.50000000  0.00000000  1
  O  O4  1  0.24875999  0.25238148  0.50000000  1
  O  O5  1  0.24875999  0.74761852  0.50000000  1
  O  O6  1  0.75124001  0.25238148  0.50000000  1
  O  O7  1  0.75124001  0.74761852  0.50000000  1
  O  O8  1  -0.00000000  0.00000000  0.50000000  1
  O  O9  1  -0.00000000  0.50000000  0.50000000  1
  O  O10  1  0.50000000  0.00000000  0.50000000  1
  O  O11  1  0.50000000  0.50000000  0.50000000  1
  O  O12  1  -0.00000000  0.24838731  0.00000000  1
  O  O13  1  -0.00000000  0.75161269  0.00000000  1
  O  O14  1  0.50000000  0.25208214  -0.00000000  1
  O  O15  1  0.50000000  0.74791786  0.00000000  1
loop_
_geom_bond_atom_site_label_1
_geom_bond_atom_site_label_2
_geom_bond_distance
_geom_bond_site_symmetry_2
Na0 O13 2.164408 1_545
Na0 O12 2.164408 1_555
Na0 O8 2.179238 1_554
Na0 O8 2.179238 1_555
Na0 O2 2.304960 1_455
Na0 O0 2.304960 1_555
Mg0 O0 2.025599 1_555
Mg0 O2 2.025599 1_555
Mg0 O10 2.179238 1_555
Mg0 O10 2.179238 1_554
Mg0 O15 2.196604 1_545
Mg0 O14 2.196604 1_555
Mg1 O3 2.039703 1_555
Mg1 O1 2.039703 1_555
Mg1 O14 2.160317 1_555
Mg1 O15 2.160317 1_555
Mg1 O11 2.179238 1_554
Mg1 O11 2.179238 1_555
Mg2 O8 2.027725 1_555
Mg2 O4 2.161353 1_555
Mg2 O6 2.161353 1_455
Mg2 O12 2.183520 1_556
Mg2 O12 2.183520 1_555
Mg2 O9 2.329196 1_555
Mg3 O8 2.027725 1_565
Mg3 O5 2.161353 1_555
Mg3 O7 2.161353 1_455
Mg3 O13 2.183520 1_555
Mg3 O13 2.183520 1_556
Mg3 O9 2.329196 1_555
Mg4 O10 2.149284 1_555
Mg4 O6 2.176592 1_555
Mg4 O4 2.176592 1_555
Mg4 O14 2.179752 1_556
Mg4 O14 2.179752 1_555
Mg4 O11 2.207637 1_555
Mg5 O10 2.149284 1_565
Mg5 O7 2.176592 1_555
Mg5 O5 2.176592 1_555
Mg5 O15 2.179752 1_556
Mg5 O15 2.179752 1_555
Mg5 O11 2.207637 1_555
Mg6 O8 2.149289 1_555
Mg6 O10 2.181270 1_555
Mg6 O0 2.184791 1_555
Mg6 O0 2.184791 1_556
Mg6 O4 2.199219 1_555
Mg6 O5 2.199219 1_545
Mg7 O11 2.067181 1_555
Mg7 O5 2.160452 1_555
Mg7 O4 2.160452 1_555
Mg7 O1 2.179411 1_556
Mg7 O1 2.179411 1_555
Mg7 O9 2.263378 1_555
Mg8 O8 2.149289 1_655
Mg8 O10 2.181270 1_555
Mg8 O2 2.184791 1_555
Mg8 O2 2.184791 1_556
Mg8 O6 2.199219 1_555
Mg8 O7 2.199219 1_545
Mg9 O11 2.067181 1_555
Mg9 O7 2.160452 1_555
Mg9 O6 2.160452 1_555
Mg9 O3 2.179411 1_556
Mg9 O3 2.179411 1_555
Mg9 O9 2.263378 1_655
Mg10 O0 2.094344 1_555
Mg10 O14 2.126449 1_555
Mg10 O4 2.182495 1_555
Mg10 O4 2.182495 1_554
Mg10 O12 2.207869 1_555
Mg10 O1 2.266448 1_555
Mg11 O0 2.094344 1_565
Mg11 O15 2.126449 1_555
Mg11 O5 2.182495 1_554
Mg11 O5 2.182495 1_555
Mg11 O13 2.207869 1_555
Mg11 O1 2.266448 1_555
Mg12 O2 2.094344 1_555
Mg12 O14 2.126449 1_555
Mg12 O6 2.182495 1_555
Mg12 O6 2.182495 1_554
Mg12 O12 2.207869 1_655
Mg12 O3 2.266448 1_555
Mg13 O2 2.094344 1_565
Mg13 O15 2.126449 1_555
Mg13 O7 2.182495 1_555
Mg13 O7 2.182495 1_554
Mg13 O13 2.207869 1_655
Mg13 O3 2.266448 1_555
O1 Sb0 2.290856 1_555
O3 Sb0 2.290856 1_655
O9 Sb0 2.179238 1_556
O9 Sb0 2.179238 1_555
O12 Sb0 2.192513 1_555
O13 Sb0 2.192513 1_555
