# generated using pymatgen
data_VReMo2
_symmetry_space_group_name_H-M   'P 1'
_cell_length_a   10.26931177
_cell_length_b   10.26931177
_cell_length_c   10.26931177
_cell_angle_alpha   124.23180504
_cell_angle_beta   117.81559564
_cell_angle_gamma   88.32845603
_symmetry_Int_Tables_number   1
_chemical_formula_structural   VReMo2
_chemical_formula_sum   'V1 Re1 Mo2'
_cell_volume   750.52620966
_cell_formula_units_Z   1
loop_
 _symmetry_equiv_pos_site_id
 _symmetry_equiv_pos_as_xyz
  1  'x, y, z'
loop_
 _atom_site_type_symbol
 _atom_site_label
 _atom_site_symmetry_multiplicity
 _atom_site_fract_x
 _atom_site_fract_y
 _atom_site_fract_z
 _atom_site_occupancy
  V  V0  1  0.00000000  0.00000000  0.00000000  1
  Re  Re0  1  0.00000000  0.50000000  0.50000000  1
  Mo  Mo0  1  0.00000000  0.26493600  0.26493600  1
  Mo  Mo1  1  0.00000000  0.73506400  0.73506400  1
loop_
_geom_bond_atom_site_label_1
_geom_bond_atom_site_label_2
_geom_bond_distance
_geom_bond_site_symmetry_2
Mo0 Re0 2.257930 1_555
Mo0 V0 2.544868 1_555
Mo1 Re0 2.257930 1_555
Mo1 V0 2.544868 1_566
