# generated using pymatgen
data_K2MnN2
_symmetry_space_group_name_H-M   'P 1'
_cell_length_a   6.05628900
_cell_length_b   5.50414700
_cell_length_c   12.20107800
_cell_angle_alpha   90.00000000
_cell_angle_beta   90.00000000
_cell_angle_gamma   90.00000000
_symmetry_Int_Tables_number   1
_chemical_formula_structural   K2MnN2
_chemical_formula_sum   'K8 Mn4 N8'
_cell_volume   406.71933496
_cell_formula_units_Z   4
loop_
 _symmetry_equiv_pos_site_id
 _symmetry_equiv_pos_as_xyz
  1  'x, y, z'
loop_
 _atom_site_type_symbol
 _atom_site_label
 _atom_site_symmetry_multiplicity
 _atom_site_fract_x
 _atom_site_fract_y
 _atom_site_fract_z
 _atom_site_occupancy
  K  K0  1  0.71233400  0.25000000  0.03292300  1
  K  K1  1  0.21233400  0.25000000  0.46707700  1
  K  K2  1  0.28766600  0.75000000  0.96707700  1
  K  K3  1  0.78766600  0.75000000  0.53292300  1
  K  K4  1  0.10982500  0.25000000  0.82414000  1
  K  K5  1  0.60982500  0.25000000  0.67586000  1
  K  K6  1  0.89017500  0.75000000  0.17586000  1
  K  K7  1  0.39017500  0.75000000  0.32414000  1
  Mn  Mn0  1  0.73219600  0.25000000  0.32153600  1
  Mn  Mn1  1  0.23219600  0.25000000  0.17846400  1
  Mn  Mn2  1  0.26780400  0.75000000  0.67846400  1
  Mn  Mn3  1  0.76780400  0.75000000  0.82153600  1
  N  N0  1  0.72929600  0.25000000  0.45529600  1
  N  N1  1  0.22929600  0.25000000  0.04470400  1
  N  N2  1  0.27070400  0.75000000  0.54470400  1
  N  N3  1  0.77070400  0.75000000  0.95529600  1
  N  N4  1  0.48359400  0.25000000  0.24892700  1
  N  N5  1  0.98359400  0.25000000  0.25107300  1
  N  N6  1  0.51640600  0.75000000  0.75107300  1
  N  N7  1  0.01640600  0.75000000  0.74892700  1
loop_
_geom_bond_atom_site_label_1
_geom_bond_atom_site_label_2
_geom_bond_distance
_geom_bond_site_symmetry_2
K0 N1 2.928947 1_555
K0 N3 2.931883 1_544
K0 N3 2.931883 1_554
K0 N4 2.977392 1_555
K0 N5 3.127834 1_555
K0 N1 3.134169 1_655
K1 N0 2.928947 1_455
K1 N2 2.931883 1_555
K1 N2 2.931883 1_545
K1 N5 2.977392 1_455
K1 N4 3.127834 1_555
K1 N0 3.134169 1_555
K2 N3 2.928947 1_555
K2 N1 2.931883 1_566
K2 N1 2.931883 1_556
K2 N6 2.977392 1_555
K2 N7 3.127834 1_555
K2 N3 3.134169 1_455
K3 N2 2.928947 1_655
K3 N0 2.931883 1_555
K3 N0 2.931883 1_565
K3 N7 2.977392 1_655
K3 N6 3.127834 1_555
K3 N2 3.134169 1_555
K4 N1 2.786691 1_556
K4 N7 2.955697 1_555
K4 N7 2.955697 1_545
K5 N0 2.786691 1_555
K5 N6 2.955697 1_555
K5 N6 2.955697 1_545
K6 N3 2.786691 1_554
K6 N5 2.955697 1_565
K6 N5 2.955697 1_555
K7 N2 2.786691 1_555
K7 N4 2.955697 1_555
K7 N4 2.955697 1_565
Mn0 N0 1.632111 1_555
Mn0 N4 1.746906 1_555
Mn0 N5 1.748500 1_555
Mn1 N1 1.632111 1_555
Mn1 N5 1.746906 1_455
Mn1 N4 1.748500 1_555
Mn2 N2 1.632111 1_555
Mn2 N6 1.746906 1_555
Mn2 N7 1.748500 1_555
Mn3 N3 1.632111 1_555
Mn3 N7 1.746906 1_655
Mn3 N6 1.748500 1_555
