# generated using pymatgen
data_Be2AsH5O7
_symmetry_space_group_name_H-M   'P 1'
_cell_length_a   6.57983322
_cell_length_b   8.50743882
_cell_length_c   11.15036100
_cell_angle_alpha   90.00000000
_cell_angle_beta   90.00000000
_cell_angle_gamma   105.31605637
_symmetry_Int_Tables_number   1
_chemical_formula_structural   Be2AsH5O7
_chemical_formula_sum   'Be8 As4 H20 O28'
_cell_volume   602.00128866
_cell_formula_units_Z   4
loop_
 _symmetry_equiv_pos_site_id
 _symmetry_equiv_pos_as_xyz
  1  'x, y, z'
loop_
 _atom_site_type_symbol
 _atom_site_label
 _atom_site_symmetry_multiplicity
 _atom_site_fract_x
 _atom_site_fract_y
 _atom_site_fract_z
 _atom_site_occupancy
  Be  Be0  1  0.47433900  0.05003100  0.80483400  1
  Be  Be1  1  0.97433900  0.55003100  0.69516600  1
  Be  Be2  1  0.52566100  0.94996900  0.19516600  1
  Be  Be3  1  0.02566100  0.44996900  0.30483400  1
  Be  Be4  1  0.30665400  0.12262100  0.57621900  1
  Be  Be5  1  0.80665400  0.62262100  0.92378100  1
  Be  Be6  1  0.69334600  0.87737900  0.42378100  1
  Be  Be7  1  0.19334600  0.37737900  0.07621900  1
  As  As0  1  0.62755400  0.20649200  0.38296000  1
  As  As1  1  0.12755400  0.70649200  0.11704000  1
  As  As2  1  0.37244600  0.79350800  0.61704000  1
  As  As3  1  0.87244600  0.29350800  0.88296000  1
  H  H0  1  0.95678400  0.13626300  0.53729500  1
  H  H1  1  0.45678400  0.63626300  0.96270500  1
  H  H2  1  0.04321600  0.86373700  0.46270500  1
  H  H3  1  0.54321600  0.36373700  0.03729500  1
  H  H4  1  0.04794800  0.24230000  0.65547500  1
  H  H5  1  0.54794800  0.74230000  0.84452500  1
  H  H6  1  0.95205200  0.75770000  0.34452500  1
  H  H7  1  0.45205200  0.25770000  0.15547500  1
  H  H8  1  0.55213100  0.27361900  0.68836100  1
  H  H9  1  0.05213100  0.77361900  0.81163900  1
  H  H10  1  0.44786900  0.72638100  0.31163900  1
  H  H11  1  0.94786900  0.22638100  0.18836100  1
  H  H12  1  0.20498500  0.12436400  0.91526000  1
  H  H13  1  0.70498500  0.62436400  0.58474000  1
  H  H14  1  0.79501500  0.87563600  0.08474000  1
  H  H15  1  0.29501500  0.37563600  0.41526000  1
  H  H16  1  0.28134600  0.98230900  0.98138300  1
  H  H17  1  0.78134600  0.48230900  0.51861700  1
  H  H18  1  0.71865400  0.01769100  0.01861700  1
  H  H19  1  0.21865400  0.51769100  0.48138300  1
  O  O0  1  0.07940500  0.16589500  0.59384500  1
  O  O1  1  0.57940500  0.66589500  0.90615500  1
  O  O2  1  0.92059500  0.83410500  0.40615500  1
  O  O3  1  0.42059500  0.33410500  0.09384500  1
  O  O4  1  0.27067800  0.03178100  0.90081800  1
  O  O5  1  0.77067800  0.53178100  0.59918200  1
  O  O6  1  0.72932200  0.96821900  0.09918200  1
  O  O7  1  0.22932200  0.46821900  0.40081800  1
  O  O8  1  0.45064700  0.16747200  0.69541400  1
  O  O9  1  0.95064700  0.66747200  0.80458600  1
  O  O10  1  0.54935300  0.83252800  0.30458600  1
  O  O11  1  0.04935300  0.33252800  0.19541400  1
  O  O12  1  0.69314600  0.10594000  0.88225800  1
  O  O13  1  0.19314600  0.60594000  0.61774200  1
  O  O14  1  0.30685400  0.89406000  0.11774200  1
  O  O15  1  0.80685400  0.39406000  0.38225800  1
  O  O16  1  0.44850600  0.86029600  0.75978700  1
  O  O17  1  0.94850600  0.36029600  0.74021300  1
  O  O18  1  0.55149400  0.13970400  0.24021300  1
  O  O19  1  0.05149400  0.63970400  0.25978700  1
  O  O20  1  0.41427700  0.23310300  0.46049700  1
  O  O21  1  0.91427700  0.73310300  0.03950300  1
  O  O22  1  0.58572300  0.76689700  0.53950300  1
  O  O23  1  0.08572300  0.26689700  0.96049700  1
  O  O24  1  0.25616700  0.92782700  0.54758800  1
  O  O25  1  0.75616700  0.42782700  0.95241200  1
  O  O26  1  0.74383300  0.07217300  0.45241200  1
  O  O27  1  0.24383300  0.57217300  0.04758800  1
loop_
_geom_bond_atom_site_label_1
_geom_bond_atom_site_label_2
_geom_bond_distance
_geom_bond_site_symmetry_2
Be0 O8 1.610405 1_555
Be0 O12 1.637847 1_555
Be0 O16 1.655823 1_545
Be0 O4 1.689790 1_555
Be1 O9 1.610405 1_555
Be1 O13 1.637847 1_655
Be1 O17 1.655823 1_555
Be1 O5 1.689790 1_555
Be2 O10 1.610405 1_555
Be2 O14 1.637847 1_555
Be2 O18 1.655823 1_565
Be2 O6 1.689790 1_555
Be3 O11 1.610405 1_555
Be3 O15 1.637847 1_455
Be3 O19 1.655823 1_555
Be3 O7 1.689790 1_555
Be4 O8 1.618237 1_555
Be4 O24 1.633324 1_545
Be4 O20 1.642641 1_555
Be4 O0 1.643404 1_555
Be5 O9 1.618237 1_555
Be5 O25 1.633324 1_555
Be5 O21 1.642641 1_556
Be5 O1 1.643404 1_555
Be6 O10 1.618237 1_555
Be6 O26 1.633324 1_565
Be6 O22 1.642641 1_555
Be6 O2 1.643404 1_555
Be7 O11 1.618237 1_555
Be7 O27 1.633324 1_555
Be7 O23 1.642641 1_554
Be7 O3 1.643404 1_555
As0 O20 1.713444 1_555
As0 O15 1.715721 1_555
As0 O26 1.718357 1_555
As0 O18 1.719457 1_555
As1 O21 1.713444 1_455
As1 O14 1.715721 1_555
As1 O27 1.718357 1_555
As1 O19 1.719457 1_555
As2 O22 1.713444 1_555
As2 O13 1.715721 1_555
As2 O24 1.718357 1_555
As2 O16 1.719457 1_555
As3 O23 1.713444 1_655
As3 O12 1.715721 1_555
As3 O25 1.718357 1_555
As3 O17 1.719457 1_555
H0 O0 1.002330 1_655
H0 O26 1.659161 1_555
H1 O1 1.002330 1_555
H1 O27 1.659161 1_556
H2 O2 1.002330 1_455
H2 O24 1.659161 1_555
H3 O3 1.002330 1_555
H3 O25 1.659161 1_554
H4 O0 1.004326 1_555
H4 O17 1.635719 1_455
H5 O1 1.004326 1_555
H5 O16 1.635719 1_555
H6 O2 1.004326 1_555
H6 O19 1.635719 1_655
H7 O3 1.004326 1_555
H7 O18 1.635719 1_555
H8 O8 0.974163 1_555
H9 O9 0.974163 1_455
H10 O10 0.974163 1_555
H11 O11 0.974163 1_655
H12 O4 1.006486 1_555
H12 O23 1.686205 1_555
H13 O5 1.006486 1_555
H13 O22 1.686205 1_555
H14 O6 1.006486 1_555
H14 O21 1.686205 1_555
H15 O7 1.006486 1_555
H15 O20 1.686205 1_555
H16 O4 1.002332 1_565
H16 O14 1.723419 1_556
H17 O5 1.002332 1_555
H17 O15 1.723419 1_555
H18 O6 1.002332 1_545
H18 O12 1.723419 1_554
H19 O7 1.002332 1_555
H19 O13 1.723419 1_555
