# generated using pymatgen
data_CaMg6W
_symmetry_space_group_name_H-M   'P 1'
_cell_length_a   5.07395400
_cell_length_b   6.34270500
_cell_length_c   11.07151200
_cell_angle_alpha   90.00000000
_cell_angle_beta   90.00000000
_cell_angle_gamma   90.00000000
_symmetry_Int_Tables_number   1
_chemical_formula_structural   CaMg6W
_chemical_formula_sum   'Ca2 Mg12 W2'
_cell_volume   356.30996908
_cell_formula_units_Z   2
loop_
 _symmetry_equiv_pos_site_id
 _symmetry_equiv_pos_as_xyz
  1  'x, y, z'
loop_
 _atom_site_type_symbol
 _atom_site_label
 _atom_site_symmetry_multiplicity
 _atom_site_fract_x
 _atom_site_fract_y
 _atom_site_fract_z
 _atom_site_occupancy
  Ca  Ca0  1  0.00000000  0.50000000  0.32633800  1
  Ca  Ca1  1  0.00000000  0.00000000  0.82633800  1
  Mg  Mg0  1  0.00000000  0.26772200  0.08686300  1
  Mg  Mg1  1  0.00000000  0.73227800  0.08686300  1
  Mg  Mg2  1  0.00000000  0.00000000  0.33368200  1
  Mg  Mg3  1  0.50000000  0.75542000  0.41964400  1
  Mg  Mg4  1  0.50000000  0.24458000  0.41964400  1
  Mg  Mg5  1  0.50000000  0.00000000  0.16499300  1
  Mg  Mg6  1  0.00000000  0.76772200  0.58686300  1
  Mg  Mg7  1  0.00000000  0.23227800  0.58686300  1
  Mg  Mg8  1  0.00000000  0.50000000  0.83368200  1
  Mg  Mg9  1  0.50000000  0.25542000  0.91964400  1
  Mg  Mg10  1  0.50000000  0.74458000  0.91964400  1
  Mg  Mg11  1  0.50000000  0.50000000  0.66499300  1
  W  W0  1  0.50000000  0.50000000  0.16197400  1
  W  W1  1  0.50000000  0.00000000  0.66197400  1
loop_
_geom_bond_atom_site_label_1
_geom_bond_atom_site_label_2
_geom_bond_distance
_geom_bond_site_symmetry_2
Ca0 Mg1 3.033181 1_555
Ca0 Mg0 3.033181 1_555
Ca0 W0 3.122142 1_455
Ca0 W0 3.122142 1_555
Ca0 Mg2 3.172395 1_565
Ca0 Mg2 3.172395 1_555
Ca0 Mg3 3.182451 1_455
Ca0 Mg4 3.182451 1_455
Ca0 Mg4 3.182451 1_555
Ca0 Mg3 3.182451 1_555
Ca0 Mg6 3.347130 1_555
Ca0 Mg7 3.347130 1_555
Ca1 Mg7 3.033181 1_555
Ca1 Mg6 3.033181 1_545
Ca1 W1 3.122142 1_555
Ca1 W1 3.122142 1_455
Ca1 Mg8 3.172395 1_545
Ca1 Mg8 3.172395 1_555
Ca1 Mg10 3.182451 1_545
Ca1 Mg9 3.182451 1_455
Ca1 Mg9 3.182451 1_555
Ca1 Mg10 3.182451 1_445
Ca1 Mg0 3.347130 1_556
Ca1 Mg1 3.347130 1_546
Mg0 Mg1 2.946542 1_555
Mg0 W0 3.049316 1_455
Mg0 W0 3.049316 1_555
Mg0 Mg9 3.141640 1_554
Mg0 Mg9 3.141640 1_454
Mg0 Mg8 3.166682 1_554
Mg0 Mg5 3.173009 1_455
Mg0 Mg5 3.173009 1_555
Mg0 Mg2 3.217283 1_555
Mg0 Mg1 3.396163 1_545
Mg1 W0 3.049316 1_455
Mg1 W0 3.049316 1_555
Mg1 Mg10 3.141640 1_554
Mg1 Mg10 3.141640 1_454
Mg1 Mg8 3.166682 1_554
Mg1 Mg5 3.173009 1_565
Mg1 Mg5 3.173009 1_465
Mg1 Mg2 3.217283 1_565
Mg2 Mg3 3.122270 1_445
Mg2 Mg3 3.122270 1_545
Mg2 Mg4 3.122270 1_455
Mg2 Mg4 3.122270 1_555
Mg2 Mg5 3.150292 1_455
Mg2 Mg5 3.150292 1_555
Mg2 Mg7 3.166682 1_555
Mg2 Mg6 3.166682 1_545
Mg3 W1 3.099161 1_565
Mg3 Mg4 3.102598 1_565
Mg3 Mg6 3.141640 1_555
Mg3 Mg6 3.141640 1_655
Mg3 Mg5 3.217978 1_565
Mg3 Mg4 3.240107 1_555
Mg3 W0 3.280704 1_555
Mg4 W1 3.099161 1_555
Mg4 Mg7 3.141640 1_655
Mg4 Mg7 3.141640 1_555
Mg4 Mg5 3.217978 1_555
Mg4 W0 3.280704 1_555
Mg5 Mg9 3.162802 1_554
Mg5 W0 3.171529 1_545
Mg5 W0 3.171529 1_555
Mg6 Mg7 2.946542 1_565
Mg6 W1 3.049316 1_565
Mg6 W1 3.049316 1_465
Mg6 Mg8 3.217283 1_555
Mg6 Mg7 3.396163 1_555
Mg7 W1 3.049316 1_455
Mg7 W1 3.049316 1_555
Mg7 Mg8 3.217283 1_555
Mg8 Mg9 3.122270 1_555
Mg8 Mg9 3.122270 1_455
Mg9 W0 3.099161 1_556
Mg9 W1 3.280704 1_555
Mg10 W0 3.099161 1_556
Mg10 Mg9 3.102598 1_555
Mg10 Mg8 3.122270 1_655
Mg10 Mg8 3.122270 1_555
Mg10 Mg5 3.162802 1_566
Mg10 Mg11 3.217978 1_555
Mg10 Mg9 3.240107 1_565
Mg10 W1 3.280704 1_565
Mg11 Mg8 3.150292 1_555
Mg11 Mg8 3.150292 1_655
Mg11 Mg3 3.162802 1_555
Mg11 Mg4 3.162802 1_555
Mg11 W1 3.171529 1_565
Mg11 W1 3.171529 1_555
Mg11 Mg6 3.173009 1_555
Mg11 Mg6 3.173009 1_655
Mg11 Mg7 3.173009 1_655
Mg11 Mg7 3.173009 1_555
Mg11 Mg9 3.217978 1_555
