# generated using pymatgen
data_Li2CuSbF6
_symmetry_space_group_name_H-M   'P 1'
_cell_length_a   6.12415991
_cell_length_b   6.12415991
_cell_length_c   6.12415991
_cell_angle_alpha   60.00000000
_cell_angle_beta   60.00000000
_cell_angle_gamma   60.00000000
_symmetry_Int_Tables_number   1
_chemical_formula_structural   Li2CuSbF6
_chemical_formula_sum   'Li2 Cu1 Sb1 F6'
_cell_volume   162.41441355
_cell_formula_units_Z   1
loop_
 _symmetry_equiv_pos_site_id
 _symmetry_equiv_pos_as_xyz
  1  'x, y, z'
loop_
 _atom_site_type_symbol
 _atom_site_label
 _atom_site_symmetry_multiplicity
 _atom_site_fract_x
 _atom_site_fract_y
 _atom_site_fract_z
 _atom_site_occupancy
  Li  Li0  1  0.25000000  0.25000000  0.25000000  1
  Li  Li1  1  0.75000000  0.75000000  0.75000000  1
  Cu  Cu0  1  0.50000000  0.50000000  0.50000000  1
  Sb  Sb0  1  0.00000000  0.00000000  0.00000000  1
  F  F0  1  0.25273700  0.25273700  0.74726300  1
  F  F1  1  0.25273700  0.74726300  0.74726300  1
  F  F2  1  0.74726300  0.74726300  0.25273700  1
  F  F3  1  0.25273700  0.74726300  0.25273700  1
  F  F4  1  0.74726300  0.25273700  0.74726300  1
  F  F5  1  0.74726300  0.25273700  0.25273700  1
loop_
_geom_bond_atom_site_label_1
_geom_bond_atom_site_label_2
_geom_bond_distance
_geom_bond_site_symmetry_2
Cu0 F3 2.141513 1_555
Cu0 F0 2.141513 1_555
Cu0 F1 2.141513 1_555
Cu0 F4 2.141513 1_555
Cu0 F5 2.141513 1_555
Cu0 F2 2.141513 1_555
F0 Sb0 2.188922 1_556
F1 Sb0 2.188922 1_566
F2 Sb0 2.188922 1_665
F3 Sb0 2.188922 1_565
F4 Sb0 2.188922 1_656
F5 Sb0 2.188922 1_655
