# generated using pymatgen
data_CrGaIr2
_symmetry_space_group_name_H-M   'P 1'
_cell_length_a   9.91083222
_cell_length_b   9.91083222
_cell_length_c   9.91083222
_cell_angle_alpha   125.82202878
_cell_angle_beta   118.13276496
_cell_angle_gamma   86.74466681
_symmetry_Int_Tables_number   1
_chemical_formula_structural   CrGaIr2
_chemical_formula_sum   'Cr1 Ga1 Ir2'
_cell_volume   662.57899156
_cell_formula_units_Z   1
loop_
 _symmetry_equiv_pos_site_id
 _symmetry_equiv_pos_as_xyz
  1  'x, y, z'
loop_
 _atom_site_type_symbol
 _atom_site_label
 _atom_site_symmetry_multiplicity
 _atom_site_fract_x
 _atom_site_fract_y
 _atom_site_fract_z
 _atom_site_occupancy
  Cr  Cr0  1  0.00000000  0.00000000  0.00000000  1
  Ga  Ga0  1  0.00000000  0.50000000  0.50000000  1
  Ir  Ir0  1  0.00000000  0.23441800  0.23441800  1
  Ir  Ir1  1  0.00000000  0.76558200  0.76558200  1
loop_
_geom_bond_atom_site_label_1
_geom_bond_atom_site_label_2
_geom_bond_distance
_geom_bond_site_symmetry_2
Cr0 Ir0 2.115919 1_555
Cr0 Ir1 2.115919 1_544
Ga0 Ir0 2.397214 1_555
Ga0 Ir1 2.397214 1_555
