# generated using pymatgen
data_Mg4Si7
_symmetry_space_group_name_H-M   'P 1'
_cell_length_a   14.53499788
_cell_length_b   14.53499788
_cell_length_c   6.86164693
_cell_angle_alpha   85.84439727
_cell_angle_beta   85.84439727
_cell_angle_gamma   15.67272196
_symmetry_Int_Tables_number   1
_chemical_formula_structural   Mg4Si7
_chemical_formula_sum   'Mg8 Si14'
_cell_volume   390.55801312
_cell_formula_units_Z   2
loop_
 _symmetry_equiv_pos_site_id
 _symmetry_equiv_pos_as_xyz
  1  'x, y, z'
loop_
 _atom_site_type_symbol
 _atom_site_label
 _atom_site_symmetry_multiplicity
 _atom_site_fract_x
 _atom_site_fract_y
 _atom_site_fract_z
 _atom_site_occupancy
  Mg  Mg0  1  0.20775700  0.20775700  0.56257800  1
  Mg  Mg1  1  0.42136000  0.42136000  0.19818800  1
  Mg  Mg2  1  0.99844600  0.99844600  0.33513200  1
  Mg  Mg3  1  0.84261900  0.84261900  0.04149000  1
  Mg  Mg4  1  0.25162800  0.25162800  0.08119600  1
  Mg  Mg5  1  0.62671700  0.62671700  0.61379500  1
  Mg  Mg6  1  0.95967100  0.95967100  0.87360900  1
  Mg  Mg7  1  0.88195400  0.88195400  0.52765900  1
  Si  Si0  1  0.69094900  0.69094900  0.28070800  1
  Si  Si1  1  0.68853200  0.68853200  0.91826100  1
  Si  Si2  1  0.12516800  0.12516800  0.29124100  1
  Si  Si3  1  0.13701700  0.13701700  0.93036100  1
  Si  Si4  1  0.39309700  0.39309700  0.83241600  1
  Si  Si5  1  0.45165500  0.45165500  0.56520100  1
  Si  Si6  1  0.57025300  0.57025300  0.28695500  1
  Si  Si7  1  0.76645400  0.76645400  0.74285100  1
  Si  Si8  1  0.32717800  0.32717800  0.34824000  1
  Si  Si9  1  0.05661000  0.05661000  0.82258000  1
  Si  Si10  1  0.51661200  0.51661200  0.03610300  1
  Si  Si11  1  0.77203500  0.77203500  0.37523300  1
  Si  Si12  1  0.31711400  0.31711400  0.71355000  1
  Si  Si13  1  0.53304400  0.53304400  0.62262500  1
loop_
_geom_bond_atom_site_label_1
_geom_bond_atom_site_label_2
_geom_bond_distance
_geom_bond_site_symmetry_2
Mg0 Si0 2.835377 1_455
Mg0 Si0 2.835377 1_545
Mg0 Si7 2.936118 1_455
Mg0 Si7 2.936118 1_545
Mg0 Si11 2.942511 1_455
Mg0 Si11 2.942511 1_545
Mg0 Mg5 3.062299 1_455
Mg0 Mg5 3.062299 1_545
Mg0 Si3 3.125161 1_555
Mg0 Si2 3.125890 1_555
Mg0 Si1 3.161112 1_545
Mg0 Si1 3.161112 1_455
Mg1 Si4 2.694519 1_554
Mg1 Si5 2.724794 1_555
Mg1 Si8 2.829863 1_555
Mg1 Si10 2.883624 1_555
Mg2 Si5 2.814979 1_655
Mg2 Si5 2.814979 1_565
Mg2 Si6 2.865836 1_565
Mg2 Si6 2.865836 1_655
Mg2 Si10 2.872987 1_565
Mg2 Si10 2.872987 1_655
Mg2 Si13 3.016478 1_655
Mg2 Si13 3.016478 1_565
Mg3 Si4 2.791696 1_564
Mg3 Si4 2.791696 1_654
Mg3 Si8 2.901452 1_565
Mg3 Si8 2.901452 1_655
Mg3 Si11 2.948753 1_555
Mg3 Si7 3.109305 1_554
Mg3 Si12 3.126040 1_564
Mg3 Si12 3.126040 1_654
Mg4 Si0 2.916360 1_455
Mg4 Si0 2.916360 1_545
Mg4 Si11 2.918366 1_455
Mg4 Si11 2.918366 1_545
Mg4 Si8 2.945266 1_555
Mg4 Si1 2.962477 1_454
Mg4 Si1 2.962477 1_544
Mg4 Si12 3.037172 1_554
Mg4 Si7 3.058516 1_454
Mg4 Si7 3.058516 1_544
Mg5 Si13 2.693890 1_555
Mg5 Si0 2.833167 1_555
Mg5 Si1 2.842117 1_555
Mg5 Si6 2.864816 1_555
Mg5 Si3 2.971184 1_565
Mg5 Si3 2.971184 1_655
Mg5 Si2 2.973601 1_565
Mg5 Si2 2.973601 1_655
Mg5 Si9 3.103688 1_565
Mg5 Si9 3.103688 1_655
Mg6 Si4 2.786098 1_565
Mg6 Si4 2.786098 1_655
Mg6 Si9 2.788043 1_665
Mg6 Si10 2.850797 1_566
Mg6 Si10 2.850797 1_656
Mg6 Si5 2.920684 1_655
Mg6 Si5 2.920684 1_565
Mg7 Si5 2.845802 1_565
Mg7 Si5 2.845802 1_655
Mg7 Si8 2.866276 1_655
Mg7 Si8 2.866276 1_565
Mg7 Si4 2.915713 1_655
Mg7 Si4 2.915713 1_565
Mg7 Si12 2.948336 1_655
Mg7 Si12 2.948336 1_565
Si0 Si11 2.468849 1_555
Si0 Si1 2.493042 1_554
Si0 Si2 2.738853 1_655
Si0 Si2 2.738853 1_565
Si1 Si7 2.467636 1_555
Si1 Si3 2.473298 1_565
Si1 Si3 2.473298 1_655
Si2 Si3 2.474782 1_554
Si2 Si6 2.536949 1_455
Si2 Si6 2.536949 1_545
Si3 Si9 2.481833 1_555
Si4 Si5 2.398622 1_555
Si10 Si6 2.395429 1_555
Si10 Si9 2.674678 1_654
Si10 Si9 2.674678 1_564
Si10 Si13 2.841986 1_554
Si11 Si7 2.515820 1_555
Si11 Si8 2.537819 1_565
Si11 Si8 2.537819 1_655
Si12 Si4 2.390511 1_555
Si12 Si7 2.460363 1_455
Si12 Si7 2.460363 1_545
Si12 Si8 2.502179 1_555
Si13 Si5 2.405027 1_555
Si13 Si6 2.468225 1_555
Si13 Si9 2.531134 1_565
Si13 Si9 2.531134 1_655
