# generated using pymatgen
data_Ca3Hf3AgF20
_symmetry_space_group_name_H-M   'P 1'
_cell_length_a   10.69926003
_cell_length_b   10.69926003
_cell_length_c   8.50373800
_cell_angle_alpha   90.00000000
_cell_angle_beta   90.00000000
_cell_angle_gamma   120.00000021
_symmetry_Int_Tables_number   1
_chemical_formula_structural   Ca3Hf3AgF20
_chemical_formula_sum   'Ca6 Hf6 Ag2 F40'
_cell_volume   843.03962348
_cell_formula_units_Z   2
loop_
 _symmetry_equiv_pos_site_id
 _symmetry_equiv_pos_as_xyz
  1  'x, y, z'
loop_
 _atom_site_type_symbol
 _atom_site_label
 _atom_site_symmetry_multiplicity
 _atom_site_fract_x
 _atom_site_fract_y
 _atom_site_fract_z
 _atom_site_occupancy
  Ca  Ca0  1  0.72804300  0.16197600  0.75000000  1
  Ca  Ca1  1  0.27195700  0.83802400  0.25000000  1
  Ca  Ca2  1  0.43393300  0.27195700  0.75000000  1
  Ca  Ca3  1  0.56606700  0.72804300  0.25000000  1
  Ca  Ca4  1  0.83802400  0.56606700  0.75000000  1
  Ca  Ca5  1  0.16197600  0.43393300  0.25000000  1
  Hf  Hf0  1  0.58391100  0.72267500  0.75000000  1
  Hf  Hf1  1  0.41608900  0.27732500  0.25000000  1
  Hf  Hf2  1  0.13876400  0.41608900  0.75000000  1
  Hf  Hf3  1  0.86123600  0.58391100  0.25000000  1
  Hf  Hf4  1  0.27732500  0.86123600  0.75000000  1
  Hf  Hf5  1  0.72267500  0.13876400  0.25000000  1
  Ag  Ag0  1  0.00000000  0.00000000  0.75000000  1
  Ag  Ag1  1  0.00000000  0.00000000  0.25000000  1
  F  F0  1  0.57480300  0.72028200  0.98430900  1
  F  F1  1  0.42519700  0.27971800  0.01569100  1
  F  F2  1  0.14547800  0.42519700  0.98430900  1
  F  F3  1  0.42519700  0.27971800  0.48430900  1
  F  F4  1  0.85452200  0.57480300  0.01569100  1
  F  F5  1  0.57480300  0.72028200  0.51569100  1
  F  F6  1  0.27971800  0.85452200  0.98430900  1
  F  F7  1  0.85452200  0.57480300  0.48430900  1
  F  F8  1  0.72028200  0.14547800  0.01569100  1
  F  F9  1  0.14547800  0.42519700  0.51569100  1
  F  F10  1  0.72028200  0.14547800  0.48430900  1
  F  F11  1  0.27971800  0.85452200  0.51569100  1
  F  F12  1  0.71683400  0.94109000  0.75000000  1
  F  F13  1  0.28316600  0.05891000  0.25000000  1
  F  F14  1  0.22425500  0.28316600  0.75000000  1
  F  F15  1  0.77574500  0.71683400  0.25000000  1
  F  F16  1  0.05891000  0.77574500  0.75000000  1
  F  F17  1  0.94109000  0.22425500  0.25000000  1
  F  F18  1  0.96720100  0.20285700  0.75000000  1
  F  F19  1  0.03279900  0.79714300  0.25000000  1
  F  F20  1  0.23565600  0.03279900  0.75000000  1
  F  F21  1  0.76434400  0.96720100  0.25000000  1
  F  F22  1  0.79714300  0.76434400  0.75000000  1
  F  F23  1  0.20285700  0.23565600  0.25000000  1
  F  F24  1  0.66666700  0.33333300  0.75000000  1
  F  F25  1  0.33333300  0.66666700  0.25000000  1
  F  F26  1  0.36593200  0.55080600  0.75000000  1
  F  F27  1  0.63406800  0.44919400  0.25000000  1
  F  F28  1  0.18487300  0.63406800  0.75000000  1
  F  F29  1  0.81512700  0.36593200  0.25000000  1
  F  F30  1  0.44919400  0.81512700  0.75000000  1
  F  F31  1  0.55080600  0.18487300  0.25000000  1
  F  F32  1  0.94363300  0.41405300  0.75000000  1
  F  F33  1  0.05636700  0.58594700  0.25000000  1
  F  F34  1  0.47042000  0.05636700  0.75000000  1
  F  F35  1  0.52958000  0.94363300  0.25000000  1
  F  F36  1  0.58594700  0.52958000  0.75000000  1
  F  F37  1  0.41405300  0.47042000  0.25000000  1
  F  F38  1  0.00000000  0.00000000  0.00000000  1
  F  F39  1  0.00000000  0.00000000  0.50000000  1
loop_
_geom_bond_atom_site_label_1
_geom_bond_atom_site_label_2
_geom_bond_distance
_geom_bond_site_symmetry_2
Ca0 F24 2.235286 1_555
Ca0 F8 2.264538 1_556
Ca0 F10 2.264538 1_555
Ca0 F12 2.305693 1_545
Ca0 F18 2.370575 1_555
Ca0 F34 2.399965 1_555
Ca0 F32 2.524585 1_555
Ca1 F25 2.235286 1_555
Ca1 F6 2.264538 1_554
Ca1 F11 2.264538 1_555
Ca1 F13 2.305693 1_565
Ca1 F19 2.370575 1_555
Ca1 F35 2.399965 1_555
Ca1 F33 2.524585 1_555
Ca2 F24 2.235297 1_555
Ca2 F1 2.264538 1_556
Ca2 F3 2.264538 1_555
Ca2 F14 2.305704 1_555
Ca2 F20 2.370575 1_555
Ca2 F36 2.399965 1_555
Ca2 F34 2.524585 1_555
Ca3 F25 2.235297 1_555
Ca3 F5 2.264538 1_555
Ca3 F0 2.264538 1_554
Ca3 F15 2.305704 1_555
Ca3 F21 2.370575 1_555
Ca3 F37 2.399965 1_555
Ca3 F35 2.524585 1_555
Ca4 F24 2.235294 1_555
Ca4 F4 2.264538 1_556
Ca4 F7 2.264538 1_555
Ca4 F16 2.305698 1_655
Ca4 F22 2.370575 1_555
Ca4 F32 2.399965 1_555
Ca4 F36 2.524585 1_555
Ca5 F25 2.235294 1_555
Ca5 F2 2.264538 1_554
Ca5 F9 2.264538 1_555
Ca5 F17 2.305698 1_455
Ca5 F23 2.370575 1_555
Ca5 F33 2.399965 1_555
Ca5 F37 2.524585 1_555
Ag0 F39 2.125935 1_555
Ag0 F38 2.125935 1_556
Ag0 F22 2.365486 1_445
Ag0 F20 2.365486 1_555
Ag0 F18 2.365486 1_455
Ag1 F39 2.125935 1_555
Ag1 F38 2.125935 1_555
Ag1 F23 2.365486 1_555
Ag1 F21 2.365486 1_445
Ag1 F19 2.365486 1_545
F0 Hf0 1.994423 1_555
F1 Hf1 1.994423 1_555
F2 Hf2 1.994423 1_555
F3 Hf1 1.994423 1_555
F4 Hf3 1.994423 1_555
F5 Hf0 1.994423 1_555
F6 Hf4 1.994422 1_555
F7 Hf3 1.994423 1_555
F8 Hf5 1.994422 1_555
F9 Hf2 1.994423 1_555
F10 Hf5 1.994422 1_555
F11 Hf4 1.994422 1_555
F12 Hf0 2.039641 1_555
F13 Hf1 2.039641 1_555
F14 Hf2 2.039632 1_555
F15 Hf3 2.039632 1_555
F16 Hf4 2.039642 1_555
F17 Hf5 2.039642 1_555
F18 Hf2 2.094407 1_655
F19 Hf3 2.094407 1_455
F20 Hf4 2.094407 1_545
F21 Hf5 2.094407 1_565
F22 Hf0 2.094407 1_555
F23 Hf1 2.094407 1_555
F26 Hf2 2.117010 1_555
F26 Hf0 2.128856 1_555
F27 Hf3 2.117010 1_555
F27 Hf1 2.128856 1_555
F28 Hf4 2.117008 1_555
F28 Hf2 2.128859 1_555
F29 Hf5 2.117008 1_555
F29 Hf3 2.128859 1_555
F30 Hf0 2.117018 1_555
F30 Hf4 2.128849 1_555
F31 Hf1 2.117018 1_555
F31 Hf5 2.128849 1_555
F32 Hf2 2.076951 1_655
F33 Hf3 2.076951 1_455
F34 Hf4 2.076951 1_545
F35 Hf5 2.076951 1_565
F36 Hf0 2.076951 1_555
F37 Hf1 2.076951 1_555
