# generated using pymatgen
data_CaNdCrO4
_symmetry_space_group_name_H-M   'P 1'
_cell_length_a   6.62137161
_cell_length_b   6.62137161
_cell_length_c   6.62137161
_cell_angle_alpha   145.99058405
_cell_angle_beta   145.99058405
_cell_angle_gamma   48.86074893
_symmetry_Int_Tables_number   1
_chemical_formula_structural   CaNdCrO4
_chemical_formula_sum   'Ca1 Nd1 Cr1 O4'
_cell_volume   90.42135310
_cell_formula_units_Z   1
loop_
 _symmetry_equiv_pos_site_id
 _symmetry_equiv_pos_as_xyz
  1  'x, y, z'
loop_
 _atom_site_type_symbol
 _atom_site_label
 _atom_site_symmetry_multiplicity
 _atom_site_fract_x
 _atom_site_fract_y
 _atom_site_fract_z
 _atom_site_occupancy
  Ca  Ca0  1  0.64219000  0.64219000  0.00000000  1
  Nd  Nd0  1  0.35963000  0.35963000  0.00000000  1
  Cr  Cr0  1  0.00493000  0.00493000  0.00000000  1
  O  O0  1  0.99581000  0.49581000  0.50000000  1
  O  O1  1  0.49581000  0.99581000  0.50000000  1
  O  O2  1  0.83010400  0.83010400  0.00000000  1
  O  O3  1  0.17152500  0.17152500  0.00000000  1
loop_
_geom_bond_atom_site_label_1
_geom_bond_atom_site_label_2
_geom_bond_distance
_geom_bond_site_symmetry_2
Ca0 O2 2.265688 1_555
Ca0 O0 2.620046 1_555
Ca0 O0 2.620046 1_454
Ca0 O1 2.620046 1_555
Ca0 O1 2.620046 1_544
Ca0 O3 2.761260 1_655
Ca0 O3 2.761260 1_565
Ca0 O3 2.761260 1_666
Ca0 O3 2.761260 1_554
Nd0 O3 2.267991 1_555
Nd0 O0 2.538831 1_555
Nd0 O0 2.538831 1_454
Nd0 O1 2.538831 1_555
Nd0 O1 2.538831 1_544
Nd0 O2 2.761556 1_545
Nd0 O2 2.761556 1_455
Nd0 O2 2.761556 1_556
Nd0 O2 2.761556 1_444
Cr0 O1 1.939542 1_545
Cr0 O0 1.939542 1_455
Cr0 O0 1.939542 1_444
Cr0 O1 1.939542 1_444
Cr0 O3 2.008644 1_555
Cr0 O2 2.107885 1_445
