# generated using pymatgen
data_Y(WF5)3
_symmetry_space_group_name_H-M   'P 1'
_cell_length_a   10.63965600
_cell_length_b   6.12264400
_cell_length_c   10.09149030
_cell_angle_alpha   77.28994769
_cell_angle_beta   90.00000000
_cell_angle_gamma   90.00000000
_symmetry_Int_Tables_number   1
_chemical_formula_structural   Y(WF5)3
_chemical_formula_sum   'Y2 W6 F30'
_cell_volume   641.27952856
_cell_formula_units_Z   2
loop_
 _symmetry_equiv_pos_site_id
 _symmetry_equiv_pos_as_xyz
  1  'x, y, z'
loop_
 _atom_site_type_symbol
 _atom_site_label
 _atom_site_symmetry_multiplicity
 _atom_site_fract_x
 _atom_site_fract_y
 _atom_site_fract_z
 _atom_site_occupancy
  Y  Y0  1  0.75000000  0.45641800  0.74915700  1
  Y  Y1  1  0.25000000  0.54358200  0.25084300  1
  W  W0  1  0.50000000  0.00000000  0.50000000  1
  W  W1  1  0.55186400  0.01836600  0.15789400  1
  W  W2  1  0.44813600  0.98163400  0.84210600  1
  W  W3  1  0.00000000  0.00000000  0.50000000  1
  W  W4  1  0.94813600  0.01836600  0.15789400  1
  W  W5  1  0.05186400  0.98163400  0.84210600  1
  F  F0  1  0.75000000  0.69904900  0.57551700  1
  F  F1  1  0.75000000  0.96441200  0.17026300  1
  F  F2  1  0.75000000  0.66604400  0.87336400  1
  F  F3  1  0.25000000  0.30095100  0.42448300  1
  F  F4  1  0.25000000  0.33395600  0.12663600  1
  F  F5  1  0.25000000  0.03558800  0.82973700  1
  F  F6  1  0.39746800  0.13496600  0.63553200  1
  F  F7  1  0.45887000  0.17659200  0.29815900  1
  F  F8  1  0.41103300  0.12157000  0.01101600  1
  F  F9  1  0.60253200  0.86503400  0.36446800  1
  F  F10  1  0.58896700  0.87843000  0.98898400  1
  F  F11  1  0.54113000  0.82340800  0.70184100  1
  F  F12  1  0.12074000  0.76041600  0.50043700  1
  F  F13  1  0.07882000  0.75982200  0.21139600  1
  F  F14  1  0.11375700  0.68490000  0.92411900  1
  F  F15  1  0.87926000  0.23958400  0.49956300  1
  F  F16  1  0.88624300  0.31510000  0.07588100  1
  F  F17  1  0.92118000  0.24017800  0.78860400  1
  F  F18  1  0.62074000  0.23958400  0.49956300  1
  F  F19  1  0.61375700  0.31510000  0.07588100  1
  F  F20  1  0.57882000  0.24017800  0.78860400  1
  F  F21  1  0.37926000  0.76041600  0.50043700  1
  F  F22  1  0.42118000  0.75982200  0.21139600  1
  F  F23  1  0.38624300  0.68490000  0.92411900  1
  F  F24  1  0.10253200  0.13496600  0.63553200  1
  F  F25  1  0.04113000  0.17659200  0.29815900  1
  F  F26  1  0.08896700  0.12157000  0.01101600  1
  F  F27  1  0.89746800  0.86503400  0.36446800  1
  F  F28  1  0.91103300  0.87843000  0.98898400  1
  F  F29  1  0.95887000  0.82340800  0.70184100  1
loop_
_geom_bond_atom_site_label_1
_geom_bond_atom_site_label_2
_geom_bond_distance
_geom_bond_site_symmetry_2
F0 Y0 2.032706 1_555
F1 W4 2.133223 1_565
F1 W1 2.133223 1_565
F2 Y0 1.981484 1_555
F3 Y1 2.032706 1_555
F4 Y1 1.981484 1_555
F5 W2 2.133223 1_545
F5 W5 2.133223 1_545
F6 W0 2.059349 1_555
F6 W2 2.157895 1_545
F7 W1 2.127077 1_555
F7 W0 2.130797 1_555
F8 W1 2.104589 1_555
F8 W2 2.106667 1_544
F9 W0 2.059349 1_565
F9 W1 2.157895 1_565
F10 W2 2.104589 1_555
F10 W1 2.106667 1_566
F11 W2 2.127077 1_555
F11 W0 2.130797 1_565
F12 W3 1.949157 1_565
F13 W4 2.086751 1_465
F13 Y1 2.235295 1_555
F14 W5 1.938484 1_555
F15 W3 1.949157 1_655
F16 W4 1.938484 1_555
F17 W5 2.086751 1_645
F17 Y0 2.235295 1_555
F18 W0 1.949157 1_555
F19 W1 1.938484 1_555
F20 W2 2.086751 1_545
F20 Y0 2.235295 1_555
F21 W0 1.949157 1_565
F22 W1 2.086751 1_565
F22 Y1 2.235295 1_555
F23 W2 1.938484 1_555
F24 W3 2.059349 1_555
F24 W5 2.157895 1_545
F25 W4 2.127077 1_455
F25 W3 2.130797 1_555
F26 W4 2.104589 1_455
F26 W5 2.106667 1_544
F27 W3 2.059349 1_665
F27 W4 2.157895 1_565
F28 W5 2.104589 1_655
F28 W4 2.106667 1_566
F29 W5 2.127077 1_655
F29 W3 2.130797 1_665
