# generated using pymatgen
data_MnH8C3(NO3)2
_symmetry_space_group_name_H-M   'P 1'
_cell_length_a   9.07927200
_cell_length_b   7.94853800
_cell_length_c   11.92284700
_cell_angle_alpha   90.00000000
_cell_angle_beta   90.00000000
_cell_angle_gamma   90.00000000
_symmetry_Int_Tables_number   1
_chemical_formula_structural   MnH8C3(NO3)2
_chemical_formula_sum   'Mn4 H32 C12 N8 O24'
_cell_volume   860.43536625
_cell_formula_units_Z   4
loop_
 _symmetry_equiv_pos_site_id
 _symmetry_equiv_pos_as_xyz
  1  'x, y, z'
loop_
 _atom_site_type_symbol
 _atom_site_label
 _atom_site_symmetry_multiplicity
 _atom_site_fract_x
 _atom_site_fract_y
 _atom_site_fract_z
 _atom_site_occupancy
  Mn  Mn0  1  0.03368800  0.00081100  0.61141100  1
  Mn  Mn1  1  0.96631200  0.99918900  0.11141100  1
  Mn  Mn2  1  0.46631200  0.50081100  0.11141100  1
  Mn  Mn3  1  0.53368800  0.49918900  0.61141100  1
  H  H0  1  0.83118300  0.31315700  0.60952900  1
  H  H1  1  0.16881700  0.68684300  0.10952900  1
  H  H2  1  0.66881700  0.81315700  0.10952900  1
  H  H3  1  0.33118300  0.18684300  0.60952900  1
  H  H4  1  0.76941300  0.76494700  0.65559100  1
  H  H5  1  0.23058700  0.23505300  0.15559100  1
  H  H6  1  0.73058700  0.26494700  0.15559100  1
  H  H7  1  0.26941300  0.73505300  0.65559100  1
  H  H8  1  0.03971300  0.06802700  0.85904500  1
  H  H9  1  0.96028700  0.93197300  0.35904500  1
  H  H10  1  0.46028700  0.56802700  0.35904500  1
  H  H11  1  0.53971300  0.43197300  0.85904500  1
  H  H12  1  0.57813300  0.87477900  0.80799700  1
  H  H13  1  0.42186700  0.12522100  0.30799700  1
  H  H14  1  0.92186700  0.37477900  0.30799700  1
  H  H15  1  0.07813300  0.62522100  0.80799700  1
  H  H16  1  0.58456300  0.08641400  0.78045100  1
  H  H17  1  0.41543700  0.91358600  0.28045100  1
  H  H18  1  0.91543700  0.58641400  0.28045100  1
  H  H19  1  0.08456300  0.41358600  0.78045100  1
  H  H20  1  0.64491500  0.01410300  0.90694700  1
  H  H21  1  0.35508500  0.98589700  0.40694700  1
  H  H22  1  0.85508500  0.51410300  0.40694700  1
  H  H23  1  0.14491500  0.48589700  0.90694700  1
  H  H24  1  0.40458000  0.90120000  0.93177300  1
  H  H25  1  0.59542000  0.09880000  0.43177300  1
  H  H26  1  0.09542000  0.40120000  0.43177300  1
  H  H27  1  0.90458000  0.59880000  0.93177300  1
  H  H28  1  0.42028500  0.10802900  0.93902700  1
  H  H29  1  0.57971500  0.89197100  0.43902700  1
  H  H30  1  0.07971500  0.60802900  0.43902700  1
  H  H31  1  0.92028500  0.39197100  0.93902700  1
  C  C0  1  0.76273100  0.22058900  0.65523800  1
  C  C1  1  0.23726900  0.77941100  0.15523800  1
  C  C2  1  0.73726900  0.72058900  0.15523800  1
  C  C3  1  0.26273100  0.27941100  0.65523800  1
  C  C4  1  0.81672900  0.70793100  0.57897800  1
  C  C5  1  0.18327100  0.29206900  0.07897800  1
  C  C6  1  0.68327100  0.20793100  0.07897800  1
  C  C7  1  0.31672900  0.79206900  0.57897800  1
  C  C8  1  0.03559500  0.92901200  0.86170100  1
  C  C9  1  0.96440500  0.07098800  0.36170100  1
  C  C10  1  0.46440500  0.42901200  0.36170100  1
  C  C11  1  0.53559500  0.57098800  0.86170100  1
  N  N0  1  0.56732200  0.99556900  0.84271100  1
  N  N1  1  0.43267800  0.00443100  0.34271100  1
  N  N2  1  0.93267800  0.49556900  0.34271100  1
  N  N3  1  0.06732200  0.50443100  0.84271100  1
  N  N4  1  0.41747400  0.00818600  0.88427200  1
  N  N5  1  0.58252600  0.99181400  0.38427200  1
  N  N6  1  0.08252600  0.50818600  0.38427200  1
  N  N7  1  0.91747400  0.49181400  0.88427200  1
  O  O0  1  0.81882500  0.07918100  0.67896000  1
  O  O1  1  0.18117500  0.92081900  0.17896000  1
  O  O2  1  0.68117500  0.57918100  0.17896000  1
  O  O3  1  0.31882500  0.42081900  0.67896000  1
  O  O4  1  0.63112300  0.26281100  0.68072100  1
  O  O5  1  0.36887700  0.73718900  0.18072100  1
  O  O6  1  0.86887700  0.76281100  0.18072100  1
  O  O7  1  0.13112300  0.23718900  0.68072100  1
  O  O8  1  0.93413400  0.77045300  0.53907100  1
  O  O9  1  0.06586600  0.22954700  0.03907100  1
  O  O10  1  0.56586600  0.27045300  0.03907100  1
  O  O11  1  0.43413400  0.72954700  0.53907100  1
  O  O12  1  0.74878900  0.58267700  0.53640100  1
  O  O13  1  0.25121100  0.41732300  0.03640100  1
  O  O14  1  0.75121100  0.08267700  0.03640100  1
  O  O15  1  0.24878900  0.91732300  0.53640100  1
  O  O16  1  0.05649100  0.84970300  0.77002300  1
  O  O17  1  0.94350900  0.15029700  0.27002300  1
  O  O18  1  0.44350900  0.34970300  0.27002300  1
  O  O19  1  0.55649100  0.65029700  0.77002300  1
  O  O20  1  0.01085900  0.85839100  0.95528300  1
  O  O21  1  0.98914100  0.14160900  0.45528300  1
  O  O22  1  0.48914100  0.35839100  0.45528300  1
  O  O23  1  0.51085900  0.64160900  0.95528300  1
loop_
_geom_bond_atom_site_label_1
_geom_bond_atom_site_label_2
_geom_bond_distance
_geom_bond_site_symmetry_2
Mn0 O0 2.200520 1_455
Mn0 O21 2.209344 1_455
Mn0 O8 2.216640 1_445
Mn0 O7 2.235082 1_555
Mn0 O15 2.248168 1_545
Mn0 O16 2.249835 1_545
Mn1 O1 2.200520 1_655
Mn1 O20 2.209344 1_654
Mn1 O9 2.216640 1_665
Mn1 O6 2.235082 1_555
Mn1 O14 2.248168 1_565
Mn1 O17 2.249835 1_565
Mn2 O2 2.200520 1_555
Mn2 O23 2.209344 1_554
Mn2 O10 2.216640 1_555
Mn2 O5 2.235082 1_555
Mn2 O13 2.248168 1_555
Mn2 O18 2.249835 1_555
Mn3 O3 2.200520 1_555
Mn3 O22 2.209344 1_555
Mn3 O11 2.216640 1_555
Mn3 O4 2.235082 1_555
Mn3 O12 2.248168 1_555
Mn3 O19 2.249835 1_555
H12 N0 1.050114 1_555
H13 N1 1.050114 1_555
H14 N2 1.050114 1_555
H15 N3 1.050114 1_555
H16 N0 1.047351 1_545
H17 N1 1.047351 1_565
H18 N2 1.047351 1_555
H19 N3 1.047351 1_555
H20 N0 1.050986 1_545
H21 N1 1.050986 1_565
H22 N2 1.050986 1_555
H23 N3 1.050986 1_555
H24 N4 1.028399 1_565
H25 N5 1.028399 1_545
H26 N6 1.028399 1_555
H27 N7 1.028399 1_555
H28 N4 1.027938 1_555
H29 N5 1.027938 1_555
H30 N6 1.027938 1_555
H31 N7 1.027938 1_555
C0 H0 1.106631 1_555
C0 O0 1.265986 1_555
C0 O4 1.277787 1_555
C1 H1 1.106631 1_555
C1 O1 1.265986 1_555
C1 O5 1.277787 1_555
C2 H2 1.106631 1_555
C2 O2 1.265986 1_555
C2 O6 1.277787 1_555
C3 H3 1.106631 1_555
C3 O3 1.265986 1_555
C3 O7 1.277787 1_555
C4 H4 1.106489 1_555
C4 O8 1.268705 1_555
C4 O12 1.276475 1_555
C5 H5 1.106489 1_555
C5 O9 1.268705 1_555
C5 O13 1.276475 1_555
C6 H6 1.106489 1_555
C6 O10 1.268705 1_555
C6 O14 1.276475 1_555
C7 H7 1.106489 1_555
C7 O11 1.268705 1_555
C7 O15 1.276475 1_555
C8 H8 1.106052 1_565
C8 O20 1.269040 1_555
C8 O16 1.275999 1_555
C9 H9 1.106052 1_545
C9 O21 1.269040 1_555
C9 O17 1.275999 1_555
C10 H10 1.106052 1_555
C10 O22 1.269040 1_555
C10 O18 1.275999 1_555
C11 H11 1.106052 1_555
C11 O23 1.269040 1_555
C11 O19 1.275999 1_555
