# generated using pymatgen
data_Ca3CoRhO6
_symmetry_space_group_name_H-M   'P 1'
_cell_length_a   6.49499352
_cell_length_b   8.96832005
_cell_length_c   9.25641200
_cell_angle_alpha   89.75152225
_cell_angle_beta   89.86422628
_cell_angle_gamma   92.58194658
_symmetry_Int_Tables_number   1
_chemical_formula_structural   Ca3CoRhO6
_chemical_formula_sum   'Ca12 Co4 Rh4 O24'
_cell_volume   538.62420701
_cell_formula_units_Z   4
loop_
 _symmetry_equiv_pos_site_id
 _symmetry_equiv_pos_as_xyz
  1  'x, y, z'
loop_
 _atom_site_type_symbol
 _atom_site_label
 _atom_site_symmetry_multiplicity
 _atom_site_fract_x
 _atom_site_fract_y
 _atom_site_fract_z
 _atom_site_occupancy
  Ca  Ca0  1  0.61250800  0.56837500  0.68377300  1
  Ca  Ca1  1  0.61288600  0.06930600  0.18375400  1
  Ca  Ca2  1  0.88743600  0.43073700  0.18323200  1
  Ca  Ca3  1  0.88618200  0.93189000  0.68285800  1
  Ca  Ca4  1  0.25002400  0.75065400  0.13540100  1
  Ca  Ca5  1  0.24885100  0.25039800  0.63323300  1
  Ca  Ca6  1  0.11269400  0.56808100  0.81789200  1
  Ca  Ca7  1  0.11344600  0.06815300  0.31660300  1
  Ca  Ca8  1  0.75068700  0.24971700  0.86660400  1
  Ca  Ca9  1  0.74821100  0.74963800  0.36606100  1
  Ca  Ca10  1  0.38659000  0.43294700  0.31687200  1
  Ca  Ca11  1  0.38748000  0.93143000  0.81713300  1
  Co  Co0  1  0.24640400  0.75135800  0.50193200  1
  Co  Co1  1  0.74749400  0.25162600  0.50605200  1
  Co  Co2  1  0.25160000  0.24842800  0.99233900  1
  Co  Co3  1  0.74890100  0.75144400  0.00756500  1
  Rh  Rh0  1  0.49993600  0.49987000  0.99998200  1
  Rh  Rh1  1  0.50010700  0.00088200  0.49858000  1
  Rh  Rh2  1  0.00021800  0.99987800  0.99971700  1
  Rh  Rh3  1  0.00127800  0.49880100  0.49964300  1
  O  O0  1  0.55222900  0.30969500  0.10495000  1
  O  O1  1  0.54653400  0.80655800  0.60155900  1
  O  O2  1  0.20306900  0.47295500  0.06512600  1
  O  O3  1  0.20318900  0.97510500  0.56591000  1
  O  O4  1  0.40838500  0.36931600  0.83093800  1
  O  O5  1  0.40953000  0.87392500  0.32854000  1
  O  O6  1  0.04837400  0.80893300  0.89514100  1
  O  O7  1  0.04589500  0.30677800  0.39622500  1
  O  O8  1  0.91083100  0.37345400  0.67216800  1
  O  O9  1  0.91232200  0.87339900  0.17189900  1
  O  O10  1  0.70321400  0.47218600  0.43385800  1
  O  O11  1  0.70210800  0.97109900  0.93414400  1
  O  O12  1  0.44851600  0.69051900  0.89454500  1
  O  O13  1  0.45103000  0.19265700  0.39471600  1
  O  O14  1  0.79675300  0.52683800  0.93456700  1
  O  O15  1  0.79668100  0.02632500  0.43327800  1
  O  O16  1  0.59195500  0.62994900  0.16926600  1
  O  O17  1  0.59267300  0.12872100  0.66933400  1
  O  O18  1  0.95201100  0.19096100  0.10404400  1
  O  O19  1  0.95542400  0.69283000  0.60313200  1
  O  O20  1  0.09238300  0.62564000  0.32897700  1
  O  O21  1  0.08792300  0.12597400  0.82764400  1
  O  O22  1  0.29764400  0.52346100  0.56638300  1
  O  O23  1  0.29839400  0.02911000  0.06443000  1
loop_
_geom_bond_atom_site_label_1
_geom_bond_atom_site_label_2
_geom_bond_distance
_geom_bond_site_symmetry_2
Ca0 O1 2.322840 1_555
Ca0 O22 2.337792 1_555
Ca0 O12 2.500927 1_555
Ca0 O10 2.549377 1_555
Ca0 O19 2.554307 1_555
Ca0 O4 2.560754 1_555
Ca0 O14 2.646839 1_555
Ca0 O8 2.669751 1_555
Ca1 O0 2.323657 1_555
Ca1 O23 2.338806 1_555
Ca1 O13 2.501189 1_555
Ca1 O18 2.520927 1_555
Ca1 O5 2.524620 1_545
Ca1 O11 2.550923 1_544
Ca1 O15 2.637256 1_555
Ca1 O9 2.681388 1_545
Ca2 O18 2.330415 1_555
Ca2 O2 2.336027 1_655
Ca2 O0 2.498977 1_555
Ca2 O7 2.505159 1_655
Ca2 O14 2.534305 1_554
Ca2 O20 2.542947 1_655
Ca2 O10 2.643135 1_555
Ca2 O16 2.683255 1_555
Ca3 O19 2.332912 1_555
Ca3 O3 2.339929 1_655
Ca3 O6 2.506498 1_655
Ca3 O21 2.523058 1_665
Ca3 O15 2.534964 1_565
Ca3 O1 2.547158 1_555
Ca3 O11 2.644827 1_555
Ca3 O17 2.658625 1_565
Ca4 O20 2.320864 1_555
Ca4 O5 2.326875 1_555
Ca4 O9 2.520727 1_455
Ca4 O16 2.533614 1_555
Ca4 O2 2.581718 1_555
Ca4 O23 2.584723 1_565
Ca4 O12 2.642509 1_554
Ca4 O6 2.645726 1_554
Ca5 O21 2.333374 1_555
Ca5 O4 2.342319 1_555
Ca5 O8 2.527009 1_455
Ca5 O22 2.529136 1_555
Ca5 O17 2.551319 1_555
Ca5 O3 2.553447 1_545
Ca5 O7 2.621144 1_555
Ca5 O13 2.631425 1_555
Ca6 O14 2.330598 1_455
Ca6 O6 2.333423 1_555
Ca6 O12 2.502988 1_555
Ca6 O19 2.517967 1_455
Ca6 O2 2.518759 1_556
Ca6 O8 2.531357 1_455
Ca6 O22 2.657289 1_555
Ca6 O4 2.681090 1_555
Ca7 O7 2.326437 1_555
Ca7 O15 2.335886 1_455
Ca7 O18 2.505723 1_455
Ca7 O13 2.524090 1_555
Ca7 O9 2.524719 1_445
Ca7 O3 2.528840 1_545
Ca7 O5 2.654380 1_545
Ca7 O23 2.654400 1_555
Ca8 O8 2.328596 1_555
Ca8 O17 2.343257 1_555
Ca8 O21 2.525467 1_655
Ca8 O4 2.533291 1_555
Ca8 O14 2.570895 1_555
Ca8 O11 2.578481 1_545
Ca8 O0 2.622507 1_556
Ca8 O18 2.623671 1_556
Ca9 O16 2.329817 1_555
Ca9 O9 2.337776 1_555
Ca9 O5 2.534373 1_555
Ca9 O20 2.564201 1_655
Ca9 O15 2.566631 1_565
Ca9 O10 2.567263 1_555
Ca9 O1 2.604723 1_555
Ca9 O19 2.636750 1_555
Ca10 O13 2.325427 1_555
Ca10 O10 2.339696 1_555
Ca10 O0 2.518570 1_555
Ca10 O22 2.525673 1_555
Ca10 O7 2.544781 1_555
Ca10 O16 2.554511 1_555
Ca10 O20 2.636023 1_555
Ca10 O2 2.650303 1_555
Ca11 O12 2.324596 1_555
Ca11 O11 2.328933 1_555
Ca11 O6 2.519295 1_555
Ca11 O23 2.529604 1_566
Ca11 O1 2.533179 1_555
Ca11 O17 2.556639 1_565
Ca11 O3 2.653542 1_555
Ca11 O21 2.673091 1_565
Co0 O3 2.125168 1_555
Co0 O19 2.150060 1_455
Co0 O22 2.166946 1_555
Co0 O20 2.180960 1_555
Co0 O5 2.185984 1_555
Co0 O1 2.195672 1_555
Co1 O17 2.094981 1_555
Co1 O10 2.117232 1_555
Co1 O8 2.145090 1_555
Co1 O15 2.169674 1_555
Co1 O7 2.221339 1_655
Co1 O13 2.229758 1_555
Co2 O4 2.079344 1_555
Co2 O23 2.109468 1_556
Co2 O21 2.139455 1_555
Co2 O2 2.162393 1_556
Co2 O18 2.239752 1_456
Co2 O0 2.262518 1_556
Co3 O16 2.084519 1_555
Co3 O11 2.116176 1_554
Co3 O9 2.134063 1_555
Co3 O14 2.162855 1_554
Co3 O6 2.242204 1_654
Co3 O12 2.262295 1_554
O0 Rh0 2.001924 1_554
O1 Rh1 2.017687 1_565
O2 Rh0 2.022604 1_554
O3 Rh1 2.028247 1_565
O4 Rh0 2.032352 1_555
O5 Rh1 2.019757 1_565
O6 Rh2 2.007125 1_555
O7 Rh3 2.005995 1_555
O8 Rh3 2.019800 1_655
O9 Rh2 2.018509 1_654
O10 Rh3 2.034893 1_655
O11 Rh2 2.036146 1_655
O12 Rh0 2.006487 1_555
O13 Rh1 2.005111 1_555
O14 Rh0 2.023075 1_555
O15 Rh1 2.020285 1_555
O16 Rh0 2.032481 1_554
O17 Rh1 2.032792 1_555
O18 Rh2 2.007139 1_644
O19 Rh3 2.023397 1_655
O20 Rh3 2.014717 1_555
O21 Rh2 2.015525 1_545
O22 Rh3 2.025893 1_555
O23 Rh2 2.034521 1_544
