# generated using pymatgen
data_Er(CoGe)6
_symmetry_space_group_name_H-M   'P 1'
_cell_length_a   5.06898700
_cell_length_b   5.06898767
_cell_length_c   7.85052600
_cell_angle_alpha   90.00000000
_cell_angle_beta   90.00000000
_cell_angle_gamma   120.00000214
_symmetry_Int_Tables_number   1
_chemical_formula_structural   Er(CoGe)6
_chemical_formula_sum   'Er1 Co6 Ge6'
_cell_volume   174.69150684
_cell_formula_units_Z   1
loop_
 _symmetry_equiv_pos_site_id
 _symmetry_equiv_pos_as_xyz
  1  'x, y, z'
loop_
 _atom_site_type_symbol
 _atom_site_label
 _atom_site_symmetry_multiplicity
 _atom_site_fract_x
 _atom_site_fract_y
 _atom_site_fract_z
 _atom_site_occupancy
  Er  Er0  1  0.00000000  0.00000000  0.00000000  1
  Co  Co0  1  0.50000000  0.50000000  0.74994800  1
  Co  Co1  1  0.50000000  0.00000000  0.74994800  1
  Co  Co2  1  0.00000000  0.50000000  0.74994800  1
  Co  Co3  1  0.50000000  0.50000000  0.25005200  1
  Co  Co4  1  0.50000000  0.00000000  0.25005200  1
  Co  Co5  1  0.00000000  0.50000000  0.25005200  1
  Ge  Ge0  1  0.66666700  0.33333300  0.00000000  1
  Ge  Ge1  1  0.33333300  0.66666700  0.00000000  1
  Ge  Ge2  1  0.66666700  0.33333300  0.50000000  1
  Ge  Ge3  1  0.33333300  0.66666700  0.50000000  1
  Ge  Ge4  1  0.00000000  0.00000000  0.65561800  1
  Ge  Ge5  1  0.00000000  0.00000000  0.34438200  1
loop_
_geom_bond_atom_site_label_1
_geom_bond_atom_site_label_2
_geom_bond_distance
_geom_bond_site_symmetry_2
Er0 Ge5 2.703580 1_555
Er0 Ge4 2.703580 1_554
Er0 Ge1 2.926578 1_545
Er0 Ge0 2.926578 1_455
Er0 Ge0 2.926582 1_555
Er0 Ge1 2.926582 1_445
Er0 Ge0 2.926583 1_445
Er0 Ge1 2.926583 1_555
Co0 Ge3 2.447764 1_555
Co0 Ge2 2.447764 1_555
Co0 Ge0 2.448418 1_556
Co0 Ge1 2.448418 1_556
Co0 Co2 2.534493 1_655
Co0 Co2 2.534493 1_555
Co0 Co1 2.534494 1_565
Co0 Co1 2.534494 1_555
Co0 Ge4 2.640465 1_555
Co0 Ge4 2.640465 1_665
Co0 Er0 3.205805 1_556
Co0 Er0 3.205805 1_666
Co1 Ge2 2.447761 1_555
Co1 Ge3 2.447761 1_545
Co1 Ge1 2.448416 1_546
Co1 Ge0 2.448416 1_556
Co1 Co2 2.534494 1_655
Co1 Co2 2.534494 1_545
Co1 Ge4 2.640465 1_655
Co1 Ge4 2.640465 1_555
Co1 Er0 3.205804 1_556
Co1 Er0 3.205804 1_656
Co2 Ge3 2.447761 1_555
Co2 Ge2 2.447761 1_455
Co2 Ge1 2.448416 1_556
Co2 Ge0 2.448416 1_456
Co2 Ge4 2.640466 1_555
Co2 Ge4 2.640466 1_565
Co2 Er0 3.205805 1_556
Co2 Er0 3.205805 1_566
Co3 Ge3 2.447764 1_555
Co3 Ge2 2.447764 1_555
Co3 Ge1 2.448418 1_555
Co3 Ge0 2.448418 1_555
Co3 Co5 2.534493 1_655
Co3 Co5 2.534493 1_555
Co3 Co4 2.534494 1_565
Co3 Co4 2.534494 1_555
Co3 Ge5 2.640465 1_665
Co3 Ge5 2.640465 1_555
Co3 Er0 3.205805 1_555
Co3 Er0 3.205805 1_665
Co4 Ge3 2.447761 1_545
Co4 Ge2 2.447761 1_555
Co4 Ge1 2.448416 1_545
Co4 Ge0 2.448416 1_555
Co4 Co5 2.534494 1_545
Co4 Co5 2.534494 1_655
Co4 Ge5 2.640465 1_655
Co4 Ge5 2.640465 1_555
Co4 Er0 3.205804 1_655
Co4 Er0 3.205804 1_555
Co5 Ge3 2.447761 1_555
Co5 Ge2 2.447761 1_455
Co5 Ge1 2.448416 1_555
Co5 Ge0 2.448416 1_455
Co5 Ge5 2.640466 1_565
Co5 Ge5 2.640466 1_555
Co5 Er0 3.205805 1_565
Co5 Er0 3.205805 1_555
Ge4 Ge5 2.443366 1_555
