# generated using pymatgen
data_SrZnSi
_symmetry_space_group_name_H-M   'P 1'
_cell_length_a   4.27149013
_cell_length_b   4.27149013
_cell_length_c   4.63219500
_cell_angle_alpha   90.00000000
_cell_angle_beta   90.00000000
_cell_angle_gamma   120.00000199
_symmetry_Int_Tables_number   1
_chemical_formula_structural   SrZnSi
_chemical_formula_sum   'Sr1 Zn1 Si1'
_cell_volume   73.19413294
_cell_formula_units_Z   1
loop_
 _symmetry_equiv_pos_site_id
 _symmetry_equiv_pos_as_xyz
  1  'x, y, z'
loop_
 _atom_site_type_symbol
 _atom_site_label
 _atom_site_symmetry_multiplicity
 _atom_site_fract_x
 _atom_site_fract_y
 _atom_site_fract_z
 _atom_site_occupancy
  Sr  Sr0  1  0.33333300  0.66666700  0.00000000  1
  Zn  Zn0  1  0.00000000  0.00000000  0.50000000  1
  Si  Si0  1  0.66666700  0.33333300  0.50000000  1
loop_
_geom_bond_atom_site_label_1
_geom_bond_atom_site_label_2
_geom_bond_distance
_geom_bond_site_symmetry_2
Sr0 Zn0 3.383219 1_564
Sr0 Zn0 3.383219 1_565
Sr0 Zn0 3.383222 1_664
Sr0 Zn0 3.383222 1_665
Sr0 Zn0 3.383222 1_554
Sr0 Zn0 3.383222 1_555
Si0 Zn0 2.466144 1_655
Si0 Zn0 2.466147 1_665
Si0 Zn0 2.466147 1_555
Si0 Sr0 3.383219 1_546
Si0 Sr0 3.383219 1_545
Si0 Sr0 3.383219 1_656
Si0 Sr0 3.383219 1_655
Si0 Sr0 3.383225 1_556
Si0 Sr0 3.383225 1_555
