# generated using pymatgen
data_Dy3Ni11Ge4
_symmetry_space_group_name_H-M   'P 1'
_cell_length_a   8.31703920
_cell_length_b   8.31703920
_cell_length_c   8.56488500
_cell_angle_alpha   90.00000000
_cell_angle_beta   90.00000000
_cell_angle_gamma   119.99999363
_symmetry_Int_Tables_number   1
_chemical_formula_structural   Dy3Ni11Ge4
_chemical_formula_sum   'Dy6 Ni22 Ge8'
_cell_volume   513.08544205
_cell_formula_units_Z   2
loop_
 _symmetry_equiv_pos_site_id
 _symmetry_equiv_pos_as_xyz
  1  'x, y, z'
loop_
 _atom_site_type_symbol
 _atom_site_label
 _atom_site_symmetry_multiplicity
 _atom_site_fract_x
 _atom_site_fract_y
 _atom_site_fract_z
 _atom_site_occupancy
  Dy  Dy0  1  0.80453400  0.19546600  0.75000000  1
  Dy  Dy1  1  0.19546600  0.80453400  0.25000000  1
  Dy  Dy2  1  0.39093200  0.19546600  0.75000000  1
  Dy  Dy3  1  0.60906800  0.80453400  0.25000000  1
  Dy  Dy4  1  0.80453400  0.60906800  0.75000000  1
  Dy  Dy5  1  0.19546600  0.39093200  0.25000000  1
  Ni  Ni0  1  0.84153700  0.15846300  0.40524600  1
  Ni  Ni1  1  0.15846300  0.84153700  0.59475400  1
  Ni  Ni2  1  0.31692500  0.15846300  0.40524600  1
  Ni  Ni3  1  0.15846300  0.84153700  0.90524600  1
  Ni  Ni4  1  0.68307500  0.84153700  0.59475400  1
  Ni  Ni5  1  0.84153700  0.15846300  0.09475400  1
  Ni  Ni6  1  0.84153700  0.68307500  0.40524600  1
  Ni  Ni7  1  0.68307500  0.84153700  0.90524600  1
  Ni  Ni8  1  0.15846300  0.31692500  0.59475400  1
  Ni  Ni9  1  0.31692500  0.15846300  0.09475400  1
  Ni  Ni10  1  0.15846300  0.31692500  0.90524600  1
  Ni  Ni11  1  0.84153700  0.68307500  0.09475400  1
  Ni  Ni12  1  0.43445900  0.56554100  0.75000000  1
  Ni  Ni13  1  0.56554100  0.43445900  0.25000000  1
  Ni  Ni14  1  0.13108300  0.56554100  0.75000000  1
  Ni  Ni15  1  0.86891700  0.43445900  0.25000000  1
  Ni  Ni16  1  0.43445900  0.86891700  0.75000000  1
  Ni  Ni17  1  0.56554100  0.13108300  0.25000000  1
  Ni  Ni18  1  0.66666700  0.33333300  0.00390400  1
  Ni  Ni19  1  0.33333300  0.66666700  0.99609600  1
  Ni  Ni20  1  0.33333300  0.66666700  0.50390400  1
  Ni  Ni21  1  0.66666700  0.33333300  0.49609600  1
  Ge  Ge0  1  0.50000000  0.50000000  0.00000000  1
  Ge  Ge1  1  0.00000000  0.50000000  0.00000000  1
  Ge  Ge2  1  0.50000000  0.50000000  0.50000000  1
  Ge  Ge3  1  0.50000000  0.00000000  0.00000000  1
  Ge  Ge4  1  0.00000000  0.50000000  0.50000000  1
  Ge  Ge5  1  0.50000000  0.00000000  0.50000000  1
  Ge  Ge6  1  0.00000000  0.00000000  0.75000000  1
  Ge  Ge7  1  0.00000000  0.00000000  0.25000000  1
loop_
_geom_bond_atom_site_label_1
_geom_bond_atom_site_label_2
_geom_bond_distance
_geom_bond_site_symmetry_2
Dy0 Ge6 2.815792 1_655
Dy0 Ni8 2.912025 1_655
Dy0 Ni10 2.912025 1_655
Dy0 Ni4 2.912025 1_545
Dy0 Ni7 2.912025 1_545
Dy0 Ni16 2.913839 1_545
Dy0 Ni14 2.913839 1_655
Dy0 Ni18 2.945085 1_556
Dy0 Ni21 2.945085 1_555
Dy0 Ni5 3.000507 1_556
Dy0 Ni0 3.000507 1_555
Dy0 Ge3 3.086309 1_556
Dy0 Ge4 3.086309 1_655
Dy0 Ge1 3.086309 1_656
Dy0 Ge5 3.086309 1_555
Dy1 Ge7 2.815792 1_565
Dy1 Ni9 2.912025 1_565
Dy1 Ni2 2.912025 1_565
Dy1 Ni11 2.912025 1_455
Dy1 Ni6 2.912025 1_455
Dy1 Ni17 2.913839 1_565
Dy1 Ni15 2.913839 1_455
Dy1 Ni20 2.945085 1_555
Dy1 Ni19 2.945085 1_554
Dy1 Ni3 3.000507 1_554
Dy1 Ni1 3.000507 1_555
Dy1 Ge5 3.086309 1_565
Dy1 Ge4 3.086309 1_555
Dy1 Ge1 3.086309 1_555
Dy1 Ge3 3.086309 1_565
Dy2 Ge6 2.815792 1_555
Dy2 Ni10 2.912018 1_555
Dy2 Ni8 2.912018 1_555
Dy2 Ni3 2.912024 1_545
Dy2 Ni1 2.912024 1_545
Dy2 Ni12 2.913836 1_555
Dy2 Ni16 2.913844 1_545
Dy2 Ni18 2.945090 1_556
Dy2 Ni21 2.945090 1_555
Dy2 Ni9 3.000508 1_556
Dy2 Ni2 3.000508 1_555
Dy2 Ge5 3.086309 1_555
Dy2 Ge3 3.086309 1_556
Dy2 Ge0 3.086309 1_556
Dy2 Ge2 3.086309 1_555
Dy3 Ge7 2.815792 1_665
Dy3 Ni11 2.912018 1_555
Dy3 Ni6 2.912018 1_555
Dy3 Ni5 2.912024 1_565
Dy3 Ni0 2.912024 1_565
Dy3 Ni13 2.913836 1_555
Dy3 Ni17 2.913844 1_565
Dy3 Ni20 2.945090 1_555
Dy3 Ni19 2.945090 1_554
Dy3 Ni4 3.000508 1_555
Dy3 Ni7 3.000508 1_554
Dy3 Ge3 3.086309 1_565
Dy3 Ge5 3.086309 1_565
Dy3 Ge2 3.086309 1_555
Dy3 Ge0 3.086309 1_555
Dy4 Ge6 2.815792 1_665
Dy4 Ni7 2.912018 1_555
Dy4 Ni4 2.912018 1_555
Dy4 Ni3 2.912024 1_655
Dy4 Ni1 2.912024 1_655
Dy4 Ni12 2.913836 1_555
Dy4 Ni14 2.913844 1_655
Dy4 Ni18 2.945090 1_556
Dy4 Ni21 2.945090 1_555
Dy4 Ni11 3.000508 1_556
Dy4 Ni6 3.000508 1_555
Dy4 Ge4 3.086309 1_655
Dy4 Ge1 3.086309 1_656
Dy4 Ge2 3.086309 1_555
Dy4 Ge0 3.086309 1_556
Dy5 Ge7 2.815792 1_555
Dy5 Ni9 2.912018 1_555
Dy5 Ni2 2.912018 1_555
Dy5 Ni5 2.912024 1_455
Dy5 Ni0 2.912024 1_455
Dy5 Ni13 2.913836 1_555
Dy5 Ni15 2.913844 1_455
Dy5 Ni20 2.945090 1_555
Dy5 Ni19 2.945090 1_554
Dy5 Ni8 3.000508 1_555
Dy5 Ni10 3.000508 1_554
Dy5 Ge4 3.086309 1_555
Dy5 Ge1 3.086309 1_555
Dy5 Ge2 3.086309 1_555
Dy5 Ge0 3.086309 1_555
Ni0 Ni15 2.562483 1_555
Ni0 Ni17 2.562483 1_555
Ni0 Ni21 2.636534 1_555
Ni0 Ni5 2.659328 1_555
Ni0 Ni8 2.800968 1_655
Ni0 Ni4 2.800968 1_545
Ni1 Ni16 2.562483 1_555
Ni1 Ni14 2.562483 1_555
Ni1 Ni20 2.636534 1_555
Ni1 Ni3 2.659328 1_555
Ni1 Ni2 2.800968 1_565
Ni1 Ni6 2.800968 1_455
Ni2 Ni21 2.636548 1_555
Ni2 Ni9 2.659328 1_555
Ni2 Ni8 2.800956 1_555
Ni3 Ni9 2.800968 1_566
Ni4 Ni7 2.659328 1_555
Ni4 Ni6 2.800956 1_555
Ni5 Ni7 2.800968 1_544
Ni10 Ni14 2.562483 1_555
Ni10 Ni12 2.562483 1_555
Ni10 Ni19 2.636548 1_555
Ni10 Ni8 2.659328 1_555
Ni10 Ni9 2.800956 1_556
Ni10 Ni5 2.800968 1_456
Ni11 Ni15 2.562483 1_555
Ni11 Ni13 2.562483 1_555
Ni11 Ni18 2.636548 1_555
Ni11 Ni6 2.659328 1_555
Ni11 Ni7 2.800956 1_554
Ni11 Ni3 2.800968 1_654
Ni12 Ni14 2.523190 1_555
Ni12 Ni16 2.523190 1_555
Ni12 Ni19 2.562215 1_555
Ni12 Ni20 2.562215 1_555
Ni12 Ni4 2.562483 1_555
Ni12 Ni8 2.562483 1_555
Ni12 Ni7 2.562483 1_555
Ni13 Ni17 2.523190 1_555
Ni13 Ni15 2.523190 1_555
Ni13 Ni21 2.562215 1_555
Ni13 Ni18 2.562215 1_555
Ni13 Ni9 2.562483 1_555
Ni13 Ni2 2.562483 1_555
Ni13 Ni6 2.562483 1_555
Ni14 Ni16 2.523190 1_555
Ni14 Ni19 2.562207 1_555
Ni14 Ni20 2.562207 1_555
Ni14 Ni8 2.562483 1_555
Ni14 Ni3 2.562483 1_555
Ni15 Ni17 2.523190 1_555
Ni15 Ni18 2.562207 1_555
Ni15 Ni21 2.562207 1_555
Ni15 Ni6 2.562483 1_555
Ni15 Ni5 2.562483 1_555
Ni16 Ni19 2.562207 1_555
Ni16 Ni20 2.562207 1_555
Ni16 Ni7 2.562483 1_555
Ni16 Ni4 2.562483 1_555
Ni16 Ni3 2.562483 1_555
Ni17 Ni18 2.562207 1_555
Ni17 Ni21 2.562207 1_555
Ni17 Ni9 2.562483 1_555
Ni17 Ni2 2.562483 1_555
Ni17 Ni5 2.562483 1_555
Ni18 Ni5 2.636534 1_555
Ni18 Ni9 2.636548 1_555
Ni19 Ni3 2.636534 1_555
Ni19 Ni7 2.636548 1_555
Ni20 Ni8 2.636548 1_555
Ni20 Ni4 2.636548 1_555
Ni21 Ni6 2.636548 1_555
Ge0 Ni13 2.340140 1_555
Ge0 Ni12 2.340140 1_554
Ge0 Ni19 2.401160 1_554
Ge0 Ni18 2.401160 1_555
Ge0 Ni11 2.592443 1_555
Ge0 Ni7 2.592443 1_554
Ge0 Ni9 2.592443 1_555
Ge0 Ni10 2.592443 1_554
Ge1 Ni14 2.340143 1_554
Ge1 Ni15 2.340143 1_455
Ge1 Ni19 2.401153 1_554
Ge1 Ni18 2.401153 1_455
Ge1 Ni5 2.592442 1_455
Ge1 Ni3 2.592442 1_554
Ge1 Ni10 2.592449 1_554
Ge1 Ni11 2.592449 1_455
Ge2 Ni13 2.340140 1_555
Ge2 Ni12 2.340140 1_555
Ge2 Ni20 2.401160 1_555
Ge2 Ni21 2.401160 1_555
Ge2 Ni8 2.592443 1_555
Ge2 Ni2 2.592443 1_555
Ge2 Ni6 2.592443 1_555
Ge2 Ni4 2.592443 1_555
Ge3 Ni16 2.340143 1_544
Ge3 Ni17 2.340143 1_555
Ge3 Ni19 2.401153 1_544
Ge3 Ni18 2.401153 1_555
Ge3 Ni3 2.592442 1_544
Ge3 Ni5 2.592442 1_555
Ge3 Ni9 2.592449 1_555
Ge3 Ni7 2.592449 1_544
Ge4 Ni14 2.340143 1_555
Ge4 Ni15 2.340143 1_455
Ge4 Ni20 2.401153 1_555
Ge4 Ni21 2.401153 1_455
Ge4 Ni0 2.592442 1_455
Ge4 Ni1 2.592442 1_555
Ge4 Ni8 2.592449 1_555
Ge4 Ni6 2.592449 1_455
Ge5 Ni16 2.340143 1_545
Ge5 Ni17 2.340143 1_555
Ge5 Ni20 2.401153 1_545
Ge5 Ni21 2.401153 1_555
Ge5 Ni1 2.592442 1_545
Ge5 Ni0 2.592442 1_555
Ge5 Ni2 2.592449 1_555
Ge5 Ni4 2.592449 1_545
Ge6 Ni10 2.641760 1_555
Ge6 Ni8 2.641760 1_555
Ge6 Ni4 2.641760 1_445
Ge6 Ni7 2.641760 1_445
Ge6 Ni3 2.641766 1_545
Ge6 Ni1 2.641766 1_545
Ge7 Ni11 2.641760 1_445
Ge7 Ni6 2.641760 1_445
Ge7 Ni9 2.641760 1_555
Ge7 Ni2 2.641760 1_555
Ge7 Ni5 2.641766 1_455
Ge7 Ni0 2.641766 1_455
