# generated using pymatgen
data_Li9Mn2Co5O16
_symmetry_space_group_name_H-M   'P 1'
_cell_length_a   5.17483200
_cell_length_b   5.88474548
_cell_length_c   10.38050561
_cell_angle_alpha   104.57093581
_cell_angle_beta   94.83806870
_cell_angle_gamma   108.64676500
_symmetry_Int_Tables_number   1
_chemical_formula_structural   Li9Mn2Co5O16
_chemical_formula_sum   'Li9 Mn2 Co5 O16'
_cell_volume   285.16793753
_cell_formula_units_Z   1
loop_
 _symmetry_equiv_pos_site_id
 _symmetry_equiv_pos_as_xyz
  1  'x, y, z'
loop_
 _atom_site_type_symbol
 _atom_site_label
 _atom_site_symmetry_multiplicity
 _atom_site_fract_x
 _atom_site_fract_y
 _atom_site_fract_z
 _atom_site_occupancy
  Li  Li0  1  0.37616700  0.81441200  0.12250200  1
  Li  Li1  1  0.11785100  0.94005400  0.37813900  1
  Li  Li2  1  0.86598700  0.05477800  0.63061000  1
  Li  Li3  1  0.62846200  0.18926300  0.86547600  1
  Li  Li4  1  0.37611200  0.31581000  0.12270100  1
  Li  Li5  1  0.11778100  0.43097200  0.38208200  1
  Li  Li6  1  0.88076800  0.57166700  0.62593500  1
  Li  Li7  1  0.64351000  0.68658600  0.86674700  1
  Li  Li8  1  0.24928200  0.87818800  0.74831500  1
  Mn  Mn0  1  0.00718100  0.99824500  0.99825000  1
  Mn  Mn1  1  0.74589200  0.62102600  0.25057200  1
  Co  Co0  1  0.74918900  0.12314600  0.25169300  1
  Co  Co1  1  0.48487200  0.23781000  0.51038900  1
  Co  Co2  1  0.25626200  0.37893600  0.74952100  1
  Co  Co3  1  0.00469800  0.50286500  0.99659500  1
  Co  Co4  1  0.49192500  0.75084500  0.50478100  1
  O  O0  1  0.69412100  0.67616800  0.06990700  1
  O  O1  1  0.47925900  0.78126700  0.31244900  1
  O  O2  1  0.19938400  0.91877400  0.55263200  1
  O  O3  1  0.94543700  0.04275300  0.82567500  1
  O  O4  1  0.73195600  0.15667100  0.06825000  1
  O  O5  1  0.45112300  0.30042400  0.30578200  1
  O  O6  1  0.20755400  0.42134200  0.56227600  1
  O  O7  1  0.95502800  0.52379800  0.82715400  1
  O  O8  1  0.05079700  0.95076100  0.18292000  1
  O  O9  1  0.78310200  0.08066800  0.43100100  1
  O  O10  1  0.55861000  0.23461000  0.68025200  1
  O  O11  1  0.30451200  0.32031200  0.94163900  1
  O  O12  1  0.01949600  0.46623400  0.18570000  1
  O  O13  1  0.80347700  0.58463700  0.42310600  1
  O  O14  1  0.55245600  0.71020300  0.67935400  1
  O  O15  1  0.26775200  0.83677500  0.94759200  1
loop_
_geom_bond_atom_site_label_1
_geom_bond_atom_site_label_2
_geom_bond_distance
_geom_bond_site_symmetry_2
Li0 O15 1.903756 1_554
Li0 O1 2.071967 1_555
Li0 O0 2.109766 1_555
Li0 O8 2.158924 1_555
Li1 O2 1.869119 1_555
Li1 O8 2.047090 1_555
Li1 O9 2.198882 1_465
Li1 Mn1 2.234160 1_455
Li1 O13 2.383796 1_455
Li1 O1 2.418243 1_555
Li1 O5 2.591714 1_565
Li2 O3 2.055342 1_555
Li2 O9 2.133368 1_555
Li2 O10 2.203597 1_555
Li2 O2 2.250539 1_645
Li2 O14 2.356070 1_545
Li3 O10 2.025175 1_555
Li3 O3 2.108086 1_555
Li3 O11 2.184849 1_555
Li3 O4 2.198378 1_556
Li3 O7 2.295582 1_555
Li4 O11 1.893258 1_554
Li4 O5 1.937857 1_555
Li4 Mn1 2.196309 1_555
Li4 Mn0 2.212219 1_544
Li4 O12 2.360885 1_555
Li4 O4 2.366296 1_555
Li4 O0 2.451686 1_555
Li5 O6 1.908248 1_555
Li5 O13 2.123220 1_455
Li5 O12 2.136082 1_555
Li5 O5 2.228188 1_555
Li5 O1 2.604406 1_555
Li6 O13 2.134742 1_555
Li6 O14 2.162346 1_555
Li6 O7 2.195406 1_555
Li6 O6 2.220338 1_655
Li6 O10 2.374484 1_555
Li6 O2 2.511951 1_655
Li7 O14 2.012105 1_555
Li7 O0 2.121787 1_556
Li7 O7 2.141614 1_555
Li7 Mn0 2.206493 1_655
Li7 O15 2.503492 1_555
Li8 O2 2.108298 1_555
Li8 O15 2.140751 1_555
Li8 O14 2.185445 1_555
Li8 O3 2.202359 1_465
Li8 O10 2.500047 1_565
Mn0 O3 1.890214 1_465
Mn0 O15 1.919676 1_555
Mn0 O8 2.010139 1_556
Mn0 O4 2.026930 1_466
Mn0 O11 2.270016 1_565
Mn0 O0 2.391497 1_456
Mn1 O13 1.867098 1_555
Mn1 O1 1.970360 1_555
Mn1 O12 1.991179 1_655
Mn1 O0 1.992791 1_555
Mn1 O5 2.250762 1_555
Mn1 O8 2.379630 1_655
Co0 O9 1.940312 1_555
Co0 O4 1.960766 1_555
Co0 O5 2.159412 1_555
Co0 O8 2.193349 1_645
Co0 Li5 2.207482 1_655
Co0 Li0 2.218158 1_545
Co0 O1 2.320885 1_545
Co0 O12 2.356652 1_655
Co1 O10 1.778445 1_555
Co1 O6 2.084428 1_555
Co1 O2 2.156273 1_545
Co1 O9 2.158636 1_555
Co1 Li1 2.187212 1_545
Co1 O5 2.247148 1_555
Co1 Li6 2.306874 1_555
Co1 O13 2.595274 1_555
Co2 O6 2.026180 1_555
Co2 O10 2.102045 1_555
Co2 O11 2.115604 1_555
Co2 O7 2.126526 1_455
Co2 Li7 2.221359 1_555
Co2 Li2 2.274311 1_455
Co2 O14 2.381625 1_555
Co2 O3 2.468296 1_455
Co3 O7 1.796641 1_455
Co3 O12 2.025792 1_556
Co3 O11 2.189378 1_555
Co3 Li0 2.209424 1_556
Co3 O15 2.209562 1_555
Co3 Li3 2.245099 1_455
Co3 O0 2.250822 1_456
Co3 O4 2.407607 1_456
Co4 O14 1.899858 1_555
Co4 O1 2.046373 1_555
Co4 O2 2.086039 1_555
Co4 Li2 2.199125 1_565
Co4 Li5 2.227406 1_555
Co4 O13 2.257534 1_555
Co4 O6 2.277580 1_555
Co4 O9 2.386758 1_565
O1 O9 1.975376 1_565
