# generated using pymatgen
data_ThUAl6
_symmetry_space_group_name_H-M   'P 1'
_cell_length_a   6.36745630
_cell_length_b   6.36745630
_cell_length_c   4.60167800
_cell_angle_alpha   90.00000000
_cell_angle_beta   90.00000000
_cell_angle_gamma   120.00000312
_symmetry_Int_Tables_number   1
_chemical_formula_structural   ThUAl6
_chemical_formula_sum   'Th1 U1 Al6'
_cell_volume   161.57672087
_cell_formula_units_Z   1
loop_
 _symmetry_equiv_pos_site_id
 _symmetry_equiv_pos_as_xyz
  1  'x, y, z'
loop_
 _atom_site_type_symbol
 _atom_site_label
 _atom_site_symmetry_multiplicity
 _atom_site_fract_x
 _atom_site_fract_y
 _atom_site_fract_z
 _atom_site_occupancy
  Th  Th0  1  0.66666700  0.33333300  0.00000000  1
  U  U0  1  0.00000000  0.00000000  0.50000000  1
  Al  Al0  1  0.18437900  0.81562100  0.00000000  1
  Al  Al1  1  0.18437900  0.36875900  0.00000000  1
  Al  Al2  1  0.63124100  0.81562100  0.00000000  1
  Al  Al3  1  0.47754300  0.52245700  0.50000000  1
  Al  Al4  1  0.47754300  0.95508500  0.50000000  1
  Al  Al5  1  0.04491500  0.52245700  0.50000000  1
loop_
_geom_bond_atom_site_label_1
_geom_bond_atom_site_label_2
_geom_bond_distance
_geom_bond_site_symmetry_2
Al0 Al5 2.812359 1_554
Al0 Al5 2.812359 1_555
Al0 Al4 2.812359 1_555
Al0 Al4 2.812359 1_554
Al0 Al1 2.845374 1_555
Al0 Al2 2.845374 1_555
Al0 U0 3.070646 1_565
Al0 U0 3.070646 1_564
Al0 Th0 3.189715 1_455
Al0 Th0 3.189715 1_565
Al1 Al5 2.812353 1_555
Al1 Al5 2.812353 1_554
Al1 Al3 2.812359 1_554
Al1 Al3 2.812359 1_555
Al1 Al2 2.845374 1_555
Al1 U0 3.070649 1_555
Al1 U0 3.070649 1_554
Al1 Th0 3.189710 1_455
Al1 Th0 3.189722 1_555
Al2 Al4 2.812353 1_555
Al2 Al4 2.812353 1_554
Al2 Al3 2.812359 1_554
Al2 Al3 2.812359 1_555
Al2 U0 3.070649 1_664
Al2 U0 3.070649 1_665
Al2 Th0 3.189710 1_565
Al2 Th0 3.189722 1_555
Al3 Al5 2.754740 1_555
Al3 Al4 2.754740 1_555
Al3 Th0 3.105549 1_555
Al3 Th0 3.105549 1_556
Al3 U0 3.193347 1_555
Al3 U0 3.193347 1_665
Al4 Al5 2.754740 1_555
Al4 Th0 3.105549 1_566
Al4 Th0 3.105549 1_565
Al4 U0 3.193345 1_665
Al4 U0 3.193351 1_565
Al5 Th0 3.105549 1_455
Al5 Th0 3.105549 1_456
Al5 U0 3.193345 1_555
Al5 U0 3.193351 1_565
