# generated using pymatgen
data_Li4Mn3NbO8
_symmetry_space_group_name_H-M   'P 1'
_cell_length_a   6.17919845
_cell_length_b   6.16507668
_cell_length_c   10.37227411
_cell_angle_alpha   105.89940550
_cell_angle_beta   75.01588386
_cell_angle_gamma   118.82903756
_symmetry_Int_Tables_number   1
_chemical_formula_structural   Li4Mn3NbO8
_chemical_formula_sum   'Li8 Mn6 Nb2 O16'
_cell_volume   329.14855314
_cell_formula_units_Z   2
loop_
 _symmetry_equiv_pos_site_id
 _symmetry_equiv_pos_as_xyz
  1  'x, y, z'
loop_
 _atom_site_type_symbol
 _atom_site_label
 _atom_site_symmetry_multiplicity
 _atom_site_fract_x
 _atom_site_fract_y
 _atom_site_fract_z
 _atom_site_occupancy
  Li  Li0  1  0.24895800  0.74325500  0.24848600  1
  Li  Li1  1  0.75026600  0.24465100  0.74823400  1
  Li  Li2  1  0.74916000  0.74799400  0.74981700  1
  Li  Li3  1  0.25583300  0.24968100  0.24815800  1
  Li  Li4  1  0.24680000  0.24128000  0.74818600  1
  Li  Li5  1  0.74703300  0.74071400  0.24842100  1
  Li  Li6  1  0.74771900  0.24647600  0.25034500  1
  Li  Li7  1  0.24814900  0.74738200  0.74977000  1
  Mn  Mn0  1  0.49890000  0.99663000  0.49863300  1
  Mn  Mn1  1  0.99997400  0.49865700  0.49915700  1
  Mn  Mn2  1  0.49977000  0.49789600  0.99823300  1
  Mn  Mn3  1  0.99926700  0.49734700  0.99917800  1
  Mn  Mn4  1  0.49970900  0.99870800  0.99938200  1
  Mn  Mn5  1  0.99962700  0.99791600  0.49816300  1
  Nb  Nb0  1  0.49909400  0.49778700  0.50049600  1
  Nb  Nb1  1  0.99904700  0.99800000  0.00049400  1
  O  O0  1  0.37873600  0.66114200  0.89220300  1
  O  O1  1  0.87782200  0.16085500  0.39248900  1
  O  O2  1  0.12011900  0.83641700  0.60679500  1
  O  O3  1  0.61958500  0.33650700  0.10735800  1
  O  O4  1  0.85303600  0.60151700  0.38598900  1
  O  O5  1  0.35315100  0.10143400  0.88624200  1
  O  O6  1  0.37986700  0.15344800  0.38161800  1
  O  O7  1  0.87949300  0.65333000  0.88183200  1
  O  O8  1  0.89820700  0.11910400  0.87289500  1
  O  O9  1  0.39800700  0.61864600  0.37270100  1
  O  O10  1  0.64474900  0.89413700  0.11299600  1
  O  O11  1  0.14474100  0.39396800  0.61296600  1
  O  O12  1  0.12011400  0.34354200  0.11740300  1
  O  O13  1  0.61970600  0.84332700  0.61742800  1
  O  O14  1  0.59937500  0.37596700  0.62659100  1
  O  O15  1  0.09979300  0.87606900  0.12648300  1
loop_
_geom_bond_atom_site_label_1
_geom_bond_atom_site_label_2
_geom_bond_distance
_geom_bond_site_symmetry_2
Li0 O9 2.221849 1_555
Li0 O15 2.240551 1_555
Li0 O12 2.320988 1_555
Li0 O10 2.359354 1_555
Li0 O4 2.366390 1_455
Li0 O6 2.376525 1_565
Li1 O8 2.224545 1_555
Li1 O14 2.238885 1_555
Li1 O13 2.327026 1_545
Li1 O11 2.352173 1_655
Li1 O7 2.371690 1_555
Li1 O5 2.374173 1_555
Li2 O7 2.079792 1_555
Li2 O13 2.081949 1_555
Li2 O8 2.165198 1_565
Li2 O14 2.170041 1_555
Li2 O0 2.282605 1_555
Li2 O2 2.287306 1_655
Li3 O6 2.071898 1_555
Li3 O12 2.088933 1_555
Li3 O9 2.159731 1_555
Li3 O15 2.173149 1_545
Li3 O3 2.245451 1_555
Li3 O1 2.324733 1_455
Li4 O8 2.099689 1_455
Li4 O14 2.105920 1_555
Li4 O5 2.221513 1_555
Li4 O11 2.237004 1_555
Li4 O2 2.386911 1_545
Li4 O0 2.464212 1_555
Li5 O9 2.099534 1_555
Li5 O15 2.108522 1_655
Li5 O4 2.213098 1_555
Li5 O10 2.242939 1_555
Li5 O3 2.382523 1_555
Li5 O1 2.465819 1_565
Li6 O1 2.132426 1_555
Li6 O10 2.143164 1_545
Li6 O4 2.146274 1_555
Li6 O3 2.148632 1_555
Li6 O6 2.218057 1_555
Li6 O12 2.244529 1_655
Li7 O0 2.139376 1_555
Li7 O2 2.144261 1_555
Li7 O11 2.145067 1_555
Li7 O5 2.146012 1_565
Li7 O7 2.224764 1_455
Li7 O13 2.238502 1_555
Mn0 O1 2.170489 1_565
Mn0 O2 2.175373 1_555
Mn0 O6 2.176951 1_565
Mn0 O13 2.182394 1_555
Mn0 O9 2.208494 1_555
Mn0 O14 2.222933 1_565
Mn1 O1 1.945348 1_555
Mn1 O2 1.948753 1_655
Mn1 O4 2.029426 1_555
Mn1 O11 2.032371 1_655
Mn1 O9 2.329307 1_655
Mn1 O14 2.344550 1_555
Mn2 O0 2.130584 1_555
Mn2 O3 2.140100 1_556
Mn2 O7 2.209539 1_555
Mn2 O12 2.220138 1_556
Mn2 O5 2.235475 1_555
Mn2 O10 2.243821 1_556
Mn3 O0 2.175785 1_655
Mn3 O7 2.178866 1_555
Mn3 O3 2.179766 1_556
Mn3 O12 2.180345 1_656
Mn3 O8 2.210995 1_555
Mn3 O15 2.217474 1_656
Mn4 O0 1.946159 1_555
Mn4 O3 1.950235 1_566
Mn4 O5 2.026878 1_565
Mn4 O10 2.031544 1_556
Mn4 O8 2.331511 1_565
Mn4 O15 2.340067 1_556
Mn5 O1 2.129782 1_565
Mn5 O2 2.139779 1_655
Mn5 O6 2.212439 1_665
Mn5 O13 2.221793 1_555
Mn5 O4 2.235797 1_555
Mn5 O11 2.243096 1_665
Nb0 O14 2.016104 1_555
Nb0 O13 2.021193 1_555
Nb0 O6 2.024111 1_555
Nb0 O9 2.029901 1_555
Nb0 O11 2.074041 1_555
Nb0 O4 2.080141 1_555
Nb1 O15 2.017552 1_655
Nb1 O12 2.021151 1_665
Nb1 O7 2.024654 1_554
Nb1 O8 2.028259 1_564
Nb1 O10 2.073894 1_555
Nb1 O5 2.079966 1_664
