# generated using pymatgen
data_KNd2Br5
_symmetry_space_group_name_H-M   'P 1'
_cell_length_a   7.58803000
_cell_length_b   9.18063600
_cell_length_c   14.23560395
_cell_angle_alpha   89.85763383
_cell_angle_beta   90.00000000
_cell_angle_gamma   90.00000000
_symmetry_Int_Tables_number   1
_chemical_formula_structural   KNd2Br5
_chemical_formula_sum   'K4 Nd8 Br20'
_cell_volume   991.69098189
_cell_formula_units_Z   4
loop_
 _symmetry_equiv_pos_site_id
 _symmetry_equiv_pos_as_xyz
  1  'x, y, z'
loop_
 _atom_site_type_symbol
 _atom_site_label
 _atom_site_symmetry_multiplicity
 _atom_site_fract_x
 _atom_site_fract_y
 _atom_site_fract_z
 _atom_site_occupancy
  K  K0  1  0.05456500  0.49596100  0.33246200  1
  K  K1  1  0.94543500  0.50403900  0.66753800  1
  K  K2  1  0.55456500  0.50403900  0.16753800  1
  K  K3  1  0.44543500  0.49596100  0.83246200  1
  Nd  Nd0  1  0.10424600  0.99108600  0.34370800  1
  Nd  Nd1  1  0.89575400  0.00891400  0.65629200  1
  Nd  Nd2  1  0.60424600  0.00891400  0.15629200  1
  Nd  Nd3  1  0.39575400  0.99108600  0.84370800  1
  Nd  Nd4  1  0.03272600  0.20358800  0.99890600  1
  Nd  Nd5  1  0.96727400  0.79641200  0.00109400  1
  Nd  Nd6  1  0.53272600  0.79641200  0.50109400  1
  Nd  Nd7  1  0.46727400  0.20358800  0.49890600  1
  Br  Br0  1  0.17306900  0.52619900  0.07898100  1
  Br  Br1  1  0.82693100  0.47380100  0.92101900  1
  Br  Br2  1  0.67306900  0.47380100  0.42101900  1
  Br  Br3  1  0.32693100  0.52619900  0.57898100  1
  Br  Br4  1  0.85141400  0.25265700  0.18397800  1
  Br  Br5  1  0.14858600  0.74734300  0.81602200  1
  Br  Br6  1  0.35141400  0.74734300  0.31602200  1
  Br  Br7  1  0.64858600  0.25265700  0.68397800  1
  Br  Br8  1  0.34010800  0.23952300  0.29413800  1
  Br  Br9  1  0.65989200  0.76047700  0.70586200  1
  Br  Br10  1  0.84010800  0.76047700  0.20586200  1
  Br  Br11  1  0.15989200  0.23952300  0.79413800  1
  Br  Br12  1  0.45269400  0.21146600  0.99895000  1
  Br  Br13  1  0.54730600  0.78853400  0.00105000  1
  Br  Br14  1  0.95269400  0.78853400  0.50105000  1
  Br  Br15  1  0.04730600  0.21146600  0.49895000  1
  Br  Br16  1  0.69288300  0.02422900  0.36636900  1
  Br  Br17  1  0.30711700  0.97577100  0.63363100  1
  Br  Br18  1  0.19288300  0.97577100  0.13363100  1
  Br  Br19  1  0.80711700  0.02422900  0.86636900  1
loop_
_geom_bond_atom_site_label_1
_geom_bond_atom_site_label_2
_geom_bond_distance
_geom_bond_site_symmetry_2
Br0 Nd5 3.131810 1_455
Br0 K2 3.163743 1_555
Br0 Nd4 3.349979 1_554
Br0 K0 3.728487 1_555
Br1 Nd4 3.131810 1_655
Br1 K3 3.163743 1_555
Br1 Nd5 3.349979 1_556
Br1 K1 3.728487 1_555
Br2 Nd7 3.131810 1_555
Br2 K0 3.163743 1_655
Br2 Nd6 3.349979 1_555
Br2 K2 3.728487 1_555
Br3 Nd6 3.131810 1_555
Br3 K1 3.163743 1_455
Br3 Nd7 3.349979 1_555
Br3 K3 3.728487 1_555
Br4 Nd2 2.946975 1_555
Br4 Nd4 3.007132 1_654
Br4 K2 3.232955 1_555
Br4 K0 3.443409 1_655
Br4 Nd0 3.819760 1_645
Br5 Nd3 2.946975 1_555
Br5 Nd5 3.007132 1_456
Br5 K3 3.232955 1_555
Br5 K1 3.443409 1_455
Br5 Nd1 3.819760 1_465
Br6 Nd0 2.946975 1_555
Br6 Nd6 3.007132 1_555
Br6 K0 3.232955 1_555
Br6 K2 3.443409 1_555
Br6 Nd2 3.819760 1_565
Br7 Nd1 2.946975 1_555
Br7 Nd7 3.007132 1_555
Br7 K1 3.232955 1_555
Br7 K3 3.443409 1_555
Br7 Nd3 3.819760 1_545
Br8 Nd0 2.982478 1_545
Br8 Nd7 3.087454 1_555
Br8 K0 3.246723 1_555
Br8 K2 3.430984 1_555
Br8 Nd2 3.517213 1_555
Br9 Nd1 2.982478 1_565
Br9 Nd6 3.087454 1_555
Br9 K1 3.246723 1_555
Br9 K3 3.430984 1_555
Br9 Nd3 3.517213 1_555
Br10 Nd2 2.982478 1_565
Br10 Nd5 3.087454 1_555
Br10 K2 3.246723 1_555
Br10 K0 3.430984 1_655
Br10 Nd0 3.517213 1_655
Br11 Nd3 2.982478 1_545
Br11 Nd4 3.087454 1_555
Br11 K3 3.246723 1_555
Br11 K1 3.430984 1_455
Br11 Nd1 3.517213 1_455
Br12 Nd3 3.030889 1_545
Br12 Nd2 3.126767 1_556
Br12 Nd4 3.187551 1_555
Br12 K3 3.522950 1_555
Br12 K2 3.688355 1_556
Br13 Nd2 3.030889 1_565
Br13 Nd3 3.126767 1_554
Br13 Nd5 3.187551 1_555
Br13 K2 3.522950 1_555
Br13 K3 3.688355 1_554
Br14 Nd1 3.030889 1_565
Br14 Nd0 3.126767 1_655
Br14 Nd6 3.187551 1_555
Br14 K1 3.522950 1_555
Br14 K0 3.688355 1_655
Br15 Nd0 3.030889 1_545
Br15 Nd1 3.126767 1_455
Br15 Nd7 3.187551 1_555
Br15 K0 3.522950 1_555
Br15 K1 3.688355 1_455
Br16 Nd7 3.036005 1_555
Br16 Nd2 3.068835 1_555
Br16 Nd6 3.083774 1_545
Br16 Nd0 3.152855 1_645
Br17 Nd6 3.036005 1_555
Br17 Nd3 3.068835 1_555
Br17 Nd7 3.083774 1_565
Br17 Nd1 3.152855 1_465
Br18 Nd5 3.036005 1_455
Br18 Nd0 3.068835 1_555
Br18 Nd4 3.083774 1_564
Br18 Nd2 3.152855 1_565
Br19 Nd4 3.036005 1_655
Br19 Nd1 3.068835 1_555
Br19 Nd5 3.083774 1_546
Br19 Nd3 3.152855 1_545
