# generated using pymatgen
data_LiAlSi3O8
_symmetry_space_group_name_H-M   'P 1'
_cell_length_a   7.13041577
_cell_length_b   7.33721652
_cell_length_c   7.60503286
_cell_angle_alpha   115.87394575
_cell_angle_beta   110.05537356
_cell_angle_gamma   97.30001396
_symmetry_Int_Tables_number   1
_chemical_formula_structural   LiAlSi3O8
_chemical_formula_sum   'Li2 Al2 Si6 O16'
_cell_volume   317.74927211
_cell_formula_units_Z   2
loop_
 _symmetry_equiv_pos_site_id
 _symmetry_equiv_pos_as_xyz
  1  'x, y, z'
loop_
 _atom_site_type_symbol
 _atom_site_label
 _atom_site_symmetry_multiplicity
 _atom_site_fract_x
 _atom_site_fract_y
 _atom_site_fract_z
 _atom_site_occupancy
  Li  Li0  1  0.84963900  0.72190300  0.75134400  1
  Li  Li1  1  0.15036100  0.27809700  0.24865600  1
  Al  Al0  1  0.79962500  0.14780100  0.83797200  1
  Al  Al1  1  0.20037500  0.85219900  0.16202800  1
  Si  Si0  1  0.62775700  0.21334700  0.45031400  1
  Si  Si1  1  0.37224300  0.78665300  0.54968600  1
  Si  Si2  1  0.75553000  0.81734800  0.17286000  1
  Si  Si3  1  0.24447000  0.18265200  0.82714000  1
  Si  Si4  1  0.70920500  0.42710800  0.22114200  1
  Si  Si5  1  0.29079500  0.57289200  0.77885800  1
  O  O0  1  0.72740300  0.43072100  0.44666700  1
  O  O1  1  0.27259700  0.56927900  0.55333300  1
  O  O2  1  0.62984600  0.87729700  0.68768800  1
  O  O3  1  0.37015400  0.12270300  0.31231200  1
  O  O4  1  0.05367300  0.12829300  0.88462500  1
  O  O5  1  0.94632700  0.87170700  0.11537500  1
  O  O6  1  0.72691800  0.03322100  0.33399800  1
  O  O7  1  0.27308200  0.96677900  0.66600200  1
  O  O8  1  0.83941400  0.28731400  0.11263700  1
  O  O9  1  0.16058600  0.71268600  0.88736300  1
  O  O10  1  0.79820100  0.67654500  0.29229600  1
  O  O11  1  0.20179900  0.32345500  0.70770400  1
  O  O12  1  0.54168600  0.67742000  0.94408300  1
  O  O13  1  0.45831400  0.32258000  0.05591700  1
  O  O14  1  0.71108500  0.28481200  0.70409300  1
  O  O15  1  0.28891500  0.71518800  0.29590700  1
loop_
_geom_bond_atom_site_label_1
_geom_bond_atom_site_label_2
_geom_bond_distance
_geom_bond_site_symmetry_2
Li0 O2 2.099040 1_555
Li0 O0 2.124634 1_555
Li0 O9 2.125241 1_655
Li0 O5 2.278237 1_556
Li1 O3 2.099040 1_555
Li1 O1 2.124634 1_555
Li1 O8 2.125241 1_455
Li1 O4 2.278237 1_554
Al0 O14 1.749156 1_555
Al0 O4 1.759885 1_655
Al0 O8 1.773444 1_556
Al0 O2 1.780907 1_545
Al1 O15 1.749156 1_555
Al1 O5 1.759885 1_455
Al1 O9 1.773444 1_554
Al1 O3 1.780907 1_565
O0 Si4 1.663129 1_555
O0 Si0 1.677353 1_555
O1 Si5 1.663129 1_555
O1 Si1 1.677353 1_555
O2 Si1 1.635809 1_555
O3 Si0 1.635809 1_555
O4 Si3 1.619650 1_555
O5 Si2 1.619650 1_555
O6 Si2 1.616057 1_545
O6 Si0 1.635603 1_555
O7 Si3 1.616057 1_565
O7 Si1 1.635603 1_555
O8 Si4 1.619799 1_555
O9 Si5 1.619799 1_555
O10 Si4 1.627887 1_555
O10 Si2 1.641417 1_555
O11 Si5 1.627887 1_555
O11 Si3 1.641417 1_555
O12 Si2 1.621660 1_556
O12 Si5 1.623563 1_555
O13 Si3 1.621660 1_554
O13 Si4 1.623563 1_555
O14 Si0 1.613672 1_555
O15 Si1 1.613672 1_555
