# generated using pymatgen
data_CaPr2BeO5
_symmetry_space_group_name_H-M   'P 1'
_cell_length_a   6.56595900
_cell_length_b   7.25188200
_cell_length_c   9.57902500
_cell_angle_alpha   90.00000000
_cell_angle_beta   90.00000000
_cell_angle_gamma   90.00000000
_symmetry_Int_Tables_number   1
_chemical_formula_structural   CaPr2BeO5
_chemical_formula_sum   'Ca4 Pr8 Be4 O20'
_cell_volume   456.11063853
_cell_formula_units_Z   4
loop_
 _symmetry_equiv_pos_site_id
 _symmetry_equiv_pos_as_xyz
  1  'x, y, z'
loop_
 _atom_site_type_symbol
 _atom_site_label
 _atom_site_symmetry_multiplicity
 _atom_site_fract_x
 _atom_site_fract_y
 _atom_site_fract_z
 _atom_site_occupancy
  Ca  Ca0  1  0.57812900  0.97912400  0.67591700  1
  Ca  Ca1  1  0.42187100  0.47912400  0.32408300  1
  Ca  Ca2  1  0.07812900  0.47912400  0.82408300  1
  Ca  Ca3  1  0.92187100  0.97912400  0.17591700  1
  Pr  Pr0  1  0.09781500  0.74575700  0.52390300  1
  Pr  Pr1  1  0.40218500  0.74575700  0.02390300  1
  Pr  Pr2  1  0.90218500  0.24575700  0.47609700  1
  Pr  Pr3  1  0.59781500  0.24575700  0.97609700  1
  Pr  Pr4  1  0.92634000  0.52729900  0.17163600  1
  Pr  Pr5  1  0.07366000  0.02729900  0.82836400  1
  Pr  Pr6  1  0.42634000  0.02729900  0.32836400  1
  Pr  Pr7  1  0.57366000  0.52729900  0.67163600  1
  Be  Be0  1  0.69257300  0.74842500  0.39571700  1
  Be  Be1  1  0.80742700  0.74842500  0.89571700  1
  Be  Be2  1  0.30742700  0.24842500  0.60428300  1
  Be  Be3  1  0.19257300  0.24842500  0.10428300  1
  O  O0  1  0.31106000  0.05785900  0.07115500  1
  O  O1  1  0.19342600  0.44138000  0.57384900  1
  O  O2  1  0.68894000  0.55785900  0.92884500  1
  O  O3  1  0.80657400  0.94138000  0.42615100  1
  O  O4  1  0.69342600  0.94138000  0.92615100  1
  O  O5  1  0.81106000  0.55785900  0.42884500  1
  O  O6  1  0.30657400  0.44138000  0.07384900  1
  O  O7  1  0.18894000  0.05785900  0.57115500  1
  O  O8  1  0.64029600  0.75046200  0.22341600  1
  O  O9  1  0.85970400  0.75046200  0.72341600  1
  O  O10  1  0.35970400  0.25046200  0.77658400  1
  O  O11  1  0.14029600  0.25046200  0.27658400  1
  O  O12  1  0.01865200  0.75035500  0.98778800  1
  O  O13  1  0.48134800  0.75035500  0.48778800  1
  O  O14  1  0.98134800  0.25035500  0.01221200  1
  O  O15  1  0.51865200  0.25035500  0.51221200  1
  O  O16  1  0.16594000  0.74933900  0.27336900  1
  O  O17  1  0.33406000  0.74933900  0.77336900  1
  O  O18  1  0.83406000  0.24933900  0.72663100  1
  O  O19  1  0.66594000  0.24933900  0.22663100  1
loop_
_geom_bond_atom_site_label_1
_geom_bond_atom_site_label_2
_geom_bond_distance
_geom_bond_site_symmetry_2
Ca0 O17 2.493265 1_555
Ca0 O9 2.524845 1_555
Ca0 O4 2.528561 1_555
Ca0 O13 2.530543 1_555
Ca0 O15 2.545661 1_565
Ca0 O10 2.618891 1_565
Ca0 O18 2.626737 1_565
Ca0 O7 2.804127 1_565
Ca0 O3 2.837063 1_555
Ca1 O19 2.493265 1_555
Ca1 O11 2.524845 1_555
Ca1 O6 2.528561 1_555
Ca1 O15 2.530543 1_555
Ca1 O13 2.545661 1_555
Ca1 O8 2.618891 1_555
Ca1 O16 2.626737 1_555
Ca1 O5 2.804127 1_555
Ca1 O1 2.837063 1_555
Ca2 O18 2.493265 1_455
Ca2 O10 2.524845 1_555
Ca2 O1 2.528561 1_555
Ca2 O14 2.530543 1_456
Ca2 O12 2.545661 1_555
Ca2 O9 2.618891 1_455
Ca2 O17 2.626737 1_555
Ca2 O2 2.804127 1_455
Ca2 O6 2.837063 1_556
Ca3 O16 2.493265 1_655
Ca3 O8 2.524845 1_555
Ca3 O3 2.528561 1_555
Ca3 O12 2.530543 1_654
Ca3 O14 2.545661 1_565
Ca3 O11 2.618891 1_665
Ca3 O19 2.626737 1_565
Ca3 O0 2.804127 1_665
Ca3 O4 2.837063 1_554
Be0 O3 1.613469 1_555
Be0 O5 1.617336 1_555
Be0 O13 1.643627 1_555
Be0 O8 1.685855 1_555
Be1 O4 1.613469 1_555
Be1 O2 1.617336 1_555
Be1 O12 1.643627 1_655
Be1 O9 1.685855 1_555
Be2 O1 1.613469 1_555
Be2 O7 1.617336 1_555
Be2 O15 1.643627 1_555
Be2 O10 1.685855 1_555
Be3 O6 1.613469 1_555
Be3 O0 1.617336 1_555
Be3 O14 1.643627 1_455
Be3 O11 1.685855 1_555
O0 Pr1 2.384431 1_545
O0 Pr3 2.496169 1_554
O0 Pr6 2.586970 1_555
O0 Pr5 2.808510 1_554
O1 Pr0 2.344185 1_555
O1 Pr2 2.558537 1_455
O1 Pr7 2.738367 1_555
O2 Pr3 2.384431 1_555
O2 Pr1 2.496169 1_556
O2 Pr7 2.586970 1_555
O2 Pr4 2.808510 1_556
O3 Pr2 2.344185 1_565
O3 Pr0 2.558537 1_655
O3 Pr6 2.738367 1_565
O4 Pr3 2.344185 1_565
O4 Pr1 2.558537 1_556
O4 Pr5 2.738367 1_665
O5 Pr2 2.384431 1_555
O5 Pr0 2.496169 1_655
O5 Pr4 2.586970 1_555
O5 Pr7 2.808510 1_555
O6 Pr1 2.344185 1_555
O6 Pr3 2.558537 1_554
O6 Pr4 2.738367 1_455
O7 Pr0 2.384431 1_545
O7 Pr2 2.496169 1_455
O7 Pr5 2.586970 1_555
O7 Pr6 2.808510 1_555
O8 Pr1 2.469398 1_555
O8 Pr4 2.528347 1_555
O8 Pr6 2.648505 1_565
O9 Pr0 2.469398 1_655
O9 Pr7 2.528347 1_555
O9 Pr5 2.648505 1_665
O10 Pr3 2.469398 1_555
O10 Pr5 2.528347 1_555
O10 Pr7 2.648505 1_555
O11 Pr2 2.469398 1_455
O11 Pr6 2.528347 1_555
O11 Pr4 2.648505 1_455
O12 Pr4 2.466850 1_456
O12 Pr1 2.542132 1_556
O12 Pr5 2.548744 1_565
O13 Pr7 2.466850 1_555
O13 Pr0 2.542132 1_555
O13 Pr6 2.548744 1_565
O14 Pr5 2.466850 1_654
O14 Pr3 2.542132 1_554
O14 Pr4 2.548744 1_555
O15 Pr6 2.466850 1_555
O15 Pr2 2.542132 1_555
O15 Pr7 2.548744 1_555
O16 Pr0 2.441340 1_555
O16 Pr4 2.453038 1_455
O16 Pr6 2.695186 1_565
O16 Pr1 2.849071 1_555
O17 Pr1 2.441340 1_556
O17 Pr7 2.453038 1_555
O17 Pr5 2.695186 1_565
O17 Pr0 2.849071 1_555
O18 Pr2 2.441340 1_555
O18 Pr5 2.453038 1_655
O18 Pr7 2.695186 1_555
O18 Pr3 2.849071 1_555
O19 Pr3 2.441340 1_554
O19 Pr6 2.453038 1_555
O19 Pr4 2.695186 1_555
O19 Pr2 2.849071 1_555
