# generated using pymatgen
data_MgTi3
_symmetry_space_group_name_H-M   'P 1'
_cell_length_a   11.34106596
_cell_length_b   11.34106596
_cell_length_c   11.34106596
_cell_angle_alpha   150.61470347
_cell_angle_beta   125.33730321
_cell_angle_gamma   63.27372620
_symmetry_Int_Tables_number   1
_chemical_formula_structural   MgTi3
_chemical_formula_sum   'Mg8 Ti24'
_cell_volume   578.49312241
_cell_formula_units_Z   8
loop_
 _symmetry_equiv_pos_site_id
 _symmetry_equiv_pos_as_xyz
  1  'x, y, z'
loop_
 _atom_site_type_symbol
 _atom_site_label
 _atom_site_symmetry_multiplicity
 _atom_site_fract_x
 _atom_site_fract_y
 _atom_site_fract_z
 _atom_site_occupancy
  Mg  Mg0_0  1  0.16427950  0.00000000  0.16427950  1
  Mg  Mg0_1  1  0.16427950  0.00000000  0.66427950  1
  Mg  Mg0_2  1  0.16427950  0.50000000  0.16427950  1
  Mg  Mg0_3  1  0.16427950  0.50000000  0.66427950  1
  Mg  Mg0_4  1  0.66427950  0.00000000  0.16427950  1
  Mg  Mg0_5  1  0.66427950  0.00000000  0.66427950  1
  Mg  Mg0_6  1  0.66427950  0.50000000  0.16427950  1
  Mg  Mg0_7  1  0.66427950  0.50000000  0.66427950  1
  Ti  Ti0_0  1  0.42040050  0.25000000  0.17040050  1
  Ti  Ti0_1  1  0.42040050  0.25000000  0.67040050  1
  Ti  Ti0_2  1  0.42040050  0.75000000  0.17040050  1
  Ti  Ti0_3  1  0.42040050  0.75000000  0.67040050  1
  Ti  Ti0_4  1  0.92040050  0.25000000  0.17040050  1
  Ti  Ti0_5  1  0.92040050  0.25000000  0.67040050  1
  Ti  Ti0_6  1  0.92040050  0.75000000  0.17040050  1
  Ti  Ti0_7  1  0.92040050  0.75000000  0.67040050  1
  Ti  Ti1_0  1  0.12373950  0.12441300  0.49932650  1
  Ti  Ti1_1  1  0.12373950  0.12441300  0.99932650  1
  Ti  Ti1_2  1  0.12373950  0.62441300  0.49932650  1
  Ti  Ti1_3  1  0.12373950  0.62441300  0.99932650  1
  Ti  Ti1_4  1  0.62373950  0.12441300  0.49932650  1
  Ti  Ti1_5  1  0.62373950  0.12441300  0.99932650  1
  Ti  Ti1_6  1  0.62373950  0.62441300  0.49932650  1
  Ti  Ti1_7  1  0.62373950  0.62441300  0.99932650  1
  Ti  Ti2_0  1  0.37491350  0.37558700  0.49932650  1
  Ti  Ti2_1  1  0.37491350  0.37558700  0.99932650  1
  Ti  Ti2_2  1  0.37491350  0.87558700  0.49932650  1
  Ti  Ti2_3  1  0.37491350  0.87558700  0.99932650  1
  Ti  Ti2_4  1  0.87491350  0.37558700  0.49932650  1
  Ti  Ti2_5  1  0.87491350  0.37558700  0.99932650  1
  Ti  Ti2_6  1  0.87491350  0.87558700  0.49932650  1
  Ti  Ti2_7  1  0.87491350  0.87558700  0.99932650  1
loop_
_geom_bond_atom_site_label_1
_geom_bond_atom_site_label_2
_geom_bond_distance
_geom_bond_site_symmetry_2
Mg0_0 Mg0_3 2.876478 1_555
Mg0_0 Mg0_3 2.876478 1_544
Mg0_0 Ti0_4 2.918751 1_455
Mg0_0 Ti0_7 2.918751 1_444
Mg0_0 Ti1_1 2.953540 1_554
Mg0_0 Ti2_7 2.953540 1_444
Mg0_0 Ti2_0 2.955475 1_555
Mg0_0 Ti1_3 2.955475 1_544
Mg0_0 Ti1_0 2.955475 1_555
Mg0_0 Ti2_3 2.955475 1_544
Mg0_0 Ti0_1 3.030340 1_555
Mg0_0 Ti0_2 3.030340 1_545
Mg0_1 Mg0_2 2.876478 1_556
Mg0_1 Mg0_2 2.876478 1_545
Mg0_1 Ti0_6 2.918751 1_445
Mg0_1 Ti0_5 2.918751 1_455
Mg0_1 Ti2_6 2.953540 1_445
Mg0_1 Ti1_0 2.953540 1_555
Mg0_1 Ti2_1 2.955475 1_555
Mg0_1 Ti1_2 2.955475 1_545
Mg0_1 Ti1_1 2.955475 1_555
Mg0_1 Ti2_2 2.955475 1_545
Mg0_1 Ti0_0 3.030340 1_556
Mg0_1 Ti0_3 3.030340 1_545
Mg0_2 Ti0_6 2.918751 1_455
Mg0_2 Ti0_5 2.918751 1_454
Mg0_2 Ti1_3 2.953540 1_554
Mg0_2 Ti2_5 2.953540 1_454
Mg0_2 Ti2_1 2.955475 1_554
Mg0_2 Ti2_2 2.955475 1_555
Mg0_2 Ti1_2 2.955475 1_555
Mg0_2 Ti1_1 2.955475 1_554
Mg0_2 Ti0_0 3.030340 1_555
Mg0_2 Ti0_3 3.030340 1_555
Mg0_3 Ti0_4 2.918751 1_455
Mg0_3 Ti0_7 2.918751 1_455
Mg0_3 Ti1_2 2.953540 1_555
Mg0_3 Ti2_4 2.953540 1_455
Mg0_3 Ti2_0 2.955475 1_555
Mg0_3 Ti2_3 2.955475 1_555
Mg0_3 Ti1_3 2.955475 1_555
Mg0_3 Ti1_0 2.955475 1_555
Mg0_3 Ti0_1 3.030340 1_555
Mg0_3 Ti0_2 3.030340 1_556
Mg0_4 Mg0_7 2.876478 1_544
Mg0_4 Mg0_7 2.876478 1_555
Mg0_4 Ti0_0 2.918751 1_555
Mg0_4 Ti0_3 2.918751 1_544
Mg0_4 Ti2_3 2.953540 1_544
Mg0_4 Ti1_5 2.953540 1_554
Mg0_4 Ti2_7 2.955475 1_544
Mg0_4 Ti2_4 2.955475 1_555
Mg0_4 Ti1_7 2.955475 1_544
Mg0_4 Ti1_4 2.955475 1_555
Mg0_4 Ti0_5 3.030340 1_555
Mg0_4 Ti0_6 3.030340 1_545
Mg0_5 Mg0_6 2.876478 1_556
Mg0_5 Mg0_6 2.876478 1_545
Mg0_5 Ti0_2 2.918751 1_545
Mg0_5 Ti0_1 2.918751 1_555
Mg0_5 Ti2_2 2.953540 1_545
Mg0_5 Ti1_4 2.953540 1_555
Mg0_5 Ti1_6 2.955475 1_545
Mg0_5 Ti2_5 2.955475 1_555
Mg0_5 Ti1_5 2.955475 1_555
Mg0_5 Ti2_6 2.955475 1_545
Mg0_5 Ti0_7 3.030340 1_545
Mg0_5 Ti0_4 3.030340 1_556
Mg0_6 Ti0_2 2.918751 1_555
Mg0_6 Ti0_1 2.918751 1_554
Mg0_6 Ti1_7 2.953540 1_554
Mg0_6 Ti2_1 2.953540 1_554
Mg0_6 Ti2_5 2.955475 1_554
Mg0_6 Ti1_5 2.955475 1_554
Mg0_6 Ti1_6 2.955475 1_555
Mg0_6 Ti2_6 2.955475 1_555
Mg0_6 Ti0_7 3.030340 1_555
Mg0_6 Ti0_4 3.030340 1_555
Mg0_7 Ti0_0 2.918751 1_555
Mg0_7 Ti0_3 2.918751 1_555
Mg0_7 Ti2_0 2.953540 1_555
Mg0_7 Ti1_6 2.953540 1_555
Mg0_7 Ti2_7 2.955475 1_555
Mg0_7 Ti2_4 2.955475 1_555
Mg0_7 Ti1_7 2.955475 1_555
Mg0_7 Ti1_4 2.955475 1_555
Mg0_7 Ti0_5 3.030340 1_555
Mg0_7 Ti0_6 3.030340 1_556
Ti0_0 Ti0_3 2.876478 1_544
Ti0_0 Ti0_3 2.876478 1_555
Ti0_0 Ti1_5 2.918309 1_554
Ti0_0 Ti2_3 2.918309 1_544
Ti0_0 Ti1_6 2.918309 1_555
Ti0_0 Ti2_0 2.918309 1_555
Ti0_0 Ti2_1 3.009307 1_554
Ti0_0 Ti1_1 3.009307 1_554
Ti0_1 Ti0_2 2.876478 1_556
Ti0_1 Ti0_2 2.876478 1_545
Ti0_1 Ti2_2 2.918309 1_545
Ti0_1 Ti1_4 2.918309 1_555
Ti0_1 Ti1_7 2.918309 1_555
Ti0_1 Ti2_1 2.918309 1_555
Ti0_1 Ti2_0 3.009307 1_555
Ti0_1 Ti1_0 3.009307 1_555
Ti0_2 Ti2_2 2.918309 1_555
Ti0_2 Ti1_7 2.918309 1_554
Ti0_2 Ti1_4 2.918309 1_565
Ti0_2 Ti2_1 2.918309 1_554
Ti0_2 Ti1_3 3.009307 1_554
Ti0_2 Ti2_3 3.009307 1_554
Ti0_3 Ti2_3 2.918309 1_555
Ti0_3 Ti2_0 2.918309 1_555
Ti0_3 Ti1_6 2.918309 1_555
Ti0_3 Ti1_5 2.918309 1_565
Ti0_3 Ti1_2 3.009307 1_555
Ti0_3 Ti2_2 3.009307 1_555
Ti0_4 Ti0_7 2.876478 1_544
Ti0_4 Ti0_7 2.876478 1_555
Ti0_4 Ti1_1 2.918309 1_654
Ti0_4 Ti1_2 2.918309 1_655
Ti0_4 Ti2_4 2.918309 1_555
Ti0_4 Ti2_7 2.918309 1_544
Ti0_4 Ti2_5 3.009307 1_554
Ti0_4 Ti1_5 3.009307 1_554
Ti0_5 Ti0_6 2.876478 1_556
Ti0_5 Ti0_6 2.876478 1_545
Ti0_5 Ti1_0 2.918309 1_655
Ti0_5 Ti2_5 2.918309 1_555
Ti0_5 Ti1_3 2.918309 1_655
Ti0_5 Ti2_6 2.918309 1_545
Ti0_5 Ti1_4 3.009307 1_555
Ti0_5 Ti2_4 3.009307 1_555
Ti0_6 Ti1_3 2.918309 1_654
Ti0_6 Ti2_6 2.918309 1_555
Ti0_6 Ti1_0 2.918309 1_665
Ti0_6 Ti2_5 2.918309 1_554
Ti0_6 Ti2_7 3.009307 1_554
Ti0_6 Ti1_7 3.009307 1_554
Ti0_7 Ti1_1 2.918309 1_665
Ti0_7 Ti1_2 2.918309 1_655
Ti0_7 Ti2_4 2.918309 1_555
Ti0_7 Ti2_7 2.918309 1_555
Ti0_7 Ti1_6 3.009307 1_555
Ti0_7 Ti2_6 3.009307 1_555
Ti1_0 Ti1_3 2.876478 1_544
Ti1_0 Ti1_3 2.876478 1_555
Ti1_0 Ti2_4 2.974473 1_455
Ti1_0 Ti2_2 2.974473 1_545
Ti1_0 Ti2_7 2.974473 1_444
Ti1_0 Ti2_1 2.974473 1_555
Ti1_1 Ti1_2 2.876478 1_556
Ti1_1 Ti1_2 2.876478 1_545
Ti1_1 Ti2_6 2.974473 1_445
Ti1_1 Ti2_0 2.974473 1_556
Ti1_1 Ti2_3 2.974473 1_545
Ti1_1 Ti2_5 2.974473 1_455
Ti1_2 Ti2_3 2.974473 1_555
Ti1_2 Ti2_6 2.974473 1_455
Ti1_2 Ti2_0 2.974473 1_555
Ti1_2 Ti2_5 2.974473 1_454
Ti1_3 Ti2_4 2.974473 1_455
Ti1_3 Ti2_7 2.974473 1_455
Ti1_3 Ti2_1 2.974473 1_555
Ti1_3 Ti2_2 2.974473 1_556
Ti1_4 Ti1_7 2.876478 1_544
Ti1_4 Ti1_7 2.876478 1_555
Ti1_4 Ti2_5 2.974473 1_555
Ti1_4 Ti2_6 2.974473 1_545
Ti1_4 Ti2_3 2.974473 1_544
Ti1_4 Ti2_0 2.974473 1_555
Ti1_5 Ti1_6 2.876478 1_556
Ti1_5 Ti1_6 2.876478 1_545
Ti1_5 Ti2_2 2.974473 1_545
Ti1_5 Ti2_1 2.974473 1_555
Ti1_5 Ti2_4 2.974473 1_556
Ti1_5 Ti2_7 2.974473 1_545
Ti1_6 Ti2_1 2.974473 1_554
Ti1_6 Ti2_2 2.974473 1_555
Ti1_6 Ti2_7 2.974473 1_555
Ti1_6 Ti2_4 2.974473 1_555
Ti1_7 Ti2_5 2.974473 1_555
Ti1_7 Ti2_6 2.974473 1_556
Ti1_7 Ti2_0 2.974473 1_555
Ti1_7 Ti2_3 2.974473 1_555
Ti2_0 Ti2_3 2.876478 1_555
Ti2_0 Ti2_3 2.876478 1_544
Ti2_1 Ti2_2 2.876478 1_556
Ti2_1 Ti2_2 2.876478 1_545
Ti2_4 Ti2_7 2.876478 1_555
Ti2_4 Ti2_7 2.876478 1_544
Ti2_5 Ti2_6 2.876478 1_556
Ti2_5 Ti2_6 2.876478 1_545
