# generated using pymatgen
data_Ba2Pr2Co4O11
_symmetry_space_group_name_H-M   'P 1'
_cell_length_a   3.97891600
_cell_length_b   7.75471500
_cell_length_c   7.95983600
_cell_angle_alpha   90.00000000
_cell_angle_beta   90.00000000
_cell_angle_gamma   90.00000000
_symmetry_Int_Tables_number   1
_chemical_formula_structural   Ba2Pr2Co4O11
_chemical_formula_sum   'Ba2 Pr2 Co4 O11'
_cell_volume   245.60360205
_cell_formula_units_Z   1
loop_
 _symmetry_equiv_pos_site_id
 _symmetry_equiv_pos_as_xyz
  1  'x, y, z'
loop_
 _atom_site_type_symbol
 _atom_site_label
 _atom_site_symmetry_multiplicity
 _atom_site_fract_x
 _atom_site_fract_y
 _atom_site_fract_z
 _atom_site_occupancy
  Ba  Ba0  1  0.50000000  0.00000000  0.24926200  1
  Ba  Ba1  1  0.50000000  0.00000000  0.75073800  1
  Pr  Pr0  1  0.50000000  0.50000000  0.26878500  1
  Pr  Pr1  1  0.50000000  0.50000000  0.73121500  1
  Co  Co0  1  0.00000000  0.74654900  0.00000000  1
  Co  Co1  1  0.00000000  0.25345100  0.00000000  1
  Co  Co2  1  0.00000000  0.74885900  0.50000000  1
  Co  Co3  1  0.00000000  0.25114100  0.50000000  1
  O  O0  1  0.50000000  0.69432800  0.00000000  1
  O  O1  1  0.50000000  0.30567200  0.00000000  1
  O  O2  1  0.00000000  0.70842300  0.22790000  1
  O  O3  1  0.00000000  0.70842300  0.77210000  1
  O  O4  1  0.00000000  0.29157700  0.77210000  1
  O  O5  1  0.00000000  0.29157700  0.22790000  1
  O  O6  1  0.00000000  0.00000000  0.00000000  1
  O  O7  1  0.50000000  0.73059200  0.50000000  1
  O  O8  1  0.50000000  0.26940800  0.50000000  1
  O  O9  1  0.00000000  0.00000000  0.50000000  1
  O  O10  1  0.00000000  0.50000000  0.50000000  1
loop_
_geom_bond_atom_site_label_1
_geom_bond_atom_site_label_2
_geom_bond_distance
_geom_bond_site_symmetry_2
Ba0 O6 2.809722 1_555
Ba0 O6 2.809722 1_655
Ba0 O9 2.818030 1_555
Ba0 O9 2.818030 1_655
Ba0 O8 2.889296 1_555
Ba0 O7 2.889296 1_545
Ba0 O5 3.016523 1_655
Ba0 O2 3.016523 1_545
Ba0 O2 3.016523 1_645
Ba0 O5 3.016523 1_555
Ba0 O1 3.091178 1_555
Ba0 O0 3.091178 1_545
Ba1 O6 2.809722 1_556
Ba1 O6 2.809722 1_656
Ba1 O9 2.818030 1_555
Ba1 O9 2.818030 1_655
Ba1 O8 2.889296 1_555
Ba1 O7 2.889296 1_545
Ba1 O3 3.016523 1_645
Ba1 O4 3.016523 1_555
Ba1 O4 3.016523 1_655
Ba1 O3 3.016523 1_545
Ba1 O1 3.091178 1_556
Ba1 O0 3.091178 1_546
Co0 O3 1.837982 1_554
Co0 O2 1.837982 1_555
Co0 O6 1.965440 1_565
Co0 O0 2.030255 1_555
Co0 O0 2.030255 1_455
Co1 O4 1.837982 1_554
Co1 O5 1.837982 1_555
Co1 O6 1.965440 1_555
Co1 O1 2.030255 1_455
Co1 O1 2.030255 1_555
Co2 O10 1.929831 1_555
Co2 O9 1.947527 1_565
Co2 O7 1.994495 1_455
Co2 O7 1.994495 1_555
Co2 O2 2.188453 1_555
Co2 O3 2.188453 1_555
Co3 O10 1.929831 1_555
Co3 O9 1.947527 1_555
Co3 O8 1.994495 1_555
Co3 O8 1.994495 1_455
Co3 O5 2.188453 1_555
Co3 O4 2.188453 1_555
O0 Pr0 2.616929 1_555
O0 Pr1 2.616929 1_554
O1 Pr0 2.616929 1_555
O1 Pr1 2.616929 1_554
O2 Pr0 2.583825 1_555
O2 Pr0 2.583825 1_455
O3 Pr1 2.583825 1_455
O3 Pr1 2.583825 1_555
O4 Pr1 2.583825 1_455
O4 Pr1 2.583825 1_555
O5 Pr0 2.583825 1_555
O5 Pr0 2.583825 1_455
O7 Pr1 2.566080 1_555
O7 Pr0 2.566080 1_555
O8 Pr1 2.566080 1_555
O8 Pr0 2.566080 1_555
O10 Pr1 2.710192 1_455
O10 Pr1 2.710192 1_555
O10 Pr0 2.710192 1_455
O10 Pr0 2.710192 1_555
