# generated using pymatgen
data_Zn3TeP2Pb3O14
_symmetry_space_group_name_H-M   'P 1'
_cell_length_a   5.17787620
_cell_length_b   8.38761711
_cell_length_c   8.38756738
_cell_angle_alpha   119.99856224
_cell_angle_beta   89.99935282
_cell_angle_gamma   90.00008395
_symmetry_Int_Tables_number   1
_chemical_formula_structural   Zn3TeP2Pb3O14
_chemical_formula_sum   'Zn3 Te1 P2 Pb3 O14'
_cell_volume   315.47373298
_cell_formula_units_Z   1
loop_
 _symmetry_equiv_pos_site_id
 _symmetry_equiv_pos_as_xyz
  1  'x, y, z'
loop_
 _atom_site_type_symbol
 _atom_site_label
 _atom_site_symmetry_multiplicity
 _atom_site_fract_x
 _atom_site_fract_y
 _atom_site_fract_z
 _atom_site_occupancy
  Zn  Zn0  1  0.50000756  0.74933420  0.74933177  1
  Zn  Zn1  1  0.49999487  0.25067845  0.00002300  1
  Zn  Zn2  1  0.49999756  0.00002565  0.25067924  1
  Te  Te0  1  -0.00000012  -0.00000406  -0.00000211  1
  P  P0  1  0.54809824  0.33333449  0.66667055  1
  P  P1  1  0.45190211  0.66666541  0.33333192  1
  Pb  Pb0  1  0.00000269  0.99999765  0.59367609  1
  Pb  Pb1  1  -0.00000388  0.40632991  0.40631526  1
  Pb  Pb2  1  0.00000200  0.59366598  0.99998337  1
  O  O0  1  0.78789546  0.90770083  0.78318993  1
  O  O1  1  0.78789064  0.21680340  0.12450615  1
  O  O2  1  0.78788379  0.87548980  0.09229793  1
  O  O3  1  0.21211511  0.09229729  0.87548958  1
  O  O4  1  0.21210474  0.12450886  0.21680358  1
  O  O5  1  0.21210977  0.78318974  0.90769749  1
  O  O6  1  0.25481016  0.33334047  0.66667456  1
  O  O7  1  0.74519024  0.66664616  0.33332985  1
  O  O8  1  0.66278823  0.27426860  0.79983741  1
  O  O9  1  0.66278691  0.20017038  0.47444018  1
  O  O10  1  0.66279403  0.52556145  0.72572476  1
  O  O11  1  0.33720915  0.72572316  0.52556209  1
  O  O12  1  0.33719523  0.47444001  0.20016838  1
  O  O13  1  0.33722751  0.79983316  0.27426501  1
loop_
_geom_bond_atom_site_label_1
_geom_bond_atom_site_label_2
_geom_bond_distance
_geom_bond_site_symmetry_2
O0 Zn0 1.920912 1_555
O0 Te0 1.924759 1_666
O0 Pb0 2.358529 1_655
O1 Zn1 1.920869 1_555
O1 Te0 1.924764 1_655
O1 Pb1 2.358599 1_655
O2 Zn2 1.920999 1_565
O2 Te0 1.924742 1_665
O2 Pb2 2.358666 1_654
O3 Zn1 1.920989 1_556
O3 Te0 1.924757 1_556
O3 Pb0 2.358603 1_545
O4 Zn2 1.920857 1_555
O4 Te0 1.924753 1_555
O4 Pb1 2.358642 1_555
O5 Zn0 1.920934 1_555
O5 Te0 1.924754 1_566
O5 Pb2 2.358548 1_555
O6 P0 1.518609 1_555
O7 P1 1.518610 1_555
O8 P0 1.548877 1_555
O8 Zn1 1.975128 1_556
O8 Pb0 2.711672 1_645
O9 P0 1.548878 1_555
O9 Zn2 1.974983 1_555
O9 Pb1 2.711676 1_655
O10 P0 1.548887 1_555
O10 Zn0 1.975063 1_555
O10 Pb2 2.711580 1_655
O11 P1 1.548883 1_555
O11 Zn0 1.975051 1_555
O11 Pb0 2.711649 1_555
O12 P1 1.548900 1_555
O12 Zn1 1.974998 1_555
O12 Pb1 2.711485 1_555
O13 P1 1.548861 1_555
O13 Zn2 1.975124 1_565
O13 Pb2 2.711787 1_554
