# generated using pymatgen
data_EuCd3S4
_symmetry_space_group_name_H-M   'P 1'
_cell_length_a   4.31537086
_cell_length_b   4.31537086
_cell_length_c   14.25845606
_cell_angle_alpha   81.29618007
_cell_angle_beta   98.70381993
_cell_angle_gamma   120.00000000
_symmetry_Int_Tables_number   1
_chemical_formula_structural   EuCd3S4
_chemical_formula_sum   'Eu1 Cd3 S4'
_cell_volume   226.41536211
_cell_formula_units_Z   1
loop_
 _symmetry_equiv_pos_site_id
 _symmetry_equiv_pos_as_xyz
  1  'x, y, z'
loop_
 _atom_site_type_symbol
 _atom_site_label
 _atom_site_symmetry_multiplicity
 _atom_site_fract_x
 _atom_site_fract_y
 _atom_site_fract_z
 _atom_site_occupancy
  Eu  Eu0  1  0.25105300  0.74894700  0.75315800  1
  Cd  Cd0  1  0.00349100  0.99650900  0.01047300  1
  Cd  Cd1  1  0.74964100  0.25035900  0.24892200  1
  Cd  Cd2  1  0.49587200  0.50412800  0.48761700  1
  S  S0  1  0.06423100  0.93576900  0.19269300  1
  S  S1  1  0.81086800  0.18913200  0.43260300  1
  S  S2  1  0.55734500  0.44265500  0.67203500  1
  S  S3  1  0.31750000  0.68250000  0.95250000  1
loop_
_geom_bond_atom_site_label_1
_geom_bond_atom_site_label_2
_geom_bond_distance
_geom_bond_site_symmetry_2
Eu0 S2 2.739442 1_555
Eu0 S2 2.739445 1_455
Eu0 S2 2.739445 1_565
Eu0 S3 2.798581 1_555
Cd0 S0 2.558203 1_555
Cd0 S3 2.621047 1_454
Cd0 S3 2.621047 1_564
Cd0 S3 2.621047 1_554
Cd1 S1 2.578714 1_555
Cd1 S0 2.613546 1_645
Cd1 S0 2.613549 1_545
Cd1 S0 2.613549 1_655
Cd2 S2 2.589061 1_555
Cd2 S1 2.608444 1_565
Cd2 S1 2.608444 1_455
Cd2 S1 2.608452 1_555
