# generated using pymatgen
data_Fe4OF6
_symmetry_space_group_name_H-M   'P 1'
_cell_length_a   5.16004006
_cell_length_b   7.18946648
_cell_length_c   7.14826210
_cell_angle_alpha   91.46828497
_cell_angle_beta   90.23628725
_cell_angle_gamma   90.36731971
_symmetry_Int_Tables_number   1
_chemical_formula_structural   Fe4OF6
_chemical_formula_sum   'Fe8 O2 F12'
_cell_volume   265.09080558
_cell_formula_units_Z   2
loop_
 _symmetry_equiv_pos_site_id
 _symmetry_equiv_pos_as_xyz
  1  'x, y, z'
loop_
 _atom_site_type_symbol
 _atom_site_label
 _atom_site_symmetry_multiplicity
 _atom_site_fract_x
 _atom_site_fract_y
 _atom_site_fract_z
 _atom_site_occupancy
  Fe  Fe0  1  0.44211200  0.50905900  0.74398900  1
  Fe  Fe1  1  0.94171800  0.74143400  0.50669800  1
  Fe  Fe2  1  0.96434500  0.74535700  0.01922000  1
  Fe  Fe3  1  0.46676100  0.02228900  0.74761500  1
  Fe  Fe4  1  0.53440900  0.97837700  0.25629400  1
  Fe  Fe5  1  0.05793700  0.25634000  0.49314600  1
  Fe  Fe6  1  0.03722000  0.25849000  0.98167700  1
  Fe  Fe7  1  0.55764900  0.49104500  0.25492600  1
  O  O0  1  0.24951800  0.25107300  0.75024300  1
  O  O1  1  0.75114900  0.74956600  0.25082200  1
  F  F0  1  0.87448800  0.29360400  0.23663000  1
  F  F1  1  0.37038600  0.23251900  0.28233400  1
  F  F2  1  0.12222900  0.70424700  0.76311600  1
  F  F3  1  0.62596900  0.76738000  0.71388200  1
  F  F4  1  0.75474800  0.03790500  0.96641100  1
  F  F5  1  0.75211200  0.06115200  0.52591900  1
  F  F6  1  0.74867300  0.46200800  0.53976000  1
  F  F7  1  0.74216200  0.47209800  0.94097600  1
  F  F8  1  0.25553400  0.52903100  0.06045700  1
  F  F9  1  0.25099700  0.53695300  0.45959300  1
  F  F10  1  0.25662900  0.95826400  0.03137400  1
  F  F11  1  0.24325400  0.94180600  0.47492000  1
loop_
_geom_bond_atom_site_label_1
_geom_bond_atom_site_label_2
_geom_bond_distance
_geom_bond_site_symmetry_2
Fe0 O0 2.100195 1_555
Fe1 O1 2.075393 1_555
Fe2 O1 1.991198 1_555
Fe3 O0 1.996163 1_555
Fe4 O1 1.994766 1_555
Fe5 O0 2.084527 1_555
Fe6 O0 1.987698 1_555
Fe7 O1 2.105122 1_555
F0 Fe6 2.020395 1_654
F0 Fe5 2.084273 1_655
F0 Fe7 2.174162 1_555
F1 Fe4 2.023151 1_545
F1 Fe7 2.103311 1_555
F1 Fe5 2.215829 1_555
F2 Fe2 2.022421 1_456
F2 Fe1 2.076770 1_455
F2 Fe0 2.175816 1_555
F3 Fe3 2.022368 1_565
F3 Fe0 2.096449 1_555
F3 Fe1 2.211868 1_555
F4 Fe6 2.147471 1_655
F4 Fe3 2.153299 1_555
F4 Fe2 2.408820 1_546
F4 Fe4 2.414192 1_546
F5 Fe5 2.122718 1_655
F5 Fe3 2.189557 1_555
F5 Fe4 2.290317 1_545
F5 Fe1 2.504680 1_545
F6 Fe0 2.179126 1_555
F6 Fe5 2.203050 1_655
F6 Fe1 2.254883 1_555
F6 Fe7 2.273458 1_555
F7 Fe0 2.111163 1_555
F7 Fe6 2.193255 1_655
F7 Fe2 2.323004 1_556
F7 Fe7 2.442351 1_556
F8 Fe7 2.108149 1_555
F8 Fe2 2.193901 1_455
F8 Fe6 2.297802 1_554
F8 Fe0 2.463357 1_554
F9 Fe7 2.180408 1_555
F9 Fe1 2.197867 1_455
F9 Fe5 2.262978 1_555
F9 Fe0 2.269903 1_555
F10 Fe2 2.141895 1_455
F10 Fe4 2.151004 1_555
F10 Fe3 2.358282 1_564
F10 Fe6 2.476745 1_564
F11 Fe1 2.130428 1_455
F11 Fe4 2.191789 1_555
F11 Fe3 2.319434 1_565
F11 Fe5 2.461433 1_565
