# generated using pymatgen
data_CaAsWO5
_symmetry_space_group_name_H-M   'P 1'
_cell_length_a   8.37836886
_cell_length_b   6.02236244
_cell_length_c   9.74458222
_cell_angle_alpha   90.00446456
_cell_angle_beta   89.98017109
_cell_angle_gamma   89.43303172
_symmetry_Int_Tables_number   1
_chemical_formula_structural   CaAsWO5
_chemical_formula_sum   'Ca4 As4 W4 O20'
_cell_volume   491.66387350
_cell_formula_units_Z   4
loop_
 _symmetry_equiv_pos_site_id
 _symmetry_equiv_pos_as_xyz
  1  'x, y, z'
loop_
 _atom_site_type_symbol
 _atom_site_label
 _atom_site_symmetry_multiplicity
 _atom_site_fract_x
 _atom_site_fract_y
 _atom_site_fract_z
 _atom_site_occupancy
  Ca  Ca0  1  0.92127900  0.78452100  0.11524700  1
  Ca  Ca1  1  0.57960400  0.21555400  0.61476100  1
  Ca  Ca2  1  0.40350400  0.72544100  0.89301400  1
  Ca  Ca3  1  0.09647400  0.27473500  0.39354000  1
  As  As0  1  0.62173100  0.27096800  0.95541700  1
  As  As1  1  0.87790300  0.72910000  0.45570300  1
  As  As2  1  0.13098200  0.23210400  0.04643000  1
  As  As3  1  0.36934200  0.76826100  0.54613600  1
  W  W0  1  0.99422300  0.46572200  0.75650300  1
  W  W1  1  0.50559300  0.53427000  0.25622200  1
  W  W2  1  0.49064200  0.03115800  0.24318500  1
  W  W3  1  0.00942100  0.96875900  0.74357700  1
  O  O0  1  0.83630700  0.20005500  0.74106900  1
  O  O1  1  0.66374800  0.79969100  0.24043000  1
  O  O2  1  0.33542900  0.30329900  0.25852300  1
  O  O3  1  0.16450400  0.69649400  0.75837100  1
  O  O4  1  0.50314800  0.35973400  0.81704000  1
  O  O5  1  0.99697600  0.64003000  0.31764200  1
  O  O6  1  0.01594300  0.13970600  0.18552500  1
  O  O7  1  0.48437300  0.86037700  0.68520100  1
  O  O8  1  0.48920100  0.05410800  0.03713100  1
  O  O9  1  0.01042600  0.94563000  0.53752100  1
  O  O10  1  0.99501900  0.44823300  0.96258100  1
  O  O11  1  0.50509000  0.55177000  0.46230100  1
  O  O12  1  0.55979200  0.51587300  0.05613000  1
  O  O13  1  0.93869700  0.48391300  0.55657000  1
  O  O14  1  0.07511800  0.98565200  0.94196300  1
  O  O15  1  0.42571700  0.01446900  0.44182300  1
  O  O16  1  0.85040500  0.73647300  0.78783800  1
  O  O17  1  0.64970400  0.26365300  0.28704000  1
  O  O18  1  0.34614900  0.76635400  0.20295800  1
  O  O19  1  0.15355400  0.23389700  0.70260700  1
loop_
_geom_bond_atom_site_label_1
_geom_bond_atom_site_label_2
_geom_bond_distance
_geom_bond_site_symmetry_2
Ca0 O5 2.244870 1_555
Ca0 O6 2.388999 1_665
Ca0 O14 2.451436 1_654
Ca0 O1 2.479169 1_555
Ca0 O10 2.582754 1_554
Ca1 O4 2.244432 1_555
Ca1 O7 2.390970 1_545
Ca1 O15 2.449674 1_555
Ca1 O0 2.479363 1_555
Ca1 O11 2.583197 1_555
Ca2 O7 2.287025 1_555
Ca2 O3 2.402136 1_555
Ca2 O12 2.408954 1_556
Ca2 O4 2.461435 1_555
Ca2 O8 2.536528 1_566
Ca3 O6 2.288424 1_555
Ca3 O2 2.402886 1_555
Ca3 O13 2.413199 1_455
Ca3 O5 2.458873 1_455
Ca3 O9 2.538613 1_545
As0 O4 1.755467 1_555
As0 O12 1.841762 1_556
As0 O8 1.897606 1_556
As1 O5 1.755376 1_555
As1 O13 1.841629 1_555
As1 O9 1.896856 1_655
As2 O6 1.756595 1_555
As2 O14 1.863365 1_544
As2 O10 1.905496 1_454
As3 O7 1.756234 1_555
As3 O15 1.862435 1_565
As3 O11 1.905426 1_555
O0 W3 2.001161 1_645
O0 W0 2.091642 1_555
O1 W2 2.001838 1_565
O1 W1 2.091988 1_555
O2 W1 2.001799 1_555
O2 W2 2.087392 1_555
O3 W0 2.001629 1_455
O3 W3 2.087013 1_555
O8 W2 2.012704 1_555
O9 W3 2.012753 1_555
O10 W0 2.010922 1_555
O11 W1 2.010910 1_555
O12 W1 2.004647 1_555
O13 W0 2.005944 1_555
O14 W3 2.013047 1_555
O15 W2 2.013232 1_555
O16 W3 1.988609 1_655
O16 W0 2.040754 1_555
O17 W2 1.989062 1_555
O17 W1 2.040960 1_555
O18 W1 1.992778 1_555
O18 W2 2.049611 1_565
O19 W0 1.992381 1_455
O19 W3 2.050670 1_545
