# generated using pymatgen
data_Er3Co2Si3
_symmetry_space_group_name_H-M   'P 1'
_cell_length_a   5.54463037
_cell_length_b   5.54463037
_cell_length_c   13.41981300
_cell_angle_alpha   90.00000000
_cell_angle_beta   90.00000000
_cell_angle_gamma   137.13466322
_symmetry_Int_Tables_number   1
_chemical_formula_structural   Er3Co2Si3
_chemical_formula_sum   'Er6 Co4 Si6'
_cell_volume   280.65824955
_cell_formula_units_Z   2
loop_
 _symmetry_equiv_pos_site_id
 _symmetry_equiv_pos_as_xyz
  1  'x, y, z'
loop_
 _atom_site_type_symbol
 _atom_site_label
 _atom_site_symmetry_multiplicity
 _atom_site_fract_x
 _atom_site_fract_y
 _atom_site_fract_z
 _atom_site_occupancy
  Er  Er0  1  0.63911500  0.36088500  0.25000000  1
  Er  Er1  1  0.36088500  0.63911500  0.75000000  1
  Er  Er2  1  0.92026600  0.07973400  0.11251400  1
  Er  Er3  1  0.07973400  0.92026600  0.88748600  1
  Er  Er4  1  0.07973400  0.92026600  0.61251400  1
  Er  Er5  1  0.92026600  0.07973400  0.38748600  1
  Co  Co0  1  0.78611500  0.21388500  0.58158400  1
  Co  Co1  1  0.21388500  0.78611500  0.41841600  1
  Co  Co2  1  0.21388500  0.78611500  0.08158400  1
  Co  Co3  1  0.78611500  0.21388500  0.91841600  1
  Si  Si0  1  0.33073400  0.66926600  0.25000000  1
  Si  Si1  1  0.66926600  0.33073400  0.75000000  1
  Si  Si2  1  0.61948200  0.38051800  0.03868100  1
  Si  Si3  1  0.38051800  0.61948200  0.96131900  1
  Si  Si4  1  0.38051800  0.61948200  0.53868100  1
  Si  Si5  1  0.61948200  0.38051800  0.46131900  1
loop_
_geom_bond_atom_site_label_1
_geom_bond_atom_site_label_2
_geom_bond_distance
_geom_bond_site_symmetry_2
Er0 Si0 2.831474 1_655
Er0 Si0 2.831474 1_545
Er0 Si5 2.843094 1_555
Er0 Si2 2.843094 1_555
Er0 Si0 3.183236 1_555
Er1 Si1 2.831474 1_565
Er1 Si1 2.831474 1_455
Er1 Si3 2.843094 1_555
Er1 Si4 2.843094 1_555
Er1 Si1 3.183236 1_555
Er2 Si0 2.891913 1_545
Er2 Si0 2.891913 1_655
Er2 Si3 2.896566 1_654
Er2 Si3 2.896566 1_544
Er2 Si2 3.052106 1_545
Er2 Si2 3.052106 1_655
Er2 Si2 3.259083 1_555
Er3 Si1 2.891913 1_455
Er3 Si1 2.891913 1_565
Er3 Si2 2.896566 1_566
Er3 Si2 2.896566 1_456
Er3 Si3 3.052106 1_455
Er3 Si3 3.052106 1_565
Er3 Si3 3.259083 1_555
Er4 Si1 2.891913 1_455
Er4 Si1 2.891913 1_565
Er4 Si5 2.896566 1_455
Er4 Si5 2.896566 1_565
Er4 Si4 3.052106 1_565
Er4 Si4 3.052106 1_455
Er4 Si4 3.259083 1_555
Er5 Si0 2.891913 1_655
Er5 Si0 2.891913 1_545
Er5 Si4 2.896566 1_545
Er5 Si4 2.896566 1_655
Er5 Si5 3.052106 1_545
Er5 Si5 3.052106 1_655
Er5 Si5 3.259083 1_555
Co0 Si4 2.320765 1_655
Co0 Si4 2.320765 1_545
Co0 Si5 2.358680 1_555
Co0 Si1 2.561822 1_555
Co0 Er5 2.949972 1_555
Co0 Er4 2.969100 1_655
Co0 Er4 2.969100 1_545
Co0 Er4 3.059146 1_645
Co0 Er1 3.131879 1_545
Co0 Er1 3.131879 1_655
Co1 Si5 2.320765 1_565
Co1 Si5 2.320765 1_455
Co1 Si4 2.358680 1_555
Co1 Si0 2.561822 1_555
Co1 Er4 2.949972 1_555
Co1 Er5 2.969100 1_565
Co1 Er5 2.969100 1_455
Co1 Er5 3.059146 1_465
Co1 Er0 3.131879 1_455
Co1 Er0 3.131879 1_565
Co2 Si2 2.320765 1_565
Co2 Si2 2.320765 1_455
Co2 Si3 2.358680 1_554
Co2 Si0 2.561822 1_555
Co2 Er3 2.949972 1_554
Co2 Er2 2.969100 1_565
Co2 Er2 2.969100 1_455
Co2 Er2 3.059146 1_465
Co2 Er0 3.131879 1_455
Co2 Er0 3.131879 1_565
Co3 Si3 2.320765 1_655
Co3 Si3 2.320765 1_545
Co3 Si2 2.358680 1_556
Co3 Si1 2.561822 1_555
Co3 Er2 2.949972 1_556
Co3 Er3 2.969100 1_655
Co3 Er3 2.969100 1_545
Co3 Er3 3.059146 1_645
Co3 Er1 3.131879 1_655
Co3 Er1 3.131879 1_545
Si2 Si3 2.676258 1_554
Si4 Si5 2.676258 1_555
