# generated using pymatgen
data_Sr2Y2Sn2O7
_symmetry_space_group_name_H-M   'P 1'
_cell_length_a   11.91755355
_cell_length_b   11.91755355
_cell_length_c   11.91755355
_cell_angle_alpha   46.54074575
_cell_angle_beta   146.32237085
_cell_angle_gamma   148.83359541
_symmetry_Int_Tables_number   1
_chemical_formula_structural   Sr2Y2Sn2O7
_chemical_formula_sum   'Sr4 Y4 Sn4 O14'
_cell_volume   484.01320568
_cell_formula_units_Z   2
loop_
 _symmetry_equiv_pos_site_id
 _symmetry_equiv_pos_as_xyz
  1  'x, y, z'
loop_
 _atom_site_type_symbol
 _atom_site_label
 _atom_site_symmetry_multiplicity
 _atom_site_fract_x
 _atom_site_fract_y
 _atom_site_fract_z
 _atom_site_occupancy
  Sr  Sr0  1  0.04710400  0.81511600  0.92380600  1
  Sr  Sr1  1  0.89131100  0.12329800  0.07619400  1
  Sr  Sr2  1  0.04710400  0.62329800  0.73198800  1
  Sr  Sr3  1  0.89131100  0.31511600  0.26801200  1
  Y  Y0  1  0.01122400  0.51122400  0.50000000  1
  Y  Y1  1  0.01122400  0.01122400  0.00000000  1
  Y  Y2  1  0.55155000  0.70202000  0.34953000  1
  Y  Y3  1  0.35249000  0.20202000  0.65047000  1
  Sn  Sn0  1  0.48908900  0.44276700  0.89683200  1
  Sn  Sn1  1  0.54593400  0.59225700  0.10316800  1
  Sn  Sn2  1  0.48908900  0.09225700  0.54632300  1
  Sn  Sn3  1  0.54593400  0.94276700  0.45367700  1
  O  O0  1  0.99318100  0.85406800  0.63911200  1
  O  O1  1  0.21495600  0.35406800  0.36088800  1
  O  O2  1  0.34452900  0.15359200  0.05535100  1
  O  O3  1  0.09824100  0.28918000  0.94464900  1
  O  O4  1  0.34452900  0.78918000  0.69093900  1
  O  O5  1  0.09824100  0.65359200  0.30906100  1
  O  O6  1  0.71977100  0.82685700  0.73139200  1
  O  O7  1  0.09546600  0.98837900  0.26860800  1
  O  O8  1  0.71977100  0.48837900  0.39291500  1
  O  O9  1  0.09546600  0.32685700  0.60708500  1
  O  O10  1  0.49317400  0.88587700  0.25780900  1
  O  O11  1  0.62806900  0.23536400  0.74219100  1
  O  O12  1  0.49317400  0.73536400  0.10729700  1
  O  O13  1  0.62806900  0.38587700  0.89270300  1
loop_
_geom_bond_atom_site_label_1
_geom_bond_atom_site_label_2
_geom_bond_distance
_geom_bond_site_symmetry_2
O0 Y2 2.223869 1_555
O0 Y3 2.229314 1_665
O0 Sr2 2.618171 1_655
O0 Sr0 2.618188 1_655
O1 Y3 2.223864 1_555
O1 Y2 2.229317 1_555
O1 Sr3 2.618168 1_455
O1 Sr1 2.618186 1_455
O2 Sn0 2.171070 1_554
O2 Y1 2.176510 1_555
O2 Sr0 2.505076 1_544
O3 Sn1 2.171062 1_556
O3 Y1 2.176532 1_556
O3 Sr1 2.505055 1_456
O4 Sn2 2.171063 1_565
O4 Y0 2.176540 1_555
O4 Sr2 2.505043 1_555
O5 Sn3 2.171062 1_555
O5 Y0 2.176532 1_555
O5 Sr3 2.505071 1_455
O6 Sn3 2.085739 1_555
O6 Y1 2.291151 1_666
O6 Sr0 2.469872 1_655
O6 Sn0 2.732812 1_555
O7 Sn2 2.085729 1_565
O7 Y1 2.291144 1_565
O7 Sr1 2.469872 1_465
O7 Sn1 2.732819 1_455
O8 Sn1 2.085739 1_555
O8 Y0 2.291159 1_655
O8 Sr2 2.469862 1_655
O8 Sn2 2.732812 1_555
O9 Sn0 2.085732 1_555
O9 Y0 2.291166 1_555
O9 Sr3 2.469861 1_455
O9 Sn3 2.732821 1_445
O10 Y2 2.127916 1_555
O10 Sn3 2.304053 1_555
O10 Sr0 2.558017 1_554
O10 Sr3 2.655955 1_565
O11 Y3 2.127936 1_555
O11 Sn2 2.304025 1_555
O11 Sr1 2.558012 1_556
O11 Sr2 2.655950 1_655
O12 Y2 2.127921 1_555
O12 Sn1 2.304032 1_555
O12 Sr2 2.558018 1_554
O12 Sr1 2.655960 1_565
O13 Y3 2.127910 1_555
O13 Sn0 2.304067 1_555
O13 Sr3 2.558017 1_556
O13 Sr0 2.655953 1_655
