# generated using pymatgen
data_TlHgAsS3
_symmetry_space_group_name_H-M   'P 1'
_cell_length_a   9.81621932
_cell_length_b   9.81621932
_cell_length_c   9.81621932
_cell_angle_alpha   107.03563213
_cell_angle_beta   107.03563213
_cell_angle_gamma   114.46059085
_symmetry_Int_Tables_number   1
_chemical_formula_structural   TlHgAsS3
_chemical_formula_sum   'Tl4 Hg4 As4 S12'
_cell_volume   723.95523249
_cell_formula_units_Z   4
loop_
 _symmetry_equiv_pos_site_id
 _symmetry_equiv_pos_as_xyz
  1  'x, y, z'
loop_
 _atom_site_type_symbol
 _atom_site_label
 _atom_site_symmetry_multiplicity
 _atom_site_fract_x
 _atom_site_fract_y
 _atom_site_fract_z
 _atom_site_occupancy
  Tl  Tl0  1  0.34241200  0.34241200  0.00000000  1
  Tl  Tl1  1  0.65758800  0.65758800  0.00000000  1
  Tl  Tl2  1  0.75000000  0.25000000  0.50000000  1
  Tl  Tl3  1  0.25000000  0.75000000  0.50000000  1
  Hg  Hg0  1  0.00000000  0.27669500  0.27669500  1
  Hg  Hg1  1  0.00000000  0.72330500  0.72330500  1
  Hg  Hg2  1  0.72330500  0.00000000  0.72330500  1
  Hg  Hg3  1  0.27669500  0.00000000  0.27669500  1
  As  As0  1  0.01882200  0.01882200  0.49632100  1
  As  As1  1  0.52250100  0.52250100  0.50367900  1
  As  As2  1  0.98117800  0.47749900  0.00000000  1
  As  As3  1  0.47749900  0.98117800  0.00000000  1
  S  S0  1  0.08469800  0.28679300  0.55306500  1
  S  S1  1  0.73372900  0.53163300  0.44693500  1
  S  S2  1  0.91530200  0.46836700  0.20209600  1
  S  S3  1  0.26627100  0.71320700  0.79790400  1
  S  S4  1  0.71320700  0.26627100  0.79790400  1
  S  S5  1  0.46836700  0.91530200  0.20209600  1
  S  S6  1  0.28679300  0.08469800  0.55306500  1
  S  S7  1  0.53163300  0.73372900  0.44693500  1
  S  S8  1  0.02640900  0.02640900  0.74005200  1
  S  S9  1  0.28635700  0.28635700  0.25994800  1
  S  S10  1  0.97359100  0.71364300  0.00000000  1
  S  S11  1  0.71364300  0.97359100  0.00000000  1
loop_
_geom_bond_atom_site_label_1
_geom_bond_atom_site_label_2
_geom_bond_distance
_geom_bond_site_symmetry_2
Hg0 S2 2.552158 1_455
Hg0 S0 2.552162 1_555
Hg0 S9 2.827814 1_555
Hg0 S11 2.827814 1_445
Hg1 S3 2.552153 1_555
Hg1 S1 2.552158 1_455
Hg1 S8 2.827814 1_565
Hg1 S10 2.827814 1_456
Hg2 S4 2.552153 1_555
Hg2 S7 2.552158 1_545
Hg2 S8 2.827814 1_655
Hg2 S11 2.827814 1_546
Hg3 S5 2.552158 1_545
Hg3 S6 2.552162 1_555
Hg3 S10 2.827814 1_445
Hg3 S9 2.827814 1_555
As0 S6 2.273663 1_555
As0 S0 2.273663 1_555
As0 S8 2.349857 1_555
As1 S7 2.273672 1_555
As1 S1 2.273672 1_555
As1 S9 2.349857 1_555
As2 S4 2.273667 1_554
As2 S2 2.273672 1_555
As2 S10 2.349857 1_555
As3 S3 2.273667 1_554
As3 S5 2.273672 1_555
As3 S11 2.349857 1_555
S0 Tl2 3.016690 1_455
S1 Tl2 3.016686 1_555
S2 Tl3 3.016686 1_655
S3 Tl3 3.016682 1_555
S4 Tl2 3.016682 1_555
S5 Tl2 3.016686 1_565
S6 Tl3 3.016690 1_545
S7 Tl3 3.016686 1_555
S8 Tl0 2.917430 1_556
S9 Tl0 2.917430 1_555
S10 Tl1 2.917430 1_555
S11 Tl1 2.917430 1_555
