# generated using pymatgen
data_MgTi2O4
_symmetry_space_group_name_H-M   'P 1'
_cell_length_a   6.00887469
_cell_length_b   6.00896406
_cell_length_c   8.48869933
_cell_angle_alpha   89.99780749
_cell_angle_beta   90.00347349
_cell_angle_gamma   89.99996418
_symmetry_Int_Tables_number   1
_chemical_formula_structural   MgTi2O4
_chemical_formula_sum   'Mg4 Ti8 O16'
_cell_volume   306.50241714
_cell_formula_units_Z   4
loop_
 _symmetry_equiv_pos_site_id
 _symmetry_equiv_pos_as_xyz
  1  'x, y, z'
loop_
 _atom_site_type_symbol
 _atom_site_label
 _atom_site_symmetry_multiplicity
 _atom_site_fract_x
 _atom_site_fract_y
 _atom_site_fract_z
 _atom_site_occupancy
  Mg  Mg0  1  0.24535469  0.75466614  0.74988245  1
  Mg  Mg1  1  0.75470743  0.24548241  0.25015113  1
  Mg  Mg2  1  0.25450054  0.25462736  0.50019184  1
  Mg  Mg3  1  0.74542105  0.74538197  -0.00015905  1
  Ti  Ti0  1  0.49171866  0.25247805  0.88036842  1
  Ti  Ti1  1  0.50804772  0.74757034  0.38028874  1
  Ti  Ti2  1  0.75239024  0.00806740  0.63025665  1
  Ti  Ti3  1  0.24757006  0.99177806  0.13037572  1
  Ti  Ti4  1  0.74754882  0.50814715  0.61971399  1
  Ti  Ti5  1  0.25247473  0.49176767  0.11963654  1
  Ti  Ti6  1  0.00830890  0.75243188  0.36963393  1
  Ti  Ti7  1  0.99194991  0.24760393  0.86973331  1
  O  O0  1  0.98787864  0.25662256  0.63161692  1
  O  O1  1  0.01197352  0.74329735  0.13160732  1
  O  O2  1  0.75665821  0.51210142  0.38169344  1
  O  O3  1  0.24334827  0.48811118  0.88152621  1
  O  O4  1  0.74343136  0.01210907  0.86832349  1
  O  O5  1  0.25657467  0.98805737  0.36851564  1
  O  O6  1  0.51203916  0.75654287  0.61844349  1
  O  O7  1  0.48806170  0.24341485  0.11843134  1
  O  O8  1  0.74558821  0.48052163  0.86476900  1
  O  O9  1  0.25439360  0.51937982  0.36490614  1
  O  O10  1  0.98050819  0.75438713  0.61483398  1
  O  O11  1  0.01945200  0.24557078  0.11484870  1
  O  O12  1  0.51951061  0.25440622  0.63511216  1
  O  O13  1  0.48056564  0.74551966  0.13508563  1
  O  O14  1  0.75446833  0.98048576  0.38514717  1
  O  O15  1  0.24555316  0.01946797  0.88506768  1
loop_
_geom_bond_atom_site_label_1
_geom_bond_atom_site_label_2
_geom_bond_distance
_geom_bond_site_symmetry_2
Mg0 O6 1.952730 1_555
Mg0 O3 1.953020 1_555
Mg0 O10 1.961283 1_455
Mg0 O15 1.961855 1_565
Mg1 O2 1.952910 1_555
Mg1 O7 1.953798 1_555
Mg1 O14 1.961795 1_545
Mg1 O11 1.962159 1_655
Mg2 O0 1.952359 1_455
Mg2 O5 1.953324 1_545
Mg2 O12 1.961445 1_555
Mg2 O9 1.962042 1_555
Mg3 O4 1.953254 1_564
Mg3 O1 1.953565 1_655
Mg3 O8 1.961577 1_554
Mg3 O13 1.962412 1_555
O0 Ti7 2.022169 1_555
O0 Ti2 2.057459 1_555
O0 Ti4 2.092838 1_555
O1 Ti6 2.021405 1_555
O1 Ti3 2.057575 1_555
O1 Ti5 2.093613 1_555
O2 Ti4 2.021368 1_555
O2 Ti1 2.057618 1_555
O2 Ti6 2.093462 1_655
O3 Ti5 2.022108 1_556
O3 Ti0 2.057240 1_555
O3 Ti7 2.092987 1_455
O4 Ti2 2.021745 1_555
O4 Ti7 2.057326 1_555
O4 Ti0 2.093888 1_555
O5 Ti3 2.022342 1_555
O5 Ti6 2.056752 1_555
O5 Ti1 2.093212 1_555
O6 Ti1 2.022486 1_555
O6 Ti4 2.056845 1_555
O6 Ti2 2.092897 1_565
O7 Ti0 2.021697 1_554
O7 Ti5 2.056976 1_555
O7 Ti3 2.094023 1_545
O8 Ti7 2.037665 1_555
O8 Ti0 2.054835 1_555
O8 Ti4 2.086839 1_555
O9 Ti6 2.036977 1_555
O9 Ti1 2.054340 1_555
O9 Ti5 2.088658 1_555
O10 Ti4 2.037298 1_555
O10 Ti2 2.054201 1_565
O10 Ti6 2.088166 1_655
O11 Ti5 2.037355 1_555
O11 Ti3 2.054741 1_545
O11 Ti7 2.087288 1_454
O12 Ti2 2.037397 1_555
O12 Ti4 2.054132 1_555
O12 Ti0 2.088636 1_555
O13 Ti3 2.037494 1_555
O13 Ti5 2.054417 1_555
O13 Ti1 2.088023 1_555
O14 Ti1 2.037898 1_555
O14 Ti6 2.054705 1_655
O14 Ti2 2.087296 1_565
O15 Ti0 2.037150 1_555
O15 Ti7 2.053861 1_455
O15 Ti3 2.089011 1_546
