# generated using pymatgen
data_GaPH9C3Cl3O
_symmetry_space_group_name_H-M   'P 1'
_cell_length_a   6.92883753
_cell_length_b   6.92883753
_cell_length_c   13.04399288
_cell_angle_alpha   80.98525511
_cell_angle_beta   80.98525511
_cell_angle_gamma   103.22741139
_symmetry_Int_Tables_number   1
_chemical_formula_structural   GaPH9C3Cl3O
_chemical_formula_sum   'Ga2 P2 H18 C6 Cl6 O2'
_cell_volume   589.88550136
_cell_formula_units_Z   2
loop_
 _symmetry_equiv_pos_site_id
 _symmetry_equiv_pos_as_xyz
  1  'x, y, z'
loop_
 _atom_site_type_symbol
 _atom_site_label
 _atom_site_symmetry_multiplicity
 _atom_site_fract_x
 _atom_site_fract_y
 _atom_site_fract_z
 _atom_site_occupancy
  Ga  Ga0  1  0.04430500  0.54161900  0.48630000  1
  Ga  Ga1  1  0.54161900  0.04430500  0.98630000  1
  P  P0  1  0.23571000  0.72341000  0.67809600  1
  P  P1  1  0.72341000  0.23571000  0.17809600  1
  H  H0  1  0.54790200  0.86899800  0.55296200  1
  H  H1  1  0.86899800  0.54790200  0.05296200  1
  H  H2  1  0.56170900  0.93729000  0.67865000  1
  H  H3  1  0.93729000  0.56170900  0.17865000  1
  H  H4  1  0.43056000  0.05896500  0.59148800  1
  H  H5  1  0.05896500  0.43056000  0.09148800  1
  H  H6  1  0.16445300  0.39274500  0.78686600  1
  H  H7  1  0.39274500  0.16445300  0.28686600  1
  H  H8  1  0.41045800  0.54379400  0.78877800  1
  H  H9  1  0.54379400  0.41045800  0.28877800  1
  H  H10  1  0.36925900  0.43474200  0.67608000  1
  H  H11  1  0.43474200  0.36925900  0.17608000  1
  H  H12  1  0.05688400  0.95114700  0.74277500  1
  H  H13  1  0.95114700  0.05688400  0.24277500  1
  H  H14  1  0.18005000  0.84490000  0.84007700  1
  H  H15  1  0.84490000  0.18005000  0.34007700  1
  H  H16  1  0.95110200  0.69652700  0.81452900  1
  H  H17  1  0.69652700  0.95110200  0.31452900  1
  C  C0  1  0.46567500  0.91568100  0.61970500  1
  C  C1  1  0.91568100  0.46567500  0.11970500  1
  C  C2  1  0.30090500  0.50232500  0.73836000  1
  C  C3  1  0.50232500  0.30090500  0.23836000  1
  C  C4  1  0.09258900  0.81264700  0.77862300  1
  C  C5  1  0.81264700  0.09258900  0.27862300  1
  Cl  Cl0  1  0.08413600  0.23611200  0.52387400  1
  Cl  Cl1  1  0.23611200  0.08413600  0.02387400  1
  Cl  Cl2  1  0.72849500  0.53039100  0.47884200  1
  Cl  Cl3  1  0.53039100  0.72849500  0.97884200  1
  Cl  Cl4  1  0.24176500  0.71390600  0.33676600  1
  Cl  Cl5  1  0.71390600  0.24176500  0.83676600  1
  O  O0  1  0.10410500  0.67970000  0.59483000  1
  O  O1  1  0.67970000  0.10410500  0.09483000  1
loop_
_geom_bond_atom_site_label_1
_geom_bond_atom_site_label_2
_geom_bond_distance
_geom_bond_site_symmetry_2
Ga0 O0 1.875630 1_555
Ga1 O1 1.875630 1_556
C0 H0 1.097409 1_555
C0 H4 1.097451 1_565
C0 H2 1.098711 1_555
C0 P0 1.795569 1_555
C1 H1 1.097409 1_555
C1 H5 1.097451 1_655
C1 H3 1.098711 1_555
C1 P1 1.795569 1_555
C2 H10 1.097125 1_555
C2 H6 1.097346 1_555
C2 H8 1.098683 1_555
C2 P0 1.794206 1_555
C3 H11 1.097125 1_555
C3 H7 1.097346 1_555
C3 H9 1.098683 1_555
C3 P1 1.794206 1_555
C4 H16 1.097648 1_455
C4 H12 1.097747 1_555
C4 H14 1.098247 1_555
C4 P0 1.792294 1_555
C5 H17 1.097648 1_545
C5 H13 1.097747 1_555
C5 H15 1.098247 1_555
C5 P1 1.792294 1_555
Cl0 Ga0 2.186749 1_555
Cl1 Ga1 2.186749 1_554
Cl2 Ga0 2.189725 1_655
Cl3 Ga1 2.189725 1_565
Cl4 Ga0 2.188162 1_555
Cl5 Ga1 2.188162 1_555
O0 P0 1.545949 1_555
O1 P1 1.545949 1_555
