# generated using pymatgen
data_MnAg4P6(HO3)6
_symmetry_space_group_name_H-M   'P 1'
_cell_length_a   6.62872300
_cell_length_b   8.93698199
_cell_length_c   9.11709813
_cell_angle_alpha   85.07908655
_cell_angle_beta   81.57551833
_cell_angle_gamma   68.42108772
_symmetry_Int_Tables_number   1
_chemical_formula_structural   MnAg4P6(HO3)6
_chemical_formula_sum   'Mn1 Ag4 P6 H6 O18'
_cell_volume   496.53097091
_cell_formula_units_Z   1
loop_
 _symmetry_equiv_pos_site_id
 _symmetry_equiv_pos_as_xyz
  1  'x, y, z'
loop_
 _atom_site_type_symbol
 _atom_site_label
 _atom_site_symmetry_multiplicity
 _atom_site_fract_x
 _atom_site_fract_y
 _atom_site_fract_z
 _atom_site_occupancy
  Mn  Mn0  1  0.00000000  0.00000000  0.00000000  1
  Ag  Ag0  1  0.35459200  0.40763200  0.75317400  1
  Ag  Ag1  1  0.64540800  0.59236800  0.24682600  1
  Ag  Ag2  1  0.21776500  0.81008400  0.50132800  1
  Ag  Ag3  1  0.78223500  0.18991600  0.49867200  1
  P  P0  1  0.70989500  0.79221900  0.57425300  1
  P  P1  1  0.29010500  0.20778100  0.42574700  1
  P  P2  1  0.82131600  0.48384800  0.75047300  1
  P  P3  1  0.17868400  0.51615200  0.24952700  1
  P  P4  1  0.43440100  0.74982600  0.83433600  1
  P  P5  1  0.56559900  0.25017400  0.16566400  1
  H  H0  1  0.02423100  0.05525500  0.77318100  1
  H  H1  1  0.97576900  0.94474500  0.22681900  1
  H  H2  1  0.94314200  0.87653600  0.20428800  1
  H  H3  1  0.05685800  0.12346400  0.79571200  1
  H  H4  1  0.91662700  0.87270800  0.92222600  1
  H  H5  1  0.08337300  0.12729200  0.07777400  1
  O  O0  1  0.68010300  0.15622400  0.02839300  1
  O  O1  1  0.31989700  0.84377600  0.97160700  1
  O  O2  1  0.54923600  0.85856200  0.72642400  1
  O  O3  1  0.45076400  0.14143800  0.27357600  1
  O  O4  1  0.86852600  0.61533700  0.62891600  1
  O  O5  1  0.13147400  0.38466300  0.37108400  1
  O  O6  1  0.30448500  0.69074000  0.74725600  1
  O  O7  1  0.69551500  0.30926000  0.25274400  1
  O  O8  1  0.84998400  0.89305200  0.53498300  1
  O  O9  1  0.15001600  0.10694800  0.46501700  1
  O  O10  1  0.70622400  0.39258900  0.68508200  1
  O  O11  1  0.29377600  0.60741100  0.31491800  1
  O  O12  1  0.97055600  0.61183200  0.18701200  1
  O  O13  1  0.02944400  0.38816800  0.81298800  1
  O  O14  1  0.64940000  0.60042400  0.87928000  1
  O  O15  1  0.35060000  0.39957600  0.12072000  1
  O  O16  1  0.57945000  0.77728100  0.45773600  1
  O  O17  1  0.42055000  0.22271900  0.54226400  1
loop_
_geom_bond_atom_site_label_1
_geom_bond_atom_site_label_2
_geom_bond_distance
_geom_bond_site_symmetry_2
Mn0 O0 2.058232 1_455
Mn0 O1 2.058232 1_544
Ag0 O13 2.210913 1_555
Ag0 O10 2.279531 1_555
Ag0 O6 2.424557 1_555
Ag0 O17 2.527248 1_555
Ag1 O12 2.210913 1_555
Ag1 O11 2.279531 1_555
Ag1 O7 2.424557 1_555
Ag1 O16 2.527248 1_555
Ag2 O8 2.253348 1_455
Ag2 O16 2.283801 1_555
Ag2 O6 2.451869 1_555
Ag2 O11 2.455382 1_555
Ag2 O9 2.523198 1_565
Ag3 O9 2.253348 1_655
Ag3 O17 2.283801 1_555
Ag3 O7 2.451869 1_555
Ag3 O10 2.455382 1_555
Ag3 O8 2.523198 1_545
H0 H3 0.769440 1_555
H0 Mn0 2.081301 1_556
H1 H2 0.769440 1_555
H1 Mn0 2.081301 1_665
H4 Mn0 1.678698 1_666
H5 Mn0 1.678698 1_555
O0 P5 1.510145 1_555
O1 P4 1.510145 1_555
O2 P4 1.628612 1_555
O2 P0 1.629170 1_555
O3 P5 1.628612 1_555
O3 P1 1.629170 1_555
O4 P0 1.627476 1_555
O4 P2 1.628646 1_555
O5 P1 1.627476 1_555
O5 P3 1.628646 1_555
O6 P4 1.502504 1_555
O7 P5 1.502504 1_555
O8 P0 1.505098 1_555
O9 P1 1.505098 1_555
O10 P2 1.508974 1_555
O11 P3 1.508974 1_555
O12 P3 1.496138 1_655
O13 P2 1.496138 1_455
O14 P4 1.630744 1_555
O14 P2 1.645488 1_555
O15 P5 1.630744 1_555
O15 P3 1.645488 1_555
O16 P0 1.507436 1_555
O17 P1 1.507436 1_555
