# generated using pymatgen
data_SrRe7N10
_symmetry_space_group_name_H-M   'P 1'
_cell_length_a   7.29012077
_cell_length_b   6.88532200
_cell_length_c   11.02352807
_cell_angle_alpha   90.00000000
_cell_angle_beta   107.56055651
_cell_angle_gamma   90.00000000
_symmetry_Int_Tables_number   1
_chemical_formula_structural   SrRe7N10
_chemical_formula_sum   'Sr2 Re14 N20'
_cell_volume   527.53842734
_cell_formula_units_Z   2
loop_
 _symmetry_equiv_pos_site_id
 _symmetry_equiv_pos_as_xyz
  1  'x, y, z'
loop_
 _atom_site_type_symbol
 _atom_site_label
 _atom_site_symmetry_multiplicity
 _atom_site_fract_x
 _atom_site_fract_y
 _atom_site_fract_z
 _atom_site_occupancy
  Sr  Sr0  1  0.89711600  0.00957400  0.66229900  1
  Sr  Sr1  1  0.89711600  0.99042600  0.16229900  1
  Re  Re0  1  0.52379200  0.97844800  0.82112700  1
  Re  Re1  1  0.52379200  0.02155200  0.32112700  1
  Re  Re2  1  0.34331000  0.03006700  0.98824700  1
  Re  Re3  1  0.34331000  0.96993300  0.48824700  1
  Re  Re4  1  0.06223600  0.41510100  0.05734200  1
  Re  Re5  1  0.06223600  0.58489900  0.55734200  1
  Re  Re6  1  0.68697700  0.41016700  0.98960100  1
  Re  Re7  1  0.68697700  0.58983300  0.48960100  1
  Re  Re8  1  0.86582200  0.60420700  0.84103400  1
  Re  Re9  1  0.86582200  0.39579300  0.34103400  1
  Re  Re10  1  0.37176800  0.65909700  0.88838000  1
  Re  Re11  1  0.37176800  0.34090300  0.38838000  1
  Re  Re12  1  0.47710900  0.35724900  0.71804500  1
  Re  Re13  1  0.47710900  0.64275100  0.21804500  1
  N  N0  1  0.76128900  0.85621800  0.84129700  1
  N  N1  1  0.76128900  0.14378200  0.34129700  1
  N  N2  1  0.58846500  0.13955300  0.97671500  1
  N  N3  1  0.58846500  0.86044700  0.47671500  1
  N  N4  1  0.24070700  0.92164500  0.81510500  1
  N  N5  1  0.24070700  0.07835500  0.31510500  1
  N  N6  1  0.13981200  0.17807600  0.02080300  1
  N  N7  1  0.13981200  0.82192400  0.52080300  1
  N  N8  1  0.26807000  0.52351400  0.72172700  1
  N  N9  1  0.26807000  0.47648600  0.22172700  1
  N  N10  1  0.43435600  0.09550300  0.64989500  1
  N  N11  1  0.43435600  0.90449700  0.14989500  1
  N  N12  1  0.88154200  0.38765300  0.16542900  1
  N  N13  1  0.88154200  0.61234700  0.66542900  1
  N  N14  1  0.13375400  0.60240200  0.93710400  1
  N  N15  1  0.13375400  0.39759800  0.43710400  1
  N  N16  1  0.74731600  0.34688200  0.81591400  1
  N  N17  1  0.74731600  0.65311800  0.31591400  1
  N  N18  1  0.51885900  0.56180000  0.05923600  1
  N  N19  1  0.51885900  0.43820000  0.55923600  1
loop_
_geom_bond_atom_site_label_1
_geom_bond_atom_site_label_2
_geom_bond_distance
_geom_bond_site_symmetry_2
N0 Re0 1.876993 1_555
N0 Re8 1.895498 1_555
N0 Sr0 2.677294 1_565
N1 Re1 1.876993 1_555
N1 Re9 1.895498 1_555
N1 Sr1 2.677294 1_545
N2 Re0 1.976476 1_545
N2 Re2 1.978802 1_555
N2 Re6 1.986488 1_555
N2 Sr1 2.743136 1_546
N3 Re1 1.976476 1_565
N3 Re3 1.978802 1_555
N3 Re7 1.986488 1_555
N3 Sr0 2.743136 1_565
N4 Re2 1.974385 1_565
N4 Re0 2.081744 1_555
N4 Re10 2.089861 1_555
N4 Sr0 2.632877 1_465
N5 Re3 1.974385 1_545
N5 Re1 2.081744 1_555
N5 Re11 2.089861 1_555
N5 Sr1 2.632877 1_445
N6 Re4 1.811886 1_555
N6 Re2 1.920796 1_554
N6 Sr1 2.982937 1_445
N7 Re5 1.811886 1_555
N7 Re3 1.920796 1_555
N7 Sr0 2.982937 1_465
N8 Re12 1.916205 1_555
N8 Re10 1.994966 1_555
N8 Re5 2.018218 1_555
N9 Re13 1.916205 1_555
N9 Re11 1.994966 1_555
N9 Re4 2.018218 1_555
N10 Re3 1.910405 1_545
N10 Re12 1.941179 1_555
N10 Re0 1.973575 1_545
N11 Re2 1.910405 1_564
N11 Re13 1.941179 1_555
N11 Re1 1.973575 1_565
N12 Re9 1.974186 1_555
N12 Re6 2.033160 1_554
N12 Re4 2.034139 1_655
N12 Sr1 2.738040 1_545
N13 Re8 1.974186 1_555
N13 Re7 2.033160 1_555
N13 Re5 2.034139 1_655
N13 Sr0 2.738040 1_565
N14 Re8 1.920595 1_455
N14 Re10 2.003495 1_555
N14 Re4 2.027013 1_556
N15 Re9 1.920595 1_455
N15 Re11 2.003495 1_555
N15 Re5 2.027013 1_555
N16 Re12 1.940855 1_555
N16 Re8 1.953929 1_555
N16 Re6 2.134815 1_555
N16 Sr0 3.251141 1_555
N17 Re13 1.940855 1_555
N17 Re9 1.953929 1_555
N17 Re7 2.134815 1_555
N17 Sr1 3.251141 1_555
N18 Re6 1.936252 1_554
N18 Re13 1.946677 1_555
N18 Re10 1.981736 1_554
N19 Re7 1.936252 1_555
N19 Re12 1.946677 1_555
N19 Re11 1.981736 1_555
