# generated using pymatgen
data_MgAg14(PbO3)6
_symmetry_space_group_name_H-M   'P 1'
_cell_length_a   8.99080017
_cell_length_b   8.84145132
_cell_length_c   9.03490142
_cell_angle_alpha   73.87033907
_cell_angle_beta   107.11768788
_cell_angle_gamma   107.56019353
_symmetry_Int_Tables_number   1
_chemical_formula_structural   MgAg14(PbO3)6
_chemical_formula_sum   'Mg1 Ag14 Pb6 O18'
_cell_volume   640.16588112
_cell_formula_units_Z   1
loop_
 _symmetry_equiv_pos_site_id
 _symmetry_equiv_pos_as_xyz
  1  'x, y, z'
loop_
 _atom_site_type_symbol
 _atom_site_label
 _atom_site_symmetry_multiplicity
 _atom_site_fract_x
 _atom_site_fract_y
 _atom_site_fract_z
 _atom_site_occupancy
  Mg  Mg0  1  0.38884738  0.61964917  0.38063883  1
  Ag  Ag0  1  0.82772125  0.17852041  0.64836936  1
  Ag  Ag1  1  0.16115662  0.32034840  0.83014604  1
  Ag  Ag2  1  0.68520370  0.85103056  0.82852847  1
  Ag  Ag3  1  0.48972703  0.98755930  0.50696219  1
  Ag  Ag4  1  0.08862663  0.91141851  0.94123087  1
  Ag  Ag5  1  0.21718204  0.77565682  0.74914669  1
  Ag  Ag6  1  0.40301311  0.60715912  0.70144921  1
  Ag  Ag7  1  0.61669711  0.39370949  0.41151979  1
  Ag  Ag8  1  0.74825968  0.23713953  0.24251523  1
  Ag  Ag9  1  0.91193838  0.07743816  0.05873548  1
  Ag  Ag10  1  0.02077061  0.51430405  0.50466004  1
  Ag  Ag11  1  0.83633117  0.66391179  0.16401597  1
  Ag  Ag12  1  0.15481775  0.84575499  0.31789861  1
  Ag  Ag13  1  0.50733001  0.44660485  0.05147816  1
  Pb  Pb0  1  0.49573114  0.17837663  0.81574579  1
  Pb  Pb1  1  0.82969638  0.50626019  0.82177302  1
  Pb  Pb2  1  0.16607916  0.17440699  0.48885806  1
  Pb  Pb3  1  0.82835347  0.83612873  0.49311560  1
  Pb  Pb4  1  0.14939497  0.47540742  0.14374281  1
  Pb  Pb5  1  0.51222717  0.86907868  0.12911276  1
  O  O0  1  0.76662174  0.23277153  0.83509647  1
  O  O1  1  0.56476115  0.44265385  0.82347379  1
  O  O2  1  0.89418888  0.11428590  0.47184573  1
  O  O3  1  0.22329190  0.13861655  0.76293033  1
  O  O4  1  0.86603325  0.78184382  0.76743346  1
  O  O5  1  0.48077192  0.90763049  0.86127539  1
  O  O6  1  0.10410659  0.51623824  0.88262685  1
  O  O7  1  0.43502950  0.19007945  0.55155882  1
  O  O8  1  0.82313422  0.56462656  0.55616316  1
  O  O9  1  0.52266281  0.13824448  0.07287142  1
  O  O10  1  0.20442697  0.44885480  0.44544335  1
  O  O11  1  0.89217888  0.48094858  0.09154368  1
  O  O12  1  0.55725722  0.79316700  0.46573402  1
  O  O13  1  0.11845128  0.21522167  0.22593964  1
  O  O14  1  0.78336763  0.85280760  0.22855857  1
  O  O15  1  0.42456565  0.52605663  0.21739930  1
  O  O16  1  0.09901569  0.90478129  0.50731739  1
  O  O17  1  0.23902492  0.74331280  0.17913369  1
loop_
_geom_bond_atom_site_label_1
_geom_bond_atom_site_label_2
_geom_bond_distance
_geom_bond_site_symmetry_2
Mg0 O12 1.950826 1_555
Mg0 O10 1.985388 1_555
Mg0 O15 2.019982 1_555
Mg0 O17 2.159513 1_555
Ag0 O2 2.119529 1_555
Ag0 O0 2.128893 1_555
Ag1 O3 2.132162 1_555
Ag1 O6 2.150135 1_555
Ag2 O4 2.153629 1_555
Ag2 O5 2.161856 1_555
Ag3 O12 2.140062 1_555
Ag3 O7 2.158516 1_565
Ag4 O4 2.355725 1_455
Ag4 O3 2.445144 1_565
Ag4 O17 2.526719 1_556
Ag5 O16 2.277138 1_555
Ag5 O6 2.350852 1_555
Ag5 O5 2.362001 1_555
Ag6 O1 2.210727 1_555
Ag7 O8 2.326644 1_555
Ag7 O7 2.384626 1_555
Ag7 O15 2.392731 1_555
Ag8 O9 2.252144 1_555
Ag8 O2 2.281118 1_555
Ag8 O11 2.429763 1_555
Ag9 O13 2.284749 1_655
Ag9 O14 2.366531 1_545
Ag9 O0 2.379629 1_554
Ag10 O10 2.148546 1_555
Ag10 O8 2.156552 1_455
Ag11 O14 2.130856 1_555
Ag11 O11 2.137726 1_555
Ag12 O17 2.137487 1_555
Ag12 O16 2.147687 1_555
Ag13 O15 2.202634 1_555
Ag13 O1 2.277818 1_554
Ag13 O9 2.721704 1_555
O0 Pb1 2.287796 1_555
O0 Pb0 2.298456 1_555
O1 Pb0 2.244954 1_555
O1 Pb1 2.280079 1_555
O2 Pb2 2.306935 1_655
O2 Pb3 2.315489 1_545
O3 Pb0 2.288369 1_555
O3 Pb2 2.325814 1_555
O4 Pb1 2.287798 1_555
O4 Pb3 2.330381 1_555
O5 Pb0 2.282258 1_565
O5 Pb5 2.291072 1_556
O6 Pb4 2.216248 1_556
O6 Pb1 2.343947 1_455
O7 Pb0 2.266246 1_555
O7 Pb2 2.285230 1_555
O8 Pb1 2.296862 1_555
O8 Pb3 2.297165 1_555
O9 Pb0 2.200922 1_554
O9 Pb5 2.269794 1_545
O10 Pb2 2.281811 1_555
O10 Pb4 2.578894 1_555
O11 Pb4 2.233011 1_655
O11 Pb1 2.296326 1_554
O12 Pb3 2.298884 1_555
O13 Pb4 2.169578 1_555
O13 Pb2 2.230354 1_555
O14 Pb3 2.273688 1_555
O14 Pb5 2.370891 1_555
O15 Pb4 2.300429 1_555
O16 Pb2 2.246158 1_565
O16 Pb3 2.296703 1_455
O17 Pb4 2.340852 1_555
O17 Pb5 2.490036 1_555
