# generated using pymatgen
data_Rb2Ti(TeO4)3
_symmetry_space_group_name_H-M   'P 1'
_cell_length_a   7.23614194
_cell_length_b   7.23614194
_cell_length_c   7.23724769
_cell_angle_alpha   60.28260829
_cell_angle_beta   60.28260829
_cell_angle_gamma   60.29751510
_symmetry_Int_Tables_number   1
_chemical_formula_structural   Rb2Ti(TeO4)3
_chemical_formula_sum   'Rb2 Ti1 Te3 O12'
_cell_volume   269.70554570
_cell_formula_units_Z   1
loop_
 _symmetry_equiv_pos_site_id
 _symmetry_equiv_pos_as_xyz
  1  'x, y, z'
loop_
 _atom_site_type_symbol
 _atom_site_label
 _atom_site_symmetry_multiplicity
 _atom_site_fract_x
 _atom_site_fract_y
 _atom_site_fract_z
 _atom_site_occupancy
  Rb  Rb0  1  0.11605300  0.15168000  0.61984200  1
  Rb  Rb1  1  0.84832000  0.88394700  0.38015800  1
  Ti  Ti0  1  0.49809000  0.50191000  0.00000000  1
  Te  Te0  1  0.49884300  0.00120700  0.00032900  1
  Te  Te1  1  0.99879300  0.50115700  0.99967100  1
  Te  Te2  1  0.49853300  0.50146700  0.50000000  1
  O  O0  1  0.82507500  0.82696600  0.92766400  1
  O  O1  1  0.43521400  0.43421400  0.31943300  1
  O  O2  1  0.43518100  0.82044000  0.93341000  1
  O  O3  1  0.82403800  0.42928700  0.32523600  1
  O  O4  1  0.81861100  0.43539600  0.93459800  1
  O  O5  1  0.42833600  0.82678300  0.32611200  1
  O  O6  1  0.17303400  0.17492500  0.07233600  1
  O  O7  1  0.56578600  0.56478600  0.68056700  1
  O  O8  1  0.56460400  0.18138900  0.06540200  1
  O  O9  1  0.17321700  0.57166400  0.67388800  1
  O  O10  1  0.17956000  0.56481900  0.06659000  1
  O  O11  1  0.57071300  0.17596200  0.67476400  1
loop_
_geom_bond_atom_site_label_1
_geom_bond_atom_site_label_2
_geom_bond_distance
_geom_bond_site_symmetry_2
O0 Te1 1.975975 1_555
O0 Te0 1.978876 1_566
O0 Rb0 3.159084 1_665
O1 Te2 1.897271 1_555
O1 Ti0 1.961307 1_555
O1 Rb0 3.087793 1_555
O2 Te0 1.898476 1_566
O2 Ti0 1.956675 1_556
O2 Rb0 3.247373 1_565
O3 Te2 1.975505 1_555
O3 Te1 1.975856 1_554
O3 Rb0 3.010021 1_655
O4 Te1 1.895784 1_555
O4 Ti0 1.966268 1_556
O4 Rb0 3.071358 1_655
O5 Te2 1.973552 1_555
O5 Te0 1.976746 1_565
O5 Rb0 3.174931 1_565
O6 Te0 1.975975 1_555
O6 Te1 1.978876 1_454
O6 Rb1 3.159084 1_445
O7 Te2 1.897271 1_555
O7 Ti0 1.961307 1_556
O7 Rb1 3.087793 1_555
O8 Te0 1.895784 1_555
O8 Ti0 1.966268 1_555
O8 Rb1 3.071358 1_545
O9 Te2 1.973552 1_555
O9 Te1 1.976746 1_455
O9 Rb1 3.174931 1_455
O10 Te1 1.898476 1_454
O10 Ti0 1.956675 1_555
O10 Rb1 3.247373 1_455
O11 Te2 1.975505 1_555
O11 Te0 1.975856 1_556
O11 Rb1 3.010021 1_545
