# generated using pymatgen
data_Mn5SiC
_symmetry_space_group_name_H-M   'P 1'
_cell_length_a   6.36045464
_cell_length_b   6.36045464
_cell_length_c   7.49735000
_cell_angle_alpha   90.00000000
_cell_angle_beta   90.00000000
_cell_angle_gamma   103.86529563
_symmetry_Int_Tables_number   1
_chemical_formula_structural   Mn5SiC
_chemical_formula_sum   'Mn20 Si4 C4'
_cell_volume   294.47031685
_cell_formula_units_Z   4
loop_
 _symmetry_equiv_pos_site_id
 _symmetry_equiv_pos_as_xyz
  1  'x, y, z'
loop_
 _atom_site_type_symbol
 _atom_site_label
 _atom_site_symmetry_multiplicity
 _atom_site_fract_x
 _atom_site_fract_y
 _atom_site_fract_z
 _atom_site_occupancy
  Mn  Mn0  1  0.87407800  0.12592200  0.00000000  1
  Mn  Mn1  1  0.12592200  0.87407800  0.50000000  1
  Mn  Mn2  1  0.87407800  0.12592200  0.50000000  1
  Mn  Mn3  1  0.12592200  0.87407800  0.00000000  1
  Mn  Mn4  1  0.06405400  0.29942600  0.25000000  1
  Mn  Mn5  1  0.93594600  0.70057400  0.75000000  1
  Mn  Mn6  1  0.70057400  0.93594600  0.75000000  1
  Mn  Mn7  1  0.29942600  0.06405400  0.25000000  1
  Mn  Mn8  1  0.19265600  0.48401700  0.56476100  1
  Mn  Mn9  1  0.80734400  0.51598300  0.06476100  1
  Mn  Mn10  1  0.51598300  0.80734400  0.06476100  1
  Mn  Mn11  1  0.48401700  0.19265600  0.56476100  1
  Mn  Mn12  1  0.86575300  0.86575300  0.25000000  1
  Mn  Mn13  1  0.13424700  0.13424700  0.75000000  1
  Mn  Mn14  1  0.53291700  0.53291700  0.75000000  1
  Mn  Mn15  1  0.46708300  0.46708300  0.25000000  1
  Mn  Mn16  1  0.48401700  0.19265600  0.93523900  1
  Mn  Mn17  1  0.51598300  0.80734400  0.43523900  1
  Mn  Mn18  1  0.80734400  0.51598300  0.43523900  1
  Mn  Mn19  1  0.19265600  0.48401700  0.93523900  1
  Si  Si0  1  0.33439600  0.82397400  0.75000000  1
  Si  Si1  1  0.66560400  0.17602600  0.25000000  1
  Si  Si2  1  0.17602600  0.66560400  0.25000000  1
  Si  Si3  1  0.82397400  0.33439600  0.75000000  1
  C  C0  1  0.80697200  0.80697200  0.96532100  1
  C  C1  1  0.19302800  0.19302800  0.46532100  1
  C  C2  1  0.80697200  0.80697200  0.53467900  1
  C  C3  1  0.19302800  0.19302800  0.03467900  1
loop_
_geom_bond_atom_site_label_1
_geom_bond_atom_site_label_2
_geom_bond_distance
_geom_bond_site_symmetry_2
Mn0 Si3 2.361245 1_554
Mn0 Si1 2.361245 1_555
Mn1 Si2 2.361245 1_555
Mn1 Si0 2.361245 1_555
Mn2 Si3 2.361245 1_555
Mn2 Si1 2.361245 1_555
Mn3 Si2 2.361245 1_555
Mn3 Si0 2.361245 1_554
Mn4 Si2 2.266436 1_555
Mn4 Si1 2.466876 1_455
Mn5 Si3 2.266436 1_555
Mn5 Si0 2.466876 1_655
Mn6 Si0 2.266436 1_555
Mn6 Si3 2.466876 1_565
Mn7 Si1 2.266436 1_555
Mn7 Si2 2.466876 1_545
Mn8 Si0 2.546114 1_555
Mn8 Si2 2.640589 1_555
Mn8 Si3 2.695145 1_455
Mn9 Si1 2.546114 1_555
Mn9 Si3 2.640589 1_554
Mn9 Si2 2.695145 1_655
Mn10 Mn15 2.527195 1_555
Mn10 Si2 2.546114 1_555
Mn10 Si0 2.640589 1_554
Mn10 Si1 2.695145 1_565
Mn11 Mn14 2.527195 1_555
Mn11 Si3 2.546114 1_555
Mn11 Si1 2.640589 1_555
Mn11 Si0 2.695145 1_545
Mn12 Si1 2.592169 1_565
Mn12 Si2 2.592169 1_655
Mn13 Si0 2.592169 1_545
Mn13 Si3 2.592169 1_455
Mn14 Si3 2.478277 1_555
Mn14 Si0 2.478277 1_555
Mn14 Mn19 2.527195 1_555
Mn14 Mn16 2.527195 1_555
Mn14 Mn8 2.527195 1_555
Mn14 Mn5 2.529478 1_555
Mn14 Mn6 2.529478 1_555
Mn15 Si2 2.478277 1_555
Mn15 Si1 2.478277 1_555
Mn15 Mn17 2.527195 1_555
Mn15 Mn18 2.527195 1_555
Mn15 Mn9 2.527195 1_555
Mn15 Mn4 2.529478 1_555
Mn15 Mn7 2.529478 1_555
Mn16 Si3 2.546114 1_555
Mn16 Si1 2.640589 1_556
Mn16 Si0 2.695145 1_545
Mn17 Si2 2.546114 1_555
Mn17 Si0 2.640589 1_555
Mn17 Si1 2.695145 1_565
Mn18 Si1 2.546114 1_555
Mn18 Si3 2.640589 1_555
Mn18 Si2 2.695145 1_655
Mn19 Si0 2.546114 1_555
Mn19 Si2 2.640589 1_556
Mn19 Si3 2.695145 1_455
C0 Mn0 1.987528 1_566
C0 Mn3 1.987528 1_656
C0 Mn9 1.995864 1_556
C0 Mn10 1.995864 1_556
C0 Mn6 2.000770 1_555
C0 Mn5 2.000770 1_555
C0 Mn12 2.183568 1_556
C0 Mn14 2.688254 1_555
C1 Mn1 1.987528 1_545
C1 Mn2 1.987528 1_455
C1 Mn8 1.995864 1_555
C1 Mn11 1.995864 1_555
C1 Mn4 2.000770 1_555
C1 Mn7 2.000770 1_555
C1 Mn13 2.183568 1_555
C1 Mn15 2.688254 1_555
C2 Mn1 1.987528 1_655
C2 Mn2 1.987528 1_565
C2 Mn18 1.995864 1_555
C2 Mn17 1.995864 1_555
C2 Mn6 2.000770 1_555
C2 Mn5 2.000770 1_555
C2 Mn12 2.183568 1_555
C2 Mn14 2.688254 1_555
C3 Mn0 1.987528 1_455
C3 Mn3 1.987528 1_545
C3 Mn16 1.995864 1_554
C3 Mn19 1.995864 1_554
C3 Mn4 2.000770 1_555
C3 Mn7 2.000770 1_555
C3 Mn13 2.183568 1_554
C3 Mn15 2.688254 1_555
