# generated using pymatgen
data_ZnCu2SnSe4
_symmetry_space_group_name_H-M   'P 1'
_cell_length_a   7.04268853
_cell_length_b   7.04268853
_cell_length_c   7.04268853
_cell_angle_alpha   131.62360387
_cell_angle_beta   131.62360387
_cell_angle_gamma   70.82415725
_symmetry_Int_Tables_number   1
_chemical_formula_structural   ZnCu2SnSe4
_chemical_formula_sum   'Zn1 Cu2 Sn1 Se4'
_cell_volume   191.18001558
_cell_formula_units_Z   1
loop_
 _symmetry_equiv_pos_site_id
 _symmetry_equiv_pos_as_xyz
  1  'x, y, z'
loop_
 _atom_site_type_symbol
 _atom_site_label
 _atom_site_symmetry_multiplicity
 _atom_site_fract_x
 _atom_site_fract_y
 _atom_site_fract_z
 _atom_site_occupancy
  Zn  Zn0  1  0.75000000  0.25000000  0.50000000  1
  Cu  Cu0  1  0.25000000  0.75000000  0.50000000  1
  Cu  Cu1  1  0.00000000  0.00000000  0.00000000  1
  Sn  Sn0  1  0.50000000  0.50000000  0.00000000  1
  Se  Se0  1  0.62975400  0.63653400  0.52624700  1
  Se  Se1  1  0.11028700  0.10350700  0.47375300  1
  Se  Se2  1  0.89649300  0.37024600  0.00678000  1
  Se  Se3  1  0.36346600  0.88971300  0.99322000  1
loop_
_geom_bond_atom_site_label_1
_geom_bond_atom_site_label_2
_geom_bond_distance
_geom_bond_site_symmetry_2
Cu0 Se2 2.441535 1_455
Cu0 Se3 2.441535 1_555
Cu0 Se0 2.441535 1_555
Cu0 Se1 2.441535 1_565
Cu1 Se1 2.442335 1_555
Cu1 Se0 2.442335 1_444
Cu1 Se2 2.442335 1_455
Cu1 Se3 2.442335 1_544
Se0 Zn0 2.487352 1_555
Se0 Sn0 2.615191 1_555
Se1 Zn0 2.487352 1_455
Se1 Sn0 2.615191 1_556
Se2 Zn0 2.487352 1_554
Se2 Sn0 2.615191 1_555
Se3 Zn0 2.487352 1_566
Se3 Sn0 2.615191 1_556
