# generated using pymatgen
data_Na2ZrFeSi2O8F
_symmetry_space_group_name_H-M   'P 1'
_cell_length_a   9.96293500
_cell_length_b   7.20004000
_cell_length_c   10.82372426
_cell_angle_alpha   72.00920996
_cell_angle_beta   90.00000000
_cell_angle_gamma   90.00000000
_symmetry_Int_Tables_number   1
_chemical_formula_structural   Na2ZrFeSi2O8F
_chemical_formula_sum   'Na8 Zr4 Fe4 Si8 O32 F4'
_cell_volume   738.46161898
_cell_formula_units_Z   4
loop_
 _symmetry_equiv_pos_site_id
 _symmetry_equiv_pos_as_xyz
  1  'x, y, z'
loop_
 _atom_site_type_symbol
 _atom_site_label
 _atom_site_symmetry_multiplicity
 _atom_site_fract_x
 _atom_site_fract_y
 _atom_site_fract_z
 _atom_site_occupancy
  Na  Na0  1  0.60884000  0.47479200  0.30583900  1
  Na  Na1  1  0.39116000  0.52520800  0.69416100  1
  Na  Na2  1  0.10884000  0.52520800  0.19416100  1
  Na  Na3  1  0.89116000  0.47479200  0.80583900  1
  Na  Na4  1  0.87971900  0.65115100  0.42879600  1
  Na  Na5  1  0.12028100  0.34884900  0.57120400  1
  Na  Na6  1  0.37971900  0.34884900  0.07120400  1
  Na  Na7  1  0.62028100  0.65115100  0.92879600  1
  Zr  Zr0  1  0.60457000  0.97457900  0.29513300  1
  Zr  Zr1  1  0.39543000  0.02542100  0.70486700  1
  Zr  Zr2  1  0.10457000  0.02542100  0.20486700  1
  Zr  Zr3  1  0.89543000  0.97457900  0.79513300  1
  Fe  Fe0  1  0.37448800  0.86542600  0.05677500  1
  Fe  Fe1  1  0.62551200  0.13457400  0.94322500  1
  Fe  Fe2  1  0.87448800  0.13457400  0.44322500  1
  Fe  Fe3  1  0.12551200  0.86542600  0.55677500  1
  Si  Si0  1  0.83264000  0.32567500  0.12113800  1
  Si  Si1  1  0.16736000  0.67432500  0.87886200  1
  Si  Si2  1  0.33264000  0.67432500  0.37886200  1
  Si  Si3  1  0.66736000  0.32567500  0.62113800  1
  Si  Si4  1  0.83032900  0.77858500  0.12305400  1
  Si  Si5  1  0.16967100  0.22141500  0.87694600  1
  Si  Si6  1  0.33032900  0.22141500  0.37694600  1
  Si  Si7  1  0.66967100  0.77858500  0.62305400  1
  O  O0  1  0.26699200  0.80592200  0.23838900  1
  O  O1  1  0.73300800  0.19407800  0.76161100  1
  O  O2  1  0.76699200  0.19407800  0.26161100  1
  O  O3  1  0.23300800  0.80592200  0.73838900  1
  O  O4  1  0.98434600  0.82760600  0.15170100  1
  O  O5  1  0.01565400  0.17239400  0.84829900  1
  O  O6  1  0.48434600  0.17239400  0.34829900  1
  O  O7  1  0.51565400  0.82760600  0.65170100  1
  O  O8  1  0.47874400  0.96403900  0.88762300  1
  O  O9  1  0.52125600  0.03596100  0.11237700  1
  O  O10  1  0.97874400  0.03596100  0.61237700  1
  O  O11  1  0.02125600  0.96403900  0.38762300  1
  O  O12  1  0.82231400  0.55364500  0.11926800  1
  O  O13  1  0.17768600  0.44635500  0.88073200  1
  O  O14  1  0.32231400  0.44635500  0.38073200  1
  O  O15  1  0.67768600  0.55364500  0.61926800  1
  O  O16  1  0.48991900  0.73355700  0.38268700  1
  O  O17  1  0.51008100  0.26644300  0.61731300  1
  O  O18  1  0.98991900  0.26644300  0.11731300  1
  O  O19  1  0.01008100  0.73355700  0.88268700  1
  O  O20  1  0.73008500  0.91603000  0.48273000  1
  O  O21  1  0.26991500  0.08397000  0.51727000  1
  O  O22  1  0.23008500  0.08397000  0.01727000  1
  O  O23  1  0.76991500  0.91603000  0.98273000  1
  O  O24  1  0.25399600  0.68617400  0.00306400  1
  O  O25  1  0.74600400  0.31382600  0.99693600  1
  O  O26  1  0.75399600  0.31382600  0.49693600  1
  O  O27  1  0.24600400  0.68617400  0.50306400  1
  O  O28  1  0.73913800  0.78453900  0.24669600  1
  O  O29  1  0.26086200  0.21546100  0.75330400  1
  O  O30  1  0.23913800  0.21546100  0.25330400  1
  O  O31  1  0.76086200  0.78453900  0.74669600  1
  F  F0  1  0.49276700  0.62493100  0.11368600  1
  F  F1  1  0.50723300  0.37506900  0.88631400  1
  F  F2  1  0.99276700  0.37506900  0.38631400  1
  F  F3  1  0.00723300  0.62493100  0.61368600  1
loop_
_geom_bond_atom_site_label_1
_geom_bond_atom_site_label_2
_geom_bond_distance
_geom_bond_site_symmetry_2
Na0 O6 2.423230 1_555
Na0 O28 2.487335 1_555
Na0 O26 2.496403 1_555
Na0 O16 2.554237 1_555
Na0 O2 2.719302 1_555
Na0 O12 2.866261 1_555
Na0 O14 2.957274 1_555
Na1 O7 2.423230 1_555
Na1 O29 2.487335 1_555
Na1 O27 2.496403 1_555
Na1 O17 2.554237 1_555
Na1 O3 2.719302 1_555
Na1 O13 2.866261 1_555
Na1 O15 2.957274 1_555
Na2 O4 2.423230 1_455
Na2 O30 2.487335 1_555
Na2 O24 2.496403 1_555
Na2 O18 2.554237 1_455
Na2 O0 2.719302 1_555
Na2 O14 2.866261 1_555
Na2 O12 2.957274 1_455
Na3 O5 2.423230 1_655
Na3 O31 2.487335 1_555
Na3 O25 2.496403 1_555
Na3 O19 2.554237 1_655
Na3 O1 2.719302 1_555
Na3 O15 2.866261 1_555
Na3 O13 2.957274 1_655
Na4 O28 2.366339 1_555
Na4 O11 2.577211 1_655
Na4 O20 2.624531 1_555
Na4 O26 2.627775 1_555
Na4 O15 2.810799 1_555
Na5 O29 2.366339 1_555
Na5 O10 2.577211 1_455
Na5 O21 2.624531 1_555
Na5 O27 2.627775 1_555
Na5 O14 2.810799 1_555
Na6 O30 2.366339 1_555
Na6 O9 2.577211 1_555
Na6 O22 2.624531 1_555
Na6 O24 2.627775 1_555
Na6 O13 2.810799 1_554
Na7 O31 2.366339 1_555
Na7 O8 2.577211 1_555
Na7 O23 2.624531 1_555
Na7 O25 2.627775 1_555
Na7 O12 2.810799 1_556
Fe0 O24 1.976930 1_555
Fe0 O8 2.032740 1_554
Fe0 O22 2.076773 1_565
Fe0 O9 2.112923 1_565
Fe0 O0 2.162044 1_555
Fe1 O25 1.976930 1_555
Fe1 O9 2.032740 1_556
Fe1 O23 2.076773 1_545
Fe1 O8 2.112923 1_545
Fe1 O1 2.162044 1_555
Fe2 O26 1.976930 1_555
Fe2 O10 2.032740 1_555
Fe2 O20 2.076773 1_545
Fe2 O11 2.112923 1_645
Fe2 O2 2.162044 1_555
Fe3 O27 1.976930 1_555
Fe3 O11 2.032740 1_555
Fe3 O21 2.076773 1_565
Fe3 O10 2.112923 1_465
Fe3 O3 2.162044 1_555
O0 Si2 1.657518 1_555
O0 Zr2 2.212164 1_565
O1 Si3 1.657518 1_555
O1 Zr3 2.212164 1_545
O2 Si0 1.657518 1_555
O2 Zr0 2.212164 1_545
O3 Si1 1.657518 1_555
O3 Zr1 2.212164 1_565
O4 Si4 1.625698 1_555
O4 Zr2 2.073810 1_665
O5 Si5 1.625698 1_555
O5 Zr3 2.073810 1_445
O6 Si6 1.625698 1_555
O6 Zr0 2.073810 1_545
O7 Si7 1.625698 1_555
O7 Zr1 2.073810 1_565
O8 Zr1 2.063288 1_565
O9 Zr0 2.063288 1_545
O10 Zr3 2.063288 1_545
O11 Zr2 2.063288 1_565
O12 Si4 1.634651 1_555
O12 Si0 1.638488 1_555
O13 Si5 1.634651 1_555
O13 Si1 1.638488 1_555
O14 Si6 1.634651 1_555
O14 Si2 1.638488 1_555
O15 Si7 1.634651 1_555
O15 Si3 1.638488 1_555
O16 Si2 1.627841 1_555
O16 Zr0 2.049010 1_555
O17 Si3 1.627841 1_555
O17 Zr1 2.049010 1_555
O18 Si0 1.627841 1_555
O18 Zr2 2.049010 1_655
O19 Si1 1.627841 1_555
O19 Zr3 2.049010 1_455
O20 Si7 1.649235 1_555
O20 Zr0 2.309896 1_555
O21 Si6 1.649235 1_555
O21 Zr1 2.309896 1_555
O22 Si5 1.649235 1_554
O22 Zr2 2.309896 1_555
O23 Si4 1.649235 1_556
O23 Zr3 2.309896 1_555
O24 Si1 1.621841 1_554
O25 Si0 1.621841 1_556
O26 Si3 1.621841 1_555
O27 Si2 1.621841 1_555
O28 Si4 1.629006 1_555
O28 Zr0 2.094678 1_555
O29 Si5 1.629006 1_555
O29 Zr1 2.094678 1_555
O30 Si6 1.629006 1_555
O30 Zr2 2.094678 1_555
O31 Si7 1.629006 1_555
O31 Zr3 2.094678 1_555
F0 Fe0 2.026707 1_555
F0 Na7 2.328306 1_554
F0 Na0 2.332956 1_555
F0 Na6 2.448658 1_555
F1 Fe1 2.026707 1_555
F1 Na6 2.328306 1_556
F1 Na1 2.332956 1_555
F1 Na7 2.448658 1_555
F2 Fe2 2.026707 1_555
F2 Na5 2.328306 1_655
F2 Na2 2.332956 1_655
F2 Na4 2.448658 1_555
F3 Fe3 2.026707 1_555
F3 Na4 2.328306 1_455
F3 Na3 2.332956 1_455
F3 Na5 2.448658 1_555
