# generated using pymatgen
data_Zn3Cu3(TeO6)2
_symmetry_space_group_name_H-M   'P 1'
_cell_length_a   8.42102318
_cell_length_b   8.42102318
_cell_length_c   8.42102318
_cell_angle_alpha   109.47122063
_cell_angle_beta   109.47122063
_cell_angle_gamma   109.47122063
_symmetry_Int_Tables_number   1
_chemical_formula_structural   Zn3Cu3(TeO6)2
_chemical_formula_sum   'Zn6 Cu6 Te4 O24'
_cell_volume   459.69808833
_cell_formula_units_Z   2
loop_
 _symmetry_equiv_pos_site_id
 _symmetry_equiv_pos_as_xyz
  1  'x, y, z'
loop_
 _atom_site_type_symbol
 _atom_site_label
 _atom_site_symmetry_multiplicity
 _atom_site_fract_x
 _atom_site_fract_y
 _atom_site_fract_z
 _atom_site_occupancy
  Zn  Zn0  1  0.25000000  0.53563700  0.28563700  1
  Zn  Zn1  1  0.75000000  0.96436300  0.21436300  1
  Zn  Zn2  1  0.96436300  0.21436300  0.75000000  1
  Zn  Zn3  1  0.53563700  0.28563700  0.25000000  1
  Zn  Zn4  1  0.28563700  0.25000000  0.53563700  1
  Zn  Zn5  1  0.21436300  0.75000000  0.96436300  1
  Cu  Cu0  1  0.75000000  0.46878600  0.71878600  1
  Cu  Cu1  1  0.25000000  0.03121400  0.78121400  1
  Cu  Cu2  1  0.03121400  0.78121400  0.25000000  1
  Cu  Cu3  1  0.46878600  0.71878600  0.75000000  1
  Cu  Cu4  1  0.71878600  0.75000000  0.46878600  1
  Cu  Cu5  1  0.78121400  0.25000000  0.03121400  1
  Te  Te0  1  0.50734900  0.50000000  0.00000000  1
  Te  Te1  1  0.99265100  0.99265100  0.99265100  1
  Te  Te2  1  0.00000000  0.50734900  0.50000000  1
  Te  Te3  1  0.50000000  0.00000000  0.50734900  1
  O  O0  1  0.43813900  0.69773000  0.97605500  1
  O  O1  1  0.06186100  0.03791600  0.25959100  1
  O  O2  1  0.22167500  0.46208400  0.52394500  1
  O  O3  1  0.27832500  0.80227000  0.24040900  1
  O  O4  1  0.80227000  0.24040900  0.27832500  1
  O  O5  1  0.46208400  0.52394500  0.22167500  1
  O  O6  1  0.03791600  0.25959100  0.06186100  1
  O  O7  1  0.69773000  0.97605500  0.43813900  1
  O  O8  1  0.25959100  0.06186100  0.03791600  1
  O  O9  1  0.97605500  0.43813900  0.69773000  1
  O  O10  1  0.24040900  0.27832500  0.80227000  1
  O  O11  1  0.52394500  0.22167500  0.46208400  1
  O  O12  1  0.57019700  0.30045200  0.02172100  1
  O  O13  1  0.92980300  0.95152400  0.73025400  1
  O  O14  1  0.77873000  0.54847600  0.47827900  1
  O  O15  1  0.72127000  0.19954800  0.76974600  1
  O  O16  1  0.19954800  0.76974600  0.72127000  1
  O  O17  1  0.54847600  0.47827900  0.77873000  1
  O  O18  1  0.95152400  0.73025400  0.92980300  1
  O  O19  1  0.30045200  0.02172100  0.57019700  1
  O  O20  1  0.73025400  0.92980300  0.95152400  1
  O  O21  1  0.02172100  0.57019700  0.30045200  1
  O  O22  1  0.76974600  0.72127000  0.19954800  1
  O  O23  1  0.47827900  0.77873000  0.54847600  1
loop_
_geom_bond_atom_site_label_1
_geom_bond_atom_site_label_2
_geom_bond_distance
_geom_bond_site_symmetry_2
Cu0 O18 1.943137 1_555
Cu0 O17 1.943137 1_555
Cu0 O9 2.060056 1_555
Cu0 O11 2.060056 1_555
Cu0 O14 2.394845 1_555
Cu0 O15 2.394854 1_555
Cu1 O16 1.943135 1_545
Cu1 O19 1.943141 1_555
Cu1 O10 2.060056 1_555
Cu1 O8 2.060056 1_556
Cu1 O13 2.394845 1_445
Cu1 O12 2.394848 1_556
Cu2 O22 1.943135 1_455
Cu2 O21 1.943141 1_555
Cu2 O3 2.060056 1_555
Cu2 O1 2.060056 1_565
Cu2 O18 2.394845 1_454
Cu2 O19 2.394848 1_565
Cu3 O20 1.943137 1_555
Cu3 O23 1.943137 1_555
Cu3 O0 2.060056 1_555
Cu3 O2 2.060056 1_555
Cu3 O17 2.394845 1_555
Cu3 O16 2.394854 1_555
Cu4 O13 1.943137 1_555
Cu4 O14 1.943137 1_555
Cu4 O7 2.060056 1_555
Cu4 O5 2.060056 1_555
Cu4 O23 2.394845 1_555
Cu4 O22 2.394854 1_555
Cu5 O15 1.943135 1_554
Cu5 O12 1.943141 1_555
Cu5 O4 2.060056 1_555
Cu5 O6 2.060056 1_655
Cu5 O20 2.394845 1_544
Cu5 O21 2.394848 1_655
O0 Te0 1.986280 1_556
O0 Zn5 2.052478 1_555
O0 Zn1 2.348842 1_556
O1 Te1 1.986280 1_444
O1 Zn4 2.052478 1_555
O1 Zn1 2.348842 1_445
O2 Te2 1.986280 1_555
O2 Zn4 2.052478 1_555
O2 Zn0 2.348842 1_555
O3 Te3 1.986280 1_565
O3 Zn5 2.052478 1_554
O3 Zn0 2.348842 1_555
O4 Te2 1.986280 1_655
O4 Zn1 2.052478 1_545
O4 Zn3 2.348842 1_555
O5 Te0 1.986280 1_555
O5 Zn0 2.052478 1_555
O5 Zn3 2.348842 1_555
O6 Te1 1.986280 1_444
O6 Zn0 2.052478 1_555
O6 Zn2 2.348842 1_454
O7 Te3 1.986280 1_565
O7 Zn1 2.052478 1_555
O7 Zn2 2.348842 1_565
O8 Te1 1.986280 1_444
O8 Zn3 2.052478 1_555
O8 Zn5 2.348842 1_544
O9 Te2 1.986280 1_655
O9 Zn2 2.052478 1_555
O9 Zn5 2.348842 1_655
O10 Te0 1.986280 1_556
O10 Zn2 2.052478 1_455
O10 Zn4 2.348842 1_555
O11 Te3 1.986280 1_555
O11 Zn3 2.052478 1_555
O11 Zn4 2.348842 1_555
O12 Te0 1.967375 1_555
O12 Zn3 2.074685 1_555
O13 Te1 1.967383 1_555
O13 Zn2 2.074682 1_565
O14 Te2 1.967383 1_655
O14 Zn3 2.074682 1_555
O15 Te3 1.967382 1_555
O15 Zn2 2.074680 1_555
O16 Te2 1.967382 1_555
O16 Zn5 2.074680 1_555
O17 Te0 1.967383 1_556
O17 Zn4 2.074682 1_555
O18 Te1 1.967383 1_555
O18 Zn5 2.074682 1_655
O19 Te3 1.967375 1_555
O19 Zn4 2.074685 1_555
O20 Te1 1.967383 1_555
O20 Zn1 2.074682 1_556
O21 Te2 1.967375 1_555
O21 Zn0 2.074685 1_555
O22 Te0 1.967382 1_555
O22 Zn1 2.074680 1_555
O23 Te3 1.967383 1_565
O23 Zn0 2.074682 1_555
