# generated using pymatgen
data_CoSiMo
_symmetry_space_group_name_H-M   'P 1'
_cell_length_a   4.77074882
_cell_length_b   4.77074882
_cell_length_c   7.45239600
_cell_angle_alpha   90.00000000
_cell_angle_beta   90.00000000
_cell_angle_gamma   118.89802847
_symmetry_Int_Tables_number   1
_chemical_formula_structural   CoSiMo
_chemical_formula_sum   'Co4 Si4 Mo4'
_cell_volume   148.49636754
_cell_formula_units_Z   4
loop_
 _symmetry_equiv_pos_site_id
 _symmetry_equiv_pos_as_xyz
  1  'x, y, z'
loop_
 _atom_site_type_symbol
 _atom_site_label
 _atom_site_symmetry_multiplicity
 _atom_site_fract_x
 _atom_site_fract_y
 _atom_site_fract_z
 _atom_site_occupancy
  Co  Co0  1  0.00205200  0.99794800  0.26235900  1
  Co  Co1  1  0.00205200  0.99794800  0.73764100  1
  Co  Co2  1  0.16188900  0.35209600  0.00000000  1
  Co  Co3  1  0.64790400  0.83811100  0.00000000  1
  Si  Si0  1  0.16045000  0.83955000  0.00000000  1
  Si  Si1  1  0.83429800  0.65898900  0.50000000  1
  Si  Si2  1  0.34101100  0.16570200  0.50000000  1
  Si  Si3  1  0.83232500  0.16767500  0.50000000  1
  Mo  Mo0  1  0.33842200  0.66157800  0.68316300  1
  Mo  Mo1  1  0.67057800  0.32942200  0.81270400  1
  Mo  Mo2  1  0.67057800  0.32942200  0.18729600  1
  Mo  Mo3  1  0.33842200  0.66157800  0.31683700  1
loop_
_geom_bond_atom_site_label_1
_geom_bond_atom_site_label_2
_geom_bond_distance
_geom_bond_site_symmetry_2
Co0 Si3 2.254202 1_465
Co0 Si1 2.267393 1_455
Co0 Si2 2.267393 1_565
Co0 Si0 2.348794 1_555
Co0 Co2 2.452279 1_565
Co0 Co3 2.452279 1_455
Co0 Mo2 2.780547 1_465
Co0 Mo3 2.793584 1_555
Co0 Mo3 2.802357 1_565
Co0 Mo3 2.802357 1_455
Co0 Mo2 2.848000 1_565
Co0 Mo2 2.848000 1_455
Co1 Si3 2.254202 1_465
Co1 Si1 2.267393 1_455
Co1 Si2 2.267393 1_565
Co1 Si0 2.348794 1_556
Co1 Co2 2.452279 1_566
Co1 Co3 2.452279 1_456
Co1 Mo1 2.780547 1_465
Co1 Mo0 2.793584 1_555
Co1 Mo0 2.802357 1_455
Co1 Mo0 2.802357 1_565
Co1 Mo1 2.848000 1_565
Co1 Mo1 2.848000 1_455
Co2 Si0 2.328846 1_555
Co2 Co3 2.357168 1_555
Co2 Si0 2.441918 1_545
Co2 Co3 2.492822 1_445
Co2 Mo2 2.684936 1_455
Co2 Mo1 2.684936 1_454
Co2 Mo3 2.694931 1_555
Co2 Mo0 2.694931 1_554
Co2 Mo2 2.846609 1_555
Co2 Mo1 2.846609 1_554
Co3 Si0 2.328846 1_555
Co3 Si0 2.441918 1_655
Co3 Mo2 2.684936 1_565
Co3 Mo1 2.684936 1_564
Co3 Mo3 2.694931 1_555
Co3 Mo0 2.694931 1_554
Co3 Mo1 2.846609 1_554
Co3 Mo2 2.846609 1_555
Si1 Si3 2.339401 1_555
Si1 Si2 2.392437 1_555
Si1 Si3 2.431376 1_565
Si1 Si2 2.457553 1_665
Si2 Si3 2.339401 1_555
Si2 Si3 2.431376 1_455
Mo0 Mo3 2.730006 1_555
Mo0 Si1 2.736451 1_555
Mo0 Si2 2.736451 1_555
Mo0 Si1 2.760242 1_455
Mo0 Si2 2.760242 1_565
Mo0 Si0 2.777373 1_556
Mo0 Si3 2.783226 1_565
Mo0 Si3 2.783226 1_455
Mo0 Mo1 2.895005 1_555
Mo0 Mo1 2.952061 1_455
Mo0 Mo1 2.952061 1_565
Mo1 Si3 2.682749 1_555
Mo1 Si1 2.706649 1_555
Mo1 Si2 2.706649 1_555
Mo1 Mo2 2.791608 1_556
Mo1 Si0 2.799249 1_546
Mo1 Si0 2.799249 1_656
Mo2 Si3 2.682749 1_555
Mo2 Si1 2.706649 1_555
Mo2 Si2 2.706649 1_555
Mo2 Si0 2.799249 1_545
Mo2 Si0 2.799249 1_655
Mo2 Mo3 2.895005 1_555
Mo2 Mo3 2.952061 1_655
Mo2 Mo3 2.952061 1_545
Mo3 Si1 2.736451 1_555
Mo3 Si2 2.736451 1_555
Mo3 Si2 2.760242 1_565
Mo3 Si1 2.760242 1_455
Mo3 Si0 2.777373 1_555
Mo3 Si3 2.783226 1_455
Mo3 Si3 2.783226 1_565
