# generated using pymatgen
data_Na3Mn
_symmetry_space_group_name_H-M   'P 1'
_cell_length_a   6.12434337
_cell_length_b   6.12434337
_cell_length_c   6.12434337
_cell_angle_alpha   134.19093445
_cell_angle_beta   134.19093445
_cell_angle_gamma   66.78993761
_symmetry_Int_Tables_number   1
_chemical_formula_structural   Na3Mn
_chemical_formula_sum   'Na3 Mn1'
_cell_volume   116.20094249
_cell_formula_units_Z   1
loop_
 _symmetry_equiv_pos_site_id
 _symmetry_equiv_pos_as_xyz
  1  'x, y, z'
loop_
 _atom_site_type_symbol
 _atom_site_label
 _atom_site_symmetry_multiplicity
 _atom_site_fract_x
 _atom_site_fract_y
 _atom_site_fract_z
 _atom_site_occupancy
  Na  Na0  1  0.75000000  0.25000000  0.50000000  1
  Na  Na1  1  0.25000000  0.75000000  0.50000000  1
  Na  Na2  1  0.50000000  0.50000000  0.00000000  1
  Mn  Mn0  1  0.00000000  0.00000000  0.00000000  1
loop_
_geom_bond_atom_site_label_1
_geom_bond_atom_site_label_2
_geom_bond_distance
_geom_bond_site_symmetry_2
Na0 Na1 3.370884 1_555
Na0 Na1 3.370884 1_656
Na0 Na1 3.370884 1_544
Na0 Na1 3.370884 1_645
Na0 Na2 3.495370 1_656
Na0 Na2 3.495370 1_555
Na0 Na2 3.495370 1_545
Na0 Na2 3.495370 1_556
Na1 Na2 3.495370 1_455
Na1 Na2 3.495370 1_566
Na1 Na2 3.495370 1_556
Na1 Na2 3.495370 1_555
Mn0 Na2 3.370884 1_455
Mn0 Na2 3.370884 1_556
Mn0 Na2 3.370884 1_545
Mn0 Na2 3.370884 1_444
Mn0 Na0 3.495370 1_555
Mn0 Na1 3.495370 1_444
Mn0 Na1 3.495370 1_555
Mn0 Na0 3.495370 1_444
Mn0 Na0 3.495370 1_455
Mn0 Na0 3.495370 1_454
Mn0 Na1 3.495370 1_545
Mn0 Na1 3.495370 1_544
