# generated using pymatgen
data_CoH6(NCl)2
_symmetry_space_group_name_H-M   'P 1'
_cell_length_a   3.83720818
_cell_length_b   5.95378319
_cell_length_c   5.95378319
_cell_angle_alpha   88.15845923
_cell_angle_beta   88.10254492
_cell_angle_gamma   91.89745508
_symmetry_Int_Tables_number   1
_chemical_formula_structural   CoH6(NCl)2
_chemical_formula_sum   'Co1 H6 N2 Cl2'
_cell_volume   135.79523746
_cell_formula_units_Z   1
loop_
 _symmetry_equiv_pos_site_id
 _symmetry_equiv_pos_as_xyz
  1  'x, y, z'
loop_
 _atom_site_type_symbol
 _atom_site_label
 _atom_site_symmetry_multiplicity
 _atom_site_fract_x
 _atom_site_fract_y
 _atom_site_fract_z
 _atom_site_occupancy
  Co  Co0  1  0.00000000  0.99916600  0.99916600  1
  H  H0  1  0.79004500  0.80895300  0.38448800  1
  H  H1  1  0.20995500  0.38448800  0.80895300  1
  H  H2  1  0.19746200  0.74549900  0.34672800  1
  H  H3  1  0.10798500  0.21357400  0.60627400  1
  H  H4  1  0.80253800  0.34672800  0.74549900  1
  H  H5  1  0.89201500  0.60627400  0.21357400  1
  N  N0  1  0.02994000  0.26493700  0.76223400  1
  N  N1  1  0.97006000  0.76223400  0.26493700  1
  Cl  Cl0  1  0.50000000  0.80864400  0.80864400  1
  Cl  Cl1  1  0.50000000  0.19550300  0.19550300  1
loop_
_geom_bond_atom_site_label_1
_geom_bond_atom_site_label_2
_geom_bond_distance
_geom_bond_site_symmetry_2
Co0 N0 2.083432 1_565
Co0 N1 2.083432 1_456
H0 N1 1.026661 1_555
H1 N0 1.026661 1_555
H2 N1 1.019437 1_455
H3 N0 1.025334 1_555
H4 N0 1.019437 1_655
H5 N1 1.025334 1_555
Cl0 Co0 2.517366 1_555
Cl0 Co0 2.517366 1_655
Cl1 Co0 2.549851 1_644
Cl1 Co0 2.549851 1_544
