# generated using pymatgen
data_HfMg14FeO16
_symmetry_space_group_name_H-M   'P 1'
_cell_length_a   8.64765254
_cell_length_b   8.68969140
_cell_length_c   4.28943170
_cell_angle_alpha   90.00000000
_cell_angle_beta   90.00000000
_cell_angle_gamma   90.00000000
_symmetry_Int_Tables_number   1
_chemical_formula_structural   HfMg14FeO16
_chemical_formula_sum   'Hf1 Mg14 Fe1 O16'
_cell_volume   322.33119773
_cell_formula_units_Z   1
loop_
 _symmetry_equiv_pos_site_id
 _symmetry_equiv_pos_as_xyz
  1  'x, y, z'
loop_
 _atom_site_type_symbol
 _atom_site_label
 _atom_site_symmetry_multiplicity
 _atom_site_fract_x
 _atom_site_fract_y
 _atom_site_fract_z
 _atom_site_occupancy
  Hf  Hf0  1  0.00000000  0.50000000  -0.00000000  1
  Mg  Mg0  1  0.50000000  0.00000000  -0.00000000  1
  Mg  Mg1  1  0.50000000  0.50000000  -0.00000000  1
  Mg  Mg2  1  0.00000000  0.23357630  0.50000000  1
  Mg  Mg3  1  0.00000000  0.76642370  0.50000000  1
  Mg  Mg4  1  0.50000000  0.24773914  0.50000000  1
  Mg  Mg5  1  0.50000000  0.75226086  0.50000000  1
  Mg  Mg6  1  0.25046485  0.00000000  0.50000000  1
  Mg  Mg7  1  0.25768928  0.50000000  0.50000000  1
  Mg  Mg8  1  0.74953515  0.00000000  0.50000000  1
  Mg  Mg9  1  0.74231072  0.50000000  0.50000000  1
  Mg  Mg10  1  0.25389056  0.24058497  -0.00000000  1
  Mg  Mg11  1  0.25389056  0.75941503  -0.00000000  1
  Mg  Mg12  1  0.74610944  0.24058497  0.00000000  1
  Mg  Mg13  1  0.74610944  0.75941503  0.00000000  1
  Fe  Fe0  1  0.00000000  0.00000000  -0.00000000  1
  O  O0  1  0.26458079  0.00000000  0.00000000  1
  O  O1  1  0.25483588  0.50000000  0.00000000  1
  O  O2  1  0.73541921  0.00000000  -0.00000000  1
  O  O3  1  0.74516412  0.50000000  -0.00000000  1
  O  O4  1  0.24856973  0.25033586  0.50000000  1
  O  O5  1  0.24856973  0.74966414  0.50000000  1
  O  O6  1  0.75143027  0.25033586  0.50000000  1
  O  O7  1  0.75143027  0.74966414  0.50000000  1
  O  O8  1  0.00000000  0.00000000  0.50000000  1
  O  O9  1  0.00000000  0.50000000  0.50000000  1
  O  O10  1  0.50000000  0.00000000  0.50000000  1
  O  O11  1  0.50000000  0.50000000  0.50000000  1
  O  O12  1  0.00000000  0.26435576  0.00000000  1
  O  O13  1  0.00000000  0.73564424  -0.00000000  1
  O  O14  1  0.50000000  0.25307488  -0.00000000  1
  O  O15  1  0.50000000  0.74692512  -0.00000000  1
loop_
_geom_bond_atom_site_label_1
_geom_bond_atom_site_label_2
_geom_bond_distance
_geom_bond_site_symmetry_2
Hf0 O12 2.047676 1_555
Hf0 O13 2.047676 1_555
Hf0 O9 2.144716 1_554
Hf0 O9 2.144716 1_555
Hf0 O1 2.203732 1_555
Hf0 O3 2.203732 1_455
Mg0 O0 2.035824 1_555
Mg0 O2 2.035824 1_555
Mg0 O10 2.144716 1_554
Mg0 O10 2.144716 1_555
Mg0 O15 2.199143 1_545
Mg0 O14 2.199143 1_555
Mg1 O3 2.120094 1_555
Mg1 O1 2.120094 1_555
Mg1 O11 2.144716 1_555
Mg1 O11 2.144716 1_554
Mg1 O14 2.145703 1_555
Mg1 O15 2.145703 1_555
Mg2 O8 2.029706 1_555
Mg2 O6 2.154473 1_455
Mg2 O4 2.154473 1_555
Mg2 O12 2.161329 1_556
Mg2 O12 2.161329 1_555
Mg2 O9 2.315140 1_555
Mg3 O8 2.029706 1_565
Mg3 O7 2.154473 1_455
Mg3 O5 2.154473 1_555
Mg3 O13 2.161329 1_556
Mg3 O13 2.161329 1_555
Mg3 O9 2.315140 1_555
Mg4 O14 2.145217 1_555
Mg4 O14 2.145217 1_556
Mg4 O10 2.152777 1_555
Mg4 O4 2.174399 1_555
Mg4 O6 2.174399 1_555
Mg4 O11 2.192069 1_555
Mg5 O15 2.145217 1_556
Mg5 O15 2.145217 1_555
Mg5 O10 2.152777 1_565
Mg5 O5 2.174399 1_555
Mg5 O7 2.174399 1_555
Mg5 O11 2.192069 1_555
Mg6 O0 2.148187 1_555
Mg6 O0 2.148187 1_556
Mg6 O10 2.157893 1_555
Mg6 O8 2.165933 1_555
Mg6 O5 2.175403 1_545
Mg6 O4 2.175403 1_555
Mg7 O11 2.095419 1_555
Mg7 O1 2.144858 1_555
Mg7 O1 2.144858 1_556
Mg7 O4 2.170937 1_555
Mg7 O5 2.170937 1_555
Mg7 O9 2.228407 1_555
Mg8 O2 2.148187 1_556
Mg8 O2 2.148187 1_555
Mg8 O10 2.157893 1_555
Mg8 O8 2.165933 1_655
Mg8 O7 2.175403 1_545
Mg8 O6 2.175403 1_555
Mg9 O11 2.095419 1_555
Mg9 O3 2.144858 1_556
Mg9 O3 2.144858 1_555
Mg9 O6 2.170937 1_555
Mg9 O7 2.170937 1_555
Mg9 O9 2.228407 1_655
Mg10 O0 2.092652 1_555
Mg10 O14 2.131035 1_555
Mg10 O4 2.146882 1_554
Mg10 O4 2.146882 1_555
Mg10 O12 2.205253 1_555
Mg10 O1 2.254251 1_555
Mg11 O0 2.092652 1_565
Mg11 O15 2.131035 1_555
Mg11 O5 2.146882 1_555
Mg11 O5 2.146882 1_554
Mg11 O13 2.205253 1_555
Mg11 O1 2.254251 1_555
Mg12 O2 2.092652 1_555
Mg12 O14 2.131035 1_555
Mg12 O6 2.146882 1_555
Mg12 O6 2.146882 1_554
Mg12 O12 2.205253 1_655
Mg12 O3 2.254251 1_555
Mg13 O2 2.092652 1_565
Mg13 O15 2.131035 1_555
Mg13 O7 2.146882 1_555
Mg13 O7 2.146882 1_554
Mg13 O13 2.205253 1_655
Mg13 O3 2.254251 1_555
Fe0 O8 2.144716 1_555
Fe0 O8 2.144716 1_554
Fe0 O0 2.288003 1_555
Fe0 O2 2.288003 1_455
Fe0 O13 2.297170 1_545
Fe0 O12 2.297170 1_555
