# generated using pymatgen
data_TbThRe4
_symmetry_space_group_name_H-M   'P 1'
_cell_length_a   5.42783525
_cell_length_b   5.42783525
_cell_length_c   9.16348100
_cell_angle_alpha   90.00000000
_cell_angle_beta   90.00000000
_cell_angle_gamma   119.99999088
_symmetry_Int_Tables_number   1
_chemical_formula_structural   TbThRe4
_chemical_formula_sum   'Tb2 Th2 Re8'
_cell_volume   233.79998012
_cell_formula_units_Z   2
loop_
 _symmetry_equiv_pos_site_id
 _symmetry_equiv_pos_as_xyz
  1  'x, y, z'
loop_
 _atom_site_type_symbol
 _atom_site_label
 _atom_site_symmetry_multiplicity
 _atom_site_fract_x
 _atom_site_fract_y
 _atom_site_fract_z
 _atom_site_occupancy
  Tb  Tb0  1  0.66666700  0.33333300  0.43814900  1
  Tb  Tb1  1  0.33333300  0.66666700  0.56185100  1
  Th  Th0  1  0.33333300  0.66666700  0.93907900  1
  Th  Th1  1  0.66666700  0.33333300  0.06092100  1
  Re  Re0  1  0.00000000  0.00000000  0.50000000  1
  Re  Re1  1  0.00000000  0.00000000  0.00000000  1
  Re  Re2  1  0.65980600  0.82990300  0.25751900  1
  Re  Re3  1  0.17009700  0.82990300  0.25751900  1
  Re  Re4  1  0.17009700  0.34019400  0.25751900  1
  Re  Re5  1  0.34019400  0.17009700  0.74248100  1
  Re  Re6  1  0.82990300  0.17009700  0.74248100  1
  Re  Re7  1  0.82990300  0.65980600  0.74248100  1
loop_
_geom_bond_atom_site_label_1
_geom_bond_atom_site_label_2
_geom_bond_distance
_geom_bond_site_symmetry_2
Tb0 Tb1 3.332471 1_545
Tb0 Tb1 3.332471 1_655
Tb0 Tb1 3.332479 1_555
Tb0 Th1 3.456722 1_555
Tb1 Th0 3.456722 1_555
Th0 Th1 3.326712 1_566
Th0 Th1 3.326712 1_456
Th0 Th1 3.326720 1_556
Re0 Re6 2.737585 1_455
Re0 Re3 2.737585 1_545
Re0 Re7 2.737585 1_445
Re0 Re5 2.737585 1_555
Re0 Re2 2.737585 1_445
Re0 Re4 2.737585 1_555
Re0 Tb1 3.184599 1_545
Re0 Tb0 3.184599 1_455
Re0 Tb1 3.184604 1_555
Re0 Tb1 3.184604 1_445
Re0 Tb0 3.184604 1_555
Re0 Tb0 3.184604 1_445
Re1 Re3 2.850568 1_545
Re1 Re6 2.850568 1_454
Re1 Re4 2.850568 1_555
Re1 Re2 2.850568 1_445
Re1 Re5 2.850568 1_554
Re1 Re7 2.850568 1_444
Re1 Th1 3.183094 1_455
Re1 Th0 3.183094 1_544
Re1 Th1 3.183099 1_555
Re1 Th1 3.183099 1_445
Re1 Th0 3.183099 1_444
Re1 Th0 3.183099 1_554
Re2 Re3 2.658060 1_555
Re2 Re4 2.658060 1_555
Re2 Re3 2.769775 1_655
Re2 Re4 2.769776 1_665
Re2 Tb0 3.179003 1_565
Re2 Tb0 3.179008 1_555
Re2 Tb1 3.183107 1_555
Re2 Th1 3.257584 1_565
Re2 Th1 3.257589 1_555
Re2 Th0 3.296958 1_554
Re3 Re4 2.658060 1_555
Re3 Re4 2.769775 1_565
Re3 Tb0 3.179006 1_455
Re3 Tb0 3.179006 1_565
Re3 Tb1 3.183105 1_555
Re3 Th1 3.257587 1_455
Re3 Th1 3.257587 1_565
Re3 Th0 3.296956 1_554
Re4 Tb0 3.179003 1_455
Re4 Tb0 3.179008 1_555
Re4 Tb1 3.183107 1_555
Re4 Th1 3.257584 1_455
Re4 Th1 3.257589 1_555
Re4 Th0 3.296958 1_554
Re5 Re6 2.658060 1_555
Re5 Re7 2.658060 1_555
Re5 Re6 2.769775 1_455
Re5 Re7 2.769776 1_445
Re5 Tb1 3.179003 1_545
Re5 Tb1 3.179008 1_555
Re5 Tb0 3.183107 1_555
Re5 Th0 3.257584 1_545
Re5 Th0 3.257589 1_555
Re5 Th1 3.296958 1_556
Re6 Re7 2.658060 1_555
Re6 Re7 2.769775 1_545
Re6 Tb1 3.179006 1_545
Re6 Tb1 3.179006 1_655
Re6 Tb0 3.183105 1_555
Re6 Th0 3.257587 1_655
Re6 Th0 3.257587 1_545
Re6 Th1 3.296956 1_556
Re7 Tb1 3.179003 1_655
Re7 Tb1 3.179008 1_555
Re7 Tb0 3.183107 1_555
Re7 Th0 3.257584 1_655
Re7 Th0 3.257589 1_555
Re7 Th1 3.296958 1_556
