# generated using pymatgen
data_Sr2LaBiO6
_symmetry_space_group_name_H-M   'P 1'
_cell_length_a   6.05209991
_cell_length_b   6.21867757
_cell_length_c   8.67374762
_cell_angle_alpha   89.99961497
_cell_angle_beta   89.69085750
_cell_angle_gamma   89.99888675
_symmetry_Int_Tables_number   1
_chemical_formula_structural   Sr2LaBiO6
_chemical_formula_sum   'Sr4 La2 Bi2 O12'
_cell_volume   326.44091586
_cell_formula_units_Z   2
loop_
 _symmetry_equiv_pos_site_id
 _symmetry_equiv_pos_as_xyz
  1  'x, y, z'
loop_
 _atom_site_type_symbol
 _atom_site_label
 _atom_site_symmetry_multiplicity
 _atom_site_fract_x
 _atom_site_fract_y
 _atom_site_fract_z
 _atom_site_occupancy
  Sr  Sr0  1  0.51263476  0.54819407  0.25054800  1
  Sr  Sr1  1  0.98733619  0.04819190  0.24941461  1
  Sr  Sr2  1  0.48736524  0.45180593  0.74945200  1
  Sr  Sr3  1  0.01266381  0.95180810  0.75058539  1
  La  La0  1  0.50000000  -0.00000000  -0.00000000  1
  La  La1  1  0.00000000  0.50000000  0.50000000  1
  Bi  Bi0  1  0.00000000  0.50000000  -0.00000000  1
  Bi  Bi1  1  0.50000000  -0.00000000  0.50000000  1
  O  O0  1  0.18243540  0.21324146  0.94183163  1
  O  O1  1  0.31757307  0.71319834  0.55818401  1
  O  O2  1  0.81756460  0.78675854  0.05816837  1
  O  O3  1  0.68242693  0.28680166  0.44181599  1
  O  O4  1  0.28686677  0.68918160  0.94625392  1
  O  O5  1  0.21309150  0.18917151  0.55376614  1
  O  O6  1  0.71313323  0.31081840  0.05374608  1
  O  O7  1  0.78690850  0.81082849  0.44623386  1
  O  O8  1  0.39458009  0.95581015  0.26462310  1
  O  O9  1  0.10537013  0.45579421  0.23539798  1
  O  O10  1  0.60541991  0.04418985  0.73537690  1
  O  O11  1  0.89462987  0.54420579  0.76460202  1
loop_
_geom_bond_atom_site_label_1
_geom_bond_atom_site_label_2
_geom_bond_distance
_geom_bond_site_symmetry_2
La0 O6 2.371454 1_555
La0 O4 2.371454 1_544
La0 O0 2.391072 1_554
La0 O2 2.391072 1_545
La0 O10 2.394797 1_554
La0 O8 2.394797 1_545
La1 O7 2.371357 1_455
La1 O5 2.371357 1_555
La1 O3 2.391039 1_455
La1 O1 2.391039 1_555
La1 O11 2.394556 1_455
La1 O9 2.394556 1_555
Bi0 O4 2.146374 1_554
Bi0 O6 2.146374 1_455
Bi0 O0 2.155822 1_554
Bi0 O2 2.155822 1_455
Bi0 O11 2.159898 1_454
Bi0 O9 2.159898 1_555
Bi1 O7 2.146547 1_545
Bi1 O5 2.146547 1_555
Bi1 O1 2.156079 1_545
Bi1 O3 2.156079 1_555
Bi1 O10 2.159809 1_555
Bi1 O8 2.159809 1_545
O0 Sr3 2.543426 1_545
O0 Sr2 2.891008 1_555
O0 Sr1 3.087290 1_456
O1 Sr2 2.543397 1_555
O1 Sr3 2.891156 1_555
O1 Sr0 3.087504 1_555
O2 Sr1 2.543426 1_565
O2 Sr0 2.891008 1_555
O2 Sr3 3.087290 1_654
O3 Sr0 2.543397 1_555
O3 Sr1 2.891156 1_555
O3 Sr2 3.087504 1_555
O4 Sr2 2.557925 1_555
O4 Sr3 2.886508 1_555
O4 Sr0 3.104961 1_556
O5 Sr3 2.557793 1_545
O5 Sr2 2.886922 1_555
O5 Sr1 3.105363 1_455
O6 Sr0 2.557925 1_555
O6 Sr1 2.886508 1_555
O6 Sr2 3.104961 1_554
O7 Sr1 2.557793 1_565
O7 Sr0 2.886922 1_555
O7 Sr3 3.105363 1_655
O8 Sr1 2.534866 1_465
O8 Sr0 2.636239 1_555
O9 Sr0 2.535007 1_555
O9 Sr1 2.636125 1_455
O10 Sr3 2.534866 1_645
O10 Sr2 2.636239 1_555
O11 Sr2 2.535007 1_555
O11 Sr3 2.636125 1_655
