# generated using pymatgen
data_CaMn9CdO10
_symmetry_space_group_name_H-M   'P 1'
_cell_length_a   5.65897689
_cell_length_b   9.45329369
_cell_length_c   5.77121864
_cell_angle_alpha   73.30917627
_cell_angle_beta   98.15365099
_cell_angle_gamma   86.47189752
_symmetry_Int_Tables_number   1
_chemical_formula_structural   CaMn9CdO10
_chemical_formula_sum   'Ca1 Mn9 Cd1 O10'
_cell_volume   291.03210304
_cell_formula_units_Z   1
loop_
 _symmetry_equiv_pos_site_id
 _symmetry_equiv_pos_as_xyz
  1  'x, y, z'
loop_
 _atom_site_type_symbol
 _atom_site_label
 _atom_site_symmetry_multiplicity
 _atom_site_fract_x
 _atom_site_fract_y
 _atom_site_fract_z
 _atom_site_occupancy
  Ca  Ca0  1  0.87940800  0.47749700  0.33690800  1
  Mn  Mn0  1  0.39819600  0.31184700  0.34385700  1
  Mn  Mn1  1  0.04041700  0.06283600  0.86672800  1
  Mn  Mn2  1  0.38930000  0.96554000  0.42046800  1
  Mn  Mn3  1  0.23976200  0.70466000  0.14222400  1
  Mn  Mn4  1  0.90879500  0.14957000  0.34879600  1
  Mn  Mn5  1  0.49015800  0.21859600  0.86628400  1
  Mn  Mn6  1  0.43292100  0.56788000  0.74296400  1
  Mn  Mn7  1  0.97824400  0.39103200  0.86430900  1
  Mn  Mn8  1  0.90582400  0.77954800  0.56962800  1
  Cd  Cd0  1  0.62721700  0.83578700  0.00556000  1
  O  O0  1  0.72015800  0.97741000  0.29800900  1
  O  O1  1  0.68371900  0.33896000  0.09634100  1
  O  O2  1  0.77601900  0.24031000  0.62996700  1
  O  O3  1  0.75971600  0.58097000  0.61209200  1
  O  O4  1  0.19716200  0.16750300  0.11556600  1
  O  O5  1  0.24200100  0.76274200  0.46311100  1
  O  O6  1  0.97814000  0.85254100  0.87981700  1
  O  O7  1  0.29352800  0.10176200  0.62462000  1
  O  O8  1  0.25382100  0.40703900  0.61957200  1
  O  O9  1  0.18644500  0.50440800  0.08175000  1
loop_
_geom_bond_atom_site_label_1
_geom_bond_atom_site_label_2
_geom_bond_distance
_geom_bond_site_symmetry_2
Ca0 O3 2.248046 1_555
Ca0 O1 2.378199 1_555
Ca0 O8 2.411609 1_655
Ca0 O9 2.411873 1_655
Ca0 O2 2.548356 1_555
Mn0 O9 2.161804 1_555
Mn0 O8 2.260537 1_555
Mn0 O1 2.283043 1_555
Mn0 O7 2.342880 1_555
Mn0 O4 2.385496 1_555
Mn0 O2 2.436070 1_555
Mn1 O6 2.022250 1_445
Mn1 O4 2.095490 1_556
Mn1 O7 2.115796 1_555
Mn1 O2 2.171355 1_455
Mn2 O7 2.075318 1_565
Mn2 O0 2.091242 1_555
Mn2 O5 2.101084 1_555
Mn2 O4 2.279416 1_565
Mn3 O9 2.053383 1_555
Mn3 O5 2.075928 1_555
Mn3 O6 2.081549 1_454
Mn4 O0 2.067176 1_545
Mn4 O1 2.155238 1_555
Mn4 O2 2.235979 1_555
Mn4 O4 2.242659 1_655
Mn4 O7 2.441507 1_655
Mn5 O8 2.167733 1_555
Mn5 O1 2.205887 1_556
Mn5 O7 2.235855 1_555
Mn5 O2 2.241641 1_555
Mn5 O4 2.329858 1_556
Mn6 O3 2.092000 1_555
Mn6 O8 2.110234 1_555
Mn6 O5 2.172606 1_555
Mn6 O9 2.516153 1_556
Mn6 O1 2.668794 1_556
Mn7 O3 2.141695 1_555
Mn7 O9 2.149474 1_656
Mn7 O8 2.231798 1_655
Mn7 O1 2.273516 1_556
Mn7 O4 2.347497 1_656
Mn7 O2 2.457106 1_555
Mn8 O3 2.062009 1_555
Mn8 O5 2.091163 1_655
Mn8 O6 2.093993 1_555
Mn8 O0 2.160210 1_555
Cd0 O6 2.208358 1_554
Cd0 O0 2.459769 1_555
