# generated using pymatgen
data_Rb2PdC2
_symmetry_space_group_name_H-M   'P 1'
_cell_length_a   5.38867535
_cell_length_b   5.38867535
_cell_length_c   5.27188182
_cell_angle_alpha   90.00000000
_cell_angle_beta   90.00000000
_cell_angle_gamma   120.00001214
_symmetry_Int_Tables_number   1
_chemical_formula_structural   Rb2PdC2
_chemical_formula_sum   'Rb2 Pd1 C2'
_cell_volume   132.57458722
_cell_formula_units_Z   1
loop_
 _symmetry_equiv_pos_site_id
 _symmetry_equiv_pos_as_xyz
  1  'x, y, z'
loop_
 _atom_site_type_symbol
 _atom_site_label
 _atom_site_symmetry_multiplicity
 _atom_site_fract_x
 _atom_site_fract_y
 _atom_site_fract_z
 _atom_site_occupancy
  Rb  Rb0  1  0.33333300  0.66666700  0.28045002  1
  Rb  Rb1  1  0.66666700  0.33333300  0.71954998  1
  Pd  Pd0  1  0.00000000  -0.00000000  0.00000000  1
  C  C0  1  -0.00000000  -0.00000000  0.61987745  1
  C  C1  1  0.00000000  -0.00000000  0.38012255  1
loop_
_geom_bond_atom_site_label_1
_geom_bond_atom_site_label_2
_geom_bond_distance
_geom_bond_site_symmetry_2
Pd0 Rb0 3.444592 1_545
Pd0 Rb1 3.444592 1_454
Pd0 Rb1 3.444596 1_444
Pd0 Rb1 3.444596 1_554
Pd0 Rb0 3.444596 1_445
Pd0 Rb0 3.444596 1_555
C0 C1 1.263959 1_555
C0 Pd0 2.003961 1_556
C0 Rb1 3.155213 1_455
C0 Rb1 3.155217 1_555
C0 Rb1 3.155217 1_445
C1 Pd0 2.003961 1_555
C1 Rb0 3.155213 1_545
C1 Rb0 3.155217 1_555
C1 Rb0 3.155217 1_445
