# generated using pymatgen
data_TlPd2
_symmetry_space_group_name_H-M   'P 1'
_cell_length_a   4.26706000
_cell_length_b   5.85359000
_cell_length_c   8.60006000
_cell_angle_alpha   90.00000000
_cell_angle_beta   90.00000000
_cell_angle_gamma   90.00000000
_symmetry_Int_Tables_number   1
_chemical_formula_structural   TlPd2
_chemical_formula_sum   'Tl4 Pd8'
_cell_volume   214.80902847
_cell_formula_units_Z   4
loop_
 _symmetry_equiv_pos_site_id
 _symmetry_equiv_pos_as_xyz
  1  'x, y, z'
loop_
 _atom_site_type_symbol
 _atom_site_label
 _atom_site_symmetry_multiplicity
 _atom_site_fract_x
 _atom_site_fract_y
 _atom_site_fract_z
 _atom_site_occupancy
  Tl  Tl0  1  0.75000000  0.67847000  0.89787400  1
  Tl  Tl1  1  0.75000000  0.17847000  0.60212600  1
  Tl  Tl2  1  0.25000000  0.32153000  0.10212600  1
  Tl  Tl3  1  0.25000000  0.82153000  0.39787400  1
  Pd  Pd0  1  0.75000000  0.65698200  0.57203600  1
  Pd  Pd1  1  0.75000000  0.15698200  0.92796400  1
  Pd  Pd2  1  0.25000000  0.34301800  0.42796400  1
  Pd  Pd3  1  0.25000000  0.84301800  0.07203600  1
  Pd  Pd4  1  0.75000000  0.56947900  0.23422300  1
  Pd  Pd5  1  0.75000000  0.06947900  0.26577700  1
  Pd  Pd6  1  0.25000000  0.43052100  0.76577700  1
  Pd  Pd7  1  0.25000000  0.93052100  0.73422300  1
loop_
_geom_bond_atom_site_label_1
_geom_bond_atom_site_label_2
_geom_bond_distance
_geom_bond_site_symmetry_2
Pd0 Tl3 2.779049 1_555
Pd0 Tl3 2.779049 1_655
Pd0 Tl0 2.805048 1_555
Pd0 Tl1 2.812941 1_555
Pd0 Tl1 3.063526 1_565
Pd1 Tl2 2.779049 1_556
Pd1 Tl2 2.779049 1_656
Pd1 Tl1 2.805048 1_555
Pd1 Tl0 2.812941 1_545
Pd1 Tl0 3.063526 1_555
Pd2 Tl1 2.779049 1_455
Pd2 Tl1 2.779049 1_555
Pd2 Tl2 2.805048 1_555
Pd2 Tl3 2.812941 1_555
Pd2 Tl3 3.063526 1_545
Pd3 Tl0 2.779049 1_554
Pd3 Tl0 2.779049 1_454
Pd3 Tl3 2.805048 1_555
Pd3 Tl2 2.812941 1_565
Pd3 Tl2 3.063526 1_555
Pd4 Tl2 2.819411 1_555
Pd4 Tl2 2.819411 1_655
Pd4 Tl3 2.951197 1_555
Pd4 Tl3 2.951197 1_655
Pd4 Tl0 2.962143 1_554
Pd5 Tl3 2.819411 1_645
Pd5 Tl3 2.819411 1_545
Pd5 Tl2 2.951197 1_555
Pd5 Tl2 2.951197 1_655
Pd5 Tl1 2.962143 1_555
Pd6 Tl0 2.819411 1_455
Pd6 Tl0 2.819411 1_555
Pd6 Tl1 2.951197 1_455
Pd6 Tl1 2.951197 1_555
Pd6 Tl2 2.962143 1_556
Pd7 Tl1 2.819411 1_465
Pd7 Tl1 2.819411 1_565
Pd7 Tl0 2.951197 1_455
Pd7 Tl0 2.951197 1_555
Pd7 Tl3 2.962143 1_555
