# generated using pymatgen
data_Pr3Pa
_symmetry_space_group_name_H-M   'P 1'
_cell_length_a   7.18485306
_cell_length_b   7.18485306
_cell_length_c   5.90427100
_cell_angle_alpha   90.00000000
_cell_angle_beta   90.00000000
_cell_angle_gamma   119.99999134
_symmetry_Int_Tables_number   1
_chemical_formula_structural   Pr3Pa
_chemical_formula_sum   'Pr6 Pa2'
_cell_volume   263.95672649
_cell_formula_units_Z   2
loop_
 _symmetry_equiv_pos_site_id
 _symmetry_equiv_pos_as_xyz
  1  'x, y, z'
loop_
 _atom_site_type_symbol
 _atom_site_label
 _atom_site_symmetry_multiplicity
 _atom_site_fract_x
 _atom_site_fract_y
 _atom_site_fract_z
 _atom_site_occupancy
  Pr  Pr0  1  0.82994500  0.17005500  0.75000000  1
  Pr  Pr1  1  0.34010900  0.17005500  0.75000000  1
  Pr  Pr2  1  0.82994500  0.65989100  0.75000000  1
  Pr  Pr3  1  0.17005500  0.82994500  0.25000000  1
  Pr  Pr4  1  0.65989100  0.82994500  0.25000000  1
  Pr  Pr5  1  0.17005500  0.34010900  0.25000000  1
  Pa  Pa0  1  0.66666700  0.33333300  0.25000000  1
  Pa  Pa1  1  0.33333300  0.66666700  0.75000000  1
loop_
_geom_bond_atom_site_label_1
_geom_bond_atom_site_label_2
_geom_bond_distance
_geom_bond_site_symmetry_2
Pr0 Pr2 3.519400 1_555
Pr0 Pr1 3.519400 1_555
Pr0 Pr4 3.632305 1_545
Pr0 Pr4 3.632305 1_546
Pr0 Pr5 3.632305 1_655
Pr0 Pr5 3.632305 1_656
Pr0 Pr1 3.665453 1_655
Pr0 Pr2 3.665453 1_545
Pr1 Pr2 3.519400 1_555
Pr1 Pr5 3.632297 1_555
Pr1 Pr5 3.632297 1_556
Pr1 Pr3 3.632305 1_546
Pr1 Pr3 3.632305 1_545
Pr1 Pr2 3.665454 1_445
Pr2 Pr4 3.632297 1_555
Pr2 Pr4 3.632297 1_556
Pr2 Pr3 3.632305 1_655
Pr2 Pr3 3.632305 1_656
Pr3 Pr4 3.519400 1_555
Pr3 Pr5 3.519400 1_555
Pr3 Pr5 3.665453 1_565
Pr3 Pr4 3.665453 1_455
Pr4 Pr5 3.519400 1_555
Pr4 Pr5 3.665454 1_665
Pa0 Pr0 3.583824 1_555
Pa0 Pr0 3.583824 1_554
Pa0 Pr1 3.583831 1_554
Pa0 Pr2 3.583831 1_555
Pa0 Pr1 3.583831 1_555
Pa0 Pr2 3.583831 1_554
Pa0 Pr5 3.592674 1_555
Pa0 Pr4 3.592674 1_555
Pa0 Pr4 3.592674 1_545
Pa0 Pr5 3.592674 1_655
Pa0 Pr3 3.592674 1_545
Pa0 Pr3 3.592674 1_655
Pa1 Pr3 3.583824 1_556
Pa1 Pr3 3.583824 1_555
Pa1 Pr4 3.583831 1_555
Pa1 Pr4 3.583831 1_556
Pa1 Pr5 3.583831 1_555
Pa1 Pr5 3.583831 1_556
Pa1 Pr1 3.592674 1_555
Pa1 Pr2 3.592674 1_555
Pa1 Pr2 3.592674 1_455
Pa1 Pr1 3.592674 1_565
Pa1 Pr0 3.592674 1_455
Pa1 Pr0 3.592674 1_565
