# generated using pymatgen
data_ErBi2C
_symmetry_space_group_name_H-M   'P 1'
_cell_length_a   11.47394800
_cell_length_b   11.47394800
_cell_length_c   5.62094000
_cell_angle_alpha   90.00000000
_cell_angle_beta   90.00000000
_cell_angle_gamma   90.00000000
_symmetry_Int_Tables_number   1
_chemical_formula_structural   ErBi2C
_chemical_formula_sum   'Er8 Bi16 C8'
_cell_volume   740.00508521
_cell_formula_units_Z   8
loop_
 _symmetry_equiv_pos_site_id
 _symmetry_equiv_pos_as_xyz
  1  'x, y, z'
loop_
 _atom_site_type_symbol
 _atom_site_label
 _atom_site_symmetry_multiplicity
 _atom_site_fract_x
 _atom_site_fract_y
 _atom_site_fract_z
 _atom_site_occupancy
  Er  Er0  1  0.16255500  0.66255500  0.25000000  1
  Er  Er1  1  0.83744500  0.33744500  0.75000000  1
  Er  Er2  1  0.83744500  0.33744500  0.25000000  1
  Er  Er3  1  0.33744500  0.16255500  0.75000000  1
  Er  Er4  1  0.16255500  0.66255500  0.75000000  1
  Er  Er5  1  0.66255500  0.83744500  0.25000000  1
  Er  Er6  1  0.66255500  0.83744500  0.75000000  1
  Er  Er7  1  0.33744500  0.16255500  0.25000000  1
  Bi  Bi0  1  0.11173400  0.38831400  0.00000000  1
  Bi  Bi1  1  0.88826600  0.61168600  0.00000000  1
  Bi  Bi2  1  0.61168600  0.11173400  0.50000000  1
  Bi  Bi3  1  0.38826600  0.88831400  0.00000000  1
  Bi  Bi4  1  0.38831400  0.88826600  0.50000000  1
  Bi  Bi5  1  0.61173400  0.11168600  0.00000000  1
  Bi  Bi6  1  0.88831400  0.61173400  0.50000000  1
  Bi  Bi7  1  0.11168600  0.38826600  0.50000000  1
  Bi  Bi8  1  0.93894800  0.12440600  0.00000000  1
  Bi  Bi9  1  0.06105200  0.87559400  0.00000000  1
  Bi  Bi10  1  0.87559400  0.93894800  0.50000000  1
  Bi  Bi11  1  0.56105200  0.62440600  0.00000000  1
  Bi  Bi12  1  0.12440600  0.06105200  0.50000000  1
  Bi  Bi13  1  0.43894800  0.37559400  0.00000000  1
  Bi  Bi14  1  0.62440600  0.43894800  0.50000000  1
  Bi  Bi15  1  0.37559400  0.56105200  0.50000000  1
  C  C0  1  0.35215700  0.57270100  0.00000000  1
  C  C1  1  0.64784300  0.42729900  0.00000000  1
  C  C2  1  0.42729900  0.35215700  0.50000000  1
  C  C3  1  0.14784300  0.07270100  0.00000000  1
  C  C4  1  0.57270100  0.64784300  0.50000000  1
  C  C5  1  0.85215700  0.92729900  0.00000000  1
  C  C6  1  0.07270100  0.85215700  0.50000000  1
  C  C7  1  0.92729900  0.14784300  0.50000000  1
loop_
_geom_bond_atom_site_label_1
_geom_bond_atom_site_label_2
_geom_bond_distance
_geom_bond_site_symmetry_2
Bi0 Bi7 2.810470 1_554
Bi0 Bi7 2.810470 1_555
Bi0 Er4 3.495136 1_554
Bi0 Er0 3.495136 1_555
Bi0 Er1 3.495723 1_454
Bi0 Er2 3.495723 1_455
Bi1 Bi6 2.810470 1_554
Bi1 Bi6 2.810470 1_555
Bi1 Er1 3.495136 1_554
Bi1 Er2 3.495136 1_555
Bi1 Er0 3.495723 1_655
Bi1 Er4 3.495723 1_654
Bi2 Bi5 2.810470 1_556
Bi2 Bi5 2.810470 1_555
Bi2 Er7 3.495136 1_555
Bi2 Er3 3.495136 1_555
Bi2 Er5 3.495723 1_545
Bi2 Er6 3.495723 1_545
Bi3 Bi4 2.810470 1_555
Bi3 Bi4 2.810470 1_554
Bi3 Er7 3.495136 1_565
Bi3 Er3 3.495136 1_564
Bi3 Er6 3.495723 1_554
Bi3 Er5 3.495723 1_555
Bi4 Er6 3.495136 1_555
Bi4 Er5 3.495136 1_555
Bi4 Er7 3.495723 1_565
Bi4 Er3 3.495723 1_565
Bi5 Er5 3.495136 1_545
Bi5 Er6 3.495136 1_544
Bi5 Er3 3.495723 1_554
Bi5 Er7 3.495723 1_555
Bi6 Er0 3.495136 1_655
Bi6 Er4 3.495136 1_655
Bi6 Er2 3.495723 1_555
Bi6 Er1 3.495723 1_555
Bi7 Er1 3.495136 1_455
Bi7 Er2 3.495136 1_455
Bi7 Er0 3.495723 1_555
Bi7 Er4 3.495723 1_555
Bi8 C3 2.469180 1_655
Bi8 C5 2.471134 1_545
Bi8 C7 2.826468 1_554
Bi8 C7 2.826468 1_555
Bi8 Er1 3.050599 1_554
Bi8 Er2 3.050599 1_555
Bi9 C5 2.469180 1_455
Bi9 C3 2.471134 1_565
Bi9 C6 2.826468 1_555
Bi9 C6 2.826468 1_554
Bi9 Er4 3.050599 1_554
Bi9 Er0 3.050599 1_555
Bi10 C7 2.469180 1_565
Bi10 C6 2.471134 1_655
Bi10 C5 2.826468 1_556
Bi10 C5 2.826468 1_555
Bi10 Er6 3.050599 1_555
Bi10 Er5 3.050599 1_555
Bi11 C0 2.469180 1_555
Bi11 C1 2.471134 1_555
Bi11 C4 2.826468 1_554
Bi11 C4 2.826468 1_555
Bi11 Er6 3.050599 1_554
Bi11 Er5 3.050599 1_555
Bi12 C6 2.469180 1_545
Bi12 C7 2.471134 1_455
Bi12 C3 2.826468 1_555
Bi12 C3 2.826468 1_556
Bi12 Er3 3.050599 1_555
Bi12 Er7 3.050599 1_555
Bi13 C1 2.469180 1_555
Bi13 C0 2.471134 1_555
Bi13 C2 2.826468 1_555
Bi13 C2 2.826468 1_554
Bi13 Er7 3.050599 1_555
Bi13 Er3 3.050599 1_554
Bi14 C4 2.469180 1_555
Bi14 C2 2.471134 1_555
Bi14 C1 2.826468 1_556
Bi14 C1 2.826468 1_555
Bi14 Er2 3.050599 1_555
Bi14 Er1 3.050599 1_555
Bi15 C2 2.469180 1_555
Bi15 C4 2.471134 1_555
Bi15 C0 2.826468 1_555
Bi15 C0 2.826468 1_556
Bi15 Er4 3.050599 1_555
Bi15 Er0 3.050599 1_555
C0 Er4 2.787532 1_554
C0 Er0 2.787532 1_555
C1 Er2 2.787532 1_555
C1 Er1 2.787532 1_554
C2 Er3 2.787532 1_555
C2 Er7 2.787532 1_555
C3 Er3 2.787532 1_554
C3 Er7 2.787532 1_555
C4 Er5 2.787532 1_555
C4 Er6 2.787532 1_555
C5 Er6 2.787532 1_554
C5 Er5 2.787532 1_555
C6 Er0 2.787532 1_555
C6 Er4 2.787532 1_555
C7 Er2 2.787532 1_555
C7 Er1 2.787532 1_555
