# generated using pymatgen
data_Li3MnCoO5
_symmetry_space_group_name_H-M   'P 1'
_cell_length_a   3.02898000
_cell_length_b   6.40255935
_cell_length_c   9.86573764
_cell_angle_alpha   79.64821495
_cell_angle_beta   85.25802480
_cell_angle_gamma   76.59072420
_symmetry_Int_Tables_number   1
_chemical_formula_structural   Li3MnCoO5
_chemical_formula_sum   'Li6 Mn2 Co2 O10'
_cell_volume   182.91507597
_cell_formula_units_Z   2
loop_
 _symmetry_equiv_pos_site_id
 _symmetry_equiv_pos_as_xyz
  1  'x, y, z'
loop_
 _atom_site_type_symbol
 _atom_site_label
 _atom_site_symmetry_multiplicity
 _atom_site_fract_x
 _atom_site_fract_y
 _atom_site_fract_z
 _atom_site_occupancy
  Li  Li0  1  0.69589700  0.10426100  0.59623800  1
  Li  Li1  1  0.90774400  0.69184300  0.20091700  1
  Li  Li2  1  0.30410300  0.89573900  0.40376200  1
  Li  Li3  1  0.50000000  0.50000000  0.00000000  1
  Li  Li4  1  0.09225600  0.30815700  0.79908300  1
  Li  Li5  1  0.00000000  0.50000000  0.50000000  1
  Mn  Mn0  1  0.79848800  0.89843800  0.89674200  1
  Mn  Mn1  1  0.20151200  0.10156200  0.10325800  1
  Co  Co0  1  0.39787500  0.69214000  0.68926300  1
  Co  Co1  1  0.60212500  0.30786000  0.31073700  1
  O  O0  1  0.23932900  0.97607800  0.74906900  1
  O  O1  1  0.45678900  0.57420300  0.34292200  1
  O  O2  1  0.83374800  0.79043300  0.56228800  1
  O  O3  1  0.03409900  0.38464200  0.15700100  1
  O  O4  1  0.63060000  0.18610200  0.95284400  1
  O  O5  1  0.16625200  0.20956700  0.43771200  1
  O  O6  1  0.36940000  0.81389800  0.04715600  1
  O  O7  1  0.76067100  0.02392200  0.25093100  1
  O  O8  1  0.96590100  0.61535800  0.84299900  1
  O  O9  1  0.54321100  0.42579700  0.65707800  1
loop_
_geom_bond_atom_site_label_1
_geom_bond_atom_site_label_2
_geom_bond_distance
_geom_bond_site_symmetry_2
Li0 O2 2.037999 1_545
Li0 O0 2.143929 1_545
Li0 O5 2.151400 1_655
Li0 O9 2.183761 1_555
Li0 O0 2.235064 1_645
Li0 O5 2.237975 1_555
Li1 O3 2.032850 1_655
Li1 O1 2.043866 1_555
Li1 O6 2.144137 1_655
Li1 O1 2.172742 1_655
Li1 O7 2.205411 1_565
Li1 O6 2.227725 1_555
Li2 O5 2.037999 1_565
Li2 O7 2.143929 1_565
Li2 O2 2.151400 1_455
Li2 O1 2.183761 1_555
Li2 O7 2.235064 1_465
Li2 O2 2.237975 1_555
Li3 O6 2.085395 1_555
Li3 O4 2.085395 1_554
Li3 O3 2.155708 1_555
Li3 O8 2.155708 1_554
Li3 O3 2.238496 1_655
Li3 O8 2.238496 1_454
Li4 O8 2.032850 1_455
Li4 O9 2.043866 1_555
Li4 O4 2.144137 1_455
Li4 O9 2.172742 1_455
Li4 O0 2.205411 1_545
Li4 O4 2.227725 1_555
Li5 O2 2.003547 1_455
Li5 O5 2.003547 1_555
Li5 O9 2.056062 1_455
Li5 O1 2.056062 1_555
Li5 O9 2.264716 1_555
Li5 O1 2.264716 1_455
Mn0 O8 1.922973 1_555
Mn0 O4 1.960240 1_565
Mn0 O0 1.969425 1_655
Mn0 O6 1.975608 1_556
Mn0 O0 2.235048 1_555
Mn0 O6 2.277492 1_656
Mn1 O3 1.922973 1_555
Mn1 O6 1.960240 1_545
Mn1 O7 1.969425 1_455
Mn1 O4 1.975608 1_554
Mn1 O7 2.235048 1_555
Mn1 O4 2.277492 1_454
Co0 O9 1.739509 1_555
Co0 O2 1.880684 1_555
Co0 O0 1.953803 1_555
Co0 O8 1.989066 1_455
Co0 O2 2.111137 1_455
Co0 O8 2.296423 1_555
Co1 O1 1.739509 1_555
Co1 O5 1.880684 1_555
Co1 O7 1.953803 1_555
Co1 O3 1.989066 1_655
Co1 O5 2.111137 1_655
Co1 O3 2.296423 1_555
