# generated using pymatgen
data_Lu7(TeRu)2
_symmetry_space_group_name_H-M   'P 1'
_cell_length_a   9.19215494
_cell_length_b   9.19215494
_cell_length_c   9.19215494
_cell_angle_alpha   155.63816288
_cell_angle_beta   119.93095742
_cell_angle_gamma   65.80052517
_symmetry_Int_Tables_number   1
_chemical_formula_structural   Lu7(TeRu)2
_chemical_formula_sum   'Lu7 Te2 Ru2'
_cell_volume   275.48457252
_cell_formula_units_Z   1
loop_
 _symmetry_equiv_pos_site_id
 _symmetry_equiv_pos_as_xyz
  1  'x, y, z'
loop_
 _atom_site_type_symbol
 _atom_site_label
 _atom_site_symmetry_multiplicity
 _atom_site_fract_x
 _atom_site_fract_y
 _atom_site_fract_z
 _atom_site_occupancy
  Lu  Lu0  1  0.61733100  0.35221500  0.26511600  1
  Lu  Lu1  1  0.91290100  0.64778500  0.26511600  1
  Lu  Lu2  1  0.99815300  0.00000000  0.99815300  1
  Lu  Lu3  1  0.55053700  0.13447200  0.41606500  1
  Lu  Lu4  1  0.28159300  0.86552800  0.41606500  1
  Lu  Lu5  1  0.93983100  0.31404700  0.62578500  1
  Lu  Lu6  1  0.31173800  0.68595300  0.62578500  1
  Te  Te0  1  0.26271400  0.50000000  0.76271400  1
  Te  Te1  1  0.66067800  0.00000000  0.66067800  1
  Ru  Ru0  1  0.16481400  0.23712200  0.92769200  1
  Ru  Ru1  1  0.69057000  0.76287800  0.92769200  1
loop_
_geom_bond_atom_site_label_1
_geom_bond_atom_site_label_2
_geom_bond_distance
_geom_bond_site_symmetry_2
Lu0 Ru1 2.810939 1_555
Lu0 Ru1 2.810939 1_544
Lu0 Te1 3.144698 1_554
Lu0 Te1 3.144698 1_565
Lu1 Ru0 2.810939 1_665
Lu1 Ru0 2.810939 1_654
Lu1 Te1 3.144698 1_554
Lu1 Te1 3.144698 1_565
Lu2 Te1 3.105359 1_555
Lu2 Te0 3.112591 1_656
Lu2 Te0 3.112591 1_645
Lu3 Ru1 2.775206 1_544
Lu3 Ru1 2.775206 1_555
Lu3 Te1 3.061838 1_555
Lu3 Te0 3.171979 1_555
Lu3 Te0 3.171979 1_544
Lu4 Ru0 2.775206 1_565
Lu4 Ru0 2.775206 1_554
Lu4 Te1 3.061838 1_565
Lu4 Te0 3.171979 1_565
Lu4 Te0 3.171979 1_554
Lu5 Ru1 2.776367 1_555
Lu5 Ru1 2.776370 1_544
Lu5 Ru0 3.021192 1_655
Lu5 Te0 3.134712 1_655
Lu6 Ru0 2.776374 1_554
Lu6 Ru0 2.776374 1_565
Lu6 Ru1 3.021191 1_555
Lu6 Te0 3.134703 1_555
