# generated using pymatgen
data_Li2MnO2F
_symmetry_space_group_name_H-M   'P 1'
_cell_length_a   3.05235613
_cell_length_b   14.69326534
_cell_length_c   5.06606481
_cell_angle_alpha   81.73800875
_cell_angle_beta   86.33348749
_cell_angle_gamma   86.62612284
_symmetry_Int_Tables_number   1
_chemical_formula_structural   Li2MnO2F
_chemical_formula_sum   'Li8 Mn4 O8 F4'
_cell_volume   224.10610810
_cell_formula_units_Z   4
loop_
 _symmetry_equiv_pos_site_id
 _symmetry_equiv_pos_as_xyz
  1  'x, y, z'
loop_
 _atom_site_type_symbol
 _atom_site_label
 _atom_site_symmetry_multiplicity
 _atom_site_fract_x
 _atom_site_fract_y
 _atom_site_fract_z
 _atom_site_occupancy
  Li  Li0  1  0.08389800  0.83328800  0.41702900  1
  Li  Li1  1  0.58258000  0.83347500  0.91705200  1
  Li  Li2  1  0.33303500  0.33329400  0.66644400  1
  Li  Li3  1  0.83372500  0.33329800  0.16650100  1
  Li  Li4  1  0.51034800  0.99380900  0.51489400  1
  Li  Li5  1  0.00821300  0.99393100  0.01487800  1
  Li  Li6  1  0.65841600  0.67277400  0.31878000  1
  Li  Li7  1  0.15669100  0.67286900  0.81877300  1
  Mn  Mn0  1  0.24700900  0.50291300  0.24156300  1
  Mn  Mn1  1  0.41990400  0.16369500  0.09150500  1
  Mn  Mn2  1  0.74700200  0.50293800  0.74152000  1
  Mn  Mn3  1  0.91986000  0.16366600  0.59156500  1
  O  O0  1  0.84562300  0.24242900  0.87291900  1
  O  O1  1  0.34566700  0.24239400  0.37302600  1
  O  O2  1  0.82110500  0.42418100  0.46011500  1
  O  O3  1  0.32106100  0.42421900  0.96002400  1
  O  O4  1  0.49438900  0.08491900  0.81011600  1
  O  O5  1  0.99435100  0.08496100  0.31001700  1
  O  O6  1  0.17241100  0.58171200  0.52294000  1
  O  O7  1  0.67235000  0.58168600  0.02300600  1
  F  F0  1  0.61788100  0.75310300  0.61640800  1
  F  F1  1  0.11802800  0.75308200  0.11653700  1
  F  F2  1  0.54807700  0.91369400  0.21711200  1
  F  F3  1  0.04837600  0.91367000  0.71727600  1
loop_
_geom_bond_atom_site_label_1
_geom_bond_atom_site_label_2
_geom_bond_distance
_geom_bond_site_symmetry_2
Li2 O1 2.133581 1_555
Li2 O3 2.134620 1_555
Li2 O0 2.173352 1_455
Li2 O2 2.174669 1_555
Li2 O2 2.209021 1_455
Li2 O0 2.210591 1_555
Li3 O0 2.134047 1_554
Li3 O2 2.134182 1_555
Li3 O3 2.173677 1_654
Li3 O1 2.175136 1_555
Li3 O1 2.209599 1_655
Li3 O3 2.211165 1_554
Li4 O4 2.142380 1_565
Li4 O5 2.165844 1_565
Li4 O5 2.216524 1_465
Li5 O5 2.141584 1_465
Li5 O4 2.168792 1_564
Li5 O4 2.210409 1_464
Li6 O7 2.144718 1_555
Li6 O6 2.168019 1_555
Li6 O6 2.210013 1_655
Li7 O6 2.145358 1_555
Li7 O7 2.165694 1_456
Li7 O7 2.214632 1_556
Mn0 O3 1.955595 1_554
Mn0 O6 1.956054 1_555
Mn0 O7 1.968721 1_555
Mn0 O2 1.969512 1_455
Mn0 O2 2.297018 1_555
Mn0 O7 2.298577 1_455
Mn1 O1 1.955591 1_555
Mn1 O4 1.955858 1_554
Mn1 O5 1.968735 1_455
Mn1 O0 1.969231 1_554
Mn1 O0 2.297540 1_454
Mn1 O5 2.297755 1_555
Mn2 O2 1.955691 1_555
Mn2 O7 1.955989 1_556
Mn2 O6 1.968916 1_655
Mn2 O3 1.969377 1_555
Mn2 O3 2.296746 1_655
Mn2 O6 2.298478 1_555
Mn3 O0 1.955557 1_555
Mn3 O5 1.955789 1_555
Mn3 O4 1.968760 1_555
Mn3 O1 1.969257 1_655
Mn3 O1 2.297191 1_555
Mn3 O4 2.298111 1_655
F0 Li7 2.021359 1_555
F0 Li0 2.025632 1_655
F0 Li6 2.037719 1_555
F0 Li1 2.051083 1_555
F0 Li0 2.169667 1_555
F0 Li7 2.187636 1_655
F1 Li6 2.018365 1_455
F1 Li1 2.024372 1_554
F1 Li7 2.037247 1_554
F1 Li0 2.048899 1_555
F1 Li1 2.174571 1_454
F1 Li6 2.191444 1_555
F2 Li5 2.018887 1_655
F2 Li0 2.024490 1_555
F2 Li4 2.036410 1_555
F2 Li1 2.047195 1_554
F2 Li0 2.176459 1_655
F2 Li5 2.189778 1_555
F3 Li4 2.022291 1_555
F3 Li1 2.025984 1_455
F3 Li5 2.036953 1_556
F3 Li0 2.049511 1_555
F3 Li1 2.171112 1_555
F3 Li4 2.185288 1_455
