# generated using pymatgen
data_SrNiO3
_symmetry_space_group_name_H-M   'P 1'
_cell_length_a   5.50222022
_cell_length_b   5.50366858
_cell_length_c   9.62703861
_cell_angle_alpha   89.82133471
_cell_angle_beta   106.49647707
_cell_angle_gamma   60.04581282
_symmetry_Int_Tables_number   1
_chemical_formula_structural   SrNiO3
_chemical_formula_sum   'Sr4 Ni4 O12'
_cell_volume   238.47903103
_cell_formula_units_Z   4
loop_
 _symmetry_equiv_pos_site_id
 _symmetry_equiv_pos_as_xyz
  1  'x, y, z'
loop_
 _atom_site_type_symbol
 _atom_site_label
 _atom_site_symmetry_multiplicity
 _atom_site_fract_x
 _atom_site_fract_y
 _atom_site_fract_z
 _atom_site_occupancy
  Sr  Sr0  1  0.75002000  0.37499600  0.37496500  1
  Sr  Sr1  1  0.24956900  0.62511900  0.62462800  1
  Sr  Sr2  1  0.75006900  0.87497400  0.87506900  1
  Sr  Sr3  1  0.25042900  0.12487800  0.12538600  1
  Ni  Ni0  1  0.00126500  0.74938600  0.25191900  1
  Ni  Ni1  1  0.49880000  0.00057900  0.49814500  1
  Ni  Ni2  1  0.00384800  0.24851400  0.75589200  1
  Ni  Ni3  1  0.49605800  0.50152700  0.99401500  1
  O  O0  1  0.24999500  0.87500700  0.37502300  1
  O  O1  1  0.74500800  0.12473600  0.61837500  1
  O  O2  1  0.24995000  0.37502800  0.87498700  1
  O  O3  1  0.75507000  0.62528600  0.13161400  1
  O  O4  1  0.74341500  0.62902400  0.61770200  1
  O  O5  1  0.24995000  0.87501600  0.87498600  1
  O  O6  1  0.75666400  0.12089200  0.13229400  1
  O  O7  1  0.24997300  0.37500800  0.37501900  1
  O  O8  1  0.74997100  0.87500900  0.37498100  1
  O  O9  1  0.24832200  0.12564400  0.61781200  1
  O  O10  1  0.74992800  0.37503300  0.87496900  1
  O  O11  1  0.25169600  0.62434600  0.13221700  1
loop_
_geom_bond_atom_site_label_1
_geom_bond_atom_site_label_2
_geom_bond_distance
_geom_bond_site_symmetry_2
Ni0 O11 1.913119 1_555
Ni0 O6 1.917099 1_465
Ni0 O3 1.918526 1_455
Ni0 O7 1.941804 1_555
Ni0 O8 1.942713 1_455
Ni0 O0 1.945350 1_555
Ni1 O9 1.913031 1_555
Ni1 O4 1.917031 1_545
Ni1 O1 1.918508 1_555
Ni1 O7 1.942105 1_555
Ni1 O8 1.943032 1_545
Ni1 O0 1.945522 1_545
Ni2 O10 1.921980 1_455
Ni2 O5 1.922914 1_545
Ni2 O2 1.922964 1_555
Ni2 O4 2.027842 1_455
Ni2 O9 2.036292 1_555
Ni2 O1 2.036856 1_455
Ni3 O10 1.921543 1_555
Ni3 O5 1.922633 1_555
Ni3 O2 1.922672 1_555
Ni3 O6 2.028700 1_556
Ni3 O11 2.036860 1_556
Ni3 O3 2.037786 1_556
O0 Sr0 2.753118 1_465
O0 Sr0 2.753637 1_555
O0 Sr1 2.766129 1_555
O0 Sr3 2.766371 1_565
O1 Sr0 2.728275 1_555
O1 Sr1 2.748229 1_645
O1 Sr1 2.759768 1_555
O1 Sr2 2.810458 1_545
O2 Sr2 2.753128 1_455
O2 Sr2 2.753627 1_545
O2 Sr1 2.770782 1_555
O2 Sr3 2.771010 1_556
O3 Sr0 2.727976 1_555
O3 Sr3 2.748447 1_565
O3 Sr3 2.759546 1_655
O3 Sr2 2.809167 1_554
O4 Sr0 2.726655 1_555
O4 Sr1 2.747645 1_555
O4 Sr1 2.756036 1_655
O4 Sr2 2.826914 1_555
O5 Sr2 2.750798 1_455
O5 Sr2 2.751423 1_555
O5 Sr1 2.778735 1_555
O5 Sr3 2.778991 1_566
O6 Sr0 2.726320 1_555
O6 Sr3 2.747370 1_655
O6 Sr3 2.756305 1_555
O6 Sr2 2.825632 1_544
O7 Sr0 2.750737 1_455
O7 Sr0 2.751483 1_555
O7 Sr1 2.773054 1_555
O7 Sr3 2.773307 1_555
O8 Sr0 2.751772 1_555
O8 Sr0 2.751897 1_565
O8 Sr3 2.770137 1_565
O8 Sr1 2.770583 1_655
O9 Sr0 2.729218 1_455
O9 Sr1 2.751835 1_545
O9 Sr1 2.753317 1_555
O9 Sr2 2.819725 1_545
O10 Sr2 2.751769 1_545
O10 Sr2 2.751900 1_555
O10 Sr1 2.776571 1_555
O10 Sr3 2.777387 1_656
O11 Sr0 2.728737 1_555
O11 Sr3 2.751821 1_565
O11 Sr3 2.753337 1_555
O11 Sr2 2.818777 1_454
