# generated using pymatgen
data_NdAlSi
_symmetry_space_group_name_H-M   'P 1'
_cell_length_a   7.86436897
_cell_length_b   7.86436897
_cell_length_c   7.86436897
_cell_angle_alpha   148.79362583
_cell_angle_beta   148.79362583
_cell_angle_gamma   44.71516716
_symmetry_Int_Tables_number   1
_chemical_formula_structural   NdAlSi
_chemical_formula_sum   'Nd2 Al2 Si2'
_cell_volume   130.17608458
_cell_formula_units_Z   2
loop_
 _symmetry_equiv_pos_site_id
 _symmetry_equiv_pos_as_xyz
  1  'x, y, z'
loop_
 _atom_site_type_symbol
 _atom_site_label
 _atom_site_symmetry_multiplicity
 _atom_site_fract_x
 _atom_site_fract_y
 _atom_site_fract_z
 _atom_site_occupancy
  Nd  Nd0  1  0.62438624  0.12438624  0.50000000  1
  Nd  Nd1  1  0.87438624  0.87438624  0.00000000  1
  Al  Al0  1  0.45832725  0.45832725  0.00000000  1
  Al  Al1  1  0.20832725  0.70832725  0.50000000  1
  Si  Si0  1  0.04228651  0.54228651  0.50000000  1
  Si  Si1  1  0.29228651  0.29228651  -0.00000000  1
loop_
_geom_bond_atom_site_label_1
_geom_bond_atom_site_label_2
_geom_bond_distance
_geom_bond_site_symmetry_2
Nd0 Si0 3.221068 1_656
Nd0 Si0 3.221068 1_645
Nd0 Si0 3.221068 1_555
Nd0 Si0 3.221068 1_544
Nd0 Si1 3.231029 1_555
Nd0 Si1 3.231029 1_656
Nd1 Si1 3.221068 1_565
Nd1 Si1 3.221068 1_666
Nd1 Si1 3.221068 1_554
Nd1 Si1 3.221068 1_655
Nd1 Si0 3.231029 1_665
Nd1 Si0 3.231029 1_654
Al0 Si1 2.415291 1_555
Al0 Si0 2.442560 1_554
Al0 Si0 2.442560 1_655
Al0 Nd0 3.210830 1_554
Al0 Nd0 3.210830 1_565
Al0 Nd1 3.231094 1_444
Al0 Nd1 3.231094 1_455
Al0 Nd1 3.231094 1_545
Al0 Nd1 3.231094 1_556
Al1 Si0 2.415291 1_555
Al1 Si1 2.442560 1_555
Al1 Si1 2.442560 1_566
Al1 Nd1 3.210830 1_556
Al1 Nd1 3.210830 1_455
Al1 Nd0 3.231094 1_454
Al1 Nd0 3.231094 1_465
Al1 Nd0 3.231094 1_566
Al1 Nd0 3.231094 1_555
