# generated using pymatgen
data_Nd10Se14O
_symmetry_space_group_name_H-M   'P 1'
_cell_length_a   15.24888339
_cell_length_b   15.24888339
_cell_length_c   15.24888339
_cell_angle_alpha   117.73501446
_cell_angle_beta   117.73501446
_cell_angle_gamma   93.96998748
_symmetry_Int_Tables_number   1
_chemical_formula_structural   Nd10Se14O
_chemical_formula_sum   'Nd40 Se56 O4'
_cell_volume   2586.37881603
_cell_formula_units_Z   4
loop_
 _symmetry_equiv_pos_site_id
 _symmetry_equiv_pos_as_xyz
  1  'x, y, z'
loop_
 _atom_site_type_symbol
 _atom_site_label
 _atom_site_symmetry_multiplicity
 _atom_site_fract_x
 _atom_site_fract_y
 _atom_site_fract_z
 _atom_site_occupancy
  Nd  Nd0  1  0.95698500  0.60425000  0.90614200  1
  Nd  Nd1  1  0.45698500  0.55084300  0.35273500  1
  Nd  Nd2  1  0.85425000  0.70698500  0.40614200  1
  Nd  Nd3  1  0.35425000  0.94810700  0.14726500  1
  Nd  Nd4  1  0.79301500  0.64575000  0.59385800  1
  Nd  Nd5  1  0.29301500  0.69915700  0.14726500  1
  Nd  Nd6  1  0.89575000  0.54301500  0.09385800  1
  Nd  Nd7  1  0.39575000  0.30189300  0.35273500  1
  Nd  Nd8  1  0.19810700  0.10425000  0.64726500  1
  Nd  Nd9  1  0.69810700  0.05084300  0.09385800  1
  Nd  Nd10  1  0.80084300  0.20698500  0.85273500  1
  Nd  Nd11  1  0.30084300  0.44810700  0.59385800  1
  Nd  Nd12  1  0.55189300  0.14575000  0.85273500  1
  Nd  Nd13  1  0.05189300  0.19915700  0.40614200  1
  Nd  Nd14  1  0.94915700  0.04301500  0.64726500  1
  Nd  Nd15  1  0.44915700  0.80189300  0.90614200  1
  Nd  Nd16  1  0.18683600  0.82002100  0.37586200  1
  Nd  Nd17  1  0.68683600  0.31097300  0.36681500  1
  Nd  Nd18  1  0.07002100  0.93683600  0.87586200  1
  Nd  Nd19  1  0.57002100  0.69415800  0.13318500  1
  Nd  Nd20  1  0.56316400  0.42997900  0.12413800  1
  Nd  Nd21  1  0.06316400  0.93902700  0.13318500  1
  Nd  Nd22  1  0.67997900  0.31316400  0.62413800  1
  Nd  Nd23  1  0.17997900  0.55584200  0.36681500  1
  Nd  Nd24  1  0.94415800  0.32002100  0.63318500  1
  Nd  Nd25  1  0.44415800  0.81097300  0.62413800  1
  Nd  Nd26  1  0.56097300  0.43683600  0.86681500  1
  Nd  Nd27  1  0.06097300  0.19415800  0.12413800  1
  Nd  Nd28  1  0.80584200  0.92997900  0.86681500  1
  Nd  Nd29  1  0.30584200  0.43902700  0.87586200  1
  Nd  Nd30  1  0.18902700  0.81316400  0.63318500  1
  Nd  Nd31  1  0.68902700  0.05584200  0.37586200  1
  Nd  Nd32  1  0.88400500  0.88400500  0.26801000  1
  Nd  Nd33  1  0.38400500  0.11599500  0.00000000  1
  Nd  Nd34  1  0.13400500  0.63400500  0.76801000  1
  Nd  Nd35  1  0.63400500  0.86599500  0.50000000  1
  Nd  Nd36  1  0.86599500  0.36599500  0.23199000  1
  Nd  Nd37  1  0.36599500  0.13400500  0.50000000  1
  Nd  Nd38  1  0.61599500  0.61599500  0.73199000  1
  Nd  Nd39  1  0.11599500  0.38400500  0.00000000  1
  Se  Se0  1  0.89533500  0.00398800  0.15415500  1
  Se  Se1  1  0.39533500  0.24117900  0.89134600  1
  Se  Se2  1  0.25398800  0.64533500  0.65415500  1
  Se  Se3  1  0.75398800  0.09983300  0.60865400  1
  Se  Se4  1  0.85466500  0.24601200  0.34584500  1
  Se  Se5  1  0.35466500  0.00882100  0.60865400  1
  Se  Se6  1  0.49601200  0.60466500  0.84584500  1
  Se  Se7  1  0.99601200  0.15016700  0.89134600  1
  Se  Se8  1  0.34983300  0.50398800  0.10865400  1
  Se  Se9  1  0.84983300  0.74117900  0.84584500  1
  Se  Se10  1  0.49117900  0.14533500  0.39134600  1
  Se  Se11  1  0.99117900  0.59983300  0.34584500  1
  Se  Se12  1  0.40016700  0.74601200  0.39134600  1
  Se  Se13  1  0.90016700  0.50882100  0.65415500  1
  Se  Se14  1  0.25882100  0.10466500  0.10865400  1
  Se  Se15  1  0.75882100  0.65016700  0.15415500  1
  Se  Se16  1  0.12493200  0.60313100  0.16414600  1
  Se  Se17  1  0.62493200  0.46078700  0.52180100  1
  Se  Se18  1  0.85313100  0.87493200  0.66414600  1
  Se  Se19  1  0.35313100  0.68898500  0.97819900  1
  Se  Se20  1  0.62506800  0.64686900  0.33585400  1
  Se  Se21  1  0.12506800  0.78921300  0.97819900  1
  Se  Se22  1  0.89686900  0.37506800  0.83585400  1
  Se  Se23  1  0.39686900  0.56101500  0.52180100  1
  Se  Se24  1  0.93898500  0.10313100  0.47819900  1
  Se  Se25  1  0.43898500  0.96078700  0.83585400  1
  Se  Se26  1  0.71078700  0.37493200  0.02180100  1
  Se  Se27  1  0.21078700  0.18898500  0.33585400  1
  Se  Se28  1  0.81101500  0.14686900  0.02180100  1
  Se  Se29  1  0.31101500  0.28921300  0.66414600  1
  Se  Se30  1  0.03921300  0.87506800  0.47819900  1
  Se  Se31  1  0.53921300  0.06101500  0.16414600  1
  Se  Se32  1  0.74181700  0.52382300  0.85844400  1
  Se  Se33  1  0.24181700  0.38337300  0.21799400  1
  Se  Se34  1  0.77382300  0.49181700  0.35844400  1
  Se  Se35  1  0.27382300  0.91537900  0.28200600  1
  Se  Se36  1  0.00818300  0.72617700  0.64155600  1
  Se  Se37  1  0.50818300  0.86662700  0.28200600  1
  Se  Se38  1  0.97617700  0.75818300  0.14155600  1
  Se  Se39  1  0.47617700  0.33462100  0.21799400  1
  Se  Se40  1  0.16537900  0.02382300  0.78200600  1
  Se  Se41  1  0.66537900  0.88337300  0.14155600  1
  Se  Se42  1  0.63337300  0.99181700  0.71799400  1
  Se  Se43  1  0.13337300  0.41537900  0.64155600  1
  Se  Se44  1  0.58462100  0.22617700  0.71799400  1
  Se  Se45  1  0.08462100  0.36662700  0.35844400  1
  Se  Se46  1  0.11662700  0.25818300  0.78200600  1
  Se  Se47  1  0.61662700  0.83462100  0.85844400  1
  Se  Se48  1  0.97927500  0.37500000  0.10427500  1
  Se  Se49  1  0.47927500  0.37500000  0.60427500  1
  Se  Se50  1  0.62500000  0.72927500  0.60427500  1
  Se  Se51  1  0.12500000  0.52072500  0.89572500  1
  Se  Se52  1  0.77072500  0.87500000  0.39572500  1
  Se  Se53  1  0.27072500  0.87500000  0.89572500  1
  Se  Se54  1  0.62500000  0.22927500  0.10427500  1
  Se  Se55  1  0.12500000  0.02072500  0.39572500  1
  O  O0  1  0.50000000  0.50000000  0.00000000  1
  O  O1  1  0.00000000  0.00000000  0.00000000  1
  O  O2  1  0.75000000  0.25000000  0.50000000  1
  O  O3  1  0.25000000  0.75000000  0.50000000  1
loop_
_geom_bond_atom_site_label_1
_geom_bond_atom_site_label_2
_geom_bond_distance
_geom_bond_site_symmetry_2
Nd0 Se9 2.955673 1_555
Nd0 Se51 2.975540 1_655
Nd0 Se13 3.025798 1_555
Nd0 Se32 3.031480 1_555
Nd0 Se21 3.037262 1_655
Nd0 Se22 3.059088 1_555
Nd0 Se38 3.092932 1_556
Nd0 Se16 3.567627 1_656
Nd1 Se8 2.955673 1_555
Nd1 Se50 2.975540 1_555
Nd1 Se12 3.025798 1_555
Nd1 Se33 3.031480 1_555
Nd1 Se20 3.037273 1_555
Nd1 Se23 3.059088 1_555
Nd1 Se39 3.092932 1_555
Nd1 Se17 3.567615 1_555
Nd2 Se11 2.955673 1_555
Nd2 Se52 2.975540 1_555
Nd2 Se15 3.025798 1_555
Nd2 Se34 3.031480 1_555
Nd2 Se30 3.037262 1_655
Nd2 Se20 3.059088 1_555
Nd2 Se36 3.092932 1_655
Nd2 Se18 3.567627 1_555
Nd3 Se10 2.955685 1_565
Nd3 Se53 2.975544 1_554
Nd3 Se14 3.025798 1_565
Nd3 Se35 3.031473 1_555
Nd3 Se31 3.037267 1_565
Nd3 Se21 3.059088 1_554
Nd3 Se37 3.092920 1_555
Nd3 Se19 3.567615 1_554
Nd4 Se13 2.955673 1_555
Nd4 Se50 2.975540 1_555
Nd4 Se9 3.025798 1_555
Nd4 Se36 3.031480 1_655
Nd4 Se17 3.037262 1_555
Nd4 Se18 3.059088 1_555
Nd4 Se34 3.092932 1_555
Nd4 Se20 3.567627 1_555
Nd5 Se12 2.955673 1_555
Nd5 Se51 2.975540 1_554
Nd5 Se8 3.025798 1_555
Nd5 Se37 3.031480 1_555
Nd5 Se16 3.037273 1_555
Nd5 Se19 3.059088 1_554
Nd5 Se35 3.092932 1_555
Nd5 Se21 3.567615 1_554
Nd6 Se15 2.955673 1_555
Nd6 Se48 2.975540 1_555
Nd6 Se11 3.025798 1_555
Nd6 Se38 3.031480 1_555
Nd6 Se26 3.037262 1_555
Nd6 Se16 3.059088 1_655
Nd6 Se32 3.092932 1_554
Nd6 Se22 3.567627 1_554
Nd7 Se14 2.955685 1_555
Nd7 Se49 2.975544 1_555
Nd7 Se10 3.025798 1_555
Nd7 Se39 3.031473 1_555
Nd7 Se27 3.037267 1_555
Nd7 Se17 3.059088 1_555
Nd7 Se33 3.092920 1_555
Nd7 Se23 3.567615 1_555
Nd8 Se1 2.955685 1_555
Nd8 Se55 2.975544 1_555
Nd8 Se5 3.025798 1_555
Nd8 Se40 3.031473 1_555
Nd8 Se29 3.037267 1_555
Nd8 Se30 3.059088 1_545
Nd8 Se46 3.092920 1_555
Nd8 Se24 3.567615 1_455
Nd9 Se0 2.955700 1_555
Nd9 Se54 2.975533 1_555
Nd9 Se4 3.025798 1_555
Nd9 Se41 3.031477 1_545
Nd9 Se28 3.037284 1_555
Nd9 Se31 3.059088 1_555
Nd9 Se47 3.092935 1_544
Nd9 Se25 3.567622 1_544
Nd10 Se3 2.955673 1_555
Nd10 Se48 2.975540 1_556
Nd10 Se7 3.025798 1_555
Nd10 Se42 3.031480 1_545
Nd10 Se22 3.037273 1_555
Nd10 Se28 3.059088 1_556
Nd10 Se44 3.092932 1_555
Nd10 Se26 3.567615 1_556
Nd11 Se2 2.955700 1_555
Nd11 Se49 2.975533 1_555
Nd11 Se6 3.025798 1_555
Nd11 Se43 3.031477 1_555
Nd11 Se23 3.037284 1_555
Nd11 Se29 3.059088 1_555
Nd11 Se45 3.092935 1_555
Nd11 Se27 3.567622 1_555
Nd12 Se5 2.955685 1_555
Nd12 Se54 2.975544 1_556
Nd12 Se1 3.025798 1_555
Nd12 Se44 3.031473 1_555
Nd12 Se25 3.037267 1_545
Nd12 Se26 3.059088 1_556
Nd12 Se42 3.092920 1_545
Nd12 Se28 3.567615 1_556
Nd13 Se4 2.955700 1_455
Nd13 Se55 2.975533 1_555
Nd13 Se0 3.025798 1_455
Nd13 Se45 3.031477 1_555
Nd13 Se24 3.037284 1_455
Nd13 Se27 3.059088 1_555
Nd13 Se43 3.092935 1_555
Nd13 Se29 3.567622 1_555
Nd14 Se7 2.955673 1_555
Nd14 Se52 2.975540 1_545
Nd14 Se3 3.025798 1_555
Nd14 Se46 3.031480 1_655
Nd14 Se18 3.037273 1_545
Nd14 Se24 3.059088 1_555
Nd14 Se40 3.092932 1_655
Nd14 Se30 3.567615 1_645
Nd15 Se6 2.955700 1_555
Nd15 Se53 2.975533 1_555
Nd15 Se2 3.025798 1_555
Nd15 Se47 3.031477 1_555
Nd15 Se19 3.037284 1_555
Nd15 Se25 3.059088 1_555
Nd15 Se41 3.092935 1_556
Nd15 Se31 3.567622 1_566
Nd16 O3 2.444942 1_555
Nd16 Se5 2.907065 1_565
Nd16 Se16 3.007523 1_555
Nd16 Se35 3.059275 1_555
Nd16 Se38 3.120229 1_455
Nd16 Se55 3.185938 1_565
Nd16 Se30 3.243349 1_555
Nd16 Se12 3.457345 1_555
Nd17 O2 2.444930 1_555
Nd17 Se4 2.907049 1_555
Nd17 Se17 3.007536 1_555
Nd17 Se34 3.059289 1_555
Nd17 Se39 3.120237 1_555
Nd17 Se54 3.185942 1_555
Nd17 Se31 3.243327 1_555
Nd17 Se13 3.457349 1_555
Nd18 O1 2.444942 1_566
Nd18 Se14 2.907065 1_566
Nd18 Se18 3.007523 1_455
Nd18 Se40 3.059275 1_565
Nd18 Se36 3.120229 1_555
Nd18 Se53 3.185938 1_555
Nd18 Se21 3.243349 1_555
Nd18 Se7 3.457345 1_465
Nd19 O0 2.444930 1_555
Nd19 Se15 2.907064 1_555
Nd19 Se19 3.007530 1_554
Nd19 Se41 3.059289 1_555
Nd19 Se37 3.120237 1_555
Nd19 Se52 3.185942 1_555
Nd19 Se20 3.243325 1_555
Nd19 Se6 3.457345 1_554
Nd20 O0 2.444942 1_555
Nd20 Se1 2.907065 1_554
Nd20 Se20 3.007523 1_555
Nd20 Se39 3.059275 1_555
Nd20 Se34 3.120229 1_555
Nd20 Se54 3.185938 1_555
Nd20 Se26 3.243349 1_555
Nd20 Se8 3.457345 1_555
Nd21 O1 2.444930 1_565
Nd21 Se0 2.907049 1_465
Nd21 Se21 3.007536 1_554
Nd21 Se38 3.059289 1_455
Nd21 Se35 3.120237 1_555
Nd21 Se55 3.185942 1_565
Nd21 Se27 3.243327 1_565
Nd21 Se9 3.457349 1_454
Nd22 O2 2.444942 1_555
Nd22 Se10 2.907065 1_555
Nd22 Se22 3.007523 1_555
Nd22 Se44 3.059275 1_555
Nd22 Se32 3.120229 1_555
Nd22 Se49 3.185938 1_555
Nd22 Se17 3.243349 1_555
Nd22 Se3 3.457345 1_555
Nd23 O3 2.444930 1_555
Nd23 Se11 2.907064 1_455
Nd23 Se23 3.007530 1_555
Nd23 Se45 3.059289 1_555
Nd23 Se33 3.120237 1_555
Nd23 Se48 3.185942 1_455
Nd23 Se16 3.243325 1_555
Nd23 Se2 3.457345 1_555
Nd24 O2 2.444930 1_555
Nd24 Se13 2.907064 1_555
Nd24 Se24 3.007530 1_555
Nd24 Se43 3.059289 1_655
Nd24 Se46 3.120237 1_655
Nd24 Se51 3.185942 1_655
Nd24 Se22 3.243325 1_555
Nd24 Se4 3.457345 1_555
Nd25 O3 2.444930 1_555
Nd25 Se12 2.907078 1_555
Nd25 Se25 3.007523 1_555
Nd25 Se42 3.059295 1_555
Nd25 Se47 3.120226 1_555
Nd25 Se50 3.185946 1_555
Nd25 Se23 3.243322 1_555
Nd25 Se5 3.457360 1_565
Nd26 O0 2.444930 1_556
Nd26 Se6 2.907049 1_555
Nd26 Se26 3.007536 1_556
Nd26 Se32 3.059289 1_555
Nd26 Se44 3.120237 1_555
Nd26 Se49 3.185942 1_555
Nd26 Se29 3.243327 1_555
Nd26 Se15 3.457349 1_556
Nd27 O1 2.444930 1_555
Nd27 Se7 2.907078 1_454
Nd27 Se27 3.007523 1_555
Nd27 Se33 3.059295 1_555
Nd27 Se45 3.120226 1_555
Nd27 Se48 3.185946 1_455
Nd27 Se28 3.243322 1_455
Nd27 Se14 3.457360 1_555
Nd28 O1 2.444930 1_666
Nd28 Se9 2.907064 1_555
Nd28 Se28 3.007530 1_566
Nd28 Se47 3.059289 1_555
Nd28 Se42 3.120237 1_555
Nd28 Se50 3.185942 1_555
Nd28 Se18 3.243325 1_555
Nd28 Se0 3.457345 1_566
Nd29 O0 2.444930 1_556
Nd29 Se8 2.907078 1_556
Nd29 Se29 3.007523 1_555
Nd29 Se46 3.059295 1_555
Nd29 Se43 3.120226 1_555
Nd29 Se51 3.185946 1_555
Nd29 Se19 3.243322 1_555
Nd29 Se1 3.457360 1_555
Nd30 O3 2.444930 1_555
Nd30 Se2 2.907049 1_555
Nd30 Se30 3.007536 1_555
Nd30 Se36 3.059289 1_555
Nd30 Se40 3.120237 1_565
Nd30 Se53 3.185942 1_555
Nd30 Se25 3.243327 1_555
Nd30 Se11 3.457349 1_455
Nd31 O2 2.444930 1_555
Nd31 Se3 2.907078 1_555
Nd31 Se31 3.007523 1_555
Nd31 Se37 3.059295 1_545
Nd31 Se41 3.120226 1_545
Nd31 Se52 3.185946 1_545
Nd31 Se24 3.243322 1_555
Nd31 Se10 3.457360 1_555
Nd32 Se38 2.971097 1_555
Nd32 Se41 2.971097 1_555
Nd32 Se30 3.046912 1_655
Nd32 Se24 3.046916 1_565
Nd32 Se15 3.095728 1_555
Nd32 Se0 3.095732 1_565
Nd32 Se55 3.184779 1_665
Nd32 Se52 3.184779 1_555
Nd33 Se39 2.971097 1_555
Nd33 Se40 2.971097 1_554
Nd33 Se31 3.046910 1_555
Nd33 Se25 3.046910 1_544
Nd33 Se14 3.095732 1_555
Nd33 Se1 3.095732 1_554
Nd33 Se53 3.184779 1_544
Nd33 Se54 3.184779 1_555
Nd34 Se36 2.971097 1_555
Nd34 Se43 2.971097 1_555
Nd34 Se21 3.046912 1_555
Nd34 Se19 3.046916 1_555
Nd34 Se13 3.095728 1_455
Nd34 Se2 3.095732 1_555
Nd34 Se53 3.184779 1_555
Nd34 Se51 3.184779 1_555
Nd35 Se37 2.971097 1_555
Nd35 Se42 2.971097 1_555
Nd35 Se20 3.046916 1_555
Nd35 Se18 3.046916 1_555
Nd35 Se12 3.095728 1_555
Nd35 Se3 3.095728 1_565
Nd35 Se52 3.184779 1_555
Nd35 Se50 3.184779 1_555
Nd36 Se34 2.971097 1_555
Nd36 Se45 2.971097 1_655
Nd36 Se26 3.046912 1_555
Nd36 Se28 3.046916 1_555
Nd36 Se11 3.095728 1_555
Nd36 Se4 3.095732 1_555
Nd36 Se54 3.184779 1_555
Nd36 Se48 3.184779 1_555
Nd37 Se35 2.971097 1_545
Nd37 Se44 2.971097 1_555
Nd37 Se29 3.046910 1_555
Nd37 Se27 3.046910 1_555
Nd37 Se10 3.095732 1_555
Nd37 Se5 3.095732 1_555
Nd37 Se49 3.184779 1_555
Nd37 Se55 3.184779 1_555
Nd38 Se32 2.971097 1_555
Nd38 Se47 2.971097 1_555
Nd38 Se17 3.046912 1_555
Nd38 Se23 3.046916 1_555
Nd38 Se9 3.095728 1_555
Nd38 Se6 3.095732 1_555
Nd38 Se49 3.184779 1_555
Nd38 Se50 3.184779 1_555
Nd39 Se33 2.971097 1_555
Nd39 Se46 2.971097 1_554
Nd39 Se22 3.046916 1_454
Nd39 Se16 3.046916 1_555
Nd39 Se7 3.095728 1_454
Nd39 Se8 3.095728 1_555
Nd39 Se48 3.184779 1_455
Nd39 Se51 3.184779 1_554
