# generated using pymatgen
data_Al2CuIr
_symmetry_space_group_name_H-M   'P 1'
_cell_length_a   4.75914635
_cell_length_b   4.75914635
_cell_length_c   5.20304619
_cell_angle_alpha   90.00000000
_cell_angle_beta   90.00000000
_cell_angle_gamma   115.63386524
_symmetry_Int_Tables_number   1
_chemical_formula_structural   Al2CuIr
_chemical_formula_sum   'Al4 Cu2 Ir2'
_cell_volume   106.24747477
_cell_formula_units_Z   2
loop_
 _symmetry_equiv_pos_site_id
 _symmetry_equiv_pos_as_xyz
  1  'x, y, z'
loop_
 _atom_site_type_symbol
 _atom_site_label
 _atom_site_symmetry_multiplicity
 _atom_site_fract_x
 _atom_site_fract_y
 _atom_site_fract_z
 _atom_site_occupancy
  Al  Al0  1  0.25000000  0.25000000  0.50000000  1
  Al  Al1  1  0.75000000  0.75000000  0.50000000  1
  Al  Al2  1  0.75000000  0.25000000  0.17188059  1
  Al  Al3  1  0.25000000  0.75000000  0.82811941  1
  Cu  Cu0  1  0.25000000  0.25000000  -0.00000000  1
  Cu  Cu1  1  0.75000000  0.75000000  -0.00000000  1
  Ir  Ir0  1  0.25000000  0.75000000  0.31958356  1
  Ir  Ir1  1  0.75000000  0.25000000  0.68041644  1
loop_
_geom_bond_atom_site_label_1
_geom_bond_atom_site_label_2
_geom_bond_distance
_geom_bond_site_symmetry_2
Al0 Al1 2.534846 1_555
Al0 Al1 2.534846 1_445
Al0 Ir1 2.558037 1_455
Al0 Ir0 2.558037 1_545
Al0 Ir0 2.558037 1_555
Al0 Ir1 2.558037 1_555
Al0 Cu0 2.601523 1_556
Al0 Cu0 2.601523 1_555
Al0 Al2 2.928646 1_555
Al0 Al3 2.928646 1_545
Al0 Al3 2.928646 1_555
Al0 Al2 2.928646 1_455
Al1 Ir0 2.558037 1_655
Al1 Ir1 2.558037 1_565
Al1 Ir0 2.558037 1_555
Al1 Ir1 2.558037 1_555
Al1 Cu1 2.601523 1_556
Al1 Cu1 2.601523 1_555
Al1 Al2 2.928646 1_565
Al1 Al3 2.928646 1_655
Al1 Al2 2.928646 1_555
Al1 Al3 2.928646 1_555
Al2 Cu1 2.542075 1_545
Al2 Cu1 2.542075 1_555
Al2 Cu0 2.542075 1_555
Al2 Cu0 2.542075 1_655
Al2 Ir1 2.557111 1_554
Al2 Ir1 2.645936 1_555
Al2 Ir0 2.648782 1_655
Al2 Ir0 2.648782 1_545
Al3 Cu1 2.542075 1_556
Al3 Cu1 2.542075 1_456
Al3 Cu0 2.542075 1_556
Al3 Cu0 2.542075 1_566
Al3 Ir0 2.557111 1_556
Al3 Ir0 2.645936 1_555
Al3 Ir1 2.648782 1_455
Al3 Ir1 2.648782 1_565
Cu0 Cu1 2.534846 1_555
Cu0 Cu1 2.534846 1_445
Cu0 Ir1 2.902981 1_554
Cu0 Ir1 2.902981 1_454
Cu0 Ir0 2.902981 1_545
Cu0 Ir0 2.902981 1_555
Cu1 Ir1 2.902981 1_554
Cu1 Ir0 2.902981 1_655
Cu1 Ir0 2.902981 1_555
Cu1 Ir1 2.902981 1_564
