# generated using pymatgen
data_Sr4LaMn5O13
_symmetry_space_group_name_H-M   'P 1'
_cell_length_a   3.87334500
_cell_length_b   8.84318764
_cell_length_c   8.90098933
_cell_angle_alpha   90.60256109
_cell_angle_beta   89.99975902
_cell_angle_gamma   90.00009007
_symmetry_Int_Tables_number   1
_chemical_formula_structural   Sr4LaMn5O13
_chemical_formula_sum   'Sr4 La1 Mn5 O13'
_cell_volume   304.86620537
_cell_formula_units_Z   1
loop_
 _symmetry_equiv_pos_site_id
 _symmetry_equiv_pos_as_xyz
  1  'x, y, z'
loop_
 _atom_site_type_symbol
 _atom_site_label
 _atom_site_symmetry_multiplicity
 _atom_site_fract_x
 _atom_site_fract_y
 _atom_site_fract_z
 _atom_site_occupancy
  Sr  Sr0  1  0.50001700  0.89930800  0.32126100  1
  Sr  Sr1  1  0.50001500  0.10071000  0.67872700  1
  Sr  Sr2  1  0.49999500  0.70164400  0.88497700  1
  Sr  Sr3  1  0.49999900  0.29832900  0.11504300  1
  La  La0  1  0.50007000  0.50000100  0.50000700  1
  Mn  Mn0  1  0.00002500  0.80041800  0.60506300  1
  Mn  Mn1  1  0.99999600  0.19960800  0.39491000  1
  Mn  Mn2  1  0.00001300  0.60632300  0.19692300  1
  Mn  Mn3  1  0.00001300  0.39365600  0.80310000  1
  Mn  Mn4  1  0.99971700  0.00000900  0.00003400  1
  O  O0  1  0.00003500  0.68525400  0.41341200  1
  O  O1  1  0.00002200  0.31473800  0.58659800  1
  O  O2  1  0.50001700  0.58704100  0.16468700  1
  O  O3  1  0.50001200  0.41293600  0.83535200  1
  O  O4  1  0.00003300  0.00001400  0.50003500  1
  O  O5  1  0.99997800  0.79644000  0.07879400  1
  O  O6  1  0.99997600  0.20361800  0.92120700  1
  O  O7  1  0.99999800  0.91664500  0.80132900  1
  O  O8  1  0.99999200  0.08326700  0.19849500  1
  O  O9  1  0.00002700  0.59594900  0.71388900  1
  O  O10  1  0.00002200  0.40406100  0.28612400  1
  O  O11  1  0.50002500  0.79123500  0.59989100  1
  O  O12  1  0.50000200  0.20879600  0.40014100  1
loop_
_geom_bond_atom_site_label_1
_geom_bond_atom_site_label_2
_geom_bond_distance
_geom_bond_site_symmetry_2
La0 O0 2.656050 1_655
La0 O1 2.656066 1_655
La0 O0 2.656256 1_555
La0 O1 2.656329 1_555
La0 O12 2.715430 1_555
La0 O11 2.715724 1_555
La0 O10 2.839037 1_655
La0 O9 2.839074 1_655
La0 O9 2.839292 1_555
La0 O10 2.839300 1_555
La0 O2 3.090160 1_555
La0 O3 3.090433 1_555
Mn0 O11 1.938901 1_555
Mn0 O11 1.938901 1_455
Mn0 O0 1.977542 1_555
Mn0 O4 2.006019 1_565
Mn0 O7 2.017552 1_455
Mn0 O9 2.060236 1_555
Mn1 O12 1.938891 1_555
Mn1 O12 1.938938 1_655
Mn1 O1 1.977672 1_655
Mn1 O4 2.006413 1_655
Mn1 O8 2.019198 1_555
Mn1 O10 2.059941 1_655
Mn2 O10 1.964562 1_555
Mn2 O2 1.964948 1_455
Mn2 O2 1.964977 1_555
Mn2 O5 1.992317 1_455
Mn2 O0 2.042576 1_555
Mn3 O9 1.964850 1_555
Mn3 O3 1.964979 1_555
Mn3 O3 1.964984 1_455
Mn3 O6 1.991619 1_455
Mn3 O1 2.042646 1_555
Mn4 O8 1.906634 1_555
Mn4 O7 1.908990 1_544
Mn4 O5 1.938742 1_545
Mn4 O6 1.939293 1_554
O0 Sr0 2.835312 1_555
O0 Sr0 2.835416 1_455
O1 Sr1 2.835137 1_555
O1 Sr1 2.835166 1_455
O2 Sr3 2.586508 1_555
O2 Sr2 2.697915 1_554
O2 Sr0 3.080078 1_555
O3 Sr2 2.586446 1_555
O3 Sr3 2.697772 1_556
O3 Sr1 3.079956 1_555
O4 Sr1 2.653942 1_555
O4 Sr1 2.654036 1_455
O4 Sr0 2.654404 1_545
O4 Sr0 2.654502 1_445
O5 Sr2 2.720107 1_554
O5 Sr2 2.720192 1_654
O5 Sr0 3.032181 1_555
O5 Sr0 3.032384 1_655
O6 Sr3 2.719962 1_556
O6 Sr3 2.720098 1_656
O6 Sr1 3.032376 1_555
O6 Sr1 3.032560 1_655
O7 Sr1 2.761920 1_565
O7 Sr1 2.762002 1_665
O7 Sr2 2.819526 1_655
O7 Sr2 2.819534 1_555
O8 Sr0 2.761918 1_545
O8 Sr0 2.762064 1_645
O8 Sr3 2.819408 1_555
O8 Sr3 2.819437 1_655
O9 Sr2 2.629260 1_555
O9 Sr2 2.629436 1_455
O10 Sr3 2.629357 1_555
O10 Sr3 2.629496 1_455
O11 Sr2 2.666294 1_555
O11 Sr0 2.667217 1_555
O11 Sr1 2.818119 1_565
O12 Sr3 2.666239 1_555
O12 Sr1 2.666893 1_555
O12 Sr0 2.818323 1_545
