# generated using pymatgen
data_Pb3NO6
_symmetry_space_group_name_H-M   'P 1'
_cell_length_a   5.66874200
_cell_length_b   8.98513800
_cell_length_c   14.06689700
_cell_angle_alpha   90.00000000
_cell_angle_beta   90.00000000
_cell_angle_gamma   90.00000000
_symmetry_Int_Tables_number   1
_chemical_formula_structural   Pb3NO6
_chemical_formula_sum   'Pb12 N4 O24'
_cell_volume   716.48936870
_cell_formula_units_Z   4
loop_
 _symmetry_equiv_pos_site_id
 _symmetry_equiv_pos_as_xyz
  1  'x, y, z'
loop_
 _atom_site_type_symbol
 _atom_site_label
 _atom_site_symmetry_multiplicity
 _atom_site_fract_x
 _atom_site_fract_y
 _atom_site_fract_z
 _atom_site_occupancy
  Pb  Pb0  1  0.75000000  0.76693700  0.16234100  1
  Pb  Pb1  1  0.25000000  0.23306300  0.83765900  1
  Pb  Pb2  1  0.25000000  0.76693700  0.33765900  1
  Pb  Pb3  1  0.75000000  0.23306300  0.66234100  1
  Pb  Pb4  1  0.75000000  0.45550400  0.33538800  1
  Pb  Pb5  1  0.25000000  0.54449600  0.66461200  1
  Pb  Pb6  1  0.25000000  0.45550400  0.16461200  1
  Pb  Pb7  1  0.75000000  0.54449600  0.83538800  1
  Pb  Pb8  1  0.25000000  0.07813500  0.16589100  1
  Pb  Pb9  1  0.75000000  0.92186500  0.83410900  1
  Pb  Pb10  1  0.75000000  0.07813500  0.33410900  1
  Pb  Pb11  1  0.25000000  0.92186500  0.66589100  1
  N  N0  1  0.75000000  0.76918400  0.51038400  1
  N  N1  1  0.25000000  0.23081600  0.48961600  1
  N  N2  1  0.25000000  0.76918400  0.98961600  1
  N  N3  1  0.75000000  0.23081600  0.01038400  1
  O  O0  1  0.50000000  0.60486500  0.25000000  1
  O  O1  1  0.00000000  0.39513500  0.75000000  1
  O  O2  1  0.50000000  0.39513500  0.75000000  1
  O  O3  1  0.00000000  0.60486500  0.25000000  1
  O  O4  1  0.50000000  0.92687500  0.25000000  1
  O  O5  1  0.00000000  0.07312500  0.75000000  1
  O  O6  1  0.50000000  0.07312500  0.75000000  1
  O  O7  1  0.00000000  0.92687500  0.25000000  1
  O  O8  1  0.50000000  0.26635800  0.25000000  1
  O  O9  1  0.00000000  0.73364200  0.75000000  1
  O  O10  1  0.50000000  0.73364200  0.75000000  1
  O  O11  1  0.00000000  0.26635800  0.25000000  1
  O  O12  1  0.75000000  0.77262600  0.41841100  1
  O  O13  1  0.25000000  0.22737400  0.58158900  1
  O  O14  1  0.25000000  0.77262600  0.08158900  1
  O  O15  1  0.75000000  0.22737400  0.91841100  1
  O  O16  1  0.75000000  0.89044700  0.55566100  1
  O  O17  1  0.25000000  0.10955300  0.44433900  1
  O  O18  1  0.25000000  0.89044700  0.94433900  1
  O  O19  1  0.75000000  0.10955300  0.05566100  1
  O  O20  1  0.75000000  0.64453000  0.55164600  1
  O  O21  1  0.25000000  0.35547000  0.44835400  1
  O  O22  1  0.25000000  0.64453000  0.94835400  1
  O  O23  1  0.75000000  0.35547000  0.05164600  1
loop_
_geom_bond_atom_site_label_1
_geom_bond_atom_site_label_2
_geom_bond_distance
_geom_bond_site_symmetry_2
N0 O20 1.261496 1_555
N0 O16 1.262063 1_555
N0 O12 1.294144 1_555
N1 O21 1.261496 1_555
N1 O17 1.262063 1_555
N1 O13 1.294144 1_555
N2 O22 1.261496 1_555
N2 O18 1.262063 1_555
N2 O14 1.294144 1_556
N3 O23 1.261496 1_555
N3 O19 1.262063 1_555
N3 O15 1.294144 1_554
O0 Pb6 2.291769 1_555
O0 Pb4 2.291769 1_555
O0 Pb0 2.376880 1_555
O0 Pb2 2.376880 1_555
O1 Pb5 2.291769 1_555
O1 Pb7 2.291769 1_455
O1 Pb3 2.376880 1_455
O1 Pb1 2.376880 1_555
O2 Pb7 2.291769 1_555
O2 Pb5 2.291769 1_555
O2 Pb3 2.376880 1_555
O2 Pb1 2.376880 1_555
O3 Pb6 2.291769 1_555
O3 Pb4 2.291769 1_455
O3 Pb0 2.376880 1_455
O3 Pb2 2.376880 1_555
O4 Pb10 2.292465 1_565
O4 Pb8 2.292465 1_565
O4 Pb2 2.365181 1_555
O4 Pb0 2.365181 1_555
O5 Pb11 2.292465 1_545
O5 Pb9 2.292465 1_445
O5 Pb1 2.365181 1_555
O5 Pb3 2.365181 1_455
O6 Pb11 2.292465 1_545
O6 Pb9 2.292465 1_545
O6 Pb1 2.365181 1_555
O6 Pb3 2.365181 1_555
O7 Pb10 2.292465 1_465
O7 Pb8 2.292465 1_565
O7 Pb2 2.365181 1_555
O7 Pb0 2.365181 1_455
O8 Pb8 2.503688 1_555
O8 Pb10 2.503688 1_555
O8 Pb6 2.517831 1_555
O8 Pb4 2.517831 1_555
O9 Pb11 2.503688 1_555
O9 Pb9 2.503688 1_455
O9 Pb5 2.517831 1_555
O9 Pb7 2.517831 1_455
O10 Pb11 2.503688 1_555
O10 Pb9 2.503688 1_555
O10 Pb5 2.517831 1_555
O10 Pb7 2.517831 1_555
O11 Pb8 2.503688 1_555
O11 Pb10 2.503688 1_455
O11 Pb6 2.517831 1_555
O11 Pb4 2.517831 1_455
