# generated using pymatgen
data_Zn5(GeN3)2
_symmetry_space_group_name_H-M   'P 1'
_cell_length_a   5.31539001
_cell_length_b   5.69179302
_cell_length_c   13.99444131
_cell_angle_alpha   89.99999733
_cell_angle_beta   91.45263837
_cell_angle_gamma   122.37150933
_symmetry_Int_Tables_number   1
_chemical_formula_structural   Zn5(GeN3)2
_chemical_formula_sum   'Zn10 Ge4 N12'
_cell_volume   357.43099469
_cell_formula_units_Z   2
loop_
 _symmetry_equiv_pos_site_id
 _symmetry_equiv_pos_as_xyz
  1  'x, y, z'
loop_
 _atom_site_type_symbol
 _atom_site_label
 _atom_site_symmetry_multiplicity
 _atom_site_fract_x
 _atom_site_fract_y
 _atom_site_fract_z
 _atom_site_occupancy
  Zn  Zn0  1  0.23410800  0.85057700  0.04127200  1
  Zn  Zn1  1  0.76589200  0.61647000  0.45872800  1
  Zn  Zn2  1  0.76589200  0.14942300  0.95872800  1
  Zn  Zn3  1  0.23410800  0.38353000  0.54127200  1
  Zn  Zn4  1  0.28337400  0.21972000  0.72544000  1
  Zn  Zn5  1  0.71662600  0.93634700  0.77456000  1
  Zn  Zn6  1  0.71662600  0.78028000  0.27456000  1
  Zn  Zn7  1  0.28337400  0.06365300  0.22544000  1
  Zn  Zn8  1  0.00000000  0.54878400  0.75000000  1
  Zn  Zn9  1  0.00000000  0.45121600  0.25000000  1
  Ge  Ge0  1  0.57762500  0.03375500  0.59594000  1
  Ge  Ge1  1  0.42237500  0.45613000  0.90406000  1
  Ge  Ge2  1  0.42237500  0.96624500  0.40406000  1
  Ge  Ge3  1  0.57762500  0.54387000  0.09594000  1
  N  N0  1  0.96564700  0.25316900  0.64519700  1
  N  N1  1  0.03435300  0.28752200  0.85480300  1
  N  N2  1  0.03435300  0.74683100  0.35480300  1
  N  N3  1  0.96564700  0.71247800  0.14519700  1
  N  N4  1  0.35824500  0.91729100  0.70711100  1
  N  N5  1  0.64175500  0.55904500  0.79288900  1
  N  N6  1  0.64175500  0.08270900  0.29288900  1
  N  N7  1  0.35824500  0.44095500  0.20711100  1
  N  N8  1  0.48568100  0.22893200  0.50283700  1
  N  N9  1  0.51431900  0.74325200  0.99716300  1
  N  N10  1  0.51431900  0.77106800  0.49716300  1
  N  N11  1  0.48568100  0.25674800  0.00283700  1
loop_
_geom_bond_atom_site_label_1
_geom_bond_atom_site_label_2
_geom_bond_distance
_geom_bond_site_symmetry_2
Ge0 N0 1.859687 1_555
Ge0 N4 1.866516 1_545
Ge0 N10 1.922821 1_545
Ge0 N8 1.928641 1_555
Ge1 N1 1.859687 1_555
Ge1 N5 1.866516 1_555
Ge1 N11 1.922825 1_556
Ge1 N9 1.928645 1_555
Ge2 N2 1.859687 1_555
Ge2 N6 1.866516 1_565
Ge2 N8 1.922821 1_565
Ge2 N10 1.928641 1_555
Ge3 N3 1.859687 1_555
Ge3 N7 1.866516 1_555
Ge3 N9 1.922825 1_554
Ge3 N11 1.928645 1_555
N0 Zn3 1.916625 1_655
N0 Zn4 2.097048 1_655
N0 Zn8 2.161697 1_655
N0 Zn5 2.418025 1_545
N1 Zn2 1.916624 1_455
N1 Zn5 2.097045 1_445
N1 Zn8 2.161697 1_555
N1 Zn4 2.418028 1_555
N2 Zn1 1.916625 1_455
N2 Zn6 2.097048 1_455
N2 Zn9 2.161697 1_555
N2 Zn7 2.418025 1_565
N3 Zn0 1.916624 1_655
N3 Zn7 2.097045 1_665
N3 Zn9 2.161697 1_655
N3 Zn6 2.418028 1_555
N4 Zn4 1.981414 1_565
N4 Zn8 2.041257 1_555
N4 Zn5 2.054044 1_555
N5 Zn5 1.981425 1_555
N5 Zn8 2.041254 1_655
N5 Zn4 2.054044 1_555
N6 Zn6 1.981414 1_545
N6 Zn9 2.041257 1_655
N6 Zn7 2.054044 1_555
N7 Zn7 1.981425 1_555
N7 Zn9 2.041254 1_555
N7 Zn6 2.054044 1_555
N8 Zn1 1.998382 1_555
N8 Zn3 2.036710 1_555
N9 Zn0 1.998374 1_556
N9 Zn2 2.036710 1_565
N10 Zn3 1.998382 1_555
N10 Zn1 2.036710 1_555
N11 Zn2 1.998374 1_554
N11 Zn0 2.036710 1_545
