# generated using pymatgen
data_Mg6SiC
_symmetry_space_group_name_H-M   'P 1'
_cell_length_a   4.54269400
_cell_length_b   6.14569300
_cell_length_c   10.89567400
_cell_angle_alpha   90.00000000
_cell_angle_beta   90.00000000
_cell_angle_gamma   90.00000000
_symmetry_Int_Tables_number   1
_chemical_formula_structural   Mg6SiC
_chemical_formula_sum   'Mg12 Si2 C2'
_cell_volume   304.18545633
_cell_formula_units_Z   2
loop_
 _symmetry_equiv_pos_site_id
 _symmetry_equiv_pos_as_xyz
  1  'x, y, z'
loop_
 _atom_site_type_symbol
 _atom_site_label
 _atom_site_symmetry_multiplicity
 _atom_site_fract_x
 _atom_site_fract_y
 _atom_site_fract_z
 _atom_site_occupancy
  Mg  Mg0  1  0.00000000  0.78238200  0.61380300  1
  Mg  Mg1  1  0.00000000  0.21761800  0.61380300  1
  Mg  Mg2  1  0.00000000  0.50000000  0.84349300  1
  Mg  Mg3  1  0.50000000  0.24111200  0.91532400  1
  Mg  Mg4  1  0.50000000  0.75888800  0.91532400  1
  Mg  Mg5  1  0.50000000  0.50000000  0.66388400  1
  Mg  Mg6  1  0.00000000  0.28238200  0.11380300  1
  Mg  Mg7  1  0.00000000  0.71761800  0.11380300  1
  Mg  Mg8  1  0.00000000  0.00000000  0.34349300  1
  Mg  Mg9  1  0.50000000  0.74111200  0.41532400  1
  Mg  Mg10  1  0.50000000  0.25888800  0.41532400  1
  Mg  Mg11  1  0.50000000  0.00000000  0.16388400  1
  Si  Si0  1  0.00000000  0.00000000  0.87570000  1
  Si  Si1  1  0.00000000  0.50000000  0.37570000  1
  C  C0  1  0.50000000  0.00000000  0.55866800  1
  C  C1  1  0.50000000  0.50000000  0.05866800  1
loop_
_geom_bond_atom_site_label_1
_geom_bond_atom_site_label_2
_geom_bond_distance
_geom_bond_site_symmetry_2
Mg0 Mg5 2.910068 1_555
Mg0 Mg5 2.910068 1_455
Mg0 Mg2 3.045467 1_555
Mg0 Si1 3.121231 1_555
Mg0 Si0 3.151411 1_565
Mg0 Mg8 3.234646 1_565
Mg1 Mg5 2.910068 1_555
Mg1 Mg5 2.910068 1_455
Mg1 Mg2 3.045467 1_555
Mg1 Si1 3.121231 1_555
Mg1 Si0 3.151411 1_555
Mg1 Mg8 3.234646 1_555
Mg2 Mg4 2.881489 1_455
Mg2 Mg3 2.881489 1_555
Mg2 Mg4 2.881489 1_555
Mg2 Mg3 2.881489 1_455
Mg2 Mg5 2.998118 1_455
Mg2 Mg5 2.998118 1_555
Mg2 Si0 3.092819 1_555
Mg2 Si0 3.092819 1_565
Mg2 Mg7 3.234646 1_556
Mg2 Mg6 3.234646 1_556
Mg3 Si0 2.746114 1_655
Mg3 Si0 2.746114 1_555
Mg3 Mg5 3.168104 1_555
Mg4 Si0 2.746114 1_565
Mg4 Si0 2.746114 1_665
Mg4 Mg5 3.168104 1_555
Mg5 Mg9 3.087108 1_555
Mg6 Mg8 3.045467 1_555
Mg6 Si0 3.121231 1_554
Mg6 Si1 3.151411 1_555
Mg7 Mg8 3.045467 1_565
Mg7 Si0 3.121231 1_564
Mg7 Si1 3.151411 1_555
Mg8 Mg9 2.881489 1_545
Mg8 Mg9 2.881489 1_445
Mg8 Si1 3.092819 1_545
Mg8 Si1 3.092819 1_555
Mg9 Si1 2.746114 1_555
Mg9 Si1 2.746114 1_655
Mg10 Si1 2.746114 1_555
Mg10 Si1 2.746114 1_655
Mg10 Mg8 2.881489 1_555
Mg10 Mg8 2.881489 1_655
Mg10 Mg5 3.087108 1_555
Mg10 Mg11 3.168104 1_555
Mg11 Mg6 2.910068 1_555
Mg11 Mg6 2.910068 1_655
Mg11 Mg7 2.910068 1_545
Mg11 Mg7 2.910068 1_645
Mg11 Mg8 2.998118 1_655
Mg11 Mg8 2.998118 1_555
Mg11 Mg3 3.087108 1_554
Mg11 Mg4 3.087108 1_544
Mg11 Mg9 3.168104 1_545
C0 Mg9 2.229515 1_545
C0 Mg10 2.229515 1_555
C0 Mg1 2.703437 1_655
C0 Mg1 2.703437 1_555
C0 Mg0 2.703437 1_645
C0 Mg0 2.703437 1_545
C1 Mg3 2.229515 1_554
C1 Mg4 2.229515 1_554
C1 Mg7 2.703437 1_555
C1 Mg7 2.703437 1_655
C1 Mg6 2.703437 1_655
C1 Mg6 2.703437 1_555
