# generated using pymatgen
data_Cs3LaN18
_symmetry_space_group_name_H-M   'P 1'
_cell_length_a   9.51863800
_cell_length_b   9.75493637
_cell_length_c   10.17792817
_cell_angle_alpha   97.75669603
_cell_angle_beta   110.20065822
_cell_angle_gamma   102.46177240
_symmetry_Int_Tables_number   1
_chemical_formula_structural   Cs3LaN18
_chemical_formula_sum   'Cs6 La2 N36'
_cell_volume   843.09982852
_cell_formula_units_Z   2
loop_
 _symmetry_equiv_pos_site_id
 _symmetry_equiv_pos_as_xyz
  1  'x, y, z'
loop_
 _atom_site_type_symbol
 _atom_site_label
 _atom_site_symmetry_multiplicity
 _atom_site_fract_x
 _atom_site_fract_y
 _atom_site_fract_z
 _atom_site_occupancy
  Cs  Cs0  1  0.72913100  0.91170600  0.86340800  1
  Cs  Cs1  1  0.27086900  0.08829400  0.13659200  1
  Cs  Cs2  1  0.77258500  0.53065900  0.11491700  1
  Cs  Cs3  1  0.22741500  0.46934100  0.88508300  1
  Cs  Cs4  1  0.80919900  0.08977700  0.33152200  1
  Cs  Cs5  1  0.19080100  0.91022300  0.66847800  1
  La  La0  1  0.68035200  0.38729800  0.62271300  1
  La  La1  1  0.31964800  0.61270200  0.37728700  1
  N  N0  1  0.52416500  0.11198300  0.46707500  1
  N  N1  1  0.47583500  0.88801700  0.53292500  1
  N  N2  1  0.50000000  0.00000000  0.50000000  1
  N  N3  1  0.93997000  0.51311300  0.58355500  1
  N  N4  1  0.06003000  0.48688700  0.41644500  1
  N  N5  1  0.00000000  0.50000000  0.50000000  1
  N  N6  1  0.63051200  0.63234200  0.53445400  1
  N  N7  1  0.36948800  0.36765800  0.46554600  1
  N  N8  1  0.72255300  0.71706200  0.50682500  1
  N  N9  1  0.27744700  0.28293800  0.49317500  1
  N  N10  1  0.81064000  0.79935900  0.47853600  1
  N  N11  1  0.18936000  0.20064100  0.52146400  1
  N  N12  1  0.86623800  0.22965800  0.66774300  1
  N  N13  1  0.13376200  0.77034200  0.33225700  1
  N  N14  1  0.94687000  0.17133300  0.74424500  1
  N  N15  1  0.05313000  0.82866700  0.25575500  1
  N  N16  1  0.02931500  0.11485800  0.81994400  1
  N  N17  1  0.97068500  0.88514200  0.18005600  1
  N  N18  1  0.88326400  0.56912100  0.85547300  1
  N  N19  1  0.11673600  0.43087900  0.14452700  1
  N  N20  1  0.98632300  0.67570600  0.87904200  1
  N  N21  1  0.01367700  0.32429400  0.12095800  1
  N  N22  1  0.08909600  0.77949200  0.90294100  1
  N  N23  1  0.91090400  0.22050800  0.09705900  1
  N  N24  1  0.54093500  0.52803400  0.78587300  1
  N  N25  1  0.45906500  0.47196600  0.21412700  1
  N  N26  1  0.45502400  0.59095000  0.72441600  1
  N  N27  1  0.54497600  0.40905000  0.27558400  1
  N  N28  1  0.36718300  0.65230900  0.66243800  1
  N  N29  1  0.63281700  0.34769100  0.33756200  1
  N  N30  1  0.60614300  0.23597500  0.78669700  1
  N  N31  1  0.39385700  0.76402500  0.21330300  1
  N  N32  1  0.53360800  0.21624400  0.86052000  1
  N  N33  1  0.46639200  0.78375600  0.13948000  1
  N  N34  1  0.46260600  0.19407100  0.93424100  1
  N  N35  1  0.53739400  0.80592900  0.06575900  1
loop_
_geom_bond_atom_site_label_1
_geom_bond_atom_site_label_2
_geom_bond_distance
_geom_bond_site_symmetry_2
Cs0 N23 3.270850 1_566
Cs0 N16 3.309557 1_665
Cs0 N35 3.315716 1_556
Cs0 N17 3.332469 1_556
Cs0 N1 3.336082 1_555
Cs1 N22 3.270850 1_544
Cs1 N17 3.309557 1_445
Cs1 N34 3.315716 1_554
Cs1 N16 3.332469 1_554
Cs1 N0 3.336082 1_555
Cs2 N18 3.200238 1_554
Cs2 N15 3.243146 1_655
Cs2 N27 3.261344 1_555
Cs2 N24 3.306203 1_554
Cs2 N21 3.354462 1_655
Cs2 N17 3.414144 1_555
Cs2 N25 3.428280 1_555
Cs2 N13 3.473026 1_655
Cs2 N32 3.473231 1_554
Cs2 N4 3.485072 1_655
Cs2 N29 3.498527 1_555
Cs2 N19 3.541594 1_655
Cs2 N23 3.557546 1_555
Cs2 N34 3.648300 1_554
Cs2 N35 3.828331 1_555
Cs3 N19 3.200238 1_556
Cs3 N14 3.243146 1_455
Cs3 N26 3.261344 1_555
Cs3 N25 3.306203 1_556
Cs3 N20 3.354462 1_455
Cs3 N16 3.414144 1_555
Cs3 N24 3.428280 1_555
Cs3 N12 3.473026 1_455
Cs3 N33 3.473231 1_556
Cs3 N3 3.485072 1_455
Cs3 N28 3.498527 1_555
Cs3 N18 3.541594 1_455
Cs3 N22 3.557546 1_555
Cs3 N35 3.648300 1_556
Cs3 N34 3.828331 1_555
Cs4 N23 3.184699 1_555
Cs4 N17 3.294577 1_545
Cs4 N11 3.304046 1_655
Cs4 N12 3.317187 1_555
Cs4 N29 3.317378 1_555
Cs4 N10 3.378149 1_545
Cs4 N35 3.425002 1_545
Cs4 N0 3.474123 1_555
Cs5 N22 3.184699 1_555
Cs5 N16 3.294577 1_565
Cs5 N10 3.304046 1_455
Cs5 N13 3.317187 1_555
Cs5 N28 3.317378 1_555
Cs5 N11 3.378149 1_565
Cs5 N34 3.425002 1_565
Cs5 N1 3.474123 1_555
La0 N30 2.548100 1_555
La0 N12 2.551464 1_555
La0 N18 2.591510 1_555
La0 N3 2.697275 1_555
La0 N0 2.726613 1_555
La0 N29 2.737153 1_555
La0 N6 2.742385 1_555
La0 N7 2.784766 1_555
La0 N24 2.845415 1_555
La1 N31 2.548100 1_555
La1 N13 2.551464 1_555
La1 N19 2.591510 1_555
La1 N4 2.697275 1_555
La1 N1 2.726613 1_555
La1 N28 2.737153 1_555
La1 N7 2.742385 1_555
La1 N6 2.784766 1_555
La1 N25 2.845415 1_555
N0 N2 1.184112 1_555
N1 N2 1.184112 1_565
N3 N5 1.184841 1_655
N4 N5 1.184841 1_555
N6 N8 1.204173 1_555
N7 N9 1.204173 1_555
N10 N8 1.170058 1_555
N11 N9 1.170058 1_555
N12 N14 1.189274 1_555
N13 N15 1.189274 1_555
N14 N16 1.181760 1_655
N15 N17 1.181760 1_455
N18 N20 1.196192 1_555
N19 N21 1.196192 1_555
N20 N22 1.175973 1_655
N21 N23 1.175973 1_455
N24 N26 1.184750 1_555
N25 N27 1.184750 1_555
N26 N28 1.186990 1_555
N27 N29 1.186990 1_555
N30 N32 1.190904 1_555
N31 N33 1.190904 1_555
N32 N34 1.182147 1_555
N33 N35 1.182147 1_555
