# generated using pymatgen
data_Nd3GaCoSe7
_symmetry_space_group_name_H-M   'P 1'
_cell_length_a   6.46470900
_cell_length_b   10.30161220
_cell_length_c   10.29767360
_cell_angle_alpha   119.93609681
_cell_angle_beta   90.00000000
_cell_angle_gamma   90.00000000
_symmetry_Int_Tables_number   1
_chemical_formula_structural   Nd3GaCoSe7
_chemical_formula_sum   'Nd6 Ga2 Co2 Se14'
_cell_volume   594.29657450
_cell_formula_units_Z   2
loop_
 _symmetry_equiv_pos_site_id
 _symmetry_equiv_pos_as_xyz
  1  'x, y, z'
loop_
 _atom_site_type_symbol
 _atom_site_label
 _atom_site_symmetry_multiplicity
 _atom_site_fract_x
 _atom_site_fract_y
 _atom_site_fract_z
 _atom_site_occupancy
  Nd  Nd0  1  0.18027700  0.84341300  0.21619900  1
  Nd  Nd1  1  0.18002000  0.78356700  0.62703100  1
  Nd  Nd2  1  0.17989900  0.37300800  0.15673200  1
  Nd  Nd3  1  0.68027700  0.15658700  0.78380100  1
  Nd  Nd4  1  0.68002000  0.21643300  0.37296900  1
  Nd  Nd5  1  0.67989900  0.62699200  0.84326800  1
  Ga  Ga0  1  0.10009400  0.33332400  0.66662500  1
  Ga  Ga1  1  0.60009400  0.66667600  0.33337500  1
  Co  Co0  1  0.49194600  0.99997700  0.99996500  1
  Co  Co1  1  0.99194600  0.00002300  0.00003500  1
  Se  Se0  1  0.45274100  0.56445100  0.08498500  1
  Se  Se1  1  0.45279800  0.91505800  0.47934000  1
  Se  Se2  1  0.45261600  0.52059200  0.43573700  1
  Se  Se3  1  0.95274100  0.43554900  0.91501500  1
  Se  Se4  1  0.95279800  0.08494200  0.52066000  1
  Se  Se5  1  0.95261600  0.47940800  0.56426300  1
  Se  Se6  1  0.47076000  0.33330900  0.66673400  1
  Se  Se7  1  0.97076000  0.66669100  0.33326600  1
  Se  Se8  1  0.25360800  0.13233800  0.23117100  1
  Se  Se9  1  0.25365500  0.76864500  0.90098800  1
  Se  Se10  1  0.25348600  0.09856900  0.86808900  1
  Se  Se11  1  0.75360800  0.86766200  0.76882900  1
  Se  Se12  1  0.75365500  0.23135500  0.09901200  1
  Se  Se13  1  0.75348600  0.90143100  0.13191100  1
loop_
_geom_bond_atom_site_label_1
_geom_bond_atom_site_label_2
_geom_bond_distance
_geom_bond_site_symmetry_2
Nd0 Se8 2.940990 1_565
Nd0 Se7 2.965229 1_455
Nd0 Se9 2.976426 1_554
Nd0 Se1 2.999195 1_555
Nd0 Se13 3.039881 1_455
Nd0 Se0 3.051433 1_555
Nd0 Se4 3.224492 1_465
Nd1 Se9 2.939690 1_555
Nd1 Se7 2.965758 1_455
Nd1 Se10 2.979611 1_565
Nd1 Se2 2.999798 1_555
Nd1 Se11 3.036301 1_455
Nd1 Se1 3.051844 1_555
Nd1 Se5 3.221082 1_455
Nd2 Se10 2.943969 1_554
Nd2 Se7 2.965898 1_455
Nd2 Se8 2.976298 1_555
Nd2 Se0 3.000125 1_555
Nd2 Se12 3.034807 1_455
Nd2 Se2 3.052015 1_555
Nd2 Se3 3.219925 1_454
Nd3 Se11 2.940990 1_545
Nd3 Se6 2.965229 1_555
Nd3 Se12 2.976426 1_556
Nd3 Se4 2.999195 1_555
Nd3 Se10 3.039881 1_555
Nd3 Se3 3.051433 1_555
Nd3 Se1 3.224492 1_545
Nd4 Se12 2.939690 1_555
Nd4 Se6 2.965758 1_555
Nd4 Se13 2.979611 1_545
Nd4 Se5 2.999798 1_555
Nd4 Se8 3.036301 1_555
Nd4 Se4 3.051844 1_555
Nd4 Se2 3.221082 1_555
Nd5 Se13 2.943969 1_556
Nd5 Se6 2.965898 1_555
Nd5 Se11 2.976298 1_555
Nd5 Se3 3.000125 1_555
Nd5 Se9 3.034807 1_555
Nd5 Se5 3.052015 1_555
Nd5 Se0 3.219925 1_556
Ga0 Se6 2.396248 1_555
Ga0 Se5 2.422405 1_455
Ga0 Se3 2.422922 1_455
Ga0 Se4 2.423750 1_455
Ga1 Se7 2.396248 1_555
Ga1 Se2 2.422405 1_555
Ga1 Se0 2.422922 1_555
Ga1 Se1 2.423750 1_555
Co0 Se10 2.574651 1_565
Co0 Se8 2.581029 1_566
Co0 Se9 2.582018 1_555
Co0 Se13 2.666871 1_556
Co0 Se11 2.673290 1_555
Co0 Se12 2.675387 1_566
Co1 Se13 2.574651 1_545
Co1 Se11 2.581029 1_544
Co1 Se12 2.582018 1_555
Co1 Se10 2.666871 1_654
Co1 Se8 2.673290 1_655
Co1 Se9 2.675387 1_644
