# generated using pymatgen
data_Ti5CoSb3
_symmetry_space_group_name_H-M   'P 1'
_cell_length_a   8.18124301
_cell_length_b   8.18124301
_cell_length_c   5.44032000
_cell_angle_alpha   90.00000000
_cell_angle_beta   90.00000000
_cell_angle_gamma   119.99999203
_symmetry_Int_Tables_number   1
_chemical_formula_structural   Ti5CoSb3
_chemical_formula_sum   'Ti10 Co2 Sb6'
_cell_volume   315.35062667
_cell_formula_units_Z   2
loop_
 _symmetry_equiv_pos_site_id
 _symmetry_equiv_pos_as_xyz
  1  'x, y, z'
loop_
 _atom_site_type_symbol
 _atom_site_label
 _atom_site_symmetry_multiplicity
 _atom_site_fract_x
 _atom_site_fract_y
 _atom_site_fract_z
 _atom_site_occupancy
  Ti  Ti0  1  0.25111800  0.00000000  0.75000000  1
  Ti  Ti1  1  0.74888200  0.00000000  0.25000000  1
  Ti  Ti2  1  0.00000000  0.25111800  0.75000000  1
  Ti  Ti3  1  0.00000000  0.74888200  0.25000000  1
  Ti  Ti4  1  0.74888200  0.74888200  0.75000000  1
  Ti  Ti5  1  0.25111800  0.25111800  0.25000000  1
  Ti  Ti6  1  0.33333300  0.66666700  0.50000000  1
  Ti  Ti7  1  0.66666700  0.33333300  0.50000000  1
  Ti  Ti8  1  0.66666700  0.33333300  0.00000000  1
  Ti  Ti9  1  0.33333300  0.66666700  0.00000000  1
  Co  Co0  1  0.00000000  0.00000000  0.50000000  1
  Co  Co1  1  0.00000000  0.00000000  0.00000000  1
  Sb  Sb0  1  0.61027400  0.00000000  0.75000000  1
  Sb  Sb1  1  0.38972600  0.00000000  0.25000000  1
  Sb  Sb2  1  0.00000000  0.61027400  0.75000000  1
  Sb  Sb3  1  0.00000000  0.38972600  0.25000000  1
  Sb  Sb4  1  0.38972600  0.38972600  0.75000000  1
  Sb  Sb5  1  0.61027400  0.61027400  0.25000000  1
loop_
_geom_bond_atom_site_label_1
_geom_bond_atom_site_label_2
_geom_bond_distance
_geom_bond_site_symmetry_2
Ti6 Ti9 2.720160 1_555
Ti6 Ti9 2.720160 1_556
Ti7 Ti8 2.720160 1_556
Ti7 Ti8 2.720160 1_555
Co0 Ti3 2.463861 1_545
Co0 Ti1 2.463861 1_455
Co0 Ti2 2.463861 1_555
Co0 Ti0 2.463861 1_555
Co0 Ti4 2.463862 1_445
Co0 Ti5 2.463862 1_555
Co1 Ti3 2.463861 1_545
Co1 Ti1 2.463861 1_455
Co1 Ti0 2.463861 1_554
Co1 Ti2 2.463861 1_554
Co1 Ti4 2.463862 1_444
Co1 Ti5 2.463862 1_555
Sb0 Ti4 2.799365 1_545
Sb0 Ti2 2.799365 1_655
Sb0 Ti8 2.870793 1_556
Sb0 Ti7 2.870793 1_555
Sb0 Ti9 2.870796 1_546
Sb0 Ti6 2.870796 1_545
Sb0 Ti0 2.938343 1_555
Sb0 Ti1 2.947065 1_555
Sb0 Ti1 2.947065 1_556
Sb1 Ti5 2.799365 1_555
Sb1 Ti3 2.799365 1_545
Sb1 Ti9 2.870793 1_545
Sb1 Ti6 2.870793 1_545
Sb1 Ti8 2.870796 1_555
Sb1 Ti7 2.870796 1_555
Sb1 Ti1 2.938343 1_555
Sb1 Ti0 2.947065 1_555
Sb1 Ti0 2.947065 1_554
Sb2 Ti4 2.799365 1_455
Sb2 Ti0 2.799365 1_565
Sb2 Ti9 2.870793 1_556
Sb2 Ti6 2.870793 1_555
Sb2 Ti8 2.870796 1_456
Sb2 Ti7 2.870796 1_455
Sb2 Ti2 2.938343 1_555
Sb2 Ti3 2.947065 1_556
Sb2 Ti3 2.947065 1_555
Sb3 Ti5 2.799365 1_555
Sb3 Ti1 2.799365 1_455
Sb3 Ti7 2.870793 1_455
Sb3 Ti8 2.870793 1_455
Sb3 Ti9 2.870796 1_555
Sb3 Ti6 2.870796 1_555
Sb3 Ti3 2.938343 1_555
Sb3 Ti2 2.947065 1_554
Sb3 Ti2 2.947065 1_555
Sb4 Ti2 2.799365 1_555
Sb4 Ti0 2.799365 1_555
Sb4 Ti9 2.870800 1_556
Sb4 Ti6 2.870800 1_555
Sb4 Ti7 2.870800 1_555
Sb4 Ti8 2.870800 1_556
Sb4 Ti4 2.938343 1_555
Sb4 Ti5 2.947065 1_555
Sb4 Ti5 2.947065 1_556
Sb5 Ti3 2.799365 1_655
Sb5 Ti1 2.799365 1_565
Sb5 Ti9 2.870800 1_555
Sb5 Ti6 2.870800 1_555
Sb5 Ti7 2.870800 1_555
Sb5 Ti8 2.870800 1_555
Sb5 Ti5 2.938343 1_555
Sb5 Ti4 2.947065 1_554
Sb5 Ti4 2.947065 1_555
