# generated using pymatgen
data_RbMnN2
_symmetry_space_group_name_H-M   'P 1'
_cell_length_a   5.70456700
_cell_length_b   11.41167900
_cell_length_c   16.09058900
_cell_angle_alpha   90.00000000
_cell_angle_beta   90.00000000
_cell_angle_gamma   90.00000000
_symmetry_Int_Tables_number   1
_chemical_formula_structural   RbMnN2
_chemical_formula_sum   'Rb16 Mn16 N32'
_cell_volume   1047.47622400
_cell_formula_units_Z   16
loop_
 _symmetry_equiv_pos_site_id
 _symmetry_equiv_pos_as_xyz
  1  'x, y, z'
loop_
 _atom_site_type_symbol
 _atom_site_label
 _atom_site_symmetry_multiplicity
 _atom_site_fract_x
 _atom_site_fract_y
 _atom_site_fract_z
 _atom_site_occupancy
  Rb  Rb0  1  0.24994500  0.00005500  0.43750700  1
  Rb  Rb1  1  0.74994500  0.49994500  0.56249300  1
  Rb  Rb2  1  0.75005500  0.50005500  0.06249300  1
  Rb  Rb3  1  0.25005500  0.99994500  0.93750700  1
  Rb  Rb4  1  0.75005500  0.99994500  0.56249300  1
  Rb  Rb5  1  0.25005500  0.50005500  0.43750700  1
  Rb  Rb6  1  0.24994500  0.49994500  0.93750700  1
  Rb  Rb7  1  0.74994500  0.00005500  0.06249300  1
  Rb  Rb8  1  0.25512900  0.25006600  0.31250600  1
  Rb  Rb9  1  0.75512900  0.24993400  0.68749400  1
  Rb  Rb10  1  0.74487100  0.75006600  0.18749400  1
  Rb  Rb11  1  0.24487100  0.74993400  0.81250600  1
  Rb  Rb12  1  0.74487100  0.74993400  0.68749400  1
  Rb  Rb13  1  0.24487100  0.75006600  0.31250600  1
  Rb  Rb14  1  0.25512900  0.24993400  0.81250600  1
  Rb  Rb15  1  0.75512900  0.25006600  0.18749400  1
  Mn  Mn0  1  0.75005900  0.99999300  0.31253700  1
  Mn  Mn1  1  0.25005900  0.50000700  0.68746300  1
  Mn  Mn2  1  0.24994100  0.49999300  0.18746300  1
  Mn  Mn3  1  0.74994100  0.00000700  0.81253700  1
  Mn  Mn4  1  0.24994100  0.00000700  0.68746300  1
  Mn  Mn5  1  0.74994100  0.49999300  0.31253700  1
  Mn  Mn6  1  0.75005900  0.50000700  0.81253700  1
  Mn  Mn7  1  0.25005900  0.99999300  0.18746300  1
  Mn  Mn8  1  0.75329400  0.24999900  0.43750800  1
  Mn  Mn9  1  0.25329400  0.25000100  0.56249200  1
  Mn  Mn10  1  0.24670600  0.74999900  0.06249200  1
  Mn  Mn11  1  0.74670600  0.75000100  0.93750800  1
  Mn  Mn12  1  0.24670600  0.75000100  0.56249200  1
  Mn  Mn13  1  0.74670600  0.74999900  0.43750800  1
  Mn  Mn14  1  0.75329400  0.25000100  0.93750800  1
  Mn  Mn15  1  0.25329400  0.24999900  0.06249200  1
  N  N0  1  0.00544200  0.25004400  0.49894300  1
  N  N1  1  0.50544200  0.24995600  0.50105700  1
  N  N2  1  0.99455800  0.75004400  0.00105700  1
  N  N3  1  0.49455800  0.74995600  0.99894300  1
  N  N4  1  0.99455800  0.74995600  0.50105700  1
  N  N5  1  0.49455800  0.75004400  0.49894300  1
  N  N6  1  0.00544200  0.24995600  0.99894300  1
  N  N7  1  0.50544200  0.25004400  0.00105700  1
  N  N8  1  0.75063500  0.37501600  0.37506000  1
  N  N9  1  0.25063500  0.12498400  0.62494000  1
  N  N10  1  0.24936500  0.87501600  0.12494000  1
  N  N11  1  0.74936500  0.62498400  0.87506000  1
  N  N12  1  0.24936500  0.62498400  0.62494000  1
  N  N13  1  0.74936500  0.87501600  0.37506000  1
  N  N14  1  0.75063500  0.12498400  0.87506000  1
  N  N15  1  0.25063500  0.37501600  0.12494000  1
  N  N16  1  0.75089700  0.12499500  0.37503600  1
  N  N17  1  0.25089700  0.37500500  0.62496400  1
  N  N18  1  0.24910300  0.62499500  0.12496400  1
  N  N19  1  0.74910300  0.87500500  0.87503600  1
  N  N20  1  0.24910300  0.87500500  0.62496400  1
  N  N21  1  0.74910300  0.62499500  0.37503600  1
  N  N22  1  0.75089700  0.37500500  0.87503600  1
  N  N23  1  0.25089700  0.12499500  0.12496400  1
  N  N24  1  0.50008400  0.49996300  0.24993200  1
  N  N25  1  0.00008400  0.00003700  0.75006800  1
  N  N26  1  0.49991600  0.99996300  0.25006800  1
  N  N27  1  0.99991600  0.50003700  0.74993200  1
  N  N28  1  0.49991600  0.50003700  0.75006800  1
  N  N29  1  0.99991600  0.99996300  0.24993200  1
  N  N30  1  0.50008400  0.00003700  0.74993200  1
  N  N31  1  0.00008400  0.49996300  0.25006800  1
loop_
_geom_bond_atom_site_label_1
_geom_bond_atom_site_label_2
_geom_bond_distance
_geom_bond_site_symmetry_2
Mn0 N13 1.745324 1_555
Mn0 N16 1.745336 1_565
Mn0 N29 1.745368 1_555
Mn0 N26 1.745440 1_555
Mn1 N12 1.745324 1_555
Mn1 N17 1.745336 1_555
Mn1 N28 1.745368 1_555
Mn1 N27 1.745440 1_455
Mn2 N15 1.745324 1_555
Mn2 N18 1.745336 1_555
Mn2 N31 1.745368 1_555
Mn2 N24 1.745440 1_555
Mn3 N14 1.745324 1_555
Mn3 N19 1.745336 1_545
Mn3 N30 1.745368 1_555
Mn3 N25 1.745440 1_655
Mn4 N9 1.745324 1_555
Mn4 N20 1.745336 1_545
Mn4 N25 1.745368 1_555
Mn4 N30 1.745440 1_555
Mn5 N8 1.745324 1_555
Mn5 N21 1.745336 1_555
Mn5 N24 1.745368 1_555
Mn5 N31 1.745440 1_655
Mn6 N11 1.745324 1_555
Mn6 N22 1.745336 1_555
Mn6 N27 1.745368 1_555
Mn6 N28 1.745440 1_555
Mn7 N10 1.745324 1_555
Mn7 N23 1.745336 1_565
Mn7 N26 1.745368 1_555
Mn7 N29 1.745440 1_455
Mn8 N1 1.744898 1_555
Mn8 N8 1.745063 1_555
Mn8 N16 1.745152 1_555
Mn8 N0 1.745326 1_655
Mn9 N0 1.744898 1_555
Mn9 N9 1.745063 1_555
Mn9 N17 1.745152 1_555
Mn9 N1 1.745326 1_555
Mn10 N3 1.744898 1_554
Mn10 N10 1.745063 1_555
Mn10 N18 1.745152 1_555
Mn10 N2 1.745326 1_455
Mn11 N2 1.744898 1_556
Mn11 N11 1.745063 1_555
Mn11 N19 1.745152 1_555
Mn11 N3 1.745326 1_555
Mn12 N5 1.744898 1_555
Mn12 N12 1.745063 1_555
Mn12 N20 1.745152 1_555
Mn12 N4 1.745326 1_455
Mn13 N4 1.744898 1_555
Mn13 N13 1.745063 1_555
Mn13 N21 1.745152 1_555
Mn13 N5 1.745326 1_555
Mn14 N7 1.744898 1_556
Mn14 N14 1.745063 1_555
Mn14 N22 1.745152 1_555
Mn14 N6 1.745326 1_655
Mn15 N6 1.744898 1_554
Mn15 N15 1.745063 1_555
Mn15 N23 1.745152 1_555
Mn15 N7 1.745326 1_555
N0 Rb8 3.320855 1_555
N0 Rb0 3.325819 1_555
N0 Rb5 3.326297 1_555
N0 Rb9 3.353134 1_455
N0 Rb1 3.361939 1_455
N0 Rb4 3.363584 1_445
N1 Rb9 3.320855 1_555
N1 Rb1 3.325819 1_555
N1 Rb4 3.326297 1_545
N1 Rb8 3.353134 1_555
N1 Rb0 3.361939 1_555
N1 Rb5 3.363584 1_555
N2 Rb10 3.320855 1_555
N2 Rb2 3.325819 1_555
N2 Rb7 3.326297 1_565
N2 Rb11 3.353134 1_654
N2 Rb3 3.361939 1_654
N2 Rb6 3.363584 1_654
N3 Rb11 3.320855 1_555
N3 Rb3 3.325819 1_555
N3 Rb6 3.326297 1_555
N3 Rb10 3.353134 1_556
N3 Rb2 3.361939 1_556
N3 Rb7 3.363584 1_566
N4 Rb12 3.320855 1_555
N4 Rb4 3.325819 1_555
N4 Rb1 3.326297 1_555
N4 Rb13 3.353134 1_655
N4 Rb5 3.361939 1_655
N4 Rb0 3.363584 1_665
N5 Rb13 3.320855 1_555
N5 Rb5 3.325819 1_555
N5 Rb0 3.326297 1_565
N5 Rb12 3.353134 1_555
N5 Rb4 3.361939 1_555
N5 Rb1 3.363584 1_555
N6 Rb14 3.320855 1_555
N6 Rb6 3.325819 1_555
N6 Rb3 3.326297 1_545
N6 Rb15 3.353134 1_456
N6 Rb7 3.361939 1_456
N6 Rb2 3.363584 1_456
N7 Rb15 3.320855 1_555
N7 Rb7 3.325819 1_555
N7 Rb2 3.326297 1_555
N7 Rb14 3.353134 1_554
N7 Rb6 3.361939 1_554
N7 Rb3 3.363584 1_544
N8 Rb8 3.322077 1_555
N8 Rb1 3.335894 1_555
N8 Rb15 3.338028 1_555
N8 Rb5 3.341011 1_655
N8 Rb5 3.346656 1_555
N8 Rb8 3.365811 1_655
N9 Rb9 3.322077 1_455
N9 Rb0 3.335894 1_555
N9 Rb14 3.338028 1_555
N9 Rb4 3.341011 1_545
N9 Rb4 3.346656 1_445
N9 Rb9 3.365811 1_555
N10 Rb10 3.322077 1_555
N10 Rb3 3.335894 1_554
N10 Rb13 3.338028 1_555
N10 Rb7 3.341011 1_465
N10 Rb7 3.346656 1_565
N10 Rb10 3.365811 1_455
N11 Rb11 3.322077 1_655
N11 Rb2 3.335894 1_556
N11 Rb12 3.338028 1_555
N11 Rb6 3.341011 1_555
N11 Rb6 3.346656 1_655
N11 Rb11 3.365811 1_555
N12 Rb12 3.322077 1_555
N12 Rb5 3.335894 1_555
N12 Rb11 3.338028 1_555
N12 Rb1 3.341011 1_455
N12 Rb1 3.346656 1_555
N12 Rb12 3.365811 1_455
N13 Rb13 3.322077 1_655
N13 Rb4 3.335894 1_555
N13 Rb10 3.338028 1_555
N13 Rb0 3.341011 1_565
N13 Rb0 3.346656 1_665
N13 Rb13 3.365811 1_555
N14 Rb14 3.322077 1_555
N14 Rb7 3.335894 1_556
N14 Rb9 3.338028 1_555
N14 Rb3 3.341011 1_645
N14 Rb3 3.346656 1_545
N14 Rb14 3.365811 1_655
N15 Rb15 3.322077 1_455
N15 Rb6 3.335894 1_554
N15 Rb8 3.338028 1_555
N15 Rb2 3.341011 1_555
N15 Rb2 3.346656 1_455
N15 Rb15 3.365811 1_555
N16 Rb8 3.323825 1_555
N16 Rb4 3.336835 1_545
N16 Rb15 3.338257 1_555
N16 Rb0 3.338836 1_655
N16 Rb0 3.348101 1_555
N16 Rb8 3.365004 1_655
N17 Rb9 3.323825 1_455
N17 Rb5 3.336835 1_555
N17 Rb14 3.338257 1_555
N17 Rb1 3.338836 1_555
N17 Rb1 3.348101 1_455
N17 Rb9 3.365004 1_555
N18 Rb10 3.323825 1_555
N18 Rb6 3.336835 1_554
N18 Rb13 3.338257 1_555
N18 Rb2 3.338836 1_455
N18 Rb2 3.348101 1_555
N18 Rb10 3.365004 1_455
N19 Rb11 3.323825 1_655
N19 Rb7 3.336835 1_566
N19 Rb12 3.338257 1_555
N19 Rb3 3.338836 1_555
N19 Rb3 3.348101 1_655
N19 Rb11 3.365004 1_555
N20 Rb12 3.323825 1_555
N20 Rb0 3.336835 1_565
N20 Rb11 3.338257 1_555
N20 Rb4 3.338836 1_455
N20 Rb4 3.348101 1_555
N20 Rb12 3.365004 1_455
N21 Rb13 3.323825 1_655
N21 Rb1 3.336835 1_555
N21 Rb10 3.338257 1_555
N21 Rb5 3.338836 1_555
N21 Rb5 3.348101 1_655
N21 Rb13 3.365004 1_555
N22 Rb14 3.323825 1_555
N22 Rb2 3.336835 1_556
N22 Rb9 3.338257 1_555
N22 Rb6 3.338836 1_655
N22 Rb6 3.348101 1_555
N22 Rb14 3.365004 1_655
N23 Rb15 3.323825 1_455
N23 Rb3 3.336835 1_544
N23 Rb8 3.338257 1_555
N23 Rb7 3.338836 1_555
N23 Rb7 3.348101 1_455
N23 Rb15 3.365004 1_555
N24 Rb8 3.331489 1_555
N24 Rb10 3.332439 1_555
N24 Rb2 3.336119 1_555
N24 Rb5 3.338239 1_555
N24 Rb15 3.355383 1_555
N24 Rb13 3.358452 1_555
N25 Rb9 3.331489 1_455
N25 Rb11 3.332439 1_545
N25 Rb3 3.336119 1_545
N25 Rb4 3.338239 1_445
N25 Rb14 3.355383 1_555
N25 Rb12 3.358452 1_445
N26 Rb10 3.331489 1_555
N26 Rb8 3.332439 1_565
N26 Rb0 3.336119 1_565
N26 Rb7 3.338239 1_565
N26 Rb13 3.355383 1_555
N26 Rb15 3.358452 1_565
N27 Rb11 3.331489 1_655
N27 Rb9 3.332439 1_555
N27 Rb1 3.336119 1_555
N27 Rb6 3.338239 1_655
N27 Rb12 3.355383 1_555
N27 Rb14 3.358452 1_655
N28 Rb12 3.331489 1_555
N28 Rb14 3.332439 1_555
N28 Rb6 3.336119 1_555
N28 Rb1 3.338239 1_555
N28 Rb11 3.355383 1_555
N28 Rb9 3.358452 1_555
N29 Rb13 3.331489 1_655
N29 Rb15 3.332439 1_565
N29 Rb7 3.336119 1_565
N29 Rb0 3.338239 1_665
N29 Rb10 3.355383 1_555
N29 Rb8 3.358452 1_665
N30 Rb14 3.331489 1_555
N30 Rb12 3.332439 1_545
N30 Rb4 3.336119 1_545
N30 Rb3 3.338239 1_545
N30 Rb9 3.355383 1_555
N30 Rb11 3.358452 1_545
N31 Rb15 3.331489 1_455
N31 Rb13 3.332439 1_555
N31 Rb5 3.336119 1_555
N31 Rb2 3.338239 1_455
N31 Rb8 3.355383 1_555
N31 Rb10 3.358452 1_455
