# generated using pymatgen
data_Gd2Fe12P7
_symmetry_space_group_name_H-M   'P 1'
_cell_length_a   3.64515000
_cell_length_b   8.99488974
_cell_length_c   8.99450982
_cell_angle_alpha   119.98542689
_cell_angle_beta   90.00000000
_cell_angle_gamma   90.00000000
_symmetry_Int_Tables_number   1
_chemical_formula_structural   Gd2Fe12P7
_chemical_formula_sum   'Gd2 Fe12 P7'
_cell_volume   255.43660752
_cell_formula_units_Z   1
loop_
 _symmetry_equiv_pos_site_id
 _symmetry_equiv_pos_as_xyz
  1  'x, y, z'
loop_
 _atom_site_type_symbol
 _atom_site_label
 _atom_site_symmetry_multiplicity
 _atom_site_fract_x
 _atom_site_fract_y
 _atom_site_fract_z
 _atom_site_occupancy
  Gd  Gd0  1  0.00000000  0.66662900  0.33331900  1
  Gd  Gd1  1  0.50000000  0.33338800  0.66662700  1
  Fe  Fe0  1  0.00000000  0.37216000  0.94468000  1
  Fe  Fe1  1  0.00000000  0.05540200  0.42738700  1
  Fe  Fe2  1  0.00000000  0.57257500  0.62804800  1
  Fe  Fe3  1  0.00000000  0.87988100  0.72632100  1
  Fe  Fe4  1  0.00000000  0.27378300  0.15369300  1
  Fe  Fe5  1  0.00000000  0.84634900  0.12014600  1
  Fe  Fe6  1  0.50000000  0.95061400  0.56816200  1
  Fe  Fe7  1  0.50000000  0.43181500  0.38237100  1
  Fe  Fe8  1  0.50000000  0.61756500  0.04933800  1
  Fe  Fe9  1  0.50000000  0.12091700  0.90218400  1
  Fe  Fe10  1  0.50000000  0.09777500  0.21874700  1
  Fe  Fe11  1  0.50000000  0.78123700  0.87899800  1
  P  P0  1  0.00000000  0.11188600  0.70336200  1
  P  P1  1  0.00000000  0.29644800  0.40840900  1
  P  P2  1  0.00000000  0.59140900  0.88794000  1
  P  P3  1  0.50000000  0.70966900  0.59978300  1
  P  P4  1  0.50000000  0.40029100  0.10981600  1
  P  P5  1  0.50000000  0.89028000  0.29063000  1
  P  P6  1  0.00000000  0.99992500  0.00003900  1
loop_
_geom_bond_atom_site_label_1
_geom_bond_atom_site_label_2
_geom_bond_distance
_geom_bond_site_symmetry_2
Gd0 P5 2.878941 1_455
Gd0 P5 2.878941 1_555
Gd0 P3 2.878964 1_555
Gd0 P3 2.878964 1_455
Gd0 P4 2.878968 1_455
Gd0 P4 2.878968 1_555
Gd1 P2 2.837749 1_555
Gd1 P2 2.837749 1_655
Gd1 P1 2.838137 1_555
Gd1 P1 2.838137 1_655
Gd1 P0 2.838763 1_655
Gd1 P0 2.838763 1_555
Fe0 P0 2.261165 1_555
Fe0 P2 2.270626 1_555
Fe0 P4 2.283923 1_456
Fe0 P4 2.283923 1_556
Fe0 Gd1 2.970915 1_455
Fe0 Gd1 2.970915 1_555
Fe0 Gd0 3.159148 1_556
Fe1 P1 2.258338 1_555
Fe1 P0 2.271376 1_555
Fe1 P5 2.283564 1_445
Fe1 P5 2.283564 1_545
Fe1 Gd1 2.970904 1_455
Fe1 Gd1 2.970904 1_555
Fe1 Gd0 3.160255 1_545
Fe2 P2 2.257707 1_555
Fe2 P1 2.273134 1_555
Fe2 P3 2.284825 1_555
Fe2 P3 2.284825 1_455
Fe2 Gd1 2.969377 1_555
Fe2 Gd1 2.969377 1_455
Fe2 Gd0 3.159897 1_555
Fe3 P6 2.137747 1_556
Fe3 P0 2.197358 1_565
Fe3 P3 2.284613 1_555
Fe3 P3 2.284613 1_455
Fe3 Gd0 3.065476 1_555
Fe4 P6 2.138944 1_545
Fe4 P1 2.196266 1_555
Fe4 P4 2.285014 1_455
Fe4 P4 2.285014 1_555
Fe4 Gd0 3.064334 1_555
Fe5 P6 2.137052 1_555
Fe5 P2 2.198500 1_554
Fe5 P5 2.285527 1_455
Fe5 P5 2.285527 1_555
Fe5 Gd0 3.063960 1_555
Fe6 P0 2.267514 1_565
Fe6 P0 2.267514 1_665
Fe6 P5 2.274145 1_555
Fe6 P3 2.322521 1_555
Fe6 Gd0 2.985851 1_555
Fe6 Gd0 2.985851 1_655
Fe6 Gd1 3.096893 1_565
Fe7 P1 2.268093 1_555
Fe7 P1 2.268093 1_655
Fe7 P3 2.277097 1_555
Fe7 P4 2.322804 1_555
Fe7 Gd0 2.984790 1_555
Fe7 Gd0 2.984790 1_655
Fe7 Gd1 3.095699 1_555
Fe8 P2 2.267854 1_554
Fe8 P2 2.267854 1_654
Fe8 P4 2.275533 1_555
Fe8 P5 2.325109 1_555
Fe8 Gd0 2.985645 1_655
Fe8 Gd0 2.985645 1_555
Fe8 Gd1 3.096474 1_554
Fe9 P4 2.260891 1_556
Fe9 P6 2.497666 1_546
Fe9 P6 2.497666 1_646
Fe9 P0 2.526106 1_555
Fe9 P0 2.526106 1_655
Fe10 P5 2.260011 1_545
Fe10 P6 2.497111 1_645
Fe10 P6 2.497111 1_545
Fe10 P1 2.525519 1_555
Fe10 P1 2.525519 1_655
Fe11 P3 2.259548 1_555
Fe11 P6 2.497162 1_656
Fe11 P6 2.497162 1_556
Fe11 P2 2.526067 1_555
Fe11 P2 2.526067 1_655
