# generated using pymatgen
data_NaCd(PO3)3
_symmetry_space_group_name_H-M   'P 1'
_cell_length_a   14.91507921
_cell_length_b   14.92034203
_cell_length_c   15.01658154
_cell_angle_alpha   90.00000000
_cell_angle_beta   90.00000000
_cell_angle_gamma   90.00000000
_symmetry_Int_Tables_number   1
_chemical_formula_structural   NaCd(PO3)3
_chemical_formula_sum   'Na16 Cd16 P48 O144'
_cell_volume   3341.76127239
_cell_formula_units_Z   16
loop_
 _symmetry_equiv_pos_site_id
 _symmetry_equiv_pos_as_xyz
  1  'x, y, z'
loop_
 _atom_site_type_symbol
 _atom_site_label
 _atom_site_symmetry_multiplicity
 _atom_site_fract_x
 _atom_site_fract_y
 _atom_site_fract_z
 _atom_site_occupancy
  O  O0  1  0.52284709  0.51532004  0.65372196  1
  O  O1  1  0.02284709  0.48467996  0.84627804  1
  O  O2  1  0.97715291  0.01532004  0.34627804  1
  O  O3  1  0.47715291  0.98467996  0.15372196  1
  O  O4  1  0.51902721  0.37371324  0.73933560  1
  O  O5  1  0.01902721  0.62628676  0.76066440  1
  O  O6  1  0.98097279  0.87371324  0.26066440  1
  O  O7  1  0.48097279  0.12628676  0.23933560  1
  O  O8  1  0.37591967  0.44927955  0.69768570  1
  O  O9  1  0.87591967  0.55072045  0.80231430  1
  O  O10  1  0.12408033  0.94927955  0.30231430  1
  O  O11  1  0.62408033  0.05072045  0.19768570  1
  O  O12  1  0.47584593  0.51664566  0.82110712  1
  O  O13  1  0.97584593  0.48335434  0.67889288  1
  O  O14  1  0.02415407  0.01664566  0.17889288  1
  O  O15  1  0.52415407  0.98335434  0.32110712  1
  O  O16  1  0.46048070  0.30153744  0.87762177  1
  O  O17  1  0.96048070  0.69846256  0.62237823  1
  O  O18  1  0.03951930  0.80153744  0.12237823  1
  O  O19  1  0.53951930  0.19846256  0.37762177  1
  O  O20  1  0.57997664  0.22581522  0.77833378  1
  O  O21  1  0.07997664  0.77418478  0.72166622  1
  O  O22  1  0.92002336  0.72581522  0.22166622  1
  O  O23  1  0.42002336  0.27418478  0.27833378  1
  O  O24  1  0.41179774  0.24008983  0.73119671  1
  O  O25  1  0.91179774  0.75991017  0.76880329  1
  O  O26  1  0.08820226  0.74008983  0.26880329  1
  O  O27  1  0.58820226  0.25991017  0.23119671  1
  O  O28  1  0.37567007  0.23028912  0.00468797  1
  O  O29  1  0.87567007  0.76971088  0.49531203  1
  O  O30  1  0.12432993  0.73028912  0.99531203  1
  O  O31  1  0.62432993  0.26971088  0.50468797  1
  O  O32  1  0.52765495  0.17421080  0.97415358  1
  O  O33  1  0.02765495  0.82578920  0.52584642  1
  O  O34  1  0.97234505  0.67421080  0.02584642  1
  O  O35  1  0.47234505  0.32578920  0.47415358  1
  O  O36  1  0.50511079  0.33832364  0.03119090  1
  O  O37  1  0.00511079  0.66167636  0.46880910  1
  O  O38  1  0.99488921  0.83832364  0.96880910  1
  O  O39  1  0.49488921  0.16167636  0.53119090  1
  O  O40  1  0.23538257  0.22201438  0.09205232  1
  O  O41  1  0.73538257  0.77798562  0.40794768  1
  O  O42  1  0.26461743  0.72201438  0.90794768  1
  O  O43  1  0.76461743  0.27798562  0.59205232  1
  O  O44  1  0.23226538  0.27555679  0.92640019  1
  O  O45  1  0.73226538  0.72444321  0.57359981  1
  O  O46  1  0.26773462  0.77555679  0.07359981  1
  O  O47  1  0.76773462  0.22444321  0.42640019  1
  O  O48  1  0.29835499  0.37163866  0.05330932  1
  O  O49  1  0.79835499  0.62836134  0.44669068  1
  O  O50  1  0.20164501  0.87163866  0.94669068  1
  O  O51  1  0.70164501  0.12836134  0.55330932  1
  O  O52  1  0.26585620  0.51888228  0.12405249  1
  O  O53  1  0.76585620  0.48111772  0.37594751  1
  O  O54  1  0.23414380  0.01888228  0.87594751  1
  O  O55  1  0.73414380  0.98111772  0.62405249  1
  O  O56  1  0.34373728  0.51428735  0.97717519  1
  O  O57  1  0.84373728  0.48571265  0.52282481  1
  O  O58  1  0.15626272  0.01428735  0.02282481  1
  O  O59  1  0.65626272  0.98571265  0.47717519  1
  O  O60  1  0.17439463  0.47274871  0.98887933  1
  O  O61  1  0.67439463  0.52725129  0.51112067  1
  O  O62  1  0.32560537  0.97274871  0.01112067  1
  O  O63  1  0.82560537  0.02725129  0.48887933  1
  O  O64  1  0.12743630  0.45804125  0.19654935  1
  O  O65  1  0.62743630  0.54195875  0.30345065  1
  O  O66  1  0.37256370  0.95804125  0.80345065  1
  O  O67  1  0.87256370  0.04195875  0.69654935  1
  O  O68  1  0.22323472  0.58274768  0.26984183  1
  O  O69  1  0.72323472  0.41725232  0.23015817  1
  O  O70  1  0.27676528  0.08274768  0.73015817  1
  O  O71  1  0.77676528  0.91725232  0.76984183  1
  O  O72  1  0.27559795  0.41608144  0.25963455  1
  O  O73  1  0.77559795  0.58391856  0.24036545  1
  O  O74  1  0.22440205  0.91608144  0.74036545  1
  O  O75  1  0.72440205  0.08391856  0.75963455  1
  O  O76  1  0.02708101  0.51429956  0.32435060  1
  O  O77  1  0.52708101  0.48570044  0.17564940  1
  O  O78  1  0.47291899  0.01429956  0.67564940  1
  O  O79  1  0.97291899  0.98570044  0.82435060  1
  O  O80  1  0.97728439  0.51844738  0.15748881  1
  O  O81  1  0.47728439  0.48155262  0.34251119  1
  O  O82  1  0.52271561  0.01844738  0.84251119  1
  O  O83  1  0.02271561  0.98155262  0.65748881  1
  O  O84  1  0.98770192  0.37392460  0.23722778  1
  O  O85  1  0.48770192  0.62607540  0.26277222  1
  O  O86  1  0.51229808  0.87392460  0.76277222  1
  O  O87  1  0.01229808  0.12607540  0.73722778  1
  O  O88  1  0.92106482  0.22910124  0.27841761  1
  O  O89  1  0.42106482  0.77089876  0.22158239  1
  O  O90  1  0.57893518  0.72910124  0.72158239  1
  O  O91  1  0.07893518  0.27089876  0.77841761  1
  O  O92  1  0.08786689  0.23605972  0.22555053  1
  O  O93  1  0.58786689  0.76394028  0.27444947  1
  O  O94  1  0.41213311  0.73605972  0.77444947  1
  O  O95  1  0.91213311  0.26394028  0.72555053  1
  O  O96  1  0.04772442  0.29768351  0.37417324  1
  O  O97  1  0.54772442  0.70231649  0.12582676  1
  O  O98  1  0.45227558  0.79768351  0.62582676  1
  O  O99  1  0.95227558  0.20231649  0.87417324  1
  O  O100  1  0.98261133  0.34278629  0.52089323  1
  O  O101  1  0.48261133  0.65721371  0.97910677  1
  O  O102  1  0.51738867  0.84278629  0.47910677  1
  O  O103  1  0.01738867  0.15721371  0.02089323  1
  O  O104  1  0.98233321  0.17390470  0.47498973  1
  O  O105  1  0.48233321  0.82609530  0.02501027  1
  O  O106  1  0.51766679  0.67390470  0.52501027  1
  O  O107  1  0.01766679  0.32609530  0.97498973  1
  O  O108  1  0.12467875  0.25722370  0.51652265  1
  O  O109  1  0.62467875  0.74277630  0.98347735  1
  O  O110  1  0.37532125  0.75722370  0.48347735  1
  O  O111  1  0.87532125  0.24277630  0.01652265  1
  O  O112  1  0.20854852  0.12681948  0.45021647  1
  O  O113  1  0.70854852  0.87318052  0.04978353  1
  O  O114  1  0.29145148  0.62681948  0.54978353  1
  O  O115  1  0.79145148  0.37318052  0.95021647  1
  O  O116  1  0.27497956  0.22569507  0.57562301  1
  O  O117  1  0.77497956  0.77430493  0.92437699  1
  O  O118  1  0.22502044  0.72569507  0.42437699  1
  O  O119  1  0.72502044  0.27430493  0.07562301  1
  O  O120  1  0.25663161  0.28014634  0.41086146  1
  O  O121  1  0.75663161  0.71985366  0.08913854  1
  O  O122  1  0.24336839  0.78014634  0.58913854  1
  O  O123  1  0.74336839  0.21985366  0.91086146  1
  O  O124  1  0.33223340  0.02936944  0.52191816  1
  O  O125  1  0.83223340  0.97063056  0.97808184  1
  O  O126  1  0.16776660  0.52936944  0.47808184  1
  O  O127  1  0.66776660  0.47063056  0.02191816  1
  O  O128  1  0.16516586  0.97766114  0.51040435  1
  O  O129  1  0.66516586  0.02233886  0.98959565  1
  O  O130  1  0.33483414  0.47766114  0.48959565  1
  O  O131  1  0.83483414  0.52233886  0.01040435  1
  O  O132  1  0.26871283  0.98963083  0.37548280  1
  O  O133  1  0.76871283  0.01036917  0.12451720  1
  O  O134  1  0.23128717  0.48963083  0.62451720  1
  O  O135  1  0.73128717  0.51036917  0.87548280  1
  O  O136  1  0.22155635  0.07551264  0.23679352  1
  O  O137  1  0.72155635  0.92448736  0.26320648  1
  O  O138  1  0.27844365  0.57551264  0.76320648  1
  O  O139  1  0.77844365  0.42448736  0.73679352  1
  O  O140  1  0.26977893  0.90731622  0.23194493  1
  O  O141  1  0.76977893  0.09268378  0.26805507  1
  O  O142  1  0.23022107  0.40731622  0.76805507  1
  O  O143  1  0.73022107  0.59268378  0.73194493  1
  Na  Na0  1  0.99367296  0.99896428  0.00401262  1
  Na  Na1  1  0.49367296  0.00103572  0.49598738  1
  Na  Na2  1  0.50632704  0.49896428  0.99598738  1
  Na  Na3  1  0.00632704  0.50103572  0.50401262  1
  Na  Na4  1  0.00448416  0.50492129  0.00203394  1
  Na  Na5  1  0.50448416  0.49507871  0.49796606  1
  Na  Na6  1  0.49551584  1.00492129  0.99796606  1
  Na  Na7  1  0.99551584  -0.00492129  0.50203394  1
  Na  Na8  1  0.74375313  0.25618593  0.74994177  1
  Na  Na9  1  0.24375313  0.74381407  0.75005823  1
  Na  Na10  1  0.75624687  0.75618593  0.25005823  1
  Na  Na11  1  0.25624687  0.24381407  0.24994177  1
  Na  Na12  1  0.74100378  0.75461276  0.75487867  1
  Na  Na13  1  0.24100378  0.24538724  0.74512133  1
  Na  Na14  1  0.75899622  0.25461276  0.24512133  1
  Na  Na15  1  0.25899622  0.74538724  0.25487867  1
  P  P0  1  0.47602490  0.47219766  0.73131195  1
  P  P1  1  0.97602490  0.52780234  0.76868805  1
  P  P2  1  0.02397510  0.97219766  0.26868805  1
  P  P3  1  0.52397510  0.02780234  0.23131195  1
  P  P4  1  0.49309844  0.27656845  0.77811567  1
  P  P5  1  0.99309844  0.72343155  0.72188433  1
  P  P6  1  0.00690156  0.77656845  0.22188433  1
  P  P7  1  0.50690156  0.22343155  0.27811567  1
  P  P8  1  0.47501975  0.25975496  0.97590379  1
  P  P9  1  0.97501975  0.74024504  0.52409621  1
  P  P10  1  0.02498025  0.75975496  0.02409621  1
  P  P11  1  0.52498025  0.24024504  0.47590379  1
  P  P12  1  0.27697928  0.27242292  0.01602412  1
  P  P13  1  0.77697928  0.72757708  0.48397588  1
  P  P14  1  0.22302072  0.77242292  0.98397588  1
  P  P15  1  0.72302072  0.22757708  0.51602412  1
  P  P16  1  0.26770758  0.47220650  0.02740938  1
  P  P17  1  0.76770758  0.52779350  0.47259062  1
  P  P18  1  0.23229242  0.97220650  0.97259062  1
  P  P19  1  0.73229242  0.02779350  0.52740938  1
  P  P20  1  0.22628200  0.49469015  0.22109272  1
  P  P21  1  0.72628200  0.50530985  0.27890728  1
  P  P22  1  0.27371800  0.99469015  0.77890728  1
  P  P23  1  0.77371800  0.00530985  0.72109272  1
  P  P24  1  0.02661897  0.47403089  0.23255970  1
  P  P25  1  0.52661897  0.52596911  0.26744030  1
  P  P26  1  0.47338103  0.97403089  0.76744030  1
  P  P27  1  0.97338103  0.02596911  0.73255970  1
  P  P28  1  0.01039926  0.27587564  0.27555437  1
  P  P29  1  0.51039926  0.72412436  0.22444563  1
  P  P30  1  0.48960074  0.77587564  0.72444563  1
  P  P31  1  0.98960074  0.22412436  0.77555437  1
  P  P32  1  0.02575534  0.26474682  0.47438931  1
  P  P33  1  0.52575534  0.73525318  0.02561069  1
  P  P34  1  0.47424466  0.76474682  0.52561069  1
  P  P35  1  0.97424466  0.23525318  0.97438931  1
  P  P36  1  0.22418868  0.22660976  0.48921045  1
  P  P37  1  0.72418868  0.77339024  0.01078955  1
  P  P38  1  0.27581132  0.72660976  0.51078955  1
  P  P39  1  0.77581132  0.27339024  0.98921045  1
  P  P40  1  0.24430437  0.02724671  0.47307164  1
  P  P41  1  0.74430437  0.97275329  0.02692836  1
  P  P42  1  0.25569563  0.52724671  0.52692836  1
  P  P43  1  0.75569563  0.47275329  0.97307164  1
  P  P44  1  0.22368416  0.98375640  0.27824199  1
  P  P45  1  0.72368416  0.01624360  0.22175801  1
  P  P46  1  0.27631584  0.48375640  0.72175801  1
  P  P47  1  0.77631584  0.51624360  0.77824199  1
  Cd  Cd0  1  0.63464701  0.11751740  0.87610735  1
  Cd  Cd1  1  0.13464701  0.88248260  0.62389265  1
  Cd  Cd2  1  0.86535299  0.61751740  0.12389265  1
  Cd  Cd3  1  0.36535299  0.38248260  0.37610735  1
  Cd  Cd4  1  0.37678120  0.62512653  0.87518109  1
  Cd  Cd5  1  0.87678120  0.37487347  0.62481891  1
  Cd  Cd6  1  0.12321880  0.12512653  0.12481891  1
  Cd  Cd7  1  0.62321880  0.87487347  0.37518109  1
  Cd  Cd8  1  0.62749449  0.62104768  0.62376293  1
  Cd  Cd9  1  0.12749449  0.37895232  0.87623707  1
  Cd  Cd10  1  0.87250551  0.12104768  0.37623707  1
  Cd  Cd11  1  0.37250551  0.87895232  0.12376293  1
  Cd  Cd12  1  0.88451543  0.86839246  0.87097544  1
  Cd  Cd13  1  0.38451543  0.13160754  0.62902456  1
  Cd  Cd14  1  0.61548457  0.36839246  0.12902456  1
  Cd  Cd15  1  0.11548457  0.63160754  0.37097544  1
loop_
_geom_bond_atom_site_label_1
_geom_bond_atom_site_label_2
_geom_bond_distance
_geom_bond_site_symmetry_2
O0 P0 1.503067 1_555
O1 P1 1.503067 1_455
O2 P2 1.503067 1_645
O3 P3 1.503067 1_565
O4 P0 1.607821 1_555
O4 P4 1.609205 1_555
O5 P1 1.607821 1_455
O5 P5 1.609205 1_455
O6 P2 1.607821 1_655
O6 P6 1.609205 1_655
O7 P3 1.607821 1_555
O7 P7 1.609205 1_555
O8 P0 1.612818 1_555
O8 P46 1.613161 1_555
O9 P1 1.612818 1_555
O9 P47 1.613161 1_555
O10 P2 1.612818 1_555
O10 P44 1.613161 1_555
O11 P3 1.612818 1_555
O11 P45 1.613161 1_555
O12 P0 1.502678 1_555
O13 P1 1.502678 1_555
O14 P2 1.502678 1_545
O15 P3 1.502678 1_565
O16 P4 1.615000 1_555
O16 P8 1.616733 1_555
O17 P5 1.615000 1_555
O17 P9 1.616733 1_555
O18 P6 1.615000 1_555
O18 P10 1.616733 1_555
O19 P7 1.615000 1_555
O19 P11 1.616733 1_555
O20 P4 1.500844 1_555
O21 P5 1.500844 1_455
O22 P6 1.500844 1_655
O23 P7 1.500844 1_555
O24 P4 1.504346 1_555
O25 P5 1.504346 1_555
O26 P6 1.504346 1_555
O27 P7 1.504346 1_555
O28 P8 1.604952 1_554
O28 P12 1.609630 1_555
O29 P9 1.604952 1_555
O29 P13 1.609630 1_555
O30 P10 1.604952 1_556
O30 P14 1.609630 1_555
O31 P11 1.604952 1_555
O31 P15 1.609630 1_555
O32 P8 1.498690 1_555
O33 P9 1.498690 1_455
O34 P10 1.498690 1_655
O35 P11 1.498690 1_555
O36 P8 1.504966 1_554
O37 P9 1.504966 1_455
O38 P10 1.504966 1_656
O39 P11 1.504966 1_555
O40 P12 1.501344 1_555
O41 P13 1.501344 1_555
O42 P14 1.501344 1_555
O43 P15 1.501344 1_555
O44 P12 1.502749 1_556
O45 P13 1.502749 1_555
O46 P14 1.502749 1_554
O47 P15 1.502749 1_555
O48 P12 1.614471 1_555
O48 P16 1.616086 1_555
O49 P13 1.614471 1_555
O49 P17 1.616086 1_555
O50 P14 1.614471 1_555
O50 P18 1.616086 1_555
O51 P15 1.614471 1_555
O51 P19 1.616086 1_555
O52 P16 1.609933 1_555
O52 P20 1.613120 1_555
O53 P17 1.609933 1_555
O53 P21 1.613120 1_555
O54 P18 1.609933 1_545
O54 P22 1.613120 1_545
O55 P19 1.609933 1_565
O55 P23 1.613120 1_565
O56 P16 1.499726 1_556
O57 P17 1.499726 1_555
O58 P18 1.499726 1_544
O59 P19 1.499726 1_565
O60 P16 1.507267 1_556
O61 P17 1.507267 1_555
O62 P18 1.507267 1_554
O63 P19 1.507267 1_555
O64 P20 1.615047 1_555
O64 P24 1.615685 1_555
O65 P21 1.615047 1_555
O65 P25 1.615685 1_555
O66 P22 1.615047 1_555
O66 P26 1.615685 1_555
O67 P23 1.615047 1_555
O67 P27 1.615685 1_555
O68 P20 1.504710 1_555
O69 P21 1.504710 1_555
O70 P22 1.504710 1_545
O71 P23 1.504710 1_565
O72 P20 1.500542 1_555
O73 P21 1.500542 1_555
O74 P22 1.500542 1_555
O75 P23 1.500542 1_555
O76 P24 1.503656 1_555
O77 P25 1.503656 1_555
O78 P26 1.503656 1_545
O79 P27 1.503656 1_565
O80 P24 1.500484 1_655
O81 P25 1.500484 1_555
O82 P26 1.500484 1_545
O83 P27 1.500484 1_465
O84 P24 1.603976 1_655
O84 P28 1.608102 1_655
O85 P25 1.603976 1_555
O85 P29 1.608102 1_555
O86 P26 1.603976 1_555
O86 P30 1.608102 1_555
O87 P27 1.603976 1_455
O87 P31 1.608102 1_455
O88 P28 1.504749 1_655
O89 P29 1.504749 1_555
O90 P30 1.504749 1_555
O91 P31 1.504749 1_455
O92 P28 1.500593 1_555
O93 P29 1.500593 1_555
O94 P30 1.500593 1_555
O95 P31 1.500593 1_555
O96 P28 1.615214 1_555
O96 P32 1.616663 1_555
O97 P29 1.615214 1_555
O97 P33 1.616663 1_555
O98 P30 1.615214 1_555
O98 P34 1.616663 1_555
O99 P31 1.615214 1_555
O99 P35 1.616663 1_555
O100 P32 1.502505 1_655
O101 P33 1.502505 1_556
O102 P34 1.502505 1_555
O103 P35 1.502505 1_454
O104 P32 1.502206 1_655
O105 P33 1.502206 1_555
O106 P34 1.502206 1_555
O107 P35 1.502206 1_455
O108 P36 1.606143 1_555
O108 P32 1.609305 1_555
O109 P37 1.606143 1_556
O109 P33 1.609305 1_556
O110 P38 1.606143 1_555
O110 P34 1.609305 1_555
O111 P39 1.606143 1_554
O111 P35 1.609305 1_554
O112 P40 1.615359 1_555
O112 P36 1.616828 1_555
O113 P41 1.615359 1_555
O113 P37 1.616828 1_555
O114 P42 1.615359 1_555
O114 P38 1.616828 1_555
O115 P43 1.615359 1_555
O115 P39 1.616828 1_555
O116 P36 1.502627 1_555
O117 P37 1.502627 1_556
O118 P38 1.502627 1_555
O119 P39 1.502627 1_554
O120 P36 1.502144 1_555
O121 P37 1.502144 1_555
O122 P38 1.502144 1_555
O123 P39 1.502144 1_555
O124 P40 1.502992 1_555
O125 P41 1.502992 1_556
O126 P42 1.502992 1_555
O127 P43 1.502992 1_554
O128 P40 1.501626 1_565
O129 P41 1.501626 1_546
O130 P42 1.501626 1_555
O131 P43 1.501626 1_554
O132 P44 1.609656 1_555
O132 P40 1.610923 1_565
O133 P45 1.609656 1_555
O133 P41 1.610923 1_545
O134 P46 1.609656 1_555
O134 P42 1.610923 1_555
O135 P47 1.609656 1_555
O135 P43 1.610923 1_555
O136 P44 1.504215 1_545
O137 P45 1.504215 1_565
O138 P46 1.504215 1_555
O139 P47 1.504215 1_555
O140 P44 1.502256 1_555
O141 P45 1.502256 1_555
O142 P46 1.502256 1_555
O143 P47 1.502256 1_555
Na0 O103 2.400903 1_665
Na0 O58 2.452119 1_665
Na0 O38 2.454486 1_554
Na0 O125 2.475530 1_554
Na0 O14 2.678190 1_665
Na0 O79 2.722811 1_554
Na1 O102 2.400903 1_545
Na1 O59 2.452119 1_545
Na1 O39 2.454486 1_555
Na1 O124 2.475530 1_555
Na1 O15 2.678190 1_545
Na1 O78 2.722811 1_555
Na2 O101 2.400903 1_555
Na2 O56 2.452119 1_555
Na2 O36 2.454486 1_556
Na2 O127 2.475530 1_556
Na2 O12 2.678190 1_555
Na2 O77 2.722811 1_556
Na3 O100 2.400903 1_455
Na3 O57 2.452119 1_455
Na3 O37 2.454486 1_555
Na3 O126 2.475530 1_555
Na3 O13 2.678190 1_455
Na3 O76 2.722811 1_555
Na4 O1 2.374189 1_554
Na4 O80 2.377969 1_455
Na4 O131 2.546757 1_455
Na4 O60 2.586843 1_554
Na4 O34 2.595689 1_455
Na4 O107 2.706027 1_554
Na5 O0 2.374189 1_555
Na5 O81 2.377969 1_555
Na5 O130 2.546757 1_555
Na5 O61 2.586843 1_555
Na5 O35 2.595689 1_555
Na5 O106 2.706027 1_555
Na6 O3 2.374189 1_556
Na6 O82 2.377969 1_565
Na6 O129 2.546757 1_565
Na6 O62 2.586843 1_556
Na6 O32 2.595689 1_565
Na6 O105 2.706027 1_556
Na7 O2 2.374189 1_555
Na7 O83 2.377969 1_645
Na7 O128 2.546757 1_645
Na7 O63 2.586843 1_555
Na7 O33 2.595689 1_645
Na7 O104 2.706027 1_555
Na8 O43 2.413314 1_555
Na8 O123 2.476528 1_555
Na8 O20 2.520732 1_555
Na8 O95 2.540605 1_555
Na8 O139 2.571458 1_555
Na8 O75 2.590535 1_555
Na9 O42 2.413314 1_555
Na9 O122 2.476528 1_555
Na9 O21 2.520732 1_555
Na9 O94 2.540605 1_555
Na9 O138 2.571458 1_555
Na9 O74 2.590535 1_555
Na10 O41 2.413314 1_555
Na10 O121 2.476528 1_555
Na10 O22 2.520732 1_555
Na10 O93 2.540605 1_555
Na10 O137 2.571458 1_555
Na10 O73 2.590535 1_555
Na11 O40 2.413314 1_555
Na11 O120 2.476528 1_555
Na11 O23 2.520732 1_555
Na11 O92 2.540605 1_555
Na11 O136 2.571458 1_555
Na11 O72 2.590535 1_555
Na12 O143 2.445750 1_555
Na12 O71 2.494706 1_555
Na12 O90 2.497611 1_555
Na12 O25 2.557195 1_555
Na12 O117 2.611820 1_555
Na12 O45 2.762232 1_555
Na13 O142 2.445750 1_555
Na13 O70 2.494706 1_555
Na13 O91 2.497611 1_555
Na13 O24 2.557195 1_555
Na13 O116 2.611820 1_555
Na13 O44 2.762232 1_555
Na14 O141 2.445750 1_555
Na14 O69 2.494706 1_555
Na14 O88 2.497611 1_555
Na14 O27 2.557195 1_555
Na14 O119 2.611820 1_555
Na14 O47 2.762232 1_555
Na15 O140 2.445750 1_555
Na15 O68 2.494706 1_555
Na15 O89 2.497611 1_555
Na15 O26 2.557195 1_555
Na15 O118 2.611820 1_555
Na15 O46 2.762232 1_555
Cd0 O75 2.258875 1_555
Cd0 O129 2.264551 1_555
Cd0 O82 2.286173 1_555
Cd0 O123 2.287644 1_555
Cd0 O32 2.330195 1_555
Cd0 O20 2.330563 1_555
Cd1 O74 2.258875 1_555
Cd1 O128 2.264551 1_555
Cd1 O83 2.286173 1_555
Cd1 O122 2.287644 1_555
Cd1 O33 2.330195 1_555
Cd1 O21 2.330563 1_555
Cd2 O73 2.258875 1_555
Cd2 O131 2.264551 1_555
Cd2 O80 2.286173 1_555
Cd2 O121 2.287644 1_555
Cd2 O34 2.330195 1_555
Cd2 O22 2.330563 1_555
Cd3 O72 2.258875 1_555
Cd3 O130 2.264551 1_555
Cd3 O81 2.286173 1_555
Cd3 O120 2.287644 1_555
Cd3 O35 2.330195 1_555
Cd3 O23 2.330563 1_555
Cd4 O42 2.265075 1_555
Cd4 O101 2.270738 1_555
Cd4 O94 2.303405 1_555
Cd4 O56 2.307299 1_555
Cd4 O12 2.337158 1_555
Cd4 O138 2.350869 1_555
Cd5 O43 2.265075 1_555
Cd5 O100 2.270738 1_555
Cd5 O95 2.303405 1_555
Cd5 O57 2.307299 1_555
Cd5 O13 2.337158 1_555
Cd5 O139 2.350869 1_555
Cd6 O40 2.265075 1_555
Cd6 O103 2.270738 1_555
Cd6 O92 2.303405 1_555
Cd6 O58 2.307299 1_555
Cd6 O14 2.337158 1_555
Cd6 O136 2.350869 1_555
Cd7 O41 2.265075 1_555
Cd7 O102 2.270738 1_555
Cd7 O93 2.303405 1_555
Cd7 O59 2.307299 1_555
Cd7 O15 2.337158 1_555
Cd7 O137 2.350869 1_555
Cd8 O0 2.264299 1_555
Cd8 O143 2.272825 1_555
Cd8 O90 2.298140 1_555
Cd8 O61 2.304134 1_555
Cd8 O45 2.321479 1_555
Cd8 O106 2.346139 1_555
Cd9 O1 2.264299 1_555
Cd9 O142 2.272825 1_555
Cd9 O91 2.298140 1_555
Cd9 O60 2.304134 1_555
Cd9 O44 2.321479 1_555
Cd9 O107 2.346139 1_555
Cd10 O2 2.264299 1_555
Cd10 O141 2.272825 1_555
Cd10 O88 2.298140 1_555
Cd10 O63 2.304134 1_555
Cd10 O47 2.321479 1_555
Cd10 O104 2.346139 1_555
Cd11 O3 2.264299 1_555
Cd11 O140 2.272825 1_555
Cd11 O89 2.298140 1_555
Cd11 O62 2.304134 1_555
Cd11 O46 2.321479 1_555
Cd11 O105 2.346139 1_555
Cd12 O38 2.251598 1_555
Cd12 O25 2.267031 1_555
Cd12 O117 2.298447 1_555
Cd12 O79 2.300485 1_555
Cd12 O71 2.328222 1_555
Cd12 O125 2.349864 1_555
Cd13 O39 2.251598 1_555
Cd13 O24 2.267031 1_555
Cd13 O116 2.298447 1_555
Cd13 O78 2.300485 1_555
Cd13 O70 2.328222 1_555
Cd13 O124 2.349864 1_555
Cd14 O36 2.251598 1_555
Cd14 O27 2.267031 1_555
Cd14 O119 2.298447 1_555
Cd14 O77 2.300485 1_555
Cd14 O69 2.328222 1_555
Cd14 O127 2.349864 1_555
Cd15 O37 2.251598 1_555
Cd15 O26 2.267031 1_555
Cd15 O118 2.298447 1_555
Cd15 O76 2.300485 1_555
Cd15 O68 2.328222 1_555
Cd15 O126 2.349864 1_555
