# generated using pymatgen
data_TiI2O7
_symmetry_space_group_name_H-M   'P 1'
_cell_length_a   6.53257767
_cell_length_b   6.53257767
_cell_length_c   7.20102523
_cell_angle_alpha   90.00000000
_cell_angle_beta   90.00000000
_cell_angle_gamma   103.37161730
_symmetry_Int_Tables_number   1
_chemical_formula_structural   TiI2O7
_chemical_formula_sum   'Ti2 I4 O14'
_cell_volume   298.96991398
_cell_formula_units_Z   2
loop_
 _symmetry_equiv_pos_site_id
 _symmetry_equiv_pos_as_xyz
  1  'x, y, z'
loop_
 _atom_site_type_symbol
 _atom_site_label
 _atom_site_symmetry_multiplicity
 _atom_site_fract_x
 _atom_site_fract_y
 _atom_site_fract_z
 _atom_site_occupancy
  Ti  Ti0  1  0.99539733  0.99539733  0.94601390  1
  Ti  Ti1  1  0.00460267  0.00460267  0.44601390  1
  I  I0  1  0.54910663  0.06172384  0.20938427  1
  I  I1  1  0.06172384  0.54910663  0.20938427  1
  I  I2  1  0.45089337  0.93827616  0.70938427  1
  I  I3  1  0.93827616  0.45089337  0.70938427  1
  O  O0  1  0.92659552  0.92659552  0.71017773  1
  O  O1  1  0.07340448  0.07340448  0.21017773  1
  O  O2  1  0.69542332  0.96897104  0.40074933  1
  O  O3  1  0.96897104  0.69542332  0.40074933  1
  O  O4  1  0.30457668  0.03102896  0.90074933  1
  O  O5  1  0.03102896  0.30457668  0.90074933  1
  O  O6  1  0.69254441  0.96746094  0.01734482  1
  O  O7  1  0.96746094  0.69254441  0.01734482  1
  O  O8  1  0.30745559  0.03253906  0.51734482  1
  O  O9  1  0.03253906  0.30745559  0.51734482  1
  O  O10  1  0.67701403  0.33417772  0.20822277  1
  O  O11  1  0.33417772  0.67701403  0.20822277  1
  O  O12  1  0.32298597  0.66582228  0.70822277  1
  O  O13  1  0.66582228  0.32298597  0.70822277  1
loop_
_geom_bond_atom_site_label_1
_geom_bond_atom_site_label_2
_geom_bond_distance
_geom_bond_site_symmetry_2
I0 O10 1.782740 1_555
I0 O6 1.853760 1_545
I0 O2 1.856761 1_545
I0 O11 2.579774 1_545
I1 O11 1.782740 1_555
I1 O7 1.853760 1_455
I1 O3 1.856761 1_455
I1 O10 2.579774 1_455
I2 O12 1.782740 1_555
I2 O8 1.853760 1_565
I2 O4 1.856761 1_565
I2 O13 2.579774 1_565
I3 O13 1.782740 1_555
I3 O9 1.853760 1_655
I3 O5 1.856761 1_655
I3 O12 2.579774 1_655
O0 Ti0 1.787366 1_555
O0 Ti1 2.004447 1_665
O1 Ti1 1.787366 1_555
O1 Ti0 2.004447 1_444
O2 Ti1 2.005572 1_665
O3 Ti1 2.005572 1_665
O4 Ti0 2.005572 1_445
O5 Ti0 2.005572 1_445
O6 Ti0 2.011033 1_554
O7 Ti0 2.011033 1_554
O8 Ti1 2.011033 1_555
O9 Ti1 2.011033 1_555
