# generated using pymatgen
data_CsLu7S11
_symmetry_space_group_name_H-M   'P 1'
_cell_length_a   10.18480973
_cell_length_b   10.18480973
_cell_length_c   18.86088700
_cell_angle_alpha   90.00000000
_cell_angle_beta   90.00000000
_cell_angle_gamma   97.51531827
_symmetry_Int_Tables_number   1
_chemical_formula_structural   CsLu7S11
_chemical_formula_sum   'Cs4 Lu28 S44'
_cell_volume   1939.64038160
_cell_formula_units_Z   4
loop_
 _symmetry_equiv_pos_site_id
 _symmetry_equiv_pos_as_xyz
  1  'x, y, z'
loop_
 _atom_site_type_symbol
 _atom_site_label
 _atom_site_symmetry_multiplicity
 _atom_site_fract_x
 _atom_site_fract_y
 _atom_site_fract_z
 _atom_site_occupancy
  Cs  Cs0  1  0.08974200  0.08974200  0.59123800  1
  Cs  Cs1  1  0.91025800  0.91025800  0.40876200  1
  Cs  Cs2  1  0.41025800  0.41025800  0.09123800  1
  Cs  Cs3  1  0.58974200  0.58974200  0.90876200  1
  Lu  Lu0  1  0.40337300  0.40337300  0.67572800  1
  Lu  Lu1  1  0.59662700  0.59662700  0.32427200  1
  Lu  Lu2  1  0.09662700  0.09662700  0.17572800  1
  Lu  Lu3  1  0.90337300  0.90337300  0.82427200  1
  Lu  Lu4  1  0.30158000  0.04726300  0.82662400  1
  Lu  Lu5  1  0.95273700  0.69842000  0.17337600  1
  Lu  Lu6  1  0.45273700  0.19842000  0.32662400  1
  Lu  Lu7  1  0.80158000  0.54726300  0.67337600  1
  Lu  Lu8  1  0.69842000  0.95273700  0.17337600  1
  Lu  Lu9  1  0.04726300  0.30158000  0.82662400  1
  Lu  Lu10  1  0.54726300  0.80158000  0.67337600  1
  Lu  Lu11  1  0.19842000  0.45273700  0.32662400  1
  Lu  Lu12  1  0.62315500  0.37684500  0.50000000  1
  Lu  Lu13  1  0.12315500  0.87684500  0.00000000  1
  Lu  Lu14  1  0.37684500  0.62315500  0.50000000  1
  Lu  Lu15  1  0.87684500  0.12315500  0.00000000  1
  Lu  Lu16  1  0.67715600  0.16390800  0.65891100  1
  Lu  Lu17  1  0.83609200  0.32284400  0.34108900  1
  Lu  Lu18  1  0.33609200  0.82284400  0.15891100  1
  Lu  Lu19  1  0.17715600  0.66390800  0.84108900  1
  Lu  Lu20  1  0.32284400  0.83609200  0.34108900  1
  Lu  Lu21  1  0.16390800  0.67715600  0.65891100  1
  Lu  Lu22  1  0.66390800  0.17715600  0.84108900  1
  Lu  Lu23  1  0.82284400  0.33609200  0.15891100  1
  Lu  Lu24  1  0.50000000  0.00000000  0.50000000  1
  Lu  Lu25  1  0.00000000  0.50000000  0.50000000  1
  Lu  Lu26  1  0.50000000  0.00000000  0.00000000  1
  Lu  Lu27  1  0.00000000  0.50000000  0.00000000  1
  S  S0  1  0.46645600  0.21310500  0.58232800  1
  S  S1  1  0.78689500  0.53354400  0.41767200  1
  S  S2  1  0.28689500  0.03354400  0.08232800  1
  S  S3  1  0.96645600  0.71310500  0.91767200  1
  S  S4  1  0.53354400  0.78689500  0.41767200  1
  S  S5  1  0.21310500  0.46645600  0.58232800  1
  S  S6  1  0.71310500  0.96645600  0.91767200  1
  S  S7  1  0.03354400  0.28689500  0.08232800  1
  S  S8  1  0.62723900  0.36789200  0.74469100  1
  S  S9  1  0.63210800  0.37276100  0.25530900  1
  S  S10  1  0.13210800  0.87276100  0.24469100  1
  S  S11  1  0.12723900  0.86789200  0.75530900  1
  S  S12  1  0.37276100  0.63210800  0.25530900  1
  S  S13  1  0.36789200  0.62723900  0.74469100  1
  S  S14  1  0.86789200  0.12723900  0.75530900  1
  S  S15  1  0.87276100  0.13210800  0.24469100  1
  S  S16  1  0.34282000  0.82976300  0.58234200  1
  S  S17  1  0.17023700  0.65718000  0.41765800  1
  S  S18  1  0.67023700  0.15718000  0.08234200  1
  S  S19  1  0.84282000  0.32976300  0.91765800  1
  S  S20  1  0.65718000  0.17023700  0.41765800  1
  S  S21  1  0.82976300  0.34282000  0.58234200  1
  S  S22  1  0.32976300  0.84282000  0.91765800  1
  S  S23  1  0.15718000  0.67023700  0.08234200  1
  S  S24  1  0.69814400  0.95528600  0.58370800  1
  S  S25  1  0.04471400  0.30185600  0.41629200  1
  S  S26  1  0.54471400  0.80185600  0.08370800  1
  S  S27  1  0.19814400  0.45528600  0.91629200  1
  S  S28  1  0.30185600  0.04471400  0.41629200  1
  S  S29  1  0.95528600  0.69814400  0.58370800  1
  S  S30  1  0.45528600  0.19814400  0.91629200  1
  S  S31  1  0.80185600  0.54471400  0.08370800  1
  S  S32  1  0.23663500  0.23663500  0.74606200  1
  S  S33  1  0.76336500  0.76336500  0.25393800  1
  S  S34  1  0.26336500  0.26336500  0.24606200  1
  S  S35  1  0.73663500  0.73663500  0.75393800  1
  S  S36  1  0.07353600  0.07353600  0.90896100  1
  S  S37  1  0.92646400  0.92646400  0.09103900  1
  S  S38  1  0.42646400  0.42646400  0.40896100  1
  S  S39  1  0.57353600  0.57353600  0.59103900  1
  S  S40  1  0.51369100  0.01369100  0.75000000  1
  S  S41  1  0.98630900  0.48630900  0.25000000  1
  S  S42  1  0.48630900  0.98630900  0.25000000  1
  S  S43  1  0.01369100  0.51369100  0.75000000  1
loop_
_geom_bond_atom_site_label_1
_geom_bond_atom_site_label_2
_geom_bond_distance
_geom_bond_site_symmetry_2
Cs0 S32 3.523932 1_555
Cs0 S14 3.879818 1_455
Cs0 S11 3.879818 1_545
Cs0 S0 3.881571 1_555
Cs0 S5 3.881571 1_555
Cs0 S21 3.932969 1_455
Cs0 S16 3.932969 1_545
Cs0 S28 4.003018 1_555
Cs0 S25 4.003018 1_555
Cs0 S24 4.046445 1_445
Cs0 S29 4.046445 1_445
Cs1 S33 3.523932 1_555
Cs1 S15 3.879818 1_565
Cs1 S10 3.879818 1_655
Cs1 S4 3.881571 1_555
Cs1 S1 3.881571 1_555
Cs1 S20 3.932969 1_565
Cs1 S17 3.932969 1_655
Cs1 S24 4.003018 1_555
Cs1 S29 4.003018 1_555
Cs1 S28 4.046445 1_665
Cs1 S25 4.046445 1_665
Cs2 S34 3.523932 1_555
Cs2 S9 3.879818 1_555
Cs2 S12 3.879818 1_555
Cs2 S7 3.881571 1_555
Cs2 S2 3.881571 1_555
Cs2 S23 3.932969 1_555
Cs2 S18 3.932969 1_555
Cs2 S27 4.003018 1_554
Cs2 S30 4.003018 1_554
Cs2 S31 4.046445 1_555
Cs2 S26 4.046445 1_555
Cs3 S35 3.523932 1_555
Cs3 S13 3.879818 1_555
Cs3 S8 3.879818 1_555
Cs3 S6 3.881571 1_555
Cs3 S3 3.881571 1_555
Cs3 S22 3.932969 1_555
Cs3 S19 3.932969 1_555
Cs3 S26 4.003018 1_556
Cs3 S31 4.003018 1_556
Cs3 S30 4.046445 1_555
Cs3 S27 4.046445 1_555
Lu0 S32 2.602523 1_555
Lu0 S8 2.690072 1_555
Lu0 S13 2.690072 1_555
Lu0 S5 2.756260 1_555
Lu0 S0 2.756260 1_555
Lu0 S39 2.787981 1_555
Lu1 S33 2.602523 1_555
Lu1 S9 2.690072 1_555
Lu1 S12 2.690072 1_555
Lu1 S4 2.756260 1_555
Lu1 S1 2.756260 1_555
Lu1 S38 2.787981 1_555
Lu2 S34 2.602523 1_555
Lu2 S10 2.690072 1_545
Lu2 S15 2.690072 1_455
Lu2 S7 2.756260 1_555
Lu2 S2 2.756260 1_555
Lu2 S37 2.787981 1_445
Lu3 S35 2.602523 1_555
Lu3 S14 2.690072 1_565
Lu3 S11 2.690072 1_655
Lu3 S3 2.756260 1_555
Lu3 S6 2.756260 1_555
Lu3 S36 2.787981 1_665
Lu4 S32 2.607677 1_555
Lu4 S30 2.653876 1_555
Lu4 S40 2.658132 1_555
Lu4 S11 2.729642 1_545
Lu4 S22 2.742694 1_545
Lu4 S36 2.835529 1_555
Lu5 S33 2.607677 1_555
Lu5 S31 2.653876 1_555
Lu5 S41 2.658132 1_555
Lu5 S10 2.729642 1_655
Lu5 S23 2.742694 1_655
Lu5 S37 2.835529 1_555
Lu6 S34 2.607677 1_555
Lu6 S28 2.653876 1_555
Lu6 S42 2.658132 1_545
Lu6 S9 2.729642 1_555
Lu6 S20 2.742694 1_555
Lu6 S38 2.835529 1_555
Lu7 S35 2.607677 1_555
Lu7 S29 2.653876 1_555
Lu7 S43 2.658132 1_655
Lu7 S8 2.729642 1_555
Lu7 S21 2.742694 1_555
Lu7 S39 2.835529 1_555
Lu8 S33 2.607677 1_555
Lu8 S26 2.653876 1_555
Lu8 S42 2.658132 1_555
Lu8 S15 2.729642 1_565
Lu8 S18 2.742694 1_565
Lu8 S37 2.835529 1_555
Lu9 S32 2.607677 1_555
Lu9 S27 2.653876 1_555
Lu9 S43 2.658132 1_555
Lu9 S14 2.729642 1_455
Lu9 S19 2.742694 1_455
Lu9 S36 2.835529 1_555
Lu10 S35 2.607677 1_555
Lu10 S24 2.653876 1_555
Lu10 S40 2.658132 1_565
Lu10 S13 2.729642 1_555
Lu10 S16 2.742694 1_555
Lu10 S39 2.835529 1_555
Lu11 S34 2.607677 1_555
Lu11 S25 2.653876 1_555
Lu11 S41 2.658132 1_455
Lu11 S12 2.729642 1_555
Lu11 S17 2.742694 1_555
Lu11 S38 2.835529 1_555
Lu12 S0 2.653878 1_555
Lu12 S1 2.653878 1_555
Lu12 S21 2.674080 1_555
Lu12 S20 2.674080 1_555
Lu12 S39 2.735253 1_555
Lu12 S38 2.735253 1_555
Lu13 S2 2.653878 1_565
Lu13 S3 2.653878 1_454
Lu13 S22 2.674080 1_554
Lu13 S23 2.674080 1_555
Lu13 S37 2.735253 1_455
Lu13 S36 2.735253 1_564
Lu14 S5 2.653878 1_555
Lu14 S4 2.653878 1_555
Lu14 S16 2.674080 1_555
Lu14 S17 2.674080 1_555
Lu14 S39 2.735253 1_555
Lu14 S38 2.735253 1_555
Lu15 S7 2.653878 1_655
Lu15 S6 2.653878 1_544
Lu15 S19 2.674080 1_554
Lu15 S18 2.674080 1_555
Lu15 S37 2.735253 1_545
Lu15 S36 2.735253 1_654
Lu16 S24 2.586700 1_545
Lu16 S21 2.660991 1_555
Lu16 S0 2.687702 1_555
Lu16 S40 2.719882 1_555
Lu16 S14 2.721886 1_555
Lu16 S8 2.732851 1_555
Lu17 S25 2.586700 1_655
Lu17 S20 2.660991 1_555
Lu17 S1 2.687702 1_555
Lu17 S41 2.719882 1_555
Lu17 S15 2.721886 1_555
Lu17 S9 2.732851 1_555
Lu18 S26 2.586700 1_555
Lu18 S23 2.660991 1_555
Lu18 S2 2.687702 1_565
Lu18 S42 2.719882 1_555
Lu18 S12 2.721886 1_555
Lu18 S10 2.732851 1_555
Lu19 S27 2.586700 1_555
Lu19 S22 2.660991 1_555
Lu19 S3 2.687702 1_455
Lu19 S43 2.719882 1_555
Lu19 S13 2.721886 1_555
Lu19 S11 2.732851 1_555
Lu20 S28 2.586700 1_565
Lu20 S17 2.660991 1_555
Lu20 S4 2.687702 1_555
Lu20 S42 2.719882 1_555
Lu20 S10 2.721886 1_555
Lu20 S12 2.732851 1_555
Lu21 S29 2.586700 1_455
Lu21 S16 2.660991 1_555
Lu21 S5 2.687702 1_555
Lu21 S43 2.719882 1_555
Lu21 S11 2.721886 1_555
Lu21 S13 2.732851 1_555
Lu22 S30 2.586700 1_555
Lu22 S19 2.660991 1_555
Lu22 S6 2.687702 1_545
Lu22 S40 2.719882 1_555
Lu22 S8 2.721886 1_555
Lu22 S14 2.732851 1_555
Lu23 S31 2.586700 1_555
Lu23 S18 2.660991 1_555
Lu23 S7 2.687702 1_655
Lu23 S41 2.719882 1_555
Lu23 S9 2.721886 1_555
Lu23 S15 2.732851 1_555
Lu24 S24 2.648205 1_545
Lu24 S28 2.648205 1_555
Lu24 S20 2.693470 1_555
Lu24 S16 2.693470 1_545
Lu24 S0 2.726277 1_555
Lu24 S4 2.726277 1_545
Lu25 S25 2.648205 1_555
Lu25 S29 2.648205 1_455
Lu25 S17 2.693470 1_555
Lu25 S21 2.693470 1_455
Lu25 S5 2.726277 1_555
Lu25 S1 2.726277 1_455
Lu26 S26 2.648205 1_545
Lu26 S30 2.648205 1_554
Lu26 S18 2.693470 1_555
Lu26 S22 2.693470 1_544
Lu26 S2 2.726277 1_555
Lu26 S6 2.726277 1_544
Lu27 S31 2.648205 1_455
Lu27 S27 2.648205 1_554
Lu27 S19 2.693470 1_454
Lu27 S23 2.693470 1_555
Lu27 S7 2.726277 1_555
Lu27 S3 2.726277 1_454
