# generated using pymatgen
data_Zr2Sb3Pd
_symmetry_space_group_name_H-M   'P 1'
_cell_length_a   3.96126000
_cell_length_b   3.96126000
_cell_length_c   8.73891700
_cell_angle_alpha   90.00000000
_cell_angle_beta   90.00000000
_cell_angle_gamma   90.00000000
_symmetry_Int_Tables_number   1
_chemical_formula_structural   Zr2Sb3Pd
_chemical_formula_sum   'Zr2 Sb3 Pd1'
_cell_volume   137.12742210
_cell_formula_units_Z   1
loop_
 _symmetry_equiv_pos_site_id
 _symmetry_equiv_pos_as_xyz
  1  'x, y, z'
loop_
 _atom_site_type_symbol
 _atom_site_label
 _atom_site_symmetry_multiplicity
 _atom_site_fract_x
 _atom_site_fract_y
 _atom_site_fract_z
 _atom_site_occupancy
  Zr  Zr0  1  0.50000000  0.00000000  0.73919300  1
  Zr  Zr1  1  0.00000000  0.50000000  0.26080700  1
  Sb  Sb0  1  0.50000000  0.00000000  0.38377400  1
  Sb  Sb1  1  0.00000000  0.50000000  0.61622600  1
  Sb  Sb2  1  0.00000000  0.00000000  0.00000000  1
  Pd  Pd0  1  0.50000000  0.50000000  0.00000000  1
loop_
_geom_bond_atom_site_label_1
_geom_bond_atom_site_label_2
_geom_bond_distance
_geom_bond_site_symmetry_2
Sb0 Zr1 3.000092 1_655
Sb0 Zr1 3.000092 1_645
Sb0 Zr1 3.000092 1_555
Sb0 Zr1 3.000092 1_545
Sb0 Zr0 3.105977 1_555
Sb1 Zr0 3.000092 1_465
Sb1 Zr0 3.000092 1_555
Sb1 Zr0 3.000092 1_455
Sb1 Zr0 3.000092 1_565
Sb1 Zr1 3.105977 1_555
Sb2 Zr0 3.019522 1_554
Sb2 Zr1 3.019522 1_555
Sb2 Zr1 3.019522 1_545
Sb2 Zr0 3.019522 1_454
Pd0 Sb2 2.801034 1_565
Pd0 Sb2 2.801034 1_655
Pd0 Sb2 2.801034 1_665
Pd0 Sb2 2.801034 1_555
Pd0 Zr0 3.019522 1_554
Pd0 Zr1 3.019522 1_555
Pd0 Zr0 3.019522 1_564
Pd0 Zr1 3.019522 1_655
