# generated using pymatgen
data_Rb8BiO3
_symmetry_space_group_name_H-M   'P 1'
_cell_length_a   7.45742100
_cell_length_b   7.45742100
_cell_length_c   7.45742100
_cell_angle_alpha   90.00000000
_cell_angle_beta   90.00000000
_cell_angle_gamma   90.00000000
_symmetry_Int_Tables_number   1
_chemical_formula_structural   Rb8BiO3
_chemical_formula_sum   'Rb8 Bi1 O3'
_cell_volume   414.73050841
_cell_formula_units_Z   1
loop_
 _symmetry_equiv_pos_site_id
 _symmetry_equiv_pos_as_xyz
  1  'x, y, z'
loop_
 _atom_site_type_symbol
 _atom_site_label
 _atom_site_symmetry_multiplicity
 _atom_site_fract_x
 _atom_site_fract_y
 _atom_site_fract_z
 _atom_site_occupancy
  Rb  Rb0  1  0.26930900  0.26930900  0.26930900  1
  Rb  Rb1  1  0.73069100  0.73069100  0.26930900  1
  Rb  Rb2  1  0.73069100  0.26930900  0.73069100  1
  Rb  Rb3  1  0.26930900  0.73069100  0.73069100  1
  Rb  Rb4  1  0.26930900  0.26930900  0.73069100  1
  Rb  Rb5  1  0.73069100  0.73069100  0.73069100  1
  Rb  Rb6  1  0.73069100  0.26930900  0.26930900  1
  Rb  Rb7  1  0.26930900  0.73069100  0.26930900  1
  Bi  Bi0  1  0.00000000  0.00000000  0.00000000  1
  O  O0  1  0.00000000  0.50000000  0.50000000  1
  O  O1  1  0.50000000  0.50000000  0.00000000  1
  O  O2  1  0.50000000  0.00000000  0.50000000  1
loop_
_geom_bond_atom_site_label_1
_geom_bond_atom_site_label_2
_geom_bond_distance
_geom_bond_site_symmetry_2
Bi0 Rb4 3.478565 1_554
Bi0 Rb3 3.478565 1_544
Bi0 Rb1 3.478565 1_445
Bi0 Rb2 3.478565 1_454
Bi0 Rb7 3.478565 1_545
Bi0 Rb6 3.478565 1_455
Bi0 Rb5 3.478565 1_444
Bi0 Rb0 3.478565 1_555
O0 Rb4 3.154798 1_555
O0 Rb3 3.154798 1_555
O0 Rb5 3.154798 1_455
O0 Rb2 3.154798 1_455
O0 Rb6 3.154798 1_455
O0 Rb7 3.154798 1_555
O0 Rb0 3.154798 1_555
O0 Rb1 3.154798 1_455
O1 Rb6 3.154798 1_555
O1 Rb5 3.154798 1_554
O1 Rb2 3.154798 1_554
O1 Rb7 3.154798 1_555
O1 Rb0 3.154798 1_555
O1 Rb3 3.154798 1_554
O1 Rb1 3.154798 1_555
O1 Rb4 3.154798 1_554
O2 Rb3 3.154798 1_545
O2 Rb4 3.154798 1_555
O2 Rb6 3.154798 1_555
O2 Rb1 3.154798 1_545
O2 Rb7 3.154798 1_545
O2 Rb0 3.154798 1_555
O2 Rb5 3.154798 1_545
O2 Rb2 3.154798 1_555
