# generated using pymatgen
data_Si4Ni9B2
_symmetry_space_group_name_H-M   'P 1'
_cell_length_a   4.16288000
_cell_length_b   6.46870470
_cell_length_c   6.46870470
_cell_angle_alpha   95.94285569
_cell_angle_beta   108.77005589
_cell_angle_gamma   71.22994411
_symmetry_Int_Tables_number   1
_chemical_formula_structural   Si4Ni9B2
_chemical_formula_sum   'Si4 Ni9 B2'
_cell_volume   156.15688843
_cell_formula_units_Z   1
loop_
 _symmetry_equiv_pos_site_id
 _symmetry_equiv_pos_as_xyz
  1  'x, y, z'
loop_
 _atom_site_type_symbol
 _atom_site_label
 _atom_site_symmetry_multiplicity
 _atom_site_fract_x
 _atom_site_fract_y
 _atom_site_fract_z
 _atom_site_occupancy
  Si  Si0  1  0.37106500  0.50000000  0.18454200  1
  Si  Si1  1  0.68652400  0.50000000  0.81545800  1
  Si  Si2  1  0.81347600  0.81545800  0.50000000  1
  Si  Si3  1  0.12893500  0.18454200  0.50000000  1
  Ni  Ni0  1  0.42122500  0.87334100  0.71568200  1
  Ni  Ni1  1  0.57888400  0.12665900  0.28431800  1
  Ni  Ni2  1  0.92111600  0.28431800  0.12665900  1
  Ni  Ni3  1  0.07877500  0.71568200  0.87334100  1
  Ni  Ni4  1  0.70543400  0.71568200  0.12665900  1
  Ni  Ni5  1  0.29445700  0.28431800  0.87334100  1
  Ni  Ni6  1  0.79456600  0.12665900  0.71568200  1
  Ni  Ni7  1  0.20554300  0.87334100  0.28431800  1
  Ni  Ni8  1  0.25000000  0.50000000  0.50000000  1
  B  B0  1  0.25000000  0.00000000  0.00000000  1
  B  B1  1  0.75000000  0.00000000  0.00000000  1
loop_
_geom_bond_atom_site_label_1
_geom_bond_atom_site_label_2
_geom_bond_distance
_geom_bond_site_symmetry_2
Ni0 Si3 2.322129 1_565
Ni0 Si1 2.369867 1_555
Ni0 Si2 2.391139 1_555
Ni0 Si2 2.591803 1_455
Ni1 Si2 2.322130 1_545
Ni1 Si0 2.369867 1_555
Ni1 Si3 2.391142 1_655
Ni1 Si3 2.591800 1_555
Ni2 Si1 2.322130 1_554
Ni2 Si3 2.369867 1_655
Ni2 Si0 2.391142 1_555
Ni2 Si0 2.591800 1_655
Ni3 Si0 2.322129 1_556
Ni3 Si2 2.369867 1_455
Ni3 Si1 2.391139 1_455
Ni3 Si1 2.591803 1_555
Ni4 Si1 2.322130 1_554
Ni4 Si2 2.369867 1_555
Ni4 Si0 2.391143 1_555
Ni4 Si0 2.591800 1_655
Ni5 Si0 2.322130 1_556
Ni5 Si3 2.369867 1_555
Ni5 Si1 2.391139 1_455
Ni5 Si1 2.591804 1_555
Ni6 Si2 2.322130 1_545
Ni6 Si1 2.369867 1_555
Ni6 Si3 2.391143 1_655
Ni6 Si3 2.591800 1_555
Ni7 Si3 2.322130 1_565
Ni7 Si0 2.369867 1_555
Ni7 Si2 2.391139 1_555
Ni7 Si2 2.591804 1_455
Ni8 Si0 2.253862 1_555
Ni8 Si3 2.253862 1_555
Ni8 Si1 2.253864 1_555
Ni8 Si2 2.253864 1_455
B0 B1 2.081440 1_455
B0 B1 2.081440 1_555
B0 Ni4 2.171804 1_545
B0 Ni6 2.171804 1_454
B0 Ni5 2.171805 1_554
B0 Ni7 2.171805 1_545
B0 Ni2 2.172022 1_455
B0 Ni1 2.172022 1_555
B0 Ni3 2.172022 1_544
B0 Ni0 2.172022 1_544
B1 Ni0 2.171804 1_544
B1 Ni3 2.171804 1_644
B1 Ni1 2.171805 1_555
B1 Ni2 2.171805 1_555
B1 Ni7 2.172022 1_645
B1 Ni5 2.172022 1_554
B1 Ni4 2.172022 1_545
B1 Ni6 2.172022 1_554
