# generated using pymatgen
data_Yb(SbS2)2
_symmetry_space_group_name_H-M   'P 1'
_cell_length_a   3.95464600
_cell_length_b   11.54331300
_cell_length_c   14.24557000
_cell_angle_alpha   90.00000000
_cell_angle_beta   90.00000000
_cell_angle_gamma   90.00000000
_symmetry_Int_Tables_number   1
_chemical_formula_structural   Yb(SbS2)2
_chemical_formula_sum   'Yb4 Sb8 S16'
_cell_volume   650.30623305
_cell_formula_units_Z   4
loop_
 _symmetry_equiv_pos_site_id
 _symmetry_equiv_pos_as_xyz
  1  'x, y, z'
loop_
 _atom_site_type_symbol
 _atom_site_label
 _atom_site_symmetry_multiplicity
 _atom_site_fract_x
 _atom_site_fract_y
 _atom_site_fract_z
 _atom_site_occupancy
  Yb  Yb0  1  0.25000000  0.26514000  0.34903200  1
  Yb  Yb1  1  0.25000000  0.76514000  0.15096800  1
  Yb  Yb2  1  0.75000000  0.73486000  0.65096800  1
  Yb  Yb3  1  0.75000000  0.23486000  0.84903200  1
  Sb  Sb0  1  0.25000000  0.06768900  0.60965300  1
  Sb  Sb1  1  0.25000000  0.56768900  0.89034700  1
  Sb  Sb2  1  0.75000000  0.93231100  0.39034700  1
  Sb  Sb3  1  0.75000000  0.43231100  0.10965300  1
  Sb  Sb4  1  0.25000000  0.11449300  0.08895800  1
  Sb  Sb5  1  0.25000000  0.61449300  0.41104200  1
  Sb  Sb6  1  0.75000000  0.88550700  0.91104200  1
  Sb  Sb7  1  0.75000000  0.38550700  0.58895800  1
  S  S0  1  0.25000000  0.31249200  0.98681600  1
  S  S1  1  0.25000000  0.81249200  0.51318400  1
  S  S2  1  0.75000000  0.68750800  0.01318400  1
  S  S3  1  0.75000000  0.18750800  0.48681600  1
  S  S4  1  0.25000000  0.25387100  0.70172700  1
  S  S5  1  0.25000000  0.75387100  0.79827300  1
  S  S6  1  0.75000000  0.74612900  0.29827300  1
  S  S7  1  0.75000000  0.24612900  0.20172700  1
  S  S8  1  0.25000000  0.05571300  0.90992000  1
  S  S9  1  0.25000000  0.55571300  0.59008000  1
  S  S10  1  0.75000000  0.94428700  0.09008000  1
  S  S11  1  0.75000000  0.44428700  0.40992000  1
  S  S12  1  0.25000000  0.01788800  0.29134300  1
  S  S13  1  0.25000000  0.51788800  0.20865700  1
  S  S14  1  0.75000000  0.98211200  0.70865700  1
  S  S15  1  0.75000000  0.48211200  0.79134300  1
loop_
_geom_bond_atom_site_label_1
_geom_bond_atom_site_label_2
_geom_bond_distance
_geom_bond_site_symmetry_2
S0 Sb4 2.709435 1_556
S0 Yb3 2.926685 1_455
S0 Yb3 2.926685 1_555
S0 Sb3 2.980752 1_556
S0 Sb3 2.980752 1_456
S1 Sb5 2.709435 1_555
S1 Yb2 2.926685 1_455
S1 Yb2 2.926685 1_555
S1 Sb2 2.980752 1_455
S1 Sb2 2.980752 1_555
S2 Sb6 2.709435 1_554
S2 Yb1 2.926685 1_555
S2 Yb1 2.926685 1_655
S2 Sb1 2.980752 1_554
S2 Sb1 2.980752 1_654
S3 Sb7 2.709435 1_555
S3 Yb0 2.926685 1_555
S3 Yb0 2.926685 1_655
S3 Sb0 2.980752 1_555
S3 Sb0 2.980752 1_655
S4 Sb0 2.517795 1_555
S4 Yb3 2.891614 1_555
S4 Yb3 2.891614 1_455
S4 Sb7 2.966386 1_455
S4 Sb7 2.966386 1_555
S5 Sb1 2.517795 1_555
S5 Yb2 2.891614 1_555
S5 Yb2 2.891614 1_455
S5 Sb6 2.966386 1_455
S5 Sb6 2.966386 1_555
S6 Sb2 2.517795 1_555
S6 Yb1 2.891614 1_655
S6 Yb1 2.891614 1_555
S6 Sb5 2.966386 1_555
S6 Sb5 2.966386 1_655
S7 Sb3 2.517795 1_555
S7 Yb0 2.891614 1_555
S7 Yb0 2.891614 1_655
S7 Sb4 2.966386 1_555
S7 Sb4 2.966386 1_655
S8 Sb4 2.639209 1_556
S8 Sb6 2.787520 1_545
S8 Sb6 2.787520 1_445
S8 Yb3 2.989746 1_555
S8 Yb3 2.989746 1_455
S9 Sb5 2.639209 1_555
S9 Sb7 2.787520 1_455
S9 Sb7 2.787520 1_555
S9 Yb2 2.989746 1_455
S9 Yb2 2.989746 1_555
S10 Sb6 2.639209 1_554
S10 Sb4 2.787520 1_565
S10 Sb4 2.787520 1_665
S10 Yb1 2.989746 1_655
S10 Yb1 2.989746 1_555
S11 Sb7 2.639209 1_555
S11 Sb5 2.787520 1_555
S11 Sb5 2.787520 1_655
S11 Yb0 2.989746 1_655
S11 Yb0 2.989746 1_555
S12 Sb2 2.621980 1_545
S12 Sb2 2.621980 1_445
S12 Yb0 2.970068 1_555
S12 Sb4 3.091237 1_555
S12 Yb1 3.537087 1_545
S13 Sb3 2.621980 1_555
S13 Sb3 2.621980 1_455
S13 Yb1 2.970068 1_555
S13 Sb5 3.091237 1_555
S13 Yb0 3.537087 1_555
S14 Sb0 2.621980 1_565
S14 Sb0 2.621980 1_665
S14 Yb2 2.970068 1_555
S14 Sb6 3.091237 1_555
S14 Yb3 3.537087 1_565
S15 Sb1 2.621980 1_655
S15 Sb1 2.621980 1_555
S15 Yb3 2.970068 1_555
S15 Sb7 3.091237 1_555
S15 Yb2 3.537087 1_555
