# generated using pymatgen
data_HfMg
_symmetry_space_group_name_H-M   'P 1'
_cell_length_a   6.32076000
_cell_length_b   10.19357600
_cell_length_c   10.74496000
_cell_angle_alpha   90.00000000
_cell_angle_beta   90.00000000
_cell_angle_gamma   90.00000000
_symmetry_Int_Tables_number   1
_chemical_formula_structural   HfMg
_chemical_formula_sum   'Hf16 Mg16'
_cell_volume   692.31010197
_cell_formula_units_Z   16
loop_
 _symmetry_equiv_pos_site_id
 _symmetry_equiv_pos_as_xyz
  1  'x, y, z'
loop_
 _atom_site_type_symbol
 _atom_site_label
 _atom_site_symmetry_multiplicity
 _atom_site_fract_x
 _atom_site_fract_y
 _atom_site_fract_z
 _atom_site_occupancy
  Hf  Hf0_0  1  0.00000000  0.37500000  0.09140300  1
  Hf  Hf0_1  1  0.00000000  0.37500000  0.59140300  1
  Hf  Hf0_2  1  0.00000000  0.87500000  0.09140300  1
  Hf  Hf0_3  1  0.00000000  0.87500000  0.59140300  1
  Hf  Hf0_4  1  0.50000000  0.37500000  0.09140300  1
  Hf  Hf0_5  1  0.50000000  0.37500000  0.59140300  1
  Hf  Hf0_6  1  0.50000000  0.87500000  0.09140300  1
  Hf  Hf0_7  1  0.50000000  0.87500000  0.59140300  1
  Hf  Hf1_0  1  0.00000000  0.12500000  0.40859700  1
  Hf  Hf1_1  1  0.00000000  0.12500000  0.90859700  1
  Hf  Hf1_2  1  0.00000000  0.62500000  0.40859700  1
  Hf  Hf1_3  1  0.00000000  0.62500000  0.90859700  1
  Hf  Hf1_4  1  0.50000000  0.12500000  0.40859700  1
  Hf  Hf1_5  1  0.50000000  0.12500000  0.90859700  1
  Hf  Hf1_6  1  0.50000000  0.62500000  0.40859700  1
  Hf  Hf1_7  1  0.50000000  0.62500000  0.90859700  1
  Mg  Mg0_0  1  0.25000000  0.12500000  0.15839350  1
  Mg  Mg0_1  1  0.25000000  0.12500000  0.65839350  1
  Mg  Mg0_2  1  0.25000000  0.62500000  0.15839350  1
  Mg  Mg0_3  1  0.25000000  0.62500000  0.65839350  1
  Mg  Mg0_4  1  0.75000000  0.12500000  0.15839350  1
  Mg  Mg0_5  1  0.75000000  0.12500000  0.65839350  1
  Mg  Mg0_6  1  0.75000000  0.62500000  0.15839350  1
  Mg  Mg0_7  1  0.75000000  0.62500000  0.65839350  1
  Mg  Mg1_0  1  0.25000000  0.37500000  0.34160650  1
  Mg  Mg1_1  1  0.25000000  0.37500000  0.84160650  1
  Mg  Mg1_2  1  0.25000000  0.87500000  0.34160650  1
  Mg  Mg1_3  1  0.25000000  0.87500000  0.84160650  1
  Mg  Mg1_4  1  0.75000000  0.37500000  0.34160650  1
  Mg  Mg1_5  1  0.75000000  0.37500000  0.84160650  1
  Mg  Mg1_6  1  0.75000000  0.87500000  0.34160650  1
  Mg  Mg1_7  1  0.75000000  0.87500000  0.84160650  1
loop_
_geom_bond_atom_site_label_1
_geom_bond_atom_site_label_2
_geom_bond_distance
_geom_bond_site_symmetry_2
Hf0_0 Mg0_6 3.083738 1_455
Hf0_0 Mg0_0 3.083738 1_555
Hf0_0 Mg0_4 3.083738 1_455
Hf0_0 Mg0_2 3.083738 1_555
Hf0_0 Mg1_5 3.114666 1_454
Hf0_0 Mg1_1 3.114666 1_554
Hf0_0 Mg1_4 3.118435 1_455
Hf0_0 Mg1_0 3.118435 1_555
Hf0_0 Hf0_4 3.160380 1_555
Hf0_0 Hf0_4 3.160380 1_455
Hf0_0 Hf1_1 3.217540 1_554
Hf0_0 Hf1_3 3.217540 1_554
Hf0_1 Mg0_7 3.083738 1_455
Hf0_1 Mg0_3 3.083738 1_555
Hf0_1 Mg0_5 3.083738 1_455
Hf0_1 Mg0_1 3.083738 1_555
Hf0_1 Mg1_4 3.114666 1_455
Hf0_1 Mg1_0 3.114666 1_555
Hf0_1 Mg1_1 3.118435 1_555
Hf0_1 Mg1_5 3.118435 1_455
Hf0_1 Hf0_5 3.160380 1_455
Hf0_1 Hf0_5 3.160380 1_555
Hf0_1 Hf1_2 3.217540 1_555
Hf0_1 Hf1_0 3.217540 1_555
Hf0_2 Mg0_2 3.083738 1_555
Hf0_2 Mg0_6 3.083738 1_455
Hf0_2 Mg0_4 3.083738 1_465
Hf0_2 Mg0_0 3.083738 1_565
Hf0_2 Mg1_7 3.114666 1_454
Hf0_2 Mg1_3 3.114666 1_554
Hf0_2 Mg1_2 3.118435 1_555
Hf0_2 Mg1_6 3.118435 1_455
Hf0_2 Hf0_6 3.160380 1_555
Hf0_2 Hf0_6 3.160380 1_455
Hf0_2 Hf1_3 3.217540 1_554
Hf0_2 Hf1_1 3.217540 1_564
Hf0_3 Mg0_7 3.083738 1_455
Hf0_3 Mg0_3 3.083738 1_555
Hf0_3 Mg0_5 3.083738 1_465
Hf0_3 Mg0_1 3.083738 1_565
Hf0_3 Mg1_6 3.114666 1_455
Hf0_3 Mg1_2 3.114666 1_555
Hf0_3 Mg1_3 3.118435 1_555
Hf0_3 Mg1_7 3.118435 1_455
Hf0_3 Hf0_7 3.160380 1_555
Hf0_3 Hf0_7 3.160380 1_455
Hf0_3 Hf1_2 3.217540 1_555
Hf0_3 Hf1_0 3.217540 1_565
Hf0_4 Mg0_0 3.083738 1_555
Hf0_4 Mg0_6 3.083738 1_555
Hf0_4 Mg0_4 3.083738 1_555
Hf0_4 Mg0_2 3.083738 1_555
Hf0_4 Mg1_1 3.114666 1_554
Hf0_4 Mg1_5 3.114666 1_554
Hf0_4 Mg1_4 3.118435 1_555
Hf0_4 Mg1_0 3.118435 1_555
Hf0_4 Hf1_7 3.217540 1_554
Hf0_4 Hf1_5 3.217540 1_554
Hf0_5 Mg0_3 3.083738 1_555
Hf0_5 Mg0_1 3.083738 1_555
Hf0_5 Mg0_7 3.083738 1_555
Hf0_5 Mg0_5 3.083738 1_555
Hf0_5 Mg1_0 3.114666 1_555
Hf0_5 Mg1_4 3.114666 1_555
Hf0_5 Mg1_1 3.118435 1_555
Hf0_5 Mg1_5 3.118435 1_555
Hf0_5 Hf1_6 3.217540 1_555
Hf0_5 Hf1_4 3.217540 1_555
Hf0_6 Mg0_2 3.083738 1_555
Hf0_6 Mg0_6 3.083738 1_555
Hf0_6 Mg0_4 3.083738 1_565
Hf0_6 Mg0_0 3.083738 1_565
Hf0_6 Mg1_3 3.114666 1_554
Hf0_6 Mg1_7 3.114666 1_554
Hf0_6 Mg1_2 3.118435 1_555
Hf0_6 Mg1_6 3.118435 1_555
Hf0_6 Hf1_7 3.217540 1_554
Hf0_6 Hf1_5 3.217540 1_564
Hf0_7 Mg0_3 3.083738 1_555
Hf0_7 Mg0_7 3.083738 1_555
Hf0_7 Mg0_1 3.083738 1_565
Hf0_7 Mg0_5 3.083738 1_565
Hf0_7 Mg1_6 3.114666 1_555
Hf0_7 Mg1_2 3.114666 1_555
Hf0_7 Mg1_3 3.118435 1_555
Hf0_7 Mg1_7 3.118435 1_555
Hf0_7 Hf1_6 3.217540 1_555
Hf0_7 Hf1_4 3.217540 1_565
Hf1_0 Mg1_0 3.083738 1_555
Hf1_0 Mg1_4 3.083738 1_455
Hf1_0 Mg1_2 3.083738 1_545
Hf1_0 Mg1_6 3.083738 1_445
Hf1_0 Mg0_5 3.114666 1_455
Hf1_0 Mg0_1 3.114666 1_555
Hf1_0 Mg0_0 3.118435 1_555
Hf1_0 Mg0_4 3.118435 1_455
Hf1_0 Hf1_4 3.160380 1_455
Hf1_0 Hf1_4 3.160380 1_555
Hf1_1 Mg1_1 3.083738 1_555
Hf1_1 Mg1_5 3.083738 1_455
Hf1_1 Mg1_3 3.083738 1_545
Hf1_1 Mg1_7 3.083738 1_445
Hf1_1 Mg0_0 3.114666 1_556
Hf1_1 Mg0_4 3.114666 1_456
Hf1_1 Mg0_1 3.118435 1_555
Hf1_1 Mg0_5 3.118435 1_455
Hf1_1 Hf1_5 3.160380 1_455
Hf1_1 Hf1_5 3.160380 1_555
Hf1_2 Mg1_2 3.083738 1_555
Hf1_2 Mg1_6 3.083738 1_455
Hf1_2 Mg1_0 3.083738 1_555
Hf1_2 Mg1_4 3.083738 1_455
Hf1_2 Mg0_3 3.114666 1_555
Hf1_2 Mg0_7 3.114666 1_455
Hf1_2 Mg0_2 3.118435 1_555
Hf1_2 Mg0_6 3.118435 1_455
Hf1_2 Hf1_6 3.160380 1_455
Hf1_2 Hf1_6 3.160380 1_555
Hf1_3 Mg1_3 3.083738 1_555
Hf1_3 Mg1_7 3.083738 1_455
Hf1_3 Mg1_1 3.083738 1_555
Hf1_3 Mg1_5 3.083738 1_455
Hf1_3 Mg0_2 3.114666 1_556
Hf1_3 Mg0_6 3.114666 1_456
Hf1_3 Mg0_3 3.118435 1_555
Hf1_3 Mg0_7 3.118435 1_455
Hf1_3 Hf1_7 3.160380 1_455
Hf1_3 Hf1_7 3.160380 1_555
Hf1_4 Mg1_0 3.083738 1_555
Hf1_4 Mg1_4 3.083738 1_555
Hf1_4 Mg1_2 3.083738 1_545
Hf1_4 Mg1_6 3.083738 1_545
Hf1_4 Mg0_1 3.114666 1_555
Hf1_4 Mg0_5 3.114666 1_555
Hf1_4 Mg0_0 3.118435 1_555
Hf1_4 Mg0_4 3.118435 1_555
Hf1_5 Mg1_1 3.083738 1_555
Hf1_5 Mg1_5 3.083738 1_555
Hf1_5 Mg1_3 3.083738 1_545
Hf1_5 Mg1_7 3.083738 1_545
Hf1_5 Mg0_4 3.114666 1_556
Hf1_5 Mg0_0 3.114666 1_556
Hf1_5 Mg0_1 3.118435 1_555
Hf1_5 Mg0_5 3.118435 1_555
Hf1_6 Mg1_2 3.083738 1_555
Hf1_6 Mg1_6 3.083738 1_555
Hf1_6 Mg1_0 3.083738 1_555
Hf1_6 Mg1_4 3.083738 1_555
Hf1_6 Mg0_7 3.114666 1_555
Hf1_6 Mg0_3 3.114666 1_555
Hf1_6 Mg0_2 3.118435 1_555
Hf1_6 Mg0_6 3.118435 1_555
Hf1_7 Mg1_3 3.083738 1_555
Hf1_7 Mg1_7 3.083738 1_555
Hf1_7 Mg1_1 3.083738 1_555
Hf1_7 Mg1_5 3.083738 1_555
Hf1_7 Mg0_2 3.114666 1_556
Hf1_7 Mg0_6 3.114666 1_556
Hf1_7 Mg0_7 3.118435 1_555
Hf1_7 Mg0_3 3.118435 1_555
Mg0_0 Mg0_4 3.160380 1_455
Mg0_0 Mg0_4 3.160380 1_555
Mg0_0 Mg1_0 3.220212 1_555
Mg0_0 Mg1_2 3.220212 1_545
Mg0_1 Mg0_5 3.160380 1_555
Mg0_1 Mg0_5 3.160380 1_455
Mg0_1 Mg1_1 3.220212 1_555
Mg0_1 Mg1_3 3.220212 1_545
Mg0_2 Mg0_6 3.160380 1_455
Mg0_2 Mg0_6 3.160380 1_555
Mg0_2 Mg1_2 3.220212 1_555
Mg0_2 Mg1_0 3.220212 1_555
Mg0_3 Mg0_7 3.160380 1_555
Mg0_3 Mg0_7 3.160380 1_455
Mg0_3 Mg1_3 3.220212 1_555
Mg0_3 Mg1_1 3.220212 1_555
Mg0_4 Mg1_4 3.220212 1_555
Mg0_4 Mg1_6 3.220212 1_545
Mg0_5 Mg1_5 3.220212 1_555
Mg0_5 Mg1_7 3.220212 1_545
Mg0_6 Mg1_6 3.220212 1_555
Mg0_6 Mg1_4 3.220212 1_555
Mg0_7 Mg1_7 3.220212 1_555
Mg0_7 Mg1_5 3.220212 1_555
Mg1_0 Mg1_4 3.160380 1_555
Mg1_0 Mg1_4 3.160380 1_455
Mg1_1 Mg1_5 3.160380 1_555
Mg1_1 Mg1_5 3.160380 1_455
Mg1_2 Mg1_6 3.160380 1_455
Mg1_2 Mg1_6 3.160380 1_555
Mg1_3 Mg1_7 3.160380 1_555
Mg1_3 Mg1_7 3.160380 1_455
