# generated using pymatgen
data_La2GaNiO6
_symmetry_space_group_name_H-M   'P 1'
_cell_length_a   5.54438775
_cell_length_b   9.37657818
_cell_length_c   5.67967050
_cell_angle_alpha   74.37254135
_cell_angle_beta   59.31368408
_cell_angle_gamma   73.71493093
_symmetry_Int_Tables_number   1
_chemical_formula_structural   La2GaNiO6
_chemical_formula_sum   'La4 Ga2 Ni2 O12'
_cell_volume   240.86903907
_cell_formula_units_Z   2
loop_
 _symmetry_equiv_pos_site_id
 _symmetry_equiv_pos_as_xyz
  1  'x, y, z'
loop_
 _atom_site_type_symbol
 _atom_site_label
 _atom_site_symmetry_multiplicity
 _atom_site_fract_x
 _atom_site_fract_y
 _atom_site_fract_z
 _atom_site_occupancy
  La  La0  1  0.37762200  0.87324900  0.38227600  1
  La  La1  1  0.87788500  0.37309900  0.88234500  1
  La  La2  1  0.12231300  0.62675500  0.11776900  1
  La  La3  1  0.62221500  0.12684400  0.61771400  1
  Ga  Ga0  1  0.25005200  0.25001400  0.24998100  1
  Ga  Ga1  1  0.74996400  0.74999100  0.75000400  1
  Ni  Ni0  1  0.49998300  0.50015000  0.50016000  1
  Ni  Ni1  1  0.99998500  0.99995300  0.99973100  1
  O  O0  1  0.87572900  0.38495100  0.30784700  1
  O  O1  1  0.37590100  0.88484400  0.80758100  1
  O  O2  1  0.43988600  0.37298500  0.89512600  1
  O  O3  1  0.93987200  0.87299800  0.39510300  1
  O  O4  1  0.32715700  0.36457200  0.45456100  1
  O  O5  1  0.82709300  0.86451800  0.95445800  1
  O  O6  1  0.06014300  0.12700900  0.60485400  1
  O  O7  1  0.56008200  0.62699500  0.10491000  1
  O  O8  1  0.17285500  0.13541700  0.04544300  1
  O  O9  1  0.67286000  0.63548700  0.54548400  1
  O  O10  1  0.62436900  0.11504100  0.19213100  1
  O  O11  1  0.12403400  0.61512700  0.69252200  1
loop_
_geom_bond_atom_site_label_1
_geom_bond_atom_site_label_2
_geom_bond_distance
_geom_bond_site_symmetry_2
La0 O3 2.391349 1_455
La0 O5 2.435868 1_554
La0 O1 2.442209 1_555
La0 O9 2.626335 1_555
La0 O10 2.662777 1_565
La0 O6 2.712654 1_565
La0 O7 2.803532 1_555
La0 O11 2.832259 1_555
La0 O8 3.018236 1_565
La0 O5 3.123610 1_455
La0 O3 3.154468 1_555
La0 O1 3.241316 1_554
La1 O2 2.392500 1_555
La1 O4 2.435189 1_655
La1 O0 2.442837 1_556
La1 O8 2.624784 1_656
La1 O11 2.663089 1_655
La1 O7 2.713970 1_556
La1 O6 2.802790 1_655
La1 O10 2.831234 1_556
La1 O9 3.020117 1_555
La1 O4 3.124176 1_556
La1 O2 3.153313 1_655
La1 O0 3.240848 1_555
La2 O7 2.391337 1_555
La2 O9 2.435535 1_455
La2 O11 2.441975 1_554
La2 O5 2.626543 1_454
La2 O0 2.662416 1_455
La2 O2 2.712954 1_554
La2 O3 2.803349 1_455
La2 O1 2.831957 1_554
La2 O4 3.018372 1_555
La2 O9 3.123969 1_554
La2 O7 3.154488 1_455
La2 O11 3.241572 1_555
La3 O6 2.392020 1_655
La3 O8 2.435290 1_556
La3 O10 2.443159 1_555
La3 O4 2.625448 1_555
La3 O1 2.663333 1_545
La3 O3 2.713548 1_545
La3 O2 2.802877 1_555
La3 O0 2.831673 1_555
La3 O5 3.019017 1_545
La3 O8 3.124131 1_655
La3 O6 3.153808 1_555
La3 O10 3.240492 1_556
Ga0 O2 1.939796 1_554
Ga0 O6 1.940081 1_555
Ga0 O0 2.017740 1_455
Ga0 O10 2.017861 1_555
Ga0 O4 2.030685 1_555
Ga0 O8 2.031092 1_555
Ga1 O7 1.940127 1_556
Ga1 O3 1.940184 1_555
Ga1 O1 2.016646 1_555
Ga1 O11 2.016820 1_655
Ga1 O5 2.029967 1_555
Ga1 O9 2.030025 1_555
Ni0 O9 1.924926 1_555
Ni0 O4 1.927484 1_555
Ni0 O11 1.936645 1_555
Ni0 O0 1.936736 1_555
Ni0 O2 2.140998 1_555
Ni0 O7 2.141364 1_555
Ni1 O5 1.925592 1_555
Ni1 O8 1.927138 1_666
Ni1 O10 1.935939 1_566
Ni1 O1 1.936835 1_655
Ni1 O6 2.140184 1_665
Ni1 O3 2.142241 1_556
