# generated using pymatgen
data_Ti2FeB2Ru2Rh3
_symmetry_space_group_name_H-M   'P 1'
_cell_length_a   3.00172600
_cell_length_b   9.11377700
_cell_length_c   9.20165000
_cell_angle_alpha   90.00000000
_cell_angle_beta   90.00000000
_cell_angle_gamma   90.00000000
_symmetry_Int_Tables_number   1
_chemical_formula_structural   Ti2FeB2Ru2Rh3
_chemical_formula_sum   'Ti4 Fe2 B4 Ru4 Rh6'
_cell_volume   251.73010384
_cell_formula_units_Z   2
loop_
 _symmetry_equiv_pos_site_id
 _symmetry_equiv_pos_as_xyz
  1  'x, y, z'
loop_
 _atom_site_type_symbol
 _atom_site_label
 _atom_site_symmetry_multiplicity
 _atom_site_fract_x
 _atom_site_fract_y
 _atom_site_fract_z
 _atom_site_occupancy
  Ti  Ti0  1  0.00000000  0.32296200  0.82052200  1
  Ti  Ti1  1  0.00000000  0.67703800  0.17947800  1
  Ti  Ti2  1  0.00000000  0.82296200  0.67947800  1
  Ti  Ti3  1  0.00000000  0.17703800  0.32052200  1
  Fe  Fe0  1  0.00000000  0.50000000  0.50000000  1
  Fe  Fe1  1  0.00000000  0.00000000  0.00000000  1
  B  B0  1  0.00000000  0.87642100  0.37237800  1
  B  B1  1  0.00000000  0.12357900  0.62762200  1
  B  B2  1  0.00000000  0.37642100  0.12762200  1
  B  B3  1  0.00000000  0.62357900  0.87237800  1
  Ru  Ru0  1  0.50000000  0.42679700  0.28800800  1
  Ru  Ru1  1  0.50000000  0.57320300  0.71199200  1
  Ru  Ru2  1  0.50000000  0.92679700  0.21199200  1
  Ru  Ru3  1  0.50000000  0.07320300  0.78800800  1
  Rh  Rh0  1  0.50000000  0.71568500  0.42703300  1
  Rh  Rh1  1  0.50000000  0.28431500  0.57296700  1
  Rh  Rh2  1  0.50000000  0.78431500  0.92703300  1
  Rh  Rh3  1  0.50000000  0.21568500  0.07296700  1
  Rh  Rh4  1  0.50000000  0.50000000  0.00000000  1
  Rh  Rh5  1  0.50000000  0.00000000  0.50000000  1
loop_
_geom_bond_atom_site_label_1
_geom_bond_atom_site_label_2
_geom_bond_distance
_geom_bond_site_symmetry_2
Fe0 Ru0 2.550064 1_455
Fe0 Ru0 2.550064 1_555
Fe0 Ru1 2.550064 1_555
Fe0 Ru1 2.550064 1_455
Fe0 Rh1 2.562691 1_555
Fe0 Rh0 2.562691 1_555
Fe0 Rh0 2.562691 1_455
Fe0 Rh1 2.562691 1_455
Fe1 Ru2 2.550064 1_445
Fe1 Ru2 2.550064 1_545
Fe1 Ru3 2.550064 1_554
Fe1 Ru3 2.550064 1_454
Fe1 Rh3 2.562691 1_455
Fe1 Rh3 2.562691 1_555
Fe1 Rh2 2.562691 1_444
Fe1 Rh2 2.562691 1_544
B0 Ru2 2.154393 1_455
B0 Ru2 2.154393 1_555
B0 Rh0 2.156729 1_455
B0 Rh0 2.156729 1_555
B0 Rh5 2.213625 1_465
B0 Rh5 2.213625 1_565
B0 Ti1 2.540195 1_555
B0 Ti3 2.780997 1_565
B0 Ti2 2.867520 1_555
B1 Ru3 2.154393 1_455
B1 Ru3 2.154393 1_555
B1 Rh1 2.156729 1_455
B1 Rh1 2.156729 1_555
B1 Rh5 2.213625 1_555
B1 Rh5 2.213625 1_455
B1 Ti0 2.540195 1_555
B1 Ti2 2.780997 1_545
B1 Ti3 2.867520 1_555
B2 Ru0 2.154393 1_455
B2 Ru0 2.154393 1_555
B2 Rh3 2.156729 1_455
B2 Rh3 2.156729 1_555
B2 Rh4 2.213625 1_455
B2 Rh4 2.213625 1_555
B2 Ti3 2.540195 1_555
B2 Ti1 2.780997 1_555
B2 Ti0 2.867520 1_554
B3 Ru1 2.154393 1_455
B3 Ru1 2.154393 1_555
B3 Rh2 2.156729 1_555
B3 Rh2 2.156729 1_455
B3 Rh4 2.213625 1_556
B3 Rh4 2.213625 1_456
B3 Ti2 2.540195 1_555
B3 Ti0 2.780997 1_555
B3 Ti1 2.867520 1_556
Ru0 Ti3 2.742882 1_655
Ru0 Ti3 2.742882 1_555
Ru0 Ti1 2.907099 1_555
Ru0 Ti1 2.907099 1_655
Ru1 Ti2 2.742882 1_655
Ru1 Ti2 2.742882 1_555
Ru1 Ti0 2.907099 1_655
Ru1 Ti0 2.907099 1_555
Ru2 Ti1 2.742882 1_655
Ru2 Ti1 2.742882 1_555
Ru2 Ti3 2.907099 1_665
Ru2 Ti3 2.907099 1_565
Ru3 Ti0 2.742882 1_655
Ru3 Ti0 2.742882 1_555
Ru3 Ti2 2.907099 1_645
Ru3 Ti2 2.907099 1_545
Rh0 Ti1 2.750553 1_655
Rh0 Ti1 2.750553 1_555
Rh0 Ti2 2.933325 1_555
Rh0 Ti2 2.933325 1_655
Rh1 Ti0 2.750553 1_655
Rh1 Ti0 2.750553 1_555
Rh1 Ti3 2.933325 1_655
Rh1 Ti3 2.933325 1_555
Rh2 Ti2 2.750553 1_655
Rh2 Ti2 2.750553 1_555
Rh2 Ti1 2.933325 1_656
Rh2 Ti1 2.933325 1_556
Rh3 Ti3 2.750553 1_555
Rh3 Ti3 2.750553 1_655
Rh3 Ti0 2.933325 1_554
Rh3 Ti0 2.933325 1_654
Rh4 Ti1 2.753789 1_655
Rh4 Ti1 2.753789 1_555
Rh4 Ti0 2.753789 1_654
Rh4 Ti0 2.753789 1_554
Rh5 Ti2 2.753789 1_545
Rh5 Ti2 2.753789 1_645
Rh5 Ti3 2.753789 1_555
Rh5 Ti3 2.753789 1_655
