# generated using pymatgen
data_Eu2TiO5
_symmetry_space_group_name_H-M   'P 1'
_cell_length_a   3.78888562
_cell_length_b   10.63260491
_cell_length_c   11.26297694
_cell_angle_alpha   90.00000000
_cell_angle_beta   90.00000000
_cell_angle_gamma   90.00000000
_symmetry_Int_Tables_number   1
_chemical_formula_structural   Eu2TiO5
_chemical_formula_sum   'Eu8 Ti4 O20'
_cell_volume   453.73717870
_cell_formula_units_Z   4
loop_
 _symmetry_equiv_pos_site_id
 _symmetry_equiv_pos_as_xyz
  1  'x, y, z'
loop_
 _atom_site_type_symbol
 _atom_site_label
 _atom_site_symmetry_multiplicity
 _atom_site_fract_x
 _atom_site_fract_y
 _atom_site_fract_z
 _atom_site_occupancy
  Eu  Eu0  1  0.25000000  0.63501447  0.56133041  1
  Eu  Eu1  1  0.25000000  0.13501447  0.93866959  1
  Eu  Eu2  1  0.75000000  0.36498553  0.43866959  1
  Eu  Eu3  1  0.75000000  0.86498553  0.06133041  1
  Eu  Eu4  1  0.75000000  0.89366799  0.71900058  1
  Eu  Eu5  1  0.75000000  0.39366799  0.78099942  1
  Eu  Eu6  1  0.25000000  0.10633201  0.28099942  1
  Eu  Eu7  1  0.25000000  0.60633201  0.21900058  1
  Ti  Ti0  1  0.25000000  0.68316820  0.87822805  1
  Ti  Ti1  1  0.25000000  0.18316820  0.62177195  1
  Ti  Ti2  1  0.75000000  0.31683180  0.12177195  1
  Ti  Ti3  1  0.75000000  0.81683180  0.37822805  1
  O  O0  1  0.75000000  0.50598447  0.60345887  1
  O  O1  1  0.75000000  0.00598447  0.89654113  1
  O  O2  1  0.25000000  0.49401553  0.39654113  1
  O  O3  1  0.25000000  0.99401553  0.10345887  1
  O  O4  1  0.75000000  0.77189891  0.54204026  1
  O  O5  1  0.75000000  0.27189891  0.95795974  1
  O  O6  1  0.25000000  0.22810109  0.45795974  1
  O  O7  1  0.25000000  0.72810109  0.04204026  1
  O  O8  1  0.75000000  0.73417773  0.88178711  1
  O  O9  1  0.75000000  0.23417773  0.61821289  1
  O  O10  1  0.25000000  0.26582227  0.11821289  1
  O  O11  1  0.25000000  0.76582227  0.38178711  1
  O  O12  1  0.25000000  0.76790711  0.73020823  1
  O  O13  1  0.25000000  0.26790711  0.76979177  1
  O  O14  1  0.75000000  0.23209289  0.26979177  1
  O  O15  1  0.75000000  0.73209289  0.23020823  1
  O  O16  1  0.25000000  0.52037829  0.84025415  1
  O  O17  1  0.25000000  0.02037829  0.65974585  1
  O  O18  1  0.75000000  0.47962171  0.15974585  1
  O  O19  1  0.75000000  0.97962171  0.34025415  1
loop_
_geom_bond_atom_site_label_1
_geom_bond_atom_site_label_2
_geom_bond_distance
_geom_bond_site_symmetry_2
Eu0 O12 2.369475 1_555
Eu0 O2 2.385867 1_555
Eu0 O0 2.386679 1_455
Eu0 O0 2.386679 1_555
Eu0 O4 2.398837 1_455
Eu0 O4 2.398837 1_555
Eu0 O11 2.454315 1_555
Eu1 O13 2.369475 1_555
Eu1 O3 2.385867 1_546
Eu1 O1 2.386679 1_455
Eu1 O1 2.386679 1_555
Eu1 O5 2.398837 1_455
Eu1 O5 2.398837 1_555
Eu1 O10 2.454315 1_556
Eu2 O14 2.369475 1_555
Eu2 O0 2.385867 1_555
Eu2 O2 2.386679 1_655
Eu2 O2 2.386679 1_555
Eu2 O6 2.398837 1_655
Eu2 O6 2.398837 1_555
Eu2 O9 2.454315 1_555
Eu3 O15 2.369475 1_555
Eu3 O1 2.385867 1_564
Eu3 O3 2.386679 1_655
Eu3 O3 2.386679 1_555
Eu3 O7 2.398837 1_655
Eu3 O7 2.398837 1_555
Eu3 O8 2.454315 1_554
Eu4 O12 2.322253 1_555
Eu4 O12 2.322253 1_655
Eu4 O1 2.329097 1_565
Eu4 O4 2.376711 1_555
Eu4 O17 2.418559 1_565
Eu4 O17 2.418559 1_665
Eu4 O8 2.497460 1_555
Eu5 O13 2.322253 1_555
Eu5 O13 2.322253 1_655
Eu5 O0 2.329097 1_555
Eu5 O5 2.376711 1_555
Eu5 O16 2.418559 1_655
Eu5 O16 2.418559 1_555
Eu5 O9 2.497460 1_555
Eu6 O14 2.322253 1_455
Eu6 O14 2.322253 1_555
Eu6 O3 2.329097 1_545
Eu6 O6 2.376711 1_555
Eu6 O19 2.418559 1_445
Eu6 O19 2.418559 1_545
Eu6 O10 2.497460 1_555
Eu7 O15 2.322253 1_455
Eu7 O15 2.322253 1_555
Eu7 O2 2.329097 1_555
Eu7 O7 2.376711 1_555
Eu7 O18 2.418559 1_555
Eu7 O18 2.418559 1_455
Eu7 O11 2.497460 1_555
O4 Ti3 1.905865 1_555
O5 Ti2 1.905865 1_556
O6 Ti1 1.905865 1_555
O7 Ti0 1.905865 1_554
O8 Ti0 1.970959 1_655
O8 Ti0 1.970959 1_555
O9 Ti1 1.970959 1_655
O9 Ti1 1.970959 1_555
O10 Ti2 1.970959 1_555
O10 Ti2 1.970959 1_455
O11 Ti3 1.970959 1_455
O11 Ti3 1.970959 1_555
O12 Ti0 1.895036 1_555
O13 Ti1 1.895036 1_555
O14 Ti2 1.895036 1_555
O15 Ti3 1.895036 1_555
O16 Ti0 1.782940 1_555
O17 Ti1 1.782940 1_555
O18 Ti2 1.782940 1_555
O19 Ti3 1.782940 1_555
