# generated using pymatgen
data_NdNb3O9
_symmetry_space_group_name_H-M   'P 1'
_cell_length_a   5.59083400
_cell_length_b   9.73218949
_cell_length_c   13.73884453
_cell_angle_alpha   90.21575819
_cell_angle_beta   90.52804875
_cell_angle_gamma   90.31544016
_symmetry_Int_Tables_number   1
_chemical_formula_structural   NdNb3O9
_chemical_formula_sum   'Nd4 Nb12 O36'
_cell_volume   747.49651769
_cell_formula_units_Z   4
loop_
 _symmetry_equiv_pos_site_id
 _symmetry_equiv_pos_as_xyz
  1  'x, y, z'
loop_
 _atom_site_type_symbol
 _atom_site_label
 _atom_site_symmetry_multiplicity
 _atom_site_fract_x
 _atom_site_fract_y
 _atom_site_fract_z
 _atom_site_occupancy
  Nd  Nd0  1  0.74677600  0.58312000  0.58082900  1
  Nd  Nd1  1  0.73910800  0.92298000  0.92267400  1
  Nd  Nd2  1  0.26089200  0.07702000  0.07732600  1
  Nd  Nd3  1  0.25322400  0.41688000  0.41917100  1
  Nb  Nb0  1  0.25244600  0.76241700  0.49856400  1
  Nb  Nb1  1  0.25211500  0.08768400  0.82406600  1
  Nb  Nb2  1  0.24844300  0.41018000  0.16596200  1
  Nb  Nb3  1  0.75612000  0.92164100  0.66554900  1
  Nb  Nb4  1  0.74986900  0.26496000  0.99567700  1
  Nb  Nb5  1  0.74756200  0.58070100  0.32480700  1
  Nb  Nb6  1  0.24388000  0.07835900  0.33445100  1
  Nb  Nb7  1  0.25243800  0.41929900  0.67519300  1
  Nb  Nb8  1  0.25013100  0.73504000  0.00432300  1
  Nb  Nb9  1  0.74755400  0.23758300  0.50143600  1
  Nb  Nb10  1  0.75155700  0.58982000  0.83403800  1
  Nb  Nb11  1  0.74788500  0.91231600  0.17593400  1
  O  O0  1  0.50081100  0.84888200  0.57461100  1
  O  O1  1  0.49938700  0.18218600  0.90836300  1
  O  O2  1  0.49777600  0.52197400  0.24056100  1
  O  O3  1  0.49918900  0.15111800  0.42538900  1
  O  O4  1  0.50222400  0.47802600  0.75943900  1
  O  O5  1  0.50061300  0.81781400  0.09163700  1
  O  O6  1  0.98542300  0.96796700  0.77267200  1
  O  O7  1  0.01303400  0.29348700  0.09538000  1
  O  O8  1  0.00167900  0.62477000  0.43932200  1
  O  O9  1  0.99832100  0.37523000  0.56067800  1
  O  O10  1  0.98696600  0.70651300  0.90462000  1
  O  O11  1  0.01457700  0.03203300  0.22732800  1
  O  O12  1  0.20908100  0.90672800  0.40320100  1
  O  O13  1  0.21186500  0.23397600  0.73496200  1
  O  O14  1  0.20687200  0.57106800  0.07383800  1
  O  O15  1  0.79091900  0.09327200  0.59679900  1
  O  O16  1  0.79312800  0.42893200  0.92616200  1
  O  O17  1  0.78813500  0.76602400  0.26503800  1
  O  O18  1  0.28491100  0.27090000  0.26781900  1
  O  O19  1  0.30437500  0.58864900  0.59159100  1
  O  O20  1  0.31177400  0.93517300  0.93535200  1
  O  O21  1  0.69562500  0.41135100  0.40840900  1
  O  O22  1  0.71508900  0.72910000  0.73218100  1
  O  O23  1  0.68822600  0.06482700  0.06464800  1
  O  O24  1  0.99967100  0.13968000  0.92961100  1
  O  O25  1  0.01633000  0.49592000  0.26181000  1
  O  O26  1  0.98409100  0.81402200  0.58479400  1
  O  O27  1  0.50595800  0.68142900  0.91397300  1
  O  O28  1  0.49213700  0.01286100  0.24033600  1
  O  O29  1  0.50204800  0.34725900  0.57453600  1
  O  O30  1  0.98367000  0.50408000  0.73819000  1
  O  O31  1  0.00032900  0.86032000  0.07038900  1
  O  O32  1  0.01590900  0.18597800  0.41520600  1
  O  O33  1  0.49404200  0.31857100  0.08602700  1
  O  O34  1  0.49795200  0.65274100  0.42546400  1
  O  O35  1  0.50786300  0.98713900  0.75966400  1
loop_
_geom_bond_atom_site_label_1
_geom_bond_atom_site_label_2
_geom_bond_distance
_geom_bond_site_symmetry_2
Nd0 O8 2.454711 1_655
Nd0 O19 2.480033 1_555
Nd0 O9 2.486400 1_555
Nd0 O22 2.522104 1_555
Nd0 O26 2.603474 1_555
Nd0 O34 2.630043 1_555
Nd0 O30 2.644026 1_555
Nd0 O29 2.666523 1_555
Nd1 O20 2.400648 1_555
Nd1 O23 2.405329 1_566
Nd1 O6 2.527389 1_555
Nd1 O10 2.540571 1_555
Nd1 O24 2.557554 1_565
Nd1 O31 2.566685 1_656
Nd1 O35 2.653879 1_555
Nd1 O27 2.683475 1_555
Nd2 O23 2.400648 1_555
Nd2 O20 2.405329 1_544
Nd2 O11 2.527389 1_555
Nd2 O7 2.540571 1_555
Nd2 O31 2.557554 1_545
Nd2 O24 2.566685 1_454
Nd2 O28 2.653879 1_555
Nd2 O33 2.683475 1_555
Nd3 O9 2.454711 1_455
Nd3 O21 2.480033 1_555
Nd3 O8 2.486400 1_555
Nd3 O18 2.522104 1_555
Nd3 O32 2.603474 1_555
Nd3 O29 2.630043 1_555
Nd3 O25 2.644026 1_555
Nd3 O34 2.666523 1_555
Nb0 O0 1.918751 1_555
Nb0 O12 1.938972 1_555
Nb0 O26 1.985778 1_455
Nb0 O34 2.016285 1_555
Nb0 O8 2.091095 1_555
Nb0 O19 2.143035 1_555
Nb1 O13 1.894172 1_555
Nb1 O35 1.953728 1_545
Nb1 O6 2.008604 1_445
Nb1 O1 2.011671 1_555
Nb1 O24 2.095423 1_455
Nb1 O20 2.159884 1_545
Nb2 O18 1.961971 1_555
Nb2 O7 1.978394 1_555
Nb2 O33 1.979965 1_555
Nb2 O14 2.030067 1_555
Nb2 O2 2.031236 1_555
Nb2 O25 2.037042 1_555
Nb3 O15 1.931777 1_565
Nb3 O6 1.991652 1_555
Nb3 O26 1.996099 1_555
Nb3 O35 2.010302 1_555
Nb3 O0 2.012250 1_555
Nb3 O22 2.100957 1_555
Nb4 O16 1.878486 1_555
Nb4 O33 1.973536 1_556
Nb4 O1 1.999609 1_555
Nb4 O7 2.018338 1_656
Nb4 O24 2.072368 1_555
Nb4 O23 2.196104 1_556
Nb5 O2 1.890242 1_555
Nb5 O25 1.928746 1_655
Nb5 O17 1.997199 1_555
Nb5 O21 2.033496 1_555
Nb5 O34 2.095360 1_555
Nb5 O8 2.150512 1_655
Nb6 O12 1.931777 1_545
Nb6 O11 1.991652 1_555
Nb6 O32 1.996099 1_555
Nb6 O28 2.010302 1_555
Nb6 O3 2.012250 1_555
Nb6 O18 2.100957 1_555
Nb7 O4 1.890242 1_555
Nb7 O30 1.928746 1_455
Nb7 O13 1.997199 1_555
Nb7 O19 2.033496 1_555
Nb7 O29 2.095360 1_555
Nb7 O9 2.150512 1_455
Nb8 O14 1.878486 1_555
Nb8 O27 1.973536 1_554
Nb8 O5 1.999609 1_555
Nb8 O10 2.018338 1_454
Nb8 O31 2.072368 1_555
Nb8 O20 2.196104 1_554
Nb9 O3 1.918751 1_555
Nb9 O15 1.938972 1_555
Nb9 O32 1.985778 1_655
Nb9 O29 2.016285 1_555
Nb9 O9 2.091095 1_555
Nb9 O21 2.143035 1_555
Nb10 O22 1.961971 1_555
Nb10 O10 1.978394 1_555
Nb10 O27 1.979965 1_555
Nb10 O16 2.030067 1_555
Nb10 O4 2.031236 1_555
Nb10 O30 2.037042 1_555
Nb11 O17 1.894172 1_555
Nb11 O28 1.953728 1_565
Nb11 O11 2.008604 1_665
Nb11 O5 2.011671 1_555
Nb11 O31 2.095423 1_655
Nb11 O23 2.159884 1_565
