# generated using pymatgen
data_Tl4SbAs3Se8
_symmetry_space_group_name_H-M   'P 1'
_cell_length_a   5.76219700
_cell_length_b   3.81463000
_cell_length_c   20.30159600
_cell_angle_alpha   90.00000000
_cell_angle_beta   90.00000000
_cell_angle_gamma   90.00000000
_symmetry_Int_Tables_number   1
_chemical_formula_structural   Tl4SbAs3Se8
_chemical_formula_sum   'Tl4 Sb1 As3 Se8'
_cell_volume   446.24226682
_cell_formula_units_Z   1
loop_
 _symmetry_equiv_pos_site_id
 _symmetry_equiv_pos_as_xyz
  1  'x, y, z'
loop_
 _atom_site_type_symbol
 _atom_site_label
 _atom_site_symmetry_multiplicity
 _atom_site_fract_x
 _atom_site_fract_y
 _atom_site_fract_z
 _atom_site_occupancy
  Tl  Tl0  1  0.50000000  0.50000000  0.00000000  1
  Tl  Tl1  1  0.00000000  0.50000000  0.25433800  1
  Tl  Tl2  1  0.50000000  0.50000000  0.50000000  1
  Tl  Tl3  1  0.00000000  0.50000000  0.74566200  1
  Sb  Sb0  1  0.00000000  0.00000000  0.00000000  1
  As  As0  1  0.50000000  0.00000000  0.25154800  1
  As  As1  1  0.00000000  0.00000000  0.50000000  1
  As  As2  1  0.50000000  0.00000000  0.74845200  1
  Se  Se0  1  0.50000000  0.50000000  0.15444200  1
  Se  Se1  1  0.00000000  0.50000000  0.40560000  1
  Se  Se2  1  0.50000000  0.50000000  0.65410300  1
  Se  Se3  1  0.00000000  0.50000000  0.89523200  1
  Se  Se4  1  0.00000000  0.50000000  0.10476800  1
  Se  Se5  1  0.50000000  0.50000000  0.34589700  1
  Se  Se6  1  0.00000000  0.50000000  0.59440000  1
  Se  Se7  1  0.50000000  0.50000000  0.84555800  1
loop_
_geom_bond_atom_site_label_1
_geom_bond_atom_site_label_2
_geom_bond_distance
_geom_bond_site_symmetry_2
Sb0 Se3 2.856886 1_554
Sb0 Se3 2.856886 1_544
Sb0 Se4 2.856886 1_555
Sb0 Se4 2.856886 1_545
Sb0 Tl0 3.455225 1_455
Sb0 Tl0 3.455225 1_445
Sb0 Tl0 3.455225 1_555
Sb0 Tl0 3.455225 1_545
As0 Se5 2.703099 1_545
As0 Se5 2.703099 1_555
As0 Se0 2.743045 1_555
As0 Se0 2.743045 1_545
As1 Se1 2.703833 1_545
As1 Se1 2.703833 1_555
As1 Se6 2.703833 1_555
As1 Se6 2.703833 1_545
As2 Se2 2.703099 1_545
As2 Se2 2.703099 1_555
As2 Se7 2.743045 1_545
As2 Se7 2.743045 1_555
Se0 Tl0 3.135419 1_555
Se1 Tl1 3.070860 1_555
Se2 Tl2 3.128537 1_555
Se3 Tl3 3.036510 1_555
Se4 Tl1 3.036510 1_555
Se5 Tl2 3.128537 1_555
Se6 Tl3 3.070860 1_555
Se7 Tl0 3.135419 1_556
