# generated using pymatgen
data_CoH9C3N7O2
_symmetry_space_group_name_H-M   'P 1'
_cell_length_a   14.45131000
_cell_length_b   6.48983700
_cell_length_c   10.59331298
_cell_angle_alpha   85.88954419
_cell_angle_beta   90.00000000
_cell_angle_gamma   90.00000000
_symmetry_Int_Tables_number   1
_chemical_formula_structural   CoH9C3N7O2
_chemical_formula_sum   'Co4 H36 C12 N28 O8'
_cell_volume   990.95570754
_cell_formula_units_Z   4
loop_
 _symmetry_equiv_pos_site_id
 _symmetry_equiv_pos_as_xyz
  1  'x, y, z'
loop_
 _atom_site_type_symbol
 _atom_site_label
 _atom_site_symmetry_multiplicity
 _atom_site_fract_x
 _atom_site_fract_y
 _atom_site_fract_z
 _atom_site_occupancy
  Co  Co0  1  0.75032100  0.47468000  0.74924700  1
  Co  Co1  1  0.25032100  0.02532000  0.25075300  1
  Co  Co2  1  0.24967900  0.52532000  0.25075300  1
  Co  Co3  1  0.74967900  0.97468000  0.74924700  1
  H  H0  1  0.98455100  0.34799800  0.76459800  1
  H  H1  1  0.48455100  0.15200200  0.23540200  1
  H  H2  1  0.01544900  0.65200200  0.23540200  1
  H  H3  1  0.51544900  0.84799800  0.76459800  1
  H  H4  1  0.00898200  0.09999500  0.79649000  1
  H  H5  1  0.50898200  0.40000500  0.20351000  1
  H  H6  1  0.99101800  0.90000500  0.20351000  1
  H  H7  1  0.49101800  0.59999500  0.79649000  1
  H  H8  1  0.00780900  0.72697300  0.74617800  1
  H  H9  1  0.50780900  0.77302700  0.25382200  1
  H  H10  1  0.99219100  0.27302700  0.25382200  1
  H  H11  1  0.49219100  0.22697300  0.74617800  1
  H  H12  1  0.14231600  0.44772900  0.80672200  1
  H  H13  1  0.64231600  0.05227100  0.19327800  1
  H  H14  1  0.85768400  0.55227100  0.19327800  1
  H  H15  1  0.35768400  0.94772900  0.80672200  1
  H  H16  1  0.09329300  0.29774000  0.93991500  1
  H  H17  1  0.59329300  0.20226000  0.06008500  1
  H  H18  1  0.90670700  0.70226000  0.06008500  1
  H  H19  1  0.40670700  0.79774000  0.93991500  1
  H  H20  1  0.17196100  0.18023700  0.83616200  1
  H  H21  1  0.67196100  0.31976300  0.16383800  1
  H  H22  1  0.82803900  0.81976300  0.16383800  1
  H  H23  1  0.32803900  0.68023700  0.83616200  1
  H  H24  1  0.11457100  0.09574000  0.62067800  1
  H  H25  1  0.61457100  0.40426000  0.37932200  1
  H  H26  1  0.88542900  0.90426000  0.37932200  1
  H  H27  1  0.38542900  0.59574000  0.62067800  1
  H  H28  1  0.00155000  0.18662700  0.57304000  1
  H  H29  1  0.50155000  0.31337300  0.42696000  1
  H  H30  1  0.99845000  0.81337300  0.42696000  1
  H  H31  1  0.49845000  0.68662700  0.57304000  1
  H  H32  1  0.09419600  0.36747800  0.58907800  1
  H  H33  1  0.59419600  0.13252200  0.41092200  1
  H  H34  1  0.90580400  0.63252200  0.41092200  1
  H  H35  1  0.40580400  0.86747800  0.58907800  1
  C  C0  1  0.93126100  0.72485200  0.75007900  1
  C  C1  1  0.43126100  0.77514800  0.24992100  1
  C  C2  1  0.06873900  0.27514800  0.24992100  1
  C  C3  1  0.56873900  0.22485200  0.75007900  1
  C  C4  1  0.11711600  0.29535600  0.84205300  1
  C  C5  1  0.61711600  0.20464400  0.15794700  1
  C  C6  1  0.88288400  0.70464400  0.15794700  1
  C  C7  1  0.38288400  0.79535600  0.84205300  1
  C  C8  1  0.06403600  0.22054000  0.62611300  1
  C  C9  1  0.56403600  0.27946000  0.37388700  1
  C  C10  1  0.93596400  0.77946000  0.37388700  1
  C  C11  1  0.43596400  0.72054000  0.62611300  1
  N  N0  1  0.76996700  0.24295600  0.61891200  1
  N  N1  1  0.26996700  0.25704400  0.38108800  1
  N  N2  1  0.23003300  0.75704400  0.38108800  1
  N  N3  1  0.73003300  0.74295600  0.61891200  1
  N  N4  1  0.80242700  0.25770600  0.51415100  1
  N  N5  1  0.30242700  0.24229400  0.48584900  1
  N  N6  1  0.19757300  0.74229400  0.48584900  1
  N  N7  1  0.69757300  0.75770600  0.51415100  1
  N  N8  1  0.83334200  0.27188400  0.41168700  1
  N  N9  1  0.33334200  0.22811600  0.58831300  1
  N  N10  1  0.16665800  0.72811600  0.58831300  1
  N  N11  1  0.66665800  0.77188400  0.41168700  1
  N  N12  1  0.77564000  0.20750300  0.87824900  1
  N  N13  1  0.27564000  0.29249700  0.12175100  1
  N  N14  1  0.22436000  0.79249700  0.12175100  1
  N  N15  1  0.72436000  0.70750300  0.87824900  1
  N  N16  1  0.83656800  0.19672200  0.95643200  1
  N  N17  1  0.33656800  0.30327800  0.04356800  1
  N  N18  1  0.16343200  0.80327800  0.04356800  1
  N  N19  1  0.66343200  0.69672200  0.95643200  1
  N  N20  1  0.89491400  0.18658200  0.03277200  1
  N  N21  1  0.39491400  0.31341800  0.96722800  1
  N  N22  1  0.10508600  0.81341800  0.96722800  1
  N  N23  1  0.60508600  0.68658200  0.03277200  1
  N  N24  1  0.03796600  0.23809700  0.76128600  1
  N  N25  1  0.53796600  0.26190300  0.23871400  1
  N  N26  1  0.96203400  0.76190300  0.23871400  1
  N  N27  1  0.46203400  0.73809700  0.76128600  1
  O  O0  1  0.89402700  0.54649600  0.75089600  1
  O  O1  1  0.39402700  0.95350400  0.24910400  1
  O  O2  1  0.10597300  0.45350400  0.24910400  1
  O  O3  1  0.60597300  0.04649600  0.75089600  1
  O  O4  1  0.89233700  0.89894800  0.75293800  1
  O  O5  1  0.39233700  0.60105200  0.24706200  1
  O  O6  1  0.10766300  0.10105200  0.24706200  1
  O  O7  1  0.60766300  0.39894800  0.75293800  1
loop_
_geom_bond_atom_site_label_1
_geom_bond_atom_site_label_2
_geom_bond_distance
_geom_bond_site_symmetry_2
Co0 O7 2.119082 1_555
Co0 O0 2.128743 1_555
Co0 N0 2.132161 1_555
Co0 N15 2.141803 1_555
Co0 N12 2.160601 1_555
Co0 N3 2.163085 1_555
Co1 O6 2.119082 1_555
Co1 O1 2.128743 1_545
Co1 N1 2.132161 1_555
Co1 N14 2.141803 1_545
Co1 N13 2.160601 1_555
Co1 N2 2.163085 1_545
Co2 O5 2.119082 1_555
Co2 O2 2.128743 1_555
Co2 N2 2.132161 1_555
Co2 N13 2.141803 1_555
Co2 N14 2.160601 1_555
Co2 N1 2.163085 1_555
Co3 O4 2.119082 1_555
Co3 O3 2.128743 1_565
Co3 N3 2.132161 1_555
Co3 N12 2.141803 1_565
Co3 N15 2.160601 1_555
Co3 N0 2.163085 1_565
H0 N24 1.053273 1_655
H1 N25 1.053273 1_555
H2 N26 1.053273 1_455
H3 N27 1.053273 1_555
H4 N24 1.034350 1_555
H5 N25 1.034350 1_555
H6 N26 1.034350 1_555
H7 N27 1.034350 1_555
C0 H8 1.107039 1_655
C0 O4 1.264438 1_555
C0 O0 1.275923 1_555
C1 H9 1.107039 1_555
C1 O5 1.264438 1_555
C1 O1 1.275923 1_555
C2 H10 1.107039 1_455
C2 O6 1.264438 1_555
C2 O2 1.275923 1_555
C3 H11 1.107039 1_555
C3 O7 1.264438 1_555
C3 O3 1.275923 1_555
C4 H16 1.093515 1_555
C4 H20 1.094042 1_555
C4 H12 1.094312 1_555
C4 N24 1.491318 1_555
C5 H17 1.093515 1_555
C5 H21 1.094042 1_555
C5 H13 1.094312 1_555
C5 N25 1.491318 1_555
C6 H18 1.093515 1_555
C6 H22 1.094042 1_555
C6 H14 1.094312 1_555
C6 N26 1.491318 1_555
C7 H19 1.093515 1_555
C7 H23 1.094042 1_555
C7 H15 1.094312 1_555
C7 N27 1.491318 1_555
C8 H28 1.094388 1_555
C8 H24 1.095136 1_555
C8 H32 1.095267 1_555
C8 N24 1.492894 1_555
C9 H29 1.094388 1_555
C9 H25 1.095136 1_555
C9 H33 1.095267 1_555
C9 N25 1.492894 1_555
C10 H30 1.094388 1_555
C10 H26 1.095136 1_555
C10 H34 1.095267 1_555
C10 N26 1.492894 1_555
C11 H31 1.094388 1_555
C11 H27 1.095136 1_555
C11 H35 1.095267 1_555
C11 N27 1.492894 1_555
N0 N4 1.202314 1_555
N1 N5 1.202314 1_555
N2 N6 1.202314 1_555
N3 N7 1.202314 1_555
N4 N8 1.171286 1_555
N5 N9 1.171286 1_555
N10 N6 1.171286 1_555
N11 N7 1.171286 1_555
N12 N16 1.207391 1_555
N13 N17 1.207391 1_555
N14 N18 1.207391 1_555
N15 N19 1.207391 1_555
N16 N20 1.166890 1_556
N17 N21 1.166890 1_554
N18 N22 1.166890 1_554
N19 N23 1.166890 1_556
