# generated using pymatgen
data_In4P6Pb2O23
_symmetry_space_group_name_H-M   'P 1'
_cell_length_a   6.67492500
_cell_length_b   8.38347510
_cell_length_c   9.13795555
_cell_angle_alpha   100.19069408
_cell_angle_beta   103.72341873
_cell_angle_gamma   103.97882660
_symmetry_Int_Tables_number   1
_chemical_formula_structural   In4P6Pb2O23
_chemical_formula_sum   'In4 P6 Pb2 O23'
_cell_volume   466.92466168
_cell_formula_units_Z   1
loop_
 _symmetry_equiv_pos_site_id
 _symmetry_equiv_pos_as_xyz
  1  'x, y, z'
loop_
 _atom_site_type_symbol
 _atom_site_label
 _atom_site_symmetry_multiplicity
 _atom_site_fract_x
 _atom_site_fract_y
 _atom_site_fract_z
 _atom_site_occupancy
  In  In0  1  0.97301800  0.78822900  0.05056100  1
  In  In1  1  0.02624800  0.21213000  0.94834000  1
  In  In2  1  0.77325200  0.17879400  0.42657600  1
  In  In3  1  0.22691200  0.82019000  0.57357500  1
  P  P0  1  0.98895700  0.50994600  0.74004400  1
  P  P1  1  0.01193600  0.49016200  0.25997800  1
  P  P2  1  0.52315900  0.85901600  0.09161500  1
  P  P3  1  0.48904300  0.14525200  0.91220100  1
  P  P4  1  0.78362000  0.89590700  0.65714000  1
  P  P5  1  0.21643800  0.10387600  0.34280000  1
  Pb  Pb0  1  0.46465400  0.50710800  0.72682700  1
  Pb  Pb1  1  0.53648700  0.49261800  0.27382300  1
  O  O0  1  0.09823400  0.38600100  0.80987700  1
  O  O1  1  0.90414800  0.61463500  0.19051000  1
  O  O2  1  0.81379300  0.41927700  0.58385300  1
  O  O3  1  0.18702300  0.58030300  0.41615200  1
  O  O4  1  0.29058500  0.76750700  0.07596500  1
  O  O5  1  0.71095500  0.25095400  0.91396500  1
  O  O6  1  0.92058400  0.94980600  0.83637000  1
  O  O7  1  0.07891800  0.05044700  0.16407700  1
  O  O8  1  0.62078200  0.73678500  0.00257700  1
  O  O9  1  0.38047800  0.25735600  0.00148900  1
  O  O10  1  0.55600800  0.77585800  0.64292700  1
  O  O11  1  0.44454300  0.22373500  0.35702000  1
  O  O12  1  0.86861300  0.59316900  0.84334000  1
  O  O13  1  0.13235800  0.40717800  0.15622100  1
  O  O14  1  0.18432100  0.64761700  0.72723100  1
  O  O15  1  0.81622200  0.35224800  0.27255300  1
  O  O16  1  0.75776700  0.05954000  0.61219400  1
  O  O17  1  0.24284400  0.94071800  0.38863300  1
  O  O18  1  0.66548200  0.93562500  0.25924900  1
  O  O19  1  0.33794200  0.05312200  0.75054900  1
  O  O20  1  0.89091000  0.79785600  0.55644700  1
  O  O21  1  0.10984900  0.20240900  0.44389900  1
  O  O22  1  0.53391500  0.01062900  0.00842300  1
loop_
_geom_bond_atom_site_label_1
_geom_bond_atom_site_label_2
_geom_bond_distance
_geom_bond_site_symmetry_2
In0 O12 2.114953 1_554
In0 O7 2.121947 1_665
In0 O4 2.129801 1_655
In0 O1 2.139864 1_555
In0 O8 2.204590 1_555
In0 O6 2.574964 1_554
In1 O13 2.118239 1_556
In1 O6 2.119616 1_445
In1 O0 2.135228 1_555
In1 O5 2.164999 1_455
In1 O9 2.219721 1_556
In1 O7 2.587317 1_556
In2 O16 2.126148 1_555
In2 O18 2.162855 1_545
In2 O21 2.171969 1_655
In2 O2 2.174845 1_555
In2 O15 2.211783 1_555
In2 O11 2.276506 1_555
In3 O17 2.127436 1_555
In3 O19 2.143025 1_565
In3 O20 2.170219 1_455
In3 O3 2.172694 1_555
In3 O14 2.203392 1_555
In3 O10 2.276501 1_555
O0 P0 1.548845 1_455
O0 Pb0 2.746353 1_555
O1 P1 1.545949 1_655
O1 Pb1 2.756417 1_555
O2 P0 1.541711 1_555
O3 P1 1.540752 1_555
O4 P2 1.516391 1_555
O5 P3 1.526130 1_555
O6 P4 1.597022 1_555
O7 P5 1.594261 1_555
O8 P2 1.554282 1_555
O8 Pb0 2.685274 1_554
O9 P3 1.553172 1_554
O9 Pb1 2.684920 1_555
O10 P4 1.568251 1_555
O10 Pb0 2.491021 1_555
O11 P5 1.570225 1_555
O11 Pb1 2.489045 1_555
O12 P0 1.555803 1_555
O12 Pb0 2.520088 1_555
O13 P1 1.558014 1_555
O13 Pb1 2.522555 1_555
O14 P0 1.561870 1_455
O14 Pb0 2.440415 1_555
O15 P1 1.563690 1_655
O15 Pb1 2.436897 1_555
O16 P4 1.536374 1_545
O17 P5 1.536751 1_565
O18 P2 1.525819 1_555
O19 P3 1.519496 1_555
O20 P4 1.537737 1_555
O21 P5 1.538764 1_555
O22 P2 1.588186 1_545
O22 P3 1.589368 1_554
