# generated using pymatgen
data_AlH4NF4
_symmetry_space_group_name_H-M   'P 1'
_cell_length_a   11.75845351
_cell_length_b   11.75845351
_cell_length_c   12.91850824
_cell_angle_alpha   90.00000000
_cell_angle_beta   90.00000000
_cell_angle_gamma   90.00000000
_symmetry_Int_Tables_number   1
_chemical_formula_structural   AlH4NF4
_chemical_formula_sum   'Al20 H80 N20 F80'
_cell_volume   1786.12882542
_cell_formula_units_Z   20
loop_
 _symmetry_equiv_pos_site_id
 _symmetry_equiv_pos_as_xyz
  1  'x, y, z'
loop_
 _atom_site_type_symbol
 _atom_site_label
 _atom_site_symmetry_multiplicity
 _atom_site_fract_x
 _atom_site_fract_y
 _atom_site_fract_z
 _atom_site_occupancy
  Al  Al0  1  0.25000000  0.25000000  0.74646938  1
  Al  Al1  1  0.25000000  0.25000000  0.24646938  1
  Al  Al2  1  0.75000000  0.75000000  0.25353062  1
  Al  Al3  1  0.75000000  0.75000000  0.75353062  1
  Al  Al4  1  0.17450913  0.54279981  0.75326647  1
  Al  Al5  1  0.17450913  0.95720019  0.25326647  1
  Al  Al6  1  0.32549087  0.54279981  0.25326647  1
  Al  Al7  1  0.32549087  0.95720019  0.75326647  1
  Al  Al8  1  0.54279981  0.17450913  0.75326647  1
  Al  Al9  1  0.95720019  0.17450913  0.25326647  1
  Al  Al10  1  0.54279981  0.32549087  0.25326647  1
  Al  Al11  1  0.95720019  0.32549087  0.75326647  1
  Al  Al12  1  0.82549087  0.45720019  0.24673353  1
  Al  Al13  1  0.82549087  0.04279981  0.74673353  1
  Al  Al14  1  0.67450913  0.45720019  0.74673353  1
  Al  Al15  1  0.67450913  0.04279981  0.24673353  1
  Al  Al16  1  0.45720019  0.82549087  0.24673353  1
  Al  Al17  1  0.04279981  0.82549087  0.74673353  1
  Al  Al18  1  0.45720019  0.67450913  0.74673353  1
  Al  Al19  1  0.04279981  0.67450913  0.24673353  1
  H  H0  1  0.13412459  0.46713947  0.99740414  1
  H  H1  1  0.13412459  0.03286053  0.49740414  1
  H  H2  1  0.36587541  0.46713947  0.49740414  1
  H  H3  1  0.36587541  0.03286053  0.99740414  1
  H  H4  1  0.46713947  0.13412459  0.99740414  1
  H  H5  1  0.03286053  0.13412459  0.49740414  1
  H  H6  1  0.46713947  0.36587541  0.49740414  1
  H  H7  1  0.03286053  0.36587541  0.99740414  1
  H  H8  1  0.86587541  0.53286053  0.00259586  1
  H  H9  1  0.86587541  0.96713947  0.50259586  1
  H  H10  1  0.63412459  0.53286053  0.50259586  1
  H  H11  1  0.63412459  0.96713947  0.00259586  1
  H  H12  1  0.53286053  0.86587541  0.00259586  1
  H  H13  1  0.96713947  0.86587541  0.50259586  1
  H  H14  1  0.53286053  0.63412459  0.50259586  1
  H  H15  1  0.96713947  0.63412459  0.00259586  1
  H  H16  1  0.05826130  0.44173870  0.10796780  1
  H  H17  1  0.05826130  0.05826130  0.60796780  1
  H  H18  1  0.44173870  0.44173870  0.60796780  1
  H  H19  1  0.44173870  0.05826130  0.10796780  1
  H  H20  1  0.94173870  0.55826130  0.89203220  1
  H  H21  1  0.94173870  0.94173870  0.39203220  1
  H  H22  1  0.55826130  0.55826130  0.39203220  1
  H  H23  1  0.55826130  0.94173870  0.89203220  1
  H  H24  1  0.15436867  0.34563133  0.06553365  1
  H  H25  1  0.15436867  0.15436867  0.56553365  1
  H  H26  1  0.34563133  0.34563133  0.56553365  1
  H  H27  1  0.34563133  0.15436867  0.06553365  1
  H  H28  1  0.84563133  0.65436867  0.93446635  1
  H  H29  1  0.84563133  0.84563133  0.43446635  1
  H  H30  1  0.65436867  0.65436867  0.43446635  1
  H  H31  1  0.65436867  0.84563133  0.93446635  1
  H  H32  1  0.11158897  0.01065273  0.91616127  1
  H  H33  1  0.11158897  0.48934727  0.41616127  1
  H  H34  1  0.38841103  0.01065273  0.41616127  1
  H  H35  1  0.38841103  0.48934727  0.91616127  1
  H  H36  1  0.01065273  0.11158897  0.91616127  1
  H  H37  1  0.48934727  0.11158897  0.41616127  1
  H  H38  1  0.01065273  0.38841103  0.41616127  1
  H  H39  1  0.48934727  0.38841103  0.91616127  1
  H  H40  1  0.88841103  0.98934727  0.08383873  1
  H  H41  1  0.88841103  0.51065273  0.58383873  1
  H  H42  1  0.61158897  0.98934727  0.58383873  1
  H  H43  1  0.61158897  0.51065273  0.08383873  1
  H  H44  1  0.98934727  0.88841103  0.08383873  1
  H  H45  1  0.51065273  0.88841103  0.58383873  1
  H  H46  1  0.98934727  0.61158897  0.58383873  1
  H  H47  1  0.51065273  0.61158897  0.08383873  1
  H  H48  1  0.15002285  0.15002285  0.92218707  1
  H  H49  1  0.15002285  0.34997715  0.42218707  1
  H  H50  1  0.34997715  0.15002285  0.42218707  1
  H  H51  1  0.34997715  0.34997715  0.92218707  1
  H  H52  1  0.84997715  0.84997715  0.07781293  1
  H  H53  1  0.84997715  0.65002285  0.57781293  1
  H  H54  1  0.65002285  0.84997715  0.57781293  1
  H  H55  1  0.65002285  0.65002285  0.07781293  1
  H  H56  1  0.08577928  0.08577928  0.02394678  1
  H  H57  1  0.08577928  0.41422072  0.52394678  1
  H  H58  1  0.41422072  0.08577928  0.52394678  1
  H  H59  1  0.41422072  0.41422072  0.02394678  1
  H  H60  1  0.91422072  0.91422072  0.97605322  1
  H  H61  1  0.91422072  0.58577928  0.47605322  1
  H  H62  1  0.58577928  0.91422072  0.47605322  1
  H  H63  1  0.58577928  0.58577928  0.97605322  1
  H  H64  1  0.24887585  0.67773190  0.95428282  1
  H  H65  1  0.24887585  0.82226810  0.45428282  1
  H  H66  1  0.25112415  0.67773190  0.45428282  1
  H  H67  1  0.25112415  0.82226810  0.95428282  1
  H  H68  1  0.67773190  0.24887585  0.95428282  1
  H  H69  1  0.82226810  0.24887585  0.45428282  1
  H  H70  1  0.67773190  0.25112415  0.45428282  1
  H  H71  1  0.82226810  0.25112415  0.95428282  1
  H  H72  1  0.75112415  0.32226810  0.04571718  1
  H  H73  1  0.75112415  0.17773190  0.54571718  1
  H  H74  1  0.74887585  0.32226810  0.54571718  1
  H  H75  1  0.74887585  0.17773190  0.04571718  1
  H  H76  1  0.32226810  0.75112415  0.04571718  1
  H  H77  1  0.17773190  0.75112415  0.54571718  1
  H  H78  1  0.32226810  0.74887585  0.54571718  1
  H  H79  1  0.17773190  0.74887585  0.04571718  1
  N  N0  1  0.09403000  0.40597000  0.04285346  1
  N  N1  1  0.09403000  0.09403000  0.54285346  1
  N  N2  1  0.40597000  0.40597000  0.54285346  1
  N  N3  1  0.40597000  0.09403000  0.04285346  1
  N  N4  1  0.90597000  0.59403000  0.95714654  1
  N  N5  1  0.90597000  0.90597000  0.45714654  1
  N  N6  1  0.59403000  0.59403000  0.45714654  1
  N  N7  1  0.59403000  0.90597000  0.95714654  1
  N  N8  1  0.08985697  0.08985697  0.94408917  1
  N  N9  1  0.08985697  0.41014303  0.44408917  1
  N  N10  1  0.41014303  0.08985697  0.44408917  1
  N  N11  1  0.41014303  0.41014303  0.94408917  1
  N  N12  1  0.91014303  0.91014303  0.05591083  1
  N  N13  1  0.91014303  0.58985697  0.55591083  1
  N  N14  1  0.58985697  0.91014303  0.55591083  1
  N  N15  1  0.58985697  0.58985697  0.05591083  1
  N  N16  1  0.25000000  0.75000000  -0.00000000  1
  N  N17  1  0.25000000  0.75000000  0.50000000  1
  N  N18  1  0.75000000  0.25000000  -0.00000000  1
  N  N19  1  0.75000000  0.25000000  0.50000000  1
  F  F0  1  0.25000000  0.25000000  0.60698681  1
  F  F1  1  0.25000000  0.25000000  0.10698681  1
  F  F2  1  0.75000000  0.75000000  0.39301319  1
  F  F3  1  0.75000000  0.75000000  0.89301319  1
  F  F4  1  0.25000000  0.25000000  0.88530687  1
  F  F5  1  0.25000000  0.25000000  0.38530687  1
  F  F6  1  0.75000000  0.75000000  0.11469313  1
  F  F7  1  0.75000000  0.75000000  0.61469313  1
  F  F8  1  0.03372370  0.46627630  0.77570066  1
  F  F9  1  0.03372370  0.03372370  0.27570066  1
  F  F10  1  0.46627630  0.46627630  0.27570066  1
  F  F11  1  0.46627630  0.03372370  0.77570066  1
  F  F12  1  0.96627630  0.53372370  0.22429934  1
  F  F13  1  0.96627630  0.96627630  0.72429934  1
  F  F14  1  0.53372370  0.53372370  0.72429934  1
  F  F15  1  0.53372370  0.96627630  0.22429934  1
  F  F16  1  0.14910326  0.54289426  0.61855478  1
  F  F17  1  0.14910326  0.95710574  0.11855478  1
  F  F18  1  0.35089674  0.54289426  0.11855478  1
  F  F19  1  0.35089674  0.95710574  0.61855478  1
  F  F20  1  0.54289426  0.14910326  0.61855478  1
  F  F21  1  0.95710574  0.14910326  0.11855478  1
  F  F22  1  0.54289426  0.35089674  0.11855478  1
  F  F23  1  0.95710574  0.35089674  0.61855478  1
  F  F24  1  0.85089674  0.45710574  0.38144522  1
  F  F25  1  0.85089674  0.04289426  0.88144522  1
  F  F26  1  0.64910326  0.45710574  0.88144522  1
  F  F27  1  0.64910326  0.04289426  0.38144522  1
  F  F28  1  0.45710574  0.85089674  0.38144522  1
  F  F29  1  0.04289426  0.85089674  0.88144522  1
  F  F30  1  0.45710574  0.64910326  0.88144522  1
  F  F31  1  0.04289426  0.64910326  0.38144522  1
  F  F32  1  0.10821327  0.68340904  0.76498184  1
  F  F33  1  0.10821327  0.81659096  0.26498184  1
  F  F34  1  0.39178673  0.68340904  0.26498184  1
  F  F35  1  0.39178673  0.81659096  0.76498184  1
  F  F36  1  0.68340904  0.10821327  0.76498184  1
  F  F37  1  0.81659096  0.10821327  0.26498184  1
  F  F38  1  0.68340904  0.39178673  0.26498184  1
  F  F39  1  0.81659096  0.39178673  0.76498184  1
  F  F40  1  0.89178673  0.31659096  0.23501816  1
  F  F41  1  0.89178673  0.18340904  0.73501816  1
  F  F42  1  0.60821327  0.31659096  0.73501816  1
  F  F43  1  0.60821327  0.18340904  0.23501816  1
  F  F44  1  0.31659096  0.89178673  0.23501816  1
  F  F45  1  0.18340904  0.89178673  0.73501816  1
  F  F46  1  0.31659096  0.60821327  0.73501816  1
  F  F47  1  0.18340904  0.60821327  0.23501816  1
  F  F48  1  0.25114336  0.40542487  0.74575118  1
  F  F49  1  0.25114336  0.09457513  0.24575118  1
  F  F50  1  0.24885664  0.40542487  0.24575118  1
  F  F51  1  0.24885664  0.09457513  0.74575118  1
  F  F52  1  0.40542487  0.25114336  0.74575118  1
  F  F53  1  0.09457513  0.25114336  0.24575118  1
  F  F54  1  0.40542487  0.24885664  0.24575118  1
  F  F55  1  0.09457513  0.24885664  0.74575118  1
  F  F56  1  0.74885664  0.59457513  0.25424882  1
  F  F57  1  0.74885664  0.90542487  0.75424882  1
  F  F58  1  0.75114336  0.59457513  0.75424882  1
  F  F59  1  0.75114336  0.90542487  0.25424882  1
  F  F60  1  0.59457513  0.74885664  0.25424882  1
  F  F61  1  0.90542487  0.74885664  0.75424882  1
  F  F62  1  0.59457513  0.75114336  0.75424882  1
  F  F63  1  0.90542487  0.75114336  0.25424882  1
  F  F64  1  0.19423508  0.54372005  0.89215480  1
  F  F65  1  0.19423508  0.95627995  0.39215480  1
  F  F66  1  0.30576492  0.54372005  0.39215480  1
  F  F67  1  0.30576492  0.95627995  0.89215480  1
  F  F68  1  0.54372005  0.19423508  0.89215480  1
  F  F69  1  0.95627995  0.19423508  0.39215480  1
  F  F70  1  0.54372005  0.30576492  0.39215480  1
  F  F71  1  0.95627995  0.30576492  0.89215480  1
  F  F72  1  0.80576492  0.45627995  0.10784520  1
  F  F73  1  0.80576492  0.04372005  0.60784520  1
  F  F74  1  0.69423508  0.45627995  0.60784520  1
  F  F75  1  0.69423508  0.04372005  0.10784520  1
  F  F76  1  0.45627995  0.80576492  0.10784520  1
  F  F77  1  0.04372005  0.80576492  0.60784520  1
  F  F78  1  0.45627995  0.69423508  0.60784520  1
  F  F79  1  0.04372005  0.69423508  0.10784520  1
loop_
_geom_bond_atom_site_label_1
_geom_bond_atom_site_label_2
_geom_bond_distance
_geom_bond_site_symmetry_2
Al0 F4 1.793573 1_555
Al0 F0 1.801907 1_555
Al0 F48 1.827629 1_555
Al0 F52 1.827629 1_555
Al0 F51 1.827629 1_555
Al0 F55 1.827629 1_555
Al1 F5 1.793573 1_555
Al1 F1 1.801907 1_555
Al1 F49 1.827629 1_555
Al1 F50 1.827629 1_555
Al1 F54 1.827629 1_555
Al1 F53 1.827629 1_555
Al2 F6 1.793573 1_555
Al2 F2 1.801907 1_555
Al2 F60 1.827629 1_555
Al2 F56 1.827629 1_555
Al2 F59 1.827629 1_555
Al2 F63 1.827629 1_555
Al3 F7 1.793573 1_555
Al3 F3 1.801907 1_555
Al3 F61 1.827629 1_555
Al3 F58 1.827629 1_555
Al3 F62 1.827629 1_555
Al3 F57 1.827629 1_555
Al4 F16 1.765728 1_555
Al4 F64 1.809193 1_555
Al4 F32 1.834159 1_555
Al4 F48 1.852203 1_555
Al4 F46 1.854264 1_555
Al4 F8 1.906316 1_555
Al5 F17 1.765728 1_555
Al5 F65 1.809193 1_555
Al5 F33 1.834159 1_555
Al5 F49 1.852203 1_565
Al5 F44 1.854264 1_555
Al5 F9 1.906316 1_565
Al6 F18 1.765728 1_555
Al6 F66 1.809193 1_555
Al6 F34 1.834159 1_555
Al6 F50 1.852203 1_555
Al6 F47 1.854264 1_555
Al6 F10 1.906316 1_555
Al7 F19 1.765728 1_555
Al7 F67 1.809193 1_555
Al7 F35 1.834159 1_555
Al7 F51 1.852203 1_565
Al7 F45 1.854264 1_555
Al7 F11 1.906316 1_565
Al8 F20 1.765728 1_555
Al8 F68 1.809193 1_555
Al8 F36 1.834159 1_555
Al8 F52 1.852203 1_555
Al8 F42 1.854264 1_555
Al8 F11 1.906316 1_555
Al9 F21 1.765728 1_555
Al9 F69 1.809193 1_555
Al9 F37 1.834159 1_555
Al9 F53 1.852203 1_655
Al9 F40 1.854264 1_555
Al9 F9 1.906316 1_655
Al10 F22 1.765728 1_555
Al10 F70 1.809193 1_555
Al10 F38 1.834159 1_555
Al10 F54 1.852203 1_555
Al10 F43 1.854264 1_555
Al10 F10 1.906316 1_555
Al11 F23 1.765728 1_555
Al11 F71 1.809193 1_555
Al11 F39 1.834159 1_555
Al11 F55 1.852203 1_655
Al11 F41 1.854264 1_555
Al11 F8 1.906316 1_655
Al12 F24 1.765728 1_555
Al12 F72 1.809193 1_555
Al12 F40 1.834159 1_555
Al12 F56 1.852203 1_555
Al12 F38 1.854264 1_555
Al12 F12 1.906316 1_555
Al13 F25 1.765728 1_555
Al13 F73 1.809193 1_555
Al13 F41 1.834159 1_555
Al13 F57 1.852203 1_545
Al13 F36 1.854264 1_555
Al13 F13 1.906316 1_545
Al14 F26 1.765728 1_555
Al14 F74 1.809193 1_555
Al14 F42 1.834159 1_555
Al14 F58 1.852203 1_555
Al14 F39 1.854264 1_555
Al14 F14 1.906316 1_555
Al15 F27 1.765728 1_555
Al15 F75 1.809193 1_555
Al15 F43 1.834159 1_555
Al15 F59 1.852203 1_545
Al15 F37 1.854264 1_555
Al15 F15 1.906316 1_545
Al16 F28 1.765728 1_555
Al16 F76 1.809193 1_555
Al16 F44 1.834159 1_555
Al16 F60 1.852203 1_555
Al16 F34 1.854264 1_555
Al16 F15 1.906316 1_555
Al17 F29 1.765728 1_555
Al17 F77 1.809193 1_555
Al17 F45 1.834159 1_555
Al17 F61 1.852203 1_455
Al17 F32 1.854264 1_555
Al17 F13 1.906316 1_455
Al18 F30 1.765728 1_555
Al18 F78 1.809193 1_555
Al18 F46 1.834159 1_555
Al18 F62 1.852203 1_555
Al18 F35 1.854264 1_555
Al18 F14 1.906316 1_555
Al19 F31 1.765728 1_555
Al19 F79 1.809193 1_555
Al19 F47 1.834159 1_555
Al19 F63 1.852203 1_455
Al19 F33 1.854264 1_555
Al19 F12 1.906316 1_455
H0 N0 1.041311 1_556
H1 N1 1.041311 1_555
H2 N2 1.041311 1_555
H3 N3 1.041311 1_556
H4 N3 1.041311 1_556
H5 N1 1.041311 1_555
H6 N2 1.041311 1_555
H7 N0 1.041311 1_556
H8 N4 1.041311 1_554
H9 N5 1.041311 1_555
H10 N6 1.041311 1_555
H11 N7 1.041311 1_554
H12 N7 1.041311 1_554
H13 N5 1.041311 1_555
H14 N6 1.041311 1_555
H15 N4 1.041311 1_554
H16 N0 1.030227 1_555
H17 N1 1.030227 1_555
H18 N2 1.030227 1_555
H19 N3 1.030227 1_555
H20 N4 1.030227 1_555
H21 N5 1.030227 1_555
H22 N6 1.030227 1_555
H23 N7 1.030227 1_555
H24 N0 1.045273 1_555
H25 N1 1.045273 1_555
H26 N2 1.045273 1_555
H27 N3 1.045273 1_555
H28 N4 1.045273 1_555
H29 N5 1.045273 1_555
H30 N6 1.045273 1_555
H31 N7 1.045273 1_555
H32 N8 1.030932 1_555
H33 N9 1.030932 1_555
H34 N10 1.030932 1_555
H35 N11 1.030932 1_555
H36 N8 1.030932 1_555
H37 N10 1.030932 1_555
H38 N9 1.030932 1_555
H39 N11 1.030932 1_555
H40 N12 1.030932 1_555
H41 N13 1.030932 1_555
H42 N14 1.030932 1_555
H43 N15 1.030932 1_555
H44 N12 1.030932 1_555
H45 N14 1.030932 1_555
H46 N13 1.030932 1_555
H47 N15 1.030932 1_555
H48 N8 1.039735 1_555
H49 N9 1.039735 1_555
H50 N10 1.039735 1_555
H51 N11 1.039735 1_555
H52 N12 1.039735 1_555
H53 N13 1.039735 1_555
H54 N14 1.039735 1_555
H55 N15 1.039735 1_555
H56 N8 1.033867 1_554
H57 N9 1.033867 1_555
H58 N10 1.033867 1_555
H59 N11 1.033867 1_554
H60 N12 1.033867 1_556
H61 N13 1.033867 1_555
H62 N14 1.033867 1_555
H63 N15 1.033867 1_556
H64 N16 1.034927 1_556
H65 N17 1.034927 1_555
H66 N17 1.034927 1_555
H67 N16 1.034927 1_556
H68 N18 1.034927 1_556
H69 N19 1.034927 1_555
H70 N19 1.034927 1_555
H71 N18 1.034927 1_556
H72 N18 1.034927 1_555
H73 N19 1.034927 1_555
H74 N19 1.034927 1_555
H75 N18 1.034927 1_555
H76 N16 1.034927 1_555
H77 N17 1.034927 1_555
H78 N17 1.034927 1_555
H79 N16 1.034927 1_555
