# generated using pymatgen
data_BaC2
_symmetry_space_group_name_H-M   'P 1'
_cell_length_a   5.55938100
_cell_length_b   7.76041900
_cell_length_c   9.78491000
_cell_angle_alpha   90.00000000
_cell_angle_beta   90.00000000
_cell_angle_gamma   90.00000000
_symmetry_Int_Tables_number   1
_chemical_formula_structural   BaC2
_chemical_formula_sum   'Ba8 C16'
_cell_volume   422.15160445
_cell_formula_units_Z   8
loop_
 _symmetry_equiv_pos_site_id
 _symmetry_equiv_pos_as_xyz
  1  'x, y, z'
loop_
 _atom_site_type_symbol
 _atom_site_label
 _atom_site_symmetry_multiplicity
 _atom_site_fract_x
 _atom_site_fract_y
 _atom_site_fract_z
 _atom_site_occupancy
  Ba  Ba0  1  0.25000000  0.00426500  0.32005000  1
  Ba  Ba1  1  0.25000000  0.50426500  0.17995000  1
  Ba  Ba2  1  0.75000000  0.99573500  0.67995000  1
  Ba  Ba3  1  0.75000000  0.49573500  0.82005000  1
  Ba  Ba4  1  0.25000000  0.85480100  0.90248600  1
  Ba  Ba5  1  0.25000000  0.35480100  0.59751400  1
  Ba  Ba6  1  0.75000000  0.14519900  0.09751400  1
  Ba  Ba7  1  0.75000000  0.64519900  0.40248600  1
  C  C0  1  0.25000000  0.37260500  0.90854700  1
  C  C1  1  0.25000000  0.87260500  0.59145300  1
  C  C2  1  0.75000000  0.62739500  0.09145300  1
  C  C3  1  0.75000000  0.12739500  0.40854700  1
  C  C4  1  0.25000000  0.21046500  0.00275800  1
  C  C5  1  0.25000000  0.71046500  0.49724200  1
  C  C6  1  0.75000000  0.78953500  0.99724200  1
  C  C7  1  0.75000000  0.28953500  0.50275800  1
  C  C8  1  0.10865800  0.20759500  0.86438500  1
  C  C9  1  0.39134200  0.70759500  0.63561500  1
  C  C10  1  0.60865800  0.79240500  0.13561500  1
  C  C11  1  0.89134200  0.29240500  0.36438500  1
  C  C12  1  0.89134200  0.79240500  0.13561500  1
  C  C13  1  0.60865800  0.29240500  0.36438500  1
  C  C14  1  0.39134200  0.20759500  0.86438500  1
  C  C15  1  0.10865800  0.70759500  0.63561500  1
loop_
_geom_bond_atom_site_label_1
_geom_bond_atom_site_label_2
_geom_bond_distance
_geom_bond_site_symmetry_2
Ba0 C1 2.845425 1_545
Ba0 C5 2.864357 1_545
Ba0 C13 3.027207 1_555
Ba0 C11 3.027207 1_455
Ba0 C3 3.064242 1_455
Ba0 C3 3.064242 1_555
Ba0 C10 3.152096 1_545
Ba0 C12 3.152096 1_445
Ba0 C4 3.492797 1_555
Ba1 C0 2.845425 1_554
Ba1 C4 2.864357 1_555
Ba1 C10 3.027207 1_555
Ba1 C12 3.027207 1_455
Ba1 C2 3.064242 1_455
Ba1 C2 3.064242 1_555
Ba1 C13 3.152096 1_555
Ba1 C11 3.152096 1_455
Ba1 C5 3.492797 1_555
Ba2 C3 2.845425 1_565
Ba2 C7 2.864357 1_565
Ba2 C15 3.027207 1_655
Ba2 C9 3.027207 1_555
Ba2 C1 3.064242 1_555
Ba2 C1 3.064242 1_655
Ba2 C8 3.152096 1_665
Ba2 C14 3.152096 1_565
Ba2 C6 3.492797 1_555
Ba3 C2 2.845425 1_556
Ba3 C6 2.864357 1_555
Ba3 C8 3.027207 1_655
Ba3 C14 3.027207 1_555
Ba3 C0 3.064242 1_555
Ba3 C0 3.064242 1_655
Ba3 C15 3.152096 1_655
Ba3 C9 3.152096 1_555
Ba3 C7 3.492797 1_555
Ba4 C14 2.872654 1_565
Ba4 C8 2.872654 1_565
Ba4 C4 2.929304 1_566
Ba4 C9 2.956587 1_555
Ba4 C15 2.956587 1_555
Ba4 C6 2.973697 1_555
Ba4 C6 2.973697 1_455
Ba4 C1 3.046565 1_555
Ba4 C10 3.068192 1_556
Ba4 C12 3.068192 1_456
Ba5 C9 2.872654 1_555
Ba5 C15 2.872654 1_555
Ba5 C5 2.929304 1_555
Ba5 C14 2.956587 1_555
Ba5 C8 2.956587 1_555
Ba5 C7 2.973697 1_455
Ba5 C7 2.973697 1_555
Ba5 C0 3.046565 1_555
Ba5 C13 3.068192 1_555
Ba5 C11 3.068192 1_455
Ba6 C12 2.872654 1_545
Ba6 C10 2.872654 1_545
Ba6 C6 2.929304 1_544
Ba6 C11 2.956587 1_555
Ba6 C13 2.956587 1_555
Ba6 C4 2.973697 1_655
Ba6 C4 2.973697 1_555
Ba6 C3 3.046565 1_555
Ba6 C8 3.068192 1_654
Ba6 C14 3.068192 1_554
Ba7 C11 2.872654 1_555
Ba7 C13 2.872654 1_555
Ba7 C7 2.929304 1_555
Ba7 C12 2.956587 1_555
Ba7 C10 2.956587 1_555
Ba7 C5 2.973697 1_555
Ba7 C5 2.973697 1_655
Ba7 C2 3.046565 1_555
Ba7 C15 3.068192 1_655
Ba7 C9 3.068192 1_555
C0 C4 1.559825 1_556
C0 C14 1.563320 1_555
C0 C8 1.563320 1_555
C1 C5 1.559825 1_555
C1 C9 1.563320 1_555
C1 C15 1.563320 1_555
C2 C6 1.559825 1_554
C3 C7 1.559825 1_555
C4 C8 1.565620 1_554
C5 C9 1.565620 1_555
C10 C2 1.563320 1_555
C10 C6 1.565620 1_554
C10 C12 1.571548 1_555
C11 C3 1.563320 1_555
C11 C7 1.565620 1_555
C11 C13 1.571548 1_555
C12 C2 1.563320 1_555
C12 C6 1.565620 1_554
C13 C3 1.563320 1_555
C13 C7 1.565620 1_555
C14 C4 1.565620 1_556
C14 C8 1.571548 1_555
C15 C5 1.565620 1_555
C15 C9 1.571548 1_555
