# generated using pymatgen
data_CaMnSi2O7
_symmetry_space_group_name_H-M   'P 1'
_cell_length_a   9.48764662
_cell_length_b   9.48764662
_cell_length_c   10.09577570
_cell_angle_alpha   57.90804132
_cell_angle_beta   57.90804132
_cell_angle_gamma   47.64224301
_symmetry_Int_Tables_number   1
_chemical_formula_structural   CaMnSi2O7
_chemical_formula_sum   'Ca4 Mn4 Si8 O28'
_cell_volume   546.68839749
_cell_formula_units_Z   4
loop_
 _symmetry_equiv_pos_site_id
 _symmetry_equiv_pos_as_xyz
  1  'x, y, z'
loop_
 _atom_site_type_symbol
 _atom_site_label
 _atom_site_symmetry_multiplicity
 _atom_site_fract_x
 _atom_site_fract_y
 _atom_site_fract_z
 _atom_site_occupancy
  Ca  Ca0  1  0.15469000  0.24167100  0.06763000  1
  Ca  Ca1  1  0.75832900  0.84531000  0.43237000  1
  Ca  Ca2  1  0.24167100  0.15469000  0.56763000  1
  Ca  Ca3  1  0.84531000  0.75832900  0.93237000  1
  Mn  Mn0  1  0.78833300  0.21166700  0.75000000  1
  Mn  Mn1  1  0.21166700  0.78833300  0.25000000  1
  Mn  Mn2  1  0.00000000  0.00000000  0.00000000  1
  Mn  Mn3  1  0.00000000  0.00000000  0.50000000  1
  Si  Si0  1  0.52798200  0.12903700  0.69475500  1
  Si  Si1  1  0.12903700  0.52798200  0.19475500  1
  Si  Si2  1  0.54681400  0.19549800  0.10016100  1
  Si  Si3  1  0.19549800  0.54681400  0.60016100  1
  Si  Si4  1  0.87096300  0.47201800  0.80524500  1
  Si  Si5  1  0.45318600  0.80450200  0.89983900  1
  Si  Si6  1  0.80450200  0.45318600  0.39983900  1
  Si  Si7  1  0.47201800  0.87096300  0.30524500  1
  O  O0  1  0.91213600  0.26314200  0.33927300  1
  O  O1  1  0.96864400  0.89776200  0.40945300  1
  O  O2  1  0.44868200  0.67677800  0.08793300  1
  O  O3  1  0.89776200  0.96864400  0.90945300  1
  O  O4  1  0.26118600  0.91233200  0.32282500  1
  O  O5  1  0.03612800  0.49950000  0.62717100  1
  O  O6  1  0.67677800  0.44868200  0.58793300  1
  O  O7  1  0.08766800  0.73881400  0.17717500  1
  O  O8  1  0.96387200  0.50050000  0.37282900  1
  O  O9  1  0.66366800  0.65233800  0.27458600  1
  O  O10  1  0.03135600  0.10223800  0.59054700  1
  O  O11  1  0.73881400  0.08766800  0.67717500  1
  O  O12  1  0.50050000  0.96387200  0.87282900  1
  O  O13  1  0.26314200  0.91213600  0.83927300  1
  O  O14  1  0.65233800  0.66366800  0.77458600  1
  O  O15  1  0.91233200  0.26118600  0.82282500  1
  O  O16  1  0.91340500  0.46895900  0.93942700  1
  O  O17  1  0.33633200  0.34766200  0.72541400  1
  O  O18  1  0.53104100  0.08659500  0.56057300  1
  O  O19  1  0.34766200  0.33633200  0.22541400  1
  O  O20  1  0.49950000  0.03612800  0.12717100  1
  O  O21  1  0.10223800  0.03135600  0.09054700  1
  O  O22  1  0.46895900  0.91340500  0.43942700  1
  O  O23  1  0.55131800  0.32322200  0.91206700  1
  O  O24  1  0.08659500  0.53104100  0.06057300  1
  O  O25  1  0.32322200  0.55131800  0.41206700  1
  O  O26  1  0.73685800  0.08786400  0.16072700  1
  O  O27  1  0.08786400  0.73685800  0.66072700  1
loop_
_geom_bond_atom_site_label_1
_geom_bond_atom_site_label_2
_geom_bond_distance
_geom_bond_site_symmetry_2
Ca0 O21 2.237851 1_555
Ca0 O16 2.257550 1_454
Ca0 O24 2.326127 1_555
Ca0 O0 2.472717 1_455
Ca0 O20 2.667172 1_555
Ca0 O4 2.716603 1_545
Ca0 O17 2.869638 1_554
Ca0 O12 2.928827 1_544
Ca1 O1 2.237851 1_555
Ca1 O18 2.257550 1_565
Ca1 O22 2.326127 1_555
Ca1 O26 2.472717 1_565
Ca1 O8 2.667172 1_555
Ca1 O7 2.716603 1_655
Ca1 O14 2.869638 1_555
Ca1 O5 2.928827 1_655
Ca2 O10 2.237851 1_555
Ca2 O22 2.257550 1_545
Ca2 O18 2.326127 1_555
Ca2 O13 2.472717 1_545
Ca2 O5 2.667172 1_555
Ca2 O15 2.716603 1_455
Ca2 O19 2.869638 1_555
Ca2 O8 2.928827 1_455
Ca3 O3 2.237851 1_555
Ca3 O24 2.257550 1_656
Ca3 O16 2.326127 1_555
Ca3 O27 2.472717 1_655
Ca3 O12 2.667172 1_555
Ca3 O11 2.716603 1_565
Ca3 O9 2.869638 1_556
Ca3 O20 2.928827 1_566
Mn0 O23 1.891424 1_555
Mn0 O6 1.891424 1_555
Mn0 O3 1.895228 1_545
Mn0 O10 1.895228 1_655
Mn0 O15 2.043587 1_555
Mn0 O11 2.043587 1_555
Mn1 O25 1.891424 1_555
Mn1 O2 1.891424 1_555
Mn1 O1 1.895228 1_455
Mn1 O21 1.895228 1_565
Mn1 O4 2.043587 1_555
Mn1 O7 2.043587 1_555
Mn2 O21 1.866832 1_555
Mn2 O3 1.866832 1_444
Mn2 O26 1.972112 1_455
Mn2 O13 1.972112 1_544
Mn2 O7 2.031172 1_545
Mn2 O15 2.031172 1_454
Mn3 O10 1.866832 1_555
Mn3 O1 1.866832 1_445
Mn3 O27 1.972112 1_545
Mn3 O0 1.972112 1_455
Mn3 O11 2.031172 1_455
Mn3 O4 2.031172 1_545
O0 Si6 1.641530 1_555
O2 Si5 1.617021 1_554
O4 Si7 1.680951 1_555
O5 Si4 1.677702 1_455
O5 Si3 1.705465 1_555
O6 Si6 1.617021 1_555
O7 Si1 1.680951 1_555
O8 Si1 1.677702 1_655
O8 Si6 1.705465 1_555
O9 Si7 1.645111 1_555
O9 Si6 1.676025 1_555
O11 Si0 1.680951 1_555
O12 Si0 1.677702 1_565
O12 Si5 1.705465 1_555
O13 Si5 1.641530 1_555
O14 Si4 1.645111 1_555
O14 Si5 1.676025 1_555
O15 Si4 1.680951 1_555
O16 Si4 1.587519 1_555
O17 Si0 1.645111 1_555
O17 Si3 1.676025 1_555
O18 Si0 1.587519 1_555
O19 Si1 1.645111 1_555
O19 Si2 1.676025 1_555
O20 Si7 1.677702 1_545
O20 Si2 1.705465 1_555
O22 Si7 1.587519 1_555
O23 Si2 1.617021 1_556
O24 Si1 1.587519 1_555
O25 Si3 1.617021 1_555
O26 Si2 1.641530 1_555
O27 Si3 1.641530 1_555
