# generated using pymatgen
data_TeMoWS3
_symmetry_space_group_name_H-M   'P 1'
_cell_length_a   3.27057832
_cell_length_b   3.27057832
_cell_length_c   37.17529700
_cell_angle_alpha   90.00000000
_cell_angle_beta   90.00000000
_cell_angle_gamma   120.00000643
_symmetry_Int_Tables_number   1
_chemical_formula_structural   TeMoWS3
_chemical_formula_sum   'Te2 Mo2 W2 S6'
_cell_volume   344.37701473
_cell_formula_units_Z   2
loop_
 _symmetry_equiv_pos_site_id
 _symmetry_equiv_pos_as_xyz
  1  'x, y, z'
loop_
 _atom_site_type_symbol
 _atom_site_label
 _atom_site_symmetry_multiplicity
 _atom_site_fract_x
 _atom_site_fract_y
 _atom_site_fract_z
 _atom_site_occupancy
  Te  Te0  1  0.33333300  0.66666700  0.70944000  1
  Te  Te1  1  0.33333300  0.66666700  0.60571500  1
  Mo  Mo0  1  0.33333300  0.66666700  0.09391000  1
  Mo  Mo1  1  0.66666700  0.33333300  0.65759500  1
  W  W0  1  0.33333300  0.66666700  0.46960600  1
  W  W1  1  0.66666700  0.33333300  0.28180000  1
  S  S0  1  0.33333300  0.66666700  0.32339900  1
  S  S1  1  0.66666700  0.33333300  0.05250800  1
  S  S2  1  0.66666700  0.33333300  0.42804600  1
  S  S3  1  0.66666700  0.33333300  0.13532800  1
  S  S4  1  0.66666700  0.33333300  0.51119100  1
  S  S5  1  0.33333300  0.66666700  0.24020900  1
loop_
_geom_bond_atom_site_label_1
_geom_bond_atom_site_label_2
_geom_bond_distance
_geom_bond_site_symmetry_2
Mo0 S1 2.436079 1_565
Mo0 S1 2.436079 1_455
Mo0 S1 2.436083 1_555
Mo0 S3 2.436455 1_455
Mo0 S3 2.436455 1_565
Mo0 S3 2.436459 1_555
Mo1 Te0 2.698193 1_545
Mo1 Te0 2.698193 1_655
Mo1 Te0 2.698197 1_555
Mo1 Te1 2.699122 1_655
Mo1 Te1 2.699122 1_545
Mo1 Te1 2.699126 1_555
S0 W1 2.440712 1_455
S0 W1 2.440712 1_565
S0 W1 2.440717 1_555
S2 W0 2.439794 1_545
S2 W0 2.439794 1_655
S2 W0 2.439799 1_555
S4 W0 2.440383 1_545
S4 W0 2.440383 1_655
S4 W0 2.440387 1_555
S5 W1 2.440524 1_455
S5 W1 2.440524 1_565
S5 W1 2.440528 1_555
