# generated using pymatgen
data_NdNiSb
_symmetry_space_group_name_H-M   'P 1'
_cell_length_a   4.34026051
_cell_length_b   4.34026051
_cell_length_c   8.34862654
_cell_angle_alpha   90.00000000
_cell_angle_beta   90.00000000
_cell_angle_gamma   119.99998367
_symmetry_Int_Tables_number   1
_chemical_formula_structural   NdNiSb
_chemical_formula_sum   'Nd2 Ni2 Sb2'
_cell_volume   136.20007033
_cell_formula_units_Z   2
loop_
 _symmetry_equiv_pos_site_id
 _symmetry_equiv_pos_as_xyz
  1  'x, y, z'
loop_
 _atom_site_type_symbol
 _atom_site_label
 _atom_site_symmetry_multiplicity
 _atom_site_fract_x
 _atom_site_fract_y
 _atom_site_fract_z
 _atom_site_occupancy
  Nd  Nd0  1  0.00000000  -0.00000000  0.00000000  1
  Nd  Nd1  1  0.00000000  -0.00000000  0.50000000  1
  Ni  Ni0  1  0.66666700  0.33333300  0.74999900  1
  Ni  Ni1  1  0.33333300  0.66666700  0.25000100  1
  Sb  Sb0  1  0.66666700  0.33333300  0.25000000  1
  Sb  Sb1  1  0.33333300  0.66666700  0.75000000  1
loop_
_geom_bond_atom_site_label_1
_geom_bond_atom_site_label_2
_geom_bond_distance
_geom_bond_site_symmetry_2
Nd0 Sb1 3.261211 1_544
Nd0 Sb0 3.261211 1_455
Nd0 Sb1 3.261214 1_444
Nd0 Sb1 3.261214 1_554
Nd0 Sb0 3.261214 1_445
Nd0 Sb0 3.261214 1_555
Nd0 Ni1 3.261216 1_545
Nd0 Ni0 3.261216 1_454
Nd0 Ni1 3.261220 1_555
Nd0 Ni1 3.261220 1_445
Nd0 Ni0 3.261220 1_554
Nd0 Ni0 3.261220 1_444
Nd1 Ni0 3.261206 1_455
Nd1 Ni1 3.261206 1_545
Nd1 Ni0 3.261209 1_555
Nd1 Ni0 3.261209 1_445
Nd1 Ni1 3.261209 1_445
Nd1 Ni1 3.261209 1_555
Nd1 Sb1 3.261211 1_545
Nd1 Sb0 3.261211 1_455
Nd1 Sb0 3.261214 1_445
Nd1 Sb1 3.261214 1_555
Nd1 Sb0 3.261214 1_555
Nd1 Sb1 3.261214 1_445
Ni0 Sb1 2.505848 1_545
Ni0 Sb1 2.505848 1_655
Ni0 Sb1 2.505855 1_555
Ni1 Sb0 2.505848 1_455
Ni1 Sb0 2.505848 1_565
Ni1 Sb0 2.505855 1_555
