# generated using pymatgen
data_VIn(SeO4)2
_symmetry_space_group_name_H-M   'P 1'
_cell_length_a   6.95732400
_cell_length_b   4.82675300
_cell_length_c   10.78822723
_cell_angle_alpha   81.90497019
_cell_angle_beta   90.00000000
_cell_angle_gamma   90.00000000
_symmetry_Int_Tables_number   1
_chemical_formula_structural   VIn(SeO4)2
_chemical_formula_sum   'V2 In2 Se4 O16'
_cell_volume   358.67269984
_cell_formula_units_Z   2
loop_
 _symmetry_equiv_pos_site_id
 _symmetry_equiv_pos_as_xyz
  1  'x, y, z'
loop_
 _atom_site_type_symbol
 _atom_site_label
 _atom_site_symmetry_multiplicity
 _atom_site_fract_x
 _atom_site_fract_y
 _atom_site_fract_z
 _atom_site_occupancy
  V  V0  1  0.24917200  0.87398000  0.45799300  1
  V  V1  1  0.75082800  0.87398000  0.45799300  1
  In  In0  1  0.24980000  0.78577400  0.94857300  1
  In  In1  1  0.75020000  0.78577400  0.94857300  1
  Se  Se0  1  0.50000000  0.34416100  0.76298200  1
  Se  Se1  1  0.00000000  0.23498300  0.13779700  1
  Se  Se2  1  0.00000000  0.52747500  0.69648200  1
  Se  Se3  1  0.50000000  0.68197700  0.23189900  1
  O  O0  1  0.30011200  0.17669300  0.83102700  1
  O  O1  1  0.69988800  0.17669300  0.83102700  1
  O  O2  1  0.00000000  0.99576600  0.02362900  1
  O  O3  1  0.19859800  0.43288400  0.09031500  1
  O  O4  1  0.80140200  0.43288400  0.09031500  1
  O  O5  1  0.50000000  0.84539000  0.07384900  1
  O  O6  1  0.50000000  0.63290900  0.85107400  1
  O  O7  1  0.00000000  0.65997800  0.84192500  1
  O  O8  1  0.19905200  0.71383800  0.63528100  1
  O  O9  1  0.80094800  0.71383800  0.63528100  1
  O  O10  1  0.50000000  0.75553700  0.48819800  1
  O  O11  1  0.24638900  0.20794000  0.46462500  1
  O  O12  1  0.75361100  0.20794000  0.46462500  1
  O  O13  1  0.30390600  0.86495300  0.27877600  1
  O  O14  1  0.69609400  0.86495300  0.27877600  1
  O  O15  1  0.00000000  0.77880100  0.42516700  1
loop_
_geom_bond_atom_site_label_1
_geom_bond_atom_site_label_2
_geom_bond_distance
_geom_bond_site_symmetry_2
In0 O0 2.148729 1_565
In0 O3 2.152422 1_556
In0 O6 2.213474 1_555
In0 O7 2.215762 1_555
In0 O2 2.221388 1_556
In0 O5 2.247000 1_556
In1 O1 2.148729 1_565
In1 O4 2.152422 1_556
In1 O6 2.213474 1_555
In1 O7 2.215762 1_655
In1 O2 2.221388 1_656
In1 O5 2.247000 1_556
O0 Se0 1.720222 1_555
O1 Se0 1.720222 1_555
O2 Se1 1.802977 1_565
O3 Se1 1.716438 1_555
O4 Se1 1.716438 1_655
O5 Se3 1.775012 1_555
O6 Se0 1.794059 1_555
O7 Se2 1.775850 1_555
O8 Se2 1.730803 1_555
O8 V0 1.990185 1_555
O9 Se2 1.730803 1_655
O9 V1 1.990185 1_555
O10 V0 1.850918 1_555
O10 V1 1.850918 1_555
O11 V0 1.623679 1_545
O12 V1 1.623679 1_545
O13 Se3 1.738630 1_555
O13 V0 1.977068 1_555
O14 Se3 1.738630 1_555
O14 V1 1.977068 1_555
O15 V0 1.840530 1_555
O15 V1 1.840530 1_455
