# generated using pymatgen
data_NdCrO4
_symmetry_space_group_name_H-M   'P 1'
_cell_length_a   6.09544625
_cell_length_b   6.09544817
_cell_length_c   6.09544674
_cell_angle_alpha   106.00471200
_cell_angle_beta   106.00471841
_cell_angle_gamma   116.65176933
_symmetry_Int_Tables_number   1
_chemical_formula_structural   NdCrO4
_chemical_formula_sum   'Nd2 Cr2 O8'
_cell_volume   172.26091549
_cell_formula_units_Z   2
loop_
 _symmetry_equiv_pos_site_id
 _symmetry_equiv_pos_as_xyz
  1  'x, y, z'
loop_
 _atom_site_type_symbol
 _atom_site_label
 _atom_site_symmetry_multiplicity
 _atom_site_fract_x
 _atom_site_fract_y
 _atom_site_fract_z
 _atom_site_occupancy
  Nd  Nd0  1  0.12500000  0.87500000  0.25000000  1
  Nd  Nd1  1  0.87500000  0.12500000  0.75000000  1
  Cr  Cr0  1  0.37500000  0.62500000  0.75000000  1
  Cr  Cr1  1  0.62500000  0.37500000  0.25000000  1
  O  O0  1  0.79459955  0.72256676  0.42796821  1
  O  O1  1  0.36351689  0.79332593  0.57018895  1
  O  O2  1  0.72313798  0.79332693  0.92981105  1
  O  O3  1  0.79459955  0.36663234  0.07203279  1
  O  O4  1  0.63336766  0.20540045  0.42796721  1
  O  O5  1  0.20667307  0.27686202  0.57018895  1
  O  O6  1  0.20667407  0.63648311  0.92981105  1
  O  O7  1  0.27743324  0.20540145  0.07203279  1
loop_
_geom_bond_atom_site_label_1
_geom_bond_atom_site_label_2
_geom_bond_distance
_geom_bond_site_symmetry_2
Nd0 O2 2.406468 1_454
Nd0 O5 2.406468 1_565
Nd0 O1 2.406475 1_555
Nd0 O6 2.406475 1_554
Nd0 O4 2.485517 1_565
Nd0 O3 2.485518 1_455
Nd0 O0 2.485522 1_455
Nd0 O7 2.485522 1_565
Nd1 O7 2.417923 1_656
Nd1 O0 2.417924 1_545
Nd1 O4 2.417926 1_555
Nd1 O3 2.417926 1_556
Nd1 O1 2.499561 1_545
Nd1 O6 2.499562 1_655
Nd1 O5 2.499565 1_655
Nd1 O2 2.499565 1_545
Cr0 O6 1.703272 1_555
Cr0 O1 1.703273 1_555
Cr0 O2 1.703278 1_555
Cr0 O5 1.703279 1_555
Cr1 O3 1.698020 1_555
Cr1 O4 1.698021 1_555
Cr1 O7 1.698021 1_555
Cr1 O0 1.698022 1_555
