# generated using pymatgen
data_Cu64O
_symmetry_space_group_name_H-M   'P 1'
_cell_length_a   8.90105971
_cell_length_b   8.90105971
_cell_length_c   10.29532300
_cell_angle_alpha   90.00000000
_cell_angle_beta   90.00000000
_cell_angle_gamma   109.90232807
_symmetry_Int_Tables_number   1
_chemical_formula_structural   Cu64O
_chemical_formula_sum   'Cu64 O1'
_cell_volume   766.96928051
_cell_formula_units_Z   1
loop_
 _symmetry_equiv_pos_site_id
 _symmetry_equiv_pos_as_xyz
  1  'x, y, z'
loop_
 _atom_site_type_symbol
 _atom_site_label
 _atom_site_symmetry_multiplicity
 _atom_site_fract_x
 _atom_site_fract_y
 _atom_site_fract_z
 _atom_site_occupancy
  Cu  Cu0  1  0.31165600  0.68834400  0.12612700  1
  Cu  Cu1  1  0.31165600  0.68834400  0.87387300  1
  Cu  Cu2  1  0.06330500  0.18928900  0.25300300  1
  Cu  Cu3  1  0.81071100  0.93669500  0.74699700  1
  Cu  Cu4  1  0.81071100  0.93669500  0.25300300  1
  Cu  Cu5  1  0.06330500  0.18928900  0.74699700  1
  Cu  Cu6  1  0.80985500  0.19014500  0.12656200  1
  Cu  Cu7  1  0.80985500  0.19014500  0.87343800  1
  Cu  Cu8  1  0.06230000  0.43657100  0.37626000  1
  Cu  Cu9  1  0.56342900  0.93770000  0.62374000  1
  Cu  Cu10  1  0.56342900  0.93770000  0.37626000  1
  Cu  Cu11  1  0.06230000  0.43657100  0.62374000  1
  Cu  Cu12  1  0.81137900  0.43711600  0.25113300  1
  Cu  Cu13  1  0.56288400  0.18862100  0.74886700  1
  Cu  Cu14  1  0.56288400  0.18862100  0.25113300  1
  Cu  Cu15  1  0.81137900  0.43711600  0.74886700  1
  Cu  Cu16  1  0.06249200  0.68603300  0.50000000  1
  Cu  Cu17  1  0.31396700  0.93750800  0.50000000  1
  Cu  Cu18  1  0.56230200  0.43769800  0.37537300  1
  Cu  Cu19  1  0.56230200  0.43769800  0.62462700  1
  Cu  Cu20  1  0.31345000  0.68655000  0.37557200  1
  Cu  Cu21  1  0.31345000  0.68655000  0.62442800  1
  Cu  Cu22  1  0.06257900  0.44297100  0.12845000  1
  Cu  Cu23  1  0.55702900  0.93742100  0.87155000  1
  Cu  Cu24  1  0.55702900  0.93742100  0.12845000  1
  Cu  Cu25  1  0.06257900  0.44297100  0.87155000  1
  Cu  Cu26  1  0.07413600  0.92586400  0.15001800  1
  Cu  Cu27  1  0.07413600  0.92586400  0.84998200  1
  Cu  Cu28  1  0.56311600  0.43688400  0.12584900  1
  Cu  Cu29  1  0.56311600  0.43688400  0.87415100  1
  Cu  Cu30  1  0.81261300  0.18738700  0.37501700  1
  Cu  Cu31  1  0.81261300  0.18738700  0.62498300  1
  Cu  Cu32  1  0.81196700  0.43730900  0.50000000  1
  Cu  Cu33  1  0.56269100  0.18803300  0.50000000  1
  Cu  Cu34  1  0.81242600  0.43800000  0.00000000  1
  Cu  Cu35  1  0.56200000  0.18757400  0.00000000  1
  Cu  Cu36  1  0.81274100  0.68773800  0.37522800  1
  Cu  Cu37  1  0.31226200  0.18725900  0.62477200  1
  Cu  Cu38  1  0.31226200  0.18725900  0.37522800  1
  Cu  Cu39  1  0.81274100  0.68773800  0.62477200  1
  Cu  Cu40  1  0.07135900  0.22043100  0.00000000  1
  Cu  Cu41  1  0.77956900  0.92864100  0.00000000  1
  Cu  Cu42  1  0.31699300  0.44277000  0.00000000  1
  Cu  Cu43  1  0.55723000  0.68300700  0.00000000  1
  Cu  Cu44  1  0.81021400  0.68439600  0.12653900  1
  Cu  Cu45  1  0.31560400  0.18978600  0.87346100  1
  Cu  Cu46  1  0.31560400  0.18978600  0.12653900  1
  Cu  Cu47  1  0.81021400  0.68439600  0.87346100  1
  Cu  Cu48  1  0.06246800  0.18808700  0.50000000  1
  Cu  Cu49  1  0.81191300  0.93753200  0.50000000  1
  Cu  Cu50  1  0.06332600  0.68618400  0.00000000  1
  Cu  Cu51  1  0.31381600  0.93667400  0.00000000  1
  Cu  Cu52  1  0.06267000  0.68198400  0.25465200  1
  Cu  Cu53  1  0.31801600  0.93733000  0.74534800  1
  Cu  Cu54  1  0.31801600  0.93733000  0.25465200  1
  Cu  Cu55  1  0.06267000  0.68198400  0.74534800  1
  Cu  Cu56  1  0.31267800  0.43800800  0.25022400  1
  Cu  Cu57  1  0.56199200  0.68732200  0.74977600  1
  Cu  Cu58  1  0.56199200  0.68732200  0.25022400  1
  Cu  Cu59  1  0.31267800  0.43800800  0.74977600  1
  Cu  Cu60  1  0.06273900  0.93726100  0.38105600  1
  Cu  Cu61  1  0.06273900  0.93726100  0.61894400  1
  Cu  Cu62  1  0.31320200  0.43728900  0.50000000  1
  Cu  Cu63  1  0.56271100  0.68679800  0.50000000  1
  O  O0  1  0.00255100  0.99744900  0.00000000  1
loop_
_geom_bond_atom_site_label_1
_geom_bond_atom_site_label_2
_geom_bond_distance
_geom_bond_site_symmetry_2
Cu0 Cu22 2.527713 1_555
Cu0 Cu24 2.527713 1_555
Cu0 Cu42 2.556780 1_555
Cu0 Cu43 2.556780 1_555
Cu0 Cu50 2.558018 1_555
Cu0 Cu51 2.558018 1_555
Cu0 Cu54 2.565224 1_555
Cu0 Cu52 2.565224 1_555
Cu0 Cu20 2.568250 1_555
Cu0 Cu56 2.571248 1_555
Cu0 Cu58 2.571248 1_555
Cu0 Cu1 2.597036 1_554
Cu1 Cu25 2.527713 1_555
Cu1 Cu23 2.527713 1_555
Cu1 Cu42 2.556780 1_556
Cu1 Cu43 2.556780 1_556
Cu1 Cu51 2.558018 1_556
Cu1 Cu50 2.558018 1_556
Cu1 Cu53 2.565224 1_555
Cu1 Cu55 2.565224 1_555
Cu1 Cu21 2.568250 1_555
Cu1 Cu59 2.571248 1_555
Cu1 Cu57 2.571248 1_555
Cu2 Cu48 2.542937 1_555
Cu2 Cu8 2.543322 1_555
Cu2 Cu56 2.546238 1_555
Cu2 Cu38 2.553741 1_555
Cu2 Cu30 2.555737 1_455
Cu2 Cu4 2.582345 1_445
Cu2 Cu46 2.594557 1_555
Cu2 Cu22 2.598662 1_555
Cu2 Cu60 2.600546 1_545
Cu2 Cu26 2.604854 1_545
Cu2 Cu6 2.606863 1_455
Cu2 Cu40 2.617854 1_555
Cu3 Cu49 2.542937 1_555
Cu3 Cu9 2.543322 1_555
Cu3 Cu57 2.546238 1_555
Cu3 Cu39 2.553741 1_555
Cu3 Cu31 2.555737 1_565
Cu3 Cu5 2.582345 1_665
Cu3 Cu47 2.594557 1_555
Cu3 Cu61 2.600546 1_655
Cu3 Cu7 2.606863 1_565
Cu3 Cu41 2.617854 1_556
Cu4 Cu49 2.542937 1_555
Cu4 Cu58 2.546238 1_555
Cu4 Cu44 2.594557 1_555
Cu4 Cu60 2.600546 1_655
Cu4 Cu6 2.606863 1_565
Cu4 Cu41 2.617854 1_555
Cu5 Cu59 2.546238 1_555
Cu5 Cu61 2.600546 1_545
Cu5 Cu7 2.606863 1_455
Cu6 Cu7 2.605993 1_554
Cu10 Cu54 2.516816 1_555
Cu10 Cu4 2.543322 1_555
Cu10 Cu9 2.547887 1_555
Cu10 Cu30 2.550089 1_565
Cu10 Cu24 2.551902 1_555
Cu10 Cu49 2.552864 1_555
Cu10 Cu17 2.559466 1_555
Cu10 Cu20 2.561621 1_555
Cu10 Cu33 2.568646 1_565
Cu10 Cu63 2.569213 1_555
Cu10 Cu58 2.575124 1_555
Cu10 Cu14 2.579782 1_565
Cu11 Cu55 2.516816 1_555
Cu11 Cu5 2.543322 1_555
Cu11 Cu8 2.547887 1_555
Cu11 Cu31 2.550089 1_455
Cu11 Cu25 2.551902 1_555
Cu11 Cu48 2.552864 1_555
Cu11 Cu16 2.559466 1_555
Cu11 Cu21 2.561621 1_555
Cu11 Cu32 2.568646 1_455
Cu11 Cu62 2.569213 1_555
Cu11 Cu59 2.575124 1_555
Cu11 Cu15 2.579782 1_455
Cu12 Cu52 2.536882 1_655
Cu12 Cu14 2.540439 1_555
Cu12 Cu6 2.541107 1_555
Cu12 Cu44 2.550627 1_555
Cu12 Cu22 2.553068 1_655
Cu12 Cu28 2.558088 1_555
Cu12 Cu18 2.561099 1_555
Cu12 Cu32 2.562171 1_555
Cu12 Cu30 2.566034 1_555
Cu12 Cu36 2.567190 1_555
Cu12 Cu8 2.579782 1_655
Cu12 Cu34 2.585514 1_555
Cu13 Cu53 2.536882 1_545
Cu13 Cu15 2.540439 1_555
Cu13 Cu7 2.541107 1_555
Cu13 Cu45 2.550627 1_555
Cu13 Cu23 2.553068 1_545
Cu13 Cu29 2.558088 1_555
Cu13 Cu19 2.561099 1_555
Cu13 Cu33 2.562171 1_555
Cu13 Cu31 2.566034 1_555
Cu13 Cu37 2.567190 1_555
Cu13 Cu9 2.579782 1_545
Cu13 Cu35 2.585514 1_556
Cu14 Cu54 2.536882 1_545
Cu14 Cu6 2.541107 1_555
Cu14 Cu46 2.550627 1_555
Cu14 Cu24 2.553068 1_545
Cu14 Cu28 2.558088 1_555
Cu14 Cu18 2.561099 1_555
Cu14 Cu33 2.562171 1_555
Cu14 Cu30 2.566034 1_555
Cu14 Cu38 2.567190 1_555
Cu14 Cu35 2.585514 1_555
Cu15 Cu55 2.536882 1_655
Cu15 Cu7 2.541107 1_555
Cu15 Cu47 2.550627 1_555
Cu15 Cu25 2.553068 1_655
Cu15 Cu29 2.558088 1_555
Cu15 Cu19 2.561099 1_555
Cu15 Cu32 2.562171 1_555
Cu15 Cu31 2.566034 1_555
Cu15 Cu39 2.567190 1_555
Cu15 Cu34 2.585514 1_556
Cu16 Cu55 2.526202 1_555
Cu16 Cu52 2.526202 1_555
Cu16 Cu61 2.548880 1_555
Cu16 Cu60 2.548880 1_555
Cu16 Cu32 2.552020 1_455
Cu16 Cu8 2.559466 1_555
Cu16 Cu17 2.570905 1_555
Cu16 Cu39 2.572015 1_455
Cu16 Cu36 2.572015 1_455
Cu16 Cu20 2.573690 1_555
Cu16 Cu21 2.573690 1_555
Cu17 Cu53 2.526202 1_555
Cu17 Cu54 2.526202 1_555
Cu17 Cu61 2.548880 1_555
Cu17 Cu60 2.548880 1_555
Cu17 Cu33 2.552020 1_565
Cu17 Cu9 2.559466 1_555
Cu17 Cu38 2.572015 1_565
Cu17 Cu37 2.572015 1_565
Cu17 Cu20 2.573690 1_555
Cu17 Cu21 2.573690 1_555
Cu18 Cu38 2.558276 1_555
Cu18 Cu36 2.558276 1_555
Cu18 Cu62 2.560667 1_555
Cu18 Cu63 2.560667 1_555
Cu18 Cu19 2.566150 1_555
Cu18 Cu33 2.567114 1_555
Cu18 Cu32 2.567114 1_555
Cu18 Cu28 2.568958 1_555
Cu18 Cu56 2.569281 1_555
Cu18 Cu58 2.569281 1_555
Cu19 Cu37 2.558276 1_555
Cu19 Cu39 2.558276 1_555
Cu19 Cu62 2.560667 1_555
Cu19 Cu63 2.560667 1_555
Cu19 Cu33 2.567114 1_555
Cu19 Cu32 2.567114 1_555
Cu19 Cu29 2.568958 1_555
Cu19 Cu59 2.569281 1_555
Cu19 Cu57 2.569281 1_555
Cu20 Cu54 2.544099 1_555
Cu20 Cu52 2.544099 1_555
Cu20 Cu56 2.559159 1_555
Cu20 Cu58 2.559159 1_555
Cu20 Cu63 2.561303 1_555
Cu20 Cu62 2.561303 1_555
Cu20 Cu8 2.561621 1_555
Cu20 Cu21 2.562053 1_555
Cu21 Cu53 2.544099 1_555
Cu21 Cu55 2.544099 1_555
Cu21 Cu59 2.559159 1_555
Cu21 Cu57 2.559159 1_555
Cu21 Cu63 2.561303 1_555
Cu21 Cu62 2.561303 1_555
Cu21 Cu9 2.561621 1_555
Cu22 Cu40 2.405010 1_555
Cu22 Cu52 2.492611 1_555
Cu22 Cu50 2.534890 1_555
Cu22 Cu8 2.551902 1_555
Cu22 Cu56 2.568346 1_555
Cu22 Cu34 2.577126 1_455
Cu22 Cu6 2.584268 1_455
Cu22 Cu42 2.622937 1_555
Cu22 Cu25 2.644868 1_554
Cu23 Cu41 2.405010 1_556
Cu23 Cu53 2.492611 1_555
Cu23 Cu51 2.534890 1_556
Cu23 Cu9 2.551902 1_555
Cu23 Cu57 2.568346 1_555
Cu23 Cu35 2.577126 1_566
Cu23 Cu7 2.584268 1_565
Cu23 Cu3 2.598662 1_555
Cu23 Cu43 2.622937 1_556
Cu23 Cu24 2.644868 1_556
Cu24 Cu41 2.405010 1_555
Cu24 Cu54 2.492611 1_555
Cu24 Cu51 2.534890 1_555
Cu24 Cu58 2.568346 1_555
Cu24 Cu35 2.577126 1_565
Cu24 Cu6 2.584268 1_565
Cu24 Cu4 2.598662 1_555
Cu24 Cu43 2.622937 1_555
Cu25 Cu40 2.405010 1_556
Cu25 Cu55 2.492611 1_555
Cu25 Cu50 2.534890 1_556
Cu25 Cu59 2.568346 1_555
Cu25 Cu34 2.577126 1_456
Cu25 Cu7 2.584268 1_455
Cu25 Cu5 2.598662 1_555
Cu25 Cu42 2.622937 1_556
Cu26 O0 1.863828 1_555
Cu26 Cu60 2.384403 1_555
Cu26 Cu52 2.394234 1_555
Cu26 Cu54 2.394234 1_555
Cu26 Cu46 2.599816 1_565
Cu26 Cu44 2.599816 1_455
Cu26 Cu4 2.604854 1_455
Cu26 Cu50 2.608898 1_555
Cu26 Cu51 2.608898 1_555
Cu27 O0 1.863828 1_556
Cu27 Cu61 2.384403 1_555
Cu27 Cu55 2.394234 1_555
Cu27 Cu53 2.394234 1_555
Cu27 Cu45 2.599816 1_565
Cu27 Cu47 2.599816 1_455
Cu27 Cu3 2.604854 1_455
Cu27 Cu5 2.604854 1_565
Cu27 Cu50 2.608898 1_556
Cu27 Cu51 2.608898 1_556
Cu28 Cu46 2.528285 1_555
Cu28 Cu44 2.528285 1_555
Cu28 Cu42 2.561059 1_555
Cu28 Cu43 2.561059 1_555
Cu28 Cu35 2.566773 1_555
Cu28 Cu34 2.566773 1_555
Cu28 Cu56 2.573730 1_555
Cu28 Cu58 2.573730 1_555
Cu28 Cu29 2.591312 1_554
Cu29 Cu45 2.528285 1_555
Cu29 Cu47 2.528285 1_555
Cu29 Cu42 2.561059 1_556
Cu29 Cu43 2.561059 1_556
Cu29 Cu34 2.566773 1_556
Cu29 Cu35 2.566773 1_556
Cu29 Cu59 2.573730 1_555
Cu29 Cu57 2.573730 1_555
Cu30 Cu8 2.550089 1_655
Cu30 Cu4 2.555737 1_545
Cu30 Cu6 2.558240 1_555
Cu30 Cu48 2.567560 1_655
Cu30 Cu49 2.567560 1_545
Cu30 Cu32 2.571606 1_555
Cu30 Cu33 2.571606 1_555
Cu30 Cu31 2.573481 1_555
Cu31 Cu9 2.550089 1_545
Cu31 Cu5 2.555737 1_655
Cu31 Cu7 2.558240 1_555
Cu31 Cu48 2.567560 1_655
Cu31 Cu49 2.567560 1_545
Cu31 Cu33 2.571606 1_555
Cu31 Cu32 2.571606 1_555
Cu32 Cu33 2.548424 1_555
Cu32 Cu8 2.568646 1_655
Cu32 Cu36 2.570704 1_555
Cu32 Cu39 2.570704 1_555
Cu33 Cu9 2.568646 1_545
Cu33 Cu37 2.570704 1_555
Cu33 Cu38 2.570704 1_555
Cu34 Cu50 2.551220 1_655
Cu34 Cu7 2.555611 1_554
Cu34 Cu6 2.555611 1_555
Cu34 Cu44 2.556762 1_555
Cu34 Cu47 2.556762 1_554
Cu34 Cu35 2.560181 1_555
Cu35 Cu51 2.551220 1_545
Cu35 Cu7 2.555611 1_554
Cu35 Cu6 2.555611 1_555
Cu35 Cu45 2.556762 1_554
Cu35 Cu46 2.556762 1_555
Cu36 Cu4 2.553741 1_555
Cu36 Cu60 2.554084 1_655
Cu36 Cu44 2.560516 1_555
Cu36 Cu52 2.563237 1_655
Cu36 Cu63 2.567197 1_555
Cu36 Cu39 2.569136 1_555
Cu36 Cu49 2.570014 1_555
Cu36 Cu58 2.575299 1_555
Cu37 Cu5 2.553741 1_555
Cu37 Cu61 2.554084 1_545
Cu37 Cu45 2.560516 1_555
Cu37 Cu53 2.563237 1_545
Cu37 Cu62 2.567197 1_555
Cu37 Cu38 2.569136 1_555
Cu37 Cu48 2.570014 1_555
Cu37 Cu59 2.575299 1_555
Cu38 Cu60 2.554084 1_545
Cu38 Cu46 2.560516 1_555
Cu38 Cu54 2.563237 1_545
Cu38 Cu62 2.567197 1_555
Cu38 Cu48 2.570014 1_555
Cu38 Cu56 2.575299 1_555
Cu39 Cu61 2.554084 1_655
Cu39 Cu47 2.560516 1_555
Cu39 Cu55 2.563237 1_655
Cu39 Cu63 2.567197 1_555
Cu39 Cu49 2.570014 1_555
Cu39 Cu57 2.575299 1_555
Cu40 O0 1.867303 1_545
Cu40 Cu42 2.398130 1_555
Cu40 Cu7 2.600245 1_454
Cu40 Cu6 2.600245 1_455
Cu40 Cu5 2.617854 1_554
Cu40 Cu45 2.627125 1_554
Cu40 Cu46 2.627125 1_555
Cu41 O0 1.867303 1_655
Cu41 Cu43 2.398130 1_555
Cu41 Cu7 2.600245 1_564
Cu41 Cu6 2.600245 1_565
Cu41 Cu47 2.627125 1_554
Cu41 Cu44 2.627125 1_555
Cu42 Cu43 2.456015 1_555
Cu42 Cu59 2.576557 1_554
Cu42 Cu56 2.576557 1_555
Cu42 Cu45 2.597903 1_554
Cu42 Cu46 2.597903 1_555
Cu43 Cu58 2.576557 1_555
Cu43 Cu57 2.576557 1_554
Cu43 Cu44 2.597903 1_555
Cu43 Cu47 2.597903 1_554
Cu44 Cu58 2.557922 1_555
Cu44 Cu50 2.597860 1_655
Cu44 Cu47 2.605520 1_554
Cu44 Cu52 2.612001 1_655
Cu45 Cu59 2.557922 1_555
Cu45 Cu5 2.594557 1_555
Cu45 Cu51 2.597860 1_546
Cu45 Cu46 2.605520 1_556
Cu45 Cu53 2.612001 1_545
Cu46 Cu56 2.557922 1_555
Cu46 Cu51 2.597860 1_545
Cu46 Cu54 2.612001 1_545
Cu47 Cu57 2.557922 1_555
Cu47 Cu50 2.597860 1_656
Cu47 Cu55 2.612001 1_655
Cu48 Cu5 2.542937 1_555
Cu48 Cu60 2.547119 1_545
Cu48 Cu61 2.547119 1_545
Cu48 Cu8 2.552864 1_555
Cu48 Cu62 2.555523 1_555
Cu48 Cu49 2.561499 1_445
Cu49 Cu60 2.547119 1_655
Cu49 Cu61 2.547119 1_655
Cu49 Cu9 2.552864 1_555
Cu49 Cu63 2.555523 1_555
Cu50 Cu51 2.560835 1_555
Cu50 Cu55 2.621969 1_554
Cu50 Cu52 2.621969 1_555
Cu51 Cu53 2.621969 1_554
Cu51 Cu54 2.621969 1_555
Cu52 Cu8 2.516816 1_555
Cu52 Cu54 2.610479 1_555
Cu52 Cu60 2.618333 1_555
Cu53 Cu9 2.516816 1_555
Cu53 Cu55 2.610479 1_555
Cu53 Cu61 2.618333 1_555
Cu54 Cu60 2.618333 1_555
Cu55 Cu61 2.618333 1_555
Cu56 Cu58 2.548812 1_555
Cu56 Cu62 2.571541 1_555
Cu56 Cu8 2.575124 1_555
Cu57 Cu59 2.548812 1_555
Cu57 Cu63 2.571541 1_555
Cu57 Cu9 2.575124 1_555
Cu58 Cu63 2.571541 1_555
Cu59 Cu62 2.571541 1_555
Cu60 Cu61 2.449134 1_555
Cu62 Cu63 2.550806 1_555
Cu62 Cu8 2.569213 1_555
Cu63 Cu9 2.569213 1_555
