# generated using pymatgen
data_CrNiP2O9
_symmetry_space_group_name_H-M   'P 1'
_cell_length_a   6.31295100
_cell_length_b   7.85935600
_cell_length_c   13.72097100
_cell_angle_alpha   90.00000000
_cell_angle_beta   90.00000000
_cell_angle_gamma   90.00000000
_symmetry_Int_Tables_number   1
_chemical_formula_structural   CrNiP2O9
_chemical_formula_sum   'Cr4 Ni4 P8 O36'
_cell_volume   680.77598314
_cell_formula_units_Z   4
loop_
 _symmetry_equiv_pos_site_id
 _symmetry_equiv_pos_as_xyz
  1  'x, y, z'
loop_
 _atom_site_type_symbol
 _atom_site_label
 _atom_site_symmetry_multiplicity
 _atom_site_fract_x
 _atom_site_fract_y
 _atom_site_fract_z
 _atom_site_occupancy
  Cr  Cr0  1  0.75000000  0.85202500  0.88317100  1
  Cr  Cr1  1  0.25000000  0.14797500  0.11682900  1
  Cr  Cr2  1  0.25000000  0.35202500  0.61682900  1
  Cr  Cr3  1  0.75000000  0.64797500  0.38317100  1
  Ni  Ni0  1  0.50000000  0.50000000  0.00000000  1
  Ni  Ni1  1  0.50000000  0.00000000  0.50000000  1
  Ni  Ni2  1  0.00000000  0.00000000  0.50000000  1
  Ni  Ni3  1  0.00000000  0.50000000  0.00000000  1
  P  P0  1  0.25000000  0.84482800  0.93955800  1
  P  P1  1  0.75000000  0.15517200  0.06044200  1
  P  P2  1  0.75000000  0.34482800  0.56044200  1
  P  P3  1  0.25000000  0.65517200  0.43955800  1
  P  P4  1  0.75000000  0.88980000  0.69079600  1
  P  P5  1  0.25000000  0.11020000  0.30920400  1
  P  P6  1  0.25000000  0.38980000  0.80920400  1
  P  P7  1  0.75000000  0.61020000  0.19079600  1
  O  O0  1  0.04886100  0.10083100  0.37102900  1
  O  O1  1  0.54886100  0.89916900  0.62897100  1
  O  O2  1  0.95113900  0.60083100  0.12897100  1
  O  O3  1  0.45113900  0.39916900  0.87102900  1
  O  O4  1  0.95113900  0.89916900  0.62897100  1
  O  O5  1  0.45113900  0.10083100  0.37102900  1
  O  O6  1  0.04886100  0.39916900  0.87102900  1
  O  O7  1  0.54886100  0.60083100  0.12897100  1
  O  O8  1  0.25000000  0.83997400  0.48108100  1
  O  O9  1  0.75000000  0.16002600  0.51891900  1
  O  O10  1  0.75000000  0.33997400  0.01891900  1
  O  O11  1  0.25000000  0.66002600  0.98108100  1
  O  O12  1  0.75000000  0.66365800  0.94533700  1
  O  O13  1  0.25000000  0.33634200  0.05466300  1
  O  O14  1  0.25000000  0.16365800  0.55466300  1
  O  O15  1  0.75000000  0.83634200  0.44533700  1
  O  O16  1  0.75000000  0.72658500  0.75671500  1
  O  O17  1  0.25000000  0.27341500  0.24328500  1
  O  O18  1  0.25000000  0.22658500  0.74328500  1
  O  O19  1  0.75000000  0.77341500  0.25671500  1
  O  O20  1  0.44623000  0.63364400  0.37453500  1
  O  O21  1  0.94623000  0.36635600  0.62546500  1
  O  O22  1  0.55377000  0.13364400  0.12546500  1
  O  O23  1  0.05377000  0.86635600  0.87453500  1
  O  O24  1  0.55377000  0.36635600  0.62546500  1
  O  O25  1  0.05377000  0.63364400  0.37453500  1
  O  O26  1  0.44623000  0.86635600  0.87453500  1
  O  O27  1  0.94623000  0.13364400  0.12546500  1
  O  O28  1  0.75000000  0.47502400  0.27494300  1
  O  O29  1  0.25000000  0.52497600  0.72505700  1
  O  O30  1  0.25000000  0.97502400  0.22505700  1
  O  O31  1  0.75000000  0.02497600  0.77494300  1
  O  O32  1  0.75000000  0.47713000  0.47730600  1
  O  O33  1  0.25000000  0.52287000  0.52269400  1
  O  O34  1  0.25000000  0.97713000  0.02269400  1
  O  O35  1  0.75000000  0.02287000  0.97730600  1
loop_
_geom_bond_atom_site_label_1
_geom_bond_atom_site_label_2
_geom_bond_distance
_geom_bond_site_symmetry_2
Cr0 O12 1.708591 1_555
Cr0 O35 1.863121 1_565
Cr0 O26 1.924641 1_555
Cr0 O23 1.924641 1_655
Cr0 O16 1.995626 1_555
Cr0 O31 2.013171 1_565
Cr1 O13 1.708591 1_555
Cr1 O34 1.863121 1_545
Cr1 O27 1.924641 1_455
Cr1 O22 1.924641 1_555
Cr1 O17 1.995626 1_555
Cr1 O30 2.013171 1_545
Cr2 O14 1.708591 1_555
Cr2 O33 1.863121 1_555
Cr2 O21 1.924641 1_455
Cr2 O24 1.924641 1_555
Cr2 O18 1.995626 1_555
Cr2 O29 2.013171 1_555
Cr3 O15 1.708591 1_555
Cr3 O32 1.863121 1_555
Cr3 O20 1.924641 1_555
Cr3 O25 1.924641 1_655
Cr3 O19 1.995626 1_555
Cr3 O28 2.013171 1_555
Ni0 O7 1.963329 1_555
Ni0 O3 1.963329 1_554
Ni0 O10 2.034707 1_555
Ni0 O11 2.034707 1_554
Ni0 O13 2.169749 1_555
Ni0 O12 2.169749 1_554
Ni1 O5 1.963329 1_555
Ni1 O1 1.963329 1_545
Ni1 O9 2.034707 1_555
Ni1 O8 2.034707 1_545
Ni1 O14 2.169749 1_555
Ni1 O15 2.169749 1_545
Ni2 O0 1.963329 1_555
Ni2 O4 1.963329 1_445
Ni2 O8 2.034707 1_545
Ni2 O9 2.034707 1_455
Ni2 O14 2.169749 1_555
Ni2 O15 2.169749 1_445
Ni3 O2 1.963329 1_455
Ni3 O6 1.963329 1_554
Ni3 O11 2.034707 1_554
Ni3 O10 2.034707 1_455
Ni3 O13 2.169749 1_555
Ni3 O12 2.169749 1_454
O0 P5 1.528848 1_555
O1 P4 1.528848 1_555
O2 P7 1.528848 1_555
O3 P6 1.528848 1_555
O4 P4 1.528848 1_555
O5 P5 1.528848 1_555
O6 P6 1.528848 1_555
O7 P7 1.528848 1_555
O8 P3 1.560172 1_555
O9 P2 1.560172 1_555
O10 P1 1.560172 1_555
O11 P0 1.560172 1_555
O16 P4 1.569572 1_555
O17 P5 1.569572 1_555
O18 P6 1.569572 1_555
O19 P7 1.569572 1_555
O20 P3 1.535973 1_555
O21 P2 1.535973 1_555
O22 P1 1.535973 1_555
O23 P0 1.535973 1_555
O24 P2 1.535973 1_555
O25 P3 1.535973 1_555
O26 P0 1.535973 1_555
O27 P1 1.535973 1_555
O28 P7 1.568993 1_555
O29 P6 1.568993 1_555
O30 P5 1.568993 1_565
O31 P4 1.568993 1_545
O32 P2 1.543507 1_555
O33 P3 1.543507 1_555
O34 P0 1.543507 1_554
O35 P1 1.543507 1_556
