# generated using pymatgen
data_Dy4Ge6Ir7
_symmetry_space_group_name_H-M   'P 1'
_cell_length_a   7.23380671
_cell_length_b   7.23380671
_cell_length_c   7.23380671
_cell_angle_alpha   109.47122063
_cell_angle_beta   109.47122063
_cell_angle_gamma   109.47122063
_symmetry_Int_Tables_number   1
_chemical_formula_structural   Dy4Ge6Ir7
_chemical_formula_sum   'Dy4 Ge6 Ir7'
_cell_volume   291.39279493
_cell_formula_units_Z   1
loop_
 _symmetry_equiv_pos_site_id
 _symmetry_equiv_pos_as_xyz
  1  'x, y, z'
loop_
 _atom_site_type_symbol
 _atom_site_label
 _atom_site_symmetry_multiplicity
 _atom_site_fract_x
 _atom_site_fract_y
 _atom_site_fract_z
 _atom_site_occupancy
  Dy  Dy0  1  0.00000000  -0.00000000  0.50000000  1
  Dy  Dy1  1  0.00000000  0.50000000  -0.00000000  1
  Dy  Dy2  1  0.50000000  -0.00000000  -0.00000000  1
  Dy  Dy3  1  0.50000000  0.50000000  0.50000000  1
  Ge  Ge0  1  0.68066995  0.68066995  -0.00000000  1
  Ge  Ge1  1  0.31933005  0.00000000  0.31933005  1
  Ge  Ge2  1  0.00000000  0.31933005  0.31933005  1
  Ge  Ge3  1  0.31933005  0.31933005  -0.00000000  1
  Ge  Ge4  1  0.68066995  -0.00000000  0.68066995  1
  Ge  Ge5  1  -0.00000000  0.68066995  0.68066995  1
  Ir  Ir0  1  0.75000000  0.25000000  0.50000000  1
  Ir  Ir1  1  0.75000000  0.50000000  0.25000000  1
  Ir  Ir2  1  0.50000000  0.25000000  0.75000000  1
  Ir  Ir3  1  0.25000000  0.50000000  0.75000000  1
  Ir  Ir4  1  0.25000000  0.75000000  0.50000000  1
  Ir  Ir5  1  0.50000000  0.75000000  0.25000000  1
  Ir  Ir6  1  0.00000000  -0.00000000  -0.00000000  1
loop_
_geom_bond_atom_site_label_1
_geom_bond_atom_site_label_2
_geom_bond_distance
_geom_bond_site_symmetry_2
Dy0 Ir3 2.953189 1_555
Dy0 Ir1 2.953189 1_445
Dy0 Ir4 2.953189 1_545
Dy0 Ir0 2.953189 1_455
Dy0 Ir5 2.953189 1_445
Dy0 Ir2 2.953189 1_555
Dy0 Ge5 3.009433 1_545
Dy0 Ge2 3.009433 1_555
Dy0 Ge3 3.009433 1_556
Dy0 Ge0 3.009433 1_445
Dy0 Ge1 3.009433 1_555
Dy0 Ge4 3.009433 1_455
Dy1 Ir1 2.953189 1_455
Dy1 Ir3 2.953189 1_554
Dy1 Ir2 2.953189 1_454
Dy1 Ir4 2.953189 1_555
Dy1 Ir5 2.953189 1_555
Dy1 Ir0 2.953189 1_454
Dy1 Ge2 3.009433 1_555
Dy1 Ge5 3.009433 1_554
Dy1 Ge1 3.009433 1_565
Dy1 Ge0 3.009433 1_455
Dy1 Ge4 3.009433 1_454
Dy1 Ge3 3.009433 1_555
Dy2 Ir3 2.953189 1_544
Dy2 Ir2 2.953189 1_554
Dy2 Ir0 2.953189 1_555
Dy2 Ir4 2.953189 1_544
Dy2 Ir5 2.953189 1_545
Dy2 Ir1 2.953189 1_555
Dy2 Ge5 3.009433 1_544
Dy2 Ge2 3.009433 1_655
Dy2 Ge0 3.009433 1_545
Dy2 Ge3 3.009433 1_555
Dy2 Ge4 3.009433 1_554
Dy2 Ge1 3.009433 1_555
Dy3 Ir3 2.953189 1_555
Dy3 Ir0 2.953189 1_555
Dy3 Ir4 2.953189 1_555
Dy3 Ir1 2.953189 1_555
Dy3 Ir5 2.953189 1_555
Dy3 Ir2 2.953189 1_555
Dy3 Ge5 3.009433 1_655
Dy3 Ge2 3.009433 1_555
Dy3 Ge4 3.009433 1_565
Dy3 Ge3 3.009433 1_555
Dy3 Ge0 3.009433 1_556
Dy3 Ge1 3.009433 1_555
Ge0 Ir2 2.576449 1_554
Ge0 Ir3 2.576449 1_554
Ge0 Ir1 2.576449 1_555
Ge0 Ir5 2.576449 1_555
Ge0 Ir6 2.667326 1_665
Ge1 Ir2 2.576449 1_555
Ge1 Ir0 2.576449 1_555
Ge1 Ir4 2.576449 1_545
Ge1 Ir5 2.576449 1_545
Ge1 Ir6 2.667326 1_555
Ge2 Ir3 2.576449 1_555
Ge2 Ir1 2.576449 1_455
Ge2 Ir4 2.576449 1_555
Ge2 Ir0 2.576449 1_455
Ge2 Ir6 2.667326 1_555
Ge3 Ir2 2.576449 1_554
Ge3 Ir3 2.576449 1_554
Ge3 Ir1 2.576449 1_555
Ge3 Ir5 2.576449 1_555
Ge3 Ir6 2.667326 1_555
Ge4 Ir2 2.576449 1_555
Ge4 Ir0 2.576449 1_555
Ge4 Ir4 2.576449 1_545
Ge4 Ir5 2.576449 1_545
Ge4 Ir6 2.667326 1_656
Ge5 Ir3 2.576449 1_555
Ge5 Ir1 2.576449 1_455
Ge5 Ir4 2.576449 1_555
Ge5 Ir0 2.576449 1_455
Ge5 Ir6 2.667326 1_566
