# generated using pymatgen
data_Rb2CaNb2(TeO6)2
_symmetry_space_group_name_H-M   'P 1'
_cell_length_a   7.49324953
_cell_length_b   7.19130708
_cell_length_c   8.20135276
_cell_angle_alpha   90.00000000
_cell_angle_beta   65.61934488
_cell_angle_gamma   118.67576045
_symmetry_Int_Tables_number   1
_chemical_formula_structural   Rb2CaNb2(TeO6)2
_chemical_formula_sum   'Rb2 Ca1 Nb2 Te2 O12'
_cell_volume   342.13720051
_cell_formula_units_Z   1
loop_
 _symmetry_equiv_pos_site_id
 _symmetry_equiv_pos_as_xyz
  1  'x, y, z'
loop_
 _atom_site_type_symbol
 _atom_site_label
 _atom_site_symmetry_multiplicity
 _atom_site_fract_x
 _atom_site_fract_y
 _atom_site_fract_z
 _atom_site_occupancy
  Rb  Rb0  1  0.74544100  0.37272000  0.36717100  1
  Rb  Rb1  1  0.09003500  0.54501700  0.78453600  1
  Ca  Ca0  1  0.48717600  0.74358700  0.28753300  1
  Nb  Nb0  1  0.53226600  0.51867000  0.91979900  1
  Nb  Nb1  1  0.53226600  0.01359600  0.91979900  1
  Te  Te0  1  0.11802800  0.05901400  0.48336300  1
  Te  Te1  1  0.00041200  0.00020600  0.98780600  1
  O  O0  1  0.85658100  0.92829000  0.24827600  1
  O  O1  1  0.56411100  0.28205600  0.98554400  1
  O  O2  1  0.21258500  0.90681400  0.96130300  1
  O  O3  1  0.31772900  0.36762400  0.39005200  1
  O  O4  1  0.21258500  0.30577100  0.96130300  1
  O  O5  1  0.31772900  0.95010500  0.39005200  1
  O  O6  1  0.14671300  0.07335700  0.71326000  1
  O  O7  1  0.40132000  0.70066000  0.03576100  1
  O  O8  1  0.77522600  0.07795200  0.00197600  1
  O  O9  1  0.69835800  0.61627200  0.67376300  1
  O  O10  1  0.77522600  0.69727300  0.00197600  1
  O  O11  1  0.69835800  0.08208700  0.67376300  1
loop_
_geom_bond_atom_site_label_1
_geom_bond_atom_site_label_2
_geom_bond_distance
_geom_bond_site_symmetry_2
Ca0 O0 2.294712 1_555
Ca0 O3 2.335164 1_555
Ca0 O5 2.335176 1_555
Ca0 O7 2.383067 1_555
Ca0 O10 2.602130 1_555
Ca0 O8 2.602134 1_565
Nb0 O9 1.789286 1_555
Nb0 O1 1.933621 1_555
Nb0 O4 2.001297 1_555
Nb0 O7 2.010489 1_556
Nb0 O10 2.046272 1_556
Nb1 O11 1.789286 1_555
Nb1 O1 1.933628 1_555
Nb1 O2 2.001297 1_545
Nb1 O7 2.010489 1_546
Nb1 O8 2.046274 1_556
O0 Te1 1.885923 1_664
O1 Rb1 3.050992 1_655
O2 Te1 1.940469 1_565
O2 Rb1 2.918983 1_555
O3 Te0 1.902000 1_555
O3 Rb0 3.114326 1_555
O4 Te1 1.940469 1_555
O4 Rb1 2.918978 1_555
O5 Te0 1.902000 1_565
O5 Rb0 3.114323 1_565
O6 Te0 1.981195 1_555
O6 Te1 1.989245 1_555
O8 Te1 1.979096 1_654
O8 Rb1 2.991550 1_654
O9 Rb0 3.061904 1_555
O10 Te1 1.979101 1_664
O10 Rb1 2.991550 1_654
O11 Rb0 3.061895 1_555
