# generated using pymatgen
data_KDyBr3
_symmetry_space_group_name_H-M   'P 1'
_cell_length_a   7.64367000
_cell_length_b   8.07264800
_cell_length_c   11.05719200
_cell_angle_alpha   90.00000000
_cell_angle_beta   90.00000000
_cell_angle_gamma   90.00000000
_symmetry_Int_Tables_number   1
_chemical_formula_structural   KDyBr3
_chemical_formula_sum   'K4 Dy4 Br12'
_cell_volume   682.28024348
_cell_formula_units_Z   4
loop_
 _symmetry_equiv_pos_site_id
 _symmetry_equiv_pos_as_xyz
  1  'x, y, z'
loop_
 _atom_site_type_symbol
 _atom_site_label
 _atom_site_symmetry_multiplicity
 _atom_site_fract_x
 _atom_site_fract_y
 _atom_site_fract_z
 _atom_site_occupancy
  K  K0  1  0.02877000  0.42727900  0.25000000  1
  K  K1  1  0.97123000  0.57272100  0.75000000  1
  K  K2  1  0.52877000  0.07272100  0.75000000  1
  K  K3  1  0.47123000  0.92727900  0.25000000  1
  Dy  Dy0  1  0.00000000  0.00000000  0.00000000  1
  Dy  Dy1  1  0.50000000  0.50000000  0.00000000  1
  Dy  Dy2  1  0.00000000  0.00000000  0.50000000  1
  Dy  Dy3  1  0.50000000  0.50000000  0.50000000  1
  Br  Br0  1  0.30079100  0.20393000  0.04631700  1
  Br  Br1  1  0.69920900  0.79607000  0.95368300  1
  Br  Br2  1  0.80079100  0.29607000  0.95368300  1
  Br  Br3  1  0.69920900  0.79607000  0.54631700  1
  Br  Br4  1  0.19920900  0.70393000  0.04631700  1
  Br  Br5  1  0.30079100  0.20393000  0.45368300  1
  Br  Br6  1  0.19920900  0.70393000  0.45368300  1
  Br  Br7  1  0.80079100  0.29607000  0.54631700  1
  Br  Br8  1  0.60305900  0.52581100  0.25000000  1
  Br  Br9  1  0.39694100  0.47418900  0.75000000  1
  Br  Br10  1  0.10305900  0.97418900  0.75000000  1
  Br  Br11  1  0.89694100  0.02581100  0.25000000  1
loop_
_geom_bond_atom_site_label_1
_geom_bond_atom_site_label_2
_geom_bond_distance
_geom_bond_site_symmetry_2
Br0 Dy0 2.873764 1_555
Br0 Dy1 2.879807 1_555
Br0 K3 3.428866 1_545
Br0 K0 3.556169 1_555
Br0 K2 3.859219 1_554
Br1 Dy0 2.873764 1_666
Br1 Dy1 2.879807 1_556
Br1 K2 3.428866 1_565
Br1 K1 3.556169 1_555
Br1 K3 3.859219 1_556
Br2 Dy1 2.873764 1_556
Br2 Dy0 2.879807 1_656
Br2 K1 3.428866 1_555
Br2 K2 3.556169 1_555
Br2 K0 3.859219 1_656
Br3 Dy2 2.873764 1_665
Br3 Dy3 2.879807 1_555
Br3 K2 3.428866 1_565
Br3 K1 3.556169 1_555
Br3 K3 3.859219 1_555
Br4 Dy1 2.873764 1_555
Br4 Dy0 2.879807 1_565
Br4 K0 3.428866 1_555
Br4 K3 3.556169 1_555
Br4 K1 3.859219 1_454
Br5 Dy2 2.873764 1_555
Br5 Dy3 2.879807 1_555
Br5 K3 3.428866 1_545
Br5 K0 3.556169 1_555
Br5 K2 3.859219 1_555
Br6 Dy3 2.873764 1_555
Br6 Dy2 2.879807 1_565
Br6 K0 3.428866 1_555
Br6 K3 3.556169 1_555
Br6 K1 3.859219 1_455
Br7 Dy3 2.873764 1_555
Br7 Dy2 2.879807 1_655
Br7 K1 3.428866 1_555
Br7 K2 3.556169 1_555
Br7 K0 3.859219 1_655
Br8 Dy3 2.881893 1_555
Br8 Dy1 2.881893 1_555
Br8 K0 3.349800 1_655
Br8 K3 3.393946 1_555
Br9 Dy3 2.881893 1_555
Br9 Dy1 2.881893 1_556
Br9 K1 3.349800 1_455
Br9 K2 3.393946 1_555
Br10 Dy2 2.881893 1_565
Br10 Dy0 2.881893 1_566
Br10 K2 3.349800 1_565
Br10 K1 3.393946 1_455
Br11 Dy0 2.881893 1_655
Br11 Dy2 2.881893 1_655
Br11 K3 3.349800 1_545
Br11 K0 3.393946 1_655
