# generated using pymatgen
data_Li7Mn4CoO12
_symmetry_space_group_name_H-M   'P 1'
_cell_length_a   6.50599202
_cell_length_b   6.50599202
_cell_length_c   5.22057453
_cell_angle_alpha   84.29644580
_cell_angle_beta   84.29644580
_cell_angle_gamma   82.99537322
_symmetry_Int_Tables_number   1
_chemical_formula_structural   Li7Mn4CoO12
_chemical_formula_sum   'Li7 Mn4 Co1 O12'
_cell_volume   217.38748791
_cell_formula_units_Z   1
loop_
 _symmetry_equiv_pos_site_id
 _symmetry_equiv_pos_as_xyz
  1  'x, y, z'
loop_
 _atom_site_type_symbol
 _atom_site_label
 _atom_site_symmetry_multiplicity
 _atom_site_fract_x
 _atom_site_fract_y
 _atom_site_fract_z
 _atom_site_occupancy
  Li  Li0  1  0.09092900  0.42844000  0.75992000  1
  Li  Li1  1  0.57156000  0.90907100  0.24008000  1
  Li  Li2  1  0.92129400  0.58491700  0.24244700  1
  Li  Li3  1  0.41508300  0.07870600  0.75755300  1
  Li  Li4  1  0.74763300  0.74923000  0.76031300  1
  Li  Li5  1  0.25077000  0.25236700  0.23968700  1
  Li  Li6  1  0.33014600  0.66985400  0.00000000  1
  Mn  Mn0  1  0.00665800  0.99334200  0.00000000  1
  Mn  Mn1  1  0.49766900  0.50233100  0.50000000  1
  Mn  Mn2  1  0.83303200  0.16696800  0.50000000  1
  Mn  Mn3  1  0.66387900  0.33612100  0.00000000  1
  Co  Co0  1  0.17238800  0.82761200  0.50000000  1
  O  O0  1  0.95294300  0.28137700  0.10627800  1
  O  O1  1  0.45026600  0.78074300  0.60243400  1
  O  O2  1  0.78303200  0.45170100  0.60667400  1
  O  O3  1  0.27223800  0.96568000  0.12109000  1
  O  O4  1  0.61503000  0.60079200  0.15179100  1
  O  O5  1  0.10759000  0.10184700  0.64488200  1
  O  O6  1  0.21925700  0.54973400  0.39756600  1
  O  O7  1  0.71862300  0.04705700  0.89372200  1
  O  O8  1  0.03432000  0.72776200  0.87891000  1
  O  O9  1  0.54829900  0.21696800  0.39332600  1
  O  O10  1  0.89815300  0.89241000  0.35511800  1
  O  O11  1  0.39920800  0.38497000  0.84820900  1
loop_
_geom_bond_atom_site_label_1
_geom_bond_atom_site_label_2
_geom_bond_distance
_geom_bond_site_symmetry_2
Li0 O8 2.081798 1_555
Li0 O11 2.081969 1_555
Li0 O6 2.109116 1_555
Li0 O0 2.129295 1_456
Li0 O2 2.212736 1_455
Li0 O5 2.252060 1_555
Li1 O3 2.081798 1_555
Li1 O4 2.081969 1_555
Li1 O1 2.109116 1_555
Li1 O7 2.129295 1_564
Li1 O9 2.212736 1_565
Li1 O10 2.252060 1_555
Li2 O4 2.081453 1_555
Li2 O10 2.124540 1_555
Li2 O8 2.131913 1_654
Li2 O0 2.144403 1_555
Li2 O6 2.152464 1_655
Li2 O2 2.167614 1_555
Li3 O11 2.081453 1_555
Li3 O5 2.124540 1_555
Li3 O3 2.131913 1_546
Li3 O7 2.144403 1_555
Li3 O1 2.152464 1_545
Li3 O9 2.167614 1_555
Li4 O8 2.007627 1_655
Li4 O7 2.104313 1_565
Li4 O2 2.146287 1_555
Li4 O1 2.156600 1_555
Li4 O4 2.305265 1_556
Li4 O10 2.391763 1_555
Li5 O3 2.007627 1_545
Li5 O0 2.104313 1_455
Li5 O9 2.146287 1_555
Li5 O6 2.156600 1_555
Li5 O11 2.305265 1_554
Li5 O5 2.391763 1_555
Li6 O8 2.064812 1_554
Li6 O3 2.064812 1_555
Li6 O4 2.069583 1_555
Li6 O11 2.069583 1_554
Li6 O6 2.226322 1_555
Li6 O1 2.226322 1_554
Mn0 O3 1.880470 1_555
Mn0 O8 1.880470 1_554
Mn0 O7 1.987476 1_464
Mn0 O0 1.987476 1_465
Mn0 O10 1.994373 1_455
Mn0 O5 1.994373 1_564
Mn1 O1 1.919782 1_555
Mn1 O6 1.919782 1_555
Mn1 O9 1.971136 1_555
Mn1 O2 1.971136 1_555
Mn1 O11 1.977345 1_555
Mn1 O4 1.977345 1_555
Mn2 O9 1.967148 1_555
Mn2 O2 1.967148 1_555
Mn2 O10 1.990635 1_545
Mn2 O5 1.990635 1_655
Mn2 O7 2.215032 1_555
Mn2 O0 2.215032 1_555
Mn3 O11 1.944672 1_554
Mn3 O4 1.944672 1_555
Mn3 O7 1.994061 1_554
Mn3 O0 1.994061 1_555
Mn3 O2 2.213973 1_554
Mn3 O9 2.213973 1_555
Co0 O1 1.916416 1_555
Co0 O6 1.916416 1_555
Co0 O5 1.988588 1_565
Co0 O10 1.988588 1_455
Co0 O3 2.162317 1_555
Co0 O8 2.162317 1_555
