# generated using pymatgen
data_ThGe2
_symmetry_space_group_name_H-M   'P 1'
_cell_length_a   4.06906200
_cell_length_b   4.06906200
_cell_length_c   8.88189452
_cell_angle_alpha   103.24202954
_cell_angle_beta   103.24202954
_cell_angle_gamma   90.00000000
_symmetry_Int_Tables_number   1
_chemical_formula_structural   ThGe2
_chemical_formula_sum   'Th2 Ge4'
_cell_volume   139.12972562
_cell_formula_units_Z   2
loop_
 _symmetry_equiv_pos_site_id
 _symmetry_equiv_pos_as_xyz
  1  'x, y, z'
loop_
 _atom_site_type_symbol
 _atom_site_label
 _atom_site_symmetry_multiplicity
 _atom_site_fract_x
 _atom_site_fract_y
 _atom_site_fract_z
 _atom_site_occupancy
  Th  Th0  1  0.50000000  0.50000000  0.00000000  1
  Th  Th1  1  0.75000000  0.25000000  0.50000000  1
  Ge  Ge0  1  0.32990900  0.82990900  0.65981800  1
  Ge  Ge1  1  0.07990900  0.07990900  0.15981800  1
  Ge  Ge2  1  0.17009100  0.67009100  0.34018200  1
  Ge  Ge3  1  0.92009100  0.92009100  0.84018200  1
loop_
_geom_bond_atom_site_label_1
_geom_bond_atom_site_label_2
_geom_bond_distance
_geom_bond_site_symmetry_2
Ge0 Ge3 2.536991 1_455
Ge0 Ge3 2.536991 1_555
Ge0 Ge2 2.685882 1_555
Ge0 Th1 3.175236 1_565
Ge0 Th1 3.175236 1_555
Ge0 Th1 3.175236 1_465
Ge0 Th1 3.175236 1_455
Ge0 Th0 3.508633 1_556
Ge0 Th0 3.508633 1_566
Ge1 Ge2 2.536991 1_555
Ge1 Ge2 2.536991 1_545
Ge1 Ge3 2.685882 1_444
Ge1 Th0 3.175236 1_445
Ge1 Th0 3.175236 1_555
Ge1 Th0 3.175236 1_545
Ge1 Th0 3.175236 1_455
Ge1 Th1 3.508633 1_555
Ge1 Th1 3.508633 1_455
Ge2 Th1 3.175236 1_565
Ge2 Th1 3.175236 1_555
Ge2 Th1 3.175236 1_465
Ge2 Th1 3.175236 1_455
Ge2 Th0 3.508633 1_555
Ge2 Th0 3.508633 1_455
Ge3 Th0 3.175236 1_566
Ge3 Th0 3.175236 1_656
Ge3 Th0 3.175236 1_556
Ge3 Th0 3.175236 1_666
Ge3 Th1 3.508633 1_555
Ge3 Th1 3.508633 1_565
