# generated using pymatgen
data_PrB5IO11
_symmetry_space_group_name_H-M   'P 1'
_cell_length_a   15.80349500
_cell_length_b   6.56882500
_cell_length_c   12.21219824
_cell_angle_alpha   58.83795159
_cell_angle_beta   90.00000000
_cell_angle_gamma   90.00000000
_symmetry_Int_Tables_number   1
_chemical_formula_structural   PrB5IO11
_chemical_formula_sum   'Pr4 B20 I4 O44'
_cell_volume   1084.82545879
_cell_formula_units_Z   4
loop_
 _symmetry_equiv_pos_site_id
 _symmetry_equiv_pos_as_xyz
  1  'x, y, z'
loop_
 _atom_site_type_symbol
 _atom_site_label
 _atom_site_symmetry_multiplicity
 _atom_site_fract_x
 _atom_site_fract_y
 _atom_site_fract_z
 _atom_site_occupancy
  Pr  Pr0  1  0.82525900  0.53681800  0.30915500  1
  Pr  Pr1  1  0.67474100  0.53681800  0.80915500  1
  Pr  Pr2  1  0.17474100  0.46318200  0.69084500  1
  Pr  Pr3  1  0.32525900  0.46318200  0.19084500  1
  B  B0  1  0.04423400  0.41786500  0.39348700  1
  B  B1  1  0.45576600  0.41786500  0.89348700  1
  B  B2  1  0.95576600  0.58213500  0.60651300  1
  B  B3  1  0.54423400  0.58213500  0.10651300  1
  B  B4  1  0.83201600  0.82479700  0.50098300  1
  B  B5  1  0.66798400  0.82479700  0.00098300  1
  B  B6  1  0.16798400  0.17520300  0.49901700  1
  B  B7  1  0.33201600  0.17520300  0.99901700  1
  B  B8  1  0.76393700  0.10026500  0.28586700  1
  B  B9  1  0.73606300  0.10026500  0.78586700  1
  B  B10  1  0.23606300  0.89973500  0.71413300  1
  B  B11  1  0.26393700  0.89973500  0.21413300  1
  B  B12  1  0.71201800  0.99563800  0.13527300  1
  B  B13  1  0.78798200  0.99563800  0.63527300  1
  B  B14  1  0.28798200  0.00436200  0.86472700  1
  B  B15  1  0.21201800  0.00436200  0.36472700  1
  B  B16  1  0.17791200  0.60375700  0.39963000  1
  B  B17  1  0.32208800  0.60375700  0.89963000  1
  B  B18  1  0.82208800  0.39624300  0.60037000  1
  B  B19  1  0.67791200  0.39624300  0.10037000  1
  I  I0  1  0.53009100  0.16863600  0.54255600  1
  I  I1  1  0.96990900  0.16863600  0.04255600  1
  I  I2  1  0.46990900  0.83136400  0.45744400  1
  I  I3  1  0.03009100  0.83136400  0.95744400  1
  O  O0  1  0.73952300  0.92547400  0.25969600  1
  O  O1  1  0.76047700  0.92547400  0.75969600  1
  O  O2  1  0.26047700  0.07452600  0.74030400  1
  O  O3  1  0.23952300  0.07452600  0.24030400  1
  O  O4  1  0.74134200  0.33346500  0.20623600  1
  O  O5  1  0.75865800  0.33346500  0.70623600  1
  O  O6  1  0.25865800  0.66653500  0.79376400  1
  O  O7  1  0.24134200  0.66653500  0.29376400  1
  O  O8  1  0.80371800  0.62598000  0.48762000  1
  O  O9  1  0.69628200  0.62598000  0.98762000  1
  O  O10  1  0.19628200  0.37402000  0.51238000  1
  O  O11  1  0.30371800  0.37402000  0.01238000  1
  O  O12  1  0.81317000  0.05744300  0.38610900  1
  O  O13  1  0.68683000  0.05744300  0.88610900  1
  O  O14  1  0.18683000  0.94255700  0.61389100  1
  O  O15  1  0.31317000  0.94255700  0.11389100  1
  O  O16  1  0.71667800  0.81618900  0.11103500  1
  O  O17  1  0.78332200  0.81618900  0.61103500  1
  O  O18  1  0.28332200  0.18381100  0.88896500  1
  O  O19  1  0.21667800  0.18381100  0.38896500  1
  O  O20  1  0.09359300  0.62007700  0.34874100  1
  O  O21  1  0.40640700  0.62007700  0.84874100  1
  O  O22  1  0.90640700  0.37992300  0.65125900  1
  O  O23  1  0.59359300  0.37992300  0.15125900  1
  O  O24  1  0.81031000  0.22636500  0.55325800  1
  O  O25  1  0.68969000  0.22636500  0.05325800  1
  O  O26  1  0.18969000  0.77363500  0.44674200  1
  O  O27  1  0.31031000  0.77363500  0.94674200  1
  O  O28  1  0.07890800  0.19376400  0.46670300  1
  O  O29  1  0.42109200  0.19376400  0.96670300  1
  O  O30  1  0.92109200  0.80623600  0.53329700  1
  O  O31  1  0.57890800  0.80623600  0.03329700  1
  O  O32  1  0.96031200  0.44089400  0.36256000  1
  O  O33  1  0.53968800  0.44089400  0.86256000  1
  O  O34  1  0.03968800  0.55910600  0.63744000  1
  O  O35  1  0.46031200  0.55910600  0.13744000  1
  O  O36  1  0.94841000  0.60714600  0.07476100  1
  O  O37  1  0.55159000  0.60714600  0.57476100  1
  O  O38  1  0.05159000  0.39285400  0.92523900  1
  O  O39  1  0.44841000  0.39285400  0.42523900  1
  O  O40  1  0.90005200  0.89949400  0.16645800  1
  O  O41  1  0.59994800  0.89949400  0.66645800  1
  O  O42  1  0.09994800  0.10050600  0.83354200  1
  O  O43  1  0.40005200  0.10050600  0.33354200  1
loop_
_geom_bond_atom_site_label_1
_geom_bond_atom_site_label_2
_geom_bond_distance
_geom_bond_site_symmetry_2
B0 O32 1.365785 1_455
B0 O28 1.380060 1_555
B0 O20 1.385732 1_555
B1 O33 1.365785 1_555
B1 O29 1.380060 1_555
B1 O21 1.385732 1_555
B2 O34 1.365785 1_655
B2 O30 1.380060 1_555
B2 O22 1.385732 1_555
B3 O35 1.365785 1_555
B3 O31 1.380060 1_555
B3 O23 1.385732 1_555
B4 O30 1.449984 1_555
B4 O8 1.467248 1_555
B4 O12 1.474253 1_565
B4 O17 1.524142 1_555
B5 O31 1.449984 1_555
B5 O9 1.467248 1_554
B5 O13 1.474253 1_564
B5 O16 1.524142 1_555
B6 O28 1.449984 1_555
B6 O10 1.467248 1_555
B6 O14 1.474253 1_545
B6 O19 1.524142 1_555
B7 O29 1.449984 1_555
B7 O11 1.467248 1_556
B7 O15 1.474253 1_546
B7 O18 1.524142 1_555
B8 O12 1.351563 1_555
B8 O4 1.370427 1_555
B8 O0 1.396096 1_545
B9 O13 1.351563 1_555
B9 O5 1.370427 1_555
B9 O1 1.396096 1_545
B10 O14 1.351563 1_555
B10 O6 1.370427 1_555
B10 O2 1.396096 1_565
B11 O15 1.351563 1_555
B11 O7 1.370427 1_555
B11 O3 1.396096 1_565
B12 O16 1.357805 1_555
B12 O25 1.361515 1_565
B12 O0 1.409044 1_555
B13 O17 1.357805 1_555
B13 O24 1.361515 1_565
B13 O1 1.409044 1_555
B14 O18 1.357805 1_555
B14 O27 1.361515 1_545
B14 O2 1.409044 1_555
B15 O19 1.357805 1_555
B15 O26 1.361515 1_545
B15 O3 1.409044 1_555
B16 O20 1.450659 1_555
B16 O10 1.451589 1_555
B16 O26 1.508422 1_555
B16 O7 1.514796 1_555
B17 O21 1.450659 1_555
B17 O11 1.451589 1_556
B17 O27 1.508422 1_555
B17 O6 1.514796 1_555
B18 O22 1.450659 1_555
B18 O8 1.451589 1_555
B18 O24 1.508422 1_555
B18 O5 1.514796 1_555
B19 O23 1.450659 1_555
B19 O9 1.451589 1_554
B19 O25 1.508422 1_555
B19 O4 1.514796 1_555
I0 O39 1.924670 1_555
I0 O41 1.966065 1_545
I1 O38 1.924670 1_654
I1 O40 1.966065 1_545
I2 O37 1.924670 1_555
I2 O43 1.966065 1_565
I3 O36 1.924670 1_456
I3 O42 1.966065 1_565
O0 Pr0 2.668830 1_555
O1 Pr1 2.668830 1_555
O2 Pr2 2.668830 1_555
O3 Pr3 2.668830 1_555
O4 Pr0 2.619227 1_555
O5 Pr1 2.619227 1_555
O6 Pr2 2.619227 1_555
O7 Pr3 2.619227 1_555
O8 Pr0 2.555382 1_555
O9 Pr1 2.555382 1_555
O10 Pr2 2.555382 1_555
O11 Pr3 2.555382 1_555
O12 Pr0 2.787976 1_555
O13 Pr1 2.787976 1_555
O14 Pr2 2.787976 1_555
O15 Pr3 2.787976 1_555
O16 Pr0 2.751546 1_555
O17 Pr1 2.751546 1_555
O18 Pr2 2.751546 1_555
O19 Pr3 2.751546 1_555
O24 Pr0 2.609525 1_555
O25 Pr1 2.609525 1_554
O26 Pr2 2.609525 1_555
O27 Pr3 2.609525 1_556
O32 Pr0 2.225391 1_555
O33 Pr1 2.225391 1_555
O34 Pr2 2.225391 1_555
O35 Pr3 2.225391 1_555
O40 Pr0 2.411007 1_555
O41 Pr1 2.411007 1_555
O42 Pr2 2.411007 1_555
O43 Pr3 2.411007 1_555
