# generated using pymatgen
data_GdPd
_symmetry_space_group_name_H-M   'P 1'
_cell_length_a   3.79311900
_cell_length_b   4.51774333
_cell_length_c   5.66996178
_cell_angle_alpha   90.00000000
_cell_angle_beta   109.54167334
_cell_angle_gamma   90.00000000
_symmetry_Int_Tables_number   1
_chemical_formula_structural   GdPd
_chemical_formula_sum   'Gd2 Pd2'
_cell_volume   91.56567823
_cell_formula_units_Z   2
loop_
 _symmetry_equiv_pos_site_id
 _symmetry_equiv_pos_as_xyz
  1  'x, y, z'
loop_
 _atom_site_type_symbol
 _atom_site_label
 _atom_site_symmetry_multiplicity
 _atom_site_fract_x
 _atom_site_fract_y
 _atom_site_fract_z
 _atom_site_occupancy
  Gd  Gd0  1  0.13798405  0.75000000  0.27596911  1
  Gd  Gd1  1  0.86201595  0.25000000  0.72403089  1
  Pd  Pd0  1  0.41437210  0.75000000  0.82874420  1
  Pd  Pd1  1  0.58562790  0.25000000  0.17125580  1
loop_
_geom_bond_atom_site_label_1
_geom_bond_atom_site_label_2
_geom_bond_distance
_geom_bond_site_symmetry_2
Gd0 Pd0 2.953678 1_555
Gd0 Pd1 3.002082 1_465
Gd0 Pd1 3.002082 1_455
Gd0 Pd1 3.002084 1_555
Gd0 Pd1 3.002084 1_565
Gd0 Pd0 3.050824 1_454
Gd0 Pd0 3.050826 1_554
Gd1 Pd1 2.953678 1_555
Gd1 Pd0 3.002082 1_655
Gd1 Pd0 3.002082 1_645
Gd1 Pd0 3.002084 1_555
Gd1 Pd0 3.002084 1_545
Gd1 Pd1 3.050824 1_656
Gd1 Pd1 3.050826 1_556
