# generated using pymatgen
data_Pr3CoGe2
_symmetry_space_group_name_H-M   'P 1'
_cell_length_a   4.27349500
_cell_length_b   11.69460000
_cell_length_c   12.01071600
_cell_angle_alpha   90.00000000
_cell_angle_beta   90.00000000
_cell_angle_gamma   90.00000000
_symmetry_Int_Tables_number   1
_chemical_formula_structural   Pr3CoGe2
_chemical_formula_sum   'Pr12 Co4 Ge8'
_cell_volume   600.25732707
_cell_formula_units_Z   4
loop_
 _symmetry_equiv_pos_site_id
 _symmetry_equiv_pos_as_xyz
  1  'x, y, z'
loop_
 _atom_site_type_symbol
 _atom_site_label
 _atom_site_symmetry_multiplicity
 _atom_site_fract_x
 _atom_site_fract_y
 _atom_site_fract_z
 _atom_site_occupancy
  Pr  Pr0  1  0.25000000  0.05600300  0.87940800  1
  Pr  Pr1  1  0.25000000  0.44399700  0.37940800  1
  Pr  Pr2  1  0.75000000  0.94399700  0.12059200  1
  Pr  Pr3  1  0.75000000  0.55600300  0.62059200  1
  Pr  Pr4  1  0.25000000  0.13037200  0.55471000  1
  Pr  Pr5  1  0.25000000  0.36962800  0.05471000  1
  Pr  Pr6  1  0.75000000  0.86962800  0.44529000  1
  Pr  Pr7  1  0.75000000  0.63037200  0.94529000  1
  Pr  Pr8  1  0.25000000  0.79962500  0.71855700  1
  Pr  Pr9  1  0.25000000  0.70037500  0.21855700  1
  Pr  Pr10  1  0.75000000  0.20037500  0.28144300  1
  Pr  Pr11  1  0.75000000  0.29962500  0.78144300  1
  Co  Co0  1  0.25000000  0.36740300  0.63462800  1
  Co  Co1  1  0.25000000  0.13259700  0.13462800  1
  Co  Co2  1  0.75000000  0.63259700  0.36537200  1
  Co  Co3  1  0.75000000  0.86740300  0.86537200  1
  Ge  Ge0  1  0.25000000  0.81836700  0.97387000  1
  Ge  Ge1  1  0.25000000  0.68163300  0.47387000  1
  Ge  Ge2  1  0.75000000  0.18163300  0.02613000  1
  Ge  Ge3  1  0.75000000  0.31836700  0.52613000  1
  Ge  Ge4  1  0.25000000  0.49424500  0.80643600  1
  Ge  Ge5  1  0.25000000  0.00575500  0.30643600  1
  Ge  Ge6  1  0.75000000  0.50575500  0.19356400  1
  Ge  Ge7  1  0.75000000  0.99424500  0.69356400  1
loop_
_geom_bond_atom_site_label_1
_geom_bond_atom_site_label_2
_geom_bond_distance
_geom_bond_site_symmetry_2
Co0 Ge4 2.541370 1_555
Co0 Ge3 2.567628 1_455
Co0 Ge3 2.567628 1_555
Co0 Pr11 2.881558 1_555
Co0 Pr11 2.881558 1_455
Co0 Pr4 2.933469 1_555
Co0 Pr3 3.075514 1_455
Co0 Pr3 3.075514 1_555
Co0 Pr1 3.193566 1_555
Co1 Ge5 2.541370 1_555
Co1 Ge2 2.567628 1_555
Co1 Ge2 2.567628 1_455
Co1 Pr10 2.881558 1_555
Co1 Pr10 2.881558 1_455
Co1 Pr5 2.933469 1_555
Co1 Pr2 3.075514 1_445
Co1 Pr2 3.075514 1_545
Co1 Pr0 3.193566 1_554
Co2 Ge6 2.541370 1_555
Co2 Ge1 2.567628 1_555
Co2 Ge1 2.567628 1_655
Co2 Pr9 2.881558 1_655
Co2 Pr9 2.881558 1_555
Co2 Pr6 2.933469 1_555
Co2 Pr1 3.075514 1_655
Co2 Pr1 3.075514 1_555
Co2 Pr3 3.193566 1_555
Co3 Ge7 2.541370 1_555
Co3 Ge0 2.567628 1_655
Co3 Ge0 2.567628 1_555
Co3 Pr8 2.881558 1_555
Co3 Pr8 2.881558 1_655
Co3 Pr7 2.933469 1_555
Co3 Pr0 3.075514 1_565
Co3 Pr0 3.075514 1_665
Co3 Pr2 3.193566 1_556
Ge0 Pr0 3.001730 1_565
Ge0 Pr8 3.074315 1_555
Ge0 Pr7 3.084970 1_455
Ge0 Pr7 3.084970 1_555
Ge0 Pr2 3.135234 1_556
Ge0 Pr2 3.135234 1_456
Ge0 Pr9 3.246686 1_556
Ge1 Pr1 3.001730 1_555
Ge1 Pr9 3.074315 1_555
Ge1 Pr6 3.084970 1_455
Ge1 Pr6 3.084970 1_555
Ge1 Pr3 3.135234 1_455
Ge1 Pr3 3.135234 1_555
Ge1 Pr8 3.246686 1_555
Ge2 Pr2 3.001730 1_545
Ge2 Pr10 3.074315 1_555
Ge2 Pr5 3.084970 1_655
Ge2 Pr5 3.084970 1_555
Ge2 Pr0 3.135234 1_654
Ge2 Pr0 3.135234 1_554
Ge2 Pr11 3.246686 1_554
Ge3 Pr3 3.001730 1_555
Ge3 Pr11 3.074315 1_555
Ge3 Pr4 3.084970 1_555
Ge3 Pr4 3.084970 1_655
Ge3 Pr1 3.135234 1_655
Ge3 Pr1 3.135234 1_555
Ge3 Pr10 3.246686 1_555
Ge4 Pr11 3.136238 1_555
Ge4 Pr11 3.136238 1_455
Ge4 Pr7 3.143460 1_555
Ge4 Pr7 3.143460 1_455
Ge4 Pr3 3.173274 1_455
Ge4 Pr3 3.173274 1_555
Ge4 Pr5 3.319017 1_556
Ge4 Pr8 3.724006 1_555
Ge5 Pr10 3.136238 1_455
Ge5 Pr10 3.136238 1_555
Ge5 Pr6 3.143460 1_445
Ge5 Pr6 3.143460 1_545
Ge5 Pr2 3.173274 1_445
Ge5 Pr2 3.173274 1_545
Ge5 Pr4 3.319017 1_555
Ge5 Pr9 3.724006 1_545
Ge6 Pr9 3.136238 1_555
Ge6 Pr9 3.136238 1_655
Ge6 Pr5 3.143460 1_655
Ge6 Pr5 3.143460 1_555
Ge6 Pr1 3.173274 1_655
Ge6 Pr1 3.173274 1_555
Ge6 Pr7 3.319017 1_554
Ge6 Pr10 3.724006 1_555
Ge7 Pr8 3.136238 1_655
Ge7 Pr8 3.136238 1_555
Ge7 Pr4 3.143460 1_565
Ge7 Pr4 3.143460 1_665
Ge7 Pr0 3.173274 1_565
Ge7 Pr0 3.173274 1_665
Ge7 Pr6 3.319017 1_555
Ge7 Pr11 3.724006 1_565
