# generated using pymatgen
data_Cd2Sb2O7
_symmetry_space_group_name_H-M   'P 1'
_cell_length_a   7.28542440
_cell_length_b   7.28542440
_cell_length_c   7.28542440
_cell_angle_alpha   60.00000000
_cell_angle_beta   60.00000000
_cell_angle_gamma   60.00000000
_symmetry_Int_Tables_number   1
_chemical_formula_structural   Cd2Sb2O7
_chemical_formula_sum   'Cd4 Sb4 O14'
_cell_volume   273.43214582
_cell_formula_units_Z   2
loop_
 _symmetry_equiv_pos_site_id
 _symmetry_equiv_pos_as_xyz
  1  'x, y, z'
loop_
 _atom_site_type_symbol
 _atom_site_label
 _atom_site_symmetry_multiplicity
 _atom_site_fract_x
 _atom_site_fract_y
 _atom_site_fract_z
 _atom_site_occupancy
  Cd  Cd0  1  0.62500000  0.12500000  0.12500000  1
  Cd  Cd1  1  0.12500000  0.62500000  0.12500000  1
  Cd  Cd2  1  0.12500000  0.12500000  0.62500000  1
  Cd  Cd3  1  0.12500000  0.12500000  0.12500000  1
  Sb  Sb0  1  0.12500000  0.62500000  0.62500000  1
  Sb  Sb1  1  0.62500000  0.12500000  0.62500000  1
  Sb  Sb2  1  0.62500000  0.62500000  0.12500000  1
  Sb  Sb3  1  0.62500000  0.62500000  0.62500000  1
  O  O0  1  0.69799197  0.69799197  0.30200803  1
  O  O1  1  0.30200803  0.30200803  0.69799197  1
  O  O2  1  0.69799197  0.30200803  0.69799197  1
  O  O3  1  0.30200803  0.69799197  0.30200803  1
  O  O4  1  0.30200803  0.69799197  0.69799197  1
  O  O5  1  0.69799197  0.30200803  0.30200803  1
  O  O6  1  0.55200803  0.55200803  0.94799197  1
  O  O7  1  0.94799197  0.94799197  0.55200803  1
  O  O8  1  0.55200803  0.94799197  0.55200803  1
  O  O9  1  0.94799197  0.55200803  0.94799197  1
  O  O10  1  0.94799197  0.55200803  0.55200803  1
  O  O11  1  0.55200803  0.94799197  0.94799197  1
  O  O12  1  0.25000000  0.25000000  0.25000000  1
  O  O13  1  -0.00000000  -0.00000000  0.00000000  1
loop_
_geom_bond_atom_site_label_1
_geom_bond_atom_site_label_2
_geom_bond_distance
_geom_bond_site_symmetry_2
Cd0 O13 2.230697 1_655
Cd0 O12 2.230697 1_555
Cd0 O0 2.577472 1_545
Cd0 O6 2.577472 1_554
Cd0 O11 2.577472 1_544
Cd0 O8 2.577472 1_545
Cd0 O2 2.577472 1_554
Cd0 O5 2.577472 1_555
Cd1 O13 2.230697 1_565
Cd1 O12 2.230697 1_555
Cd1 O0 2.577472 1_455
Cd1 O6 2.577472 1_554
Cd1 O3 2.577472 1_555
Cd1 O9 2.577472 1_454
Cd1 O4 2.577472 1_554
Cd1 O10 2.577472 1_455
Cd2 O12 2.230697 1_555
Cd2 O13 2.230697 1_556
Cd2 O2 2.577472 1_455
Cd2 O4 2.577472 1_545
Cd2 O10 2.577472 1_455
Cd2 O8 2.577472 1_545
Cd2 O1 2.577472 1_555
Cd2 O7 2.577472 1_445
Cd3 O12 2.230697 1_555
Cd3 O13 2.230697 1_555
Cd3 O3 2.577472 1_545
Cd3 O11 2.577472 1_544
Cd3 O9 2.577472 1_454
Cd3 O5 2.577472 1_455
Cd3 O1 2.577472 1_554
Cd3 O7 2.577472 1_445
O0 Sb3 1.970511 1_555
O0 Sb2 1.970511 1_555
O1 Sb1 1.970511 1_555
O1 Sb0 1.970511 1_555
O2 Sb3 1.970511 1_555
O2 Sb1 1.970511 1_555
O3 Sb2 1.970511 1_555
O3 Sb0 1.970511 1_555
O4 Sb3 1.970511 1_555
O4 Sb0 1.970511 1_555
O5 Sb1 1.970511 1_555
O5 Sb2 1.970511 1_555
O6 Sb2 1.970511 1_556
O6 Sb3 1.970511 1_555
O7 Sb0 1.970511 1_655
O7 Sb1 1.970511 1_565
O8 Sb3 1.970511 1_555
O8 Sb1 1.970511 1_565
O9 Sb2 1.970511 1_556
O9 Sb0 1.970511 1_655
O10 Sb3 1.970511 1_555
O10 Sb0 1.970511 1_655
O11 Sb1 1.970511 1_565
O11 Sb2 1.970511 1_556
