# generated using pymatgen
data_U3Ta
_symmetry_space_group_name_H-M   'P 1'
_cell_length_a   5.95071221
_cell_length_b   5.95071221
_cell_length_c   5.46791900
_cell_angle_alpha   90.00000000
_cell_angle_beta   90.00000000
_cell_angle_gamma   120.00000229
_symmetry_Int_Tables_number   1
_chemical_formula_structural   U3Ta
_chemical_formula_sum   'U6 Ta2'
_cell_volume   167.68359955
_cell_formula_units_Z   2
loop_
 _symmetry_equiv_pos_site_id
 _symmetry_equiv_pos_as_xyz
  1  'x, y, z'
loop_
 _atom_site_type_symbol
 _atom_site_label
 _atom_site_symmetry_multiplicity
 _atom_site_fract_x
 _atom_site_fract_y
 _atom_site_fract_z
 _atom_site_occupancy
  U  U0  1  0.17733800  0.35467500  0.25000000  1
  U  U1  1  0.64532500  0.82266200  0.25000000  1
  U  U2  1  0.17733800  0.82266200  0.25000000  1
  U  U3  1  0.82266200  0.64532500  0.75000000  1
  U  U4  1  0.35467500  0.17733800  0.75000000  1
  U  U5  1  0.82266200  0.17733800  0.75000000  1
  Ta  Ta0  1  0.33333300  0.66666700  0.75000000  1
  Ta  Ta1  1  0.66666700  0.33333300  0.25000000  1
loop_
_geom_bond_atom_site_label_1
_geom_bond_atom_site_label_2
_geom_bond_distance
_geom_bond_site_symmetry_2
U0 U1 2.784856 1_555
U0 U2 2.784856 1_555
U0 U1 3.165856 1_445
U0 U2 3.165856 1_545
U0 U4 3.288676 1_555
U0 U4 3.288676 1_554
U0 U5 3.288682 1_455
U0 U5 3.288682 1_454
U1 U2 2.784856 1_555
U1 U2 3.165856 1_655
U1 U3 3.288676 1_555
U1 U3 3.288676 1_554
U1 U5 3.288682 1_565
U1 U5 3.288682 1_564
U2 U3 3.288682 1_454
U2 U4 3.288682 1_565
U2 U4 3.288682 1_564
U2 U3 3.288682 1_455
U3 U4 2.784856 1_555
U3 U5 2.784856 1_555
U3 U4 3.165856 1_665
U3 U5 3.165856 1_565
U4 U5 2.784856 1_555
U4 U5 3.165856 1_455
Ta0 U5 2.977388 1_455
Ta0 U5 2.977388 1_565
Ta0 U3 2.977388 1_455
Ta0 U4 2.977388 1_565
Ta0 U4 2.977388 1_555
Ta0 U3 2.977388 1_555
Ta0 U2 3.171696 1_555
Ta0 U2 3.171696 1_556
Ta0 U1 3.171701 1_556
Ta0 U1 3.171701 1_555
Ta0 U0 3.171701 1_556
Ta0 U0 3.171701 1_555
Ta1 U2 2.977388 1_655
Ta1 U2 2.977388 1_545
Ta1 U1 2.977388 1_545
Ta1 U0 2.977388 1_655
Ta1 U0 2.977388 1_555
Ta1 U1 2.977388 1_555
Ta1 U5 3.171696 1_554
Ta1 U5 3.171696 1_555
Ta1 U3 3.171701 1_554
Ta1 U3 3.171701 1_555
Ta1 U4 3.171701 1_555
Ta1 U4 3.171701 1_554
