# generated using pymatgen
data_CrCl3O
_symmetry_space_group_name_H-M   'P 1'
_cell_length_a   5.95601000
_cell_length_b   14.52697200
_cell_length_c   12.16005829
_cell_angle_alpha   90.00000000
_cell_angle_beta   99.34618792
_cell_angle_gamma   90.00000000
_symmetry_Int_Tables_number   1
_chemical_formula_structural   CrCl3O
_chemical_formula_sum   'Cr8 Cl24 O8'
_cell_volume   1038.15538241
_cell_formula_units_Z   8
loop_
 _symmetry_equiv_pos_site_id
 _symmetry_equiv_pos_as_xyz
  1  'x, y, z'
loop_
 _atom_site_type_symbol
 _atom_site_label
 _atom_site_symmetry_multiplicity
 _atom_site_fract_x
 _atom_site_fract_y
 _atom_site_fract_z
 _atom_site_occupancy
  Cr  Cr0  1  0.44525700  0.49024000  0.27923300  1
  Cr  Cr1  1  0.55474300  0.99024000  0.22076700  1
  Cr  Cr2  1  0.55474300  0.50976000  0.72076700  1
  Cr  Cr3  1  0.44525700  0.00976000  0.77923300  1
  Cr  Cr4  1  0.04149200  0.29788900  0.23281400  1
  Cr  Cr5  1  0.95850800  0.79788900  0.26718600  1
  Cr  Cr6  1  0.95850800  0.70211100  0.76718600  1
  Cr  Cr7  1  0.04149200  0.20211100  0.73281400  1
  Cl  Cl0  1  0.57216900  0.56111300  0.14301100  1
  Cl  Cl1  1  0.42783100  0.06111300  0.35698900  1
  Cl  Cl2  1  0.42783100  0.43888700  0.85698900  1
  Cl  Cl3  1  0.57216900  0.93888700  0.64301100  1
  Cl  Cl4  1  0.78827900  0.47416900  0.37711500  1
  Cl  Cl5  1  0.21172100  0.97416900  0.12288500  1
  Cl  Cl6  1  0.21172100  0.52583100  0.62288500  1
  Cl  Cl7  1  0.78827900  0.02583100  0.87711500  1
  Cl  Cl8  1  0.14188400  0.43493800  0.14491300  1
  Cl  Cl9  1  0.85811600  0.93493800  0.35508700  1
  Cl  Cl10  1  0.85811600  0.56506200  0.85508700  1
  Cl  Cl11  1  0.14188400  0.06506200  0.64491300  1
  Cl  Cl12  1  0.34386500  0.35334900  0.36674800  1
  Cl  Cl13  1  0.65613500  0.85334900  0.13325200  1
  Cl  Cl14  1  0.65613500  0.64665100  0.63325200  1
  Cl  Cl15  1  0.34386500  0.14665100  0.86674800  1
  Cl  Cl16  1  0.92264200  0.22543200  0.37052800  1
  Cl  Cl17  1  0.07735800  0.72543200  0.12947200  1
  Cl  Cl18  1  0.07735800  0.77456800  0.62947200  1
  Cl  Cl19  1  0.92264200  0.27456800  0.87052800  1
  Cl  Cl20  1  0.69435300  0.31412000  0.13967700  1
  Cl  Cl21  1  0.30564700  0.81412000  0.36032300  1
  Cl  Cl22  1  0.30564700  0.68588000  0.86032300  1
  Cl  Cl23  1  0.69435300  0.18588000  0.63967700  1
  O  O0  1  0.33202200  0.56713200  0.34226800  1
  O  O1  1  0.66797800  0.06713200  0.15773200  1
  O  O2  1  0.66797800  0.43286800  0.65773200  1
  O  O3  1  0.33202200  0.93286800  0.84226800  1
  O  O4  1  0.15148000  0.22199800  0.16691700  1
  O  O5  1  0.84852000  0.72199800  0.33308300  1
  O  O6  1  0.84852000  0.77800200  0.83308300  1
  O  O7  1  0.15148000  0.27800200  0.66691700  1
loop_
_geom_bond_atom_site_label_1
_geom_bond_atom_site_label_2
_geom_bond_distance
_geom_bond_site_symmetry_2
Cr0 O0 1.567802 1_555
Cr1 O1 1.567802 1_565
Cr2 O2 1.567802 1_555
Cr3 O3 1.567802 1_545
Cr4 O4 1.567537 1_555
Cr5 O5 1.567537 1_555
Cr6 O6 1.567537 1_555
Cr7 O7 1.567537 1_555
Cl0 Cr0 2.186767 1_555
Cl1 Cr1 2.186767 1_545
Cl2 Cr2 2.186767 1_555
Cl3 Cr3 2.186767 1_565
Cl4 Cr0 2.203497 1_555
Cl5 Cr1 2.203497 1_555
Cl6 Cr2 2.203497 1_555
Cl7 Cr3 2.203497 1_555
Cl8 Cr0 2.370547 1_555
Cl8 Cr4 2.381456 1_555
Cl9 Cr1 2.370547 1_555
Cl9 Cr5 2.381456 1_555
Cl10 Cr2 2.370547 1_555
Cl10 Cr6 2.381456 1_555
Cl11 Cr3 2.370547 1_555
Cl11 Cr7 2.381456 1_555
Cl12 Cr4 2.364803 1_555
Cl12 Cr0 2.379178 1_555
Cl13 Cr5 2.364803 1_555
Cl13 Cr1 2.379178 1_555
Cl14 Cr6 2.364803 1_555
Cl14 Cr2 2.379178 1_555
Cl15 Cr7 2.364803 1_555
Cl15 Cr3 2.379178 1_555
Cl16 Cr4 2.190513 1_655
Cl17 Cr5 2.190513 1_455
Cl18 Cr6 2.190513 1_455
Cl19 Cr7 2.190513 1_655
Cl20 Cr4 2.202846 1_655
Cl21 Cr5 2.202846 1_455
Cl22 Cr6 2.202846 1_455
Cl23 Cr7 2.202846 1_655
