# generated using pymatgen
data_YMn(WO4)2
_symmetry_space_group_name_H-M   'P 1'
_cell_length_a   5.22591793
_cell_length_b   5.87355449
_cell_length_c   10.11869048
_cell_angle_alpha   89.51306028
_cell_angle_beta   93.82825634
_cell_angle_gamma   88.88092675
_symmetry_Int_Tables_number   1
_chemical_formula_structural   YMn(WO4)2
_chemical_formula_sum   'Y2 Mn2 W4 O16'
_cell_volume   309.82320851
_cell_formula_units_Z   2
loop_
 _symmetry_equiv_pos_site_id
 _symmetry_equiv_pos_as_xyz
  1  'x, y, z'
loop_
 _atom_site_type_symbol
 _atom_site_label
 _atom_site_symmetry_multiplicity
 _atom_site_fract_x
 _atom_site_fract_y
 _atom_site_fract_z
 _atom_site_occupancy
  Y  Y0  1  0.24207600  0.68270900  0.23977900  1
  Y  Y1  1  0.75792200  0.31731900  0.76026400  1
  Mn  Mn0  1  0.74693300  0.30323000  0.23709800  1
  Mn  Mn1  1  0.25288300  0.69658300  0.76263600  1
  W  W0  1  0.24895300  0.16985200  0.49566800  1
  W  W1  1  0.75104700  0.83018300  0.50430200  1
  W  W2  1  0.24303900  0.16803800  0.00488800  1
  W  W3  1  0.75699400  0.83195300  0.99511500  1
  O  O0  1  0.39050000  0.37182900  0.14076000  1
  O  O1  1  0.60945100  0.62822000  0.85924600  1
  O  O2  1  0.09521300  0.36620800  0.37120400  1
  O  O3  1  0.90479900  0.63379700  0.62881900  1
  O  O4  1  0.45366500  0.90136500  0.60563800  1
  O  O5  1  0.54635100  0.09865200  0.39439300  1
  O  O6  1  0.04459700  0.92108500  0.88405400  1
  O  O7  1  0.95544600  0.07889800  0.11597800  1
  O  O8  1  0.87416300  0.60912300  0.12294700  1
  O  O9  1  0.12585800  0.39087400  0.87708000  1
  O  O10  1  0.61039100  0.63104500  0.38317300  1
  O  O11  1  0.38963600  0.36900000  0.61686800  1
  O  O12  1  0.43361100  0.88969100  0.09696200  1
  O  O13  1  0.56643100  0.11033800  0.90308600  1
  O  O14  1  0.05428000  0.89131500  0.40274600  1
  O  O15  1  0.94576100  0.10869300  0.59729700  1
loop_
_geom_bond_atom_site_label_1
_geom_bond_atom_site_label_2
_geom_bond_distance
_geom_bond_site_symmetry_2
Mn0 O0 2.074552 1_555
Mn0 O7 2.138984 1_555
Mn0 O2 2.235162 1_655
Mn0 O8 2.262353 1_555
Mn0 O5 2.305503 1_555
Mn0 O10 2.556710 1_555
Mn1 O1 2.076046 1_555
Mn1 O6 2.140807 1_555
Mn1 O3 2.232536 1_455
Mn1 O9 2.262679 1_555
Mn1 O4 2.304515 1_555
Mn1 O11 2.554146 1_555
O0 W2 1.959423 1_555
O0 Y0 2.240367 1_555
O1 W3 1.959343 1_555
O1 Y1 2.240377 1_555
O2 W0 1.834597 1_555
O2 Y0 2.442002 1_555
O3 W1 1.835079 1_555
O3 Y1 2.442039 1_555
O4 W1 1.958603 1_555
O4 W0 2.148224 1_565
O5 W0 1.958336 1_555
O5 W1 2.147815 1_545
O6 W3 2.010532 1_455
O6 W2 2.143343 1_566
O7 W2 2.010681 1_655
O7 W3 2.143494 1_544
O8 W3 1.896097 1_554
O8 Y0 2.240248 1_655
O9 W2 1.895978 1_556
O9 Y1 2.240232 1_455
O10 W1 1.829833 1_555
O10 Y0 2.344981 1_555
O11 W0 1.830390 1_555
O11 Y1 2.344885 1_555
O12 W3 2.061354 1_554
O12 W2 2.078296 1_565
O12 Y0 2.186107 1_555
O13 W2 2.061107 1_556
O13 W3 2.078262 1_545
O13 Y1 2.186021 1_555
O14 W1 1.982296 1_455
O14 W0 2.135179 1_565
O14 Y0 2.321020 1_555
O15 W0 1.982569 1_655
O15 W1 2.135461 1_545
O15 Y1 2.321185 1_555
