# generated using pymatgen
data_ZrReSi
_symmetry_space_group_name_H-M   'P 1'
_cell_length_a   6.97492549
_cell_length_b   6.97492549
_cell_length_c   3.42462990
_cell_angle_alpha   90.00000000
_cell_angle_beta   90.00000000
_cell_angle_gamma   120.00001528
_symmetry_Int_Tables_number   1
_chemical_formula_structural   ZrReSi
_chemical_formula_sum   'Zr3 Re3 Si3'
_cell_volume   144.28572110
_cell_formula_units_Z   3
loop_
 _symmetry_equiv_pos_site_id
 _symmetry_equiv_pos_as_xyz
  1  'x, y, z'
loop_
 _atom_site_type_symbol
 _atom_site_label
 _atom_site_symmetry_multiplicity
 _atom_site_fract_x
 _atom_site_fract_y
 _atom_site_fract_z
 _atom_site_occupancy
  Zr  Zr0  1  0.40411927  0.00000000  0.50000000  1
  Zr  Zr1  1  0.00000000  0.40411927  0.50000000  1
  Zr  Zr2  1  0.59588073  0.59588073  0.50000000  1
  Re  Re0  1  0.74563422  0.00000000  0.00000000  1
  Re  Re1  1  0.00000000  0.74563422  0.00000000  1
  Re  Re2  1  0.25436578  0.25436578  0.00000000  1
  Si  Si0  1  0.33333300  0.66666700  0.00000000  1
  Si  Si1  1  0.66666700  0.33333300  0.00000000  1
  Si  Si2  1  -0.00000000  0.00000000  0.50000000  1
loop_
_geom_bond_atom_site_label_1
_geom_bond_atom_site_label_2
_geom_bond_distance
_geom_bond_site_symmetry_2
Re0 Si2 2.465714 1_655
Re0 Si2 2.465714 1_654
Re0 Si1 2.643755 1_555
Re0 Si0 2.643759 1_545
Re0 Zr0 2.933623 1_555
Re0 Zr0 2.933623 1_554
Re0 Zr1 3.003986 1_655
Re0 Zr1 3.003986 1_654
Re0 Zr2 3.003986 1_545
Re0 Zr2 3.003986 1_544
Re1 Si2 2.465714 1_565
Re1 Si2 2.465714 1_564
Re1 Si0 2.643755 1_555
Re1 Si1 2.643759 1_455
Re1 Zr1 2.933623 1_555
Re1 Zr1 2.933623 1_554
Re1 Zr0 3.003986 1_565
Re1 Zr0 3.003986 1_564
Re1 Zr2 3.003986 1_455
Re1 Zr2 3.003986 1_454
Re2 Si2 2.465714 1_555
Re2 Si2 2.465714 1_554
Re2 Si1 2.643762 1_555
Re2 Si0 2.643762 1_555
Re2 Zr2 2.933622 1_554
Re2 Zr2 2.933622 1_555
Re2 Zr1 3.003987 1_555
Re2 Zr1 3.003987 1_554
Re2 Zr0 3.003987 1_555
Re2 Zr0 3.003987 1_554
Si0 Zr0 2.726423 1_565
Si0 Zr0 2.726423 1_564
Si0 Zr1 2.726424 1_554
Si0 Zr1 2.726424 1_555
Si0 Zr2 2.726429 1_555
Si0 Zr2 2.726429 1_554
Si1 Zr1 2.726423 1_655
Si1 Zr1 2.726423 1_654
Si1 Zr0 2.726424 1_554
Si1 Zr0 2.726424 1_555
Si1 Zr2 2.726429 1_555
Si1 Zr2 2.726429 1_554
Si2 Zr2 2.818701 1_445
Si2 Zr1 2.818702 1_555
Si2 Zr0 2.818702 1_555
