# generated using pymatgen
data_Ca7ReN6
_symmetry_space_group_name_H-M   'P 1'
_cell_length_a   6.45115138
_cell_length_b   9.06422626
_cell_length_c   9.06422626
_cell_angle_alpha   79.89472460
_cell_angle_beta   69.15397000
_cell_angle_gamma   69.15397000
_symmetry_Int_Tables_number   1
_chemical_formula_structural   Ca7ReN6
_chemical_formula_sum   'Ca14 Re2 N12'
_cell_volume   462.18403083
_cell_formula_units_Z   2
loop_
 _symmetry_equiv_pos_site_id
 _symmetry_equiv_pos_as_xyz
  1  'x, y, z'
loop_
 _atom_site_type_symbol
 _atom_site_label
 _atom_site_symmetry_multiplicity
 _atom_site_fract_x
 _atom_site_fract_y
 _atom_site_fract_z
 _atom_site_occupancy
  Ca  Ca0  1  0.27122986  0.95905973  0.04094027  1
  Ca  Ca1  1  0.72877014  0.04094027  0.95905973  1
  Ca  Ca2  1  0.22877014  0.45905973  0.54094027  1
  Ca  Ca3  1  0.77122986  0.54094027  0.45905973  1
  Ca  Ca4  1  0.75775052  0.14927564  0.59496647  1
  Ca  Ca5  1  0.49800637  0.59496647  0.14927564  1
  Ca  Ca6  1  0.74224948  0.90503353  0.35072436  1
  Ca  Ca7  1  0.00199363  0.35072436  0.90503353  1
  Ca  Ca8  1  0.24224948  0.85072436  0.40503353  1
  Ca  Ca9  1  0.50199363  0.40503353  0.85072436  1
  Ca  Ca10  1  0.25775052  0.09496647  0.64927564  1
  Ca  Ca11  1  0.99800637  0.64927564  0.09496647  1
  Ca  Ca12  1  0.25000000  0.25000000  0.25000000  1
  Ca  Ca13  1  0.75000000  0.75000000  0.75000000  1
  Re  Re0  1  0.75000000  0.25000000  0.25000000  1
  Re  Re1  1  0.25000000  0.75000000  0.75000000  1
  N  N0  1  0.00230042  0.08255585  0.30656409  1
  N  N1  1  0.60857864  0.30656409  0.08255585  1
  N  N2  1  0.49769958  0.19343591  0.41744415  1
  N  N3  1  0.89142136  0.41744415  0.19343591  1
  N  N4  1  0.99769958  0.91744415  0.69343591  1
  N  N5  1  0.39142136  0.69343591  0.91744415  1
  N  N6  1  0.50230042  0.80656409  0.58255585  1
  N  N7  1  0.10857864  0.58255585  0.80656409  1
  N  N8  1  0.90233605  0.34531059  0.65468941  1
  N  N9  1  0.09766395  0.65468941  0.34531059  1
  N  N10  1  0.59766395  0.84531059  0.15468941  1
  N  N11  1  0.40233605  0.15468941  0.84531059  1
loop_
_geom_bond_atom_site_label_1
_geom_bond_atom_site_label_2
_geom_bond_distance
_geom_bond_site_symmetry_2
Ca0 N11 2.429127 1_564
Ca0 N10 2.487527 1_555
Ca0 N5 2.578859 1_554
Ca0 N0 2.578861 1_565
Ca1 N10 2.429127 1_546
Ca1 N11 2.487527 1_555
Ca1 N1 2.578859 1_556
Ca1 N4 2.578861 1_545
Ca2 N9 2.429127 1_555
Ca2 N8 2.487527 1_455
Ca2 N7 2.578859 1_555
Ca2 N2 2.578861 1_555
Ca3 N8 2.429127 1_555
Ca3 N9 2.487527 1_655
Ca3 N3 2.578859 1_555
Ca3 N6 2.578861 1_555
Ca4 N4 2.370364 1_545
Ca4 N8 2.489371 1_555
Ca4 N0 2.574667 1_655
Ca4 N11 2.581608 1_555
Ca4 N2 2.604069 1_555
Ca5 N5 2.370358 1_554
Ca5 N9 2.489366 1_555
Ca5 N1 2.574667 1_555
Ca5 N10 2.581612 1_555
Ca5 N3 2.604080 1_555
Ca6 N6 2.370364 1_555
Ca6 N10 2.489371 1_555
Ca6 N2 2.574667 1_565
Ca6 N9 2.581608 1_655
Ca6 N0 2.604069 1_665
Ca7 N7 2.370358 1_555
Ca7 N11 2.489366 1_555
Ca7 N3 2.574667 1_456
Ca7 N8 2.581612 1_455
Ca7 N1 2.604080 1_456
Ca8 N0 2.370364 1_565
Ca8 N9 2.489371 1_555
Ca8 N4 2.574667 1_455
Ca8 N10 2.581608 1_555
Ca8 N6 2.604069 1_555
Ca9 N1 2.370358 1_556
Ca9 N8 2.489366 1_555
Ca9 N5 2.574667 1_555
Ca9 N11 2.581612 1_555
Ca9 N7 2.604080 1_555
Ca10 N2 2.370364 1_555
Ca10 N11 2.489371 1_555
Ca10 N6 2.574667 1_545
Ca10 N8 2.581608 1_455
Ca10 N4 2.604069 1_445
Ca11 N3 2.370358 1_555
Ca11 N10 2.489366 1_555
Ca11 N7 2.574667 1_654
Ca11 N9 2.581612 1_655
Ca11 N5 2.604080 1_654
Ca12 N1 2.447407 1_555
Ca12 N3 2.447407 1_455
Ca12 N2 2.447412 1_555
Ca12 N0 2.447412 1_555
Ca13 N7 2.447407 1_655
Ca13 N5 2.447407 1_555
Ca13 N6 2.447412 1_555
Ca13 N4 2.447412 1_555
N0 Re0 1.943784 1_455
N1 Re0 1.943788 1_555
N2 Re0 1.943784 1_555
N3 Re0 1.943788 1_555
N4 Re1 1.943784 1_655
N5 Re1 1.943788 1_555
N6 Re1 1.943784 1_555
N7 Re1 1.943788 1_555
