# generated using pymatgen
data_Tb2Ga8Fe
_symmetry_space_group_name_H-M   'P 1'
_cell_length_a   4.26671100
_cell_length_b   4.26671100
_cell_length_c   11.14687900
_cell_angle_alpha   90.00000000
_cell_angle_beta   90.00000000
_cell_angle_gamma   90.00000000
_symmetry_Int_Tables_number   1
_chemical_formula_structural   Tb2Ga8Fe
_chemical_formula_sum   'Tb2 Ga8 Fe1'
_cell_volume   202.92695649
_cell_formula_units_Z   1
loop_
 _symmetry_equiv_pos_site_id
 _symmetry_equiv_pos_as_xyz
  1  'x, y, z'
loop_
 _atom_site_type_symbol
 _atom_site_label
 _atom_site_symmetry_multiplicity
 _atom_site_fract_x
 _atom_site_fract_y
 _atom_site_fract_z
 _atom_site_occupancy
  Tb  Tb0  1  0.00000000  0.00000000  0.69624500  1
  Tb  Tb1  1  0.00000000  0.00000000  0.30375500  1
  Ga  Ga0  1  0.50000000  0.00000000  0.88595700  1
  Ga  Ga1  1  0.00000000  0.50000000  0.88595700  1
  Ga  Ga2  1  0.50000000  0.00000000  0.11404300  1
  Ga  Ga3  1  0.00000000  0.50000000  0.11404300  1
  Ga  Ga4  1  0.50000000  0.00000000  0.50000000  1
  Ga  Ga5  1  0.00000000  0.50000000  0.50000000  1
  Ga  Ga6  1  0.50000000  0.50000000  0.69819300  1
  Ga  Ga7  1  0.50000000  0.50000000  0.30180700  1
  Fe  Fe0  1  0.00000000  0.00000000  0.00000000  1
loop_
_geom_bond_atom_site_label_1
_geom_bond_atom_site_label_2
_geom_bond_distance
_geom_bond_site_symmetry_2
Ga0 Ga2 2.542447 1_556
Ga0 Ga6 2.988609 1_555
Ga0 Ga6 2.988609 1_545
Ga0 Tb0 3.003855 1_655
Ga0 Tb0 3.003855 1_555
Ga0 Ga1 3.017020 1_555
Ga0 Ga1 3.017020 1_545
Ga0 Ga1 3.017020 1_645
Ga0 Ga1 3.017020 1_655
Ga1 Ga3 2.542447 1_556
Ga1 Ga6 2.988609 1_555
Ga1 Ga6 2.988609 1_455
Ga1 Tb0 3.003855 1_565
Ga1 Tb0 3.003855 1_555
Ga2 Ga7 2.988609 1_545
Ga2 Ga7 2.988609 1_555
Ga2 Tb1 3.003855 1_555
Ga2 Tb1 3.003855 1_655
Ga2 Ga3 3.017020 1_655
Ga2 Ga3 3.017020 1_545
Ga2 Ga3 3.017020 1_555
Ga2 Ga3 3.017020 1_645
Ga3 Ga7 2.988609 1_555
Ga3 Ga7 2.988609 1_455
Ga3 Tb1 3.003855 1_555
Ga3 Tb1 3.003855 1_565
Ga4 Tb0 3.055560 1_555
Ga4 Tb0 3.055560 1_655
Ga4 Tb1 3.055560 1_555
Ga4 Tb1 3.055560 1_655
Ga5 Tb0 3.055560 1_555
Ga5 Tb1 3.055560 1_555
Ga5 Tb1 3.055560 1_565
Ga5 Tb0 3.055560 1_565
Ga6 Tb0 3.017098 1_565
Ga6 Tb0 3.017098 1_665
Ga6 Tb0 3.017098 1_655
Ga6 Tb0 3.017098 1_555
Ga7 Tb1 3.017098 1_565
Ga7 Tb1 3.017098 1_655
Ga7 Tb1 3.017098 1_665
Ga7 Tb1 3.017098 1_555
Fe0 Ga3 2.483388 1_545
Fe0 Ga2 2.483388 1_455
Fe0 Ga3 2.483388 1_555
Fe0 Ga2 2.483388 1_555
Fe0 Ga0 2.483388 1_454
Fe0 Ga1 2.483388 1_554
Fe0 Ga1 2.483388 1_544
Fe0 Ga0 2.483388 1_554
