# generated using pymatgen
data_BaScCuS3
_symmetry_space_group_name_H-M   'P 1'
_cell_length_a   7.03194976
_cell_length_b   7.03194976
_cell_length_c   9.81874900
_cell_angle_alpha   90.00000000
_cell_angle_beta   90.00000000
_cell_angle_gamma   147.70659641
_symmetry_Int_Tables_number   1
_chemical_formula_structural   BaScCuS3
_chemical_formula_sum   'Ba2 Sc2 Cu2 S6'
_cell_volume   259.39183262
_cell_formula_units_Z   2
loop_
 _symmetry_equiv_pos_site_id
 _symmetry_equiv_pos_as_xyz
  1  'x, y, z'
loop_
 _atom_site_type_symbol
 _atom_site_label
 _atom_site_symmetry_multiplicity
 _atom_site_fract_x
 _atom_site_fract_y
 _atom_site_fract_z
 _atom_site_occupancy
  Ba  Ba0  1  0.25373200  0.74626800  0.25000000  1
  Ba  Ba1  1  0.74626800  0.25373200  0.75000000  1
  Sc  Sc0  1  0.00000000  0.00000000  0.50000000  1
  Sc  Sc1  1  0.00000000  0.00000000  0.00000000  1
  Cu  Cu0  1  0.53268400  0.46731600  0.25000000  1
  Cu  Cu1  1  0.46731600  0.53268400  0.75000000  1
  S  S0  1  0.62577100  0.37422900  0.44650900  1
  S  S1  1  0.37422900  0.62577100  0.55349100  1
  S  S2  1  0.62577100  0.37422900  0.05349100  1
  S  S3  1  0.37422900  0.62577100  0.94650900  1
  S  S4  1  0.93590100  0.06409900  0.25000000  1
  S  S5  1  0.06409900  0.93590100  0.75000000  1
loop_
_geom_bond_atom_site_label_1
_geom_bond_atom_site_label_2
_geom_bond_distance
_geom_bond_site_symmetry_2
Ba0 S4 3.143324 1_455
Ba0 S4 3.143324 1_565
Ba0 S0 3.245814 1_455
Ba0 S2 3.245814 1_455
Ba0 S0 3.245814 1_565
Ba0 S2 3.245814 1_565
Ba0 S1 3.395523 1_555
Ba0 S3 3.395523 1_554
Ba1 S5 3.143324 1_545
Ba1 S5 3.143324 1_655
Ba1 S3 3.245814 1_545
Ba1 S3 3.245814 1_655
Ba1 S1 3.245814 1_545
Ba1 S1 3.245814 1_655
Ba1 S2 3.395523 1_556
Ba1 S0 3.395523 1_555
Cu0 S2 2.303091 1_555
Cu0 S0 2.303091 1_555
Cu0 S4 2.352378 1_455
Cu0 S4 2.352378 1_565
Cu1 S3 2.303091 1_555
Cu1 S1 2.303091 1_555
Cu1 S5 2.352378 1_545
Cu1 S5 2.352378 1_655
S0 Sc0 2.643272 1_555
S0 Sc0 2.643272 1_665
S1 Sc0 2.643272 1_555
S1 Sc0 2.643272 1_665
S2 Sc1 2.643272 1_555
S2 Sc1 2.643272 1_665
S3 Sc1 2.643272 1_556
S3 Sc1 2.643272 1_666
S4 Sc0 2.602942 1_655
S4 Sc1 2.602942 1_655
S5 Sc0 2.602942 1_565
S5 Sc1 2.602942 1_566
