# generated using pymatgen
data_MoW3(Se3S)2
_symmetry_space_group_name_H-M   'P 1'
_cell_length_a   3.28976296
_cell_length_b   3.28976296
_cell_length_c   37.89392700
_cell_angle_alpha   90.00000000
_cell_angle_beta   90.00000000
_cell_angle_gamma   119.99997916
_symmetry_Int_Tables_number   1
_chemical_formula_structural   MoW3(Se3S)2
_chemical_formula_sum   'Mo1 W3 Se6 S2'
_cell_volume   355.16450090
_cell_formula_units_Z   1
loop_
 _symmetry_equiv_pos_site_id
 _symmetry_equiv_pos_as_xyz
  1  'x, y, z'
loop_
 _atom_site_type_symbol
 _atom_site_label
 _atom_site_symmetry_multiplicity
 _atom_site_fract_x
 _atom_site_fract_y
 _atom_site_fract_z
 _atom_site_occupancy
  Mo  Mo0  1  0.66666700  0.33333300  0.28179900  1
  W  W0  1  0.33333300  0.66666700  0.09389300  1
  W  W1  1  0.33333300  0.66666700  0.46966700  1
  W  W2  1  0.66666700  0.33333300  0.65753500  1
  Se  Se0  1  0.33333300  0.66666700  0.32629900  1
  Se  Se1  1  0.33333300  0.66666700  0.70227500  1
  Se  Se2  1  0.66666700  0.33333300  0.04919100  1
  Se  Se3  1  0.66666700  0.33333300  0.13865700  1
  Se  Se4  1  0.33333300  0.66666700  0.23731500  1
  Se  Se5  1  0.33333300  0.66666700  0.61279200  1
  S  S0  1  0.66666700  0.33333300  0.42902200  1
  S  S1  1  0.66666700  0.33333300  0.51030500  1
loop_
_geom_bond_atom_site_label_1
_geom_bond_atom_site_label_2
_geom_bond_distance
_geom_bond_site_symmetry_2
Mo0 Se4 2.539489 1_545
Mo0 Se4 2.539489 1_655
Mo0 Se4 2.539492 1_555
Mo0 Se0 2.539891 1_545
Mo0 Se0 2.539891 1_655
Mo0 Se0 2.539895 1_555
Se1 W2 2.545938 1_455
Se1 W2 2.545938 1_565
Se1 W2 2.545942 1_555
Se2 W0 2.544980 1_545
Se2 W0 2.544980 1_655
Se2 W0 2.544983 1_555
Se3 W0 2.546544 1_545
Se3 W0 2.546544 1_655
Se3 W0 2.546548 1_555
Se5 W2 2.546014 1_455
Se5 W2 2.546014 1_565
Se5 W2 2.546018 1_555
S0 W1 2.445347 1_545
S0 W1 2.445347 1_655
S0 W1 2.445350 1_555
S1 W1 2.445179 1_545
S1 W1 2.445179 1_655
S1 W1 2.445183 1_555
