# generated using pymatgen
data_CeSe2
_symmetry_space_group_name_H-M   'P 1'
_cell_length_a   9.40930787
_cell_length_b   9.40930787
_cell_length_c   9.25650693
_cell_angle_alpha   73.68085479
_cell_angle_beta   73.68085479
_cell_angle_gamma   34.98409658
_symmetry_Int_Tables_number   1
_chemical_formula_structural   CeSe2
_chemical_formula_sum   'Ce4 Se8'
_cell_volume   449.01993816
_cell_formula_units_Z   4
loop_
 _symmetry_equiv_pos_site_id
 _symmetry_equiv_pos_as_xyz
  1  'x, y, z'
loop_
 _atom_site_type_symbol
 _atom_site_label
 _atom_site_symmetry_multiplicity
 _atom_site_fract_x
 _atom_site_fract_y
 _atom_site_fract_z
 _atom_site_occupancy
  Ce  Ce0  1  0.20502300  0.20502300  0.69556700  1
  Ce  Ce1  1  0.79497700  0.79497700  0.30443300  1
  Ce  Ce2  1  0.10570900  0.10570900  0.30379800  1
  Ce  Ce3  1  0.89429100  0.89429100  0.69620200  1
  Se  Se0  1  0.13139700  0.13139700  0.99473400  1
  Se  Se1  1  0.86860300  0.86860300  0.00526600  1
  Se  Se2  1  0.26232200  0.26232200  0.35326200  1
  Se  Se3  1  0.73767800  0.73767800  0.64673800  1
  Se  Se4  1  0.05954000  0.05954000  0.62938500  1
  Se  Se5  1  0.94046000  0.94046000  0.37061500  1
  Se  Se6  1  0.36119400  0.36119400  0.70976500  1
  Se  Se7  1  0.63880600  0.63880600  0.29023500  1
loop_
_geom_bond_atom_site_label_1
_geom_bond_atom_site_label_2
_geom_bond_distance
_geom_bond_site_symmetry_2
Ce0 Se0 2.694206 1_555
Ce0 Se6 2.844515 1_555
Ce0 Se4 2.852395 1_555
Ce0 Se3 2.896613 1_545
Ce0 Se3 2.896613 1_455
Ce0 Se2 3.029408 1_555
Ce1 Se1 2.694206 1_555
Ce1 Se7 2.844515 1_555
Ce1 Se5 2.852395 1_555
Ce1 Se2 2.896613 1_565
Ce1 Se2 2.896613 1_655
Ce1 Se3 3.029408 1_555
Ce2 Se0 2.760409 1_554
Ce2 Se5 2.845797 1_445
Ce2 Se4 2.880647 1_555
Ce2 Se7 2.885021 1_455
Ce2 Se7 2.885021 1_545
Ce2 Se2 2.978164 1_555
Ce3 Se1 2.760409 1_556
Ce3 Se4 2.845797 1_665
Ce3 Se5 2.880647 1_555
Ce3 Se6 2.885021 1_565
Ce3 Se6 2.885021 1_655
Ce3 Se3 2.978164 1_555
