# generated using pymatgen
data_Na2Zn(GeS3)2
_symmetry_space_group_name_H-M   'P 1'
_cell_length_a   7.28781564
_cell_length_b   7.28781564
_cell_length_c   11.65336099
_cell_angle_alpha   84.54828416
_cell_angle_beta   84.54828416
_cell_angle_gamma   118.88545525
_symmetry_Int_Tables_number   1
_chemical_formula_structural   Na2Zn(GeS3)2
_chemical_formula_sum   'Na4 Zn2 Ge4 S12'
_cell_volume   532.38589490
_cell_formula_units_Z   2
loop_
 _symmetry_equiv_pos_site_id
 _symmetry_equiv_pos_as_xyz
  1  'x, y, z'
loop_
 _atom_site_type_symbol
 _atom_site_label
 _atom_site_symmetry_multiplicity
 _atom_site_fract_x
 _atom_site_fract_y
 _atom_site_fract_z
 _atom_site_occupancy
  Na  Na0  1  0.74816000  0.14804400  0.98047100  1
  Na  Na1  1  0.14804400  0.74816000  0.48047100  1
  Na  Na2  1  0.33203400  0.35206300  0.11289500  1
  Na  Na3  1  0.35206300  0.33203400  0.61289500  1
  Zn  Zn0  1  0.26361400  0.75164600  0.81661100  1
  Zn  Zn1  1  0.75164600  0.26361400  0.31661100  1
  Ge  Ge0  1  0.73586000  0.68909200  0.84349800  1
  Ge  Ge1  1  0.68909200  0.73586000  0.34349800  1
  Ge  Ge2  1  0.02598100  0.74248600  0.09333900  1
  Ge  Ge3  1  0.74248600  0.02598100  0.59333900  1
  S  S0  1  0.30438700  0.96815600  0.96361600  1
  S  S1  1  0.96815600  0.30438700  0.46361600  1
  S  S2  1  0.39209900  0.50944000  0.83563700  1
  S  S3  1  0.50944000  0.39209900  0.33563700  1
  S  S4  1  0.90562400  0.52217100  0.79445700  1
  S  S5  1  0.52217100  0.90562400  0.29445700  1
  S  S6  1  0.03841800  0.89990900  0.25457600  1
  S  S7  1  0.89990900  0.03841800  0.75457600  1
  S  S8  1  0.98140200  0.42009400  0.13496700  1
  S  S9  1  0.42009400  0.98140200  0.63496700  1
  S  S10  1  0.73141000  0.73602800  0.03470300  1
  S  S11  1  0.73602800  0.73141000  0.53470300  1
loop_
_geom_bond_atom_site_label_1
_geom_bond_atom_site_label_2
_geom_bond_distance
_geom_bond_site_symmetry_2
Na0 S8 2.839989 1_556
Na0 S0 2.879283 1_545
Na0 S10 2.949768 1_546
Na0 S4 2.971754 1_555
Na0 S7 3.080769 1_555
Na1 S9 2.839989 1_555
Na1 S1 2.879283 1_455
Na1 S11 2.949768 1_455
Na1 S5 2.971754 1_555
Na1 S6 3.080769 1_555
Na2 S8 2.822250 1_455
Na2 S10 2.876626 1_555
Na2 S3 2.985211 1_555
Na2 S6 3.105784 1_545
Na2 S2 3.238583 1_554
Na2 S0 3.367720 1_544
Na3 S9 2.822250 1_545
Na3 S11 2.876626 1_555
Na3 S2 2.985211 1_555
Na3 S7 3.105784 1_455
Na3 S3 3.238583 1_555
Na3 S1 3.367720 1_455
Ge0 S4 2.188366 1_555
Ge0 S2 2.212780 1_555
Ge0 S10 2.285751 1_556
Ge0 S7 2.303721 1_565
Ge1 S5 2.188366 1_555
Ge1 S3 2.212780 1_555
Ge1 S11 2.285751 1_555
Ge1 S6 2.303721 1_655
Ge2 S0 2.197210 1_554
Ge2 S8 2.208439 1_455
Ge2 S6 2.279564 1_555
Ge2 S10 2.294562 1_455
Ge3 S1 2.197210 1_555
Ge3 S9 2.208439 1_545
Ge3 S7 2.279564 1_555
Ge3 S11 2.294562 1_545
S0 Zn0 2.381198 1_555
S1 Zn1 2.381198 1_555
S2 Zn0 2.367203 1_555
S3 Zn1 2.367203 1_555
S4 Zn0 2.380097 1_655
S5 Zn1 2.380097 1_565
S8 Zn1 2.368101 1_555
S9 Zn0 2.368101 1_555
