# generated using pymatgen
data_PmMg2
_symmetry_space_group_name_H-M   'P 1'
_cell_length_a   6.10767766
_cell_length_b   6.10767766
_cell_length_c   6.10767766
_cell_angle_alpha   60.00000000
_cell_angle_beta   60.00000000
_cell_angle_gamma   60.00000000
_symmetry_Int_Tables_number   1
_chemical_formula_structural   PmMg2
_chemical_formula_sum   'Pm2 Mg4'
_cell_volume   161.10659826
_cell_formula_units_Z   2
loop_
 _symmetry_equiv_pos_site_id
 _symmetry_equiv_pos_as_xyz
  1  'x, y, z'
loop_
 _atom_site_type_symbol
 _atom_site_label
 _atom_site_symmetry_multiplicity
 _atom_site_fract_x
 _atom_site_fract_y
 _atom_site_fract_z
 _atom_site_occupancy
  Pm  Pm0  1  0.75000000  0.75000000  0.75000000  1
  Pm  Pm1  1  0.50000000  0.50000000  0.50000000  1
  Mg  Mg0  1  0.12500000  0.12500000  0.12500000  1
  Mg  Mg1  1  0.62500000  0.12500000  0.12500000  1
  Mg  Mg2  1  0.12500000  0.62500000  0.12500000  1
  Mg  Mg3  1  0.12500000  0.12500000  0.62500000  1
loop_
_geom_bond_atom_site_label_1
_geom_bond_atom_site_label_2
_geom_bond_distance
_geom_bond_site_symmetry_2
Pm0 Pm1 3.740173 1_556
Pm0 Pm1 3.740173 1_555
Pm0 Pm1 3.740173 1_565
Pm0 Pm1 3.740173 1_655
Mg0 Mg2 3.053839 1_545
Mg0 Mg1 3.053839 1_455
Mg0 Mg3 3.053839 1_555
Mg0 Mg1 3.053839 1_555
Mg0 Mg3 3.053839 1_554
Mg0 Mg2 3.053839 1_555
Mg0 Pm0 3.580943 1_544
Mg0 Pm1 3.580943 1_554
Mg0 Pm0 3.580943 1_445
Mg0 Pm1 3.580943 1_545
Mg0 Pm1 3.580943 1_455
Mg0 Pm0 3.580943 1_454
Mg1 Mg3 3.053839 1_555
Mg1 Mg3 3.053839 1_654
Mg1 Mg2 3.053839 1_555
Mg1 Mg2 3.053839 1_645
Mg1 Pm0 3.580943 1_544
Mg1 Pm1 3.580943 1_554
Mg1 Pm0 3.580943 1_545
Mg1 Pm1 3.580943 1_545
Mg1 Pm1 3.580943 1_555
Mg1 Pm0 3.580943 1_554
Mg2 Mg3 3.053839 1_555
Mg2 Mg3 3.053839 1_564
Mg2 Pm1 3.580943 1_455
Mg2 Pm0 3.580943 1_554
Mg2 Pm1 3.580943 1_554
Mg2 Pm0 3.580943 1_455
Mg2 Pm1 3.580943 1_555
Mg2 Pm0 3.580943 1_454
Mg3 Pm1 3.580943 1_455
Mg3 Pm0 3.580943 1_545
Mg3 Pm1 3.580943 1_545
Mg3 Pm0 3.580943 1_455
Mg3 Pm0 3.580943 1_445
Mg3 Pm1 3.580943 1_555
