# generated using pymatgen
data_MgMn6O5F7
_symmetry_space_group_name_H-M   'P 1'
_cell_length_a   7.36465640
_cell_length_b   5.90472261
_cell_length_c   6.09100033
_cell_angle_alpha   77.25709352
_cell_angle_beta   72.20266742
_cell_angle_gamma   72.96887738
_symmetry_Int_Tables_number   1
_chemical_formula_structural   MgMn6O5F7
_chemical_formula_sum   'Mg1 Mn6 O5 F7'
_cell_volume   238.62723842
_cell_formula_units_Z   1
loop_
 _symmetry_equiv_pos_site_id
 _symmetry_equiv_pos_as_xyz
  1  'x, y, z'
loop_
 _atom_site_type_symbol
 _atom_site_label
 _atom_site_symmetry_multiplicity
 _atom_site_fract_x
 _atom_site_fract_y
 _atom_site_fract_z
 _atom_site_occupancy
  Mg  Mg0  1  0.66505600  0.33410700  0.81460300  1
  Mn  Mn0  1  0.86187600  0.72672100  0.61668400  1
  Mn  Mn1  1  0.67485600  0.32210100  0.32336500  1
  Mn  Mn2  1  0.33215600  0.69636200  0.64371000  1
  Mn  Mn3  1  0.15717000  0.28892400  0.34124500  1
  Mn  Mn4  1  0.51256700  0.91676500  0.08920100  1
  Mn  Mn5  1  0.00427700  0.98148800  0.01580400  1
  O  O0  1  0.62874800  0.57046500  0.52898600  1
  O  O1  1  0.95828500  0.19514300  0.24333300  1
  O  O2  1  0.71083600  0.09552700  0.09914100  1
  O  O3  1  0.04884600  0.78801800  0.77561400  1
  O  O4  1  0.32249700  0.95634500  0.39479300  1
  F  F0  1  0.65751500  0.05774100  0.67645000  1
  F  F1  1  0.37034600  0.41229900  0.91920600  1
  F  F2  1  0.29685300  0.92770600  0.92277800  1
  F  F3  1  0.37730700  0.41339100  0.40469400  1
  F  F4  1  0.67337800  0.59155500  0.98241000  1
  F  F5  1  0.95956500  0.32432600  0.69392300  1
  F  F6  1  0.02860400  0.66143500  0.28489200  1
loop_
_geom_bond_atom_site_label_1
_geom_bond_atom_site_label_2
_geom_bond_distance
_geom_bond_site_symmetry_2
Mg0 O0 2.010092 1_555
Mg0 O2 2.025794 1_556
Mn0 O3 2.055605 1_655
Mn0 O0 2.406322 1_555
Mn1 O1 1.944026 1_555
Mn1 O0 2.023160 1_555
Mn1 O2 2.025467 1_555
Mn2 O4 1.906720 1_555
Mn2 O3 1.948692 1_555
Mn2 O0 2.038873 1_555
Mn3 O1 1.990608 1_455
Mn3 O4 2.001223 1_545
Mn4 O4 1.971352 1_555
Mn4 O2 2.057925 1_565
Mn5 O3 1.943514 1_554
Mn5 O1 1.964941 1_465
Mn5 O2 2.002292 1_465
F0 Mg0 2.015346 1_555
F0 Mn0 2.115143 1_545
F0 Mn1 2.355013 1_555
F0 Mn4 2.471784 1_546
F1 Mg0 2.006820 1_555
F1 Mn2 2.116321 1_555
F1 Mn3 2.642046 1_556
F2 Mn5 1.999234 1_556
F2 Mn4 2.109738 1_556
F2 Mn2 2.317129 1_555
F3 Mn1 2.024902 1_555
F3 Mn3 2.127012 1_555
F3 Mn2 2.339567 1_555
F4 Mg0 2.034128 1_555
F4 Mn4 2.064239 1_556
F4 Mn1 2.321742 1_556
F4 Mn0 2.345376 1_555
F5 Mg0 2.053964 1_555
F5 Mn3 2.210207 1_655
F5 Mn0 2.257627 1_555
F5 Mn5 2.510699 1_646
F6 Mn0 2.071234 1_455
F6 Mn3 2.120868 1_555
F6 Mn5 2.214639 1_555
