# generated using pymatgen
data_HoMg(BO2)5
_symmetry_space_group_name_H-M   'P 1'
_cell_length_a   7.65433200
_cell_length_b   8.62461100
_cell_length_c   12.30915685
_cell_angle_alpha   49.30285205
_cell_angle_beta   90.00000000
_cell_angle_gamma   90.00000000
_symmetry_Int_Tables_number   1
_chemical_formula_structural   HoMg(BO2)5
_chemical_formula_sum   'Ho4 Mg4 B20 O40'
_cell_volume   616.08392498
_cell_formula_units_Z   4
loop_
 _symmetry_equiv_pos_site_id
 _symmetry_equiv_pos_as_xyz
  1  'x, y, z'
loop_
 _atom_site_type_symbol
 _atom_site_label
 _atom_site_symmetry_multiplicity
 _atom_site_fract_x
 _atom_site_fract_y
 _atom_site_fract_z
 _atom_site_occupancy
  Ho  Ho0  1  0.19272900  0.94753300  0.24074300  1
  Ho  Ho1  1  0.80727100  0.05246700  0.75925700  1
  Ho  Ho2  1  0.69272900  0.05246700  0.25925700  1
  Ho  Ho3  1  0.30727100  0.94753300  0.74074300  1
  Mg  Mg0  1  0.90847100  0.52822900  0.37183600  1
  Mg  Mg1  1  0.09152900  0.47177100  0.62816400  1
  Mg  Mg2  1  0.40847100  0.47177100  0.12816400  1
  Mg  Mg3  1  0.59152900  0.52822900  0.87183600  1
  B  B0  1  0.82618200  0.91197100  0.10422300  1
  B  B1  1  0.17381800  0.08802900  0.89577700  1
  B  B2  1  0.32618200  0.08802900  0.39577700  1
  B  B3  1  0.67381800  0.91197100  0.60422300  1
  B  B4  1  0.57550100  0.65925400  0.25905100  1
  B  B5  1  0.42449900  0.34074600  0.74094900  1
  B  B6  1  0.07550100  0.34074600  0.24094900  1
  B  B7  1  0.92449900  0.65925400  0.75905100  1
  B  B8  1  0.81179000  0.47632500  0.08877800  1
  B  B9  1  0.18821000  0.52367500  0.91122200  1
  B  B10  1  0.31179000  0.52367500  0.41122200  1
  B  B11  1  0.68821000  0.47632500  0.58877800  1
  B  B12  1  0.46778800  0.72203200  0.55591900  1
  B  B13  1  0.53221200  0.27796800  0.44408100  1
  B  B14  1  0.96778800  0.27796800  0.94408100  1
  B  B15  1  0.03221200  0.72203200  0.05591900  1
  B  B16  1  0.59730300  0.84472600  0.99490100  1
  B  B17  1  0.40269700  0.15527400  0.00509900  1
  B  B18  1  0.09730300  0.15527400  0.50509900  1
  B  B19  1  0.90269700  0.84472600  0.49490100  1
  O  O0  1  0.91375000  0.31074700  0.19298500  1
  O  O1  1  0.08625000  0.68925300  0.80701500  1
  O  O2  1  0.41375000  0.68925300  0.30701500  1
  O  O3  1  0.58625000  0.31074700  0.69298500  1
  O  O4  1  0.87267800  0.67270600  0.01107300  1
  O  O5  1  0.12732200  0.32729400  0.98892700  1
  O  O6  1  0.37267800  0.32729400  0.48892700  1
  O  O7  1  0.62732200  0.67270600  0.51107300  1
  O  O8  1  0.38946500  0.90604900  0.41908700  1
  O  O9  1  0.61053500  0.09395100  0.58091300  1
  O  O10  1  0.88946500  0.09395100  0.08091300  1
  O  O11  1  0.11053500  0.90604900  0.91908700  1
  O  O12  1  0.70966700  0.80468900  0.23139700  1
  O  O13  1  0.29033300  0.19531100  0.76860300  1
  O  O14  1  0.20966700  0.19531100  0.26860300  1
  O  O15  1  0.79033300  0.80468900  0.73139700  1
  O  O16  1  0.65025100  0.42224000  0.07493800  1
  O  O17  1  0.34974900  0.57776000  0.92506200  1
  O  O18  1  0.15025100  0.57776000  0.42506200  1
  O  O19  1  0.84974900  0.42224000  0.57493800  1
  O  O20  1  0.77175300  0.97146300  0.47925700  1
  O  O21  1  0.22824700  0.02853700  0.52074300  1
  O  O22  1  0.27175300  0.02853700  0.02074300  1
  O  O23  1  0.72824700  0.97146300  0.97925700  1
  O  O24  1  0.65015800  0.45355400  0.36545300  1
  O  O25  1  0.34984200  0.54644600  0.63454700  1
  O  O26  1  0.15015800  0.54644600  0.13454700  1
  O  O27  1  0.84984200  0.45355400  0.86545300  1
  O  O28  1  0.52846400  0.68932000  0.12773900  1
  O  O29  1  0.47153600  0.31068000  0.87226100  1
  O  O30  1  0.02846400  0.31068000  0.37226100  1
  O  O31  1  0.97153600  0.68932000  0.62773900  1
  O  O32  1  0.95185600  0.88230200  0.37410800  1
  O  O33  1  0.04814400  0.11769800  0.62589200  1
  O  O34  1  0.45185600  0.11769800  0.12589200  1
  O  O35  1  0.54814400  0.88230200  0.87410800  1
  O  O36  1  0.97182800  0.76639600  0.14890400  1
  O  O37  1  0.02817200  0.23360400  0.85109600  1
  O  O38  1  0.47182800  0.23360400  0.35109600  1
  O  O39  1  0.52817200  0.76639600  0.64890400  1
loop_
_geom_bond_atom_site_label_1
_geom_bond_atom_site_label_2
_geom_bond_distance
_geom_bond_site_symmetry_2
Ho0 O32 2.281726 1_455
Ho0 O34 2.319645 1_565
Ho0 O14 2.378414 1_565
Ho0 O22 2.391660 1_565
Ho0 O18 2.447002 1_555
Ho0 O2 2.473823 1_555
Ho0 O8 2.488088 1_555
Ho0 O5 2.710391 1_564
Ho0 O10 2.759279 1_465
Ho0 O36 2.980039 1_455
Ho1 O33 2.281726 1_655
Ho1 O35 2.319645 1_545
Ho1 O15 2.378414 1_545
Ho1 O23 2.391660 1_545
Ho1 O19 2.447002 1_555
Ho1 O3 2.473823 1_555
Ho1 O9 2.488088 1_555
Ho1 O4 2.710391 1_546
Ho1 O11 2.759279 1_645
Ho1 O37 2.980039 1_655
Ho2 O34 2.281726 1_555
Ho2 O32 2.319645 1_545
Ho2 O12 2.378414 1_545
Ho2 O20 2.391660 1_545
Ho2 O16 2.447002 1_555
Ho2 O0 2.473823 1_555
Ho2 O10 2.488088 1_555
Ho2 O7 2.710391 1_545
Ho2 O8 2.759279 1_545
Ho2 O38 2.980039 1_555
Ho3 O35 2.281726 1_555
Ho3 O33 2.319645 1_565
Ho3 O13 2.378414 1_565
Ho3 O21 2.391660 1_565
Ho3 O17 2.447002 1_555
Ho3 O1 2.473823 1_555
Ho3 O11 2.488088 1_555
Ho3 O6 2.710391 1_565
Ho3 O9 2.759279 1_565
Ho3 O39 2.980039 1_555
Mg0 O19 2.075428 1_555
Mg0 O30 2.085957 1_655
Mg0 O24 2.096742 1_555
Mg0 O18 2.098019 1_655
Mg0 O36 2.152608 1_555
Mg0 O12 2.369345 1_555
Mg1 O18 2.075428 1_555
Mg1 O31 2.085957 1_455
Mg1 O25 2.096742 1_555
Mg1 O19 2.098019 1_455
Mg1 O37 2.152608 1_555
Mg1 O13 2.369345 1_555
Mg2 O17 2.075428 1_554
Mg2 O28 2.085957 1_555
Mg2 O26 2.096742 1_555
Mg2 O16 2.098019 1_555
Mg2 O38 2.152608 1_555
Mg2 O14 2.369345 1_555
Mg3 O16 2.075428 1_556
Mg3 O29 2.085957 1_555
Mg3 O27 2.096742 1_555
Mg3 O17 2.098019 1_555
Mg3 O39 2.152608 1_555
Mg3 O15 2.369345 1_555
B0 O23 1.470395 1_554
B0 O10 1.480886 1_565
B0 O12 1.487644 1_555
B0 O36 1.490349 1_555
B1 O22 1.470395 1_556
B1 O11 1.480886 1_545
B1 O13 1.487644 1_555
B1 O37 1.490349 1_555
B2 O21 1.470395 1_555
B2 O8 1.480886 1_545
B2 O14 1.487644 1_555
B2 O38 1.490349 1_555
B3 O20 1.470395 1_555
B3 O9 1.480886 1_565
B3 O15 1.487644 1_555
B3 O39 1.490349 1_555
B4 O2 1.465469 1_555
B4 O24 1.469386 1_555
B4 O12 1.478851 1_555
B4 O28 1.504269 1_555
B5 O3 1.465469 1_555
B5 O25 1.469386 1_555
B5 O13 1.478851 1_555
B5 O29 1.504269 1_555
B6 O0 1.465469 1_455
B6 O26 1.469386 1_555
B6 O14 1.478851 1_555
B6 O30 1.504269 1_555
B7 O1 1.465469 1_655
B7 O27 1.469386 1_555
B7 O15 1.478851 1_555
B7 O31 1.504269 1_555
B8 O16 1.370806 1_555
B8 O4 1.374059 1_555
B8 O0 1.380175 1_555
B9 O17 1.370806 1_555
B9 O5 1.374059 1_555
B9 O1 1.380175 1_555
B10 O18 1.370806 1_555
B10 O6 1.374059 1_555
B10 O2 1.380175 1_555
B11 O19 1.370806 1_555
B11 O7 1.374059 1_555
B11 O3 1.380175 1_555
B12 O25 1.460702 1_555
B12 O8 1.492986 1_555
B12 O39 1.497058 1_555
B12 O7 1.510996 1_555
B13 O24 1.460702 1_555
B13 O9 1.492986 1_555
B13 O38 1.497058 1_555
B13 O6 1.510996 1_555
B14 O27 1.460702 1_555
B14 O10 1.492986 1_556
B14 O37 1.497058 1_655
B14 O5 1.510996 1_655
B15 O26 1.460702 1_555
B15 O11 1.492986 1_554
B15 O36 1.497058 1_455
B15 O4 1.510996 1_455
B16 O35 1.352391 1_555
B16 O28 1.374638 1_556
B16 O23 1.400693 1_555
B17 O34 1.352391 1_555
B17 O29 1.374638 1_554
B17 O22 1.400693 1_555
B18 O33 1.352391 1_555
B18 O30 1.374638 1_555
B18 O21 1.400693 1_555
B19 O32 1.352391 1_555
B19 O31 1.374638 1_555
B19 O20 1.400693 1_555
