# generated using pymatgen
data_Pr(ZnAs)3
_symmetry_space_group_name_H-M   'P 1'
_cell_length_a   4.16049583
_cell_length_b   4.17412515
_cell_length_c   20.51050798
_cell_angle_alpha   90.00000000
_cell_angle_beta   90.00000000
_cell_angle_gamma   119.88387342
_symmetry_Int_Tables_number   1
_chemical_formula_structural   Pr(ZnAs)3
_chemical_formula_sum   'Pr2 Zn6 As6'
_cell_volume   308.83365054
_cell_formula_units_Z   2
loop_
 _symmetry_equiv_pos_site_id
 _symmetry_equiv_pos_as_xyz
  1  'x, y, z'
loop_
 _atom_site_type_symbol
 _atom_site_label
 _atom_site_symmetry_multiplicity
 _atom_site_fract_x
 _atom_site_fract_y
 _atom_site_fract_z
 _atom_site_occupancy
  Pr  Pr0  1  0.01518436  0.00166697  0.50011087  1
  Pr  Pr1  1  0.01518436  0.00166697  0.99988913  1
  Zn  Zn0  1  0.68900660  0.33714178  0.13116223  1
  Zn  Zn1  1  0.35498701  0.66770749  0.86863492  1
  Zn  Zn2  1  0.35498701  0.66770749  0.63136508  1
  Zn  Zn3  1  0.68900660  0.33714178  0.36883777  1
  Zn  Zn4  1  0.59798528  0.38628657  0.75000000  1
  Zn  Zn5  1  0.21353447  0.60077439  0.25000000  1
  As  As0  1  0.68516647  0.33507233  0.58949321  1
  As  As1  1  0.35185598  0.66932808  0.41077406  1
  As  As2  1  0.35185598  0.66932808  0.08922594  1
  As  As3  1  0.68516647  0.33507233  0.91050679  1
  As  As4  1  0.26094755  0.72507684  0.75000000  1
  As  As5  1  0.53802887  0.26212688  0.25000000  1
loop_
_geom_bond_atom_site_label_1
_geom_bond_atom_site_label_2
_geom_bond_distance
_geom_bond_site_symmetry_2
As0 Zn2 2.540297 1_555
As0 Zn2 2.563457 1_545
As0 Zn2 2.564333 1_655
As0 Pr0 3.014467 1_655
As0 Pr0 3.030045 1_665
As0 Pr0 3.033476 1_555
As1 Zn3 2.541130 1_455
As1 Zn3 2.562853 1_555
As1 Zn3 2.565428 1_565
As1 Pr0 3.013843 1_665
As1 Pr0 3.029881 1_565
As1 Pr0 3.032550 1_555
As2 Zn0 2.541130 1_455
As2 Zn0 2.562853 1_555
As2 Zn0 2.565428 1_565
As2 Pr1 3.013843 1_664
As2 Pr1 3.029881 1_564
As2 Pr1 3.032550 1_554
As3 Zn1 2.540297 1_555
As3 Zn1 2.563457 1_545
As3 Zn1 2.564333 1_655
As3 Pr1 3.014467 1_655
As3 Pr1 3.030045 1_665
As3 Pr1 3.033476 1_555
As4 Zn4 2.391839 1_455
As4 Zn4 2.393152 1_565
As4 Zn4 2.437650 1_555
As4 Zn2 2.494905 1_555
As4 Zn1 2.494905 1_555
As5 Zn5 2.392170 1_555
As5 Zn5 2.393649 1_545
As5 Zn5 2.436790 1_655
As5 Zn3 2.497528 1_555
As5 Zn0 2.497528 1_555
