# generated using pymatgen
data_MnNb4FeO12
_symmetry_space_group_name_H-M   'P 1'
_cell_length_a   5.13574700
_cell_length_b   5.87841900
_cell_length_c   14.55731500
_cell_angle_alpha   90.00000000
_cell_angle_beta   90.00000000
_cell_angle_gamma   90.00000000
_symmetry_Int_Tables_number   1
_chemical_formula_structural   MnNb4FeO12
_chemical_formula_sum   'Mn2 Nb8 Fe2 O24'
_cell_volume   439.48639881
_cell_formula_units_Z   2
loop_
 _symmetry_equiv_pos_site_id
 _symmetry_equiv_pos_as_xyz
  1  'x, y, z'
loop_
 _atom_site_type_symbol
 _atom_site_label
 _atom_site_symmetry_multiplicity
 _atom_site_fract_x
 _atom_site_fract_y
 _atom_site_fract_z
 _atom_site_occupancy
  Mn  Mn0  1  0.50000000  0.07794400  0.00000000  1
  Mn  Mn1  1  0.00000000  0.92205600  0.50000000  1
  Nb  Nb0  1  0.00521300  0.43033500  0.66196700  1
  Nb  Nb1  1  0.50521300  0.56966500  0.83803300  1
  Nb  Nb2  1  0.49478700  0.56966500  0.16196700  1
  Nb  Nb3  1  0.99478700  0.43033500  0.33803300  1
  Nb  Nb4  1  0.49340800  0.06933800  0.33776000  1
  Nb  Nb5  1  0.99340800  0.93066200  0.16224000  1
  Nb  Nb6  1  0.00659200  0.93066200  0.83776000  1
  Nb  Nb7  1  0.50659200  0.06933800  0.66224000  1
  Fe  Fe0  1  0.00000000  0.42101600  0.00000000  1
  Fe  Fe1  1  0.50000000  0.57898400  0.50000000  1
  O  O0  1  0.15619600  0.62959500  0.58124200  1
  O  O1  1  0.65619600  0.37040500  0.91875800  1
  O  O2  1  0.34380400  0.37040500  0.08124200  1
  O  O3  1  0.84380400  0.62959500  0.41875800  1
  O  O4  1  0.34757100  0.86754600  0.41976100  1
  O  O5  1  0.84757100  0.13245400  0.08023900  1
  O  O6  1  0.15242900  0.13245400  0.91976100  1
  O  O7  1  0.65242900  0.86754600  0.58023900  1
  O  O8  1  0.16545900  0.62319000  0.24544900  1
  O  O9  1  0.66545900  0.37681000  0.25455100  1
  O  O10  1  0.33454100  0.37681000  0.74544900  1
  O  O11  1  0.83454100  0.62319000  0.75455100  1
  O  O12  1  0.33480100  0.87668800  0.75536700  1
  O  O13  1  0.83480100  0.12331200  0.74463300  1
  O  O14  1  0.16519900  0.12331200  0.25536700  1
  O  O15  1  0.66519900  0.87668800  0.24463300  1
  O  O16  1  0.18335400  0.64805900  0.90238200  1
  O  O17  1  0.68335400  0.35194100  0.59761800  1
  O  O18  1  0.31664600  0.35194100  0.40238200  1
  O  O19  1  0.81664600  0.64805900  0.09761800  1
  O  O20  1  0.31466800  0.85281800  0.09934500  1
  O  O21  1  0.81466800  0.14718200  0.40065500  1
  O  O22  1  0.18533200  0.14718200  0.59934500  1
  O  O23  1  0.68533200  0.85281800  0.90065500  1
loop_
_geom_bond_atom_site_label_1
_geom_bond_atom_site_label_2
_geom_bond_distance
_geom_bond_site_symmetry_2
Mn0 O6 2.157176 1_554
Mn0 O5 2.157176 1_555
Mn0 O23 2.179172 1_544
Mn0 O20 2.179172 1_545
Mn0 O2 2.235592 1_555
Mn0 O1 2.235592 1_554
Mn1 O7 2.157176 1_455
Mn1 O4 2.157176 1_555
Mn1 O22 2.179172 1_565
Mn1 O21 2.179172 1_465
Mn1 O3 2.235592 1_455
Mn1 O0 2.235592 1_555
Nb0 O0 1.831457 1_555
Nb0 O17 1.955052 1_455
Nb0 O11 1.967240 1_455
Nb0 O10 2.106309 1_555
Nb0 O22 2.111225 1_555
Nb0 O13 2.339115 1_455
Nb1 O1 1.831457 1_555
Nb1 O16 1.955052 1_555
Nb1 O10 1.967240 1_555
Nb1 O11 2.106309 1_555
Nb1 O23 2.111225 1_555
Nb1 O12 2.339115 1_555
Nb2 O2 1.831457 1_555
Nb2 O19 1.955052 1_555
Nb2 O9 1.967240 1_555
Nb2 O8 2.106309 1_555
Nb2 O20 2.111225 1_555
Nb2 O15 2.339115 1_555
Nb3 O3 1.831457 1_555
Nb3 O18 1.955052 1_655
Nb3 O8 1.967240 1_655
Nb3 O9 2.106309 1_555
Nb3 O21 2.111225 1_555
Nb3 O14 2.339115 1_655
Nb4 O4 1.842021 1_545
Nb4 O21 1.941621 1_555
Nb4 O15 1.974533 1_545
Nb4 O14 2.092969 1_555
Nb4 O18 2.113965 1_555
Nb4 O9 2.348380 1_555
Nb5 O5 1.842021 1_565
Nb5 O20 1.941621 1_655
Nb5 O14 1.974533 1_665
Nb5 O15 2.092969 1_555
Nb5 O19 2.113965 1_555
Nb5 O8 2.348380 1_655
Nb6 O6 1.842021 1_565
Nb6 O23 1.941621 1_455
Nb6 O13 1.974533 1_465
Nb6 O12 2.092969 1_555
Nb6 O16 2.113965 1_555
Nb6 O11 2.348380 1_455
Nb7 O7 1.842021 1_545
Nb7 O22 1.941621 1_555
Nb7 O12 1.974533 1_545
Nb7 O13 2.092969 1_555
Nb7 O17 2.113965 1_555
Nb7 O10 2.348380 1_555
Fe0 O2 2.145897 1_555
Fe0 O1 2.145897 1_454
Fe0 O16 2.165046 1_554
Fe0 O19 2.165046 1_455
Fe0 O6 2.203316 1_554
Fe0 O5 2.203316 1_455
Fe1 O3 2.145897 1_555
Fe1 O0 2.145897 1_555
Fe1 O17 2.165046 1_555
Fe1 O18 2.165046 1_555
Fe1 O4 2.203316 1_555
Fe1 O7 2.203316 1_555
