# generated using pymatgen
data_LaNi5H7
_symmetry_space_group_name_H-M   'P 1'
_cell_length_a   5.38345351
_cell_length_b   5.38345351
_cell_length_c   8.61610300
_cell_angle_alpha   89.99919348
_cell_angle_beta   89.99919348
_cell_angle_gamma   119.84481632
_symmetry_Int_Tables_number   1
_chemical_formula_structural   LaNi5H7
_chemical_formula_sum   'La2 Ni10 H14'
_cell_volume   216.59102009
_cell_formula_units_Z   2
loop_
 _symmetry_equiv_pos_site_id
 _symmetry_equiv_pos_as_xyz
  1  'x, y, z'
loop_
 _atom_site_type_symbol
 _atom_site_label
 _atom_site_symmetry_multiplicity
 _atom_site_fract_x
 _atom_site_fract_y
 _atom_site_fract_z
 _atom_site_occupancy
  La  La0  1  0.00009300  0.00009700  0.46902200  1
  La  La1  1  0.00009700  0.00009300  0.96902200  1
  Ni  Ni0  1  0.00271300  0.50671700  0.24749400  1
  Ni  Ni1  1  0.50424700  0.99730600  0.24746500  1
  Ni  Ni2  1  0.49314300  0.49574800  0.24749200  1
  Ni  Ni3  1  0.50671700  0.00271300  0.74749400  1
  Ni  Ni4  1  0.99730600  0.50424700  0.74746500  1
  Ni  Ni5  1  0.49574800  0.49314300  0.74749200  1
  Ni  Ni6  1  0.66662800  0.33317300  0.49248700  1
  Ni  Ni7  1  0.33317300  0.66662800  0.99248700  1
  Ni  Ni8  1  0.66677700  0.33343800  0.01470700  1
  Ni  Ni9  1  0.33343800  0.66677700  0.51470700  1
  H  H0  1  0.00977000  0.51406400  0.43871300  1
  H  H1  1  0.50436500  0.99027300  0.43876600  1
  H  H2  1  0.48581300  0.49556000  0.43862300  1
  H  H3  1  0.51406400  0.00977000  0.93871300  1
  H  H4  1  0.99027300  0.50436500  0.93876600  1
  H  H5  1  0.49556000  0.48581300  0.93862300  1
  H  H6  1  0.66673000  0.33335000  0.67993700  1
  H  H7  1  0.33335000  0.66673000  0.17993700  1
  H  H8  1  0.32546100  0.15747300  0.21005800  1
  H  H9  1  0.83159000  0.67450600  0.21002800  1
  H  H10  1  0.84252000  0.16798700  0.21002700  1
  H  H11  1  0.15747300  0.32546200  0.71005800  1
  H  H12  1  0.67450600  0.83159000  0.71002800  1
  H  H13  1  0.16798700  0.84252000  0.71002700  1
loop_
_geom_bond_atom_site_label_1
_geom_bond_atom_site_label_2
_geom_bond_distance
_geom_bond_site_symmetry_2
H0 Ni9 1.647730 1_555
H0 Ni0 1.648023 1_555
H0 Ni6 1.668817 1_455
H0 La0 2.655722 1_565
H0 La0 2.753771 1_555
H1 Ni9 1.647036 1_555
H1 Ni1 1.648711 1_555
H1 Ni6 1.667347 1_565
H1 La0 2.655637 1_665
H1 La0 2.753791 1_565
H2 Ni9 1.644628 1_555
H2 Ni2 1.647265 1_555
H2 Ni6 1.665565 1_555
H2 La0 2.660575 1_555
H2 La0 2.761638 1_665
H3 Ni8 1.647730 1_556
H3 Ni3 1.648023 1_555
H3 Ni7 1.668817 1_545
H3 La1 2.655722 1_655
H3 La1 2.753771 1_555
H4 Ni8 1.647036 1_556
H4 Ni4 1.648711 1_555
H4 Ni7 1.667347 1_655
H4 La1 2.655637 1_665
H4 La1 2.753791 1_655
H5 Ni8 1.644628 1_556
H5 Ni5 1.647265 1_555
H5 Ni7 1.665565 1_555
H5 La1 2.660575 1_555
H5 La1 2.761638 1_665
H6 Ni6 1.615089 1_555
H6 Ni5 1.647478 1_555
H6 Ni4 1.650002 1_555
H6 Ni3 1.650152 1_555
H7 Ni7 1.615089 1_554
H7 Ni2 1.647478 1_555
H7 Ni1 1.650002 1_555
H7 Ni0 1.650152 1_555
H8 Ni2 1.612174 1_555
H8 Ni1 1.612373 1_545
H8 La1 2.573329 1_554
H8 La0 2.699487 1_555
H9 Ni0 1.611530 1_655
H9 Ni2 1.613951 1_555
H9 La1 2.573796 1_664
H9 La0 2.700462 1_665
H10 Ni1 1.612201 1_545
H10 Ni0 1.614938 1_655
H10 La1 2.571317 1_654
H10 La0 2.698020 1_655
H11 Ni5 1.612174 1_555
H11 Ni4 1.612368 1_455
H11 La0 2.573332 1_555
H11 La1 2.699490 1_555
H12 Ni3 1.611530 1_565
H12 Ni5 1.613951 1_555
H12 La0 2.573796 1_665
H12 La1 2.700462 1_665
H13 Ni4 1.612201 1_455
H13 Ni3 1.614938 1_565
H13 La0 2.571317 1_565
H13 La1 2.698020 1_565
