# generated using pymatgen
data_YbZnIn
_symmetry_space_group_name_H-M   'P 1'
_cell_length_a   9.17579855
_cell_length_b   9.17579855
_cell_length_c   7.07136394
_cell_angle_alpha   90.00000000
_cell_angle_beta   90.00000000
_cell_angle_gamma   119.99999404
_symmetry_Int_Tables_number   1
_chemical_formula_structural   YbZnIn
_chemical_formula_sum   'Yb8 Zn8 In8'
_cell_volume   515.61030333
_cell_formula_units_Z   8
loop_
 _symmetry_equiv_pos_site_id
 _symmetry_equiv_pos_as_xyz
  1  'x, y, z'
loop_
 _atom_site_type_symbol
 _atom_site_label
 _atom_site_symmetry_multiplicity
 _atom_site_fract_x
 _atom_site_fract_y
 _atom_site_fract_z
 _atom_site_occupancy
  Yb  Yb0_0  1  0.16666650  0.33333350  0.00000000  1
  Yb  Yb0_1  1  0.16666650  0.33333350  0.50000000  1
  Yb  Yb0_2  1  0.16666650  0.83333350  0.00000000  1
  Yb  Yb0_3  1  0.16666650  0.83333350  0.50000000  1
  Yb  Yb0_4  1  0.66666650  0.33333350  0.00000000  1
  Yb  Yb0_5  1  0.66666650  0.33333350  0.50000000  1
  Yb  Yb0_6  1  0.66666650  0.83333350  0.00000000  1
  Yb  Yb0_7  1  0.66666650  0.83333350  0.50000000  1
  Zn  Zn0_0  1  0.00000000  0.00000000  0.25000000  1
  Zn  Zn0_1  1  0.00000000  0.00000000  0.75000000  1
  Zn  Zn0_2  1  0.00000000  0.50000000  0.25000000  1
  Zn  Zn0_3  1  0.00000000  0.50000000  0.75000000  1
  Zn  Zn0_4  1  0.50000000  0.00000000  0.25000000  1
  Zn  Zn0_5  1  0.50000000  0.00000000  0.75000000  1
  Zn  Zn0_6  1  0.50000000  0.50000000  0.25000000  1
  Zn  Zn0_7  1  0.50000000  0.50000000  0.75000000  1
  In  In0_0  1  0.33333350  0.16666650  0.25000000  1
  In  In0_1  1  0.33333350  0.16666650  0.75000000  1
  In  In0_2  1  0.33333350  0.66666650  0.25000000  1
  In  In0_3  1  0.33333350  0.66666650  0.75000000  1
  In  In0_4  1  0.83333350  0.16666650  0.25000000  1
  In  In0_5  1  0.83333350  0.16666650  0.75000000  1
  In  In0_6  1  0.83333350  0.66666650  0.25000000  1
  In  In0_7  1  0.83333350  0.66666650  0.75000000  1
loop_
_geom_bond_atom_site_label_1
_geom_bond_atom_site_label_2
_geom_bond_distance
_geom_bond_site_symmetry_2
Yb0_0 Zn0_3 3.184575 1_554
Yb0_0 Zn0_2 3.184575 1_555
Yb0_0 Zn0_1 3.184579 1_554
Yb0_0 Zn0_0 3.184579 1_555
Yb0_0 Zn0_7 3.184579 1_554
Yb0_0 Zn0_6 3.184579 1_555
Yb0_0 Yb0_1 3.535682 1_555
Yb0_0 Yb0_1 3.535682 1_554
Yb0_1 Zn0_2 3.184575 1_555
Yb0_1 Zn0_3 3.184575 1_555
Yb0_1 Zn0_0 3.184579 1_555
Yb0_1 Zn0_1 3.184579 1_555
Yb0_1 Zn0_6 3.184579 1_555
Yb0_1 Zn0_7 3.184579 1_555
Yb0_2 Zn0_1 3.184575 1_564
Yb0_2 Zn0_0 3.184575 1_565
Yb0_2 Zn0_3 3.184579 1_554
Yb0_2 Zn0_2 3.184579 1_555
Yb0_2 Zn0_5 3.184579 1_564
Yb0_2 Zn0_4 3.184579 1_565
Yb0_2 Yb0_3 3.535682 1_555
Yb0_2 Yb0_3 3.535682 1_554
Yb0_3 Zn0_0 3.184575 1_565
Yb0_3 Zn0_1 3.184575 1_565
Yb0_3 Zn0_2 3.184579 1_555
Yb0_3 Zn0_3 3.184579 1_555
Yb0_3 Zn0_4 3.184579 1_565
Yb0_3 Zn0_5 3.184579 1_565
Yb0_4 Zn0_7 3.184575 1_554
Yb0_4 Zn0_6 3.184575 1_555
Yb0_4 Zn0_5 3.184579 1_554
Yb0_4 Zn0_4 3.184579 1_555
Yb0_4 Zn0_2 3.184579 1_655
Yb0_4 Zn0_3 3.184579 1_654
Yb0_4 Yb0_5 3.535682 1_554
Yb0_4 Yb0_5 3.535682 1_555
Yb0_5 Zn0_6 3.184575 1_555
Yb0_5 Zn0_7 3.184575 1_555
Yb0_5 Zn0_4 3.184579 1_555
Yb0_5 Zn0_5 3.184579 1_555
Yb0_5 Zn0_2 3.184579 1_655
Yb0_5 Zn0_3 3.184579 1_655
Yb0_6 Zn0_5 3.184575 1_564
Yb0_6 Zn0_4 3.184575 1_565
Yb0_6 Zn0_7 3.184579 1_554
Yb0_6 Zn0_6 3.184579 1_555
Yb0_6 Zn0_1 3.184579 1_664
Yb0_6 Zn0_0 3.184579 1_665
Yb0_6 Yb0_7 3.535682 1_555
Yb0_6 Yb0_7 3.535682 1_554
Yb0_7 Zn0_4 3.184575 1_565
Yb0_7 Zn0_5 3.184575 1_565
Yb0_7 Zn0_6 3.184579 1_555
Yb0_7 Zn0_7 3.184579 1_555
Yb0_7 Zn0_0 3.184579 1_665
Yb0_7 Zn0_1 3.184579 1_665
In0_0 Zn0_4 2.648822 1_555
In0_0 Zn0_0 2.648826 1_555
In0_0 Zn0_6 2.648826 1_555
In0_0 Yb0_5 3.184576 1_555
In0_0 Yb0_4 3.184576 1_555
In0_0 Yb0_2 3.184576 1_545
In0_0 Yb0_3 3.184576 1_545
In0_0 Yb0_0 3.184582 1_555
In0_0 Yb0_1 3.184582 1_555
In0_1 Zn0_5 2.648822 1_555
In0_1 Zn0_1 2.648826 1_555
In0_1 Zn0_7 2.648826 1_555
In0_1 Yb0_4 3.184576 1_556
In0_1 Yb0_5 3.184576 1_555
In0_1 Yb0_2 3.184576 1_546
In0_1 Yb0_3 3.184576 1_545
In0_1 Yb0_0 3.184582 1_556
In0_1 Yb0_1 3.184582 1_555
In0_2 Zn0_6 2.648822 1_555
In0_2 Zn0_2 2.648826 1_555
In0_2 Zn0_4 2.648826 1_565
In0_2 Yb0_1 3.184576 1_555
In0_2 Yb0_0 3.184576 1_555
In0_2 Yb0_6 3.184576 1_555
In0_2 Yb0_7 3.184576 1_555
In0_2 Yb0_2 3.184582 1_555
In0_2 Yb0_3 3.184582 1_555
In0_3 Zn0_7 2.648822 1_555
In0_3 Zn0_3 2.648826 1_555
In0_3 Zn0_5 2.648826 1_565
In0_3 Yb0_0 3.184576 1_556
In0_3 Yb0_6 3.184576 1_556
In0_3 Yb0_1 3.184576 1_555
In0_3 Yb0_7 3.184576 1_555
In0_3 Yb0_2 3.184582 1_556
In0_3 Yb0_3 3.184582 1_555
In0_4 Zn0_0 2.648822 1_655
In0_4 Zn0_4 2.648826 1_555
In0_4 Zn0_2 2.648826 1_655
In0_4 Yb0_7 3.184576 1_545
In0_4 Yb0_6 3.184576 1_545
In0_4 Yb0_1 3.184576 1_655
In0_4 Yb0_0 3.184576 1_655
In0_4 Yb0_5 3.184582 1_555
In0_4 Yb0_4 3.184582 1_555
In0_5 Zn0_1 2.648822 1_655
In0_5 Zn0_5 2.648826 1_555
In0_5 Zn0_3 2.648826 1_655
In0_5 Yb0_6 3.184576 1_546
In0_5 Yb0_7 3.184576 1_545
In0_5 Yb0_0 3.184576 1_656
In0_5 Yb0_1 3.184576 1_655
In0_5 Yb0_4 3.184582 1_556
In0_5 Yb0_5 3.184582 1_555
In0_6 Zn0_2 2.648822 1_655
In0_6 Zn0_6 2.648826 1_555
In0_6 Zn0_0 2.648826 1_665
In0_6 Yb0_3 3.184576 1_655
In0_6 Yb0_2 3.184576 1_655
In0_6 Yb0_5 3.184576 1_555
In0_6 Yb0_4 3.184576 1_555
In0_6 Yb0_7 3.184582 1_555
In0_6 Yb0_6 3.184582 1_555
In0_7 Zn0_3 2.648822 1_655
In0_7 Zn0_7 2.648826 1_555
In0_7 Zn0_1 2.648826 1_665
In0_7 Yb0_2 3.184576 1_656
In0_7 Yb0_3 3.184576 1_655
In0_7 Yb0_4 3.184576 1_556
In0_7 Yb0_5 3.184576 1_555
In0_7 Yb0_6 3.184582 1_556
In0_7 Yb0_7 3.184582 1_555
