# generated using pymatgen
data_CeMg
_symmetry_space_group_name_H-M   'P 1'
_cell_length_a   13.42802294
_cell_length_b   13.42802294
_cell_length_c   15.30579000
_cell_angle_alpha   76.16426747
_cell_angle_beta   76.16426747
_cell_angle_gamma   27.30774492
_symmetry_Int_Tables_number   1
_chemical_formula_structural   CeMg
_chemical_formula_sum   'Ce24 Mg24'
_cell_volume   1227.18099570
_cell_formula_units_Z   24
loop_
 _symmetry_equiv_pos_site_id
 _symmetry_equiv_pos_as_xyz
  1  'x, y, z'
loop_
 _atom_site_type_symbol
 _atom_site_label
 _atom_site_symmetry_multiplicity
 _atom_site_fract_x
 _atom_site_fract_y
 _atom_site_fract_z
 _atom_site_occupancy
  Ce  Ce0_0  1  0.33306300  0.33306300  0.32758800  1
  Ce  Ce0_1  1  0.33306300  0.33306300  0.82758800  1
  Ce  Ce0_2  1  0.33306300  0.83306300  0.32758800  1
  Ce  Ce0_3  1  0.33306300  0.83306300  0.82758800  1
  Ce  Ce0_4  1  0.83306300  0.33306300  0.32758800  1
  Ce  Ce0_5  1  0.83306300  0.33306300  0.82758800  1
  Ce  Ce0_6  1  0.83306300  0.83306300  0.32758800  1
  Ce  Ce0_7  1  0.83306300  0.83306300  0.82758800  1
  Ce  Ce1_0  1  0.03940650  0.03940650  0.19602850  1
  Ce  Ce1_1  1  0.03940650  0.03940650  0.69602850  1
  Ce  Ce1_2  1  0.03940650  0.53940650  0.19602850  1
  Ce  Ce1_3  1  0.03940650  0.53940650  0.69602850  1
  Ce  Ce1_4  1  0.53940650  0.03940650  0.19602850  1
  Ce  Ce1_5  1  0.53940650  0.03940650  0.69602850  1
  Ce  Ce1_6  1  0.53940650  0.53940650  0.19602850  1
  Ce  Ce1_7  1  0.53940650  0.53940650  0.69602850  1
  Ce  Ce2_0  1  0.34967500  0.34967500  0.03519250  1
  Ce  Ce2_1  1  0.34967500  0.34967500  0.53519250  1
  Ce  Ce2_2  1  0.34967500  0.84967500  0.03519250  1
  Ce  Ce2_3  1  0.34967500  0.84967500  0.53519250  1
  Ce  Ce2_4  1  0.84967500  0.34967500  0.03519250  1
  Ce  Ce2_5  1  0.84967500  0.34967500  0.53519250  1
  Ce  Ce2_6  1  0.84967500  0.84967500  0.03519250  1
  Ce  Ce2_7  1  0.84967500  0.84967500  0.53519250  1
  Mg  Mg0_0  1  0.49212700  0.49212700  0.00052600  1
  Mg  Mg0_1  1  0.49212700  0.49212700  0.50052600  1
  Mg  Mg0_2  1  0.49212700  0.99212700  0.00052600  1
  Mg  Mg0_3  1  0.49212700  0.99212700  0.50052600  1
  Mg  Mg0_4  1  0.99212700  0.49212700  0.00052600  1
  Mg  Mg0_5  1  0.99212700  0.49212700  0.50052600  1
  Mg  Mg0_6  1  0.99212700  0.99212700  0.00052600  1
  Mg  Mg0_7  1  0.99212700  0.99212700  0.50052600  1
  Mg  Mg1_0  1  0.19502600  0.19502600  0.36060600  1
  Mg  Mg1_1  1  0.19502600  0.19502600  0.86060600  1
  Mg  Mg1_2  1  0.19502600  0.69502600  0.36060600  1
  Mg  Mg1_3  1  0.19502600  0.69502600  0.86060600  1
  Mg  Mg1_4  1  0.69502600  0.19502600  0.36060600  1
  Mg  Mg1_5  1  0.69502600  0.19502600  0.86060600  1
  Mg  Mg1_6  1  0.69502600  0.69502600  0.36060600  1
  Mg  Mg1_7  1  0.69502600  0.69502600  0.86060600  1
  Mg  Mg2_0  1  0.17403650  0.17403650  0.16339300  1
  Mg  Mg2_1  1  0.17403650  0.17403650  0.66339300  1
  Mg  Mg2_2  1  0.17403650  0.67403650  0.16339300  1
  Mg  Mg2_3  1  0.17403650  0.67403650  0.66339300  1
  Mg  Mg2_4  1  0.67403650  0.17403650  0.16339300  1
  Mg  Mg2_5  1  0.67403650  0.17403650  0.66339300  1
  Mg  Mg2_6  1  0.67403650  0.67403650  0.16339300  1
  Mg  Mg2_7  1  0.67403650  0.67403650  0.66339300  1
loop_
_geom_bond_atom_site_label_1
_geom_bond_atom_site_label_2
_geom_bond_distance
_geom_bond_site_symmetry_2
Ce0_0 Ce1_4 2.998948 1_555
Ce0_0 Ce1_2 2.998948 1_555
Ce0_0 Ce0_6 3.169764 1_545
Ce0_0 Ce0_6 3.169764 1_455
Ce0_0 Ce2_1 3.311010 1_555
Ce0_0 Mg2_2 3.395231 1_555
Ce0_0 Mg2_4 3.395231 1_555
Ce0_0 Mg1_2 3.468655 1_555
Ce0_0 Mg1_4 3.468655 1_555
Ce0_0 Mg0_5 3.472516 1_455
Ce0_0 Mg0_3 3.472516 1_545
Ce0_0 Mg1_0 3.512318 1_555
Ce0_1 Ce1_5 2.998948 1_555
Ce0_1 Ce1_3 2.998948 1_555
Ce0_1 Ce0_7 3.169764 1_455
Ce0_1 Ce0_7 3.169764 1_545
Ce0_1 Ce2_0 3.311010 1_556
Ce0_1 Mg2_3 3.395231 1_555
Ce0_1 Mg2_5 3.395231 1_555
Ce0_1 Mg1_3 3.468655 1_555
Ce0_1 Mg1_5 3.468655 1_555
Ce0_1 Mg0_4 3.472516 1_456
Ce0_1 Mg0_2 3.472516 1_546
Ce0_1 Mg1_1 3.512318 1_555
Ce0_2 Ce1_0 2.998948 1_565
Ce0_2 Ce1_6 2.998948 1_555
Ce0_2 Ce0_4 3.169764 1_555
Ce0_2 Ce0_4 3.169764 1_465
Ce0_2 Ce2_3 3.311010 1_555
Ce0_2 Mg2_6 3.395231 1_555
Ce0_2 Mg2_0 3.395231 1_565
Ce0_2 Mg1_0 3.468655 1_565
Ce0_2 Mg1_6 3.468655 1_555
Ce0_2 Mg0_1 3.472516 1_555
Ce0_2 Mg0_7 3.472516 1_455
Ce0_2 Mg1_2 3.512318 1_555
Ce0_3 Ce1_7 2.998948 1_555
Ce0_3 Ce1_1 2.998948 1_565
Ce0_3 Ce0_5 3.169764 1_555
Ce0_3 Ce0_5 3.169764 1_465
Ce0_3 Ce2_2 3.311010 1_556
Ce0_3 Mg2_7 3.395231 1_555
Ce0_3 Mg2_1 3.395231 1_565
Ce0_3 Mg1_1 3.468655 1_565
Ce0_3 Mg1_7 3.468655 1_555
Ce0_3 Mg0_0 3.472516 1_556
Ce0_3 Mg0_6 3.472516 1_456
Ce0_3 Mg1_3 3.512318 1_555
Ce0_4 Ce1_0 2.998948 1_655
Ce0_4 Ce1_6 2.998948 1_555
Ce0_4 Ce2_5 3.311010 1_555
Ce0_4 Mg2_6 3.395231 1_555
Ce0_4 Mg2_0 3.395231 1_655
Ce0_4 Mg1_0 3.468655 1_655
Ce0_4 Mg1_6 3.468655 1_555
Ce0_4 Mg0_1 3.472516 1_555
Ce0_4 Mg0_7 3.472516 1_545
Ce0_4 Mg1_4 3.512318 1_555
Ce0_5 Ce1_7 2.998948 1_555
Ce0_5 Ce1_1 2.998948 1_655
Ce0_5 Ce2_4 3.311010 1_556
Ce0_5 Mg2_7 3.395231 1_555
Ce0_5 Mg2_1 3.395231 1_655
Ce0_5 Mg1_1 3.468655 1_655
Ce0_5 Mg1_7 3.468655 1_555
Ce0_5 Mg0_0 3.472516 1_556
Ce0_5 Mg0_6 3.472516 1_546
Ce0_5 Mg1_5 3.512318 1_555
Ce0_6 Ce1_4 2.998948 1_565
Ce0_6 Ce1_2 2.998948 1_655
Ce0_6 Ce2_7 3.311010 1_555
Ce0_6 Mg2_4 3.395231 1_565
Ce0_6 Mg2_2 3.395231 1_655
Ce0_6 Mg1_2 3.468655 1_655
Ce0_6 Mg1_4 3.468655 1_565
Ce0_6 Mg0_3 3.472516 1_555
Ce0_6 Mg0_5 3.472516 1_555
Ce0_6 Mg1_6 3.512318 1_555
Ce0_7 Ce1_5 2.998948 1_565
Ce0_7 Ce1_3 2.998948 1_655
Ce0_7 Ce2_6 3.311010 1_556
Ce0_7 Mg2_5 3.395231 1_565
Ce0_7 Mg2_3 3.395231 1_655
Ce0_7 Mg1_3 3.468655 1_655
Ce0_7 Mg1_5 3.468655 1_565
Ce0_7 Mg0_4 3.472516 1_556
Ce0_7 Mg0_2 3.472516 1_556
Ce0_7 Mg1_7 3.512318 1_555
Ce1_0 Ce2_2 3.023250 1_545
Ce1_0 Ce2_4 3.023250 1_455
Ce1_0 Ce1_6 3.169764 1_455
Ce1_0 Ce1_6 3.169764 1_545
Ce1_0 Mg2_0 3.424916 1_555
Ce1_0 Mg1_4 3.445296 1_455
Ce1_0 Mg1_2 3.445296 1_545
Ce1_0 Mg0_6 3.506221 1_445
Ce1_0 Mg2_4 3.544943 1_455
Ce1_0 Mg2_2 3.544943 1_545
Ce1_1 Ce2_3 3.023250 1_545
Ce1_1 Ce2_5 3.023250 1_455
Ce1_1 Ce1_7 3.169764 1_545
Ce1_1 Ce1_7 3.169764 1_455
Ce1_1 Mg2_1 3.424916 1_555
Ce1_1 Mg1_5 3.445296 1_455
Ce1_1 Mg1_3 3.445296 1_545
Ce1_1 Mg0_7 3.506221 1_445
Ce1_1 Mg2_5 3.544943 1_455
Ce1_1 Mg2_3 3.544943 1_545
Ce1_2 Ce2_6 3.023250 1_455
Ce1_2 Ce2_0 3.023250 1_555
Ce1_2 Ce1_4 3.169764 1_555
Ce1_2 Ce1_4 3.169764 1_465
Ce1_2 Mg2_2 3.424916 1_555
Ce1_2 Mg1_6 3.445296 1_455
Ce1_2 Mg1_0 3.445296 1_555
Ce1_2 Mg0_4 3.506221 1_455
Ce1_2 Mg2_0 3.544943 1_555
Ce1_2 Mg2_6 3.544943 1_455
Ce1_3 Ce2_7 3.023250 1_455
Ce1_3 Ce2_1 3.023250 1_555
Ce1_3 Ce1_5 3.169764 1_465
Ce1_3 Ce1_5 3.169764 1_555
Ce1_3 Mg2_3 3.424916 1_555
Ce1_3 Mg1_7 3.445296 1_455
Ce1_3 Mg1_1 3.445296 1_555
Ce1_3 Mg0_5 3.506221 1_455
Ce1_3 Mg2_7 3.544943 1_455
Ce1_3 Mg2_1 3.544943 1_555
Ce1_4 Ce2_6 3.023250 1_545
Ce1_4 Ce2_0 3.023250 1_555
Ce1_4 Mg2_4 3.424916 1_555
Ce1_4 Mg1_6 3.445296 1_545
Ce1_4 Mg1_0 3.445296 1_555
Ce1_4 Mg0_2 3.506221 1_545
Ce1_4 Mg2_0 3.544943 1_555
Ce1_4 Mg2_6 3.544943 1_545
Ce1_5 Ce2_7 3.023250 1_545
Ce1_5 Ce2_1 3.023250 1_555
Ce1_5 Mg2_5 3.424916 1_555
Ce1_5 Mg1_7 3.445296 1_545
Ce1_5 Mg1_1 3.445296 1_555
Ce1_5 Mg0_3 3.506221 1_545
Ce1_5 Mg2_7 3.544943 1_545
Ce1_5 Mg2_1 3.544943 1_555
Ce1_6 Ce2_4 3.023250 1_555
Ce1_6 Ce2_2 3.023250 1_555
Ce1_6 Mg2_6 3.424916 1_555
Ce1_6 Mg1_4 3.445296 1_555
Ce1_6 Mg1_2 3.445296 1_555
Ce1_6 Mg0_0 3.506221 1_555
Ce1_6 Mg2_4 3.544943 1_555
Ce1_6 Mg2_2 3.544943 1_555
Ce1_7 Ce2_3 3.023250 1_555
Ce1_7 Ce2_5 3.023250 1_555
Ce1_7 Mg2_7 3.424916 1_555
Ce1_7 Mg1_5 3.445296 1_555
Ce1_7 Mg1_3 3.445296 1_555
Ce1_7 Mg0_1 3.506221 1_555
Ce1_7 Mg2_5 3.544943 1_555
Ce1_7 Mg2_3 3.544943 1_555
Ce2_0 Ce2_6 3.169764 1_545
Ce2_0 Ce2_6 3.169764 1_455
Ce2_0 Mg0_4 3.376961 1_455
Ce2_0 Mg0_2 3.376961 1_545
Ce2_0 Mg2_2 3.464436 1_555
Ce2_0 Mg2_4 3.464436 1_555
Ce2_0 Mg1_3 3.545660 1_554
Ce2_0 Mg1_5 3.545660 1_554
Ce2_0 Mg0_0 3.623684 1_555
Ce2_1 Ce2_7 3.169764 1_455
Ce2_1 Ce2_7 3.169764 1_545
Ce2_1 Mg0_5 3.376961 1_455
Ce2_1 Mg0_3 3.376961 1_545
Ce2_1 Mg2_3 3.464436 1_555
Ce2_1 Mg2_5 3.464436 1_555
Ce2_1 Mg1_2 3.545660 1_555
Ce2_1 Mg1_4 3.545660 1_555
Ce2_1 Mg0_1 3.623684 1_555
Ce2_2 Ce2_4 3.169764 1_465
Ce2_2 Ce2_4 3.169764 1_555
Ce2_2 Mg0_6 3.376961 1_455
Ce2_2 Mg0_0 3.376961 1_555
Ce2_2 Mg2_0 3.464436 1_565
Ce2_2 Mg2_6 3.464436 1_555
Ce2_2 Mg1_1 3.545660 1_564
Ce2_2 Mg1_7 3.545660 1_554
Ce2_2 Mg0_2 3.623684 1_555
Ce2_3 Ce2_5 3.169764 1_555
Ce2_3 Ce2_5 3.169764 1_465
Ce2_3 Mg0_1 3.376961 1_555
Ce2_3 Mg0_7 3.376961 1_455
Ce2_3 Mg2_7 3.464436 1_555
Ce2_3 Mg2_1 3.464436 1_565
Ce2_3 Mg1_0 3.545660 1_565
Ce2_3 Mg1_6 3.545660 1_555
Ce2_3 Mg0_3 3.623684 1_555
Ce2_4 Mg0_0 3.376961 1_555
Ce2_4 Mg0_6 3.376961 1_545
Ce2_4 Mg2_6 3.464436 1_555
Ce2_4 Mg2_0 3.464436 1_655
Ce2_4 Mg1_1 3.545660 1_654
Ce2_4 Mg1_7 3.545660 1_554
Ce2_4 Mg0_4 3.623684 1_555
Ce2_5 Mg0_1 3.376961 1_555
Ce2_5 Mg0_7 3.376961 1_545
Ce2_5 Mg2_7 3.464436 1_555
Ce2_5 Mg2_1 3.464436 1_655
Ce2_5 Mg1_0 3.545660 1_655
Ce2_5 Mg1_6 3.545660 1_555
Ce2_5 Mg0_5 3.623684 1_555
Ce2_6 Mg0_4 3.376961 1_555
Ce2_6 Mg0_2 3.376961 1_555
Ce2_6 Mg2_4 3.464436 1_565
Ce2_6 Mg2_2 3.464436 1_655
Ce2_6 Mg1_3 3.545660 1_654
Ce2_6 Mg1_5 3.545660 1_564
Ce2_6 Mg0_6 3.623684 1_555
Ce2_7 Mg0_5 3.376961 1_555
Ce2_7 Mg0_3 3.376961 1_555
Ce2_7 Mg2_5 3.464436 1_565
Ce2_7 Mg2_3 3.464436 1_655
Ce2_7 Mg1_2 3.545660 1_655
Ce2_7 Mg1_4 3.545660 1_565
Ce2_7 Mg0_7 3.623684 1_555
Mg0_0 Mg2_4 3.115017 1_555
Mg0_0 Mg2_2 3.115017 1_555
Mg0_0 Mg1_5 3.147193 1_554
Mg0_0 Mg1_3 3.147193 1_554
Mg0_0 Mg0_6 3.169764 1_455
Mg0_0 Mg0_6 3.169764 1_545
Mg0_1 Mg2_5 3.115017 1_555
Mg0_1 Mg2_3 3.115017 1_555
Mg0_1 Mg1_4 3.147193 1_555
Mg0_1 Mg1_2 3.147193 1_555
Mg0_1 Mg0_7 3.169764 1_455
Mg0_1 Mg0_7 3.169764 1_545
Mg0_2 Mg2_0 3.115017 1_565
Mg0_2 Mg2_6 3.115017 1_555
Mg0_2 Mg1_7 3.147193 1_554
Mg0_2 Mg1_1 3.147193 1_564
Mg0_2 Mg0_4 3.169764 1_555
Mg0_2 Mg0_4 3.169764 1_465
Mg0_3 Mg2_7 3.115017 1_555
Mg0_3 Mg2_1 3.115017 1_565
Mg0_3 Mg1_6 3.147193 1_555
Mg0_3 Mg1_0 3.147193 1_565
Mg0_3 Mg0_5 3.169764 1_555
Mg0_3 Mg0_5 3.169764 1_465
Mg0_4 Mg2_0 3.115017 1_655
Mg0_4 Mg2_6 3.115017 1_555
Mg0_4 Mg1_7 3.147193 1_554
Mg0_4 Mg1_1 3.147193 1_654
Mg0_5 Mg2_7 3.115017 1_555
Mg0_5 Mg2_1 3.115017 1_655
Mg0_5 Mg1_6 3.147193 1_555
Mg0_5 Mg1_0 3.147193 1_655
Mg0_6 Mg2_4 3.115017 1_565
Mg0_6 Mg2_2 3.115017 1_655
Mg0_6 Mg1_5 3.147193 1_564
Mg0_6 Mg1_3 3.147193 1_654
Mg0_7 Mg2_5 3.115017 1_565
Mg0_7 Mg2_3 3.115017 1_655
Mg0_7 Mg1_4 3.147193 1_565
Mg0_7 Mg1_2 3.147193 1_655
Mg1_0 Mg1_6 3.169764 1_545
Mg1_0 Mg1_6 3.169764 1_455
Mg1_0 Mg2_0 3.197685 1_555
Mg1_1 Mg1_7 3.169764 1_545
Mg1_1 Mg1_7 3.169764 1_455
Mg1_1 Mg2_1 3.197685 1_555
Mg1_2 Mg1_4 3.169764 1_555
Mg1_2 Mg1_4 3.169764 1_465
Mg1_2 Mg2_2 3.197685 1_555
Mg1_3 Mg1_5 3.169764 1_465
Mg1_3 Mg1_5 3.169764 1_555
Mg1_3 Mg2_3 3.197685 1_555
Mg1_4 Mg2_4 3.197685 1_555
Mg1_5 Mg2_5 3.197685 1_555
Mg1_6 Mg2_6 3.197685 1_555
Mg1_7 Mg2_7 3.197685 1_555
Mg2_0 Mg2_6 3.169764 1_455
Mg2_0 Mg2_6 3.169764 1_545
Mg2_1 Mg2_7 3.169764 1_545
Mg2_1 Mg2_7 3.169764 1_455
Mg2_2 Mg2_4 3.169764 1_555
Mg2_2 Mg2_4 3.169764 1_465
Mg2_3 Mg2_5 3.169764 1_555
Mg2_3 Mg2_5 3.169764 1_465
