# generated using pymatgen
data_Y3InS6
_symmetry_space_group_name_H-M   'P 1'
_cell_length_a   3.87745400
_cell_length_b   13.44844400
_cell_length_c   16.60662300
_cell_angle_alpha   90.00000000
_cell_angle_beta   90.00000000
_cell_angle_gamma   90.00000000
_symmetry_Int_Tables_number   1
_chemical_formula_structural   Y3InS6
_chemical_formula_sum   'Y12 In4 S24'
_cell_volume   865.96436262
_cell_formula_units_Z   4
loop_
 _symmetry_equiv_pos_site_id
 _symmetry_equiv_pos_as_xyz
  1  'x, y, z'
loop_
 _atom_site_type_symbol
 _atom_site_label
 _atom_site_symmetry_multiplicity
 _atom_site_fract_x
 _atom_site_fract_y
 _atom_site_fract_z
 _atom_site_occupancy
  Y  Y0  1  0.25397100  0.03613100  0.77657100  1
  Y  Y1  1  0.25397100  0.96386900  0.22342900  1
  Y  Y2  1  0.74602900  0.46386900  0.27657100  1
  Y  Y3  1  0.74602900  0.53613100  0.72342900  1
  Y  Y4  1  0.26359800  0.24678400  0.61058300  1
  Y  Y5  1  0.26359800  0.75321600  0.38941700  1
  Y  Y6  1  0.73640200  0.25321600  0.11058300  1
  Y  Y7  1  0.73640200  0.74678400  0.88941700  1
  Y  Y8  1  0.74723500  0.30939600  0.85635600  1
  Y  Y9  1  0.74723500  0.69060400  0.14364400  1
  Y  Y10  1  0.25276500  0.19060400  0.35635600  1
  Y  Y11  1  0.25276500  0.80939600  0.64364400  1
  In  In0  1  0.75319900  0.00000000  0.50000000  1
  In  In1  1  0.24680100  0.50000000  0.00000000  1
  In  In2  1  0.39159900  0.50000000  0.50000000  1
  In  In3  1  0.60840100  0.00000000  0.00000000  1
  S  S0  1  0.76820500  0.39704500  0.59309400  1
  S  S1  1  0.76820500  0.60295500  0.40690600  1
  S  S2  1  0.23179500  0.10295500  0.09309400  1
  S  S3  1  0.23179500  0.89704500  0.90690600  1
  S  S4  1  0.24606500  0.30736200  0.98069300  1
  S  S5  1  0.24606500  0.69263800  0.01930700  1
  S  S6  1  0.75393500  0.19263800  0.48069300  1
  S  S7  1  0.75393500  0.80736200  0.51930700  1
  S  S8  1  0.75163500  0.10770400  0.88480600  1
  S  S9  1  0.75163500  0.89229600  0.11519400  1
  S  S10  1  0.24836500  0.39229600  0.38480600  1
  S  S11  1  0.24836500  0.60770400  0.61519400  1
  S  S12  1  0.75912300  0.17891500  0.71724200  1
  S  S13  1  0.75912300  0.82108500  0.28275800  1
  S  S14  1  0.24087700  0.32108500  0.21724200  1
  S  S15  1  0.24087700  0.67891500  0.78275800  1
  S  S16  1  0.24863200  0.38454100  0.75612000  1
  S  S17  1  0.24863200  0.61545900  0.24388000  1
  S  S18  1  0.75136800  0.11545900  0.25612000  1
  S  S19  1  0.75136800  0.88454100  0.74388000  1
  S  S20  1  0.25361500  0.02066900  0.60550000  1
  S  S21  1  0.25361500  0.97933100  0.39450000  1
  S  S22  1  0.74638500  0.47933100  0.10550000  1
  S  S23  1  0.74638500  0.52066900  0.89450000  1
loop_
_geom_bond_atom_site_label_1
_geom_bond_atom_site_label_2
_geom_bond_distance
_geom_bond_site_symmetry_2
In0 S7 2.610448 1_545
In0 S6 2.610448 1_555
In0 S21 2.626628 1_545
In0 S20 2.626628 1_555
In0 S21 2.629008 1_645
In0 S20 2.629008 1_655
In1 S4 2.610448 1_554
In1 S5 2.610448 1_555
In1 S22 2.626628 1_555
In1 S23 2.626628 1_554
In1 S22 2.629008 1_455
In1 S23 2.629008 1_454
In2 S11 2.462918 1_555
In2 S10 2.462918 1_555
In2 S1 2.537620 1_555
In2 S0 2.537620 1_555
In3 S8 2.462918 1_554
In3 S9 2.462918 1_545
In3 S2 2.537620 1_555
In3 S3 2.537620 1_544
S0 Y4 2.803142 1_655
S0 Y4 2.827744 1_555
S0 Y3 2.861968 1_555
S1 Y5 2.803142 1_655
S1 Y5 2.827744 1_555
S1 Y2 2.861968 1_555
S2 Y6 2.803142 1_455
S2 Y6 2.827744 1_555
S2 Y1 2.861968 1_545
S3 Y7 2.803142 1_455
S3 Y7 2.827744 1_555
S3 Y0 2.861968 1_565
S4 Y8 2.829366 1_455
S4 Y8 2.835576 1_555
S4 Y6 2.966113 1_556
S4 Y6 3.014695 1_456
S5 Y9 2.829366 1_455
S5 Y9 2.835576 1_555
S5 Y7 2.966113 1_554
S5 Y7 3.014695 1_454
S6 Y10 2.829366 1_655
S6 Y10 2.835576 1_555
S6 Y4 2.966113 1_555
S6 Y4 3.014695 1_655
S7 Y11 2.829366 1_655
S7 Y11 2.835576 1_555
S7 Y5 2.966113 1_555
S7 Y5 3.014695 1_655
S8 Y8 2.753336 1_555
S8 Y0 2.807281 1_555
S8 Y0 2.819764 1_655
S9 Y9 2.753336 1_555
S9 Y1 2.807281 1_555
S9 Y1 2.819764 1_655
S10 Y10 2.753336 1_555
S10 Y2 2.807281 1_555
S10 Y2 2.819764 1_455
S11 Y11 2.753336 1_555
S11 Y3 2.807281 1_555
S11 Y3 2.819764 1_455
S12 Y4 2.768045 1_555
S12 Y4 2.792246 1_655
S12 Y0 2.887834 1_655
S12 Y8 2.901451 1_555
S12 Y0 2.914533 1_555
S13 Y5 2.768045 1_555
S13 Y5 2.792246 1_655
S13 Y1 2.887834 1_655
S13 Y9 2.901451 1_555
S13 Y1 2.914533 1_555
S14 Y6 2.768045 1_555
S14 Y6 2.792246 1_455
S14 Y2 2.887834 1_455
S14 Y10 2.901451 1_555
S14 Y2 2.914533 1_555
S15 Y7 2.768045 1_555
S15 Y7 2.792246 1_455
S15 Y3 2.887834 1_455
S15 Y11 2.901451 1_555
S15 Y3 2.914533 1_555
S16 Y8 2.744048 1_555
S16 Y8 2.751691 1_455
S16 Y3 2.858400 1_555
S16 Y3 2.872058 1_455
S16 Y4 3.045794 1_555
S17 Y9 2.744048 1_555
S17 Y9 2.751691 1_455
S17 Y2 2.858400 1_555
S17 Y2 2.872058 1_455
S17 Y5 3.045794 1_555
S18 Y10 2.744048 1_555
S18 Y10 2.751691 1_655
S18 Y1 2.858400 1_545
S18 Y1 2.872058 1_645
S18 Y6 3.045794 1_555
S19 Y11 2.744048 1_555
S19 Y11 2.751691 1_655
S19 Y0 2.858400 1_565
S19 Y0 2.872058 1_665
S19 Y7 3.045794 1_555
S20 Y0 2.848512 1_555
S20 Y11 2.911049 1_545
S20 Y4 3.042313 1_555
S21 Y1 2.848512 1_555
S21 Y10 2.911049 1_565
S21 Y5 3.042313 1_555
S22 Y2 2.848512 1_555
S22 Y9 2.911049 1_555
S22 Y6 3.042313 1_555
S23 Y3 2.848512 1_555
S23 Y8 2.911049 1_555
S23 Y7 3.042313 1_555
