# generated using pymatgen
data_LiCuSbO4
_symmetry_space_group_name_H-M   'P 1'
_cell_length_a   9.90859200
_cell_length_b   5.81705000
_cell_length_c   6.26308661
_cell_angle_alpha   62.39870132
_cell_angle_beta   90.00000000
_cell_angle_gamma   90.00000000
_symmetry_Int_Tables_number   1
_chemical_formula_structural   LiCuSbO4
_chemical_formula_sum   'Li4 Cu4 Sb4 O16'
_cell_volume   319.91272396
_cell_formula_units_Z   4
loop_
 _symmetry_equiv_pos_site_id
 _symmetry_equiv_pos_as_xyz
  1  'x, y, z'
loop_
 _atom_site_type_symbol
 _atom_site_label
 _atom_site_symmetry_multiplicity
 _atom_site_fract_x
 _atom_site_fract_y
 _atom_site_fract_z
 _atom_site_occupancy
  Li  Li0  1  0.80098900  0.63988000  0.72452500  1
  Li  Li1  1  0.30098900  0.36012000  0.27547500  1
  Li  Li2  1  0.23082100  0.98879400  0.00500700  1
  Li  Li3  1  0.73082100  0.01120600  0.99499300  1
  Cu  Cu0  1  0.50090200  0.83867900  0.82073100  1
  Cu  Cu1  1  0.49959600  0.34193700  0.82024500  1
  Cu  Cu2  1  0.00090200  0.16132100  0.17926900  1
  Cu  Cu3  1  0.99959600  0.65806300  0.17975500  1
  Sb  Sb0  1  0.23152700  0.68866000  0.61871400  1
  Sb  Sb1  1  0.73152700  0.31134000  0.38128600  1
  Sb  Sb2  1  0.50420900  0.83240500  0.33621300  1
  Sb  Sb3  1  0.00420900  0.16759500  0.66378700  1
  O  O0  1  0.12220700  0.84210000  0.31132100  1
  O  O1  1  0.62220700  0.15790000  0.68867900  1
  O  O2  1  0.42201900  0.99685100  0.00692900  1
  O  O3  1  0.92201900  0.00314900  0.99307100  1
  O  O4  1  0.13105100  0.86018100  0.78776900  1
  O  O5  1  0.13303200  0.34665000  0.78956900  1
  O  O6  1  0.63105100  0.13981900  0.21223100  1
  O  O7  1  0.63303200  0.65335000  0.21043100  1
  O  O8  1  0.35966900  0.54674000  0.90764500  1
  O  O9  1  0.85966900  0.45326000  0.09235500  1
  O  O10  1  0.59657800  0.67138900  0.65751600  1
  O  O11  1  0.09657800  0.32861100  0.34248400  1
  O  O12  1  0.36370700  0.54641600  0.45365900  1
  O  O13  1  0.36269100  0.99688100  0.45549000  1
  O  O14  1  0.86370700  0.45358400  0.54634100  1
  O  O15  1  0.86269100  0.00311900  0.54451000  1
loop_
_geom_bond_atom_site_label_1
_geom_bond_atom_site_label_2
_geom_bond_distance
_geom_bond_site_symmetry_2
Li0 O15 1.975377 1_565
Li0 O14 1.981579 1_555
Li0 O10 2.059319 1_555
Li0 O9 2.122829 1_556
Li1 O13 1.975377 1_545
Li1 O12 1.981579 1_555
Li1 O11 2.059319 1_555
Li1 O8 2.122829 1_554
Li2 O2 1.895259 1_555
Li2 O0 2.012450 1_555
Li2 O4 2.081209 1_554
Li2 O5 2.118985 1_564
Li3 O3 1.895259 1_555
Li3 O1 2.012450 1_555
Li3 O6 2.081209 1_556
Li3 O7 2.118985 1_546
Cu0 O2 1.952366 1_556
Cu0 O10 1.952552 1_555
Cu0 O1 2.038087 1_565
Cu0 O8 2.069312 1_555
Cu0 O13 2.450405 1_555
Cu0 O7 2.528876 1_556
Cu1 O2 1.952602 1_546
Cu1 O10 1.955763 1_555
Cu1 O1 2.029405 1_555
Cu1 O8 2.060478 1_555
Cu1 O12 2.443079 1_555
Cu1 O6 2.536035 1_556
Cu2 O3 1.952366 1_454
Cu2 O11 1.952552 1_555
Cu2 O0 2.038087 1_545
Cu2 O9 2.069312 1_455
Cu2 O15 2.450405 1_455
Cu2 O5 2.528876 1_554
Cu3 O3 1.952602 1_564
Cu3 O11 1.955763 1_655
Cu3 O0 2.029405 1_655
Cu3 O9 2.060478 1_555
Cu3 O14 2.443079 1_555
Cu3 O4 2.536035 1_654
O0 Sb0 2.020940 1_555
O1 Sb1 2.020940 1_555
O2 Sb2 2.000861 1_555
O3 Sb3 2.000861 1_655
O4 Sb0 2.021547 1_555
O4 Sb3 2.023284 1_565
O5 Sb0 2.020617 1_555
O5 Sb3 2.023646 1_555
O6 Sb1 2.021547 1_555
O6 Sb2 2.023284 1_545
O7 Sb1 2.020617 1_555
O7 Sb2 2.023646 1_555
O8 Sb0 2.045490 1_555
O9 Sb1 2.045490 1_555
O10 Sb2 2.004485 1_555
O11 Sb3 2.004485 1_555
O12 Sb2 2.028029 1_555
O12 Sb0 2.064286 1_555
O13 Sb2 2.025355 1_555
O13 Sb0 2.061641 1_555
O14 Sb3 2.028029 1_655
O14 Sb1 2.064286 1_555
O15 Sb3 2.025355 1_655
O15 Sb1 2.061641 1_555
