# generated using pymatgen
data_SmGePd
_symmetry_space_group_name_H-M   'P 1'
_cell_length_a   3.62746300
_cell_length_b   4.48233100
_cell_length_c   4.48260480
_cell_angle_alpha   120.02234338
_cell_angle_beta   90.00000000
_cell_angle_gamma   90.00000000
_symmetry_Int_Tables_number   1
_chemical_formula_structural   SmGePd
_chemical_formula_sum   'Sm1 Ge1 Pd1'
_cell_volume   63.10593054
_cell_formula_units_Z   1
loop_
 _symmetry_equiv_pos_site_id
 _symmetry_equiv_pos_as_xyz
  1  'x, y, z'
loop_
 _atom_site_type_symbol
 _atom_site_label
 _atom_site_symmetry_multiplicity
 _atom_site_fract_x
 _atom_site_fract_y
 _atom_site_fract_z
 _atom_site_occupancy
  Sm  Sm0  1  0.00000000  0.00006000  0.99954200  1
  Ge  Ge0  1  0.50000000  0.66655700  0.33345000  1
  Pd  Pd0  1  0.50000000  0.33328300  0.66700800  1
loop_
_geom_bond_atom_site_label_1
_geom_bond_atom_site_label_2
_geom_bond_distance
_geom_bond_site_symmetry_2
Ge0 Pd0 2.586578 1_554
Ge0 Pd0 2.587522 1_565
Ge0 Pd0 2.588887 1_555
Ge0 Sm0 3.158003 1_565
Ge0 Sm0 3.158003 1_665
Ge0 Sm0 3.159161 1_554
Ge0 Sm0 3.159161 1_654
Ge0 Sm0 3.162847 1_664
Ge0 Sm0 3.162847 1_564
Pd0 Sm0 3.157589 1_555
Pd0 Sm0 3.157589 1_655
Pd0 Sm0 3.160054 1_665
Pd0 Sm0 3.160054 1_565
Pd0 Sm0 3.162372 1_654
Pd0 Sm0 3.162372 1_554
