# generated using pymatgen
data_Ca2LaGaCu2O7
_symmetry_space_group_name_H-M   'P 1'
_cell_length_a   5.41568700
_cell_length_b   5.57357915
_cell_length_c   11.82714127
_cell_angle_alpha   103.19804338
_cell_angle_beta   103.11948326
_cell_angle_gamma   89.93010701
_symmetry_Int_Tables_number   1
_chemical_formula_structural   Ca2LaGaCu2O7
_chemical_formula_sum   'Ca4 La2 Ga2 Cu4 O14'
_cell_volume   338.01548401
_cell_formula_units_Z   2
loop_
 _symmetry_equiv_pos_site_id
 _symmetry_equiv_pos_as_xyz
  1  'x, y, z'
loop_
 _atom_site_type_symbol
 _atom_site_label
 _atom_site_symmetry_multiplicity
 _atom_site_fract_x
 _atom_site_fract_y
 _atom_site_fract_z
 _atom_site_occupancy
  Ca  Ca0  1  0.65402600  0.61523800  0.29962000  1
  Ca  Ca1  1  0.15626900  0.18973400  0.30329500  1
  Ca  Ca2  1  0.85137100  0.81729200  0.69641200  1
  Ca  Ca3  1  0.49858200  0.50985000  0.00906400  1
  La  La0  1  0.35008200  0.37415300  0.70321900  1
  La  La1  1  0.99550100  0.00028400  0.00239800  1
  Ga  Ga0  1  0.28011000  0.81329300  0.49571400  1
  Ga  Ga1  1  0.77550400  0.17897900  0.49597900  1
  Cu  Cu0  1  0.41851600  0.92819800  0.85086200  1
  Cu  Cu1  1  0.57070300  0.07653700  0.15549400  1
  Cu  Cu2  1  0.07040600  0.58118800  0.15459200  1
  Cu  Cu3  1  0.91927600  0.42216700  0.85262800  1
  O  O0  1  0.27028700  0.75624200  0.64212800  1
  O  O1  1  0.62076700  0.24759700  0.35525000  1
  O  O2  1  0.12312100  0.60802600  0.35584600  1
  O  O3  1  0.77607200  0.38949000  0.64117300  1
  O  O4  1  0.17981600  0.67356500  0.86212100  1
  O  O5  1  0.31210900  0.32166700  0.13518100  1
  O  O6  1  0.81135400  0.31844900  0.13592800  1
  O  O7  1  0.67376400  0.67961400  0.86212100  1
  O  O8  1  0.66619600  0.17280100  0.84606300  1
  O  O9  1  0.81963000  0.82773300  0.15033700  1
  O  O10  1  0.31887700  0.82509100  0.14991100  1
  O  O11  1  0.16777600  0.17429400  0.84597100  1
  O  O12  1  0.63628700  0.86735700  0.50086500  1
  O  O13  1  0.13419500  0.13116000  0.49782600  1
loop_
_geom_bond_atom_site_label_1
_geom_bond_atom_site_label_2
_geom_bond_distance
_geom_bond_site_symmetry_2
Ca0 O1 2.309626 1_555
Ca0 O2 2.478479 1_655
Ca0 O12 2.495029 1_555
Ca0 O6 2.548221 1_555
Ca0 O5 2.609207 1_555
Ca0 O9 2.645879 1_555
Ca0 O10 2.697994 1_555
Ca1 O2 2.289504 1_555
Ca1 O13 2.425334 1_555
Ca1 O1 2.453462 1_555
Ca1 O5 2.576304 1_555
Ca1 O6 2.624662 1_455
Ca1 O10 2.689659 1_545
Ca1 O9 2.740870 1_445
Ca2 O3 2.334208 1_555
Ca2 O12 2.419605 1_555
Ca2 O0 2.496928 1_655
Ca2 O4 2.603386 1_655
Ca2 O7 2.626673 1_555
Ca2 O11 2.655085 1_665
Ca2 O8 2.695193 1_565
Ca3 O5 2.397005 1_555
Ca3 O6 2.414807 1_555
Ca3 O4 2.488273 1_554
Ca3 O10 2.490889 1_555
Ca3 O9 2.508149 1_555
Ca3 O7 2.513426 1_554
Ca3 O8 2.684419 1_554
Ca3 O11 2.687051 1_554
La0 O0 2.408869 1_555
La0 O13 2.512864 1_555
La0 O4 2.553031 1_555
La0 O7 2.560089 1_555
La0 O8 2.567604 1_555
La0 O3 2.581833 1_555
La0 O11 2.585411 1_555
La0 O3 3.033475 1_455
La1 O6 2.462760 1_555
La1 O5 2.472941 1_655
La1 O7 2.514794 1_544
La1 O9 2.533911 1_545
La1 O4 2.536284 1_644
La1 O10 2.539889 1_645
La1 O8 2.614307 1_554
La1 O11 2.615158 1_654
Ga0 O2 1.807744 1_555
Ga0 O0 1.842792 1_555
Ga0 O13 1.936283 1_565
Ga0 O12 1.937788 1_555
Ga1 O1 1.809841 1_555
Ga1 O3 1.844747 1_555
Ga1 O12 1.912392 1_545
Ga1 O13 1.956317 1_655
Cu0 O11 1.929956 1_565
Cu0 O8 1.932730 1_565
Cu0 O7 1.960672 1_555
Cu0 O4 1.967731 1_555
Cu0 O0 2.383144 1_555
Cu1 O9 1.933464 1_545
Cu1 O10 1.936476 1_545
Cu1 O6 1.963097 1_555
Cu1 O5 1.969299 1_555
Cu1 O1 2.290283 1_555
Cu2 O9 1.931654 1_455
Cu2 O10 1.932477 1_555
Cu2 O5 1.959227 1_555
Cu2 O6 1.969328 1_455
Cu2 O2 2.301858 1_555
Cu3 O11 1.928709 1_655
Cu3 O8 1.929599 1_555
Cu3 O4 1.956509 1_655
Cu3 O7 1.956777 1_555
Cu3 O3 2.408535 1_555
