# generated using pymatgen
data_NaV2O4
_symmetry_space_group_name_H-M   'P 1'
_cell_length_a   6.06856683
_cell_length_b   6.06714019
_cell_length_c   6.18449836
_cell_angle_alpha   60.69039752
_cell_angle_beta   62.42548646
_cell_angle_gamma   91.66543700
_symmetry_Int_Tables_number   1
_chemical_formula_structural   NaV2O4
_chemical_formula_sum   'Na2 V4 O8'
_cell_volume   166.09552969
_cell_formula_units_Z   2
loop_
 _symmetry_equiv_pos_site_id
 _symmetry_equiv_pos_as_xyz
  1  'x, y, z'
loop_
 _atom_site_type_symbol
 _atom_site_label
 _atom_site_symmetry_multiplicity
 _atom_site_fract_x
 _atom_site_fract_y
 _atom_site_fract_z
 _atom_site_occupancy
  Na  Na0  1  0.87576800  0.62570700  0.24995200  1
  Na  Na1  1  0.12426700  0.37430100  0.75000000  1
  V  V0  1  0.49988800  0.50002600  0.00013800  1
  V  V1  1  0.50000600  0.00000000  0.00002600  1
  V  V2  1  0.49988100  0.99998300  0.50013300  1
  V  V3  1  0.00001000  0.99997900  0.49997900  1
  O  O0  1  0.30527500  0.76928800  0.94905200  1
  O  O1  1  0.71817500  0.75409700  0.55107600  1
  O  O2  1  0.72453400  0.19123300  0.53358900  1
  O  O3  1  0.72513100  0.75833200  0.96606600  1
  O  O4  1  0.27489300  0.24166300  0.03389500  1
  O  O5  1  0.27550100  0.80877200  0.46636800  1
  O  O6  1  0.28188300  0.24590500  0.44884800  1
  O  O7  1  0.69478800  0.23071600  0.05087800  1
loop_
_geom_bond_atom_site_label_1
_geom_bond_atom_site_label_2
_geom_bond_distance
_geom_bond_site_symmetry_2
Na0 O2 2.170187 1_555
Na0 O3 2.170506 1_554
Na0 O1 2.191863 1_555
Na0 O0 2.192252 1_654
Na1 O5 2.170172 1_555
Na1 O4 2.170497 1_556
Na1 O6 2.192041 1_555
Na1 O7 2.192104 1_456
O0 V0 2.028722 1_556
O0 V2 2.031173 1_555
O0 V1 2.033716 1_566
O1 V2 2.029981 1_555
O1 V0 2.031716 1_556
O1 V3 2.034782 1_655
O2 V2 1.911048 1_545
O2 V3 2.052212 1_645
O2 V1 2.125198 1_556
O3 V0 1.911643 1_556
O3 V1 2.052488 1_566
O3 V3 2.123592 1_655
O4 V0 1.912150 1_555
O4 V1 2.052336 1_555
O4 V3 2.123584 1_545
O5 V2 1.911068 1_555
O5 V3 2.052101 1_555
O5 V1 2.124737 1_565
O6 V2 2.028996 1_545
O6 V0 2.030233 1_555
O6 V3 2.034998 1_545
O7 V0 2.030054 1_555
O7 V2 2.032624 1_545
O7 V1 2.033356 1_555
