# generated using pymatgen
data_EuZnGe
_symmetry_space_group_name_H-M   'P 1'
_cell_length_a   4.28111805
_cell_length_b   4.28111805
_cell_length_c   17.12739700
_cell_angle_alpha   90.00000000
_cell_angle_beta   90.00000000
_cell_angle_gamma   120.00000074
_symmetry_Int_Tables_number   1
_chemical_formula_structural   EuZnGe
_chemical_formula_sum   'Eu4 Zn4 Ge4'
_cell_volume   271.85442063
_cell_formula_units_Z   4
loop_
 _symmetry_equiv_pos_site_id
 _symmetry_equiv_pos_as_xyz
  1  'x, y, z'
loop_
 _atom_site_type_symbol
 _atom_site_label
 _atom_site_symmetry_multiplicity
 _atom_site_fract_x
 _atom_site_fract_y
 _atom_site_fract_z
 _atom_site_occupancy
  Eu  Eu0  1  0.00000000  0.00000000  0.50000000  1
  Eu  Eu1  1  0.00000000  0.00000000  0.00000000  1
  Eu  Eu2  1  0.00000000  0.00000000  0.25000000  1
  Eu  Eu3  1  0.00000000  0.00000000  0.75000000  1
  Zn  Zn0  1  0.33333300  0.66666700  0.37468500  1
  Zn  Zn1  1  0.66666700  0.33333300  0.62531500  1
  Zn  Zn2  1  0.66666700  0.33333300  0.87468500  1
  Zn  Zn3  1  0.33333300  0.66666700  0.12531500  1
  Ge  Ge0  1  0.66666700  0.33333300  0.37599000  1
  Ge  Ge1  1  0.33333300  0.66666700  0.62401000  1
  Ge  Ge2  1  0.33333300  0.66666700  0.87599000  1
  Ge  Ge3  1  0.66666700  0.33333300  0.12401000  1
loop_
_geom_bond_atom_site_label_1
_geom_bond_atom_site_label_2
_geom_bond_distance
_geom_bond_site_symmetry_2
Eu0 Ge0 3.258919 1_455
Eu0 Ge1 3.258919 1_545
Eu0 Ge0 3.258922 1_445
Eu0 Ge0 3.258922 1_555
Eu0 Ge1 3.258922 1_445
Eu0 Ge1 3.258922 1_555
Eu0 Zn1 3.273530 1_455
Eu0 Zn0 3.273530 1_545
Eu0 Zn1 3.273533 1_445
Eu0 Zn1 3.273533 1_555
Eu0 Zn0 3.273533 1_445
Eu0 Zn0 3.273533 1_555
Eu1 Ge2 3.258919 1_544
Eu1 Ge3 3.258919 1_455
Eu1 Ge2 3.258922 1_554
Eu1 Ge2 3.258922 1_444
Eu1 Ge3 3.258922 1_555
Eu1 Ge3 3.258922 1_445
Eu1 Zn3 3.273530 1_545
Eu1 Zn2 3.273530 1_454
Eu1 Zn3 3.273533 1_555
Eu1 Zn3 3.273533 1_445
Eu1 Zn2 3.273533 1_444
Eu1 Zn2 3.273533 1_554
Eu2 Zn0 3.266466 1_545
Eu2 Zn3 3.266466 1_545
Eu2 Zn0 3.266468 1_445
Eu2 Zn0 3.266468 1_555
Eu2 Zn3 3.266468 1_555
Eu2 Zn3 3.266468 1_445
Eu2 Ge3 3.281122 1_455
Eu2 Ge0 3.281122 1_455
Eu2 Ge3 3.281125 1_555
Eu2 Ge3 3.281125 1_445
Eu2 Ge0 3.281125 1_445
Eu2 Ge0 3.281125 1_555
Eu3 Zn2 3.266466 1_455
Eu3 Zn1 3.266466 1_455
Eu3 Zn2 3.266468 1_445
Eu3 Zn2 3.266468 1_555
Eu3 Zn1 3.266468 1_445
Eu3 Zn1 3.266468 1_555
Eu3 Ge1 3.281122 1_545
Eu3 Ge2 3.281122 1_545
Eu3 Ge1 3.281125 1_555
Eu3 Ge1 3.281125 1_445
Eu3 Ge2 3.281125 1_555
Eu3 Ge2 3.281125 1_445
Ge0 Zn0 2.471803 1_545
Ge0 Zn0 2.471803 1_655
Ge0 Zn0 2.471811 1_555
Ge1 Zn1 2.471803 1_565
Ge1 Zn1 2.471803 1_455
Ge1 Zn1 2.471811 1_555
Ge2 Zn2 2.471803 1_455
Ge2 Zn2 2.471803 1_565
Ge2 Zn2 2.471811 1_555
Ge3 Zn3 2.471803 1_545
Ge3 Zn3 2.471803 1_655
Ge3 Zn3 2.471811 1_555
