# generated using pymatgen
data_Ta(SnS)2
_symmetry_space_group_name_H-M   'P 1'
_cell_length_a   6.63301842
_cell_length_b   6.63301842
_cell_length_c   48.24551200
_cell_angle_alpha   90.00000000
_cell_angle_beta   90.00000000
_cell_angle_gamma   119.99998425
_symmetry_Int_Tables_number   1
_chemical_formula_structural   Ta(SnS)2
_chemical_formula_sum   'Ta16 Sn32 S32'
_cell_volume   1838.27307873
_cell_formula_units_Z   16
loop_
 _symmetry_equiv_pos_site_id
 _symmetry_equiv_pos_as_xyz
  1  'x, y, z'
loop_
 _atom_site_type_symbol
 _atom_site_label
 _atom_site_symmetry_multiplicity
 _atom_site_fract_x
 _atom_site_fract_y
 _atom_site_fract_z
 _atom_site_occupancy
  Ta  Ta0_0  1  0.33333350  0.16666650  0.37500000  1
  Ta  Ta0_1  1  0.33333350  0.16666650  0.87500000  1
  Ta  Ta0_2  1  0.33333350  0.66666650  0.37500000  1
  Ta  Ta0_3  1  0.33333350  0.66666650  0.87500000  1
  Ta  Ta0_4  1  0.83333350  0.16666650  0.37500000  1
  Ta  Ta0_5  1  0.83333350  0.16666650  0.87500000  1
  Ta  Ta0_6  1  0.83333350  0.66666650  0.37500000  1
  Ta  Ta0_7  1  0.83333350  0.66666650  0.87500000  1
  Ta  Ta1_0  1  0.16666650  0.33333350  0.12500000  1
  Ta  Ta1_1  1  0.16666650  0.33333350  0.62500000  1
  Ta  Ta1_2  1  0.16666650  0.83333350  0.12500000  1
  Ta  Ta1_3  1  0.16666650  0.83333350  0.62500000  1
  Ta  Ta1_4  1  0.66666650  0.33333350  0.12500000  1
  Ta  Ta1_5  1  0.66666650  0.33333350  0.62500000  1
  Ta  Ta1_6  1  0.66666650  0.83333350  0.12500000  1
  Ta  Ta1_7  1  0.66666650  0.83333350  0.62500000  1
  Sn  Sn0_0  1  0.33333350  0.16666650  0.46987050  1
  Sn  Sn0_1  1  0.33333350  0.16666650  0.96987050  1
  Sn  Sn0_2  1  0.33333350  0.66666650  0.46987050  1
  Sn  Sn0_3  1  0.33333350  0.66666650  0.96987050  1
  Sn  Sn0_4  1  0.83333350  0.16666650  0.46987050  1
  Sn  Sn0_5  1  0.83333350  0.16666650  0.96987050  1
  Sn  Sn0_6  1  0.83333350  0.66666650  0.46987050  1
  Sn  Sn0_7  1  0.83333350  0.66666650  0.96987050  1
  Sn  Sn1_0  1  0.16666650  0.33333350  0.03012950  1
  Sn  Sn1_1  1  0.16666650  0.33333350  0.53012950  1
  Sn  Sn1_2  1  0.16666650  0.83333350  0.03012950  1
  Sn  Sn1_3  1  0.16666650  0.83333350  0.53012950  1
  Sn  Sn1_4  1  0.66666650  0.33333350  0.03012950  1
  Sn  Sn1_5  1  0.66666650  0.33333350  0.53012950  1
  Sn  Sn1_6  1  0.66666650  0.83333350  0.03012950  1
  Sn  Sn1_7  1  0.66666650  0.83333350  0.53012950  1
  Sn  Sn2_0  1  0.16666650  0.33333350  0.21987050  1
  Sn  Sn2_1  1  0.16666650  0.33333350  0.71987050  1
  Sn  Sn2_2  1  0.16666650  0.83333350  0.21987050  1
  Sn  Sn2_3  1  0.16666650  0.83333350  0.71987050  1
  Sn  Sn2_4  1  0.66666650  0.33333350  0.21987050  1
  Sn  Sn2_5  1  0.66666650  0.33333350  0.71987050  1
  Sn  Sn2_6  1  0.66666650  0.83333350  0.21987050  1
  Sn  Sn2_7  1  0.66666650  0.83333350  0.71987050  1
  Sn  Sn3_0  1  0.33333350  0.16666650  0.28012950  1
  Sn  Sn3_1  1  0.33333350  0.16666650  0.78012950  1
  Sn  Sn3_2  1  0.33333350  0.66666650  0.28012950  1
  Sn  Sn3_3  1  0.33333350  0.66666650  0.78012950  1
  Sn  Sn3_4  1  0.83333350  0.16666650  0.28012950  1
  Sn  Sn3_5  1  0.83333350  0.16666650  0.78012950  1
  Sn  Sn3_6  1  0.83333350  0.66666650  0.28012950  1
  Sn  Sn3_7  1  0.83333350  0.66666650  0.78012950  1
  S  S0_0  1  0.33333350  0.16666650  0.15744900  1
  S  S0_1  1  0.33333350  0.16666650  0.65744900  1
  S  S0_2  1  0.33333350  0.66666650  0.15744900  1
  S  S0_3  1  0.33333350  0.66666650  0.65744900  1
  S  S0_4  1  0.83333350  0.16666650  0.15744900  1
  S  S0_5  1  0.83333350  0.16666650  0.65744900  1
  S  S0_6  1  0.83333350  0.66666650  0.15744900  1
  S  S0_7  1  0.83333350  0.66666650  0.65744900  1
  S  S1_0  1  0.16666650  0.33333350  0.34255100  1
  S  S1_1  1  0.16666650  0.33333350  0.84255100  1
  S  S1_2  1  0.16666650  0.83333350  0.34255100  1
  S  S1_3  1  0.16666650  0.83333350  0.84255100  1
  S  S1_4  1  0.66666650  0.33333350  0.34255100  1
  S  S1_5  1  0.66666650  0.33333350  0.84255100  1
  S  S1_6  1  0.66666650  0.83333350  0.34255100  1
  S  S1_7  1  0.66666650  0.83333350  0.84255100  1
  S  S2_0  1  0.16666650  0.33333350  0.40744900  1
  S  S2_1  1  0.16666650  0.33333350  0.90744900  1
  S  S2_2  1  0.16666650  0.83333350  0.40744900  1
  S  S2_3  1  0.16666650  0.83333350  0.90744900  1
  S  S2_4  1  0.66666650  0.33333350  0.40744900  1
  S  S2_5  1  0.66666650  0.33333350  0.90744900  1
  S  S2_6  1  0.66666650  0.83333350  0.40744900  1
  S  S2_7  1  0.66666650  0.83333350  0.90744900  1
  S  S3_0  1  0.33333350  0.16666650  0.09255100  1
  S  S3_1  1  0.33333350  0.16666650  0.59255100  1
  S  S3_2  1  0.33333350  0.66666650  0.09255100  1
  S  S3_3  1  0.33333350  0.66666650  0.59255100  1
  S  S3_4  1  0.83333350  0.16666650  0.09255100  1
  S  S3_5  1  0.83333350  0.16666650  0.59255100  1
  S  S3_6  1  0.83333350  0.66666650  0.09255100  1
  S  S3_7  1  0.83333350  0.66666650  0.59255100  1
loop_
_geom_bond_atom_site_label_1
_geom_bond_atom_site_label_2
_geom_bond_distance
_geom_bond_site_symmetry_2
Sn0_0 Sn0_4 3.316509 1_555
Sn0_0 Sn0_2 3.316509 1_555
Sn0_0 Sn0_4 3.316509 1_455
Sn0_0 Sn0_2 3.316509 1_545
Sn0_0 Sn0_6 3.316510 1_445
Sn0_0 Sn0_6 3.316510 1_555
Sn0_0 Sn1_5 3.481145 1_555
Sn0_0 Sn1_3 3.481145 1_545
Sn0_0 Sn1_1 3.481148 1_555
Sn0_1 Sn0_5 3.316509 1_555
Sn0_1 Sn0_3 3.316509 1_555
Sn0_1 Sn0_3 3.316509 1_545
Sn0_1 Sn0_5 3.316509 1_455
Sn0_1 Sn0_7 3.316510 1_555
Sn0_1 Sn0_7 3.316510 1_445
Sn0_1 Sn1_4 3.481145 1_556
Sn0_1 Sn1_2 3.481145 1_546
Sn0_1 Sn1_0 3.481148 1_556
Sn0_2 Sn0_6 3.316509 1_455
Sn0_2 Sn0_6 3.316509 1_555
Sn0_2 Sn0_4 3.316510 1_565
Sn0_2 Sn0_4 3.316510 1_455
Sn0_2 Sn1_1 3.481145 1_555
Sn0_2 Sn1_7 3.481145 1_555
Sn0_2 Sn1_3 3.481148 1_555
Sn0_3 Sn0_7 3.316509 1_455
Sn0_3 Sn0_7 3.316509 1_555
Sn0_3 Sn0_5 3.316510 1_565
Sn0_3 Sn0_5 3.316510 1_455
Sn0_3 Sn1_0 3.481145 1_556
Sn0_3 Sn1_6 3.481145 1_556
Sn0_3 Sn1_2 3.481148 1_556
Sn0_4 Sn0_6 3.316509 1_555
Sn0_4 Sn0_6 3.316509 1_545
Sn0_4 Sn1_7 3.481145 1_545
Sn0_4 Sn1_1 3.481145 1_655
Sn0_4 Sn1_5 3.481148 1_555
Sn0_5 Sn0_7 3.316509 1_555
Sn0_5 Sn0_7 3.316509 1_545
Sn0_5 Sn1_6 3.481145 1_546
Sn0_5 Sn1_0 3.481145 1_656
Sn0_5 Sn1_4 3.481148 1_556
Sn0_6 Sn1_3 3.481145 1_655
Sn0_6 Sn1_5 3.481145 1_555
Sn0_6 Sn1_7 3.481148 1_555
Sn0_7 Sn1_4 3.481145 1_556
Sn0_7 Sn1_2 3.481145 1_656
Sn0_7 Sn1_6 3.481148 1_556
Sn1_0 Sn1_2 3.316509 1_555
Sn1_0 Sn1_4 3.316509 1_555
Sn1_0 Sn1_2 3.316509 1_545
Sn1_0 Sn1_4 3.316509 1_455
Sn1_0 Sn1_6 3.316510 1_445
Sn1_0 Sn1_6 3.316510 1_555
Sn1_1 Sn1_3 3.316509 1_555
Sn1_1 Sn1_5 3.316509 1_555
Sn1_1 Sn1_5 3.316509 1_455
Sn1_1 Sn1_3 3.316509 1_545
Sn1_1 Sn1_7 3.316510 1_445
Sn1_1 Sn1_7 3.316510 1_555
Sn1_2 Sn1_6 3.316509 1_555
Sn1_2 Sn1_6 3.316509 1_455
Sn1_2 Sn1_4 3.316510 1_565
Sn1_2 Sn1_4 3.316510 1_455
Sn1_3 Sn1_7 3.316509 1_555
Sn1_3 Sn1_7 3.316509 1_455
Sn1_3 Sn1_5 3.316510 1_455
Sn1_3 Sn1_5 3.316510 1_565
Sn1_4 Sn1_6 3.316509 1_545
Sn1_4 Sn1_6 3.316509 1_555
Sn1_5 Sn1_7 3.316509 1_545
Sn1_5 Sn1_7 3.316509 1_555
Sn2_0 Sn2_4 3.316509 1_555
Sn2_0 Sn2_2 3.316509 1_555
Sn2_0 Sn2_2 3.316509 1_545
Sn2_0 Sn2_4 3.316509 1_455
Sn2_0 Sn2_6 3.316510 1_555
Sn2_0 Sn2_6 3.316510 1_445
Sn2_0 Sn3_2 3.481145 1_555
Sn2_0 Sn3_4 3.481145 1_455
Sn2_0 Sn3_0 3.481148 1_555
Sn2_1 Sn2_5 3.316509 1_555
Sn2_1 Sn2_3 3.316509 1_555
Sn2_1 Sn2_3 3.316509 1_545
Sn2_1 Sn2_5 3.316509 1_455
Sn2_1 Sn2_7 3.316510 1_445
Sn2_1 Sn2_7 3.316510 1_555
Sn2_1 Sn3_3 3.481145 1_555
Sn2_1 Sn3_5 3.481145 1_455
Sn2_1 Sn3_1 3.481148 1_555
Sn2_2 Sn2_6 3.316509 1_555
Sn2_2 Sn2_6 3.316509 1_455
Sn2_2 Sn2_4 3.316510 1_565
Sn2_2 Sn2_4 3.316510 1_455
Sn2_2 Sn3_6 3.481145 1_455
Sn2_2 Sn3_0 3.481145 1_565
Sn2_2 Sn3_2 3.481148 1_555
Sn2_3 Sn2_7 3.316509 1_555
Sn2_3 Sn2_7 3.316509 1_455
Sn2_3 Sn2_5 3.316510 1_565
Sn2_3 Sn2_5 3.316510 1_455
Sn2_3 Sn3_7 3.481145 1_455
Sn2_3 Sn3_1 3.481145 1_565
Sn2_3 Sn3_3 3.481148 1_555
Sn2_4 Sn2_6 3.316509 1_545
Sn2_4 Sn2_6 3.316509 1_555
Sn2_4 Sn3_6 3.481145 1_555
Sn2_4 Sn3_0 3.481145 1_555
Sn2_4 Sn3_4 3.481148 1_555
Sn2_5 Sn2_7 3.316509 1_545
Sn2_5 Sn2_7 3.316509 1_555
Sn2_5 Sn3_7 3.481145 1_555
Sn2_5 Sn3_1 3.481145 1_555
Sn2_5 Sn3_5 3.481148 1_555
Sn2_6 Sn3_2 3.481145 1_555
Sn2_6 Sn3_4 3.481145 1_565
Sn2_6 Sn3_6 3.481148 1_555
Sn2_7 Sn3_3 3.481145 1_555
Sn2_7 Sn3_5 3.481145 1_565
Sn2_7 Sn3_7 3.481148 1_555
Sn3_0 Sn3_2 3.316509 1_555
Sn3_0 Sn3_4 3.316509 1_555
Sn3_0 Sn3_2 3.316509 1_545
Sn3_0 Sn3_4 3.316509 1_455
Sn3_0 Sn3_6 3.316510 1_445
Sn3_0 Sn3_6 3.316510 1_555
Sn3_1 Sn3_3 3.316509 1_555
Sn3_1 Sn3_5 3.316509 1_555
Sn3_1 Sn3_3 3.316509 1_545
Sn3_1 Sn3_5 3.316509 1_455
Sn3_1 Sn3_7 3.316510 1_445
Sn3_1 Sn3_7 3.316510 1_555
Sn3_2 Sn3_6 3.316509 1_455
Sn3_2 Sn3_6 3.316509 1_555
Sn3_2 Sn3_4 3.316510 1_565
Sn3_2 Sn3_4 3.316510 1_455
Sn3_3 Sn3_7 3.316509 1_455
Sn3_3 Sn3_7 3.316509 1_555
Sn3_3 Sn3_5 3.316510 1_565
Sn3_3 Sn3_5 3.316510 1_455
Sn3_4 Sn3_6 3.316509 1_555
Sn3_4 Sn3_6 3.316509 1_545
Sn3_5 Sn3_7 3.316509 1_555
Sn3_5 Sn3_7 3.316509 1_545
S0_0 Ta1_4 2.473308 1_555
S0_0 Ta1_2 2.473308 1_545
S0_0 Ta1_0 2.473312 1_555
S0_1 Ta1_5 2.473308 1_555
S0_1 Ta1_3 2.473308 1_545
S0_1 Ta1_1 2.473312 1_555
S0_2 Ta1_6 2.473308 1_555
S0_2 Ta1_0 2.473308 1_555
S0_2 Ta1_2 2.473312 1_555
S0_3 Ta1_7 2.473308 1_555
S0_3 Ta1_1 2.473308 1_555
S0_3 Ta1_3 2.473312 1_555
S0_4 Ta1_6 2.473308 1_545
S0_4 Ta1_0 2.473308 1_655
S0_4 Ta1_4 2.473312 1_555
S0_5 Ta1_7 2.473308 1_545
S0_5 Ta1_1 2.473308 1_655
S0_5 Ta1_5 2.473312 1_555
S0_6 Ta1_4 2.473308 1_555
S0_6 Ta1_2 2.473308 1_655
S0_6 Ta1_6 2.473312 1_555
S0_7 Ta1_3 2.473308 1_655
S0_7 Ta1_5 2.473308 1_555
S0_7 Ta1_7 2.473312 1_555
S1_0 Ta0_2 2.473308 1_555
S1_0 Ta0_4 2.473308 1_455
S1_0 Ta0_0 2.473312 1_555
S1_1 Ta0_3 2.473308 1_555
S1_1 Ta0_5 2.473308 1_455
S1_1 Ta0_1 2.473312 1_555
S1_2 Ta0_6 2.473308 1_455
S1_2 Ta0_0 2.473308 1_565
S1_2 Ta0_2 2.473312 1_555
S1_3 Ta0_7 2.473308 1_455
S1_3 Ta0_1 2.473308 1_565
S1_3 Ta0_3 2.473312 1_555
S1_4 Ta0_0 2.473308 1_555
S1_4 Ta0_6 2.473308 1_555
S1_4 Ta0_4 2.473312 1_555
S1_5 Ta0_7 2.473308 1_555
S1_5 Ta0_1 2.473308 1_555
S1_5 Ta0_5 2.473312 1_555
S1_6 Ta0_4 2.473308 1_565
S1_6 Ta0_2 2.473308 1_555
S1_6 Ta0_6 2.473312 1_555
S1_7 Ta0_3 2.473308 1_555
S1_7 Ta0_5 2.473308 1_565
S1_7 Ta0_7 2.473312 1_555
S2_0 Ta0_2 2.473308 1_555
S2_0 Ta0_4 2.473308 1_455
S2_0 Ta0_0 2.473312 1_555
S2_1 Ta0_3 2.473308 1_555
S2_1 Ta0_5 2.473308 1_455
S2_1 Ta0_1 2.473312 1_555
S2_2 Ta0_6 2.473308 1_455
S2_2 Ta0_0 2.473308 1_565
S2_2 Ta0_2 2.473312 1_555
S2_3 Ta0_7 2.473308 1_455
S2_3 Ta0_1 2.473308 1_565
S2_3 Ta0_3 2.473312 1_555
S2_4 Ta0_0 2.473308 1_555
S2_4 Ta0_6 2.473308 1_555
S2_4 Ta0_4 2.473312 1_555
S2_5 Ta0_1 2.473308 1_555
S2_5 Ta0_7 2.473308 1_555
S2_5 Ta0_5 2.473312 1_555
S2_6 Ta0_4 2.473308 1_565
S2_6 Ta0_2 2.473308 1_555
S2_6 Ta0_6 2.473312 1_555
S2_7 Ta0_3 2.473308 1_555
S2_7 Ta0_5 2.473308 1_565
S2_7 Ta0_7 2.473312 1_555
S3_0 Ta1_4 2.473308 1_555
S3_0 Ta1_2 2.473308 1_545
S3_0 Ta1_0 2.473312 1_555
S3_1 Ta1_5 2.473308 1_555
S3_1 Ta1_3 2.473308 1_545
S3_1 Ta1_1 2.473312 1_555
S3_2 Ta1_6 2.473308 1_555
S3_2 Ta1_0 2.473308 1_555
S3_2 Ta1_2 2.473312 1_555
S3_3 Ta1_7 2.473308 1_555
S3_3 Ta1_1 2.473308 1_555
S3_3 Ta1_3 2.473312 1_555
S3_4 Ta1_6 2.473308 1_545
S3_4 Ta1_0 2.473308 1_655
S3_4 Ta1_4 2.473312 1_555
S3_5 Ta1_7 2.473308 1_545
S3_5 Ta1_1 2.473308 1_655
S3_5 Ta1_5 2.473312 1_555
S3_6 Ta1_4 2.473308 1_555
S3_6 Ta1_2 2.473308 1_655
S3_6 Ta1_6 2.473312 1_555
S3_7 Ta1_3 2.473308 1_655
S3_7 Ta1_5 2.473308 1_555
S3_7 Ta1_7 2.473312 1_555
