# generated using pymatgen
data_Mn3CdTe4
_symmetry_space_group_name_H-M   'P 1'
_cell_length_a   15.03175759
_cell_length_b   15.03175759
_cell_length_c   15.03175753
_cell_angle_alpha   17.47821878
_cell_angle_beta   17.47821878
_cell_angle_gamma   17.47821966
_symmetry_Int_Tables_number   1
_chemical_formula_structural   Mn3CdTe4
_chemical_formula_sum   'Mn3 Cd1 Te4'
_cell_volume   267.39292609
_cell_formula_units_Z   1
loop_
 _symmetry_equiv_pos_site_id
 _symmetry_equiv_pos_as_xyz
  1  'x, y, z'
loop_
 _atom_site_type_symbol
 _atom_site_label
 _atom_site_symmetry_multiplicity
 _atom_site_fract_x
 _atom_site_fract_y
 _atom_site_fract_z
 _atom_site_occupancy
  Mn  Mn0  1  0.75030400  0.75030400  0.75030400  1
  Mn  Mn1  1  0.49998100  0.49998100  0.49998100  1
  Mn  Mn2  1  0.24892000  0.24892000  0.24892000  1
  Cd  Cd0  1  0.00045600  0.00045600  0.00045600  1
  Te  Te0  1  0.06469400  0.06469400  0.06469400  1
  Te  Te1  1  0.81269000  0.81269000  0.81269000  1
  Te  Te2  1  0.56258300  0.56258300  0.56258300  1
  Te  Te3  1  0.31037200  0.31037200  0.31037200  1
loop_
_geom_bond_atom_site_label_1
_geom_bond_atom_site_label_2
_geom_bond_distance
_geom_bond_site_symmetry_2
Mn0 Te0 2.768026 1_665
Mn0 Te0 2.768026 1_656
Mn0 Te0 2.768026 1_566
Mn0 Te1 2.769680 1_555
Mn1 Te2 2.779269 1_555
Mn1 Te1 2.791606 1_554
Mn1 Te1 2.791606 1_545
Mn1 Te1 2.791606 1_455
Mn2 Te3 2.728214 1_555
Mn2 Te2 2.778002 1_554
Mn2 Te2 2.778002 1_545
Mn2 Te2 2.778002 1_455
Cd0 Te3 2.834698 1_554
Cd0 Te3 2.834698 1_545
Cd0 Te3 2.834698 1_455
Cd0 Te0 2.851901 1_555
