# generated using pymatgen
data_Fe3Mo6PtN2
_symmetry_space_group_name_H-M   'P 1'
_cell_length_a   6.70510600
_cell_length_b   6.70419100
_cell_length_c   6.71860796
_cell_angle_alpha   89.85021537
_cell_angle_beta   90.00000000
_cell_angle_gamma   90.00000000
_symmetry_Int_Tables_number   1
_chemical_formula_structural   Fe3Mo6PtN2
_chemical_formula_sum   'Fe6 Mo12 Pt2 N4'
_cell_volume   302.01592441
_cell_formula_units_Z   2
loop_
 _symmetry_equiv_pos_site_id
 _symmetry_equiv_pos_as_xyz
  1  'x, y, z'
loop_
 _atom_site_type_symbol
 _atom_site_label
 _atom_site_symmetry_multiplicity
 _atom_site_fract_x
 _atom_site_fract_y
 _atom_site_fract_z
 _atom_site_occupancy
  Fe  Fe0  1  0.81889100  0.67928600  0.56751700  1
  Fe  Fe1  1  0.31889100  0.32071400  0.43248300  1
  Fe  Fe2  1  0.06678500  0.56068800  0.32922000  1
  Fe  Fe3  1  0.43056800  0.07635200  0.19678100  1
  Fe  Fe4  1  0.56678500  0.43931200  0.67078000  1
  Fe  Fe5  1  0.93056800  0.92364800  0.80321900  1
  Mo  Mo0  1  0.62411000  0.04591300  0.54334600  1
  Mo  Mo1  1  0.12411000  0.95408700  0.45665400  1
  Mo  Mo2  1  0.87693800  0.55409000  0.95255700  1
  Mo  Mo3  1  0.37693800  0.44591000  0.04744300  1
  Mo  Mo4  1  0.20207500  0.61998700  0.69504000  1
  Mo  Mo5  1  0.29324200  0.12767900  0.79465500  1
  Mo  Mo6  1  0.79324200  0.87232100  0.20534500  1
  Mo  Mo7  1  0.70207500  0.38001300  0.30496000  1
  Mo  Mo8  1  0.05306000  0.20967000  0.13151900  1
  Mo  Mo9  1  0.95152400  0.29957900  0.62212900  1
  Mo  Mo10  1  0.55306000  0.79033000  0.86848100  1
  Mo  Mo11  1  0.45152400  0.70042100  0.37787100  1
  Pt  Pt0  1  0.68471300  0.18542100  0.93368100  1
  Pt  Pt1  1  0.18471300  0.81457900  0.06631900  1
  N  N0  1  0.37426100  0.87431600  0.62656900  1
  N  N1  1  0.87426100  0.12568400  0.37343100  1
  N  N2  1  0.12383300  0.37585000  0.87611000  1
  N  N3  1  0.62383300  0.62415000  0.12389000  1
loop_
_geom_bond_atom_site_label_1
_geom_bond_atom_site_label_2
_geom_bond_distance
_geom_bond_site_symmetry_2
Fe0 Fe5 2.401227 1_555
Fe0 Fe4 2.433368 1_555
Fe0 Fe2 2.442311 1_655
Fe0 Mo9 2.720451 1_555
Fe0 Mo4 2.737075 1_655
Fe0 Mo2 2.745331 1_555
Fe0 Mo6 2.758410 1_555
Fe0 Mo11 2.776713 1_555
Fe0 Mo7 2.787353 1_555
Fe0 Mo0 2.787732 1_565
Fe0 Mo10 2.797830 1_555
Fe0 Mo1 2.851320 1_655
Fe1 Fe3 2.401227 1_555
Fe1 Fe2 2.433368 1_555
Fe1 Fe4 2.442311 1_555
Fe1 Mo11 2.720451 1_555
Fe1 Mo7 2.737075 1_555
Fe1 Mo3 2.745331 1_555
Fe1 Mo5 2.758410 1_555
Fe1 Mo9 2.776713 1_455
Fe1 Mo4 2.787353 1_555
Fe1 Mo1 2.787732 1_545
Fe1 Mo8 2.797830 1_555
Fe1 Mo0 2.851320 1_555
Fe2 Pt1 2.574237 1_555
Fe2 Mo4 2.650818 1_555
Fe2 Mo8 2.706864 1_555
Fe2 Mo7 2.734021 1_455
Fe2 Mo9 2.741604 1_455
Fe2 Mo11 2.764229 1_555
Fe2 Mo1 2.801533 1_555
Fe2 Mo2 2.833218 1_454
Fe2 Mo6 2.900445 1_455
Fe2 Mo3 2.916937 1_555
Fe3 Pt0 2.560550 1_554
Fe3 Pt1 2.563938 1_545
Fe3 Mo0 2.672984 1_555
Fe3 Mo3 2.694708 1_555
Fe3 Mo8 2.719595 1_555
Fe3 Mo6 2.790599 1_545
Fe3 Mo11 2.799282 1_545
Fe3 Mo1 2.816950 1_545
Fe3 Mo7 2.827479 1_555
Fe3 Mo5 2.874147 1_554
Fe3 Mo10 3.039550 1_544
Fe4 Pt0 2.574237 1_555
Fe4 Mo7 2.650818 1_555
Fe4 Mo10 2.706864 1_555
Fe4 Mo4 2.734021 1_555
Fe4 Mo11 2.741604 1_555
Fe4 Mo9 2.764229 1_555
Fe4 Mo0 2.801533 1_555
Fe4 Mo3 2.833218 1_556
Fe4 Mo5 2.900445 1_555
Fe4 Mo2 2.916937 1_555
Fe5 Pt1 2.560550 1_656
Fe5 Pt0 2.563938 1_565
Fe5 Mo1 2.672984 1_655
Fe5 Mo2 2.694708 1_555
Fe5 Mo10 2.719595 1_555
Fe5 Mo5 2.790599 1_665
Fe5 Mo9 2.799282 1_565
Fe5 Mo0 2.816950 1_565
Fe5 Mo4 2.827479 1_655
Fe5 Mo6 2.874147 1_556
Fe5 Mo8 3.039550 1_666
Mo0 N1 2.097463 1_555
Mo0 N0 2.106953 1_545
Mo0 Pt0 2.816071 1_555
Mo1 N0 2.097463 1_555
Mo1 N1 2.106953 1_465
Mo1 Pt1 2.816071 1_555
Mo2 N3 2.104436 1_556
Mo2 N2 2.106055 1_655
Mo2 Pt0 2.790681 1_555
Mo2 Pt1 2.810637 1_656
Mo3 N2 2.104436 1_554
Mo3 N3 2.106055 1_555
Mo3 Pt1 2.790681 1_555
Mo3 Pt0 2.810637 1_554
Mo4 N2 2.103260 1_555
Mo4 N0 2.108962 1_555
Mo4 Pt1 2.820447 1_556
Mo5 N2 2.088713 1_555
Mo5 N0 2.113218 1_545
Mo5 Pt0 2.813197 1_555
Mo5 Pt1 2.871764 1_546
Mo6 N3 2.088713 1_555
Mo6 N1 2.113218 1_565
Mo6 Pt1 2.813197 1_655
Mo6 Pt0 2.871764 1_564
Mo7 N3 2.103260 1_555
Mo7 N1 2.108962 1_555
Mo7 Pt0 2.820447 1_554
Mo8 N1 2.095512 1_455
Mo8 N2 2.097868 1_554
Mo8 Pt0 2.809673 1_454
Mo8 Pt1 2.827218 1_545
Mo9 N1 2.104670 1_555
Mo9 N2 2.124301 1_655
Mo9 Pt0 2.856456 1_555
Mo10 N0 2.095512 1_555
Mo10 N3 2.097868 1_556
Mo10 Pt1 2.809673 1_556
Mo10 Pt0 2.827218 1_565
Mo11 N0 2.104670 1_555
Mo11 N3 2.124301 1_555
Mo11 Pt1 2.856456 1_555
