# generated using pymatgen
data_Nd6N8O33
_symmetry_space_group_name_H-M   'P 1'
_cell_length_a   9.59501100
_cell_length_b   9.86538580
_cell_length_c   10.59374155
_cell_angle_alpha   117.27766651
_cell_angle_beta   116.05006611
_cell_angle_gamma   88.17341768
_symmetry_Int_Tables_number   1
_chemical_formula_structural   Nd6N8O33
_chemical_formula_sum   'Nd6 N8 O33'
_cell_volume   782.50491665
_cell_formula_units_Z   1
loop_
 _symmetry_equiv_pos_site_id
 _symmetry_equiv_pos_as_xyz
  1  'x, y, z'
loop_
 _atom_site_type_symbol
 _atom_site_label
 _atom_site_symmetry_multiplicity
 _atom_site_fract_x
 _atom_site_fract_y
 _atom_site_fract_z
 _atom_site_occupancy
  Nd  Nd0  1  0.26055200  0.24387200  0.38213200  1
  Nd  Nd1  1  0.73944800  0.75612800  0.61786800  1
  Nd  Nd2  1  0.59017200  0.57839800  0.82123700  1
  Nd  Nd3  1  0.40982800  0.42160200  0.17876300  1
  Nd  Nd4  1  0.30769000  0.66729800  0.50542400  1
  Nd  Nd5  1  0.69231000  0.33270200  0.49457600  1
  N  N0  1  0.86884700  0.49399300  0.12374100  1
  N  N1  1  0.13115300  0.50600700  0.87625900  1
  N  N2  1  0.21577400  0.91513700  0.32759300  1
  N  N3  1  0.78422600  0.08486300  0.67240700  1
  N  N4  1  0.88789700  0.17941000  0.32441300  1
  N  N5  1  0.11210300  0.82059000  0.67558700  1
  N  N6  1  0.52859400  0.78330700  0.09894700  1
  N  N7  1  0.47140600  0.21669300  0.90105300  1
  O  O0  1  0.32485400  0.49230800  0.61108400  1
  O  O1  1  0.67514600  0.50769200  0.38891600  1
  O  O2  1  0.19977000  0.77990600  0.30756800  1
  O  O3  1  0.80023000  0.22009400  0.69243200  1
  O  O4  1  0.49846600  0.86417900  0.20897300  1
  O  O5  1  0.50153400  0.13582100  0.79102700  1
  O  O6  1  0.95765300  0.59926800  0.26650700  1
  O  O7  1  0.04234700  0.40073200  0.73349300  1
  O  O8  1  0.22622000  0.41451800  0.27277500  1
  O  O9  1  0.77378000  0.58548200  0.72722500  1
  O  O10  1  0.42693800  0.24043000  0.27132300  1
  O  O11  1  0.57306200  0.75957000  0.72867700  1
  O  O12  1  0.25462200  0.03383800  0.46541100  1
  O  O13  1  0.74537800  0.96616200  0.53458900  1
  O  O14  1  0.50543200  0.81492400  0.98802900  1
  O  O15  1  0.49456800  0.18507600  0.01197100  1
  O  O16  1  0.51962700  0.32060600  0.60264300  1
  O  O17  1  0.48037300  0.67939400  0.39735700  1
  O  O18  1  0.81824900  0.36256100  0.09411600  1
  O  O19  1  0.18175100  0.63743900  0.90588400  1
  O  O20  1  0.80538400  0.06357300  0.78816300  1
  O  O21  1  0.19461600  0.93642700  0.21183700  1
  O  O22  1  0.50000000  0.50000000  0.50000000  1
  O  O23  1  0.83169900  0.52316300  0.00895800  1
  O  O24  1  0.16830100  0.47683700  0.99104200  1
  O  O25  1  0.91817900  0.32736600  0.40679500  1
  O  O26  1  0.08182100  0.67263400  0.59320500  1
  O  O27  1  0.97025300  0.11176000  0.25726200  1
  O  O28  1  0.02974700  0.88824000  0.74273800  1
  O  O29  1  0.58487600  0.65993500  0.08918300  1
  O  O30  1  0.41512400  0.34006500  0.91081700  1
  O  O31  1  0.77606200  0.10050100  0.31181300  1
  O  O32  1  0.22393800  0.89949900  0.68818700  1
loop_
_geom_bond_atom_site_label_1
_geom_bond_atom_site_label_2
_geom_bond_distance
_geom_bond_site_symmetry_2
Nd0 O10 2.352428 1_555
Nd0 O0 2.367212 1_555
Nd0 O16 2.368154 1_555
Nd0 O8 2.387866 1_555
Nd0 O27 2.573321 1_455
Nd0 O12 2.608112 1_555
Nd0 O21 2.637937 1_545
Nd1 O11 2.352428 1_555
Nd1 O1 2.367212 1_555
Nd1 O17 2.368154 1_555
Nd1 O9 2.387866 1_555
Nd1 O28 2.573321 1_655
Nd1 O13 2.608112 1_555
Nd1 O20 2.637937 1_565
Nd2 O0 2.363323 1_555
Nd2 O16 2.371386 1_555
Nd2 O11 2.372621 1_555
Nd2 O9 2.390218 1_555
Nd2 O23 2.547013 1_556
Nd2 O14 2.567054 1_555
Nd2 O29 2.595802 1_556
Nd3 O1 2.363323 1_555
Nd3 O17 2.371386 1_555
Nd3 O10 2.372621 1_555
Nd3 O8 2.390218 1_555
Nd3 O24 2.547013 1_554
Nd3 O15 2.567054 1_555
Nd3 O30 2.595802 1_554
Nd4 O8 2.388050 1_555
Nd4 O11 2.406394 1_555
Nd4 O0 2.418982 1_555
Nd4 O17 2.423646 1_555
Nd4 O22 2.438072 1_555
Nd4 O32 2.612628 1_555
Nd4 O2 2.618101 1_555
Nd4 O26 2.698580 1_555
Nd4 O6 3.042558 1_455
Nd5 O9 2.388050 1_555
Nd5 O10 2.406394 1_555
Nd5 O1 2.418982 1_555
Nd5 O16 2.423646 1_555
Nd5 O22 2.438072 1_555
Nd5 O31 2.612628 1_555
Nd5 O3 2.618101 1_555
Nd5 O25 2.698580 1_555
Nd5 O7 3.042558 1_655
N0 O18 1.244486 1_555
N0 O6 1.255735 1_555
N0 O23 1.273577 1_555
N1 O19 1.244486 1_555
N1 O7 1.255735 1_555
N1 O24 1.273577 1_555
N2 O2 1.254374 1_555
N2 O21 1.266421 1_555
N2 O12 1.274590 1_565
N3 O3 1.254374 1_555
N3 O20 1.266421 1_555
N3 O13 1.274590 1_545
N4 O27 1.265242 1_555
N4 O31 1.267867 1_555
N4 O25 1.270163 1_555
N5 O28 1.265242 1_555
N5 O32 1.267867 1_555
N5 O26 1.270163 1_555
N6 O4 1.227822 1_555
N6 O14 1.276541 1_554
N6 O29 1.294394 1_555
N7 O5 1.227822 1_555
N7 O15 1.276541 1_556
N7 O30 1.294394 1_555
