# generated using pymatgen
data_Li7Mn4CoO12
_symmetry_space_group_name_H-M   'P 1'
_cell_length_a   2.97717300
_cell_length_b   7.81532284
_cell_length_c   10.18593257
_cell_angle_alpha   110.76666678
_cell_angle_beta   91.74240703
_cell_angle_gamma   96.78766854
_symmetry_Int_Tables_number   1
_chemical_formula_structural   Li7Mn4CoO12
_chemical_formula_sum   'Li7 Mn4 Co1 O12'
_cell_volume   219.38274605
_cell_formula_units_Z   1
loop_
 _symmetry_equiv_pos_site_id
 _symmetry_equiv_pos_as_xyz
  1  'x, y, z'
loop_
 _atom_site_type_symbol
 _atom_site_label
 _atom_site_symmetry_multiplicity
 _atom_site_fract_x
 _atom_site_fract_y
 _atom_site_fract_z
 _atom_site_occupancy
  Li  Li0  1  0.20289000  0.35048600  0.91268600  1
  Li  Li1  1  0.84928300  0.67784600  0.59759000  1
  Li  Li2  1  0.50658900  0.00098700  0.25073300  1
  Li  Li3  1  0.81936800  0.65393600  0.06684400  1
  Li  Li4  1  0.46493300  0.98239100  0.75208300  1
  Li  Li5  1  0.15629100  0.33276500  0.41780900  1
  Li  Li6  1  0.33278800  0.66483300  0.83224200  1
  Mn  Mn0  1  0.98293000  0.98721800  0.99326700  1
  Mn  Mn1  1  0.68010000  0.34162500  0.67115600  1
  Mn  Mn2  1  0.33741100  0.67196600  0.33584000  1
  Mn  Mn3  1  0.65335800  0.33154600  0.16740400  1
  Co  Co0  1  0.02038700  0.00477700  0.50038100  1
  O  O0  1  0.53831700  0.14902200  0.96980500  1
  O  O1  1  0.22152600  0.47713000  0.62975000  1
  O  O2  1  0.95379200  0.84033400  0.30497700  1
  O  O3  1  0.27658200  0.50268100  0.13321500  1
  O  O4  1  0.92362000  0.84842000  0.80458200  1
  O  O5  1  0.62267800  0.16448900  0.47061700  1
  O  O6  1  0.74096500  0.48065700  0.86035400  1
  O  O7  1  0.39875300  0.84007300  0.53561300  1
  O  O8  1  0.03962800  0.16396900  0.19662800  1
  O  O9  1  0.44138500  0.85258200  0.03541200  1
  O  O10  1  0.12417000  0.18075100  0.69346300  1
  O  O11  1  0.71225400  0.49951700  0.36755000  1
loop_
_geom_bond_atom_site_label_1
_geom_bond_atom_site_label_2
_geom_bond_distance
_geom_bond_site_symmetry_2
Li0 O6 1.970036 1_455
Li0 O6 1.984079 1_555
Li0 O3 2.126600 1_556
Li0 O10 2.143600 1_555
Li0 O0 2.191065 1_555
Li0 O0 2.591419 1_455
Li1 O4 2.044562 1_555
Li1 O1 2.132939 1_655
Li1 O7 2.173283 1_555
Li1 O7 2.195943 1_655
Li1 O11 2.256319 1_555
Li1 O1 2.401992 1_555
Li2 O9 2.076110 1_545
Li2 O2 2.120538 1_545
Li2 O8 2.125499 1_655
Li2 O5 2.141886 1_555
Li2 O2 2.156168 1_445
Li2 O8 2.174554 1_555
Li3 O6 2.046425 1_554
Li3 O9 2.126636 1_555
Li3 O3 2.144389 1_655
Li3 O3 2.155776 1_555
Li3 O2 2.337375 1_555
Li3 O9 2.377184 1_655
Li4 O4 1.984357 1_555
Li4 O4 2.007488 1_455
Li4 O7 2.078559 1_555
Li4 O0 2.125356 1_565
Li4 O10 2.186403 1_565
Li4 O10 2.572993 1_665
Li5 O1 2.041240 1_555
Li5 O11 2.132433 1_455
Li5 O5 2.145339 1_455
Li5 O8 2.161751 1_555
Li5 O11 2.171378 1_555
Li5 O5 2.198806 1_555
Li6 O1 2.052771 1_555
Li6 O9 2.057702 1_556
Li6 O4 2.073853 1_455
Li6 O6 2.077302 1_555
Li6 O4 2.225384 1_555
Li6 O6 2.231998 1_455
Mn0 O4 1.832314 1_555
Mn0 O9 1.943858 1_656
Mn0 O9 1.962722 1_556
Mn0 O0 1.999773 1_565
Mn0 O8 2.030267 1_666
Mn0 O0 2.033295 1_665
Mn1 O6 1.837045 1_555
Mn1 O1 1.945968 1_555
Mn1 O1 1.962712 1_655
Mn1 O10 1.989345 1_655
Mn1 O5 2.008925 1_555
Mn1 O10 2.026154 1_555
Mn2 O2 1.939440 1_455
Mn2 O11 1.951522 1_555
Mn2 O7 1.981172 1_555
Mn2 O3 2.006800 1_555
Mn2 O2 2.226077 1_555
Mn2 O11 2.266521 1_455
Mn3 O8 1.933385 1_655
Mn3 O3 1.956926 1_555
Mn3 O11 1.984007 1_555
Mn3 O0 2.002459 1_554
Mn3 O8 2.210498 1_555
Mn3 O3 2.266225 1_655
Co0 O5 1.909912 1_455
Co0 O7 1.923634 1_545
Co0 O2 1.937629 1_445
Co0 O10 1.949213 1_555
Co0 O5 2.153500 1_555
Co0 O7 2.239574 1_445
