# generated using pymatgen
data_BH12N4F3
_symmetry_space_group_name_H-M   'P 1'
_cell_length_a   6.72096700
_cell_length_b   10.17082700
_cell_length_c   11.73324800
_cell_angle_alpha   90.00000000
_cell_angle_beta   90.00000000
_cell_angle_gamma   90.00000000
_symmetry_Int_Tables_number   1
_chemical_formula_structural   BH12N4F3
_chemical_formula_sum   'B4 H48 N16 F12'
_cell_volume   802.05893366
_cell_formula_units_Z   4
loop_
 _symmetry_equiv_pos_site_id
 _symmetry_equiv_pos_as_xyz
  1  'x, y, z'
loop_
 _atom_site_type_symbol
 _atom_site_label
 _atom_site_symmetry_multiplicity
 _atom_site_fract_x
 _atom_site_fract_y
 _atom_site_fract_z
 _atom_site_occupancy
  B  B0  1  0.57675000  0.45823600  0.27344900  1
  B  B1  1  0.07675000  0.54176400  0.72655100  1
  B  B2  1  0.07675000  0.95823600  0.22655100  1
  B  B3  1  0.57675000  0.04176400  0.77344900  1
  H  H0  1  0.72017500  0.29490700  0.18813300  1
  H  H1  1  0.22017500  0.70509300  0.81186700  1
  H  H2  1  0.22017500  0.79490700  0.31186700  1
  H  H3  1  0.72017500  0.20509300  0.68813300  1
  H  H4  1  0.85130600  0.35040300  0.30288800  1
  H  H5  1  0.35130600  0.64959700  0.69711200  1
  H  H6  1  0.35130600  0.85040300  0.19711200  1
  H  H7  1  0.85130600  0.14959700  0.80288800  1
  H  H8  1  0.85206700  0.43879500  0.17952100  1
  H  H9  1  0.35206700  0.56120500  0.82047900  1
  H  H10  1  0.35206700  0.93879500  0.32047900  1
  H  H11  1  0.85206700  0.06120500  0.67952100  1
  H  H12  1  0.50211800  0.15401100  0.38094500  1
  H  H13  1  0.00211800  0.84598900  0.61905500  1
  H  H14  1  0.00211800  0.65401100  0.11905500  1
  H  H15  1  0.50211800  0.34598900  0.88094500  1
  H  H16  1  0.50621300  0.06281900  0.49564800  1
  H  H17  1  0.00621300  0.93718100  0.50435200  1
  H  H18  1  0.00621300  0.56281900  0.00435200  1
  H  H19  1  0.50621300  0.43718100  0.99564800  1
  H  H20  1  0.66287400  0.03399600  0.39126400  1
  H  H21  1  0.16287400  0.96600400  0.60873600  1
  H  H22  1  0.16287400  0.53399600  0.10873600  1
  H  H23  1  0.66287400  0.46600400  0.89126400  1
  H  H24  1  0.47388500  0.12172700  0.14112200  1
  H  H25  1  0.97388500  0.87827300  0.85887800  1
  H  H26  1  0.97388500  0.62172700  0.35887800  1
  H  H27  1  0.47388500  0.37827300  0.64112200  1
  H  H28  1  0.61463300  0.13241000  0.02862000  1
  H  H29  1  0.11463300  0.86759000  0.97138000  1
  H  H30  1  0.11463300  0.63241000  0.47138000  1
  H  H31  1  0.61463300  0.36759000  0.52862000  1
  H  H32  1  0.69782700  0.05818200  0.14226900  1
  H  H33  1  0.19782700  0.94181800  0.85773100  1
  H  H34  1  0.19782700  0.55818200  0.35773100  1
  H  H35  1  0.69782700  0.44181800  0.64226900  1
  H  H36  1  0.52949400  0.67406100  0.49490600  1
  H  H37  1  0.02949400  0.32593900  0.50509400  1
  H  H38  1  0.02949400  0.17406100  0.00509400  1
  H  H39  1  0.52949400  0.82593900  0.99490600  1
  H  H40  1  0.66750100  0.70234200  0.60680600  1
  H  H41  1  0.16750100  0.29765800  0.39319400  1
  H  H42  1  0.16750100  0.20234200  0.89319400  1
  H  H43  1  0.66750100  0.79765800  0.10680600  1
  H  H44  1  0.50566400  0.81255500  0.56596800  1
  H  H45  1  0.00566400  0.18744500  0.43403200  1
  H  H46  1  0.00566400  0.31255500  0.93403200  1
  H  H47  1  0.50566400  0.68744500  0.06596800  1
  N  N0  1  0.76346600  0.37994400  0.23312400  1
  N  N1  1  0.26346600  0.62005600  0.76687600  1
  N  N2  1  0.26346600  0.87994400  0.26687600  1
  N  N3  1  0.76346600  0.12005600  0.73312400  1
  N  N4  1  0.51838400  0.05941500  0.40875700  1
  N  N5  1  0.01838400  0.94058500  0.59124300  1
  N  N6  1  0.01838400  0.55941500  0.09124300  1
  N  N7  1  0.51838400  0.44058500  0.90875700  1
  N  N8  1  0.61753200  0.13787500  0.11593000  1
  N  N9  1  0.11753200  0.86212500  0.88407000  1
  N  N10  1  0.11753200  0.63787500  0.38407000  1
  N  N11  1  0.61753200  0.36212500  0.61593000  1
  N  N12  1  0.52665400  0.71358700  0.57512200  1
  N  N13  1  0.02665400  0.28641300  0.42487800  1
  N  N14  1  0.02665400  0.21358700  0.92487800  1
  N  N15  1  0.52665400  0.78641300  0.07512200  1
  F  F0  1  0.46319600  0.37873200  0.34941400  1
  F  F1  1  0.96319600  0.62126800  0.65058600  1
  F  F2  1  0.96319600  0.87873200  0.15058600  1
  F  F3  1  0.46319600  0.12126800  0.84941400  1
  F  F4  1  0.45732200  0.49058100  0.17737900  1
  F  F5  1  0.95732200  0.50941900  0.82262100  1
  F  F6  1  0.95732200  0.99058100  0.32262100  1
  F  F7  1  0.45732200  0.00941900  0.67737900  1
  F  F8  1  0.63705800  0.57404600  0.33011700  1
  F  F9  1  0.13705800  0.42595400  0.66988300  1
  F  F10  1  0.13705800  0.07404600  0.16988300  1
  F  F11  1  0.63705800  0.92595400  0.83011700  1
loop_
_geom_bond_atom_site_label_1
_geom_bond_atom_site_label_2
_geom_bond_distance
_geom_bond_site_symmetry_2
B0 F8 1.412017 1_555
B0 F4 1.422363 1_555
B0 F0 1.425053 1_555
B0 N0 1.559729 1_555
B1 F9 1.412017 1_555
B1 F5 1.422363 1_455
B1 F1 1.425053 1_455
B1 N1 1.559729 1_555
B2 F10 1.412017 1_565
B2 F6 1.422363 1_455
B2 F2 1.425053 1_455
B2 N2 1.559729 1_555
B3 F11 1.412017 1_545
B3 F7 1.422363 1_555
B3 F3 1.425053 1_555
B3 N3 1.559729 1_555
H0 N0 1.054216 1_555
H1 N1 1.054216 1_555
H2 N2 1.054216 1_555
H3 N3 1.054216 1_555
H4 N0 1.053019 1_555
H5 N1 1.053019 1_555
H6 N2 1.053019 1_555
H7 N3 1.053019 1_555
H8 N0 1.052826 1_555
H9 N1 1.052826 1_555
H10 N2 1.052826 1_555
H11 N3 1.052826 1_555
H12 N4 1.021819 1_555
H13 N5 1.021819 1_555
H14 N6 1.021819 1_555
H15 N7 1.021819 1_555
H16 N4 1.023376 1_555
H17 N5 1.023376 1_555
H18 N6 1.023376 1_555
H19 N7 1.023376 1_555
H20 N4 1.025683 1_555
H21 N5 1.025683 1_555
H22 N6 1.025683 1_555
H23 N7 1.025683 1_555
H24 N8 1.022952 1_555
H25 N9 1.022952 1_655
H26 N10 1.022952 1_655
H27 N11 1.022952 1_555
H28 N8 1.026122 1_555
H29 N9 1.026122 1_555
H30 N10 1.026122 1_555
H31 N11 1.026122 1_555
H32 N8 1.021627 1_555
H33 N9 1.021627 1_555
H34 N10 1.021627 1_555
H35 N11 1.021627 1_555
H36 N12 1.023633 1_555
H37 N13 1.023633 1_555
H38 N14 1.023633 1_554
H39 N15 1.023633 1_556
H40 N12 1.023420 1_555
H41 N13 1.023420 1_555
H42 N14 1.023420 1_555
H43 N15 1.023420 1_555
H44 N12 1.022083 1_555
H45 N13 1.022083 1_555
H46 N14 1.022083 1_555
H47 N15 1.022083 1_555
