# generated using pymatgen
data_CaSi2(AgO)8
_symmetry_space_group_name_H-M   'P 1'
_cell_length_a   5.71337400
_cell_length_b   7.56167200
_cell_length_c   7.56167200
_cell_angle_alpha   90.00000000
_cell_angle_beta   90.00000000
_cell_angle_gamma   90.00000000
_symmetry_Int_Tables_number   1
_chemical_formula_structural   CaSi2(AgO)8
_chemical_formula_sum   'Ca1 Si2 Ag8 O8'
_cell_volume   326.68434597
_cell_formula_units_Z   1
loop_
 _symmetry_equiv_pos_site_id
 _symmetry_equiv_pos_as_xyz
  1  'x, y, z'
loop_
 _atom_site_type_symbol
 _atom_site_label
 _atom_site_symmetry_multiplicity
 _atom_site_fract_x
 _atom_site_fract_y
 _atom_site_fract_z
 _atom_site_occupancy
  Ca  Ca0  1  0.75000000  0.75000000  0.75000000  1
  Si  Si0  1  0.75000000  0.25000000  0.25000000  1
  Si  Si1  1  0.25000000  0.75000000  0.75000000  1
  Ag  Ag0  1  0.26576600  0.11941000  0.49398600  1
  Ag  Ag1  1  0.88767200  0.60898300  0.12848000  1
  Ag  Ag2  1  0.88767200  0.89101700  0.37152000  1
  Ag  Ag3  1  0.61232800  0.37152000  0.60898300  1
  Ag  Ag4  1  0.61232800  0.12848000  0.89101700  1
  Ag  Ag5  1  0.23423400  0.49398600  0.38059000  1
  Ag  Ag6  1  0.26576600  0.38059000  0.00601400  1
  Ag  Ag7  1  0.23423400  0.00601400  0.11941000  1
  O  O0  1  0.42796400  0.58130300  0.79127000  1
  O  O1  1  0.91245300  0.27597500  0.43299400  1
  O  O2  1  0.07203600  0.79127000  0.91869700  1
  O  O3  1  0.58754700  0.43299400  0.22402500  1
  O  O4  1  0.91245300  0.22402500  0.06700600  1
  O  O5  1  0.42796400  0.91869700  0.70873000  1
  O  O6  1  0.07203600  0.70873000  0.58130300  1
  O  O7  1  0.58754700  0.06700600  0.27597500  1
loop_
_geom_bond_atom_site_label_1
_geom_bond_atom_site_label_2
_geom_bond_distance
_geom_bond_site_symmetry_2
Ca0 O6 2.260509 1_655
Ca0 O2 2.260509 1_655
Ca0 O5 2.260509 1_555
Ca0 O0 2.260509 1_555
Ag0 O1 2.385182 1_455
Ag0 O5 2.408125 1_545
Ag0 O7 2.500917 1_555
Ag1 O3 2.287622 1_555
Ag1 O2 2.350719 1_654
Ag2 O7 2.287622 1_565
Ag2 O6 2.350719 1_655
Ag3 O1 2.287622 1_555
Ag3 O0 2.350719 1_555
Ag4 O4 2.287622 1_556
Ag4 O5 2.350719 1_545
Ag5 O3 2.385182 1_555
Ag5 O6 2.408125 1_555
Ag5 O1 2.500917 1_455
Ag6 O4 2.385182 1_455
Ag6 O0 2.408125 1_554
Ag6 O3 2.500917 1_555
Ag7 O7 2.385182 1_555
Ag7 O2 2.408125 1_544
Ag7 O4 2.500917 1_455
O0 Si1 1.660860 1_555
O1 Si0 1.677733 1_555
O2 Si1 1.660860 1_555
O3 Si0 1.677733 1_555
O4 Si0 1.677733 1_555
O5 Si1 1.660860 1_555
O6 Si1 1.660860 1_555
O7 Si0 1.677733 1_555
