# generated using pymatgen
data_LiV2Zn2(SiO5)2
_symmetry_space_group_name_H-M   'P 1'
_cell_length_a   5.50759934
_cell_length_b   7.34925154
_cell_length_c   8.03077716
_cell_angle_alpha   89.57048479
_cell_angle_beta   42.09595955
_cell_angle_gamma   108.07077661
_symmetry_Int_Tables_number   1
_chemical_formula_structural   LiV2Zn2(SiO5)2
_chemical_formula_sum   'Li1 V2 Zn2 Si2 O10'
_cell_volume   192.21878009
_cell_formula_units_Z   1
loop_
 _symmetry_equiv_pos_site_id
 _symmetry_equiv_pos_as_xyz
  1  'x, y, z'
loop_
 _atom_site_type_symbol
 _atom_site_label
 _atom_site_symmetry_multiplicity
 _atom_site_fract_x
 _atom_site_fract_y
 _atom_site_fract_z
 _atom_site_occupancy
  Li  Li0  1  0.92145600  0.60062600  0.90817100  1
  V  V0  1  0.50569800  0.50366000  0.48713300  1
  V  V1  1  0.51289800  0.01190300  0.48976300  1
  Zn  Zn0  1  0.31881900  0.18632100  0.27325100  1
  Zn  Zn1  1  0.63014500  0.73892400  0.74611200  1
  Si  Si0  1  0.55200000  0.26514200  0.81960800  1
  Si  Si1  1  0.42970300  0.74708000  0.17500700  1
  O  O0  1  0.69469200  0.13007000  0.62486500  1
  O  O1  1  0.53018800  0.45128400  0.72453600  1
  O  O2  1  0.31246900  0.89589000  0.35105400  1
  O  O3  1  0.45807900  0.56435200  0.26911600  1
  O  O4  1  0.12370400  0.65748500  0.16794300  1
  O  O5  1  0.87910100  0.86412800  0.84713900  1
  O  O6  1  0.86074900  0.35904800  0.82592800  1
  O  O7  1  0.11347800  0.11752300  0.13967900  1
  O  O8  1  0.48531400  0.76247200  0.58393700  1
  O  O9  1  0.50438400  0.24165600  0.41257300  1
loop_
_geom_bond_atom_site_label_1
_geom_bond_atom_site_label_2
_geom_bond_distance
_geom_bond_site_symmetry_2
Li0 O8 1.870977 1_655
Li0 O3 1.890602 1_556
Li0 O6 1.917592 1_555
Li0 O5 2.116731 1_555
O0 Si0 1.652930 1_555
O0 V1 2.005169 1_555
O0 Zn0 2.157894 1_655
O1 Si0 1.640493 1_555
O1 V0 2.050379 1_555
O1 Zn1 2.055944 1_555
O2 Si1 1.648729 1_555
O2 V1 2.107506 1_565
O2 Zn0 2.201991 1_565
O2 Zn1 2.254016 1_455
O3 Si1 1.639909 1_555
O3 V0 2.018791 1_555
O4 Si1 1.652600 1_555
O4 V0 2.013780 1_455
O4 Zn1 2.127307 1_554
O5 Si1 1.665104 1_556
O5 Zn1 2.065039 1_555
O5 V1 2.082093 1_665
O6 Si0 1.664633 1_555
O6 V0 2.102786 1_655
O6 Zn0 2.256958 1_556
O7 Si0 1.654330 1_554
O7 V1 2.005344 1_455
O7 Zn0 2.034468 1_555
O8 V1 1.895087 1_565
O8 Zn1 1.996612 1_555
O8 V0 2.063972 1_555
O9 V1 1.820470 1_555
O9 Zn0 1.976800 1_555
O9 V0 2.020231 1_555
