# generated using pymatgen
data_Nd2CuSi3Rh2
_symmetry_space_group_name_H-M   'P 1'
_cell_length_a   8.79945338
_cell_length_b   8.79945338
_cell_length_c   4.12542100
_cell_angle_alpha   90.00000000
_cell_angle_beta   90.00000000
_cell_angle_gamma   152.10948344
_symmetry_Int_Tables_number   1
_chemical_formula_structural   Nd2CuSi3Rh2
_chemical_formula_sum   'Nd2 Cu1 Si3 Rh2'
_cell_volume   149.42545641
_cell_formula_units_Z   1
loop_
 _symmetry_equiv_pos_site_id
 _symmetry_equiv_pos_as_xyz
  1  'x, y, z'
loop_
 _atom_site_type_symbol
 _atom_site_label
 _atom_site_symmetry_multiplicity
 _atom_site_fract_x
 _atom_site_fract_y
 _atom_site_fract_z
 _atom_site_occupancy
  Nd  Nd0  1  0.89619500  0.10380500  0.00000000  1
  Nd  Nd1  1  0.10818400  0.89181600  0.50000000  1
  Cu  Cu0  1  0.66773200  0.33226800  0.00000000  1
  Si  Si0  1  0.31872000  0.68128000  0.50000000  1
  Si  Si1  1  0.53470900  0.46529100  0.00000000  1
  Si  Si2  1  0.46300100  0.53699900  0.50000000  1
  Rh  Rh0  1  0.25526500  0.74473500  0.00000000  1
  Rh  Rh1  1  0.75619400  0.24380600  0.50000000  1
loop_
_geom_bond_atom_site_label_1
_geom_bond_atom_site_label_2
_geom_bond_distance
_geom_bond_site_symmetry_2
Nd0 Rh1 3.157979 1_555
Nd0 Rh1 3.157979 1_554
Nd0 Si2 3.170778 1_655
Nd0 Si2 3.170778 1_654
Nd0 Si2 3.170778 1_544
Nd0 Si2 3.170778 1_545
Nd0 Si1 3.177148 1_655
Nd0 Si1 3.177148 1_545
Nd0 Rh0 3.207995 1_655
Nd0 Rh0 3.207995 1_545
Nd0 Si0 3.240819 1_545
Nd0 Si0 3.240819 1_544
Nd0 Si0 3.240819 1_654
Nd0 Si0 3.240819 1_655
Nd1 Si1 3.213527 1_456
Nd1 Si1 3.213527 1_455
Nd1 Si1 3.213527 1_566
Nd1 Si1 3.213527 1_565
Nd1 Rh0 3.250506 1_556
Nd1 Rh0 3.250506 1_555
Nd1 Si2 3.262855 1_455
Nd1 Si2 3.262855 1_565
Nd1 Rh1 3.299701 1_455
Nd1 Rh1 3.299701 1_565
Cu0 Si1 2.272060 1_555
Cu0 Rh1 2.556901 1_555
Cu0 Rh1 2.556901 1_554
Cu0 Rh0 2.594669 1_655
Cu0 Rh0 2.594669 1_545
Cu0 Nd1 3.128304 1_655
Cu0 Nd1 3.128304 1_654
Cu0 Nd1 3.128304 1_544
Cu0 Nd1 3.128304 1_545
Si0 Si2 2.464349 1_555
Si1 Si2 2.398933 1_555
Si1 Si2 2.398933 1_554
Rh0 Si0 2.330118 1_554
Rh0 Si0 2.330118 1_555
Rh1 Si0 2.374357 1_545
Rh1 Si0 2.374357 1_655
