# generated using pymatgen
data_CaMn3V4O12
_symmetry_space_group_name_H-M   'P 1'
_cell_length_a   6.52433921
_cell_length_b   6.52433921
_cell_length_c   6.52433921
_cell_angle_alpha   109.47122063
_cell_angle_beta   109.47122063
_cell_angle_gamma   109.47122063
_symmetry_Int_Tables_number   1
_chemical_formula_structural   CaMn3V4O12
_chemical_formula_sum   'Ca1 Mn3 V4 O12'
_cell_volume   213.79015750
_cell_formula_units_Z   1
loop_
 _symmetry_equiv_pos_site_id
 _symmetry_equiv_pos_as_xyz
  1  'x, y, z'
loop_
 _atom_site_type_symbol
 _atom_site_label
 _atom_site_symmetry_multiplicity
 _atom_site_fract_x
 _atom_site_fract_y
 _atom_site_fract_z
 _atom_site_occupancy
  Ca  Ca0  1  0.00000000  0.00000000  0.00000000  1
  Mn  Mn0  1  0.50000000  0.00000000  0.50000000  1
  Mn  Mn1  1  0.00000000  0.50000000  0.50000000  1
  Mn  Mn2  1  0.50000000  0.50000000  0.00000000  1
  V  V0  1  0.00000000  0.00000000  0.50000000  1
  V  V1  1  0.50000000  0.00000000  0.00000000  1
  V  V2  1  0.00000000  0.50000000  0.00000000  1
  V  V3  1  0.50000000  0.50000000  0.50000000  1
  O  O0  1  0.69939800  0.80952000  0.50891800  1
  O  O1  1  0.69939800  0.19048000  0.88987800  1
  O  O2  1  0.30060200  0.80952000  0.11012200  1
  O  O3  1  0.30060200  0.19048000  0.49108200  1
  O  O4  1  0.80952000  0.50891800  0.69939800  1
  O  O5  1  0.19048000  0.88987800  0.69939800  1
  O  O6  1  0.80952000  0.11012200  0.30060200  1
  O  O7  1  0.19048000  0.49108200  0.30060200  1
  O  O8  1  0.50891800  0.69939800  0.80952000  1
  O  O9  1  0.88987800  0.69939800  0.19048000  1
  O  O10  1  0.11012200  0.30060200  0.80952000  1
  O  O11  1  0.49108200  0.30060200  0.19048000  1
loop_
_geom_bond_atom_site_label_1
_geom_bond_atom_site_label_2
_geom_bond_distance
_geom_bond_site_symmetry_2
Ca0 O7 2.681011 1_555
Ca0 O11 2.681011 1_555
Ca0 O3 2.681011 1_555
Ca0 O10 2.681011 1_554
Ca0 O4 2.681011 1_444
Ca0 O6 2.681011 1_455
Ca0 O0 2.681011 1_444
Ca0 O2 2.681011 1_545
Ca0 O9 2.681011 1_445
Ca0 O5 2.681011 1_544
Ca0 O8 2.681011 1_444
Ca0 O1 2.681011 1_454
Mn0 O0 2.077463 1_545
Mn0 O1 2.077463 1_555
Mn0 O2 2.077463 1_545
Mn0 O3 2.077463 1_555
Mn1 O4 2.077463 1_455
Mn1 O5 2.077463 1_555
Mn1 O6 2.077463 1_455
Mn1 O7 2.077463 1_555
Mn2 O9 2.077463 1_555
Mn2 O8 2.077463 1_554
Mn2 O11 2.077463 1_555
Mn2 O10 2.077463 1_554
O0 V0 1.973232 1_665
O0 V3 1.973232 1_555
O1 V2 1.973232 1_656
O1 V1 1.973232 1_556
O2 V2 1.973232 1_555
O2 V1 1.973232 1_565
O3 V3 1.973232 1_555
O3 V0 1.973232 1_555
O4 V2 1.973232 1_656
O4 V3 1.973232 1_555
O5 V0 1.973232 1_565
O5 V1 1.973232 1_566
O6 V0 1.973232 1_655
O6 V1 1.973232 1_555
O7 V3 1.973232 1_555
O7 V2 1.973232 1_555
O8 V1 1.973232 1_566
O8 V3 1.973232 1_555
O9 V0 1.973232 1_665
O9 V2 1.973232 1_655
O10 V0 1.973232 1_555
O10 V2 1.973232 1_556
O11 V3 1.973232 1_555
O11 V1 1.973232 1_555
