# generated using pymatgen
data_Ba(As3Ru)4
_symmetry_space_group_name_H-M   'P 1'
_cell_length_a   7.48927857
_cell_length_b   7.48927857
_cell_length_c   7.48927857
_cell_angle_alpha   109.47122063
_cell_angle_beta   109.47122063
_cell_angle_gamma   109.47122063
_symmetry_Int_Tables_number   1
_chemical_formula_structural   Ba(As3Ru)4
_chemical_formula_sum   'Ba1 As12 Ru4'
_cell_volume   323.36876219
_cell_formula_units_Z   1
loop_
 _symmetry_equiv_pos_site_id
 _symmetry_equiv_pos_as_xyz
  1  'x, y, z'
loop_
 _atom_site_type_symbol
 _atom_site_label
 _atom_site_symmetry_multiplicity
 _atom_site_fract_x
 _atom_site_fract_y
 _atom_site_fract_z
 _atom_site_occupancy
  Ba  Ba0  1  0.00000000  0.00000000  0.00000000  1
  As  As0  1  0.84762700  0.64684100  0.49446800  1
  As  As1  1  0.15237300  0.35315900  0.50553200  1
  As  As2  1  0.15237300  0.64684100  0.79921500  1
  As  As3  1  0.84762700  0.35315900  0.20078500  1
  As  As4  1  0.64684100  0.49446800  0.84762700  1
  As  As5  1  0.35315900  0.50553200  0.15237300  1
  As  As6  1  0.64684100  0.79921500  0.15237300  1
  As  As7  1  0.35315900  0.20078500  0.84762700  1
  As  As8  1  0.49446800  0.84762700  0.64684100  1
  As  As9  1  0.50553200  0.15237300  0.35315900  1
  As  As10  1  0.20078500  0.84762700  0.35315900  1
  As  As11  1  0.79921500  0.15237300  0.64684100  1
  Ru  Ru0  1  0.50000000  0.50000000  0.50000000  1
  Ru  Ru1  1  0.50000000  0.00000000  0.00000000  1
  Ru  Ru2  1  0.00000000  0.50000000  0.00000000  1
  Ru  Ru3  1  0.00000000  0.00000000  0.50000000  1
loop_
_geom_bond_atom_site_label_1
_geom_bond_atom_site_label_2
_geom_bond_distance
_geom_bond_site_symmetry_2
As0 Ru3 2.486513 1_665
As0 Ru0 2.486513 1_555
As0 As3 2.539729 1_555
As0 As2 2.635409 1_655
As0 Ba0 3.326216 1_666
As1 Ru3 2.486513 1_555
As1 Ru0 2.486513 1_555
As1 As2 2.539729 1_555
As1 As3 2.635409 1_455
As1 Ba0 3.326216 1_555
As2 Ru2 2.486506 1_556
As2 Ru1 2.486514 1_566
As2 Ba0 3.326213 1_566
As3 Ru2 2.486506 1_655
As3 Ru1 2.486514 1_555
As3 Ba0 3.326213 1_655
As4 Ru2 2.486513 1_656
As4 Ru0 2.486513 1_555
As4 As7 2.539729 1_555
As4 As6 2.635409 1_556
As4 Ba0 3.326216 1_666
As5 Ru2 2.486513 1_555
As5 Ru0 2.486513 1_555
As5 As6 2.539729 1_555
As5 As7 2.635409 1_554
As5 Ba0 3.326216 1_555
As6 Ru1 2.486506 1_565
As6 Ru3 2.486514 1_665
As6 Ba0 3.326213 1_665
As7 Ru1 2.486506 1_556
As7 Ru3 2.486514 1_555
As7 Ba0 3.326213 1_556
As8 Ru1 2.486513 1_566
As8 Ru0 2.486513 1_555
As8 Ba0 3.326216 1_666
As9 Ru1 2.486513 1_555
As9 Ru0 2.486513 1_555
As9 Ba0 3.326216 1_555
As10 Ru3 2.486506 1_565
As10 Ru2 2.486514 1_555
As10 As8 2.539729 1_555
As10 As9 2.635409 1_565
As10 Ba0 3.326213 1_565
As11 Ru3 2.486506 1_655
As11 Ru2 2.486514 1_656
As11 As9 2.539729 1_555
As11 As8 2.635409 1_545
As11 Ba0 3.326213 1_656
