# generated using pymatgen
data_TmAlNi4
_symmetry_space_group_name_H-M   'P 1'
_cell_length_a   5.02207789
_cell_length_b   5.02207789
_cell_length_c   3.85358100
_cell_angle_alpha   90.00000000
_cell_angle_beta   90.00000000
_cell_angle_gamma   119.99999854
_symmetry_Int_Tables_number   1
_chemical_formula_structural   TmAlNi4
_chemical_formula_sum   'Tm1 Al1 Ni4'
_cell_volume   84.17090917
_cell_formula_units_Z   1
loop_
 _symmetry_equiv_pos_site_id
 _symmetry_equiv_pos_as_xyz
  1  'x, y, z'
loop_
 _atom_site_type_symbol
 _atom_site_label
 _atom_site_symmetry_multiplicity
 _atom_site_fract_x
 _atom_site_fract_y
 _atom_site_fract_z
 _atom_site_occupancy
  Tm  Tm0  1  0.33333300  0.66666700  0.00000000  1
  Al  Al0  1  0.66666700  0.33333300  0.00000000  1
  Ni  Ni0  1  0.00000000  0.00000000  0.00000000  1
  Ni  Ni1  1  0.32964000  0.16482000  0.50000000  1
  Ni  Ni2  1  0.83518000  0.16482000  0.50000000  1
  Ni  Ni3  1  0.83518000  0.67036000  0.50000000  1
loop_
_geom_bond_atom_site_label_1
_geom_bond_atom_site_label_2
_geom_bond_distance
_geom_bond_site_symmetry_2
Al0 Ni2 2.420975 1_555
Al0 Ni2 2.420975 1_554
Al0 Ni1 2.420977 1_555
Al0 Ni3 2.420977 1_554
Al0 Ni1 2.420977 1_554
Al0 Ni3 2.420977 1_555
Al0 Ni0 2.899495 1_655
Al0 Tm0 2.899495 1_545
Al0 Tm0 2.899495 1_655
Al0 Ni0 2.899500 1_555
Al0 Ni0 2.899500 1_665
Al0 Tm0 2.899504 1_555
Ni0 Ni2 2.401661 1_455
Ni0 Ni2 2.401661 1_454
Ni0 Ni1 2.401661 1_554
Ni0 Ni1 2.401661 1_555
Ni0 Ni3 2.401661 1_444
Ni0 Ni3 2.401661 1_445
Ni0 Tm0 2.899495 1_545
Ni0 Tm0 2.899500 1_555
Ni0 Tm0 2.899500 1_445
Ni1 Ni2 2.483217 1_455
Ni1 Ni3 2.483217 1_445
Ni1 Ni2 2.538861 1_555
Ni1 Ni3 2.538861 1_555
Ni1 Tm0 3.165136 1_546
Ni1 Tm0 3.165136 1_545
Ni1 Tm0 3.165140 1_555
Ni1 Tm0 3.165140 1_556
Ni2 Ni3 2.483217 1_545
Ni2 Ni3 2.538861 1_555
Ni2 Tm0 3.165138 1_545
Ni2 Tm0 3.165138 1_546
Ni2 Tm0 3.165138 1_655
Ni2 Tm0 3.165138 1_656
Ni3 Tm0 3.165136 1_655
Ni3 Tm0 3.165136 1_656
Ni3 Tm0 3.165140 1_555
Ni3 Tm0 3.165140 1_556
