# generated using pymatgen
data_KFe3(SO7)2
_symmetry_space_group_name_H-M   'P 1'
_cell_length_a   7.64098072
_cell_length_b   7.64098072
_cell_length_c   7.64098124
_cell_angle_alpha   54.51807067
_cell_angle_beta   54.51807067
_cell_angle_gamma   54.51807172
_symmetry_Int_Tables_number   1
_chemical_formula_structural   KFe3(SO7)2
_chemical_formula_sum   'K1 Fe3 S2 O14'
_cell_volume   275.13865361
_cell_formula_units_Z   1
loop_
 _symmetry_equiv_pos_site_id
 _symmetry_equiv_pos_as_xyz
  1  'x, y, z'
loop_
 _atom_site_type_symbol
 _atom_site_label
 _atom_site_symmetry_multiplicity
 _atom_site_fract_x
 _atom_site_fract_y
 _atom_site_fract_z
 _atom_site_occupancy
  K  K0  1  0.00049200  0.00049200  0.00049200  1
  Fe  Fe0  1  0.00327000  0.48671600  0.00327000  1
  Fe  Fe1  1  0.00327000  0.00327000  0.48671600  1
  Fe  Fe2  1  0.48671600  0.00327000  0.00327000  1
  S  S0  1  0.70327900  0.70327900  0.70327900  1
  S  S1  1  0.29616000  0.29616000  0.29616000  1
  O  O0  1  0.62894500  0.62894500  0.62894500  1
  O  O1  1  0.37060200  0.37060200  0.37060200  1
  O  O2  1  0.84650400  0.49614100  0.84650400  1
  O  O3  1  0.84650400  0.84650400  0.49614100  1
  O  O4  1  0.49614100  0.84650400  0.84650400  1
  O  O5  1  0.15299000  0.50196400  0.15299000  1
  O  O6  1  0.15299000  0.15299000  0.50196400  1
  O  O7  1  0.50196400  0.15299000  0.15299000  1
  O  O8  1  0.74922000  0.08319200  0.74922000  1
  O  O9  1  0.74922000  0.74922000  0.08319200  1
  O  O10  1  0.08319200  0.74922000  0.74922000  1
  O  O11  1  0.27126400  0.88611100  0.27126400  1
  O  O12  1  0.27126400  0.27126400  0.88611100  1
  O  O13  1  0.88611100  0.27126400  0.27126400  1
loop_
_geom_bond_atom_site_label_1
_geom_bond_atom_site_label_2
_geom_bond_distance
_geom_bond_site_symmetry_2
K0 O4 2.893623 1_544
K0 O2 2.893623 1_454
K0 O3 2.893623 1_445
K0 O7 2.914873 1_455
K0 O5 2.914873 1_545
K0 O6 2.914873 1_554
K0 O9 3.038800 1_445
K0 O10 3.038800 1_544
K0 O8 3.038800 1_454
K0 O12 3.177429 1_554
K0 O13 3.177429 1_455
K0 O11 3.177429 1_545
Fe0 O13 1.836868 1_455
Fe0 O12 1.836868 1_554
Fe0 O10 1.920954 1_554
Fe0 O9 1.920954 1_455
Fe0 O2 2.083329 1_454
Fe0 O5 2.111840 1_555
Fe1 O13 1.836868 1_455
Fe1 O11 1.836868 1_545
Fe1 O8 1.920954 1_455
Fe1 O10 1.920954 1_545
Fe1 O3 2.083329 1_445
Fe1 O6 2.111840 1_555
Fe2 O11 1.836868 1_545
Fe2 O12 1.836868 1_554
Fe2 O8 1.920954 1_554
Fe2 O9 1.920954 1_545
Fe2 O4 2.083329 1_544
Fe2 O7 2.111840 1_555
O0 S0 1.446152 1_555
O1 S1 1.448253 1_555
O2 S0 1.506371 1_555
O3 S0 1.506371 1_555
O4 S0 1.506371 1_555
O5 S1 1.503835 1_555
O6 S1 1.503835 1_555
O7 S1 1.503835 1_555
