# generated using pymatgen
data_Mg3Bi2(AsO6)2
_symmetry_space_group_name_H-M   'P 1'
_cell_length_a   5.48221100
_cell_length_b   7.39215200
_cell_length_c   7.53454980
_cell_angle_alpha   64.82661573
_cell_angle_beta   90.00000000
_cell_angle_gamma   90.00000000
_symmetry_Int_Tables_number   1
_chemical_formula_structural   Mg3Bi2(AsO6)2
_chemical_formula_sum   'Mg3 Bi2 As2 O12'
_cell_volume   276.34040889
_cell_formula_units_Z   1
loop_
 _symmetry_equiv_pos_site_id
 _symmetry_equiv_pos_as_xyz
  1  'x, y, z'
loop_
 _atom_site_type_symbol
 _atom_site_label
 _atom_site_symmetry_multiplicity
 _atom_site_fract_x
 _atom_site_fract_y
 _atom_site_fract_z
 _atom_site_occupancy
  Mg  Mg0  1  0.50000000  0.27791100  0.90015100  1
  Mg  Mg1  1  0.00000000  0.72219200  0.09644800  1
  Mg  Mg2  1  0.50000000  0.89222300  0.29028300  1
  Bi  Bi0  1  0.00000000  0.59292300  0.58799900  1
  Bi  Bi1  1  0.50000000  0.40339100  0.40906700  1
  As  As0  1  0.00000000  0.19819400  0.19378000  1
  As  As1  1  0.50000000  0.79941100  0.80376700  1
  O  O0  1  0.25463600  0.87866400  0.89277600  1
  O  O1  1  0.00000000  0.08979200  0.44574300  1
  O  O2  1  0.24905200  0.66932700  0.32723600  1
  O  O3  1  0.00000000  0.45194500  0.09184400  1
  O  O4  1  0.74003500  0.11580700  0.12022400  1
  O  O5  1  0.26665100  0.34500300  0.66876600  1
  O  O6  1  0.75094800  0.66932700  0.32723600  1
  O  O7  1  0.50000000  0.54434100  0.89965800  1
  O  O8  1  0.73334900  0.34500300  0.66876600  1
  O  O9  1  0.74536400  0.87866400  0.89277600  1
  O  O10  1  0.25996500  0.11580700  0.12022400  1
  O  O11  1  0.50000000  0.90632400  0.55172000  1
loop_
_geom_bond_atom_site_label_1
_geom_bond_atom_site_label_2
_geom_bond_distance
_geom_bond_site_symmetry_2
Mg0 O7 1.967914 1_555
Mg0 O5 2.046049 1_555
Mg0 O8 2.046049 1_555
Mg0 O10 2.055892 1_556
Mg0 O4 2.055892 1_556
Mg1 O3 2.012707 1_555
Mg1 O0 2.032612 1_554
Mg1 O9 2.032612 1_454
Mg1 O2 2.112472 1_555
Mg1 O6 2.112472 1_455
Mg2 O11 2.016356 1_555
Mg2 O6 2.072388 1_555
Mg2 O2 2.072388 1_555
Mg2 O4 2.074484 1_565
Mg2 O10 2.074484 1_565
Bi0 O8 2.217471 1_455
Bi0 O5 2.217471 1_555
Bi0 O2 2.258173 1_555
Bi0 O6 2.258173 1_455
Bi1 O5 2.221054 1_555
Bi1 O8 2.221054 1_555
Bi1 O6 2.259699 1_555
Bi1 O2 2.259699 1_555
As0 O3 1.697877 1_555
As0 O1 1.718135 1_555
As0 O4 1.730993 1_455
As0 O10 1.730993 1_555
As1 O7 1.708291 1_555
As1 O9 1.713657 1_555
As1 O0 1.713657 1_555
As1 O11 1.718786 1_555
