# generated using pymatgen
data_In(Ni11B3)2
_symmetry_space_group_name_H-M   'P 1'
_cell_length_a   7.44476950
_cell_length_b   7.44476950
_cell_length_c   7.44476950
_cell_angle_alpha   60.00000000
_cell_angle_beta   60.00000000
_cell_angle_gamma   60.00000000
_symmetry_Int_Tables_number   1
_chemical_formula_structural   In(Ni11B3)2
_chemical_formula_sum   'In1 Ni22 B6'
_cell_volume   291.76874718
_cell_formula_units_Z   1
loop_
 _symmetry_equiv_pos_site_id
 _symmetry_equiv_pos_as_xyz
  1  'x, y, z'
loop_
 _atom_site_type_symbol
 _atom_site_label
 _atom_site_symmetry_multiplicity
 _atom_site_fract_x
 _atom_site_fract_y
 _atom_site_fract_z
 _atom_site_occupancy
  In  In0  1  0.00000000  0.00000000  0.00000000  1
  Ni  Ni0  1  0.85364600  0.38211800  0.38211800  1
  Ni  Ni1  1  0.38211800  0.85364600  0.38211800  1
  Ni  Ni2  1  0.38211800  0.38211800  0.38211800  1
  Ni  Ni3  1  0.38211800  0.38211800  0.85364600  1
  Ni  Ni4  1  0.14635400  0.61788200  0.61788200  1
  Ni  Ni5  1  0.61788200  0.14635400  0.61788200  1
  Ni  Ni6  1  0.61788200  0.61788200  0.61788200  1
  Ni  Ni7  1  0.61788200  0.61788200  0.14635400  1
  Ni  Ni8  1  0.00000000  0.00000000  0.34394300  1
  Ni  Ni9  1  0.65605700  0.00000000  0.34394300  1
  Ni  Ni10  1  0.00000000  0.65605700  0.34394300  1
  Ni  Ni11  1  0.65605700  0.34394300  0.00000000  1
  Ni  Ni12  1  0.00000000  0.34394300  0.00000000  1
  Ni  Ni13  1  0.00000000  0.34394300  0.65605700  1
  Ni  Ni14  1  0.34394300  0.65605700  0.00000000  1
  Ni  Ni15  1  0.34394300  0.00000000  0.65605700  1
  Ni  Ni16  1  0.34394300  0.00000000  0.00000000  1
  Ni  Ni17  1  0.00000000  0.00000000  0.65605700  1
  Ni  Ni18  1  0.00000000  0.65605700  0.00000000  1
  Ni  Ni19  1  0.65605700  0.00000000  0.00000000  1
  Ni  Ni20  1  0.75000000  0.75000000  0.75000000  1
  Ni  Ni21  1  0.25000000  0.25000000  0.25000000  1
  B  B0  1  0.27503000  0.72497000  0.27503000  1
  B  B1  1  0.72497000  0.27503000  0.27503000  1
  B  B2  1  0.72497000  0.72497000  0.27503000  1
  B  B3  1  0.72497000  0.27503000  0.72497000  1
  B  B4  1  0.27503000  0.27503000  0.72497000  1
  B  B5  1  0.27503000  0.72497000  0.72497000  1
loop_
_geom_bond_atom_site_label_1
_geom_bond_atom_site_label_2
_geom_bond_distance
_geom_bond_site_symmetry_2
In0 Ni13 2.560576 1_554
In0 Ni12 2.560576 1_555
In0 Ni18 2.560576 1_545
In0 Ni17 2.560576 1_554
In0 Ni16 2.560576 1_555
In0 Ni10 2.560576 1_545
In0 Ni19 2.560576 1_455
In0 Ni9 2.560576 1_455
In0 Ni15 2.560576 1_554
In0 Ni11 2.560576 1_455
In0 Ni8 2.560576 1_555
In0 Ni14 2.560576 1_545
Ni0 Ni21 2.409289 1_655
Ni1 Ni21 2.409289 1_565
Ni2 Ni21 2.409289 1_555
Ni20 Ni5 2.409289 1_565
Ni20 Ni7 2.409289 1_556
Ni20 Ni4 2.409289 1_655
Ni20 Ni6 2.409289 1_555
Ni21 Ni3 2.409289 1_554
B0 Ni1 2.086135 1_555
B0 Ni7 2.086135 1_555
B0 Ni4 2.086135 1_555
B0 Ni2 2.086135 1_555
B0 Ni10 2.110832 1_555
B0 Ni8 2.110832 1_565
B0 Ni14 2.110832 1_555
B0 Ni16 2.110832 1_565
B1 Ni0 2.086135 1_555
B1 Ni7 2.086135 1_555
B1 Ni5 2.086135 1_555
B1 Ni2 2.086135 1_555
B1 Ni11 2.110832 1_555
B1 Ni8 2.110832 1_655
B1 Ni9 2.110832 1_555
B1 Ni12 2.110832 1_655
B2 Ni6 2.086135 1_555
B2 Ni0 2.086135 1_555
B2 Ni1 2.086135 1_555
B2 Ni7 2.086135 1_555
B2 Ni18 2.110832 1_655
B2 Ni10 2.110832 1_655
B2 Ni9 2.110832 1_565
B2 Ni19 2.110832 1_565
B3 Ni6 2.086135 1_555
B3 Ni3 2.086135 1_555
B3 Ni0 2.086135 1_555
B3 Ni5 2.086135 1_555
B3 Ni11 2.110832 1_556
B3 Ni19 2.110832 1_556
B3 Ni17 2.110832 1_655
B3 Ni13 2.110832 1_655
B4 Ni3 2.086135 1_555
B4 Ni5 2.086135 1_555
B4 Ni4 2.086135 1_555
B4 Ni2 2.086135 1_555
B4 Ni13 2.110832 1_555
B4 Ni16 2.110832 1_556
B4 Ni15 2.110832 1_555
B4 Ni12 2.110832 1_556
B5 Ni6 2.086135 1_555
B5 Ni3 2.086135 1_555
B5 Ni1 2.086135 1_555
B5 Ni4 2.086135 1_555
B5 Ni14 2.110832 1_556
B5 Ni17 2.110832 1_565
B5 Ni18 2.110832 1_556
B5 Ni15 2.110832 1_565
