# generated using pymatgen
data_Li9Mn2Co5O16
_symmetry_space_group_name_H-M   'P 1'
_cell_length_a   9.82378294
_cell_length_b   9.82378294
_cell_length_c   10.17152856
_cell_angle_alpha   85.77020408
_cell_angle_beta   85.77020408
_cell_angle_gamma   17.07089183
_symmetry_Int_Tables_number   1
_chemical_formula_structural   Li9Mn2Co5O16
_chemical_formula_sum   'Li9 Mn2 Co5 O16'
_cell_volume   287.35682634
_cell_formula_units_Z   1
loop_
 _symmetry_equiv_pos_site_id
 _symmetry_equiv_pos_as_xyz
  1  'x, y, z'
loop_
 _atom_site_type_symbol
 _atom_site_label
 _atom_site_symmetry_multiplicity
 _atom_site_fract_x
 _atom_site_fract_y
 _atom_site_fract_z
 _atom_site_occupancy
  Li  Li0  1  0.36460600  0.36460600  0.93561700  1
  Li  Li1  1  0.13640400  0.13640400  0.81763500  1
  Li  Li2  1  0.86947500  0.86947500  0.68489700  1
  Li  Li3  1  0.63249300  0.63249300  0.56223400  1
  Li  Li4  1  0.36991600  0.36991600  0.43544300  1
  Li  Li5  1  0.13133000  0.13133000  0.31191100  1
  Li  Li6  1  0.86794000  0.86794000  0.18630600  1
  Li  Li7  1  0.62892900  0.62892900  0.06442300  1
  Li  Li8  1  0.75002200  0.75002200  0.87572700  1
  Mn  Mn0  1  0.00078800  0.00078800  0.00052000  1
  Mn  Mn1  1  0.99920800  0.99920800  0.49896800  1
  Co  Co0  1  0.50039500  0.50039500  0.75025000  1
  Co  Co1  1  0.25131900  0.25131900  0.63969400  1
  Co  Co2  1  0.75009400  0.75009400  0.37511900  1
  Co  Co3  1  0.49933800  0.49933800  0.25027200  1
  Co  Co4  1  0.24851100  0.24851100  0.11065100  1
  O  O0  1  0.44367200  0.44367200  0.07473800  1
  O  O1  1  0.18922000  0.18922000  0.98403400  1
  O  O2  1  0.94840100  0.94840100  0.84170500  1
  O  O3  1  0.68997600  0.68997600  0.71342100  1
  O  O4  1  0.44387500  0.44387500  0.57909300  1
  O  O5  1  0.19342800  0.19342800  0.46818100  1
  O  O6  1  0.94458600  0.94458600  0.35076000  1
  O  O7  1  0.69429300  0.69429300  0.22858700  1
  O  O8  1  0.31266100  0.31266100  0.76434300  1
  O  O9  1  0.05145600  0.05145600  0.65765400  1
  O  O10  1  0.80439900  0.80439900  0.52275700  1
  O  O11  1  0.55664300  0.55664300  0.42507100  1
  O  O12  1  0.30676700  0.30676700  0.28096100  1
  O  O13  1  0.05446900  0.05446900  0.15112600  1
  O  O14  1  0.80924900  0.80924900  0.03747300  1
  O  O15  1  0.55613800  0.55613800  0.92042900  1
loop_
_geom_bond_atom_site_label_1
_geom_bond_atom_site_label_2
_geom_bond_distance
_geom_bond_site_symmetry_2
Li0 O14 2.046938 1_546
Li0 O14 2.046938 1_456
Li0 O8 2.077479 1_555
Li0 O0 2.164894 1_556
Li0 O2 2.336070 1_455
Li0 O2 2.336070 1_545
Li1 O3 2.041680 1_455
Li1 O3 2.041680 1_545
Li1 O1 2.043737 1_555
Li1 O15 2.325545 1_455
Li1 O15 2.325545 1_545
Li1 O9 2.402676 1_555
Li2 O8 1.965822 1_565
Li2 O8 1.965822 1_655
Li2 O10 2.151679 1_555
Li2 O4 2.267549 1_655
Li2 O4 2.267549 1_565
Li2 O2 2.293581 1_555
Li3 O3 1.966847 1_555
Li3 O5 2.067355 1_565
Li3 O5 2.067355 1_655
Li3 O11 2.103602 1_555
Li3 O9 2.306333 1_655
Li3 O9 2.306333 1_565
Li4 O12 2.064489 1_555
Li4 O10 2.089630 1_545
Li4 O10 2.089630 1_455
Li4 O4 2.124420 1_555
Li4 O6 2.187779 1_545
Li4 O6 2.187779 1_455
Li5 O7 2.046024 1_455
Li5 O7 2.046024 1_545
Li5 O5 2.066008 1_555
Li5 O13 2.295475 1_555
Li5 O11 2.303798 1_545
Li5 O11 2.303798 1_455
Li6 O14 1.962068 1_555
Li6 O12 2.072422 1_565
Li6 O12 2.072422 1_655
Li6 O0 2.308653 1_655
Li6 O0 2.308653 1_565
Li6 O6 2.321094 1_555
Li7 O1 2.005978 1_564
Li7 O1 2.005978 1_654
Li7 O15 2.110564 1_554
Li7 O7 2.171983 1_555
Li7 O13 2.192365 1_655
Li7 O13 2.192365 1_565
Li8 O14 2.076872 1_556
Li8 O3 2.091398 1_555
Li8 O1 2.130982 1_655
Li8 O1 2.130982 1_565
Li8 O8 2.164505 1_565
Li8 O8 2.164505 1_655
Mn0 O13 1.916487 1_555
Mn0 O0 1.949981 1_455
Mn0 O0 1.949981 1_545
Mn0 O15 1.953327 1_454
Mn0 O15 1.953327 1_544
Mn0 O2 1.972519 1_444
Mn1 O6 1.907244 1_555
Mn1 O11 1.952216 1_565
Mn1 O11 1.952216 1_655
Mn1 O4 1.953286 1_565
Mn1 O4 1.953286 1_655
Mn1 O9 1.969836 1_665
Co0 O9 1.964155 1_655
Co0 O9 1.964155 1_565
Co0 O2 1.967659 1_545
Co0 O2 1.967659 1_455
Co0 O15 2.109270 1_555
Co0 O4 2.126503 1_555
Co1 O8 1.803737 1_555
Co1 O3 1.993887 1_545
Co1 O3 1.993887 1_455
Co1 O10 2.102702 1_455
Co1 O10 2.102702 1_545
Co1 O5 2.145083 1_555
Co2 O10 1.898631 1_555
Co2 O7 1.907358 1_555
Co2 O5 2.019587 1_655
Co2 O5 2.019587 1_565
Co2 O12 2.024453 1_565
Co2 O12 2.024453 1_655
Co3 O13 2.032056 1_565
Co3 O13 2.032056 1_655
Co3 O6 2.034746 1_455
Co3 O6 2.034746 1_545
Co3 O0 2.155393 1_555
Co3 O11 2.167076 1_555
Co4 O1 1.790844 1_554
Co4 O14 1.985361 1_545
Co4 O14 1.985361 1_455
Co4 O7 2.118067 1_545
Co4 O7 2.118067 1_455
Co4 O12 2.138836 1_555
