# generated using pymatgen
data_MgCo6Ag2P6(HO6)4
_symmetry_space_group_name_H-M   'P 1'
_cell_length_a   6.51066292
_cell_length_b   9.09070145
_cell_length_c   8.93187104
_cell_angle_alpha   85.98501901
_cell_angle_beta   105.44663966
_cell_angle_gamma   108.28152502
_symmetry_Int_Tables_number   1
_chemical_formula_structural   MgCo6Ag2P6(HO6)4
_chemical_formula_sum   'Mg1 Co6 Ag2 P6 H4 O24'
_cell_volume   483.77925246
_cell_formula_units_Z   1
loop_
 _symmetry_equiv_pos_site_id
 _symmetry_equiv_pos_as_xyz
  1  'x, y, z'
loop_
 _atom_site_type_symbol
 _atom_site_label
 _atom_site_symmetry_multiplicity
 _atom_site_fract_x
 _atom_site_fract_y
 _atom_site_fract_z
 _atom_site_occupancy
  Mg  Mg0  1  0.99592155  0.03592033  0.63973640  1
  Co  Co0  1  0.25354537  0.74860140  0.21207279  1
  Co  Co1  1  0.62035606  0.55620336  0.87522575  1
  Co  Co2  1  0.06169022  0.76868781  0.47797228  1
  Co  Co3  1  0.40104872  0.46197558  0.14570997  1
  Co  Co4  1  0.73634296  0.08299132  0.35474272  1
  Co  Co5  1  0.76663148  0.27966195  0.77940081  1
  Ag  Ag0  1  0.17944949  0.45057775  0.52603352  1
  Ag  Ag1  1  0.76531220  0.50298473  0.48106777  1
  P  P0  1  0.27362525  0.20998064  0.87154593  1
  P  P1  1  0.75286839  0.81643806  0.14336401  1
  P  P2  1  0.39167625  0.18439476  0.43167562  1
  P  P3  1  0.14173929  0.63484482  0.84517324  1
  P  P4  1  0.58949930  0.78870482  0.57711771  1
  P  P5  1  0.88698173  0.39088152  0.15990993  1
  H  H0  1  0.34848656  0.14101113  0.18202271  1
  H  H1  1  0.20857427  0.88017043  0.92146830  1
  H  H2  1  0.68291135  0.86337441  0.83037402  1
  H  H3  1  0.82117687  0.14500644  0.08139074  1
  O  O0  1  0.31246704  0.54676356  0.90862327  1
  O  O1  1  0.18468209  0.77063466  0.96939205  1
  O  O2  1  0.66361098  0.91132021  0.71699333  1
  O  O3  1  0.84562853  0.25589888  0.03596797  1
  O  O4  1  0.39308807  0.34853107  0.36869841  1
  O  O5  1  0.16917266  0.72308199  0.69712819  1
  O  O6  1  0.55195119  0.62397280  0.64190387  1
  O  O7  1  0.87610500  0.31234849  0.31616694  1
  O  O8  1  0.18600051  0.10168240  0.49054064  1
  O  O9  1  0.38786603  0.08584529  0.28611254  1
  O  O10  1  0.73328146  0.78157148  0.97107578  1
  O  O11  1  0.76328068  0.98647850  0.16055187  1
  O  O12  1  0.30016029  0.24303013  0.04283972  1
  O  O13  1  0.23581948  0.03606740  0.84075174  1
  O  O14  1  0.54982302  0.70601646  0.20001566  1
  O  O15  1  0.97400978  0.78670472  0.24640698  1
  O  O16  1  0.47435931  0.31294766  0.80866427  1
  O  O17  1  0.79758381  0.84946531  0.50850100  1
  O  O18  1  0.90315999  0.52034189  0.83105944  1
  O  O19  1  0.61820434  0.19152114  0.55165668  1
  O  O20  1  0.12063534  0.50870776  0.16837792  1
  O  O21  1  0.38336995  0.80176900  0.44969979  1
  O  O22  1  0.70763512  0.47288566  0.10102467  1
  O  O23  1  0.05026502  0.23469026  0.76121607  1
loop_
_geom_bond_atom_site_label_1
_geom_bond_atom_site_label_2
_geom_bond_distance
_geom_bond_site_symmetry_2
Mg0 O8 1.991852 1_655
Mg0 O17 2.003319 1_545
Mg0 O13 2.041657 1_655
Mg0 O23 2.058290 1_655
Mg0 O2 2.364005 1_545
Co0 O15 2.057661 1_455
Co0 O21 2.093939 1_555
Co0 O20 2.100565 1_555
Co0 O1 2.101775 1_554
Co0 O14 2.113612 1_555
Co1 O0 2.078854 1_555
Co1 O22 2.099935 1_556
Co1 O6 2.102117 1_555
Co1 O18 2.105605 1_555
Co1 O10 2.106231 1_555
Co1 O16 2.170589 1_555
Co2 O5 1.957544 1_555
Co2 O15 2.003221 1_455
Co2 O21 2.101535 1_555
Co2 O17 2.154126 1_455
Co3 O20 2.061578 1_555
Co3 O12 2.086060 1_555
Co3 O22 2.109054 1_555
Co3 O14 2.155811 1_555
Co3 O4 2.183335 1_555
Co3 O0 2.193359 1_554
Co4 O7 2.042092 1_555
Co4 O11 2.068977 1_545
Co4 O9 2.194954 1_555
Co4 O19 2.469439 1_555
Co4 O17 2.526443 1_545
Co5 O23 2.060659 1_655
Co5 O19 2.099788 1_555
Co5 O16 2.101929 1_555
Co5 O18 2.119646 1_555
Co5 O3 2.221550 1_556
Ag0 O7 2.407105 1_455
Ag0 O6 2.435282 1_555
Ag0 O4 2.608336 1_555
Ag1 O4 2.370389 1_555
Ag1 O7 2.720418 1_555
Ag1 O6 2.728714 1_555
H0 O9 1.034411 1_555
H0 O12 1.522442 1_555
H1 O1 1.038056 1_555
H1 O13 1.525468 1_565
H2 O2 1.065877 1_555
H2 O10 1.429167 1_555
H3 O3 1.040499 1_555
H3 O11 1.541865 1_545
O0 P3 1.535304 1_555
O1 P3 1.625733 1_555
O2 P4 1.603943 1_555
O3 P5 1.621093 1_555
O4 P2 1.555479 1_555
O5 P3 1.520279 1_555
O6 P4 1.536729 1_555
O7 P5 1.531008 1_555
O8 P2 1.524124 1_555
O9 P2 1.620371 1_555
O10 P1 1.556668 1_556
O11 P1 1.542584 1_555
O12 P0 1.533604 1_554
O13 P0 1.554500 1_555
O14 P1 1.569689 1_555
O15 P1 1.580044 1_555
O16 P0 1.565103 1_555
O17 P4 1.562537 1_555
O18 P3 1.553015 1_655
O19 P2 1.560666 1_555
O20 P5 1.547575 1_455
O21 P4 1.542036 1_555
O22 P5 1.536185 1_555
O23 P0 1.595904 1_555
