# generated using pymatgen
data_NbCoSi
_symmetry_space_group_name_H-M   'P 1'
_cell_length_a   3.64243066
_cell_length_b   6.22421065
_cell_length_c   7.02129798
_cell_angle_alpha   90.00000000
_cell_angle_beta   90.00000000
_cell_angle_gamma   90.00000000
_symmetry_Int_Tables_number   1
_chemical_formula_structural   NbCoSi
_chemical_formula_sum   'Nb4 Co4 Si4'
_cell_volume   159.18164189
_cell_formula_units_Z   4
loop_
 _symmetry_equiv_pos_site_id
 _symmetry_equiv_pos_as_xyz
  1  'x, y, z'
loop_
 _atom_site_type_symbol
 _atom_site_label
 _atom_site_symmetry_multiplicity
 _atom_site_fract_x
 _atom_site_fract_y
 _atom_site_fract_z
 _atom_site_occupancy
  Nb  Nb0  1  0.75000000  0.48025824  0.68012648  1
  Nb  Nb1  1  0.75000000  0.98025824  0.81987352  1
  Nb  Nb2  1  0.25000000  0.51974176  0.31987352  1
  Nb  Nb3  1  0.25000000  0.01974176  0.18012648  1
  Co  Co0  1  0.75000000  0.35968343  0.06316491  1
  Co  Co1  1  0.75000000  0.85968343  0.43683509  1
  Co  Co2  1  0.25000000  0.64031657  0.93683509  1
  Co  Co3  1  0.25000000  0.14031657  0.56316491  1
  Si  Si0  1  0.75000000  0.72353050  0.11679222  1
  Si  Si1  1  0.75000000  0.22353050  0.38320778  1
  Si  Si2  1  0.25000000  0.27646950  0.88320778  1
  Si  Si3  1  0.25000000  0.77646950  0.61679222  1
loop_
_geom_bond_atom_site_label_1
_geom_bond_atom_site_label_2
_geom_bond_distance
_geom_bond_site_symmetry_2
Nb0 Si1 2.626704 1_555
Nb0 Si3 2.629398 1_555
Nb0 Si3 2.629398 1_655
Nb0 Si2 2.637973 1_655
Nb0 Si2 2.637973 1_555
Nb1 Si0 2.626704 1_556
Nb1 Si2 2.629398 1_565
Nb1 Si2 2.629398 1_665
Nb1 Si3 2.637973 1_655
Nb1 Si3 2.637973 1_555
Nb2 Si3 2.626704 1_555
Nb2 Si1 2.629398 1_555
Nb2 Si1 2.629398 1_455
Nb2 Si0 2.637973 1_455
Nb2 Si0 2.637973 1_555
Nb3 Si2 2.626704 1_554
Nb3 Si0 2.629398 1_445
Nb3 Si0 2.629398 1_545
Nb3 Si1 2.637973 1_455
Nb3 Si1 2.637973 1_555
Co0 Si2 2.276313 1_554
Co0 Si2 2.276313 1_654
Co0 Si0 2.295750 1_555
Co0 Si1 2.401602 1_555
Co0 Co2 2.674813 1_554
Co0 Co2 2.674813 1_654
Co0 Nb2 2.749192 1_555
Co0 Nb2 2.749192 1_655
Co0 Nb0 2.792175 1_554
Co0 Nb3 2.910005 1_655
Co0 Nb3 2.910005 1_555
Co0 Nb1 2.914666 1_544
Co1 Si3 2.276313 1_655
Co1 Si3 2.276313 1_555
Co1 Si1 2.295750 1_565
Co1 Si0 2.401602 1_555
Co1 Co3 2.674813 1_565
Co1 Co3 2.674813 1_665
Co1 Nb3 2.749192 1_565
Co1 Nb3 2.749192 1_665
Co1 Nb1 2.792175 1_555
Co1 Nb2 2.910005 1_555
Co1 Nb2 2.910005 1_655
Co1 Nb0 2.914666 1_555
Co2 Si0 2.276313 1_556
Co2 Si0 2.276313 1_456
Co2 Si2 2.295750 1_555
Co2 Si3 2.401602 1_555
Co2 Nb0 2.749192 1_455
Co2 Nb0 2.749192 1_555
Co2 Nb2 2.792175 1_556
Co2 Nb1 2.910005 1_455
Co2 Nb1 2.910005 1_555
Co2 Nb3 2.914666 1_566
Co3 Si1 2.276313 1_555
Co3 Si1 2.276313 1_455
Co3 Si3 2.295750 1_545
Co3 Si2 2.401602 1_555
Co3 Nb1 2.749192 1_445
Co3 Nb1 2.749192 1_545
Co3 Nb3 2.792175 1_555
Co3 Nb0 2.910005 1_555
Co3 Nb0 2.910005 1_455
Co3 Nb2 2.914666 1_555
