# generated using pymatgen
data_PuTcB4
_symmetry_space_group_name_H-M   'P 1'
_cell_length_a   3.58416486
_cell_length_b   5.97670443
_cell_length_c   11.58134479
_cell_angle_alpha   90.00000000
_cell_angle_beta   90.00000000
_cell_angle_gamma   90.00000000
_symmetry_Int_Tables_number   1
_chemical_formula_structural   PuTcB4
_chemical_formula_sum   'Pu4 Tc4 B16'
_cell_volume   248.08970789
_cell_formula_units_Z   4
loop_
 _symmetry_equiv_pos_site_id
 _symmetry_equiv_pos_as_xyz
  1  'x, y, z'
loop_
 _atom_site_type_symbol
 _atom_site_label
 _atom_site_symmetry_multiplicity
 _atom_site_fract_x
 _atom_site_fract_y
 _atom_site_fract_z
 _atom_site_occupancy
  Pu  Pu0  1  -0.00000000  0.62628405  0.34929787  1
  Pu  Pu1  1  -0.00000000  0.37371595  0.65070213  1
  Pu  Pu2  1  0.00000000  0.12628405  0.15070213  1
  Pu  Pu3  1  0.00000000  0.87371595  0.84929787  1
  Tc  Tc0  1  -0.00000000  0.63457554  0.09042510  1
  Tc  Tc1  1  0.00000000  0.36542446  0.90957490  1
  Tc  Tc2  1  -0.00000000  0.13457554  0.40957490  1
  Tc  Tc3  1  0.00000000  0.86542446  0.59042510  1
  B  B0  1  0.50000000  0.78636480  0.18576110  1
  B  B1  1  0.50000000  0.21363520  0.81423890  1
  B  B2  1  0.50000000  0.28636480  0.31423890  1
  B  B3  1  0.50000000  0.71363520  0.68576110  1
  B  B4  1  0.50000000  0.86350096  0.03163658  1
  B  B5  1  0.50000000  0.13649904  0.96836342  1
  B  B6  1  0.50000000  0.36350096  0.46836342  1
  B  B7  1  0.50000000  0.63649904  0.53163658  1
  B  B8  1  0.50000000  0.88692483  0.45344518  1
  B  B9  1  0.50000000  0.11307517  0.54655482  1
  B  B10  1  0.50000000  0.38692483  0.04655482  1
  B  B11  1  0.50000000  0.61307517  0.95344518  1
  B  B12  1  0.50000000  0.97567729  0.30863357  1
  B  B13  1  0.50000000  0.02432271  0.69136643  1
  B  B14  1  0.50000000  0.47567729  0.19136643  1
  B  B15  1  0.50000000  0.52432271  0.80863357  1
loop_
_geom_bond_atom_site_label_1
_geom_bond_atom_site_label_2
_geom_bond_distance
_geom_bond_site_symmetry_2
Pu0 Tc0 2.998504 1_555
Pu0 Tc2 3.020572 1_555
Pu0 Tc2 3.117084 1_565
Pu0 Tc3 3.137086 1_555
Pu1 Tc1 2.998504 1_555
Pu1 Tc3 3.020572 1_555
Pu1 Tc3 3.117084 1_545
Pu1 Tc2 3.137086 1_555
Pu2 Tc2 2.998504 1_555
Pu2 Tc0 3.020572 1_545
Pu2 Tc0 3.117084 1_555
Pu2 Tc1 3.137086 1_554
Pu3 Tc3 2.998504 1_555
Pu3 Tc1 3.020572 1_565
Pu3 Tc1 3.117084 1_555
Pu3 Tc0 3.137086 1_556
B0 B12 1.818027 1_555
B0 B4 1.843544 1_555
B0 B14 1.858022 1_555
B0 Tc0 2.292084 1_555
B0 Tc0 2.292084 1_655
B0 Pu2 2.739308 1_665
B0 Pu2 2.739308 1_565
B0 Pu0 2.777424 1_655
B0 Pu0 2.777424 1_555
B1 B13 1.818027 1_555
B1 B5 1.843544 1_555
B1 B15 1.858022 1_555
B1 Tc1 2.292084 1_555
B1 Tc1 2.292084 1_655
B1 Pu3 2.739308 1_545
B1 Pu3 2.739308 1_645
B1 Pu1 2.777424 1_555
B1 Pu1 2.777424 1_655
B2 B6 1.843544 1_555
B2 Tc2 2.292084 1_655
B2 Tc2 2.292084 1_555
B2 Pu0 2.739308 1_655
B2 Pu0 2.739308 1_555
B2 Pu2 2.777424 1_555
B2 Pu2 2.777424 1_655
B3 B7 1.843544 1_555
B3 Tc3 2.292084 1_555
B3 Tc3 2.292084 1_655
B3 Pu1 2.739308 1_555
B3 Pu1 2.739308 1_655
B3 Pu3 2.777424 1_555
B3 Pu3 2.777424 1_655
B4 B5 1.788628 1_564
B4 Tc0 2.355237 1_555
B4 Tc0 2.355237 1_655
B4 Pu2 2.753134 1_565
B4 Pu2 2.753134 1_665
B4 Pu3 2.770321 1_554
B4 Pu3 2.770321 1_654
B5 Tc1 2.355237 1_655
B5 Tc1 2.355237 1_555
B5 Pu3 2.753134 1_645
B5 Pu3 2.753134 1_545
B5 Pu2 2.770321 1_556
B5 Pu2 2.770321 1_656
B6 B9 1.749347 1_555
B6 B7 1.788628 1_555
B6 Tc2 2.355237 1_655
B6 Tc2 2.355237 1_555
B6 Pu0 2.753134 1_555
B6 Pu0 2.753134 1_655
B6 Pu1 2.770321 1_555
B6 Pu1 2.770321 1_655
B7 B8 1.749347 1_555
B7 Tc3 2.355237 1_655
B7 Tc3 2.355237 1_555
B7 Pu1 2.753134 1_555
B7 Pu1 2.753134 1_655
B7 Pu0 2.770321 1_655
B7 Pu0 2.770321 1_555
B8 B9 1.729081 1_565
B8 Tc2 2.379181 1_565
B8 Tc2 2.379181 1_665
B8 Tc3 2.396826 1_555
B8 Tc3 2.396826 1_655
B8 Pu0 2.663278 1_555
B8 Pu0 2.663278 1_655
B9 Tc3 2.379181 1_545
B9 Tc3 2.379181 1_645
B9 Tc2 2.396826 1_655
B9 Tc2 2.396826 1_555
B9 Pu1 2.663278 1_555
B9 Pu1 2.663278 1_655
B10 B11 1.729081 1_554
B10 B5 1.749347 1_554
B10 B14 1.759001 1_555
B10 Tc0 2.379181 1_655
B10 Tc0 2.379181 1_555
B10 Tc1 2.396826 1_654
B10 Tc1 2.396826 1_554
B10 Pu2 2.663278 1_555
B10 Pu2 2.663278 1_655
B11 B4 1.749347 1_556
B11 B15 1.759001 1_555
B11 Tc1 2.379181 1_655
B11 Tc1 2.379181 1_555
B11 Tc0 2.396826 1_656
B11 Tc0 2.396826 1_556
B11 Pu3 2.663278 1_555
B11 Pu3 2.663278 1_655
B12 B8 1.759001 1_555
B12 B2 1.858022 1_565
B12 Tc2 2.340964 1_565
B12 Tc2 2.340964 1_665
B12 Pu2 2.714268 1_665
B12 Pu2 2.714268 1_565
B12 Pu0 2.791776 1_555
B12 Pu0 2.791776 1_655
B13 B9 1.759001 1_555
B13 B3 1.858022 1_545
B13 Tc3 2.340964 1_545
B13 Tc3 2.340964 1_645
B13 Pu3 2.714268 1_545
B13 Pu3 2.714268 1_645
B13 Pu1 2.791776 1_555
B13 Pu1 2.791776 1_655
B14 B2 1.818027 1_555
B14 Tc0 2.340964 1_555
B14 Tc0 2.340964 1_655
B14 Pu0 2.714268 1_655
B14 Pu0 2.714268 1_555
B14 Pu2 2.791776 1_655
B14 Pu2 2.791776 1_555
B15 B3 1.818027 1_555
B15 Tc1 2.340964 1_555
B15 Tc1 2.340964 1_655
B15 Pu1 2.714268 1_555
B15 Pu1 2.714268 1_655
B15 Pu3 2.791776 1_555
B15 Pu3 2.791776 1_655
