# generated using pymatgen
data_BaInCuF7
_symmetry_space_group_name_H-M   'P 1'
_cell_length_a   6.84671521
_cell_length_b   6.84671521
_cell_length_c   7.88700484
_cell_angle_alpha   66.10503431
_cell_angle_beta   66.10503431
_cell_angle_gamma   90.26306080
_symmetry_Int_Tables_number   1
_chemical_formula_structural   BaInCuF7
_chemical_formula_sum   'Ba2 In2 Cu2 F14'
_cell_volume   302.70438761
_cell_formula_units_Z   2
loop_
 _symmetry_equiv_pos_site_id
 _symmetry_equiv_pos_as_xyz
  1  'x, y, z'
loop_
 _atom_site_type_symbol
 _atom_site_label
 _atom_site_symmetry_multiplicity
 _atom_site_fract_x
 _atom_site_fract_y
 _atom_site_fract_z
 _atom_site_occupancy
  Ba  Ba0  1  0.38428500  0.61571500  0.25000000  1
  Ba  Ba1  1  0.61571500  0.38428500  0.75000000  1
  In  In0  1  0.00000000  0.00000000  0.50000000  1
  In  In1  1  0.00000000  0.00000000  0.00000000  1
  Cu  Cu0  1  0.00000000  0.50000000  0.00000000  1
  Cu  Cu1  1  0.50000000  0.00000000  0.50000000  1
  F  F0  1  0.08745100  0.34522900  0.82522500  1
  F  F1  1  0.34522900  0.08745100  0.32522500  1
  F  F2  1  0.91254900  0.65477100  0.17477500  1
  F  F3  1  0.65477100  0.91254900  0.67477500  1
  F  F4  1  0.09614100  0.90385900  0.75000000  1
  F  F5  1  0.90385900  0.09614100  0.25000000  1
  F  F6  1  0.72722800  0.50292700  0.99419800  1
  F  F7  1  0.27277200  0.49707300  0.00580200  1
  F  F8  1  0.50292700  0.72722800  0.49419800  1
  F  F9  1  0.00413700  0.70343600  0.49661600  1
  F  F10  1  0.70343600  0.00413700  0.99661600  1
  F  F11  1  0.29656400  0.99586300  0.00338400  1
  F  F12  1  0.49707300  0.27277200  0.50580200  1
  F  F13  1  0.99586300  0.29656400  0.50338400  1
loop_
_geom_bond_atom_site_label_1
_geom_bond_atom_site_label_2
_geom_bond_distance
_geom_bond_site_symmetry_2
Ba0 F8 2.721255 1_555
Ba0 F7 2.721255 1_555
Ba0 F12 2.760625 1_555
Ba0 F6 2.760625 1_554
Ba0 F11 2.788878 1_555
Ba0 F9 2.788878 1_555
Ba0 F10 2.818594 1_564
Ba0 F13 2.818594 1_455
Ba1 F6 2.721255 1_555
Ba1 F12 2.721255 1_555
Ba1 F7 2.760625 1_556
Ba1 F8 2.760625 1_555
Ba1 F13 2.788878 1_555
Ba1 F10 2.788878 1_555
Ba1 F9 2.818594 1_655
Ba1 F11 2.818594 1_546
Cu0 F7 1.886593 1_555
Cu0 F6 1.886593 1_454
Cu0 F2 1.975369 1_455
Cu0 F0 1.975369 1_554
Cu0 F4 2.545951 1_554
Cu0 F5 2.545951 1_455
Cu1 F12 1.886593 1_555
Cu1 F8 1.886593 1_545
Cu1 F1 1.975369 1_555
Cu1 F3 1.975369 1_545
Cu1 F5 2.545951 1_555
Cu1 F4 2.545951 1_545
F0 In1 2.127074 1_556
F1 In0 2.127074 1_555
F2 In1 2.127074 1_665
F3 In0 2.127074 1_665
F4 In0 2.181368 1_565
F4 In1 2.181368 1_566
F5 In1 2.181368 1_655
F5 In0 2.181368 1_655
F9 In0 2.041622 1_565
F10 In1 2.041622 1_656
F11 In1 2.041622 1_565
F13 In0 2.041622 1_655
