# generated using pymatgen
data_Ti2AsP
_symmetry_space_group_name_H-M   'P 1'
_cell_length_a   3.57246077
_cell_length_b   3.57246077
_cell_length_c   11.99598500
_cell_angle_alpha   90.00000000
_cell_angle_beta   90.00000000
_cell_angle_gamma   120.00001421
_symmetry_Int_Tables_number   1
_chemical_formula_structural   Ti2AsP
_chemical_formula_sum   'Ti4 As2 P2'
_cell_volume   132.58714520
_cell_formula_units_Z   2
loop_
 _symmetry_equiv_pos_site_id
 _symmetry_equiv_pos_as_xyz
  1  'x, y, z'
loop_
 _atom_site_type_symbol
 _atom_site_label
 _atom_site_symmetry_multiplicity
 _atom_site_fract_x
 _atom_site_fract_y
 _atom_site_fract_z
 _atom_site_occupancy
  Ti  Ti0  1  0.33333300  0.66666700  0.37696600  1
  Ti  Ti1  1  0.66666700  0.33333300  0.62303400  1
  Ti  Ti2  1  0.66666700  0.33333300  0.87696600  1
  Ti  Ti3  1  0.33333300  0.66666700  0.12303400  1
  As  As0  1  0.00000000  0.00000000  0.50000000  1
  As  As1  1  0.00000000  0.00000000  0.00000000  1
  P  P0  1  0.33333300  0.66666700  0.75000000  1
  P  P1  1  0.66666700  0.33333300  0.25000000  1
loop_
_geom_bond_atom_site_label_1
_geom_bond_atom_site_label_2
_geom_bond_distance
_geom_bond_site_symmetry_2
As0 Ti0 2.536232 1_545
As0 Ti1 2.536232 1_455
As0 Ti0 2.536234 1_555
As0 Ti1 2.536234 1_445
As0 Ti1 2.536234 1_555
As0 Ti0 2.536234 1_445
As1 Ti3 2.536232 1_545
As1 Ti2 2.536232 1_454
As1 Ti3 2.536234 1_555
As1 Ti2 2.536234 1_554
As1 Ti3 2.536234 1_445
As1 Ti2 2.536234 1_444
P0 Ti1 2.563967 1_455
P0 Ti2 2.563967 1_455
P0 Ti1 2.563967 1_565
P0 Ti2 2.563967 1_565
P0 Ti1 2.563973 1_555
P0 Ti2 2.563973 1_555
P1 Ti3 2.563967 1_545
P1 Ti0 2.563967 1_655
P1 Ti0 2.563967 1_545
P1 Ti3 2.563967 1_655
P1 Ti0 2.563973 1_555
P1 Ti3 2.563973 1_555
