# generated using pymatgen
data_SrLaDySnO6
_symmetry_space_group_name_H-M   'P 1'
_cell_length_a   8.37818832
_cell_length_b   8.40063669
_cell_length_c   8.41635961
_cell_angle_alpha   90.00000000
_cell_angle_beta   90.00000000
_cell_angle_gamma   90.00000000
_symmetry_Int_Tables_number   1
_chemical_formula_structural   SrLaDySnO6
_chemical_formula_sum   'Sr4 La4 Dy4 Sn4 O24'
_cell_volume   592.36120002
_cell_formula_units_Z   4
loop_
 _symmetry_equiv_pos_site_id
 _symmetry_equiv_pos_as_xyz
  1  'x, y, z'
loop_
 _atom_site_type_symbol
 _atom_site_label
 _atom_site_symmetry_multiplicity
 _atom_site_fract_x
 _atom_site_fract_y
 _atom_site_fract_z
 _atom_site_occupancy
  Sr  Sr0  1  0.50000000  0.00000000  0.50000000  1
  Sr  Sr1  1  0.50000000  0.50000000  0.00000000  1
  Sr  Sr2  1  -0.00000000  0.50000000  0.00000000  1
  Sr  Sr3  1  -0.00000000  0.00000000  0.50000000  1
  La  La0  1  -0.00000000  0.50000000  0.50000000  1
  La  La1  1  0.50000000  0.00000000  0.00000000  1
  La  La2  1  -0.00000000  0.00000000  0.00000000  1
  La  La3  1  0.50000000  0.50000000  0.50000000  1
  Dy  Dy0  1  0.75000000  0.75000000  0.75000000  1
  Dy  Dy1  1  0.25000000  0.25000000  0.75000000  1
  Dy  Dy2  1  0.25000000  0.75000000  0.25000000  1
  Dy  Dy3  1  0.75000000  0.25000000  0.25000000  1
  Sn  Sn0  1  0.25000000  0.25000000  0.25000000  1
  Sn  Sn1  1  0.75000000  0.75000000  0.25000000  1
  Sn  Sn2  1  0.75000000  0.25000000  0.75000000  1
  Sn  Sn3  1  0.25000000  0.75000000  0.75000000  1
  O  O0  1  0.00863676  0.20287657  0.28193896  1
  O  O1  1  0.99136324  0.79712343  0.28193896  1
  O  O2  1  0.99136324  0.20287657  0.71806104  1
  O  O3  1  0.00863676  0.79712343  0.71806104  1
  O  O4  1  0.28683208  0.00805060  0.19371619  1
  O  O5  1  0.28683208  0.99194940  0.80628381  1
  O  O6  1  0.71316792  0.99194940  0.19371619  1
  O  O7  1  0.71316792  0.00805060  0.80628381  1
  O  O8  1  0.20237000  0.27852871  0.00879894  1
  O  O9  1  0.79763000  0.27852871  0.99120106  1
  O  O10  1  0.20237000  0.72147129  0.99120106  1
  O  O11  1  0.79763000  0.72147129  0.00879894  1
  O  O12  1  0.49136324  0.29712343  0.21806104  1
  O  O13  1  0.50863676  0.70287657  0.21806104  1
  O  O14  1  0.50863676  0.29712343  0.78193896  1
  O  O15  1  0.49136324  0.70287657  0.78193896  1
  O  O16  1  0.21316792  0.49194940  0.30628381  1
  O  O17  1  0.21316792  0.50805060  0.69371619  1
  O  O18  1  0.78683208  0.50805060  0.30628381  1
  O  O19  1  0.78683208  0.49194940  0.69371619  1
  O  O20  1  0.29763000  0.22147129  0.49120106  1
  O  O21  1  0.70237000  0.22147129  0.50879894  1
  O  O22  1  0.29763000  0.77852871  0.50879894  1
  O  O23  1  0.70237000  0.77852871  0.49120106  1
loop_
_geom_bond_atom_site_label_1
_geom_bond_atom_site_label_2
_geom_bond_distance
_geom_bond_site_symmetry_2
La0 O18 2.419171 1_455
La0 O19 2.419171 1_455
La0 O17 2.419171 1_555
La0 O16 2.419171 1_555
La1 O5 2.419171 1_544
La1 O6 2.419171 1_545
La1 O4 2.419171 1_555
La1 O7 2.419171 1_554
La2 O9 2.890490 1_454
La2 O11 2.890490 1_445
La2 O10 2.890490 1_544
La2 O8 2.890490 1_555
La2 O7 2.904785 1_454
La2 O6 2.904785 1_445
La2 O5 2.904785 1_544
La2 O4 2.904785 1_555
La2 O3 2.922414 1_544
La2 O2 2.922414 1_454
La2 O0 2.922414 1_555
La2 O1 2.922414 1_445
La3 O20 2.890490 1_555
La3 O23 2.890490 1_555
La3 O21 2.890490 1_555
La3 O22 2.890490 1_555
La3 O17 2.904785 1_555
La3 O19 2.904785 1_555
La3 O18 2.904785 1_555
La3 O16 2.904785 1_555
La3 O12 2.922414 1_555
La3 O13 2.922414 1_555
La3 O14 2.922414 1_555
La3 O15 2.922414 1_555
Dy0 O3 2.219112 1_655
Dy0 O15 2.219112 1_555
Dy0 O11 2.227329 1_556
Dy0 O23 2.227329 1_555
Dy0 O19 2.240297 1_555
Dy0 O7 2.240297 1_565
Dy1 O2 2.219112 1_455
Dy1 O14 2.219112 1_555
Dy1 O8 2.227329 1_556
Dy1 O20 2.227329 1_555
Dy1 O5 2.240297 1_545
Dy1 O17 2.240297 1_555
Dy2 O1 2.219112 1_455
Dy2 O13 2.219112 1_555
Dy2 O22 2.227329 1_555
Dy2 O10 2.227329 1_554
Dy2 O4 2.240297 1_565
Dy2 O16 2.240297 1_555
Dy3 O0 2.219112 1_655
Dy3 O12 2.219112 1_555
Dy3 O21 2.227329 1_555
Dy3 O9 2.227329 1_554
Dy3 O18 2.240297 1_555
Dy3 O6 2.240297 1_545
O0 Sn0 2.078030 1_555
O0 Sr3 2.505614 1_555
O1 Sn1 2.078030 1_555
O1 Sr3 2.505614 1_665
O2 Sn2 2.078030 1_555
O2 Sr3 2.505614 1_655
O3 Sn3 2.078030 1_555
O3 Sr3 2.505614 1_565
O4 Sn0 2.109691 1_555
O5 Sn3 2.109691 1_555
O6 Sn1 2.109691 1_555
O7 Sn2 2.109691 1_555
O8 Sn0 2.082720 1_555
O8 Sr2 2.518262 1_555
O8 Sr1 3.112071 1_555
O9 Sn2 2.082720 1_555
O9 Sr2 2.518262 1_656
O9 Sr1 3.112071 1_556
O10 Sn3 2.082720 1_555
O10 Sr2 2.518262 1_556
O10 Sr1 3.112071 1_556
O11 Sn1 2.082720 1_555
O11 Sr2 2.518262 1_655
O11 Sr1 3.112071 1_555
O12 Sn0 2.078030 1_555
O12 Sr1 2.505614 1_555
O13 Sn1 2.078030 1_555
O13 Sr1 2.505614 1_555
O14 Sn2 2.078030 1_555
O14 Sr1 2.505614 1_556
O15 Sn3 2.078030 1_555
O15 Sr1 2.505614 1_556
O16 Sn0 2.109691 1_555
O17 Sn3 2.109691 1_555
O18 Sn1 2.109691 1_555
O19 Sn2 2.109691 1_555
O20 Sn0 2.082720 1_555
O20 Sr0 2.518262 1_555
O20 Sr3 3.112071 1_555
O21 Sn2 2.082720 1_555
O21 Sr0 2.518262 1_555
O21 Sr3 3.112071 1_655
O22 Sn3 2.082720 1_555
O22 Sr0 2.518262 1_565
O22 Sr3 3.112071 1_565
O23 Sn1 2.082720 1_555
O23 Sr0 2.518262 1_565
O23 Sr3 3.112071 1_665
