# generated using pymatgen
data_AlSb
_symmetry_space_group_name_H-M   'P 1'
_cell_length_a   4.31319065
_cell_length_b   4.31319065
_cell_length_c   5.21803100
_cell_angle_alpha   90.00000000
_cell_angle_beta   90.00000000
_cell_angle_gamma   97.48551827
_symmetry_Int_Tables_number   1
_chemical_formula_structural   AlSb
_chemical_formula_sum   'Al2 Sb2'
_cell_volume   96.24694833
_cell_formula_units_Z   2
loop_
 _symmetry_equiv_pos_site_id
 _symmetry_equiv_pos_as_xyz
  1  'x, y, z'
loop_
 _atom_site_type_symbol
 _atom_site_label
 _atom_site_symmetry_multiplicity
 _atom_site_fract_x
 _atom_site_fract_y
 _atom_site_fract_z
 _atom_site_occupancy
  Al  Al0  1  0.62594400  0.37405600  0.75000000  1
  Al  Al1  1  0.37405600  0.62594400  0.25000000  1
  Sb  Sb0  1  0.19529900  0.80470100  0.75000000  1
  Sb  Sb1  1  0.80470100  0.19529900  0.25000000  1
loop_
_geom_bond_atom_site_label_1
_geom_bond_atom_site_label_2
_geom_bond_distance
_geom_bond_site_symmetry_2
Al0 Sb0 2.792706 1_555
Al0 Sb1 2.854956 1_555
Al0 Sb1 2.854956 1_556
Al0 Sb0 2.879635 1_545
Al0 Sb0 2.879635 1_655
Al1 Sb1 2.792706 1_555
Al1 Sb0 2.854956 1_554
Al1 Sb0 2.854956 1_555
Al1 Sb1 2.879635 1_565
Al1 Sb1 2.879635 1_455
