# generated using pymatgen
data_Li4MnV3O8
_symmetry_space_group_name_H-M   'P 1'
_cell_length_a   6.01565651
_cell_length_b   6.01565651
_cell_length_c   5.94089100
_cell_angle_alpha   60.68845010
_cell_angle_beta   60.68845010
_cell_angle_gamma   59.04075654
_symmetry_Int_Tables_number   1
_chemical_formula_structural   Li4MnV3O8
_chemical_formula_sum   'Li4 Mn1 V3 O8'
_cell_volume   152.41727621
_cell_formula_units_Z   1
loop_
 _symmetry_equiv_pos_site_id
 _symmetry_equiv_pos_as_xyz
  1  'x, y, z'
loop_
 _atom_site_type_symbol
 _atom_site_label
 _atom_site_symmetry_multiplicity
 _atom_site_fract_x
 _atom_site_fract_y
 _atom_site_fract_z
 _atom_site_occupancy
  Li  Li0  1  0.98646700  0.50586400  0.00723600  1
  Li  Li1  1  0.49413600  0.01353300  0.99276400  1
  Li  Li2  1  0.50000000  0.50000000  0.50000000  1
  Li  Li3  1  0.00000000  0.00000000  0.50000000  1
  Mn  Mn0  1  0.00000000  0.00000000  0.00000000  1
  V  V0  1  0.50000000  0.50000000  0.00000000  1
  V  V1  1  0.50000000  0.00000000  0.50000000  1
  V  V2  1  0.00000000  0.50000000  0.50000000  1
  O  O0  1  0.76205300  0.26000700  0.75773600  1
  O  O1  1  0.26000700  0.76205300  0.75773600  1
  O  O2  1  0.74366100  0.74366100  0.27310000  1
  O  O3  1  0.26239500  0.26239500  0.24970900  1
  O  O4  1  0.73760500  0.73760500  0.75029100  1
  O  O5  1  0.25633900  0.25633900  0.72690000  1
  O  O6  1  0.73999300  0.23794700  0.24226400  1
  O  O7  1  0.23794700  0.73999300  0.24226400  1
loop_
_geom_bond_atom_site_label_1
_geom_bond_atom_site_label_2
_geom_bond_distance
_geom_bond_site_symmetry_2
Li0 O2 2.116173 1_555
Li0 O4 2.126380 1_554
Li0 O3 2.179346 1_655
Li0 O5 2.226135 1_654
Li0 O6 2.230197 1_555
Li0 O1 2.294408 1_654
Li1 O5 2.116173 1_555
Li1 O3 2.126380 1_556
Li1 O4 2.179346 1_545
Li1 O2 2.226135 1_546
Li1 O0 2.230197 1_555
Li1 O7 2.294408 1_546
Li2 O5 2.110788 1_555
Li2 O2 2.110788 1_555
Li2 O0 2.184333 1_555
Li2 O1 2.184333 1_555
Li2 O6 2.184333 1_555
Li2 O7 2.184333 1_555
Li3 O1 2.176087 1_545
Li3 O0 2.176087 1_455
Li3 O6 2.176087 1_455
Li3 O7 2.176087 1_545
Li3 O3 2.271892 1_555
Li3 O4 2.271892 1_445
Mn0 O7 2.018999 1_545
Mn0 O6 2.018999 1_455
Mn0 O1 2.018999 1_544
Mn0 O0 2.018999 1_454
Mn0 O5 2.221576 1_554
Mn0 O2 2.221576 1_445
O0 V0 2.027883 1_556
O0 V2 2.072085 1_655
O1 V0 2.027883 1_556
O1 V1 2.072085 1_565
O2 V1 2.029440 1_565
O2 V2 2.029440 1_655
O3 V2 2.051156 1_555
O3 V1 2.051156 1_555
O3 V0 2.058284 1_555
O4 V2 2.051156 1_655
O4 V1 2.051156 1_565
O4 V0 2.058284 1_556
O5 V2 2.029440 1_555
O5 V1 2.029440 1_555
O6 V0 2.027883 1_555
O6 V1 2.072085 1_555
O7 V0 2.027883 1_555
O7 V2 2.072085 1_555
