# generated using pymatgen
data_Mg6MnV
_symmetry_space_group_name_H-M   'P 1'
_cell_length_a   4.94234300
_cell_length_b   6.20737400
_cell_length_c   10.62163900
_cell_angle_alpha   90.00000000
_cell_angle_beta   90.00000000
_cell_angle_gamma   90.00000000
_symmetry_Int_Tables_number   1
_chemical_formula_structural   Mg6MnV
_chemical_formula_sum   'Mg12 Mn2 V2'
_cell_volume   325.86095950
_cell_formula_units_Z   2
loop_
 _symmetry_equiv_pos_site_id
 _symmetry_equiv_pos_as_xyz
  1  'x, y, z'
loop_
 _atom_site_type_symbol
 _atom_site_label
 _atom_site_symmetry_multiplicity
 _atom_site_fract_x
 _atom_site_fract_y
 _atom_site_fract_z
 _atom_site_occupancy
  Mg  Mg0  1  0.00000000  0.76051800  0.58849000  1
  Mg  Mg1  1  0.00000000  0.23948200  0.58849000  1
  Mg  Mg2  1  0.00000000  0.00000000  0.33434400  1
  Mg  Mg3  1  0.50000000  0.73934900  0.41279500  1
  Mg  Mg4  1  0.50000000  0.26065100  0.41279500  1
  Mg  Mg5  1  0.50000000  0.00000000  0.16547100  1
  Mg  Mg6  1  0.00000000  0.26051800  0.08849000  1
  Mg  Mg7  1  0.00000000  0.73948200  0.08849000  1
  Mg  Mg8  1  0.00000000  0.50000000  0.83434400  1
  Mg  Mg9  1  0.50000000  0.23934900  0.91279500  1
  Mg  Mg10  1  0.50000000  0.76065100  0.91279500  1
  Mg  Mg11  1  0.50000000  0.50000000  0.66547100  1
  Mn  Mn0  1  0.00000000  0.00000000  0.83251600  1
  Mn  Mn1  1  0.00000000  0.50000000  0.33251600  1
  V  V0  1  0.50000000  0.00000000  0.66509800  1
  V  V1  1  0.50000000  0.50000000  0.16509800  1
loop_
_geom_bond_atom_site_label_1
_geom_bond_atom_site_label_2
_geom_bond_distance
_geom_bond_site_symmetry_2
Mg0 Mg1 2.973109 1_565
Mg0 Mn0 2.987989 1_565
Mg0 V0 2.996439 1_465
Mg0 V0 2.996439 1_565
Mg0 Mg11 3.064373 1_455
Mg0 Mg11 3.064373 1_555
Mg0 Mg8 3.071544 1_555
Mg0 Mg2 3.081697 1_565
Mg0 Mg3 3.099442 1_555
Mg0 Mg3 3.099442 1_455
Mg0 Mn1 3.163437 1_555
Mg0 Mg1 3.234265 1_555
Mg1 Mn0 2.987989 1_555
Mg1 V0 2.996439 1_555
Mg1 V0 2.996439 1_455
Mg1 Mg11 3.064373 1_455
Mg1 Mg11 3.064373 1_555
Mg1 Mg8 3.071544 1_555
Mg1 Mg2 3.081697 1_555
Mg1 Mg4 3.099442 1_455
Mg1 Mg4 3.099442 1_555
Mg1 Mn1 3.163437 1_555
Mg2 Mg5 3.053535 1_555
Mg2 Mg5 3.053535 1_455
Mg2 Mg3 3.069011 1_545
Mg2 Mg3 3.069011 1_445
Mg2 Mg4 3.069011 1_455
Mg2 Mg4 3.069011 1_555
Mg2 Mg7 3.071544 1_545
Mg2 Mg6 3.071544 1_555
Mg2 Mn1 3.103748 1_545
Mg2 Mn1 3.103748 1_555
Mg3 Mg4 2.971458 1_555
Mg3 Mn1 3.006853 1_555
Mg3 Mn1 3.006853 1_655
Mg3 V1 3.021469 1_555
Mg3 Mg5 3.085263 1_565
Mg3 V0 3.130415 1_565
Mg3 Mg4 3.235916 1_565
Mg4 Mn1 3.006853 1_555
Mg4 Mn1 3.006853 1_655
Mg4 V1 3.021469 1_555
Mg4 Mg5 3.085263 1_555
Mg4 V0 3.130415 1_555
Mg5 Mg6 3.064373 1_655
Mg5 Mg6 3.064373 1_555
Mg5 Mg7 3.064373 1_645
Mg5 Mg7 3.064373 1_545
Mg5 Mg9 3.067630 1_554
Mg5 V1 3.103690 1_545
Mg5 V1 3.103690 1_555
Mg6 Mg7 2.973109 1_555
Mg6 Mn1 2.987989 1_555
Mg6 V1 2.996439 1_555
Mg6 V1 2.996439 1_455
Mg6 Mg8 3.081697 1_554
Mg6 Mg9 3.099442 1_454
Mg6 Mg9 3.099442 1_554
Mg6 Mn0 3.163437 1_554
Mg6 Mg7 3.234265 1_545
Mg7 Mn1 2.987989 1_555
Mg7 V1 2.996439 1_555
Mg7 V1 2.996439 1_455
Mg7 Mg8 3.081697 1_554
Mg7 Mn0 3.163437 1_564
Mg8 Mg9 3.069011 1_555
Mg8 Mg9 3.069011 1_455
Mg8 Mn0 3.103748 1_555
Mg8 Mn0 3.103748 1_565
Mg9 Mn0 3.006853 1_555
Mg9 Mn0 3.006853 1_655
Mg9 V0 3.021469 1_555
Mg9 V1 3.130415 1_556
Mg10 Mg9 2.971458 1_565
Mg10 Mn0 3.006853 1_665
Mg10 Mn0 3.006853 1_565
Mg10 V0 3.021469 1_565
Mg10 Mg5 3.067630 1_566
Mg10 Mg8 3.069011 1_655
Mg10 Mg8 3.069011 1_555
Mg10 Mg11 3.085263 1_555
Mg10 Mg7 3.099442 1_556
Mg10 Mg7 3.099442 1_656
Mg10 V1 3.130415 1_556
Mg10 Mg9 3.235916 1_555
Mg11 Mg8 3.053535 1_555
Mg11 Mg8 3.053535 1_655
Mg11 Mg4 3.067630 1_555
Mg11 Mg3 3.067630 1_555
Mg11 Mg9 3.085263 1_555
Mg11 V0 3.103690 1_565
Mg11 V0 3.103690 1_555
Mn0 V0 3.044483 1_555
Mn0 V0 3.044483 1_455
Mn1 V1 3.044483 1_555
Mn1 V1 3.044483 1_455
