# generated using pymatgen
data_Sc2GeB2Ir5
_symmetry_space_group_name_H-M   'P 1'
_cell_length_a   9.28116900
_cell_length_b   9.28116900
_cell_length_c   3.17039600
_cell_angle_alpha   90.00000000
_cell_angle_beta   90.00000000
_cell_angle_gamma   90.00000000
_symmetry_Int_Tables_number   1
_chemical_formula_structural   Sc2GeB2Ir5
_chemical_formula_sum   'Sc4 Ge2 B4 Ir10'
_cell_volume   273.09822216
_cell_formula_units_Z   2
loop_
 _symmetry_equiv_pos_site_id
 _symmetry_equiv_pos_as_xyz
  1  'x, y, z'
loop_
 _atom_site_type_symbol
 _atom_site_label
 _atom_site_symmetry_multiplicity
 _atom_site_fract_x
 _atom_site_fract_y
 _atom_site_fract_z
 _atom_site_occupancy
  Sc  Sc0  1  0.67491100  0.17491100  0.00000000  1
  Sc  Sc1  1  0.32508900  0.82508900  0.00000000  1
  Sc  Sc2  1  0.17491100  0.32508900  0.00000000  1
  Sc  Sc3  1  0.82508900  0.67491100  0.00000000  1
  Ge  Ge0  1  0.00000000  0.00000000  0.00000000  1
  Ge  Ge1  1  0.50000000  0.50000000  0.00000000  1
  B  B0  1  0.12464600  0.62464600  0.00000000  1
  B  B1  1  0.87535400  0.37535400  0.00000000  1
  B  B2  1  0.62464600  0.87535400  0.00000000  1
  B  B3  1  0.37535400  0.12464600  0.00000000  1
  Ir  Ir0  1  0.21534300  0.07189800  0.50000000  1
  Ir  Ir1  1  0.78465700  0.92810200  0.50000000  1
  Ir  Ir2  1  0.07189800  0.78465700  0.50000000  1
  Ir  Ir3  1  0.71534300  0.42810200  0.50000000  1
  Ir  Ir4  1  0.92810200  0.21534300  0.50000000  1
  Ir  Ir5  1  0.28465700  0.57189800  0.50000000  1
  Ir  Ir6  1  0.57189800  0.71534300  0.50000000  1
  Ir  Ir7  1  0.42810200  0.28465700  0.50000000  1
  Ir  Ir8  1  0.50000000  0.00000000  0.50000000  1
  Ir  Ir9  1  0.00000000  0.50000000  0.50000000  1
loop_
_geom_bond_atom_site_label_1
_geom_bond_atom_site_label_2
_geom_bond_distance
_geom_bond_site_symmetry_2
Ge0 Ir0 2.636793 1_554
Ge0 Ir4 2.636793 1_454
Ge0 Ir4 2.636793 1_455
Ge0 Ir0 2.636793 1_555
Ge0 Ir2 2.636793 1_545
Ge0 Ir2 2.636793 1_544
Ge0 Ir1 2.636793 1_444
Ge0 Ir1 2.636793 1_445
Ge1 Ir3 2.636793 1_554
Ge1 Ir3 2.636793 1_555
Ge1 Ir6 2.636793 1_554
Ge1 Ir6 2.636793 1_555
Ge1 Ir5 2.636793 1_554
Ge1 Ir7 2.636793 1_555
Ge1 Ir7 2.636793 1_554
Ge1 Ir5 2.636793 1_555
B0 Ir2 2.226660 1_555
B0 Ir2 2.226660 1_554
B0 Ir5 2.226660 1_555
B0 Ir5 2.226660 1_554
B0 Ir9 2.278049 1_554
B0 Ir9 2.278049 1_555
B0 Sc1 2.630926 1_555
B0 Sc3 2.819108 1_455
B0 Sc2 2.819108 1_555
B1 Ir4 2.226660 1_555
B1 Ir4 2.226660 1_554
B1 Ir3 2.226660 1_555
B1 Ir3 2.226660 1_554
B1 Ir9 2.278049 1_655
B1 Ir9 2.278049 1_654
B1 Sc0 2.630926 1_555
B1 Sc2 2.819108 1_655
B1 Sc3 2.819108 1_555
B2 Ir6 2.226660 1_555
B2 Ir6 2.226660 1_554
B2 Ir1 2.226660 1_555
B2 Ir1 2.226660 1_554
B2 Ir8 2.278049 1_564
B2 Ir8 2.278049 1_565
B2 Sc3 2.630926 1_555
B2 Sc0 2.819108 1_565
B2 Sc1 2.819108 1_555
B3 Ir0 2.226660 1_554
B3 Ir0 2.226660 1_555
B3 Ir7 2.226660 1_555
B3 Ir7 2.226660 1_554
B3 Ir8 2.278049 1_555
B3 Ir8 2.278049 1_554
B3 Sc2 2.630926 1_555
B3 Sc1 2.819108 1_545
B3 Sc0 2.819108 1_555
Ir0 Sc2 2.859325 1_556
Ir0 Sc2 2.859325 1_555
Ir0 Sc1 2.966064 1_546
Ir0 Sc1 2.966064 1_545
Ir1 Sc3 2.859325 1_556
Ir1 Sc3 2.859325 1_555
Ir1 Sc0 2.966064 1_565
Ir1 Sc0 2.966064 1_566
Ir2 Sc1 2.859325 1_555
Ir2 Sc1 2.859325 1_556
Ir2 Sc3 2.966064 1_455
Ir2 Sc3 2.966064 1_456
Ir3 Sc0 2.859325 1_555
Ir3 Sc0 2.859325 1_556
Ir3 Sc3 2.966064 1_556
Ir3 Sc3 2.966064 1_555
Ir4 Sc0 2.859325 1_555
Ir4 Sc0 2.859325 1_556
Ir4 Sc2 2.966064 1_655
Ir4 Sc2 2.966064 1_656
Ir5 Sc1 2.859325 1_556
Ir5 Sc1 2.859325 1_555
Ir5 Sc2 2.966064 1_556
Ir5 Sc2 2.966064 1_555
Ir6 Sc3 2.859325 1_555
Ir6 Sc3 2.859325 1_556
Ir6 Sc1 2.966064 1_555
Ir6 Sc1 2.966064 1_556
Ir7 Sc2 2.859325 1_555
Ir7 Sc2 2.859325 1_556
Ir7 Sc0 2.966064 1_555
Ir7 Sc0 2.966064 1_556
Ir8 Sc0 2.789905 1_555
Ir8 Sc0 2.789905 1_556
Ir8 Sc1 2.789905 1_545
Ir8 Sc1 2.789905 1_546
Ir9 Sc3 2.789905 1_456
Ir9 Sc3 2.789905 1_455
Ir9 Sc2 2.789905 1_555
Ir9 Sc2 2.789905 1_556
