# generated using pymatgen
data_KMg30BO31
_symmetry_space_group_name_H-M   'P 1'
_cell_length_a   8.66459224
_cell_length_b   8.74287666
_cell_length_c   8.35766040
_cell_angle_alpha   90.00000000
_cell_angle_beta   90.00000000
_cell_angle_gamma   90.00000000
_symmetry_Int_Tables_number   1
_chemical_formula_structural   KMg30BO31
_chemical_formula_sum   'K1 Mg30 B1 O31'
_cell_volume   633.12170336
_cell_formula_units_Z   1
loop_
 _symmetry_equiv_pos_site_id
 _symmetry_equiv_pos_as_xyz
  1  'x, y, z'
loop_
 _atom_site_type_symbol
 _atom_site_label
 _atom_site_symmetry_multiplicity
 _atom_site_fract_x
 _atom_site_fract_y
 _atom_site_fract_z
 _atom_site_occupancy
  K  K0  1  0.99549568  0.00000000  0.00000000  1
  Mg  Mg0  1  0.99753134  0.50000000  0.00000000  1
  Mg  Mg1  1  0.99469868  0.50000000  0.50000000  1
  Mg  Mg2  1  0.49630737  0.00000000  0.00000000  1
  Mg  Mg3  1  0.49919054  0.00000000  0.50000000  1
  Mg  Mg4  1  0.49979837  0.50000000  0.00000000  1
  Mg  Mg5  1  0.50199216  0.50000000  0.50000000  1
  Mg  Mg6  1  0.00010185  0.26110990  0.25693798  1
  Mg  Mg7  1  0.00010185  0.26110990  0.74306202  1
  Mg  Mg8  1  0.00010185  0.73889010  0.25693798  1
  Mg  Mg9  1  0.00010185  0.73889010  0.74306202  1
  Mg  Mg10  1  0.49783753  0.25104368  0.25085866  1
  Mg  Mg11  1  0.49783753  0.25104368  0.74914134  1
  Mg  Mg12  1  0.49783753  0.74895632  0.25085866  1
  Mg  Mg13  1  0.49783753  0.74895632  0.74914134  1
  Mg  Mg14  1  0.25447441  0.00000000  0.25021552  1
  Mg  Mg15  1  0.25447441  0.00000000  0.74978448  1
  Mg  Mg16  1  0.25023535  0.50000000  0.24825546  1
  Mg  Mg17  1  0.25023535  0.50000000  0.75174454  1
  Mg  Mg18  1  0.73584981  0.00000000  0.25826204  1
  Mg  Mg19  1  0.73584981  0.00000000  0.74173796  1
  Mg  Mg20  1  0.74830648  0.50000000  0.25093533  1
  Mg  Mg21  1  0.74830648  0.50000000  0.74906467  1
  Mg  Mg22  1  0.24966918  0.25269309  0.00000000  1
  Mg  Mg23  1  0.24582614  0.26274475  0.50000000  1
  Mg  Mg24  1  0.24966918  0.74730691  0.00000000  1
  Mg  Mg25  1  0.24582614  0.73725525  0.50000000  1
  Mg  Mg26  1  0.74742192  0.25058925  0.00000000  1
  Mg  Mg27  1  0.75640357  0.24114866  0.50000000  1
  Mg  Mg28  1  0.74742192  0.74941075  0.00000000  1
  Mg  Mg29  1  0.75640357  0.75885134  0.50000000  1
  B  B0  1  0.07648534  0.00000000  0.50000000  1
  O  O0  1  0.26724583  0.00000000  0.00000000  1
  O  O1  1  0.25397099  0.50000000  0.00000000  1
  O  O2  1  0.25450565  0.50000000  0.50000000  1
  O  O3  1  0.72454845  0.00000000  0.00000000  1
  O  O4  1  0.72642057  0.00000000  0.50000000  1
  O  O5  1  0.74442480  0.50000000  0.00000000  1
  O  O6  1  0.74484262  0.50000000  0.50000000  1
  O  O7  1  0.24740370  0.24853416  0.25030707  1
  O  O8  1  0.24740370  0.24853416  0.74969293  1
  O  O9  1  0.24740370  0.75146584  0.25030707  1
  O  O10  1  0.24740370  0.75146584  0.74969293  1
  O  O11  1  0.75233085  0.24432378  0.25011991  1
  O  O12  1  0.75233085  0.24432378  0.74988009  1
  O  O13  1  0.75233085  0.75567622  0.25011991  1
  O  O14  1  0.75233085  0.75567622  0.74988009  1
  O  O15  1  0.01919238  0.00000000  0.33907588  1
  O  O16  1  0.01919238  0.00000000  0.66092412  1
  O  O17  1  0.99866481  0.50000000  0.25006652  1
  O  O18  1  0.99866481  0.50000000  0.74993348  1
  O  O19  1  0.49162033  0.00000000  0.25464188  1
  O  O20  1  0.49162033  0.00000000  0.74535812  1
  O  O21  1  0.49998349  0.50000000  0.25070951  1
  O  O22  1  0.49998349  0.50000000  0.74929049  1
  O  O23  1  -0.00026969  0.27051541  0.00000000  1
  O  O24  1  0.00135840  0.27267339  0.50000000  1
  O  O25  1  -0.00026969  0.72948459  0.00000000  1
  O  O26  1  0.00135840  0.72732661  0.50000000  1
  O  O27  1  0.49841314  0.25367185  0.00000000  1
  O  O28  1  0.49377320  0.24987887  0.50000000  1
  O  O29  1  0.49841314  0.74632815  0.00000000  1
  O  O30  1  0.49377320  0.75012113  0.50000000  1
loop_
_geom_bond_atom_site_label_1
_geom_bond_atom_site_label_2
_geom_bond_distance
_geom_bond_site_symmetry_2
K0 O3 2.347647 1_555
K0 O0 2.354604 1_655
K0 O23 2.365367 1_655
K0 O25 2.365367 1_645
K0 O15 2.841309 1_655
K0 O16 2.841309 1_654
Mg0 O25 2.006446 1_655
Mg0 O23 2.006446 1_655
Mg0 O18 2.089994 1_554
Mg0 O17 2.089994 1_555
Mg0 O5 2.193065 1_555
Mg0 O1 2.221945 1_655
Mg1 O26 1.988326 1_655
Mg1 O24 1.988326 1_655
Mg1 O17 2.089142 1_555
Mg1 O18 2.089142 1_555
Mg1 O6 2.164901 1_555
Mg1 O2 2.251121 1_655
Mg2 O3 1.977616 1_555
Mg2 O0 1.984725 1_555
Mg2 O20 2.128598 1_554
Mg2 O19 2.128598 1_555
Mg2 O27 2.217897 1_555
Mg2 O29 2.217897 1_545
Mg3 O4 1.968856 1_555
Mg3 O19 2.051669 1_555
Mg3 O20 2.051669 1_555
Mg3 O28 2.185164 1_555
Mg3 O30 2.185164 1_545
Mg4 O22 2.095346 1_554
Mg4 O21 2.095346 1_555
Mg4 O5 2.119588 1_555
Mg4 O1 2.129994 1_555
Mg4 O29 2.153650 1_555
Mg4 O27 2.153650 1_555
Mg5 O21 2.083558 1_555
Mg5 O22 2.083558 1_555
Mg5 O6 2.104200 1_555
Mg5 O2 2.144370 1_555
Mg5 O30 2.187937 1_555
Mg5 O28 2.187937 1_555
Mg6 O24 2.033973 1_555
Mg6 O17 2.089413 1_455
Mg6 O7 2.146304 1_555
Mg6 O23 2.148977 1_555
Mg6 O11 2.152599 1_455
Mg6 O15 2.389567 1_555
Mg7 O24 2.033973 1_555
Mg7 O18 2.089413 1_455
Mg7 O8 2.146304 1_555
Mg7 O23 2.148977 1_556
Mg7 O12 2.152599 1_455
Mg7 O16 2.389567 1_555
Mg8 O26 2.033973 1_555
Mg8 O17 2.089413 1_455
Mg8 O9 2.146304 1_555
Mg8 O25 2.148977 1_555
Mg8 O13 2.152599 1_455
Mg8 O15 2.389567 1_565
Mg9 O26 2.033973 1_555
Mg9 O18 2.089413 1_455
Mg9 O10 2.146304 1_555
Mg9 O25 2.148977 1_556
Mg9 O14 2.152599 1_455
Mg9 O16 2.389567 1_565
Mg10 O28 2.082561 1_555
Mg10 O27 2.096723 1_555
Mg10 O7 2.170023 1_555
Mg10 O21 2.176674 1_555
Mg10 O19 2.195733 1_555
Mg10 O11 2.205872 1_555
Mg11 O28 2.082561 1_555
Mg11 O27 2.096723 1_556
Mg11 O8 2.170023 1_555
Mg11 O22 2.176674 1_555
Mg11 O20 2.195733 1_555
Mg11 O12 2.205872 1_555
Mg12 O30 2.082561 1_555
Mg12 O29 2.096723 1_555
Mg12 O9 2.170023 1_555
Mg12 O21 2.176674 1_555
Mg12 O19 2.195733 1_565
Mg12 O13 2.205872 1_555
Mg13 O30 2.082561 1_555
Mg13 O29 2.096723 1_556
Mg13 O10 2.170023 1_555
Mg13 O22 2.176674 1_555
Mg13 O20 2.195733 1_565
Mg13 O14 2.205872 1_555
Mg14 O19 2.055106 1_555
Mg14 O0 2.094142 1_555
Mg14 O15 2.169685 1_555
Mg14 O9 2.173767 1_545
Mg14 O7 2.173767 1_555
Mg15 O20 2.055106 1_555
Mg15 O0 2.094142 1_556
Mg15 O16 2.169685 1_555
Mg15 O10 2.173767 1_545
Mg15 O8 2.173767 1_555
Mg16 O1 2.075087 1_555
Mg16 O2 2.104321 1_555
Mg16 O21 2.164063 1_555
Mg16 O17 2.179809 1_455
Mg16 O7 2.198739 1_555
Mg16 O9 2.198739 1_555
Mg17 O1 2.075087 1_556
Mg17 O2 2.104321 1_555
Mg17 O22 2.164063 1_555
Mg17 O18 2.179809 1_455
Mg17 O8 2.198739 1_555
Mg17 O10 2.198739 1_555
Mg18 O4 2.022015 1_555
Mg18 O19 2.116365 1_555
Mg18 O13 2.141942 1_545
Mg18 O11 2.141942 1_555
Mg18 O3 2.160686 1_555
Mg18 O15 2.546261 1_655
Mg19 O4 2.022015 1_555
Mg19 O20 2.116365 1_555
Mg19 O14 2.141942 1_545
Mg19 O12 2.141942 1_555
Mg19 O3 2.160686 1_556
Mg19 O16 2.546261 1_655
Mg20 O6 2.081814 1_555
Mg20 O5 2.097502 1_555
Mg20 O21 2.151618 1_555
Mg20 O17 2.169265 1_555
Mg20 O11 2.235628 1_555
Mg20 O13 2.235628 1_555
Mg21 O6 2.081814 1_555
Mg21 O5 2.097502 1_556
Mg21 O22 2.151618 1_555
Mg21 O18 2.169265 1_555
Mg21 O12 2.235628 1_555
Mg21 O14 2.235628 1_555
Mg22 O8 2.092390 1_554
Mg22 O7 2.092390 1_555
Mg22 O27 2.155282 1_555
Mg22 O1 2.162495 1_555
Mg22 O23 2.171217 1_555
Mg22 O0 2.214507 1_555
Mg23 O2 2.075656 1_555
Mg23 O7 2.090589 1_555
Mg23 O8 2.090589 1_555
Mg23 O24 2.119991 1_555
Mg23 O28 2.151303 1_555
Mg24 O10 2.092390 1_554
Mg24 O9 2.092390 1_555
Mg24 O29 2.155282 1_555
Mg24 O1 2.162495 1_555
Mg24 O25 2.171217 1_555
Mg24 O0 2.214507 1_565
Mg25 O2 2.075656 1_555
Mg25 O9 2.090589 1_555
Mg25 O10 2.090589 1_555
Mg25 O26 2.119991 1_555
Mg25 O30 2.151303 1_555
Mg26 O11 2.091567 1_555
Mg26 O12 2.091567 1_554
Mg26 O27 2.157728 1_555
Mg26 O5 2.180722 1_555
Mg26 O23 2.193080 1_655
Mg26 O3 2.199817 1_555
Mg27 O11 2.088896 1_555
Mg27 O12 2.088896 1_555
Mg27 O4 2.124278 1_555
Mg27 O24 2.140255 1_655
Mg27 O6 2.265321 1_555
Mg27 O28 2.276865 1_555
Mg28 O13 2.091567 1_555
Mg28 O14 2.091567 1_554
Mg28 O29 2.157728 1_555
Mg28 O5 2.180722 1_555
Mg28 O25 2.193080 1_655
Mg28 O3 2.199817 1_565
Mg29 O14 2.088896 1_555
Mg29 O13 2.088896 1_555
Mg29 O4 2.124278 1_565
Mg29 O26 2.140255 1_655
Mg29 O6 2.265321 1_555
Mg29 O30 2.276865 1_555
B0 O16 1.433639 1_555
B0 O15 1.433639 1_555
