# generated using pymatgen
data_PdN2
_symmetry_space_group_name_H-M   'P 1'
_cell_length_a   4.74511435
_cell_length_b   4.74511435
_cell_length_c   4.74511435
_cell_angle_alpha   143.57653302
_cell_angle_beta   116.00027062
_cell_angle_gamma   75.93478934
_symmetry_Int_Tables_number   1
_chemical_formula_structural   PdN2
_chemical_formula_sum   'Pd1 N2'
_cell_volume   55.79871280
_cell_formula_units_Z   1
loop_
 _symmetry_equiv_pos_site_id
 _symmetry_equiv_pos_as_xyz
  1  'x, y, z'
loop_
 _atom_site_type_symbol
 _atom_site_label
 _atom_site_symmetry_multiplicity
 _atom_site_fract_x
 _atom_site_fract_y
 _atom_site_fract_z
 _atom_site_occupancy
  Pd  Pd0  1  0.00000000  0.00000000  0.00000000  1
  N  N0  1  0.61328300  0.00000000  0.61328300  1
  N  N1  1  0.38671700  0.00000000  0.38671700  1
loop_
_geom_bond_atom_site_label_1
_geom_bond_atom_site_label_2
_geom_bond_distance
_geom_bond_site_symmetry_2
N0 N1 1.139409 1_555
N0 Pd0 1.944814 1_656
N1 Pd0 1.944814 1_555
