# generated using pymatgen
data_Nb4FeSe8
_symmetry_space_group_name_H-M   'P 1'
_cell_length_a   6.99602476
_cell_length_b   7.00045147
_cell_length_c   12.86693863
_cell_angle_alpha   90.00117849
_cell_angle_beta   89.99947652
_cell_angle_gamma   120.02069094
_symmetry_Int_Tables_number   1
_chemical_formula_structural   Nb4FeSe8
_chemical_formula_sum   'Nb8 Fe2 Se16'
_cell_volume   545.62299078
_cell_formula_units_Z   2
loop_
 _symmetry_equiv_pos_site_id
 _symmetry_equiv_pos_as_xyz
  1  'x, y, z'
loop_
 _atom_site_type_symbol
 _atom_site_label
 _atom_site_symmetry_multiplicity
 _atom_site_fract_x
 _atom_site_fract_y
 _atom_site_fract_z
 _atom_site_occupancy
  Nb  Nb0  1  0.00265325  0.00131271  0.24999570  1
  Nb  Nb1  1  -0.00266146  -0.00131117  0.75000403  1
  Nb  Nb2  1  0.50781854  0.01742189  0.24997811  1
  Nb  Nb3  1  0.98266024  0.49133339  0.24998031  1
  Nb  Nb4  1  0.50783407  0.49040084  0.24998160  1
  Nb  Nb5  1  0.49218898  0.98257611  0.75002327  1
  Nb  Nb6  1  0.01733572  0.50867472  0.75001692  1
  Nb  Nb7  1  0.49216989  0.50960110  0.75001974  1
  Fe  Fe0  1  -0.00000292  -0.00000311  0.50001047  1
  Fe  Fe1  1  -0.00000019  0.99999590  -0.00001123  1
  Se  Se0  1  0.33415278  0.66708917  0.88431921  1
  Se  Se1  1  0.66584487  0.33290896  0.11567202  1
  Se  Se2  1  0.66585518  0.33293098  0.38437487  1
  Se  Se3  1  0.33416309  0.66707584  0.61565617  1
  Se  Se4  1  0.16805206  0.83062948  0.37834359  1
  Se  Se5  1  0.16806167  0.33740452  0.37835902  1
  Se  Se6  1  0.66640760  0.83321272  0.37747037  1
  Se  Se7  1  0.83198267  0.16940557  0.62166120  1
  Se  Se8  1  0.83194224  0.66257935  0.62166107  1
  Se  Se9  1  0.33356733  0.16677185  0.62254161  1
  Se  Se10  1  0.83197549  0.16940552  0.87831816  1
  Se  Se11  1  0.83196174  0.66262293  0.87829987  1
  Se  Se12  1  0.33355690  0.16677957  0.87745393  1
  Se  Se13  1  0.16802466  0.83059908  0.12166128  1
  Se  Se14  1  0.16802961  0.33736725  0.12166960  1
  Se  Se15  1  0.66642698  0.83321284  0.12253711  1
loop_
_geom_bond_atom_site_label_1
_geom_bond_atom_site_label_2
_geom_bond_distance
_geom_bond_site_symmetry_2
Nb0 Se15 2.614893 1_445
Nb0 Se6 2.615118 1_445
Nb0 Se14 2.622203 1_555
Nb0 Se13 2.622363 1_545
Nb0 Se4 2.622501 1_545
Nb0 Se5 2.622632 1_555
Nb1 Se12 2.614786 1_555
Nb1 Se9 2.614940 1_555
Nb1 Se11 2.622011 1_445
Nb1 Se10 2.622174 1_455
Nb1 Se7 2.622418 1_455
Nb1 Se8 2.622551 1_445
Nb2 Se1 2.577447 1_555
Nb2 Se2 2.578281 1_555
Nb2 Se13 2.641314 1_545
Nb2 Se4 2.641577 1_545
Nb2 Se15 2.648540 1_545
Nb2 Se6 2.648904 1_545
Nb3 Se1 2.582517 1_555
Nb3 Se2 2.583217 1_555
Nb3 Se13 2.639451 1_655
Nb3 Se14 2.639654 1_655
Nb3 Se4 2.639908 1_655
Nb3 Se5 2.640230 1_655
Nb4 Se1 2.577496 1_555
Nb4 Se2 2.578209 1_555
Nb4 Se14 2.641309 1_555
Nb4 Se5 2.641691 1_555
Nb4 Se15 2.648597 1_555
Nb4 Se6 2.648905 1_555
Nb5 Se0 2.577358 1_555
Nb5 Se3 2.577985 1_555
Nb5 Se10 2.641106 1_565
Nb5 Se7 2.641685 1_565
Nb5 Se12 2.648540 1_565
Nb5 Se9 2.648905 1_565
Nb6 Se0 2.582473 1_555
Nb6 Se3 2.583026 1_555
Nb6 Se10 2.639323 1_455
Nb6 Se11 2.639371 1_455
Nb6 Se7 2.639713 1_455
Nb6 Se8 2.639896 1_455
Nb7 Se0 2.577420 1_555
Nb7 Se3 2.577911 1_555
Nb7 Se11 2.640995 1_555
Nb7 Se8 2.641546 1_555
Nb7 Se12 2.648557 1_555
Nb7 Se9 2.648898 1_555
Fe0 Se9 2.562900 1_555
Fe0 Se6 2.563062 1_445
Fe0 Se5 2.575426 1_555
Fe0 Se7 2.575445 1_455
Fe0 Se8 2.575467 1_445
Fe0 Se4 2.575568 1_545
Fe1 Se12 2.562869 1_564
Fe1 Se15 2.563051 1_455
Fe1 Se14 2.575435 1_565
Fe1 Se11 2.575506 1_454
Fe1 Se13 2.575651 1_555
Fe1 Se10 2.575696 1_464
