# generated using pymatgen
data_GaPtO2
_symmetry_space_group_name_H-M   'P 1'
_cell_length_a   2.95512001
_cell_length_b   2.95512001
_cell_length_c   12.33883700
_cell_angle_alpha   90.00000000
_cell_angle_beta   90.00000000
_cell_angle_gamma   120.00000017
_symmetry_Int_Tables_number   1
_chemical_formula_structural   GaPtO2
_chemical_formula_sum   'Ga2 Pt2 O4'
_cell_volume   93.31578260
_cell_formula_units_Z   2
loop_
 _symmetry_equiv_pos_site_id
 _symmetry_equiv_pos_as_xyz
  1  'x, y, z'
loop_
 _atom_site_type_symbol
 _atom_site_label
 _atom_site_symmetry_multiplicity
 _atom_site_fract_x
 _atom_site_fract_y
 _atom_site_fract_z
 _atom_site_occupancy
  Ga  Ga0  1  0.00000000  0.00000000  0.00000000  1
  Ga  Ga1  1  0.00000000  0.00000000  0.50000000  1
  Pt  Pt0  1  0.33333300  0.66666700  0.25000000  1
  Pt  Pt1  1  0.66666700  0.33333300  0.75000000  1
  O  O0  1  0.33333300  0.66666700  0.08349200  1
  O  O1  1  0.33333300  0.66666700  0.41650800  1
  O  O2  1  0.66666700  0.33333300  0.58349200  1
  O  O3  1  0.66666700  0.33333300  0.91650800  1
loop_
_geom_bond_atom_site_label_1
_geom_bond_atom_site_label_2
_geom_bond_distance
_geom_bond_site_symmetry_2
Ga0 O0 1.993039 1_545
Ga0 O3 1.993039 1_454
Ga0 O0 1.993041 1_555
Ga0 O0 1.993041 1_445
Ga0 O3 1.993041 1_554
Ga0 O3 1.993041 1_444
Ga1 O1 1.993039 1_545
Ga1 O2 1.993039 1_455
Ga1 O2 1.993041 1_555
Ga1 O2 1.993041 1_445
Ga1 O1 1.993041 1_555
Ga1 O1 1.993041 1_445
O0 Pt0 2.054515 1_555
O1 Pt0 2.054515 1_555
O2 Pt1 2.054515 1_555
O3 Pt1 2.054515 1_555
