# generated using pymatgen
data_Sc4Ge6Ir7
_symmetry_space_group_name_H-M   'P 1'
_cell_length_a   7.06346528
_cell_length_b   7.06346528
_cell_length_c   7.06346528
_cell_angle_alpha   109.47122063
_cell_angle_beta   109.47122063
_cell_angle_gamma   109.47122063
_symmetry_Int_Tables_number   1
_chemical_formula_structural   Sc4Ge6Ir7
_chemical_formula_sum   'Sc4 Ge6 Ir7'
_cell_volume   271.28860556
_cell_formula_units_Z   1
loop_
 _symmetry_equiv_pos_site_id
 _symmetry_equiv_pos_as_xyz
  1  'x, y, z'
loop_
 _atom_site_type_symbol
 _atom_site_label
 _atom_site_symmetry_multiplicity
 _atom_site_fract_x
 _atom_site_fract_y
 _atom_site_fract_z
 _atom_site_occupancy
  Sc  Sc0  1  0.50000000  0.50000000  0.50000000  1
  Sc  Sc1  1  -0.00000000  -0.00000000  0.50000000  1
  Sc  Sc2  1  -0.00000000  0.50000000  -0.00000000  1
  Sc  Sc3  1  0.50000000  -0.00000000  -0.00000000  1
  Ge  Ge0  1  0.00000000  0.31310498  0.31310498  1
  Ge  Ge1  1  -0.00000000  0.68689502  0.68689502  1
  Ge  Ge2  1  0.31310498  0.00000000  0.31310498  1
  Ge  Ge3  1  0.68689502  -0.00000000  0.68689502  1
  Ge  Ge4  1  0.31310498  0.31310498  -0.00000000  1
  Ge  Ge5  1  0.68689502  0.68689502  -0.00000000  1
  Ir  Ir0  1  0.50000000  0.75000000  0.25000000  1
  Ir  Ir1  1  0.50000000  0.25000000  0.75000000  1
  Ir  Ir2  1  0.25000000  0.50000000  0.75000000  1
  Ir  Ir3  1  0.75000000  0.50000000  0.25000000  1
  Ir  Ir4  1  0.75000000  0.25000000  0.50000000  1
  Ir  Ir5  1  0.25000000  0.75000000  0.50000000  1
  Ir  Ir6  1  -0.00000000  -0.00000000  -0.00000000  1
loop_
_geom_bond_atom_site_label_1
_geom_bond_atom_site_label_2
_geom_bond_distance
_geom_bond_site_symmetry_2
Ge0 Ir5 2.545851 1_555
Ge0 Ir2 2.545851 1_555
Ge0 Ir4 2.545851 1_455
Ge0 Ir3 2.545851 1_455
Ge0 Ir6 2.553743 1_555
Ge0 Sc0 2.929221 1_555
Ge0 Sc2 2.929221 1_555
Ge0 Sc1 2.929221 1_555
Ge0 Sc3 2.929221 1_455
Ge1 Ir5 2.545851 1_555
Ge1 Ir2 2.545851 1_555
Ge1 Ir4 2.545851 1_455
Ge1 Ir3 2.545851 1_455
Ge1 Ir6 2.553743 1_566
Ge1 Sc0 2.929221 1_455
Ge1 Sc1 2.929221 1_565
Ge1 Sc2 2.929221 1_556
Ge1 Sc3 2.929221 1_566
Ge2 Ir5 2.545851 1_545
Ge2 Ir1 2.545851 1_555
Ge2 Ir0 2.545851 1_545
Ge2 Ir4 2.545851 1_555
Ge2 Ir6 2.553743 1_555
Ge2 Sc1 2.929221 1_555
Ge2 Sc3 2.929221 1_555
Ge2 Sc0 2.929221 1_555
Ge2 Sc2 2.929221 1_545
Ge3 Ir5 2.545851 1_545
Ge3 Ir1 2.545851 1_555
Ge3 Ir0 2.545851 1_545
Ge3 Ir4 2.545851 1_555
Ge3 Ir6 2.553743 1_656
Ge3 Sc0 2.929221 1_545
Ge3 Sc3 2.929221 1_556
Ge3 Sc2 2.929221 1_656
Ge3 Sc1 2.929221 1_655
Ge4 Ir1 2.545851 1_554
Ge4 Ir3 2.545851 1_555
Ge4 Ir2 2.545851 1_554
Ge4 Ir0 2.545851 1_555
Ge4 Ir6 2.553743 1_555
Ge4 Sc3 2.929221 1_555
Ge4 Sc0 2.929221 1_555
Ge4 Sc2 2.929221 1_555
Ge4 Sc1 2.929221 1_554
Ge5 Ir1 2.545851 1_554
Ge5 Ir3 2.545851 1_555
Ge5 Ir2 2.545851 1_554
Ge5 Ir0 2.545851 1_555
Ge5 Ir6 2.553743 1_665
Ge5 Sc2 2.929221 1_655
Ge5 Sc0 2.929221 1_554
Ge5 Sc1 2.929221 1_665
Ge5 Sc3 2.929221 1_565
Ir0 Sc2 2.883648 1_555
Ir0 Sc1 2.883648 1_665
Ir0 Sc3 2.883648 1_565
Ir0 Sc0 2.883648 1_555
Ir1 Sc2 2.883648 1_656
Ir1 Sc1 2.883648 1_555
Ir1 Sc3 2.883648 1_556
Ir1 Sc0 2.883648 1_555
Ir2 Sc3 2.883648 1_566
Ir2 Sc1 2.883648 1_555
Ir2 Sc2 2.883648 1_556
Ir2 Sc0 2.883648 1_555
Ir3 Sc3 2.883648 1_555
Ir3 Sc1 2.883648 1_665
Ir3 Sc2 2.883648 1_655
Ir3 Sc0 2.883648 1_555
Ir4 Sc1 2.883648 1_655
Ir4 Sc3 2.883648 1_555
Ir4 Sc0 2.883648 1_555
Ir4 Sc2 2.883648 1_656
Ir5 Sc2 2.883648 1_555
Ir5 Sc3 2.883648 1_566
Ir5 Sc0 2.883648 1_555
Ir5 Sc1 2.883648 1_565
