# generated using pymatgen
data_TiCrAs2
_symmetry_space_group_name_H-M   'P 1'
_cell_length_a   3.64007662
_cell_length_b   3.64007662
_cell_length_c   5.93603900
_cell_angle_alpha   90.00000000
_cell_angle_beta   90.00000000
_cell_angle_gamma   120.00001121
_symmetry_Int_Tables_number   1
_chemical_formula_structural   TiCrAs2
_chemical_formula_sum   'Ti1 Cr1 As2'
_cell_volume   68.11588097
_cell_formula_units_Z   1
loop_
 _symmetry_equiv_pos_site_id
 _symmetry_equiv_pos_as_xyz
  1  'x, y, z'
loop_
 _atom_site_type_symbol
 _atom_site_label
 _atom_site_symmetry_multiplicity
 _atom_site_fract_x
 _atom_site_fract_y
 _atom_site_fract_z
 _atom_site_occupancy
  Ti  Ti0  1  0.00000000  0.00000000  0.00000000  1
  Cr  Cr0  1  0.00000000  0.00000000  0.50000000  1
  As  As0  1  0.66666700  0.33333300  0.26420000  1
  As  As1  1  0.33333300  0.66666700  0.73580000  1
loop_
_geom_bond_atom_site_label_1
_geom_bond_atom_site_label_2
_geom_bond_distance
_geom_bond_site_symmetry_2
As0 Cr0 2.525059 1_655
As0 Cr0 2.525061 1_665
As0 Cr0 2.525061 1_555
As0 Ti0 2.622266 1_655
As0 Ti0 2.622269 1_555
As0 Ti0 2.622269 1_665
As1 Cr0 2.525059 1_565
As1 Cr0 2.525061 1_665
As1 Cr0 2.525061 1_555
As1 Ti0 2.622266 1_566
As1 Ti0 2.622269 1_666
As1 Ti0 2.622269 1_556
