# generated using pymatgen
data_NaHoGeO4
_symmetry_space_group_name_H-M   'P 1'
_cell_length_a   5.32246900
_cell_length_b   6.48439600
_cell_length_c   11.48003800
_cell_angle_alpha   90.00000000
_cell_angle_beta   90.00000000
_cell_angle_gamma   90.00000000
_symmetry_Int_Tables_number   1
_chemical_formula_structural   NaHoGeO4
_chemical_formula_sum   'Na4 Ho4 Ge4 O16'
_cell_volume   396.21051354
_cell_formula_units_Z   4
loop_
 _symmetry_equiv_pos_site_id
 _symmetry_equiv_pos_as_xyz
  1  'x, y, z'
loop_
 _atom_site_type_symbol
 _atom_site_label
 _atom_site_symmetry_multiplicity
 _atom_site_fract_x
 _atom_site_fract_y
 _atom_site_fract_z
 _atom_site_occupancy
  Na  Na0  1  0.50000000  0.00000000  0.00000000  1
  Na  Na1  1  0.00000000  0.00000000  0.50000000  1
  Na  Na2  1  0.50000000  0.50000000  0.00000000  1
  Na  Na3  1  0.00000000  0.50000000  0.50000000  1
  Ho  Ho0  1  0.00536100  0.75000000  0.77739400  1
  Ho  Ho1  1  0.50536100  0.25000000  0.72260600  1
  Ho  Ho2  1  0.99463900  0.25000000  0.22260600  1
  Ho  Ho3  1  0.49463900  0.75000000  0.27739400  1
  Ge  Ge0  1  0.05288200  0.75000000  0.09793700  1
  Ge  Ge1  1  0.55288200  0.25000000  0.40206300  1
  Ge  Ge2  1  0.94711800  0.25000000  0.90206300  1
  Ge  Ge3  1  0.44711800  0.75000000  0.59793700  1
  O  O0  1  0.17162300  0.75000000  0.95449600  1
  O  O1  1  0.67162300  0.25000000  0.54550400  1
  O  O2  1  0.82837700  0.25000000  0.04550400  1
  O  O3  1  0.32837700  0.75000000  0.45449600  1
  O  O4  1  0.79271300  0.04191100  0.82497500  1
  O  O5  1  0.29271300  0.95808900  0.67502500  1
  O  O6  1  0.20728700  0.54191100  0.17502500  1
  O  O7  1  0.70728700  0.45808900  0.32497500  1
  O  O8  1  0.20728700  0.95808900  0.17502500  1
  O  O9  1  0.70728700  0.04191100  0.32497500  1
  O  O10  1  0.79271300  0.45808900  0.82497500  1
  O  O11  1  0.29271300  0.54191100  0.67502500  1
  O  O12  1  0.77388500  0.75000000  0.61155300  1
  O  O13  1  0.27388500  0.25000000  0.88844700  1
  O  O14  1  0.22611500  0.25000000  0.38844700  1
  O  O15  1  0.72611500  0.75000000  0.11155300  1
loop_
_geom_bond_atom_site_label_1
_geom_bond_atom_site_label_2
_geom_bond_distance
_geom_bond_site_symmetry_2
Na0 O15 2.390893 1_545
Na0 O13 2.390893 1_554
Na0 O2 2.440404 1_555
Na0 O0 2.440404 1_544
Na0 O8 2.557019 1_545
Na0 O4 2.557019 1_554
Na1 O14 2.390893 1_555
Na1 O12 2.390893 1_445
Na1 O1 2.440404 1_455
Na1 O3 2.440404 1_545
Na1 O5 2.557019 1_545
Na1 O9 2.557019 1_455
Na2 O15 2.390893 1_555
Na2 O13 2.390893 1_554
Na2 O2 2.440404 1_555
Na2 O0 2.440404 1_554
Na2 O6 2.557019 1_555
Na2 O10 2.557019 1_554
Na3 O14 2.390893 1_555
Na3 O12 2.390893 1_455
Na3 O1 2.440404 1_455
Na3 O3 2.440404 1_555
Na3 O11 2.557019 1_555
Na3 O7 2.557019 1_455
Ho0 O0 2.217372 1_555
Ho0 O12 2.267723 1_455
Ho0 O4 2.272072 1_465
Ho0 O10 2.272072 1_455
Ho0 O5 2.353916 1_555
Ho0 O11 2.353916 1_555
Ho1 O1 2.217372 1_555
Ho1 O13 2.267723 1_555
Ho1 O11 2.272072 1_555
Ho1 O5 2.272072 1_545
Ho1 O10 2.353916 1_555
Ho1 O4 2.353916 1_555
Ho2 O2 2.217372 1_555
Ho2 O14 2.267723 1_655
Ho2 O6 2.272072 1_655
Ho2 O8 2.272072 1_645
Ho2 O7 2.353916 1_555
Ho2 O9 2.353916 1_555
Ho3 O3 2.217372 1_555
Ho3 O15 2.267723 1_555
Ho3 O9 2.272072 1_565
Ho3 O7 2.272072 1_555
Ho3 O8 2.353916 1_555
Ho3 O6 2.353916 1_555
Ge0 O15 1.746217 1_455
Ge0 O0 1.763821 1_554
Ge0 O8 1.810871 1_555
Ge0 O6 1.810871 1_555
Ge1 O14 1.746217 1_555
Ge1 O1 1.763821 1_555
Ge1 O7 1.810871 1_555
Ge1 O9 1.810871 1_555
Ge2 O13 1.746217 1_655
Ge2 O2 1.763821 1_556
Ge2 O10 1.810871 1_555
Ge2 O4 1.810871 1_555
Ge3 O12 1.746217 1_555
Ge3 O3 1.763821 1_555
Ge3 O5 1.810871 1_555
Ge3 O11 1.810871 1_555
