# generated using pymatgen
data_LaS2
_symmetry_space_group_name_H-M   'P 1'
_cell_length_a   4.14384132
_cell_length_b   8.21156417
_cell_length_c   8.21765250
_cell_angle_alpha   90.06306706
_cell_angle_beta   90.00000000
_cell_angle_gamma   90.00000000
_symmetry_Int_Tables_number   1
_chemical_formula_structural   LaS2
_chemical_formula_sum   'La4 S8'
_cell_volume   279.62533482
_cell_formula_units_Z   4
loop_
 _symmetry_equiv_pos_site_id
 _symmetry_equiv_pos_as_xyz
  1  'x, y, z'
loop_
 _atom_site_type_symbol
 _atom_site_label
 _atom_site_symmetry_multiplicity
 _atom_site_fract_x
 _atom_site_fract_y
 _atom_site_fract_z
 _atom_site_occupancy
  La  La0  1  0.71001922  0.72298988  0.36968129  1
  La  La1  1  0.21001922  0.27701012  0.13031871  1
  La  La2  1  0.28998078  0.27701012  0.63031871  1
  La  La3  1  0.78998078  0.72298988  0.86968129  1
  S  S0  1  0.64992520  0.00257914  0.10417350  1
  S  S1  1  0.14992520  0.99742086  0.39582650  1
  S  S2  1  0.35007480  0.99742086  0.89582650  1
  S  S3  1  0.85007480  0.00257914  0.60417350  1
  S  S4  1  0.73631409  0.36529382  0.37412569  1
  S  S5  1  0.23631409  0.63470618  0.12587431  1
  S  S6  1  0.26368591  0.63470618  0.62587431  1
  S  S7  1  0.76368591  0.36529382  0.87412569  1
loop_
_geom_bond_atom_site_label_1
_geom_bond_atom_site_label_2
_geom_bond_distance
_geom_bond_site_symmetry_2
La0 S6 2.895168 1_555
La0 S5 2.896490 1_555
La0 S1 2.906262 1_655
La0 S4 2.939532 1_555
La0 S5 3.048392 1_655
La0 S3 3.051445 1_565
La0 S0 3.178759 1_565
La0 S6 3.197665 1_655
La0 S1 3.241937 1_555
La1 S7 2.895168 1_454
La1 S4 2.896490 1_455
La1 S0 2.906262 1_555
La1 S5 2.939532 1_555
La1 S4 3.048392 1_555
La1 S2 3.051445 1_544
La1 S1 3.178759 1_545
La1 S7 3.197665 1_554
La1 S0 3.241937 1_455
La2 S4 2.895168 1_555
La2 S7 2.896490 1_555
La2 S3 2.906262 1_455
La2 S6 2.939532 1_555
La2 S7 3.048392 1_455
La2 S1 3.051445 1_545
La2 S2 3.178759 1_545
La2 S4 3.197665 1_455
La2 S3 3.241937 1_555
La3 S5 2.895168 1_656
La3 S6 2.896490 1_655
La3 S2 2.906262 1_555
La3 S7 2.939532 1_555
La3 S6 3.048392 1_555
La3 S0 3.051445 1_566
La3 S3 3.178759 1_565
La3 S5 3.197665 1_556
La3 S2 3.241937 1_655
S0 S2 2.115866 1_544
S1 S3 2.115866 1_465
