# generated using pymatgen
data_Ce3Zr5O16
_symmetry_space_group_name_H-M   'P 1'
_cell_length_a   7.49510175
_cell_length_b   7.49510175
_cell_length_c   5.35908100
_cell_angle_alpha   90.00000000
_cell_angle_beta   90.00000000
_cell_angle_gamma   90.52096615
_symmetry_Int_Tables_number   1
_chemical_formula_structural   Ce3Zr5O16
_chemical_formula_sum   'Ce3 Zr5 O16'
_cell_volume   301.04223799
_cell_formula_units_Z   1
loop_
 _symmetry_equiv_pos_site_id
 _symmetry_equiv_pos_as_xyz
  1  'x, y, z'
loop_
 _atom_site_type_symbol
 _atom_site_label
 _atom_site_symmetry_multiplicity
 _atom_site_fract_x
 _atom_site_fract_y
 _atom_site_fract_z
 _atom_site_occupancy
  Ce  Ce0  1  0.25689200  0.74310800  0.00000000  1
  Ce  Ce1  1  0.00000000  0.00000000  0.50000000  1
  Ce  Ce2  1  0.74310800  0.25689200  0.00000000  1
  Zr  Zr0  1  0.50000000  0.00000000  0.50008400  1
  Zr  Zr1  1  0.24717900  0.24717900  0.00000000  1
  Zr  Zr2  1  0.50000000  0.50000000  0.50000000  1
  Zr  Zr3  1  0.75282100  0.75282100  0.00000000  1
  Zr  Zr4  1  0.00000000  0.50000000  0.49991600  1
  O  O0  1  0.48131900  0.75971700  0.30799300  1
  O  O1  1  0.24427700  0.01940800  0.22203900  1
  O  O2  1  0.27027100  0.98902900  0.72351600  1
  O  O3  1  0.52141800  0.72441300  0.79020700  1
  O  O4  1  0.51868100  0.24028300  0.30799300  1
  O  O5  1  0.27558700  0.47858200  0.20979300  1
  O  O6  1  0.24028300  0.51868100  0.69200700  1
  O  O7  1  0.47858200  0.27558700  0.79020700  1
  O  O8  1  0.01097100  0.72972900  0.27648400  1
  O  O9  1  0.75572300  0.98059200  0.22203900  1
  O  O10  1  0.72972900  0.01097100  0.72351600  1
  O  O11  1  0.98059200  0.75572300  0.77796100  1
  O  O12  1  0.98902900  0.27027100  0.27648400  1
  O  O13  1  0.72441300  0.52141800  0.20979300  1
  O  O14  1  0.75971700  0.48131900  0.69200700  1
  O  O15  1  0.01940800  0.24427700  0.77796100  1
loop_
_geom_bond_atom_site_label_1
_geom_bond_atom_site_label_2
_geom_bond_distance
_geom_bond_site_symmetry_2
Ce0 O3 2.284651 1_554
Ce0 O5 2.284651 1_555
Ce0 O0 2.359133 1_555
Ce0 O6 2.359133 1_554
Ce0 O8 2.366332 1_555
Ce0 O2 2.366332 1_554
Ce0 O11 2.391032 1_454
Ce0 O1 2.391032 1_565
Ce1 O2 2.355442 1_545
Ce1 O12 2.355442 1_455
Ce1 O10 2.355442 1_455
Ce1 O8 2.355442 1_545
Ce1 O9 2.363767 1_445
Ce1 O15 2.363767 1_555
Ce1 O1 2.363767 1_555
Ce1 O11 2.363767 1_445
Ce2 O7 2.284651 1_554
Ce2 O13 2.284651 1_555
Ce2 O14 2.359133 1_554
Ce2 O4 2.359133 1_555
Ce2 O10 2.366332 1_554
Ce2 O12 2.366332 1_555
Ce2 O9 2.391032 1_545
Ce2 O15 2.391032 1_654
O0 Zr0 2.078016 1_565
O0 Zr2 2.207405 1_555
O0 Zr3 2.621048 1_555
O1 Zr1 2.080898 1_555
O1 Zr0 2.433136 1_555
O2 Zr0 2.098254 1_565
O2 Zr1 2.444415 1_566
O3 Zr3 2.076239 1_556
O3 Zr2 2.295378 1_555
O3 Zr0 2.591464 1_565
O4 Zr0 2.078016 1_555
O4 Zr2 2.207405 1_555
O4 Zr1 2.621048 1_555
O5 Zr1 2.076239 1_555
O5 Zr2 2.295378 1_555
O5 Zr4 2.591464 1_555
O6 Zr4 2.078016 1_555
O6 Zr2 2.207405 1_555
O6 Zr1 2.621048 1_556
O7 Zr1 2.076239 1_556
O7 Zr2 2.295378 1_555
O7 Zr0 2.591464 1_555
O8 Zr4 2.098254 1_555
O8 Zr3 2.444415 1_455
O9 Zr3 2.080898 1_555
O9 Zr0 2.433136 1_565
O10 Zr0 2.098254 1_555
O10 Zr3 2.444415 1_546
O11 Zr3 2.080898 1_556
O11 Zr4 2.433136 1_655
O12 Zr4 2.098254 1_655
O12 Zr1 2.444415 1_655
O13 Zr3 2.076239 1_555
O13 Zr2 2.295378 1_555
O13 Zr4 2.591464 1_655
O14 Zr4 2.078016 1_655
O14 Zr2 2.207405 1_555
O14 Zr3 2.621048 1_556
O15 Zr1 2.080898 1_556
O15 Zr4 2.433136 1_555
