# generated using pymatgen
data_NbCo2
_symmetry_space_group_name_H-M   'P 1'
_cell_length_a   4.80166330
_cell_length_b   4.80166474
_cell_length_c   15.80281650
_cell_angle_alpha   90.00000000
_cell_angle_beta   90.00000000
_cell_angle_gamma   119.99992433
_symmetry_Int_Tables_number   1
_chemical_formula_structural   NbCo2
_chemical_formula_sum   'Nb8 Co16'
_cell_volume   315.53605883
_cell_formula_units_Z   8
loop_
 _symmetry_equiv_pos_site_id
 _symmetry_equiv_pos_as_xyz
  1  'x, y, z'
loop_
 _atom_site_type_symbol
 _atom_site_label
 _atom_site_symmetry_multiplicity
 _atom_site_fract_x
 _atom_site_fract_y
 _atom_site_fract_z
 _atom_site_occupancy
  Nb  Nb0  1  0.00000000  0.99999900  0.40610300  1
  Nb  Nb1  1  0.00000000  0.00000100  0.59389700  1
  Nb  Nb2  1  0.00000000  0.00000100  0.90610300  1
  Nb  Nb3  1  0.00000000  0.99999900  0.09389700  1
  Nb  Nb4  1  0.33333300  0.66666600  0.65621785  1
  Nb  Nb5  1  0.66666700  0.33333400  0.34378215  1
  Nb  Nb6  1  0.66666700  0.33333400  0.15621785  1
  Nb  Nb7  1  0.33333300  0.66666600  0.84378215  1
  Co  Co0  1  0.33333300  0.66666700  0.37630749  1
  Co  Co1  1  0.66666700  0.33333300  0.62369251  1
  Co  Co2  1  0.66666700  0.33333300  0.87630749  1
  Co  Co3  1  0.33333300  0.66666700  0.12369251  1
  Co  Co4  1  0.50000000  0.50000000  0.50000000  1
  Co  Co5  1  0.50000000  0.00000000  0.50000000  1
  Co  Co6  1  0.00000000  0.50000000  0.50000000  1
  Co  Co7  1  0.50000000  0.50000000  -0.00000000  1
  Co  Co8  1  0.50000000  0.00000000  0.00000000  1
  Co  Co9  1  0.00000000  0.50000000  0.00000000  1
  Co  Co10  1  0.16514283  0.83485617  0.25000000  1
  Co  Co11  1  0.16514383  0.33028666  0.25000000  1
  Co  Co12  1  0.66971334  0.83485617  0.25000000  1
  Co  Co13  1  0.83485717  0.16514383  0.75000000  1
  Co  Co14  1  0.83485617  0.66971334  0.75000000  1
  Co  Co15  1  0.33028666  0.16514383  0.75000000  1
loop_
_geom_bond_atom_site_label_1
_geom_bond_atom_site_label_2
_geom_bond_distance
_geom_bond_site_symmetry_2
Nb0 Nb5 2.941976 1_455
Nb0 Nb5 2.941983 1_565
Nb0 Nb5 2.941984 1_465
Nb0 Nb1 2.967674 1_565
Nb1 Nb4 2.941976 1_555
Nb1 Nb4 2.941983 1_445
Nb1 Nb4 2.941984 1_545
Nb2 Nb7 2.941976 1_555
Nb2 Nb7 2.941983 1_445
Nb2 Nb7 2.941984 1_545
Nb2 Nb3 2.967674 1_546
Nb3 Nb6 2.941976 1_455
Nb3 Nb6 2.941983 1_565
Nb3 Nb6 2.941984 1_465
Nb4 Nb7 2.964044 1_555
Nb5 Nb6 2.964044 1_555
Co0 Co6 2.396277 1_555
Co0 Co5 2.396277 1_565
Co0 Co4 2.396279 1_555
Co0 Co10 2.437350 1_555
Co0 Co12 2.437354 1_555
Co0 Co11 2.437354 1_555
Co0 Nb0 2.811936 1_555
Co0 Nb0 2.811947 1_655
Co0 Nb0 2.811952 1_545
Co0 Nb5 2.819487 1_455
Co0 Nb5 2.819488 1_555
Co0 Nb5 2.819492 1_565
Co1 Co6 2.396277 1_655
Co1 Co5 2.396277 1_555
Co1 Co4 2.396279 1_555
Co1 Co13 2.437350 1_555
Co1 Co15 2.437354 1_555
Co1 Co14 2.437354 1_555
Co1 Nb1 2.811936 1_655
Co1 Nb1 2.811947 1_555
Co1 Nb1 2.811952 1_665
Co1 Nb4 2.819487 1_655
Co1 Nb4 2.819488 1_555
Co1 Nb4 2.819492 1_545
Co2 Co9 2.396277 1_656
Co2 Co8 2.396277 1_556
Co2 Co7 2.396279 1_556
Co2 Nb2 2.811936 1_655
Co2 Nb2 2.811947 1_555
Co2 Nb2 2.811952 1_665
Co2 Nb7 2.819487 1_655
Co2 Nb7 2.819488 1_555
Co2 Nb7 2.819492 1_545
Co3 Co9 2.396277 1_555
Co3 Co8 2.396277 1_565
Co3 Co7 2.396279 1_555
Co3 Nb3 2.811936 1_555
Co3 Nb3 2.811947 1_655
Co3 Nb3 2.811952 1_545
Co3 Nb6 2.819487 1_455
Co3 Nb6 2.819488 1_555
Co3 Nb6 2.819492 1_565
Co4 Co6 2.400832 1_655
Co4 Co6 2.400832 1_555
Co4 Co5 2.400832 1_565
Co4 Co5 2.400832 1_555
Co4 Nb1 2.822369 1_555
Co4 Nb0 2.822369 1_655
Co4 Nb1 2.822373 1_665
Co4 Nb0 2.822373 1_545
Co4 Nb4 2.831204 1_555
Co4 Nb5 2.831204 1_555
Co5 Co6 2.400835 1_545
Co5 Co6 2.400835 1_655
Co5 Nb1 2.822367 1_655
Co5 Nb0 2.822367 1_545
Co5 Nb0 2.822371 1_645
Co5 Nb1 2.822371 1_555
Co5 Nb5 2.831207 1_555
Co5 Nb4 2.831207 1_545
Co6 Nb0 2.822365 1_555
Co6 Nb1 2.822365 1_555
Co6 Nb1 2.822373 1_565
Co6 Nb0 2.822373 1_545
Co6 Nb5 2.831205 1_455
Co6 Nb4 2.831205 1_555
Co7 Co9 2.400832 1_555
Co7 Co9 2.400832 1_655
Co7 Co8 2.400832 1_565
Co7 Co8 2.400832 1_555
Co7 Nb2 2.822369 1_554
Co7 Nb3 2.822369 1_655
Co7 Nb2 2.822373 1_664
Co7 Nb3 2.822373 1_545
Co7 Nb7 2.831204 1_554
Co7 Nb6 2.831204 1_555
Co8 Co9 2.400835 1_655
Co8 Co9 2.400835 1_545
Co8 Nb3 2.822367 1_545
Co8 Nb2 2.822367 1_654
Co8 Nb3 2.822371 1_645
Co8 Nb2 2.822371 1_554
Co8 Nb6 2.831207 1_555
Co8 Nb7 2.831207 1_544
Co9 Nb3 2.822365 1_555
Co9 Nb2 2.822365 1_554
Co9 Nb2 2.822373 1_564
Co9 Nb3 2.822373 1_545
Co9 Nb6 2.831205 1_455
Co9 Nb7 2.831205 1_554
Co10 Co12 2.378886 1_455
Co10 Co11 2.378889 1_565
Co10 Co11 2.422776 1_555
Co10 Co12 2.422778 1_555
Co10 Co3 2.437350 1_555
Co10 Nb5 2.821442 1_455
Co10 Nb6 2.821442 1_455
Co10 Nb6 2.821450 1_565
Co10 Nb5 2.821450 1_565
Co10 Nb3 2.823436 1_555
Co10 Nb0 2.823436 1_555
Co11 Co12 2.378893 1_445
Co11 Co12 2.422776 1_555
Co11 Co3 2.437354 1_555
Co11 Nb5 2.821441 1_555
Co11 Nb6 2.821441 1_555
Co11 Nb5 2.821445 1_455
Co11 Nb6 2.821445 1_455
Co11 Nb3 2.823441 1_545
Co11 Nb0 2.823441 1_545
Co12 Co3 2.437354 1_555
Co12 Nb5 2.821440 1_555
Co12 Nb6 2.821440 1_555
Co12 Nb5 2.821448 1_565
Co12 Nb6 2.821448 1_565
Co12 Nb3 2.823439 1_655
Co12 Nb0 2.823439 1_655
Co13 Co15 2.378886 1_655
Co13 Co14 2.378889 1_545
Co13 Co14 2.422776 1_555
Co13 Co15 2.422778 1_555
Co13 Co2 2.437350 1_555
Co13 Nb4 2.821442 1_655
Co13 Nb7 2.821442 1_655
Co13 Nb4 2.821450 1_545
Co13 Nb7 2.821450 1_545
Co13 Nb1 2.823436 1_655
Co13 Nb2 2.823436 1_655
Co14 Co15 2.378893 1_665
Co14 Co15 2.422776 1_555
Co14 Co2 2.437354 1_555
Co14 Nb7 2.821441 1_555
Co14 Nb4 2.821441 1_555
Co14 Nb4 2.821445 1_655
Co14 Nb7 2.821445 1_655
Co14 Nb1 2.823441 1_665
Co14 Nb2 2.823441 1_665
Co15 Co2 2.437354 1_555
Co15 Nb7 2.821440 1_555
Co15 Nb4 2.821440 1_555
Co15 Nb4 2.821448 1_545
Co15 Nb7 2.821448 1_545
Co15 Nb1 2.823439 1_555
Co15 Nb2 2.823439 1_555
