# generated using pymatgen
data_CaCr4O9
_symmetry_space_group_name_H-M   'P 1'
_cell_length_a   8.45708300
_cell_length_b   8.45708300
_cell_length_c   5.18640800
_cell_angle_alpha   90.00000000
_cell_angle_beta   90.00000000
_cell_angle_gamma   90.00000000
_symmetry_Int_Tables_number   1
_chemical_formula_structural   CaCr4O9
_chemical_formula_sum   'Ca2 Cr8 O18'
_cell_volume   370.94358446
_cell_formula_units_Z   2
loop_
 _symmetry_equiv_pos_site_id
 _symmetry_equiv_pos_as_xyz
  1  'x, y, z'
loop_
 _atom_site_type_symbol
 _atom_site_label
 _atom_site_symmetry_multiplicity
 _atom_site_fract_x
 _atom_site_fract_y
 _atom_site_fract_z
 _atom_site_occupancy
  Ca  Ca0  1  0.50000000  0.00000000  0.13865800  1
  Ca  Ca1  1  0.00000000  0.50000000  0.86134200  1
  Cr  Cr0  1  0.59078000  0.28821300  0.61034200  1
  Cr  Cr1  1  0.71178700  0.59078000  0.38965800  1
  Cr  Cr2  1  0.21178700  0.09078000  0.61034200  1
  Cr  Cr3  1  0.09078000  0.78821300  0.38965800  1
  Cr  Cr4  1  0.40922000  0.71178700  0.61034200  1
  Cr  Cr5  1  0.78821300  0.90922000  0.61034200  1
  Cr  Cr6  1  0.90922000  0.21178700  0.38965800  1
  Cr  Cr7  1  0.28821300  0.40922000  0.38965800  1
  O  O0  1  0.50000000  0.50000000  0.50000000  1
  O  O1  1  0.00000000  0.00000000  0.50000000  1
  O  O2  1  0.23721900  0.42860300  0.07847600  1
  O  O3  1  0.92860300  0.26278100  0.07847600  1
  O  O4  1  0.07139700  0.73721900  0.07847600  1
  O  O5  1  0.76278100  0.57139700  0.07847600  1
  O  O6  1  0.26278100  0.07139700  0.92152400  1
  O  O7  1  0.57139700  0.23721900  0.92152400  1
  O  O8  1  0.42860300  0.76278100  0.92152400  1
  O  O9  1  0.73721900  0.92860300  0.92152400  1
  O  O10  1  0.60417900  0.78886200  0.46443700  1
  O  O11  1  0.28886200  0.89582100  0.46443700  1
  O  O12  1  0.71113800  0.10417900  0.46443700  1
  O  O13  1  0.39582100  0.21113800  0.46443700  1
  O  O14  1  0.10417900  0.28886200  0.53556300  1
  O  O15  1  0.21113800  0.60417900  0.53556300  1
  O  O16  1  0.78886200  0.39582100  0.53556300  1
  O  O17  1  0.89582100  0.71113800  0.53556300  1
loop_
_geom_bond_atom_site_label_1
_geom_bond_atom_site_label_2
_geom_bond_distance
_geom_bond_site_symmetry_2
Ca0 O7 2.378561 1_554
Ca0 O6 2.378561 1_554
Ca0 O9 2.378561 1_544
Ca0 O8 2.378561 1_544
Ca0 O12 2.611414 1_555
Ca0 O11 2.611414 1_545
Ca0 O13 2.611414 1_555
Ca0 O10 2.611414 1_545
Ca1 O2 2.378561 1_556
Ca1 O4 2.378561 1_556
Ca1 O3 2.378561 1_456
Ca1 O5 2.378561 1_456
Ca1 O17 2.611414 1_455
Ca1 O15 2.611414 1_555
Ca1 O14 2.611414 1_555
Ca1 O16 2.611414 1_455
Cr0 O7 1.678566 1_555
Cr0 O13 1.927693 1_555
Cr0 O16 1.945479 1_555
Cr0 O12 2.007749 1_555
Cr0 O0 2.030999 1_555
Cr1 O5 1.678566 1_555
Cr1 O16 1.927693 1_555
Cr1 O10 1.945479 1_555
Cr1 O17 2.007749 1_555
Cr1 O0 2.030999 1_555
Cr2 O6 1.678566 1_555
Cr2 O11 1.927693 1_545
Cr2 O14 1.945479 1_555
Cr2 O13 2.007749 1_555
Cr2 O1 2.030999 1_555
Cr3 O4 1.678566 1_555
Cr3 O17 1.927693 1_455
Cr3 O11 1.945479 1_555
Cr3 O15 2.007749 1_555
Cr3 O1 2.030999 1_565
Cr4 O8 1.678566 1_555
Cr4 O10 1.927693 1_555
Cr4 O15 1.945479 1_555
Cr4 O11 2.007749 1_555
Cr4 O0 2.030999 1_555
Cr5 O9 1.678566 1_555
Cr5 O12 1.927693 1_565
Cr5 O17 1.945479 1_555
Cr5 O10 2.007749 1_555
Cr5 O1 2.030999 1_665
Cr6 O3 1.678566 1_555
Cr6 O14 1.927693 1_655
Cr6 O12 1.945479 1_555
Cr6 O16 2.007749 1_555
Cr6 O1 2.030999 1_655
Cr7 O2 1.678566 1_555
Cr7 O15 1.927693 1_555
Cr7 O13 1.945479 1_555
Cr7 O14 2.007749 1_555
Cr7 O0 2.030999 1_555
