# generated using pymatgen
data_Li5Mn(CoO4)2
_symmetry_space_group_name_H-M   'P 1'
_cell_length_a   2.91623900
_cell_length_b   5.10405700
_cell_length_c   9.76688345
_cell_angle_alpha   78.95966565
_cell_angle_beta   90.00000000
_cell_angle_gamma   90.00000000
_symmetry_Int_Tables_number   1
_chemical_formula_structural   Li5Mn(CoO4)2
_chemical_formula_sum   'Li5 Mn1 Co2 O8'
_cell_volume   142.68610138
_cell_formula_units_Z   1
loop_
 _symmetry_equiv_pos_site_id
 _symmetry_equiv_pos_as_xyz
  1  'x, y, z'
loop_
 _atom_site_type_symbol
 _atom_site_label
 _atom_site_symmetry_multiplicity
 _atom_site_fract_x
 _atom_site_fract_y
 _atom_site_fract_z
 _atom_site_occupancy
  Li  Li0  1  0.00000000  0.25052900  0.25708200  1
  Li  Li1  1  0.50000000  0.00000000  0.50000000  1
  Li  Li2  1  0.00000000  0.74947100  0.74291800  1
  Li  Li3  1  0.50000000  0.50000000  0.00000000  1
  Li  Li4  1  0.00000000  0.50000000  0.50000000  1
  Mn  Mn0  1  0.00000000  0.00000000  0.00000000  1
  Co  Co0  1  0.50000000  0.72657800  0.26619000  1
  Co  Co1  1  0.50000000  0.27342200  0.73381000  1
  O  O0  1  0.00000000  0.87252200  0.36261200  1
  O  O1  1  0.50000000  0.60528100  0.63683700  1
  O  O2  1  0.00000000  0.34401700  0.87702900  1
  O  O3  1  0.50000000  0.10523600  0.11149500  1
  O  O4  1  0.00000000  0.65598300  0.12297100  1
  O  O5  1  0.50000000  0.39471900  0.36316300  1
  O  O6  1  0.00000000  0.12747800  0.63738800  1
  O  O7  1  0.50000000  0.89476400  0.88850500  1
loop_
_geom_bond_atom_site_label_1
_geom_bond_atom_site_label_2
_geom_bond_distance
_geom_bond_site_symmetry_2
Li0 O0 2.005785 1_545
Li0 O5 2.008294 1_555
Li0 O5 2.008294 1_455
Li0 O4 2.227145 1_555
Li0 O3 2.258719 1_455
Li0 O3 2.258719 1_555
Li1 O6 2.164353 1_655
Li1 O6 2.164353 1_555
Li1 O0 2.164353 1_545
Li1 O0 2.164353 1_645
Li1 O5 2.194037 1_555
Li1 O1 2.194037 1_545
Li2 O6 2.005785 1_565
Li2 O1 2.008294 1_555
Li2 O1 2.008294 1_455
Li2 O2 2.227145 1_555
Li2 O7 2.258719 1_455
Li2 O7 2.258719 1_555
Li3 O7 2.098878 1_554
Li3 O3 2.098878 1_555
Li3 O4 2.137450 1_555
Li3 O4 2.137450 1_655
Li3 O2 2.137450 1_554
Li3 O2 2.137450 1_654
Li4 O6 2.106803 1_555
Li4 O0 2.106803 1_555
Li4 O1 2.115675 1_455
Li4 O5 2.115675 1_455
Li4 O1 2.115675 1_555
Li4 O5 2.115675 1_555
Mn0 O4 1.928192 1_545
Mn0 O2 1.928192 1_554
Mn0 O3 1.955626 1_555
Mn0 O7 1.955626 1_444
Mn0 O7 1.955626 1_544
Mn0 O3 1.955626 1_455
Co0 O5 1.775292 1_555
Co0 O0 1.958713 1_555
Co0 O0 1.958713 1_655
Co0 O4 2.098960 1_555
Co0 O4 2.098960 1_655
Co0 O3 2.213524 1_565
Co1 O1 1.775292 1_555
Co1 O6 1.958713 1_655
Co1 O6 1.958713 1_555
Co1 O2 2.098960 1_655
Co1 O2 2.098960 1_555
Co1 O7 2.213524 1_545
