# generated using pymatgen
data_Ce(GaNi)2
_symmetry_space_group_name_H-M   'P 1'
_cell_length_a   4.09885400
_cell_length_b   4.09885400
_cell_length_c   5.82094872
_cell_angle_alpha   110.61445731
_cell_angle_beta   110.61445731
_cell_angle_gamma   90.00000000
_symmetry_Int_Tables_number   1
_chemical_formula_structural   Ce(GaNi)2
_chemical_formula_sum   'Ce1 Ga2 Ni2'
_cell_volume   84.81084401
_cell_formula_units_Z   1
loop_
 _symmetry_equiv_pos_site_id
 _symmetry_equiv_pos_as_xyz
  1  'x, y, z'
loop_
 _atom_site_type_symbol
 _atom_site_label
 _atom_site_symmetry_multiplicity
 _atom_site_fract_x
 _atom_site_fract_y
 _atom_site_fract_z
 _atom_site_occupancy
  Ce  Ce0  1  0.00000000  0.00000000  0.00000000  1
  Ga  Ga0  1  0.37271600  0.37271600  0.74543200  1
  Ga  Ga1  1  0.62728400  0.62728400  0.25456800  1
  Ni  Ni0  1  0.25000000  0.75000000  0.50000000  1
  Ni  Ni1  1  0.75000000  0.25000000  0.50000000  1
loop_
_geom_bond_atom_site_label_1
_geom_bond_atom_site_label_2
_geom_bond_distance
_geom_bond_site_symmetry_2
Ce0 Ga1 3.170447 1_555
Ce0 Ga0 3.170447 1_444
Ce0 Ga0 3.170447 1_454
Ce0 Ga1 3.170447 1_545
Ce0 Ga1 3.170447 1_455
Ce0 Ga0 3.170447 1_544
Ce0 Ga1 3.170447 1_445
Ce0 Ga0 3.170447 1_554
Ce0 Ni0 3.251298 1_544
Ce0 Ni0 3.251298 1_545
Ce0 Ni1 3.251298 1_455
Ce0 Ni1 3.251298 1_454
Ce0 Ni1 3.251298 1_444
Ce0 Ni1 3.251298 1_555
Ce0 Ni0 3.251298 1_555
Ce0 Ni0 3.251298 1_444
Ga0 Ni0 2.394823 1_545
Ga0 Ni0 2.394823 1_555
Ga0 Ni1 2.394823 1_555
Ga0 Ni1 2.394823 1_455
Ga0 Ga1 2.570161 1_556
Ga1 Ni0 2.394823 1_555
Ga1 Ni1 2.394823 1_555
Ga1 Ni1 2.394823 1_565
Ga1 Ni0 2.394823 1_655
