# generated using pymatgen
data_Bi2O3
_symmetry_space_group_name_H-M   'P 1'
_cell_length_a   7.67071263
_cell_length_b   7.67071263
_cell_length_c   5.92563857
_cell_angle_alpha   90.00000000
_cell_angle_beta   90.00000000
_cell_angle_gamma   120.00000219
_symmetry_Int_Tables_number   1
_chemical_formula_structural   Bi2O3
_chemical_formula_sum   'Bi8 O12'
_cell_volume   301.95151085
_cell_formula_units_Z   4
loop_
 _symmetry_equiv_pos_site_id
 _symmetry_equiv_pos_as_xyz
  1  'x, y, z'
loop_
 _atom_site_type_symbol
 _atom_site_label
 _atom_site_symmetry_multiplicity
 _atom_site_fract_x
 _atom_site_fract_y
 _atom_site_fract_z
 _atom_site_occupancy
  Bi  Bi0  1  0.17601782  0.35203465  0.22670206  1
  Bi  Bi1  1  0.17601782  0.82398218  0.22670206  1
  Bi  Bi2  1  0.64796535  0.82398218  0.22670206  1
  Bi  Bi3  1  0.82398218  0.64796535  0.72670206  1
  Bi  Bi4  1  0.82398218  0.17601782  0.72670206  1
  Bi  Bi5  1  0.35203465  0.17601782  0.72670206  1
  Bi  Bi6  1  0.66666700  0.33333300  0.22792539  1
  Bi  Bi7  1  0.33333300  0.66666700  0.72792539  1
  O  O0  1  0.46191573  0.53808427  0.50771547  1
  O  O1  1  0.07616855  0.53808427  0.50771547  1
  O  O2  1  0.46191573  0.92383145  0.50771547  1
  O  O3  1  0.53808427  0.46191573  0.00771547  1
  O  O4  1  0.92383145  0.46191573  0.00771547  1
  O  O5  1  0.53808427  0.07616855  0.00771547  1
  O  O6  1  0.87216788  0.74433576  0.33594968  1
  O  O7  1  0.87216788  0.12783212  0.33594968  1
  O  O8  1  0.25566424  0.12783212  0.33594968  1
  O  O9  1  0.12783212  0.25566424  0.83594968  1
  O  O10  1  0.12783212  0.87216788  0.83594968  1
  O  O11  1  0.74433576  0.87216788  0.83594968  1
loop_
_geom_bond_atom_site_label_1
_geom_bond_atom_site_label_2
_geom_bond_distance
_geom_bond_site_symmetry_2
Bi0 O8 2.191054 1_555
Bi0 O7 2.191059 1_455
Bi0 O9 2.402330 1_554
Bi0 O0 2.547393 1_555
Bi0 O1 2.547398 1_555
Bi0 O3 2.786902 1_555
Bi0 O4 2.786908 1_455
Bi1 O8 2.191061 1_565
Bi1 O6 2.191061 1_455
Bi1 O10 2.402332 1_554
Bi1 O2 2.547392 1_555
Bi1 O1 2.547392 1_555
Bi1 O5 2.786903 1_565
Bi1 O4 2.786903 1_455
Bi2 O6 2.191054 1_555
Bi2 O7 2.191059 1_565
Bi2 O11 2.402330 1_554
Bi2 O0 2.547393 1_555
Bi2 O2 2.547398 1_555
Bi2 O3 2.786902 1_555
Bi2 O5 2.786908 1_565
Bi3 O11 2.191054 1_555
Bi3 O10 2.191059 1_655
Bi3 O6 2.402330 1_555
Bi3 O3 2.547393 1_556
Bi3 O4 2.547398 1_556
Bi3 O0 2.786902 1_555
Bi3 O1 2.786908 1_655
Bi4 O9 2.191061 1_655
Bi4 O11 2.191061 1_545
Bi4 O7 2.402332 1_555
Bi4 O5 2.547392 1_556
Bi4 O4 2.547392 1_556
Bi4 O2 2.786903 1_545
Bi4 O1 2.786903 1_655
Bi5 O9 2.191054 1_555
Bi5 O10 2.191059 1_545
Bi5 O8 2.402330 1_555
Bi5 O3 2.547393 1_556
Bi5 O5 2.547398 1_556
Bi5 O0 2.786902 1_555
Bi5 O2 2.786908 1_545
Bi6 O4 2.149695 1_555
Bi6 O5 2.149695 1_555
Bi6 O3 2.149700 1_555
Bi7 O1 2.149695 1_555
Bi7 O2 2.149695 1_555
Bi7 O0 2.149700 1_555
