# generated using pymatgen
data_MgMn4O8
_symmetry_space_group_name_H-M   'P 1'
_cell_length_a   7.27411340
_cell_length_b   7.27411340
_cell_length_c   9.45486508
_cell_angle_alpha   50.06660289
_cell_angle_beta   50.06660289
_cell_angle_gamma   23.63736265
_symmetry_Int_Tables_number   1
_chemical_formula_structural   MgMn4O8
_chemical_formula_sum   'Mg1 Mn4 O8'
_cell_volume   151.42991391
_cell_formula_units_Z   1
loop_
 _symmetry_equiv_pos_site_id
 _symmetry_equiv_pos_as_xyz
  1  'x, y, z'
loop_
 _atom_site_type_symbol
 _atom_site_label
 _atom_site_symmetry_multiplicity
 _atom_site_fract_x
 _atom_site_fract_y
 _atom_site_fract_z
 _atom_site_occupancy
  Mg  Mg0  1  0.66275600  0.66275600  0.80343800  1
  Mn  Mn0  1  0.36700000  0.36700000  0.43707500  1
  Mn  Mn1  1  0.85581400  0.85581400  0.79416300  1
  Mn  Mn2  1  0.16266100  0.16266100  0.15903800  1
  Mn  Mn3  1  0.64716900  0.64716900  0.50892900  1
  O  O0  1  0.14437000  0.14437000  0.38175000  1
  O  O1  1  0.54859300  0.54859300  0.24172000  1
  O  O2  1  0.46601500  0.46601500  0.71343200  1
  O  O3  1  0.85939800  0.85939800  0.58228500  1
  O  O4  1  0.83569700  0.83569700  0.33967100  1
  O  O5  1  0.21099000  0.21099000  0.90228700  1
  O  O6  1  0.16050300  0.16050300  0.65564100  1
  O  O7  1  0.78437700  0.78437700  0.04992300  1
loop_
_geom_bond_atom_site_label_1
_geom_bond_atom_site_label_2
_geom_bond_distance
_geom_bond_site_symmetry_2
Mg0 O6 2.057233 1_655
Mg0 O6 2.057233 1_565
Mg0 O5 2.099247 1_655
Mg0 O5 2.099247 1_565
Mg0 O3 2.129210 1_555
Mn0 O4 1.950615 1_455
Mn0 O4 1.950615 1_545
Mn0 O1 1.958001 1_555
Mn0 O3 1.980253 1_545
Mn0 O3 1.980253 1_455
Mn0 O6 2.224166 1_555
Mn1 O7 1.912064 1_556
Mn1 O2 1.921916 1_565
Mn1 O2 1.921916 1_655
Mn1 O3 1.970186 1_555
Mn1 O5 2.180025 1_565
Mn1 O5 2.180025 1_655
Mn2 O0 1.944868 1_555
Mn2 O1 1.950305 1_545
Mn2 O1 1.950305 1_455
Mn2 O7 1.985635 1_545
Mn2 O7 1.985635 1_455
Mn2 O5 2.043380 1_554
Mn3 O0 1.931323 1_655
Mn3 O0 1.931323 1_565
Mn3 O2 1.962391 1_555
Mn3 O4 2.033028 1_555
Mn3 O6 2.127279 1_565
Mn3 O6 2.127279 1_655
