# generated using pymatgen
data_ZnFeBO4
_symmetry_space_group_name_H-M   'P 1'
_cell_length_a   3.13535300
_cell_length_b   9.37016300
_cell_length_c   9.38903200
_cell_angle_alpha   90.00000000
_cell_angle_beta   90.00000000
_cell_angle_gamma   90.00000000
_symmetry_Int_Tables_number   1
_chemical_formula_structural   ZnFeBO4
_chemical_formula_sum   'Zn4 Fe4 B4 O16'
_cell_volume   275.83819919
_cell_formula_units_Z   4
loop_
 _symmetry_equiv_pos_site_id
 _symmetry_equiv_pos_as_xyz
  1  'x, y, z'
loop_
 _atom_site_type_symbol
 _atom_site_label
 _atom_site_symmetry_multiplicity
 _atom_site_fract_x
 _atom_site_fract_y
 _atom_site_fract_z
 _atom_site_occupancy
  Zn  Zn0  1  0.50000000  0.11603900  0.81241900  1
  Zn  Zn1  1  0.50000000  0.61603900  0.18758100  1
  Zn  Zn2  1  0.50000000  0.10053300  0.44836100  1
  Zn  Zn3  1  0.50000000  0.60053300  0.55163900  1
  Fe  Fe0  1  0.00000000  0.87540100  0.68316400  1
  Fe  Fe1  1  0.00000000  0.37540100  0.31683600  1
  Fe  Fe2  1  0.00000000  0.89716000  0.05694400  1
  Fe  Fe3  1  0.00000000  0.39716000  0.94305600  1
  B  B0  1  0.50000000  0.17012600  0.12752300  1
  B  B1  1  0.50000000  0.67012600  0.87247700  1
  B  B2  1  0.00000000  0.84278100  0.37305400  1
  B  B3  1  0.00000000  0.34278100  0.62694600  1
  O  O0  1  0.50000000  0.02267400  0.11709600  1
  O  O1  1  0.50000000  0.52267400  0.88290400  1
  O  O2  1  0.00000000  0.98741300  0.37131400  1
  O  O3  1  0.00000000  0.48741300  0.62868600  1
  O  O4  1  0.50000000  0.99335200  0.63522700  1
  O  O5  1  0.50000000  0.49335200  0.36477300  1
  O  O6  1  0.00000000  0.97283800  0.86624000  1
  O  O7  1  0.00000000  0.47283800  0.13376000  1
  O  O8  1  0.50000000  0.23803200  0.25841500  1
  O  O9  1  0.50000000  0.73803200  0.74158500  1
  O  O10  1  0.00000000  0.77020800  0.24121700  1
  O  O11  1  0.00000000  0.27020800  0.75878300  1
  O  O12  1  0.50000000  0.24833100  0.99993300  1
  O  O13  1  0.50000000  0.74833100  0.00006700  1
  O  O14  1  0.00000000  0.76511000  0.50083100  1
  O  O15  1  0.00000000  0.26511000  0.49916900  1
loop_
_geom_bond_atom_site_label_1
_geom_bond_atom_site_label_2
_geom_bond_distance
_geom_bond_site_symmetry_2
Fe0 O6 1.946332 1_555
Fe0 O4 1.970202 1_455
Fe0 O4 1.970202 1_555
Fe0 O14 1.999678 1_555
Fe0 O9 2.101258 1_455
Fe0 O9 2.101258 1_555
Fe1 O7 1.946332 1_555
Fe1 O5 1.970202 1_555
Fe1 O5 1.970202 1_455
Fe1 O15 1.999678 1_555
Fe1 O8 2.101258 1_555
Fe1 O8 2.101258 1_455
Fe2 O6 1.925832 1_554
Fe2 O0 2.039547 1_565
Fe2 O0 2.039547 1_465
Fe2 O10 2.099633 1_555
Fe2 O13 2.165078 1_455
Fe2 O13 2.165078 1_555
Fe3 O7 1.925832 1_556
Fe3 O1 2.039547 1_555
Fe3 O1 2.039547 1_455
Fe3 O11 2.099633 1_555
Fe3 O12 2.165078 1_455
Fe3 O12 2.165078 1_555
B0 O8 1.383901 1_555
B0 O0 1.385113 1_555
B0 O12 1.404301 1_554
B1 O9 1.383901 1_555
B1 O1 1.385113 1_555
B1 O13 1.404301 1_556
B2 O2 1.355324 1_555
B2 O14 1.403198 1_555
B2 O10 1.412314 1_555
B3 O3 1.355324 1_555
B3 O15 1.403198 1_555
B3 O11 1.412314 1_555
O2 Zn2 2.025935 1_465
O2 Zn2 2.025935 1_565
O3 Zn3 2.025935 1_455
O3 Zn3 2.025935 1_555
O4 Zn2 2.021599 1_565
O4 Zn0 2.022212 1_565
O5 Zn3 2.021599 1_555
O5 Zn1 2.022212 1_555
O6 Zn0 2.124485 1_565
O6 Zn0 2.124485 1_465
O7 Zn1 2.124485 1_455
O7 Zn1 2.124485 1_555
O8 Zn2 2.200112 1_555
O9 Zn3 2.200112 1_555
O10 Zn1 2.190445 1_555
O10 Zn1 2.190445 1_455
O11 Zn0 2.190445 1_455
O11 Zn0 2.190445 1_555
O12 Zn0 2.153190 1_555
O13 Zn1 2.153190 1_555
O14 Zn3 2.250175 1_555
O14 Zn3 2.250175 1_455
O15 Zn2 2.250175 1_555
O15 Zn2 2.250175 1_455
