# generated using pymatgen
data_GdSnPd
_symmetry_space_group_name_H-M   'P 1'
_cell_length_a   4.65008947
_cell_length_b   7.31311105
_cell_length_c   7.95465153
_cell_angle_alpha   90.00072363
_cell_angle_beta   90.00000000
_cell_angle_gamma   90.00000000
_symmetry_Int_Tables_number   1
_chemical_formula_structural   GdSnPd
_chemical_formula_sum   'Gd4 Sn4 Pd4'
_cell_volume   270.51081726
_cell_formula_units_Z   4
loop_
 _symmetry_equiv_pos_site_id
 _symmetry_equiv_pos_as_xyz
  1  'x, y, z'
loop_
 _atom_site_type_symbol
 _atom_site_label
 _atom_site_symmetry_multiplicity
 _atom_site_fract_x
 _atom_site_fract_y
 _atom_site_fract_z
 _atom_site_occupancy
  Gd  Gd0  1  0.25000000  0.01062243  0.29551364  1
  Gd  Gd1  1  0.25000000  0.51062209  0.20449301  1
  Gd  Gd2  1  0.75000000  0.98937073  0.70450787  1
  Gd  Gd3  1  0.75000000  0.48937175  0.79549638  1
  Sn  Sn0  1  0.25000000  0.19150660  0.91262541  1
  Sn  Sn1  1  0.25000000  0.69150865  0.58737604  1
  Sn  Sn2  1  0.75000000  0.80848069  0.08738100  1
  Sn  Sn3  1  0.75000000  0.30847794  0.41261957  1
  Pd  Pd0  1  0.25000000  0.29706466  0.58429689  1
  Pd  Pd1  1  0.25000000  0.79706153  0.91569393  1
  Pd  Pd2  1  0.75000000  0.70295556  0.41570716  1
  Pd  Pd3  1  0.75000000  0.20295836  0.08428910  1
loop_
_geom_bond_atom_site_label_1
_geom_bond_atom_site_label_2
_geom_bond_distance
_geom_bond_site_symmetry_2
Gd0 Pd0 3.108856 1_555
Gd0 Pd3 3.194914 1_555
Gd0 Pd3 3.194914 1_455
Gd0 Sn2 3.214371 1_445
Gd0 Sn2 3.214371 1_545
Gd0 Sn1 3.291881 1_545
Gd0 Sn3 3.319385 1_455
Gd0 Sn3 3.319385 1_555
Gd0 Sn0 3.320620 1_554
Gd0 Pd2 3.373799 1_545
Gd0 Pd2 3.373799 1_445
Gd0 Pd1 3.401108 1_544
Gd1 Pd1 3.108975 1_554
Gd1 Pd2 3.194844 1_555
Gd1 Pd2 3.194844 1_455
Gd1 Sn3 3.214374 1_555
Gd1 Sn3 3.214374 1_455
Gd1 Sn0 3.291878 1_554
Gd1 Sn2 3.319429 1_455
Gd1 Sn2 3.319429 1_555
Gd1 Sn1 3.320558 1_555
Gd1 Pd3 3.373791 1_455
Gd1 Pd3 3.373791 1_555
Gd1 Pd0 3.401020 1_555
Gd2 Pd2 3.108826 1_555
Gd2 Pd1 3.194667 1_555
Gd2 Pd1 3.194667 1_655
Gd2 Sn0 3.214290 1_665
Gd2 Sn0 3.214290 1_565
Gd2 Sn3 3.291993 1_565
Gd2 Sn1 3.319474 1_555
Gd2 Sn1 3.319474 1_655
Gd2 Sn2 3.320527 1_556
Gd2 Pd0 3.373970 1_665
Gd2 Pd0 3.373970 1_565
Gd2 Pd3 3.400926 1_566
Gd3 Pd3 3.108809 1_556
Gd3 Pd0 3.194698 1_555
Gd3 Pd0 3.194698 1_655
Gd3 Sn1 3.214324 1_655
Gd3 Sn1 3.214324 1_555
Gd3 Sn2 3.291939 1_556
Gd3 Sn0 3.319498 1_655
Gd3 Sn0 3.319498 1_555
Gd3 Sn3 3.320534 1_555
Gd3 Pd1 3.373904 1_555
Gd3 Pd1 3.373904 1_655
Gd3 Pd2 3.401005 1_555
Pd0 Sn3 2.697732 1_555
Pd0 Sn3 2.697732 1_455
Pd0 Sn0 2.723445 1_555
Pd0 Sn1 2.884716 1_555
Pd1 Sn2 2.697771 1_556
Pd1 Sn2 2.697771 1_456
Pd1 Sn1 2.723334 1_555
Pd1 Sn0 2.884724 1_565
Pd2 Sn1 2.697705 1_555
Pd2 Sn1 2.697705 1_655
Pd2 Sn2 2.723358 1_555
Pd2 Sn3 2.884963 1_555
Pd3 Sn0 2.697685 1_654
Pd3 Sn0 2.697685 1_554
Pd3 Sn3 2.723361 1_555
Pd3 Sn2 2.884964 1_545
