# generated using pymatgen
data_NaMg14Mo
_symmetry_space_group_name_H-M   'P 1'
_cell_length_a   6.34870031
_cell_length_b   6.52597342
_cell_length_c   10.02124354
_cell_angle_alpha   90.00000000
_cell_angle_beta   90.00000000
_cell_angle_gamma   120.92806223
_symmetry_Int_Tables_number   1
_chemical_formula_structural   NaMg14Mo
_chemical_formula_sum   'Na1 Mg14 Mo1'
_cell_volume   356.15948148
_cell_formula_units_Z   1
loop_
 _symmetry_equiv_pos_site_id
 _symmetry_equiv_pos_as_xyz
  1  'x, y, z'
loop_
 _atom_site_type_symbol
 _atom_site_label
 _atom_site_symmetry_multiplicity
 _atom_site_fract_x
 _atom_site_fract_y
 _atom_site_fract_z
 _atom_site_occupancy
  Na  Na0  1  0.16751349  0.33375625  0.12500000  1
  Mg  Mg0  1  0.17143854  0.33571877  0.62500000  1
  Mg  Mg1  1  0.16807132  0.83403516  0.62500000  1
  Mg  Mg2  1  0.66740681  0.33435447  0.12500000  1
  Mg  Mg3  1  0.66643459  0.33644645  0.62500000  1
  Mg  Mg4  1  0.66740681  0.83305133  0.12500000  1
  Mg  Mg5  1  0.66643459  0.82998715  0.62500000  1
  Mg  Mg6  1  0.32568671  0.15109337  0.36693756  1
  Mg  Mg7  1  0.32568671  0.15109337  0.88306244  1
  Mg  Mg8  1  0.32568671  0.67459434  0.36693756  1
  Mg  Mg9  1  0.32568671  0.67459434  0.88306244  1
  Mg  Mg10  1  0.82678547  0.16339323  0.37950786  1
  Mg  Mg11  1  0.82678547  0.16339323  0.87049214  1
  Mg  Mg12  1  0.84400761  0.67200431  0.36387782  1
  Mg  Mg13  1  0.84400761  0.67200431  0.88612218  1
  Mo  Mo0  1  0.18096085  0.84047993  0.12500000  1
loop_
_geom_bond_atom_site_label_1
_geom_bond_atom_site_label_2
_geom_bond_distance
_geom_bond_site_symmetry_2
Mg0 Mg11 3.094403 1_455
Mg0 Mg10 3.094403 1_455
Mg0 Mg5 3.140143 1_555
Mg0 Mg3 3.140144 1_555
Mg0 Mg5 3.208562 1_445
Mg0 Mg3 3.208562 1_455
Mg0 Mg6 3.211145 1_555
Mg0 Mg7 3.211145 1_555
Mg0 Mg8 3.211152 1_555
Mg0 Mg9 3.211152 1_555
Mg0 Mg1 3.263038 1_545
Mg0 Mg1 3.263038 1_555
Mg1 Mg9 3.137223 1_555
Mg1 Mg8 3.137223 1_555
Mg1 Mg6 3.137229 1_565
Mg1 Mg7 3.137229 1_565
Mg1 Mg12 3.156292 1_455
Mg1 Mg13 3.156292 1_455
Mg1 Mg3 3.171245 1_455
Mg1 Mg5 3.171245 1_455
Mg1 Mg3 3.177617 1_565
Mg1 Mg5 3.177617 1_555
Mg2 Mg7 3.057478 1_554
Mg2 Mg6 3.057478 1_555
Mg2 Mo0 3.113493 1_545
Mg2 Na0 3.171668 1_555
Mg2 Na0 3.177036 1_655
Mg2 Mo0 3.235751 1_655
Mg2 Mg4 3.254482 1_555
Mg2 Mg4 3.271491 1_545
Mg3 Mg7 3.184521 1_555
Mg3 Mg6 3.184521 1_555
Mg3 Mg5 3.220833 1_555
Mg3 Mg5 3.305140 1_545
Mg4 Mg9 3.057478 1_554
Mg4 Mg8 3.057478 1_555
Mg4 Mo0 3.113494 1_555
Mg4 Na0 3.171668 1_555
Mg4 Na0 3.177035 1_665
Mg4 Mo0 3.235752 1_655
Mg5 Mg8 3.184521 1_555
Mg5 Mg9 3.184521 1_555
Mg6 Mo0 2.986126 1_545
Mg6 Na0 3.088389 1_555
Mg7 Mo0 2.986126 1_546
Mg7 Na0 3.088389 1_556
Mg8 Mo0 2.986120 1_555
Mg8 Na0 3.088397 1_555
Mg9 Mo0 2.986120 1_556
Mg9 Na0 3.088397 1_556
Mg10 Mg3 3.089634 1_555
Mg10 Mg5 3.089641 1_545
Mg10 Mg8 3.143351 1_545
Mg10 Mg6 3.143351 1_555
Mg10 Mg2 3.151825 1_555
Mg10 Mg4 3.151832 1_545
Mg10 Na0 3.154084 1_655
Mg10 Mg8 3.211839 1_655
Mg10 Mg6 3.211839 1_655
Mg10 Mg12 3.268090 1_545
Mg10 Mg12 3.268090 1_555
Mg11 Mg3 3.089634 1_555
Mg11 Mg5 3.089641 1_545
Mg11 Mg9 3.143351 1_545
Mg11 Mg7 3.143351 1_555
Mg11 Mg2 3.151825 1_556
Mg11 Mg4 3.151832 1_546
Mg11 Na0 3.154084 1_656
Mg11 Mg9 3.211839 1_655
Mg11 Mg7 3.211839 1_655
Mg11 Mg13 3.268090 1_545
Mg11 Mg13 3.268090 1_555
Mg12 Mo0 3.016277 1_655
Mg12 Mg4 3.050151 1_555
Mg12 Mg2 3.050158 1_555
Mg12 Mg5 3.221197 1_555
Mg12 Mg3 3.221204 1_555
Mg13 Mo0 3.016277 1_656
Mg13 Mg4 3.050151 1_556
Mg13 Mg2 3.050158 1_556
Mg13 Mg5 3.221197 1_555
Mg13 Mg3 3.221204 1_555
Mo0 Na0 3.263808 1_555
Mo0 Na0 3.263808 1_565
