# generated using pymatgen
data_Zr3Al3Ni3H2
_symmetry_space_group_name_H-M   'P 1'
_cell_length_a   6.75698058
_cell_length_b   6.75698058
_cell_length_c   3.71337400
_cell_angle_alpha   90.00000000
_cell_angle_beta   90.00000000
_cell_angle_gamma   120.00000566
_symmetry_Int_Tables_number   1
_chemical_formula_structural   Zr3Al3Ni3H2
_chemical_formula_sum   'Zr3 Al3 Ni3 H2'
_cell_volume   146.82656561
_cell_formula_units_Z   1
loop_
 _symmetry_equiv_pos_site_id
 _symmetry_equiv_pos_as_xyz
  1  'x, y, z'
loop_
 _atom_site_type_symbol
 _atom_site_label
 _atom_site_symmetry_multiplicity
 _atom_site_fract_x
 _atom_site_fract_y
 _atom_site_fract_z
 _atom_site_occupancy
  Zr  Zr0  1  0.40607200  0.40607200  0.50000000  1
  Zr  Zr1  1  0.59392800  0.00000000  0.50000000  1
  Zr  Zr2  1  0.00000000  0.59392800  0.50000000  1
  Al  Al0  1  0.75298800  0.75298800  0.00000000  1
  Al  Al1  1  0.24701200  0.00000000  0.00000000  1
  Al  Al2  1  0.00000000  0.24701200  0.00000000  1
  Ni  Ni0  1  0.00000000  0.00000000  0.50000000  1
  Ni  Ni1  1  0.66666700  0.33333300  0.00000000  1
  Ni  Ni2  1  0.33333300  0.66666700  0.00000000  1
  H  H0  1  0.33333300  0.66666700  0.50000000  1
  H  H1  1  0.66666700  0.33333300  0.50000000  1
loop_
_geom_bond_atom_site_label_1
_geom_bond_atom_site_label_2
_geom_bond_distance
_geom_bond_site_symmetry_2
Al0 Ni0 2.496604 1_665
Al0 Ni0 2.496604 1_664
Al0 Ni1 2.593630 1_555
Al0 Ni2 2.593630 1_555
Al1 Ni0 2.496604 1_555
Al1 Ni0 2.496604 1_554
Al1 Ni2 2.593623 1_545
Al1 Ni1 2.593627 1_555
Al2 Ni0 2.496604 1_555
Al2 Ni0 2.496604 1_554
Al2 Ni1 2.593623 1_455
Al2 Ni2 2.593627 1_555
Ni0 Zr0 2.743820 1_555
Ni0 Zr1 2.743821 1_455
Ni0 Zr2 2.743821 1_545
H0 Ni2 1.856687 1_555
H0 Ni2 1.856687 1_556
H0 Zr2 2.051225 1_555
H0 Zr1 2.051227 1_565
H0 Zr0 2.051232 1_555
H1 Ni1 1.856687 1_556
H1 Ni1 1.856687 1_555
H1 Zr1 2.051225 1_555
H1 Zr2 2.051227 1_655
H1 Zr0 2.051232 1_555
