# generated using pymatgen
data_Si2SN2
_symmetry_space_group_name_H-M   'P 1'
_cell_length_a   6.82716107
_cell_length_b   7.04201308
_cell_length_c   5.34639964
_cell_angle_alpha   90.00000510
_cell_angle_beta   114.61380733
_cell_angle_gamma   121.04660575
_symmetry_Int_Tables_number   1
_chemical_formula_structural   Si2SN2
_chemical_formula_sum   'Si4 S2 N4'
_cell_volume   192.44368379
_cell_formula_units_Z   2
loop_
 _symmetry_equiv_pos_site_id
 _symmetry_equiv_pos_as_xyz
  1  'x, y, z'
loop_
 _atom_site_type_symbol
 _atom_site_label
 _atom_site_symmetry_multiplicity
 _atom_site_fract_x
 _atom_site_fract_y
 _atom_site_fract_z
 _atom_site_occupancy
  Si  Si0  1  0.04785800  0.18546900  0.93847900  1
  Si  Si1  1  0.04785800  0.86238900  0.93847900  1
  Si  Si2  1  0.57927600  0.95040300  0.00394600  1
  Si  Si3  1  0.57927600  0.62887200  0.00394600  1
  S  S0  1  0.68546600  0.34273200  0.71161300  1
  S  S1  1  0.86383100  0.93191600  0.41789600  1
  N  N0  1  0.32799200  0.92114700  0.00620900  1
  N  N1  1  0.32799200  0.40684500  0.00620900  1
  N  N2  1  0.78952600  0.19159800  0.92061100  1
  N  N3  1  0.78952600  0.59792800  0.92061100  1
loop_
_geom_bond_atom_site_label_1
_geom_bond_atom_site_label_2
_geom_bond_distance
_geom_bond_site_symmetry_2
S1 Si2 2.316991 1_555
S1 Si3 2.316998 1_555
S1 Si0 2.699314 1_665
S1 Si1 2.699317 1_655
N0 Si1 1.602161 1_554
N0 Si2 1.624331 1_555
N1 Si0 1.602161 1_554
N1 Si3 1.624328 1_555
N2 S0 1.733384 1_555
N2 Si0 1.749201 1_655
N2 Si2 1.778138 1_546
N3 S0 1.733395 1_555
N3 Si1 1.749201 1_655
N3 Si3 1.778134 1_556
