# generated using pymatgen
data_K2Ca2Mg(S2O9)2
_symmetry_space_group_name_H-M   'P 1'
_cell_length_a   6.86596100
_cell_length_b   7.01958308
_cell_length_c   9.02542703
_cell_angle_alpha   99.73339066
_cell_angle_beta   104.63198541
_cell_angle_gamma   112.18985522
_symmetry_Int_Tables_number   1
_chemical_formula_structural   K2Ca2Mg(S2O9)2
_chemical_formula_sum   'K2 Ca2 Mg1 S4 O18'
_cell_volume   372.34506249
_cell_formula_units_Z   1
loop_
 _symmetry_equiv_pos_site_id
 _symmetry_equiv_pos_as_xyz
  1  'x, y, z'
loop_
 _atom_site_type_symbol
 _atom_site_label
 _atom_site_symmetry_multiplicity
 _atom_site_fract_x
 _atom_site_fract_y
 _atom_site_fract_z
 _atom_site_occupancy
  K  K0  1  0.21112000  0.48718500  0.42668600  1
  K  K1  1  0.78888000  0.51281500  0.57331400  1
  Ca  Ca0  1  0.63142700  0.86457200  0.25190300  1
  Ca  Ca1  1  0.36857300  0.13542800  0.74809700  1
  Mg  Mg0  1  0.00000000  0.00000000  0.00000000  1
  S  S0  1  0.42491600  0.68551700  0.86095000  1
  S  S1  1  0.57508400  0.31448300  0.13905000  1
  S  S2  1  0.81103800  0.04470200  0.63898700  1
  S  S3  1  0.18896200  0.95529800  0.36101300  1
  O  O0  1  0.43040700  0.49851400  0.76155500  1
  O  O1  1  0.56959300  0.50148600  0.23844500  1
  O  O2  1  0.30406000  0.77501700  0.75443200  1
  O  O3  1  0.69594000  0.22498300  0.24556800  1
  O  O4  1  0.65920600  0.85346700  0.95894000  1
  O  O5  1  0.34079400  0.14653300  0.04106000  1
  O  O6  1  0.31395200  0.62667100  0.98042600  1
  O  O7  1  0.68604800  0.37332900  0.01957400  1
  O  O8  1  0.92285700  0.17455500  0.54521500  1
  O  O9  1  0.07714300  0.82544500  0.45478500  1
  O  O10  1  0.64685200  0.82579700  0.52874400  1
  O  O11  1  0.35314800  0.17420300  0.47125600  1
  O  O12  1  0.98828700  0.02083500  0.76599000  1
  O  O13  1  0.01171300  0.97916500  0.23401000  1
  O  O14  1  0.70414000  0.15225600  0.72172600  1
  O  O15  1  0.29586000  0.84774400  0.27827400  1
  O  O16  1  0.00405400  0.30333200  0.09625100  1
  O  O17  1  0.99594600  0.69666800  0.90374900  1
loop_
_geom_bond_atom_site_label_1
_geom_bond_atom_site_label_2
_geom_bond_distance
_geom_bond_site_symmetry_2
K0 O11 2.767401 1_555
K0 O16 2.784164 1_555
K0 O10 2.818626 1_555
K0 O9 2.848259 1_555
K0 O8 2.908663 1_455
K0 O0 2.989485 1_555
K0 O15 2.994377 1_555
K0 O2 3.048134 1_555
K0 O3 3.116946 1_455
K0 O13 3.260043 1_545
K0 O1 3.307262 1_555
K1 O10 2.767401 1_555
K1 O17 2.784164 1_555
K1 O11 2.818626 1_555
K1 O8 2.848259 1_555
K1 O9 2.908663 1_655
K1 O1 2.989485 1_555
K1 O14 2.994377 1_555
K1 O3 3.048134 1_555
K1 O2 3.116946 1_655
K1 O12 3.260043 1_565
K1 O0 3.307262 1_555
Ca0 O15 2.336653 1_555
Ca0 O1 2.396428 1_555
Ca0 O3 2.411489 1_565
Ca0 O13 2.482154 1_655
Ca0 O10 2.538972 1_555
Ca0 O6 2.590794 1_554
Ca0 O4 2.688890 1_554
Ca0 O8 2.798910 1_565
Ca1 O14 2.336653 1_555
Ca1 O0 2.396428 1_555
Ca1 O2 2.411489 1_545
Ca1 O12 2.482154 1_455
Ca1 O11 2.538972 1_555
Ca1 O7 2.590794 1_556
Ca1 O5 2.688890 1_556
Ca1 O9 2.798910 1_545
Mg0 O5 2.070126 1_555
Mg0 O4 2.070126 1_444
Mg0 O13 2.125109 1_545
Mg0 O12 2.125109 1_454
Mg0 O16 2.146339 1_555
Mg0 O17 2.146339 1_444
O0 S0 1.478381 1_555
O1 S1 1.478381 1_555
O2 S0 1.484069 1_555
O3 S1 1.484069 1_555
O4 S0 1.501973 1_555
O5 S1 1.501973 1_555
O6 S0 1.497269 1_555
O7 S1 1.497269 1_555
O8 S2 1.482257 1_555
O9 S3 1.482257 1_555
O10 S2 1.493290 1_565
O11 S3 1.493290 1_545
O12 S2 1.528790 1_555
O13 S3 1.528790 1_555
O14 S2 1.473489 1_555
O15 S3 1.473489 1_555
