# generated using pymatgen
data_Pt3Cl
_symmetry_space_group_name_H-M   'P 1'
_cell_length_a   4.52606323
_cell_length_b   4.52606323
_cell_length_c   4.52606323
_cell_angle_alpha   60.00000000
_cell_angle_beta   60.00000000
_cell_angle_gamma   60.00000000
_symmetry_Int_Tables_number   1
_chemical_formula_structural   Pt3Cl
_chemical_formula_sum   'Pt3 Cl1'
_cell_volume   65.56119363
_cell_formula_units_Z   1
loop_
 _symmetry_equiv_pos_site_id
 _symmetry_equiv_pos_as_xyz
  1  'x, y, z'
loop_
 _atom_site_type_symbol
 _atom_site_label
 _atom_site_symmetry_multiplicity
 _atom_site_fract_x
 _atom_site_fract_y
 _atom_site_fract_z
 _atom_site_occupancy
  Pt  Pt0  1  0.75000000  0.75000000  0.75000000  1
  Pt  Pt1  1  0.25000000  0.25000000  0.25000000  1
  Pt  Pt2  1  0.50000000  0.50000000  0.50000000  1
  Cl  Cl0  1  0.00000000  0.00000000  0.00000000  1
loop_
_geom_bond_atom_site_label_1
_geom_bond_atom_site_label_2
_geom_bond_distance
_geom_bond_site_symmetry_2
Pt0 Pt2 2.771636 1_555
Pt0 Pt2 2.771636 1_556
Pt0 Pt2 2.771636 1_565
Pt0 Pt2 2.771636 1_655
Pt1 Pt2 2.771636 1_554
Pt1 Pt2 2.771636 1_555
Pt1 Pt2 2.771636 1_455
Pt1 Pt2 2.771636 1_545
Cl0 Pt0 2.771636 1_445
Cl0 Pt0 2.771636 1_444
Cl0 Pt1 2.771636 1_555
Cl0 Pt1 2.771636 1_554
Cl0 Pt1 2.771636 1_545
Cl0 Pt0 2.771636 1_454
Cl0 Pt1 2.771636 1_455
Cl0 Pt0 2.771636 1_544
