# generated using pymatgen
data_CsAlSiO4
_symmetry_space_group_name_H-M   'P 1'
_cell_length_a   5.49050900
_cell_length_b   9.12985200
_cell_length_c   9.54457300
_cell_angle_alpha   90.00000000
_cell_angle_beta   90.00000000
_cell_angle_gamma   90.00000000
_symmetry_Int_Tables_number   1
_chemical_formula_structural   CsAlSiO4
_chemical_formula_sum   'Cs4 Al4 Si4 O16'
_cell_volume   478.44591306
_cell_formula_units_Z   4
loop_
 _symmetry_equiv_pos_site_id
 _symmetry_equiv_pos_as_xyz
  1  'x, y, z'
loop_
 _atom_site_type_symbol
 _atom_site_label
 _atom_site_symmetry_multiplicity
 _atom_site_fract_x
 _atom_site_fract_y
 _atom_site_fract_z
 _atom_site_occupancy
  Cs  Cs0  1  0.49429400  0.99863300  0.30393300  1
  Cs  Cs1  1  0.99429400  0.00136700  0.69606700  1
  Cs  Cs2  1  0.99429400  0.50136700  0.80393300  1
  Cs  Cs3  1  0.49429400  0.49863300  0.19606700  1
  Al  Al0  1  0.99908900  0.82241900  0.09232400  1
  Al  Al1  1  0.49908900  0.17758100  0.90767600  1
  Al  Al2  1  0.49908900  0.67758100  0.59232400  1
  Al  Al3  1  0.99908900  0.32241900  0.40767600  1
  Si  Si0  1  0.99966400  0.69068700  0.42108900  1
  Si  Si1  1  0.49966400  0.30931300  0.57891100  1
  Si  Si2  1  0.49966400  0.80931300  0.92108900  1
  Si  Si3  1  0.99966400  0.19068700  0.07891100  1
  O  O0  1  0.99895500  0.51322200  0.40571500  1
  O  O1  1  0.49895500  0.48677800  0.59428500  1
  O  O2  1  0.49895500  0.98677800  0.90571500  1
  O  O3  1  0.99895500  0.01322200  0.09428500  1
  O  O4  1  0.74705100  0.74757100  0.49552900  1
  O  O5  1  0.24705100  0.25242900  0.50447100  1
  O  O6  1  0.24705100  0.75242900  0.99552900  1
  O  O7  1  0.74705100  0.24757100  0.00447100  1
  O  O8  1  0.22878300  0.74718400  0.51804500  1
  O  O9  1  0.72878300  0.25281600  0.48195500  1
  O  O10  1  0.72878300  0.75281600  0.01804500  1
  O  O11  1  0.22878300  0.24718400  0.98195500  1
  O  O12  1  0.02516400  0.76461800  0.26645700  1
  O  O13  1  0.52516400  0.23538200  0.73354300  1
  O  O14  1  0.52516400  0.73538200  0.76645700  1
  O  O15  1  0.02516400  0.26461800  0.23354300  1
loop_
_geom_bond_atom_site_label_1
_geom_bond_atom_site_label_2
_geom_bond_distance
_geom_bond_site_symmetry_2
Cs0 O9 3.151204 1_565
Cs0 O4 3.244077 1_555
Cs0 O5 3.297789 1_565
Cs0 O12 3.365594 1_555
Cs0 O3 3.379099 1_465
Cs0 O8 3.401718 1_555
Cs0 O3 3.420428 1_565
Cs1 O8 3.151204 1_645
Cs1 O5 3.244077 1_655
Cs1 O4 3.297789 1_545
Cs1 O13 3.365594 1_555
Cs1 O2 3.379099 1_545
Cs1 O9 3.401718 1_555
Cs1 O2 3.420428 1_645
Cs2 O11 3.151204 1_655
Cs2 O6 3.244077 1_655
Cs2 O7 3.297789 1_556
Cs2 O14 3.365594 1_555
Cs2 O1 3.379099 1_555
Cs2 O10 3.401718 1_556
Cs2 O1 3.420428 1_655
Cs3 O10 3.151204 1_555
Cs3 O7 3.244077 1_555
Cs3 O6 3.297789 1_554
Cs3 O15 3.365594 1_555
Cs3 O0 3.379099 1_455
Cs3 O11 3.401718 1_554
Cs3 O0 3.420428 1_555
Al0 O3 1.742104 1_565
Al0 O12 1.749659 1_655
Al0 O10 1.763249 1_555
Al0 O6 1.765039 1_654
Al1 O2 1.742104 1_545
Al1 O13 1.749659 1_555
Al1 O11 1.763249 1_555
Al1 O7 1.765039 1_556
Al2 O1 1.742104 1_555
Al2 O14 1.749659 1_555
Al2 O8 1.763249 1_555
Al2 O4 1.765039 1_555
Al3 O0 1.742104 1_555
Al3 O15 1.749659 1_655
Al3 O9 1.763249 1_555
Al3 O5 1.765039 1_655
O0 Si0 1.626865 1_555
O1 Si1 1.626865 1_555
O2 Si2 1.626865 1_555
O3 Si3 1.626865 1_555
O4 Si0 1.642626 1_555
O5 Si1 1.642626 1_555
O6 Si2 1.642626 1_555
O7 Si3 1.642626 1_555
O8 Si0 1.644672 1_455
O9 Si1 1.644672 1_555
O10 Si2 1.644672 1_554
O11 Si3 1.644672 1_456
O12 Si0 1.628947 1_455
O13 Si1 1.628947 1_555
O14 Si2 1.628947 1_555
O15 Si3 1.628947 1_455
