# generated using pymatgen
data_Yb2(Ni2B)5
_symmetry_space_group_name_H-M   'P 1'
_cell_length_a   8.89324800
_cell_length_b   9.42295700
_cell_length_c   17.38290300
_cell_angle_alpha   90.00000000
_cell_angle_beta   90.00000000
_cell_angle_gamma   90.00000000
_symmetry_Int_Tables_number   1
_chemical_formula_structural   Yb2(Ni2B)5
_chemical_formula_sum   'Yb16 Ni80 B40'
_cell_volume   1456.69932634
_cell_formula_units_Z   8
loop_
 _symmetry_equiv_pos_site_id
 _symmetry_equiv_pos_as_xyz
  1  'x, y, z'
loop_
 _atom_site_type_symbol
 _atom_site_label
 _atom_site_symmetry_multiplicity
 _atom_site_fract_x
 _atom_site_fract_y
 _atom_site_fract_z
 _atom_site_occupancy
  Yb  Yb0  1  0.12372800  0.85853000  0.27818900  1
  Yb  Yb1  1  0.37627200  0.14147000  0.77818900  1
  Yb  Yb2  1  0.62372800  0.64147000  0.72181100  1
  Yb  Yb3  1  0.87627200  0.35853000  0.22181100  1
  Yb  Yb4  1  0.87627200  0.14147000  0.72181100  1
  Yb  Yb5  1  0.62372800  0.85853000  0.22181100  1
  Yb  Yb6  1  0.37627200  0.35853000  0.27818900  1
  Yb  Yb7  1  0.12372800  0.64147000  0.77818900  1
  Yb  Yb8  1  0.21975000  0.88665200  0.48001200  1
  Yb  Yb9  1  0.28025000  0.11334800  0.98001200  1
  Yb  Yb10  1  0.71975000  0.61334800  0.51998800  1
  Yb  Yb11  1  0.78025000  0.38665200  0.01998800  1
  Yb  Yb12  1  0.78025000  0.11334800  0.51998800  1
  Yb  Yb13  1  0.71975000  0.88665200  0.01998800  1
  Yb  Yb14  1  0.28025000  0.38665200  0.48001200  1
  Yb  Yb15  1  0.21975000  0.61334800  0.98001200  1
  Ni  Ni0  1  0.12040400  0.96233300  0.72637700  1
  Ni  Ni1  1  0.37959600  0.03766700  0.22637700  1
  Ni  Ni2  1  0.62040400  0.53766700  0.27362300  1
  Ni  Ni3  1  0.87959600  0.46233300  0.77362300  1
  Ni  Ni4  1  0.87959600  0.03766700  0.27362300  1
  Ni  Ni5  1  0.62040400  0.96233300  0.77362300  1
  Ni  Ni6  1  0.37959600  0.46233300  0.72637700  1
  Ni  Ni7  1  0.12040400  0.53766700  0.22637700  1
  Ni  Ni8  1  0.12700200  0.17625000  0.23678100  1
  Ni  Ni9  1  0.37299800  0.82375000  0.73678100  1
  Ni  Ni10  1  0.62700200  0.32375000  0.76321900  1
  Ni  Ni11  1  0.87299800  0.67625000  0.26321900  1
  Ni  Ni12  1  0.87299800  0.82375000  0.76321900  1
  Ni  Ni13  1  0.62700200  0.17625000  0.26321900  1
  Ni  Ni14  1  0.37299800  0.67625000  0.23678100  1
  Ni  Ni15  1  0.12700200  0.32375000  0.73678100  1
  Ni  Ni16  1  0.07858400  0.88530400  0.01561200  1
  Ni  Ni17  1  0.42141600  0.11469600  0.51561200  1
  Ni  Ni18  1  0.57858400  0.61469600  0.98438800  1
  Ni  Ni19  1  0.92141600  0.38530400  0.48438800  1
  Ni  Ni20  1  0.92141600  0.11469600  0.98438800  1
  Ni  Ni21  1  0.57858400  0.88530400  0.48438800  1
  Ni  Ni22  1  0.42141600  0.38530400  0.01561200  1
  Ni  Ni23  1  0.07858400  0.61469600  0.51561200  1
  Ni  Ni24  1  0.16257400  0.78116800  0.62761600  1
  Ni  Ni25  1  0.33742600  0.21883200  0.12761600  1
  Ni  Ni26  1  0.66257400  0.71883200  0.37238400  1
  Ni  Ni27  1  0.83742600  0.28116800  0.87238400  1
  Ni  Ni28  1  0.83742600  0.21883200  0.37238400  1
  Ni  Ni29  1  0.66257400  0.78116800  0.87238400  1
  Ni  Ni30  1  0.33742600  0.28116800  0.62761600  1
  Ni  Ni31  1  0.16257400  0.71883200  0.12761600  1
  Ni  Ni32  1  0.17809400  0.99393400  0.13110000  1
  Ni  Ni33  1  0.32190600  0.00606600  0.63110000  1
  Ni  Ni34  1  0.67809400  0.50606600  0.86890000  1
  Ni  Ni35  1  0.82190600  0.49393400  0.36890000  1
  Ni  Ni36  1  0.82190600  0.00606600  0.86890000  1
  Ni  Ni37  1  0.67809400  0.99393400  0.36890000  1
  Ni  Ni38  1  0.32190600  0.49393400  0.13110000  1
  Ni  Ni39  1  0.17809400  0.50606600  0.63110000  1
  Ni  Ni40  1  0.23121500  0.89363300  0.86523800  1
  Ni  Ni41  1  0.26878500  0.10636700  0.36523800  1
  Ni  Ni42  1  0.73121500  0.60636700  0.13476200  1
  Ni  Ni43  1  0.76878500  0.39363300  0.63476200  1
  Ni  Ni44  1  0.76878500  0.10636700  0.13476200  1
  Ni  Ni45  1  0.73121500  0.89363300  0.63476200  1
  Ni  Ni46  1  0.26878500  0.39363300  0.86523800  1
  Ni  Ni47  1  0.23121500  0.60636700  0.36523800  1
  Ni  Ni48  1  0.08904100  0.14633800  0.84928200  1
  Ni  Ni49  1  0.41095900  0.85366200  0.34928200  1
  Ni  Ni50  1  0.58904100  0.35366200  0.15071800  1
  Ni  Ni51  1  0.91095900  0.64633800  0.65071800  1
  Ni  Ni52  1  0.91095900  0.85366200  0.15071800  1
  Ni  Ni53  1  0.58904100  0.14633800  0.65071800  1
  Ni  Ni54  1  0.41095900  0.64633800  0.84928200  1
  Ni  Ni55  1  0.08904100  0.35366200  0.34928200  1
  Ni  Ni56  1  0.04164000  0.02163700  0.59560200  1
  Ni  Ni57  1  0.45836000  0.97836300  0.09560200  1
  Ni  Ni58  1  0.54164000  0.47836300  0.40439800  1
  Ni  Ni59  1  0.95836000  0.52163700  0.90439800  1
  Ni  Ni60  1  0.95836000  0.97836300  0.40439800  1
  Ni  Ni61  1  0.54164000  0.02163700  0.90439800  1
  Ni  Ni62  1  0.45836000  0.52163700  0.59560200  1
  Ni  Ni63  1  0.04164000  0.47836300  0.09560200  1
  Ni  Ni64  1  0.04398300  0.21861100  0.09858800  1
  Ni  Ni65  1  0.45601700  0.78138900  0.59858800  1
  Ni  Ni66  1  0.54398300  0.28138900  0.90141200  1
  Ni  Ni67  1  0.95601700  0.71861100  0.40141200  1
  Ni  Ni68  1  0.95601700  0.78138900  0.90141200  1
  Ni  Ni69  1  0.54398300  0.21861100  0.40141200  1
  Ni  Ni70  1  0.45601700  0.71861100  0.09858800  1
  Ni  Ni71  1  0.04398300  0.28138900  0.59858800  1
  Ni  Ni72  1  0.08082500  0.16865900  0.46888700  1
  Ni  Ni73  1  0.41917500  0.83134100  0.96888700  1
  Ni  Ni74  1  0.58082500  0.33134100  0.53111300  1
  Ni  Ni75  1  0.91917500  0.66865900  0.03111300  1
  Ni  Ni76  1  0.91917500  0.83134100  0.53111300  1
  Ni  Ni77  1  0.58082500  0.16865900  0.03111300  1
  Ni  Ni78  1  0.41917500  0.66865900  0.46888700  1
  Ni  Ni79  1  0.08082500  0.33134100  0.96888700  1
  B  B0  1  0.97669100  0.06378100  0.17661400  1
  B  B1  1  0.52330900  0.93621900  0.67661400  1
  B  B2  1  0.47669100  0.43621900  0.82338600  1
  B  B3  1  0.02330900  0.56378100  0.32338600  1
  B  B4  1  0.02330900  0.93621900  0.82338600  1
  B  B5  1  0.47669100  0.06378100  0.32338600  1
  B  B6  1  0.52330900  0.56378100  0.17661400  1
  B  B7  1  0.97669100  0.43621900  0.67661400  1
  B  B8  1  0.16571500  0.14849700  0.66712900  1
  B  B9  1  0.33428500  0.85150300  0.16712900  1
  B  B10  1  0.66571500  0.35150300  0.33287100  1
  B  B11  1  0.83428500  0.64849700  0.83287100  1
  B  B12  1  0.83428500  0.85150300  0.33287100  1
  B  B13  1  0.66571500  0.14849700  0.83287100  1
  B  B14  1  0.33428500  0.64849700  0.66712900  1
  B  B15  1  0.16571500  0.35150300  0.16712900  1
  B  B16  1  0.04680600  0.14245000  0.34485600  1
  B  B17  1  0.45319400  0.85755000  0.84485600  1
  B  B18  1  0.54680600  0.35755000  0.65514400  1
  B  B19  1  0.95319400  0.64245000  0.15514400  1
  B  B20  1  0.95319400  0.85755000  0.65514400  1
  B  B21  1  0.54680600  0.14245000  0.15514400  1
  B  B22  1  0.45319400  0.64245000  0.34485600  1
  B  B23  1  0.04680600  0.35755000  0.84485600  1
  B  B24  1  0.21254100  0.14741900  0.56119100  1
  B  B25  1  0.28745900  0.85258100  0.06119100  1
  B  B26  1  0.71254100  0.35258100  0.43880900  1
  B  B27  1  0.78745900  0.64741900  0.93880900  1
  B  B28  1  0.78745900  0.85258100  0.43880900  1
  B  B29  1  0.71254100  0.14741900  0.93880900  1
  B  B30  1  0.28745900  0.64741900  0.56119100  1
  B  B31  1  0.21254100  0.35258100  0.06119100  1
  B  B32  1  0.03817400  0.98163700  0.91835500  1
  B  B33  1  0.46182600  0.01836300  0.41835500  1
  B  B34  1  0.53817400  0.51836300  0.08164500  1
  B  B35  1  0.96182600  0.48163700  0.58164500  1
  B  B36  1  0.96182600  0.01836300  0.08164500  1
  B  B37  1  0.53817400  0.98163700  0.58164500  1
  B  B38  1  0.46182600  0.48163700  0.91835500  1
  B  B39  1  0.03817400  0.51836300  0.41835500  1
loop_
_geom_bond_atom_site_label_1
_geom_bond_atom_site_label_2
_geom_bond_distance
_geom_bond_site_symmetry_2
Ni0 Yb4 2.751261 1_465
Ni0 Yb1 2.972943 1_565
Ni0 Yb7 3.154909 1_555
Ni1 Yb5 2.751261 1_545
Ni1 Yb0 2.972943 1_545
Ni1 Yb6 3.154909 1_555
Ni2 Yb6 2.751261 1_555
Ni2 Yb3 2.972943 1_555
Ni2 Yb5 3.154909 1_555
Ni3 Yb7 2.751261 1_655
Ni3 Yb2 2.972943 1_555
Ni3 Yb4 3.154909 1_555
Ni4 Yb0 2.751261 1_645
Ni4 Yb5 2.972943 1_545
Ni4 Yb3 3.154909 1_555
Ni5 Yb1 2.751261 1_565
Ni5 Yb4 2.972943 1_565
Ni5 Yb2 3.154909 1_555
Ni6 Yb2 2.751261 1_555
Ni6 Yb7 2.972943 1_555
Ni6 Yb1 3.154909 1_555
Ni7 Yb3 2.751261 1_455
Ni7 Yb6 2.972943 1_555
Ni7 Yb0 3.154909 1_555
Ni8 Yb3 2.826650 1_455
Ni8 Yb6 2.895271 1_555
Ni8 Yb0 3.079311 1_545
Ni9 Yb2 2.826650 1_555
Ni9 Yb7 2.895271 1_555
Ni9 Yb1 3.079311 1_565
Ni10 Yb1 2.826650 1_555
Ni10 Yb4 2.895271 1_555
Ni10 Yb2 3.079311 1_555
Ni11 Yb0 2.826650 1_655
Ni11 Yb5 2.895271 1_555
Ni11 Yb3 3.079311 1_555
Ni12 Yb7 2.826650 1_655
Ni12 Yb2 2.895271 1_555
Ni12 Yb4 3.079311 1_565
Ni13 Yb6 2.826650 1_555
Ni13 Yb3 2.895271 1_555
Ni13 Yb5 3.079311 1_545
Ni14 Yb5 2.826650 1_555
Ni14 Yb0 2.895271 1_555
Ni14 Yb6 3.079311 1_555
Ni15 Yb4 2.826650 1_455
Ni15 Yb1 2.895271 1_555
Ni15 Yb7 3.079311 1_555
Ni16 Yb9 2.866535 1_564
Ni16 Yb15 2.919951 1_554
Ni16 Yb13 3.192131 1_455
Ni17 Yb8 2.866535 1_545
Ni17 Yb14 2.919951 1_555
Ni17 Yb12 3.192131 1_555
Ni18 Yb11 2.866535 1_556
Ni18 Yb13 2.919951 1_556
Ni18 Yb15 3.192131 1_555
Ni19 Yb10 2.866535 1_555
Ni19 Yb12 2.919951 1_555
Ni19 Yb14 3.192131 1_655
Ni20 Yb13 2.866535 1_546
Ni20 Yb11 2.919951 1_556
Ni20 Yb9 3.192131 1_655
Ni21 Yb12 2.866535 1_565
Ni21 Yb10 2.919951 1_555
Ni21 Yb8 3.192131 1_555
Ni22 Yb15 2.866535 1_554
Ni22 Yb9 2.919951 1_554
Ni22 Yb11 3.192131 1_555
Ni23 Yb14 2.866535 1_555
Ni23 Yb8 2.919951 1_555
Ni23 Yb10 3.192131 1_455
Ni24 Yb8 2.798176 1_555
Ni24 Yb7 2.950074 1_555
Ni25 Yb9 2.798176 1_554
Ni25 Yb6 2.950074 1_555
Ni26 Yb10 2.798176 1_555
Ni26 Yb5 2.950074 1_555
Ni27 Yb11 2.798176 1_556
Ni27 Yb4 2.950074 1_555
Ni28 Yb12 2.798176 1_555
Ni28 Yb3 2.950074 1_555
Ni29 Yb13 2.798176 1_556
Ni29 Yb2 2.950074 1_555
Ni30 Yb14 2.798176 1_555
Ni30 Yb1 2.950074 1_555
Ni31 Yb15 2.798176 1_554
Ni31 Yb0 2.950074 1_555
Ni32 Yb0 2.898120 1_555
Ni32 Yb9 2.998203 1_564
Ni33 Yb1 2.898120 1_555
Ni33 Yb8 2.998203 1_545
Ni34 Yb2 2.898120 1_555
Ni34 Yb11 2.998203 1_556
Ni35 Yb3 2.898120 1_555
Ni35 Yb10 2.998203 1_555
Ni36 Yb4 2.898120 1_555
Ni36 Yb13 2.998203 1_546
Ni37 Yb5 2.898120 1_555
Ni37 Yb12 2.998203 1_565
Ni38 Yb6 2.898120 1_555
Ni38 Yb15 2.998203 1_554
Ni39 Yb7 2.898120 1_555
Ni39 Yb14 2.998203 1_555
Ni40 Yb9 2.908096 1_565
Ni40 Yb7 2.974791 1_555
Ni40 Yb1 3.067203 1_565
Ni40 Yb15 3.311544 1_555
Ni41 Yb8 2.908096 1_545
Ni41 Yb6 2.974791 1_555
Ni41 Yb0 3.067203 1_545
Ni41 Yb14 3.311544 1_555
Ni42 Yb11 2.908096 1_555
Ni42 Yb5 2.974791 1_555
Ni42 Yb3 3.067203 1_555
Ni42 Yb13 3.311544 1_555
Ni43 Yb10 2.908096 1_555
Ni43 Yb4 2.974791 1_555
Ni43 Yb2 3.067203 1_555
Ni43 Yb12 3.311544 1_555
Ni44 Yb13 2.908096 1_545
Ni44 Yb3 2.974791 1_555
Ni44 Yb5 3.067203 1_545
Ni44 Yb11 3.311544 1_555
Ni45 Yb12 2.908096 1_565
Ni45 Yb2 2.974791 1_555
Ni45 Yb4 3.067203 1_565
Ni45 Yb10 3.311544 1_555
Ni46 Yb15 2.908096 1_555
Ni46 Yb1 2.974791 1_555
Ni46 Yb7 3.067203 1_555
Ni46 Yb9 3.311544 1_555
Ni47 Yb14 2.908096 1_555
Ni47 Yb0 2.974791 1_555
Ni47 Yb6 3.067203 1_555
Ni47 Yb8 3.311544 1_555
Ni48 Yb1 2.838020 1_555
Ni48 Yb9 2.855230 1_555
Ni48 Yb4 2.914171 1_455
Ni49 Yb0 2.838020 1_555
Ni49 Yb8 2.855230 1_555
Ni49 Yb5 2.914171 1_555
Ni50 Yb3 2.838020 1_555
Ni50 Yb11 2.855230 1_555
Ni50 Yb6 2.914171 1_555
Ni51 Yb2 2.838020 1_555
Ni51 Yb10 2.855230 1_555
Ni51 Yb7 2.914171 1_655
Ni52 Yb5 2.838020 1_555
Ni52 Yb13 2.855230 1_555
Ni52 Yb0 2.914171 1_655
Ni53 Yb4 2.838020 1_555
Ni53 Yb12 2.855230 1_555
Ni53 Yb1 2.914171 1_555
Ni54 Yb7 2.838020 1_555
Ni54 Yb15 2.855230 1_555
Ni54 Yb2 2.914171 1_555
Ni55 Yb6 2.838020 1_555
Ni55 Yb14 2.855230 1_555
Ni55 Yb3 2.914171 1_455
Ni56 Yb12 2.806820 1_455
Ni56 Yb8 2.857290 1_545
Ni56 Yb4 2.872454 1_455
Ni57 Yb13 2.806820 1_555
Ni57 Yb9 2.857290 1_564
Ni57 Yb5 2.872454 1_555
Ni58 Yb14 2.806820 1_555
Ni58 Yb10 2.857290 1_555
Ni58 Yb6 2.872454 1_555
Ni59 Yb15 2.806820 1_655
Ni59 Yb11 2.857290 1_556
Ni59 Yb7 2.872454 1_655
Ni60 Yb8 2.806820 1_655
Ni60 Yb12 2.857290 1_565
Ni60 Yb0 2.872454 1_655
Ni61 Yb9 2.806820 1_555
Ni61 Yb13 2.857290 1_546
Ni61 Yb1 2.872454 1_555
Ni62 Yb10 2.806820 1_555
Ni62 Yb14 2.857290 1_555
Ni62 Yb2 2.872454 1_555
Ni63 Yb11 2.806820 1_455
Ni63 Yb15 2.857290 1_554
Ni63 Yb3 2.872454 1_455
Ni64 Yb3 2.924196 1_455
Ni64 Yb9 3.106015 1_554
Ni64 Yb11 3.142477 1_455
Ni65 Yb2 2.924196 1_555
Ni65 Yb8 3.106015 1_555
Ni65 Yb10 3.142477 1_555
Ni66 Yb1 2.924196 1_555
Ni66 Yb11 3.106015 1_556
Ni66 Yb9 3.142477 1_555
Ni67 Yb0 2.924196 1_655
Ni67 Yb10 3.106015 1_555
Ni67 Yb8 3.142477 1_655
Ni68 Yb7 2.924196 1_655
Ni68 Yb13 3.106015 1_556
Ni68 Yb15 3.142477 1_655
Ni69 Yb6 2.924196 1_555
Ni69 Yb12 3.106015 1_555
Ni69 Yb14 3.142477 1_555
Ni70 Yb5 2.924196 1_555
Ni70 Yb15 3.106015 1_554
Ni70 Yb13 3.142477 1_555
Ni71 Yb4 2.924196 1_455
Ni71 Yb14 3.106015 1_555
Ni71 Yb12 3.142477 1_455
Ni72 Yb14 2.720719 1_555
Ni72 Yb12 2.864627 1_455
Ni72 Yb8 2.936886 1_545
Ni73 Yb15 2.720719 1_555
Ni73 Yb13 2.864627 1_556
Ni73 Yb9 2.936886 1_565
Ni74 Yb12 2.720719 1_555
Ni74 Yb14 2.864627 1_555
Ni74 Yb10 2.936886 1_555
Ni75 Yb13 2.720719 1_555
Ni75 Yb15 2.864627 1_654
Ni75 Yb11 2.936886 1_555
Ni76 Yb10 2.720719 1_555
Ni76 Yb8 2.864627 1_655
Ni76 Yb12 2.936886 1_565
Ni77 Yb11 2.720719 1_555
Ni77 Yb9 2.864627 1_554
Ni77 Yb13 2.936886 1_545
Ni78 Yb8 2.720719 1_555
Ni78 Yb10 2.864627 1_555
Ni78 Yb14 2.936886 1_555
Ni79 Yb9 2.720719 1_555
Ni79 Yb11 2.864627 1_456
Ni79 Yb15 2.936886 1_555
B0 B36 1.710526 1_555
B0 Ni4 1.910436 1_555
B0 Ni8 2.000981 1_655
B0 Ni44 2.027055 1_555
B0 Ni32 2.065735 1_645
B0 Ni64 2.079973 1_655
B0 Ni52 2.112943 1_545
B0 Yb0 2.927137 1_645
B0 Yb3 3.021388 1_555
B1 B37 1.710526 1_555
B1 Ni5 1.910436 1_555
B1 Ni9 2.000981 1_555
B1 Ni45 2.027055 1_555
B1 Ni33 2.065735 1_565
B1 Ni65 2.079973 1_555
B1 Ni53 2.112943 1_565
B1 Yb1 2.927137 1_565
B1 Yb2 3.021388 1_555
B2 B38 1.710526 1_555
B2 Ni6 1.910436 1_555
B2 Ni10 2.000981 1_555
B2 Ni46 2.027055 1_555
B2 Ni34 2.065735 1_555
B2 Ni66 2.079973 1_555
B2 Ni54 2.112943 1_555
B2 Yb2 2.927137 1_555
B2 Yb1 3.021388 1_555
B3 B39 1.710526 1_555
B3 Ni7 1.910436 1_555
B3 Ni11 2.000981 1_455
B3 Ni47 2.027055 1_555
B3 Ni35 2.065735 1_455
B3 Ni67 2.079973 1_455
B3 Ni55 2.112943 1_555
B3 Yb3 2.927137 1_455
B3 Yb0 3.021388 1_555
B4 Ni0 1.910436 1_555
B4 Ni12 2.000981 1_455
B4 Ni40 2.027055 1_555
B4 Ni36 2.065735 1_465
B4 Ni68 2.079973 1_455
B4 Ni48 2.112943 1_565
B4 Yb4 2.927137 1_465
B4 Yb7 3.021388 1_555
B5 Ni1 1.910436 1_555
B5 Ni13 2.000981 1_555
B5 Ni41 2.027055 1_555
B5 Ni37 2.065735 1_545
B5 Ni69 2.079973 1_555
B5 Ni49 2.112943 1_545
B5 Yb5 2.927137 1_545
B5 Yb6 3.021388 1_555
B6 Ni2 1.910436 1_555
B6 Ni14 2.000981 1_555
B6 Ni42 2.027055 1_555
B6 Ni38 2.065735 1_555
B6 Ni70 2.079973 1_555
B6 Ni50 2.112943 1_555
B6 Yb6 2.927137 1_555
B6 Yb5 3.021388 1_555
B7 Ni3 1.910436 1_555
B7 Ni15 2.000981 1_655
B7 Ni43 2.027055 1_555
B7 Ni39 2.065735 1_655
B7 Ni71 2.079973 1_655
B7 Ni51 2.112943 1_555
B7 Yb7 2.927137 1_655
B7 Yb4 3.021388 1_555
B8 Ni33 2.030511 1_555
B8 Ni71 2.039518 1_555
B8 Ni56 2.047545 1_555
B8 Ni0 2.073728 1_545
B8 Ni15 2.076435 1_555
B8 Ni30 2.089637 1_555
B8 Yb1 2.690312 1_555
B8 Yb4 2.744782 1_455
B9 Ni32 2.030511 1_555
B9 Ni70 2.039518 1_555
B9 Ni57 2.047545 1_555
B9 Ni1 2.073728 1_565
B9 Ni14 2.076435 1_555
B9 Ni31 2.089637 1_555
B9 Yb0 2.690312 1_555
B9 Yb5 2.744782 1_555
B10 B26 1.888036 1_555
B10 Ni35 2.030511 1_555
B10 Ni69 2.039518 1_555
B10 Ni58 2.047545 1_555
B10 Ni2 2.073728 1_555
B10 Ni13 2.076435 1_555
B10 Ni28 2.089637 1_555
B10 Yb3 2.690312 1_555
B10 Yb6 2.744782 1_555
B11 B27 1.888036 1_555
B11 Ni34 2.030511 1_555
B11 Ni68 2.039518 1_555
B11 Ni59 2.047545 1_555
B11 Ni3 2.073728 1_555
B11 Ni12 2.076435 1_555
B11 Ni29 2.089637 1_555
B11 Yb2 2.690312 1_555
B11 Yb7 2.744782 1_655
B12 B28 1.888036 1_555
B12 Ni37 2.030511 1_555
B12 Ni67 2.039518 1_555
B12 Ni60 2.047545 1_555
B12 Ni4 2.073728 1_565
B12 Ni11 2.076435 1_555
B12 Ni26 2.089637 1_555
B12 Yb5 2.690312 1_555
B12 Yb0 2.744782 1_655
B13 B29 1.888036 1_555
B13 Ni36 2.030511 1_555
B13 Ni66 2.039518 1_555
B13 Ni61 2.047545 1_555
B13 Ni5 2.073728 1_545
B13 Ni10 2.076435 1_555
B13 Ni27 2.089637 1_555
B13 Yb4 2.690312 1_555
B13 Yb1 2.744782 1_555
B14 B30 1.888036 1_555
B14 Ni39 2.030511 1_555
B14 Ni65 2.039518 1_555
B14 Ni62 2.047545 1_555
B14 Ni6 2.073728 1_555
B14 Ni9 2.076435 1_555
B14 Ni24 2.089637 1_555
B14 Yb7 2.690312 1_555
B14 Yb2 2.744782 1_555
B15 B31 1.888036 1_555
B15 Ni38 2.030511 1_555
B15 Ni64 2.039518 1_555
B15 Ni63 2.047545 1_555
B15 Ni7 2.073728 1_555
B15 Ni8 2.076435 1_555
B15 Ni25 2.089637 1_555
B15 Yb6 2.690312 1_555
B15 Yb3 2.744782 1_455
B16 Ni60 2.020058 1_445
B16 Ni55 2.026835 1_555
B16 Ni41 2.034271 1_555
B16 Ni8 2.034564 1_555
B16 Ni28 2.052878 1_455
B16 Ni4 2.172420 1_455
B16 Ni72 2.191105 1_555
B16 Yb0 2.994750 1_545
B17 Ni61 2.020058 1_565
B17 Ni54 2.026835 1_555
B17 Ni40 2.034271 1_555
B17 Ni9 2.034564 1_555
B17 Ni29 2.052878 1_555
B17 Ni5 2.172420 1_555
B17 Ni73 2.191105 1_555
B17 Yb1 2.994750 1_565
B18 Ni62 2.020058 1_555
B18 Ni53 2.026835 1_555
B18 Ni43 2.034271 1_555
B18 Ni10 2.034564 1_555
B18 Ni30 2.052878 1_555
B18 Ni6 2.172420 1_555
B18 Ni74 2.191105 1_555
B18 Yb2 2.994750 1_555
B19 Ni63 2.020058 1_655
B19 Ni52 2.026835 1_555
B19 Ni42 2.034271 1_555
B19 Ni11 2.034564 1_555
B19 Ni31 2.052878 1_655
B19 Ni7 2.172420 1_655
B19 Ni75 2.191105 1_555
B19 Yb3 2.994750 1_555
B20 Ni56 2.020058 1_665
B20 Ni51 2.026835 1_555
B20 Ni45 2.034271 1_555
B20 Ni12 2.034564 1_555
B20 Ni24 2.052878 1_655
B20 Ni0 2.172420 1_655
B20 Ni76 2.191105 1_555
B20 Yb4 2.994750 1_565
B21 Ni57 2.020058 1_545
B21 Ni50 2.026835 1_555
B21 Ni44 2.034271 1_555
B21 Ni13 2.034564 1_555
B21 Ni25 2.052878 1_555
B21 Ni1 2.172420 1_555
B21 Ni77 2.191105 1_555
B21 Yb5 2.994750 1_545
B22 Ni58 2.020058 1_555
B22 Ni49 2.026835 1_555
B22 Ni47 2.034271 1_555
B22 Ni14 2.034564 1_555
B22 Ni26 2.052878 1_555
B22 Ni2 2.172420 1_555
B22 Ni78 2.191105 1_555
B22 Yb6 2.994750 1_555
B23 Ni59 2.020058 1_455
B23 Ni48 2.026835 1_555
B23 Ni46 2.034271 1_555
B23 Ni15 2.034564 1_555
B23 Ni27 2.052878 1_455
B23 Ni3 2.172420 1_455
B23 Ni79 2.191105 1_555
B23 Yb7 2.994750 1_555
B24 B8 1.888036 1_555
B24 Ni72 1.996660 1_555
B24 Ni56 2.018063 1_555
B24 Ni30 2.038413 1_555
B24 Ni17 2.042891 1_555
B24 Ni33 2.048624 1_555
B24 Ni71 2.064779 1_555
B24 Yb14 2.726840 1_555
B24 Yb8 2.834290 1_545
B25 B9 1.888036 1_555
B25 Ni73 1.996660 1_554
B25 Ni57 2.018063 1_555
B25 Ni31 2.038413 1_555
B25 Ni16 2.042891 1_555
B25 Ni32 2.048624 1_555
B25 Ni70 2.064779 1_555
B25 Yb15 2.726840 1_554
B25 Yb9 2.834290 1_564
B26 Ni74 1.996660 1_555
B26 Ni58 2.018063 1_555
B26 Ni28 2.038413 1_555
B26 Ni19 2.042891 1_555
B26 Ni35 2.048624 1_555
B26 Ni69 2.064779 1_555
B26 Yb12 2.726840 1_555
B26 Yb10 2.834290 1_555
B27 Ni75 1.996660 1_556
B27 Ni59 2.018063 1_555
B27 Ni29 2.038413 1_555
B27 Ni18 2.042891 1_555
B27 Ni34 2.048624 1_555
B27 Ni68 2.064779 1_555
B27 Yb13 2.726840 1_556
B27 Yb11 2.834290 1_556
B28 Ni76 1.996660 1_555
B28 Ni60 2.018063 1_555
B28 Ni26 2.038413 1_555
B28 Ni21 2.042891 1_555
B28 Ni37 2.048624 1_555
B28 Ni67 2.064779 1_555
B28 Yb10 2.726840 1_555
B28 Yb12 2.834290 1_565
B29 Ni77 1.996660 1_556
B29 Ni61 2.018063 1_555
B29 Ni27 2.038413 1_555
B29 Ni20 2.042891 1_555
B29 Ni36 2.048624 1_555
B29 Ni66 2.064779 1_555
B29 Yb11 2.726840 1_556
B29 Yb13 2.834290 1_546
B30 Ni78 1.996660 1_555
B30 Ni62 2.018063 1_555
B30 Ni24 2.038413 1_555
B30 Ni23 2.042891 1_555
B30 Ni39 2.048624 1_555
B30 Ni65 2.064779 1_555
B30 Yb8 2.726840 1_555
B30 Yb14 2.834290 1_555
B31 Ni79 1.996660 1_554
B31 Ni63 2.018063 1_555
B31 Ni25 2.038413 1_555
B31 Ni22 2.042891 1_555
B31 Ni38 2.048624 1_555
B31 Ni64 2.064779 1_555
B31 Yb9 2.726840 1_554
B31 Yb15 2.834290 1_554
B32 B4 1.710526 1_555
B32 Ni16 1.952256 1_556
B32 Ni20 1.991927 1_465
B32 Ni48 2.013680 1_565
B32 Ni68 2.044768 1_455
B32 Ni40 2.118366 1_555
B32 Ni36 2.119246 1_465
B32 Yb9 2.706249 1_565
B33 B5 1.710526 1_555
B33 Ni17 1.952256 1_555
B33 Ni21 1.991927 1_545
B33 Ni49 2.013680 1_545
B33 Ni69 2.044768 1_555
B33 Ni41 2.118366 1_555
B33 Ni37 2.119246 1_545
B33 Yb8 2.706249 1_545
B34 B6 1.710526 1_555
B34 Ni18 1.952256 1_554
B34 Ni22 1.991927 1_555
B34 Ni50 2.013680 1_555
B34 Ni70 2.044768 1_555
B34 Ni42 2.118366 1_555
B34 Ni38 2.119246 1_555
B34 Yb11 2.706249 1_555
B35 B7 1.710526 1_555
B35 Ni19 1.952256 1_555
B35 Ni23 1.991927 1_655
B35 Ni51 2.013680 1_555
B35 Ni71 2.044768 1_655
B35 Ni43 2.118366 1_555
B35 Ni39 2.119246 1_655
B35 Yb10 2.706249 1_555
B36 Ni20 1.952256 1_554
B36 Ni16 1.991927 1_645
B36 Ni52 2.013680 1_545
B36 Ni64 2.044768 1_655
B36 Ni44 2.118366 1_555
B36 Ni32 2.119246 1_645
B36 Yb13 2.706249 1_545
B37 Ni21 1.952256 1_555
B37 Ni17 1.991927 1_565
B37 Ni53 2.013680 1_565
B37 Ni65 2.044768 1_555
B37 Ni45 2.118366 1_555
B37 Ni33 2.119246 1_565
B37 Yb12 2.706249 1_565
B38 Ni22 1.952256 1_556
B38 Ni18 1.991927 1_555
B38 Ni54 2.013680 1_555
B38 Ni66 2.044768 1_555
B38 Ni46 2.118366 1_555
B38 Ni34 2.119246 1_555
B38 Yb15 2.706249 1_555
B39 Ni23 1.952256 1_555
B39 Ni19 1.991927 1_455
B39 Ni55 2.013680 1_555
B39 Ni67 2.044768 1_455
B39 Ni47 2.118366 1_555
B39 Ni35 2.119246 1_455
B39 Yb14 2.706249 1_555
