# generated using pymatgen
data_K2Cr2AsO10
_symmetry_space_group_name_H-M   'P 1'
_cell_length_a   7.93017251
_cell_length_b   7.93017251
_cell_length_c   14.89709300
_cell_angle_alpha   90.00000000
_cell_angle_beta   90.00000000
_cell_angle_gamma   120.00000427
_symmetry_Int_Tables_number   1
_chemical_formula_structural   K2Cr2AsO10
_chemical_formula_sum   'K6 Cr6 As3 O30'
_cell_volume   811.32977052
_cell_formula_units_Z   3
loop_
 _symmetry_equiv_pos_site_id
 _symmetry_equiv_pos_as_xyz
  1  'x, y, z'
loop_
 _atom_site_type_symbol
 _atom_site_label
 _atom_site_symmetry_multiplicity
 _atom_site_fract_x
 _atom_site_fract_y
 _atom_site_fract_z
 _atom_site_occupancy
  K  K0  1  0.55068500  0.00622400  0.49570600  1
  K  K1  1  0.99377600  0.54446100  0.82904000  1
  K  K2  1  0.45553900  0.44931500  0.16237300  1
  K  K3  1  0.60870700  0.99804100  0.00280600  1
  K  K4  1  0.00195900  0.61066500  0.33613900  1
  K  K5  1  0.38933500  0.39129300  0.66947300  1
  Cr  Cr0  1  0.00634900  0.58266200  0.08856400  1
  Cr  Cr1  1  0.41733800  0.42368700  0.42189700  1
  Cr  Cr2  1  0.57631300  0.99365100  0.75523100  1
  Cr  Cr3  1  0.99329300  0.58149000  0.58042000  1
  Cr  Cr4  1  0.41851000  0.41180300  0.91375300  1
  Cr  Cr5  1  0.58819700  0.00670700  0.24708700  1
  As  As0  1  0.10605700  0.97992000  0.98482700  1
  As  As1  1  0.02008000  0.12613700  0.31816100  1
  As  As2  1  0.87386300  0.89394200  0.65149400  1
  O  O0  1  0.17026900  0.81580400  0.03133300  1
  O  O1  1  0.18419600  0.35446400  0.36466600  1
  O  O2  1  0.64553600  0.82973100  0.69800000  1
  O  O3  1  0.14511400  0.52733300  0.14708800  1
  O  O4  1  0.47266700  0.61778100  0.48042200  1
  O  O5  1  0.38221900  0.85488600  0.81375500  1
  O  O6  1  0.88362800  0.41848700  0.01272200  1
  O  O7  1  0.58151300  0.46514100  0.34605500  1
  O  O8  1  0.53485900  0.11637200  0.67938800  1
  O  O9  1  0.85941800  0.60880000  0.15527800  1
  O  O10  1  0.39120000  0.25061700  0.48861200  1
  O  O11  1  0.74938300  0.14058200  0.82194500  1
  O  O12  1  0.84316500  0.65897600  0.64513900  1
  O  O13  1  0.34102400  0.18418900  0.97847200  1
  O  O14  1  0.81581100  0.15683500  0.31180600  1
  O  O15  1  0.60330800  0.83808600  0.19265400  1
  O  O16  1  0.16191400  0.76522200  0.52598700  1
  O  O17  1  0.23477800  0.39669200  0.85932100  1
  O  O18  1  0.58573800  0.43886600  0.84259800  1
  O  O19  1  0.56113400  0.14687200  0.17593100  1
  O  O20  1  0.85312800  0.41426200  0.50926400  1
  O  O21  1  0.40897400  0.91082900  0.31849000  1
  O  O22  1  0.08917100  0.49814500  0.65182300  1
  O  O23  1  0.50185500  0.59102600  0.98515600  1
  O  O24  1  0.99130900  0.89314300  0.88504700  1
  O  O25  1  0.10685700  0.09816600  0.21838000  1
  O  O26  1  0.90183400  0.00869100  0.55171400  1
  O  O27  1  0.06644300  0.04872700  0.71582300  1
  O  O28  1  0.95127300  0.01771600  0.04915600  1
  O  O29  1  0.98228400  0.93355700  0.38248900  1
loop_
_geom_bond_atom_site_label_1
_geom_bond_atom_site_label_2
_geom_bond_distance
_geom_bond_site_symmetry_2
K0 O16 2.732932 1_545
K0 O10 2.796081 1_555
K0 O21 2.820402 1_545
K0 O4 2.831567 1_545
K0 O8 2.894107 1_555
K0 O26 2.897663 1_555
K0 O20 2.915967 1_555
K0 O14 3.292586 1_555
K1 O17 2.732932 1_655
K1 O11 2.796087 1_555
K1 O22 2.820416 1_655
K1 O5 2.831568 1_655
K1 O6 2.894107 1_556
K1 O24 2.897659 1_555
K1 O18 2.915967 1_555
K1 O12 3.292598 1_555
K2 O15 2.732932 1_555
K2 O9 2.796088 1_555
K2 O23 2.820416 1_554
K2 O3 2.831568 1_555
K2 O7 2.894107 1_555
K2 O25 2.897659 1_555
K2 O19 2.915967 1_555
K2 O13 3.292598 1_554
K3 O28 2.730788 1_565
K3 O23 2.910357 1_554
K3 O11 2.918992 1_564
K3 O6 2.936456 1_565
K3 O19 2.938051 1_565
K3 O0 3.055025 1_555
K3 O15 3.091143 1_555
K3 O13 3.154410 1_564
K3 O5 3.226038 1_554
K4 O29 2.730795 1_455
K4 O21 2.910358 1_555
K4 O9 2.918992 1_455
K4 O7 2.936457 1_455
K4 O20 2.938048 1_455
K4 O1 3.055025 1_555
K4 O16 3.091144 1_555
K4 O14 3.154401 1_455
K4 O3 3.226035 1_555
K5 O27 2.730791 1_555
K5 O22 2.910365 1_555
K5 O10 2.918992 1_555
K5 O8 2.936449 1_555
K5 O18 2.938047 1_555
K5 O2 3.055025 1_555
K5 O17 3.091146 1_555
K5 O12 3.154404 1_555
K5 O4 3.226038 1_555
Cr0 O9 1.621689 1_455
Cr0 O3 1.626776 1_555
Cr0 O6 1.628378 1_455
Cr0 O0 1.852451 1_555
Cr1 O10 1.621704 1_555
Cr1 O4 1.626784 1_555
Cr1 O7 1.628378 1_555
Cr1 O1 1.852450 1_555
Cr2 O11 1.621692 1_565
Cr2 O5 1.626776 1_555
Cr2 O8 1.628389 1_565
Cr2 O2 1.852457 1_555
Cr3 O16 1.618714 1_655
Cr3 O20 1.625962 1_555
Cr3 O22 1.627552 1_655
Cr3 O12 1.859050 1_555
Cr4 O17 1.618706 1_555
Cr4 O18 1.625952 1_555
Cr4 O23 1.627552 1_555
Cr4 O13 1.859050 1_555
Cr5 O15 1.618714 1_545
Cr5 O19 1.625962 1_555
Cr5 O21 1.627552 1_545
Cr5 O14 1.859050 1_555
As0 O28 1.697875 1_466
As0 O24 1.698495 1_455
As0 O13 1.756875 1_565
As0 O0 1.759494 1_556
As1 O29 1.697866 1_445
As1 O25 1.698508 1_555
As1 O14 1.756875 1_455
As1 O1 1.759482 1_555
As2 O27 1.697877 1_665
As2 O26 1.698499 1_565
As2 O12 1.756867 1_555
As2 O2 1.759488 1_555
