# generated using pymatgen
data_MgBi2
_symmetry_space_group_name_H-M   'P 1'
_cell_length_a   6.65453238
_cell_length_b   6.65453238
_cell_length_c   8.40332989
_cell_angle_alpha   71.72447819
_cell_angle_beta   71.72447819
_cell_angle_gamma   29.56233019
_symmetry_Int_Tables_number   1
_chemical_formula_structural   MgBi2
_chemical_formula_sum   'Mg2 Bi4'
_cell_volume   173.67064541
_cell_formula_units_Z   2
loop_
 _symmetry_equiv_pos_site_id
 _symmetry_equiv_pos_as_xyz
  1  'x, y, z'
loop_
 _atom_site_type_symbol
 _atom_site_label
 _atom_site_symmetry_multiplicity
 _atom_site_fract_x
 _atom_site_fract_y
 _atom_site_fract_z
 _atom_site_occupancy
  Mg  Mg0  1  0.52949000  0.52949000  0.19479900  1
  Mg  Mg1  1  0.47051000  0.47051000  0.80520100  1
  Bi  Bi0  1  0.82321500  0.82321500  0.11718600  1
  Bi  Bi1  1  0.12641000  0.12641000  0.48989200  1
  Bi  Bi2  1  0.87359000  0.87359000  0.51010800  1
  Bi  Bi3  1  0.17678500  0.17678500  0.88281400  1
loop_
_geom_bond_atom_site_label_1
_geom_bond_atom_site_label_2
_geom_bond_distance
_geom_bond_site_symmetry_2
Bi0 Mg1 3.182022 1_654
Bi0 Mg1 3.182022 1_564
Bi0 Mg0 3.387768 1_565
Bi0 Mg0 3.387768 1_655
Bi1 Mg1 3.237268 1_545
Bi1 Mg1 3.237268 1_455
Bi2 Mg0 3.237268 1_565
Bi2 Mg0 3.237268 1_655
Bi3 Mg0 3.182022 1_546
Bi3 Mg0 3.182022 1_456
Bi3 Mg1 3.387768 1_545
Bi3 Mg1 3.387768 1_455
