# generated using pymatgen
data_K2MnSO4F3
_symmetry_space_group_name_H-M   'P 1'
_cell_length_a   11.02287500
_cell_length_b   7.40239500
_cell_length_c   8.61656481
_cell_angle_alpha   87.58202573
_cell_angle_beta   90.00000000
_cell_angle_gamma   90.00000000
_symmetry_Int_Tables_number   1
_chemical_formula_structural   K2MnSO4F3
_chemical_formula_sum   'K8 Mn4 S4 O16 F12'
_cell_volume   702.44843349
_cell_formula_units_Z   4
loop_
 _symmetry_equiv_pos_site_id
 _symmetry_equiv_pos_as_xyz
  1  'x, y, z'
loop_
 _atom_site_type_symbol
 _atom_site_label
 _atom_site_symmetry_multiplicity
 _atom_site_fract_x
 _atom_site_fract_y
 _atom_site_fract_z
 _atom_site_occupancy
  K  K0  1  0.80700300  0.18368600  0.66491500  1
  K  K1  1  0.80737100  0.68771100  0.33273000  1
  K  K2  1  0.30700300  0.81631400  0.83508500  1
  K  K3  1  0.19299700  0.81631400  0.33508500  1
  K  K4  1  0.19262900  0.31228900  0.66727000  1
  K  K5  1  0.30737100  0.31228900  0.16727000  1
  K  K6  1  0.69262900  0.68771100  0.83273000  1
  K  K7  1  0.69299700  0.18368600  0.16491500  1
  Mn  Mn0  1  0.50000000  0.00000000  0.50000000  1
  Mn  Mn1  1  0.00000000  0.50000000  0.00000000  1
  Mn  Mn2  1  0.50000000  0.50000000  0.50000000  1
  Mn  Mn3  1  0.00000000  0.00000000  0.00000000  1
  S  S0  1  0.49955200  0.74768700  0.18871700  1
  S  S1  1  0.99955200  0.25231300  0.31128300  1
  S  S2  1  0.50044800  0.25231300  0.81128300  1
  S  S3  1  0.00044800  0.74768700  0.68871700  1
  O  O0  1  0.59956700  0.82854100  0.09690600  1
  O  O1  1  0.09956700  0.17145900  0.40309400  1
  O  O2  1  0.40043300  0.17145900  0.90309400  1
  O  O3  1  0.90043300  0.82854100  0.59690600  1
  O  O4  1  0.40802700  0.65882400  0.09452300  1
  O  O5  1  0.90802700  0.34117600  0.40547700  1
  O  O6  1  0.59197300  0.34117600  0.90547700  1
  O  O7  1  0.09197300  0.65882400  0.59452300  1
  O  O8  1  0.55987700  0.60604500  0.30040100  1
  O  O9  1  0.05987700  0.39395500  0.19959900  1
  O  O10  1  0.44012300  0.39395500  0.69959900  1
  O  O11  1  0.94012300  0.60604500  0.80040100  1
  O  O12  1  0.93883300  0.11410700  0.21516400  1
  O  O13  1  0.56116700  0.11410700  0.71516400  1
  O  O14  1  0.43883300  0.88589300  0.28483600  1
  O  O15  1  0.06116700  0.88589300  0.78483600  1
  F  F0  1  0.83699800  0.97693500  0.94629700  1
  F  F1  1  0.33699800  0.02306500  0.55370300  1
  F  F2  1  0.16300200  0.02306500  0.05370300  1
  F  F3  1  0.66300200  0.97693500  0.44629700  1
  F  F4  1  0.00047800  0.23717300  0.88972000  1
  F  F5  1  0.50047800  0.76282700  0.61028000  1
  F  F6  1  0.99952200  0.76282700  0.11028000  1
  F  F7  1  0.49952200  0.23717300  0.38972000  1
  F  F8  1  0.16306400  0.52281200  0.93875400  1
  F  F9  1  0.83693600  0.47718800  0.06124600  1
  F  F10  1  0.33693600  0.52281200  0.43875400  1
  F  F11  1  0.66306400  0.47718800  0.56124600  1
loop_
_geom_bond_atom_site_label_1
_geom_bond_atom_site_label_2
_geom_bond_distance
_geom_bond_site_symmetry_2
K0 O5 2.715980 1_555
K0 O13 2.788736 1_555
K0 O3 2.906072 1_545
K1 O3 2.742403 1_555
K1 O8 2.810651 1_555
K1 O5 2.840505 1_555
K1 O0 3.206845 1_555
K2 O4 2.715980 1_556
K2 O15 2.788736 1_555
K2 O2 2.906072 1_565
K3 O7 2.715980 1_555
K3 O14 2.788736 1_555
K3 O1 2.906072 1_565
K4 O1 2.742403 1_555
K4 O10 2.810651 1_555
K4 O7 2.840505 1_555
K4 O2 3.206845 1_555
K5 O2 2.742403 1_554
K5 O9 2.810651 1_555
K5 O4 2.840505 1_555
K5 O1 3.206845 1_555
K6 O0 2.742403 1_556
K6 O11 2.810651 1_555
K6 O6 2.840505 1_555
K6 O3 3.206845 1_555
K7 O6 2.715980 1_554
K7 O12 2.788736 1_555
K7 O0 2.906072 1_545
Mn0 O13 2.176559 1_555
Mn0 O14 2.176559 1_545
Mn1 O9 1.973783 1_555
Mn1 O11 1.973783 1_454
Mn2 O10 1.973783 1_555
Mn2 O8 1.973783 1_555
Mn3 O12 2.176559 1_455
Mn3 O15 2.176559 1_544
O0 S0 1.469524 1_555
O1 S1 1.469524 1_455
O2 S2 1.469524 1_555
O3 S3 1.469524 1_655
O4 S0 1.467755 1_555
O5 S1 1.467755 1_555
O6 S2 1.467755 1_555
O7 S3 1.467755 1_555
O8 S0 1.543516 1_555
O9 S1 1.543516 1_455
O10 S2 1.543516 1_555
O11 S3 1.543516 1_655
O12 S1 1.500679 1_555
O13 S2 1.500679 1_555
O14 S0 1.500679 1_555
O15 S3 1.500679 1_555
F0 Mn3 1.865008 1_666
F0 K0 2.831418 1_565
F0 K6 2.872360 1_555
F0 K7 2.941691 1_566
F1 Mn0 1.865008 1_555
F1 K2 2.831418 1_545
F1 K4 2.872360 1_555
F1 K3 2.941691 1_545
F2 Mn3 1.865008 1_555
F2 K3 2.831418 1_545
F2 K5 2.872360 1_555
F2 K2 2.941691 1_544
F3 Mn0 1.865008 1_565
F3 K7 2.831418 1_565
F3 K1 2.872360 1_555
F3 K0 2.941691 1_565
F4 Mn3 1.960742 1_556
F4 Mn1 2.200938 1_556
F4 K4 2.894713 1_555
F4 K0 2.919216 1_455
F5 Mn0 1.960742 1_565
F5 Mn2 2.200938 1_555
F5 K6 2.894713 1_555
F5 K2 2.919216 1_555
F6 Mn3 1.960742 1_665
F6 Mn1 2.200938 1_655
F6 K1 2.894713 1_555
F6 K3 2.919216 1_655
F7 Mn0 1.960742 1_555
F7 Mn2 2.200938 1_555
F7 K5 2.894713 1_555
F7 K7 2.919216 1_555
F8 Mn1 1.878900 1_556
F8 K2 2.805675 1_555
F8 K4 2.883482 1_555
F8 K5 2.928639 1_556
F9 Mn1 1.878900 1_655
F9 K7 2.805675 1_555
F9 K1 2.883482 1_555
F9 K6 2.928639 1_554
F10 Mn2 1.878900 1_555
F10 K3 2.805675 1_555
F10 K5 2.883482 1_555
F10 K4 2.928639 1_555
F11 Mn2 1.878900 1_555
F11 K0 2.805675 1_555
F11 K6 2.883482 1_555
F11 K1 2.928639 1_555
