# generated using pymatgen
data_Te2MoW3(Se2S)2
_symmetry_space_group_name_H-M   'P 1'
_cell_length_a   3.34047817
_cell_length_b   3.34047817
_cell_length_c   38.07664700
_cell_angle_alpha   90.00000000
_cell_angle_beta   90.00000000
_cell_angle_gamma   120.00000328
_symmetry_Int_Tables_number   1
_chemical_formula_structural   Te2MoW3(Se2S)2
_chemical_formula_sum   'Te2 Mo1 W3 Se4 S2'
_cell_volume   367.96506643
_cell_formula_units_Z   1
loop_
 _symmetry_equiv_pos_site_id
 _symmetry_equiv_pos_as_xyz
  1  'x, y, z'
loop_
 _atom_site_type_symbol
 _atom_site_label
 _atom_site_symmetry_multiplicity
 _atom_site_fract_x
 _atom_site_fract_y
 _atom_site_fract_z
 _atom_site_occupancy
  Te  Te0  1  0.33333300  0.66666700  0.04409000  1
  Te  Te1  1  0.33333300  0.66666700  0.14369500  1
  Mo  Mo0  1  0.00000000  0.00000000  0.09387800  1
  W  W0  1  0.00000000  0.00000000  0.46965300  1
  W  W1  1  0.33333300  0.66666700  0.28182600  1
  W  W2  1  0.33333300  0.66666700  0.65753800  1
  Se  Se0  1  0.00000000  0.00000000  0.32581400  1
  Se  Se1  1  0.00000000  0.00000000  0.70150300  1
  Se  Se2  1  0.00000000  0.00000000  0.23786600  1
  Se  Se3  1  0.00000000  0.00000000  0.61355500  1
  S  S0  1  0.33333300  0.66666700  0.42966800  1
  S  S1  1  0.33333300  0.66666700  0.50966400  1
loop_
_geom_bond_atom_site_label_1
_geom_bond_atom_site_label_2
_geom_bond_distance
_geom_bond_site_symmetry_2
Mo0 Te0 2.704348 1_545
Mo0 Te0 2.704350 1_445
Mo0 Te0 2.704350 1_555
Mo0 Te1 2.705122 1_545
Mo0 Te1 2.705124 1_445
Mo0 Te1 2.705124 1_555
Se0 W1 2.554395 1_545
Se0 W1 2.554397 1_445
Se0 W1 2.554397 1_555
Se1 W2 2.553821 1_545
Se1 W2 2.553823 1_445
Se1 W2 2.553823 1_555
Se2 W1 2.553696 1_545
Se2 W1 2.553698 1_555
Se2 W1 2.553698 1_445
Se3 W2 2.554270 1_545
Se3 W2 2.554272 1_445
Se3 W2 2.554272 1_555
S0 W0 2.457149 1_565
S0 W0 2.457151 1_555
S0 W0 2.457151 1_665
S1 W0 2.457763 1_565
S1 W0 2.457765 1_555
S1 W0 2.457765 1_665
