# generated using pymatgen
data_GaCuBr3
_symmetry_space_group_name_H-M   'P 1'
_cell_length_a   7.24061128
_cell_length_b   7.24061128
_cell_length_c   7.24061128
_cell_angle_alpha   116.28607754
_cell_angle_beta   116.28607754
_cell_angle_gamma   96.56286675
_symmetry_Int_Tables_number   1
_chemical_formula_structural   GaCuBr3
_chemical_formula_sum   'Ga2 Cu2 Br6'
_cell_volume   281.48495472
_cell_formula_units_Z   2
loop_
 _symmetry_equiv_pos_site_id
 _symmetry_equiv_pos_as_xyz
  1  'x, y, z'
loop_
 _atom_site_type_symbol
 _atom_site_label
 _atom_site_symmetry_multiplicity
 _atom_site_fract_x
 _atom_site_fract_y
 _atom_site_fract_z
 _atom_site_occupancy
  Ga  Ga0  1  0.50000000  0.50000000  0.00000000  1
  Ga  Ga1  1  0.00000000  0.00000000  0.00000000  1
  Cu  Cu0  1  0.25000000  0.75000000  0.50000000  1
  Cu  Cu1  1  0.75000000  0.25000000  0.50000000  1
  Br  Br0  1  0.75000000  0.75000000  0.00000000  1
  Br  Br1  1  0.25000000  0.25000000  0.00000000  1
  Br  Br2  1  0.15235200  0.65235200  0.80470500  1
  Br  Br3  1  0.84764800  0.34764800  0.19529500  1
  Br  Br4  1  0.65235200  0.84764800  0.50000000  1
  Br  Br5  1  0.34764800  0.15235200  0.50000000  1
loop_
_geom_bond_atom_site_label_1
_geom_bond_atom_site_label_2
_geom_bond_distance
_geom_bond_site_symmetry_2
Br0 Ga1 2.409213 1_665
Br0 Ga0 2.409213 1_555
Br1 Ga1 2.409213 1_555
Br1 Ga0 2.409213 1_555
Br2 Ga0 2.901095 1_556
Br2 Ga1 2.901095 1_566
Br2 Cu1 2.918256 1_455
Br2 Cu0 2.918264 1_555
Br3 Ga1 2.901095 1_655
Br3 Ga0 2.901095 1_555
Br3 Cu0 2.918256 1_655
Br3 Cu1 2.918264 1_555
Br4 Ga1 2.901096 1_666
Br4 Ga0 2.901096 1_555
Br4 Cu0 2.918257 1_555
Br4 Cu1 2.918257 1_565
Br5 Ga0 2.901096 1_556
Br5 Ga1 2.901096 1_555
Br5 Cu0 2.918257 1_545
Br5 Cu1 2.918257 1_555
