# generated using pymatgen
data_MgFe7(Ni3O8)2
_symmetry_space_group_name_H-M   'P 1'
_cell_length_a   6.01725999
_cell_length_b   6.01725999
_cell_length_c   10.63549678
_cell_angle_alpha   106.44635212
_cell_angle_beta   73.55364788
_cell_angle_gamma   120.00119350
_symmetry_Int_Tables_number   1
_chemical_formula_structural   MgFe7(Ni3O8)2
_chemical_formula_sum   'Mg1 Fe7 Ni6 O16'
_cell_volume   315.16459625
_cell_formula_units_Z   1
loop_
 _symmetry_equiv_pos_site_id
 _symmetry_equiv_pos_as_xyz
  1  'x, y, z'
loop_
 _atom_site_type_symbol
 _atom_site_label
 _atom_site_symmetry_multiplicity
 _atom_site_fract_x
 _atom_site_fract_y
 _atom_site_fract_z
 _atom_site_occupancy
  Mg  Mg0  1  0.06965848  0.93034152  0.78114965  1
  Fe  Fe0  1  0.32164967  0.67835033  0.05357787  1
  Fe  Fe1  1  0.99198171  0.00801829  0.03173363  1
  Fe  Fe2  1  0.56551463  0.93667027  0.31819054  1
  Fe  Fe3  1  0.06332973  0.43448537  0.31819054  1
  Fe  Fe4  1  0.62889519  0.37110481  0.13117112  1
  Fe  Fe5  1  0.56341404  0.94909724  0.81762612  1
  Fe  Fe6  1  0.05090276  0.43658596  0.81762612  1
  Ni  Ni0  1  0.06392201  0.93607799  0.31449256  1
  Ni  Ni1  1  0.31790622  0.68209378  0.55799064  1
  Ni  Ni2  1  0.79948204  0.68177984  0.55528384  1
  Ni  Ni3  1  0.31822016  0.20051796  0.55528384  1
  Ni  Ni4  1  0.81017667  0.18982333  0.56224912  1
  Ni  Ni5  1  0.56409084  0.43590916  0.81177436  1
  O  O0  1  0.43038176  0.56961824  0.20053268  1
  O  O1  1  0.19157906  0.80842094  0.43339049  1
  O  O2  1  0.68731738  0.83027784  0.44245945  1
  O  O3  1  0.16972216  0.31268262  0.44245945  1
  O  O4  1  0.95835460  0.56351467  0.19329909  1
  O  O5  1  0.43648533  0.04164540  0.19329909  1
  O  O6  1  0.69306336  0.30693664  0.43801718  1
  O  O7  1  0.92584170  0.07415830  0.22160464  1
  O  O8  1  0.19067064  0.80932936  0.91413785  1
  O  O9  1  0.43595366  0.56404634  0.68346063  1
  O  O10  1  0.69453438  0.80660181  0.91692897  1
  O  O11  1  0.19339819  0.30546562  0.91692897  1
  O  O12  1  0.93571748  0.56131308  0.67923659  1
  O  O13  1  0.43868692  0.06428252  0.67923659  1
  O  O14  1  0.93703119  0.06296881  0.67874329  1
  O  O15  1  0.68753505  0.31246495  0.93367508  1
loop_
_geom_bond_atom_site_label_1
_geom_bond_atom_site_label_2
_geom_bond_distance
_geom_bond_site_symmetry_2
Mg0 O14 2.020212 1_465
Mg0 O13 2.024175 1_565
Mg0 O12 2.024175 1_455
Mg0 O8 2.181177 1_555
Mg0 O10 2.194811 1_455
Mg0 O11 2.194811 1_565
Fe0 O4 2.167000 1_455
Fe0 O5 2.167000 1_565
Fe0 O11 2.190693 1_554
Fe0 O10 2.190693 1_554
Fe0 O0 2.210212 1_555
Fe0 O8 2.320877 1_554
Fe1 O7 1.908639 1_555
Fe1 O8 2.039370 1_644
Fe1 O10 2.096043 1_544
Fe1 O11 2.096043 1_654
Fe2 O7 1.966449 1_565
Fe2 O2 2.047101 1_555
Fe2 O5 2.077405 1_565
Fe2 O0 2.078556 1_555
Fe2 O1 2.096997 1_555
Fe2 O6 2.100754 1_565
Fe3 O7 1.966449 1_455
Fe3 O3 2.047101 1_555
Fe3 O4 2.077405 1_455
Fe3 O0 2.078556 1_555
Fe3 O1 2.096997 1_555
Fe3 O6 2.100754 1_455
Fe4 O4 1.928826 1_555
Fe4 O5 1.928826 1_555
Fe4 O0 1.956240 1_555
Fe4 O15 1.986492 1_554
Fe5 O8 2.022453 1_555
Fe5 O10 2.033280 1_555
Fe5 O15 2.054915 1_565
Fe5 O14 2.204034 1_565
Fe5 O13 2.221103 1_565
Fe5 O9 2.227816 1_555
Fe6 O8 2.022453 1_555
Fe6 O11 2.033280 1_555
Fe6 O15 2.054915 1_455
Fe6 O14 2.204034 1_455
Fe6 O12 2.221103 1_455
Fe6 O9 2.227816 1_555
Ni0 O7 1.994130 1_465
Ni0 O1 2.114059 1_555
Ni0 O4 2.119894 1_455
Ni0 O5 2.119894 1_565
Ni0 O3 2.166665 1_565
Ni0 O2 2.166665 1_455
Ni1 O3 2.082692 1_555
Ni1 O2 2.082692 1_555
Ni1 O9 2.089941 1_555
Ni1 O1 2.151827 1_555
Ni1 O13 2.158664 1_565
Ni1 O12 2.158664 1_455
Ni2 O2 2.088689 1_555
Ni2 O9 2.110403 1_555
Ni2 O6 2.113745 1_555
Ni2 O14 2.163738 1_565
Ni2 O12 2.163944 1_555
Ni2 O1 2.203944 1_655
Ni3 O3 2.088689 1_555
Ni3 O9 2.110403 1_555
Ni3 O6 2.113745 1_555
Ni3 O14 2.163738 1_455
Ni3 O13 2.163944 1_555
Ni3 O1 2.203944 1_545
Ni4 O3 2.055097 1_655
Ni4 O2 2.055097 1_545
Ni4 O6 2.071237 1_555
Ni4 O14 2.086634 1_555
Ni4 O12 2.093849 1_555
Ni4 O13 2.093849 1_555
Ni5 O10 2.043500 1_555
Ni5 O11 2.043500 1_555
Ni5 O15 2.103970 1_555
Ni5 O12 2.164915 1_555
Ni5 O13 2.164915 1_555
Ni5 O9 2.199423 1_555
