# generated using pymatgen
data_Gd(Al2Fe)4
_symmetry_space_group_name_H-M   'P 1'
_cell_length_a   5.10375200
_cell_length_b   6.78118467
_cell_length_c   6.78118467
_cell_angle_alpha   81.85871374
_cell_angle_beta   67.89425664
_cell_angle_gamma   67.89425664
_symmetry_Int_Tables_number   1
_chemical_formula_structural   Gd(Al2Fe)4
_chemical_formula_sum   'Gd1 Al8 Fe4'
_cell_volume   201.45731178
_cell_formula_units_Z   1
loop_
 _symmetry_equiv_pos_site_id
 _symmetry_equiv_pos_as_xyz
  1  'x, y, z'
loop_
 _atom_site_type_symbol
 _atom_site_label
 _atom_site_symmetry_multiplicity
 _atom_site_fract_x
 _atom_site_fract_y
 _atom_site_fract_z
 _atom_site_occupancy
  Gd  Gd0  1  0.00000000  0.00000000  0.00000000  1
  Al  Al0  1  0.00000000  0.33976700  0.66023300  1
  Al  Al1  1  0.00000000  0.66023300  0.33976700  1
  Al  Al2  1  0.66023300  0.33976700  0.33976700  1
  Al  Al3  1  0.33976700  0.66023300  0.66023300  1
  Al  Al4  1  0.50000000  0.77953300  0.22046700  1
  Al  Al5  1  0.50000000  0.22046700  0.77953300  1
  Al  Al6  1  0.72046700  0.77953300  0.77953300  1
  Al  Al7  1  0.27953300  0.22046700  0.22046700  1
  Fe  Fe0  1  0.00000000  0.00000000  0.50000000  1
  Fe  Fe1  1  0.50000000  0.00000000  0.50000000  1
  Fe  Fe2  1  0.50000000  0.50000000  0.00000000  1
  Fe  Fe3  1  0.00000000  0.50000000  0.00000000  1
loop_
_geom_bond_atom_site_label_1
_geom_bond_atom_site_label_2
_geom_bond_distance
_geom_bond_site_symmetry_2
Al0 Fe0 2.682949 1_555
Al0 Fe1 2.682949 1_555
Al0 Fe3 2.682949 1_556
Al0 Fe2 2.682949 1_456
Al0 Al5 2.763268 1_455
Al0 Al5 2.763268 1_555
Al0 Al1 2.847369 1_555
Al0 Al7 2.862782 1_555
Al0 Al6 2.862782 1_455
Al0 Gd0 3.018860 1_556
Al1 Fe3 2.682949 1_555
Al1 Fe2 2.682949 1_555
Al1 Fe1 2.682949 1_465
Al1 Fe0 2.682949 1_565
Al1 Al4 2.763268 1_455
Al1 Al4 2.763268 1_555
Al1 Al7 2.862782 1_555
Al1 Al6 2.862782 1_455
Al1 Gd0 3.018860 1_565
Al2 Fe3 2.682949 1_655
Al2 Fe0 2.682949 1_655
Al2 Fe2 2.682949 1_555
Al2 Fe1 2.682949 1_555
Al2 Al7 2.763268 1_655
Al2 Al7 2.763268 1_555
Al2 Al3 2.847369 1_555
Al2 Al4 2.862782 1_555
Al2 Al5 2.862782 1_555
Al2 Gd0 3.018860 1_655
Al3 Fe0 2.682949 1_565
Al3 Fe1 2.682949 1_565
Al3 Fe3 2.682949 1_556
Al3 Fe2 2.682949 1_556
Al3 Al6 2.763268 1_455
Al3 Al6 2.763268 1_555
Al3 Al4 2.862782 1_555
Al3 Al5 2.862782 1_555
Al3 Gd0 3.018860 1_566
Al4 Fe1 2.575058 1_565
Al4 Fe2 2.575058 1_555
Al4 Fe0 2.575058 1_565
Al4 Fe3 2.575058 1_655
Al4 Al6 2.770259 1_554
Al4 Al7 2.770259 1_565
Al4 Gd0 3.217023 1_565
Al4 Gd0 3.217023 1_665
Al5 Fe3 2.575058 1_556
Al5 Fe2 2.575058 1_556
Al5 Fe1 2.575058 1_555
Al5 Fe0 2.575058 1_655
Al5 Al6 2.770259 1_545
Al5 Al7 2.770259 1_556
Al5 Gd0 3.217023 1_656
Al5 Gd0 3.217023 1_556
Al6 Fe1 2.575058 1_565
Al6 Fe0 2.575058 1_665
Al6 Fe2 2.575058 1_556
Al6 Fe3 2.575058 1_656
Al6 Gd0 3.217023 1_566
Al6 Gd0 3.217023 1_666
Al7 Fe2 2.575058 1_555
Al7 Fe3 2.575058 1_555
Al7 Fe1 2.575058 1_555
Al7 Fe0 2.575058 1_555
Al7 Gd0 3.217023 1_655
Al7 Gd0 3.217023 1_555
Fe0 Fe1 2.551876 1_455
Fe0 Fe1 2.551876 1_555
Fe0 Gd0 3.390592 1_556
Fe0 Gd0 3.390592 1_555
Fe1 Gd0 3.390592 1_556
Fe1 Gd0 3.390592 1_655
Fe2 Fe3 2.551876 1_555
Fe2 Fe3 2.551876 1_655
Fe2 Gd0 3.390592 1_565
Fe2 Gd0 3.390592 1_655
Fe3 Gd0 3.390592 1_565
Fe3 Gd0 3.390592 1_555
