# generated using pymatgen
data_WO2
_symmetry_space_group_name_H-M   'P 1'
_cell_length_a   3.21255743
_cell_length_b   4.80457173
_cell_length_c   4.83701400
_cell_angle_alpha   90.00000000
_cell_angle_beta   90.00000000
_cell_angle_gamma   89.58642678
_symmetry_Int_Tables_number   1
_chemical_formula_structural   WO2
_chemical_formula_sum   'W2 O4'
_cell_volume   74.65718539
_cell_formula_units_Z   2
loop_
 _symmetry_equiv_pos_site_id
 _symmetry_equiv_pos_as_xyz
  1  'x, y, z'
loop_
 _atom_site_type_symbol
 _atom_site_label
 _atom_site_symmetry_multiplicity
 _atom_site_fract_x
 _atom_site_fract_y
 _atom_site_fract_z
 _atom_site_occupancy
  W  W0  1  0.00000100  0.49999800  0.50000600  1
  W  W1  1  0.50000000  0.00000300  0.00000600  1
  O  O0  1  0.49638900  0.29595100  0.30226400  1
  O  O1  1  0.00361100  0.20404900  0.80226400  1
  O  O2  1  0.50361300  0.70404500  0.69773100  1
  O  O3  1  0.99638600  0.79595500  0.19773100  1
loop_
_geom_bond_atom_site_label_1
_geom_bond_atom_site_label_2
_geom_bond_distance
_geom_bond_site_symmetry_2
O0 W1 2.039418 1_555
O0 W0 2.096754 1_555
O0 W0 2.125182 1_655
O1 W0 2.039421 1_555
O1 W1 2.096754 1_556
O1 W1 2.125178 1_456
O2 W1 2.039511 1_566
O2 W0 2.096717 1_655
O2 W0 2.125145 1_555
O3 W0 2.039507 1_655
O3 W1 2.096714 1_565
O3 W1 2.125152 1_665
