# generated using pymatgen
data_Er(NiSb)2
_symmetry_space_group_name_H-M   'P 1'
_cell_length_a   4.37191100
_cell_length_b   4.37191100
_cell_length_c   10.11541100
_cell_angle_alpha   90.00000000
_cell_angle_beta   90.00000000
_cell_angle_gamma   90.00000000
_symmetry_Int_Tables_number   1
_chemical_formula_structural   Er(NiSb)2
_chemical_formula_sum   'Er2 Ni4 Sb4'
_cell_volume   193.34197828
_cell_formula_units_Z   2
loop_
 _symmetry_equiv_pos_site_id
 _symmetry_equiv_pos_as_xyz
  1  'x, y, z'
loop_
 _atom_site_type_symbol
 _atom_site_label
 _atom_site_symmetry_multiplicity
 _atom_site_fract_x
 _atom_site_fract_y
 _atom_site_fract_z
 _atom_site_occupancy
  Er  Er0  1  0.00000000  0.50000000  0.23577100  1
  Er  Er1  1  0.50000000  0.00000000  0.76422900  1
  Ni  Ni0  1  0.00000000  0.00000000  0.00000000  1
  Ni  Ni1  1  0.50000000  0.50000000  0.00000000  1
  Ni  Ni2  1  0.00000000  0.50000000  0.62883200  1
  Ni  Ni3  1  0.50000000  0.00000000  0.37116800  1
  Sb  Sb0  1  0.00000000  0.00000000  0.50000000  1
  Sb  Sb1  1  0.50000000  0.50000000  0.50000000  1
  Sb  Sb2  1  0.00000000  0.50000000  0.87157700  1
  Sb  Sb3  1  0.50000000  0.00000000  0.12842300  1
loop_
_geom_bond_atom_site_label_1
_geom_bond_atom_site_label_2
_geom_bond_distance
_geom_bond_site_symmetry_2
Er0 Ni0 3.235158 1_555
Er0 Ni0 3.235158 1_565
Er0 Ni1 3.235158 1_555
Er0 Ni1 3.235158 1_455
Er0 Sb3 3.276571 1_565
Er0 Sb3 3.276571 1_465
Er0 Sb3 3.276571 1_455
Er0 Sb3 3.276571 1_555
Er0 Ni3 3.381212 1_465
Er0 Ni3 3.381212 1_455
Er0 Ni3 3.381212 1_565
Er0 Ni3 3.381212 1_555
Er0 Sb0 3.452851 1_555
Er0 Sb1 3.452851 1_455
Er0 Sb0 3.452851 1_565
Er0 Sb1 3.452851 1_555
Er1 Ni1 3.235158 1_546
Er1 Ni0 3.235158 1_556
Er1 Ni1 3.235158 1_556
Er1 Ni0 3.235158 1_656
Er1 Sb2 3.276571 1_655
Er1 Sb2 3.276571 1_645
Er1 Sb2 3.276571 1_555
Er1 Sb2 3.276571 1_545
Er1 Ni2 3.381212 1_545
Er1 Ni2 3.381212 1_645
Er1 Ni2 3.381212 1_655
Er1 Ni2 3.381212 1_555
Er1 Sb1 3.452851 1_545
Er1 Sb0 3.452851 1_655
Er1 Sb1 3.452851 1_555
Er1 Sb0 3.452851 1_555
Ni0 Sb3 2.542820 1_455
Ni0 Sb3 2.542820 1_555
Ni0 Sb2 2.542820 1_544
Ni0 Sb2 2.542820 1_554
Ni1 Sb3 2.542820 1_565
Ni1 Sb3 2.542820 1_555
Ni1 Sb2 2.542820 1_554
Ni1 Sb2 2.542820 1_654
Ni2 Sb2 2.455465 1_555
Ni2 Sb1 2.544937 1_455
Ni2 Sb0 2.544937 1_555
Ni2 Sb0 2.544937 1_565
Ni2 Sb1 2.544937 1_555
Ni3 Sb3 2.455465 1_555
Ni3 Sb1 2.544937 1_545
Ni3 Sb1 2.544937 1_555
Ni3 Sb0 2.544937 1_655
Ni3 Sb0 2.544937 1_555
