# generated using pymatgen
data_NdAlO3
_symmetry_space_group_name_H-M   'P 1'
_cell_length_a   5.28251844
_cell_length_b   5.28251868
_cell_length_c   5.28251761
_cell_angle_alpha   60.00015150
_cell_angle_beta   60.00015077
_cell_angle_gamma   60.00014408
_symmetry_Int_Tables_number   1
_chemical_formula_structural   NdAlO3
_chemical_formula_sum   'Nd2 Al2 O6'
_cell_volume   104.23401901
_cell_formula_units_Z   2
loop_
 _symmetry_equiv_pos_site_id
 _symmetry_equiv_pos_as_xyz
  1  'x, y, z'
loop_
 _atom_site_type_symbol
 _atom_site_label
 _atom_site_symmetry_multiplicity
 _atom_site_fract_x
 _atom_site_fract_y
 _atom_site_fract_z
 _atom_site_occupancy
  Nd  Nd0  1  0.25000000  0.25000000  0.25000000  1
  Nd  Nd1  1  0.75000000  0.75000000  0.75000000  1
  Al  Al0  1  -0.00000000  -0.00000000  0.00000000  1
  Al  Al1  1  0.50000000  0.50000000  0.50000000  1
  O  O0  1  0.75000000  0.75000000  0.25000000  1
  O  O1  1  0.75000000  0.25000000  0.75000000  1
  O  O2  1  0.25000000  0.75000000  0.75000000  1
  O  O3  1  0.75000000  0.25000000  0.25000000  1
  O  O4  1  0.25000000  0.75000000  0.25000000  1
  O  O5  1  0.25000000  0.25000000  0.75000000  1
loop_
_geom_bond_atom_site_label_1
_geom_bond_atom_site_label_2
_geom_bond_distance
_geom_bond_site_symmetry_2
Nd0 O5 2.641259 1_555
Nd0 O5 2.641259 1_554
Nd0 O3 2.641259 1_455
Nd0 O3 2.641259 1_555
Nd0 O4 2.641259 1_545
Nd0 O4 2.641259 1_555
Nd0 O1 2.641265 1_455
Nd0 O1 2.641265 1_554
Nd0 O0 2.641265 1_545
Nd0 O0 2.641265 1_455
Nd0 O2 2.641265 1_554
Nd0 O2 2.641265 1_545
Nd1 O0 2.641259 1_555
Nd1 O0 2.641259 1_556
Nd1 O2 2.641259 1_655
Nd1 O2 2.641259 1_555
Nd1 O1 2.641259 1_555
Nd1 O1 2.641259 1_565
Nd1 O4 2.641265 1_655
Nd1 O4 2.641265 1_556
Nd1 O5 2.641265 1_655
Nd1 O5 2.641265 1_565
Nd1 O3 2.641265 1_556
Nd1 O3 2.641265 1_565
Al0 O1 1.867654 1_454
Al0 O4 1.867654 1_545
Al0 O3 1.867654 1_455
Al0 O2 1.867654 1_544
Al0 O5 1.867655 1_554
Al0 O0 1.867655 1_445
Al1 O4 1.867654 1_555
Al1 O1 1.867654 1_555
Al1 O3 1.867654 1_555
Al1 O2 1.867654 1_555
Al1 O5 1.867655 1_555
Al1 O0 1.867655 1_555
