# generated using pymatgen
data_CeAg(PSe3)2
_symmetry_space_group_name_H-M   'P 1'
_cell_length_a   7.50101000
_cell_length_b   6.76337200
_cell_length_c   11.85622197
_cell_angle_alpha   57.18751071
_cell_angle_beta   90.00000000
_cell_angle_gamma   90.00000000
_symmetry_Int_Tables_number   1
_chemical_formula_structural   CeAg(PSe3)2
_chemical_formula_sum   'Ce2 Ag2 P4 Se12'
_cell_volume   505.52245197
_cell_formula_units_Z   2
loop_
 _symmetry_equiv_pos_site_id
 _symmetry_equiv_pos_as_xyz
  1  'x, y, z'
loop_
 _atom_site_type_symbol
 _atom_site_label
 _atom_site_symmetry_multiplicity
 _atom_site_fract_x
 _atom_site_fract_y
 _atom_site_fract_z
 _atom_site_occupancy
  Ce  Ce0  1  0.13821900  0.71591800  0.24467400  1
  Ce  Ce1  1  0.86178100  0.71591800  0.74467400  1
  Ag  Ag0  1  0.67785100  0.28895000  0.26093500  1
  Ag  Ag1  1  0.32214900  0.28895000  0.76093500  1
  P  P0  1  0.64101300  0.62969500  0.43505700  1
  P  P1  1  0.14388700  0.37181300  0.06171000  1
  P  P2  1  0.85611300  0.37181300  0.56171000  1
  P  P3  1  0.35898700  0.62969500  0.93505700  1
  Se  Se0  1  0.45263500  0.39944600  0.41503200  1
  Se  Se1  1  0.92815900  0.59843000  0.06175000  1
  Se  Se2  1  0.07184100  0.59843000  0.56175000  1
  Se  Se3  1  0.54736500  0.39944600  0.91503200  1
  Se  Se4  1  0.53817500  0.75722500  0.55776500  1
  Se  Se5  1  0.04101200  0.20438100  0.95729600  1
  Se  Se6  1  0.95898800  0.20438100  0.45729600  1
  Se  Se7  1  0.46182500  0.75722500  0.05776500  1
  Se  Se8  1  0.76532800  0.90436400  0.24051600  1
  Se  Se9  1  0.26840700  0.12506800  0.25877500  1
  Se  Se10  1  0.73159300  0.12506800  0.75877500  1
  Se  Se11  1  0.23467200  0.90436400  0.74051600  1
loop_
_geom_bond_atom_site_label_1
_geom_bond_atom_site_label_2
_geom_bond_distance
_geom_bond_site_symmetry_2
Ce0 Se9 3.023337 1_565
Ce0 Se8 3.063054 1_455
Ce0 Se0 3.088330 1_555
Ce0 Se1 3.112154 1_455
Ce0 Se7 3.195312 1_555
Ce0 Se6 3.267979 1_455
Ce0 Se5 3.294781 1_564
Ce0 Se2 3.431376 1_555
Ce1 Se10 3.023337 1_565
Ce1 Se11 3.063054 1_655
Ce1 Se3 3.088330 1_555
Ce1 Se2 3.112154 1_655
Ce1 Se4 3.195312 1_555
Ce1 Se5 3.267979 1_655
Ce1 Se6 3.294781 1_565
Ce1 Se1 3.431376 1_556
Ag0 Se8 2.817328 1_545
Ag0 Se1 2.850659 1_555
Ag0 Se0 2.868818 1_555
Ag0 Se6 2.958228 1_555
Ag0 Se7 3.192272 1_555
Ag0 Se9 3.269938 1_555
Ag1 Se11 2.817328 1_545
Ag1 Se2 2.850659 1_555
Ag1 Se3 2.868818 1_555
Ag1 Se5 2.958228 1_555
Ag1 Se4 3.192272 1_555
Ag1 Se10 3.269938 1_555
P0 Se4 2.194447 1_555
P0 Se0 2.208794 1_555
P0 Se8 2.235350 1_555
P0 P2 2.249828 1_555
P1 Se9 2.211462 1_555
P1 Se5 2.220284 1_554
P1 Se1 2.229000 1_455
P1 P3 2.249828 1_554
P2 Se10 2.211462 1_555
P2 Se6 2.220284 1_555
P2 Se2 2.229000 1_655
P3 Se7 2.194447 1_556
P3 Se3 2.208794 1_555
P3 Se11 2.235350 1_555
