# generated using pymatgen
data_NaSr2OsO6
_symmetry_space_group_name_H-M   'P 1'
_cell_length_a   5.78820641
_cell_length_b   5.78820641
_cell_length_c   5.78820711
_cell_angle_alpha   59.99999596
_cell_angle_beta   60.00000404
_cell_angle_gamma   60.00000000
_symmetry_Int_Tables_number   1
_chemical_formula_structural   NaSr2OsO6
_chemical_formula_sum   'Na1 Sr2 Os1 O6'
_cell_volume   137.12513991
_cell_formula_units_Z   1
loop_
 _symmetry_equiv_pos_site_id
 _symmetry_equiv_pos_as_xyz
  1  'x, y, z'
loop_
 _atom_site_type_symbol
 _atom_site_label
 _atom_site_symmetry_multiplicity
 _atom_site_fract_x
 _atom_site_fract_y
 _atom_site_fract_z
 _atom_site_occupancy
  Na  Na0  1  0.50000000  0.50000000  0.50000000  1
  Sr  Sr0  1  0.25000000  0.25000000  0.25000000  1
  Sr  Sr1  1  0.75000000  0.75000000  0.75000000  1
  Os  Os0  1  0.00000000  0.00000000  0.00000000  1
  O  O0  1  0.76822100  0.23177900  0.23177900  1
  O  O1  1  0.23177900  0.76822100  0.76822100  1
  O  O2  1  0.23177900  0.76822100  0.23177900  1
  O  O3  1  0.76822100  0.23177900  0.76822100  1
  O  O4  1  0.23177900  0.23177900  0.76822100  1
  O  O5  1  0.76822100  0.76822100  0.23177900  1
loop_
_geom_bond_atom_site_label_1
_geom_bond_atom_site_label_2
_geom_bond_distance
_geom_bond_site_symmetry_2
Na0 O2 2.195593 1_555
Na0 O4 2.195593 1_555
Na0 O3 2.195593 1_555
Na0 O5 2.195593 1_555
Na0 O0 2.195593 1_555
Na0 O1 2.195593 1_555
O0 Os0 1.897287 1_655
O0 Sr1 2.897944 1_554
O0 Sr0 2.897944 1_555
O0 Sr0 2.897944 1_655
O0 Sr1 2.897944 1_545
O1 Os0 1.897287 1_566
O1 Sr0 2.897944 1_556
O1 Sr1 2.897944 1_555
O1 Sr1 2.897944 1_455
O1 Sr0 2.897944 1_565
O2 Os0 1.897287 1_565
O2 Sr0 2.897944 1_555
O2 Sr0 2.897944 1_565
O2 Sr1 2.897944 1_554
O2 Sr1 2.897944 1_455
O3 Os0 1.897287 1_656
O3 Sr1 2.897944 1_555
O3 Sr1 2.897944 1_545
O3 Sr0 2.897944 1_556
O3 Sr0 2.897944 1_655
O4 Os0 1.897287 1_556
O4 Sr1 2.897944 1_455
O4 Sr1 2.897944 1_545
O4 Sr0 2.897944 1_556
O4 Sr0 2.897944 1_555
O5 Os0 1.897287 1_665
O5 Sr0 2.897944 1_655
O5 Sr0 2.897944 1_565
O5 Sr1 2.897944 1_554
O5 Sr1 2.897944 1_555
