# generated using pymatgen
data_AuCN3Cl4
_symmetry_space_group_name_H-M   'P 1'
_cell_length_a   4.20579400
_cell_length_b   15.11781400
_cell_length_c   15.60613531
_cell_angle_alpha   85.45540192
_cell_angle_beta   90.00000000
_cell_angle_gamma   90.00000000
_symmetry_Int_Tables_number   1
_chemical_formula_structural   AuCN3Cl4
_chemical_formula_sum   'Au4 C4 N12 Cl16'
_cell_volume   989.15596156
_cell_formula_units_Z   4
loop_
 _symmetry_equiv_pos_site_id
 _symmetry_equiv_pos_as_xyz
  1  'x, y, z'
loop_
 _atom_site_type_symbol
 _atom_site_label
 _atom_site_symmetry_multiplicity
 _atom_site_fract_x
 _atom_site_fract_y
 _atom_site_fract_z
 _atom_site_occupancy
  Au  Au0  1  0.50000000  0.50000000  0.00000000  1
  Au  Au1  1  0.00000000  0.00000000  0.00000000  1
  Au  Au2  1  0.50000000  0.00000000  0.50000000  1
  Au  Au3  1  0.00000000  0.50000000  0.50000000  1
  C  C0  1  0.73317400  0.26026200  0.75033300  1
  C  C1  1  0.23317400  0.23973800  0.24966700  1
  C  C2  1  0.26682600  0.73973800  0.24966700  1
  C  C3  1  0.76682600  0.76026200  0.75033300  1
  N  N0  1  0.82346500  0.34599100  0.75583300  1
  N  N1  1  0.32346500  0.15400900  0.24416700  1
  N  N2  1  0.17653500  0.65400900  0.24416700  1
  N  N3  1  0.67653500  0.84599100  0.75583300  1
  N  N4  1  0.79651800  0.21924400  0.67795100  1
  N  N5  1  0.29651800  0.28075600  0.32204900  1
  N  N6  1  0.20348200  0.78075600  0.32204900  1
  N  N7  1  0.70348200  0.71924400  0.67795100  1
  N  N8  1  0.58073500  0.21572500  0.81703800  1
  N  N9  1  0.08073500  0.28427500  0.18296200  1
  N  N10  1  0.41926500  0.78427500  0.18296200  1
  N  N11  1  0.91926500  0.71572500  0.81703800  1
  Cl  Cl0  1  0.60379500  0.48683600  0.14483700  1
  Cl  Cl1  1  0.10379500  0.01316400  0.85516300  1
  Cl  Cl2  1  0.39620500  0.51316400  0.85516300  1
  Cl  Cl3  1  0.89620500  0.98683600  0.14483700  1
  Cl  Cl4  1  0.28930000  0.63923500  0.01109300  1
  Cl  Cl5  1  0.78930000  0.86076500  0.98890700  1
  Cl  Cl6  1  0.71070000  0.36076500  0.98890700  1
  Cl  Cl7  1  0.21070000  0.13923500  0.01109300  1
  Cl  Cl8  1  0.65386800  0.97226600  0.36331300  1
  Cl  Cl9  1  0.15386800  0.52773400  0.63668700  1
  Cl  Cl10  1  0.34613200  0.02773400  0.63668700  1
  Cl  Cl11  1  0.84613200  0.47226600  0.36331300  1
  Cl  Cl12  1  0.28918200  0.85982300  0.52398800  1
  Cl  Cl13  1  0.78918200  0.64017700  0.47601200  1
  Cl  Cl14  1  0.71081800  0.14017700  0.47601200  1
  Cl  Cl15  1  0.21081800  0.35982300  0.52398800  1
loop_
_geom_bond_atom_site_label_1
_geom_bond_atom_site_label_2
_geom_bond_distance
_geom_bond_site_symmetry_2
Au0 Cl0 2.295223 1_555
Au0 Cl2 2.295223 1_554
Au0 Cl4 2.302981 1_555
Au0 Cl6 2.302981 1_554
Au1 Cl1 2.295223 1_554
Au1 Cl3 2.295223 1_445
Au1 Cl7 2.302981 1_555
Au1 Cl5 2.302981 1_444
Au2 Cl10 2.299275 1_555
Au2 Cl8 2.299275 1_545
Au2 Cl14 2.300319 1_555
Au2 Cl12 2.300319 1_545
Au3 Cl9 2.299275 1_555
Au3 Cl11 2.299275 1_455
Au3 Cl15 2.300319 1_555
Au3 Cl13 2.300319 1_455
C0 N8 1.355360 1_555
C0 N4 1.357391 1_555
C0 N0 1.359746 1_555
C1 N9 1.355360 1_555
C1 N5 1.357391 1_555
C1 N1 1.359746 1_555
C2 N10 1.355360 1_555
C2 N6 1.357391 1_555
C2 N2 1.359746 1_555
C3 N11 1.355360 1_555
C3 N7 1.357391 1_555
C3 N3 1.359746 1_555
