# generated using pymatgen
data_Y2Cr3O9
_symmetry_space_group_name_H-M   'P 1'
_cell_length_a   3.77515300
_cell_length_b   3.77513654
_cell_length_c   11.53458728
_cell_angle_alpha   90.00053219
_cell_angle_beta   90.00026570
_cell_angle_gamma   89.99999651
_symmetry_Int_Tables_number   1
_chemical_formula_structural   Y2Cr3O9
_chemical_formula_sum   'Y2 Cr3 O9'
_cell_volume   164.38768558
_cell_formula_units_Z   1
loop_
 _symmetry_equiv_pos_site_id
 _symmetry_equiv_pos_as_xyz
  1  'x, y, z'
loop_
 _atom_site_type_symbol
 _atom_site_label
 _atom_site_symmetry_multiplicity
 _atom_site_fract_x
 _atom_site_fract_y
 _atom_site_fract_z
 _atom_site_occupancy
  Y  Y0  1  0.00000100  0.00002500  0.97783600  1
  Y  Y1  1  0.00000400  0.99997300  0.35545300  1
  Cr  Cr0  1  0.49999300  0.49999700  0.16666000  1
  Cr  Cr1  1  0.50000100  0.50000500  0.51416000  1
  Cr  Cr2  1  0.49999600  0.50000700  0.81919100  1
  O  O0  1  0.50000400  0.49998400  0.99963800  1
  O  O1  1  0.50000800  0.50000500  0.33369400  1
  O  O2  1  0.50000200  0.50000100  0.66668100  1
  O  O3  1  0.50000000  0.99999800  0.16666100  1
  O  O4  1  0.50000200  0.00000000  0.48053900  1
  O  O5  1  0.50000000  0.00000600  0.85281200  1
  O  O6  1  0.99999600  0.49999900  0.16665900  1
  O  O7  1  0.00000300  0.49998500  0.48053500  1
  O  O8  1  0.99999900  0.50001400  0.85281500  1
loop_
_geom_bond_atom_site_label_1
_geom_bond_atom_site_label_2
_geom_bond_distance
_geom_bond_site_symmetry_2
Cr0 O3 1.887564 1_545
Cr0 O6 1.887565 1_455
Cr0 O3 1.887572 1_555
Cr0 O6 1.887588 1_555
Cr0 O0 1.926530 1_554
Cr0 O1 1.926668 1_555
Cr1 O2 1.759267 1_555
Cr1 O4 1.926979 1_565
Cr1 O7 1.927002 1_555
Cr1 O4 1.927009 1_555
Cr1 O7 1.927021 1_655
Cr1 O1 2.081601 1_555
Cr2 O2 1.759140 1_555
Cr2 O5 1.926987 1_565
Cr2 O8 1.927000 1_455
Cr2 O5 1.927001 1_555
Cr2 O8 1.927018 1_555
Cr2 O0 2.081382 1_555
O0 Y0 2.681132 1_655
O0 Y0 2.681146 1_555
O0 Y0 2.681353 1_665
O0 Y0 2.681367 1_565
O1 Y1 2.681105 1_655
O1 Y1 2.681128 1_555
O1 Y1 2.681278 1_645
O1 Y1 2.681301 1_545
O3 Y1 2.881845 1_555
O3 Y1 2.881852 1_655
O3 Y0 2.882127 1_564
O3 Y0 2.882145 1_664
O4 Y1 2.375838 1_545
O4 Y1 2.375861 1_645
O5 Y0 2.375413 1_655
O5 Y0 2.375418 1_555
O6 Y1 2.881783 1_655
O6 Y1 2.881938 1_645
O6 Y0 2.882036 1_654
O6 Y0 2.882191 1_664
O7 Y1 2.375790 1_555
O7 Y1 2.375840 1_545
O8 Y0 2.375365 1_655
O8 Y0 2.375410 1_665
