# generated using pymatgen
data_CsPtBr3
_symmetry_space_group_name_H-M   'P 1'
_cell_length_a   5.14212400
_cell_length_b   11.55372100
_cell_length_c   16.00263000
_cell_angle_alpha   90.00000000
_cell_angle_beta   90.00000000
_cell_angle_gamma   90.00000000
_symmetry_Int_Tables_number   1
_chemical_formula_structural   CsPtBr3
_chemical_formula_sum   'Cs4 Pt4 Br12'
_cell_volume   950.72690675
_cell_formula_units_Z   4
loop_
 _symmetry_equiv_pos_site_id
 _symmetry_equiv_pos_as_xyz
  1  'x, y, z'
loop_
 _atom_site_type_symbol
 _atom_site_label
 _atom_site_symmetry_multiplicity
 _atom_site_fract_x
 _atom_site_fract_y
 _atom_site_fract_z
 _atom_site_occupancy
  Cs  Cs0  1  0.75000000  0.25735600  0.95607300  1
  Cs  Cs1  1  0.25000000  0.74264400  0.04392700  1
  Cs  Cs2  1  0.75000000  0.24264400  0.45607300  1
  Cs  Cs3  1  0.25000000  0.75735600  0.54392700  1
  Pt  Pt0  1  0.25000000  0.29412100  0.69197700  1
  Pt  Pt1  1  0.75000000  0.70587900  0.30802300  1
  Pt  Pt2  1  0.25000000  0.20587900  0.19197700  1
  Pt  Pt3  1  0.75000000  0.79412100  0.80802300  1
  Br  Br0  1  0.25000000  0.17524100  0.81723700  1
  Br  Br1  1  0.75000000  0.82475900  0.18276300  1
  Br  Br2  1  0.25000000  0.32475900  0.31723700  1
  Br  Br3  1  0.75000000  0.67524100  0.68276300  1
  Br  Br4  1  0.25000000  0.40781100  0.56340200  1
  Br  Br5  1  0.75000000  0.59218900  0.43659800  1
  Br  Br6  1  0.25000000  0.09218900  0.06340200  1
  Br  Br7  1  0.75000000  0.90781100  0.93659800  1
  Br  Br8  1  0.75000000  0.26974400  0.68815800  1
  Br  Br9  1  0.25000000  0.73025600  0.31184200  1
  Br  Br10  1  0.75000000  0.23025600  0.18815800  1
  Br  Br11  1  0.25000000  0.76974400  0.81184200  1
loop_
_geom_bond_atom_site_label_1
_geom_bond_atom_site_label_2
_geom_bond_distance
_geom_bond_site_symmetry_2
Br0 Pt0 2.429917 1_555
Br0 Cs0 3.527972 1_455
Br0 Cs0 3.527972 1_555
Br1 Pt1 2.429917 1_555
Br1 Cs1 3.527972 1_555
Br1 Cs1 3.527972 1_655
Br2 Pt2 2.429917 1_555
Br2 Cs2 3.527972 1_455
Br2 Cs2 3.527972 1_555
Br3 Pt3 2.429917 1_555
Br3 Cs3 3.527972 1_655
Br3 Cs3 3.527972 1_555
Br4 Pt0 2.441077 1_555
Br4 Cs2 3.633443 1_455
Br4 Cs2 3.633443 1_555
Br4 Cs3 4.050552 1_555
Br5 Pt1 2.441077 1_555
Br5 Cs3 3.633443 1_555
Br5 Cs3 3.633443 1_655
Br5 Cs2 4.050552 1_555
Br6 Pt2 2.441077 1_555
Br6 Cs0 3.633443 1_454
Br6 Cs0 3.633443 1_554
Br6 Cs1 4.050552 1_545
Br7 Pt3 2.441077 1_555
Br7 Cs1 3.633443 1_656
Br7 Cs1 3.633443 1_556
Br7 Cs0 4.050552 1_565
Br8 Pt0 2.587164 1_655
Br8 Pt0 2.587164 1_555
Br8 Cs2 3.727145 1_555
Br9 Pt1 2.587164 1_555
Br9 Pt1 2.587164 1_455
Br9 Cs3 3.727145 1_555
Br10 Pt2 2.587164 1_655
Br10 Pt2 2.587164 1_555
Br10 Cs0 3.727145 1_554
Br11 Pt3 2.587164 1_555
Br11 Pt3 2.587164 1_455
Br11 Cs1 3.727145 1_556
