# generated using pymatgen
data_Ho2Cu4Br13N3
_symmetry_space_group_name_H-M   'P 1'
_cell_length_a   11.02261800
_cell_length_b   11.02261800
_cell_length_c   11.02261800
_cell_angle_alpha   90.00000000
_cell_angle_beta   90.00000000
_cell_angle_gamma   90.00000000
_symmetry_Int_Tables_number   1
_chemical_formula_structural   Ho2Cu4Br13N3
_chemical_formula_sum   'Ho4 Cu8 Br26 N6'
_cell_volume   1339.22722751
_cell_formula_units_Z   2
loop_
 _symmetry_equiv_pos_site_id
 _symmetry_equiv_pos_as_xyz
  1  'x, y, z'
loop_
 _atom_site_type_symbol
 _atom_site_label
 _atom_site_symmetry_multiplicity
 _atom_site_fract_x
 _atom_site_fract_y
 _atom_site_fract_z
 _atom_site_occupancy
  Ho  Ho0  1  0.75000000  0.75000000  0.75000000  1
  Ho  Ho1  1  0.25000000  0.75000000  0.25000000  1
  Ho  Ho2  1  0.25000000  0.25000000  0.75000000  1
  Ho  Ho3  1  0.75000000  0.25000000  0.25000000  1
  Cu  Cu0  1  0.63072500  0.36927500  0.63072500  1
  Cu  Cu1  1  0.36927500  0.36927500  0.36927500  1
  Cu  Cu2  1  0.36927500  0.63072500  0.63072500  1
  Cu  Cu3  1  0.63072500  0.63072500  0.36927500  1
  Cu  Cu4  1  0.86927500  0.13072500  0.86927500  1
  Cu  Cu5  1  0.13072500  0.13072500  0.13072500  1
  Cu  Cu6  1  0.13072500  0.86927500  0.86927500  1
  Cu  Cu7  1  0.86927500  0.86927500  0.13072500  1
  Br  Br0  1  0.77788400  0.72529400  0.49961800  1
  Br  Br1  1  0.22211600  0.72529400  0.50038200  1
  Br  Br2  1  0.22211600  0.27470600  0.49961800  1
  Br  Br3  1  0.77788400  0.27470600  0.50038200  1
  Br  Br4  1  0.49961800  0.77788400  0.72529400  1
  Br  Br5  1  0.50038200  0.22211600  0.72529400  1
  Br  Br6  1  0.49961800  0.22211600  0.27470600  1
  Br  Br7  1  0.50038200  0.77788400  0.27470600  1
  Br  Br8  1  0.72529400  0.49961800  0.77788400  1
  Br  Br9  1  0.72529400  0.50038200  0.22211600  1
  Br  Br10  1  0.27470600  0.49961800  0.22211600  1
  Br  Br11  1  0.27470600  0.50038200  0.77788400  1
  Br  Br12  1  0.72211600  0.77470600  0.00038200  1
  Br  Br13  1  0.27788400  0.77470600  0.99961800  1
  Br  Br14  1  0.27788400  0.22529400  0.00038200  1
  Br  Br15  1  0.72211600  0.22529400  0.99961800  1
  Br  Br16  1  0.00038200  0.72211600  0.77470600  1
  Br  Br17  1  0.99961800  0.27788400  0.77470600  1
  Br  Br18  1  0.00038200  0.27788400  0.22529400  1
  Br  Br19  1  0.99961800  0.72211600  0.22529400  1
  Br  Br20  1  0.77470600  0.00038200  0.72211600  1
  Br  Br21  1  0.77470600  0.99961800  0.27788400  1
  Br  Br22  1  0.22529400  0.00038200  0.27788400  1
  Br  Br23  1  0.22529400  0.99961800  0.72211600  1
  Br  Br24  1  0.50000000  0.50000000  0.50000000  1
  Br  Br25  1  0.00000000  0.00000000  0.00000000  1
  N  N0  1  0.00000000  0.50000000  0.50000000  1
  N  N1  1  0.50000000  0.00000000  0.50000000  1
  N  N2  1  0.50000000  0.50000000  0.00000000  1
  N  N3  1  0.50000000  0.00000000  0.00000000  1
  N  N4  1  0.00000000  0.50000000  0.00000000  1
  N  N5  1  0.00000000  0.00000000  0.50000000  1
loop_
_geom_bond_atom_site_label_1
_geom_bond_atom_site_label_2
_geom_bond_distance
_geom_bond_site_symmetry_2
Br0 Cu3 2.404557 1_555
Br0 Ho0 2.790248 1_555
Br1 Cu2 2.404557 1_555
Br1 Ho1 2.790248 1_555
Br2 Cu1 2.404557 1_555
Br2 Ho2 2.790248 1_555
Br3 Cu0 2.404557 1_555
Br3 Ho3 2.790248 1_555
Br4 Cu2 2.404557 1_555
Br4 Ho0 2.790248 1_555
Br5 Cu0 2.404557 1_555
Br5 Ho2 2.790248 1_555
Br6 Cu1 2.404557 1_555
Br6 Ho3 2.790248 1_555
Br7 Cu3 2.404557 1_555
Br7 Ho1 2.790248 1_555
Br8 Cu0 2.404557 1_555
Br8 Ho0 2.790248 1_555
Br9 Cu3 2.404557 1_555
Br9 Ho3 2.790248 1_555
Br10 Cu1 2.404557 1_555
Br10 Ho1 2.790248 1_555
Br11 Cu2 2.404557 1_555
Br11 Ho2 2.790248 1_555
Br12 Cu7 2.404557 1_555
Br12 Ho0 2.790248 1_554
Br13 Cu6 2.404557 1_555
Br13 Ho1 2.790248 1_556
Br14 Cu5 2.404557 1_555
Br14 Ho2 2.790248 1_554
Br15 Cu4 2.404557 1_555
Br15 Ho3 2.790248 1_556
Br16 Cu6 2.404557 1_555
Br16 Ho0 2.790248 1_455
Br17 Cu4 2.404557 1_555
Br17 Ho2 2.790248 1_655
Br18 Cu5 2.404557 1_555
Br18 Ho3 2.790248 1_455
Br19 Cu7 2.404557 1_555
Br19 Ho1 2.790248 1_655
Br20 Cu4 2.404557 1_555
Br20 Ho0 2.790248 1_545
Br21 Cu7 2.404557 1_555
Br21 Ho3 2.790248 1_565
Br22 Cu5 2.404557 1_555
Br22 Ho1 2.790248 1_545
Br23 Cu6 2.404557 1_555
Br23 Ho2 2.790248 1_565
Br24 Cu3 2.495767 1_555
Br24 Cu0 2.495767 1_555
Br24 Cu2 2.495767 1_555
Br24 Cu1 2.495767 1_555
Br25 Cu5 2.495767 1_555
Br25 Cu6 2.495767 1_544
Br25 Cu7 2.495767 1_445
Br25 Cu4 2.495767 1_454
