# generated using pymatgen
data_PrY
_symmetry_space_group_name_H-M   'P 1'
_cell_length_a   7.42593311
_cell_length_b   7.42593311
_cell_length_c   11.86991082
_cell_angle_alpha   90.00000000
_cell_angle_beta   90.00000000
_cell_angle_gamma   120.00000311
_symmetry_Int_Tables_number   1
_chemical_formula_structural   PrY
_chemical_formula_sum   'Pr8 Y8'
_cell_volume   566.86564845
_cell_formula_units_Z   8
loop_
 _symmetry_equiv_pos_site_id
 _symmetry_equiv_pos_as_xyz
  1  'x, y, z'
loop_
 _atom_site_type_symbol
 _atom_site_label
 _atom_site_symmetry_multiplicity
 _atom_site_fract_x
 _atom_site_fract_y
 _atom_site_fract_z
 _atom_site_occupancy
  Pr  Pr0_0  1  1.00000000  0.00000001  0.00000000  1
  Pr  Pr0_1  1  1.00000000  0.00000001  0.50000000  1
  Pr  Pr0_2  1  1.00000000  0.50000000  0.00000000  1
  Pr  Pr0_3  1  1.00000000  0.50000000  0.50000000  1
  Pr  Pr0_4  1  0.50000000  0.00000000  0.00000000  1
  Pr  Pr0_5  1  0.50000000  0.00000000  0.50000000  1
  Pr  Pr0_6  1  0.49999999  0.50000000  0.00000000  1
  Pr  Pr0_7  1  0.49999999  0.50000000  0.50000000  1
  Y  Y0_0  1  0.16666651  0.33333349  0.25000000  1
  Y  Y0_1  1  0.16666651  0.33333349  0.75000000  1
  Y  Y0_2  1  0.16666651  0.83333349  0.25000000  1
  Y  Y0_3  1  0.16666651  0.83333349  0.75000000  1
  Y  Y0_4  1  0.66666651  0.33333349  0.25000000  1
  Y  Y0_5  1  0.66666651  0.33333349  0.75000000  1
  Y  Y0_6  1  0.66666651  0.83333349  0.25000000  1
  Y  Y0_7  1  0.66666651  0.83333349  0.75000000  1
loop_
_geom_bond_atom_site_label_1
_geom_bond_atom_site_label_2
_geom_bond_distance
_geom_bond_site_symmetry_2
Pr0_0 Y0_3 3.660777 1_644
Pr0_0 Y0_2 3.660777 1_645
Pr0_0 Y0_0 3.660779 1_655
Pr0_0 Y0_1 3.660779 1_654
Pr0_0 Y0_6 3.660779 1_545
Pr0_0 Y0_7 3.660779 1_544
Pr0_0 Pr0_6 3.712966 1_655
Pr0_0 Pr0_6 3.712966 1_545
Pr0_0 Pr0_2 3.712967 1_555
Pr0_0 Pr0_2 3.712967 1_545
Pr0_0 Pr0_4 3.712967 1_555
Pr0_0 Pr0_4 3.712967 1_655
Pr0_1 Y0_3 3.660777 1_645
Pr0_1 Y0_2 3.660777 1_645
Pr0_1 Y0_0 3.660779 1_655
Pr0_1 Y0_1 3.660779 1_655
Pr0_1 Y0_6 3.660779 1_545
Pr0_1 Y0_7 3.660779 1_545
Pr0_1 Pr0_7 3.712966 1_655
Pr0_1 Pr0_7 3.712966 1_545
Pr0_1 Pr0_3 3.712967 1_555
Pr0_1 Pr0_3 3.712967 1_545
Pr0_1 Pr0_5 3.712967 1_555
Pr0_1 Pr0_5 3.712967 1_655
Pr0_2 Y0_0 3.660777 1_655
Pr0_2 Y0_1 3.660777 1_654
Pr0_2 Y0_2 3.660779 1_655
Pr0_2 Y0_5 3.660779 1_554
Pr0_2 Y0_4 3.660779 1_555
Pr0_2 Y0_3 3.660779 1_654
Pr0_2 Pr0_4 3.712966 1_555
Pr0_2 Pr0_4 3.712966 1_665
Pr0_2 Pr0_6 3.712967 1_655
Pr0_2 Pr0_6 3.712967 1_555
Pr0_3 Y0_1 3.660777 1_655
Pr0_3 Y0_0 3.660777 1_655
Pr0_3 Y0_4 3.660779 1_555
Pr0_3 Y0_2 3.660779 1_655
Pr0_3 Y0_3 3.660779 1_655
Pr0_3 Y0_5 3.660779 1_555
Pr0_3 Pr0_5 3.712966 1_665
Pr0_3 Pr0_5 3.712966 1_555
Pr0_3 Pr0_7 3.712967 1_655
Pr0_3 Pr0_7 3.712967 1_555
Pr0_4 Y0_6 3.660777 1_545
Pr0_4 Y0_7 3.660777 1_544
Pr0_4 Y0_2 3.660779 1_545
Pr0_4 Y0_3 3.660779 1_544
Pr0_4 Y0_5 3.660779 1_554
Pr0_4 Y0_4 3.660779 1_555
Pr0_4 Pr0_6 3.712967 1_545
Pr0_4 Pr0_6 3.712967 1_555
Pr0_5 Y0_6 3.660777 1_545
Pr0_5 Y0_7 3.660777 1_545
Pr0_5 Y0_2 3.660779 1_545
Pr0_5 Y0_3 3.660779 1_545
Pr0_5 Y0_4 3.660779 1_555
Pr0_5 Y0_5 3.660779 1_555
Pr0_5 Pr0_7 3.712967 1_545
Pr0_5 Pr0_7 3.712967 1_555
Pr0_6 Y0_4 3.660777 1_555
Pr0_6 Y0_5 3.660777 1_554
Pr0_6 Y0_1 3.660779 1_554
Pr0_6 Y0_0 3.660779 1_555
Pr0_6 Y0_7 3.660779 1_554
Pr0_6 Y0_6 3.660779 1_555
Pr0_7 Y0_4 3.660777 1_555
Pr0_7 Y0_5 3.660777 1_555
Pr0_7 Y0_0 3.660779 1_555
Pr0_7 Y0_6 3.660779 1_555
Pr0_7 Y0_7 3.660779 1_555
Pr0_7 Y0_1 3.660779 1_555
Y0_0 Y0_6 3.712966 1_445
Y0_0 Y0_6 3.712966 1_555
Y0_0 Y0_2 3.712967 1_555
Y0_0 Y0_2 3.712967 1_545
Y0_0 Y0_4 3.712967 1_455
Y0_0 Y0_4 3.712967 1_555
Y0_1 Y0_7 3.712966 1_445
Y0_1 Y0_7 3.712966 1_555
Y0_1 Y0_5 3.712967 1_555
Y0_1 Y0_3 3.712967 1_545
Y0_1 Y0_5 3.712967 1_455
Y0_1 Y0_3 3.712967 1_555
Y0_2 Y0_4 3.712966 1_565
Y0_2 Y0_4 3.712966 1_455
Y0_2 Y0_6 3.712967 1_455
Y0_2 Y0_6 3.712967 1_555
Y0_3 Y0_5 3.712966 1_565
Y0_3 Y0_5 3.712966 1_455
Y0_3 Y0_7 3.712967 1_555
Y0_3 Y0_7 3.712967 1_455
Y0_4 Y0_6 3.712967 1_555
Y0_4 Y0_6 3.712967 1_545
Y0_5 Y0_7 3.712967 1_545
Y0_5 Y0_7 3.712967 1_555
