# generated using pymatgen
data_Mn2Tl2(MoO4)3
_symmetry_space_group_name_H-M   'P 1'
_cell_length_a   11.15984200
_cell_length_b   11.15984200
_cell_length_c   11.15984200
_cell_angle_alpha   90.00000000
_cell_angle_beta   90.00000000
_cell_angle_gamma   90.00000000
_symmetry_Int_Tables_number   1
_chemical_formula_structural   Mn2Tl2(MoO4)3
_chemical_formula_sum   'Mn8 Tl8 Mo12 O48'
_cell_volume   1389.86986222
_cell_formula_units_Z   4
loop_
 _symmetry_equiv_pos_site_id
 _symmetry_equiv_pos_as_xyz
  1  'x, y, z'
loop_
 _atom_site_type_symbol
 _atom_site_label
 _atom_site_symmetry_multiplicity
 _atom_site_fract_x
 _atom_site_fract_y
 _atom_site_fract_z
 _atom_site_occupancy
  Mn  Mn0  1  0.33557200  0.33557200  0.33557200  1
  Mn  Mn1  1  0.16442800  0.66442800  0.83557200  1
  Mn  Mn2  1  0.66442800  0.83557200  0.16442800  1
  Mn  Mn3  1  0.83557200  0.16442800  0.66442800  1
  Mn  Mn4  1  0.60600500  0.60600500  0.60600500  1
  Mn  Mn5  1  0.89399500  0.39399500  0.10600500  1
  Mn  Mn6  1  0.39399500  0.10600500  0.89399500  1
  Mn  Mn7  1  0.10600500  0.89399500  0.39399500  1
  Tl  Tl0  1  0.05929200  0.05929200  0.05929200  1
  Tl  Tl1  1  0.44070800  0.94070800  0.55929200  1
  Tl  Tl2  1  0.94070800  0.55929200  0.44070800  1
  Tl  Tl3  1  0.55929200  0.44070800  0.94070800  1
  Tl  Tl4  1  0.82422500  0.82422500  0.82422500  1
  Tl  Tl5  1  0.67577500  0.17577500  0.32422500  1
  Tl  Tl6  1  0.17577500  0.32422500  0.67577500  1
  Tl  Tl7  1  0.32422500  0.67577500  0.17577500  1
  Mo  Mo0  1  0.02183100  0.21013800  0.37695900  1
  Mo  Mo1  1  0.47816900  0.78986200  0.87695900  1
  Mo  Mo2  1  0.97816900  0.71013800  0.12304100  1
  Mo  Mo3  1  0.37695900  0.02183100  0.21013800  1
  Mo  Mo4  1  0.52183100  0.28986200  0.62304100  1
  Mo  Mo5  1  0.87695900  0.47816900  0.78986200  1
  Mo  Mo6  1  0.12304100  0.97816900  0.71013800  1
  Mo  Mo7  1  0.62304100  0.52183100  0.28986200  1
  Mo  Mo8  1  0.21013800  0.37695900  0.02183100  1
  Mo  Mo9  1  0.71013800  0.12304100  0.97816900  1
  Mo  Mo10  1  0.28986200  0.62304100  0.52183100  1
  Mo  Mo11  1  0.78986200  0.87695900  0.47816900  1
  O  O0  1  0.01924600  0.05760100  0.32181700  1
  O  O1  1  0.48075400  0.94239900  0.82181700  1
  O  O2  1  0.98075400  0.55760100  0.17818300  1
  O  O3  1  0.32181700  0.01924600  0.05760100  1
  O  O4  1  0.51924600  0.44239900  0.67818300  1
  O  O5  1  0.82181700  0.48075400  0.94239900  1
  O  O6  1  0.17818300  0.98075400  0.55760100  1
  O  O7  1  0.67818300  0.51924600  0.44239900  1
  O  O8  1  0.05760100  0.32181700  0.01924600  1
  O  O9  1  0.55760100  0.17818300  0.98075400  1
  O  O10  1  0.44239900  0.67818300  0.51924600  1
  O  O11  1  0.94239900  0.82181700  0.48075400  1
  O  O12  1  0.27498600  0.48699200  0.43859600  1
  O  O13  1  0.22501400  0.51300800  0.93859600  1
  O  O14  1  0.72501400  0.98699200  0.06140400  1
  O  O15  1  0.43859600  0.27498600  0.48699200  1
  O  O16  1  0.77498600  0.01300800  0.56140400  1
  O  O17  1  0.93859600  0.22501400  0.51300800  1
  O  O18  1  0.06140400  0.72501400  0.98699200  1
  O  O19  1  0.56140400  0.77498600  0.01300800  1
  O  O20  1  0.48699200  0.43859600  0.27498600  1
  O  O21  1  0.98699200  0.06140400  0.72501400  1
  O  O22  1  0.01300800  0.56140400  0.77498600  1
  O  O23  1  0.51300800  0.93859600  0.22501400  1
  O  O24  1  0.04932800  0.80524200  0.23142500  1
  O  O25  1  0.45067200  0.19475800  0.73142500  1
  O  O26  1  0.95067200  0.30524200  0.26857500  1
  O  O27  1  0.23142500  0.04932800  0.80524200  1
  O  O28  1  0.54932800  0.69475800  0.76857500  1
  O  O29  1  0.73142500  0.45067200  0.19475800  1
  O  O30  1  0.26857500  0.95067200  0.30524200  1
  O  O31  1  0.76857500  0.54932800  0.69475800  1
  O  O32  1  0.80524200  0.23142500  0.04932800  1
  O  O33  1  0.30524200  0.26857500  0.95067200  1
  O  O34  1  0.69475800  0.76857500  0.54932800  1
  O  O35  1  0.19475800  0.73142500  0.45067200  1
  O  O36  1  0.17318500  0.25654100  0.40623800  1
  O  O37  1  0.32681500  0.74345900  0.90623800  1
  O  O38  1  0.82681500  0.75654100  0.09376200  1
  O  O39  1  0.40623800  0.17318500  0.25654100  1
  O  O40  1  0.67318500  0.24345900  0.59376200  1
  O  O41  1  0.90623800  0.32681500  0.74345900  1
  O  O42  1  0.09376200  0.82681500  0.75654100  1
  O  O43  1  0.59376200  0.67318500  0.24345900  1
  O  O44  1  0.25654100  0.40623800  0.17318500  1
  O  O45  1  0.75654100  0.09376200  0.82681500  1
  O  O46  1  0.24345900  0.59376200  0.67318500  1
  O  O47  1  0.74345900  0.90623800  0.32681500  1
loop_
_geom_bond_atom_site_label_1
_geom_bond_atom_site_label_2
_geom_bond_distance
_geom_bond_site_symmetry_2
Mn0 O15 2.152798 1_555
Mn0 O12 2.152798 1_555
Mn0 O20 2.152798 1_555
Mn0 O44 2.164236 1_555
Mn0 O36 2.164236 1_555
Mn0 O39 2.164236 1_555
Mn1 O18 2.152798 1_555
Mn1 O13 2.152798 1_555
Mn1 O22 2.152798 1_555
Mn1 O37 2.164236 1_555
Mn1 O42 2.164236 1_555
Mn1 O46 2.164236 1_555
Mn2 O14 2.152798 1_555
Mn2 O23 2.152798 1_555
Mn2 O19 2.152798 1_555
Mn2 O47 2.164236 1_555
Mn2 O38 2.164236 1_555
Mn2 O43 2.164236 1_555
Mn3 O21 2.152798 1_555
Mn3 O17 2.152798 1_555
Mn3 O16 2.152798 1_555
Mn3 O41 2.164236 1_555
Mn3 O45 2.164236 1_555
Mn3 O40 2.164236 1_555
Mn4 O34 2.161624 1_555
Mn4 O31 2.161624 1_555
Mn4 O28 2.161624 1_555
Mn4 O4 2.218079 1_555
Mn4 O7 2.218079 1_555
Mn4 O10 2.218079 1_555
Mn5 O29 2.161624 1_555
Mn5 O32 2.161624 1_555
Mn5 O26 2.161624 1_555
Mn5 O2 2.218079 1_555
Mn5 O5 2.218079 1_554
Mn5 O8 2.218079 1_655
Mn6 O25 2.161624 1_555
Mn6 O33 2.161624 1_555
Mn6 O27 2.161624 1_555
Mn6 O9 2.218079 1_555
Mn6 O1 2.218079 1_545
Mn6 O3 2.218079 1_556
Mn7 O35 2.161624 1_555
Mn7 O24 2.161624 1_555
Mn7 O30 2.161624 1_555
Mn7 O6 2.218079 1_555
Mn7 O11 2.218079 1_455
Mn7 O0 2.218079 1_565
Mo0 O17 1.787620 1_455
Mo0 O26 1.794462 1_455
Mo0 O36 1.796649 1_555
Mo0 O0 1.810333 1_555
Mo1 O19 1.787620 1_556
Mo1 O28 1.794462 1_555
Mo1 O37 1.796649 1_555
Mo1 O1 1.810333 1_555
Mo2 O18 1.787620 1_654
Mo2 O24 1.794462 1_655
Mo2 O38 1.796649 1_555
Mo2 O2 1.810333 1_555
Mo3 O23 1.787620 1_545
Mo3 O30 1.794462 1_545
Mo3 O39 1.796649 1_555
Mo3 O3 1.810333 1_555
Mo4 O15 1.787620 1_555
Mo4 O25 1.794462 1_555
Mo4 O40 1.796649 1_555
Mo4 O4 1.810333 1_555
Mo5 O22 1.787620 1_655
Mo5 O31 1.794462 1_555
Mo5 O41 1.796649 1_555
Mo5 O5 1.810333 1_555
Mo6 O21 1.787620 1_465
Mo6 O27 1.794462 1_565
Mo6 O42 1.796649 1_555
Mo6 O6 1.810333 1_555
Mo7 O20 1.787620 1_555
Mo7 O29 1.794462 1_555
Mo7 O43 1.796649 1_555
Mo7 O7 1.810333 1_555
Mo8 O13 1.787620 1_554
Mo8 O33 1.794462 1_554
Mo8 O44 1.796649 1_555
Mo8 O8 1.810333 1_555
Mo9 O14 1.787620 1_546
Mo9 O32 1.794462 1_556
Mo9 O45 1.796649 1_555
Mo9 O9 1.810333 1_555
Mo10 O12 1.787620 1_555
Mo10 O35 1.794462 1_555
Mo10 O46 1.796649 1_555
Mo10 O10 1.810333 1_555
Mo11 O16 1.787620 1_565
Mo11 O34 1.794462 1_555
Mo11 O47 1.796649 1_555
Mo11 O11 1.810333 1_555
