# generated using pymatgen
data_RbCd13
_symmetry_space_group_name_H-M   'P 1'
_cell_length_a   9.82888888
_cell_length_b   9.82888805
_cell_length_c   9.82888899
_cell_angle_alpha   60.00000024
_cell_angle_beta   60.00000308
_cell_angle_gamma   59.99999727
_symmetry_Int_Tables_number   1
_chemical_formula_structural   RbCd13
_chemical_formula_sum   'Rb2 Cd26'
_cell_volume   671.42614380
_cell_formula_units_Z   2
loop_
 _symmetry_equiv_pos_site_id
 _symmetry_equiv_pos_as_xyz
  1  'x, y, z'
loop_
 _atom_site_type_symbol
 _atom_site_label
 _atom_site_symmetry_multiplicity
 _atom_site_fract_x
 _atom_site_fract_y
 _atom_site_fract_z
 _atom_site_occupancy
  Rb  Rb0  1  0.25000000  0.25000000  0.25000000  1
  Rb  Rb1  1  0.75000000  0.75000000  0.75000000  1
  Cd  Cd0  1  0.19882938  0.80117062  0.44079443  1
  Cd  Cd1  1  0.69882938  0.05920557  0.94079443  1
  Cd  Cd2  1  0.94079443  0.30117062  0.69882938  1
  Cd  Cd3  1  0.69882938  0.94079443  0.30117062  1
  Cd  Cd4  1  0.05920557  0.30117062  0.94079443  1
  Cd  Cd5  1  0.05920557  0.94079443  0.69882938  1
  Cd  Cd6  1  0.94079443  0.05920557  0.30117062  1
  Cd  Cd7  1  0.44079443  0.19882938  0.80117062  1
  Cd  Cd8  1  0.80117062  0.44079443  0.19882938  1
  Cd  Cd9  1  0.55920557  0.19882938  0.44079443  1
  Cd  Cd10  1  0.80117062  0.55920557  0.44079443  1
  Cd  Cd11  1  0.55920557  0.80117062  0.19882938  1
  Cd  Cd12  1  0.44079443  0.80117062  0.55920557  1
  Cd  Cd13  1  0.19882938  0.44079443  0.55920557  1
  Cd  Cd14  1  0.19882938  0.55920557  0.80117062  1
  Cd  Cd15  1  0.94079443  0.69882938  0.05920557  1
  Cd  Cd16  1  0.30117062  0.94079443  0.05920557  1
  Cd  Cd17  1  0.30117062  0.69882938  0.94079443  1
  Cd  Cd18  1  0.69882938  0.30117062  0.05920557  1
  Cd  Cd19  1  0.05920557  0.69882938  0.30117062  1
  Cd  Cd20  1  0.30117062  0.05920557  0.69882938  1
  Cd  Cd21  1  0.44079443  0.55920557  0.19882938  1
  Cd  Cd22  1  0.55920557  0.44079443  0.80117062  1
  Cd  Cd23  1  0.80117062  0.19882938  0.55920557  1
  Cd  Cd24  1  -0.00000000  -0.00000000  -0.00000000  1
  Cd  Cd25  1  0.50000000  0.50000000  0.50000000  1
loop_
_geom_bond_atom_site_label_1
_geom_bond_atom_site_label_2
_geom_bond_distance
_geom_bond_site_symmetry_2
Cd0 Cd6 2.883683 1_465
Cd0 Cd5 2.883683 1_555
Cd0 Cd25 3.016829 1_555
Cd0 Cd19 3.069647 1_555
Cd0 Cd16 3.069647 1_555
Cd0 Cd13 3.127064 1_555
Cd0 Cd12 3.127064 1_555
Cd0 Cd14 3.127064 1_555
Cd0 Cd11 3.127065 1_555
Cd0 Cd21 3.363350 1_555
Cd0 Rb0 4.029106 1_565
Cd0 Rb1 4.029106 1_455
Cd1 Cd7 2.883683 1_555
Cd1 Cd11 2.883683 1_546
Cd1 Cd24 3.016829 1_656
Cd1 Cd22 3.069647 1_555
Cd1 Cd23 3.069647 1_555
Cd1 Cd15 3.127064 1_546
Cd1 Cd18 3.127064 1_556
Cd1 Cd5 3.127064 1_645
Cd1 Cd3 3.127064 1_546
Cd1 Cd2 3.363350 1_555
Cd1 Rb1 4.029106 1_545
Cd1 Rb0 4.029106 1_556
Cd2 Cd24 3.016829 1_656
Cd2 Cd23 3.069647 1_555
Cd2 Cd22 3.069647 1_555
Cd2 Cd5 3.127064 1_645
Cd2 Cd20 3.127064 1_655
Cd2 Cd4 3.127064 1_655
Cd2 Rb1 4.029106 1_555
Cd2 Rb0 4.029106 1_655
Cd3 Cd9 2.883683 1_565
Cd3 Cd6 3.127064 1_565
Cd3 Rb0 4.029106 1_565
Cd3 Rb1 4.029106 1_555
Cd4 Cd8 2.883684 1_456
Cd4 Cd7 3.069647 1_555
Cd4 Cd6 3.127064 1_456
Cd4 Rb1 4.029106 1_455
Cd4 Rb0 4.029106 1_556
Cd5 Rb1 4.029106 1_455
Cd5 Rb0 4.029106 1_565
Cd6 Cd8 3.069647 1_555
Cd6 Cd9 3.069647 1_555
Cd6 Rb0 4.029106 1_655
Cd6 Rb1 4.029106 1_545
Cd7 Cd9 3.127064 1_555
Cd7 Rb1 4.029106 1_545
Cd7 Rb0 4.029106 1_556
Cd8 Cd9 3.363350 1_555
Cd8 Rb0 4.029106 1_655
Cd8 Rb1 4.029106 1_554
Cd9 Rb1 4.029106 1_545
Cd9 Rb0 4.029106 1_555
Cd10 Cd2 2.883683 1_555
Cd10 Cd19 2.883684 1_655
Cd10 Cd25 3.016829 1_555
Cd10 Cd3 3.069647 1_555
Cd10 Cd15 3.069647 1_555
Cd10 Cd23 3.127064 1_555
Cd10 Cd12 3.127064 1_555
Cd10 Cd8 3.127064 1_555
Cd10 Cd22 3.127065 1_555
Cd10 Cd11 3.363350 1_555
Cd10 Rb0 4.029106 1_655
Cd10 Rb1 4.029106 1_555
Cd11 Cd16 2.883683 1_555
Cd11 Cd25 3.016829 1_555
Cd11 Cd3 3.069647 1_555
Cd11 Cd15 3.069647 1_555
Cd11 Cd8 3.127064 1_555
Cd11 Cd21 3.127064 1_555
Cd11 Cd12 3.127064 1_555
Cd11 Rb0 4.029106 1_565
Cd11 Rb1 4.029106 1_554
Cd12 Cd20 2.883683 1_565
Cd12 Cd3 2.883684 1_555
Cd12 Cd25 3.016829 1_555
Cd12 Cd5 3.069647 1_555
Cd12 Cd17 3.069647 1_555
Cd12 Cd22 3.127064 1_555
Cd12 Cd14 3.363350 1_555
Cd12 Rb0 4.029106 1_565
Cd12 Rb1 4.029106 1_555
Cd13 Cd19 2.883683 1_555
Cd13 Cd2 2.883684 1_455
Cd13 Cd25 3.016829 1_555
Cd13 Cd20 3.069647 1_555
Cd13 Cd4 3.069647 1_555
Cd13 Cd9 3.127064 1_555
Cd13 Cd14 3.127064 1_555
Cd13 Cd21 3.127065 1_555
Cd13 Cd7 3.363350 1_555
Cd13 Rb1 4.029106 1_455
Cd13 Rb0 4.029106 1_555
Cd14 Cd4 2.883683 1_555
Cd14 Cd15 2.883684 1_456
Cd14 Cd25 3.016829 1_555
Cd14 Cd5 3.069647 1_555
Cd14 Cd17 3.069647 1_555
Cd14 Cd7 3.127064 1_555
Cd14 Cd22 3.127064 1_555
Cd14 Rb1 4.029106 1_455
Cd14 Rb0 4.029106 1_556
Cd15 Cd8 2.883683 1_555
Cd15 Cd24 3.016829 1_665
Cd15 Cd19 3.127064 1_655
Cd15 Cd5 3.127064 1_654
Cd15 Cd17 3.127064 1_654
Cd15 Cd3 3.363350 1_555
Cd15 Rb0 4.029106 1_655
Cd15 Rb1 4.029106 1_554
Cd16 Cd7 2.883683 1_564
Cd16 Cd24 3.016829 1_565
Cd16 Cd21 3.069647 1_555
Cd16 Cd4 3.127064 1_564
Cd16 Cd17 3.127064 1_554
Cd16 Cd6 3.127064 1_465
Cd16 Cd20 3.127064 1_564
Cd16 Cd19 3.363350 1_555
Cd16 Rb0 4.029106 1_565
Cd16 Rb1 4.029106 1_554
Cd17 Cd22 2.883683 1_555
Cd17 Cd21 2.883683 1_556
Cd17 Cd24 3.016829 1_566
Cd17 Cd20 3.127064 1_565
Cd17 Cd19 3.127065 1_556
Cd17 Cd5 3.363350 1_555
Cd17 Rb0 4.029106 1_556
Cd17 Rb1 4.029106 1_555
Cd18 Cd21 2.883683 1_555
Cd18 Cd22 2.883683 1_554
Cd18 Cd24 3.016829 1_655
Cd18 Cd8 3.069647 1_555
Cd18 Cd9 3.069647 1_555
Cd18 Cd3 3.127064 1_545
Cd18 Cd4 3.127064 1_654
Cd18 Cd2 3.127065 1_554
Cd18 Cd6 3.363350 1_555
Cd18 Rb1 4.029106 1_554
Cd18 Rb0 4.029106 1_555
Cd19 Cd24 3.016829 1_565
Cd19 Cd21 3.069647 1_555
Cd19 Cd6 3.127064 1_465
Cd19 Cd3 3.127064 1_455
Cd19 Rb0 4.029106 1_555
Cd19 Rb1 4.029106 1_455
Cd20 Cd9 2.883684 1_555
Cd20 Cd24 3.016829 1_556
Cd20 Cd7 3.069647 1_555
Cd20 Cd5 3.127064 1_545
Cd20 Cd4 3.363350 1_555
Cd20 Rb1 4.029106 1_545
Cd20 Rb0 4.029106 1_555
Cd21 Cd25 3.016829 1_555
Cd21 Cd9 3.127064 1_555
Cd21 Cd8 3.127064 1_555
Cd21 Rb0 4.029106 1_555
Cd21 Rb1 4.029106 1_554
Cd22 Cd25 3.016829 1_555
Cd22 Cd7 3.127064 1_555
Cd22 Cd23 3.363350 1_555
Cd22 Rb1 4.029106 1_555
Cd22 Rb0 4.029106 1_556
Cd23 Cd5 2.883683 1_645
Cd23 Cd6 2.883683 1_555
Cd23 Cd25 3.016829 1_555
Cd23 Cd9 3.127064 1_555
Cd23 Cd8 3.127064 1_555
Cd23 Cd7 3.127065 1_555
Cd23 Rb1 4.029106 1_545
Cd23 Rb0 4.029106 1_655
Cd24 Cd4 3.016829 1_554
Cd24 Cd5 3.016829 1_544
Cd24 Cd6 3.016829 1_455
Cd24 Cd3 3.016829 1_445
Cd25 Cd9 3.016829 1_555
Cd25 Cd7 3.016829 1_555
Cd25 Cd8 3.016829 1_555
