# generated using pymatgen
data_Sr2Fe2O5
_symmetry_space_group_name_H-M   'P 1'
_cell_length_a   5.63601564
_cell_length_b   5.70389204
_cell_length_c   8.84925827
_cell_angle_alpha   108.41061424
_cell_angle_beta   108.17448930
_cell_angle_gamma   91.16166127
_symmetry_Int_Tables_number   1
_chemical_formula_structural   Sr2Fe2O5
_chemical_formula_sum   'Sr4 Fe4 O10'
_cell_volume   254.21679372
_cell_formula_units_Z   2
loop_
 _symmetry_equiv_pos_site_id
 _symmetry_equiv_pos_as_xyz
  1  'x, y, z'
loop_
 _atom_site_type_symbol
 _atom_site_label
 _atom_site_symmetry_multiplicity
 _atom_site_fract_x
 _atom_site_fract_y
 _atom_site_fract_z
 _atom_site_occupancy
  Sr  Sr0  1  0.62277100  0.58817800  0.71446600  1
  Sr  Sr1  1  0.37722900  0.41182200  0.28553400  1
  Sr  Sr2  1  0.09169500  0.12628800  0.71446600  1
  Sr  Sr3  1  0.90830500  0.87371200  0.28553400  1
  Fe  Fe0  1  0.00000000  0.50000000  0.50000000  1
  Fe  Fe1  1  0.50000000  0.00000000  0.50000000  1
  Fe  Fe2  1  0.67379700  0.18587900  0.00000000  1
  Fe  Fe3  1  0.32620300  0.81412100  0.00000000  1
  O  O0  1  0.24594300  0.24594300  0.49188600  1
  O  O1  1  0.25878800  0.75878800  0.51757600  1
  O  O2  1  0.74121200  0.24121200  0.48242400  1
  O  O3  1  0.75405700  0.75405700  0.50811400  1
  O  O4  1  0.12767700  0.60363900  0.78121200  1
  O  O5  1  0.87232300  0.39636100  0.21878800  1
  O  O6  1  0.65353500  0.17757300  0.78121200  1
  O  O7  1  0.34646500  0.82242700  0.21878800  1
  O  O8  1  0.32471200  0.15528100  0.00000000  1
  O  O9  1  0.67528800  0.84471900  0.00000000  1
loop_
_geom_bond_atom_site_label_1
_geom_bond_atom_site_label_2
_geom_bond_distance
_geom_bond_site_symmetry_2
Fe0 O1 1.989108 1_555
Fe0 O2 1.989108 1_455
Fe0 O3 2.025901 1_455
Fe0 O0 2.025901 1_555
Fe0 O5 2.235272 1_455
Fe0 O4 2.235272 1_555
Fe1 O2 1.989108 1_555
Fe1 O1 1.989108 1_545
Fe1 O3 2.025901 1_545
Fe1 O0 2.025901 1_555
Fe1 O7 2.235272 1_545
Fe1 O6 2.235272 1_555
Fe2 O6 1.888843 1_554
Fe2 O5 1.888843 1_555
Fe2 O9 1.946128 1_545
Fe2 O8 1.971647 1_555
Fe3 O7 1.888843 1_555
Fe3 O4 1.888843 1_554
Fe3 O8 1.946128 1_565
Fe3 O9 1.971647 1_555
O0 Sr1 2.585157 1_555
O0 Sr3 2.585157 1_445
O0 Sr0 2.644694 1_555
O0 Sr2 2.644694 1_555
O1 Sr1 2.630680 1_555
O1 Sr3 2.630680 1_455
O1 Sr2 2.667067 1_565
O1 Sr0 2.667067 1_555
O2 Sr0 2.630680 1_555
O2 Sr2 2.630680 1_655
O2 Sr3 2.667067 1_545
O2 Sr1 2.667067 1_555
O3 Sr2 2.585157 1_665
O3 Sr0 2.585157 1_555
O3 Sr3 2.644694 1_555
O3 Sr1 2.644694 1_555
O4 Sr2 2.586596 1_555
O4 Sr0 2.713452 1_455
O4 Sr0 3.024560 1_555
O4 Sr2 3.215457 1_565
O5 Sr3 2.586596 1_555
O5 Sr1 2.713452 1_655
O5 Sr1 3.024560 1_555
O5 Sr3 3.215457 1_545
O6 Sr0 2.586596 1_555
O6 Sr2 2.713452 1_655
O6 Sr2 3.024560 1_555
O6 Sr0 3.215457 1_545
O7 Sr1 2.586596 1_555
O7 Sr3 2.713452 1_455
O7 Sr3 3.024560 1_555
O7 Sr1 3.215457 1_565
O8 Sr2 2.407028 1_554
O8 Sr1 2.407028 1_555
O9 Sr0 2.407028 1_554
O9 Sr3 2.407028 1_555
