# generated using pymatgen
data_TiP2O7
_symmetry_space_group_name_H-M   'P 1'
_cell_length_a   8.69302700
_cell_length_b   6.90017600
_cell_length_c   9.62651560
_cell_angle_alpha   74.11222029
_cell_angle_beta   90.00000000
_cell_angle_gamma   90.00000000
_symmetry_Int_Tables_number   1
_chemical_formula_structural   TiP2O7
_chemical_formula_sum   'Ti4 P8 O28'
_cell_volume   555.37325492
_cell_formula_units_Z   4
loop_
 _symmetry_equiv_pos_site_id
 _symmetry_equiv_pos_as_xyz
  1  'x, y, z'
loop_
 _atom_site_type_symbol
 _atom_site_label
 _atom_site_symmetry_multiplicity
 _atom_site_fract_x
 _atom_site_fract_y
 _atom_site_fract_z
 _atom_site_occupancy
  Ti  Ti0  1  0.07774900  0.70120200  0.20017100  1
  Ti  Ti1  1  0.42225100  0.70120200  0.70017100  1
  Ti  Ti2  1  0.57774900  0.29879800  0.29982900  1
  Ti  Ti3  1  0.92225100  0.29879800  0.79982900  1
  P  P0  1  0.71711600  0.52630000  0.53693100  1
  P  P1  1  0.24913600  0.10635000  0.23235100  1
  P  P2  1  0.74913600  0.89365000  0.26764900  1
  P  P3  1  0.25086400  0.10635000  0.73235100  1
  P  P4  1  0.78288400  0.52630000  0.03693100  1
  P  P5  1  0.75086400  0.89365000  0.76764900  1
  P  P6  1  0.21711600  0.47370000  0.96306900  1
  P  P7  1  0.28288400  0.47370000  0.46306900  1
  O  O0  1  0.12818900  0.53263000  0.37886800  1
  O  O1  1  0.23727400  0.25941800  0.06965500  1
  O  O2  1  0.27205100  0.89934400  0.69746800  1
  O  O3  1  0.07702900  0.12336900  0.77145600  1
  O  O4  1  0.87181100  0.46737000  0.62113200  1
  O  O5  1  0.76272600  0.74058200  0.93034500  1
  O  O6  1  0.19122100  0.62965500  0.04796100  1
  O  O7  1  0.91079600  0.53740300  0.14238400  1
  O  O8  1  0.57702900  0.87663100  0.72854400  1
  O  O9  1  0.69122100  0.37034500  0.45203900  1
  O  O10  1  0.37181100  0.53263000  0.87886800  1
  O  O11  1  0.86265600  0.84738900  0.66742900  1
  O  O12  1  0.62818900  0.46737000  0.12113200  1
  O  O13  1  0.72794900  0.10065600  0.30253200  1
  O  O14  1  0.41079600  0.46259700  0.35761600  1
  O  O15  1  0.80877900  0.37034500  0.95203900  1
  O  O16  1  0.92297100  0.87663100  0.22854400  1
  O  O17  1  0.22794900  0.89934400  0.19746800  1
  O  O18  1  0.13734400  0.15261100  0.33257100  1
  O  O19  1  0.58920400  0.53740300  0.64238400  1
  O  O20  1  0.26272600  0.25941800  0.56965500  1
  O  O21  1  0.30877900  0.62965500  0.54796100  1
  O  O22  1  0.08920400  0.46259700  0.85761600  1
  O  O23  1  0.42297100  0.12336900  0.27145600  1
  O  O24  1  0.73727400  0.74058200  0.43034500  1
  O  O25  1  0.63734400  0.84738900  0.16742900  1
  O  O26  1  0.77205100  0.10065600  0.80253200  1
  O  O27  1  0.36265600  0.15261100  0.83257100  1
loop_
_geom_bond_atom_site_label_1
_geom_bond_atom_site_label_2
_geom_bond_distance
_geom_bond_site_symmetry_2
O0 P7 1.565344 1_555
O0 Ti0 1.846322 1_555
O1 P6 1.561753 1_554
O1 P1 1.635071 1_555
O2 P3 1.565107 1_565
O2 Ti1 1.885553 1_555
O3 P3 1.569486 1_555
O3 Ti3 1.879162 1_455
O4 P0 1.565344 1_555
O4 Ti3 1.846322 1_555
O5 P4 1.561753 1_556
O5 P5 1.635071 1_555
O6 P6 1.535587 1_554
O6 Ti0 1.939010 1_555
O7 P4 1.521639 1_555
O7 Ti0 2.009351 1_655
O8 P5 1.569486 1_555
O8 Ti1 1.879162 1_555
O9 P0 1.535587 1_555
O9 Ti2 1.939010 1_555
O10 P6 1.565344 1_555
O10 Ti1 1.846322 1_555
O11 P5 1.464822 1_555
O12 P4 1.565344 1_555
O12 Ti2 1.846322 1_555
O13 P2 1.565107 1_545
O13 Ti2 1.885553 1_555
O14 P7 1.521639 1_555
O14 Ti2 2.009351 1_555
O15 P4 1.535587 1_556
O15 Ti3 1.939010 1_555
O16 P2 1.569486 1_555
O16 Ti0 1.879162 1_655
O17 P1 1.565107 1_565
O17 Ti0 1.885553 1_555
O18 P1 1.464822 1_555
O19 P0 1.521639 1_555
O19 Ti1 2.009351 1_555
O20 P7 1.561753 1_555
O20 P3 1.635071 1_555
O21 P7 1.535587 1_555
O21 Ti1 1.939010 1_555
O22 P6 1.521639 1_555
O22 Ti3 2.009351 1_455
O23 P1 1.569486 1_555
O23 Ti2 1.879162 1_555
O24 P0 1.561753 1_555
O24 P2 1.635071 1_555
O25 P2 1.464822 1_555
O26 P5 1.565107 1_545
O26 Ti3 1.885553 1_555
O27 P3 1.464822 1_555
