# generated using pymatgen
data_Pr2Fe12P7
_symmetry_space_group_name_H-M   'P 1'
_cell_length_a   9.06932315
_cell_length_b   9.06932315
_cell_length_c   3.69475300
_cell_angle_alpha   90.00000000
_cell_angle_beta   90.00000000
_cell_angle_gamma   119.99999381
_symmetry_Int_Tables_number   1
_chemical_formula_structural   Pr2Fe12P7
_chemical_formula_sum   'Pr2 Fe12 P7'
_cell_volume   263.18784165
_cell_formula_units_Z   1
loop_
 _symmetry_equiv_pos_site_id
 _symmetry_equiv_pos_as_xyz
  1  'x, y, z'
loop_
 _atom_site_type_symbol
 _atom_site_label
 _atom_site_symmetry_multiplicity
 _atom_site_fract_x
 _atom_site_fract_y
 _atom_site_fract_z
 _atom_site_occupancy
  Pr  Pr0  1  0.33333300  0.66666700  0.00000000  1
  Pr  Pr1  1  0.66666700  0.33333300  0.50000000  1
  Fe  Fe0  1  0.42362300  0.36901800  0.00000000  1
  Fe  Fe1  1  0.63098200  0.05460400  0.00000000  1
  Fe  Fe2  1  0.94539600  0.57637700  0.00000000  1
  Fe  Fe3  1  0.15070100  0.87922000  0.00000000  1
  Fe  Fe4  1  0.12078000  0.27148100  0.00000000  1
  Fe  Fe5  1  0.72851900  0.84929900  0.00000000  1
  Fe  Fe6  1  0.38182200  0.95185900  0.50000000  1
  Fe  Fe7  1  0.04814100  0.42996300  0.50000000  1
  Fe  Fe8  1  0.57003700  0.61817800  0.50000000  1
  Fe  Fe9  1  0.21350000  0.11682500  0.50000000  1
  Fe  Fe10  1  0.88317500  0.09667600  0.50000000  1
  Fe  Fe11  1  0.90332400  0.78650000  0.50000000  1
  P  P0  1  0.40528700  0.10522400  0.00000000  1
  P  P1  1  0.89477600  0.30006300  0.00000000  1
  P  P2  1  0.69993700  0.59471300  0.00000000  1
  P  P3  1  0.10622900  0.71135900  0.50000000  1
  P  P4  1  0.28864100  0.39487000  0.50000000  1
  P  P5  1  0.60513000  0.89377100  0.50000000  1
  P  P6  1  0.00000000  0.00000000  0.00000000  1
loop_
_geom_bond_atom_site_label_1
_geom_bond_atom_site_label_2
_geom_bond_distance
_geom_bond_site_symmetry_2
Fe0 P4 2.292041 1_554
Fe0 P4 2.292041 1_555
Fe0 P2 2.310898 1_555
Fe0 P0 2.313772 1_555
Fe0 Pr1 3.014899 1_555
Fe0 Pr1 3.014899 1_554
Fe0 Pr0 3.188766 1_555
Fe1 P5 2.292035 1_544
Fe1 P5 2.292035 1_545
Fe1 P0 2.310904 1_555
Fe1 P1 2.313776 1_555
Fe1 Pr1 3.014899 1_555
Fe1 Pr1 3.014899 1_554
Fe1 Pr0 3.188754 1_545
Fe2 P3 2.292037 1_655
Fe2 P3 2.292037 1_654
Fe2 P1 2.310895 1_555
Fe2 P2 2.313781 1_555
Fe2 Pr1 3.014899 1_554
Fe2 Pr1 3.014899 1_555
Fe2 Pr0 3.188748 1_655
Fe3 P6 2.136596 1_565
Fe3 P0 2.190845 1_565
Fe3 P3 2.297631 1_555
Fe3 P3 2.297631 1_554
Fe3 Pr0 3.106851 1_555
Fe4 P6 2.136596 1_555
Fe4 P1 2.190845 1_455
Fe4 P4 2.297631 1_555
Fe4 P4 2.297631 1_554
Fe4 Pr0 3.106859 1_555
Fe5 P6 2.136596 1_665
Fe5 P2 2.190845 1_555
Fe5 P5 2.297631 1_555
Fe5 P5 2.297631 1_554
Fe5 Pr0 3.106860 1_555
Fe6 P0 2.257595 1_565
Fe6 P0 2.257595 1_566
Fe6 P5 2.333694 1_555
Fe6 P3 2.356483 1_555
Fe6 Pr0 3.026338 1_555
Fe6 Pr0 3.026338 1_556
Fe6 Pr1 3.115390 1_565
Fe7 P1 2.257595 1_456
Fe7 P1 2.257595 1_455
Fe7 P3 2.333694 1_555
Fe7 P4 2.356482 1_555
Fe7 Pr0 3.026340 1_555
Fe7 Pr0 3.026340 1_556
Fe7 Pr1 3.115388 1_455
Fe8 P2 2.257595 1_555
Fe8 P2 2.257595 1_556
Fe8 P4 2.333694 1_555
Fe8 P5 2.356482 1_555
Fe8 Pr0 3.026345 1_555
Fe8 Pr0 3.026345 1_556
Fe8 Pr1 3.115396 1_555
Fe9 P4 2.259383 1_555
Fe9 P6 2.496617 1_555
Fe9 P6 2.496617 1_556
Fe9 P0 2.575328 1_555
Fe9 P0 2.575328 1_556
Fe10 P5 2.259386 1_545
Fe10 P6 2.496622 1_655
Fe10 P6 2.496622 1_656
Fe10 P1 2.575321 1_556
Fe10 P1 2.575321 1_555
Fe11 P3 2.259392 1_655
Fe11 P6 2.496616 1_666
Fe11 P6 2.496616 1_665
Fe11 P2 2.575324 1_556
Fe11 P2 2.575324 1_555
P0 Pr1 2.899657 1_555
P0 Pr1 2.899657 1_554
P1 Pr1 2.899653 1_554
P1 Pr1 2.899653 1_555
P2 Pr1 2.899660 1_555
P2 Pr1 2.899660 1_554
P3 Pr0 2.941804 1_555
P3 Pr0 2.941804 1_556
P4 Pr0 2.941811 1_555
P4 Pr0 2.941811 1_556
P5 Pr0 2.941809 1_555
P5 Pr0 2.941809 1_556
