# generated using pymatgen
data_U3Se5
_symmetry_space_group_name_H-M   'P 1'
_cell_length_a   8.33848078
_cell_length_b   8.33848078
_cell_length_c   8.33848078
_cell_angle_alpha   96.96354553
_cell_angle_beta   96.96354553
_cell_angle_gamma   139.24643596
_symmetry_Int_Tables_number   1
_chemical_formula_structural   U3Se5
_chemical_formula_sum   'U6 Se10'
_cell_volume   354.79802795
_cell_formula_units_Z   2
loop_
 _symmetry_equiv_pos_site_id
 _symmetry_equiv_pos_as_xyz
  1  'x, y, z'
loop_
 _atom_site_type_symbol
 _atom_site_label
 _atom_site_symmetry_multiplicity
 _atom_site_fract_x
 _atom_site_fract_y
 _atom_site_fract_z
 _atom_site_occupancy
  U  U0  1  0.66126600  0.16126600  0.82253200  1
  U  U1  1  0.33873400  0.83873400  0.17746800  1
  U  U2  1  0.83873400  0.66126600  0.50000000  1
  U  U3  1  0.16126600  0.33873400  0.50000000  1
  U  U4  1  0.75000000  0.75000000  0.00000000  1
  U  U5  1  0.25000000  0.25000000  0.00000000  1
  Se  Se0  1  0.22143900  0.08026200  0.30170200  1
  Se  Se1  1  0.77856100  0.91973800  0.69829800  1
  Se  Se2  1  0.27856100  0.58026200  0.85882300  1
  Se  Se3  1  0.72143900  0.41973800  0.14117700  1
  Se  Se4  1  0.08026200  0.77856100  0.85882300  1
  Se  Se5  1  0.91973800  0.22143900  0.14117700  1
  Se  Se6  1  0.58026200  0.72143900  0.30170200  1
  Se  Se7  1  0.41973800  0.27856100  0.69829800  1
  Se  Se8  1  0.25000000  0.75000000  0.50000000  1
  Se  Se9  1  0.75000000  0.25000000  0.50000000  1
loop_
_geom_bond_atom_site_label_1
_geom_bond_atom_site_label_2
_geom_bond_distance
_geom_bond_site_symmetry_2
Se0 U3 2.933671 1_555
Se0 U1 2.968159 1_545
Se0 U4 2.981079 1_445
Se0 U5 2.981082 1_555
Se0 U2 3.303446 1_445
Se0 U2 3.303451 1_555
Se1 U2 2.933671 1_555
Se1 U0 2.968159 1_565
Se1 U5 2.981079 1_666
Se1 U4 2.981082 1_556
Se1 U3 3.303446 1_665
Se1 U3 3.303451 1_555
Se2 U1 2.933675 1_556
Se2 U3 2.968157 1_555
Se2 U4 2.981074 1_556
Se2 U5 2.981074 1_556
Se2 U0 3.303452 1_455
Se2 U0 3.303452 1_565
Se3 U0 2.933675 1_554
Se3 U2 2.968157 1_555
Se3 U5 2.981074 1_555
Se3 U4 2.981074 1_555
Se3 U1 3.303452 1_545
Se3 U1 3.303452 1_655
Se4 U1 2.933675 1_556
Se4 U2 2.968157 1_455
Se4 U4 2.981074 1_456
Se4 U5 2.981074 1_566
Se4 U0 3.303452 1_455
Se4 U0 3.303452 1_565
Se5 U0 2.933675 1_554
Se5 U3 2.968157 1_655
Se5 U4 2.981074 1_545
Se5 U5 2.981074 1_655
Se5 U1 3.303452 1_545
Se5 U1 3.303452 1_655
Se6 U2 2.933671 1_555
Se6 U1 2.968159 1_555
Se6 U5 2.981079 1_555
Se6 U4 2.981082 1_555
Se6 U3 3.303446 1_555
Se6 U3 3.303451 1_665
Se7 U3 2.933671 1_555
Se7 U0 2.968159 1_555
Se7 U4 2.981079 1_556
Se7 U5 2.981082 1_556
Se7 U2 3.303446 1_555
Se7 U2 3.303451 1_445
Se8 U0 2.909214 1_565
Se8 U3 2.909214 1_555
Se8 U1 2.909214 1_555
Se8 U2 2.909214 1_455
Se9 U0 2.909214 1_555
Se9 U3 2.909214 1_655
Se9 U2 2.909214 1_555
Se9 U1 2.909214 1_545
