# generated using pymatgen
data_LiPr(SO4)2
_symmetry_space_group_name_H-M   'P 1'
_cell_length_a   7.76861200
_cell_length_b   7.76437100
_cell_length_c   6.20564300
_cell_angle_alpha   90.00000000
_cell_angle_beta   90.00000000
_cell_angle_gamma   90.00000000
_symmetry_Int_Tables_number   1
_chemical_formula_structural   LiPr(SO4)2
_chemical_formula_sum   'Li2 Pr2 S4 O16'
_cell_volume   374.31436813
_cell_formula_units_Z   2
loop_
 _symmetry_equiv_pos_site_id
 _symmetry_equiv_pos_as_xyz
  1  'x, y, z'
loop_
 _atom_site_type_symbol
 _atom_site_label
 _atom_site_symmetry_multiplicity
 _atom_site_fract_x
 _atom_site_fract_y
 _atom_site_fract_z
 _atom_site_occupancy
  Li  Li0  1  0.50000000  0.50000000  0.00876700  1
  Li  Li1  1  0.00000000  0.00000000  0.50876700  1
  Pr  Pr0  1  0.50000000  0.50000000  0.50877100  1
  Pr  Pr1  1  0.00000000  0.00000000  0.00877100  1
  S  S0  1  0.77974400  0.22006600  0.50874700  1
  S  S1  1  0.22025600  0.77993400  0.50874700  1
  S  S2  1  0.72025600  0.72006600  0.00874700  1
  S  S3  1  0.27974400  0.27993400  0.00874700  1
  O  O0  1  0.79842100  0.39792100  0.59085500  1
  O  O1  1  0.20157900  0.60207900  0.59085500  1
  O  O2  1  0.70157900  0.89792100  0.09085600  1
  O  O3  1  0.29842100  0.10207900  0.09085600  1
  O  O4  1  0.82175500  0.09235800  0.68558700  1
  O  O5  1  0.17824500  0.90764200  0.68558700  1
  O  O6  1  0.67824500  0.59235800  0.18558700  1
  O  O7  1  0.32175500  0.40764200  0.18558700  1
  O  O8  1  0.60194600  0.20142800  0.42670200  1
  O  O9  1  0.39805400  0.79857300  0.42670200  1
  O  O10  1  0.89805400  0.70142700  0.92670200  1
  O  O11  1  0.10194600  0.29857300  0.92670200  1
  O  O12  1  0.90735500  0.17807400  0.33183900  1
  O  O13  1  0.09264500  0.82192600  0.33183900  1
  O  O14  1  0.59264500  0.67807400  0.83183900  1
  O  O15  1  0.40735500  0.32192600  0.83183900  1
loop_
_geom_bond_atom_site_label_1
_geom_bond_atom_site_label_2
_geom_bond_distance
_geom_bond_site_symmetry_2
Li0 O14 1.906613 1_554
Li0 O15 1.906613 1_554
Li0 O7 1.906752 1_555
Li0 O6 1.906752 1_555
Li1 O13 1.906613 1_545
Li1 O12 1.906613 1_455
Li1 O4 1.906752 1_455
Li1 O5 1.906752 1_545
O0 S0 1.479071 1_555
O0 Pr0 2.502448 1_555
O1 S1 1.479071 1_555
O1 Pr0 2.502448 1_555
O2 S2 1.479073 1_555
O2 Pr1 2.502450 1_665
O3 S3 1.479073 1_555
O3 Pr1 2.502450 1_555
O4 S0 1.514606 1_555
O4 Pr1 2.540465 1_656
O5 S1 1.514606 1_555
O5 Pr1 2.540465 1_566
O6 S2 1.514606 1_555
O6 Pr0 2.540465 1_555
O7 S3 1.514606 1_555
O7 Pr0 2.540465 1_555
O8 S0 1.479189 1_555
O8 Pr0 2.502153 1_555
O9 S1 1.479190 1_555
O9 Pr0 2.502160 1_555
O10 S2 1.479190 1_556
O10 Pr1 2.502160 1_666
O11 S3 1.479190 1_556
O11 Pr1 2.502160 1_556
O12 S0 1.514703 1_555
O12 Pr1 2.539503 1_655
O13 S1 1.514703 1_555
O13 Pr1 2.539503 1_565
O14 S2 1.514703 1_556
O14 Pr0 2.539503 1_555
O15 S3 1.514703 1_556
O15 Pr0 2.539503 1_555
