# generated using pymatgen
data_HoGe2Ir
_symmetry_space_group_name_H-M   'P 1'
_cell_length_a   9.39008175
_cell_length_b   9.39008175
_cell_length_c   9.39008175
_cell_angle_alpha   153.85501746
_cell_angle_beta   123.98875782
_cell_angle_gamma   62.82485007
_symmetry_Int_Tables_number   1
_chemical_formula_structural   HoGe2Ir
_chemical_formula_sum   'Ho4 Ge8 Ir4'
_cell_volume   300.18612820
_cell_formula_units_Z   4
loop_
 _symmetry_equiv_pos_site_id
 _symmetry_equiv_pos_as_xyz
  1  'x, y, z'
loop_
 _atom_site_type_symbol
 _atom_site_label
 _atom_site_symmetry_multiplicity
 _atom_site_fract_x
 _atom_site_fract_y
 _atom_site_fract_z
 _atom_site_occupancy
  Ho  Ho0  1  0.70579801  0.20579801  0.50000000  1
  Ho  Ho1  1  0.25970343  0.00000000  0.25970343  1
  Ho  Ho2  1  0.29420199  0.79420199  0.50000000  1
  Ho  Ho3  1  0.74029657  0.00000000  0.74029657  1
  Ge  Ge0  1  0.04775586  0.20111723  0.84663963  1
  Ge  Ge1  1  0.95224414  0.79888277  0.15336037  1
  Ge  Ge2  1  0.64552240  0.79888277  0.84663963  1
  Ge  Ge3  1  0.35447760  0.20111723  0.15336037  1
  Ge  Ge4  1  0.57654506  0.57654506  0.00000000  1
  Ge  Ge5  1  0.92291532  0.42291532  0.50000000  1
  Ge  Ge6  1  0.07708468  0.57708468  0.50000000  1
  Ge  Ge7  1  0.42345494  0.42345494  0.00000000  1
  Ir  Ir0  1  0.60583098  0.35499390  0.25083808  1
  Ir  Ir1  1  0.39416902  0.64500610  0.74916192  1
  Ir  Ir2  1  0.89584418  0.64500610  0.25083808  1
  Ir  Ir3  1  0.10415582  0.35499390  0.74916192  1
loop_
_geom_bond_atom_site_label_1
_geom_bond_atom_site_label_2
_geom_bond_distance
_geom_bond_site_symmetry_2
Ho0 Ir1 3.217620 1_555
Ho0 Ir1 3.217623 1_544
Ho0 Ir2 3.217627 1_545
Ho0 Ir2 3.217627 1_556
Ho0 Ir0 3.247437 1_555
Ho0 Ir3 3.247440 1_655
Ho1 Ir3 3.149766 1_555
Ho1 Ir3 3.149766 1_544
Ho1 Ir1 3.149771 1_555
Ho1 Ir1 3.149774 1_544
Ho2 Ir0 3.217620 1_555
Ho2 Ir0 3.217623 1_566
Ho2 Ir3 3.217627 1_554
Ho2 Ir3 3.217627 1_565
Ho2 Ir1 3.247437 1_555
Ho2 Ir2 3.247440 1_455
Ho3 Ir2 3.149766 1_556
Ho3 Ir2 3.149766 1_545
Ho3 Ir0 3.149771 1_545
Ho3 Ir0 3.149774 1_556
Ge0 Ir2 2.456290 1_456
Ge0 Ir2 2.456293 1_445
Ge0 Ir3 2.611804 1_555
Ge0 Ge3 2.704784 1_556
Ge0 Ho2 2.926727 1_556
Ge0 Ho2 2.926731 1_545
Ge0 Ho0 3.057716 1_455
Ge0 Ho3 3.357077 1_455
Ge1 Ir3 2.456290 1_654
Ge1 Ir3 2.456293 1_665
Ge1 Ir2 2.611804 1_555
Ge1 Ge2 2.704784 1_554
Ge1 Ho0 2.926727 1_554
Ge1 Ho0 2.926731 1_565
Ge1 Ho2 3.057716 1_655
Ge1 Ho1 3.357077 1_665
Ge2 Ir0 2.456293 1_555
Ge2 Ir0 2.456296 1_566
Ge2 Ir1 2.611789 1_555
Ge2 Ho0 2.926723 1_566
Ge2 Ho0 2.926723 1_555
Ge2 Ho2 3.057720 1_555
Ge2 Ho3 3.357086 1_565
Ge3 Ir1 2.456293 1_555
Ge3 Ir1 2.456296 1_544
Ge3 Ir0 2.611789 1_555
Ge3 Ho2 2.926723 1_544
Ge3 Ho2 2.926723 1_555
Ge3 Ho0 3.057720 1_555
Ge3 Ho1 3.357086 1_555
Ge4 Ge7 2.453683 1_555
Ge4 Ir1 2.469187 1_554
Ge4 Ir2 2.469188 1_555
Ge4 Ho0 2.966904 1_554
Ge4 Ho0 2.966904 1_565
Ge4 Ho1 3.241341 1_554
Ge4 Ho3 3.241341 1_565
Ge4 Ho1 3.241341 1_565
Ge4 Ho3 3.241341 1_554
Ge5 Ir3 2.452103 1_655
Ge5 Ir0 2.452111 1_555
Ge5 Ho3 3.358893 1_554
Ge5 Ho1 3.358893 1_655
Ge5 Ho3 3.358893 1_565
Ge5 Ho1 3.358893 1_666
Ge5 Ho0 3.479891 1_555
Ge6 Ir2 2.452103 1_455
Ge6 Ir1 2.452111 1_555
Ge6 Ho3 3.358893 1_454
Ge6 Ho3 3.358893 1_465
Ge6 Ho1 3.358893 1_555
Ge6 Ho1 3.358893 1_566
Ge6 Ho2 3.479891 1_555
Ge7 Ir0 2.469187 1_555
Ge7 Ir3 2.469188 1_554
Ge7 Ho2 2.966904 1_544
Ge7 Ho2 2.966904 1_555
Ge7 Ho1 3.241341 1_554
Ge7 Ho1 3.241341 1_565
Ge7 Ho3 3.241341 1_565
Ge7 Ho3 3.241341 1_554
