# generated using pymatgen
data_Ba2Ca3TlCu4O11
_symmetry_space_group_name_H-M   'P 1'
_cell_length_a   3.84791000
_cell_length_b   3.86164500
_cell_length_c   19.43609800
_cell_angle_alpha   90.00000000
_cell_angle_beta   90.00000000
_cell_angle_gamma   90.00000000
_symmetry_Int_Tables_number   1
_chemical_formula_structural   Ba2Ca3TlCu4O11
_chemical_formula_sum   'Ba2 Ca3 Tl1 Cu4 O11'
_cell_volume   288.80608045
_cell_formula_units_Z   1
loop_
 _symmetry_equiv_pos_site_id
 _symmetry_equiv_pos_as_xyz
  1  'x, y, z'
loop_
 _atom_site_type_symbol
 _atom_site_label
 _atom_site_symmetry_multiplicity
 _atom_site_fract_x
 _atom_site_fract_y
 _atom_site_fract_z
 _atom_site_occupancy
  Ba  Ba0  1  0.00000000  0.98667300  0.63914800  1
  Ba  Ba1  1  0.00000000  0.98667300  0.36085200  1
  Ca  Ca0  1  0.00000000  0.00007600  0.00000000  1
  Ca  Ca1  1  0.00000000  0.99773700  0.82921500  1
  Ca  Ca2  1  0.00000000  0.99773700  0.17078500  1
  Tl  Tl0  1  0.50000000  0.41569000  0.50000000  1
  Cu  Cu0  1  0.50000000  0.49608700  0.74612800  1
  Cu  Cu1  1  0.50000000  0.49608700  0.25387200  1
  Cu  Cu2  1  0.50000000  0.49975100  0.91646800  1
  Cu  Cu3  1  0.50000000  0.49975100  0.08353200  1
  O  O0  1  0.50000000  0.99985500  0.91793800  1
  O  O1  1  0.00000000  0.49987100  0.91819000  1
  O  O2  1  0.50000000  0.99985500  0.08206200  1
  O  O3  1  0.00000000  0.49987100  0.08181000  1
  O  O4  1  0.50000000  0.99527000  0.75441200  1
  O  O5  1  0.00000000  0.49615700  0.75509500  1
  O  O6  1  0.50000000  0.99527000  0.24558800  1
  O  O7  1  0.00000000  0.49615700  0.24490500  1
  O  O8  1  0.50000000  0.49516700  0.60911100  1
  O  O9  1  0.50000000  0.49516700  0.39088900  1
  O  O10  1  0.00000000  0.06509600  0.50000000  1
loop_
_geom_bond_atom_site_label_1
_geom_bond_atom_site_label_2
_geom_bond_distance
_geom_bond_site_symmetry_2
Ba0 O10 2.721397 1_565
Ba0 O8 2.764944 1_555
Ba0 O8 2.764944 1_455
Ba0 O8 2.810382 1_465
Ba0 O8 2.810382 1_565
Ba0 O5 2.943893 1_555
Ba0 O4 2.953230 1_455
Ba0 O4 2.953230 1_555
Ba0 O5 2.991549 1_565
Ba1 O10 2.721397 1_565
Ba1 O9 2.764944 1_455
Ba1 O9 2.764944 1_555
Ba1 O9 2.810382 1_565
Ba1 O9 2.810382 1_465
Ba1 O7 2.943893 1_555
Ba1 O6 2.953230 1_555
Ba1 O6 2.953230 1_455
Ba1 O7 2.991549 1_565
Ca0 O2 2.499103 1_445
Ca0 O2 2.499103 1_545
Ca0 O0 2.499103 1_544
Ca0 O0 2.499103 1_444
Ca0 O1 2.500666 1_554
Ca0 O3 2.500666 1_555
Ca0 O1 2.501889 1_544
Ca0 O3 2.501889 1_545
Ca1 O5 2.404140 1_565
Ca1 O4 2.411526 1_455
Ca1 O4 2.411526 1_555
Ca1 O5 2.413921 1_555
Ca1 O0 2.583665 1_555
Ca1 O0 2.583665 1_455
Ca1 O1 2.585903 1_555
Ca1 O1 2.598180 1_565
Ca2 O7 2.404140 1_565
Ca2 O6 2.411526 1_455
Ca2 O6 2.411526 1_555
Ca2 O7 2.413921 1_555
Ca2 O2 2.583665 1_455
Ca2 O2 2.583665 1_555
Ca2 O3 2.585903 1_555
Ca2 O3 2.598180 1_565
Cu0 O5 1.931833 1_655
Cu0 O5 1.931833 1_555
Cu0 O4 1.934380 1_555
Cu0 O4 1.940668 1_545
Cu0 O8 2.663078 1_555
Cu1 O7 1.931833 1_555
Cu1 O7 1.931833 1_655
Cu1 O6 1.934380 1_555
Cu1 O6 1.940668 1_545
Cu1 O9 2.663078 1_555
Cu2 O1 1.924246 1_655
Cu2 O1 1.924246 1_555
Cu2 O0 1.930632 1_545
Cu2 O0 1.931435 1_555
Cu3 O3 1.924246 1_555
Cu3 O3 1.924246 1_655
Cu3 O2 1.930632 1_545
Cu3 O2 1.931435 1_555
O8 Tl0 2.142786 1_555
O9 Tl0 2.142786 1_555
O10 Tl0 2.352566 1_555
O10 Tl0 2.352566 1_455
