# generated using pymatgen
data_CuNiSbS3
_symmetry_space_group_name_H-M   'P 1'
_cell_length_a   4.89310900
_cell_length_b   7.48768300
_cell_length_c   12.44463300
_cell_angle_alpha   90.00000000
_cell_angle_beta   90.00000000
_cell_angle_gamma   90.00000000
_symmetry_Int_Tables_number   1
_chemical_formula_structural   CuNiSbS3
_chemical_formula_sum   'Cu4 Ni4 Sb4 S12'
_cell_volume   455.94707459
_cell_formula_units_Z   4
loop_
 _symmetry_equiv_pos_site_id
 _symmetry_equiv_pos_as_xyz
  1  'x, y, z'
loop_
 _atom_site_type_symbol
 _atom_site_label
 _atom_site_symmetry_multiplicity
 _atom_site_fract_x
 _atom_site_fract_y
 _atom_site_fract_z
 _atom_site_occupancy
  Cu  Cu0  1  0.52520700  0.61891100  0.93755200  1
  Cu  Cu1  1  0.02520700  0.88108900  0.06244800  1
  Cu  Cu2  1  0.47479300  0.11891100  0.56244800  1
  Cu  Cu3  1  0.97479300  0.38108900  0.43755200  1
  Ni  Ni0  1  0.99511900  0.87153600  0.74943700  1
  Ni  Ni1  1  0.49511900  0.62846400  0.25056300  1
  Ni  Ni2  1  0.00488100  0.37153600  0.75056300  1
  Ni  Ni3  1  0.50488100  0.12846400  0.24943700  1
  Sb  Sb0  1  0.55880000  0.62498400  0.63321400  1
  Sb  Sb1  1  0.05880000  0.87501600  0.36678600  1
  Sb  Sb2  1  0.44120000  0.12498400  0.86678600  1
  Sb  Sb3  1  0.94120000  0.37501600  0.13321400  1
  S  S0  1  0.77843200  0.87077200  0.90732800  1
  S  S1  1  0.27843200  0.62922800  0.09267200  1
  S  S2  1  0.22156800  0.37077200  0.59267200  1
  S  S3  1  0.72156800  0.12922800  0.40732800  1
  S  S4  1  0.22360500  0.62261600  0.79508400  1
  S  S5  1  0.72360500  0.87738400  0.20491600  1
  S  S6  1  0.77639500  0.12261600  0.70491600  1
  S  S7  1  0.27639500  0.37738400  0.29508400  1
  S  S8  1  0.21488100  0.87093100  0.59139300  1
  S  S9  1  0.71488100  0.62906900  0.40860700  1
  S  S10  1  0.78511900  0.37093100  0.90860700  1
  S  S11  1  0.28511900  0.12906900  0.09139300  1
loop_
_geom_bond_atom_site_label_1
_geom_bond_atom_site_label_2
_geom_bond_distance
_geom_bond_site_symmetry_2
Cu0 S1 2.278268 1_556
Cu0 S10 2.279224 1_555
Cu0 S0 2.287616 1_555
Cu0 S4 2.306960 1_555
Cu1 S0 2.278268 1_454
Cu1 S11 2.279224 1_565
Cu1 S1 2.287616 1_555
Cu1 S5 2.306960 1_455
Cu2 S3 2.278268 1_555
Cu2 S8 2.279224 1_545
Cu2 S2 2.287616 1_555
Cu2 S6 2.306960 1_555
Cu3 S2 2.278268 1_655
Cu3 S9 2.279224 1_555
Cu3 S3 2.287616 1_555
Cu3 S7 2.306960 1_655
Ni0 S0 2.232717 1_555
Ni0 S6 2.233117 1_565
Ni0 S8 2.241569 1_655
Ni0 S4 2.246444 1_655
Ni0 Sb0 3.171446 1_555
Ni0 Sb2 3.240117 1_665
Ni1 S1 2.232717 1_555
Ni1 S7 2.233117 1_555
Ni1 S9 2.241569 1_555
Ni1 S5 2.246444 1_555
Ni1 Sb1 3.171446 1_555
Ni1 Sb3 3.240117 1_555
Ni2 S2 2.232717 1_555
Ni2 S4 2.233117 1_555
Ni2 S10 2.241569 1_455
Ni2 S6 2.246444 1_455
Ni2 Sb2 3.171446 1_555
Ni2 Sb0 3.240117 1_455
Ni3 S3 2.232717 1_555
Ni3 S5 2.233117 1_545
Ni3 S11 2.241569 1_555
Ni3 S7 2.246444 1_555
Ni3 Sb3 3.171446 1_555
Ni3 Sb1 3.240117 1_545
S0 Sb2 2.569159 1_565
S1 Sb3 2.569159 1_455
S2 Sb0 2.569159 1_555
S3 Sb1 2.569159 1_645
S4 Sb0 2.597740 1_555
S5 Sb1 2.597740 1_655
S6 Sb2 2.597740 1_555
S7 Sb3 2.597740 1_455
S8 Sb0 2.548369 1_555
S8 Sb1 2.897771 1_555
S9 Sb1 2.548369 1_655
S9 Sb0 2.897771 1_555
S10 Sb2 2.548369 1_555
S10 Sb3 2.897771 1_556
S11 Sb3 2.548369 1_455
S11 Sb2 2.897771 1_554
