# generated using pymatgen
data_Eu3(AlAs2)2
_symmetry_space_group_name_H-M   'P 1'
_cell_length_a   8.44193387
_cell_length_b   8.44193299
_cell_length_c   6.72994085
_cell_angle_alpha   89.79495713
_cell_angle_beta   89.79357647
_cell_angle_gamma   75.57623618
_symmetry_Int_Tables_number   1
_chemical_formula_structural   Eu3(AlAs2)2
_chemical_formula_sum   'Eu6 Al4 As8'
_cell_volume   464.49520634
_cell_formula_units_Z   2
loop_
 _symmetry_equiv_pos_site_id
 _symmetry_equiv_pos_as_xyz
  1  'x, y, z'
loop_
 _atom_site_type_symbol
 _atom_site_label
 _atom_site_symmetry_multiplicity
 _atom_site_fract_x
 _atom_site_fract_y
 _atom_site_fract_z
 _atom_site_occupancy
  Eu  Eu0  1  0.75084045  0.00675805  0.96673402  1
  Eu  Eu1  1  0.99324266  0.24915955  0.53326334  1
  Eu  Eu2  1  0.24915955  0.99324195  0.03326598  1
  Eu  Eu3  1  0.00675734  0.75084045  0.46673666  1
  Eu  Eu4  1  0.59852651  0.40147503  0.25000111  1
  Eu  Eu5  1  0.40147349  0.59852497  0.74999889  1
  Al  Al0  1  0.58065249  0.82879231  0.41550058  1
  Al  Al1  1  0.17120654  0.41935131  0.08449586  1
  Al  Al2  1  0.41934751  0.17120769  0.58449942  1
  Al  Al3  1  0.82879346  0.58064869  0.91550414  1
  As  As0  1  0.71171717  0.05965251  0.47414976  1
  As  As1  1  0.94035523  0.28830495  0.02583460  1
  As  As2  1  0.28828283  0.94034749  0.52585024  1
  As  As3  1  0.05964477  0.71169505  0.97416540  1
  As  As4  1  0.57271314  0.74210002  0.06845775  1
  As  As5  1  0.25790620  0.42727983  0.43153850  1
  As  As6  1  0.42728686  0.25789998  0.93154225  1
  As  As7  1  0.74209380  0.57272017  0.56846150  1
loop_
_geom_bond_atom_site_label_1
_geom_bond_atom_site_label_2
_geom_bond_distance
_geom_bond_site_symmetry_2
Al0 As4 2.456180 1_555
Al0 As7 2.473198 1_555
Al0 As0 2.502228 1_565
Al0 As2 2.522712 1_555
Al1 As5 2.456203 1_555
Al1 As6 2.473222 1_554
Al1 As1 2.502079 1_455
Al1 As3 2.522512 1_554
Al2 As6 2.456180 1_555
Al2 As5 2.473198 1_555
Al2 As2 2.502228 1_545
Al2 As0 2.522712 1_555
Al3 As7 2.456203 1_555
Al3 As4 2.473222 1_556
Al3 As3 2.502079 1_655
Al3 As1 2.522512 1_556
As0 Eu3 3.125324 1_645
As0 Eu4 3.181376 1_555
As0 Eu1 3.204917 1_555
As0 Eu0 3.349916 1_555
As0 Eu0 3.449519 1_554
As1 Eu2 3.125400 1_645
As1 Eu4 3.181420 1_555
As1 Eu0 3.205105 1_554
As1 Eu1 3.349818 1_554
As1 Eu1 3.449629 1_555
As2 Eu1 3.125324 1_465
As2 Eu5 3.181376 1_555
As2 Eu3 3.204917 1_555
As2 Eu2 3.349916 1_555
As2 Eu2 3.449519 1_556
As3 Eu0 3.125400 1_465
As3 Eu5 3.181420 1_555
As3 Eu2 3.205105 1_556
As3 Eu3 3.349818 1_556
As3 Eu3 3.449629 1_555
As4 Eu5 3.010972 1_554
As4 Eu2 3.021221 1_555
As4 Eu0 3.062195 1_564
As4 Eu4 3.077908 1_555
As5 Eu5 3.010968 1_555
As5 Eu3 3.021286 1_555
As5 Eu1 3.062193 1_455
As5 Eu4 3.077838 1_555
As6 Eu4 3.010972 1_556
As6 Eu0 3.021221 1_555
As6 Eu2 3.062195 1_546
As6 Eu5 3.077908 1_555
As7 Eu4 3.010968 1_555
As7 Eu1 3.021286 1_555
As7 Eu3 3.062193 1_655
As7 Eu5 3.077838 1_555
