# generated using pymatgen
data_Sc3H20N5F14
_symmetry_space_group_name_H-M   'P 1'
_cell_length_a   8.20408400
_cell_length_b   8.20408400
_cell_length_c   13.97349764
_cell_angle_alpha   107.07113167
_cell_angle_beta   107.07113167
_cell_angle_gamma   90.00000000
_symmetry_Int_Tables_number   1
_chemical_formula_structural   Sc3H20N5F14
_chemical_formula_sum   'Sc6 H40 N10 F28'
_cell_volume   855.63350138
_cell_formula_units_Z   2
loop_
 _symmetry_equiv_pos_site_id
 _symmetry_equiv_pos_as_xyz
  1  'x, y, z'
loop_
 _atom_site_type_symbol
 _atom_site_label
 _atom_site_symmetry_multiplicity
 _atom_site_fract_x
 _atom_site_fract_y
 _atom_site_fract_z
 _atom_site_occupancy
  Sc  Sc0  1  0.50156800  0.00156800  0.00313500  1
  Sc  Sc1  1  0.74843200  0.74843200  0.49686500  1
  Sc  Sc2  1  0.99843200  0.49843200  0.99686500  1
  Sc  Sc3  1  0.25156800  0.25156800  0.50313500  1
  Sc  Sc4  1  0.25000000  0.75000000  0.50000000  1
  Sc  Sc5  1  0.00000000  0.00000000  0.00000000  1
  H  H0  1  0.66903700  0.26300800  0.54591300  1
  H  H1  1  0.87687600  0.28290500  0.54591300  1
  H  H2  1  0.37312400  0.46709500  0.95408700  1
  H  H3  1  0.58096300  0.48699200  0.95408700  1
  H  H4  1  0.71709500  0.33096300  0.45408700  1
  H  H5  1  0.73699200  0.12312400  0.45408700  1
  H  H6  1  0.51300800  0.62687600  0.04591300  1
  H  H7  1  0.53290500  0.41903700  0.04591300  1
  H  H8  1  0.29556700  0.34967300  0.28750300  1
  H  H9  1  0.99193500  0.93783000  0.28750300  1
  H  H10  1  0.25806500  0.81217000  0.21249700  1
  H  H11  1  0.95443300  0.40032700  0.21249700  1
  H  H12  1  0.06217000  0.70443300  0.71249700  1
  H  H13  1  0.65032700  0.00806500  0.71249700  1
  H  H14  1  0.59967300  0.74193500  0.78750300  1
  H  H15  1  0.18783000  0.04556700  0.78750300  1
  H  H16  1  0.47755900  0.44946000  0.29223400  1
  H  H17  1  0.81467500  0.84277400  0.29223400  1
  H  H18  1  0.43532500  0.90722600  0.20776600  1
  H  H19  1  0.77244100  0.30054000  0.20776600  1
  H  H20  1  0.15722600  0.52244100  0.70776600  1
  H  H21  1  0.55054000  0.18532500  0.70776600  1
  H  H22  1  0.69946000  0.56467500  0.79223400  1
  H  H23  1  0.09277400  0.22755900  0.79223400  1
  H  H24  1  0.38963300  0.27361200  0.19313500  1
  H  H25  1  0.80350100  0.91952200  0.19313400  1
  H  H26  1  0.44649900  0.83047800  0.30686500  1
  H  H27  1  0.86036700  0.47638800  0.30686600  1
  H  H28  1  0.08047800  0.61036700  0.80686500  1
  H  H29  1  0.72638800  0.19649900  0.80686500  1
  H  H30  1  0.52361200  0.55350100  0.69313500  1
  H  H31  1  0.16952200  0.13963300  0.69313400  1
  H  H32  1  0.29226800  0.45409600  0.19541200  1
  H  H33  1  0.90314400  0.74131600  0.19541200  1
  H  H34  1  0.34685600  0.00868400  0.30458800  1
  H  H35  1  0.95773200  0.29590400  0.30458800  1
  H  H36  1  0.25868400  0.70773200  0.80458800  1
  H  H37  1  0.54590400  0.09685600  0.80458800  1
  H  H38  1  0.70409600  0.65314400  0.69541200  1
  H  H39  1  0.99131600  0.04226800  0.69541200  1
  N  N0  1  0.75000000  0.25000000  0.50000000  1
  N  N1  1  0.50000000  0.50000000  0.00000000  1
  N  N2  1  0.63236300  0.63172700  0.74284500  1
  N  N3  1  0.11048100  0.11111800  0.74284500  1
  N  N4  1  0.13951900  0.63888200  0.75715500  1
  N  N5  1  0.61763700  0.11827300  0.75715500  1
  N  N6  1  0.88888200  0.36763700  0.25715500  1
  N  N7  1  0.36827300  0.88951900  0.25715500  1
  N  N8  1  0.88172700  0.86048100  0.24284500  1
  N  N9  1  0.36111800  0.38236300  0.24284500  1
  F  F0  1  0.11949900  0.44343800  0.88316900  1
  F  F1  1  0.76366900  0.43973100  0.88316900  1
  F  F2  1  0.48633100  0.31026900  0.61683100  1
  F  F3  1  0.13050100  0.30656200  0.61683100  1
  F  F4  1  0.56026900  0.88050100  0.11683100  1
  F  F5  1  0.55656200  0.23633100  0.11683100  1
  F  F6  1  0.69343800  0.51366900  0.38316900  1
  F  F7  1  0.68973100  0.86949900  0.38316900  1
  F  F8  1  0.22854100  0.55363600  0.10859200  1
  F  F9  1  0.88005100  0.55495600  0.10859200  1
  F  F10  1  0.36994900  0.19504400  0.39140800  1
  F  F11  1  0.02145900  0.19636400  0.39140800  1
  F  F12  1  0.44504400  0.77145900  0.89140800  1
  F  F13  1  0.44636400  0.11994900  0.89140800  1
  F  F14  1  0.80363600  0.63005100  0.60859200  1
  F  F15  1  0.80495600  0.97854100  0.60859200  1
  F  F16  1  0.49938000  0.74914300  0.49632400  1
  F  F17  1  0.99694400  0.74718200  0.49632400  1
  F  F18  1  0.25305600  0.00281800  0.00367600  1
  F  F19  1  0.75062000  0.00085700  0.00367600  1
  F  F20  1  0.25281800  0.50062000  0.50367600  1
  F  F21  1  0.25085700  0.00305600  0.50367600  1
  F  F22  1  0.99914300  0.74694400  0.99632400  1
  F  F23  1  0.99718200  0.24938000  0.99632400  1
  F  F24  1  0.32813700  0.82813700  0.65627400  1
  F  F25  1  0.92186300  0.92186300  0.84372600  1
  F  F26  1  0.17186300  0.67186300  0.34372600  1
  F  F27  1  0.07813700  0.07813700  0.15627400  1
loop_
_geom_bond_atom_site_label_1
_geom_bond_atom_site_label_2
_geom_bond_distance
_geom_bond_site_symmetry_2
H0 N0 1.036432 1_555
H1 N0 1.036432 1_555
H2 N1 1.036432 1_556
H3 N1 1.036432 1_556
H4 N0 1.036432 1_555
H5 N0 1.036432 1_555
H6 N1 1.036432 1_555
H7 N1 1.036432 1_555
H8 N9 1.022665 1_555
H9 N8 1.022663 1_555
H10 N7 1.022663 1_555
H11 N6 1.022665 1_555
H12 N4 1.022669 1_555
H13 N5 1.022659 1_555
H14 N2 1.022659 1_555
H15 N3 1.022669 1_555
H16 N9 1.040080 1_555
H17 N8 1.040077 1_555
H18 N7 1.040077 1_555
H19 N6 1.040080 1_555
H20 N4 1.040077 1_555
H21 N5 1.040080 1_555
H22 N2 1.040080 1_555
H23 N3 1.040077 1_555
H24 N9 1.031890 1_555
H25 N8 1.031902 1_555
H26 N7 1.031894 1_555
H27 N6 1.031897 1_555
H28 N4 1.031890 1_555
H29 N5 1.031894 1_555
H30 N2 1.031894 1_555
H31 N3 1.031902 1_555
H32 N9 1.055418 1_555
H33 N8 1.055412 1_555
H34 N7 1.055412 1_545
H35 N6 1.055418 1_555
H36 N4 1.055412 1_555
H37 N5 1.055418 1_555
H38 N2 1.055418 1_555
H39 N3 1.055412 1_655
F0 Sc2 2.054211 1_455
F1 Sc2 2.054211 1_555
F2 Sc3 2.054211 1_555
F3 Sc3 2.054211 1_555
F4 Sc0 2.054211 1_565
F5 Sc0 2.054211 1_555
F6 Sc1 2.054211 1_555
F7 Sc1 2.054211 1_555
F8 H32 1.619047 1_555
F8 Sc2 2.015161 1_454
F9 H33 1.619047 1_555
F9 Sc2 2.015155 1_554
F10 H34 1.619047 1_555
F10 Sc3 2.015155 1_555
F11 H35 1.619047 1_455
F11 Sc3 2.015161 1_555
F12 H36 1.619047 1_555
F12 Sc0 2.015161 1_566
F13 H37 1.619047 1_555
F13 Sc0 2.015155 1_556
F14 H38 1.619047 1_555
F14 Sc1 2.015155 1_555
F15 H39 1.619047 1_565
F15 Sc1 2.015161 1_555
F16 Sc1 2.041052 1_555
F16 Sc4 2.061559 1_555
F17 Sc1 2.041060 1_555
F17 Sc4 2.061559 1_655
F18 Sc0 2.041060 1_555
F18 Sc5 2.061559 1_555
F19 Sc0 2.041052 1_555
F19 Sc5 2.061559 1_655
F20 Sc3 2.041052 1_555
F20 Sc4 2.061559 1_555
F21 Sc3 2.041060 1_555
F21 Sc4 2.061559 1_545
F22 Sc2 2.041060 1_555
F22 Sc5 2.061559 1_666
F23 Sc2 2.041052 1_555
F23 Sc5 2.061559 1_656
F24 Sc4 1.986618 1_555
F25 Sc5 1.986618 1_666
F26 Sc4 1.986618 1_555
F27 Sc5 1.986618 1_555
