# generated using pymatgen
data_Lu2MgSe4
_symmetry_space_group_name_H-M   'P 1'
_cell_length_a   13.05308500
_cell_length_b   7.76071377
_cell_length_c   13.33153502
_cell_angle_alpha   90.00000000
_cell_angle_beta   90.00000000
_cell_angle_gamma   90.00000000
_symmetry_Int_Tables_number   1
_chemical_formula_structural   Lu2MgSe4
_chemical_formula_sum   'Lu16 Mg8 Se32'
_cell_volume   1350.50124861
_cell_formula_units_Z   8
loop_
 _symmetry_equiv_pos_site_id
 _symmetry_equiv_pos_as_xyz
  1  'x, y, z'
loop_
 _atom_site_type_symbol
 _atom_site_label
 _atom_site_symmetry_multiplicity
 _atom_site_fract_x
 _atom_site_fract_y
 _atom_site_fract_z
 _atom_site_occupancy
  Lu  Lu0  1  0.10785918  0.88223161  0.68641747  1
  Lu  Lu1  1  0.89214082  0.11776839  0.18641747  1
  Lu  Lu2  1  0.39214082  0.88223161  0.18641747  1
  Lu  Lu3  1  0.60785918  0.11776839  0.68641747  1
  Lu  Lu4  1  0.12798085  0.38040799  0.32606001  1
  Lu  Lu5  1  0.87201915  0.61959201  0.82606001  1
  Lu  Lu6  1  0.37201915  0.38040799  0.82606001  1
  Lu  Lu7  1  0.62798085  0.61959201  0.32606001  1
  Lu  Lu8  1  0.13324858  0.62860267  0.98912759  1
  Lu  Lu9  1  0.86675142  0.37139733  0.48912759  1
  Lu  Lu10  1  0.36675142  0.62860267  0.48912759  1
  Lu  Lu11  1  0.63324858  0.37139733  0.98912759  1
  Lu  Lu12  1  0.13324273  0.12910130  0.98976877  1
  Lu  Lu13  1  0.86675727  0.87089870  0.48976877  1
  Lu  Lu14  1  0.36675727  0.12910130  0.48976877  1
  Lu  Lu15  1  0.63324273  0.87089870  0.98976877  1
  Mg  Mg0  1  0.11015859  0.38074615  0.68937341  1
  Mg  Mg1  1  0.88984141  0.61925385  0.18937341  1
  Mg  Mg2  1  0.38984141  0.38074615  0.18937341  1
  Mg  Mg3  1  0.61015859  0.61925385  0.68937341  1
  Mg  Mg4  1  0.12663213  0.87823480  0.32156708  1
  Mg  Mg5  1  0.87336787  0.12176520  0.82156708  1
  Mg  Mg6  1  0.37336787  0.87823480  0.82156708  1
  Mg  Mg7  1  0.62663213  0.12176520  0.32156708  1
  Se  Se0  1  0.01417849  0.87570229  0.87654906  1
  Se  Se1  1  0.98582151  0.12429771  0.37654906  1
  Se  Se2  1  0.48582151  0.87570229  0.37654906  1
  Se  Se3  1  0.51417849  0.12429771  0.87654906  1
  Se  Se4  1  0.03697686  0.37372949  0.13109995  1
  Se  Se5  1  0.96302314  0.62627051  0.63109995  1
  Se  Se6  1  0.46302314  0.37372949  0.63109995  1
  Se  Se7  1  0.53697686  0.62627051  0.13109995  1
  Se  Se8  1  0.01976649  0.37438253  0.87016626  1
  Se  Se9  1  0.98023351  0.62561747  0.37016626  1
  Se  Se10  1  0.48023351  0.37438253  0.37016626  1
  Se  Se11  1  0.51976649  0.62561747  0.87016626  1
  Se  Se12  1  0.04041412  0.87305298  0.13498599  1
  Se  Se13  1  0.95958588  0.12694702  0.63498599  1
  Se  Se14  1  0.45958588  0.87305298  0.63498599  1
  Se  Se15  1  0.54041412  0.12694702  0.13498599  1
  Se  Se16  1  0.21360648  0.87936724  0.50623530  1
  Se  Se17  1  0.78639352  0.12063276  0.00623530  1
  Se  Se18  1  0.28639352  0.87936724  0.00623530  1
  Se  Se19  1  0.71360648  0.12063276  0.50623530  1
  Se  Se20  1  0.21402975  0.37934339  0.51671448  1
  Se  Se21  1  0.78597025  0.62065661  0.01671448  1
  Se  Se22  1  0.28597025  0.37934339  0.01671448  1
  Se  Se23  1  0.71402975  0.62065661  0.51671448  1
  Se  Se24  1  0.23049398  0.12759557  0.77967444  1
  Se  Se25  1  0.76950602  0.87240443  0.27967444  1
  Se  Se26  1  0.26950602  0.12759557  0.27967444  1
  Se  Se27  1  0.73049398  0.87240443  0.77967444  1
  Se  Se28  1  0.23032756  0.63114686  0.77926119  1
  Se  Se29  1  0.76967244  0.36885314  0.27926119  1
  Se  Se30  1  0.26967244  0.63114686  0.27926119  1
  Se  Se31  1  0.73032756  0.36885314  0.77926119  1
loop_
_geom_bond_atom_site_label_1
_geom_bond_atom_site_label_2
_geom_bond_distance
_geom_bond_site_symmetry_2
Lu0 Se16 2.770543 1_555
Lu0 Se24 2.781026 1_565
Lu0 Se13 2.796932 1_465
Lu0 Se28 2.807943 1_555
Lu0 Se0 2.814747 1_555
Lu0 Se5 2.839720 1_455
Lu1 Se17 2.770543 1_555
Lu1 Se25 2.781026 1_545
Lu1 Se12 2.796932 1_645
Lu1 Se29 2.807943 1_555
Lu1 Se1 2.814747 1_555
Lu1 Se4 2.839720 1_655
Lu2 Se18 2.770543 1_555
Lu2 Se26 2.781026 1_565
Lu2 Se15 2.796932 1_565
Lu2 Se30 2.807943 1_555
Lu2 Se2 2.814747 1_555
Lu2 Se7 2.839720 1_555
Lu3 Se19 2.770543 1_555
Lu3 Se27 2.781026 1_545
Lu3 Se14 2.796932 1_545
Lu3 Se31 2.807943 1_555
Lu3 Se3 2.814747 1_555
Lu3 Se6 2.839720 1_555
Lu4 Se30 2.756179 1_555
Lu4 Se26 2.764875 1_555
Lu4 Se9 2.772453 1_455
Lu4 Se20 2.778845 1_555
Lu4 Se1 2.801236 1_455
Lu4 Se4 2.858174 1_555
Lu5 Se31 2.756179 1_555
Lu5 Se27 2.764875 1_555
Lu5 Se8 2.772453 1_655
Lu5 Se21 2.778845 1_556
Lu5 Se0 2.801236 1_655
Lu5 Se5 2.858174 1_555
Lu6 Se28 2.756179 1_555
Lu6 Se24 2.764875 1_555
Lu6 Se11 2.772453 1_555
Lu6 Se22 2.778845 1_556
Lu6 Se3 2.801236 1_555
Lu6 Se6 2.858174 1_555
Lu7 Se29 2.756179 1_555
Lu7 Se25 2.764875 1_555
Lu7 Se10 2.772453 1_555
Lu7 Se23 2.778845 1_555
Lu7 Se2 2.801236 1_555
Lu7 Se7 2.858174 1_555
Lu8 Se18 2.799183 1_556
Lu8 Se22 2.802013 1_556
Lu8 Se0 2.888880 1_555
Lu8 Se8 2.932895 1_555
Lu8 Se12 2.974654 1_556
Lu8 Se4 3.012304 1_556
Lu8 Se28 3.071490 1_555
Lu9 Se19 2.799183 1_555
Lu9 Se23 2.802013 1_555
Lu9 Se1 2.888880 1_555
Lu9 Se9 2.932895 1_555
Lu9 Se13 2.974654 1_555
Lu9 Se5 3.012304 1_555
Lu9 Se29 3.071490 1_555
Lu10 Se16 2.799183 1_555
Lu10 Se20 2.802013 1_555
Lu10 Se2 2.888880 1_555
Lu10 Se10 2.932895 1_555
Lu10 Se14 2.974654 1_555
Lu10 Se6 3.012304 1_555
Lu10 Se30 3.071490 1_555
Lu11 Se17 2.799183 1_556
Lu11 Se21 2.802013 1_556
Lu11 Se3 2.888880 1_555
Lu11 Se11 2.932895 1_555
Lu11 Se15 2.974654 1_556
Lu11 Se7 3.012304 1_556
Lu11 Se31 3.071490 1_555
Lu12 Se18 2.792999 1_546
Lu12 Se22 2.806231 1_556
Lu12 Se8 2.891351 1_555
Lu12 Se0 2.925921 1_545
Lu12 Se4 2.955213 1_556
Lu12 Se12 3.027347 1_546
Lu12 Se24 3.075145 1_555
Lu13 Se19 2.792999 1_565
Lu13 Se23 2.806231 1_555
Lu13 Se9 2.891351 1_555
Lu13 Se1 2.925921 1_565
Lu13 Se5 2.955213 1_555
Lu13 Se13 3.027347 1_565
Lu13 Se25 3.075145 1_555
Lu14 Se16 2.792999 1_545
Lu14 Se20 2.806231 1_555
Lu14 Se10 2.891351 1_555
Lu14 Se2 2.925921 1_545
Lu14 Se6 2.955213 1_555
Lu14 Se14 3.027347 1_545
Lu14 Se26 3.075145 1_555
Lu15 Se17 2.792999 1_566
Lu15 Se21 2.806231 1_556
Lu15 Se11 2.891351 1_555
Lu15 Se3 2.925921 1_565
Lu15 Se7 2.955213 1_556
Lu15 Se15 3.027347 1_566
Lu15 Se27 3.075145 1_555
Mg0 Se20 2.671468 1_555
Mg0 Se8 2.684004 1_555
Mg0 Se28 2.769986 1_555
Mg0 Se24 2.788597 1_555
Mg0 Se5 2.814755 1_455
Mg0 Se13 2.875455 1_455
Mg1 Se21 2.671468 1_555
Mg1 Se9 2.684004 1_555
Mg1 Se29 2.769986 1_555
Mg1 Se25 2.788597 1_555
Mg1 Se4 2.814755 1_655
Mg1 Se12 2.875455 1_655
Mg2 Se22 2.671468 1_555
Mg2 Se10 2.684004 1_555
Mg2 Se30 2.769986 1_555
Mg2 Se26 2.788597 1_555
Mg2 Se7 2.814755 1_555
Mg2 Se15 2.875455 1_555
Mg3 Se23 2.671468 1_555
Mg3 Se11 2.684004 1_555
Mg3 Se31 2.769986 1_555
Mg3 Se27 2.788597 1_555
Mg3 Se6 2.814755 1_555
Mg3 Se14 2.875455 1_555
Mg4 Se16 2.711079 1_555
Mg4 Se12 2.730456 1_555
Mg4 Se30 2.735203 1_555
Mg4 Se26 2.744996 1_565
Mg4 Se1 2.749952 1_465
Mg4 Se9 2.813369 1_455
Mg5 Se17 2.711079 1_556
Mg5 Se13 2.730456 1_555
Mg5 Se31 2.735203 1_555
Mg5 Se27 2.744996 1_545
Mg5 Se0 2.749952 1_645
Mg5 Se8 2.813369 1_655
Mg6 Se18 2.711079 1_556
Mg6 Se14 2.730456 1_555
Mg6 Se28 2.735203 1_555
Mg6 Se24 2.744996 1_565
Mg6 Se3 2.749952 1_565
Mg6 Se11 2.813369 1_555
Mg7 Se19 2.711079 1_555
Mg7 Se15 2.730456 1_555
Mg7 Se29 2.735203 1_555
Mg7 Se25 2.744996 1_545
Mg7 Se2 2.749952 1_545
Mg7 Se10 2.813369 1_555
