# generated using pymatgen
data_BaSn2Bi
_symmetry_space_group_name_H-M   'P 1'
_cell_length_a   7.31469871
_cell_length_b   7.31469871
_cell_length_c   12.23085222
_cell_angle_alpha   72.58459350
_cell_angle_beta   72.58459350
_cell_angle_gamma   59.96414354
_symmetry_Int_Tables_number   1
_chemical_formula_structural   BaSn2Bi
_chemical_formula_sum   'Ba4 Sn8 Bi4'
_cell_volume   531.63513382
_cell_formula_units_Z   4
loop_
 _symmetry_equiv_pos_site_id
 _symmetry_equiv_pos_as_xyz
  1  'x, y, z'
loop_
 _atom_site_type_symbol
 _atom_site_label
 _atom_site_symmetry_multiplicity
 _atom_site_fract_x
 _atom_site_fract_y
 _atom_site_fract_z
 _atom_site_occupancy
  Ba  Ba0  1  0.78645700  0.78645700  0.64036300  1
  Ba  Ba1  1  0.21441500  0.21441500  0.35929900  1
  Ba  Ba2  1  0.37109400  0.37109400  0.88806600  1
  Ba  Ba3  1  0.62907500  0.62907500  0.11306800  1
  Sn  Sn0  1  0.09758800  0.09758800  0.12329700  1
  Sn  Sn1  1  0.68300500  0.09611200  0.12340600  1
  Sn  Sn2  1  0.09611200  0.68300500  0.12340600  1
  Sn  Sn3  1  0.90455300  0.90455300  0.87224300  1
  Sn  Sn4  1  0.31662900  0.90278600  0.87519900  1
  Sn  Sn5  1  0.90278600  0.31662900  0.87519900  1
  Sn  Sn6  1  0.78638800  0.29643300  0.62566900  1
  Sn  Sn7  1  0.29643300  0.78638800  0.62566900  1
  Bi  Bi0  1  0.29692000  0.29692000  0.62345100  1
  Bi  Bi1  1  0.21011300  0.70670000  0.37566800  1
  Bi  Bi2  1  0.70670000  0.21011300  0.37566800  1
  Bi  Bi3  1  0.70173500  0.70173500  0.38032700  1
loop_
_geom_bond_atom_site_label_1
_geom_bond_atom_site_label_2
_geom_bond_distance
_geom_bond_site_symmetry_2
Ba0 Sn3 3.635364 1_555
Ba0 Sn7 3.642463 1_555
Ba0 Sn6 3.642463 1_555
Ba0 Bi0 3.661027 1_655
Ba0 Bi0 3.661027 1_565
Ba0 Sn5 3.662139 1_555
Ba0 Sn4 3.662139 1_555
Ba0 Sn7 3.680279 1_655
Ba0 Sn6 3.680279 1_565
Ba0 Bi3 3.691549 1_555
Ba0 Bi1 3.706745 1_655
Ba0 Bi2 3.706745 1_565
Ba1 Bi2 3.649933 1_555
Ba1 Bi1 3.649933 1_555
Ba1 Bi3 3.664030 1_455
Ba1 Bi3 3.664030 1_545
Ba1 Sn2 3.664294 1_555
Ba1 Sn1 3.664294 1_555
Ba1 Sn0 3.671045 1_555
Ba1 Bi1 3.674425 1_545
Ba1 Bi2 3.674425 1_455
Ba1 Bi0 3.723626 1_555
Ba1 Sn6 3.736352 1_455
Ba1 Sn7 3.736352 1_545
Ba2 Sn6 3.657677 1_555
Ba2 Sn7 3.657677 1_555
Ba2 Sn0 3.660375 1_556
Ba2 Sn1 3.661661 1_556
Ba2 Sn2 3.661661 1_556
Ba2 Sn5 3.664581 1_555
Ba2 Sn4 3.664581 1_555
Ba2 Bi0 3.668841 1_555
Ba2 Sn3 3.677257 1_455
Ba2 Sn3 3.677257 1_545
Ba2 Sn4 3.693802 1_545
Ba2 Sn5 3.693802 1_455
Ba3 Sn2 3.671484 1_655
Ba3 Sn1 3.671484 1_565
Ba3 Bi2 3.672552 1_555
Ba3 Bi1 3.672552 1_555
Ba3 Sn0 3.674515 1_655
Ba3 Sn0 3.674515 1_565
Ba3 Sn1 3.683052 1_555
Ba3 Sn2 3.683052 1_555
Ba3 Sn4 3.689003 1_554
Ba3 Sn5 3.689003 1_554
Ba3 Bi3 3.689544 1_555
Ba3 Sn3 3.708884 1_554
Sn0 Sn1 3.037569 1_455
Sn0 Sn2 3.037569 1_545
Sn0 Sn5 3.346316 1_454
Sn0 Sn4 3.346316 1_544
Sn1 Sn2 3.020115 1_645
Sn1 Sn5 3.338510 1_554
Sn1 Sn3 3.368947 1_544
Sn2 Sn4 3.338510 1_554
Sn2 Sn3 3.368947 1_454
Sn3 Sn5 3.018758 1_565
Sn3 Sn4 3.018758 1_655
Sn3 Sn7 3.458939 1_655
Sn3 Sn6 3.458939 1_565
Sn4 Sn5 3.025496 1_465
Sn4 Sn7 3.465900 1_555
Sn5 Sn6 3.465900 1_555
Bi0 Sn4 3.514125 1_545
Bi0 Sn5 3.514125 1_455
Bi1 Sn2 3.499979 1_555
Bi1 Sn0 3.501764 1_565
Bi2 Sn1 3.499979 1_555
Bi2 Sn0 3.501764 1_655
Bi3 Sn1 3.556800 1_565
Bi3 Sn2 3.556800 1_655
