# generated using pymatgen
data_SrCa(CuO2)2
_symmetry_space_group_name_H-M   'P 1'
_cell_length_a   5.15097430
_cell_length_b   5.15097430
_cell_length_c   5.15097430
_cell_angle_alpha   115.00059282
_cell_angle_beta   115.00059282
_cell_angle_gamma   98.90199127
_symmetry_Int_Tables_number   1
_chemical_formula_structural   SrCa(CuO2)2
_chemical_formula_sum   'Sr1 Ca1 Cu2 O4'
_cell_volume   102.59662702
_cell_formula_units_Z   1
loop_
 _symmetry_equiv_pos_site_id
 _symmetry_equiv_pos_as_xyz
  1  'x, y, z'
loop_
 _atom_site_type_symbol
 _atom_site_label
 _atom_site_symmetry_multiplicity
 _atom_site_fract_x
 _atom_site_fract_y
 _atom_site_fract_z
 _atom_site_occupancy
  Sr  Sr0  1  0.50000000  0.50000000  0.00000000  1
  Ca  Ca0  1  0.00000000  0.00000000  0.00000000  1
  Cu  Cu0  1  0.25000000  0.75000000  0.50000000  1
  Cu  Cu1  1  0.75000000  0.25000000  0.50000000  1
  O  O0  1  0.50000000  0.50000000  0.50000000  1
  O  O1  1  0.00000000  0.00000000  0.50000000  1
  O  O2  1  0.00000000  0.50000000  0.00000000  1
  O  O3  1  0.50000000  0.00000000  0.00000000  1
loop_
_geom_bond_atom_site_label_1
_geom_bond_atom_site_label_2
_geom_bond_distance
_geom_bond_site_symmetry_2
Ca0 O0 2.575487 1_444
Ca0 O3 2.575487 1_455
Ca0 O0 2.575487 1_555
Ca0 O2 2.575487 1_545
Ca0 O3 2.575487 1_555
Ca0 O2 2.575487 1_555
Ca0 O1 2.575487 1_555
Ca0 O1 2.575487 1_554
Cu0 O3 1.956984 1_566
Cu0 O0 1.956984 1_555
Cu0 O1 1.956984 1_565
Cu0 O2 1.956984 1_555
Cu1 O0 1.956984 1_555
Cu1 O2 1.956984 1_656
Cu1 O1 1.956984 1_655
Cu1 O3 1.956984 1_555
O0 Sr0 2.575487 1_555
O0 Sr0 2.575487 1_556
O1 Sr0 2.575487 1_445
O1 Sr0 2.575487 1_556
O2 Sr0 2.575487 1_455
O2 Sr0 2.575487 1_555
O3 Sr0 2.575487 1_545
O3 Sr0 2.575487 1_555
