# generated using pymatgen
data_EuPbAu2
_symmetry_space_group_name_H-M   'P 1'
_cell_length_a   5.13268114
_cell_length_b   5.13268114
_cell_length_c   5.13268114
_cell_angle_alpha   60.00000000
_cell_angle_beta   60.00000000
_cell_angle_gamma   60.00000000
_symmetry_Int_Tables_number   1
_chemical_formula_structural   EuPbAu2
_chemical_formula_sum   'Eu1 Pb1 Au2'
_cell_volume   95.61320097
_cell_formula_units_Z   1
loop_
 _symmetry_equiv_pos_site_id
 _symmetry_equiv_pos_as_xyz
  1  'x, y, z'
loop_
 _atom_site_type_symbol
 _atom_site_label
 _atom_site_symmetry_multiplicity
 _atom_site_fract_x
 _atom_site_fract_y
 _atom_site_fract_z
 _atom_site_occupancy
  Eu  Eu0  1  0.50000000  0.50000000  0.50000000  1
  Pb  Pb0  1  0.00000000  0.00000000  0.00000000  1
  Au  Au0  1  0.25000000  0.25000000  0.25000000  1
  Au  Au1  1  0.75000000  0.75000000  0.75000000  1
loop_
_geom_bond_atom_site_label_1
_geom_bond_atom_site_label_2
_geom_bond_distance
_geom_bond_site_symmetry_2
Eu0 Pb0 3.629354 1_556
Eu0 Pb0 3.629354 1_565
Eu0 Pb0 3.629354 1_655
Eu0 Pb0 3.629354 1_665
Eu0 Pb0 3.629354 1_656
Eu0 Pb0 3.629354 1_566
Au0 Pb0 3.143112 1_555
Au0 Eu0 3.143112 1_555
Au0 Eu0 3.143112 1_545
Au0 Pb0 3.143112 1_556
Au0 Pb0 3.143112 1_565
Au0 Eu0 3.143112 1_554
Au0 Pb0 3.143112 1_655
Au0 Eu0 3.143112 1_455
Au1 Eu0 3.143112 1_565
Au1 Pb0 3.143112 1_666
Au1 Eu0 3.143112 1_556
Au1 Eu0 3.143112 1_555
Au1 Pb0 3.143112 1_665
Au1 Pb0 3.143112 1_656
Au1 Eu0 3.143112 1_655
Au1 Pb0 3.143112 1_566
