# generated using pymatgen
data_Ca5CoPb3
_symmetry_space_group_name_H-M   'P 1'
_cell_length_a   9.51184130
_cell_length_b   9.51184130
_cell_length_c   6.76132100
_cell_angle_alpha   90.00000000
_cell_angle_beta   90.00000000
_cell_angle_gamma   119.99999513
_symmetry_Int_Tables_number   1
_chemical_formula_structural   Ca5CoPb3
_chemical_formula_sum   'Ca10 Co2 Pb6'
_cell_volume   529.77492581
_cell_formula_units_Z   2
loop_
 _symmetry_equiv_pos_site_id
 _symmetry_equiv_pos_as_xyz
  1  'x, y, z'
loop_
 _atom_site_type_symbol
 _atom_site_label
 _atom_site_symmetry_multiplicity
 _atom_site_fract_x
 _atom_site_fract_y
 _atom_site_fract_z
 _atom_site_occupancy
  Ca  Ca0  1  0.25097600  0.00000000  0.25000000  1
  Ca  Ca1  1  0.74902400  0.00000000  0.75000000  1
  Ca  Ca2  1  0.00000000  0.25097600  0.25000000  1
  Ca  Ca3  1  0.00000000  0.74902400  0.75000000  1
  Ca  Ca4  1  0.74902400  0.74902400  0.25000000  1
  Ca  Ca5  1  0.25097600  0.25097600  0.75000000  1
  Ca  Ca6  1  0.33333300  0.66666700  0.00000000  1
  Ca  Ca7  1  0.66666700  0.33333300  0.00000000  1
  Ca  Ca8  1  0.66666700  0.33333300  0.50000000  1
  Ca  Ca9  1  0.33333300  0.66666700  0.50000000  1
  Co  Co0  1  0.00000000  0.00000000  0.00000000  1
  Co  Co1  1  0.00000000  0.00000000  0.50000000  1
  Pb  Pb0  1  0.60541400  0.00000000  0.25000000  1
  Pb  Pb1  1  0.39458600  0.00000000  0.75000000  1
  Pb  Pb2  1  0.00000000  0.60541400  0.25000000  1
  Pb  Pb3  1  0.00000000  0.39458600  0.75000000  1
  Pb  Pb4  1  0.39458600  0.39458600  0.25000000  1
  Pb  Pb5  1  0.60541400  0.60541400  0.75000000  1
loop_
_geom_bond_atom_site_label_1
_geom_bond_atom_site_label_2
_geom_bond_distance
_geom_bond_site_symmetry_2
Ca0 Co0 2.925090 1_555
Ca0 Co1 2.925090 1_555
Ca0 Pb4 3.290265 1_555
Ca0 Pb2 3.290265 1_545
Ca0 Pb0 3.371358 1_555
Ca0 Pb1 3.646205 1_555
Ca0 Pb1 3.646205 1_554
Ca1 Co1 2.925090 1_655
Ca1 Co0 2.925090 1_656
Ca1 Pb5 3.290265 1_545
Ca1 Pb3 3.290265 1_655
Ca1 Pb1 3.371358 1_555
Ca1 Pb0 3.646205 1_556
Ca1 Pb0 3.646205 1_555
Ca2 Co0 2.925090 1_555
Ca2 Co1 2.925090 1_555
Ca2 Pb4 3.290265 1_555
Ca2 Pb0 3.290265 1_455
Ca2 Pb2 3.371358 1_555
Ca2 Pb3 3.646205 1_555
Ca2 Pb3 3.646205 1_554
Ca3 Co1 2.925090 1_565
Ca3 Co0 2.925090 1_566
Ca3 Pb5 3.290265 1_455
Ca3 Pb1 3.290265 1_565
Ca3 Pb3 3.371358 1_555
Ca3 Pb2 3.646205 1_555
Ca3 Pb2 3.646205 1_556
Ca4 Co1 2.925090 1_665
Ca4 Co0 2.925090 1_665
Ca4 Pb2 3.290265 1_655
Ca4 Pb0 3.290265 1_565
Ca4 Pb4 3.371358 1_555
Ca4 Pb5 3.646205 1_554
Ca4 Pb5 3.646205 1_555
Ca5 Co0 2.925090 1_556
Ca5 Co1 2.925090 1_555
Ca5 Pb1 3.290265 1_555
Ca5 Pb3 3.290265 1_555
Ca5 Pb5 3.371358 1_555
Ca5 Pb4 3.646205 1_555
Ca5 Pb4 3.646205 1_556
Ca6 Pb2 3.376708 1_555
Ca6 Pb1 3.376708 1_564
Ca6 Pb0 3.376711 1_565
Ca6 Pb3 3.376711 1_554
Ca6 Pb5 3.376716 1_554
Ca6 Pb4 3.376716 1_555
Ca7 Pb0 3.376708 1_555
Ca7 Pb3 3.376708 1_654
Ca7 Pb1 3.376711 1_554
Ca7 Pb2 3.376711 1_655
Ca7 Pb4 3.376716 1_555
Ca7 Pb5 3.376716 1_554
Ca8 Pb0 3.376708 1_555
Ca8 Pb3 3.376708 1_655
Ca8 Pb2 3.376711 1_655
Ca8 Pb1 3.376711 1_555
Ca8 Pb4 3.376716 1_555
Ca8 Pb5 3.376716 1_555
Ca9 Pb1 3.376708 1_565
Ca9 Pb2 3.376708 1_555
Ca9 Pb0 3.376711 1_565
Ca9 Pb3 3.376711 1_555
Ca9 Pb4 3.376716 1_555
Ca9 Pb5 3.376716 1_555
