# generated using pymatgen
data_Ta3Se12I
_symmetry_space_group_name_H-M   'P 1'
_cell_length_a   9.70358846
_cell_length_b   9.70358846
_cell_length_c   19.22257678
_cell_angle_alpha   90.00000000
_cell_angle_beta   90.00000000
_cell_angle_gamma   90.00000000
_symmetry_Int_Tables_number   1
_chemical_formula_structural   Ta3Se12I
_chemical_formula_sum   'Ta12 Se48 I4'
_cell_volume   1809.99069805
_cell_formula_units_Z   4
loop_
 _symmetry_equiv_pos_site_id
 _symmetry_equiv_pos_as_xyz
  1  'x, y, z'
loop_
 _atom_site_type_symbol
 _atom_site_label
 _atom_site_symmetry_multiplicity
 _atom_site_fract_x
 _atom_site_fract_y
 _atom_site_fract_z
 _atom_site_occupancy
  Ta  Ta0  1  0.00000000  0.50000000  0.07948197  1
  Ta  Ta1  1  0.00000000  0.50000000  0.92051803  1
  Ta  Ta2  1  0.50000000  -0.00000000  0.07948197  1
  Ta  Ta3  1  0.50000000  -0.00000000  0.42051803  1
  Ta  Ta4  1  0.50000000  -0.00000000  0.92051803  1
  Ta  Ta5  1  0.50000000  -0.00000000  0.57948197  1
  Ta  Ta6  1  0.00000000  0.50000000  0.42051803  1
  Ta  Ta7  1  0.00000000  0.50000000  0.57948197  1
  Ta  Ta8  1  0.00000000  0.50000000  0.25000000  1
  Ta  Ta9  1  0.00000000  0.50000000  0.75000000  1
  Ta  Ta10  1  0.50000000  -0.00000000  0.25000000  1
  Ta  Ta11  1  0.50000000  -0.00000000  0.75000000  1
  Se  Se0  1  0.22022134  0.48132330  0.00000000  1
  Se  Se1  1  0.77977866  0.51867670  0.00000000  1
  Se  Se2  1  0.51867670  0.22022134  0.00000000  1
  Se  Se3  1  0.27977866  0.98132330  0.50000000  1
  Se  Se4  1  0.48132330  0.77977866  0.00000000  1
  Se  Se5  1  0.72022134  0.01867670  0.50000000  1
  Se  Se6  1  0.98132330  0.72022134  0.50000000  1
  Se  Se7  1  0.01867670  0.27977866  0.50000000  1
  Se  Se8  1  0.28988411  0.04785224  0.32803928  1
  Se  Se9  1  0.71011589  0.95214776  0.67196072  1
  Se  Se10  1  0.71011589  0.95214776  0.32803928  1
  Se  Se11  1  0.95214776  0.28988411  0.32803928  1
  Se  Se12  1  0.21011589  0.54785224  0.17196072  1
  Se  Se13  1  0.28988411  0.04785224  0.67196072  1
  Se  Se14  1  0.04785224  0.71011589  0.67196072  1
  Se  Se15  1  0.78988411  0.45214776  0.82803928  1
  Se  Se16  1  0.04785224  0.71011589  0.32803928  1
  Se  Se17  1  0.78988411  0.45214776  0.17196072  1
  Se  Se18  1  0.95214776  0.28988411  0.67196072  1
  Se  Se19  1  0.21011589  0.54785224  0.82803928  1
  Se  Se20  1  0.54785224  0.78988411  0.17196072  1
  Se  Se21  1  0.45214776  0.21011589  0.82803928  1
  Se  Se22  1  0.45214776  0.21011589  0.17196072  1
  Se  Se23  1  0.54785224  0.78988411  0.82803928  1
  Se  Se24  1  0.12371750  0.31811508  0.16014908  1
  Se  Se25  1  0.87628250  0.68188492  0.83985092  1
  Se  Se26  1  0.87628250  0.68188492  0.16014908  1
  Se  Se27  1  0.68188492  0.12371750  0.16014908  1
  Se  Se28  1  0.37628250  0.81811508  0.33985092  1
  Se  Se29  1  0.12371750  0.31811508  0.83985092  1
  Se  Se30  1  0.31811508  0.87628250  0.83985092  1
  Se  Se31  1  0.62371750  0.18188492  0.66014908  1
  Se  Se32  1  0.31811508  0.87628250  0.16014908  1
  Se  Se33  1  0.62371750  0.18188492  0.33985092  1
  Se  Se34  1  0.68188492  0.12371750  0.83985092  1
  Se  Se35  1  0.37628250  0.81811508  0.66014908  1
  Se  Se36  1  0.81811508  0.62371750  0.33985092  1
  Se  Se37  1  0.18188492  0.37628250  0.66014908  1
  Se  Se38  1  0.18188492  0.37628250  0.33985092  1
  Se  Se39  1  0.81811508  0.62371750  0.66014908  1
  Se  Se40  1  0.30420452  0.10630908  0.00000000  1
  Se  Se41  1  0.69579548  0.89369092  0.00000000  1
  Se  Se42  1  0.89369092  0.30420452  0.00000000  1
  Se  Se43  1  0.19579548  0.60630908  0.50000000  1
  Se  Se44  1  0.10630908  0.69579548  0.00000000  1
  Se  Se45  1  0.80420452  0.39369092  0.50000000  1
  Se  Se46  1  0.60630908  0.80420452  0.50000000  1
  Se  Se47  1  0.39369092  0.19579548  0.50000000  1
  I  I0  1  0.00000000  -0.00000000  0.13168932  1
  I  I1  1  0.00000000  -0.00000000  0.86831068  1
  I  I2  1  0.50000000  0.50000000  0.36831068  1
  I  I3  1  0.50000000  0.50000000  0.63168932  1
loop_
_geom_bond_atom_site_label_1
_geom_bond_atom_site_label_2
_geom_bond_distance
_geom_bond_site_symmetry_2
Se0 Se44 2.356480 1_555
Se0 Ta0 2.633185 1_555
Se0 Ta1 2.633185 1_554
Se1 Se42 2.356480 1_555
Se1 Ta1 2.633185 1_654
Se1 Ta0 2.633185 1_655
Se2 Se40 2.356480 1_555
Se2 Ta4 2.633185 1_554
Se2 Ta2 2.633185 1_555
Se3 Se47 2.356480 1_565
Se3 Ta3 2.633185 1_565
Se3 Ta5 2.633185 1_565
Se4 Se41 2.356480 1_555
Se4 Ta2 2.633185 1_565
Se4 Ta4 2.633185 1_564
Se5 Ta3 2.633185 1_555
Se5 Ta5 2.633185 1_555
Se6 Ta7 2.633185 1_655
Se6 Ta6 2.633185 1_655
Se7 Ta7 2.633185 1_555
Se7 Ta6 2.633185 1_555
Se8 Ta10 2.573516 1_555
Se8 Ta3 2.744591 1_555
Se9 Ta11 2.573516 1_565
Se9 Ta5 2.744591 1_565
Se10 Se33 2.392507 1_565
Se10 Ta10 2.573516 1_565
Se10 Ta3 2.744591 1_565
Se11 Se38 2.392507 1_655
Se11 Ta8 2.573516 1_655
Se11 Ta6 2.744591 1_655
Se12 Se24 2.392507 1_555
Se12 Ta8 2.573516 1_555
Se12 Ta0 2.744591 1_555
Se13 Se35 2.392507 1_545
Se13 Ta11 2.573516 1_555
Se13 Ta5 2.744591 1_555
Se14 Se39 2.392507 1_455
Se14 Ta9 2.573516 1_555
Se14 Ta7 2.744591 1_555
Se15 Se25 2.392507 1_555
Se15 Ta9 2.573516 1_655
Se15 Ta1 2.744591 1_655
Se16 Se36 2.392507 1_455
Se16 Ta8 2.573516 1_555
Se16 Ta6 2.744591 1_555
Se17 Se26 2.392507 1_555
Se17 Ta8 2.573516 1_655
Se17 Ta0 2.744591 1_655
Se18 Se37 2.392507 1_655
Se18 Ta9 2.573516 1_655
Se18 Ta7 2.744591 1_655
Se19 Se29 2.392507 1_555
Se19 Ta9 2.573516 1_555
Se19 Ta1 2.744591 1_555
Se20 Se32 2.392507 1_555
Se20 Ta10 2.573516 1_565
Se20 Ta2 2.744591 1_565
Se21 Se34 2.392507 1_555
Se21 Ta11 2.573516 1_555
Se21 Ta4 2.744591 1_555
Se22 Se27 2.392507 1_555
Se22 Ta10 2.573516 1_555
Se22 Ta2 2.744591 1_555
Se23 Se30 2.392507 1_555
Se23 Ta11 2.573516 1_565
Se23 Ta4 2.744591 1_565
Se24 Ta0 2.638307 1_555
Se24 Ta8 2.745781 1_555
Se25 Ta1 2.638307 1_655
Se25 Ta9 2.745781 1_655
Se26 Ta0 2.638307 1_655
Se26 Ta8 2.745781 1_655
Se27 Ta2 2.638307 1_555
Se27 Ta10 2.745781 1_555
Se28 Se8 2.392507 1_565
Se28 Ta3 2.638307 1_565
Se28 Ta10 2.745781 1_565
Se29 Ta1 2.638307 1_555
Se29 Ta9 2.745781 1_555
Se30 Ta4 2.638307 1_565
Se30 Ta11 2.745781 1_565
Se31 Se9 2.392507 1_545
Se31 Ta5 2.638307 1_555
Se31 Ta11 2.745781 1_555
Se32 Ta2 2.638307 1_565
Se32 Ta10 2.745781 1_565
Se33 Ta3 2.638307 1_555
Se33 Ta10 2.745781 1_555
Se34 Ta4 2.638307 1_555
Se34 Ta11 2.745781 1_555
Se35 Ta5 2.638307 1_565
Se35 Ta11 2.745781 1_565
Se36 Ta6 2.638307 1_655
Se36 Ta8 2.745781 1_655
Se37 Ta7 2.638307 1_555
Se37 Ta9 2.745781 1_555
Se38 Ta6 2.638307 1_555
Se38 Ta8 2.745781 1_555
Se39 Ta7 2.638307 1_655
Se39 Ta9 2.745781 1_655
Se40 Ta2 2.647294 1_555
Se40 Ta4 2.647294 1_554
Se41 Ta4 2.647294 1_564
Se41 Ta2 2.647294 1_565
Se42 Ta0 2.647294 1_655
Se42 Ta1 2.647294 1_654
Se43 Se6 2.356480 1_455
Se43 Ta7 2.647294 1_555
Se43 Ta6 2.647294 1_555
Se44 Ta0 2.647294 1_555
Se44 Ta1 2.647294 1_554
Se45 Se7 2.356480 1_655
Se45 Ta7 2.647294 1_655
Se45 Ta6 2.647294 1_655
Se46 Se5 2.356480 1_565
Se46 Ta5 2.647294 1_565
Se46 Ta3 2.647294 1_565
Se47 Ta5 2.647294 1_555
Se47 Ta3 2.647294 1_555
I0 Se24 3.356961 1_555
I0 Se27 3.356961 1_455
I0 Se26 3.356961 1_445
I0 Se32 3.356961 1_545
I1 Se34 3.356961 1_455
I1 Se25 3.356961 1_445
I1 Se29 3.356961 1_555
I1 Se30 3.356961 1_545
I2 Se28 3.356961 1_555
I2 Se33 3.356961 1_555
I2 Se38 3.356961 1_555
I2 Se36 3.356961 1_555
I3 Se35 3.356961 1_555
I3 Se37 3.356961 1_555
I3 Se31 3.356961 1_555
I3 Se39 3.356961 1_555
