# generated using pymatgen
data_Ba4MgTl8O16
_symmetry_space_group_name_H-M   'P 1'
_cell_length_a   10.96921368
_cell_length_b   12.45879562
_cell_length_c   3.57130541
_cell_angle_alpha   90.00000000
_cell_angle_beta   90.00000000
_cell_angle_gamma   86.17573932
_symmetry_Int_Tables_number   1
_chemical_formula_structural   Ba4MgTl8O16
_chemical_formula_sum   'Ba4 Mg1 Tl8 O16'
_cell_volume   486.97922604
_cell_formula_units_Z   1
loop_
 _symmetry_equiv_pos_site_id
 _symmetry_equiv_pos_as_xyz
  1  'x, y, z'
loop_
 _atom_site_type_symbol
 _atom_site_label
 _atom_site_symmetry_multiplicity
 _atom_site_fract_x
 _atom_site_fract_y
 _atom_site_fract_z
 _atom_site_occupancy
  Ba  Ba0  1  0.26445418  0.32797180  0.75000000  1
  Ba  Ba1  1  0.26599131  0.87121752  0.25000000  1
  Ba  Ba2  1  0.73192712  0.13304998  0.75000000  1
  Ba  Ba3  1  0.77225456  0.65584989  0.25000000  1
  Mg  Mg0  1  0.02510086  0.44900089  0.75000000  1
  Tl  Tl0  1  0.12233395  0.64492967  0.75000000  1
  Tl  Tl1  1  0.06793269  0.11254699  0.75000000  1
  Tl  Tl2  1  0.44699043  0.62366602  0.25000000  1
  Tl  Tl3  1  0.42764623  0.10373256  0.25000000  1
  Tl  Tl4  1  0.58996523  0.88769886  0.75000000  1
  Tl  Tl5  1  0.55834039  0.39452574  0.75000000  1
  Tl  Tl6  1  0.93232028  0.89926496  0.25000000  1
  Tl  Tl7  1  0.86394019  0.36045316  0.25000000  1
  O  O0  1  0.02144038  0.74004656  0.25000000  1
  O  O1  1  0.09002619  0.93805923  0.75000000  1
  O  O2  1  0.09270406  0.42084159  0.25000000  1
  O  O3  1  0.21024256  0.15840543  0.25000000  1
  O  O4  1  0.32856176  0.70123702  0.75000000  1
  O  O5  1  0.39653984  0.98239814  0.75000000  1
  O  O6  1  0.41879893  0.43765353  0.25000000  1
  O  O7  1  0.47584800  0.21680345  0.75000000  1
  O  O8  1  0.55375771  0.77897076  0.25000000  1
  O  O9  1  0.58536121  0.57084120  0.75000000  1
  O  O10  1  0.61804211  0.01663857  0.25000000  1
  O  O11  1  0.67738388  0.31219147  0.25000000  1
  O  O12  1  0.79778938  0.84197066  0.75000000  1
  O  O13  1  0.85169987  0.49324648  0.75000000  1
  O  O14  1  0.91447462  0.07665055  0.25000000  1
  O  O15  1  0.96063206  0.27722031  0.75000000  1
loop_
_geom_bond_atom_site_label_1
_geom_bond_atom_site_label_2
_geom_bond_distance
_geom_bond_site_symmetry_2
Ba0 O7 2.620463 1_555
Ba0 O2 2.790315 1_555
Ba0 O2 2.790315 1_556
Ba0 O3 2.858811 1_556
Ba0 O3 2.858811 1_555
Ba0 O6 2.868951 1_556
Ba0 O6 2.868951 1_555
Ba1 O1 2.719064 1_555
Ba1 O1 2.719064 1_554
Ba1 O5 2.724433 1_555
Ba1 O5 2.724433 1_554
Ba1 O4 2.819684 1_554
Ba1 O4 2.819684 1_555
Ba1 O0 3.232873 1_555
Ba2 O10 2.663516 1_555
Ba2 O10 2.663516 1_556
Ba2 O14 2.739385 1_556
Ba2 O14 2.739385 1_555
Ba2 O11 2.889587 1_556
Ba2 O11 2.889587 1_555
Ba2 O7 2.930571 1_555
Ba2 O15 3.181355 1_555
Ba3 O8 2.758063 1_555
Ba3 O13 2.795806 1_555
Ba3 O13 2.795806 1_554
Ba3 O12 2.954771 1_554
Ba3 O12 2.954771 1_555
Ba3 O9 2.966933 1_555
Ba3 O9 2.966933 1_554
Ba3 O0 2.992353 1_655
Mg0 O13 1.944708 1_455
Mg0 O2 1.956230 1_555
Mg0 O2 1.956230 1_556
Mg0 O15 2.298335 1_455
O0 Tl6 2.152192 1_455
O0 Tl0 2.375451 1_554
O0 Tl0 2.375451 1_555
O1 Tl1 2.171251 1_565
O1 Tl6 2.554659 1_456
O1 Tl6 2.554659 1_455
O2 Tl7 2.667355 1_455
O3 Tl3 2.436045 1_555
O3 Tl1 2.463892 1_555
O3 Tl1 2.463892 1_554
O4 Tl2 2.375431 1_555
O4 Tl2 2.375431 1_556
O4 Tl0 2.412711 1_555
O5 Tl4 2.357926 1_555
O5 Tl3 2.378858 1_565
O5 Tl3 2.378858 1_566
O6 Tl2 2.358388 1_555
O6 Tl5 2.389661 1_554
O6 Tl5 2.389661 1_555
O7 Tl3 2.356265 1_555
O7 Tl3 2.356265 1_556
O7 Tl5 2.447197 1_555
O8 Tl4 2.291956 1_554
O8 Tl4 2.291956 1_555
O8 Tl2 2.327607 1_555
O9 Tl5 2.236090 1_555
O9 Tl2 2.406703 1_556
O9 Tl2 2.406703 1_555
O10 Tl3 2.288432 1_555
O10 Tl4 2.435166 1_544
O10 Tl4 2.435166 1_545
O11 Tl7 2.171020 1_555
O11 Tl5 2.401513 1_554
O11 Tl5 2.401513 1_555
O12 Tl4 2.312621 1_555
O12 Tl6 2.452813 1_556
O12 Tl6 2.452813 1_555
O13 Tl7 2.431900 1_555
O13 Tl7 2.431900 1_556
O14 Tl6 2.205620 1_545
O14 Tl1 2.514465 1_655
O14 Tl1 2.514465 1_654
O15 Tl7 2.289567 1_555
O15 Tl7 2.289567 1_556
O15 Tl1 2.296174 1_655
