# generated using pymatgen
data_CaTi2O4
_symmetry_space_group_name_H-M   'P 1'
_cell_length_a   5.13164800
_cell_length_b   5.91148700
_cell_length_c   11.37182600
_cell_angle_alpha   90.00000000
_cell_angle_beta   90.00000000
_cell_angle_gamma   90.00000000
_symmetry_Int_Tables_number   1
_chemical_formula_structural   CaTi2O4
_chemical_formula_sum   'Ca4 Ti8 O16'
_cell_volume   344.97196584
_cell_formula_units_Z   4
loop_
 _symmetry_equiv_pos_site_id
 _symmetry_equiv_pos_as_xyz
  1  'x, y, z'
loop_
 _atom_site_type_symbol
 _atom_site_label
 _atom_site_symmetry_multiplicity
 _atom_site_fract_x
 _atom_site_fract_y
 _atom_site_fract_z
 _atom_site_occupancy
  Ca  Ca0  1  0.84044400  0.00000000  0.50000000  1
  Ca  Ca1  1  0.15955600  0.50000000  0.00000000  1
  Ca  Ca2  1  0.53911900  0.00000000  0.00000000  1
  Ca  Ca3  1  0.46088100  0.50000000  0.50000000  1
  Ti  Ti0  1  0.52698200  0.50000000  0.23948200  1
  Ti  Ti1  1  0.52698200  0.50000000  0.76051800  1
  Ti  Ti2  1  0.47301800  0.00000000  0.26051800  1
  Ti  Ti3  1  0.47301800  0.00000000  0.73948200  1
  Ti  Ti4  1  0.00000000  0.25000000  0.25000000  1
  Ti  Ti5  1  0.00000000  0.75000000  0.75000000  1
  Ti  Ti6  1  0.00000000  0.75000000  0.25000000  1
  Ti  Ti7  1  0.00000000  0.25000000  0.75000000  1
  O  O0  1  0.84526500  0.50000000  0.14214700  1
  O  O1  1  0.84526500  0.50000000  0.85785300  1
  O  O2  1  0.15473500  0.00000000  0.35785300  1
  O  O3  1  0.15473500  0.00000000  0.64214700  1
  O  O4  1  0.17427800  0.50000000  0.34024600  1
  O  O5  1  0.17427800  0.50000000  0.65975400  1
  O  O6  1  0.82572200  0.00000000  0.15975400  1
  O  O7  1  0.82572200  0.00000000  0.84024600  1
  O  O8  1  0.66090400  0.25309900  0.35642200  1
  O  O9  1  0.66090400  0.74690100  0.64357800  1
  O  O10  1  0.33909600  0.75309900  0.14357800  1
  O  O11  1  0.33909600  0.24690100  0.85642200  1
  O  O12  1  0.33909600  0.24690100  0.14357800  1
  O  O13  1  0.33909600  0.75309900  0.85642200  1
  O  O14  1  0.66090400  0.74690100  0.35642200  1
  O  O15  1  0.66090400  0.25309900  0.64357800  1
loop_
_geom_bond_atom_site_label_1
_geom_bond_atom_site_label_2
_geom_bond_distance
_geom_bond_site_symmetry_2
Ca0 O3 2.283463 1_655
Ca0 O2 2.283463 1_655
Ca0 O9 2.398604 1_545
Ca0 O14 2.398604 1_545
Ca0 O8 2.398604 1_555
Ca0 O15 2.398604 1_555
Ca1 O0 2.283463 1_455
Ca1 O1 2.283463 1_454
Ca1 O13 2.398604 1_554
Ca1 O11 2.398604 1_554
Ca1 O10 2.398604 1_555
Ca1 O12 2.398604 1_555
Ca2 O7 2.337407 1_554
Ca2 O6 2.337407 1_555
Ca2 O11 2.418624 1_554
Ca2 O13 2.418624 1_544
Ca2 O10 2.418624 1_545
Ca2 O12 2.418624 1_555
Ca3 O5 2.337407 1_555
Ca3 O4 2.337407 1_555
Ca3 O9 2.418624 1_555
Ca3 O14 2.418624 1_555
Ca3 O8 2.418624 1_555
Ca3 O15 2.418624 1_555
O0 Ti0 1.973043 1_555
O0 Ti6 2.078192 1_655
O0 Ti4 2.078192 1_655
O1 Ti1 1.973043 1_555
O1 Ti7 2.078192 1_655
O1 Ti5 2.078192 1_655
O2 Ti2 1.973043 1_555
O2 Ti6 2.078192 1_545
O2 Ti4 2.078192 1_555
O3 Ti3 1.973043 1_555
O3 Ti7 2.078192 1_555
O3 Ti5 2.078192 1_545
O4 Ti4 2.009266 1_555
O4 Ti6 2.009266 1_555
O4 Ti0 2.142183 1_555
O5 Ti7 2.009266 1_555
O5 Ti5 2.009266 1_555
O5 Ti1 2.142183 1_555
O6 Ti6 2.009266 1_645
O6 Ti4 2.009266 1_655
O6 Ti2 2.142183 1_555
O7 Ti5 2.009266 1_645
O7 Ti7 2.009266 1_655
O7 Ti3 2.142183 1_555
O8 Ti2 2.087491 1_555
O8 Ti0 2.090698 1_555
O8 Ti4 2.119663 1_655
O9 Ti3 2.087491 1_565
O9 Ti1 2.090698 1_555
O9 Ti5 2.119663 1_655
O10 Ti0 2.087491 1_555
O10 Ti2 2.090698 1_565
O10 Ti6 2.119663 1_555
O11 Ti1 2.087491 1_555
O11 Ti3 2.090698 1_555
O11 Ti7 2.119663 1_555
O12 Ti0 2.087491 1_555
O12 Ti2 2.090698 1_555
O12 Ti4 2.119663 1_555
O13 Ti1 2.087491 1_555
O13 Ti3 2.090698 1_565
O13 Ti5 2.119663 1_555
O14 Ti2 2.087491 1_565
O14 Ti0 2.090698 1_555
O14 Ti6 2.119663 1_655
O15 Ti3 2.087491 1_555
O15 Ti1 2.090698 1_555
O15 Ti7 2.119663 1_655
