# generated using pymatgen
data_ErMgPd
_symmetry_space_group_name_H-M   'P 1'
_cell_length_a   7.33341611
_cell_length_b   7.33341611
_cell_length_c   4.06209041
_cell_angle_alpha   90.00000000
_cell_angle_beta   90.00000000
_cell_angle_gamma   119.99999826
_symmetry_Int_Tables_number   1
_chemical_formula_structural   ErMgPd
_chemical_formula_sum   'Er3 Mg3 Pd3'
_cell_volume   189.18769277
_cell_formula_units_Z   3
loop_
 _symmetry_equiv_pos_site_id
 _symmetry_equiv_pos_as_xyz
  1  'x, y, z'
loop_
 _atom_site_type_symbol
 _atom_site_label
 _atom_site_symmetry_multiplicity
 _atom_site_fract_x
 _atom_site_fract_y
 _atom_site_fract_z
 _atom_site_occupancy
  Er  Er0  1  0.41160456  0.41160456  0.50000000  1
  Er  Er1  1  0.58839544  0.00000000  0.50000000  1
  Er  Er2  1  0.00000000  0.58839544  0.50000000  1
  Mg  Mg0  1  0.75599674  0.75599674  -0.00000000  1
  Mg  Mg1  1  0.24400326  1.00000000  0.00000000  1
  Mg  Mg2  1  1.00000000  0.24400326  -0.00000000  1
  Pd  Pd0  1  0.66666700  0.33333300  -0.00000000  1
  Pd  Pd1  1  0.33333300  0.66666700  0.00000000  1
  Pd  Pd2  1  0.00000000  -0.00000000  0.50000000  1
loop_
_geom_bond_atom_site_label_1
_geom_bond_atom_site_label_2
_geom_bond_distance
_geom_bond_site_symmetry_2
Er0 Pd1 3.004490 1_556
Er0 Pd1 3.004490 1_555
Er0 Pd0 3.004490 1_555
Er0 Pd0 3.004490 1_556
Er0 Pd2 3.018468 1_555
Er0 Mg0 3.240934 1_556
Er0 Mg0 3.240934 1_555
Er0 Mg2 3.322196 1_456
Er0 Mg2 3.322196 1_455
Er0 Mg1 3.322196 1_545
Er0 Mg1 3.322196 1_546
Er1 Pd0 3.004485 1_556
Er1 Pd0 3.004485 1_555
Er1 Pd1 3.004486 1_545
Er1 Pd1 3.004486 1_546
Er1 Pd2 3.018468 1_655
Er1 Mg1 3.240934 1_546
Er1 Mg1 3.240934 1_545
Er1 Mg0 3.322196 1_545
Er1 Mg0 3.322196 1_546
Er1 Mg2 3.322196 1_556
Er1 Mg2 3.322196 1_555
Er2 Pd1 3.004485 1_556
Er2 Pd1 3.004485 1_555
Er2 Pd0 3.004486 1_455
Er2 Pd0 3.004486 1_456
Er2 Pd2 3.018468 1_565
Er2 Mg2 3.240934 1_456
Er2 Mg2 3.240934 1_455
Er2 Mg0 3.322196 1_456
Er2 Mg0 3.322196 1_455
Er2 Mg1 3.322196 1_556
Er2 Mg1 3.322196 1_555
Mg0 Pd2 2.706846 1_665
Mg0 Pd2 2.706846 1_664
Mg0 Pd0 2.829482 1_555
Mg0 Pd1 2.829482 1_555
Mg0 Mg1 3.099293 1_655
Mg0 Mg2 3.099293 1_565
Mg1 Pd2 2.706846 1_564
Mg1 Pd2 2.706846 1_565
Mg1 Pd1 2.829475 1_555
Mg1 Pd0 2.829480 1_565
Mg1 Mg2 3.099293 1_465
Mg2 Pd2 2.706846 1_655
Mg2 Pd2 2.706846 1_654
Mg2 Pd0 2.829475 1_555
Mg2 Pd1 2.829480 1_655
