# generated using pymatgen
data_Ca2SiS4
_symmetry_space_group_name_H-M   'P 1'
_cell_length_a   6.21845965
_cell_length_b   8.19168271
_cell_length_c   13.63955797
_cell_angle_alpha   90.00000000
_cell_angle_beta   90.00000000
_cell_angle_gamma   90.00000000
_symmetry_Int_Tables_number   1
_chemical_formula_structural   Ca2SiS4
_chemical_formula_sum   'Ca8 Si4 S16'
_cell_volume   694.79428729
_cell_formula_units_Z   4
loop_
 _symmetry_equiv_pos_site_id
 _symmetry_equiv_pos_as_xyz
  1  'x, y, z'
loop_
 _atom_site_type_symbol
 _atom_site_label
 _atom_site_symmetry_multiplicity
 _atom_site_fract_x
 _atom_site_fract_y
 _atom_site_fract_z
 _atom_site_occupancy
  Ca  Ca0  1  0.50000000  -0.00000000  0.50000000  1
  Ca  Ca1  1  -0.00000000  0.50000000  -0.00000000  1
  Ca  Ca2  1  0.50000000  0.50000000  0.50000000  1
  Ca  Ca3  1  -0.00000000  -0.00000000  -0.00000000  1
  Ca  Ca4  1  0.01395505  0.75000000  0.27294163  1
  Ca  Ca5  1  0.48604495  0.75000000  0.77294163  1
  Ca  Ca6  1  0.98604495  0.25000000  0.72705837  1
  Ca  Ca7  1  0.51395505  0.25000000  0.22705837  1
  Si  Si0  1  0.59279434  0.75000000  0.09355631  1
  Si  Si1  1  0.90720566  0.75000000  0.59355631  1
  Si  Si2  1  0.40720566  0.25000000  0.90644369  1
  Si  Si3  1  0.09279434  0.25000000  0.40644369  1
  S  S0  1  0.72926384  0.95639351  0.16661200  1
  S  S1  1  0.77073616  0.54360649  0.66661200  1
  S  S2  1  0.27073616  0.45639351  0.83338800  1
  S  S3  1  0.22926384  0.04360649  0.33338800  1
  S  S4  1  0.27073616  0.04360649  0.83338800  1
  S  S5  1  0.22926384  0.45639351  0.33338800  1
  S  S6  1  0.72926384  0.54360649  0.16661200  1
  S  S7  1  0.77073616  0.95639351  0.66661200  1
  S  S8  1  0.25317668  0.75000000  0.09337760  1
  S  S9  1  0.24682332  0.75000000  0.59337760  1
  S  S10  1  0.74682332  0.25000000  0.90662240  1
  S  S11  1  0.75317668  0.25000000  0.40662240  1
  S  S12  1  0.72038012  0.75000000  0.94774329  1
  S  S13  1  0.77961988  0.75000000  0.44774329  1
  S  S14  1  0.27961988  0.25000000  0.05225671  1
  S  S15  1  0.22038012  0.25000000  0.55225671  1
loop_
_geom_bond_atom_site_label_1
_geom_bond_atom_site_label_2
_geom_bond_distance
_geom_bond_site_symmetry_2
Ca0 S13 2.779469 1_545
Ca0 S15 2.779469 1_555
Ca0 S3 2.850667 1_555
Ca0 S7 2.850667 1_545
Ca0 S9 2.880060 1_545
Ca0 S11 2.880060 1_555
Ca1 S12 2.779469 1_454
Ca1 S14 2.779469 1_555
Ca1 S2 2.850667 1_554
Ca1 S6 2.850667 1_455
Ca1 S10 2.880060 1_454
Ca1 S8 2.880060 1_555
Ca2 S13 2.779469 1_555
Ca2 S15 2.779469 1_555
Ca2 S1 2.850667 1_555
Ca2 S5 2.850667 1_555
Ca2 S9 2.880060 1_555
Ca2 S11 2.880060 1_555
Ca3 S12 2.779469 1_444
Ca3 S14 2.779469 1_555
Ca3 S4 2.850667 1_554
Ca3 S0 2.850667 1_445
Ca3 S10 2.880060 1_454
Ca3 S8 2.880060 1_545
Ca4 S13 2.794268 1_455
Ca4 S6 2.845338 1_455
Ca4 S0 2.845338 1_455
Ca4 S8 2.865550 1_555
Ca4 S3 2.873503 1_565
Ca4 S5 2.873503 1_555
Ca5 S12 2.794268 1_555
Ca5 S1 2.845338 1_555
Ca5 S7 2.845338 1_555
Ca5 S9 2.865550 1_555
Ca5 S4 2.873503 1_565
Ca5 S2 2.873503 1_555
Ca6 S15 2.794268 1_655
Ca6 S4 2.845338 1_655
Ca6 S2 2.845338 1_655
Ca6 S10 2.865550 1_555
Ca6 S7 2.873503 1_545
Ca6 S1 2.873503 1_555
Ca7 S14 2.794268 1_555
Ca7 S5 2.845338 1_555
Ca7 S3 2.845338 1_555
Ca7 S11 2.865550 1_555
Ca7 S6 2.873503 1_555
Ca7 S0 2.873503 1_545
S0 Si0 2.138126 1_555
S1 Si1 2.138126 1_555
S2 Si2 2.138126 1_555
S3 Si3 2.138126 1_555
S4 Si2 2.138126 1_555
S5 Si3 2.138126 1_555
S6 Si0 2.138126 1_555
S7 Si1 2.138126 1_555
S8 Si0 2.111900 1_555
S9 Si1 2.111900 1_455
S10 Si2 2.111900 1_555
S11 Si3 2.111900 1_655
S12 Si0 2.141235 1_556
S13 Si1 2.141235 1_555
S14 Si2 2.141235 1_554
S15 Si3 2.141235 1_555
