# generated using pymatgen
data_Lu2B6Os
_symmetry_space_group_name_H-M   'P 1'
_cell_length_a   3.59853600
_cell_length_b   9.03291800
_cell_length_c   11.39971400
_cell_angle_alpha   90.00000000
_cell_angle_beta   90.00000000
_cell_angle_gamma   90.00000000
_symmetry_Int_Tables_number   1
_chemical_formula_structural   Lu2B6Os
_chemical_formula_sum   'Lu8 B24 Os4'
_cell_volume   370.55090242
_cell_formula_units_Z   4
loop_
 _symmetry_equiv_pos_site_id
 _symmetry_equiv_pos_as_xyz
  1  'x, y, z'
loop_
 _atom_site_type_symbol
 _atom_site_label
 _atom_site_symmetry_multiplicity
 _atom_site_fract_x
 _atom_site_fract_y
 _atom_site_fract_z
 _atom_site_occupancy
  Lu  Lu0  1  0.00000000  0.32056600  0.41388800  1
  Lu  Lu1  1  0.00000000  0.67943400  0.58611200  1
  Lu  Lu2  1  0.00000000  0.82056600  0.08611200  1
  Lu  Lu3  1  0.00000000  0.17943400  0.91388800  1
  Lu  Lu4  1  0.00000000  0.94537500  0.37363800  1
  Lu  Lu5  1  0.00000000  0.05462500  0.62636200  1
  Lu  Lu6  1  0.00000000  0.44537500  0.12636200  1
  Lu  Lu7  1  0.00000000  0.55462500  0.87363800  1
  B  B0  1  0.50000000  0.55426100  0.43379900  1
  B  B1  1  0.50000000  0.44573900  0.56620100  1
  B  B2  1  0.50000000  0.05426100  0.06620100  1
  B  B3  1  0.50000000  0.94573900  0.93379900  1
  B  B4  1  0.50000000  0.74979000  0.42109200  1
  B  B5  1  0.50000000  0.25021000  0.57890800  1
  B  B6  1  0.50000000  0.24979000  0.07890800  1
  B  B7  1  0.50000000  0.75021000  0.92109200  1
  B  B8  1  0.50000000  0.79320600  0.26672400  1
  B  B9  1  0.50000000  0.20679400  0.73327500  1
  B  B10  1  0.50000000  0.29320600  0.23327600  1
  B  B11  1  0.50000000  0.70679400  0.76672500  1
  B  B12  1  0.50000000  0.63228500  0.18501000  1
  B  B13  1  0.50000000  0.36771500  0.81499000  1
  B  B14  1  0.50000000  0.13228500  0.31499000  1
  B  B15  1  0.50000000  0.86771500  0.68501000  1
  B  B16  1  0.50000000  0.98311000  0.21295700  1
  B  B17  1  0.50000000  0.01689000  0.78704300  1
  B  B18  1  0.50000000  0.48311000  0.28704300  1
  B  B19  1  0.50000000  0.51689000  0.71295700  1
  B  B20  1  0.50000000  0.60838900  0.03017600  1
  B  B21  1  0.50000000  0.39161100  0.96982400  1
  B  B22  1  0.50000000  0.10838900  0.46982400  1
  B  B23  1  0.50000000  0.89161100  0.53017600  1
  Os  Os0  1  0.00000000  0.63874300  0.32128400  1
  Os  Os1  1  0.00000000  0.36125700  0.67871600  1
  Os  Os2  1  0.00000000  0.13874300  0.17871600  1
  Os  Os3  1  0.00000000  0.86125700  0.82128400  1
loop_
_geom_bond_atom_site_label_1
_geom_bond_atom_site_label_2
_geom_bond_distance
_geom_bond_site_symmetry_2
Lu0 Os1 3.041256 1_555
Lu0 Os0 3.061809 1_555
Lu0 Os2 3.143985 1_555
Lu1 Os0 3.041256 1_555
Lu1 Os1 3.061809 1_555
Lu1 Os3 3.143985 1_555
Lu2 Os3 3.041256 1_554
Lu2 Os2 3.061809 1_565
Lu2 Os0 3.143985 1_555
Lu3 Os2 3.041256 1_556
Lu3 Os3 3.061809 1_545
Lu3 Os1 3.143985 1_555
Lu4 Os2 2.826378 1_565
Lu4 Os0 2.833352 1_555
Lu5 Os3 2.826378 1_545
Lu5 Os1 2.833352 1_555
Lu6 Os0 2.826378 1_555
Lu6 Os2 2.833352 1_555
Lu7 Os1 2.826378 1_555
Lu7 Os3 2.833352 1_555
B0 B4 1.772128 1_555
B0 B18 1.792182 1_555
B0 B1 1.799737 1_555
B0 Os0 2.337708 1_555
B0 Os0 2.337708 1_655
B0 Lu1 2.744198 1_655
B0 Lu1 2.744198 1_555
B0 Lu0 2.782981 1_555
B0 Lu0 2.782981 1_655
B1 B5 1.772128 1_555
B1 B19 1.792182 1_555
B1 Os1 2.337708 1_655
B1 Os1 2.337708 1_555
B1 Lu0 2.744198 1_555
B1 Lu0 2.744198 1_655
B1 Lu1 2.782981 1_655
B1 Lu1 2.782981 1_555
B2 B6 1.772128 1_555
B2 B3 1.799737 1_544
B2 Os2 2.337708 1_655
B2 Os2 2.337708 1_555
B2 Lu3 2.744198 1_554
B2 Lu3 2.744198 1_654
B2 Lu2 2.782981 1_545
B2 Lu2 2.782981 1_645
B3 B7 1.772128 1_555
B3 Os3 2.337708 1_655
B3 Os3 2.337708 1_555
B3 Lu2 2.744198 1_656
B3 Lu2 2.744198 1_556
B3 Lu3 2.782981 1_565
B3 Lu3 2.782981 1_665
B4 B8 1.802921 1_555
B4 Os0 2.353313 1_655
B4 Os0 2.353313 1_555
B4 Lu4 2.579001 1_555
B4 Lu4 2.579001 1_655
B4 Lu1 2.679569 1_555
B4 Lu1 2.679569 1_655
B5 B9 1.802910 1_555
B5 Os1 2.353313 1_655
B5 Os1 2.353313 1_555
B5 Lu5 2.579001 1_555
B5 Lu5 2.579001 1_655
B5 Lu0 2.679569 1_555
B5 Lu0 2.679569 1_655
B6 Os2 2.353313 1_655
B6 Os2 2.353313 1_555
B6 Lu6 2.579001 1_555
B6 Lu6 2.579001 1_655
B6 Lu3 2.679569 1_654
B6 Lu3 2.679569 1_554
B7 Os3 2.353313 1_655
B7 Os3 2.353313 1_555
B7 Lu7 2.579001 1_655
B7 Lu7 2.579001 1_555
B7 Lu2 2.679569 1_656
B7 Lu2 2.679569 1_556
B8 Os0 2.360283 1_555
B8 Os0 2.360283 1_655
B8 Lu4 2.571409 1_555
B8 Lu4 2.571409 1_655
B8 Lu2 2.745472 1_655
B8 Lu2 2.745472 1_555
B9 Os1 2.360280 1_555
B9 Os1 2.360280 1_655
B9 Lu5 2.571404 1_555
B9 Lu5 2.571404 1_655
B9 Lu3 2.745481 1_555
B9 Lu3 2.745481 1_655
B10 B14 1.726452 1_555
B10 B6 1.802921 1_555
B10 B18 1.821602 1_555
B10 Os2 2.360283 1_655
B10 Os2 2.360283 1_555
B10 Lu6 2.571409 1_555
B10 Lu6 2.571409 1_655
B10 Lu0 2.745472 1_555
B10 Lu0 2.745472 1_655
B11 B15 1.726458 1_555
B11 B7 1.802910 1_555
B11 B19 1.821606 1_555
B11 Os3 2.360280 1_555
B11 Os3 2.360280 1_655
B11 Lu7 2.571404 1_655
B11 Lu7 2.571404 1_555
B11 Lu1 2.745481 1_555
B11 Lu1 2.745481 1_655
B12 B8 1.726452 1_555
B12 B20 1.778213 1_555
B12 B18 1.780064 1_555
B12 Os0 2.377832 1_555
B12 Os0 2.377832 1_655
B12 Lu6 2.556336 1_555
B12 Lu6 2.556336 1_655
B12 Lu2 2.720457 1_555
B12 Lu2 2.720457 1_655
B13 B9 1.726458 1_555
B13 B21 1.778213 1_555
B13 B19 1.780064 1_555
B13 Os1 2.377832 1_655
B13 Os1 2.377832 1_555
B13 Lu7 2.556336 1_655
B13 Lu7 2.556336 1_555
B13 Lu3 2.720457 1_655
B13 Lu3 2.720457 1_555
B14 B22 1.778213 1_555
B14 B16 1.780064 1_545
B14 Os2 2.377832 1_555
B14 Os2 2.377832 1_655
B14 Lu4 2.556336 1_545
B14 Lu4 2.556336 1_645
B14 Lu0 2.720457 1_655
B14 Lu0 2.720457 1_555
B15 B23 1.778213 1_555
B15 B17 1.780064 1_565
B15 Os3 2.377832 1_655
B15 Os3 2.377832 1_555
B15 Lu5 2.556336 1_565
B15 Lu5 2.556336 1_665
B15 Lu1 2.720457 1_655
B15 Lu1 2.720457 1_555
B16 B2 1.792182 1_565
B16 B8 1.821602 1_555
B16 Os2 2.316476 1_565
B16 Os2 2.316476 1_665
B16 Lu4 2.590123 1_655
B16 Lu4 2.590123 1_555
B16 Lu2 2.735694 1_555
B16 Lu2 2.735694 1_655
B17 B3 1.792182 1_545
B17 B9 1.821606 1_555
B17 Os3 2.316476 1_545
B17 Os3 2.316476 1_645
B17 Lu5 2.590123 1_555
B17 Lu5 2.590123 1_655
B17 Lu3 2.735694 1_655
B17 Lu3 2.735694 1_555
B18 Os0 2.316476 1_555
B18 Os0 2.316476 1_655
B18 Lu6 2.590123 1_555
B18 Lu6 2.590123 1_655
B18 Lu0 2.735694 1_555
B18 Lu0 2.735694 1_655
B19 Os1 2.316476 1_655
B19 Os1 2.316476 1_555
B19 Lu7 2.590123 1_555
B19 Lu7 2.590123 1_655
B19 Lu1 2.735694 1_655
B19 Lu1 2.735694 1_555
B20 B7 1.785348 1_554
B20 B21 2.075486 1_554
B20 Lu6 2.570583 1_655
B20 Lu6 2.570583 1_555
B20 Lu7 2.580236 1_654
B20 Lu7 2.580236 1_554
B20 Lu2 2.705039 1_555
B20 Lu2 2.705039 1_655
B21 B6 1.785348 1_556
B21 Lu7 2.570583 1_555
B21 Lu7 2.570583 1_655
B21 Lu6 2.580236 1_556
B21 Lu6 2.580236 1_656
B21 Lu3 2.705039 1_555
B21 Lu3 2.705039 1_655
B22 B5 1.785348 1_555
B22 B23 2.075486 1_545
B22 Lu4 2.570583 1_545
B22 Lu4 2.570583 1_645
B22 Lu5 2.580236 1_555
B22 Lu5 2.580236 1_655
B22 Lu0 2.705039 1_555
B22 Lu0 2.705039 1_655
B23 B4 1.785348 1_555
B23 Lu5 2.570583 1_565
B23 Lu5 2.570583 1_665
B23 Lu4 2.580236 1_655
B23 Lu4 2.580236 1_555
B23 Lu1 2.705039 1_655
B23 Lu1 2.705039 1_555
