# generated using pymatgen
data_Sr3InNiO6
_symmetry_space_group_name_H-M   'P 1'
_cell_length_a   6.71202771
_cell_length_b   6.71333318
_cell_length_c   13.76682830
_cell_angle_alpha   91.83477307
_cell_angle_beta   91.85566200
_cell_angle_gamma   92.91445506
_symmetry_Int_Tables_number   1
_chemical_formula_structural   Sr3InNiO6
_chemical_formula_sum   'Sr12 In4 Ni4 O24'
_cell_volume   618.85486039
_cell_formula_units_Z   4
loop_
 _symmetry_equiv_pos_site_id
 _symmetry_equiv_pos_as_xyz
  1  'x, y, z'
loop_
 _atom_site_type_symbol
 _atom_site_label
 _atom_site_symmetry_multiplicity
 _atom_site_fract_x
 _atom_site_fract_y
 _atom_site_fract_z
 _atom_site_occupancy
  Sr  Sr0  1  0.61895900  0.88115300  0.12498800  1
  Sr  Sr1  1  0.61832600  0.88175300  0.62499300  1
  Sr  Sr2  1  0.88082400  0.24881300  0.30989300  1
  Sr  Sr3  1  0.88139500  0.24656000  0.80892600  1
  Sr  Sr4  1  0.25337300  0.61856400  0.44107700  1
  Sr  Sr5  1  0.25133000  0.61895700  0.94018500  1
  Sr  Sr6  1  0.11927300  0.75348900  0.19080000  1
  Sr  Sr7  1  0.11840800  0.75102900  0.69052700  1
  Sr  Sr8  1  0.74661700  0.38083200  0.05922700  1
  Sr  Sr9  1  0.74876100  0.38174300  0.55939000  1
  Sr  Sr10  1  0.38236000  0.11999100  0.37497000  1
  Sr  Sr11  1  0.38006500  0.11744200  0.87505300  1
  In  In0  1  0.24623100  0.25352800  0.12502900  1
  In  In1  1  0.24691500  0.25293300  0.62511800  1
  In  In2  1  0.75190300  0.74563300  0.37585000  1
  In  In3  1  0.75488600  0.74792700  0.87401800  1
  Ni  Ni0  1  0.50062400  0.49977900  0.75016500  1
  Ni  Ni1  1  0.00018800  0.99945900  0.49989700  1
  Ni  Ni2  1  0.49991300  0.50047000  0.24964100  1
  Ni  Ni3  1  0.99955300  0.00004800  0.00029200  1
  O  O0  1  0.53617300  0.21667900  0.20629900  1
  O  O1  1  0.53728200  0.21296500  0.70635900  1
  O  O2  1  0.22310100  0.41706200  0.27242900  1
  O  O3  1  0.21549600  0.41202100  0.77321100  1
  O  O4  1  0.40136600  0.54179700  0.10196000  1
  O  O5  1  0.40490700  0.54191600  0.60577800  1
  O  O6  1  0.04138900  0.90350200  0.35521200  1
  O  O7  1  0.04247200  0.90307000  0.85257700  1
  O  O8  1  0.91521700  0.72227800  0.02267800  1
  O  O9  1  0.91350600  0.71579900  0.52288100  1
  O  O10  1  0.71274800  0.03687400  0.45573400  1
  O  O11  1  0.71672000  0.03659900  0.95715100  1
  O  O12  1  0.46333200  0.78363700  0.29284600  1
  O  O13  1  0.46348100  0.78710300  0.79428800  1
  O  O14  1  0.77763700  0.58487100  0.22718800  1
  O  O15  1  0.78442200  0.58621800  0.72701800  1
  O  O16  1  0.59698100  0.45775600  0.39720800  1
  O  O17  1  0.59678400  0.45854000  0.89482300  1
  O  O18  1  0.95813100  0.09845200  0.14819100  1
  O  O19  1  0.95793300  0.09496400  0.64425600  1
  O  O20  1  0.08793500  0.28451300  0.47693800  1
  O  O21  1  0.08304400  0.27693700  0.97765100  1
  O  O22  1  0.28297500  0.96364700  0.04354100  1
  O  O23  1  0.28706700  0.96269900  0.54374400  1
loop_
_geom_bond_atom_site_label_1
_geom_bond_atom_site_label_2
_geom_bond_distance
_geom_bond_site_symmetry_2
In0 O18 2.186623 1_455
In0 O4 2.187725 1_555
In0 O0 2.241862 1_555
In0 O22 2.243532 1_545
In0 O21 2.288003 1_554
In0 O2 2.289596 1_555
In1 O19 2.190468 1_455
In1 O5 2.191197 1_555
In1 O1 2.247781 1_555
In1 O23 2.248823 1_545
In1 O3 2.291948 1_555
In1 O20 2.292334 1_555
In2 O16 2.180494 1_555
In2 O6 2.196584 1_655
In2 O10 2.243791 1_565
In2 O12 2.246777 1_555
In2 O9 2.284666 1_555
In2 O14 2.298611 1_555
In3 O7 2.179461 1_655
In3 O17 2.197294 1_555
In3 O13 2.243063 1_555
In3 O11 2.249123 1_565
In3 O15 2.284838 1_555
In3 O8 2.296734 1_556
Ni0 O15 2.001381 1_555
Ni0 O3 2.011709 1_555
Ni0 O1 2.028578 1_555
Ni0 O13 2.033586 1_555
Ni0 O5 2.101358 1_555
Ni0 O17 2.104627 1_555
Ni1 O9 2.000710 1_455
Ni1 O20 2.011233 1_565
Ni1 O23 2.028685 1_555
Ni1 O10 2.034219 1_465
Ni1 O19 2.101082 1_465
Ni1 O6 2.104890 1_555
Ni2 O2 1.951208 1_555
Ni2 O14 1.957692 1_555
Ni2 O12 2.003089 1_555
Ni2 O0 2.007174 1_555
Ni2 O16 2.145787 1_555
Ni2 O4 2.148411 1_555
Ni3 O21 1.951665 1_654
Ni3 O8 1.957934 1_545
Ni3 O11 2.000121 1_554
Ni3 O22 2.004081 1_645
Ni3 O7 2.148133 1_644
Ni3 O18 2.151424 1_555
O0 Sr0 2.577140 1_545
O0 Sr10 2.657590 1_555
O0 Sr2 2.673528 1_555
O0 Sr8 2.734755 1_555
O1 Sr1 2.549064 1_545
O1 Sr3 2.663604 1_555
O1 Sr11 2.665239 1_555
O1 Sr9 2.749847 1_555
O2 Sr2 2.582614 1_455
O2 Sr4 2.646150 1_555
O2 Sr6 2.668600 1_555
O2 Sr10 2.722530 1_555
O3 Sr3 2.521404 1_455
O3 Sr5 2.645292 1_555
O3 Sr7 2.677432 1_555
O3 Sr11 2.719588 1_555
O4 Sr5 2.494842 1_554
O4 Sr0 2.647487 1_555
O4 Sr8 2.680687 1_555
O4 Sr6 2.722657 1_555
O5 Sr4 2.533573 1_555
O5 Sr1 2.632756 1_555
O5 Sr9 2.682276 1_555
O5 Sr7 2.710140 1_555
O6 Sr6 2.528799 1_555
O6 Sr10 2.649548 1_565
O6 Sr2 2.688465 1_465
O6 Sr4 2.719114 1_555
O7 Sr7 2.501863 1_555
O7 Sr11 2.625989 1_565
O7 Sr3 2.673511 1_465
O7 Sr5 2.714319 1_555
O8 Sr8 2.575872 1_555
O8 Sr6 2.647865 1_655
O8 Sr5 2.671143 1_654
O8 Sr0 2.715950 1_555
O9 Sr9 2.522050 1_555
O9 Sr7 2.645838 1_655
O9 Sr4 2.677496 1_655
O9 Sr1 2.728977 1_555
O10 Sr10 2.543836 1_555
O10 Sr1 2.664523 1_545
O10 Sr9 2.676609 1_555
O10 Sr2 2.737629 1_555
O11 Sr11 2.583896 1_555
O11 Sr0 2.653552 1_546
O11 Sr8 2.661231 1_556
O11 Sr3 2.746692 1_555
O12 Sr10 2.583319 1_565
O12 Sr0 2.653960 1_555
O12 Sr6 2.659275 1_555
O12 Sr4 2.747846 1_555
O13 Sr11 2.544901 1_565
O13 Sr1 2.664668 1_555
O13 Sr7 2.677721 1_555
O13 Sr5 2.739177 1_555
O14 Sr6 2.576289 1_655
O14 Sr8 2.646382 1_555
O14 Sr2 2.671745 1_555
O14 Sr0 2.714361 1_555
O15 Sr7 2.521545 1_655
O15 Sr9 2.644824 1_555
O15 Sr3 2.676320 1_555
O15 Sr1 2.730197 1_555
O16 Sr9 2.502372 1_555
O16 Sr10 2.627812 1_555
O16 Sr4 2.674112 1_555
O16 Sr2 2.711871 1_555
O17 Sr8 2.527394 1_556
O17 Sr11 2.651301 1_555
O17 Sr5 2.689009 1_555
O17 Sr3 2.718063 1_555
O18 Sr2 2.495593 1_555
O18 Sr0 2.645389 1_545
O18 Sr6 2.679124 1_645
O18 Sr8 2.723784 1_555
O19 Sr3 2.533717 1_555
O19 Sr1 2.630545 1_545
O19 Sr7 2.683253 1_645
O19 Sr9 2.712077 1_555
O20 Sr4 2.521741 1_555
O20 Sr2 2.646172 1_455
O20 Sr9 2.677350 1_455
O20 Sr10 2.719953 1_555
O21 Sr5 2.581430 1_555
O21 Sr3 2.647057 1_455
O21 Sr8 2.668519 1_456
O21 Sr11 2.723709 1_555
O22 Sr0 2.579259 1_555
O22 Sr11 2.655900 1_564
O22 Sr5 2.672827 1_554
O22 Sr6 2.734503 1_555
O23 Sr1 2.547696 1_555
O23 Sr4 2.665214 1_555
O23 Sr10 2.665968 1_565
O23 Sr7 2.748202 1_555
