# generated using pymatgen
data_K3Lu(BO3)2
_symmetry_space_group_name_H-M   'P 1'
_cell_length_a   5.51416400
_cell_length_b   6.78379200
_cell_length_c   9.33034400
_cell_angle_alpha   90.00000000
_cell_angle_beta   90.00000000
_cell_angle_gamma   90.00000000
_symmetry_Int_Tables_number   1
_chemical_formula_structural   K3Lu(BO3)2
_chemical_formula_sum   'K6 Lu2 B4 O12'
_cell_volume   349.01963339
_cell_formula_units_Z   2
loop_
 _symmetry_equiv_pos_site_id
 _symmetry_equiv_pos_as_xyz
  1  'x, y, z'
loop_
 _atom_site_type_symbol
 _atom_site_label
 _atom_site_symmetry_multiplicity
 _atom_site_fract_x
 _atom_site_fract_y
 _atom_site_fract_z
 _atom_site_occupancy
  K  K0  1  0.00000000  0.26736400  0.66769900  1
  K  K1  1  0.00000000  0.73263600  0.33230100  1
  K  K2  1  0.50000000  0.23263600  0.16769900  1
  K  K3  1  0.50000000  0.76736400  0.83230100  1
  K  K4  1  0.50000000  0.00000000  0.50000000  1
  K  K5  1  0.00000000  0.50000000  0.00000000  1
  Lu  Lu0  1  0.00000000  0.00000000  0.00000000  1
  Lu  Lu1  1  0.50000000  0.50000000  0.50000000  1
  B  B0  1  0.00000000  0.26398000  0.33402100  1
  B  B1  1  0.00000000  0.73602000  0.66597900  1
  B  B2  1  0.50000000  0.23602000  0.83402100  1
  B  B3  1  0.50000000  0.76398000  0.16597900  1
  O  O0  1  0.21880300  0.30253400  0.40399600  1
  O  O1  1  0.78119700  0.69746600  0.59600400  1
  O  O2  1  0.21880300  0.69746600  0.59600400  1
  O  O3  1  0.28119700  0.19746600  0.90399600  1
  O  O4  1  0.78119700  0.30253400  0.40399600  1
  O  O5  1  0.71880300  0.80253400  0.09600400  1
  O  O6  1  0.28119700  0.80253400  0.09600400  1
  O  O7  1  0.71880300  0.19746600  0.90399600  1
  O  O8  1  0.00000000  0.18952600  0.19440700  1
  O  O9  1  0.00000000  0.81047400  0.80559300  1
  O  O10  1  0.50000000  0.31047400  0.69440700  1
  O  O11  1  0.50000000  0.68952600  0.30559300  1
loop_
_geom_bond_atom_site_label_1
_geom_bond_atom_site_label_2
_geom_bond_distance
_geom_bond_site_symmetry_2
K0 O3 2.736776 1_555
K0 O7 2.736776 1_455
K0 O0 2.750703 1_555
K0 O4 2.750703 1_455
K0 O10 2.783725 1_555
K0 O10 2.783725 1_455
K1 O5 2.736776 1_455
K1 O6 2.736776 1_555
K1 O2 2.750703 1_555
K1 O1 2.750703 1_455
K1 O11 2.783725 1_455
K1 O11 2.783725 1_555
K2 O4 2.736776 1_555
K2 O0 2.736776 1_555
K2 O3 2.750703 1_554
K2 O7 2.750703 1_554
K2 O8 2.783725 1_555
K2 O8 2.783725 1_655
K3 O1 2.736776 1_555
K3 O2 2.736776 1_555
K3 O6 2.750703 1_556
K3 O5 2.750703 1_556
K3 O9 2.783725 1_555
K3 O9 2.783725 1_655
K4 O4 2.723724 1_555
K4 O0 2.723724 1_555
K4 O1 2.723724 1_545
K4 O2 2.723724 1_545
K4 O10 2.779607 1_555
K4 O11 2.779607 1_545
K5 O5 2.723724 1_455
K5 O6 2.723724 1_555
K5 O3 2.723724 1_554
K5 O7 2.723724 1_454
K5 O9 2.779607 1_554
K5 O8 2.779607 1_555
Lu0 O8 2.223334 1_555
Lu0 O9 2.223334 1_544
Lu0 O6 2.236307 1_545
Lu0 O5 2.236307 1_445
Lu0 O3 2.236307 1_554
Lu0 O7 2.236307 1_454
Lu1 O11 2.223334 1_555
Lu1 O10 2.223334 1_555
Lu1 O1 2.236307 1_555
Lu1 O2 2.236307 1_555
Lu1 O4 2.236307 1_555
Lu1 O0 2.236307 1_555
B0 O0 1.396550 1_555
B0 O4 1.396550 1_455
B0 O8 1.397138 1_555
B1 O2 1.396550 1_555
B1 O1 1.396550 1_455
B1 O9 1.397138 1_555
B2 O7 1.396550 1_555
B2 O3 1.396550 1_555
B2 O10 1.397138 1_555
B3 O5 1.396550 1_555
B3 O6 1.396550 1_555
B3 O11 1.397138 1_555
