# generated using pymatgen
data_Mg149Si
_symmetry_space_group_name_H-M   'P 1'
_cell_length_a   15.93860988
_cell_length_b   15.93861126
_cell_length_c   15.53911274
_cell_angle_alpha   90.00000000
_cell_angle_beta   90.00000000
_cell_angle_gamma   120.00059625
_symmetry_Int_Tables_number   1
_chemical_formula_structural   Mg149Si
_chemical_formula_sum   'Mg149 Si1'
_cell_volume   3418.65408399
_cell_formula_units_Z   1
loop_
 _symmetry_equiv_pos_site_id
 _symmetry_equiv_pos_as_xyz
  1  'x, y, z'
loop_
 _atom_site_type_symbol
 _atom_site_label
 _atom_site_symmetry_multiplicity
 _atom_site_fract_x
 _atom_site_fract_y
 _atom_site_fract_z
 _atom_site_occupancy
  Mg  Mg0  1  0.80388623  0.00139573  -0.00000000  1
  Mg  Mg1  1  0.19750996  0.00139328  -0.00000000  1
  Mg  Mg2  1  0.99860300  0.19611366  -0.00000000  1
  Mg  Mg3  1  0.19751309  0.19611851  -0.00000000  1
  Mg  Mg4  1  0.39893566  0.19947254  -0.00000000  1
  Mg  Mg5  1  0.80053503  0.19946554  -0.00000000  1
  Mg  Mg6  1  0.59988400  0.19977468  -0.00000000  1
  Mg  Mg7  1  0.19896770  0.39793592  -0.00000000  1
  Mg  Mg8  1  0.39946514  0.39952725  -0.00000000  1
  Mg  Mg9  1  0.00006243  0.39953654  -0.00000000  1
  Mg  Mg10  1  0.59988354  0.40011662  -0.00000000  1
  Mg  Mg11  1  0.80022516  0.40011681  -0.00000000  1
  Mg  Mg12  1  0.40016082  0.59983910  -0.00000000  1
  Mg  Mg13  1  0.19968457  0.59984252  -0.00000000  1
  Mg  Mg14  1  0.60047225  0.60053464  -0.00000000  1
  Mg  Mg15  1  0.00006247  0.60052397  -0.00000000  1
  Mg  Mg16  1  0.80052610  0.60106298  -0.00000000  1
  Mg  Mg17  1  0.40015759  0.80031651  -0.00000000  1
  Mg  Mg18  1  0.19896898  0.80103155  -0.00000000  1
  Mg  Mg19  1  0.60206346  0.80103146  -0.00000000  1
  Mg  Mg20  1  0.99860519  0.80248926  -0.00000000  1
  Mg  Mg21  1  0.80388207  0.80248658  -0.00000000  1
  Mg  Mg22  1  0.60046279  0.99993736  -0.00000000  1
  Mg  Mg23  1  0.39947626  0.99993697  -0.00000000  1
  Mg  Mg24  1  0.06524262  0.13049115  0.16370977  1
  Mg  Mg25  1  0.06524805  0.93475178  0.16371057  1
  Mg  Mg26  1  0.86950884  0.93475767  0.16370957  1
  Mg  Mg27  1  0.26599980  0.33211124  0.16549567  1
  Mg  Mg28  1  0.06611079  0.33211110  0.16549613  1
  Mg  Mg29  1  0.66788839  0.73400027  0.16549627  1
  Mg  Mg30  1  0.06611462  0.73400384  0.16549735  1
  Mg  Mg31  1  0.26599600  0.93388541  0.16549770  1
  Mg  Mg32  1  0.66788834  0.93388913  0.16549583  1
  Mg  Mg33  1  0.26638533  0.53276934  0.16624333  1
  Mg  Mg34  1  0.46723095  0.73361469  0.16624296  1
  Mg  Mg35  1  0.26638732  0.73361283  0.16624220  1
  Mg  Mg36  1  0.06665420  0.53332974  0.16595104  1
  Mg  Mg37  1  0.46667497  0.53332506  0.16595819  1
  Mg  Mg38  1  0.46666982  0.93334594  0.16595151  1
  Mg  Mg39  1  0.46675070  0.13336483  0.16619677  1
  Mg  Mg40  1  0.66661098  0.13336170  0.16620129  1
  Mg  Mg41  1  0.86663837  0.33338818  0.16620190  1
  Mg  Mg42  1  0.46675265  0.33338766  0.16620007  1
  Mg  Mg43  1  0.86663400  0.53324890  0.16619681  1
  Mg  Mg44  1  0.66661169  0.53324675  0.16619991  1
  Mg  Mg45  1  0.66666551  0.33333333  0.16651176  1
  Mg  Mg46  1  0.86611220  0.13388694  0.16715071  1
  Mg  Mg47  1  0.26777475  0.13388578  0.16714883  1
  Mg  Mg48  1  0.86611428  0.73222517  0.16714919  1
  Mg  Mg49  1  0.99999861  0.00000086  0.33251391  1
  Mg  Mg50  1  0.19902117  0.99979437  0.33317541  1
  Mg  Mg51  1  0.80077519  0.99979827  0.33317580  1
  Mg  Mg52  1  0.19902266  0.19922705  0.33317391  1
  Mg  Mg53  1  0.00020148  0.19922437  0.33317641  1
  Mg  Mg54  1  0.80077184  0.80097744  0.33317447  1
  Mg  Mg55  1  0.00020512  0.80097891  0.33317525  1
  Mg  Mg56  1  0.19994079  0.39988111  0.33258535  1
  Mg  Mg57  1  0.19993664  0.80006227  0.33258546  1
  Mg  Mg58  1  0.60011826  0.80005834  0.33258495  1
  Mg  Mg59  1  0.39967555  0.99991982  0.33291190  1
  Mg  Mg60  1  0.60024878  0.99993103  0.33291204  1
  Mg  Mg61  1  0.00007084  0.39975137  0.33291157  1
  Mg  Mg62  1  0.39968110  0.39975253  0.33291309  1
  Mg  Mg63  1  0.60024710  0.60032018  0.33291288  1
  Mg  Mg64  1  0.00008009  0.60032550  0.33291173  1
  Mg  Mg65  1  0.60001075  0.20002617  0.33269905  1
  Mg  Mg66  1  0.60000959  0.39999063  0.33269367  1
  Mg  Mg67  1  0.79997512  0.39998943  0.33269888  1
  Mg  Mg68  1  0.39990344  0.19995059  0.33302322  1
  Mg  Mg69  1  0.80005112  0.19995002  0.33302778  1
  Mg  Mg70  1  0.80004947  0.60009668  0.33302387  1
  Mg  Mg71  1  0.20008802  0.60004439  0.33266897  1
  Mg  Mg72  1  0.39996133  0.60004015  0.33266847  1
  Mg  Mg73  1  0.39995663  0.79991305  0.33266878  1
  Mg  Mg74  1  0.06637384  0.13275141  0.50000000  1
  Mg  Mg75  1  0.86698194  0.13301648  0.50000000  1
  Mg  Mg76  1  0.26603598  0.13301949  0.50000000  1
  Mg  Mg77  1  0.66640603  0.13292506  0.50000000  1
  Mg  Mg78  1  0.46652449  0.13292673  0.50000000  1
  Mg  Mg79  1  0.26647727  0.33285724  0.50000000  1
  Mg  Mg80  1  0.06638666  0.33286239  0.50000000  1
  Mg  Mg81  1  0.66666688  0.33333377  0.50000000  1
  Mg  Mg82  1  0.86707499  0.33359482  0.50000000  1
  Mg  Mg83  1  0.46651850  0.33359315  0.50000000  1
  Mg  Mg84  1  0.66640598  0.53348110  0.50000000  1
  Mg  Mg85  1  0.86707394  0.53347638  0.50000000  1
  Mg  Mg86  1  0.26625271  0.53251191  0.50000000  1
  Mg  Mg87  1  0.06644866  0.53322182  0.50000000  1
  Mg  Mg88  1  0.46677803  0.53322335  0.50000000  1
  Mg  Mg89  1  0.46748683  0.73374685  0.50000000  1
  Mg  Mg90  1  0.26625181  0.73374795  0.50000000  1
  Mg  Mg91  1  0.66714346  0.73352408  0.50000000  1
  Mg  Mg92  1  0.06638668  0.73353249  0.50000000  1
  Mg  Mg93  1  0.86698058  0.73396419  0.50000000  1
  Mg  Mg94  1  0.46677894  0.93355246  0.50000000  1
  Mg  Mg95  1  0.06637638  0.93362264  0.50000000  1
  Mg  Mg96  1  0.86724880  0.93362602  0.50000000  1
  Mg  Mg97  1  0.66713843  0.93361206  0.50000000  1
  Mg  Mg98  1  0.26646656  0.93361285  0.50000000  1
  Mg  Mg99  1  0.20008802  0.60004439  0.66733003  1
  Mg  Mg100  1  0.39996133  0.60004015  0.66733053  1
  Mg  Mg101  1  0.39995663  0.79991305  0.66733022  1
  Mg  Mg102  1  0.39990344  0.19995059  0.66697578  1
  Mg  Mg103  1  0.80005112  0.19995002  0.66697122  1
  Mg  Mg104  1  0.80004947  0.60009668  0.66697513  1
  Mg  Mg105  1  0.60001075  0.20002617  0.66730095  1
  Mg  Mg106  1  0.60000959  0.39999063  0.66730633  1
  Mg  Mg107  1  0.79997512  0.39998943  0.66730112  1
  Mg  Mg108  1  0.39967555  0.99991982  0.66708710  1
  Mg  Mg109  1  0.60024878  0.99993103  0.66708696  1
  Mg  Mg110  1  0.00007084  0.39975137  0.66708743  1
  Mg  Mg111  1  0.39968110  0.39975253  0.66708591  1
  Mg  Mg112  1  0.60024710  0.60032018  0.66708612  1
  Mg  Mg113  1  0.00008009  0.60032550  0.66708727  1
  Mg  Mg114  1  0.19994079  0.39988111  0.66741465  1
  Mg  Mg115  1  0.19993664  0.80006227  0.66741454  1
  Mg  Mg116  1  0.60011826  0.80005834  0.66741505  1
  Mg  Mg117  1  0.19902117  0.99979437  0.66682459  1
  Mg  Mg118  1  0.80077519  0.99979827  0.66682420  1
  Mg  Mg119  1  0.19902266  0.19922705  0.66682609  1
  Mg  Mg120  1  0.00020148  0.19922437  0.66682359  1
  Mg  Mg121  1  0.80077184  0.80097744  0.66682553  1
  Mg  Mg122  1  0.00020512  0.80097891  0.66682475  1
  Mg  Mg123  1  0.99999861  0.00000086  0.66748609  1
  Mg  Mg124  1  0.86611220  0.13388694  0.83284929  1
  Mg  Mg125  1  0.26777475  0.13388578  0.83285117  1
  Mg  Mg126  1  0.86611428  0.73222517  0.83285081  1
  Mg  Mg127  1  0.66666551  0.33333333  0.83348724  1
  Mg  Mg128  1  0.46675070  0.13336483  0.83380323  1
  Mg  Mg129  1  0.66661098  0.13336170  0.83379871  1
  Mg  Mg130  1  0.86663837  0.33338818  0.83379810  1
  Mg  Mg131  1  0.46675265  0.33338766  0.83379993  1
  Mg  Mg132  1  0.86663400  0.53324890  0.83380319  1
  Mg  Mg133  1  0.66661169  0.53324675  0.83380009  1
  Mg  Mg134  1  0.06665420  0.53332974  0.83404796  1
  Mg  Mg135  1  0.46667497  0.53332506  0.83404081  1
  Mg  Mg136  1  0.46666982  0.93334594  0.83404749  1
  Mg  Mg137  1  0.26638533  0.53276934  0.83375567  1
  Mg  Mg138  1  0.46723095  0.73361469  0.83375604  1
  Mg  Mg139  1  0.26638732  0.73361283  0.83375680  1
  Mg  Mg140  1  0.26599980  0.33211124  0.83450433  1
  Mg  Mg141  1  0.06611079  0.33211110  0.83450387  1
  Mg  Mg142  1  0.66788839  0.73400027  0.83450373  1
  Mg  Mg143  1  0.06611462  0.73400384  0.83450265  1
  Mg  Mg144  1  0.26599600  0.93388541  0.83450230  1
  Mg  Mg145  1  0.66788834  0.93388913  0.83450417  1
  Mg  Mg146  1  0.06524262  0.13049115  0.83629023  1
  Mg  Mg147  1  0.06524805  0.93475178  0.83628943  1
  Mg  Mg148  1  0.86950884  0.93475767  0.83629043  1
  Si  Si0  1  0.99999938  0.00000043  -0.00000000  1
loop_
_geom_bond_atom_site_label_1
_geom_bond_atom_site_label_2
_geom_bond_distance
_geom_bond_site_symmetry_2
Mg0 Mg2 3.103496 1_555
Mg0 Mg26 3.131203 1_545
Mg0 Mg148 3.131203 1_544
Mg0 Si0 3.136950 1_555
Mg0 Mg21 3.170302 1_545
Mg0 Mg46 3.177256 1_555
Mg0 Mg124 3.177256 1_554
Mg0 Mg32 3.183924 1_545
Mg0 Mg145 3.183924 1_544
Mg0 Mg5 3.184001 1_555
Mg0 Mg19 3.205186 1_545
Mg0 Mg22 3.230727 1_545
Mg1 Mg3 3.103625 1_555
Mg1 Mg25 3.131216 1_545
Mg1 Mg147 3.131216 1_544
Mg1 Si0 3.137003 1_455
Mg1 Mg20 3.170231 1_445
Mg1 Mg47 3.177241 1_555
Mg1 Mg125 3.177241 1_554
Mg1 Mg144 3.183925 1_544
Mg1 Mg31 3.183925 1_545
Mg1 Mg4 3.184083 1_555
Mg1 Mg18 3.205179 1_545
Mg1 Mg23 3.230731 1_545
Mg2 Mg24 3.131217 1_655
Mg2 Si0 3.136960 1_555
Mg2 Mg3 3.170312 1_655
Mg2 Mg46 3.177253 1_555
Mg2 Mg28 3.183924 1_655
Mg2 Mg5 3.183977 1_555
Mg2 Mg7 3.205185 1_655
Mg2 Mg9 3.230710 1_655
Mg3 Si0 3.137003 1_455
Mg3 Mg47 3.177265 1_555
Mg3 Mg4 3.184003 1_555
Mg3 Mg7 3.205160 1_555
Mg3 Mg8 3.230477 1_555
Mg4 Mg47 3.166050 1_555
Mg4 Mg42 3.175971 1_555
Mg4 Mg8 3.184383 1_555
Mg4 Mg6 3.200432 1_555
Mg5 Mg9 3.184502 1_655
Mg5 Mg6 3.200565 1_555
Mg7 Mg8 3.183044 1_555
Mg7 Mg9 3.183106 1_555
Mg10 Mg133 3.169647 1_554
Mg10 Mg44 3.169647 1_555
Mg10 Mg131 3.169655 1_554
Mg10 Mg42 3.169655 1_555
Mg10 Mg45 3.177086 1_555
Mg10 Mg127 3.177099 1_554
Mg10 Mg14 3.189704 1_555
Mg10 Mg8 3.189704 1_555
Mg10 Mg11 3.193165 1_555
Mg10 Mg6 3.193176 1_555
Mg10 Mg16 3.200359 1_555
Mg10 Mg4 3.200383 1_555
Mg11 Mg132 3.169623 1_554
Mg11 Mg43 3.169623 1_555
Mg11 Mg130 3.169775 1_554
Mg11 Mg41 3.169775 1_555
Mg11 Mg45 3.177032 1_555
Mg11 Mg127 3.177044 1_554
Mg11 Mg15 3.189651 1_655
Mg11 Mg9 3.189763 1_655
Mg11 Mg6 3.193139 1_555
Mg11 Mg16 3.200407 1_555
Mg11 Mg5 3.200575 1_555
Mg12 Mg37 3.165779 1_555
Mg12 Mg135 3.165792 1_554
Mg12 Mg34 3.175365 1_555
Mg12 Mg33 3.175368 1_555
Mg12 Mg138 3.175377 1_554
Mg12 Mg137 3.175381 1_554
Mg12 Mg14 3.187157 1_555
Mg12 Mg8 3.187163 1_555
Mg12 Mg13 3.195340 1_555
Mg12 Mg17 3.195357 1_555
Mg12 Mg19 3.212373 1_555
Mg12 Mg7 3.212383 1_555
Mg13 Mg36 3.165696 1_555
Mg13 Mg134 3.165709 1_554
Mg13 Mg35 3.175313 1_555
Mg13 Mg139 3.175325 1_554
Mg13 Mg33 3.175366 1_555
Mg13 Mg137 3.175378 1_554
Mg13 Mg9 3.187135 1_555
Mg13 Mg15 3.187143 1_555
Mg13 Mg17 3.195240 1_555
Mg13 Mg18 3.212392 1_555
Mg13 Mg7 3.212413 1_555
Mg14 Mg142 3.163456 1_554
Mg14 Mg29 3.163456 1_555
Mg14 Mg37 3.171942 1_555
Mg14 Mg44 3.172048 1_555
Mg14 Mg19 3.183036 1_555
Mg14 Mg16 3.184378 1_555
Mg14 Mg8 3.203747 1_555
Mg14 Mg21 3.230485 1_555
Mg15 Mg30 3.163585 1_555
Mg15 Mg36 3.171771 1_555
Mg15 Mg43 3.172008 1_455
Mg15 Mg18 3.183101 1_555
Mg15 Mg16 3.184637 1_455
Mg15 Mg9 3.203460 1_555
Mg15 Mg20 3.230723 1_455
Mg16 Mg48 3.166065 1_555
Mg16 Mg44 3.175963 1_555
Mg16 Mg43 3.175994 1_555
Mg16 Mg21 3.184004 1_555
Mg16 Mg20 3.184087 1_555
Mg17 Mg38 3.165695 1_555
Mg17 Mg35 3.175312 1_555
Mg17 Mg34 3.175371 1_555
Mg17 Mg23 3.187117 1_555
Mg17 Mg22 3.187118 1_555
Mg17 Mg18 3.212380 1_555
Mg17 Mg19 3.212416 1_555
Mg18 Mg30 3.158559 1_555
Mg18 Mg31 3.158560 1_555
Mg18 Mg23 3.183090 1_555
Mg18 Mg35 3.183906 1_555
Mg18 Mg20 3.205201 1_455
Mg19 Mg32 3.158567 1_555
Mg19 Mg29 3.158570 1_555
Mg19 Mg22 3.183117 1_555
Mg19 Mg34 3.183869 1_555
Mg19 Mg21 3.205175 1_555
Mg20 Mg21 3.103594 1_555
Mg20 Mg25 3.131221 1_655
Mg20 Si0 3.137002 1_565
Mg20 Mg48 3.177233 1_555
Mg20 Mg30 3.183928 1_655
Mg21 Mg26 3.131277 1_555
Mg21 Si0 3.136998 1_565
Mg21 Mg48 3.177263 1_555
Mg21 Mg29 3.183895 1_555
Mg22 Mg32 3.163526 1_555
Mg22 Mg38 3.171823 1_555
Mg22 Mg40 3.172032 1_565
Mg22 Mg5 3.184518 1_565
Mg22 Mg6 3.189752 1_565
Mg22 Mg23 3.203443 1_555
Mg23 Mg31 3.163592 1_555
Mg23 Mg38 3.171766 1_555
Mg23 Mg39 3.172003 1_565
Mg23 Mg4 3.184637 1_565
Mg23 Mg6 3.189659 1_565
Mg24 Si0 3.117004 1_455
Mg24 Mg26 3.119694 1_445
Mg24 Mg25 3.119857 1_545
Mg24 Mg3 3.131275 1_555
Mg24 Mg49 3.181937 1_455
Mg24 Mg46 3.201714 1_455
Mg24 Mg47 3.201816 1_555
Mg24 Mg28 3.206766 1_555
Mg24 Mg27 3.206781 1_555
Mg24 Mg53 3.216382 1_555
Mg24 Mg52 3.216385 1_555
Mg25 Si0 3.117076 1_465
Mg25 Mg26 3.119858 1_455
Mg25 Mg49 3.182000 1_465
Mg25 Mg48 3.201714 1_455
Mg25 Mg47 3.201716 1_565
Mg25 Mg31 3.206690 1_555
Mg25 Mg30 3.206692 1_555
Mg25 Mg55 3.216336 1_555
Mg25 Mg50 3.216340 1_555
Mg26 Si0 3.117000 1_565
Mg26 Mg49 3.181935 1_565
Mg26 Mg46 3.201703 1_565
Mg26 Mg48 3.201823 1_555
Mg26 Mg32 3.206771 1_555
Mg26 Mg29 3.206785 1_555
Mg26 Mg51 3.216376 1_555
Mg26 Mg54 3.216397 1_555
Mg27 Mg7 3.158567 1_555
Mg27 Mg8 3.163446 1_555
Mg27 Mg47 3.173782 1_555
Mg27 Mg3 3.183880 1_555
Mg27 Mg28 3.185952 1_555
Mg27 Mg52 3.186447 1_555
Mg27 Mg56 3.186541 1_555
Mg27 Mg62 3.189500 1_555
Mg27 Mg42 3.189616 1_555
Mg27 Mg33 3.195165 1_555
Mg27 Mg37 3.202764 1_555
Mg28 Mg7 3.158565 1_555
Mg28 Mg9 3.163530 1_555
Mg28 Mg46 3.173729 1_455
Mg28 Mg53 3.186493 1_555
Mg28 Mg56 3.186535 1_555
Mg28 Mg61 3.189476 1_555
Mg28 Mg41 3.189558 1_455
Mg28 Mg33 3.195152 1_555
Mg28 Mg36 3.202832 1_555
Mg29 Mg48 3.173790 1_555
Mg29 Mg32 3.185951 1_555
Mg29 Mg54 3.186440 1_555
Mg29 Mg58 3.186523 1_555
Mg29 Mg63 3.189480 1_555
Mg29 Mg44 3.189625 1_555
Mg29 Mg34 3.195153 1_555
Mg29 Mg37 3.202761 1_555
Mg30 Mg48 3.173751 1_455
Mg30 Mg31 3.185804 1_555
Mg30 Mg55 3.186455 1_555
Mg30 Mg57 3.186457 1_555
Mg30 Mg64 3.189438 1_555
Mg30 Mg43 3.189638 1_455
Mg30 Mg35 3.195210 1_555
Mg30 Mg36 3.202783 1_555
Mg31 Mg47 3.173751 1_565
Mg31 Mg50 3.186446 1_555
Mg31 Mg57 3.186461 1_555
Mg31 Mg59 3.189446 1_555
Mg31 Mg39 3.189626 1_565
Mg31 Mg35 3.195211 1_555
Mg31 Mg38 3.202777 1_555
Mg32 Mg46 3.173720 1_565
Mg32 Mg51 3.186490 1_555
Mg32 Mg58 3.186540 1_555
Mg32 Mg60 3.189496 1_555
Mg32 Mg40 3.189563 1_565
Mg32 Mg34 3.195145 1_555
Mg32 Mg38 3.202831 1_555
Mg33 Mg56 3.169511 1_555
Mg33 Mg71 3.176063 1_555
Mg33 Mg72 3.176076 1_555
Mg33 Mg7 3.183881 1_555
Mg33 Mg36 3.187915 1_555
Mg33 Mg37 3.187922 1_555
Mg33 Mg35 3.201150 1_555
Mg33 Mg34 3.201169 1_555
Mg34 Mg58 3.169504 1_555
Mg34 Mg73 3.176068 1_555
Mg34 Mg72 3.176069 1_555
Mg34 Mg37 3.187920 1_555
Mg34 Mg38 3.187923 1_555
Mg34 Mg35 3.201153 1_555
Mg35 Mg57 3.169632 1_555
Mg35 Mg71 3.176036 1_555
Mg35 Mg73 3.176041 1_555
Mg35 Mg38 3.187830 1_555
Mg35 Mg36 3.187835 1_555
Mg36 Mg9 3.171819 1_555
Mg36 Mg71 3.178635 1_555
Mg36 Mg64 3.182809 1_555
Mg36 Mg61 3.182865 1_555
Mg36 Mg41 3.187356 1_455
Mg36 Mg43 3.187402 1_455
Mg37 Mg8 3.171947 1_555
Mg37 Mg72 3.178507 1_555
Mg37 Mg63 3.182741 1_555
Mg37 Mg62 3.182747 1_555
Mg37 Mg44 3.187340 1_555
Mg37 Mg42 3.187346 1_555
Mg38 Mg73 3.178619 1_555
Mg38 Mg59 3.182791 1_555
Mg38 Mg60 3.182870 1_555
Mg38 Mg40 3.187353 1_565
Mg38 Mg39 3.187381 1_565
Mg39 Mg6 3.169632 1_555
Mg39 Mg65 3.174514 1_555
Mg39 Mg47 3.175594 1_555
Mg39 Mg4 3.176000 1_555
Mg39 Mg59 3.178694 1_545
Mg39 Mg68 3.180013 1_555
Mg39 Mg40 3.185520 1_555
Mg39 Mg45 3.186767 1_555
Mg39 Mg42 3.188071 1_555
Mg40 Mg6 3.169752 1_555
Mg40 Mg65 3.174503 1_555
Mg40 Mg46 3.175629 1_555
Mg40 Mg5 3.176058 1_555
Mg40 Mg60 3.178524 1_545
Mg40 Mg69 3.180061 1_555
Mg40 Mg45 3.186839 1_555
Mg40 Mg41 3.188123 1_555
Mg41 Mg9 3.172037 1_655
Mg41 Mg67 3.174492 1_555
Mg41 Mg46 3.175622 1_555
Mg41 Mg5 3.176055 1_555
Mg41 Mg61 3.178524 1_655
Mg41 Mg69 3.180037 1_555
Mg41 Mg43 3.185537 1_555
Mg41 Mg45 3.186856 1_555
Mg42 Mg8 3.172049 1_555
Mg42 Mg66 3.174379 1_555
Mg42 Mg47 3.175621 1_555
Mg42 Mg62 3.178608 1_555
Mg42 Mg68 3.179994 1_555
Mg42 Mg44 3.185447 1_555
Mg42 Mg45 3.186770 1_555
Mg43 Mg67 3.174506 1_555
Mg43 Mg48 3.175590 1_555
Mg43 Mg64 3.178700 1_655
Mg43 Mg70 3.180015 1_555
Mg43 Mg45 3.186773 1_555
Mg43 Mg44 3.188060 1_555
Mg44 Mg66 3.174374 1_555
Mg44 Mg48 3.175631 1_555
Mg44 Mg63 3.178620 1_555
Mg44 Mg70 3.180010 1_555
Mg44 Mg45 3.186775 1_555
Mg45 Mg66 3.170893 1_555
Mg45 Mg65 3.170903 1_555
Mg45 Mg67 3.170920 1_555
Mg45 Mg6 3.177024 1_555
Mg46 Mg69 3.157528 1_555
Mg46 Mg5 3.166043 1_555
Mg46 Mg51 3.175244 1_545
Mg46 Mg53 3.175256 1_655
Mg47 Mg68 3.157521 1_555
Mg47 Mg50 3.175284 1_545
Mg47 Mg52 3.175290 1_555
Mg48 Mg70 3.157523 1_555
Mg48 Mg55 3.175273 1_655
Mg48 Mg54 3.175304 1_555
Mg49 Mg53 3.173747 1_655
Mg49 Mg51 3.173748 1_545
Mg49 Mg54 3.173767 1_545
Mg49 Mg52 3.173767 1_655
Mg49 Mg55 3.173797 1_645
Mg49 Mg50 3.173806 1_645
Mg49 Mg96 3.182926 1_545
Mg49 Mg74 3.182932 1_655
Mg49 Mg95 3.182985 1_645
Mg50 Mg55 3.168818 1_555
Mg50 Mg95 3.173691 1_555
Mg50 Mg76 3.178324 1_565
Mg50 Mg52 3.178668 1_565
Mg50 Mg98 3.181556 1_555
Mg50 Mg57 3.190786 1_555
Mg50 Mg68 3.195986 1_565
Mg50 Mg59 3.197155 1_555
Mg51 Mg54 3.168901 1_555
Mg51 Mg96 3.173704 1_555
Mg51 Mg75 3.178264 1_565
Mg51 Mg53 3.178548 1_665
Mg51 Mg97 3.181620 1_555
Mg51 Mg58 3.190894 1_555
Mg51 Mg69 3.195928 1_565
Mg51 Mg60 3.197173 1_555
Mg52 Mg53 3.168912 1_555
Mg52 Mg74 3.173742 1_555
Mg52 Mg76 3.178319 1_555
Mg52 Mg79 3.181592 1_555
Mg52 Mg56 3.190868 1_555
Mg52 Mg68 3.196011 1_555
Mg52 Mg62 3.197131 1_555
Mg53 Mg74 3.173692 1_555
Mg53 Mg75 3.178267 1_455
Mg53 Mg80 3.181622 1_555
Mg53 Mg56 3.190888 1_555
Mg53 Mg69 3.195918 1_455
Mg53 Mg61 3.197166 1_555
Mg54 Mg96 3.173733 1_555
Mg54 Mg93 3.178321 1_555
Mg54 Mg55 3.178678 1_655
Mg54 Mg91 3.181570 1_555
Mg54 Mg58 3.190853 1_555
Mg54 Mg70 3.196020 1_555
Mg54 Mg63 3.197116 1_555
Mg55 Mg95 3.173685 1_555
Mg55 Mg93 3.178322 1_455
Mg55 Mg92 3.181566 1_555
Mg55 Mg57 3.190786 1_555
Mg55 Mg70 3.195981 1_455
Mg55 Mg64 3.197143 1_555
Mg56 Mg86 3.181073 1_555
Mg56 Mg62 3.184612 1_555
Mg56 Mg61 3.184620 1_555
Mg56 Mg80 3.188427 1_555
Mg56 Mg79 3.188486 1_555
Mg56 Mg72 3.189125 1_555
Mg56 Mg71 3.189152 1_555
Mg57 Mg90 3.181070 1_555
Mg57 Mg64 3.184457 1_555
Mg57 Mg59 3.184482 1_555
Mg57 Mg92 3.188392 1_555
Mg57 Mg98 3.188397 1_555
Mg57 Mg71 3.189215 1_555
Mg57 Mg73 3.189231 1_555
Mg58 Mg89 3.181083 1_555
Mg58 Mg63 3.184580 1_555
Mg58 Mg60 3.184658 1_555
Mg58 Mg97 3.188429 1_555
Mg58 Mg91 3.188484 1_555
Mg58 Mg72 3.189090 1_555
Mg58 Mg73 3.189141 1_555
Mg59 Mg78 3.179923 1_565
Mg59 Mg98 3.181533 1_555
Mg59 Mg94 3.183634 1_555
Mg59 Mg68 3.186399 1_565
Mg59 Mg73 3.190075 1_555
Mg59 Mg65 3.191215 1_565
Mg59 Mg60 3.196769 1_555
Mg60 Mg77 3.179819 1_565
Mg60 Mg97 3.181538 1_555
Mg60 Mg94 3.183615 1_555
Mg60 Mg69 3.186271 1_565
Mg60 Mg73 3.190169 1_555
Mg60 Mg65 3.191139 1_565
Mg61 Mg82 3.179839 1_455
Mg61 Mg80 3.181514 1_555
Mg61 Mg87 3.183626 1_555
Mg61 Mg69 3.186269 1_455
Mg61 Mg71 3.190170 1_555
Mg61 Mg67 3.191148 1_455
Mg61 Mg64 3.196799 1_555
Mg62 Mg83 3.179837 1_555
Mg62 Mg79 3.181477 1_555
Mg62 Mg88 3.183610 1_555
Mg62 Mg68 3.186339 1_555
Mg62 Mg72 3.190078 1_555
Mg62 Mg66 3.191064 1_555
Mg62 Mg63 3.196728 1_555
Mg63 Mg84 3.179849 1_555
Mg63 Mg91 3.181480 1_555
Mg63 Mg88 3.183599 1_555
Mg63 Mg70 3.186355 1_555
Mg63 Mg72 3.190050 1_555
Mg63 Mg66 3.191085 1_555
Mg64 Mg85 3.179920 1_455
Mg64 Mg92 3.181520 1_555
Mg64 Mg87 3.183649 1_555
Mg64 Mg70 3.186388 1_455
Mg64 Mg71 3.190093 1_555
Mg64 Mg67 3.191211 1_455
Mg65 Mg81 3.185016 1_555
Mg65 Mg78 3.186446 1_555
Mg65 Mg77 3.186537 1_555
Mg65 Mg67 3.187117 1_555
Mg65 Mg66 3.187165 1_555
Mg65 Mg68 3.188834 1_555
Mg65 Mg69 3.188977 1_555
Mg66 Mg81 3.185146 1_555
Mg66 Mg84 3.186548 1_555
Mg66 Mg83 3.186553 1_555
Mg66 Mg67 3.187182 1_555
Mg66 Mg70 3.188861 1_555
Mg66 Mg68 3.188863 1_555
Mg67 Mg81 3.185023 1_555
Mg67 Mg85 3.186454 1_555
Mg67 Mg82 3.186524 1_555
Mg67 Mg70 3.188843 1_555
Mg67 Mg69 3.188960 1_555
Mg68 Mg83 3.183584 1_555
Mg68 Mg78 3.183612 1_555
Mg68 Mg76 3.185382 1_555
Mg69 Mg82 3.183544 1_555
Mg69 Mg77 3.183546 1_555
Mg69 Mg75 3.185309 1_555
Mg70 Mg84 3.183583 1_555
Mg70 Mg85 3.183603 1_555
Mg70 Mg93 3.185374 1_555
Mg71 Mg73 3.185600 1_555
Mg71 Mg72 3.185737 1_555
Mg71 Mg87 3.188045 1_555
Mg71 Mg86 3.188535 1_555
Mg71 Mg90 3.188577 1_555
Mg72 Mg73 3.185734 1_555
Mg72 Mg88 3.188014 1_555
Mg72 Mg89 3.188607 1_555
Mg72 Mg86 3.188622 1_555
Mg73 Mg94 3.188048 1_555
Mg73 Mg89 3.188531 1_555
Mg73 Mg90 3.188589 1_555
Mg74 Mg96 3.173751 1_445
Mg74 Mg95 3.173856 1_545
Mg74 Mg75 3.180144 1_455
Mg74 Mg76 3.180203 1_555
Mg74 Mg79 3.189361 1_555
Mg74 Mg80 3.189389 1_555
Mg75 Mg96 3.180136 1_545
Mg75 Mg97 3.181706 1_545
Mg75 Mg80 3.181727 1_655
Mg75 Mg77 3.196173 1_555
Mg75 Mg82 3.196199 1_555
Mg76 Mg95 3.180176 1_545
Mg76 Mg79 3.181625 1_555
Mg76 Mg98 3.181702 1_545
Mg76 Mg83 3.196111 1_555
Mg76 Mg78 3.196248 1_555
Mg77 Mg94 3.179724 1_545
Mg77 Mg97 3.182625 1_545
Mg77 Mg78 3.185847 1_555
Mg77 Mg81 3.192160 1_555
Mg77 Mg82 3.198362 1_555
Mg78 Mg94 3.179779 1_545
Mg78 Mg98 3.182704 1_545
Mg78 Mg81 3.192074 1_555
Mg78 Mg83 3.198392 1_555
Mg79 Mg83 3.182531 1_555
Mg79 Mg86 3.184009 1_555
Mg79 Mg80 3.189207 1_555
Mg79 Mg88 3.193008 1_555
Mg80 Mg82 3.182604 1_455
Mg80 Mg86 3.183834 1_555
Mg80 Mg87 3.192957 1_555
Mg81 Mg85 3.192076 1_555
Mg81 Mg82 3.192148 1_555
Mg81 Mg84 3.192152 1_555
Mg81 Mg83 3.192156 1_555
Mg82 Mg87 3.179731 1_655
Mg82 Mg85 3.185843 1_555
Mg83 Mg88 3.179762 1_555
Mg83 Mg84 3.185904 1_555
Mg84 Mg88 3.179740 1_555
Mg84 Mg91 3.182546 1_555
Mg84 Mg93 3.196123 1_555
Mg84 Mg85 3.198406 1_555
Mg85 Mg87 3.179787 1_655
Mg85 Mg92 3.182680 1_655
Mg85 Mg93 3.196242 1_555
Mg86 Mg99 3.188522 1_555
Mg86 Mg87 3.190271 1_555
Mg86 Mg88 3.190440 1_555
Mg86 Mg89 3.207370 1_555
Mg86 Mg90 3.207430 1_555
Mg87 Mg99 3.188032 1_555
Mg87 Mg90 3.190333 1_555
Mg87 Mg92 3.193168 1_555
Mg88 Mg89 3.190432 1_555
Mg88 Mg91 3.193002 1_555
Mg89 Mg97 3.183844 1_555
Mg89 Mg91 3.184026 1_555
Mg89 Mg94 3.190280 1_555
Mg89 Mg90 3.207415 1_555
Mg90 Mg92 3.183857 1_555
Mg90 Mg98 3.183859 1_555
Mg90 Mg99 3.188564 1_555
Mg90 Mg94 3.190352 1_555
Mg91 Mg93 3.181624 1_555
Mg91 Mg97 3.189165 1_555
Mg91 Mg96 3.189345 1_555
Mg92 Mg93 3.181702 1_455
Mg92 Mg98 3.188970 1_555
Mg92 Mg95 3.189241 1_555
Mg93 Mg95 3.180159 1_655
Mg93 Mg96 3.180197 1_555
Mg94 Mg97 3.192977 1_555
Mg94 Mg98 3.193182 1_555
Mg95 Mg96 3.173844 1_455
Mg95 Mg98 3.189237 1_555
Mg96 Mg97 3.189370 1_555
Mg100 Mg138 3.176069 1_555
Mg100 Mg137 3.176076 1_555
Mg100 Mg135 3.178507 1_555
Mg100 Mg101 3.185734 1_555
Mg100 Mg99 3.185737 1_555
Mg100 Mg88 3.188001 1_555
Mg100 Mg89 3.188594 1_555
Mg100 Mg86 3.188610 1_555
Mg100 Mg116 3.189090 1_555
Mg100 Mg114 3.189125 1_555
Mg100 Mg112 3.190050 1_555
Mg100 Mg111 3.190078 1_555
Mg101 Mg139 3.176041 1_555
Mg101 Mg138 3.176068 1_555
Mg101 Mg136 3.178619 1_555
Mg101 Mg99 3.185600 1_555
Mg101 Mg94 3.188035 1_555
Mg101 Mg89 3.188518 1_555
Mg101 Mg90 3.188576 1_555
Mg101 Mg116 3.189141 1_555
Mg101 Mg115 3.189231 1_555
Mg101 Mg108 3.190075 1_555
Mg101 Mg109 3.190169 1_555
Mg102 Mg125 3.157534 1_555
Mg102 Mg131 3.180007 1_555
Mg102 Mg128 3.180026 1_555
Mg102 Mg83 3.183571 1_555
Mg102 Mg78 3.183600 1_555
Mg102 Mg76 3.185369 1_555
Mg102 Mg111 3.186339 1_555
Mg102 Mg108 3.186399 1_545
Mg102 Mg105 3.188834 1_555
Mg102 Mg106 3.188863 1_555
Mg102 Mg117 3.195986 1_545
Mg102 Mg119 3.196011 1_555
Mg103 Mg124 3.157541 1_555
Mg103 Mg130 3.180050 1_555
Mg103 Mg129 3.180074 1_555
Mg103 Mg82 3.183532 1_555
Mg103 Mg77 3.183534 1_555
Mg103 Mg75 3.185297 1_555
Mg103 Mg110 3.186269 1_655
Mg103 Mg109 3.186271 1_545
Mg103 Mg107 3.188960 1_555
Mg103 Mg105 3.188977 1_555
Mg103 Mg120 3.195918 1_655
Mg103 Mg118 3.195928 1_545
Mg104 Mg126 3.157536 1_555
Mg104 Mg133 3.180023 1_555
Mg104 Mg132 3.180028 1_555
Mg104 Mg84 3.183571 1_555
Mg104 Mg85 3.183590 1_555
Mg104 Mg93 3.185362 1_555
Mg104 Mg112 3.186355 1_555
Mg104 Mg113 3.186388 1_655
Mg104 Mg107 3.188843 1_555
Mg104 Mg106 3.188861 1_555
Mg104 Mg122 3.195981 1_655
Mg104 Mg121 3.196020 1_555
Mg105 Mg127 3.170890 1_555
Mg105 Mg129 3.174503 1_555
Mg105 Mg128 3.174514 1_555
Mg105 Mg81 3.185016 1_555
Mg105 Mg78 3.186446 1_555
Mg105 Mg77 3.186537 1_555
Mg105 Mg107 3.187117 1_555
Mg105 Mg106 3.187165 1_555
Mg105 Mg109 3.191139 1_545
Mg105 Mg108 3.191215 1_545
Mg106 Mg127 3.170880 1_555
Mg106 Mg133 3.174374 1_555
Mg106 Mg131 3.174379 1_555
Mg106 Mg81 3.185146 1_555
Mg106 Mg84 3.186548 1_555
Mg106 Mg83 3.186553 1_555
Mg106 Mg107 3.187182 1_555
Mg106 Mg111 3.191064 1_555
Mg106 Mg112 3.191086 1_555
Mg107 Mg127 3.170908 1_555
Mg107 Mg130 3.174492 1_555
Mg107 Mg132 3.174506 1_555
Mg107 Mg81 3.185023 1_555
Mg107 Mg85 3.186454 1_555
Mg107 Mg82 3.186524 1_555
Mg107 Mg110 3.191148 1_655
Mg107 Mg113 3.191211 1_655
Mg108 Mg128 3.178706 1_565
Mg108 Mg78 3.179911 1_565
Mg108 Mg98 3.181521 1_555
Mg108 Mg136 3.182791 1_555
Mg108 Mg94 3.183622 1_555
Mg108 Mg115 3.184482 1_555
Mg108 Mg144 3.189458 1_555
Mg108 Mg109 3.196769 1_555
Mg108 Mg117 3.197155 1_555
Mg109 Mg129 3.178536 1_565
Mg109 Mg77 3.179806 1_565
Mg109 Mg97 3.181525 1_555
Mg109 Mg136 3.182870 1_555
Mg109 Mg94 3.183603 1_555
Mg109 Mg116 3.184658 1_555
Mg109 Mg145 3.189508 1_555
Mg109 Mg118 3.197173 1_555
Mg110 Mg130 3.178537 1_455
Mg110 Mg82 3.179827 1_455
Mg110 Mg80 3.181501 1_555
Mg110 Mg134 3.182865 1_555
Mg110 Mg87 3.183614 1_555
Mg110 Mg114 3.184620 1_555
Mg110 Mg141 3.189489 1_555
Mg110 Mg99 3.190170 1_555
Mg110 Mg113 3.196799 1_555
Mg110 Mg120 3.197166 1_555
Mg111 Mg131 3.178621 1_555
Mg111 Mg83 3.179824 1_555
Mg111 Mg79 3.181464 1_555
Mg111 Mg135 3.182747 1_555
Mg111 Mg88 3.183597 1_555
Mg111 Mg114 3.184612 1_555
Mg111 Mg140 3.189513 1_555
Mg111 Mg112 3.196728 1_555
Mg111 Mg119 3.197131 1_555
Mg112 Mg133 3.178633 1_555
Mg112 Mg84 3.179836 1_555
Mg112 Mg91 3.181468 1_555
Mg112 Mg135 3.182741 1_555
Mg112 Mg88 3.183586 1_555
Mg112 Mg116 3.184580 1_555
Mg112 Mg142 3.189493 1_555
Mg112 Mg121 3.197116 1_555
Mg113 Mg132 3.178712 1_455
Mg113 Mg85 3.179907 1_455
Mg113 Mg92 3.181507 1_555
Mg113 Mg134 3.182809 1_555
Mg113 Mg87 3.183636 1_555
Mg113 Mg115 3.184457 1_555
Mg113 Mg143 3.189451 1_555
Mg113 Mg99 3.190093 1_555
Mg113 Mg122 3.197143 1_555
Mg114 Mg137 3.169499 1_555
Mg114 Mg86 3.181073 1_555
Mg114 Mg141 3.186535 1_555
Mg114 Mg140 3.186541 1_555
Mg114 Mg80 3.188427 1_555
Mg114 Mg79 3.188486 1_555
Mg114 Mg99 3.189152 1_555
Mg114 Mg119 3.190868 1_555
Mg114 Mg120 3.190888 1_555
Mg115 Mg139 3.169619 1_555
Mg115 Mg90 3.181070 1_555
Mg115 Mg143 3.186457 1_555
Mg115 Mg144 3.186461 1_555
Mg115 Mg92 3.188392 1_555
Mg115 Mg98 3.188397 1_555
Mg115 Mg99 3.189215 1_555
Mg115 Mg122 3.190786 1_555
Mg115 Mg117 3.190786 1_555
Mg116 Mg138 3.169491 1_555
Mg116 Mg89 3.181083 1_555
Mg116 Mg142 3.186523 1_555
Mg116 Mg145 3.186540 1_555
Mg116 Mg97 3.188429 1_555
Mg116 Mg91 3.188484 1_555
Mg116 Mg121 3.190853 1_555
Mg116 Mg118 3.190894 1_555
Mg117 Mg122 3.168818 1_555
Mg117 Mg95 3.173691 1_555
Mg117 Mg123 3.173806 1_465
Mg117 Mg125 3.175284 1_565
Mg117 Mg76 3.178324 1_565
Mg117 Mg119 3.178668 1_565
Mg117 Mg98 3.181556 1_555
Mg117 Mg144 3.186446 1_555
Mg117 Mg147 3.216340 1_555
Mg118 Mg121 3.168901 1_555
Mg118 Mg96 3.173704 1_555
Mg118 Mg123 3.173748 1_565
Mg118 Mg124 3.175244 1_565
Mg118 Mg75 3.178264 1_565
Mg118 Mg120 3.178548 1_665
Mg118 Mg97 3.181620 1_555
Mg118 Mg145 3.186490 1_555
Mg118 Mg148 3.216376 1_555
Mg119 Mg120 3.168912 1_555
Mg119 Mg74 3.173742 1_555
Mg119 Mg123 3.173767 1_455
Mg119 Mg125 3.175290 1_555
Mg119 Mg76 3.178319 1_555
Mg119 Mg79 3.181592 1_555
Mg119 Mg140 3.186447 1_555
Mg119 Mg146 3.216385 1_555
Mg120 Mg74 3.173692 1_555
Mg120 Mg123 3.173747 1_455
Mg120 Mg124 3.175256 1_455
Mg120 Mg75 3.178267 1_455
Mg120 Mg80 3.181622 1_555
Mg120 Mg141 3.186493 1_555
Mg120 Mg146 3.216382 1_555
Mg121 Mg96 3.173733 1_555
Mg121 Mg123 3.173767 1_565
Mg121 Mg126 3.175304 1_555
Mg121 Mg93 3.178321 1_555
Mg121 Mg122 3.178678 1_655
Mg121 Mg91 3.181570 1_555
Mg121 Mg142 3.186440 1_555
Mg121 Mg148 3.216397 1_555
Mg122 Mg95 3.173685 1_555
Mg122 Mg123 3.173797 1_465
Mg122 Mg126 3.175273 1_455
Mg122 Mg93 3.178322 1_455
Mg122 Mg92 3.181566 1_555
Mg122 Mg143 3.186455 1_555
Mg122 Mg147 3.216336 1_555
Mg123 Mg148 3.181935 1_545
Mg123 Mg146 3.181937 1_655
Mg123 Mg147 3.182000 1_645
Mg123 Mg96 3.182926 1_545
Mg123 Mg74 3.182932 1_655
Mg123 Mg95 3.182985 1_645
Mg124 Mg5 3.166043 1_556
Mg124 Mg145 3.173720 1_545
Mg124 Mg141 3.173729 1_655
Mg124 Mg130 3.175622 1_555
Mg124 Mg129 3.175629 1_555
Mg124 Mg2 3.177253 1_556
Mg124 Mg148 3.201703 1_545
Mg124 Mg146 3.201714 1_655
Mg125 Mg4 3.166050 1_556
Mg125 Mg144 3.173751 1_545
Mg125 Mg140 3.173782 1_555
Mg125 Mg128 3.175594 1_555
Mg125 Mg131 3.175621 1_555
Mg125 Mg3 3.177265 1_556
Mg125 Mg147 3.201716 1_545
Mg125 Mg146 3.201816 1_555
Mg126 Mg16 3.166065 1_556
Mg126 Mg143 3.173751 1_655
Mg126 Mg142 3.173790 1_555
Mg126 Mg132 3.175590 1_555
Mg126 Mg133 3.175631 1_555
Mg126 Mg20 3.177233 1_556
Mg126 Mg21 3.177263 1_556
Mg126 Mg147 3.201714 1_655
Mg126 Mg148 3.201823 1_555
Mg127 Mg6 3.177036 1_556
Mg127 Mg128 3.186767 1_555
Mg127 Mg131 3.186770 1_555
Mg127 Mg132 3.186773 1_555
Mg127 Mg133 3.186775 1_555
Mg127 Mg129 3.186839 1_555
Mg127 Mg130 3.186856 1_555
Mg128 Mg6 3.169632 1_556
Mg128 Mg23 3.172003 1_546
Mg128 Mg4 3.176000 1_556
Mg128 Mg129 3.185520 1_555
Mg128 Mg136 3.187381 1_545
Mg128 Mg131 3.188071 1_555
Mg128 Mg144 3.189626 1_545
Mg129 Mg6 3.169752 1_556
Mg129 Mg22 3.172032 1_546
Mg129 Mg5 3.176058 1_556
Mg129 Mg136 3.187353 1_545
Mg129 Mg130 3.188123 1_555
Mg129 Mg145 3.189563 1_545
Mg130 Mg9 3.172037 1_656
Mg130 Mg5 3.176055 1_556
Mg130 Mg132 3.185537 1_555
Mg130 Mg134 3.187356 1_655
Mg130 Mg141 3.189558 1_655
Mg131 Mg8 3.172049 1_556
Mg131 Mg4 3.175971 1_556
Mg131 Mg133 3.185447 1_555
Mg131 Mg135 3.187346 1_555
Mg131 Mg140 3.189616 1_555
Mg132 Mg15 3.172008 1_656
Mg132 Mg16 3.175994 1_556
Mg132 Mg134 3.187402 1_655
Mg132 Mg133 3.188060 1_555
Mg132 Mg143 3.189638 1_655
Mg133 Mg14 3.172048 1_556
Mg133 Mg16 3.175963 1_556
Mg133 Mg135 3.187340 1_555
Mg133 Mg142 3.189625 1_555
Mg134 Mg15 3.171783 1_556
Mg134 Mg9 3.171832 1_556
Mg134 Mg99 3.178635 1_555
Mg134 Mg139 3.187835 1_555
Mg134 Mg137 3.187915 1_555
Mg134 Mg143 3.202783 1_555
Mg134 Mg141 3.202832 1_555
Mg135 Mg14 3.171955 1_556
Mg135 Mg8 3.171959 1_556
Mg135 Mg138 3.187920 1_555
Mg135 Mg137 3.187922 1_555
Mg135 Mg142 3.202761 1_555
Mg135 Mg140 3.202764 1_555
Mg136 Mg17 3.165707 1_556
Mg136 Mg23 3.171778 1_556
Mg136 Mg22 3.171836 1_556
Mg136 Mg139 3.187830 1_555
Mg136 Mg138 3.187923 1_555
Mg136 Mg144 3.202777 1_555
Mg136 Mg145 3.202831 1_555
Mg137 Mg99 3.176063 1_555
Mg137 Mg7 3.183894 1_556
Mg137 Mg141 3.195152 1_555
Mg137 Mg140 3.195165 1_555
Mg137 Mg139 3.201150 1_555
Mg137 Mg138 3.201169 1_555
Mg138 Mg17 3.175384 1_556
Mg138 Mg19 3.183881 1_556
Mg138 Mg145 3.195145 1_555
Mg138 Mg142 3.195153 1_555
Mg138 Mg139 3.201153 1_555
Mg139 Mg17 3.175325 1_556
Mg139 Mg99 3.176036 1_555
Mg139 Mg18 3.183918 1_556
Mg139 Mg143 3.195210 1_555
Mg139 Mg144 3.195211 1_555
Mg140 Mg7 3.158567 1_556
Mg140 Mg8 3.163446 1_556
Mg140 Mg3 3.183880 1_556
Mg140 Mg141 3.185952 1_555
Mg140 Mg146 3.206781 1_555
Mg141 Mg7 3.158565 1_556
Mg141 Mg9 3.163530 1_556
Mg141 Mg2 3.183924 1_456
Mg141 Mg146 3.206766 1_555
Mg142 Mg19 3.158570 1_556
Mg142 Mg21 3.183895 1_556
Mg142 Mg145 3.185951 1_555
Mg142 Mg148 3.206785 1_555
Mg143 Mg18 3.158559 1_556
Mg143 Mg15 3.163585 1_556
Mg143 Mg20 3.183928 1_456
Mg143 Mg144 3.185804 1_555
Mg143 Mg147 3.206692 1_555
Mg144 Mg18 3.158560 1_556
Mg144 Mg23 3.163592 1_556
Mg144 Mg147 3.206690 1_555
Mg145 Mg19 3.158567 1_556
Mg145 Mg22 3.163526 1_556
Mg145 Mg148 3.206771 1_555
Mg146 Si0 3.117004 1_456
Mg146 Mg148 3.119694 1_445
Mg146 Mg147 3.119857 1_545
Mg146 Mg2 3.131217 1_456
Mg146 Mg3 3.131275 1_556
Mg147 Si0 3.117076 1_466
Mg147 Mg148 3.119858 1_455
Mg147 Mg20 3.131221 1_456
Mg148 Si0 3.117000 1_566
Mg148 Mg21 3.131277 1_556
