# generated using pymatgen
data_Sc2Ga8Ni
_symmetry_space_group_name_H-M   'P 1'
_cell_length_a   4.11319274
_cell_length_b   4.11319274
_cell_length_c   10.59677624
_cell_angle_alpha   90.00000000
_cell_angle_beta   90.00000000
_cell_angle_gamma   90.00000000
_symmetry_Int_Tables_number   1
_chemical_formula_structural   Sc2Ga8Ni
_chemical_formula_sum   'Sc2 Ga8 Ni1'
_cell_volume   179.28001716
_cell_formula_units_Z   1
loop_
 _symmetry_equiv_pos_site_id
 _symmetry_equiv_pos_as_xyz
  1  'x, y, z'
loop_
 _atom_site_type_symbol
 _atom_site_label
 _atom_site_symmetry_multiplicity
 _atom_site_fract_x
 _atom_site_fract_y
 _atom_site_fract_z
 _atom_site_occupancy
  Sc  Sc0  1  0.00000000  -0.00000000  0.31123083  1
  Sc  Sc1  1  -0.00000000  0.00000000  0.68876917  1
  Ga  Ga0  1  -0.00000000  0.50000000  0.12359643  1
  Ga  Ga1  1  0.00000000  0.50000000  0.87640357  1
  Ga  Ga2  1  0.50000000  -0.00000000  0.12359643  1
  Ga  Ga3  1  0.50000000  0.00000000  0.87640357  1
  Ga  Ga4  1  0.00000000  0.50000000  0.50000000  1
  Ga  Ga5  1  0.50000000  -0.00000000  0.50000000  1
  Ga  Ga6  1  0.50000000  0.50000000  0.30488116  1
  Ga  Ga7  1  0.50000000  0.50000000  0.69511884  1
  Ni  Ni0  1  0.00000000  -0.00000000  0.00000000  1
loop_
_geom_bond_atom_site_label_1
_geom_bond_atom_site_label_2
_geom_bond_distance
_geom_bond_site_symmetry_2
Ga0 Ni0 2.438230 1_565
Ga0 Ni0 2.438230 1_555
Ga0 Ga1 2.619447 1_554
Ga0 Ga6 2.814242 1_555
Ga0 Ga6 2.814242 1_455
Ga0 Sc0 2.860595 1_565
Ga0 Sc0 2.860595 1_555
Ga0 Ga2 2.908466 1_555
Ga0 Ga2 2.908466 1_465
Ga0 Ga2 2.908466 1_455
Ga0 Ga2 2.908466 1_565
Ga1 Ni0 2.438230 1_566
Ga1 Ni0 2.438230 1_556
Ga1 Ga7 2.814242 1_555
Ga1 Ga7 2.814242 1_455
Ga1 Sc1 2.860595 1_555
Ga1 Sc1 2.860595 1_565
Ga1 Ga3 2.908466 1_565
Ga1 Ga3 2.908466 1_455
Ga1 Ga3 2.908466 1_465
Ga1 Ga3 2.908466 1_555
Ga2 Ni0 2.438230 1_655
Ga2 Ni0 2.438230 1_555
Ga2 Ga3 2.619447 1_554
Ga2 Ga6 2.814242 1_555
Ga2 Ga6 2.814242 1_545
Ga2 Sc0 2.860595 1_655
Ga2 Sc0 2.860595 1_555
Ga3 Ni0 2.438230 1_656
Ga3 Ni0 2.438230 1_556
Ga3 Ga7 2.814242 1_545
Ga3 Ga7 2.814242 1_555
Ga3 Sc1 2.860595 1_555
Ga3 Sc1 2.860595 1_655
Ga4 Sc0 2.868966 1_565
Ga4 Sc0 2.868966 1_555
Ga4 Sc1 2.868966 1_555
Ga4 Sc1 2.868966 1_565
Ga4 Ga5 2.908466 1_555
Ga4 Ga5 2.908466 1_465
Ga4 Ga5 2.908466 1_565
Ga4 Ga5 2.908466 1_455
Ga4 Ga7 2.916279 1_555
Ga4 Ga7 2.916279 1_455
Ga4 Ga6 2.916279 1_555
Ga4 Ga6 2.916279 1_455
Ga5 Sc0 2.868966 1_655
Ga5 Sc0 2.868966 1_555
Ga5 Sc1 2.868966 1_655
Ga5 Sc1 2.868966 1_555
Ga5 Ga7 2.916279 1_555
Ga5 Ga6 2.916279 1_555
Ga5 Ga6 2.916279 1_545
Ga5 Ga7 2.916279 1_545
Ga6 Sc0 2.909245 1_555
Ga6 Sc0 2.909245 1_665
Ga6 Sc0 2.909245 1_565
Ga6 Sc0 2.909245 1_655
Ga7 Sc1 2.909245 1_565
Ga7 Sc1 2.909245 1_665
Ga7 Sc1 2.909245 1_555
Ga7 Sc1 2.909245 1_655
