# generated using pymatgen
data_ZrMnFe
_symmetry_space_group_name_H-M   'P 1'
_cell_length_a   4.96811765
_cell_length_b   4.96906351
_cell_length_c   8.16446400
_cell_angle_alpha   90.00000000
_cell_angle_beta   90.00000000
_cell_angle_gamma   59.70729408
_symmetry_Int_Tables_number   1
_chemical_formula_structural   ZrMnFe
_chemical_formula_sum   'Zr4 Mn4 Fe4'
_cell_volume   174.03484340
_cell_formula_units_Z   4
loop_
 _symmetry_equiv_pos_site_id
 _symmetry_equiv_pos_as_xyz
  1  'x, y, z'
loop_
 _atom_site_type_symbol
 _atom_site_label
 _atom_site_symmetry_multiplicity
 _atom_site_fract_x
 _atom_site_fract_y
 _atom_site_fract_z
 _atom_site_occupancy
  Zr  Zr0  1  0.33322600  0.33314900  0.56399300  1
  Zr  Zr1  1  0.66641600  0.66639200  0.43722700  1
  Zr  Zr2  1  0.66641600  0.66639200  0.06277300  1
  Zr  Zr3  1  0.33322600  0.33314900  0.93600700  1
  Mn  Mn0  1  0.83393600  0.83390200  0.75000000  1
  Mn  Mn1  1  0.16938300  0.66138100  0.25000000  1
  Mn  Mn2  1  0.66130400  0.16942700  0.25000000  1
  Mn  Mn3  1  0.16926800  0.16926200  0.25000000  1
  Fe  Fe0  1  0.00007600  0.00016000  0.49582000  1
  Fe  Fe1  1  0.00007600  0.00016000  0.00418000  1
  Fe  Fe2  1  0.83376500  0.33288700  0.75000000  1
  Fe  Fe3  1  0.33290800  0.83374000  0.75000000  1
loop_
_geom_bond_atom_site_label_1
_geom_bond_atom_site_label_2
_geom_bond_distance
_geom_bond_site_symmetry_2
Zr0 Zr3 3.037295 1_555
Zr0 Zr1 3.041980 1_455
Zr0 Zr1 3.042282 1_545
Zr0 Zr1 3.052637 1_555
Zr1 Zr2 3.057216 1_555
Zr2 Zr3 3.041980 1_654
Zr2 Zr3 3.042282 1_564
Zr2 Zr3 3.052637 1_554
Mn0 Zr3 2.902239 1_565
Mn0 Zr0 2.902239 1_565
Mn0 Zr0 2.902422 1_655
Mn0 Zr3 2.902422 1_655
Mn0 Zr2 2.933488 1_556
Mn0 Zr1 2.933488 1_555
Mn1 Mn2 2.433414 1_555
Mn1 Mn3 2.445659 1_555
Mn1 Mn2 2.513178 1_465
Mn1 Mn3 2.523405 1_565
Mn1 Zr2 2.914931 1_555
Mn1 Zr1 2.914931 1_555
Mn1 Zr1 2.918645 1_455
Mn1 Zr2 2.918645 1_455
Mn1 Zr3 2.924957 1_554
Mn1 Zr0 2.924957 1_555
Mn2 Mn3 2.444906 1_555
Mn2 Mn3 2.523211 1_655
Mn2 Zr2 2.915261 1_555
Mn2 Zr1 2.915261 1_555
Mn2 Zr2 2.919128 1_545
Mn2 Zr1 2.919128 1_545
Mn2 Zr0 2.924510 1_555
Mn2 Zr3 2.924510 1_554
Mn3 Zr1 2.907610 1_455
Mn3 Zr2 2.907610 1_455
Mn3 Zr1 2.907695 1_545
Mn3 Zr2 2.907695 1_545
Mn3 Zr0 2.927094 1_555
Mn3 Zr3 2.927094 1_554
Fe0 Mn2 2.477905 1_455
Fe0 Mn1 2.478085 1_545
Fe0 Mn3 2.480559 1_555
Fe0 Fe2 2.518873 1_455
Fe0 Fe3 2.518972 1_545
Fe0 Mn0 2.521581 1_445
Fe0 Zr1 2.898221 1_545
Fe0 Zr1 2.898304 1_455
Fe0 Zr0 2.914325 1_455
Fe0 Zr0 2.915539 1_545
Fe0 Zr1 2.915632 1_445
Fe0 Zr0 2.924028 1_555
Fe1 Mn2 2.477905 1_455
Fe1 Mn1 2.478085 1_545
Fe1 Mn3 2.480559 1_555
Fe1 Fe2 2.518873 1_454
Fe1 Fe3 2.518972 1_544
Fe1 Mn0 2.521581 1_444
Fe1 Zr2 2.898221 1_545
Fe1 Zr2 2.898304 1_455
Fe1 Zr3 2.914325 1_454
Fe1 Zr3 2.915539 1_544
Fe1 Zr2 2.915632 1_445
Fe1 Zr3 2.924028 1_554
Fe2 Fe3 2.469067 1_645
Fe2 Fe3 2.477525 1_555
Fe2 Mn0 2.479060 1_545
Fe2 Mn0 2.490004 1_555
Fe2 Zr0 2.909777 1_655
Fe2 Zr3 2.909777 1_655
Fe2 Zr3 2.913226 1_555
Fe2 Zr0 2.913226 1_555
Fe2 Zr2 2.927214 1_556
Fe2 Zr1 2.927214 1_555
Fe3 Mn0 2.478546 1_455
Fe3 Mn0 2.489572 1_555
Fe3 Zr3 2.910079 1_565
Fe3 Zr0 2.910079 1_565
Fe3 Zr3 2.913731 1_555
Fe3 Zr0 2.913731 1_555
Fe3 Zr2 2.927087 1_556
Fe3 Zr1 2.927087 1_555
