# generated using pymatgen
data_Mg3Cr2(GeO4)3
_symmetry_space_group_name_H-M   'P 1'
_cell_length_a   10.44261919
_cell_length_b   10.44261919
_cell_length_c   10.44261919
_cell_angle_alpha   109.47122063
_cell_angle_beta   109.47122063
_cell_angle_gamma   109.47122063
_symmetry_Int_Tables_number   1
_chemical_formula_structural   Mg3Cr2(GeO4)3
_chemical_formula_sum   'Mg12 Cr8 Ge12 O48'
_cell_volume   876.61002285
_cell_formula_units_Z   4
loop_
 _symmetry_equiv_pos_site_id
 _symmetry_equiv_pos_as_xyz
  1  'x, y, z'
loop_
 _atom_site_type_symbol
 _atom_site_label
 _atom_site_symmetry_multiplicity
 _atom_site_fract_x
 _atom_site_fract_y
 _atom_site_fract_z
 _atom_site_occupancy
  Mg  Mg0  1  0.25000000  0.87500000  0.62500000  1
  Mg  Mg1  1  0.75000000  0.62500000  0.87500000  1
  Mg  Mg2  1  0.62500000  0.87500000  0.75000000  1
  Mg  Mg3  1  0.87500000  0.62500000  0.25000000  1
  Mg  Mg4  1  0.62500000  0.25000000  0.87500000  1
  Mg  Mg5  1  0.87500000  0.75000000  0.62500000  1
  Mg  Mg6  1  0.75000000  0.12500000  0.37500000  1
  Mg  Mg7  1  0.25000000  0.37500000  0.12500000  1
  Mg  Mg8  1  0.37500000  0.12500000  0.25000000  1
  Mg  Mg9  1  0.12500000  0.37500000  0.75000000  1
  Mg  Mg10  1  0.37500000  0.75000000  0.12500000  1
  Mg  Mg11  1  0.12500000  0.25000000  0.37500000  1
  Cr  Cr0  1  0.50000000  0.50000000  0.50000000  1
  Cr  Cr1  1  0.50000000  0.00000000  0.50000000  1
  Cr  Cr2  1  0.00000000  0.50000000  0.50000000  1
  Cr  Cr3  1  0.50000000  0.50000000  0.00000000  1
  Cr  Cr4  1  0.00000000  0.00000000  0.50000000  1
  Cr  Cr5  1  0.00000000  0.50000000  0.00000000  1
  Cr  Cr6  1  0.50000000  0.00000000  0.00000000  1
  Cr  Cr7  1  0.00000000  0.00000000  0.00000000  1
  Ge  Ge0  1  0.12500000  0.75000000  0.87500000  1
  Ge  Ge1  1  0.87500000  0.25000000  0.12500000  1
  Ge  Ge2  1  0.62500000  0.37500000  0.25000000  1
  Ge  Ge3  1  0.75000000  0.87500000  0.12500000  1
  Ge  Ge4  1  0.87500000  0.12500000  0.75000000  1
  Ge  Ge5  1  0.25000000  0.62500000  0.37500000  1
  Ge  Ge6  1  0.75000000  0.37500000  0.62500000  1
  Ge  Ge7  1  0.25000000  0.12500000  0.87500000  1
  Ge  Ge8  1  0.12500000  0.87500000  0.25000000  1
  Ge  Ge9  1  0.37500000  0.62500000  0.75000000  1
  Ge  Ge10  1  0.62500000  0.75000000  0.37500000  1
  Ge  Ge11  1  0.37500000  0.25000000  0.62500000  1
  O  O0  1  0.41818800  0.81824500  0.79071600  1
  O  O1  1  0.87252700  0.40005600  0.08181200  1
  O  O2  1  0.09994400  0.97247100  0.68175500  1
  O  O3  1  0.52752900  0.62747300  0.70928400  1
  O  O4  1  0.68175500  0.08181200  0.70928400  1
  O  O5  1  0.62747300  0.70928400  0.52752900  1
  O  O6  1  0.62747300  0.41818800  0.09994400  1
  O  O7  1  0.70928400  0.52752900  0.62747300  1
  O  O8  1  0.81824500  0.52752900  0.40005600  1
  O  O9  1  0.97247100  0.79071600  0.87252700  1
  O  O10  1  0.79071600  0.87252700  0.97247100  1
  O  O11  1  0.70928400  0.68175500  0.08181200  1
  O  O12  1  0.41818800  0.09994400  0.62747300  1
  O  O13  1  0.40005600  0.81824500  0.52752900  1
  O  O14  1  0.08181200  0.70928400  0.68175500  1
  O  O15  1  0.09994400  0.62747300  0.41818800  1
  O  O16  1  0.52752900  0.40005600  0.81824500  1
  O  O17  1  0.08181200  0.87252700  0.40005600  1
  O  O18  1  0.97247100  0.68175500  0.09994400  1
  O  O19  1  0.18175500  0.47247100  0.59994400  1
  O  O20  1  0.68175500  0.09994400  0.97247100  1
  O  O21  1  0.79071600  0.41818800  0.81824500  1
  O  O22  1  0.40005600  0.08181200  0.87252700  1
  O  O23  1  0.87252700  0.97247100  0.79071600  1
  O  O24  1  0.58181200  0.18175500  0.20928400  1
  O  O25  1  0.12747300  0.59994400  0.91818800  1
  O  O26  1  0.90005600  0.02752900  0.31824500  1
  O  O27  1  0.47247100  0.37252700  0.29071600  1
  O  O28  1  0.31824500  0.91818800  0.29071600  1
  O  O29  1  0.37252700  0.29071600  0.47247100  1
  O  O30  1  0.37252700  0.58181200  0.90005600  1
  O  O31  1  0.29071600  0.47247100  0.37252700  1
  O  O32  1  0.12747300  0.02752900  0.20928400  1
  O  O33  1  0.59994400  0.91818800  0.12747300  1
  O  O34  1  0.20928400  0.58181200  0.18175500  1
  O  O35  1  0.18175500  0.20928400  0.58181200  1
  O  O36  1  0.31824500  0.90005600  0.02752900  1
  O  O37  1  0.02752900  0.31824500  0.90005600  1
  O  O38  1  0.91818800  0.12747300  0.59994400  1
  O  O39  1  0.47247100  0.59994400  0.18175500  1
  O  O40  1  0.90005600  0.37252700  0.58181200  1
  O  O41  1  0.91818800  0.29071600  0.31824500  1
  O  O42  1  0.59994400  0.18175500  0.47247100  1
  O  O43  1  0.58181200  0.90005600  0.37252700  1
  O  O44  1  0.29071600  0.31824500  0.91818800  1
  O  O45  1  0.20928400  0.12747300  0.02752900  1
  O  O46  1  0.02752900  0.20928400  0.12747300  1
  O  O47  1  0.81824500  0.79071600  0.41818800  1
loop_
_geom_bond_atom_site_label_1
_geom_bond_atom_site_label_2
_geom_bond_distance
_geom_bond_site_symmetry_2
Mg0 O2 2.263398 1_555
Mg0 O13 2.263398 1_555
Mg0 O15 2.263401 1_555
Mg0 O22 2.263401 1_565
Mg0 O0 2.404593 1_555
Mg0 O14 2.404593 1_555
Mg0 O17 2.404594 1_555
Mg0 O12 2.404594 1_565
Mg1 O10 2.263398 1_555
Mg1 O7 2.263398 1_555
Mg1 O21 2.263408 1_555
Mg1 O11 2.263408 1_556
Mg1 O3 2.404599 1_555
Mg1 O9 2.404599 1_555
Mg1 O16 2.404599 1_555
Mg1 O18 2.404599 1_556
Mg2 O3 2.263398 1_555
Mg2 O23 2.263398 1_555
Mg2 O4 2.263408 1_565
Mg2 O0 2.263408 1_555
Mg2 O10 2.404599 1_555
Mg2 O13 2.404599 1_555
Mg2 O5 2.404599 1_555
Mg2 O20 2.404599 1_565
Mg3 O18 2.263398 1_555
Mg3 O8 2.263398 1_555
Mg3 O17 2.263401 1_655
Mg3 O6 2.263401 1_555
Mg3 O11 2.404593 1_555
Mg3 O47 2.404593 1_555
Mg3 O1 2.404594 1_555
Mg3 O15 2.404594 1_655
Mg4 O20 2.263398 1_555
Mg4 O16 2.263398 1_555
Mg4 O12 2.263401 1_555
Mg4 O1 2.263401 1_556
Mg4 O4 2.404593 1_555
Mg4 O21 2.404593 1_555
Mg4 O22 2.404594 1_555
Mg4 O6 2.404594 1_556
Mg5 O9 2.263398 1_555
Mg5 O5 2.263398 1_555
Mg5 O47 2.263408 1_555
Mg5 O14 2.263408 1_655
Mg5 O23 2.404599 1_555
Mg5 O7 2.404599 1_555
Mg5 O8 2.404599 1_555
Mg5 O2 2.404599 1_655
Mg6 O42 2.263398 1_555
Mg6 O26 2.263398 1_555
Mg6 O40 2.263401 1_555
Mg6 O33 2.263401 1_545
Mg6 O41 2.404593 1_555
Mg6 O24 2.404593 1_555
Mg6 O43 2.404594 1_545
Mg6 O38 2.404594 1_555
Mg7 O31 2.263398 1_555
Mg7 O45 2.263398 1_555
Mg7 O34 2.263408 1_555
Mg7 O44 2.263408 1_554
Mg7 O27 2.404599 1_555
Mg7 O39 2.404599 1_555
Mg7 O46 2.404599 1_555
Mg7 O37 2.404599 1_554
Mg8 O32 2.263398 1_555
Mg8 O27 2.263398 1_555
Mg8 O28 2.263408 1_545
Mg8 O24 2.263408 1_555
Mg8 O42 2.404599 1_555
Mg8 O36 2.404599 1_545
Mg8 O29 2.404599 1_555
Mg8 O45 2.404599 1_555
Mg9 O19 2.263398 1_555
Mg9 O37 2.263398 1_555
Mg9 O30 2.263401 1_555
Mg9 O38 2.263401 1_455
Mg9 O35 2.404593 1_555
Mg9 O44 2.404593 1_555
Mg9 O40 2.404594 1_455
Mg9 O25 2.404594 1_555
Mg10 O39 2.263398 1_555
Mg10 O36 2.263398 1_555
Mg10 O43 2.263401 1_555
Mg10 O25 2.263401 1_554
Mg10 O28 2.404593 1_555
Mg10 O34 2.404593 1_555
Mg10 O30 2.404594 1_554
Mg10 O33 2.404594 1_555
Mg11 O46 2.263398 1_555
Mg11 O29 2.263398 1_555
Mg11 O35 2.263408 1_555
Mg11 O41 2.263408 1_455
Mg11 O19 2.404599 1_555
Mg11 O31 2.404599 1_555
Mg11 O26 2.404599 1_455
Mg11 O32 2.404599 1_555
Cr0 O29 2.004364 1_555
Cr0 O3 2.004364 1_555
Cr0 O7 2.004364 1_555
Cr0 O27 2.004364 1_555
Cr0 O5 2.004364 1_555
Cr0 O31 2.004364 1_555
Cr1 O28 2.004361 1_545
Cr1 O4 2.004361 1_555
Cr1 O42 2.004364 1_555
Cr1 O13 2.004364 1_545
Cr1 O12 2.004372 1_555
Cr1 O43 2.004372 1_545
Cr2 O14 2.004361 1_555
Cr2 O41 2.004361 1_455
Cr2 O19 2.004364 1_555
Cr2 O8 2.004364 1_455
Cr2 O15 2.004372 1_555
Cr2 O40 2.004372 1_455
Cr3 O11 2.004361 1_555
Cr3 O44 2.004361 1_554
Cr3 O16 2.004364 1_554
Cr3 O39 2.004364 1_555
Cr3 O6 2.004372 1_555
Cr3 O30 2.004372 1_554
Cr4 O35 2.004361 1_555
Cr4 O47 2.004361 1_445
Cr4 O26 2.004364 1_455
Cr4 O2 2.004364 1_545
Cr4 O17 2.004372 1_545
Cr4 O38 2.004372 1_455
Cr5 O34 2.004361 1_555
Cr5 O21 2.004361 1_454
Cr5 O18 2.004364 1_455
Cr5 O37 2.004364 1_554
Cr5 O1 2.004372 1_455
Cr5 O25 2.004372 1_554
Cr6 O24 2.004361 1_555
Cr6 O0 2.004361 1_544
Cr6 O20 2.004364 1_554
Cr6 O36 2.004364 1_545
Cr6 O22 2.004372 1_554
Cr6 O33 2.004372 1_545
Cr7 O10 2.004364 1_444
Cr7 O45 2.004364 1_555
Cr7 O32 2.004364 1_555
Cr7 O9 2.004364 1_444
Cr7 O23 2.004364 1_444
Cr7 O46 2.004364 1_555
Ge0 O25 1.774776 1_555
Ge0 O36 1.774782 1_556
Ge0 O9 1.774782 1_455
Ge0 O14 1.774784 1_555
Ge1 O1 1.774776 1_555
Ge1 O46 1.774782 1_655
Ge1 O20 1.774782 1_554
Ge1 O41 1.774784 1_555
Ge2 O6 1.774776 1_555
Ge2 O8 1.774782 1_555
Ge2 O27 1.774782 1_555
Ge2 O24 1.774784 1_555
Ge3 O33 1.774776 1_555
Ge3 O26 1.774782 1_565
Ge3 O10 1.774782 1_554
Ge3 O11 1.774784 1_555
Ge4 O38 1.774776 1_555
Ge4 O37 1.774782 1_655
Ge4 O23 1.774782 1_545
Ge4 O4 1.774784 1_555
Ge5 O15 1.774776 1_555
Ge5 O31 1.774782 1_555
Ge5 O13 1.774782 1_555
Ge5 O34 1.774784 1_555
Ge6 O40 1.774776 1_555
Ge6 O7 1.774782 1_555
Ge6 O42 1.774782 1_555
Ge6 O21 1.774784 1_555
Ge7 O22 1.774776 1_555
Ge7 O45 1.774782 1_556
Ge7 O2 1.774782 1_545
Ge7 O44 1.774784 1_555
Ge8 O17 1.774776 1_555
Ge8 O32 1.774782 1_565
Ge8 O18 1.774782 1_455
Ge8 O28 1.774784 1_555
Ge9 O30 1.774776 1_555
Ge9 O19 1.774782 1_555
Ge9 O3 1.774782 1_555
Ge9 O0 1.774784 1_555
Ge10 O43 1.774776 1_555
Ge10 O39 1.774782 1_555
Ge10 O5 1.774782 1_555
Ge10 O47 1.774784 1_555
Ge11 O12 1.774776 1_555
Ge11 O16 1.774782 1_555
Ge11 O29 1.774782 1_555
Ge11 O35 1.774784 1_555
