# generated using pymatgen
data_LiMg30GaO32
_symmetry_space_group_name_H-M   'P 1'
_cell_length_a   8.50406400
_cell_length_b   8.50406400
_cell_length_c   8.50723000
_cell_angle_alpha   90.00000000
_cell_angle_beta   90.00000000
_cell_angle_gamma   90.00000000
_symmetry_Int_Tables_number   1
_chemical_formula_structural   LiMg30GaO32
_chemical_formula_sum   'Li1 Mg30 Ga1 O32'
_cell_volume   615.23525551
_cell_formula_units_Z   1
loop_
 _symmetry_equiv_pos_site_id
 _symmetry_equiv_pos_as_xyz
  1  'x, y, z'
loop_
 _atom_site_type_symbol
 _atom_site_label
 _atom_site_symmetry_multiplicity
 _atom_site_fract_x
 _atom_site_fract_y
 _atom_site_fract_z
 _atom_site_occupancy
  Li  Li0  1  0.00000000  0.00000000  0.00000000  1
  Mg  Mg0  1  0.00000000  0.50000000  0.00000000  1
  Mg  Mg1  1  0.00000000  0.50000000  0.50000000  1
  Mg  Mg2  1  0.50000000  0.00000000  0.00000000  1
  Mg  Mg3  1  0.50000000  0.00000000  0.50000000  1
  Mg  Mg4  1  0.50000000  0.50000000  0.00000000  1
  Mg  Mg5  1  0.50000000  0.50000000  0.50000000  1
  Mg  Mg6  1  0.00000000  0.24911900  0.24508800  1
  Mg  Mg7  1  0.00000000  0.24911900  0.75491200  1
  Mg  Mg8  1  0.00000000  0.75088100  0.24508800  1
  Mg  Mg9  1  0.00000000  0.75088100  0.75491200  1
  Mg  Mg10  1  0.50000000  0.24992800  0.24877500  1
  Mg  Mg11  1  0.50000000  0.24992800  0.75122500  1
  Mg  Mg12  1  0.50000000  0.75007200  0.24877500  1
  Mg  Mg13  1  0.50000000  0.75007200  0.75122500  1
  Mg  Mg14  1  0.24911900  0.00000000  0.24508800  1
  Mg  Mg15  1  0.24911900  0.00000000  0.75491200  1
  Mg  Mg16  1  0.24992800  0.50000000  0.24877500  1
  Mg  Mg17  1  0.24992800  0.50000000  0.75122500  1
  Mg  Mg18  1  0.75088100  0.00000000  0.24508800  1
  Mg  Mg19  1  0.75088100  0.00000000  0.75491200  1
  Mg  Mg20  1  0.75007200  0.50000000  0.24877500  1
  Mg  Mg21  1  0.75007200  0.50000000  0.75122500  1
  Mg  Mg22  1  0.24729000  0.24729000  0.00000000  1
  Mg  Mg23  1  0.25101400  0.25101400  0.50000000  1
  Mg  Mg24  1  0.24729000  0.75271000  0.00000000  1
  Mg  Mg25  1  0.25101400  0.74898600  0.50000000  1
  Mg  Mg26  1  0.75271000  0.24729000  0.00000000  1
  Mg  Mg27  1  0.74898600  0.25101400  0.50000000  1
  Mg  Mg28  1  0.75271000  0.75271000  0.00000000  1
  Mg  Mg29  1  0.74898600  0.74898600  0.50000000  1
  Ga  Ga0  1  0.00000000  0.00000000  0.50000000  1
  O  O0  1  0.25457900  0.00000000  0.00000000  1
  O  O1  1  0.24427500  0.00000000  0.50000000  1
  O  O2  1  0.25059900  0.50000000  0.00000000  1
  O  O3  1  0.24895500  0.50000000  0.50000000  1
  O  O4  1  0.74542100  0.00000000  0.00000000  1
  O  O5  1  0.75572500  0.00000000  0.50000000  1
  O  O6  1  0.74940100  0.50000000  0.00000000  1
  O  O7  1  0.75104500  0.50000000  0.50000000  1
  O  O8  1  0.24961400  0.24961400  0.25081800  1
  O  O9  1  0.24961400  0.24961400  0.74918200  1
  O  O10  1  0.24961400  0.75038600  0.25081800  1
  O  O11  1  0.24961400  0.75038600  0.74918200  1
  O  O12  1  0.75038600  0.24961400  0.25081800  1
  O  O13  1  0.75038600  0.24961400  0.74918200  1
  O  O14  1  0.75038600  0.75038600  0.25081800  1
  O  O15  1  0.75038600  0.75038600  0.74918200  1
  O  O16  1  0.00000000  0.00000000  0.26599800  1
  O  O17  1  0.00000000  0.00000000  0.73400200  1
  O  O18  1  0.00000000  0.50000000  0.25281900  1
  O  O19  1  0.00000000  0.50000000  0.74718100  1
  O  O20  1  0.50000000  0.00000000  0.25281900  1
  O  O21  1  0.50000000  0.00000000  0.74718100  1
  O  O22  1  0.50000000  0.50000000  0.25116600  1
  O  O23  1  0.50000000  0.50000000  0.74883400  1
  O  O24  1  0.00000000  0.25457900  0.00000000  1
  O  O25  1  0.00000000  0.24427500  0.50000000  1
  O  O26  1  0.00000000  0.74542100  0.00000000  1
  O  O27  1  0.00000000  0.75572500  0.50000000  1
  O  O28  1  0.50000000  0.25059900  0.00000000  1
  O  O29  1  0.50000000  0.24895500  0.50000000  1
  O  O30  1  0.50000000  0.74940100  0.00000000  1
  O  O31  1  0.50000000  0.75104500  0.50000000  1
loop_
_geom_bond_atom_site_label_1
_geom_bond_atom_site_label_2
_geom_bond_distance
_geom_bond_site_symmetry_2
Li0 O26 2.164956 1_545
Li0 O0 2.164956 1_555
Li0 O24 2.164956 1_555
Li0 O4 2.164956 1_455
Li0 O16 2.262906 1_555
Li0 O17 2.262906 1_554
Mg0 O24 2.087076 1_555
Mg0 O26 2.087076 1_555
Mg0 O2 2.131110 1_555
Mg0 O6 2.131110 1_455
Mg0 O19 2.150789 1_554
Mg0 O18 2.150789 1_555
Mg1 O18 2.102826 1_555
Mg1 O19 2.102826 1_555
Mg1 O3 2.117129 1_555
Mg1 O7 2.117129 1_455
Mg1 O25 2.174702 1_555
Mg1 O27 2.174702 1_555
Mg2 O0 2.087076 1_555
Mg2 O4 2.087076 1_555
Mg2 O28 2.131110 1_555
Mg2 O30 2.131110 1_545
Mg2 O21 2.150789 1_554
Mg2 O20 2.150789 1_555
Mg3 O21 2.102826 1_555
Mg3 O20 2.102826 1_555
Mg3 O29 2.117129 1_555
Mg3 O31 2.117129 1_545
Mg3 O1 2.174702 1_555
Mg3 O5 2.174702 1_555
Mg4 O30 2.120922 1_555
Mg4 O2 2.120922 1_555
Mg4 O28 2.120922 1_555
Mg4 O6 2.120922 1_555
Mg4 O23 2.136727 1_554
Mg4 O22 2.136727 1_555
Mg5 O22 2.116888 1_555
Mg5 O23 2.116888 1_555
Mg5 O31 2.134903 1_555
Mg5 O7 2.134903 1_555
Mg5 O29 2.134903 1_555
Mg5 O3 2.134903 1_555
Mg6 O24 2.085537 1_555
Mg6 O8 2.123297 1_555
Mg6 O12 2.123297 1_455
Mg6 O16 2.125979 1_555
Mg6 O18 2.134522 1_555
Mg6 O25 2.168986 1_555
Mg7 O24 2.085537 1_556
Mg7 O9 2.123297 1_555
Mg7 O13 2.123297 1_455
Mg7 O17 2.125979 1_555
Mg7 O19 2.134522 1_555
Mg7 O25 2.168986 1_555
Mg8 O26 2.085537 1_555
Mg8 O14 2.123297 1_455
Mg8 O10 2.123297 1_555
Mg8 O16 2.125979 1_565
Mg8 O18 2.134522 1_555
Mg8 O27 2.168986 1_555
Mg9 O26 2.085537 1_556
Mg9 O11 2.123297 1_555
Mg9 O15 2.123297 1_455
Mg9 O17 2.125979 1_565
Mg9 O19 2.134522 1_555
Mg9 O27 2.168986 1_555
Mg10 O28 2.116394 1_555
Mg10 O20 2.125682 1_555
Mg10 O22 2.126726 1_555
Mg10 O8 2.129371 1_555
Mg10 O12 2.129371 1_555
Mg10 O29 2.137245 1_555
Mg11 O28 2.116394 1_556
Mg11 O21 2.125682 1_555
Mg11 O23 2.126726 1_555
Mg11 O9 2.129371 1_555
Mg11 O13 2.129371 1_555
Mg11 O29 2.137245 1_555
Mg12 O30 2.116394 1_555
Mg12 O20 2.125682 1_565
Mg12 O22 2.126726 1_555
Mg12 O10 2.129371 1_555
Mg12 O14 2.129371 1_555
Mg12 O31 2.137245 1_555
Mg13 O30 2.116394 1_556
Mg13 O21 2.125682 1_565
Mg13 O23 2.126726 1_555
Mg13 O11 2.129371 1_555
Mg13 O15 2.129371 1_555
Mg13 O31 2.137245 1_555
Mg14 O0 2.085537 1_555
Mg14 O8 2.123297 1_555
Mg14 O10 2.123297 1_545
Mg14 O16 2.125979 1_555
Mg14 O20 2.134522 1_555
Mg14 O1 2.168986 1_555
Mg15 O0 2.085537 1_556
Mg15 O11 2.123297 1_545
Mg15 O9 2.123297 1_555
Mg15 O17 2.125979 1_555
Mg15 O21 2.134522 1_555
Mg15 O1 2.168986 1_555
Mg16 O2 2.116394 1_555
Mg16 O18 2.125682 1_555
Mg16 O22 2.126726 1_555
Mg16 O8 2.129371 1_555
Mg16 O10 2.129371 1_555
Mg16 O3 2.137245 1_555
Mg17 O2 2.116394 1_556
Mg17 O19 2.125682 1_555
Mg17 O23 2.126726 1_555
Mg17 O11 2.129371 1_555
Mg17 O9 2.129371 1_555
Mg17 O3 2.137245 1_555
Mg18 O4 2.085537 1_555
Mg18 O14 2.123297 1_545
Mg18 O12 2.123297 1_555
Mg18 O16 2.125979 1_655
Mg18 O20 2.134522 1_555
Mg18 O5 2.168986 1_555
Mg19 O4 2.085537 1_556
Mg19 O15 2.123297 1_545
Mg19 O13 2.123297 1_555
Mg19 O17 2.125979 1_655
Mg19 O21 2.134522 1_555
Mg19 O5 2.168986 1_555
Mg20 O6 2.116394 1_555
Mg20 O18 2.125682 1_655
Mg20 O22 2.126726 1_555
Mg20 O12 2.129371 1_555
Mg20 O14 2.129371 1_555
Mg20 O7 2.137245 1_555
Mg21 O6 2.116394 1_556
Mg21 O19 2.125682 1_655
Mg21 O23 2.126726 1_555
Mg21 O15 2.129371 1_555
Mg21 O13 2.129371 1_555
Mg21 O7 2.137245 1_555
Mg22 O24 2.103883 1_555
Mg22 O0 2.103883 1_555
Mg22 O8 2.133949 1_555
Mg22 O9 2.133949 1_554
Mg22 O2 2.149246 1_555
Mg22 O28 2.149246 1_555
Mg23 O3 2.117465 1_555
Mg23 O29 2.117465 1_555
Mg23 O8 2.119915 1_555
Mg23 O9 2.119915 1_555
Mg23 O25 2.135408 1_555
Mg23 O1 2.135408 1_555
Mg24 O0 2.103883 1_565
Mg24 O26 2.103883 1_555
Mg24 O11 2.133949 1_554
Mg24 O10 2.133949 1_555
Mg24 O30 2.149246 1_555
Mg24 O2 2.149246 1_555
Mg25 O3 2.117465 1_555
Mg25 O31 2.117465 1_555
Mg25 O10 2.119915 1_555
Mg25 O11 2.119915 1_555
Mg25 O27 2.135408 1_555
Mg25 O1 2.135408 1_565
Mg26 O24 2.103883 1_655
Mg26 O4 2.103883 1_555
Mg26 O12 2.133949 1_555
Mg26 O13 2.133949 1_554
Mg26 O6 2.149246 1_555
Mg26 O28 2.149246 1_555
Mg27 O29 2.117465 1_555
Mg27 O7 2.117465 1_555
Mg27 O13 2.119915 1_555
Mg27 O12 2.119915 1_555
Mg27 O5 2.135408 1_555
Mg27 O25 2.135408 1_655
Mg28 O26 2.103883 1_655
Mg28 O4 2.103883 1_565
Mg28 O14 2.133949 1_555
Mg28 O15 2.133949 1_554
Mg28 O6 2.149246 1_555
Mg28 O30 2.149246 1_555
Mg29 O7 2.117465 1_555
Mg29 O31 2.117465 1_555
Mg29 O15 2.119915 1_555
Mg29 O14 2.119915 1_555
Mg29 O27 2.135408 1_655
Mg29 O5 2.135408 1_565
Ga0 O17 1.990709 1_555
Ga0 O16 1.990709 1_555
Ga0 O25 2.077330 1_555
Ga0 O1 2.077330 1_555
Ga0 O5 2.077330 1_455
Ga0 O27 2.077330 1_545
