# generated using pymatgen
data_SiIr2
_symmetry_space_group_name_H-M   'P 1'
_cell_length_a   4.19440364
_cell_length_b   4.19440364
_cell_length_c   5.50518800
_cell_angle_alpha   90.00000000
_cell_angle_beta   90.00000000
_cell_angle_gamma   119.99999429
_symmetry_Int_Tables_number   1
_chemical_formula_structural   SiIr2
_chemical_formula_sum   'Si2 Ir4'
_cell_volume   83.87707054
_cell_formula_units_Z   2
loop_
 _symmetry_equiv_pos_site_id
 _symmetry_equiv_pos_as_xyz
  1  'x, y, z'
loop_
 _atom_site_type_symbol
 _atom_site_label
 _atom_site_symmetry_multiplicity
 _atom_site_fract_x
 _atom_site_fract_y
 _atom_site_fract_z
 _atom_site_occupancy
  Si  Si0  1  0.33333300  0.66666700  0.25000000  1
  Si  Si1  1  0.66666700  0.33333300  0.75000000  1
  Ir  Ir0  1  0.33333300  0.66666700  0.75000000  1
  Ir  Ir1  1  0.66666700  0.33333300  0.25000000  1
  Ir  Ir2  1  0.00000000  0.00000000  0.00000000  1
  Ir  Ir3  1  0.00000000  0.00000000  0.50000000  1
loop_
_geom_bond_atom_site_label_1
_geom_bond_atom_site_label_2
_geom_bond_distance
_geom_bond_site_symmetry_2
Ir0 Si1 2.421638 1_455
Ir0 Si1 2.421638 1_565
Ir0 Si1 2.421645 1_555
Ir0 Si0 2.752594 1_556
Ir0 Si0 2.752594 1_555
Ir0 Ir3 2.785412 1_565
Ir0 Ir2 2.785412 1_566
Ir0 Ir2 2.785416 1_666
Ir0 Ir2 2.785416 1_556
Ir0 Ir3 2.785416 1_665
Ir0 Ir3 2.785416 1_555
Ir1 Si0 2.421638 1_545
Ir1 Si0 2.421638 1_655
Ir1 Si0 2.421645 1_555
Ir1 Si1 2.752594 1_555
Ir1 Si1 2.752594 1_554
Ir1 Ir2 2.785412 1_655
Ir1 Ir3 2.785412 1_655
Ir1 Ir2 2.785416 1_555
Ir1 Ir2 2.785416 1_665
Ir1 Ir3 2.785416 1_665
Ir1 Ir3 2.785416 1_555
Ir2 Ir3 2.752594 1_555
Ir2 Ir3 2.752594 1_554
Ir2 Si0 2.785412 1_545
Ir2 Si1 2.785412 1_454
Ir2 Si0 2.785416 1_555
Ir2 Si0 2.785416 1_445
Ir2 Si1 2.785416 1_444
Ir2 Si1 2.785416 1_554
Ir3 Si0 2.785412 1_545
Ir3 Si1 2.785412 1_455
Ir3 Si0 2.785416 1_555
Ir3 Si0 2.785416 1_445
Ir3 Si1 2.785416 1_555
Ir3 Si1 2.785416 1_445
