# generated using pymatgen
data_BePd2
_symmetry_space_group_name_H-M   'P 1'
_cell_length_a   5.50765037
_cell_length_b   5.50764955
_cell_length_c   10.57130018
_cell_angle_alpha   105.09970884
_cell_angle_beta   105.09973053
_cell_angle_gamma   90.00000779
_symmetry_Int_Tables_number   1
_chemical_formula_structural   BePd2
_chemical_formula_sum   'Be8 Pd16'
_cell_volume   298.11801742
_cell_formula_units_Z   8
loop_
 _symmetry_equiv_pos_site_id
 _symmetry_equiv_pos_as_xyz
  1  'x, y, z'
loop_
 _atom_site_type_symbol
 _atom_site_label
 _atom_site_symmetry_multiplicity
 _atom_site_fract_x
 _atom_site_fract_y
 _atom_site_fract_z
 _atom_site_occupancy
  Be  Be0_0  1  0.00000000  0.00000000  0.00000000  1
  Be  Be0_1  1  0.00000000  0.00000000  0.50000000  1
  Be  Be0_2  1  0.00000000  0.50000000  0.00000000  1
  Be  Be0_3  1  0.00000000  0.50000000  0.50000000  1
  Be  Be0_4  1  0.50000000  0.00000000  0.00000000  1
  Be  Be0_5  1  0.50000000  0.00000000  0.50000000  1
  Be  Be0_6  1  0.50000000  0.50000000  0.00000000  1
  Be  Be0_7  1  0.50000000  0.50000000  0.50000000  1
  Pd  Pd0_0  1  0.17804540  0.17804540  0.35609080  1
  Pd  Pd0_1  1  0.17804540  0.17804540  0.85609080  1
  Pd  Pd0_2  1  0.17804540  0.67804540  0.35609080  1
  Pd  Pd0_3  1  0.17804540  0.67804540  0.85609080  1
  Pd  Pd0_4  1  0.67804540  0.17804540  0.35609080  1
  Pd  Pd0_5  1  0.67804540  0.17804540  0.85609080  1
  Pd  Pd0_6  1  0.67804540  0.67804540  0.35609080  1
  Pd  Pd0_7  1  0.67804540  0.67804540  0.85609080  1
  Pd  Pd1_0  1  0.32195460  0.32195460  0.14390920  1
  Pd  Pd1_1  1  0.32195460  0.32195460  0.64390920  1
  Pd  Pd1_2  1  0.32195460  0.82195460  0.14390920  1
  Pd  Pd1_3  1  0.32195460  0.82195460  0.64390920  1
  Pd  Pd1_4  1  0.82195460  0.32195460  0.14390920  1
  Pd  Pd1_5  1  0.82195460  0.32195460  0.64390920  1
  Pd  Pd1_6  1  0.82195460  0.82195460  0.14390920  1
  Pd  Pd1_7  1  0.82195460  0.82195460  0.64390920  1
loop_
_geom_bond_atom_site_label_1
_geom_bond_atom_site_label_2
_geom_bond_distance
_geom_bond_site_symmetry_2
Be0_0 Pd1_6 2.406666 1_445
Be0_0 Pd0_1 2.406666 1_554
Be0_0 Pd0_5 2.406666 1_454
Be0_0 Pd1_2 2.406666 1_545
Be0_0 Pd1_4 2.406667 1_455
Be0_0 Pd0_3 2.406667 1_544
Be0_0 Pd1_0 2.406667 1_555
Be0_0 Pd0_7 2.406667 1_444
Be0_1 Pd0_0 2.406666 1_555
Be0_1 Pd1_7 2.406666 1_445
Be0_1 Pd0_4 2.406666 1_455
Be0_1 Pd1_3 2.406666 1_545
Be0_1 Pd1_5 2.406667 1_455
Be0_1 Pd0_2 2.406667 1_545
Be0_1 Pd0_6 2.406667 1_445
Be0_1 Pd1_1 2.406667 1_555
Be0_2 Pd1_4 2.406666 1_455
Be0_2 Pd0_3 2.406666 1_554
Be0_2 Pd0_7 2.406666 1_454
Be0_2 Pd1_0 2.406666 1_555
Be0_2 Pd1_6 2.406667 1_455
Be0_2 Pd0_1 2.406667 1_554
Be0_2 Pd1_2 2.406667 1_555
Be0_2 Pd0_5 2.406667 1_454
Be0_3 Pd1_5 2.406666 1_455
Be0_3 Pd0_2 2.406666 1_555
Be0_3 Pd0_6 2.406666 1_455
Be0_3 Pd1_1 2.406666 1_555
Be0_3 Pd0_0 2.406667 1_555
Be0_3 Pd1_7 2.406667 1_455
Be0_3 Pd0_4 2.406667 1_455
Be0_3 Pd1_3 2.406667 1_555
Be0_4 Pd1_2 2.406666 1_545
Be0_4 Pd0_5 2.406666 1_554
Be0_4 Pd0_1 2.406666 1_554
Be0_4 Pd1_6 2.406666 1_545
Be0_4 Pd1_0 2.406667 1_555
Be0_4 Pd0_7 2.406667 1_544
Be0_4 Pd1_4 2.406667 1_555
Be0_4 Pd0_3 2.406667 1_544
Be0_5 Pd0_4 2.406666 1_555
Be0_5 Pd1_3 2.406666 1_545
Be0_5 Pd0_0 2.406666 1_555
Be0_5 Pd1_7 2.406666 1_545
Be0_5 Pd0_6 2.406667 1_545
Be0_5 Pd1_1 2.406667 1_555
Be0_5 Pd1_5 2.406667 1_555
Be0_5 Pd0_2 2.406667 1_545
Be0_6 Pd1_0 2.406666 1_555
Be0_6 Pd0_7 2.406666 1_554
Be0_6 Pd1_4 2.406666 1_555
Be0_6 Pd0_3 2.406666 1_554
Be0_6 Pd1_2 2.406667 1_555
Be0_6 Pd0_5 2.406667 1_554
Be0_6 Pd0_1 2.406667 1_554
Be0_6 Pd1_6 2.406667 1_555
Be0_7 Pd1_1 2.406666 1_555
Be0_7 Pd0_6 2.406666 1_555
Be0_7 Pd1_5 2.406666 1_555
Be0_7 Pd0_2 2.406666 1_555
Be0_7 Pd0_4 2.406667 1_555
Be0_7 Pd1_3 2.406667 1_555
Be0_7 Pd1_7 2.406667 1_555
Be0_7 Pd0_0 2.406667 1_555
Pd0_0 Pd0_2 2.753825 1_555
Pd0_0 Pd0_2 2.753825 1_545
Pd0_0 Pd0_4 2.753825 1_455
Pd0_0 Pd0_4 2.753825 1_555
Pd0_0 Pd1_1 2.828617 1_555
Pd0_0 Pd1_0 2.853094 1_555
Pd0_0 Pd1_4 2.853094 1_455
Pd0_0 Pd1_2 2.853095 1_545
Pd0_0 Pd1_6 2.853095 1_445
Pd0_1 Pd0_3 2.753825 1_555
Pd0_1 Pd0_3 2.753825 1_545
Pd0_1 Pd0_5 2.753825 1_555
Pd0_1 Pd0_5 2.753825 1_455
Pd0_1 Pd1_0 2.828617 1_556
Pd0_1 Pd1_1 2.853094 1_555
Pd0_1 Pd1_5 2.853094 1_455
Pd0_1 Pd1_3 2.853095 1_545
Pd0_1 Pd1_7 2.853095 1_445
Pd0_2 Pd0_6 2.753825 1_455
Pd0_2 Pd0_6 2.753825 1_555
Pd0_2 Pd1_3 2.828617 1_555
Pd0_2 Pd1_2 2.853094 1_555
Pd0_2 Pd1_6 2.853094 1_455
Pd0_2 Pd1_0 2.853095 1_555
Pd0_2 Pd1_4 2.853095 1_455
Pd0_3 Pd0_7 2.753825 1_555
Pd0_3 Pd0_7 2.753825 1_455
Pd0_3 Pd1_2 2.828617 1_556
Pd0_3 Pd1_3 2.853094 1_555
Pd0_3 Pd1_7 2.853094 1_455
Pd0_3 Pd1_1 2.853095 1_555
Pd0_3 Pd1_5 2.853095 1_455
Pd0_4 Pd0_6 2.753825 1_545
Pd0_4 Pd0_6 2.753825 1_555
Pd0_4 Pd1_5 2.828617 1_555
Pd0_4 Pd1_4 2.853094 1_555
Pd0_4 Pd1_0 2.853094 1_555
Pd0_4 Pd1_6 2.853095 1_545
Pd0_4 Pd1_2 2.853095 1_545
Pd0_5 Pd0_7 2.753825 1_555
Pd0_5 Pd0_7 2.753825 1_545
Pd0_5 Pd1_4 2.828617 1_556
Pd0_5 Pd1_5 2.853094 1_555
Pd0_5 Pd1_1 2.853094 1_555
Pd0_5 Pd1_7 2.853095 1_545
Pd0_5 Pd1_3 2.853095 1_545
Pd0_6 Pd1_7 2.828617 1_555
Pd0_6 Pd1_6 2.853094 1_555
Pd0_6 Pd1_2 2.853094 1_555
Pd0_6 Pd1_4 2.853095 1_555
Pd0_6 Pd1_0 2.853095 1_555
Pd0_7 Pd1_6 2.828617 1_556
Pd0_7 Pd1_7 2.853094 1_555
Pd0_7 Pd1_3 2.853094 1_555
Pd0_7 Pd1_5 2.853095 1_555
Pd0_7 Pd1_1 2.853095 1_555
Pd1_0 Pd1_2 2.753825 1_545
Pd1_0 Pd1_2 2.753825 1_555
Pd1_0 Pd1_4 2.753825 1_555
Pd1_0 Pd1_4 2.753825 1_455
Pd1_1 Pd1_3 2.753825 1_555
Pd1_1 Pd1_3 2.753825 1_545
Pd1_1 Pd1_5 2.753825 1_455
Pd1_1 Pd1_5 2.753825 1_555
Pd1_2 Pd1_6 2.753825 1_455
Pd1_2 Pd1_6 2.753825 1_555
Pd1_3 Pd1_7 2.753825 1_555
Pd1_3 Pd1_7 2.753825 1_455
Pd1_4 Pd1_6 2.753825 1_555
Pd1_4 Pd1_6 2.753825 1_545
Pd1_5 Pd1_7 2.753825 1_555
Pd1_5 Pd1_7 2.753825 1_545
