# generated using pymatgen
data_MnAsRu
_symmetry_space_group_name_H-M   'P 1'
_cell_length_a   6.14458327
_cell_length_b   6.14458327
_cell_length_c   3.83394300
_cell_angle_alpha   90.00000000
_cell_angle_beta   90.00000000
_cell_angle_gamma   119.99999217
_symmetry_Int_Tables_number   1
_chemical_formula_structural   MnAsRu
_chemical_formula_sum   'Mn3 As3 Ru3'
_cell_volume   125.36063586
_cell_formula_units_Z   3
loop_
 _symmetry_equiv_pos_site_id
 _symmetry_equiv_pos_as_xyz
  1  'x, y, z'
loop_
 _atom_site_type_symbol
 _atom_site_label
 _atom_site_symmetry_multiplicity
 _atom_site_fract_x
 _atom_site_fract_y
 _atom_site_fract_z
 _atom_site_occupancy
  Mn  Mn0  1  0.00000000  0.75018100  0.00000000  1
  Mn  Mn1  1  0.24981900  0.24981900  0.00000000  1
  Mn  Mn2  1  0.75018100  0.00000000  0.00000000  1
  As  As0  1  0.33333300  0.66666700  0.00000000  1
  As  As1  1  0.66666700  0.33333300  0.00000000  1
  As  As2  1  0.00000000  0.00000000  0.50000000  1
  Ru  Ru0  1  0.00000000  0.40014700  0.50000000  1
  Ru  Ru1  1  0.59985300  0.59985300  0.50000000  1
  Ru  Ru2  1  0.40014700  0.00000000  0.50000000  1
loop_
_geom_bond_atom_site_label_1
_geom_bond_atom_site_label_2
_geom_bond_distance
_geom_bond_site_symmetry_2
Mn0 Ru0 2.881107 1_555
Mn0 Ru0 2.881107 1_554
Mn0 Ru1 2.881363 1_454
Mn0 Ru1 2.881363 1_455
Mn0 Ru2 2.881363 1_564
Mn0 Ru2 2.881363 1_565
Mn1 Ru1 2.881107 1_555
Mn1 Ru1 2.881107 1_554
Mn1 Ru0 2.881362 1_555
Mn1 Ru2 2.881362 1_554
Mn1 Ru0 2.881362 1_554
Mn1 Ru2 2.881362 1_555
Mn2 Ru2 2.881107 1_554
Mn2 Ru2 2.881107 1_555
Mn2 Ru1 2.881363 1_545
Mn2 Ru1 2.881363 1_544
Mn2 Ru0 2.881363 1_654
Mn2 Ru0 2.881363 1_655
As0 Mn0 2.347226 1_555
As0 Mn2 2.347231 1_565
As0 Mn1 2.347232 1_555
As0 Ru2 2.682824 1_565
As0 Ru2 2.682824 1_564
As0 Ru0 2.682826 1_554
As0 Ru0 2.682826 1_555
As0 Ru1 2.682828 1_555
As0 Ru1 2.682828 1_554
As1 Mn2 2.347226 1_555
As1 Mn0 2.347231 1_655
As1 Mn1 2.347232 1_555
As1 Ru0 2.682824 1_654
As1 Ru0 2.682824 1_655
As1 Ru2 2.682826 1_554
As1 Ru2 2.682826 1_555
As1 Ru1 2.682828 1_555
As1 Ru1 2.682828 1_554
As2 Mn2 2.455831 1_456
As2 Mn0 2.455831 1_546
As2 Mn0 2.455831 1_545
As2 Mn2 2.455831 1_455
As2 Mn1 2.455832 1_556
As2 Mn1 2.455832 1_555
As2 Ru2 2.458737 1_555
As2 Ru0 2.458737 1_555
As2 Ru1 2.458737 1_445
