# generated using pymatgen
data_Tm5Ga3
_symmetry_space_group_name_H-M   'P 1'
_cell_length_a   8.40647892
_cell_length_b   8.40647892
_cell_length_c   6.38341948
_cell_angle_alpha   89.10295420
_cell_angle_beta   89.10295420
_cell_angle_gamma   119.78961017
_symmetry_Int_Tables_number   1
_chemical_formula_structural   Tm5Ga3
_chemical_formula_sum   'Tm10 Ga6'
_cell_volume   391.30684172
_cell_formula_units_Z   2
loop_
 _symmetry_equiv_pos_site_id
 _symmetry_equiv_pos_as_xyz
  1  'x, y, z'
loop_
 _atom_site_type_symbol
 _atom_site_label
 _atom_site_symmetry_multiplicity
 _atom_site_fract_x
 _atom_site_fract_y
 _atom_site_fract_z
 _atom_site_occupancy
  Tm  Tm0  1  0.85339360  0.14660640  0.50000000  1
  Tm  Tm1  1  0.14660640  0.85339360  0.50000000  1
  Tm  Tm2  1  0.81452221  0.18547779  -0.00000000  1
  Tm  Tm3  1  0.18547779  0.81452221  -0.00000000  1
  Tm  Tm4  1  0.50526029  0.74601502  0.26495267  1
  Tm  Tm5  1  0.49473971  0.25398498  0.73504733  1
  Tm  Tm6  1  0.25398498  0.49473971  0.73504733  1
  Tm  Tm7  1  0.74601502  0.50526029  0.26495267  1
  Tm  Tm8  1  0.26863399  0.26863399  0.22535159  1
  Tm  Tm9  1  0.73136601  0.73136601  0.77464841  1
  Ga  Ga0  1  0.90964977  0.90964977  0.18702846  1
  Ga  Ga1  1  0.09035023  0.09035023  0.81297154  1
  Ga  Ga2  1  0.50194198  0.09743366  0.28946763  1
  Ga  Ga3  1  0.49805802  0.90256634  0.71053237  1
  Ga  Ga4  1  0.90256634  0.49805802  0.71053237  1
  Ga  Ga5  1  0.09743366  0.50194198  0.28946763  1
loop_
_geom_bond_atom_site_label_1
_geom_bond_atom_site_label_2
_geom_bond_distance
_geom_bond_site_symmetry_2
Tm0 Tm2 3.241399 1_555
Tm0 Tm2 3.241399 1_556
Tm1 Tm3 3.241399 1_556
Tm1 Tm3 3.241399 1_555
Tm2 Tm5 3.474049 1_554
Tm2 Tm7 3.474049 1_555
Tm2 Tm4 3.659355 1_545
Tm2 Tm6 3.659355 1_654
Tm2 Tm9 3.831836 1_544
Tm2 Tm8 3.831836 1_655
Tm3 Tm6 3.474049 1_554
Tm3 Tm4 3.474049 1_555
Tm3 Tm5 3.659355 1_564
Tm3 Tm7 3.659355 1_455
Tm3 Tm9 3.831836 1_454
Tm3 Tm8 3.831836 1_565
Ga0 Ga1 2.792219 1_664
Ga0 Tm7 2.995883 1_555
Ga0 Tm4 2.995883 1_555
Ga0 Tm1 3.035454 1_655
Ga0 Tm0 3.035454 1_565
Ga0 Tm2 3.037614 1_565
Ga0 Tm3 3.037614 1_655
Ga0 Tm8 3.044854 1_665
Ga0 Tm9 3.071984 1_554
Ga1 Tm5 2.995883 1_555
Ga1 Tm6 2.995883 1_555
Ga1 Tm1 3.035454 1_545
Ga1 Tm0 3.035454 1_455
Ga1 Tm3 3.037614 1_546
Ga1 Tm2 3.037614 1_456
Ga1 Tm9 3.044854 1_445
Ga1 Tm8 3.071984 1_556
Ga2 Tm1 2.938807 1_545
Ga2 Tm2 2.956284 1_555
Ga2 Tm4 2.974684 1_545
Ga2 Tm8 2.982764 1_555
Ga2 Tm7 2.995291 1_555
Ga2 Tm0 3.103883 1_555
Ga2 Ga3 3.116934 1_545
Ga2 Tm5 3.164933 1_555
Ga2 Tm3 3.186343 1_545
Ga2 Tm5 3.768408 1_554
Ga3 Tm0 2.938807 1_565
Ga3 Tm3 2.956284 1_556
Ga3 Tm5 2.974684 1_565
Ga3 Tm9 2.982764 1_555
Ga3 Tm6 2.995291 1_555
Ga3 Tm1 3.103883 1_555
Ga3 Tm4 3.164933 1_555
Ga3 Tm2 3.186343 1_566
Ga3 Tm4 3.768408 1_556
Ga4 Tm1 2.938807 1_655
Ga4 Tm2 2.956284 1_556
Ga4 Tm6 2.974684 1_655
Ga4 Tm9 2.982764 1_555
Ga4 Tm5 2.995291 1_555
Ga4 Tm0 3.103883 1_555
Ga4 Ga5 3.116934 1_655
Ga4 Tm7 3.164933 1_555
Ga4 Tm3 3.186343 1_656
Ga4 Tm7 3.768408 1_556
Ga5 Tm0 2.938807 1_455
Ga5 Tm3 2.956284 1_555
Ga5 Tm7 2.974684 1_455
Ga5 Tm8 2.982764 1_555
Ga5 Tm4 2.995291 1_555
Ga5 Tm1 3.103883 1_555
Ga5 Tm6 3.164933 1_555
Ga5 Tm2 3.186343 1_455
Ga5 Tm6 3.768408 1_554
