# generated using pymatgen
data_Li9Mn2Co5O16
_symmetry_space_group_name_H-M   'P 1'
_cell_length_a   9.85291249
_cell_length_b   9.85291249
_cell_length_c   10.28304300
_cell_angle_alpha   84.12707498
_cell_angle_beta   84.12707498
_cell_angle_gamma   16.89865025
_symmetry_Int_Tables_number   1
_chemical_formula_structural   Li9Mn2Co5O16
_chemical_formula_sum   'Li9 Mn2 Co5 O16'
_cell_volume   288.62193797
_cell_formula_units_Z   1
loop_
 _symmetry_equiv_pos_site_id
 _symmetry_equiv_pos_as_xyz
  1  'x, y, z'
loop_
 _atom_site_type_symbol
 _atom_site_label
 _atom_site_symmetry_multiplicity
 _atom_site_fract_x
 _atom_site_fract_y
 _atom_site_fract_z
 _atom_site_occupancy
  Li  Li0  1  0.37970600  0.37970600  0.92890200  1
  Li  Li1  1  0.11844500  0.11844500  0.80482200  1
  Li  Li2  1  0.88272000  0.88272000  0.69720700  1
  Li  Li3  1  0.62027900  0.62027900  0.56506200  1
  Li  Li4  1  0.38286800  0.38286800  0.43807300  1
  Li  Li5  1  0.11888500  0.11888500  0.31593700  1
  Li  Li6  1  0.87788800  0.87788800  0.18598400  1
  Li  Li7  1  0.62191800  0.62191800  0.05563500  1
  Li  Li8  1  0.49817200  0.49817200  0.75166600  1
  Mn  Mn0  1  0.99798800  0.99798800  0.99324400  1
  Mn  Mn1  1  0.75059700  0.75059700  0.37491300  1
  Co  Co0  1  0.74958100  0.74958100  0.87406800  1
  Co  Co1  1  0.25034700  0.25034700  0.62756600  1
  Co  Co2  1  0.00412000  0.00412000  0.51981900  1
  Co  Co3  1  0.49986600  0.49986600  0.25524200  1
  Co  Co4  1  0.24921200  0.24921200  0.12275600  1
  O  O0  1  0.44395800  0.44395800  0.08725000  1
  O  O1  1  0.19108500  0.19108500  0.96282500  1
  O  O2  1  0.94203500  0.94203500  0.86040000  1
  O  O3  1  0.69486400  0.69486400  0.71281700  1
  O  O4  1  0.44056200  0.44056200  0.58692900  1
  O  O5  1  0.19380400  0.19380400  0.45153000  1
  O  O6  1  0.94163600  0.94163600  0.33506800  1
  O  O7  1  0.69862700  0.69862700  0.21941900  1
  O  O8  1  0.30865400  0.30865400  0.78813000  1
  O  O9  1  0.06222400  0.06222400  0.64584900  1
  O  O10  1  0.80102800  0.80102800  0.52785200  1
  O  O11  1  0.55763400  0.55763400  0.40478100  1
  O  O12  1  0.30721900  0.30721900  0.29540000  1
  O  O13  1  0.05536500  0.05536500  0.15302600  1
  O  O14  1  0.80363700  0.80363700  0.04051000  1
  O  O15  1  0.55507400  0.55507400  0.91731900  1
loop_
_geom_bond_atom_site_label_1
_geom_bond_atom_site_label_2
_geom_bond_distance
_geom_bond_site_symmetry_2
Li0 O2 1.972583 1_455
Li0 O2 1.972583 1_545
Li0 O8 2.104347 1_555
Li0 O0 2.154475 1_556
Li0 O14 2.293363 1_456
Li0 O14 2.293363 1_546
Li1 O9 2.060063 1_555
Li1 O15 2.159698 1_455
Li1 O15 2.159698 1_545
Li1 O3 2.217709 1_545
Li1 O3 2.217709 1_455
Li1 O1 2.262857 1_555
Li2 O4 2.094877 1_565
Li2 O4 2.094877 1_655
Li2 O2 2.134060 1_555
Li2 O8 2.185194 1_655
Li2 O8 2.185194 1_565
Li2 O10 2.478309 1_555
Li3 O9 1.967764 1_655
Li3 O9 1.967764 1_565
Li3 O11 2.150321 1_555
Li3 O3 2.208854 1_555
Li3 O5 2.273023 1_655
Li3 O5 2.273023 1_565
Li4 O4 1.990931 1_555
Li4 O6 2.068574 1_545
Li4 O6 2.068574 1_455
Li4 O12 2.185012 1_555
Li4 O10 2.277778 1_545
Li4 O10 2.277778 1_455
Li5 O11 2.032317 1_545
Li5 O11 2.032317 1_455
Li5 O5 2.120820 1_555
Li5 O13 2.183677 1_555
Li5 O7 2.275468 1_545
Li5 O7 2.275468 1_455
Li6 O6 2.070820 1_555
Li6 O0 2.124792 1_565
Li6 O0 2.124792 1_655
Li6 O14 2.186402 1_555
Li6 O12 2.222306 1_655
Li6 O12 2.222306 1_565
Li7 O15 2.025824 1_554
Li7 O13 2.124371 1_565
Li7 O13 2.124371 1_655
Li7 O1 2.134993 1_654
Li7 O1 2.134993 1_564
Li7 O7 2.364987 1_555
Li8 O2 2.071306 1_545
Li8 O2 2.071306 1_455
Li8 O15 2.126659 1_555
Li8 O4 2.127007 1_555
Li8 O9 2.134859 1_565
Li8 O9 2.134859 1_655
Mn0 O2 1.834062 1_555
Mn0 O15 1.940076 1_655
Mn0 O15 1.940076 1_565
Mn0 O0 1.982140 1_566
Mn0 O0 1.982140 1_656
Mn0 O13 2.081001 1_666
Mn1 O10 1.938928 1_555
Mn1 O5 1.939503 1_565
Mn1 O5 1.939503 1_655
Mn1 O12 1.948296 1_565
Mn1 O12 1.948296 1_655
Mn1 O7 1.979372 1_555
Co0 O8 1.998044 1_565
Co0 O8 1.998044 1_655
Co0 O1 2.003421 1_565
Co0 O1 2.003421 1_655
Co0 O3 2.062245 1_555
Co0 O14 2.100625 1_556
Co1 O3 1.959047 1_545
Co1 O3 1.959047 1_455
Co1 O10 1.978289 1_545
Co1 O10 1.978289 1_455
Co1 O8 2.099044 1_555
Co1 O5 2.214549 1_555
Co2 O9 1.807181 1_555
Co2 O4 1.982444 1_455
Co2 O4 1.982444 1_545
Co2 O11 2.080394 1_455
Co2 O11 2.080394 1_545
Co2 O6 2.360365 1_445
Co3 O6 1.966021 1_545
Co3 O6 1.966021 1_455
Co3 O11 1.997673 1_555
Co3 O13 2.033651 1_565
Co3 O13 2.033651 1_655
Co3 O0 2.135695 1_555
Co4 O14 1.936746 1_545
Co4 O14 1.936746 1_455
Co4 O7 1.963002 1_545
Co4 O7 1.963002 1_455
Co4 O1 2.091374 1_554
Co4 O12 2.201229 1_555
