# generated using pymatgen
data_Li22(Cu3Si2)7
_symmetry_space_group_name_H-M   'P 1'
_cell_length_a   13.57267111
_cell_length_b   14.02824138
_cell_length_c   14.02824138
_cell_angle_alpha   119.99999865
_cell_angle_beta   90.00000000
_cell_angle_gamma   90.00000000
_symmetry_Int_Tables_number   1
_chemical_formula_structural   Li22(Cu3Si2)7
_chemical_formula_sum   'Li66 Cu63 Si42'
_cell_volume   2313.14268806
_cell_formula_units_Z   3
loop_
 _symmetry_equiv_pos_site_id
 _symmetry_equiv_pos_as_xyz
  1  'x, y, z'
loop_
 _atom_site_type_symbol
 _atom_site_label
 _atom_site_symmetry_multiplicity
 _atom_site_fract_x
 _atom_site_fract_y
 _atom_site_fract_z
 _atom_site_occupancy
  Li  Li0  1  0.18710481  0.85076365  0.96028733  1
  Li  Li1  1  0.85377181  0.10952368  0.14923635  1
  Li  Li2  1  0.52043781  0.03971267  0.89047632  1
  Li  Li3  1  0.25662767  0.51632403  0.62643766  1
  Li  Li4  1  0.92329467  0.11011363  0.48367597  1
  Li  Li5  1  0.58996067  0.37356234  0.88988637  1
  Li  Li6  1  0.10805732  0.70259071  0.73833530  1
  Li  Li7  1  0.77472432  0.03574459  0.29740929  1
  Li  Li8  1  0.44139032  0.26166470  0.96425541  1
  Li  Li9  1  0.37430551  0.91513144  0.96170396  1
  Li  Li10  1  0.04097251  0.04657252  0.08486856  1
  Li  Li11  1  0.70763851  0.03829604  0.95342748  1
  Li  Li12  1  0.82474830  0.59598948  0.07512354  1
  Li  Li13  1  0.49141530  0.47913406  0.40401052  1
  Li  Li14  1  0.15808130  0.92487646  0.52086594  1
  Li  Li15  1  0.83002379  0.25247975  0.40265830  1
  Li  Li16  1  0.49669079  0.15017855  0.74752025  1
  Li  Li17  1  0.16335679  0.59734170  0.84982145  1
  Li  Li18  1  0.10450899  0.92458181  0.18732765  1
  Li  Li19  1  0.77117599  0.26274583  0.07541819  1
  Li  Li20  1  0.43784199  0.81267235  0.73725417  1
  Li  Li21  1  0.50404272  0.84202096  0.07759498  1
  Li  Li22  1  0.17070972  0.23557402  0.15797904  1
  Li  Li23  1  0.83737572  0.92240502  0.76442598  1
  Li  Li24  1  0.89174309  0.38294413  0.62917317  1
  Li  Li25  1  0.55841009  0.24622905  0.61705587  1
  Li  Li26  1  0.22507609  0.37082683  0.75377095  1
  Li  Li27  1  0.76273831  0.56745248  0.73916402  1
  Li  Li28  1  0.42940531  0.17171154  0.43254752  1
  Li  Li29  1  0.09607131  0.26083598  0.82828846  1
  Li  Li30  1  0.49155769  0.91955452  0.62997810  1
  Li  Li31  1  0.15822469  0.71042358  0.08044548  1
  Li  Li32  1  0.82489069  0.37002190  0.28957642  1
  Li  Li33  1  0.44061980  0.91991844  0.30073162  1
  Li  Li34  1  0.10728680  0.38081318  0.08008156  1
  Li  Li35  1  0.77395280  0.69926838  0.61918682  1
  Li  Li36  1  0.76182262  0.90283688  0.41518451  1
  Li  Li37  1  0.42848962  0.51234763  0.09716312  1
  Li  Li38  1  0.09515562  0.58481549  0.48765237  1
  Li  Li39  1  0.43711981  0.57094072  0.62375538  1
  Li  Li40  1  0.10378681  0.05281466  0.42905928  1
  Li  Li41  1  0.77045281  0.37624462  0.94718534  1
  Li  Li42  1  0.82601845  0.71812254  0.96052009  1
  Li  Li43  1  0.49268545  0.24239754  0.28187746  1
  Li  Li44  1  0.15935145  0.03947991  0.75760246  1
  Li  Li45  1  0.70354495  0.90633869  0.07249337  1
  Li  Li46  1  0.37021195  0.16615468  0.09366131  1
  Li  Li47  1  0.03687795  0.92750663  0.83384532  1
  Li  Li48  1  0.56241404  0.83621772  0.40845663  1
  Li  Li49  1  0.22908104  0.57223891  0.16378228  1
  Li  Li50  1  0.89574704  0.59154337  0.42776109  1
  Li  Li51  1  0.49012428  0.60506285  0.96910442  1
  Li  Li52  1  0.15679128  0.36404157  0.39493715  1
  Li  Li53  1  0.82345728  0.03089558  0.63595843  1
  Li  Li54  1  0.56178116  0.49989056  0.73699383  1
  Li  Li55  1  0.22844816  0.23710327  0.50010944  1
  Li  Li56  1  0.89511416  0.26300617  0.76289673  1
  Li  Li57  1  0.74285748  0.18195959  0.56032719  1
  Li  Li58  1  0.40952448  0.37836759  0.81804041  1
  Li  Li59  1  0.07619048  0.43967281  0.62163241  1
  Li  Li60  1  0.89178944  0.72162867  0.30343612  1
  Li  Li61  1  0.55845644  0.58180746  0.27837133  1
  Li  Li62  1  0.22512244  0.69656388  0.41819254  1
  Li  Li63  1  0.74589955  0.51806545  0.22053543  1
  Li  Li64  1  0.41256655  0.70246999  0.48193455  1
  Li  Li65  1  0.07923255  0.77946457  0.29753001  1
  Cu  Cu0  1  0.94672774  0.92516745  0.30686967  1
  Cu  Cu1  1  0.61339474  0.38170222  0.07483255  1
  Cu  Cu2  1  0.28006074  0.69313033  0.61829778  1
  Cu  Cu3  1  0.74537517  0.81453627  0.85504492  1
  Cu  Cu4  1  0.41204217  0.04050864  0.18546373  1
  Cu  Cu5  1  0.07870817  0.14495508  0.95949136  1
  Cu  Cu6  1  0.85612503  0.47719844  0.84645401  1
  Cu  Cu7  1  0.52279203  0.36925557  0.52280156  1
  Cu  Cu8  1  0.18945803  0.15354599  0.63074443  1
  Cu  Cu9  1  0.80452743  0.47153263  0.51100632  1
  Cu  Cu10  1  0.47119443  0.03947369  0.52846737  1
  Cu  Cu11  1  0.13786043  0.48899368  0.96052631  1
  Cu  Cu12  1  0.65522038  0.71614958  0.07184580  1
  Cu  Cu13  1  0.32188738  0.35569622  0.28385042  1
  Cu  Cu14  1  0.98855338  0.92815420  0.64430378  1
  Cu  Cu15  1  0.69931095  0.36367929  0.57536790  1
  Cu  Cu16  1  0.36597795  0.21168861  0.63632071  1
  Cu  Cu17  1  0.03264395  0.42463210  0.78831139  1
  Cu  Cu18  1  0.57327975  0.87428675  0.91168220  1
  Cu  Cu19  1  0.23994675  0.03739545  0.12571325  1
  Cu  Cu20  1  0.90661275  0.08831780  0.96260455  1
  Cu  Cu21  1  0.99258824  0.60884550  0.96423673  1
  Cu  Cu22  1  0.65925524  0.35539123  0.39115450  1
  Cu  Cu23  1  0.32592124  0.03576327  0.64460877  1
  Cu  Cu24  1  0.95022552  0.58386950  0.62310764  1
  Cu  Cu25  1  0.61689252  0.03923814  0.41613050  1
  Cu  Cu26  1  0.28355852  0.37689236  0.96076186  1
  Cu  Cu27  1  0.35004386  0.86924917  0.45842009  1
  Cu  Cu28  1  0.01671086  0.58917092  0.13075083  1
  Cu  Cu29  1  0.68337686  0.54157991  0.41082908  1
  Cu  Cu30  1  0.69189858  0.70655449  0.24737502  1
  Cu  Cu31  1  0.35856558  0.54082054  0.29344551  1
  Cu  Cu32  1  0.02523158  0.75262498  0.45917946  1
  Cu  Cu33  1  0.92251366  0.75762265  0.79923221  1
  Cu  Cu34  1  0.58918066  0.04160955  0.24237735  1
  Cu  Cu35  1  0.25584666  0.20076779  0.95839045  1
  Cu  Cu36  1  0.46619590  0.70653687  0.84805517  1
  Cu  Cu37  1  0.13286290  0.14151831  0.29346313  1
  Cu  Cu38  1  0.79952890  0.15194483  0.85848169  1
  Cu  Cu39  1  0.98631021  0.24812426  0.28197575  1
  Cu  Cu40  1  0.65297721  0.03385149  0.75187574  1
  Cu  Cu41  1  0.31964321  0.71802425  0.96614851  1
  Cu  Cu42  1  0.52098601  0.71352079  0.19434881  1
  Cu  Cu43  1  0.18765301  0.48082802  0.28647921  1
  Cu  Cu44  1  0.85431901  0.80565119  0.51917198  1
  Cu  Cu45  1  0.67980718  0.53873516  0.90568812  1
  Cu  Cu46  1  0.34647418  0.36695296  0.46126484  1
  Cu  Cu47  1  0.01314018  0.09431188  0.63304704  1
  Cu  Cu48  1  0.79812635  0.81893787  0.19120958  1
  Cu  Cu49  1  0.46479335  0.37227171  0.18106213  1
  Cu  Cu50  1  0.13145935  0.80879042  0.62772829  1
  Cu  Cu51  1  0.35210307  0.53831935  0.79423782  1
  Cu  Cu52  1  0.01877007  0.25591847  0.46168065  1
  Cu  Cu53  1  0.68543607  0.20576218  0.74408153  1
  Cu  Cu54  1  0.67820986  0.86533287  0.57545451  1
  Cu  Cu55  1  0.34487686  0.71012164  0.13466713  1
  Cu  Cu56  1  0.01154286  0.42454549  0.28987836  1
  Cu  Cu57  1  0.60992014  0.69238165  0.72515307  1
  Cu  Cu58  1  0.27658714  0.03277142  0.30761835  1
  Cu  Cu59  1  0.94325314  0.27484693  0.96722858  1
  Cu  Cu60  1  0.91577355  0.92016116  0.12457488  1
  Cu  Cu61  1  0.58244055  0.20441372  0.07983884  1
  Cu  Cu62  1  0.24910655  0.87542512  0.79558628  1
  Si  Si0  1  0.63267404  0.70305948  0.90158469  1
  Si  Si1  1  0.29934104  0.19852522  0.29694052  1
  Si  Si2  1  0.96600704  0.09841531  0.80147478  1
  Si  Si3  1  0.25485430  0.84748591  0.29729050  1
  Si  Si4  1  0.92152130  0.44980458  0.15251409  1
  Si  Si5  1  0.58818730  0.70270950  0.55019542  1
  Si  Si6  1  0.96030516  0.75807483  0.13691946  1
  Si  Si7  1  0.62697216  0.37884463  0.24192517  1
  Si  Si8  1  0.29363816  0.86308054  0.62115537  1
  Si  Si9  1  0.87967186  0.92258149  0.96159897  1
  Si  Si10  1  0.54633886  0.03901748  0.07741851  1
  Si  Si11  1  0.21300486  0.03840103  0.96098252  1
  Si  Si12  1  0.63168392  0.87459971  0.24482058  1
  Si  Si13  1  0.29835092  0.37022087  0.12540029  1
  Si  Si14  1  0.96501692  0.75517942  0.62977913  1
  Si  Si15  1  0.01227275  0.78489134  0.96362460  1
  Si  Si16  1  0.67893975  0.17873326  0.21510866  1
  Si  Si17  1  0.34560575  0.03637540  0.82126674  1
  Si  Si18  1  0.63567743  0.52486460  0.56871525  1
  Si  Si19  1  0.30234443  0.04385065  0.47513540  1
  Si  Si20  1  0.96901043  0.43128475  0.95614935  1
  Si  Si21  1  0.29999120  0.70624058  0.79285696  1
  Si  Si22  1  0.96665820  0.08661638  0.29375942  1
  Si  Si23  1  0.63332420  0.20714304  0.91338362  1
  Si  Si24  1  0.30687155  0.87871404  0.13129133  1
  Si  Si25  1  0.97353855  0.25257730  0.12128596  1
  Si  Si26  1  0.64020455  0.86870867  0.74742270  1
  Si  Si27  1  0.96584882  0.92136174  0.46918452  1
  Si  Si28  1  0.63251582  0.54782278  0.07863826  1
  Si  Si29  1  0.29918182  0.53081548  0.45217722  1
  Si  Si30  1  0.71354809  0.37067967  0.74468520  1
  Si  Si31  1  0.38021509  0.37400553  0.62932033  1
  Si  Si32  1  0.04688109  0.25531480  0.62599447  1
  Si  Si33  1  0.96395250  0.58381567  0.78865029  1
  Si  Si34  1  0.63061950  0.20483461  0.41618433  1
  Si  Si35  1  0.29728550  0.21134971  0.79516539  1
  Si  Si36  1  0.71751521  0.70449501  0.40925309  1
  Si  Si37  1  0.38418221  0.70475808  0.29550499  1
  Si  Si38  1  0.05084821  0.59074691  0.29524192  1
  Si  Si39  1  0.96961483  0.41885878  0.45616522  1
  Si  Si40  1  0.63628183  0.03730644  0.58114122  1
  Si  Si41  1  0.30294783  0.54383478  0.96269356  1
loop_
_geom_bond_atom_site_label_1
_geom_bond_atom_site_label_2
_geom_bond_distance
_geom_bond_site_symmetry_2
Li0 Si15 2.555425 1_555
Li0 Si11 2.650773 1_565
Li0 Si21 2.685644 1_555
Li0 Si24 2.758664 1_556
Li1 Si16 2.555425 1_555
Li1 Si9 2.650773 1_544
Li1 Si22 2.685644 1_555
Li1 Si25 2.758664 1_555
Li2 Si17 2.555425 1_555
Li2 Si10 2.650774 1_556
Li2 Si23 2.685644 1_555
Li2 Si26 2.758664 1_545
Li3 Li39 2.572663 1_555
Li3 Si21 2.583564 1_555
Li3 Si29 2.616827 1_555
Li3 Si31 2.623358 1_555
Li4 Li40 2.572663 1_655
Li4 Si22 2.583564 1_555
Li4 Si27 2.616827 1_545
Li4 Si32 2.623349 1_655
Li5 Si23 2.583564 1_555
Li5 Si28 2.616830 1_556
Li5 Si30 2.623358 1_555
Li6 Si21 2.708276 1_555
Li6 Si14 2.784952 1_455
Li6 Si33 2.876802 1_455
Li7 Si22 2.708276 1_555
Li7 Si12 2.784952 1_545
Li7 Si34 2.876802 1_555
Li8 Si23 2.708276 1_555
Li8 Si13 2.784943 1_556
Li8 Si35 2.876802 1_555
Li9 Si11 2.793005 1_565
Li9 Si24 2.823785 1_556
Li9 Si21 2.876434 1_555
Li9 Si10 2.878581 1_566
Li10 Si9 2.793005 1_444
Li10 Si25 2.823785 1_455
Li10 Si22 2.876434 1_455
Li10 Si11 2.878570 1_554
Li10 Li22 2.909127 1_555
Li11 Si10 2.792995 1_556
Li11 Si26 2.823785 1_545
Li11 Si23 2.876434 1_555
Li11 Si9 2.878581 1_545
Li11 Li23 2.909127 1_545
Li12 Si28 2.701806 1_555
Li12 Si6 2.708421 1_555
Li12 Li41 2.781056 1_554
Li12 Si20 2.846340 1_554
Li12 Li42 2.876604 1_554
Li12 Li60 2.923607 1_555
Li12 Li63 2.954859 1_555
Li12 Si4 3.055430 1_555
Li13 Si29 2.701819 1_555
Li13 Si7 2.708421 1_555
Li13 Li39 2.781056 1_555
Li13 Si18 2.846340 1_555
Li13 Li43 2.876604 1_555
Li13 Li61 2.923607 1_555
Li13 Li64 2.954860 1_555
Li13 Si5 3.055424 1_555
Li14 Si27 2.701806 1_455
Li14 Si8 2.708421 1_555
Li14 Li40 2.781053 1_565
Li14 Si19 2.846349 1_565
Li14 Li44 2.876604 1_565
Li14 Li62 2.923607 1_555
Li14 Li65 2.954860 1_555
Li14 Si3 3.055429 1_555
Li15 Si22 2.762651 1_555
Li15 Si39 2.801547 1_555
Li15 Li32 2.802849 1_555
Li15 Si34 2.816810 1_555
Li16 Si23 2.762642 1_555
Li16 Si40 2.801547 1_555
Li16 Li30 2.802849 1_545
Li16 Si35 2.816823 1_555
Li17 Si21 2.762651 1_555
Li17 Si41 2.801547 1_555
Li17 Li31 2.802849 1_556
Li17 Si33 2.816810 1_455
Li18 Li31 2.701989 1_555
Li18 Si22 2.739135 1_465
Li18 Si24 2.840769 1_555
Li18 Si6 2.852197 1_455
Li18 Li40 2.938587 1_565
Li19 Li32 2.701985 1_555
Li19 Si23 2.739145 1_554
Li19 Si25 2.840769 1_555
Li19 Si7 2.852197 1_555
Li19 Li41 2.938587 1_554
Li20 Li30 2.701989 1_555
Li20 Si21 2.739135 1_555
Li20 Si26 2.840769 1_555
Li20 Si8 2.852197 1_555
Li20 Li39 2.938587 1_555
Li21 Si24 2.757962 1_555
Li21 Si12 2.764277 1_555
Li21 Si10 2.823724 1_565
Li21 Si0 2.851568 1_554
Li21 Li45 2.866328 1_555
Li21 Li33 2.883192 1_555
Li21 Li51 2.888352 1_554
Li21 Li9 2.909127 1_554
Li22 Si25 2.757962 1_455
Li22 Si13 2.764277 1_555
Li22 Si11 2.823722 1_554
Li22 Si1 2.851568 1_555
Li22 Li46 2.866328 1_555
Li22 Li34 2.883192 1_555
Li22 Li52 2.888352 1_555
Li23 Si26 2.757962 1_555
Li23 Si14 2.764277 1_555
Li23 Si9 2.823724 1_555
Li23 Si2 2.851568 1_565
Li23 Li47 2.866328 1_655
Li23 Li35 2.883193 1_555
Li23 Li53 2.888352 1_565
Li24 Si32 2.749808 1_655
Li24 Si33 2.757145 1_555
Li24 Li27 2.855219 1_555
Li24 Si39 2.912733 1_555
Li24 Si30 2.963736 1_555
Li25 Si30 2.749808 1_555
Li25 Si34 2.757145 1_555
Li25 Li28 2.855219 1_555
Li25 Si40 2.912733 1_555
Li25 Si31 2.963736 1_555
Li26 Si31 2.749818 1_555
Li26 Si35 2.757146 1_555
Li26 Li29 2.855219 1_555
Li26 Si41 2.912733 1_555
Li26 Si32 2.963736 1_555
Li27 Si0 2.755404 1_555
Li27 Si18 2.760406 1_555
Li27 Si33 2.798874 1_555
Li27 Li42 2.878244 1_555
Li27 Si30 2.878406 1_555
Li27 Li54 2.882663 1_555
Li27 Li35 3.063897 1_555
Li28 Si1 2.755404 1_555
Li28 Si19 2.760406 1_555
Li28 Si34 2.798874 1_555
Li28 Li43 2.878244 1_555
Li28 Si31 2.878406 1_555
Li28 Li55 2.882663 1_555
Li28 Li33 3.063897 1_545
Li29 Si2 2.755404 1_455
Li29 Si20 2.760406 1_455
Li29 Si35 2.798874 1_555
Li29 Li44 2.878244 1_555
Li29 Si32 2.878406 1_555
Li29 Li56 2.882663 1_455
Li29 Li34 3.063898 1_556
Li30 Si8 2.785872 1_555
Li30 Si40 2.861485 1_565
Li30 Li48 2.883673 1_555
Li30 Li64 2.900338 1_555
Li30 Si26 2.910113 1_555
Li30 Si5 2.970121 1_555
Li30 Si17 3.068077 1_565
Li31 Si6 2.785872 1_455
Li31 Si41 2.861476 1_554
Li31 Li49 2.883673 1_555
Li31 Li65 2.900343 1_555
Li31 Si24 2.910113 1_555
Li31 Si3 2.970121 1_555
Li31 Si15 3.068077 1_554
Li32 Si7 2.785859 1_555
Li32 Si39 2.861485 1_555
Li32 Li50 2.883673 1_555
Li32 Li63 2.900338 1_555
Li32 Si25 2.910123 1_555
Li32 Si4 2.970127 1_555
Li32 Si16 3.068068 1_555
Li33 Si12 2.691777 1_555
Li33 Si3 2.709772 1_555
Li33 Si24 2.811664 1_555
Li33 Li48 2.858223 1_555
Li33 Si19 2.876987 1_565
Li33 Si37 3.079140 1_555
Li34 Si13 2.691777 1_555
Li34 Si4 2.709772 1_455
Li34 Si25 2.811664 1_455
Li34 Li49 2.858223 1_555
Li34 Si20 2.876996 1_454
Li34 Si38 3.079144 1_555
Li35 Si14 2.691777 1_555
Li35 Si5 2.709772 1_555
Li35 Si26 2.811664 1_555
Li35 Li50 2.858223 1_555
Li35 Si18 2.876987 1_555
Li35 Si36 3.079140 1_555
Li36 Si40 2.736803 1_565
Li36 Si36 2.806908 1_555
Li36 Li53 2.820487 1_565
Li36 Si12 2.835806 1_555
Li36 Li60 2.836567 1_555
Li36 Si27 2.848312 1_555
Li36 Li48 2.849433 1_555
Li36 Li7 3.052376 1_565
Li37 Si41 2.736811 1_554
Li37 Si37 2.806908 1_555
Li37 Li51 2.820487 1_554
Li37 Si13 2.835806 1_555
Li37 Li61 2.836567 1_555
Li37 Si28 2.848312 1_555
Li37 Li49 2.849433 1_555
Li37 Li8 3.052376 1_554
Li38 Si39 2.736803 1_455
Li38 Si38 2.806908 1_555
Li38 Li52 2.820491 1_555
Li38 Si14 2.835806 1_455
Li38 Li62 2.836567 1_555
Li38 Si29 2.848312 1_555
Li38 Li50 2.849433 1_455
Li38 Li6 3.052376 1_555
Li39 Si18 2.788849 1_555
Li39 Li54 2.821880 1_555
Li39 Si21 2.862061 1_555
Li39 Si29 2.874100 1_555
Li39 Si31 2.906983 1_555
Li40 Si19 2.788849 1_555
Li40 Li55 2.821880 1_555
Li40 Si22 2.862061 1_455
Li40 Si27 2.874100 1_445
Li40 Si32 2.906986 1_555
Li41 Li5 2.572663 1_555
Li41 Si20 2.788849 1_555
Li41 Li56 2.821880 1_555
Li41 Si23 2.862061 1_555
Li41 Si28 2.874091 1_556
Li41 Si30 2.906983 1_555
Li42 Si15 2.688687 1_655
Li42 Si0 2.727620 1_555
Li42 Li45 2.838059 1_556
Li42 Si33 2.885333 1_555
Li42 Si6 2.893563 1_556
Li42 Si9 2.951896 1_555
Li43 Si16 2.688687 1_555
Li43 Si1 2.727619 1_555
Li43 Li46 2.838059 1_555
Li43 Si34 2.885333 1_555
Li43 Si7 2.893563 1_555
Li43 Si10 2.951896 1_555
Li44 Si17 2.688687 1_555
Li44 Si2 2.727619 1_455
Li44 Li47 2.838059 1_545
Li44 Si35 2.885333 1_555
Li44 Si8 2.893563 1_545
Li44 Si11 2.951896 1_555
Li45 Si10 2.809472 1_565
Li45 Si0 2.822843 1_554
Li45 Si12 2.840765 1_555
Li45 Si9 2.922498 1_554
Li46 Si11 2.809482 1_554
Li46 Si1 2.822843 1_555
Li46 Si13 2.840765 1_555
Li46 Si10 2.922498 1_555
Li47 Si9 2.809472 1_455
Li47 Si2 2.822843 1_465
Li47 Si14 2.840765 1_455
Li47 Si11 2.922498 1_565
Li48 Si12 2.771149 1_555
Li48 Si36 2.804796 1_555
Li48 Si40 2.827988 1_565
Li48 Si37 2.973457 1_555
Li49 Si13 2.771149 1_555
Li49 Si37 2.804796 1_555
Li49 Si41 2.827983 1_554
Li49 Si38 2.973468 1_555
Li50 Si14 2.771149 1_555
Li50 Si38 2.804796 1_655
Li50 Si39 2.827988 1_555
Li50 Si36 2.973456 1_555
Li51 Si41 2.668829 1_555
Li51 Si0 2.798661 1_555
Li51 Si28 2.823953 1_556
Li52 Si39 2.668829 1_455
Li52 Si1 2.798661 1_555
Li52 Si29 2.823944 1_555
Li53 Si40 2.668817 1_555
Li53 Si2 2.798661 1_555
Li53 Si27 2.823953 1_545
Li54 Si18 2.743794 1_555
Li54 Si30 2.781341 1_555
Li54 Si0 2.792737 1_555
Li54 Si31 2.967428 1_555
Li55 Si19 2.743794 1_555
Li55 Si31 2.781341 1_555
Li55 Si1 2.792737 1_555
Li55 Si32 2.967439 1_555
Li56 Si20 2.743794 1_555
Li56 Si32 2.781341 1_655
Li56 Si2 2.792737 1_555
Li56 Si30 2.967428 1_555
Li57 Si40 2.624488 1_555
Li57 Si30 2.647410 1_555
Li57 Si34 2.676056 1_555
Li58 Si41 2.624496 1_555
Li58 Si31 2.647410 1_555
Li58 Si35 2.676063 1_555
Li59 Si39 2.624488 1_455
Li59 Si32 2.647410 1_555
Li59 Si33 2.676056 1_455
Li60 Si27 2.784340 1_555
Li60 Si6 2.788745 1_555
Li60 Si38 2.798902 1_655
Li60 Si36 2.865840 1_555
Li61 Si28 2.784340 1_555
Li61 Si7 2.788745 1_555
Li61 Si36 2.798902 1_555
Li61 Si37 2.865840 1_555
Li62 Si29 2.784340 1_555
Li62 Si8 2.788745 1_555
Li62 Si37 2.798912 1_555
Li62 Si38 2.865840 1_555
Li63 Si4 2.568184 1_555
Li63 Si36 2.659526 1_555
Li63 Si7 2.663810 1_555
Li63 Si28 2.708476 1_555
Li64 Si5 2.568172 1_555
Li64 Si37 2.659526 1_555
Li64 Si8 2.663818 1_555
Li64 Si29 2.708484 1_555
Li65 Si3 2.568184 1_555
Li65 Si38 2.659526 1_555
Li65 Si6 2.663809 1_455
Li65 Si27 2.708476 1_455
Cu0 Si27 2.318719 1_555
Cu0 Si6 2.371485 1_555
Cu0 Si22 2.377616 1_565
Cu0 Cu48 2.550165 1_555
Cu0 Cu60 2.557636 1_555
Cu0 Li4 2.559142 1_565
Cu0 Li65 2.676102 1_655
Cu0 Li18 2.717458 1_655
Cu0 Li40 2.760334 1_665
Cu0 Li7 2.842501 1_565
Cu0 Li60 2.928052 1_555
Cu0 Li36 3.030061 1_555
Cu1 Si28 2.318719 1_555
Cu1 Si7 2.371485 1_555
Cu1 Si23 2.377614 1_554
Cu1 Cu49 2.550165 1_555
Cu1 Cu61 2.557636 1_555
Cu1 Li5 2.559144 1_554
Cu1 Li63 2.676102 1_555
Cu1 Li19 2.717458 1_555
Cu1 Li41 2.760323 1_554
Cu1 Li8 2.842512 1_554
Cu1 Li61 2.928052 1_555
Cu1 Li37 3.030061 1_555
Cu2 Si29 2.318719 1_555
Cu2 Si8 2.371485 1_555
Cu2 Si21 2.377616 1_555
Cu2 Cu50 2.550165 1_555
Cu2 Cu62 2.557636 1_555
Cu2 Li3 2.559142 1_555
Cu2 Li64 2.676111 1_555
Cu2 Li20 2.717458 1_555
Cu2 Li39 2.760334 1_555
Cu2 Li6 2.842501 1_555
Cu2 Li62 2.928052 1_555
Cu2 Li38 3.030061 1_555
Cu3 Si9 2.364001 1_555
Cu3 Si26 2.458005 1_555
Cu3 Si0 2.496519 1_555
Cu3 Cu33 2.530954 1_555
Cu3 Cu57 2.552309 1_555
Cu3 Li42 2.686607 1_555
Cu3 Li45 2.712468 1_556
Cu3 Li23 2.718212 1_555
Cu3 Li11 2.772719 1_565
Cu3 Li35 2.891770 1_555
Cu3 Li27 3.012929 1_555
Cu4 Si10 2.364001 1_555
Cu4 Si24 2.458005 1_545
Cu4 Si1 2.496519 1_555
Cu4 Cu58 2.552309 1_555
Cu4 Li43 2.686607 1_555
Cu4 Li46 2.712468 1_555
Cu4 Li21 2.718212 1_545
Cu4 Li9 2.772719 1_544
Cu4 Li33 2.891770 1_545
Cu4 Li28 3.012929 1_555
Cu5 Si11 2.364001 1_555
Cu5 Si25 2.457997 1_456
Cu5 Si2 2.496519 1_455
Cu5 Cu59 2.552310 1_455
Cu5 Li44 2.686607 1_555
Cu5 Li47 2.712468 1_545
Cu5 Li22 2.718218 1_556
Cu5 Li10 2.772716 1_556
Cu5 Li34 2.891772 1_556
Cu5 Li29 3.012929 1_555
Cu6 Si30 2.425391 1_555
Cu6 Si20 2.474167 1_555
Cu6 Si33 2.499833 1_555
Cu6 Li56 2.675897 1_555
Cu6 Li24 2.691185 1_555
Cu6 Li41 2.712151 1_555
Cu6 Li27 2.716707 1_555
Cu6 Li12 2.811211 1_556
Cu6 Li42 2.956690 1_555
Cu7 Si31 2.425391 1_555
Cu7 Si18 2.474167 1_555
Cu7 Si34 2.499833 1_555
Cu7 Li54 2.675897 1_555
Cu7 Li25 2.691184 1_555
Cu7 Li39 2.712151 1_555
Cu7 Li28 2.716707 1_555
Cu7 Li13 2.811211 1_555
Cu7 Li43 2.956690 1_555
Cu8 Si32 2.425391 1_555
Cu8 Si19 2.474176 1_555
Cu8 Si35 2.499833 1_555
Cu8 Li55 2.675900 1_555
Cu8 Li26 2.691185 1_555
Cu8 Li40 2.712145 1_555
Cu8 Li29 2.716707 1_555
Cu8 Li14 2.811211 1_545
Cu8 Li44 2.956690 1_555
Cu9 Si39 2.364324 1_555
Cu9 Si18 2.421062 1_555
Cu9 Li15 2.683689 1_555
Cu9 Li32 2.707352 1_555
Cu9 Li50 2.774331 1_555
Cu9 Li24 2.784530 1_555
Cu9 Li35 2.798805 1_555
Cu9 Li27 2.840726 1_555
Cu10 Si40 2.364324 1_555
Cu10 Si19 2.421062 1_555
Cu10 Cu25 2.527604 1_555
Cu10 Cu16 2.551425 1_555
Cu10 Cu23 2.574836 1_555
Cu10 Cu27 2.650516 1_545
Cu10 Li16 2.683689 1_555
Cu10 Li30 2.707352 1_545
Cu10 Li48 2.774331 1_545
Cu10 Li25 2.784530 1_555
Cu10 Li33 2.798805 1_545
Cu10 Li28 2.840726 1_555
Cu11 Si41 2.364324 1_555
Cu11 Si20 2.421062 1_455
Cu11 Cu26 2.527604 1_555
Cu11 Cu17 2.551425 1_555
Cu11 Cu21 2.574825 1_455
Cu11 Cu28 2.650508 1_556
Cu11 Li17 2.683689 1_555
Cu11 Li31 2.707353 1_556
Cu11 Li49 2.774337 1_556
Cu11 Li26 2.784530 1_555
Cu11 Li34 2.798803 1_556
Cu11 Li29 2.840726 1_555
Cu12 Si0 2.322397 1_554
Cu12 Si12 2.353127 1_555
Cu12 Si28 2.430004 1_555
Cu12 Cu45 2.436693 1_554
Cu12 Cu48 2.496127 1_555
Cu12 Cu42 2.517414 1_555
Cu12 Cu30 2.580820 1_555
Cu12 Li21 2.681830 1_555
Cu12 Li51 2.698312 1_554
Cu12 Li45 2.743058 1_555
Cu12 Li42 2.803015 1_554
Cu12 Li12 2.866242 1_555
Cu13 Si1 2.322397 1_555
Cu13 Si13 2.353127 1_555
Cu13 Si29 2.430006 1_555
Cu13 Cu46 2.436693 1_555
Cu13 Cu49 2.496127 1_555
Cu13 Cu43 2.517414 1_555
Cu13 Cu31 2.580820 1_555
Cu13 Li22 2.681830 1_555
Cu13 Li52 2.698312 1_555
Cu13 Li46 2.743058 1_555
Cu13 Li43 2.803015 1_555
Cu13 Li13 2.866242 1_555
Cu14 Si2 2.322397 1_565
Cu14 Si14 2.353127 1_555
Cu14 Si27 2.430004 1_555
Cu14 Cu47 2.436693 1_665
Cu14 Cu50 2.496127 1_655
Cu14 Cu44 2.517414 1_555
Cu14 Cu32 2.580820 1_655
Cu14 Li23 2.681830 1_555
Cu14 Li53 2.698312 1_565
Cu14 Li47 2.743058 1_655
Cu14 Li44 2.803015 1_665
Cu14 Li14 2.866242 1_655
Cu15 Si30 2.335684 1_555
Cu15 Si34 2.417689 1_555
Cu15 Si18 2.465452 1_555
Cu15 Cu7 2.519444 1_555
Cu15 Li57 2.520802 1_555
Cu15 Cu9 2.551425 1_555
Cu15 Cu22 2.585860 1_555
Cu15 Li24 2.694505 1_555
Cu15 Li27 2.761156 1_555
Cu15 Li15 2.769746 1_555
Cu15 Li25 2.770826 1_555
Cu15 Li54 2.818492 1_555
Cu16 Si31 2.335684 1_555
Cu16 Si35 2.417694 1_555
Cu16 Si19 2.465452 1_555
Cu16 Cu8 2.519457 1_555
Cu16 Li58 2.520802 1_555
Cu16 Cu23 2.585862 1_555
Cu16 Li25 2.694505 1_555
Cu16 Li28 2.761156 1_555
Cu16 Li16 2.769746 1_555
Cu16 Li26 2.770835 1_555
Cu16 Li55 2.818492 1_555
Cu17 Si32 2.335684 1_555
Cu17 Si33 2.417689 1_455
Cu17 Si20 2.465452 1_455
Cu17 Cu6 2.519444 1_455
Cu17 Li59 2.520802 1_555
Cu17 Cu21 2.585860 1_455
Cu17 Li26 2.694505 1_555
Cu17 Li29 2.761156 1_555
Cu17 Li17 2.769746 1_555
Cu17 Li24 2.770826 1_455
Cu17 Li56 2.818492 1_455
Cu18 Si10 2.346632 1_566
Cu18 Si26 2.441430 1_555
Cu18 Si0 2.469690 1_555
Cu18 Cu3 2.474633 1_555
Cu18 Cu36 2.519203 1_555
Cu18 Li2 2.584293 1_565
Cu18 Cu57 2.632257 1_555
Cu18 Li45 2.720829 1_556
Cu18 Li21 2.749281 1_556
Cu18 Li11 2.759463 1_565
Cu18 Li9 2.777039 1_555
Cu18 Li20 2.828196 1_555
Cu19 Si11 2.346634 1_554
Cu19 Si24 2.441429 1_545
Cu19 Si1 2.469690 1_555
Cu19 Cu4 2.474633 1_555
Cu19 Cu37 2.519203 1_555
Cu19 Li0 2.584293 1_544
Cu19 Cu58 2.632257 1_555
Cu19 Li46 2.720829 1_555
Cu19 Li22 2.749281 1_555
Cu19 Li9 2.759463 1_544
Cu19 Li10 2.777039 1_555
Cu19 Li18 2.828196 1_545
Cu20 Si9 2.346632 1_545
Cu20 Si25 2.441435 1_556
Cu20 Si2 2.469690 1_555
Cu20 Cu5 2.474633 1_655
Cu20 Cu38 2.519203 1_555
Cu20 Li1 2.584289 1_556
Cu20 Cu59 2.632257 1_555
Cu20 Li47 2.720829 1_645
Cu20 Li23 2.749281 1_545
Cu20 Li10 2.759472 1_656
Cu20 Li11 2.777039 1_555
Cu20 Li19 2.828187 1_556
Cu21 Si6 2.317633 1_556
Cu21 Si33 2.340229 1_555
Cu21 Si20 2.457050 1_555
Cu21 Si15 2.488303 1_655
Cu21 Cu28 2.506892 1_656
Cu21 Cu6 2.553383 1_555
Cu21 Li31 2.723819 1_656
Cu21 Li42 2.746603 1_555
Cu21 Li17 2.777647 1_655
Cu21 Li12 2.814647 1_556
Cu22 Si7 2.317633 1_555
Cu22 Si34 2.340229 1_555
Cu22 Si18 2.457050 1_555
Cu22 Si16 2.488303 1_555
Cu22 Cu29 2.506890 1_555
Cu22 Cu7 2.553383 1_555
Cu22 Cu9 2.574825 1_555
Cu22 Li32 2.723807 1_555
Cu22 Li43 2.746603 1_555
Cu22 Li15 2.777647 1_555
Cu22 Li13 2.814647 1_555
Cu23 Si8 2.317633 1_545
Cu23 Si35 2.340229 1_555
Cu23 Si19 2.457048 1_555
Cu23 Si17 2.488303 1_555
Cu23 Cu27 2.506892 1_545
Cu23 Cu8 2.553383 1_555
Cu23 Li30 2.723819 1_545
Cu23 Li44 2.746603 1_555
Cu23 Li16 2.777658 1_555
Cu23 Li14 2.814647 1_545
Cu24 Si33 2.330110 1_555
Cu24 Si39 2.343302 1_555
Cu24 Si14 2.366307 1_555
Cu24 Cu33 2.482908 1_555
Cu24 Cu9 2.527604 1_555
Cu24 Li59 2.640720 1_655
Cu24 Li6 2.698800 1_655
Cu24 Li38 2.739633 1_655
Cu24 Li50 2.891877 1_555
Cu24 Li35 2.904606 1_555
Cu24 Li24 2.970152 1_555
Cu24 Li27 3.090970 1_555
Cu25 Si34 2.330110 1_555
Cu25 Si40 2.343302 1_555
Cu25 Si12 2.366307 1_545
Cu25 Cu34 2.482908 1_555
Cu25 Li57 2.640720 1_555
Cu25 Li7 2.698800 1_555
Cu25 Li36 2.739633 1_545
Cu25 Li48 2.891877 1_545
Cu25 Li33 2.904606 1_545
Cu25 Li25 2.970153 1_555
Cu25 Li28 3.090970 1_555
Cu26 Si35 2.330110 1_555
Cu26 Si41 2.343302 1_555
Cu26 Si13 2.366309 1_556
Cu26 Cu35 2.482908 1_555
Cu26 Li58 2.640728 1_555
Cu26 Li8 2.698800 1_555
Cu26 Li37 2.739642 1_556
Cu26 Li49 2.891873 1_556
Cu26 Li34 2.904595 1_556
Cu26 Li26 2.970153 1_555
Cu26 Li29 3.090970 1_555
Cu27 Si37 2.342822 1_555
Cu27 Si19 2.428808 1_565
Cu27 Si8 2.450047 1_555
Cu27 Si3 2.486276 1_555
Cu27 Li64 2.659795 1_555
Cu27 Li14 2.735157 1_555
Cu27 Li62 2.773905 1_555
Cu27 Li30 2.877639 1_555
Cu27 Li33 2.912433 1_555
Cu27 Li48 2.947813 1_555
Cu28 Si38 2.342820 1_555
Cu28 Si20 2.428811 1_454
Cu28 Si6 2.450047 1_455
Cu28 Si4 2.486277 1_455
Cu28 Li65 2.659791 1_555
Cu28 Li12 2.735157 1_455
Cu28 Li60 2.773905 1_455
Cu28 Li31 2.877639 1_555
Cu28 Li34 2.912433 1_555
Cu28 Li49 2.947813 1_555
Cu29 Si36 2.342822 1_555
Cu29 Si18 2.428808 1_555
Cu29 Si7 2.450043 1_555
Cu29 Si5 2.486277 1_555
Cu29 Cu9 2.650516 1_555
Cu29 Li63 2.659795 1_555
Cu29 Li13 2.735144 1_555
Cu29 Li61 2.773897 1_555
Cu29 Li32 2.877639 1_555
Cu29 Li35 2.912433 1_555
Cu29 Li50 2.947813 1_555
Cu30 Si36 2.311743 1_555
Cu30 Si28 2.437242 1_555
Cu30 Cu42 2.452911 1_555
Cu30 Si12 2.512157 1_555
Cu30 Cu48 2.535193 1_555
Cu30 Li63 2.583608 1_555
Cu30 Li61 2.700512 1_555
Cu30 Li48 2.719035 1_555
Cu30 Li36 2.746302 1_555
Cu30 Li12 2.783521 1_555
Cu30 Li60 2.803133 1_555
Cu31 Si37 2.311742 1_555
Cu31 Si29 2.437246 1_555
Cu31 Cu43 2.452911 1_555
Cu31 Si13 2.512157 1_555
Cu31 Cu49 2.535193 1_555
Cu31 Li64 2.583608 1_555
Cu31 Li62 2.700521 1_555
Cu31 Li49 2.719035 1_555
Cu31 Li37 2.746302 1_555
Cu31 Li13 2.783521 1_555
Cu31 Li61 2.803133 1_555
Cu32 Si38 2.311743 1_555
Cu32 Si27 2.437242 1_455
Cu32 Cu44 2.452911 1_455
Cu32 Si14 2.512157 1_455
Cu32 Cu50 2.535193 1_555
Cu32 Li65 2.583608 1_555
Cu32 Li60 2.700512 1_455
Cu32 Li50 2.719035 1_455
Cu32 Li38 2.746303 1_555
Cu32 Li14 2.783521 1_555
Cu32 Li62 2.803133 1_555
Cu33 Si9 2.368601 1_555
Cu33 Si14 2.429657 1_555
Cu33 Si33 2.433368 1_555
Cu33 Si15 2.463048 1_655
Cu33 Li6 2.647305 1_655
Cu33 Li47 2.677223 1_655
Cu33 Li23 2.836533 1_555
Cu33 Li42 2.897479 1_555
Cu33 Li35 3.007914 1_555
Cu33 Li27 3.206511 1_555
Cu34 Si10 2.368601 1_555
Cu34 Si12 2.429657 1_545
Cu34 Si34 2.433368 1_555
Cu34 Si16 2.463048 1_555
Cu34 Cu4 2.530954 1_555
Cu34 Li7 2.647305 1_555
Cu34 Li45 2.677223 1_545
Cu34 Li21 2.836533 1_545
Cu34 Li43 2.897479 1_555
Cu34 Li33 3.007914 1_545
Cu34 Li28 3.206511 1_555
Cu35 Si11 2.368601 1_555
Cu35 Si13 2.429661 1_556
Cu35 Si35 2.433368 1_555
Cu35 Si17 2.463048 1_555
Cu35 Cu5 2.530954 1_555
Cu35 Li8 2.647305 1_555
Cu35 Li46 2.677231 1_556
Cu35 Li22 2.836527 1_556
Cu35 Li44 2.897479 1_555
Cu35 Li34 3.007905 1_556
Cu35 Li29 3.206511 1_555
Cu36 Si21 2.384369 1_555
Cu36 Si0 2.389242 1_555
Cu36 Cu41 2.541659 1_555
Cu36 Cu57 2.544584 1_555
Cu36 Cu51 2.599046 1_555
Cu36 Li20 2.663671 1_555
Cu36 Li51 2.726292 1_555
Cu36 Li39 2.772980 1_555
Cu36 Li9 2.827501 1_555
Cu36 Li54 2.827993 1_555
Cu36 Li21 2.850404 1_556
Cu37 Si22 2.384369 1_455
Cu37 Si1 2.389242 1_555
Cu37 Cu39 2.541659 1_455
Cu37 Cu58 2.544584 1_555
Cu37 Cu52 2.599046 1_555
Cu37 Li18 2.663671 1_545
Cu37 Li52 2.726292 1_555
Cu37 Li40 2.772980 1_555
Cu37 Li10 2.827501 1_555
Cu37 Li55 2.827993 1_555
Cu37 Li22 2.850404 1_555
Cu38 Si23 2.384369 1_555
Cu38 Si2 2.389242 1_555
Cu38 Cu40 2.541649 1_555
Cu38 Cu59 2.544584 1_555
Cu38 Cu53 2.599045 1_555
Cu38 Li19 2.663669 1_556
Cu38 Li53 2.726292 1_555
Cu38 Li41 2.772980 1_555
Cu38 Li11 2.827501 1_555
Cu38 Li56 2.827992 1_555
Cu38 Li23 2.850404 1_545
Cu39 Si25 2.292632 1_555
Cu39 Si22 2.367755 1_555
Cu39 Si39 2.430290 1_555
Cu39 Cu56 2.445454 1_655
Cu39 Cu52 2.507105 1_655
Cu39 Li1 2.619795 1_555
Cu39 Li15 2.695554 1_555
Cu39 Li32 2.748307 1_555
Cu39 Li52 2.816487 1_655
Cu39 Li10 2.893496 1_655
Cu39 Li22 3.002405 1_655
Cu40 Si26 2.292633 1_545
Cu40 Si23 2.367756 1_555
Cu40 Si40 2.430290 1_555
Cu40 Cu54 2.445454 1_545
Cu40 Cu53 2.507102 1_555
Cu40 Li2 2.619804 1_555
Cu40 Li16 2.695554 1_555
Cu40 Li30 2.748307 1_545
Cu40 Li53 2.816476 1_555
Cu40 Li11 2.893493 1_555
Cu40 Li23 3.002394 1_545
Cu41 Si24 2.292632 1_556
Cu41 Si21 2.367755 1_555
Cu41 Si41 2.430290 1_555
Cu41 Cu55 2.445455 1_556
Cu41 Cu51 2.507105 1_555
Cu41 Li0 2.619795 1_555
Cu41 Li17 2.695554 1_555
Cu41 Li31 2.748296 1_556
Cu41 Li51 2.816487 1_555
Cu41 Li9 2.893496 1_555
Cu41 Li21 3.002405 1_556
Cu42 Si37 2.377165 1_555
Cu42 Si12 2.502967 1_555
Cu42 Cu55 2.525213 1_555
Cu42 Si28 2.560523 1_555
Cu42 Li48 2.670269 1_555
Cu42 Li61 2.690695 1_555
Cu42 Li33 2.734830 1_555
Cu42 Li37 2.748013 1_555
Cu42 Li51 2.768942 1_554
Cu42 Li21 2.989542 1_555
Cu43 Si38 2.377175 1_555
Cu43 Si13 2.502967 1_555
Cu43 Cu56 2.525226 1_555
Cu43 Si29 2.560515 1_555
Cu43 Li49 2.670269 1_555
Cu43 Li62 2.690693 1_555
Cu43 Li34 2.734830 1_555
Cu43 Li38 2.748019 1_555
Cu43 Li52 2.768942 1_555
Cu43 Li22 2.989542 1_555
Cu44 Si36 2.377165 1_555
Cu44 Si14 2.502967 1_555
Cu44 Cu54 2.525213 1_555
Cu44 Si27 2.560523 1_555
Cu44 Li50 2.670269 1_555
Cu44 Li60 2.690696 1_555
Cu44 Li35 2.734830 1_555
Cu44 Li36 2.748013 1_555
Cu44 Li53 2.768942 1_565
Cu44 Li23 2.989542 1_555
Cu45 Si30 2.354609 1_555
Cu45 Si0 2.420561 1_555
Cu45 Si28 2.450578 1_556
Cu45 Li5 2.528134 1_555
Cu45 Cu6 2.538762 1_555
Cu45 Li54 2.678398 1_555
Cu45 Li51 2.730841 1_555
Cu45 Li27 2.797754 1_555
Cu45 Li12 2.873261 1_556
Cu45 Li41 2.894027 1_555
Cu45 Li42 2.987785 1_555
Cu46 Si31 2.354609 1_555
Cu46 Si1 2.420561 1_555
Cu46 Si29 2.450581 1_555
Cu46 Li3 2.528134 1_555
Cu46 Cu7 2.538762 1_555
Cu46 Li55 2.678398 1_555
Cu46 Li52 2.730841 1_555
Cu46 Li28 2.797754 1_555
Cu46 Li13 2.873260 1_555
Cu46 Li39 2.894027 1_555
Cu46 Li43 2.987785 1_555
Cu47 Si32 2.354609 1_555
Cu47 Si2 2.420561 1_455
Cu47 Si27 2.450578 1_445
Cu47 Li4 2.528128 1_455
Cu47 Cu8 2.538762 1_555
Cu47 Li56 2.678398 1_455
Cu47 Li53 2.730841 1_455
Cu47 Li29 2.797754 1_555
Cu47 Li14 2.873261 1_545
Cu47 Li40 2.894033 1_555
Cu47 Li44 2.987785 1_555
Cu48 Si6 2.346068 1_555
Cu48 Si12 2.385678 1_555
Cu48 Cu60 2.601390 1_555
Cu48 Li7 2.653207 1_565
Cu48 Li12 2.733319 1_555
Cu48 Li36 2.793216 1_555
Cu48 Li45 2.822515 1_555
Cu48 Li42 2.835392 1_554
Cu48 Li60 2.847311 1_555
Cu49 Si7 2.346068 1_555
Cu49 Si13 2.385678 1_555
Cu49 Cu61 2.601390 1_555
Cu49 Li8 2.653208 1_554
Cu49 Li13 2.733319 1_555
Cu49 Li37 2.793216 1_555
Cu49 Li46 2.822515 1_555
Cu49 Li43 2.835392 1_555
Cu49 Li61 2.847311 1_555
Cu50 Si8 2.346068 1_555
Cu50 Si14 2.385678 1_455
Cu50 Cu62 2.601390 1_555
Cu50 Li6 2.653207 1_555
Cu50 Li14 2.733319 1_555
Cu50 Li38 2.793216 1_555
Cu50 Li47 2.822515 1_555
Cu50 Li44 2.835392 1_565
Cu50 Li62 2.847311 1_555
Cu51 Si31 2.340589 1_555
Cu51 Si41 2.419231 1_555
Cu51 Si21 2.468869 1_555
Cu51 Li58 2.550091 1_555
Cu51 Li3 2.566937 1_555
Cu51 Li17 2.685277 1_555
Cu51 Li26 2.735264 1_555
Cu51 Li51 2.847231 1_555
Cu51 Li39 2.890492 1_555
Cu51 Li54 2.932861 1_555
Cu52 Si32 2.340587 1_555
Cu52 Si39 2.419231 1_455
Cu52 Si22 2.468869 1_455
Cu52 Li59 2.550087 1_555
Cu52 Li4 2.566937 1_455
Cu52 Li15 2.685277 1_455
Cu52 Li24 2.735264 1_455
Cu52 Li52 2.847231 1_555
Cu52 Li40 2.890492 1_555
Cu52 Li55 2.932861 1_555
Cu53 Si30 2.340589 1_555
Cu53 Si40 2.419227 1_555
Cu53 Si23 2.468869 1_555
Cu53 Li57 2.550091 1_555
Cu53 Li5 2.566937 1_555
Cu53 Li16 2.685264 1_555
Cu53 Li25 2.735256 1_555
Cu53 Li53 2.847231 1_555
Cu53 Li41 2.890492 1_555
Cu53 Li56 2.932861 1_555
Cu54 Si36 2.356012 1_555
Cu54 Si40 2.440870 1_565
Cu54 Si26 2.444138 1_555
Cu54 Si5 2.452452 1_555
Cu54 Li30 2.645706 1_555
Cu54 Li48 2.677364 1_555
Cu54 Li36 2.793283 1_555
Cu54 Li53 2.833682 1_565
Cu54 Li35 2.986840 1_555
Cu54 Li23 3.195777 1_555
Cu55 Si37 2.356012 1_555
Cu55 Si41 2.440874 1_554
Cu55 Si24 2.444138 1_555
Cu55 Si3 2.452452 1_555
Cu55 Li31 2.645706 1_555
Cu55 Li49 2.677364 1_555
Cu55 Li37 2.793283 1_555
Cu55 Li51 2.833682 1_554
Cu55 Li33 2.986840 1_555
Cu55 Li21 3.195776 1_555
Cu56 Si38 2.356012 1_555
Cu56 Si39 2.440870 1_455
Cu56 Si25 2.444135 1_455
Cu56 Si4 2.452445 1_455
Cu56 Li32 2.645706 1_455
Cu56 Li50 2.677364 1_455
Cu56 Li38 2.793283 1_555
Cu56 Li52 2.833692 1_555
Cu56 Li34 2.986846 1_555
Cu56 Li22 3.195786 1_555
Cu57 Si18 2.302931 1_555
Cu57 Si26 2.369027 1_555
Cu57 Si0 2.423392 1_555
Cu57 Si5 2.547040 1_555
Cu57 Li35 2.705434 1_555
Cu57 Li27 2.785063 1_555
Cu57 Li39 2.828964 1_555
Cu57 Li20 2.836326 1_555
Cu57 Li54 2.862640 1_555
Cu58 Si19 2.302931 1_555
Cu58 Si24 2.369027 1_545
Cu58 Si1 2.423392 1_555
Cu58 Si3 2.547040 1_545
Cu58 Li33 2.705434 1_545
Cu58 Li28 2.785063 1_555
Cu58 Li40 2.828964 1_555
Cu58 Li18 2.836326 1_545
Cu58 Li55 2.862640 1_555
Cu59 Si20 2.302931 1_555
Cu59 Si25 2.369030 1_556
Cu59 Si2 2.423392 1_555
Cu59 Si4 2.547039 1_556
Cu59 Li34 2.705445 1_656
Cu59 Li29 2.785063 1_655
Cu59 Li41 2.828964 1_555
Cu59 Li19 2.836315 1_556
Cu59 Li56 2.862640 1_555
Cu60 Si9 2.354970 1_554
Cu60 Si6 2.441140 1_555
Cu60 Si22 2.453656 1_565
Cu60 Si15 2.475827 1_654
Cu60 Li1 2.639211 1_565
Cu60 Li18 2.699300 1_655
Cu60 Li10 2.707450 1_665
Cu60 Li7 2.870761 1_565
Cu60 Li42 2.879360 1_554
Cu60 Li45 2.954159 1_555
Cu61 Si10 2.354970 1_555
Cu61 Si7 2.441140 1_555
Cu61 Si23 2.453652 1_554
Cu61 Si16 2.475827 1_555
Cu61 Li2 2.639215 1_554
Cu61 Li19 2.699300 1_555
Cu61 Li11 2.707441 1_554
Cu61 Li8 2.870770 1_554
Cu61 Li43 2.879360 1_555
Cu61 Li46 2.954159 1_555
Cu62 Si11 2.354970 1_565
Cu62 Si8 2.441140 1_555
Cu62 Si21 2.453655 1_555
Cu62 Si17 2.475827 1_565
Cu62 Li0 2.639211 1_555
Cu62 Li20 2.699300 1_555
Cu62 Li9 2.707450 1_555
Cu62 Li6 2.870761 1_555
Cu62 Li44 2.879360 1_565
Cu62 Li47 2.954159 1_555
Si3 Si37 2.653400 1_555
Si10 Si16 2.650599 1_555
Si11 Si17 2.650599 1_555
Si15 Si9 2.650599 1_455
Si15 Si6 2.731925 1_456
Si15 Si33 2.736407 1_455
Si16 Si7 2.731925 1_555
Si16 Si34 2.736407 1_555
Si17 Si8 2.731925 1_545
Si17 Si35 2.736407 1_555
Si18 Si5 2.712086 1_555
Si19 Si3 2.712086 1_545
Si20 Si4 2.712083 1_556
Si24 Si3 2.670812 1_555
Si25 Si4 2.670811 1_555
Si26 Si5 2.670812 1_555
Si36 Si5 2.653400 1_555
Si38 Si4 2.653391 1_455
