# generated using pymatgen
data_Ba2Sr6Co3(CuO4)5
_symmetry_space_group_name_H-M   'P 1'
_cell_length_a   11.14063886
_cell_length_b   11.11013065
_cell_length_c   17.93277597
_cell_angle_alpha   108.13302638
_cell_angle_beta   108.16141739
_cell_angle_gamma   89.60973440
_symmetry_Int_Tables_number   1
_chemical_formula_structural   Ba2Sr6Co3(CuO4)5
_chemical_formula_sum   'Ba8 Sr24 Co12 Cu20 O80'
_cell_volume   1994.26877437
_cell_formula_units_Z   4
loop_
 _symmetry_equiv_pos_site_id
 _symmetry_equiv_pos_as_xyz
  1  'x, y, z'
loop_
 _atom_site_type_symbol
 _atom_site_label
 _atom_site_symmetry_multiplicity
 _atom_site_fract_x
 _atom_site_fract_y
 _atom_site_fract_z
 _atom_site_occupancy
  Ba  Ba0  1  0.30857979  0.05731371  0.11874133  1
  Ba  Ba1  1  0.30677959  0.55742195  0.11800895  1
  Ba  Ba2  1  0.80835406  0.06097374  0.12012436  1
  Ba  Ba3  1  0.80778537  0.55571255  0.12031524  1
  Ba  Ba4  1  0.18652472  0.94313921  0.87648254  1
  Ba  Ba5  1  0.06032177  0.81113970  0.11901650  1
  Ba  Ba6  1  0.55623319  0.31063831  0.11933288  1
  Ba  Ba7  1  0.93389726  0.68726675  0.87537921  1
  Sr  Sr0  1  0.30021138  0.05768072  0.61191622  1
  Sr  Sr1  1  0.30630837  0.55497100  0.60963231  1
  Sr  Sr2  1  0.80518829  0.05624764  0.61020036  1
  Sr  Sr3  1  0.80412634  0.55622429  0.60922779  1
  Sr  Sr4  1  0.19266069  0.44493728  0.38990780  1
  Sr  Sr5  1  0.18820422  0.43905528  0.88497475  1
  Sr  Sr6  1  0.19005537  0.94772331  0.39033271  1
  Sr  Sr7  1  0.69676930  0.44023586  0.38953926  1
  Sr  Sr8  1  0.69485092  0.43974600  0.88520895  1
  Sr  Sr9  1  0.69540281  0.94808570  0.38948596  1
  Sr  Sr10  1  0.69028277  0.94107560  0.88441543  1
  Sr  Sr11  1  0.05681178  0.31270206  0.11105526  1
  Sr  Sr12  1  0.05610639  0.30831031  0.60974963  1
  Sr  Sr13  1  0.05217108  0.80679808  0.60919668  1
  Sr  Sr14  1  0.56091549  0.30309058  0.61300964  1
  Sr  Sr15  1  0.55561237  0.80500771  0.11286869  1
  Sr  Sr16  1  0.55375430  0.79863737  0.61112865  1
  Sr  Sr17  1  0.44338934  0.19181064  0.39141437  1
  Sr  Sr18  1  0.43842797  0.18987750  0.88446980  1
  Sr  Sr19  1  0.44165195  0.69378503  0.39096961  1
  Sr  Sr20  1  0.44552164  0.69360103  0.88359908  1
  Sr  Sr21  1  0.95166921  0.19903583  0.39336994  1
  Sr  Sr22  1  0.94454671  0.19851194  0.88570936  1
  Sr  Sr23  1  0.94435391  0.70252191  0.39259689  1
  Co  Co0  1  0.99128832  0.00185251  0.99243659  1
  Co  Co1  1  0.99408384  0.49551895  0.99030248  1
  Co  Co2  1  0.49287874  0.99641697  0.99194315  1
  Co  Co3  1  0.49946479  0.99938636  0.50152579  1
  Co  Co4  1  0.49194676  0.49175094  0.98541145  1
  Co  Co5  1  0.49778404  0.49469494  0.49686417  1
  Co  Co6  1  0.24176786  0.74034329  0.98593471  1
  Co  Co7  1  0.24962472  0.75223560  0.50150418  1
  Co  Co8  1  0.74446003  0.24600736  0.98723468  1
  Co  Co9  1  0.75307499  0.25148616  0.50177104  1
  Co  Co10  1  0.74506847  0.74602915  0.99533726  1
  Co  Co11  1  0.74950108  0.75084670  0.49723458  1
  Cu  Cu0  1  0.00047721  0.00428068  0.50206001  1
  Cu  Cu1  1  0.00202043  0.50223490  0.50103525  1
  Cu  Cu2  1  0.24475489  0.24827690  0.99304938  1
  Cu  Cu3  1  0.25338773  0.25102114  0.50199799  1
  Cu  Cu4  1  0.12081292  0.11076106  0.25569678  1
  Cu  Cu5  1  0.11148089  0.10360892  0.74438608  1
  Cu  Cu6  1  0.12051381  0.60467214  0.25547170  1
  Cu  Cu7  1  0.11772233  0.59221450  0.74501441  1
  Cu  Cu8  1  0.62034829  0.10131399  0.25400796  1
  Cu  Cu9  1  0.61255746  0.09863260  0.74681270  1
  Cu  Cu10  1  0.61983931  0.61242207  0.25917400  1
  Cu  Cu11  1  0.61115628  0.59866217  0.74854274  1
  Cu  Cu12  1  0.36624337  0.39744917  0.25614288  1
  Cu  Cu13  1  0.36605789  0.39777562  0.74789606  1
  Cu  Cu14  1  0.37592784  0.89925362  0.25876678  1
  Cu  Cu15  1  0.36740153  0.89701100  0.74575397  1
  Cu  Cu16  1  0.87453524  0.40327356  0.25876275  1
  Cu  Cu17  1  0.86368442  0.39294705  0.74527231  1
  Cu  Cu18  1  0.86524619  0.89863128  0.25302784  1
  Cu  Cu19  1  0.85784354  0.90514543  0.74701621  1
  O  O0  1  0.12375679  0.12627482  0.49791667  1
  O  O1  1  0.10772110  0.11963410  0.99634698  1
  O  O2  1  0.12750591  0.63308535  0.49570699  1
  O  O3  1  0.11548478  0.61833151  0.99244042  1
  O  O4  1  0.62219183  0.11927178  0.49515736  1
  O  O5  1  0.61141626  0.10873035  0.99138923  1
  O  O6  1  0.61438005  0.61218365  0.49602076  1
  O  O7  1  0.61168118  0.61253543  0.99368010  1
  O  O8  1  0.12046473  0.37303736  0.99784186  1
  O  O9  1  0.13133058  0.37879257  0.50521377  1
  O  O10  1  0.13405773  0.86424873  0.99666008  1
  O  O11  1  0.12698438  0.87888773  0.50645266  1
  O  O12  1  0.62738904  0.36050070  0.99644190  1
  O  O13  1  0.63151283  0.36736448  0.50346651  1
  O  O14  1  0.62996635  0.86250587  0.99939244  1
  O  O15  1  0.62293511  0.87223054  0.50623131  1
  O  O16  1  0.37840963  0.11512956  0.49826561  1
  O  O17  1  0.36779783  0.12298065  0.99259665  1
  O  O18  1  0.37164694  0.61801348  0.49541386  1
  O  O19  1  0.36496377  0.63132768  0.99267353  1
  O  O20  1  0.86710657  0.13146093  0.49647941  1
  O  O21  1  0.86086602  0.13177462  0.99432897  1
  O  O22  1  0.86519929  0.62962324  0.49791399  1
  O  O23  1  0.86155135  0.62823352  0.99348524  1
  O  O24  1  0.38066507  0.38384107  0.99631515  1
  O  O25  1  0.38872765  0.38059641  0.50633320  1
  O  O26  1  0.38668237  0.87877955  0.99702923  1
  O  O27  1  0.37204636  0.87152925  0.50638023  1
  O  O28  1  0.87518588  0.37918550  0.99683180  1
  O  O29  1  0.87659520  0.38141358  0.50672870  1
  O  O30  1  0.87958723  0.88630456  0.99901738  1
  O  O31  1  0.87379013  0.88310462  0.50560062  1
  O  O32  1  0.07193404  0.09361585  0.14370076  1
  O  O33  1  0.06619975  0.08970857  0.63365649  1
  O  O34  1  0.07053070  0.57887877  0.14337568  1
  O  O35  1  0.07973451  0.58868325  0.63594619  1
  O  O36  1  0.57063818  0.07580195  0.14090237  1
  O  O37  1  0.57682445  0.08300108  0.63618977  1
  O  O38  1  0.57457318  0.59454098  0.14902172  1
  O  O39  1  0.57845688  0.58230234  0.63892224  1
  O  O40  1  0.43812822  0.40755850  0.36659407  1
  O  O41  1  0.44156264  0.41256981  0.86052080  1
  O  O42  1  0.44048515  0.91047010  0.36932980  1
  O  O43  1  0.43762733  0.91225454  0.85779368  1
  O  O44  1  0.94131682  0.41593431  0.36939286  1
  O  O45  1  0.93484372  0.41560590  0.85766093  1
  O  O46  1  0.93406607  0.91402028  0.36391035  1
  O  O47  1  0.92538554  0.92879116  0.86149158  1
  O  O48  1  0.31842153  0.31304656  0.14397177  1
  O  O49  1  0.32618971  0.30492898  0.63662271  1
  O  O50  1  0.33612739  0.81368796  0.14794055  1
  O  O51  1  0.32918457  0.79782249  0.63639732  1
  O  O52  1  0.83378273  0.31489255  0.14801908  1
  O  O53  1  0.81566949  0.29656082  0.63450252  1
  O  O54  1  0.81876417  0.80905256  0.13939594  1
  O  O55  1  0.82269943  0.80304840  0.63781293  1
  O  O56  1  0.19034606  0.20225243  0.36726581  1
  O  O57  1  0.18245203  0.19409160  0.85655898  1
  O  O58  1  0.19477037  0.70466772  0.36494244  1
  O  O59  1  0.18970164  0.68569053  0.85809470  1
  O  O60  1  0.69739638  0.20084765  0.36276518  1
  O  O61  1  0.68848338  0.19495616  0.85904240  1
  O  O62  1  0.68947108  0.70758477  0.37095148  1
  O  O63  1  0.67537053  0.69567338  0.86119988  1
  O  O64  1  0.47235425  0.04642453  0.26418010  1
  O  O65  1  0.45397658  0.05230373  0.74785319  1
  O  O66  1  0.47244509  0.53836019  0.26273252  1
  O  O67  1  0.45061392  0.54860880  0.74662188  1
  O  O68  1  0.97412242  0.03968773  0.26205508  1
  O  O69  1  0.95519342  0.05028753  0.74839766  1
  O  O70  1  0.97205668  0.55052328  0.26577350  1
  O  O71  1  0.95806539  0.52895853  0.73552039  1
  O  O72  1  0.20859053  0.45285474  0.25324904  1
  O  O73  1  0.20441553  0.43884511  0.74782728  1
  O  O74  1  0.22576204  0.97307857  0.26129819  1
  O  O75  1  0.20894965  0.96093951  0.73613121  1
  O  O76  1  0.72362985  0.47161378  0.26167206  1
  O  O77  1  0.70786748  0.45321644  0.75102398  1
  O  O78  1  0.70659526  0.94778395  0.25097323  1
  O  O79  1  0.69620072  0.94362315  0.74627709  1
loop_
_geom_bond_atom_site_label_1
_geom_bond_atom_site_label_2
_geom_bond_distance
_geom_bond_site_symmetry_2
Ba0 O64 2.715293 1_555
Ba0 O48 2.731748 1_555
Ba0 O10 2.766656 1_544
Ba0 O26 2.814430 1_544
Ba0 O32 2.814657 1_555
Ba0 O36 2.820935 1_555
Ba0 O17 2.837055 1_554
Ba0 O1 2.857833 1_554
Ba0 O50 2.909531 1_545
Ba1 O50 2.730073 1_555
Ba1 O66 2.745454 1_555
Ba1 O24 2.763639 1_554
Ba1 O8 2.769549 1_554
Ba1 O34 2.803803 1_555
Ba1 O3 2.829763 1_554
Ba1 O19 2.865374 1_554
Ba1 O38 2.866996 1_555
Ba1 O48 2.889539 1_555
Ba2 O52 2.707967 1_555
Ba2 O68 2.717186 1_555
Ba2 O30 2.746347 1_544
Ba2 O36 2.783972 1_555
Ba2 O14 2.811576 1_544
Ba2 O21 2.825489 1_554
Ba2 O5 2.830868 1_554
Ba2 O32 2.842206 1_655
Ba2 O54 2.922203 1_545
Ba3 O70 2.696838 1_555
Ba3 O54 2.726421 1_555
Ba3 O28 2.761715 1_554
Ba3 O38 2.807432 1_555
Ba3 O12 2.820442 1_554
Ba3 O34 2.827521 1_655
Ba3 O7 2.847699 1_554
Ba3 O23 2.859621 1_554
Ba3 O52 2.866417 1_555
Ba4 O75 2.671841 1_555
Ba4 O17 2.692631 1_565
Ba4 O59 2.776699 1_555
Ba4 O10 2.778927 1_555
Ba4 O1 2.786672 1_565
Ba4 O47 2.837878 1_455
Ba4 O26 2.844678 1_555
Ba4 O57 2.917450 1_565
Ba4 O43 2.924987 1_555
Ba5 O74 2.720364 1_555
Ba5 O34 2.743927 1_555
Ba5 O10 2.788107 1_554
Ba5 O30 2.788707 1_454
Ba5 O3 2.818466 1_554
Ba5 O54 2.827609 1_455
Ba5 O23 2.864795 1_454
Ba5 O50 2.951193 1_555
Ba5 O32 3.027709 1_565
Ba6 O76 2.725492 1_555
Ba6 O36 2.750699 1_555
Ba6 O12 2.765298 1_554
Ba6 O24 2.785505 1_554
Ba6 O48 2.817188 1_555
Ba6 O17 2.838146 1_554
Ba6 O5 2.886364 1_554
Ba6 O52 2.970368 1_555
Ba6 O38 3.028174 1_555
Ba7 O71 2.669281 1_555
Ba7 O3 2.723626 1_655
Ba7 O23 2.738897 1_555
Ba7 O47 2.769342 1_555
Ba7 O63 2.814825 1_555
Ba7 O30 2.817480 1_555
Ba7 O10 2.818424 1_655
Ba7 O45 2.935176 1_555
Ba7 O59 2.960486 1_655
Co0 O1 1.819102 1_655
Co0 O30 1.848822 1_545
Co0 O21 2.041459 1_555
Co0 O47 2.111619 1_545
Co0 O10 2.199234 1_645
Co0 O32 2.444698 1_656
Co1 O3 1.911203 1_655
Co1 O28 1.911278 1_555
Co1 O8 1.955027 1_655
Co1 O23 2.080354 1_555
Co1 O45 2.143959 1_555
Co1 O34 2.467623 1_656
Co2 O26 1.810726 1_555
Co2 O5 1.827410 1_565
Co2 O17 1.972913 1_565
Co2 O14 2.128227 1_555
Co2 O43 2.173719 1_555
Co2 O36 2.401101 1_566
Co3 O16 1.857375 1_565
Co3 O15 1.967325 1_555
Co3 O4 1.968080 1_565
Co3 O27 2.054738 1_555
Co3 O42 2.146548 1_555
Co3 O37 2.180500 1_565
Co4 O24 1.824784 1_555
Co4 O7 1.838296 1_555
Co4 O41 2.025242 1_555
Co4 O19 2.093379 1_555
Co4 O12 2.099004 1_555
Co4 O38 2.646675 1_556
Co5 O25 1.842680 1_555
Co5 O6 1.854452 1_555
Co5 O18 1.955940 1_555
Co5 O13 2.049496 1_555
Co5 O40 2.114114 1_555
Co5 O39 2.299149 1_555
Co6 O10 1.824419 1_555
Co6 O19 1.824918 1_555
Co6 O3 2.014251 1_555
Co6 O59 2.066444 1_555
Co6 O26 2.157476 1_555
Co6 O50 2.616029 1_556
Co7 O2 1.861398 1_555
Co7 O27 1.871495 1_555
Co7 O11 1.956090 1_555
Co7 O18 2.011772 1_555
Co7 O51 2.191037 1_555
Co7 O58 2.217179 1_555
Co8 O21 1.812159 1_555
Co8 O12 1.824090 1_555
Co8 O28 2.013585 1_555
Co8 O61 2.072393 1_555
Co8 O5 2.167703 1_555
Co8 O52 2.595697 1_556
Co9 O20 1.836954 1_555
Co9 O13 1.862796 1_555
Co9 O29 1.963714 1_555
Co9 O4 2.027521 1_555
Co9 O53 2.151908 1_555
Co9 O60 2.254560 1_555
Co10 O14 1.816915 1_555
Co10 O23 1.836995 1_555
Co10 O7 2.093772 1_555
Co10 O30 2.141315 1_555
Co10 O63 2.169338 1_555
Co10 O54 2.323328 1_556
Co11 O22 1.858013 1_555
Co11 O15 1.952787 1_555
Co11 O31 1.964671 1_555
Co11 O62 2.046815 1_555
Co11 O6 2.151775 1_555
Co11 O55 2.274077 1_555
Cu0 O0 1.969892 1_555
Cu0 O11 1.976284 1_545
Cu0 O31 1.985810 1_445
Cu0 O20 2.044744 1_455
Cu0 O33 2.131703 1_555
Cu0 O46 2.238670 1_445
Cu1 O9 1.982826 1_555
Cu1 O29 1.991129 1_455
Cu1 O2 2.067452 1_555
Cu1 O22 2.072766 1_455
Cu1 O44 2.134088 1_455
Cu1 O35 2.187330 1_555
Cu2 O17 1.947005 1_555
Cu2 O8 1.954451 1_555
Cu2 O24 2.117861 1_555
Cu2 O1 2.124964 1_555
Cu2 O57 2.205587 1_555
Cu2 O48 2.434626 1_556
Cu3 O9 1.959373 1_555
Cu3 O0 1.977391 1_555
Cu3 O16 2.047052 1_555
Cu3 O25 2.058810 1_555
Cu3 O49 2.175049 1_555
Cu3 O56 2.181049 1_555
Cu4 O56 1.847958 1_555
Cu4 O32 1.856875 1_555
Cu4 O68 1.870027 1_455
Cu4 O74 1.927453 1_545
Cu5 O33 1.845812 1_555
Cu5 O57 1.855474 1_555
Cu5 O69 1.872528 1_455
Cu5 O75 1.908975 1_545
Cu6 O34 1.838173 1_555
Cu6 O70 1.845174 1_455
Cu6 O58 1.847978 1_555
Cu6 O72 1.941490 1_555
Cu7 O71 1.854822 1_455
Cu7 O35 1.855431 1_555
Cu7 O59 1.876302 1_555
Cu7 O73 1.959469 1_555
Cu8 O60 1.841269 1_555
Cu8 O64 1.842272 1_555
Cu8 O36 1.856092 1_555
Cu8 O78 1.946335 1_545
Cu9 O37 1.848837 1_555
Cu9 O65 1.850784 1_555
Cu9 O61 1.876623 1_555
Cu9 O79 1.951340 1_545
Cu10 O38 1.825334 1_555
Cu10 O62 1.860167 1_555
Cu10 O66 1.869205 1_555
Cu10 O76 1.942434 1_555
Cu11 O39 1.833627 1_555
Cu11 O67 1.863476 1_555
Cu11 O63 1.873251 1_555
Cu11 O77 1.940406 1_555
Cu12 O48 1.836868 1_555
Cu12 O72 1.847897 1_555
Cu12 O40 1.857697 1_555
Cu12 O66 1.920327 1_555
Cu13 O49 1.848143 1_555
Cu13 O73 1.854414 1_555
Cu13 O41 1.884104 1_555
Cu13 O67 1.937753 1_555
Cu14 O50 1.824982 1_555
Cu14 O42 1.849969 1_555
Cu14 O74 1.865210 1_555
Cu14 O64 1.922777 1_565
Cu15 O51 1.839072 1_555
Cu15 O43 1.867533 1_555
Cu15 O75 1.876081 1_555
Cu15 O65 1.966730 1_565
Cu16 O52 1.828787 1_555
Cu16 O44 1.848454 1_555
Cu16 O76 1.848842 1_555
Cu16 O70 1.919271 1_555
Cu17 O53 1.843926 1_555
Cu17 O45 1.855995 1_555
Cu17 O77 1.877537 1_555
Cu17 O71 1.928824 1_555
Cu18 O78 1.839107 1_555
Cu18 O46 1.846812 1_555
Cu18 O54 1.870262 1_555
Cu18 O68 1.923280 1_565
Cu19 O79 1.844988 1_555
Cu19 O55 1.849424 1_555
Cu19 O47 1.885075 1_555
Cu19 O69 1.938907 1_565
O0 Sr21 2.554509 1_455
O0 Sr6 2.586308 1_545
O0 Sr0 2.658678 1_555
O0 Sr12 2.660273 1_555
O1 Sr22 2.611740 1_455
O1 Sr11 2.668032 1_556
O2 Sr23 2.586882 1_455
O2 Sr4 2.620176 1_555
O2 Sr13 2.677501 1_555
O2 Sr1 2.727289 1_555
O3 Sr5 2.626691 1_555
O4 Sr9 2.563675 1_545
O4 Sr17 2.584517 1_555
O4 Sr2 2.675911 1_555
O4 Sr14 2.701329 1_555
O5 Sr10 2.593415 1_545
O5 Sr18 2.636658 1_555
O6 Sr19 2.617871 1_555
O6 Sr7 2.633687 1_555
O6 Sr3 2.658746 1_555
O6 Sr16 2.682680 1_555
O7 Sr20 2.634518 1_555
O7 Sr8 2.665063 1_555
O7 Sr15 2.738696 1_556
O8 Sr22 2.610034 1_455
O8 Sr11 2.612497 1_556
O8 Sr5 2.662319 1_555
O9 Sr1 2.575400 1_555
O9 Sr12 2.594557 1_555
O9 Sr21 2.660078 1_455
O9 Sr4 2.667566 1_555
O11 Sr13 2.572130 1_555
O11 Sr0 2.585644 1_565
O11 Sr23 2.668756 1_455
O11 Sr6 2.706566 1_555
O12 Sr18 2.665900 1_555
O12 Sr8 2.712124 1_555
O13 Sr14 2.613689 1_555
O13 Sr3 2.646140 1_555
O13 Sr17 2.687972 1_555
O13 Sr7 2.705822 1_555
O14 Sr20 2.650052 1_555
O14 Sr15 2.665036 1_556
O14 Sr10 2.730710 1_555
O15 Sr16 2.582788 1_555
O15 Sr2 2.665063 1_565
O15 Sr19 2.680148 1_555
O15 Sr9 2.811802 1_555
O16 Sr17 2.609725 1_555
O16 Sr6 2.624744 1_545
O16 Sr0 2.691502 1_555
O16 Sr14 2.739349 1_555
O17 Sr18 2.605276 1_555
O18 Sr4 2.586345 1_555
O18 Sr19 2.593443 1_555
O18 Sr1 2.654269 1_555
O18 Sr16 2.699647 1_555
O19 Sr20 2.656169 1_555
O19 Sr5 2.699907 1_555
O19 Sr15 2.737428 1_556
O20 Sr9 2.612116 1_545
O20 Sr21 2.613377 1_555
O20 Sr2 2.697875 1_555
O20 Sr12 2.706637 1_655
O21 Sr10 2.665675 1_545
O21 Sr22 2.693212 1_555
O21 Sr11 2.789215 1_656
O22 Sr7 2.638252 1_555
O22 Sr3 2.641982 1_555
O22 Sr23 2.645860 1_555
O22 Sr13 2.686156 1_655
O23 Sr8 2.622705 1_555
O24 Sr5 2.652526 1_555
O24 Sr18 2.678836 1_555
O25 Sr14 2.606932 1_555
O25 Sr1 2.613452 1_555
O25 Sr17 2.662982 1_555
O25 Sr4 2.775967 1_555
O26 Sr20 2.647262 1_555
O26 Sr15 2.670308 1_556
O27 Sr16 2.614643 1_555
O27 Sr0 2.642883 1_565
O27 Sr19 2.687013 1_555
O27 Sr6 2.756993 1_555
O28 Sr8 2.609356 1_555
O28 Sr22 2.654495 1_555
O28 Sr11 2.678285 1_656
O29 Sr3 2.546388 1_555
O29 Sr12 2.584730 1_655
O29 Sr7 2.658854 1_555
O29 Sr21 2.722229 1_555
O30 Sr10 2.664704 1_555
O31 Sr2 2.535876 1_565
O31 Sr13 2.602918 1_655
O31 Sr9 2.672646 1_555
O31 Sr23 2.681553 1_555
O32 Sr11 2.667533 1_555
O33 Sr12 2.590237 1_555
O33 Sr0 2.758602 1_555
O33 Sr2 2.815233 1_455
O33 Sr13 3.033504 1_545
O34 Sr11 2.826432 1_555
O35 Sr13 2.611187 1_555
O35 Sr1 2.711838 1_555
O35 Sr3 2.962721 1_455
O35 Sr12 3.002716 1_555
O36 Sr15 2.888797 1_545
O37 Sr14 2.600802 1_555
O37 Sr2 2.724104 1_555
O37 Sr0 2.977335 1_555
O37 Sr16 3.050344 1_545
O38 Sr15 2.604644 1_555
O39 Sr16 2.598492 1_555
O39 Sr3 2.723386 1_555
O39 Sr1 2.912228 1_555
O39 Sr14 2.988547 1_555
O40 Sr17 2.567684 1_555
O40 Sr7 2.790322 1_555
O40 Sr4 2.900833 1_555
O40 Sr19 3.070973 1_555
O41 Sr18 2.641773 1_555
O41 Sr8 2.720165 1_555
O41 Sr5 2.987608 1_555
O41 Sr20 3.017966 1_555
O42 Sr19 2.554264 1_555
O42 Sr9 2.766372 1_555
O42 Sr6 2.939264 1_555
O42 Sr17 3.025052 1_565
O43 Sr20 2.606663 1_555
O43 Sr10 2.707888 1_555
O43 Sr18 2.970168 1_565
O44 Sr21 2.572046 1_555
O44 Sr4 2.715922 1_655
O44 Sr7 2.858096 1_555
O44 Sr23 3.079012 1_555
O45 Sr22 2.607650 1_555
O45 Sr5 2.709903 1_655
O45 Sr8 2.862806 1_555
O46 Sr23 2.551706 1_555
O46 Sr6 2.749489 1_655
O46 Sr9 2.839293 1_555
O46 Sr21 3.040930 1_565
O47 Sr10 2.771142 1_555
O47 Sr22 2.890475 1_565
O48 Sr11 2.787299 1_555
O49 Sr0 2.645598 1_555
O49 Sr14 2.775266 1_555
O49 Sr12 2.897056 1_555
O49 Sr1 2.960124 1_555
O50 Sr15 2.702149 1_555
O51 Sr1 2.588854 1_555
O51 Sr16 2.678481 1_555
O51 Sr13 2.976508 1_555
O51 Sr0 3.052855 1_565
O52 Sr11 2.762157 1_655
O53 Sr2 2.565200 1_555
O53 Sr14 2.746167 1_555
O53 Sr12 2.858519 1_655
O53 Sr3 3.052391 1_555
O54 Sr15 2.818183 1_555
O55 Sr3 2.625288 1_555
O55 Sr13 2.762816 1_655
O55 Sr16 2.881377 1_555
O55 Sr2 2.999333 1_565
O56 Sr4 2.597755 1_555
O56 Sr17 2.722847 1_555
O56 Sr21 2.842257 1_455
O56 Sr6 2.982773 1_545
O57 Sr5 2.605675 1_555
O57 Sr18 2.740088 1_555
O57 Sr22 2.854180 1_455
O58 Sr6 2.598034 1_555
O58 Sr19 2.650962 1_555
O58 Sr23 2.983324 1_455
O58 Sr4 3.056063 1_555
O59 Sr20 2.739563 1_555
O59 Sr5 2.927260 1_555
O60 Sr7 2.551708 1_555
O60 Sr21 2.713498 1_555
O60 Sr9 2.993538 1_545
O60 Sr17 3.037118 1_555
O61 Sr8 2.609450 1_555
O61 Sr22 2.739990 1_555
O61 Sr18 2.963391 1_555
O61 Sr10 2.992639 1_545
O62 Sr9 2.586565 1_555
O62 Sr23 2.746130 1_555
O62 Sr19 2.903895 1_555
O62 Sr7 3.088103 1_555
O63 Sr10 2.625068 1_555
O63 Sr20 2.714154 1_555
O63 Sr8 3.002112 1_555
O64 Sr17 2.465165 1_555
O64 Sr9 3.229256 1_545
O65 Sr18 2.509663 1_555
O65 Sr0 2.523215 1_555
O66 Sr19 2.529792 1_555
O66 Sr7 3.250903 1_555
O67 Sr20 2.500921 1_555
O67 Sr1 2.503795 1_555
O68 Sr21 2.551136 1_555
O68 Sr6 3.178440 1_645
O69 Sr22 2.538636 1_555
O69 Sr2 2.541210 1_555
O70 Sr23 2.481796 1_555
O70 Sr4 3.247655 1_655
O71 Sr3 2.482099 1_555
O71 Sr12 3.216693 1_655
O72 Sr4 2.539791 1_555
O72 Sr11 2.581176 1_555
O73 Sr12 2.492264 1_555
O73 Sr5 2.520866 1_555
O74 Sr6 2.563791 1_555
O75 Sr13 2.510129 1_555
O75 Sr0 3.172965 1_565
O76 Sr7 2.528978 1_555
O77 Sr8 2.505141 1_555
O77 Sr14 2.555286 1_555
O78 Sr9 2.524539 1_555
O78 Sr15 2.544247 1_555
O79 Sr16 2.488791 1_555
O79 Sr10 2.507423 1_555
