# generated using pymatgen
data_CaH6(C2O3)2
_symmetry_space_group_name_H-M   'P 1'
_cell_length_a   6.11345900
_cell_length_b   10.45120091
_cell_length_c   16.79950131
_cell_angle_alpha   107.41331433
_cell_angle_beta   100.19086092
_cell_angle_gamma   90.57588398
_symmetry_Int_Tables_number   1
_chemical_formula_structural   CaH6(C2O3)2
_chemical_formula_sum   'Ca6 H36 C24 O36'
_cell_volume   1005.75038007
_cell_formula_units_Z   6
loop_
 _symmetry_equiv_pos_site_id
 _symmetry_equiv_pos_as_xyz
  1  'x, y, z'
loop_
 _atom_site_type_symbol
 _atom_site_label
 _atom_site_symmetry_multiplicity
 _atom_site_fract_x
 _atom_site_fract_y
 _atom_site_fract_z
 _atom_site_occupancy
  Ca  Ca0  1  0.25216000  0.11801300  0.99602900  1
  Ca  Ca1  1  0.74784000  0.88198700  0.00397100  1
  Ca  Ca2  1  0.95315200  0.80468900  0.39047900  1
  Ca  Ca3  1  0.04684800  0.19531100  0.60952100  1
  Ca  Ca4  1  0.45552000  0.57509200  0.39422000  1
  Ca  Ca5  1  0.54448000  0.42490800  0.60578000  1
  H  H0  1  0.47975600  0.33444700  0.96262600  1
  H  H1  1  0.52024400  0.66555300  0.03737400  1
  H  H2  1  0.54294300  0.39808600  0.06180200  1
  H  H3  1  0.45705700  0.60191400  0.93819800  1
  H  H4  1  0.81296800  0.25902700  0.98295400  1
  H  H5  1  0.18703200  0.74097300  0.01704600  1
  H  H6  1  0.93202100  0.30511700  0.91943100  1
  H  H7  1  0.06797900  0.69488300  0.08056900  1
  H  H8  1  0.28203400  0.34239000  0.24340600  1
  H  H9  1  0.71796600  0.65761000  0.75659400  1
  H  H10  1  0.15428500  0.97217700  0.63498600  1
  H  H11  1  0.84571500  0.02782300  0.36501400  1
  H  H12  1  0.74859100  0.25138400  0.20510400  1
  H  H13  1  0.25140900  0.74861600  0.79489600  1
  H  H14  1  0.91627000  0.13103100  0.23339900  1
  H  H15  1  0.08373000  0.86896900  0.76660100  1
  H  H16  1  0.03167900  0.18510000  0.36466000  1
  H  H17  1  0.96832100  0.81490000  0.63534000  1
  H  H18  1  0.83922800  0.30863200  0.39153000  1
  H  H19  1  0.16077200  0.69136800  0.60847000  1
  H  H20  1  0.49706200  0.81551900  0.63165600  1
  H  H21  1  0.50293800  0.18448100  0.36834400  1
  H  H22  1  0.67006400  0.92292200  0.60351800  1
  H  H23  1  0.32993600  0.07707800  0.39648200  1
  H  H24  1  0.74762900  0.03777700  0.79179100  1
  H  H25  1  0.25237100  0.96222300  0.20820900  1
  H  H26  1  0.58013400  0.88752500  0.76073700  1
  H  H27  1  0.41986600  0.11247500  0.23926300  1
  H  H28  1  0.88122400  0.50328100  0.85658600  1
  H  H29  1  0.11877600  0.49671900  0.14341400  1
  H  H30  1  0.88357900  0.35956600  0.79067000  1
  H  H31  1  0.11642100  0.64043400  0.20933000  1
  H  H32  1  0.22921300  0.42282700  0.86585300  1
  H  H33  1  0.77078700  0.57717300  0.13414700  1
  H  H34  1  0.43151000  0.39925900  0.81955600  1
  H  H35  1  0.56849000  0.60074100  0.18044400  1
  C  C0  1  0.02637800  0.20600900  0.14278000  1
  C  C1  1  0.97362200  0.79399100  0.85722000  1
  C  C2  1  0.92292100  0.22883200  0.22163000  1
  C  C3  1  0.07707900  0.77116800  0.77837000  1
  C  C4  1  0.03879400  0.33893100  0.30363700  1
  C  C5  1  0.96120600  0.66106900  0.69636300  1
  C  C6  1  0.01039000  0.29327200  0.38046000  1
  C  C7  1  0.98961000  0.70672800  0.61954000  1
  C  C8  1  0.16504600  0.35913300  0.46470000  1
  C  C9  1  0.83495400  0.64086700  0.53530000  1
  C  C10  1  0.92704500  0.47446200  0.31355000  1
  C  C11  1  0.07295500  0.52553800  0.68645000  1
  C  C12  1  0.34049600  0.88825300  0.53190100  1
  C  C13  1  0.65950400  0.11174700  0.46809900  1
  C  C14  1  0.50191100  0.90989500  0.61565900  1
  C  C15  1  0.49808900  0.09010500  0.38434100  1
  C  C16  1  0.46196400  0.02755300  0.69223900  1
  C  C17  1  0.53803600  0.97244700  0.30776100  1
  C  C18  1  0.57330100  0.99676600  0.77441800  1
  C  C19  1  0.42669900  0.00323400  0.22558200  1
  C  C20  1  0.47065100  0.04482700  0.85386400  1
  C  C21  1  0.52934900  0.95517300  0.14613600  1
  C  C22  1  0.56896000  0.16047900  0.68750500  1
  C  C23  1  0.43104000  0.83952100  0.31249500  1
  O  O0  1  0.18057300  0.28999900  0.14172200  1
  O  O1  1  0.81942700  0.71000100  0.85827800  1
  O  O2  1  0.52480200  0.31066500  0.01548900  1
  O  O3  1  0.47519800  0.68933500  0.98451100  1
  O  O4  1  0.96050900  0.10144600  0.08065900  1
  O  O5  1  0.03949100  0.89855400  0.91934100  1
  O  O6  1  0.94468800  0.24619300  0.95581900  1
  O  O7  1  0.05531200  0.75380700  0.04418100  1
  O  O8  1  0.18481600  0.29429900  0.51894300  1
  O  O9  1  0.81518400  0.70570100  0.48105700  1
  O  O10  1  0.27272700  0.47102200  0.48034700  1
  O  O11  1  0.72727300  0.52897800  0.51965300  1
  O  O12  1  0.05443100  0.57999400  0.32760900  1
  O  O13  1  0.94556900  0.42000600  0.67239100  1
  O  O14  1  0.71945300  0.47168300  0.30999500  1
  O  O15  1  0.28054700  0.52831700  0.69000500  1
  O  O16  1  0.27311600  0.35623600  0.30486000  1
  O  O17  1  0.72688400  0.64376400  0.69514000  1
  O  O18  1  0.21806900  0.98114100  0.51913800  1
  O  O19  1  0.78193100  0.01885900  0.48086200  1
  O  O20  1  0.32387200  0.77261400  0.47712300  1
  O  O21  1  0.67612800  0.22738600  0.52287700  1
  O  O22  1  0.53676000  0.99025500  0.91261000  1
  O  O23  1  0.46324000  0.00974500  0.08739000  1
  O  O24  1  0.32808500  0.13162300  0.86087400  1
  O  O25  1  0.67191500  0.86837700  0.13912600  1
  O  O26  1  0.44284700  0.25340200  0.67708500  1
  O  O27  1  0.55715300  0.74659800  0.32291500  1
  O  O28  1  0.77832200  0.16720000  0.69364700  1
  O  O29  1  0.22167800  0.83280000  0.30635300  1
  O  O30  1  0.22409100  0.03712200  0.68888200  1
  O  O31  1  0.77590900  0.96287800  0.31111800  1
  O  O32  1  0.93334400  0.41286400  0.85050800  1
  O  O33  1  0.06665600  0.58713600  0.14949200  1
  O  O34  1  0.39428000  0.43636000  0.87582300  1
  O  O35  1  0.60572000  0.56364000  0.12417700  1
loop_
_geom_bond_atom_site_label_1
_geom_bond_atom_site_label_2
_geom_bond_distance
_geom_bond_site_symmetry_2
Ca0 O23 2.381010 1_556
Ca0 O6 2.434585 1_455
Ca0 O24 2.440476 1_555
Ca0 O5 2.487881 1_545
Ca0 O4 2.503707 1_456
Ca0 O2 2.506943 1_556
Ca0 O22 2.561934 1_545
Ca0 O0 2.678561 1_556
Ca1 O22 2.381010 1_554
Ca1 O7 2.434585 1_655
Ca1 O25 2.440476 1_555
Ca1 O4 2.487881 1_565
Ca1 O5 2.503707 1_654
Ca1 O3 2.506943 1_554
Ca1 O23 2.561934 1_565
Ca1 O1 2.678561 1_554
Ca2 O9 2.340087 1_555
Ca2 O12 2.406176 1_655
Ca2 O29 2.416272 1_655
Ca2 O27 2.470516 1_555
Ca2 O20 2.550990 1_655
Ca2 O31 2.555184 1_555
Ca2 H11 2.565384 1_565
Ca2 O19 2.643229 1_565
Ca2 O18 2.647847 1_655
Ca3 O8 2.340087 1_555
Ca3 O13 2.406176 1_455
Ca3 O28 2.416272 1_455
Ca3 O26 2.470516 1_555
Ca3 O21 2.550990 1_455
Ca3 O30 2.555184 1_555
Ca3 H10 2.565384 1_545
Ca3 O18 2.643229 1_545
Ca3 O19 2.647847 1_455
Ca4 O20 2.357579 1_555
Ca4 O14 2.387731 1_555
Ca4 O10 2.452533 1_555
Ca4 O16 2.455623 1_555
Ca4 O12 2.516595 1_555
Ca4 O9 2.537496 1_555
Ca4 O27 2.561239 1_555
Ca4 O11 2.611102 1_555
Ca5 O21 2.357579 1_555
Ca5 O15 2.387731 1_555
Ca5 O11 2.452533 1_555
Ca5 O17 2.455623 1_555
Ca5 O13 2.516595 1_555
Ca5 O8 2.537496 1_555
Ca5 O26 2.561239 1_555
Ca5 O10 2.611102 1_555
H0 O2 0.986527 1_556
H1 O3 0.986527 1_554
H2 O2 0.997180 1_555
H3 O3 0.997180 1_555
H4 O6 0.984741 1_555
H5 O7 0.984741 1_555
H6 O6 0.984100 1_555
H7 O7 0.984100 1_555
H8 O16 1.010156 1_555
H8 O0 1.631271 1_555
H9 O17 1.010156 1_555
H9 O1 1.631271 1_555
H10 O30 0.975829 1_565
H11 O31 0.975829 1_545
H28 O32 0.982206 1_555
H29 O33 0.982206 1_555
H30 O32 0.983154 1_555
H31 O33 0.983154 1_555
H32 O34 0.994759 1_555
H33 O35 0.994759 1_555
H34 O34 0.976830 1_555
H35 O35 0.976830 1_555
C0 O4 1.267024 1_455
C0 O0 1.287669 1_555
C1 O5 1.267024 1_655
C1 O1 1.287669 1_555
C2 H12 1.099084 1_555
C2 H14 1.099307 1_555
C3 H13 1.099084 1_555
C3 H15 1.099307 1_555
C4 O16 1.437843 1_555
C5 O17 1.437843 1_555
C6 H16 1.095930 1_555
C6 H18 1.099845 1_455
C7 H17 1.095930 1_555
C7 H19 1.099845 1_655
C8 O10 1.268547 1_555
C8 O8 1.279205 1_555
C9 O11 1.268547 1_555
C9 O9 1.279205 1_555
C10 O14 1.259539 1_555
C10 O12 1.280807 1_655
C11 O15 1.259539 1_555
C11 O13 1.280807 1_455
C12 O20 1.271448 1_555
C12 O18 1.277103 1_555
C13 O21 1.271448 1_555
C13 O19 1.277103 1_555
C14 H22 1.097686 1_555
C14 H20 1.098570 1_555
C15 H23 1.097686 1_555
C15 H21 1.098570 1_555
C16 O30 1.450943 1_555
C17 O31 1.450943 1_555
C18 H26 1.097884 1_555
C18 H24 1.100267 1_565
C19 H27 1.097884 1_555
C19 H25 1.100267 1_545
C20 O24 1.258829 1_555
C20 O22 1.289573 1_545
C21 O25 1.258829 1_555
C21 O23 1.289573 1_565
C22 O28 1.265272 1_555
C22 O26 1.279552 1_555
C23 O29 1.265272 1_555
C23 O27 1.279552 1_555
