# generated using pymatgen
data_Li9Mn7O16
_symmetry_space_group_name_H-M   'P 1'
_cell_length_a   9.28540721
_cell_length_b   9.28540721
_cell_length_c   5.85229330
_cell_angle_alpha   89.46397037
_cell_angle_beta   89.46397037
_cell_angle_gamma   36.09301705
_symmetry_Int_Tables_number   1
_chemical_formula_structural   Li9Mn7O16
_chemical_formula_sum   'Li9 Mn7 O16'
_cell_volume   297.23122249
_cell_formula_units_Z   1
loop_
 _symmetry_equiv_pos_site_id
 _symmetry_equiv_pos_as_xyz
  1  'x, y, z'
loop_
 _atom_site_type_symbol
 _atom_site_label
 _atom_site_symmetry_multiplicity
 _atom_site_fract_x
 _atom_site_fract_y
 _atom_site_fract_z
 _atom_site_occupancy
  Li  Li0  1  0.13361800  0.62511800  0.24799000  1
  Li  Li1  1  0.86638200  0.37488200  0.75201000  1
  Li  Li2  1  0.25038000  0.25038000  0.99922800  1
  Li  Li3  1  0.00000000  0.00000000  0.50000000  1
  Li  Li4  1  0.37488200  0.86638200  0.75201000  1
  Li  Li5  1  0.50000000  0.50000000  0.50000000  1
  Li  Li6  1  0.62511800  0.13361800  0.24799000  1
  Li  Li7  1  0.74962000  0.74962000  0.00077200  1
  Li  Li8  1  0.50000000  0.50000000  0.00000000  1
  Mn  Mn0  1  0.00000000  0.00000000  0.00000000  1
  Mn  Mn1  1  0.13110100  0.62845900  0.75334800  1
  Mn  Mn2  1  0.75034500  0.75034500  0.50027400  1
  Mn  Mn3  1  0.24965500  0.24965500  0.49972600  1
  Mn  Mn4  1  0.86889900  0.37154100  0.24665200  1
  Mn  Mn5  1  0.62845900  0.13110100  0.75334800  1
  Mn  Mn6  1  0.37154100  0.86889900  0.24665200  1
  O  O0  1  0.24482900  0.76768300  0.23556300  1
  O  O1  1  0.00276400  0.50252100  0.72783800  1
  O  O2  1  0.37225400  0.37225400  0.97563500  1
  O  O3  1  0.12483900  0.12483900  0.47356500  1
  O  O4  1  0.50252100  0.00276400  0.72783800  1
  O  O5  1  0.62254400  0.62254400  0.48055000  1
  O  O6  1  0.76768300  0.24482900  0.23556300  1
  O  O7  1  0.87141900  0.87141900  0.98379000  1
  O  O8  1  0.99723600  0.49747900  0.27216200  1
  O  O9  1  0.75517100  0.23231700  0.76443700  1
  O  O10  1  0.12858100  0.12858100  0.01621000  1
  O  O11  1  0.87516100  0.87516100  0.52643500  1
  O  O12  1  0.23231700  0.75517100  0.76443700  1
  O  O13  1  0.37745600  0.37745600  0.51945000  1
  O  O14  1  0.49747900  0.99723600  0.27216200  1
  O  O15  1  0.62774600  0.62774600  0.02436500  1
loop_
_geom_bond_atom_site_label_1
_geom_bond_atom_site_label_2
_geom_bond_distance
_geom_bond_site_symmetry_2
Li0 O13 2.126685 1_555
Li0 O7 2.134045 1_454
Li0 O2 2.135203 1_554
Li0 O11 2.190447 1_455
Li0 O0 2.242770 1_555
Li0 O8 2.333974 1_455
Li1 O5 2.126685 1_555
Li1 O10 2.134045 1_656
Li1 O15 2.135203 1_556
Li1 O3 2.190447 1_655
Li1 O9 2.242770 1_555
Li1 O1 2.333974 1_655
Li2 O4 2.142306 1_555
Li2 O1 2.142306 1_555
Li2 O8 2.150140 1_456
Li2 O14 2.150140 1_546
Li2 O10 2.151951 1_556
Li2 O2 2.155026 1_555
Li3 O12 2.070651 1_545
Li3 O9 2.070651 1_455
Li3 O0 2.070651 1_545
Li3 O6 2.070651 1_455
Li3 O3 2.208214 1_555
Li3 O11 2.208214 1_445
Li4 O5 2.126685 1_555
Li4 O10 2.134045 1_566
Li4 O15 2.135203 1_556
Li4 O3 2.190447 1_565
Li4 O12 2.242770 1_555
Li4 O4 2.333974 1_565
Li5 O12 2.160046 1_555
Li5 O9 2.160046 1_555
Li5 O6 2.160046 1_555
Li5 O0 2.160046 1_555
Li5 O5 2.165661 1_555
Li5 O13 2.165661 1_555
Li6 O13 2.126685 1_555
Li6 O7 2.134045 1_544
Li6 O2 2.135203 1_554
Li6 O11 2.190447 1_545
Li6 O6 2.242770 1_555
Li6 O14 2.333974 1_545
Li7 O14 2.142306 1_555
Li7 O8 2.142306 1_555
Li7 O1 2.150140 1_654
Li7 O4 2.150140 1_564
Li7 O7 2.151951 1_554
Li7 O15 2.155026 1_555
Li8 O0 2.043943 1_555
Li8 O6 2.043943 1_555
Li8 O9 2.043943 1_554
Li8 O12 2.043943 1_554
Li8 O15 2.261543 1_555
Li8 O2 2.261543 1_554
Mn0 O0 1.949230 1_545
Mn0 O6 1.949230 1_455
Mn0 O9 1.949230 1_454
Mn0 O12 1.949230 1_544
Mn0 O10 2.273298 1_555
Mn0 O7 2.273298 1_444
Mn1 O2 1.937357 1_555
Mn1 O11 1.965393 1_455
Mn1 O13 1.980731 1_555
Mn1 O7 1.981702 1_455
Mn1 O12 2.015308 1_555
Mn1 O1 2.251331 1_555
Mn2 O1 1.961357 1_655
Mn2 O4 1.961357 1_565
Mn2 O14 1.962883 1_555
Mn2 O8 1.962883 1_555
Mn2 O11 2.210719 1_555
Mn2 O5 2.260696 1_555
Mn3 O14 1.961357 1_545
Mn3 O8 1.961357 1_455
Mn3 O4 1.962883 1_555
Mn3 O1 1.962883 1_555
Mn3 O3 2.210719 1_555
Mn3 O13 2.260696 1_555
Mn4 O15 1.937357 1_555
Mn4 O3 1.965393 1_655
Mn4 O5 1.980731 1_555
Mn4 O10 1.981702 1_655
Mn4 O6 2.015308 1_555
Mn4 O8 2.251331 1_555
Mn5 O2 1.937357 1_555
Mn5 O11 1.965393 1_545
Mn5 O13 1.980731 1_555
Mn5 O7 1.981702 1_545
Mn5 O9 2.015308 1_555
Mn5 O4 2.251331 1_555
Mn6 O15 1.937357 1_555
Mn6 O3 1.965393 1_565
Mn6 O5 1.980731 1_555
Mn6 O10 1.981702 1_565
Mn6 O0 2.015308 1_555
Mn6 O14 2.251331 1_555
