# generated using pymatgen
data_Sr6Zn(RuO6)2
_symmetry_space_group_name_H-M   'P 1'
_cell_length_a   8.69391216
_cell_length_b   8.69391216
_cell_length_c   6.93278690
_cell_angle_alpha   67.92389102
_cell_angle_beta   67.92389102
_cell_angle_gamma   36.84575649
_symmetry_Int_Tables_number   1
_chemical_formula_structural   Sr6Zn(RuO6)2
_chemical_formula_sum   'Sr6 Zn1 Ru2 O12'
_cell_volume   288.52144673
_cell_formula_units_Z   1
loop_
 _symmetry_equiv_pos_site_id
 _symmetry_equiv_pos_as_xyz
  1  'x, y, z'
loop_
 _atom_site_type_symbol
 _atom_site_label
 _atom_site_symmetry_multiplicity
 _atom_site_fract_x
 _atom_site_fract_y
 _atom_site_fract_z
 _atom_site_occupancy
  Sr  Sr0  1  0.20755413  0.20755413  0.70419785  1
  Sr  Sr1  1  0.88912993  0.88912993  0.70661230  1
  Sr  Sr2  1  0.54791672  0.54791672  0.71506441  1
  Sr  Sr3  1  0.79244587  0.79244587  0.29580215  1
  Sr  Sr4  1  0.45208328  0.45208328  0.28493559  1
  Sr  Sr5  1  0.11087007  0.11087007  0.29338770  1
  Zn  Zn0  1  0.00000000  0.00000000  -0.00000000  1
  Ru  Ru0  1  0.67059371  0.67059371  0.00229297  1
  Ru  Ru1  1  0.32940629  0.32940629  0.99770703  1
  O  O0  1  0.27940725  0.27940725  0.31914334  1
  O  O1  1  0.94481522  0.94481522  0.32988603  1
  O  O2  1  0.61398858  0.61398858  0.31922605  1
  O  O3  1  0.72059275  0.72059275  0.68085666  1
  O  O4  1  0.38601142  0.38601142  0.68077395  1
  O  O5  1  0.05518478  0.05518478  0.67011397  1
  O  O6  1  0.00000000  0.50000000  -0.00000000  1
  O  O7  1  0.65050046  0.17290125  0.00088964  1
  O  O8  1  0.34949954  0.82709875  0.99911036  1
  O  O9  1  0.50000000  0.00000000  -0.00000000  1
  O  O10  1  0.17290125  0.65050046  0.00088964  1
  O  O11  1  0.82709875  0.34949954  0.99911036  1
loop_
_geom_bond_atom_site_label_1
_geom_bond_atom_site_label_2
_geom_bond_distance
_geom_bond_site_symmetry_2
O0 Ru1 2.046961 1_554
O0 Sr0 2.454441 1_555
O0 Sr3 2.755673 1_455
O0 Sr3 2.755673 1_545
O0 Sr4 2.763231 1_555
O0 Sr5 2.855751 1_555
O1 Zn0 2.099932 1_665
O1 Sr1 2.400899 1_555
O1 Sr3 2.616209 1_555
O1 Sr5 2.649326 1_665
O1 Sr4 2.762381 1_565
O1 Sr4 2.762381 1_655
O2 Ru0 2.018470 1_555
O2 Sr2 2.519757 1_555
O2 Sr5 2.755158 1_565
O2 Sr5 2.755158 1_655
O2 Sr4 2.773679 1_555
O2 Sr3 2.883483 1_555
O3 Ru0 2.046961 1_556
O3 Sr3 2.454441 1_555
O3 Sr0 2.755673 1_565
O3 Sr0 2.755673 1_655
O3 Sr2 2.763231 1_555
O3 Sr1 2.855751 1_555
O4 Ru1 2.018470 1_555
O4 Sr4 2.519757 1_555
O4 Sr1 2.755158 1_455
O4 Sr1 2.755158 1_545
O4 Sr2 2.773679 1_555
O4 Sr0 2.883483 1_555
O5 Zn0 2.099932 1_556
O5 Sr5 2.400899 1_555
O5 Sr0 2.616209 1_555
O5 Sr1 2.649326 1_445
O5 Sr2 2.762381 1_545
O5 Sr2 2.762381 1_455
O6 Ru0 1.893916 1_455
O6 Ru1 1.893916 1_554
O6 Sr1 2.755639 1_454
O6 Sr5 2.755639 1_555
O6 Sr3 2.778616 1_455
O6 Sr0 2.778616 1_554
O7 Ru1 1.894510 1_554
O7 Zn0 2.043241 1_655
O7 Sr3 2.631327 1_545
O7 Sr1 2.638723 1_544
O7 Sr4 2.661375 1_555
O7 Sr2 2.677714 1_554
O8 Ru0 1.894510 1_556
O8 Zn0 2.043241 1_566
O8 Sr0 2.631327 1_565
O8 Sr5 2.638723 1_566
O8 Sr2 2.661375 1_555
O8 Sr4 2.677714 1_556
O9 Ru0 1.893916 1_545
O9 Ru1 1.893916 1_554
O9 Sr5 2.755639 1_555
O9 Sr1 2.755639 1_544
O9 Sr0 2.778616 1_554
O9 Sr3 2.778616 1_545
O10 Ru1 1.894510 1_554
O10 Zn0 2.043241 1_565
O10 Sr3 2.631327 1_455
O10 Sr1 2.638723 1_454
O10 Sr4 2.661375 1_555
O10 Sr2 2.677714 1_554
O11 Ru0 1.894510 1_556
O11 Zn0 2.043241 1_656
O11 Sr0 2.631327 1_655
O11 Sr5 2.638723 1_656
O11 Sr2 2.661375 1_555
O11 Sr4 2.677714 1_556
