# generated using pymatgen
data_Mn2CoAs2Rh
_symmetry_space_group_name_H-M   'P 1'
_cell_length_a   3.62980100
_cell_length_b   6.26953884
_cell_length_c   11.03239461
_cell_angle_alpha   90.60852027
_cell_angle_beta   90.00000000
_cell_angle_gamma   90.00000000
_symmetry_Int_Tables_number   1
_chemical_formula_structural   Mn2CoAs2Rh
_chemical_formula_sum   'Mn6 Co3 As6 Rh3'
_cell_volume   251.05201182
_cell_formula_units_Z   3
loop_
 _symmetry_equiv_pos_site_id
 _symmetry_equiv_pos_as_xyz
  1  'x, y, z'
loop_
 _atom_site_type_symbol
 _atom_site_label
 _atom_site_symmetry_multiplicity
 _atom_site_fract_x
 _atom_site_fract_y
 _atom_site_fract_z
 _atom_site_occupancy
  Mn  Mn0  1  0.50000000  0.58736000  0.00170100  1
  Mn  Mn1  1  0.50000000  0.09159600  0.49746600  1
  Mn  Mn2  1  0.50000000  0.20771400  0.20631000  1
  Mn  Mn3  1  0.50000000  0.70216100  0.69881600  1
  Mn  Mn4  1  0.50000000  0.70124100  0.29839000  1
  Mn  Mn5  1  0.50000000  0.20485900  0.79826400  1
  Co  Co0  1  0.00000000  0.26212400  0.00234200  1
  Co  Co1  1  0.00000000  0.75716000  0.49649300  1
  Co  Co2  1  0.00000000  0.37259500  0.37057800  1
  As  As0  1  0.00000000  0.00390100  0.34055200  1
  As  As1  1  0.00000000  0.48897600  0.83811500  1
  As  As2  1  0.00000000  0.48778600  0.17078300  1
  As  As3  1  0.00000000  0.99080000  0.65958900  1
  As  As4  1  0.50000000  0.02047300  0.00199800  1
  As  As5  1  0.50000000  0.50731100  0.49014900  1
  Rh  Rh0  1  0.00000000  0.87127100  0.86883100  1
  Rh  Rh1  1  0.00000000  0.86985000  0.13264200  1
  Rh  Rh2  1  0.00000000  0.37262100  0.62698000  1
loop_
_geom_bond_atom_site_label_1
_geom_bond_atom_site_label_2
_geom_bond_distance
_geom_bond_site_symmetry_2
Mn0 Rh1 2.909141 1_555
Mn0 Rh1 2.909141 1_655
Mn0 Rh0 2.943882 1_554
Mn0 Rh0 2.943882 1_654
Mn1 Rh2 2.895908 1_555
Mn1 Rh2 2.895908 1_655
Mn2 Rh1 2.899107 1_545
Mn2 Rh1 2.899107 1_645
Mn3 Rh0 2.809605 1_555
Mn3 Rh0 2.809605 1_655
Mn3 Rh2 2.855836 1_555
Mn3 Rh2 2.855836 1_655
Mn4 Rh1 2.792159 1_555
Mn4 Rh1 2.792159 1_655
Mn5 Rh2 2.830761 1_555
Mn5 Rh2 2.830761 1_655
Mn5 Rh0 2.882478 1_645
Mn5 Rh0 2.882478 1_545
Co0 Mn0 2.729847 1_455
Co0 Mn0 2.729847 1_555
Co0 Rh0 2.845645 1_544
Co0 Rh1 2.861835 1_545
Co0 Mn5 2.911135 1_454
Co0 Mn5 2.911135 1_554
Co0 Mn2 2.913792 1_555
Co0 Mn2 2.913792 1_455
Co1 Mn1 2.773067 1_465
Co1 Mn1 2.773067 1_565
Co1 Rh2 2.821077 1_555
Co1 Mn4 2.859568 1_455
Co1 Mn4 2.859568 1_555
Co1 Mn3 2.900244 1_455
Co1 Mn3 2.900244 1_555
Co2 Mn2 2.758076 1_455
Co2 Mn2 2.758076 1_555
Co2 Rh2 2.828726 1_555
Co2 Mn4 2.865043 1_455
Co2 Mn4 2.865043 1_555
Co2 Mn1 2.899934 1_455
Co2 Mn1 2.899934 1_555
As0 Co1 2.325807 1_545
As0 Co2 2.331671 1_555
As0 Rh1 2.434472 1_545
As0 Mn1 2.563742 1_455
As0 Mn1 2.563742 1_555
As0 Mn4 2.663106 1_445
As0 Mn4 2.663106 1_545
As0 Mn2 2.675867 1_555
As0 Mn2 2.675867 1_455
As1 Co0 2.315218 1_556
As1 Rh0 2.417084 1_555
As1 Rh2 2.433479 1_555
As1 Mn5 2.577497 1_455
As1 Mn5 2.577497 1_555
As1 Mn0 2.628268 1_456
As1 Mn0 2.628268 1_556
As1 Mn3 2.735996 1_555
As1 Mn3 2.735996 1_455
As2 Co0 2.323599 1_555
As2 Co2 2.326790 1_555
As2 Rh1 2.436441 1_555
As2 Mn2 2.558392 1_455
As2 Mn2 2.558392 1_555
As2 Mn4 2.650798 1_555
As2 Mn4 2.650798 1_455
As2 Mn0 2.681039 1_555
As2 Mn0 2.681039 1_455
As3 Co1 2.308099 1_555
As3 Rh2 2.424499 1_565
As3 Rh0 2.434590 1_555
As3 Mn3 2.602414 1_455
As3 Mn3 2.602414 1_555
As3 Mn1 2.629892 1_465
As3 Mn1 2.629892 1_565
As3 Mn5 2.718823 1_565
As3 Mn5 2.718823 1_465
As4 Co0 2.364128 1_655
As4 Co0 2.364128 1_555
As4 Rh1 2.508374 1_545
As4 Rh1 2.508374 1_645
As4 Rh0 2.509602 1_644
As4 Rh0 2.509602 1_544
As4 Mn2 2.530339 1_555
As4 Mn5 2.538425 1_554
As4 Mn0 2.715386 1_545
As5 Co2 2.392431 1_555
As5 Co2 2.392431 1_655
As5 Co1 2.397949 1_555
As5 Co1 2.397949 1_655
As5 Mn4 2.451230 1_555
As5 Rh2 2.512536 1_555
As5 Rh2 2.512536 1_655
As5 Mn3 2.594661 1_555
As5 Mn1 2.608448 1_555
