# generated using pymatgen
data_Ba2AlCr2F11
_symmetry_space_group_name_H-M   'P 1'
_cell_length_a   7.48764407
_cell_length_b   7.48764407
_cell_length_c   14.41052200
_cell_angle_alpha   90.00000000
_cell_angle_beta   90.00000000
_cell_angle_gamma   120.00000062
_symmetry_Int_Tables_number   1
_chemical_formula_structural   Ba2AlCr2F11
_chemical_formula_sum   'Ba6 Al3 Cr6 F33'
_cell_volume   699.68203852
_cell_formula_units_Z   3
loop_
 _symmetry_equiv_pos_site_id
 _symmetry_equiv_pos_as_xyz
  1  'x, y, z'
loop_
 _atom_site_type_symbol
 _atom_site_label
 _atom_site_symmetry_multiplicity
 _atom_site_fract_x
 _atom_site_fract_y
 _atom_site_fract_z
 _atom_site_occupancy
  Ba  Ba0  1  0.86793400  0.85545500  0.66654300  1
  Ba  Ba1  1  0.50734500  0.15872100  0.80125400  1
  Ba  Ba2  1  0.98752200  0.13206600  0.99987600  1
  Ba  Ba3  1  0.84127900  0.34862400  0.46792000  1
  Ba  Ba4  1  0.65137600  0.49265500  0.13458700  1
  Ba  Ba5  1  0.14454500  0.01247800  0.33320900  1
  Al  Al0  1  0.50482000  0.67821300  0.87125800  1
  Al  Al1  1  0.17339300  0.49518000  0.20459100  1
  Al  Al2  1  0.32178700  0.82660700  0.53792500  1
  Cr  Cr0  1  0.97260800  0.66167700  0.89091700  1
  Cr  Cr1  1  0.12012100  0.42816100  0.72673100  1
  Cr  Cr2  1  0.57183900  0.69196000  0.39339800  1
  Cr  Cr3  1  0.68906900  0.02739200  0.22425000  1
  Cr  Cr4  1  0.30804000  0.87987900  0.06006400  1
  Cr  Cr5  1  0.33832300  0.31093100  0.55758400  1
  F  F0  1  0.00410700  0.75627900  0.02699300  1
  F  F1  1  0.83054600  0.36261400  0.92873500  1
  F  F2  1  0.75217200  0.99589300  0.36032600  1
  F  F3  1  0.42720100  0.08263000  0.48381000  1
  F  F4  1  0.86241300  0.90568400  0.18130500  1
  F  F5  1  0.23271100  0.28762900  0.17957500  1
  F  F6  1  0.91737000  0.34457100  0.15047600  1
  F  F7  1  0.71237100  0.94508200  0.84624200  1
  F  F8  1  0.04327100  0.13758700  0.51463800  1
  F  F9  1  0.60758700  0.01316600  0.08788900  1
  F  F10  1  0.65542900  0.57279900  0.81714300  1
  F  F11  1  0.24372100  0.24782800  0.69366000  1
  F  F12  1  0.62532400  0.69227000  0.98131000  1
  F  F13  1  0.36699000  0.16174500  0.01924700  1
  F  F14  1  0.06694600  0.37467600  0.31464400  1
  F  F15  1  0.63738600  0.46793200  0.59540200  1
  F  F16  1  0.34660600  0.79122100  0.90918800  1
  F  F17  1  0.40557900  0.39241300  0.42122200  1
  F  F18  1  0.32338900  0.73406600  0.41777300  1
  F  F19  1  0.30773000  0.93305400  0.64797700  1
  F  F20  1  0.41067700  0.67661100  0.75110600  1
  F  F21  1  0.83825500  0.20524500  0.68591300  1
  F  F22  1  0.79475500  0.63301000  0.35258000  1
  F  F23  1  0.44461500  0.65339400  0.24252100  1
  F  F24  1  0.98683400  0.59442100  0.75455600  1
  F  F25  1  0.09431600  0.95672900  0.84797100  1
  F  F26  1  0.53206800  0.16945400  0.26206800  1
  F  F27  1  0.28604200  0.41804400  0.88544400  1
  F  F28  1  0.13200200  0.71395800  0.21877700  1
  F  F29  1  0.26593400  0.58932300  0.08444000  1
  F  F30  1  0.05491800  0.76728900  0.51290900  1
  F  F31  1  0.20877900  0.55538500  0.57585400  1
  F  F32  1  0.58195600  0.86799800  0.55211000  1
loop_
_geom_bond_atom_site_label_1
_geom_bond_atom_site_label_2
_geom_bond_distance
_geom_bond_site_symmetry_2
Ba0 F15 2.727906 1_555
Ba0 F32 2.741246 1_555
Ba0 F21 2.751187 1_565
Ba0 F24 2.821610 1_555
Ba0 F8 2.864386 1_665
Ba0 F30 2.867372 1_655
Ba0 F10 2.890218 1_555
Ba0 F11 2.904274 1_665
Ba0 F25 2.999728 1_655
Ba0 F7 3.048708 1_555
Ba0 F19 3.056125 1_655
Ba0 F20 3.227325 1_555
Ba1 F19 2.728073 1_545
Ba1 F10 2.730745 1_555
Ba1 F25 2.761804 1_545
Ba1 F7 2.791349 1_545
Ba1 F1 2.804897 1_555
Ba1 F11 2.839461 1_555
Ba1 F16 2.850936 1_545
Ba1 F21 2.856581 1_555
Ba2 F1 2.727912 1_555
Ba2 F27 2.741234 1_655
Ba2 F13 2.751181 1_656
Ba2 F9 2.821617 1_556
Ba2 F25 2.864382 1_645
Ba2 F7 2.867375 1_545
Ba2 F6 2.890221 1_556
Ba2 F0 2.904270 1_646
Ba2 F4 2.999741 1_546
Ba2 F5 3.048705 1_656
Ba2 F12 3.056128 1_545
Ba2 F29 3.227329 1_656
Ba3 F14 2.728061 1_655
Ba3 F3 2.730747 1_555
Ba3 F8 2.761808 1_655
Ba3 F30 2.791352 1_655
Ba3 F15 2.804907 1_555
Ba3 F2 2.839461 1_545
Ba3 F31 2.850936 1_655
Ba3 F22 2.856572 1_555
Ba4 F12 2.728073 1_554
Ba4 F6 2.730745 1_555
Ba4 F4 2.761808 1_555
Ba4 F5 2.791349 1_555
Ba4 F26 2.804897 1_555
Ba4 F0 2.839461 1_655
Ba4 F23 2.850936 1_555
Ba4 F13 2.856572 1_555
Ba5 F26 2.727905 1_555
Ba5 F28 2.741231 1_545
Ba5 F22 2.751185 1_445
Ba5 F17 2.821615 1_555
Ba5 F4 2.864376 1_445
Ba5 F5 2.867376 1_555
Ba5 F3 2.890227 1_555
Ba5 F2 2.904277 1_445
Ba5 F8 2.999744 1_555
Ba5 F30 3.048717 1_545
Ba5 F14 3.056131 1_555
Ba5 F18 3.227324 1_545
Al0 F12 1.801482 1_555
Al0 F27 1.824557 1_555
Al0 F10 1.841996 1_555
Al0 F16 1.849475 1_555
Al0 F7 1.852727 1_555
Al0 F20 1.867221 1_555
Al1 F14 1.801495 1_555
Al1 F28 1.824557 1_555
Al1 F6 1.841996 1_455
Al1 F23 1.849475 1_555
Al1 F5 1.852727 1_555
Al1 F29 1.867208 1_555
Al2 F19 1.801482 1_555
Al2 F32 1.824556 1_555
Al2 F3 1.841996 1_565
Al2 F31 1.849471 1_555
Al2 F30 1.852727 1_555
Al2 F18 1.867221 1_555
Cr0 F1 2.015168 1_555
Cr0 F25 2.020135 1_655
Cr0 F24 2.044492 1_555
Cr0 F0 2.058044 1_656
Cr0 F10 2.373369 1_555
Cr0 F16 2.477080 1_655
Cr1 F24 1.987202 1_455
Cr1 F21 2.015815 1_455
Cr1 F11 2.038746 1_555
Cr1 F20 2.066403 1_555
Cr1 F31 2.333020 1_555
Cr1 F27 2.621888 1_555
Cr2 F17 1.987199 1_555
Cr2 F22 2.015815 1_555
Cr2 F2 2.038749 1_555
Cr2 F18 2.066403 1_555
Cr2 F23 2.333020 1_555
Cr2 F32 2.621876 1_555
Cr3 F26 2.015168 1_555
Cr3 F4 2.020131 1_545
Cr3 F9 2.044492 1_555
Cr3 F2 2.058044 1_545
Cr3 F6 2.373369 1_555
Cr3 F23 2.477080 1_545
Cr4 F9 1.987202 1_565
Cr4 F13 2.015811 1_565
Cr4 F0 2.038746 1_555
Cr4 F29 2.066406 1_555
Cr4 F16 2.333007 1_554
Cr4 F28 2.621888 1_555
Cr5 F15 2.015168 1_555
Cr5 F8 2.020135 1_555
Cr5 F17 2.044505 1_555
Cr5 F11 2.058044 1_555
Cr5 F3 2.373369 1_555
Cr5 F31 2.477079 1_555
