# generated using pymatgen
data_CoH4SeO5
_symmetry_space_group_name_H-M   'P 1'
_cell_length_a   6.55016980
_cell_length_b   8.93795200
_cell_length_c   7.77201017
_cell_angle_alpha   90.00000000
_cell_angle_beta   98.92709274
_cell_angle_gamma   90.00000000
_symmetry_Int_Tables_number   1
_chemical_formula_structural   CoH4SeO5
_chemical_formula_sum   'Co4 H16 Se4 O20'
_cell_volume   449.50138159
_cell_formula_units_Z   4
loop_
 _symmetry_equiv_pos_site_id
 _symmetry_equiv_pos_as_xyz
  1  'x, y, z'
loop_
 _atom_site_type_symbol
 _atom_site_label
 _atom_site_symmetry_multiplicity
 _atom_site_fract_x
 _atom_site_fract_y
 _atom_site_fract_z
 _atom_site_occupancy
  Co  Co0  1  0.15332700  0.13443900  0.98149900  1
  Co  Co1  1  0.65332700  0.36556100  0.48149900  1
  Co  Co2  1  0.84667300  0.86556100  0.01850100  1
  Co  Co3  1  0.34667300  0.63443900  0.51850100  1
  H  H0  1  0.00618700  0.98639300  0.69993600  1
  H  H1  1  0.50618700  0.51360700  0.19993600  1
  H  H2  1  0.99381300  0.01360700  0.30006400  1
  H  H3  1  0.49381300  0.48639300  0.80006400  1
  H  H4  1  0.05860800  0.14831100  0.62682000  1
  H  H5  1  0.55860800  0.35168900  0.12682000  1
  H  H6  1  0.94139200  0.85168900  0.37318000  1
  H  H7  1  0.44139200  0.64831100  0.87318000  1
  H  H8  1  0.16815700  0.42289100  0.88429500  1
  H  H9  1  0.66815700  0.07710900  0.38429500  1
  H  H10  1  0.83184300  0.57710900  0.11570500  1
  H  H11  1  0.33184300  0.92289100  0.61570500  1
  H  H12  1  0.93136300  0.36060800  0.86153200  1
  H  H13  1  0.43136300  0.13939200  0.36153200  1
  H  H14  1  0.06863700  0.63939200  0.13846800  1
  H  H15  1  0.56863700  0.86060800  0.63846800  1
  Se  Se0  1  0.89721300  0.65567800  0.66204700  1
  Se  Se1  1  0.39721300  0.84432200  0.16204700  1
  Se  Se2  1  0.10278700  0.34432200  0.33795300  1
  Se  Se3  1  0.60278700  0.15567800  0.83795300  1
  O  O0  1  0.81760700  0.82800800  0.73163500  1
  O  O1  1  0.31760700  0.67199200  0.23163500  1
  O  O2  1  0.18239300  0.17199200  0.26836500  1
  O  O3  1  0.68239300  0.32800800  0.76836500  1
  O  O4  1  0.82900100  0.09013100  0.96640500  1
  O  O5  1  0.32900100  0.40986900  0.46640500  1
  O  O6  1  0.17099900  0.90986900  0.03359500  1
  O  O7  1  0.67099900  0.59013100  0.53359500  1
  O  O8  1  0.03875300  0.70645600  0.50140000  1
  O  O9  1  0.53875300  0.79354400  0.00140000  1
  O  O10  1  0.96124700  0.29354400  0.49860000  1
  O  O11  1  0.46124700  0.20645600  0.99860000  1
  O  O12  1  0.11541200  0.06397700  0.70643400  1
  O  O13  1  0.61541200  0.43602300  0.20643400  1
  O  O14  1  0.88458800  0.93602300  0.29356600  1
  O  O15  1  0.38458800  0.56397700  0.79356600  1
  O  O16  1  0.07299000  0.35428300  0.93145100  1
  O  O17  1  0.57299000  0.14571700  0.43145100  1
  O  O18  1  0.92701000  0.64571700  0.06854900  1
  O  O19  1  0.42701000  0.85428300  0.56854900  1
loop_
_geom_bond_atom_site_label_1
_geom_bond_atom_site_label_2
_geom_bond_distance
_geom_bond_site_symmetry_2
Co0 O6 2.047346 1_546
Co0 O16 2.055659 1_555
Co0 O11 2.101618 1_555
Co0 O4 2.146226 1_455
Co0 O12 2.205392 1_555
Co0 O2 2.233372 1_556
Co1 O7 2.047346 1_555
Co1 O17 2.055659 1_555
Co1 O10 2.101618 1_555
Co1 O5 2.146226 1_555
Co1 O13 2.205392 1_555
Co1 O3 2.233372 1_555
Co2 O4 2.047346 1_564
Co2 O18 2.055659 1_555
Co2 O9 2.101618 1_555
Co2 O6 2.146226 1_655
Co2 O14 2.205392 1_555
Co2 O0 2.233372 1_554
Co3 O5 2.047346 1_555
Co3 O19 2.055659 1_555
Co3 O8 2.101618 1_555
Co3 O7 2.146226 1_555
Co3 O15 2.205392 1_555
Co3 O1 2.233372 1_555
H0 O12 0.991996 1_565
H1 O13 0.991996 1_555
H2 O14 0.991996 1_545
H3 O15 0.991996 1_555
H4 O12 1.008974 1_555
H4 O10 1.699282 1_455
H5 O13 1.008974 1_555
H5 O11 1.699282 1_554
H6 O14 1.008974 1_555
H6 O8 1.699282 1_655
H7 O15 1.008974 1_555
H7 O9 1.699282 1_556
H8 O16 0.984801 1_555
H9 O17 0.984801 1_555
H10 O18 0.984801 1_555
H11 O19 0.984801 1_555
H12 O16 1.001314 1_655
H12 O3 1.703592 1_555
H13 O17 1.001314 1_555
H13 O2 1.703592 1_555
H14 O18 1.001314 1_455
H14 O1 1.703592 1_555
H15 O19 1.001314 1_555
H15 O0 1.703592 1_555
O0 Se0 1.739073 1_555
O1 Se1 1.739073 1_555
O2 Se2 1.739073 1_555
O3 Se3 1.739073 1_555
O4 Se3 1.753952 1_555
O5 Se2 1.753952 1_555
O6 Se1 1.753952 1_555
O7 Se0 1.753952 1_555
O8 Se0 1.727323 1_455
O9 Se1 1.727323 1_555
O10 Se2 1.727323 1_655
O11 Se3 1.727323 1_555
