# generated using pymatgen
data_Cu2Te3O8
_symmetry_space_group_name_H-M   'P 1'
_cell_length_a   6.55085645
_cell_length_b   6.55085645
_cell_length_c   12.47033634
_cell_angle_alpha   80.78803124
_cell_angle_beta   80.78803124
_cell_angle_gamma   48.47994727
_symmetry_Int_Tables_number   1
_chemical_formula_structural   Cu2Te3O8
_chemical_formula_sum   'Cu4 Te6 O16'
_cell_volume   394.45491888
_cell_formula_units_Z   2
loop_
 _symmetry_equiv_pos_site_id
 _symmetry_equiv_pos_as_xyz
  1  'x, y, z'
loop_
 _atom_site_type_symbol
 _atom_site_label
 _atom_site_symmetry_multiplicity
 _atom_site_fract_x
 _atom_site_fract_y
 _atom_site_fract_z
 _atom_site_occupancy
  Cu  Cu0  1  0.46517800  0.00127600  0.15827200  1
  Cu  Cu1  1  0.99872400  0.53482200  0.34172800  1
  Cu  Cu2  1  0.53482200  0.99872400  0.84172800  1
  Cu  Cu3  1  0.00127600  0.46517800  0.65827200  1
  Te  Te0  1  0.12914700  0.87085300  0.75000000  1
  Te  Te1  1  0.87085300  0.12914700  0.25000000  1
  Te  Te2  1  0.34875500  0.92159200  0.44537100  1
  Te  Te3  1  0.07840800  0.65124500  0.05462900  1
  Te  Te4  1  0.65124500  0.07840800  0.55462900  1
  Te  Te5  1  0.92159200  0.34875500  0.94537100  1
  O  O0  1  0.23664100  0.31865200  0.95192900  1
  O  O1  1  0.68134800  0.76335900  0.54807100  1
  O  O2  1  0.76335900  0.68134800  0.04807100  1
  O  O3  1  0.31865200  0.23664100  0.45192900  1
  O  O4  1  0.78156100  0.59602700  0.81885100  1
  O  O5  1  0.40397300  0.21843900  0.68114900  1
  O  O6  1  0.21843900  0.40397300  0.18114900  1
  O  O7  1  0.59602700  0.78156100  0.31885100  1
  O  O8  1  0.21640400  0.02130300  0.85705700  1
  O  O9  1  0.97869700  0.78359600  0.64294300  1
  O  O10  1  0.17929600  0.99304400  0.14782300  1
  O  O11  1  0.00695600  0.82070400  0.35217700  1
  O  O12  1  0.82070400  0.00695600  0.85217700  1
  O  O13  1  0.99304400  0.17929600  0.64782300  1
  O  O14  1  0.02130300  0.21640400  0.35705700  1
  O  O15  1  0.78359600  0.97869700  0.14294300  1
loop_
_geom_bond_atom_site_label_1
_geom_bond_atom_site_label_2
_geom_bond_distance
_geom_bond_site_symmetry_2
Cu0 O10 1.934279 1_545
Cu0 O15 1.970226 1_545
Cu0 O6 2.023216 1_555
Cu0 O2 2.175252 1_545
Cu0 O7 2.192578 1_545
Cu1 O11 1.934279 1_655
Cu1 O14 1.970226 1_655
Cu1 O7 2.023216 1_555
Cu1 O3 2.175252 1_655
Cu1 O6 2.192578 1_655
Cu2 O12 1.934279 1_565
Cu2 O8 1.970226 1_565
Cu2 O4 2.023216 1_555
Cu2 O0 2.175252 1_565
Cu2 O5 2.192578 1_565
Cu3 O13 1.934279 1_455
Cu3 O9 1.970226 1_455
Cu3 O5 2.023216 1_555
Cu3 O1 2.175252 1_455
Cu3 O4 2.192578 1_455
O0 Te5 1.953028 1_455
O0 Te3 2.221692 1_556
O1 Te4 1.953028 1_565
O1 Te2 2.221692 1_555
O2 Te3 1.953028 1_655
O2 Te5 2.221692 1_554
O3 Te2 1.953028 1_545
O3 Te4 2.221692 1_555
O4 Te5 1.905203 1_555
O5 Te4 1.905203 1_555
O6 Te3 1.905203 1_555
O7 Te2 1.905203 1_555
O8 Te5 2.031546 1_455
O8 Te0 2.119650 1_545
O9 Te4 2.031546 1_565
O9 Te0 2.119650 1_655
O10 Te1 1.911071 1_465
O11 Te1 1.911071 1_465
O12 Te0 1.911071 1_645
O13 Te0 1.911071 1_645
O14 Te2 2.031546 1_545
O14 Te1 2.119650 1_455
O15 Te3 2.031546 1_655
O15 Te1 2.119650 1_565
