# generated using pymatgen
data_KVH6SeO9
_symmetry_space_group_name_H-M   'P 1'
_cell_length_a   10.14113900
_cell_length_b   6.46622400
_cell_length_c   6.69985747
_cell_angle_alpha   72.20550549
_cell_angle_beta   90.00000000
_cell_angle_gamma   90.00000000
_symmetry_Int_Tables_number   1
_chemical_formula_structural   KVH6SeO9
_chemical_formula_sum   'K2 V2 H12 Se2 O18'
_cell_volume   418.32364505
_cell_formula_units_Z   2
loop_
 _symmetry_equiv_pos_site_id
 _symmetry_equiv_pos_as_xyz
  1  'x, y, z'
loop_
 _atom_site_type_symbol
 _atom_site_label
 _atom_site_symmetry_multiplicity
 _atom_site_fract_x
 _atom_site_fract_y
 _atom_site_fract_z
 _atom_site_occupancy
  K  K0  1  0.15432200  0.30498700  0.18302800  1
  K  K1  1  0.65432200  0.69501300  0.81697200  1
  V  V0  1  0.00494500  0.61139700  0.61186800  1
  V  V1  1  0.50494500  0.38860300  0.38813200  1
  H  H0  1  0.21162600  0.76422400  0.31391400  1
  H  H1  1  0.71162600  0.23577600  0.68608600  1
  H  H2  1  0.85805300  0.11581500  0.07995500  1
  H  H3  1  0.35805300  0.88418500  0.92004500  1
  H  H4  1  0.86224200  0.98384300  0.31545900  1
  H  H5  1  0.36224200  0.01615700  0.68454100  1
  H  H6  1  0.26735000  0.67302800  0.74501800  1
  H  H7  1  0.76735000  0.32697200  0.25498200  1
  H  H8  1  0.08241200  0.79312300  0.18406900  1
  H  H9  1  0.58241200  0.20687700  0.81593100  1
  H  H10  1  0.77042700  0.53712700  0.33699900  1
  H  H11  1  0.27042700  0.46287300  0.66300100  1
  Se  Se0  1  0.00111700  0.06950000  0.73428400  1
  Se  Se1  1  0.50111700  0.93050000  0.26571600  1
  O  O0  1  0.45284900  0.46308700  0.14277600  1
  O  O1  1  0.95284900  0.53691300  0.85722400  1
  O  O2  1  0.36695000  0.32121300  0.53362800  1
  O  O3  1  0.86695000  0.67878700  0.46637200  1
  O  O4  1  0.71320700  0.45128100  0.27033300  1
  O  O5  1  0.21320700  0.54871900  0.72966700  1
  O  O6  1  0.62475400  0.30544300  0.68865000  1
  O  O7  1  0.12475400  0.69455700  0.31135000  1
  O  O8  1  0.05870900  0.91966100  0.58333800  1
  O  O9  1  0.55870900  0.08033900  0.41666200  1
  O  O10  1  0.03601700  0.32155700  0.56928300  1
  O  O11  1  0.53601700  0.67844300  0.43071700  1
  O  O12  1  0.08553700  0.01778400  0.95412100  1
  O  O13  1  0.58553700  0.98221600  0.04587900  1
  O  O14  1  0.34031400  0.95771700  0.22101900  1
  O  O15  1  0.84031400  0.04228300  0.77898100  1
  O  O16  1  0.86987000  0.13331900  0.21908700  1
  O  O17  1  0.36987000  0.86668100  0.78091300  1
loop_
_geom_bond_atom_site_label_1
_geom_bond_atom_site_label_2
_geom_bond_distance
_geom_bond_site_symmetry_2
K0 O12 2.833436 1_554
K0 O14 2.883656 1_545
K0 O10 2.883979 1_555
K0 O7 2.915196 1_555
K0 O5 3.023354 1_554
K0 O1 3.031096 1_454
K0 O16 3.073753 1_455
K0 O0 3.180332 1_555
K0 O8 3.202668 1_545
K0 O2 3.213859 1_555
K1 O13 2.833436 1_556
K1 O15 2.883656 1_565
K1 O11 2.883979 1_555
K1 O6 2.915196 1_555
K1 O4 3.023354 1_556
K1 O0 3.031096 1_556
K1 O17 3.073753 1_555
K1 O1 3.180332 1_555
K1 O9 3.202668 1_565
K1 O3 3.213859 1_555
H0 O7 0.992012 1_555
H1 O6 0.992012 1_555
H2 O16 0.980097 1_555
H3 O17 0.980097 1_555
H4 O16 0.987752 1_565
H5 O17 0.987752 1_545
H6 O5 1.004339 1_555
H7 O4 1.004339 1_555
H8 O7 0.992777 1_555
H9 O6 0.992777 1_555
H10 O4 0.997945 1_555
H11 O5 0.997945 1_555
O0 V1 1.652094 1_555
O1 V0 1.652094 1_655
O2 V1 1.684901 1_555
O3 V0 1.684901 1_655
O4 V1 2.247721 1_555
O5 V0 2.247721 1_555
O6 V1 2.271019 1_555
O7 V0 2.271019 1_555
O8 Se0 1.703386 1_565
O8 V0 2.018463 1_555
O9 Se1 1.703386 1_545
O9 V1 2.018463 1_555
O10 Se0 1.703681 1_555
O10 V0 2.005003 1_555
O11 Se1 1.703681 1_555
O11 V1 2.005003 1_555
O12 Se0 1.647144 1_555
O13 Se1 1.647144 1_555
O14 Se1 1.657620 1_555
O15 Se0 1.657620 1_655
