# generated using pymatgen
data_Sm3Ni13B2
_symmetry_space_group_name_H-M   'P 1'
_cell_length_a   5.00559900
_cell_length_b   5.00559934
_cell_length_c   10.96788700
_cell_angle_alpha   90.00000000
_cell_angle_beta   90.00000000
_cell_angle_gamma   120.00000436
_symmetry_Int_Tables_number   1
_chemical_formula_structural   Sm3Ni13B2
_chemical_formula_sum   'Sm3 Ni13 B2'
_cell_volume   237.99384198
_cell_formula_units_Z   1
loop_
 _symmetry_equiv_pos_site_id
 _symmetry_equiv_pos_as_xyz
  1  'x, y, z'
loop_
 _atom_site_type_symbol
 _atom_site_label
 _atom_site_symmetry_multiplicity
 _atom_site_fract_x
 _atom_site_fract_y
 _atom_site_fract_z
 _atom_site_occupancy
  Sm  Sm0  1  0.00000000  0.00000000  0.00000000  1
  Sm  Sm1  1  0.00000000  0.00000000  0.66916000  1
  Sm  Sm2  1  0.00000000  0.00000000  0.33084000  1
  Ni  Ni0  1  0.50000000  0.50000000  0.50000000  1
  Ni  Ni1  1  0.50000000  0.00000000  0.50000000  1
  Ni  Ni2  1  0.00000000  0.50000000  0.50000000  1
  Ni  Ni3  1  0.66666700  0.33333300  0.68078500  1
  Ni  Ni4  1  0.33333300  0.66666700  0.68078500  1
  Ni  Ni5  1  0.33333300  0.66666700  0.31921500  1
  Ni  Ni6  1  0.66666700  0.33333300  0.31921500  1
  Ni  Ni7  1  0.50000000  0.50000000  0.86648000  1
  Ni  Ni8  1  0.50000000  0.00000000  0.86648000  1
  Ni  Ni9  1  0.00000000  0.50000000  0.86648000  1
  Ni  Ni10  1  0.50000000  0.50000000  0.13352000  1
  Ni  Ni11  1  0.50000000  0.00000000  0.13352000  1
  Ni  Ni12  1  0.00000000  0.50000000  0.13352000  1
  B  B0  1  0.66666700  0.33333300  0.00000000  1
  B  B1  1  0.33333300  0.66666700  0.00000000  1
loop_
_geom_bond_atom_site_label_1
_geom_bond_atom_site_label_2
_geom_bond_distance
_geom_bond_site_symmetry_2
Ni0 Ni6 2.453492 1_555
Ni0 Ni3 2.453492 1_555
Ni0 Ni4 2.453492 1_555
Ni0 Ni5 2.453492 1_555
Ni0 Ni2 2.502800 1_655
Ni0 Ni2 2.502800 1_555
Ni0 Ni1 2.502800 1_555
Ni0 Ni1 2.502800 1_565
Ni0 Sm1 3.115485 1_665
Ni0 Sm2 3.115485 1_555
Ni0 Sm1 3.115485 1_555
Ni0 Sm2 3.115485 1_665
Ni1 Ni5 2.453489 1_545
Ni1 Ni4 2.453489 1_545
Ni1 Ni6 2.453489 1_555
Ni1 Ni3 2.453489 1_555
Ni1 Ni2 2.502799 1_655
Ni1 Ni2 2.502799 1_545
Ni1 Sm2 3.115485 1_555
Ni1 Sm1 3.115485 1_555
Ni1 Sm2 3.115485 1_655
Ni1 Sm1 3.115485 1_655
Ni2 Ni3 2.453489 1_455
Ni2 Ni6 2.453489 1_455
Ni2 Ni5 2.453489 1_555
Ni2 Ni4 2.453489 1_555
Ni2 Sm2 3.115485 1_565
Ni2 Sm1 3.115485 1_555
Ni2 Sm2 3.115485 1_555
Ni2 Sm1 3.115485 1_565
Ni3 Ni9 2.497212 1_655
Ni3 Ni8 2.497213 1_555
Ni3 Ni7 2.497215 1_555
Ni3 Sm1 2.892792 1_655
Ni3 Sm1 2.892796 1_555
Ni3 Sm1 2.892797 1_665
Ni4 Ni9 2.497212 1_555
Ni4 Ni8 2.497213 1_565
Ni4 Ni7 2.497215 1_555
Ni4 Sm1 2.892792 1_565
Ni4 Sm1 2.892796 1_665
Ni4 Sm1 2.892797 1_555
Ni5 Sm2 2.892792 1_565
Ni5 Sm2 2.892796 1_665
Ni5 Sm2 2.892797 1_555
Ni6 Sm2 2.892792 1_655
Ni6 Sm2 2.892796 1_555
Ni6 Sm2 2.892797 1_665
Ni7 Sm0 2.899753 1_556
Ni7 Sm0 2.899753 1_666
Ni7 Sm1 3.308730 1_665
Ni7 Sm1 3.308730 1_555
Ni8 Sm0 2.899753 1_556
Ni8 Sm0 2.899753 1_656
Ni8 Sm1 3.308730 1_555
Ni8 Sm1 3.308730 1_655
Ni9 Sm0 2.899753 1_556
Ni9 Sm0 2.899753 1_566
Ni9 Sm1 3.308730 1_565
Ni9 Sm1 3.308730 1_555
Ni10 Ni5 2.497215 1_555
Ni10 Ni6 2.497215 1_555
Ni10 Sm0 2.899753 1_555
Ni10 Sm0 2.899753 1_665
Ni10 Sm2 3.308730 1_555
Ni10 Sm2 3.308730 1_665
Ni11 Ni5 2.497213 1_545
Ni11 Ni6 2.497213 1_555
Ni11 Sm0 2.899753 1_555
Ni11 Sm0 2.899753 1_655
Ni11 Sm2 3.308730 1_555
Ni11 Sm2 3.308730 1_655
Ni12 Ni6 2.497212 1_455
Ni12 Ni5 2.497212 1_555
Ni12 Sm0 2.899753 1_565
Ni12 Sm0 2.899753 1_555
Ni12 Sm2 3.308730 1_565
Ni12 Sm2 3.308730 1_555
B0 Ni9 2.057318 1_654
B0 Ni12 2.057318 1_655
B0 Ni8 2.057319 1_554
B0 Ni11 2.057319 1_555
B0 Ni7 2.057322 1_554
B0 Ni10 2.057322 1_555
B0 Sm0 2.889981 1_655
B0 Sm0 2.889985 1_555
B0 Sm0 2.889985 1_665
B1 Ni9 2.057318 1_554
B1 Ni12 2.057318 1_555
B1 Ni11 2.057319 1_565
B1 Ni8 2.057319 1_564
B1 Ni7 2.057322 1_554
B1 Ni10 2.057322 1_555
B1 Sm0 2.889981 1_565
B1 Sm0 2.889985 1_665
B1 Sm0 2.889985 1_555
