# generated using pymatgen
data_Tb10YbSe16
_symmetry_space_group_name_H-M   'P 1'
_cell_length_a   8.73219800
_cell_length_b   8.73219800
_cell_length_c   8.73703800
_cell_angle_alpha   90.00000000
_cell_angle_beta   90.00000000
_cell_angle_gamma   90.00000000
_symmetry_Int_Tables_number   1
_chemical_formula_structural   Tb10YbSe16
_chemical_formula_sum   'Tb10 Yb1 Se16'
_cell_volume   666.21034761
_cell_formula_units_Z   1
loop_
 _symmetry_equiv_pos_site_id
 _symmetry_equiv_pos_as_xyz
  1  'x, y, z'
loop_
 _atom_site_type_symbol
 _atom_site_label
 _atom_site_symmetry_multiplicity
 _atom_site_fract_x
 _atom_site_fract_y
 _atom_site_fract_z
 _atom_site_occupancy
  Tb  Tb0  1  0.25061500  0.62385400  0.36781500  1
  Tb  Tb1  1  0.00000000  0.50000000  0.75264100  1
  Tb  Tb2  1  0.37614600  0.25061500  0.63218500  1
  Tb  Tb3  1  0.74938500  0.37614600  0.36781500  1
  Tb  Tb4  1  0.13047300  0.25951200  0.12202100  1
  Tb  Tb5  1  0.74048800  0.13047300  0.87797900  1
  Tb  Tb6  1  0.50000000  0.00000000  0.24735900  1
  Tb  Tb7  1  0.86952700  0.74048800  0.12202100  1
  Tb  Tb8  1  0.25951200  0.86952700  0.87797900  1
  Tb  Tb9  1  0.62385400  0.74938500  0.63218500  1
  Yb  Yb0  1  0.00000000  0.00000000  0.50000000  1
  Se  Se0  1  0.57246900  0.68328800  0.31307600  1
  Se  Se1  1  0.17481000  0.57912000  0.04809700  1
  Se  Se2  1  0.92769600  0.67652500  0.44569400  1
  Se  Se3  1  0.07230400  0.32347500  0.44569400  1
  Se  Se4  1  0.42753100  0.31671200  0.31307600  1
  Se  Se5  1  0.31671200  0.57246900  0.68692400  1
  Se  Se6  1  0.82519000  0.42088000  0.04809700  1
  Se  Se7  1  0.06952100  0.17828600  0.80613400  1
  Se  Se8  1  0.68328800  0.42753100  0.68692400  1
  Se  Se9  1  0.67652500  0.07230400  0.55430600  1
  Se  Se10  1  0.42088000  0.17481000  0.95190300  1
  Se  Se11  1  0.57912000  0.82519000  0.95190300  1
  Se  Se12  1  0.93047900  0.82171400  0.80613400  1
  Se  Se13  1  0.82171400  0.06952100  0.19386600  1
  Se  Se14  1  0.32347500  0.92769600  0.55430600  1
  Se  Se15  1  0.17828600  0.93047900  0.19386600  1
loop_
_geom_bond_atom_site_label_1
_geom_bond_atom_site_label_2
_geom_bond_distance
_geom_bond_site_symmetry_2
Se0 Tb9 2.882323 1_555
Se0 Tb6 2.894585 1_565
Se0 Tb0 2.897749 1_555
Se0 Tb7 3.124831 1_555
Se0 Tb3 3.131868 1_555
Se1 Tb4 2.890685 1_555
Se1 Tb0 2.897202 1_555
Se1 Tb8 3.031002 1_554
Se1 Tb1 3.077521 1_554
Se1 Tb7 3.083692 1_455
Se2 Tb7 2.926984 1_555
Se2 Yb0 2.932983 1_665
Se2 Tb0 2.936964 1_655
Se2 Tb3 3.125276 1_555
Se2 Tb1 3.157023 1_655
Se2 Tb9 3.177920 1_555
Se3 Tb4 2.926984 1_555
Se3 Yb0 2.932983 1_555
Se3 Tb3 2.936964 1_455
Se3 Tb0 3.125276 1_555
Se3 Tb1 3.157023 1_555
Se3 Tb2 3.177920 1_555
Se4 Tb2 2.882323 1_555
Se4 Tb6 2.894585 1_555
Se4 Tb3 2.897749 1_555
Se4 Tb4 3.124831 1_555
Se4 Tb0 3.131868 1_555
Se5 Tb0 2.882323 1_555
Se5 Tb1 2.894585 1_555
Se5 Tb2 2.897749 1_555
Se5 Tb8 3.124831 1_555
Se5 Tb9 3.131868 1_555
Se6 Tb7 2.890685 1_555
Se6 Tb3 2.897202 1_555
Se6 Tb5 3.031002 1_554
Se6 Tb1 3.077521 1_654
Se6 Tb4 3.083692 1_655
Se7 Tb4 2.898880 1_556
Se7 Tb1 2.911867 1_555
Se7 Tb5 2.970439 1_455
Se7 Tb2 3.142890 1_555
Se7 Yb0 3.153775 1_555
Se7 Tb8 3.227325 1_545
Se8 Tb3 2.882323 1_555
Se8 Tb1 2.894585 1_655
Se8 Tb9 2.897749 1_555
Se8 Tb5 3.124831 1_555
Se8 Tb2 3.131868 1_555
Se9 Tb5 2.926984 1_555
Se9 Yb0 2.932983 1_655
Se9 Tb9 2.936964 1_545
Se9 Tb2 3.125276 1_555
Se9 Tb6 3.157023 1_555
Se9 Tb3 3.177920 1_555
Se10 Tb5 2.890685 1_555
Se10 Tb2 2.897202 1_555
Se10 Tb4 3.031002 1_556
Se10 Tb6 3.077521 1_556
Se10 Tb8 3.083692 1_545
Se11 Tb8 2.890685 1_555
Se11 Tb9 2.897202 1_555
Se11 Tb7 3.031002 1_556
Se11 Tb6 3.077521 1_566
Se11 Tb5 3.083692 1_565
Se12 Tb7 2.898880 1_556
Se12 Tb1 2.911867 1_655
Se12 Tb8 2.970439 1_655
Se12 Tb9 3.142890 1_555
Se12 Yb0 3.153775 1_665
Se12 Tb5 3.227325 1_565
Se13 Tb5 2.898880 1_554
Se13 Tb6 2.911867 1_555
Se13 Tb7 2.970439 1_545
Se13 Tb3 3.142890 1_555
Se13 Yb0 3.153775 1_655
Se13 Tb4 3.227325 1_655
Se14 Tb8 2.926984 1_555
Se14 Yb0 2.932983 1_565
Se14 Tb2 2.936964 1_565
Se14 Tb9 3.125276 1_555
Se14 Tb6 3.157023 1_565
Se14 Tb0 3.177920 1_555
Se15 Tb8 2.898880 1_554
Se15 Tb6 2.911867 1_565
Se15 Tb4 2.970439 1_565
Se15 Tb0 3.142890 1_555
Se15 Yb0 3.153775 1_565
Se15 Tb7 3.227325 1_455
