# generated using pymatgen
data_Mg15Ga
_symmetry_space_group_name_H-M   'P 1'
_cell_length_a   6.30689954
_cell_length_b   6.30689954
_cell_length_c   10.18844223
_cell_angle_alpha   90.00000000
_cell_angle_beta   90.00000000
_cell_angle_gamma   120.00000772
_symmetry_Int_Tables_number   1
_chemical_formula_structural   Mg15Ga
_chemical_formula_sum   'Mg15 Ga1'
_cell_volume   350.97017429
_cell_formula_units_Z   1
loop_
 _symmetry_equiv_pos_site_id
 _symmetry_equiv_pos_as_xyz
  1  'x, y, z'
loop_
 _atom_site_type_symbol
 _atom_site_label
 _atom_site_symmetry_multiplicity
 _atom_site_fract_x
 _atom_site_fract_y
 _atom_site_fract_z
 _atom_site_occupancy
  Mg  Mg0  1  0.33333300  0.66666700  0.50000000  1
  Mg  Mg1  1  0.83257680  0.66515359  0.00000000  1
  Mg  Mg2  1  0.83388820  0.66777539  0.50000000  1
  Mg  Mg3  1  0.83257680  0.16742320  0.00000000  1
  Mg  Mg4  1  0.83388820  0.16611180  0.50000000  1
  Mg  Mg5  1  0.33484641  0.16742320  -0.00000000  1
  Mg  Mg6  1  0.33222461  0.16611180  0.50000000  1
  Mg  Mg7  1  0.66503560  0.83251830  0.24467581  1
  Mg  Mg8  1  0.66503560  0.83251830  0.75532419  1
  Mg  Mg9  1  0.16748170  0.83251830  0.24467581  1
  Mg  Mg10  1  0.16748170  0.83251830  0.75532419  1
  Mg  Mg11  1  0.16748170  0.33496440  0.24467581  1
  Mg  Mg12  1  0.16748170  0.33496440  0.75532419  1
  Mg  Mg13  1  0.66666700  0.33333300  0.25041205  1
  Mg  Mg14  1  0.66666700  0.33333300  0.74958795  1
  Ga  Ga0  1  0.33333300  0.66666700  -0.00000000  1
loop_
_geom_bond_atom_site_label_1
_geom_bond_atom_site_label_2
_geom_bond_distance
_geom_bond_site_symmetry_2
Mg0 Mg6 3.153449 1_565
Mg0 Mg2 3.153449 1_455
Mg0 Mg4 3.153455 1_565
Mg0 Mg4 3.153455 1_455
Mg0 Mg2 3.153462 1_555
Mg0 Mg6 3.153462 1_555
Mg0 Mg8 3.170086 1_555
Mg0 Mg12 3.170086 1_555
Mg0 Mg7 3.170086 1_555
Mg0 Mg11 3.170086 1_555
Mg0 Mg10 3.170086 1_555
Mg0 Mg9 3.170086 1_555
Mg1 Mg9 3.091999 1_655
Mg1 Mg10 3.091999 1_654
Mg1 Mg7 3.092002 1_555
Mg1 Mg8 3.092002 1_554
Mg1 Mg14 3.129522 1_554
Mg1 Mg13 3.129522 1_555
Mg1 Mg5 3.139135 1_555
Mg1 Mg3 3.139136 1_555
Mg1 Mg5 3.167764 1_665
Mg1 Mg3 3.167764 1_565
Mg2 Mg6 3.142957 1_665
Mg2 Mg4 3.142958 1_565
Mg2 Mg6 3.163941 1_555
Mg2 Mg4 3.163942 1_555
Mg2 Mg9 3.176026 1_655
Mg2 Mg8 3.176033 1_555
Mg2 Mg7 3.176033 1_555
Mg3 Mg7 3.091999 1_545
Mg3 Mg8 3.091999 1_544
Mg3 Mg5 3.139136 1_555
Mg3 Mg5 3.167764 1_655
Mg4 Mg6 3.142958 1_655
Mg4 Mg6 3.163942 1_555
Mg4 Mg7 3.176026 1_545
Mg4 Mg8 3.176026 1_545
Mg5 Mg9 3.091999 1_545
Mg6 Mg9 3.176026 1_545
Mg7 Mg9 3.138022 1_555
Mg7 Mg9 3.168877 1_655
Mg10 Mg5 3.091999 1_566
Mg10 Mg8 3.138022 1_555
Mg10 Mg12 3.138022 1_555
Mg10 Mg14 3.154003 1_455
Mg10 Mg14 3.154003 1_565
Mg10 Mg8 3.168877 1_455
Mg10 Mg12 3.168877 1_565
Mg10 Mg6 3.176026 1_565
Mg10 Mg2 3.176026 1_455
Mg11 Mg3 3.091999 1_455
Mg11 Mg5 3.092002 1_555
Mg11 Mg7 3.138022 1_555
Mg11 Mg9 3.138022 1_555
Mg11 Mg13 3.153998 1_455
Mg11 Mg13 3.154010 1_555
Mg11 Mg7 3.168877 1_445
Mg11 Mg9 3.168877 1_545
Mg11 Mg4 3.176026 1_455
Mg11 Mg6 3.176033 1_555
Mg12 Mg3 3.091999 1_456
Mg12 Mg5 3.092002 1_556
Mg12 Mg8 3.138022 1_555
Mg12 Mg14 3.153998 1_455
Mg12 Mg14 3.154010 1_555
Mg12 Mg8 3.168877 1_445
Mg12 Mg4 3.176026 1_455
Mg12 Mg6 3.176033 1_555
Mg13 Mg3 3.129519 1_555
Mg13 Mg5 3.129522 1_555
Mg13 Mg2 3.131014 1_555
Mg13 Mg6 3.131014 1_555
Mg13 Mg4 3.131014 1_555
Mg13 Mg7 3.153998 1_545
Mg13 Mg9 3.154003 1_655
Mg13 Mg9 3.154003 1_545
Mg13 Mg7 3.154010 1_555
Mg14 Mg3 3.129519 1_556
Mg14 Mg5 3.129522 1_556
Mg14 Mg2 3.131014 1_555
Mg14 Mg6 3.131014 1_555
Mg14 Mg4 3.131014 1_555
Mg14 Mg8 3.153998 1_545
Mg14 Mg8 3.154010 1_555
Ga0 Mg8 3.081683 1_554
Ga0 Mg7 3.081683 1_555
Ga0 Mg11 3.081683 1_555
Ga0 Mg12 3.081683 1_554
Ga0 Mg9 3.081683 1_555
Ga0 Mg10 3.081683 1_554
Ga0 Mg5 3.153457 1_565
Ga0 Mg1 3.153457 1_455
Ga0 Mg3 3.153460 1_455
Ga0 Mg3 3.153460 1_565
Ga0 Mg5 3.153464 1_555
Ga0 Mg1 3.153464 1_555
