# generated using pymatgen
data_U3NO23
_symmetry_space_group_name_H-M   'P 1'
_cell_length_a   7.82108600
_cell_length_b   10.87524733
_cell_length_c   12.14070358
_cell_angle_alpha   108.69340065
_cell_angle_beta   102.12616193
_cell_angle_gamma   87.57025470
_symmetry_Int_Tables_number   1
_chemical_formula_structural   U3NO23
_chemical_formula_sum   'U6 N2 O46'
_cell_volume   955.99578848
_cell_formula_units_Z   2
loop_
 _symmetry_equiv_pos_site_id
 _symmetry_equiv_pos_as_xyz
  1  'x, y, z'
loop_
 _atom_site_type_symbol
 _atom_site_label
 _atom_site_symmetry_multiplicity
 _atom_site_fract_x
 _atom_site_fract_y
 _atom_site_fract_z
 _atom_site_occupancy
  U  U0  1  0.57564900  0.74214100  0.49132900  1
  U  U1  1  0.42435100  0.25785900  0.50867100  1
  U  U2  1  0.71375300  0.98230200  0.83561500  1
  U  U3  1  0.28624700  0.01769800  0.16438500  1
  U  U4  1  0.91704100  0.62863700  0.68615700  1
  U  U5  1  0.08295900  0.37136300  0.31384300  1
  N  N0  1  0.79957200  0.66451000  0.07279800  1
  N  N1  1  0.20042800  0.33549000  0.92720200  1
  O  O0  1  0.72029500  0.85621200  0.47280100  1
  O  O1  1  0.27970500  0.14378800  0.52719900  1
  O  O2  1  0.39872300  0.65078300  0.50468100  1
  O  O3  1  0.60127700  0.34921700  0.49531900  1
  O  O4  1  0.88510300  0.05151600  0.79531800  1
  O  O5  1  0.11489700  0.94848400  0.20468200  1
  O  O6  1  0.55378700  0.91965200  0.89177800  1
  O  O7  1  0.44621300  0.08034800  0.10822200  1
  O  O8  1  0.07262600  0.73403800  0.66269600  1
  O  O9  1  0.92737400  0.26596200  0.33730400  1
  O  O10  1  0.76893300  0.57140400  0.75866800  1
  O  O11  1  0.23106700  0.42859600  0.24133200  1
  O  O12  1  0.70394100  0.80808500  0.68852100  1
  O  O13  1  0.29605900  0.19191500  0.31147900  1
  O  O14  1  0.39673500  0.95272000  0.65249000  1
  O  O15  1  0.60326500  0.04728000  0.34751000  1
  O  O16  1  0.75588300  0.60368600  0.51302300  1
  O  O17  1  0.24411700  0.39631400  0.48697700  1
  O  O18  1  0.96974000  0.85789800  0.91427200  1
  O  O19  1  0.03026000  0.14210200  0.08572800  1
  O  O20  1  0.26909000  0.85565900  0.39925100  1
  O  O21  1  0.73091000  0.14434100  0.60074900  1
  O  O22  1  0.46865500  0.66814900  0.26295200  1
  O  O23  1  0.53134500  0.33185100  0.73704800  1
  O  O24  1  0.56209200  0.17593000  0.82547100  1
  O  O25  1  0.43790800  0.82407000  0.17452900  1
  O  O26  1  0.87178400  0.09944500  0.04470300  1
  O  O27  1  0.12821600  0.90055500  0.95529700  1
  O  O28  1  0.01279000  0.46140000  0.64080900  1
  O  O29  1  0.98721000  0.53860000  0.35919100  1
  O  O30  1  0.23693600  0.62885100  0.86506700  1
  O  O31  1  0.76306400  0.37114900  0.13493300  1
  O  O32  1  0.77019800  0.78429500  0.09386700  1
  O  O33  1  0.22980200  0.21570500  0.90613300  1
  O  O34  1  0.95203300  0.62842700  0.10064100  1
  O  O35  1  0.04796700  0.37157300  0.89935900  1
  O  O36  1  0.67486400  0.58324400  0.02474900  1
  O  O37  1  0.32513600  0.41675600  0.97525100  1
  O  O38  1  0.60032100  0.29915500  0.83154800  1
  O  O39  1  0.39967900  0.70084500  0.16845200  1
  O  O40  1  0.88252600  0.18231000  0.61551300  1
  O  O41  1  0.11747400  0.81769000  0.38448700  1
  O  O42  1  0.24711400  0.96625600  0.67085900  1
  O  O43  1  0.75288600  0.03374400  0.32914100  1
  O  O44  1  0.37323100  0.61705500  0.82737300  1
  O  O45  1  0.62676900  0.38294500  0.17262700  1
loop_
_geom_bond_atom_site_label_1
_geom_bond_atom_site_label_2
_geom_bond_distance
_geom_bond_site_symmetry_2
N0 O34 1.251442 1_555
N0 O36 1.255492 1_555
N0 O32 1.265279 1_555
N1 O35 1.251442 1_555
N1 O37 1.255492 1_555
N1 O33 1.265279 1_555
O0 U0 1.809464 1_555
O1 U1 1.809464 1_555
O2 U0 1.800617 1_555
O3 U1 1.800617 1_555
O4 U2 1.788564 1_545
O5 U3 1.788564 1_565
O6 U2 1.795242 1_555
O7 U3 1.795242 1_555
O8 U4 1.830006 1_455
O9 U5 1.830006 1_655
O10 U4 1.828935 1_555
O11 U5 1.828935 1_555
O12 U2 2.137910 1_555
O12 U0 2.281186 1_555
O12 U4 2.509093 1_555
O13 U3 2.137910 1_555
O13 U1 2.281186 1_555
O13 U5 2.509093 1_555
O14 O42 1.230756 1_555
O14 U2 2.913276 1_555
O14 U0 3.006198 1_555
O15 O43 1.230756 1_555
O15 U3 2.913276 1_555
O15 U1 3.006198 1_555
O16 U0 2.059589 1_555
O16 U4 2.151950 1_555
O17 U1 2.059589 1_555
O17 U5 2.151950 1_555
O18 O27 1.280942 1_655
O18 U2 2.558511 1_555
O18 U4 3.039349 1_555
O19 O26 1.280942 1_455
O19 U3 2.558511 1_555
O19 U5 3.039349 1_555
O20 O41 1.230258 1_555
O20 U0 2.833720 1_555
O21 O40 1.230258 1_555
O21 U1 2.833720 1_555
O22 O39 1.311089 1_555
O22 U0 2.586030 1_555
O23 O38 1.311089 1_555
O23 U1 2.586030 1_555
O24 O38 1.360898 1_555
O24 U2 2.397791 1_545
O25 O39 1.360898 1_555
O25 U3 2.397791 1_565
O26 U2 2.517310 1_544
O27 U3 2.517310 1_566
O28 U4 1.894100 1_455
O29 U5 1.894100 1_655
O30 O44 1.232035 1_555
O30 U4 2.948173 1_455
O31 O45 1.232035 1_555
O31 U5 2.948173 1_655
