# generated using pymatgen
data_MnCd4O5
_symmetry_space_group_name_H-M   'P 1'
_cell_length_a   6.57434164
_cell_length_b   7.40422059
_cell_length_c   10.95179900
_cell_angle_alpha   78.10462369
_cell_angle_beta   90.00154702
_cell_angle_gamma   77.16849482
_symmetry_Int_Tables_number   1
_chemical_formula_structural   MnCd4O5
_chemical_formula_sum   'Mn4 Cd16 O20'
_cell_volume   508.04834215
_cell_formula_units_Z   4
loop_
 _symmetry_equiv_pos_site_id
 _symmetry_equiv_pos_as_xyz
  1  'x, y, z'
loop_
 _atom_site_type_symbol
 _atom_site_label
 _atom_site_symmetry_multiplicity
 _atom_site_fract_x
 _atom_site_fract_y
 _atom_site_fract_z
 _atom_site_occupancy
  Mn  Mn0  1  0.10026292  0.59989420  0.59917356  1
  Mn  Mn1  1  -0.00009345  0.00004620  0.00086577  1
  Mn  Mn2  1  0.60026279  0.59989462  0.59917365  1
  Mn  Mn3  1  0.49990661  0.00004505  0.00086565  1
  Cd  Cd0  1  0.79999724  0.80000699  0.80000783  1
  Cd  Cd1  1  0.30000082  0.80000629  0.80000920  1
  Cd  Cd2  1  0.04992050  0.80005199  0.29994084  1
  Cd  Cd3  1  0.54992034  0.80005000  0.29994206  1
  Cd  Cd4  1  0.14896126  0.40435601  0.89510914  1
  Cd  Cd5  1  0.64895841  0.40435733  0.89510730  1
  Cd  Cd6  1  0.95103140  0.19559967  0.70488827  1
  Cd  Cd7  1  0.45103084  0.19559899  0.70488710  1
  Cd  Cd8  1  0.84989681  0.59974283  0.09872102  1
  Cd  Cd9  1  0.34989815  0.59974106  0.09872194  1
  Cd  Cd10  1  0.24996436  0.00029419  0.50128697  1
  Cd  Cd11  1  0.74996394  0.00029500  0.50128713  1
  Cd  Cd12  1  0.90037510  0.39848232  0.40359305  1
  Cd  Cd13  1  0.40037531  0.39848088  0.40359351  1
  Cd  Cd14  1  0.19967236  0.20156282  0.19637342  1
  Cd  Cd15  1  0.69967236  0.20156193  0.19637274  1
  O  O0  1  0.02705936  0.89174040  0.64909571  1
  O  O1  1  0.52706049  0.89173823  0.64909559  1
  O  O2  1  0.07288254  0.70826912  0.95094822  1
  O  O3  1  0.57288029  0.70827077  0.95094762  1
  O  O4  1  0.87294526  0.50814887  0.73590765  1
  O  O5  1  0.37294402  0.50814970  0.73590748  1
  O  O6  1  0.22722687  0.09180812  0.86409517  1
  O  O7  1  0.72721957  0.09180695  0.86409446  1
  O  O8  1  0.77271320  0.90805706  0.13766460  1
  O  O9  1  0.27271909  0.90805607  0.13766543  1
  O  O10  1  0.82708327  0.69199987  0.46231081  1
  O  O11  1  0.32708183  0.69199889  0.46231130  1
  O  O12  1  0.12445893  0.50205266  0.25139730  1
  O  O13  1  0.62445908  0.50205096  0.25139761  1
  O  O14  1  0.97555095  0.09795796  0.34860710  1
  O  O15  1  0.47555191  0.09795547  0.34860679  1
  O  O16  1  0.17351993  0.30600127  0.55596656  1
  O  O17  1  0.67352022  0.30600220  0.55596697  1
  O  O18  1  0.92657086  0.29393418  0.04404470  1
  O  O19  1  0.42657226  0.29393388  0.04404579  1
loop_
_geom_bond_atom_site_label_1
_geom_bond_atom_site_label_2
_geom_bond_distance
_geom_bond_site_symmetry_2
Mn0 O5 2.226492 1_555
Mn0 O11 2.228404 1_555
Mn0 O4 2.229128 1_455
Mn0 O10 2.229737 1_455
Mn0 O16 2.269374 1_555
Mn0 O0 2.285857 1_555
Mn1 O7 2.226769 1_454
Mn1 O9 2.227546 1_545
Mn1 O6 2.229423 1_554
Mn1 O8 2.229526 1_445
Mn1 O18 2.269214 1_455
Mn1 O2 2.285350 1_544
Mn2 O4 2.226499 1_555
Mn2 O10 2.228417 1_555
Mn2 O5 2.229131 1_555
Mn2 O11 2.229741 1_555
Mn2 O17 2.269369 1_555
Mn2 O1 2.285838 1_555
Mn3 O6 2.226728 1_554
Mn3 O8 2.227513 1_545
Mn3 O7 2.229392 1_554
Mn3 O9 2.229504 1_545
Mn3 O19 2.269225 1_555
Mn3 O3 2.285332 1_544
Cd0 O2 2.325571 1_655
Cd0 O1 2.325611 1_555
Cd0 O0 2.325737 1_655
Cd0 O3 2.326195 1_555
Cd0 O7 2.357016 1_565
Cd0 O4 2.357490 1_555
Cd1 O3 2.325530 1_555
Cd1 O0 2.325641 1_555
Cd1 O1 2.325733 1_555
Cd1 O2 2.326197 1_555
Cd1 O6 2.357025 1_565
Cd1 O5 2.357487 1_555
Cd2 O14 2.322532 1_465
Cd2 O12 2.322618 1_555
Cd2 O9 2.424457 1_555
Cd2 O10 2.425429 1_455
Cd2 O8 2.426096 1_455
Cd2 O11 2.426581 1_555
Cd3 O15 2.322522 1_565
Cd3 O13 2.322620 1_555
Cd3 O8 2.424453 1_555
Cd3 O11 2.425427 1_555
Cd3 O9 2.426072 1_555
Cd3 O10 2.426576 1_555
Cd4 O19 2.333950 1_556
Cd4 O18 2.334081 1_456
Cd4 O6 2.351740 1_555
Cd4 O5 2.397776 1_555
Cd4 O4 2.398214 1_455
Cd4 O2 2.398986 1_555
Cd5 O18 2.333963 1_556
Cd5 O19 2.334086 1_556
Cd5 O7 2.351753 1_555
Cd5 O4 2.397775 1_555
Cd5 O5 2.398195 1_555
Cd5 O3 2.398994 1_555
Cd6 O17 2.333378 1_555
Cd6 O16 2.334389 1_655
Cd6 O4 2.351770 1_555
Cd6 O7 2.397037 1_555
Cd6 O0 2.398381 1_645
Cd6 O6 2.399062 1_655
Cd7 O16 2.333372 1_555
Cd7 O17 2.334386 1_555
Cd7 O5 2.351785 1_555
Cd7 O6 2.397011 1_555
Cd7 O1 2.398386 1_545
Cd7 O7 2.399035 1_555
Cd8 O3 2.322791 1_554
Cd8 O2 2.324048 1_654
Cd8 O13 2.343802 1_555
Cd8 O12 2.344914 1_655
Cd8 O8 2.353203 1_555
Cd8 O18 2.406576 1_555
Cd9 O2 2.322789 1_554
Cd9 O3 2.324051 1_554
Cd9 O12 2.343792 1_555
Cd9 O13 2.344904 1_555
Cd9 O9 2.353208 1_555
Cd9 O19 2.406565 1_555
Cd10 O1 2.323408 1_545
Cd10 O0 2.323988 1_545
Cd10 O14 2.344255 1_455
Cd10 O15 2.344450 1_555
Cd10 O11 2.353202 1_545
Cd10 O16 2.405880 1_555
Cd11 O0 2.323404 1_645
Cd11 O1 2.323987 1_545
Cd11 O15 2.344253 1_555
Cd11 O14 2.344450 1_555
Cd11 O10 2.353204 1_545
Cd11 O17 2.405882 1_555
Cd12 O17 2.336807 1_555
Cd12 O16 2.336870 1_655
Cd12 O10 2.340905 1_555
Cd12 O12 2.347693 1_655
Cd12 O13 2.347731 1_555
Cd12 O14 2.371105 1_555
Cd13 O16 2.336802 1_555
Cd13 O17 2.336871 1_555
Cd13 O11 2.340909 1_555
Cd13 O13 2.347693 1_555
Cd13 O12 2.347739 1_555
Cd13 O15 2.371117 1_555
Cd14 O18 2.336370 1_455
Cd14 O19 2.336452 1_555
Cd14 O9 2.340782 1_545
Cd14 O15 2.347833 1_555
Cd14 O14 2.348215 1_455
Cd14 O12 2.371050 1_555
Cd15 O19 2.336350 1_555
Cd15 O18 2.336451 1_555
Cd15 O8 2.340769 1_545
Cd15 O14 2.347835 1_555
Cd15 O15 2.348217 1_555
Cd15 O13 2.371049 1_555
