# generated using pymatgen
data_CaAl2O4
_symmetry_space_group_name_H-M   'P 1'
_cell_length_a   2.89957600
_cell_length_b   9.00017900
_cell_length_c   10.41070200
_cell_angle_alpha   90.00000000
_cell_angle_beta   90.00000000
_cell_angle_gamma   90.00000000
_symmetry_Int_Tables_number   1
_chemical_formula_structural   CaAl2O4
_chemical_formula_sum   'Ca4 Al8 O16'
_cell_volume   271.68499837
_cell_formula_units_Z   4
loop_
 _symmetry_equiv_pos_site_id
 _symmetry_equiv_pos_as_xyz
  1  'x, y, z'
loop_
 _atom_site_type_symbol
 _atom_site_label
 _atom_site_symmetry_multiplicity
 _atom_site_fract_x
 _atom_site_fract_y
 _atom_site_fract_z
 _atom_site_occupancy
  Ca  Ca0  1  0.25000000  0.24224400  0.34458600  1
  Ca  Ca1  1  0.75000000  0.75775600  0.65541400  1
  Ca  Ca2  1  0.25000000  0.74224400  0.15541400  1
  Ca  Ca3  1  0.75000000  0.25775600  0.84458600  1
  Al  Al0  1  0.25000000  0.58127800  0.89706700  1
  Al  Al1  1  0.75000000  0.41872200  0.10293300  1
  Al  Al2  1  0.25000000  0.08127800  0.60293300  1
  Al  Al3  1  0.75000000  0.91872200  0.39706700  1
  Al  Al4  1  0.25000000  0.56181200  0.38900700  1
  Al  Al5  1  0.75000000  0.43818800  0.61099300  1
  Al  Al6  1  0.25000000  0.06181200  0.11099300  1
  Al  Al7  1  0.75000000  0.93818800  0.88900700  1
  O  O0  1  0.25000000  0.57734500  0.57186600  1
  O  O1  1  0.75000000  0.42265500  0.42813400  1
  O  O2  1  0.25000000  0.07734500  0.92813400  1
  O  O3  1  0.75000000  0.92265500  0.07186600  1
  O  O4  1  0.25000000  0.47360100  0.21546800  1
  O  O5  1  0.75000000  0.52639900  0.78453200  1
  O  O6  1  0.25000000  0.97360100  0.28453200  1
  O  O7  1  0.75000000  0.02639900  0.71546800  1
  O  O8  1  0.25000000  0.88573000  0.51963300  1
  O  O9  1  0.75000000  0.11427000  0.48036700  1
  O  O10  1  0.25000000  0.38573000  0.98036700  1
  O  O11  1  0.75000000  0.61427000  0.01963300  1
  O  O12  1  0.75000000  0.70319100  0.34621000  1
  O  O13  1  0.25000000  0.29680900  0.65379000  1
  O  O14  1  0.75000000  0.20319100  0.15379000  1
  O  O15  1  0.25000000  0.79680900  0.84621000  1
loop_
_geom_bond_atom_site_label_1
_geom_bond_atom_site_label_2
_geom_bond_distance
_geom_bond_site_symmetry_2
Ca0 O9 2.329528 1_555
Ca0 O9 2.329528 1_455
Ca0 O1 2.344126 1_555
Ca0 O1 2.344126 1_455
Ca0 O4 2.478443 1_555
Ca0 O14 2.484129 1_455
Ca0 O14 2.484129 1_555
Ca0 O6 2.497360 1_545
Ca1 O8 2.329528 1_555
Ca1 O8 2.329528 1_655
Ca1 O0 2.344126 1_555
Ca1 O0 2.344126 1_655
Ca1 O5 2.478443 1_555
Ca1 O15 2.484129 1_555
Ca1 O15 2.484129 1_655
Ca1 O7 2.497360 1_565
Ca2 O11 2.329528 1_455
Ca2 O11 2.329528 1_555
Ca2 O3 2.344126 1_455
Ca2 O3 2.344126 1_555
Ca2 O6 2.478443 1_555
Ca2 O12 2.484129 1_455
Ca2 O12 2.484129 1_555
Ca2 O4 2.497360 1_555
Ca3 O10 2.329528 1_555
Ca3 O10 2.329528 1_655
Ca3 O2 2.344126 1_555
Ca3 O2 2.344126 1_655
Ca3 O7 2.478443 1_555
Ca3 O13 2.484129 1_655
Ca3 O13 2.484129 1_555
Ca3 O5 2.497360 1_555
Al0 O5 1.928319 1_555
Al0 O5 1.928319 1_455
Al0 O11 1.954028 1_556
Al0 O11 1.954028 1_456
Al0 O10 1.962024 1_555
Al0 O15 2.010775 1_555
Al1 O4 1.928319 1_555
Al1 O4 1.928319 1_655
Al1 O10 1.954028 1_654
Al1 O10 1.954028 1_554
Al1 O11 1.962024 1_555
Al1 O14 2.010775 1_555
Al2 O7 1.928319 1_455
Al2 O7 1.928319 1_555
Al2 O9 1.954028 1_455
Al2 O9 1.954028 1_555
Al2 O8 1.962024 1_545
Al2 O13 2.010775 1_555
Al3 O6 1.928319 1_655
Al3 O6 1.928319 1_555
Al3 O8 1.954028 1_555
Al3 O8 1.954028 1_655
Al3 O9 1.962024 1_565
Al3 O12 2.010775 1_555
Al4 O0 1.908817 1_555
Al4 O1 1.958676 1_555
Al4 O1 1.958676 1_455
Al4 O4 1.973406 1_555
Al4 O12 1.979771 1_455
Al4 O12 1.979771 1_555
Al5 O1 1.908817 1_555
Al5 O0 1.958676 1_555
Al5 O0 1.958676 1_655
Al5 O5 1.973406 1_555
Al5 O13 1.979771 1_555
Al5 O13 1.979771 1_655
Al6 O2 1.908817 1_554
Al6 O3 1.958676 1_545
Al6 O3 1.958676 1_445
Al6 O6 1.973406 1_545
Al6 O14 1.979771 1_455
Al6 O14 1.979771 1_555
Al7 O3 1.908817 1_556
Al7 O2 1.958676 1_665
Al7 O2 1.958676 1_565
Al7 O7 1.973406 1_565
Al7 O15 1.979771 1_655
Al7 O15 1.979771 1_555
