# generated using pymatgen
data_K2NiC4(SO)4
_symmetry_space_group_name_H-M   'P 1'
_cell_length_a   4.23785500
_cell_length_b   11.11950000
_cell_length_c   13.50945102
_cell_angle_alpha   61.92460363
_cell_angle_beta   90.00000000
_cell_angle_gamma   90.00000000
_symmetry_Int_Tables_number   1
_chemical_formula_structural   K2NiC4(SO)4
_chemical_formula_sum   'K4 Ni2 C8 S8 O8'
_cell_volume   561.69379788
_cell_formula_units_Z   2
loop_
 _symmetry_equiv_pos_site_id
 _symmetry_equiv_pos_as_xyz
  1  'x, y, z'
loop_
 _atom_site_type_symbol
 _atom_site_label
 _atom_site_symmetry_multiplicity
 _atom_site_fract_x
 _atom_site_fract_y
 _atom_site_fract_z
 _atom_site_occupancy
  K  K0  1  0.29563700  0.87223700  0.16002000  1
  K  K1  1  0.70436300  0.12776300  0.83998000  1
  K  K2  1  0.79563700  0.12776300  0.33998000  1
  K  K3  1  0.20436300  0.87223700  0.66002000  1
  Ni  Ni0  1  0.00000000  0.50000000  0.00000000  1
  Ni  Ni1  1  0.50000000  0.50000000  0.50000000  1
  C  C0  1  0.81366400  0.76891100  0.00683600  1
  C  C1  1  0.18633600  0.23108900  0.99316400  1
  C  C2  1  0.31366400  0.23108900  0.49316400  1
  C  C3  1  0.68633600  0.76891100  0.50683600  1
  C  C4  1  0.84062700  0.78437200  0.39819700  1
  C  C5  1  0.15937300  0.21562800  0.60180300  1
  C  C6  1  0.34062700  0.21562800  0.10180300  1
  C  C7  1  0.65937300  0.78437200  0.89819700  1
  S  S0  1  0.78698500  0.65481700  0.36396200  1
  S  S1  1  0.21301500  0.34518300  0.63603800  1
  S  S2  1  0.28698500  0.34518300  0.13603800  1
  S  S3  1  0.71301500  0.65481700  0.86396200  1
  S  S4  1  0.48473300  0.62219200  0.58951500  1
  S  S5  1  0.51526700  0.37780800  0.41048500  1
  S  S6  1  0.98473300  0.37780800  0.91048500  1
  S  S7  1  0.01526700  0.62219200  0.08951500  1
  O  O0  1  0.99404600  0.88925800  0.33896700  1
  O  O1  1  0.00595400  0.11074200  0.66103300  1
  O  O2  1  0.49404600  0.11074200  0.16103300  1
  O  O3  1  0.50595400  0.88925800  0.83896700  1
  O  O4  1  0.78557500  0.86556000  0.02917000  1
  O  O5  1  0.21442500  0.13444000  0.97083000  1
  O  O6  1  0.28557500  0.13444000  0.47083000  1
  O  O7  1  0.71442500  0.86556000  0.52917000  1
loop_
_geom_bond_atom_site_label_1
_geom_bond_atom_site_label_2
_geom_bond_distance
_geom_bond_site_symmetry_2
K0 O4 2.750421 1_555
K0 O2 2.788323 1_565
K0 O4 2.815356 1_455
K0 O0 2.818549 1_455
K0 O5 2.852591 1_564
K0 S0 3.391432 1_555
K0 S0 3.436943 1_455
K0 S7 3.541493 1_555
K1 O5 2.750421 1_555
K1 O3 2.788323 1_545
K1 O5 2.815356 1_655
K1 O1 2.818549 1_655
K1 O4 2.852591 1_546
K1 S1 3.391432 1_555
K1 S1 3.436943 1_655
K1 S6 3.541493 1_555
K2 O6 2.750421 1_655
K2 O0 2.788323 1_545
K2 O6 2.815356 1_555
K2 O2 2.818549 1_555
K2 O7 2.852591 1_545
K2 S2 3.391432 1_655
K2 S2 3.436943 1_555
K2 S5 3.541493 1_555
K3 O7 2.750421 1_455
K3 O1 2.788323 1_565
K3 O7 2.815356 1_555
K3 O3 2.818549 1_555
K3 O6 2.852591 1_565
K3 S3 3.391432 1_455
K3 S3 3.436943 1_555
K3 S4 3.541493 1_555
Ni0 S3 2.200509 1_454
Ni0 S2 2.200509 1_555
Ni0 S7 2.204377 1_555
Ni0 S6 2.204377 1_454
Ni1 S0 2.200509 1_555
Ni1 S1 2.200509 1_555
Ni1 S4 2.204377 1_555
Ni1 S5 2.204377 1_555
C0 O4 1.251148 1_555
C0 S7 1.709943 1_655
C1 O5 1.251148 1_555
C1 S6 1.709943 1_455
C2 O6 1.251148 1_555
C2 S5 1.709943 1_555
C3 O7 1.251148 1_555
C3 S4 1.709943 1_555
C4 O0 1.242894 1_555
C4 S0 1.722790 1_555
C5 O1 1.242894 1_555
C5 S1 1.722790 1_555
C6 O2 1.242894 1_555
C6 S2 1.722790 1_555
C7 O3 1.242894 1_555
C7 S3 1.722790 1_555
