# generated using pymatgen
data_MgFeAs2O7
_symmetry_space_group_name_H-M   'P 1'
_cell_length_a   8.69416700
_cell_length_b   7.38121600
_cell_length_c   9.72654650
_cell_angle_alpha   66.03238406
_cell_angle_beta   90.00000000
_cell_angle_gamma   90.00000000
_symmetry_Int_Tables_number   1
_chemical_formula_structural   MgFeAs2O7
_chemical_formula_sum   'Mg4 Fe4 As8 O28'
_cell_volume   570.36639301
_cell_formula_units_Z   4
loop_
 _symmetry_equiv_pos_site_id
 _symmetry_equiv_pos_as_xyz
  1  'x, y, z'
loop_
 _atom_site_type_symbol
 _atom_site_label
 _atom_site_symmetry_multiplicity
 _atom_site_fract_x
 _atom_site_fract_y
 _atom_site_fract_z
 _atom_site_occupancy
  Mg  Mg0  1  0.07617800  0.72630600  0.89298600  1
  Mg  Mg1  1  0.57617800  0.27369400  0.60701400  1
  Mg  Mg2  1  0.92382200  0.27369400  0.10701400  1
  Mg  Mg3  1  0.42382200  0.72630600  0.39298600  1
  Fe  Fe0  1  0.94371600  0.18467400  0.68325800  1
  Fe  Fe1  1  0.44371600  0.81532600  0.81674200  1
  Fe  Fe2  1  0.05628400  0.81532600  0.31674200  1
  Fe  Fe3  1  0.55628400  0.18467400  0.18325800  1
  As  As0  1  0.77285000  0.56462100  0.75193400  1
  As  As1  1  0.27285000  0.43537900  0.74806600  1
  As  As2  1  0.22715000  0.43537900  0.24806600  1
  As  As3  1  0.72715000  0.56462100  0.25193400  1
  As  As4  1  0.72368700  0.97981500  0.96024400  1
  As  As5  1  0.22368700  0.02018500  0.53975600  1
  As  As6  1  0.27631300  0.02018500  0.03975600  1
  As  As7  1  0.77631300  0.97981500  0.46024400  1
  O  O0  1  0.73155100  0.13790400  0.04957700  1
  O  O1  1  0.23155100  0.86209600  0.45042300  1
  O  O2  1  0.26844900  0.86209600  0.95042300  1
  O  O3  1  0.76844900  0.13790400  0.54957700  1
  O  O4  1  0.59977000  0.64565900  0.77756100  1
  O  O5  1  0.09977000  0.35434100  0.72243900  1
  O  O6  1  0.40023000  0.35434100  0.22243900  1
  O  O7  1  0.90023000  0.64565900  0.27756100  1
  O  O8  1  0.90364500  0.53059800  0.89165000  1
  O  O9  1  0.40364500  0.46940200  0.60835000  1
  O  O10  1  0.09635500  0.46940200  0.10835000  1
  O  O11  1  0.59635500  0.53059800  0.39165000  1
  O  O12  1  0.85598300  0.74908300  0.58503000  1
  O  O13  1  0.35598300  0.25091700  0.91497000  1
  O  O14  1  0.14401700  0.25091700  0.41497000  1
  O  O15  1  0.64401700  0.74908300  0.08503000  1
  O  O16  1  0.91585200  0.03697000  0.32551100  1
  O  O17  1  0.41585200  0.96303000  0.17448900  1
  O  O18  1  0.08414800  0.96303000  0.67448900  1
  O  O19  1  0.58414800  0.03697000  0.82551100  1
  O  O20  1  0.74038700  0.36710300  0.20452600  1
  O  O21  1  0.24038700  0.63289700  0.29547400  1
  O  O22  1  0.25961300  0.63289700  0.79547400  1
  O  O23  1  0.75961300  0.36710300  0.70452600  1
  O  O24  1  0.60102200  0.94623300  0.39551600  1
  O  O25  1  0.10102200  0.05376700  0.10448400  1
  O  O26  1  0.39897800  0.05376700  0.60448400  1
  O  O27  1  0.89897800  0.94623300  0.89551600  1
loop_
_geom_bond_atom_site_label_1
_geom_bond_atom_site_label_2
_geom_bond_distance
_geom_bond_site_symmetry_2
Mg0 O8 2.086210 1_455
Mg0 O22 2.109420 1_555
Mg0 O18 2.134837 1_555
Mg0 O2 2.136818 1_555
Mg0 O10 2.188010 1_556
Mg0 O27 2.245378 1_455
Mg1 O9 2.086210 1_555
Mg1 O23 2.109420 1_555
Mg1 O19 2.134837 1_555
Mg1 O3 2.136818 1_555
Mg1 O11 2.188010 1_555
Mg1 O26 2.245378 1_555
Mg2 O10 2.086210 1_655
Mg2 O20 2.109420 1_555
Mg2 O16 2.134837 1_555
Mg2 O0 2.136818 1_555
Mg2 O8 2.188010 1_554
Mg2 O25 2.245378 1_655
Mg3 O11 2.086210 1_555
Mg3 O21 2.109420 1_555
Mg3 O17 2.134837 1_555
Mg3 O1 2.136818 1_555
Mg3 O9 2.188010 1_555
Mg3 O24 2.245378 1_555
Fe0 O5 1.985487 1_655
Fe0 O18 2.070709 1_645
Fe0 O3 2.120493 1_555
Fe0 O27 2.135206 1_545
Fe0 O23 2.155060 1_555
Fe1 O4 1.985487 1_555
Fe1 O19 2.070709 1_565
Fe1 O2 2.120493 1_555
Fe1 O26 2.135206 1_565
Fe1 O22 2.155060 1_555
Fe2 O7 1.985487 1_455
Fe2 O16 2.070709 1_465
Fe2 O1 2.120493 1_555
Fe2 O25 2.135206 1_565
Fe2 O21 2.155060 1_555
Fe3 O6 1.985487 1_555
Fe3 O17 2.070709 1_545
Fe3 O0 2.120493 1_555
Fe3 O24 2.135206 1_545
Fe3 O20 2.155060 1_555
As0 O4 1.674945 1_555
As0 O23 1.702232 1_555
As0 O8 1.710461 1_555
As0 O12 1.793288 1_555
As1 O5 1.674945 1_555
As1 O22 1.702232 1_555
As1 O9 1.710461 1_555
As1 O13 1.793288 1_555
As2 O6 1.674945 1_555
As2 O21 1.702232 1_555
As2 O10 1.710461 1_555
As2 O14 1.793288 1_555
As3 O7 1.674945 1_555
As3 O20 1.702232 1_555
As3 O11 1.710461 1_555
As3 O15 1.793288 1_555
As4 O27 1.705053 1_555
As4 O19 1.708210 1_565
As4 O0 1.716111 1_566
As4 O15 1.781584 1_556
As5 O26 1.705053 1_555
As5 O18 1.708210 1_545
As5 O1 1.716111 1_545
As5 O14 1.781584 1_555
As6 O25 1.705053 1_555
As6 O17 1.708210 1_545
As6 O2 1.716111 1_544
As6 O13 1.781584 1_554
As7 O24 1.705053 1_555
As7 O16 1.708210 1_565
As7 O3 1.716111 1_565
As7 O12 1.781584 1_555
