# generated using pymatgen
data_CO2
_symmetry_space_group_name_H-M   'P 1'
_cell_length_a   3.99084900
_cell_length_b   6.80198300
_cell_length_c   7.13573300
_cell_angle_alpha   90.00000000
_cell_angle_beta   90.00000000
_cell_angle_gamma   90.00000000
_symmetry_Int_Tables_number   1
_chemical_formula_structural   CO2
_chemical_formula_sum   'C8 O16'
_cell_volume   193.70437492
_cell_formula_units_Z   8
loop_
 _symmetry_equiv_pos_site_id
 _symmetry_equiv_pos_as_xyz
  1  'x, y, z'
loop_
 _atom_site_type_symbol
 _atom_site_label
 _atom_site_symmetry_multiplicity
 _atom_site_fract_x
 _atom_site_fract_y
 _atom_site_fract_z
 _atom_site_occupancy
  C  C0  1  0.99556900  0.31712800  0.58244800  1
  C  C1  1  0.00443100  0.81712800  0.91755200  1
  C  C2  1  0.50443100  0.68287200  0.08244800  1
  C  C3  1  0.49556900  0.18287200  0.41755200  1
  C  C4  1  0.94245400  0.19159300  0.91534300  1
  C  C5  1  0.05754600  0.69159300  0.58465700  1
  C  C6  1  0.55754600  0.80840700  0.41534300  1
  C  C7  1  0.44245400  0.30840700  0.08465700  1
  O  O0  1  0.67136100  0.00555400  0.41727800  1
  O  O1  1  0.32863900  0.50555400  0.08272200  1
  O  O2  1  0.82863900  0.99444600  0.91727800  1
  O  O3  1  0.17136100  0.49444600  0.58272200  1
  O  O4  1  0.82233800  0.27669400  0.74757700  1
  O  O5  1  0.17766200  0.77669400  0.75242300  1
  O  O6  1  0.67766200  0.72330600  0.24757700  1
  O  O7  1  0.32233800  0.22330600  0.25242300  1
  O  O8  1  0.24728400  0.17196800  0.55927100  1
  O  O9  1  0.75271600  0.67196800  0.94072900  1
  O  O10  1  0.25271600  0.82803200  0.05927100  1
  O  O11  1  0.74728400  0.32803200  0.44072900  1
  O  O12  1  0.78441200  0.29140400  0.06362800  1
  O  O13  1  0.21558800  0.79140400  0.43637200  1
  O  O14  1  0.71558800  0.70859600  0.56362800  1
  O  O15  1  0.28441200  0.20859600  0.93637200  1
loop_
_geom_bond_atom_site_label_1
_geom_bond_atom_site_label_2
_geom_bond_distance
_geom_bond_site_symmetry_2
C0 O4 1.393564 1_555
C0 O3 1.395314 1_655
C0 O11 1.417739 1_555
C0 O8 1.418237 1_655
C1 O5 1.393564 1_555
C1 O2 1.395314 1_455
C1 O10 1.417739 1_556
C1 O9 1.418237 1_455
C2 O6 1.393564 1_555
C2 O1 1.395314 1_555
C2 O9 1.417739 1_554
C2 O10 1.418237 1_555
C3 O7 1.393564 1_555
C3 O0 1.395314 1_555
C3 O8 1.417739 1_555
C3 O11 1.418237 1_555
C4 O15 1.377790 1_655
C4 O12 1.406540 1_556
C4 O4 1.413504 1_555
C4 O2 1.415896 1_545
C5 O14 1.377790 1_455
C5 O13 1.406540 1_555
C5 O5 1.413504 1_555
C5 O3 1.415896 1_555
C6 O13 1.377790 1_555
C6 O14 1.406540 1_555
C6 O6 1.413504 1_555
C6 O0 1.415896 1_565
C7 O12 1.377790 1_555
C7 O15 1.406540 1_554
C7 O7 1.413504 1_555
C7 O1 1.415896 1_555
