# generated using pymatgen
data_CaW5O7
_symmetry_space_group_name_H-M   'P 1'
_cell_length_a   5.63792185
_cell_length_b   5.63792185
_cell_length_c   18.66979200
_cell_angle_alpha   90.00000000
_cell_angle_beta   90.00000000
_cell_angle_gamma   146.26408856
_symmetry_Int_Tables_number   1
_chemical_formula_structural   CaW5O7
_chemical_formula_sum   'Ca2 W10 O14'
_cell_volume   329.57684118
_cell_formula_units_Z   2
loop_
 _symmetry_equiv_pos_site_id
 _symmetry_equiv_pos_as_xyz
  1  'x, y, z'
loop_
 _atom_site_type_symbol
 _atom_site_label
 _atom_site_symmetry_multiplicity
 _atom_site_fract_x
 _atom_site_fract_y
 _atom_site_fract_z
 _atom_site_occupancy
  Ca  Ca0  1  0.18326800  0.81673200  0.75000000  1
  Ca  Ca1  1  0.81673200  0.18326800  0.25000000  1
  W  W0  1  0.68516500  0.31483500  0.57323300  1
  W  W1  1  0.55881300  0.44118700  0.14729300  1
  W  W2  1  0.00000000  0.00000000  0.50000000  1
  W  W3  1  0.00000000  0.00000000  0.00000000  1
  W  W4  1  0.44118700  0.55881300  0.85270700  1
  W  W5  1  0.31483500  0.68516500  0.42676700  1
  W  W6  1  0.31483500  0.68516500  0.07323300  1
  W  W7  1  0.68516500  0.31483500  0.92676700  1
  W  W8  1  0.44118700  0.55881300  0.64729300  1
  W  W9  1  0.55881300  0.44118700  0.35270700  1
  O  O0  1  0.30170000  0.69830000  0.95293300  1
  O  O1  1  0.69830000  0.30170000  0.04706700  1
  O  O2  1  0.69830000  0.30170000  0.45293300  1
  O  O3  1  0.30170000  0.69830000  0.54706700  1
  O  O4  1  0.81094200  0.18905800  0.83142700  1
  O  O5  1  0.18905800  0.81094200  0.16857300  1
  O  O6  1  0.18905800  0.81094200  0.33142700  1
  O  O7  1  0.81094200  0.18905800  0.66857300  1
  O  O8  1  0.09317100  0.90682900  0.86384800  1
  O  O9  1  0.90682900  0.09317100  0.13615200  1
  O  O10  1  0.90682900  0.09317100  0.36384800  1
  O  O11  1  0.09317100  0.90682900  0.63615200  1
  O  O12  1  0.52648400  0.47351600  0.75000000  1
  O  O13  1  0.47351600  0.52648400  0.25000000  1
loop_
_geom_bond_atom_site_label_1
_geom_bond_atom_site_label_2
_geom_bond_distance
_geom_bond_site_symmetry_2
Ca0 O8 2.337311 1_555
Ca0 O11 2.337311 1_555
Ca0 O12 2.353406 1_565
Ca0 O12 2.353406 1_455
Ca0 O4 2.624008 1_565
Ca0 O4 2.624008 1_455
Ca0 O7 2.624008 1_565
Ca0 O7 2.624008 1_455
Ca1 O9 2.337311 1_555
Ca1 O10 2.337311 1_555
Ca1 O13 2.353406 1_545
Ca1 O13 2.353406 1_655
Ca1 O6 2.624008 1_655
Ca1 O6 2.624008 1_545
Ca1 O5 2.624008 1_655
Ca1 O5 2.624008 1_545
O0 W7 2.120433 1_565
O0 W7 2.120433 1_455
O0 W6 2.250444 1_556
O0 W4 2.401438 1_555
O0 W3 2.833232 1_666
O0 W3 2.833232 1_556
O1 W6 2.120433 1_655
O1 W6 2.120433 1_545
O1 W7 2.250444 1_554
O1 W1 2.401438 1_555
O1 W3 2.833232 1_665
O1 W3 2.833232 1_555
O2 W5 2.120433 1_655
O2 W5 2.120433 1_545
O2 W0 2.250444 1_555
O2 W9 2.401438 1_555
O2 W2 2.833232 1_665
O2 W2 2.833232 1_555
O3 W0 2.120433 1_565
O3 W0 2.120433 1_455
O3 W5 2.250444 1_555
O3 W8 2.401438 1_555
O3 W2 2.833232 1_555
O3 W2 2.833232 1_665
O4 W4 2.193032 1_545
O4 W4 2.193032 1_655
O4 W7 2.238387 1_555
O5 W1 2.193032 1_455
O5 W1 2.193032 1_565
O5 W6 2.238387 1_555
O6 W9 2.193032 1_455
O6 W9 2.193032 1_565
O6 W5 2.238387 1_555
O7 W8 2.193032 1_545
O7 W8 2.193032 1_655
O7 W0 2.238387 1_555
O8 W7 2.245350 1_455
O8 W7 2.245350 1_565
O8 W4 2.325771 1_455
O8 W4 2.325771 1_565
O8 W3 2.733532 1_566
O9 W6 2.245350 1_545
O9 W6 2.245350 1_655
O9 W1 2.325771 1_545
O9 W1 2.325771 1_655
O9 W3 2.733532 1_655
O10 W5 2.245350 1_545
O10 W5 2.245350 1_655
O10 W9 2.325771 1_545
O10 W9 2.325771 1_655
O10 W2 2.733532 1_655
O11 W0 2.245350 1_455
O11 W0 2.245350 1_565
O11 W8 2.325771 1_455
O11 W8 2.325771 1_565
O11 W2 2.733532 1_565
O12 W4 2.126979 1_555
O12 W8 2.126979 1_555
O13 W9 2.126979 1_555
O13 W1 2.126979 1_555
