# generated using pymatgen
data_LiMnP2
_symmetry_space_group_name_H-M   'P 1'
_cell_length_a   2.60906400
_cell_length_b   2.60906400
_cell_length_c   9.28553800
_cell_angle_alpha   90.00000000
_cell_angle_beta   90.00000000
_cell_angle_gamma   90.00000000
_symmetry_Int_Tables_number   1
_chemical_formula_structural   LiMnP2
_chemical_formula_sum   'Li1 Mn1 P2'
_cell_volume   63.20865315
_cell_formula_units_Z   1
loop_
 _symmetry_equiv_pos_site_id
 _symmetry_equiv_pos_as_xyz
  1  'x, y, z'
loop_
 _atom_site_type_symbol
 _atom_site_label
 _atom_site_symmetry_multiplicity
 _atom_site_fract_x
 _atom_site_fract_y
 _atom_site_fract_z
 _atom_site_occupancy
  Li  Li0  1  0.50000000  0.50000000  0.50000000  1
  Mn  Mn0  1  0.50000000  0.50000000  0.00000000  1
  P  P0  1  0.50000000  0.50000000  0.24611700  1
  P  P1  1  0.50000000  0.50000000  0.75388300  1
loop_
_geom_bond_atom_site_label_1
_geom_bond_atom_site_label_2
_geom_bond_distance
_geom_bond_site_symmetry_2
Li0 P0 2.357440 1_555
Li0 P1 2.357440 1_555
Mn0 P0 2.285329 1_555
Mn0 P1 2.285329 1_554
