# generated using pymatgen
data_YTh9MgO20
_symmetry_space_group_name_H-M   'P 1'
_cell_length_a   7.99599394
_cell_length_b   19.94248249
_cell_length_c   10.55115315
_cell_angle_alpha   19.19743250
_cell_angle_beta   55.51999081
_cell_angle_gamma   60.19284906
_symmetry_Int_Tables_number   1
_chemical_formula_structural   YTh9MgO20
_chemical_formula_sum   'Y1 Th9 Mg1 O20'
_cell_volume   451.65250735
_cell_formula_units_Z   1
loop_
 _symmetry_equiv_pos_site_id
 _symmetry_equiv_pos_as_xyz
  1  'x, y, z'
loop_
 _atom_site_type_symbol
 _atom_site_label
 _atom_site_symmetry_multiplicity
 _atom_site_fract_x
 _atom_site_fract_y
 _atom_site_fract_z
 _atom_site_occupancy
  Y  Y0  1  0.03581966  0.95327599  0.07508155  1
  Th  Th0  1  0.99555527  0.20768600  0.98256156  1
  Th  Th1  1  0.49268850  0.99808363  0.00329567  1
  Th  Th2  1  0.99888892  0.40399768  0.98392953  1
  Th  Th3  1  0.48670195  0.20113030  0.00760583  1
  Th  Th4  1  0.00410426  0.61424368  0.97956915  1
  Th  Th5  1  0.48941753  0.39984388  0.00467726  1
  Th  Th6  1  0.99598452  0.80548518  0.99356283  1
  Th  Th7  1  0.50598796  0.60103694  0.99609371  1
  Th  Th8  1  0.50238990  0.80248509  0.99280612  1
  Mg  Mg0  1  0.80645777  0.23916696  0.60161608  1
  O  O0  1  0.11878969  0.15373615  0.24643181  1
  O  O1  1  0.11381214  0.34619421  0.26332075  1
  O  O2  1  0.62000990  0.15352195  0.24476600  1
  O  O3  1  0.37685094  0.04311308  0.76071504  1
  O  O4  1  0.12214415  0.55902771  0.23478125  1
  O  O5  1  0.61744196  0.35355490  0.23746575  1
  O  O6  1  0.35705668  0.25438961  0.74873811  1
  O  O7  1  0.12880689  0.74545702  0.25322811  1
  O  O8  1  0.87196684  0.05629798  0.74506942  1
  O  O9  1  0.12529932  0.94825315  0.25302391  1
  O  O10  1  0.62144829  0.56274121  0.23263737  1
  O  O11  1  0.36907467  0.45041258  0.75233269  1
  O  O12  1  0.86983028  0.25577259  0.73734502  1
  O  O13  1  0.37222227  0.65433543  0.74380729  1
  O  O14  1  0.62286538  0.75051992  0.25036942  1
  O  O15  1  0.62958468  0.96283275  0.22352819  1
  O  O16  1  0.87301595  0.45422803  0.73917604  1
  O  O17  1  0.37197937  0.85602730  0.73886015  1
  O  O18  1  0.87831779  0.65062226  0.74529597  1
  O  O19  1  0.87548658  0.85919384  0.73455842  1
loop_
_geom_bond_atom_site_label_1
_geom_bond_atom_site_label_2
_geom_bond_distance
_geom_bond_site_symmetry_2
Mg0 O1 2.056473 1_655
Mg0 O12 2.074021 1_555
Mg0 O15 2.089862 1_546
Mg0 O8 2.106576 1_555
O0 Th2 2.374779 1_454
O0 Th3 2.402062 1_555
O0 Th6 2.438981 1_445
O0 Th0 2.504886 1_454
O1 Th5 2.451930 1_555
O1 Th4 2.528146 1_554
O1 Th2 2.541447 1_454
O1 Y0 2.682405 1_546
O2 Th3 2.413663 1_555
O2 Th8 2.442642 1_545
O2 Th0 2.451925 1_554
O2 Th5 2.455556 1_555
O3 Y0 2.244877 1_546
O3 Th1 2.394043 1_546
O3 Th8 2.414725 1_545
O3 Th5 2.470397 1_555
O4 Th4 2.366084 1_554
O4 Th0 2.441634 1_455
O4 Th6 2.450069 1_454
O4 Th7 2.506769 1_554
O5 Th5 2.357495 1_555
O5 Th7 2.468778 1_554
O5 Th2 2.490040 1_554
O5 Th1 2.500518 1_546
O6 Th0 2.360406 1_455
O6 Th7 2.461298 1_554
O6 Th3 2.508953 1_556
O6 Th1 2.524506 1_546
O7 Y0 2.251067 1_555
O7 Th2 2.385981 1_455
O7 Th6 2.429626 1_454
O7 Th8 2.438927 1_554
O8 Th6 2.473602 1_545
O8 Th1 2.477662 1_546
O8 Th2 2.488857 1_554
O8 Y0 2.653138 1_646
O9 Y0 2.267470 1_555
O9 Th4 2.373631 1_555
O9 Th1 2.398461 1_555
O9 Th0 2.473225 1_464
O10 Th8 2.349383 1_554
O10 Th7 2.443850 1_554
O10 Th4 2.498102 1_654
O10 Th3 2.529914 1_556
O11 Th3 2.404660 1_556
O11 Th2 2.419038 1_455
O11 Th5 2.428289 1_556
O11 Th8 2.479540 1_554
O12 Th0 2.434060 1_555
O12 Th4 2.477398 1_654
O12 Th3 2.502521 1_556
O12 Y0 2.764718 1_646
O13 Th4 2.404997 1_555
O13 Th1 2.417868 1_555
O13 Th5 2.453370 1_556
O13 Th7 2.471627 1_555
O14 Th1 2.430587 1_555
O14 Th6 2.435740 1_554
O14 Th8 2.457542 1_554
O14 Th5 2.462560 1_556
O15 Th1 2.474170 1_555
O15 Th3 2.485859 1_565
O15 Th7 2.522358 1_555
O15 Y0 2.688607 1_655
O16 Th2 2.395811 1_555
O16 Th6 2.434813 1_554
O16 Th0 2.437226 1_555
O16 Th5 2.504360 1_556
O17 Th3 2.388395 1_565
O17 Th6 2.454646 1_455
O17 Th8 2.461612 1_555
O17 Th7 2.486100 1_555
O18 Y0 2.208940 1_655
O18 Th7 2.430658 1_555
O18 Th2 2.470489 1_555
O18 Th4 2.519995 1_655
O19 Th4 2.401421 1_655
O19 Th8 2.435880 1_555
O19 Th6 2.443446 1_555
O19 Th0 2.456116 1_564
