# generated using pymatgen
data_NaV2O5
_symmetry_space_group_name_H-M   'P 1'
_cell_length_a   3.72668700
_cell_length_b   5.06163100
_cell_length_c   11.71972800
_cell_angle_alpha   90.00000000
_cell_angle_beta   90.00000000
_cell_angle_gamma   90.00000000
_symmetry_Int_Tables_number   1
_chemical_formula_structural   NaV2O5
_chemical_formula_sum   'Na2 V4 O10'
_cell_volume   221.07057055
_cell_formula_units_Z   2
loop_
 _symmetry_equiv_pos_site_id
 _symmetry_equiv_pos_as_xyz
  1  'x, y, z'
loop_
 _atom_site_type_symbol
 _atom_site_label
 _atom_site_symmetry_multiplicity
 _atom_site_fract_x
 _atom_site_fract_y
 _atom_site_fract_z
 _atom_site_occupancy
  Na  Na0  1  0.50000000  0.40521700  0.52373400  1
  Na  Na1  1  0.00000000  0.59478300  0.02373400  1
  V  V0  1  0.50000000  0.10593600  0.15613000  1
  V  V1  1  0.00000000  0.89406400  0.65613000  1
  V  V2  1  0.50000000  0.89849900  0.85484200  1
  V  V3  1  0.00000000  0.10150100  0.35484200  1
  O  O0  1  0.00000000  0.42594300  0.37211700  1
  O  O1  1  0.50000000  0.57405700  0.87211700  1
  O  O2  1  0.00000000  0.02792400  0.18572700  1
  O  O3  1  0.50000000  0.97207600  0.68572700  1
  O  O4  1  0.00000000  0.01959000  0.51665300  1
  O  O5  1  0.50000000  0.98041000  0.01665300  1
  O  O6  1  0.50000000  0.43015900  0.14049400  1
  O  O7  1  0.00000000  0.56984100  0.64049400  1
  O  O8  1  0.50000000  0.01008000  0.32226200  1
  O  O9  1  0.00000000  0.98992000  0.82226200  1
loop_
_geom_bond_atom_site_label_1
_geom_bond_atom_site_label_2
_geom_bond_distance
_geom_bond_site_symmetry_2
Na0 O7 2.457415 1_655
Na0 O7 2.457415 1_555
Na0 O0 2.576910 1_655
Na0 O0 2.576910 1_555
Na0 O4 2.699788 1_555
Na0 O4 2.699788 1_655
Na0 O3 2.900168 1_545
Na1 O6 2.457415 1_555
Na1 O6 2.457415 1_455
Na1 O1 2.576910 1_554
Na1 O1 2.576910 1_454
Na1 O5 2.699788 1_455
Na1 O5 2.699788 1_555
Na1 O2 2.900168 1_565
O0 V3 1.654639 1_555
O1 V2 1.654639 1_555
O2 V0 1.936049 1_555
O2 V0 1.936049 1_455
O2 V3 2.016668 1_555
O3 V1 1.936049 1_655
O3 V1 1.936049 1_555
O3 V2 2.016668 1_555
O4 V1 1.753771 1_545
O4 V3 1.941174 1_555
O5 V0 1.753771 1_565
O5 V2 1.941174 1_554
O6 V0 1.651297 1_555
O7 V1 1.651297 1_555
O8 V3 1.957542 1_555
O8 V3 1.957542 1_655
O8 V0 2.006565 1_555
O9 V2 1.957542 1_555
O9 V2 1.957542 1_455
O9 V1 2.006565 1_555
