# generated using pymatgen
data_Tm2(NiB2)3
_symmetry_space_group_name_H-M   'P 1'
_cell_length_a   3.45213400
_cell_length_b   5.77276493
_cell_length_c   5.77276493
_cell_angle_alpha   96.63797193
_cell_angle_beta   90.00000000
_cell_angle_gamma   90.00000000
_symmetry_Int_Tables_number   1
_chemical_formula_structural   Tm2(NiB2)3
_chemical_formula_sum   'Tm2 Ni3 B6'
_cell_volume   114.27052997
_cell_formula_units_Z   1
loop_
 _symmetry_equiv_pos_site_id
 _symmetry_equiv_pos_as_xyz
  1  'x, y, z'
loop_
 _atom_site_type_symbol
 _atom_site_label
 _atom_site_symmetry_multiplicity
 _atom_site_fract_x
 _atom_site_fract_y
 _atom_site_fract_z
 _atom_site_occupancy
  Tm  Tm0  1  0.00000000  0.27707100  0.72292900  1
  Tm  Tm1  1  0.00000000  0.72292900  0.27707100  1
  Ni  Ni0  1  0.50000000  0.00000000  0.00000000  1
  Ni  Ni1  1  0.00000000  0.77349300  0.77349300  1
  Ni  Ni2  1  0.00000000  0.22650700  0.22650700  1
  B  B0  1  0.50000000  0.91635100  0.61537700  1
  B  B1  1  0.50000000  0.08364900  0.38462300  1
  B  B2  1  0.50000000  0.61537700  0.91635100  1
  B  B3  1  0.50000000  0.38462300  0.08364900  1
  B  B4  1  0.50000000  0.61293000  0.61293000  1
  B  B5  1  0.50000000  0.38707000  0.38707000  1
loop_
_geom_bond_atom_site_label_1
_geom_bond_atom_site_label_2
_geom_bond_distance
_geom_bond_site_symmetry_2
Ni0 Ni2 2.450208 1_655
Ni0 Ni2 2.450208 1_555
Ni0 Ni1 2.450208 1_644
Ni0 Ni1 2.450208 1_544
Ni0 Tm0 2.947430 1_554
Ni0 Tm0 2.947430 1_654
Ni0 Tm1 2.947430 1_645
Ni0 Tm1 2.947430 1_545
Ni1 Tm0 2.846789 1_555
Ni1 Tm1 2.846789 1_555
Ni1 Tm0 2.955037 1_565
Ni1 Tm1 2.955037 1_556
Ni2 Tm1 2.846789 1_555
Ni2 Tm0 2.846789 1_555
Ni2 Tm1 2.955037 1_545
Ni2 Tm0 2.955037 1_554
B0 B1 1.733379 1_565
B0 B4 1.750001 1_555
B0 Ni1 2.160228 1_655
B0 Ni1 2.160228 1_555
B0 Ni0 2.217026 1_566
B0 Tm0 2.720676 1_665
B0 Tm0 2.720676 1_565
B0 Tm1 2.745172 1_655
B0 Tm1 2.745172 1_555
B1 B5 1.750001 1_555
B1 Ni2 2.160228 1_655
B1 Ni2 2.160228 1_555
B1 Ni0 2.217026 1_555
B1 Tm1 2.720676 1_645
B1 Tm1 2.720676 1_545
B1 Tm0 2.745172 1_555
B1 Tm0 2.745172 1_655
B2 B3 1.733379 1_556
B2 B4 1.750001 1_555
B2 Ni1 2.160228 1_655
B2 Ni1 2.160228 1_555
B2 Ni0 2.217026 1_566
B2 Tm1 2.720676 1_656
B2 Tm1 2.720676 1_556
B2 Tm0 2.745172 1_655
B2 Tm0 2.745172 1_555
B3 B5 1.750001 1_555
B3 Ni2 2.160228 1_655
B3 Ni2 2.160228 1_555
B3 Ni0 2.217026 1_555
B3 Tm0 2.720676 1_554
B3 Tm0 2.720676 1_654
B3 Tm1 2.745172 1_655
B3 Tm1 2.745172 1_555
B4 B5 1.734058 1_555
B4 Ni1 2.121071 1_555
B4 Ni1 2.121071 1_655
B4 Tm0 2.725114 1_555
B4 Tm0 2.725114 1_655
B4 Tm1 2.725114 1_655
B4 Tm1 2.725114 1_555
B5 Ni2 2.121071 1_555
B5 Ni2 2.121071 1_655
B5 Tm0 2.725114 1_555
B5 Tm0 2.725114 1_655
B5 Tm1 2.725114 1_655
B5 Tm1 2.725114 1_555
