# generated using pymatgen
data_PrMnIn
_symmetry_space_group_name_H-M   'P 1'
_cell_length_a   4.83980828
_cell_length_b   4.83980828
_cell_length_c   3.78027800
_cell_angle_alpha   90.00000000
_cell_angle_beta   90.00000000
_cell_angle_gamma   120.00000382
_symmetry_Int_Tables_number   1
_chemical_formula_structural   PrMnIn
_chemical_formula_sum   'Pr1 Mn1 In1'
_cell_volume   76.68504383
_cell_formula_units_Z   1
loop_
 _symmetry_equiv_pos_site_id
 _symmetry_equiv_pos_as_xyz
  1  'x, y, z'
loop_
 _atom_site_type_symbol
 _atom_site_label
 _atom_site_symmetry_multiplicity
 _atom_site_fract_x
 _atom_site_fract_y
 _atom_site_fract_z
 _atom_site_occupancy
  Pr  Pr0  1  0.33333300  0.66666700  0.00000000  1
  Mn  Mn0  1  0.66666700  0.33333300  0.50000000  1
  In  In0  1  0.00000000  0.00000000  0.50000000  1
loop_
_geom_bond_atom_site_label_1
_geom_bond_atom_site_label_2
_geom_bond_distance
_geom_bond_site_symmetry_2
Mn0 Pr0 3.373503 1_546
Mn0 Pr0 3.373503 1_545
Mn0 Pr0 3.373503 1_656
Mn0 Pr0 3.373503 1_655
Mn0 Pr0 3.373510 1_555
Mn0 Pr0 3.373510 1_556
In0 Mn0 2.794262 1_455
In0 Mn0 2.794266 1_555
In0 Mn0 2.794266 1_445
In0 Pr0 3.373503 1_545
In0 Pr0 3.373503 1_546
In0 Pr0 3.373507 1_555
In0 Pr0 3.373507 1_556
In0 Pr0 3.373507 1_445
In0 Pr0 3.373507 1_446
