# generated using pymatgen
data_CaLa2CoO6
_symmetry_space_group_name_H-M   'P 1'
_cell_length_a   5.65297208
_cell_length_b   5.59760293
_cell_length_c   19.01401783
_cell_angle_alpha   83.63753356
_cell_angle_beta   83.23373220
_cell_angle_gamma   62.72292543
_symmetry_Int_Tables_number   1
_chemical_formula_structural   CaLa2CoO6
_chemical_formula_sum   'Ca4 La8 Co4 O24'
_cell_volume   529.93169196
_cell_formula_units_Z   4
loop_
 _symmetry_equiv_pos_site_id
 _symmetry_equiv_pos_as_xyz
  1  'x, y, z'
loop_
 _atom_site_type_symbol
 _atom_site_label
 _atom_site_symmetry_multiplicity
 _atom_site_fract_x
 _atom_site_fract_y
 _atom_site_fract_z
 _atom_site_occupancy
  Ca  Ca0  1  0.62084000  0.62726500  0.12389600  1
  Ca  Ca1  1  0.87910600  0.87252700  0.37607300  1
  Ca  Ca2  1  0.12520500  0.12488000  0.62517100  1
  Ca  Ca3  1  0.37488300  0.37529900  0.87486900  1
  La  La0  1  0.94819000  0.95148400  0.18998700  1
  La  La1  1  0.20463200  0.19601500  0.44062600  1
  La  La2  1  0.45365800  0.44887500  0.68972500  1
  La  La3  1  0.70238700  0.69959100  0.93921900  1
  La  La4  1  0.29566000  0.30279800  0.05953300  1
  La  La5  1  0.55135900  0.54870900  0.31008600  1
  La  La6  1  0.79742600  0.80148600  0.56059600  1
  La  La7  1  0.04670600  0.05105700  0.81026600  1
  Co  Co0  1  0.50100300  0.49874900  0.50032300  1
  Co  Co1  1  0.75009300  0.75001700  0.74996800  1
  Co  Co2  1  0.99905800  0.00118500  0.99968000  1
  Co  Co3  1  0.24986400  0.25003000  0.25002600  1
  O  O0  1  0.34909800  0.82664000  0.03345900  1
  O  O1  1  0.62159100  0.06504200  0.28501000  1
  O  O2  1  0.85106200  0.32245200  0.53462300  1
  O  O3  1  0.10161500  0.57491000  0.78424200  1
  O  O4  1  0.87126900  0.21901000  0.07867900  1
  O  O5  1  0.12486700  0.46517700  0.32984000  1
  O  O6  1  0.37227500  0.71684100  0.57938600  1
  O  O7  1  0.62267900  0.96890300  0.82893800  1
  O  O8  1  0.32886000  0.51425400  0.19560100  1
  O  O9  1  0.58664100  0.76324100  0.44721700  1
  O  O10  1  0.83525400  0.01197000  0.69619800  1
  O  O11  1  0.08445400  0.26463000  0.94636600  1
  O  O12  1  0.87796600  0.43522600  0.21509200  1
  O  O13  1  0.15180800  0.67426700  0.46637100  1
  O  O14  1  0.39860100  0.92485800  0.71571700  1
  O  O15  1  0.64816800  0.17667300  0.96551600  1
  O  O16  1  0.91399600  0.73724400  0.05279200  1
  O  O17  1  0.17060800  0.98589000  0.30435400  1
  O  O18  1  0.41494400  0.23473600  0.55356300  1
  O  O19  1  0.66509200  0.48800800  0.80383000  1
  O  O20  1  0.37544700  0.03441800  0.17031700  1
  O  O21  1  0.62906600  0.28107600  0.42142800  1
  O  O22  1  0.87704100  0.53161400  0.67090200  1
  O  O23  1  0.12752700  0.78295000  0.92051500  1
loop_
_geom_bond_atom_site_label_1
_geom_bond_atom_site_label_2
_geom_bond_distance
_geom_bond_site_symmetry_2
Ca0 O12 2.241355 1_555
Ca0 O4 2.269145 1_555
Ca0 O20 2.270926 1_565
Ca0 O16 2.275045 1_555
Ca0 O0 2.277700 1_555
Ca0 O8 2.284506 1_555
Ca1 O1 2.240743 1_565
Ca1 O9 2.270269 1_555
Ca1 O5 2.270464 1_655
Ca1 O21 2.271239 1_565
Ca1 O13 2.277977 1_655
Ca1 O17 2.283597 1_655
Ca2 O18 2.264235 1_555
Ca2 O22 2.265266 1_455
Ca2 O10 2.269069 1_455
Ca2 O6 2.270601 1_545
Ca2 O14 2.284713 1_545
Ca2 O2 2.285758 1_455
Ca3 O7 2.265195 1_545
Ca3 O23 2.267999 1_555
Ca3 O11 2.268691 1_555
Ca3 O19 2.269704 1_555
Ca3 O15 2.285129 1_555
Ca3 O3 2.285300 1_555
La0 O1 2.338792 1_565
La0 O8 2.408515 1_655
La0 O4 2.414201 1_565
La0 O20 2.639187 1_665
La0 O12 2.640865 1_565
La0 O17 2.702920 1_655
La0 O16 3.050427 1_555
La0 O12 3.072058 1_555
La0 O20 3.115651 1_565
La1 O9 2.397722 1_545
La1 O5 2.410049 1_555
La1 O2 2.414973 1_455
La1 O21 2.630375 1_555
La1 O18 2.648138 1_555
La1 O13 2.649292 1_555
La1 O17 3.022312 1_545
La1 O13 3.050639 1_545
La1 O21 3.125320 1_455
La2 O6 2.400118 1_555
La2 O10 2.410359 1_555
La2 O3 2.416460 1_555
La2 O22 2.616915 1_555
La2 O14 2.633528 1_555
La2 O19 2.672089 1_555
La2 O18 3.041268 1_555
La2 O14 3.069894 1_545
La2 O22 3.134010 1_455
La3 O7 2.402488 1_555
La3 O11 2.405638 1_655
La3 O0 2.417123 1_556
La3 O23 2.628643 1_655
La3 O15 2.642954 1_565
La3 O16 2.660712 1_556
La3 O19 3.017716 1_555
La3 O15 3.061636 1_555
La3 O23 3.122538 1_555
La4 O16 2.402545 1_455
La4 O20 2.408084 1_555
La4 O15 2.411602 1_554
La4 O4 2.625973 1_455
La4 O0 2.638311 1_545
La4 O11 2.653730 1_554
La4 O8 3.021026 1_555
La4 O0 3.064246 1_555
La4 O4 3.127753 1_555
La5 O12 2.338429 1_555
La5 O17 2.408633 1_555
La5 O21 2.415001 1_555
La5 O5 2.636919 1_555
La5 O1 2.640287 1_555
La5 O8 2.705240 1_555
La5 O9 3.052294 1_555
La5 O1 3.072475 1_565
La5 O5 3.119133 1_655
La6 O18 2.400890 1_565
La6 O22 2.404275 1_555
La6 O13 2.420665 1_655
La6 O6 2.632909 1_555
La6 O2 2.653104 1_555
La6 O9 2.656027 1_555
La6 O10 3.019250 1_565
La6 O2 3.048898 1_565
La6 O6 3.120396 1_655
La7 O23 2.399026 1_545
La7 O19 2.410527 1_455
La7 O14 2.416368 1_545
La7 O7 2.618556 1_445
La7 O3 2.634908 1_545
La7 O10 2.671436 1_455
La7 O11 3.036630 1_555
La7 O3 3.068581 1_555
La7 O7 3.130908 1_545
Co0 O21 1.897297 1_555
Co0 O6 1.901187 1_555
Co0 O9 1.912156 1_555
Co0 O18 1.912279 1_555
Co0 O13 1.913303 1_555
Co0 O2 1.920068 1_555
Co1 O7 1.902268 1_555
Co1 O22 1.902277 1_555
Co1 O10 1.904171 1_565
Co1 O19 1.904678 1_555
Co1 O14 1.926462 1_555
Co1 O3 1.926778 1_655
Co2 O4 1.899395 1_556
Co2 O23 1.903223 1_645
Co2 O16 1.907863 1_546
Co2 O11 1.908179 1_655
Co2 O0 1.915976 1_646
Co2 O15 1.922942 1_555
Co3 O17 1.900930 1_545
Co3 O8 1.901335 1_555
Co3 O20 1.903723 1_555
Co3 O5 1.903972 1_555
Co3 O1 2.027982 1_555
Co3 O12 2.028420 1_455
