# generated using pymatgen
data_K2Sn(S2O7)3
_symmetry_space_group_name_H-M   'P 1'
_cell_length_a   10.11294364
_cell_length_b   10.11294364
_cell_length_c   11.06670800
_cell_angle_alpha   90.00000000
_cell_angle_beta   90.00000000
_cell_angle_gamma   119.99999767
_symmetry_Int_Tables_number   1
_chemical_formula_structural   K2Sn(S2O7)3
_chemical_formula_sum   'K4 Sn2 S12 O42'
_cell_volume   980.17645736
_cell_formula_units_Z   2
loop_
 _symmetry_equiv_pos_site_id
 _symmetry_equiv_pos_as_xyz
  1  'x, y, z'
loop_
 _atom_site_type_symbol
 _atom_site_label
 _atom_site_symmetry_multiplicity
 _atom_site_fract_x
 _atom_site_fract_y
 _atom_site_fract_z
 _atom_site_occupancy
  K  K0  1  0.33333300  0.66666700  0.94003200  1
  K  K1  1  0.66666700  0.33333300  0.05996800  1
  K  K2  1  0.66666700  0.33333300  0.63527400  1
  K  K3  1  0.33333300  0.66666700  0.36472600  1
  Sn  Sn0  1  0.00000000  0.00000000  0.74024600  1
  Sn  Sn1  1  0.00000000  0.00000000  0.25975400  1
  S  S0  1  0.33505900  0.05656900  0.84226300  1
  S  S1  1  0.94343100  0.27849000  0.84226300  1
  S  S2  1  0.72151000  0.66494100  0.84226300  1
  S  S3  1  0.66494100  0.94343100  0.15773700  1
  S  S4  1  0.05656900  0.72151000  0.15773700  1
  S  S5  1  0.27849000  0.33505900  0.15773700  1
  S  S6  1  0.16438400  0.35565800  0.64760900  1
  S  S7  1  0.64434200  0.80872600  0.64760900  1
  S  S8  1  0.19127400  0.83561600  0.64760900  1
  S  S9  1  0.83561600  0.64434200  0.35239100  1
  S  S10  1  0.35565800  0.19127400  0.35239100  1
  S  S11  1  0.80872600  0.16438400  0.35239100  1
  O  O0  1  0.12362800  0.18938800  0.63062100  1
  O  O1  1  0.81061200  0.93424000  0.63062100  1
  O  O2  1  0.06576000  0.87637200  0.63062100  1
  O  O3  1  0.87637200  0.81061200  0.36937900  1
  O  O4  1  0.18938800  0.06576000  0.36937900  1
  O  O5  1  0.93424000  0.12362800  0.36937900  1
  O  O6  1  0.18281300  0.05131200  0.85366300  1
  O  O7  1  0.94868800  0.13150100  0.85366300  1
  O  O8  1  0.86849900  0.81718700  0.85366300  1
  O  O9  1  0.81718700  0.94868800  0.14633700  1
  O  O10  1  0.05131200  0.86849900  0.14633700  1
  O  O11  1  0.13150100  0.18281300  0.14633700  1
  O  O12  1  0.33417500  0.99761100  0.70167600  1
  O  O13  1  0.00238900  0.33656400  0.70167600  1
  O  O14  1  0.66343600  0.66582500  0.70167600  1
  O  O15  1  0.66582500  0.00238900  0.29832400  1
  O  O16  1  0.99761100  0.66343600  0.29832400  1
  O  O17  1  0.33656400  0.33417500  0.29832400  1
  O  O18  1  0.46064000  0.21067000  0.83629500  1
  O  O19  1  0.78933000  0.24997000  0.83629500  1
  O  O20  1  0.75003000  0.53936000  0.83629500  1
  O  O21  1  0.53936000  0.78933000  0.16370500  1
  O  O22  1  0.21067000  0.75003000  0.16370500  1
  O  O23  1  0.24997000  0.46064000  0.16370500  1
  O  O24  1  0.17661100  0.42405200  0.53194400  1
  O  O25  1  0.57594800  0.75256000  0.53194400  1
  O  O26  1  0.24744000  0.82338900  0.53194400  1
  O  O27  1  0.82338900  0.57594800  0.46805600  1
  O  O28  1  0.42405200  0.24744000  0.46805600  1
  O  O29  1  0.75256000  0.17661100  0.46805600  1
  O  O30  1  0.34390300  0.95295300  0.92551100  1
  O  O31  1  0.04704700  0.39095000  0.92551100  1
  O  O32  1  0.60905000  0.65609700  0.92551100  1
  O  O33  1  0.65609700  0.04704700  0.07448900  1
  O  O34  1  0.95295300  0.60905000  0.07448900  1
  O  O35  1  0.39095000  0.34390300  0.07448900  1
  O  O36  1  0.28139100  0.43375400  0.73671600  1
  O  O37  1  0.56624600  0.84763600  0.73671600  1
  O  O38  1  0.15236400  0.71860900  0.73671600  1
  O  O39  1  0.71860900  0.56624600  0.26328400  1
  O  O40  1  0.43375400  0.15236400  0.26328400  1
  O  O41  1  0.84763600  0.28139100  0.26328400  1
loop_
_geom_bond_atom_site_label_1
_geom_bond_atom_site_label_2
_geom_bond_distance
_geom_bond_site_symmetry_2
K0 O30 2.847792 1_555
K0 O31 2.847797 1_555
K0 O32 2.847803 1_555
K0 O22 3.069615 1_556
K0 O21 3.069620 1_556
K0 O23 3.069621 1_556
K0 O38 3.106335 1_555
K0 O37 3.106344 1_555
K0 O36 3.106348 1_555
K1 O33 2.847792 1_555
K1 O34 2.847797 1_555
K1 O35 2.847803 1_555
K1 O19 3.069615 1_554
K1 O18 3.069620 1_554
K1 O20 3.069621 1_554
K1 O41 3.106335 1_555
K1 O40 3.106344 1_555
K1 O39 3.106348 1_555
K2 O29 2.840379 1_555
K2 O28 2.840379 1_555
K2 O27 2.840379 1_555
K2 O19 2.871295 1_555
K2 O18 2.871300 1_555
K2 O20 2.871301 1_555
K3 O26 2.840379 1_555
K3 O25 2.840379 1_555
K3 O24 2.840379 1_555
K3 O22 2.871295 1_555
K3 O21 2.871300 1_555
K3 O23 2.871301 1_555
O0 S6 1.529559 1_555
O0 Sn0 2.075726 1_555
O1 S7 1.529559 1_555
O1 Sn0 2.075726 1_665
O2 S8 1.529559 1_555
O2 Sn0 2.075726 1_565
O3 S9 1.529559 1_555
O3 Sn1 2.075726 1_665
O4 S10 1.529559 1_555
O4 Sn1 2.075726 1_555
O5 S11 1.529559 1_555
O5 Sn1 2.075726 1_655
O6 S0 1.519022 1_555
O6 Sn0 2.074440 1_555
O7 S1 1.519022 1_555
O7 Sn0 2.074440 1_655
O8 S2 1.519022 1_555
O8 Sn0 2.074440 1_665
O9 S3 1.519022 1_555
O9 Sn1 2.074440 1_665
O10 S4 1.519022 1_555
O10 Sn1 2.074440 1_565
O11 S5 1.519022 1_555
O11 Sn1 2.074440 1_555
O12 S8 1.662171 1_555
O12 S0 1.664594 1_565
O13 S6 1.662171 1_555
O13 S1 1.664594 1_455
O14 S7 1.662171 1_555
O14 S2 1.664594 1_555
O15 S11 1.662171 1_555
O15 S3 1.664594 1_545
O16 S9 1.662171 1_555
O16 S4 1.664594 1_655
O17 S10 1.662171 1_555
O17 S5 1.664594 1_555
O18 S0 1.437611 1_555
O19 S1 1.437611 1_555
O20 S2 1.437611 1_555
O21 S3 1.437611 1_555
O22 S4 1.437611 1_555
O23 S5 1.437611 1_555
O24 S6 1.430609 1_555
O25 S7 1.430608 1_555
O26 S8 1.430605 1_555
O27 S9 1.430609 1_555
O28 S10 1.430608 1_555
O29 S11 1.430605 1_555
O30 S0 1.431256 1_565
O31 S1 1.431256 1_455
O32 S2 1.431256 1_555
O33 S3 1.431256 1_545
O34 S4 1.431256 1_655
O35 S5 1.431256 1_555
O36 S6 1.435903 1_555
O37 S7 1.435897 1_555
O38 S8 1.435904 1_555
O39 S9 1.435903 1_555
O40 S10 1.435897 1_555
O41 S11 1.435904 1_555
