# generated using pymatgen
data_MgSn2
_symmetry_space_group_name_H-M   'P 1'
_cell_length_a   5.65636681
_cell_length_b   5.65636681
_cell_length_c   5.41677560
_cell_angle_alpha   90.00000000
_cell_angle_beta   90.00000000
_cell_angle_gamma   119.99998893
_symmetry_Int_Tables_number   1
_chemical_formula_structural   MgSn2
_chemical_formula_sum   'Mg2 Sn4'
_cell_volume   150.08823683
_cell_formula_units_Z   2
loop_
 _symmetry_equiv_pos_site_id
 _symmetry_equiv_pos_as_xyz
  1  'x, y, z'
loop_
 _atom_site_type_symbol
 _atom_site_label
 _atom_site_symmetry_multiplicity
 _atom_site_fract_x
 _atom_site_fract_y
 _atom_site_fract_z
 _atom_site_occupancy
  Mg  Mg0  1  0.66666700  0.33333300  0.50000000  1
  Mg  Mg1  1  0.33333300  0.66666700  0.50000000  1
  Sn  Sn0  1  0.65343058  0.00000000  -0.00000000  1
  Sn  Sn1  1  0.34656942  0.34656942  0.00000000  1
  Sn  Sn2  1  0.00000000  0.65343058  -0.00000000  1
  Sn  Sn3  1  0.00000000  -0.00000000  0.50000000  1
loop_
_geom_bond_atom_site_label_1
_geom_bond_atom_site_label_2
_geom_bond_distance
_geom_bond_site_symmetry_2
Mg0 Sn3 3.265701 1_655
Mg0 Mg1 3.265702 1_545
Mg0 Mg1 3.265702 1_655
Mg0 Sn3 3.265707 1_665
Mg0 Sn3 3.265707 1_555
Mg0 Mg1 3.265711 1_555
Mg0 Sn0 3.279442 1_556
Mg0 Sn0 3.279442 1_555
Mg0 Sn2 3.279444 1_655
Mg0 Sn2 3.279444 1_656
Mg0 Sn1 3.279445 1_555
Mg0 Sn1 3.279445 1_556
Mg1 Sn3 3.265701 1_565
Mg1 Sn3 3.265707 1_665
Mg1 Sn3 3.265707 1_555
Mg1 Sn2 3.279442 1_555
Mg1 Sn2 3.279442 1_556
Mg1 Sn0 3.279444 1_566
Mg1 Sn0 3.279444 1_565
Mg1 Sn1 3.279445 1_555
Mg1 Sn1 3.279445 1_556
Sn0 Sn1 3.202836 1_555
Sn0 Sn1 3.202837 1_545
Sn0 Sn2 3.202837 1_545
Sn0 Sn2 3.202837 1_655
Sn0 Sn3 3.343387 1_655
Sn0 Sn3 3.343387 1_654
Sn0 Sn2 3.395380 1_645
Sn0 Sn1 3.395381 1_655
Sn1 Sn2 3.202836 1_555
Sn1 Sn2 3.202837 1_655
Sn1 Sn3 3.343387 1_555
Sn1 Sn3 3.343387 1_554
Sn1 Sn2 3.395381 1_545
Sn2 Sn3 3.343387 1_564
Sn2 Sn3 3.343387 1_565
