# generated using pymatgen
data_BaSr7Co6(CuO12)2
_symmetry_space_group_name_H-M   'P 1'
_cell_length_a   7.76248388
_cell_length_b   7.76248388
_cell_length_c   7.79322700
_cell_angle_alpha   90.00000000
_cell_angle_beta   90.00000000
_cell_angle_gamma   90.10913424
_symmetry_Int_Tables_number   1
_chemical_formula_structural   BaSr7Co6(CuO12)2
_chemical_formula_sum   'Ba1 Sr7 Co6 Cu2 O24'
_cell_volume   469.58904971
_cell_formula_units_Z   1
loop_
 _symmetry_equiv_pos_site_id
 _symmetry_equiv_pos_as_xyz
  1  'x, y, z'
loop_
 _atom_site_type_symbol
 _atom_site_label
 _atom_site_symmetry_multiplicity
 _atom_site_fract_x
 _atom_site_fract_y
 _atom_site_fract_z
 _atom_site_occupancy
  Ba  Ba0  1  0.24953400  0.24953400  0.50000000  1
  Sr  Sr0  1  0.75038800  0.24914800  0.50000000  1
  Sr  Sr1  1  0.75073700  0.24912200  0.00000000  1
  Sr  Sr2  1  0.24931500  0.24931500  0.00000000  1
  Sr  Sr3  1  0.75073000  0.75073000  0.50000000  1
  Sr  Sr4  1  0.75095400  0.75095400  0.00000000  1
  Sr  Sr5  1  0.24914800  0.75038800  0.50000000  1
  Sr  Sr6  1  0.24912200  0.75073700  0.00000000  1
  Co  Co0  1  0.50135700  0.99879600  0.75115100  1
  Co  Co1  1  0.50135700  0.99879600  0.24884900  1
  Co  Co2  1  0.99879600  0.50135700  0.75115100  1
  Co  Co3  1  0.99879600  0.50135700  0.24884900  1
  Co  Co4  1  0.50101100  0.50101100  0.75160700  1
  Co  Co5  1  0.50101100  0.50101100  0.24839300  1
  Cu  Cu0  1  0.99975400  0.99975400  0.75082300  1
  Cu  Cu1  1  0.99975400  0.99975400  0.24917700  1
  O  O0  1  0.99505900  0.25885000  0.75504100  1
  O  O1  1  0.99505900  0.25885000  0.24495900  1
  O  O2  1  0.50442700  0.25352200  0.75433700  1
  O  O3  1  0.50442700  0.25352200  0.24566300  1
  O  O4  1  0.99934100  0.74224300  0.75091100  1
  O  O5  1  0.99934100  0.74224300  0.24908900  1
  O  O6  1  0.50123100  0.74664500  0.75121100  1
  O  O7  1  0.50123100  0.74664500  0.24878900  1
  O  O8  1  0.74224300  0.99934100  0.75091100  1
  O  O9  1  0.74224300  0.99934100  0.24908900  1
  O  O10  1  0.25885000  0.99505900  0.75504100  1
  O  O11  1  0.25885000  0.99505900  0.24495900  1
  O  O12  1  0.74664500  0.50123100  0.75121100  1
  O  O13  1  0.74664500  0.50123100  0.24878900  1
  O  O14  1  0.25352200  0.50442700  0.75433700  1
  O  O15  1  0.25352200  0.50442700  0.24566300  1
  O  O16  1  0.99281500  0.99281500  0.50000000  1
  O  O17  1  0.99874000  0.99874000  0.00000000  1
  O  O18  1  0.50413600  0.99451300  0.50000000  1
  O  O19  1  0.50138300  0.99901400  0.00000000  1
  O  O20  1  0.99451300  0.50413600  0.50000000  1
  O  O21  1  0.99901400  0.50138300  0.00000000  1
  O  O22  1  0.50351500  0.50351500  0.50000000  1
  O  O23  1  0.50148500  0.50148500  0.00000000  1
loop_
_geom_bond_atom_site_label_1
_geom_bond_atom_site_label_2
_geom_bond_distance
_geom_bond_site_symmetry_2
Ba0 O22 2.785499 1_555
Ba0 O18 2.799936 1_545
Ba0 O20 2.799936 1_455
Ba0 O14 2.800775 1_555
Ba0 O2 2.800775 1_555
Ba0 O15 2.800775 1_555
Ba0 O3 2.800775 1_555
Ba0 O0 2.803273 1_455
Ba0 O10 2.803273 1_545
Ba0 O1 2.803273 1_455
Ba0 O11 2.803273 1_545
Ba0 O16 2.815527 1_445
Co0 O8 1.869871 1_555
Co0 O10 1.882869 1_555
Co0 O19 1.939337 1_556
Co0 O6 1.957317 1_555
Co0 O18 1.957679 1_555
Co0 O2 1.977561 1_565
Co1 O9 1.869871 1_555
Co1 O11 1.882869 1_555
Co1 O19 1.939337 1_555
Co1 O7 1.957317 1_555
Co1 O18 1.957679 1_555
Co1 O3 1.977561 1_565
Co2 O4 1.869871 1_555
Co2 O0 1.882869 1_555
Co2 O21 1.939337 1_556
Co2 O12 1.957317 1_555
Co2 O20 1.957679 1_555
Co2 O14 1.977561 1_655
Co3 O5 1.869871 1_555
Co3 O1 1.882869 1_555
Co3 O21 1.939337 1_555
Co3 O13 1.957317 1_555
Co3 O20 1.957679 1_555
Co3 O15 1.977561 1_655
Co4 O6 1.906730 1_555
Co4 O12 1.906730 1_555
Co4 O2 1.921481 1_555
Co4 O14 1.921481 1_555
Co4 O23 1.935790 1_556
Co4 O22 1.961023 1_555
Co5 O7 1.906730 1_555
Co5 O13 1.906730 1_555
Co5 O15 1.921481 1_555
Co5 O3 1.921481 1_555
Co5 O23 1.935790 1_555
Co5 O22 1.961023 1_555
Cu0 O17 1.941925 1_556
Cu0 O16 1.956201 1_555
Cu0 O4 1.998922 1_555
Cu0 O8 1.998922 1_555
Cu0 O0 2.011897 1_565
Cu0 O10 2.011897 1_655
Cu1 O17 1.941925 1_555
Cu1 O16 1.956201 1_555
Cu1 O5 1.998922 1_555
Cu1 O9 1.998922 1_555
Cu1 O11 2.011897 1_655
Cu1 O1 2.011897 1_565
O0 Sr1 2.691914 1_556
O0 Sr2 2.746948 1_656
O0 Sr0 2.750058 1_555
O1 Sr1 2.691914 1_555
O1 Sr2 2.746948 1_655
O1 Sr0 2.750058 1_555
O2 Sr1 2.705996 1_556
O2 Sr0 2.752353 1_555
O2 Sr2 2.754589 1_556
O3 Sr1 2.705996 1_555
O3 Sr0 2.752353 1_555
O3 Sr2 2.754589 1_555
O4 Sr4 2.736955 1_556
O4 Sr6 2.744369 1_656
O4 Sr3 2.748221 1_555
O4 Sr5 2.754513 1_655
O5 Sr4 2.736955 1_555
O5 Sr6 2.744369 1_655
O5 Sr3 2.748221 1_555
O5 Sr5 2.754513 1_655
O6 Sr4 2.741852 1_556
O6 Sr3 2.753991 1_555
O6 Sr6 2.755046 1_556
O6 Sr5 2.768186 1_555
O7 Sr4 2.741852 1_555
O7 Sr3 2.753991 1_555
O7 Sr6 2.755046 1_555
O7 Sr5 2.768186 1_555
O8 Sr4 2.736955 1_556
O8 Sr1 2.744369 1_566
O8 Sr3 2.748221 1_555
O8 Sr0 2.754513 1_565
O9 Sr4 2.736955 1_555
O9 Sr1 2.744369 1_565
O9 Sr3 2.748221 1_555
O9 Sr0 2.754513 1_565
O10 Sr6 2.691914 1_556
O10 Sr2 2.746948 1_566
O10 Sr5 2.750058 1_555
O11 Sr6 2.691914 1_555
O11 Sr2 2.746948 1_565
O11 Sr5 2.750058 1_555
O12 Sr4 2.741852 1_556
O12 Sr3 2.753991 1_555
O12 Sr1 2.755046 1_556
O12 Sr0 2.768186 1_555
O13 Sr4 2.741852 1_555
O13 Sr3 2.753991 1_555
O13 Sr1 2.755046 1_555
O13 Sr0 2.768186 1_555
O14 Sr6 2.705996 1_556
O14 Sr5 2.752353 1_555
O14 Sr2 2.754589 1_556
O15 Sr6 2.705996 1_555
O15 Sr5 2.752353 1_555
O15 Sr2 2.754589 1_555
O16 Sr3 2.655031 1_555
O16 Sr5 2.741313 1_655
O16 Sr0 2.741313 1_565
O17 Sr4 2.717556 1_555
O17 Sr1 2.738223 1_565
O17 Sr6 2.738223 1_655
O17 Sr2 2.748144 1_665
O18 Sr3 2.694239 1_555
O18 Sr5 2.737624 1_555
O18 Sr0 2.747088 1_565
O19 Sr4 2.734062 1_555
O19 Sr1 2.738890 1_565
O19 Sr6 2.744875 1_555
O19 Sr2 2.760098 1_565
O20 Sr3 2.694239 1_555
O20 Sr0 2.737624 1_555
O20 Sr5 2.747088 1_655
O21 Sr4 2.734062 1_555
O21 Sr6 2.738890 1_655
O21 Sr1 2.744875 1_555
O21 Sr2 2.760098 1_655
O22 Sr3 2.711293 1_555
O22 Sr5 2.754184 1_555
O22 Sr0 2.754184 1_555
O23 Sr4 2.736014 1_555
O23 Sr1 2.755991 1_555
O23 Sr6 2.755991 1_555
O23 Sr2 2.765637 1_555
