# generated using pymatgen
data_BaZn(FeO2)4
_symmetry_space_group_name_H-M   'P 1'
_cell_length_a   5.43178269
_cell_length_b   5.43178269
_cell_length_c   7.36256500
_cell_angle_alpha   90.00000000
_cell_angle_beta   90.00000000
_cell_angle_gamma   120.00000844
_symmetry_Int_Tables_number   1
_chemical_formula_structural   BaZn(FeO2)4
_chemical_formula_sum   'Ba1 Zn1 Fe4 O8'
_cell_volume   188.12413268
_cell_formula_units_Z   1
loop_
 _symmetry_equiv_pos_site_id
 _symmetry_equiv_pos_as_xyz
  1  'x, y, z'
loop_
 _atom_site_type_symbol
 _atom_site_label
 _atom_site_symmetry_multiplicity
 _atom_site_fract_x
 _atom_site_fract_y
 _atom_site_fract_z
 _atom_site_occupancy
  Ba  Ba0  1  0.00000000  0.00000000  0.00000000  1
  Zn  Zn0  1  0.00000000  0.00000000  0.50000000  1
  Fe  Fe0  1  0.33333300  0.66666700  0.74398800  1
  Fe  Fe1  1  0.66666700  0.33333300  0.74398800  1
  Fe  Fe2  1  0.33333300  0.66666700  0.25601200  1
  Fe  Fe3  1  0.66666700  0.33333300  0.25601200  1
  O  O0  1  0.31694700  0.31694700  0.67875400  1
  O  O1  1  0.68305300  0.00000000  0.67875400  1
  O  O2  1  0.00000000  0.68305300  0.67875400  1
  O  O3  1  0.68305300  0.68305300  0.32124600  1
  O  O4  1  0.00000000  0.31694700  0.32124600  1
  O  O5  1  0.31694700  0.00000000  0.32124600  1
  O  O6  1  0.33333300  0.66666700  0.00000000  1
  O  O7  1  0.66666700  0.33333300  0.00000000  1
loop_
_geom_bond_atom_site_label_1
_geom_bond_atom_site_label_2
_geom_bond_distance
_geom_bond_site_symmetry_2
Ba0 O3 2.925407 1_445
Ba0 O0 2.925407 1_554
Ba0 O4 2.925407 1_555
Ba0 O5 2.925407 1_555
Ba0 O1 2.925407 1_454
Ba0 O2 2.925407 1_544
Ba0 O7 3.136038 1_455
Ba0 O6 3.136038 1_545
Ba0 O6 3.136043 1_445
Ba0 O7 3.136043 1_555
Ba0 O7 3.136043 1_445
Ba0 O6 3.136043 1_555
Fe0 O6 1.884905 1_556
Fe0 O2 1.917810 1_555
Fe0 O1 1.917813 1_565
Fe0 O0 1.917816 1_555
Fe1 O7 1.884905 1_556
Fe1 O1 1.917810 1_555
Fe1 O2 1.917813 1_655
Fe1 O0 1.917816 1_555
Fe2 O6 1.884905 1_555
Fe2 O5 1.917810 1_565
Fe2 O4 1.917813 1_555
Fe2 O3 1.917816 1_555
Fe3 O7 1.884905 1_555
Fe3 O4 1.917810 1_655
Fe3 O5 1.917813 1_555
Fe3 O3 1.917816 1_555
O0 Zn0 2.167014 1_555
O1 Zn0 2.167014 1_655
O2 Zn0 2.167014 1_565
O3 Zn0 2.167014 1_665
O4 Zn0 2.167014 1_555
O5 Zn0 2.167014 1_555
