# generated using pymatgen
data_CsCuPSe3
_symmetry_space_group_name_H-M   'P 1'
_cell_length_a   13.50206100
_cell_length_b   10.21281500
_cell_length_c   11.02791120
_cell_angle_alpha   75.78403452
_cell_angle_beta   90.00000000
_cell_angle_gamma   90.00000000
_symmetry_Int_Tables_number   1
_chemical_formula_structural   CsCuPSe3
_chemical_formula_sum   'Cs8 Cu8 P8 Se24'
_cell_volume   1474.11539888
_cell_formula_units_Z   8
loop_
 _symmetry_equiv_pos_site_id
 _symmetry_equiv_pos_as_xyz
  1  'x, y, z'
loop_
 _atom_site_type_symbol
 _atom_site_label
 _atom_site_symmetry_multiplicity
 _atom_site_fract_x
 _atom_site_fract_y
 _atom_site_fract_z
 _atom_site_occupancy
  Cs  Cs0  1  0.32021800  0.38859600  0.11672600  1
  Cs  Cs1  1  0.82021800  0.61140400  0.38327400  1
  Cs  Cs2  1  0.67978200  0.61140400  0.88327400  1
  Cs  Cs3  1  0.17978200  0.38859600  0.61672600  1
  Cs  Cs4  1  0.15344100  0.86739800  0.16025000  1
  Cs  Cs5  1  0.65344100  0.13260200  0.33975000  1
  Cs  Cs6  1  0.84655900  0.13260200  0.83975000  1
  Cs  Cs7  1  0.34655900  0.86739800  0.66025000  1
  Cu  Cu0  1  0.45314100  0.45438000  0.40436300  1
  Cu  Cu1  1  0.95314100  0.54562000  0.09563700  1
  Cu  Cu2  1  0.54685900  0.54562000  0.59563700  1
  Cu  Cu3  1  0.04685900  0.45438000  0.90436300  1
  Cu  Cu4  1  0.40275600  0.98004400  0.03922400  1
  Cu  Cu5  1  0.90275600  0.01995600  0.46077600  1
  Cu  Cu6  1  0.59724400  0.01995600  0.96077600  1
  Cu  Cu7  1  0.09724400  0.98004400  0.53922400  1
  P  P0  1  0.04031300  0.78266900  0.83212100  1
  P  P1  1  0.54031300  0.21733100  0.66787900  1
  P  P2  1  0.95968700  0.21733100  0.16787900  1
  P  P3  1  0.45968700  0.78266900  0.33212100  1
  P  P4  1  0.46293400  0.28021200  0.83186900  1
  P  P5  1  0.96293400  0.71978800  0.66813100  1
  P  P6  1  0.53706600  0.71978800  0.16813100  1
  P  P7  1  0.03706600  0.28021200  0.33186900  1
  Se  Se0  1  0.16264300  0.63507600  0.88704700  1
  Se  Se1  1  0.66264300  0.36492400  0.61295300  1
  Se  Se2  1  0.83735700  0.36492400  0.11295300  1
  Se  Se3  1  0.33735700  0.63507600  0.38704700  1
  Se  Se4  1  0.17229700  0.15437400  0.37993800  1
  Se  Se5  1  0.67229700  0.84562600  0.12006200  1
  Se  Se6  1  0.82770300  0.84562600  0.62006200  1
  Se  Se7  1  0.32770300  0.15437400  0.87993800  1
  Se  Se8  1  0.40867400  0.99289900  0.25310300  1
  Se  Se9  1  0.90867400  0.00710100  0.24689700  1
  Se  Se10  1  0.59132600  0.00710100  0.74689700  1
  Se  Se11  1  0.09132600  0.99289900  0.75310300  1
  Se  Se12  1  0.07211500  0.22620400  0.01972300  1
  Se  Se13  1  0.57211500  0.77379600  0.48027700  1
  Se  Se14  1  0.92788500  0.77379600  0.98027700  1
  Se  Se15  1  0.42788500  0.22620400  0.51972300  1
  Se  Se16  1  0.57388400  0.24487900  0.98379400  1
  Se  Se17  1  0.07388400  0.75512100  0.51620600  1
  Se  Se18  1  0.42611600  0.75512100  0.01620600  1
  Se  Se19  1  0.92611600  0.24487900  0.48379400  1
  Se  Se20  1  0.57767600  0.50503000  0.24511500  1
  Se  Se21  1  0.07767600  0.49497000  0.25488500  1
  Se  Se22  1  0.42232400  0.49497000  0.75488500  1
  Se  Se23  1  0.92232400  0.50503000  0.74511500  1
loop_
_geom_bond_atom_site_label_1
_geom_bond_atom_site_label_2
_geom_bond_distance
_geom_bond_site_symmetry_2
Cs0 Se0 3.761266 1_554
Cs0 Se4 3.837473 1_555
Cs0 Cu0 3.844600 1_555
Cs0 Se21 3.878012 1_555
Cs0 Se18 3.904762 1_555
Cs0 Se7 3.952074 1_554
Cs0 Se12 3.998515 1_555
Cs0 Se20 4.040997 1_555
Cs0 Se22 4.107870 1_554
Cs0 Se8 4.127268 1_545
Cs0 Se16 4.134111 1_554
Cs1 Se1 3.761266 1_555
Cs1 Se5 3.837473 1_555
Cs1 Cu1 3.844600 1_555
Cs1 Se20 3.878012 1_555
Cs1 Se19 3.904762 1_555
Cs1 Se6 3.952074 1_555
Cs1 Se13 3.998515 1_555
Cs1 Se21 4.040997 1_655
Cs1 Se23 4.107870 1_555
Cs1 Se9 4.127268 1_565
Cs1 Se17 4.134111 1_655
Cs2 Se2 3.761266 1_556
Cs2 Se6 3.837473 1_555
Cs2 Cu2 3.844600 1_555
Cs2 Se23 3.878012 1_555
Cs2 Se16 3.904762 1_555
Cs2 Se5 3.952074 1_556
Cs2 Se14 3.998515 1_555
Cs2 Se22 4.040997 1_555
Cs2 Se20 4.107870 1_556
Cs2 Se10 4.127268 1_565
Cs2 Se18 4.134111 1_556
Cs3 Se3 3.761266 1_555
Cs3 Se7 3.837473 1_555
Cs3 Cu3 3.844600 1_555
Cs3 Se22 3.878012 1_555
Cs3 Se17 3.904762 1_555
Cs3 Se4 3.952074 1_555
Cs3 Se15 3.998515 1_555
Cs3 Se23 4.040997 1_455
Cs3 Se21 4.107870 1_555
Cs3 Se11 4.127268 1_545
Cs3 Se19 4.134111 1_455
Cs4 Cu4 3.698977 1_555
Cs4 Se12 3.774410 1_565
Cs4 Se9 3.813186 1_465
Cs4 Se21 3.827914 1_555
Cs4 Se14 3.880684 1_454
Cs4 Se3 3.890614 1_555
Cs4 Se8 3.900261 1_555
Cs4 Se17 3.958169 1_555
Cs5 Cu5 3.698977 1_555
Cs5 Se13 3.774410 1_545
Cs5 Se8 3.813186 1_545
Cs5 Se20 3.827914 1_555
Cs5 Se15 3.880684 1_555
Cs5 Se2 3.890614 1_555
Cs5 Se9 3.900261 1_555
Cs5 Se16 3.958169 1_554
Cs6 Cu6 3.698977 1_555
Cs6 Se14 3.774410 1_545
Cs6 Se11 3.813186 1_645
Cs6 Se23 3.827914 1_555
Cs6 Se12 3.880684 1_656
Cs6 Se1 3.890614 1_555
Cs6 Se10 3.900261 1_555
Cs6 Se19 3.958169 1_555
Cs7 Cu7 3.698977 1_555
Cs7 Se15 3.774410 1_565
Cs7 Se10 3.813186 1_565
Cs7 Se22 3.827914 1_555
Cs7 Se13 3.880684 1_555
Cs7 Se0 3.890614 1_555
Cs7 Se11 3.900261 1_555
Cs7 Se18 3.958169 1_556
Cu0 Se15 2.389361 1_555
Cu0 Se3 2.390171 1_555
Cu0 Se20 2.394350 1_555
Cu1 Se14 2.389361 1_554
Cu1 Se2 2.390171 1_555
Cu1 Se21 2.394350 1_655
Cu2 Se13 2.389361 1_555
Cu2 Se1 2.390171 1_555
Cu2 Se22 2.394350 1_555
Cu3 Se12 2.389361 1_556
Cu3 Se0 2.390171 1_555
Cu3 Se23 2.394350 1_455
Cu4 Se18 2.393107 1_555
Cu4 Se8 2.395597 1_555
Cu4 Se7 2.397145 1_564
Cu5 Se19 2.393107 1_555
Cu5 Se9 2.395597 1_555
Cu5 Se6 2.397145 1_545
Cu6 Se16 2.393107 1_555
Cu6 Se10 2.395597 1_555
Cu6 Se5 2.397145 1_546
Cu7 Se17 2.393107 1_555
Cu7 Se11 2.395597 1_555
Cu7 Se4 2.397145 1_565
P0 Se14 2.215698 1_455
P0 Se0 2.217807 1_555
P0 Se11 2.219149 1_555
P0 P5 2.311913 1_455
P1 Se15 2.215698 1_555
P1 Se1 2.217807 1_555
P1 Se10 2.219149 1_555
P1 P4 2.311913 1_555
P2 Se12 2.215698 1_655
P2 Se2 2.217807 1_555
P2 Se9 2.219149 1_555
P2 P7 2.311913 1_655
P3 Se13 2.215698 1_555
P3 Se3 2.217807 1_555
P3 Se8 2.219149 1_555
P3 P6 2.311913 1_555
P4 Se16 2.210080 1_555
P4 Se22 2.217510 1_555
P4 Se7 2.220797 1_555
P5 Se17 2.210080 1_655
P5 Se23 2.217510 1_555
P5 Se6 2.220797 1_555
P6 Se18 2.210080 1_555
P6 Se20 2.217510 1_555
P6 Se5 2.220797 1_555
P7 Se19 2.210080 1_455
P7 Se21 2.217510 1_555
P7 Se4 2.220797 1_555
