# generated using pymatgen
data_K2MgAs2
_symmetry_space_group_name_H-M   'P 1'
_cell_length_a   3.53276600
_cell_length_b   3.53276600
_cell_length_c   15.46789900
_cell_angle_alpha   90.00000000
_cell_angle_beta   90.00000000
_cell_angle_gamma   90.00000000
_symmetry_Int_Tables_number   1
_chemical_formula_structural   K2MgAs2
_chemical_formula_sum   'K2 Mg1 As2'
_cell_volume   193.04611750
_cell_formula_units_Z   1
loop_
 _symmetry_equiv_pos_site_id
 _symmetry_equiv_pos_as_xyz
  1  'x, y, z'
loop_
 _atom_site_type_symbol
 _atom_site_label
 _atom_site_symmetry_multiplicity
 _atom_site_fract_x
 _atom_site_fract_y
 _atom_site_fract_z
 _atom_site_occupancy
  K  K0  1  0.50000000  0.50000000  0.64251800  1
  K  K1  1  0.50000000  0.50000000  0.35748200  1
  Mg  Mg0  1  0.50000000  0.50000000  0.00000000  1
  As  As0  1  0.50000000  0.50000000  0.16051400  1
  As  As1  1  0.50000000  0.50000000  0.83948600  1
loop_
_geom_bond_atom_site_label_1
_geom_bond_atom_site_label_2
_geom_bond_distance
_geom_bond_site_symmetry_2
As0 Mg0 2.482814 1_555
As0 K1 3.046681 1_555
As1 Mg0 2.482814 1_556
As1 K0 3.046681 1_555
