# generated using pymatgen
data_Li6V3P8O29
_symmetry_space_group_name_H-M   'P 1'
_cell_length_a   9.76173700
_cell_length_b   9.79644444
_cell_length_c   13.94422235
_cell_angle_alpha   89.89808519
_cell_angle_beta   89.87586924
_cell_angle_gamma   60.37013042
_symmetry_Int_Tables_number   1
_chemical_formula_structural   Li6V3P8O29
_chemical_formula_sum   'Li12 V6 P16 O58'
_cell_volume   1159.11647049
_cell_formula_units_Z   2
loop_
 _symmetry_equiv_pos_site_id
 _symmetry_equiv_pos_as_xyz
  1  'x, y, z'
loop_
 _atom_site_type_symbol
 _atom_site_label
 _atom_site_symmetry_multiplicity
 _atom_site_fract_x
 _atom_site_fract_y
 _atom_site_fract_z
 _atom_site_occupancy
  Li  Li0  1  0.32343300  0.90939500  0.06000000  1
  Li  Li1  1  0.76680800  0.91008000  0.56039700  1
  Li  Li2  1  0.66200900  0.66272300  0.38683400  1
  Li  Li3  1  0.67034900  0.66245400  0.88729200  1
  Li  Li4  1  0.76183400  0.32883600  0.06447500  1
  Li  Li5  1  0.10229000  0.66194600  0.43811700  1
  Li  Li6  1  0.91181300  0.32720500  0.56484300  1
  Li  Li7  1  0.23446100  0.66396800  0.93833000  1
  Li  Li8  1  0.23594500  0.10107000  0.44109000  1
  Li  Li9  1  0.66602300  0.09946300  0.94111200  1
  Li  Li10  1  0.00360300  0.00312900  0.99899900  1
  Li  Li11  1  0.99582500  0.99892900  0.49941100  1
  V  V0  1  0.99986200  0.56739600  0.24296700  1
  V  V1  1  0.00746000  0.43421400  0.75619200  1
  V  V2  1  0.43780800  0.56389500  0.74255400  1
  V  V3  1  0.56072600  0.43381000  0.25643500  1
  V  V4  1  0.43331600  0.00097700  0.24583000  1
  V  V5  1  0.56472500  0.00033500  0.74704300  1
  P  P0  1  0.31316700  0.90672300  0.84333400  1
  P  P1  1  0.30623700  0.78139300  0.34046600  1
  P  P2  1  0.77739400  0.90632900  0.34285100  1
  P  P3  1  0.66293000  0.66506500  0.12924700  1
  P  P4  1  0.67420800  0.66243600  0.62907900  1
  P  P5  1  0.91116700  0.78178400  0.83960700  1
  P  P6  1  0.08477600  0.68839400  0.65403300  1
  P  P7  1  0.77330000  0.31696400  0.84519000  1
  P  P8  1  0.23008000  0.68529100  0.15470700  1
  P  P9  1  0.91187900  0.31681700  0.34531900  1
  P  P10  1  0.08139900  0.22231100  0.15834800  1
  P  P11  1  0.32582000  0.33506300  0.37096700  1
  P  P12  1  0.33996900  0.33407100  0.87074700  1
  P  P13  1  0.22326100  0.08613900  0.65860800  1
  P  P14  1  0.69626100  0.22228600  0.65816800  1
  P  P15  1  0.69214000  0.08540800  0.15820200  1
  O  O0  1  0.21933700  0.01003500  0.56653800  1
  O  O1  1  0.33727100  0.92304400  0.33997900  1
  O  O2  1  0.22250900  0.77336900  0.06393600  1
  O  O3  1  0.33518000  0.73976600  0.83885900  1
  O  O4  1  0.47771900  0.89300000  0.82948700  1
  O  O5  1  0.50540900  0.81322800  0.16430300  1
  O  O6  1  0.62684600  0.89244200  0.32968100  1
  O  O7  1  0.77270700  0.00974300  0.06629900  1
  O  O8  1  0.73864700  0.92191900  0.84071800  1
  O  O9  1  0.52349000  0.66873500  0.67357200  1
  O  O10  1  0.47057000  0.63078000  0.33453900  1
  O  O11  1  0.67916300  0.81193600  0.66504100  1
  O  O12  1  0.66150100  0.65772100  0.02162300  1
  O  O13  1  0.67654700  0.65842200  0.52132400  1
  O  O14  1  0.80276500  0.67613400  0.17280100  1
  O  O15  1  0.62365700  0.47956000  0.83138900  1
  O  O16  1  0.66742000  0.51434500  0.17284700  1
  O  O17  1  0.92279300  0.73854600  0.33842400  1
  O  O18  1  0.98300800  0.80367300  0.74094700  1
  O  O19  1  0.00124900  0.77434800  0.56319800  1
  O  O20  1  0.00627700  0.79134100  0.92053400  1
  O  O21  1  0.89763500  0.63015200  0.83323100  1
  O  O22  1  0.81825200  0.51156200  0.67074500  1
  O  O23  1  0.08670800  0.65913600  0.16207900  1
  O  O24  1  0.90282400  0.47843500  0.32953800  1
  O  O25  1  0.74347400  0.34516800  0.34338800  1
  O  O26  1  0.21238300  0.80037500  0.24199900  1
  O  O27  1  0.20081800  0.79254500  0.42146400  1
  O  O28  1  0.80774200  0.20337600  0.57842200  1
  O  O29  1  0.25128800  0.66239400  0.66065800  1
  O  O30  1  0.08140000  0.53444300  0.66876000  1
  O  O31  1  0.91619200  0.34162600  0.84170000  1
  O  O32  1  0.18347700  0.48761600  0.32833300  1
  O  O33  1  0.08061000  0.37851500  0.16565800  1
  O  O34  1  0.98912800  0.20447800  0.07844000  1
  O  O35  1  0.99995900  0.23370600  0.43549200  1
  O  O36  1  0.00801500  0.20220500  0.25844100  1
  O  O37  1  0.08539400  0.25515800  0.66413500  1
  O  O38  1  0.33819300  0.48139800  0.82294600  1
  O  O39  1  0.38355900  0.53092200  0.16795800  1
  O  O40  1  0.19031800  0.33458800  0.82728000  1
  O  O41  1  0.33869200  0.34723900  0.97702700  1
  O  O42  1  0.32126300  0.33742400  0.47752700  1
  O  O43  1  0.32604500  0.18689900  0.32925400  1
  O  O44  1  0.54049700  0.37834800  0.66234800  1
  O  O45  1  0.47581300  0.33645800  0.32655100  1
  O  O46  1  0.25271200  0.08050800  0.15840000  1
  O  O47  1  0.20676700  0.99688700  0.75065900  1
  O  O48  1  0.22729100  0.98881700  0.93311900  1
  O  O49  1  0.38339900  0.08381700  0.67457000  1
  O  O50  1  0.48824200  0.18394200  0.83265900  1
  O  O51  1  0.53412300  0.08336800  0.17361500  1
  O  O52  1  0.66258700  0.25428700  0.16443000  1
  O  O53  1  0.76938800  0.23248900  0.93547400  1
  O  O54  1  0.78754100  0.20342000  0.75850300  1
  O  O55  1  0.66574100  0.08058500  0.65912400  1
  O  O56  1  0.78331100  0.98700000  0.43251500  1
  O  O57  1  0.79647700  0.99534100  0.25040700  1
loop_
_geom_bond_atom_site_label_1
_geom_bond_atom_site_label_2
_geom_bond_distance
_geom_bond_site_symmetry_2
Li0 O48 1.974009 1_554
Li0 O46 2.007253 1_565
Li0 O2 2.011714 1_555
Li0 O5 2.123685 1_555
Li1 O56 1.971711 1_555
Li1 O19 1.999580 1_655
Li1 O55 2.007848 1_565
Li1 O11 2.142098 1_555
Li2 O13 1.879852 1_555
Li2 O10 2.169552 1_555
Li2 O6 2.246862 1_555
Li2 O24 2.285686 1_555
Li3 O12 1.876491 1_556
Li3 O15 2.199918 1_555
Li3 O21 2.211434 1_555
Li3 O4 2.255513 1_555
Li4 O34 1.942513 1_555
Li4 O53 2.017102 1_554
Li4 O52 2.026027 1_555
Li4 O16 2.187077 1_555
Li5 O27 1.957189 1_555
Li5 O19 2.037869 1_555
Li5 O17 2.067011 1_455
Li5 O32 2.134002 1_555
Li6 O28 1.938151 1_555
Li6 O35 2.013093 1_555
Li6 O37 2.027424 1_655
Li6 O22 2.156221 1_555
Li7 O20 1.957863 1_555
Li7 O2 2.027823 1_556
Li7 O3 2.038200 1_555
Li7 O38 2.241722 1_555
Li8 O0 2.004438 1_555
Li8 O35 2.010443 1_455
Li8 O1 2.074807 1_545
Li8 O43 2.152468 1_555
Li9 O7 2.000417 1_556
Li9 O53 2.005512 1_555
Li9 O8 2.067039 1_545
Li9 O50 2.137874 1_555
Li10 O34 2.206657 1_456
Li10 O48 2.306653 1_545
Li10 O20 2.335996 1_545
Li10 O2 2.386998 1_546
Li10 O7 2.410767 1_456
Li10 O53 2.445958 1_455
Li11 O28 2.226940 1_565
Li11 O27 2.295955 1_655
Li11 O56 2.331492 1_555
Li11 O19 2.347854 1_655
Li11 O0 2.427441 1_665
Li11 O35 2.484005 1_565
O0 P13 1.495802 1_555
O1 P1 1.559841 1_555
O1 V4 1.970868 1_565
O2 P8 1.511792 1_555
O3 P0 1.542073 1_555
O3 V2 2.017708 1_555
O4 P0 1.555898 1_555
O4 V5 2.005783 1_565
O5 P3 1.581950 1_555
O5 V4 1.973490 1_565
O6 P2 1.552718 1_555
O6 V4 2.021296 1_565
O7 P15 1.494272 1_555
O8 P5 1.560441 1_555
O8 V5 1.973636 1_565
O9 P4 1.568366 1_555
O9 V2 1.876722 1_555
O10 P1 1.554575 1_555
O10 V3 2.002051 1_555
O11 P4 1.572110 1_555
O11 V5 1.981190 1_565
O12 P3 1.503009 1_555
O13 P4 1.502973 1_555
O14 P3 1.547290 1_555
O14 V0 1.942094 1_555
O15 P7 1.551614 1_555
O15 V2 2.008090 1_555
O16 P3 1.576258 1_555
O16 V3 1.967165 1_555
O17 P2 1.553453 1_555
O17 V0 1.976180 1_555
O18 P5 1.604342 1_555
O18 P6 1.619080 1_655
O19 P6 1.516575 1_555
O20 P5 1.495012 1_455
O21 P5 1.557714 1_555
O21 V1 1.988817 1_655
O22 P4 1.563585 1_555
O22 V1 2.006912 1_655
O23 P8 1.545592 1_555
O23 V0 1.882616 1_455
O24 P9 1.556753 1_555
O24 V0 1.980316 1_555
O25 P9 1.526124 1_555
O25 V3 1.969901 1_555
O26 P8 1.610564 1_555
O26 P1 1.610993 1_555
O27 P1 1.493596 1_555
O28 P14 1.500429 1_555
O29 P6 1.518776 1_555
O29 V2 1.954033 1_555
O30 P6 1.538134 1_555
O30 V1 1.914196 1_555
O31 P7 1.529477 1_555
O31 V1 1.956720 1_655
O32 P11 1.569949 1_555
O32 V0 1.965012 1_455
O33 P10 1.530030 1_555
O33 V0 1.941265 1_455
O34 P10 1.498007 1_655
O35 P9 1.513955 1_555
O36 P9 1.602184 1_455
O36 P10 1.623022 1_555
O37 P13 1.534729 1_555
O37 V1 1.996931 1_555
O38 P12 1.580991 1_555
O38 V2 1.903817 1_555
O39 P8 1.525010 1_555
O39 V3 1.948437 1_555
O40 P12 1.580507 1_555
O40 V1 1.844731 1_555
O41 P12 1.487315 1_555
O42 P11 1.486345 1_555
O43 P11 1.563640 1_555
O43 V4 1.970671 1_555
O44 P14 1.534314 1_555
O44 V2 1.939181 1_555
O45 P11 1.594823 1_555
O45 V3 1.824110 1_555
O46 P10 1.558632 1_555
O46 V4 1.961957 1_555
O47 P13 1.603841 1_565
O47 P0 1.619750 1_555
O48 P0 1.499799 1_555
O49 P13 1.568458 1_555
O49 V5 1.843000 1_555
O50 P12 1.560342 1_555
O50 V5 1.973301 1_555
O51 P15 1.566841 1_555
O51 V4 1.847166 1_555
O52 P15 1.535033 1_555
O52 V3 2.000248 1_555
O53 P7 1.516103 1_555
O54 P7 1.602782 1_555
O54 P14 1.620876 1_555
O55 P14 1.557176 1_555
O55 V5 1.962470 1_555
O56 P2 1.496694 1_555
O57 P15 1.606866 1_565
O57 P2 1.616274 1_555
