# generated using pymatgen
data_PrSb
_symmetry_space_group_name_H-M   'P 1'
_cell_length_a   4.56653588
_cell_length_b   4.56653466
_cell_length_c   4.56653632
_cell_angle_alpha   60.00000309
_cell_angle_beta   60.00001200
_cell_angle_gamma   59.99999917
_symmetry_Int_Tables_number   1
_chemical_formula_structural   PrSb
_chemical_formula_sum   'Pr1 Sb1'
_cell_volume   67.33573390
_cell_formula_units_Z   1
loop_
 _symmetry_equiv_pos_site_id
 _symmetry_equiv_pos_as_xyz
  1  'x, y, z'
loop_
 _atom_site_type_symbol
 _atom_site_label
 _atom_site_symmetry_multiplicity
 _atom_site_fract_x
 _atom_site_fract_y
 _atom_site_fract_z
 _atom_site_occupancy
  Pr  Pr0  1  -0.00000000  0.00000000  0.00000000  1
  Sb  Sb0  1  0.50000000  0.50000000  0.50000000  1
loop_
_geom_bond_atom_site_label_1
_geom_bond_atom_site_label_2
_geom_bond_distance
_geom_bond_site_symmetry_2
Pr0 Sb0 3.229028 1_454
Pr0 Sb0 3.229028 1_545
Pr0 Sb0 3.229028 1_455
Pr0 Sb0 3.229028 1_544
Pr0 Sb0 3.229028 1_445
Pr0 Sb0 3.229028 1_554
