# generated using pymatgen
data_Li3TiMn4O8
_symmetry_space_group_name_H-M   'P 1'
_cell_length_a   6.13628848
_cell_length_b   10.60348389
_cell_length_c   6.16743001
_cell_angle_alpha   88.62724778
_cell_angle_beta   120.40788576
_cell_angle_gamma   74.97463101
_symmetry_Int_Tables_number   1
_chemical_formula_structural   Li3TiMn4O8
_chemical_formula_sum   'Li6 Ti2 Mn8 O16'
_cell_volume   328.40640788
_cell_formula_units_Z   2
loop_
 _symmetry_equiv_pos_site_id
 _symmetry_equiv_pos_as_xyz
  1  'x, y, z'
loop_
 _atom_site_type_symbol
 _atom_site_label
 _atom_site_symmetry_multiplicity
 _atom_site_fract_x
 _atom_site_fract_y
 _atom_site_fract_z
 _atom_site_occupancy
  Li  Li0  1  0.99980000  0.49917900  0.99995800  1
  Li  Li1  1  0.00004600  0.00106700  0.50019200  1
  Li  Li2  1  0.99999300  0.24999000  0.74982100  1
  Li  Li3  1  0.99998000  0.74998000  0.25010900  1
  Li  Li4  1  0.52150200  0.48510100  0.50682600  1
  Li  Li5  1  0.47836000  0.01492400  0.99290500  1
  Ti  Ti0  1  0.50008500  0.25003000  0.75007500  1
  Ti  Ti1  1  0.49994000  0.75000500  0.24999900  1
  Mn  Mn0  1  0.50002400  0.75001300  0.75007400  1
  Mn  Mn1  1  0.50001000  0.24996700  0.24992600  1
  Mn  Mn2  1  0.00692600  0.00141400  0.00011100  1
  Mn  Mn3  1  0.99290200  0.49867300  0.49981600  1
  Mn  Mn4  1  0.00026900  0.24996400  0.25010700  1
  Mn  Mn5  1  0.00024800  0.74988600  0.75022000  1
  Mn  Mn6  1  0.50130200  0.99806200  0.50661200  1
  Mn  Mn7  1  0.49887200  0.50182600  0.99342300  1
  O  O0  1  0.24310500  0.64265300  0.10152000  1
  O  O1  1  0.27476500  0.13293600  0.63636100  1
  O  O2  1  0.72535000  0.36696300  0.86359600  1
  O  O3  1  0.75682300  0.85734100  0.39855700  1
  O  O4  1  0.78181900  0.86418600  0.86354400  1
  O  O5  1  0.73593200  0.36987300  0.36275600  1
  O  O6  1  0.26406500  0.13004600  0.13711800  1
  O  O7  1  0.21810400  0.63585900  0.63667600  1
  O  O8  1  0.26804700  0.86373900  0.36047800  1
  O  O9  1  0.26898400  0.35893400  0.87803800  1
  O  O10  1  0.71471800  0.62653200  0.58828000  1
  O  O11  1  0.73485600  0.12830200  0.09425700  1
  O  O12  1  0.26517700  0.37175400  0.40565200  1
  O  O13  1  0.28519600  0.87350200  0.91180100  1
  O  O14  1  0.73106300  0.14098300  0.62174200  1
  O  O15  1  0.73173700  0.63631300  0.13944900  1
loop_
_geom_bond_atom_site_label_1
_geom_bond_atom_site_label_2
_geom_bond_distance
_geom_bond_site_symmetry_2
Li0 O0 2.283076 1_656
Li0 O12 2.304437 1_656
Li0 O2 2.314274 1_555
Li0 O10 2.333432 1_555
Li0 O9 2.354258 1_655
Li0 O15 2.410925 1_556
Li1 O3 2.284963 1_445
Li1 O11 2.304734 1_455
Li1 O1 2.312467 1_555
Li1 O13 2.333963 1_545
Li1 O14 2.350227 1_455
Li1 O8 2.412537 1_545
Li2 O9 2.096514 1_655
Li2 O14 2.096755 1_555
Li2 O5 2.193417 1_555
Li2 O6 2.194656 1_656
Li2 O1 2.241420 1_655
Li2 O2 2.241872 1_555
Li3 O15 2.135102 1_555
Li3 O8 2.135143 1_655
Li3 O7 2.175199 1_655
Li3 O4 2.175505 1_554
Li3 O3 2.216436 1_555
Li3 O0 2.216829 1_655
Li4 O2 2.060265 1_555
Li4 O10 2.064491 1_555
Li4 O12 2.080958 1_555
Li4 O5 2.101349 1_555
Li4 O0 2.440306 1_555
Li4 O7 2.586573 1_555
Li5 O1 2.058799 1_555
Li5 O13 2.064269 1_545
Li5 O11 2.081930 1_556
Li5 O6 2.100961 1_556
Li5 O3 2.441860 1_546
Li5 O4 2.584672 1_545
Mn0 O15 2.181299 1_556
Mn0 O8 2.182351 1_555
Mn0 O4 2.201460 1_555
Mn0 O7 2.201925 1_555
Mn0 O10 2.223659 1_555
Mn0 O13 2.223930 1_555
Mn1 O5 2.042910 1_555
Mn1 O6 2.043139 1_555
Mn1 O14 2.082405 1_555
Mn1 O9 2.082675 1_554
Mn1 O11 2.271287 1_555
Mn1 O12 2.272033 1_555
Mn2 O4 2.158211 1_444
Mn2 O8 2.159840 1_545
Mn2 O11 2.188309 1_455
Mn2 O13 2.197263 1_544
Mn2 O6 2.210307 1_555
Mn2 O14 2.244544 1_454
Mn3 O7 2.158342 1_655
Mn3 O15 2.159682 1_555
Mn3 O12 2.189451 1_655
Mn3 O10 2.197258 1_555
Mn3 O5 2.211059 1_555
Mn3 O9 2.244831 1_655
Mn4 O1 2.182790 1_555
Mn4 O2 2.183961 1_454
Mn4 O12 2.190800 1_555
Mn4 O11 2.191956 1_455
Mn4 O6 2.199968 1_555
Mn4 O5 2.200935 1_455
Mn5 O7 1.972194 1_555
Mn5 O4 1.974975 1_455
Mn5 O0 1.985648 1_556
Mn5 O3 1.988213 1_455
Mn5 O13 2.292492 1_555
Mn5 O10 2.292934 1_455
Mn6 O4 2.138108 1_555
Mn6 O8 2.168457 1_555
Mn6 O6 2.168750 1_565
Mn6 O1 2.183603 1_565
Mn6 O14 2.221380 1_565
Mn6 O3 2.240849 1_555
Mn7 O7 2.138307 1_555
Mn7 O5 2.167943 1_556
Mn7 O15 2.168367 1_556
Mn7 O2 2.183648 1_555
Mn7 O9 2.221647 1_555
Mn7 O0 2.242597 1_556
O0 Ti1 2.034029 1_555
O1 Ti0 1.973652 1_555
O2 Ti0 1.972005 1_555
O3 Ti1 2.034136 1_555
O8 Ti1 2.018557 1_555
O9 Ti0 2.072406 1_555
O10 Ti1 1.998702 1_555
O11 Ti0 2.014019 1_554
O12 Ti0 2.015020 1_555
O13 Ti1 1.998472 1_556
O14 Ti0 2.074134 1_555
O15 Ti1 2.018254 1_555
