# generated using pymatgen
data_KMoP2O7
_symmetry_space_group_name_H-M   'P 1'
_cell_length_a   10.62912200
_cell_length_b   7.56242100
_cell_length_c   8.54249260
_cell_angle_alpha   73.01181142
_cell_angle_beta   90.00000000
_cell_angle_gamma   90.00000000
_symmetry_Int_Tables_number   1
_chemical_formula_structural   KMoP2O7
_chemical_formula_sum   'K4 Mo4 P8 O28'
_cell_volume   656.69926671
_cell_formula_units_Z   4
loop_
 _symmetry_equiv_pos_site_id
 _symmetry_equiv_pos_as_xyz
  1  'x, y, z'
loop_
 _atom_site_type_symbol
 _atom_site_label
 _atom_site_symmetry_multiplicity
 _atom_site_fract_x
 _atom_site_fract_y
 _atom_site_fract_z
 _atom_site_occupancy
  K  K0  1  0.17187100  0.17934700  0.93922500  1
  K  K1  1  0.32812900  0.17934700  0.43922500  1
  K  K2  1  0.82812900  0.82065300  0.06077500  1
  K  K3  1  0.67187100  0.82065300  0.56077500  1
  Mo  Mo0  1  0.60102600  0.23484600  0.74116200  1
  Mo  Mo1  1  0.39897400  0.76515400  0.25883800  1
  Mo  Mo2  1  0.89897400  0.23484600  0.24116200  1
  Mo  Mo3  1  0.10102600  0.76515400  0.75883800  1
  P  P0  1  0.86252100  0.44083800  0.80483400  1
  P  P1  1  0.13747900  0.55916200  0.19516600  1
  P  P2  1  0.60139700  0.12808600  0.17572600  1
  P  P3  1  0.36252100  0.55916200  0.69516600  1
  P  P4  1  0.39860300  0.87191400  0.82427400  1
  P  P5  1  0.63747900  0.44083800  0.30483400  1
  P  P6  1  0.89860300  0.12808600  0.67572600  1
  P  P7  1  0.10139700  0.87191400  0.32427400  1
  O  O0  1  0.72167500  0.45835100  0.76053400  1
  O  O1  1  0.92008600  0.63416100  0.75897500  1
  O  O2  1  0.22167500  0.54164900  0.73946600  1
  O  O3  1  0.57991400  0.63416100  0.25897500  1
  O  O4  1  0.27832500  0.54164900  0.23946600  1
  O  O5  1  0.76822900  0.07116800  0.75353400  1
  O  O6  1  0.26822900  0.92883200  0.74646600  1
  O  O7  1  0.07058800  0.66398500  0.31622600  1
  O  O8  1  0.39405700  0.67788100  0.52256500  1
  O  O9  1  0.57058800  0.33601500  0.18377400  1
  O  O10  1  0.89405700  0.32211900  0.97743500  1
  O  O11  1  0.42008600  0.36583900  0.74102500  1
  O  O12  1  0.09693700  0.86818400  0.50115900  1
  O  O13  1  0.92941200  0.33601500  0.68377400  1
  O  O14  1  0.73177100  0.07116800  0.25353400  1
  O  O15  1  0.40306300  0.86818400  0.00115900  1
  O  O16  1  0.50073100  0.00385500  0.28272000  1
  O  O17  1  0.49926900  0.99614500  0.71728000  1
  O  O18  1  0.60594300  0.32211900  0.47743500  1
  O  O19  1  0.23177100  0.92883200  0.24646600  1
  O  O20  1  0.99926900  0.00385500  0.78272000  1
  O  O21  1  0.77832500  0.45835100  0.26053400  1
  O  O22  1  0.00073100  0.99614500  0.21728000  1
  O  O23  1  0.07991400  0.36583900  0.24102500  1
  O  O24  1  0.42941200  0.66398500  0.81622600  1
  O  O25  1  0.59693700  0.13181600  0.99884100  1
  O  O26  1  0.10594300  0.67788100  0.02256500  1
  O  O27  1  0.90306300  0.13181600  0.49884100  1
loop_
_geom_bond_atom_site_label_1
_geom_bond_atom_site_label_2
_geom_bond_distance
_geom_bond_site_symmetry_2
K0 O20 2.819811 1_455
K0 O2 2.822592 1_555
K0 O19 2.824443 1_546
K0 O22 2.991229 1_546
K0 O6 3.028607 1_545
K0 O10 3.193426 1_455
K0 O11 3.228160 1_555
K0 O15 3.335920 1_546
K0 O13 3.361020 1_455
K0 O23 3.422837 1_556
K1 O16 2.819811 1_555
K1 O4 2.822592 1_555
K1 O6 2.824443 1_545
K1 O17 2.991229 1_545
K1 O19 3.028607 1_545
K1 O18 3.193426 1_555
K1 O23 3.228160 1_555
K1 O12 3.335920 1_545
K1 O9 3.361020 1_555
K1 O11 3.422837 1_555
K2 O22 2.819811 1_655
K2 O21 2.822592 1_555
K2 O5 2.824443 1_564
K2 O20 2.991229 1_564
K2 O14 3.028607 1_565
K2 O26 3.193426 1_655
K2 O3 3.228160 1_555
K2 O25 3.335920 1_564
K2 O7 3.361020 1_655
K2 O1 3.422837 1_554
K3 O17 2.819811 1_555
K3 O0 2.822592 1_555
K3 O14 2.824443 1_565
K3 O16 2.991229 1_565
K3 O5 3.028607 1_565
K3 O8 3.193426 1_555
K3 O1 3.228160 1_555
K3 O27 3.335920 1_565
K3 O24 3.361020 1_555
K3 O3 3.422837 1_555
Mo0 O25 2.110008 1_555
Mo0 O5 2.150673 1_555
Mo0 O18 2.155216 1_555
Mo0 O11 2.163212 1_555
Mo0 O17 2.164543 1_545
Mo0 O0 2.166165 1_555
Mo1 O15 2.110008 1_555
Mo1 O19 2.150673 1_555
Mo1 O8 2.155216 1_555
Mo1 O3 2.163212 1_555
Mo1 O16 2.164543 1_565
Mo1 O4 2.166165 1_555
Mo2 O27 2.110008 1_555
Mo2 O14 2.150673 1_555
Mo2 O10 2.155216 1_554
Mo2 O23 2.163212 1_655
Mo2 O22 2.164543 1_645
Mo2 O21 2.166165 1_555
Mo3 O12 2.110008 1_555
Mo3 O6 2.150673 1_555
Mo3 O26 2.155216 1_556
Mo3 O1 2.163212 1_455
Mo3 O20 2.164543 1_465
Mo3 O2 2.166165 1_555
O0 P0 1.540351 1_555
O1 P0 1.526625 1_555
O2 P3 1.540351 1_555
O3 P5 1.526625 1_555
O4 P1 1.540351 1_555
O5 P6 1.542796 1_555
O6 P4 1.542796 1_555
O7 P7 1.627183 1_555
O7 P1 1.637812 1_555
O8 P3 1.522778 1_555
O9 P2 1.627183 1_555
O9 P5 1.637812 1_555
O10 P0 1.522778 1_555
O11 P3 1.526625 1_555
O12 P7 1.503787 1_555
O13 P6 1.627183 1_555
O13 P0 1.637812 1_555
O14 P2 1.542796 1_555
O15 P4 1.503787 1_554
O16 P2 1.536598 1_555
O17 P4 1.536598 1_555
O18 P5 1.522778 1_555
O19 P7 1.542796 1_555
O20 P6 1.536598 1_555
O21 P5 1.540351 1_555
O22 P7 1.536598 1_555
O23 P1 1.526625 1_555
O24 P4 1.627183 1_555
O24 P3 1.637812 1_555
O25 P2 1.503787 1_556
O26 P1 1.522778 1_555
O27 P6 1.503787 1_555
