# generated using pymatgen
data_SrUP2(HO5)2
_symmetry_space_group_name_H-M   'P 1'
_cell_length_a   7.69756400
_cell_length_b   8.37369225
_cell_length_c   9.04570240
_cell_angle_alpha   102.22667121
_cell_angle_beta   108.40745479
_cell_angle_gamma   107.15491491
_symmetry_Int_Tables_number   1
_chemical_formula_structural   SrUP2(HO5)2
_chemical_formula_sum   'Sr2 U2 P4 H4 O20'
_cell_volume   497.82048900
_cell_formula_units_Z   2
loop_
 _symmetry_equiv_pos_site_id
 _symmetry_equiv_pos_as_xyz
  1  'x, y, z'
loop_
 _atom_site_type_symbol
 _atom_site_label
 _atom_site_symmetry_multiplicity
 _atom_site_fract_x
 _atom_site_fract_y
 _atom_site_fract_z
 _atom_site_occupancy
  Sr  Sr0  1  0.31302700  0.23191700  0.90415600  1
  Sr  Sr1  1  0.68697300  0.76808300  0.09584400  1
  U  U0  1  0.22937100  0.81923900  0.47194700  1
  U  U1  1  0.77062900  0.18076100  0.52805300  1
  P  P0  1  0.23929600  0.06498900  0.24480300  1
  P  P1  1  0.76070400  0.93501100  0.75519700  1
  P  P2  1  0.29557900  0.49023700  0.66042900  1
  P  P3  1  0.70442100  0.50976300  0.33957100  1
  H  H0  1  0.21329800  0.22513200  0.29428000  1
  H  H1  1  0.78670200  0.77486800  0.70572000  1
  H  H2  1  0.38192300  0.44914500  0.54884300  1
  H  H3  1  0.61807700  0.55085500  0.45115700  1
  O  O0  1  0.26828400  0.05312600  0.08535500  1
  O  O1  1  0.73171600  0.94687400  0.91464500  1
  O  O2  1  0.41902400  0.07122100  0.39189700  1
  O  O3  1  0.58097600  0.92877900  0.60810300  1
  O  O4  1  0.43937300  0.51863600  0.83418100  1
  O  O5  1  0.56062700  0.48136400  0.16581900  1
  O  O6  1  0.25475100  0.65605600  0.64156100  1
  O  O7  1  0.74524900  0.34394400  0.35843900  1
  O  O8  1  0.06320400  0.91234300  0.24035700  1
  O  O9  1  0.93679600  0.08765700  0.75964300  1
  O  O10  1  0.23841900  0.99761700  0.63565300  1
  O  O11  1  0.76158100  0.00238300  0.36434700  1
  O  O12  1  0.23599600  0.64768500  0.31504300  1
  O  O13  1  0.76400400  0.35231500  0.68495700  1
  O  O14  1  0.89675300  0.67440600  0.39243800  1
  O  O15  1  0.10324700  0.32559400  0.60756200  1
  O  O16  1  0.94520700  0.58849300  0.97747600  1
  O  O17  1  0.05479300  0.41150700  0.02252400  1
  O  O18  1  0.70124000  0.22773700  0.01090900  1
  O  O19  1  0.29876000  0.77226300  0.98909100  1
loop_
_geom_bond_atom_site_label_1
_geom_bond_atom_site_label_2
_geom_bond_distance
_geom_bond_site_symmetry_2
H0 P0 1.413956 1_555
H1 P1 1.413956 1_555
H2 P2 1.410838 1_555
H3 P3 1.410838 1_555
O0 P0 1.515119 1_555
O0 Sr0 2.477565 1_554
O1 P1 1.515119 1_555
O1 Sr1 2.477565 1_556
O2 P0 1.566069 1_555
O2 U1 2.373864 1_555
O2 U0 2.570087 1_545
O3 P1 1.566069 1_555
O3 U0 2.373864 1_555
O3 U1 2.570087 1_565
O4 P2 1.529609 1_555
O4 Sr1 2.511243 1_556
O4 Sr0 2.601123 1_555
O5 P3 1.529609 1_555
O5 Sr0 2.511243 1_554
O5 Sr1 2.601123 1_555
O6 P2 1.542662 1_555
O6 U0 2.261751 1_555
O7 P3 1.542662 1_555
O7 U1 2.261751 1_555
O8 P0 1.547413 1_565
O8 U0 2.494038 1_555
O8 Sr1 2.536087 1_455
O9 P1 1.547413 1_545
O9 U1 2.494038 1_555
O9 Sr0 2.536087 1_655
O10 U0 1.834513 1_555
O10 Sr0 2.552295 1_565
O11 U1 1.834513 1_555
O11 Sr1 2.552295 1_545
O12 U0 1.818245 1_555
O13 U1 1.818245 1_555
O14 P3 1.546224 1_555
O14 U0 2.275814 1_655
O14 Sr1 3.053424 1_555
O15 P2 1.546224 1_555
O15 U1 2.275814 1_455
O15 Sr0 3.053424 1_555
O16 O17 1.962195 1_656
O16 Sr1 3.128058 1_556
O17 Sr0 3.128058 1_554
O18 Sr0 2.849072 1_554
O19 Sr1 2.849072 1_556
