# generated using pymatgen
data_BaTm2(MoO4)4
_symmetry_space_group_name_H-M   'P 1'
_cell_length_a   6.83736168
_cell_length_b   6.83736168
_cell_length_c   19.75609258
_cell_angle_alpha   89.10879721
_cell_angle_beta   89.10879721
_cell_angle_gamma   134.96206630
_symmetry_Int_Tables_number   1
_chemical_formula_structural   BaTm2(MoO4)4
_chemical_formula_sum   'Ba2 Tm4 Mo8 O32'
_cell_volume   652.96825450
_cell_formula_units_Z   2
loop_
 _symmetry_equiv_pos_site_id
 _symmetry_equiv_pos_as_xyz
  1  'x, y, z'
loop_
 _atom_site_type_symbol
 _atom_site_label
 _atom_site_symmetry_multiplicity
 _atom_site_fract_x
 _atom_site_fract_y
 _atom_site_fract_z
 _atom_site_occupancy
  Ba  Ba0  1  0.53003900  0.46996100  0.75000000  1
  Ba  Ba1  1  0.46996100  0.53003900  0.25000000  1
  Tm  Tm0  1  0.64459100  0.34801700  0.96933400  1
  Tm  Tm1  1  0.35540900  0.65198300  0.03066600  1
  Tm  Tm2  1  0.65198300  0.35540900  0.53066600  1
  Tm  Tm3  1  0.34801700  0.64459100  0.46933400  1
  Mo  Mo0  1  0.92529000  0.04497100  0.58979400  1
  Mo  Mo1  1  0.07471000  0.95502900  0.41020600  1
  Mo  Mo2  1  0.95502900  0.07471000  0.91020600  1
  Mo  Mo3  1  0.04497100  0.92529000  0.08979400  1
  Mo  Mo4  1  0.24264400  0.76031100  0.64483100  1
  Mo  Mo5  1  0.75735600  0.23968900  0.35516900  1
  Mo  Mo6  1  0.23968900  0.75735600  0.85516900  1
  Mo  Mo7  1  0.76031100  0.24264400  0.14483100  1
  O  O0  1  0.66290400  0.00493000  0.54208000  1
  O  O1  1  0.33709600  0.99507000  0.45792000  1
  O  O2  1  0.99507000  0.33709600  0.95792000  1
  O  O3  1  0.00493000  0.66290400  0.04208000  1
  O  O4  1  0.44019000  0.91789300  0.93462300  1
  O  O5  1  0.55981000  0.08210700  0.06537700  1
  O  O6  1  0.08210700  0.55981000  0.56537700  1
  O  O7  1  0.91789300  0.44019000  0.43462300  1
  O  O8  1  0.79818700  0.96168900  0.83205400  1
  O  O9  1  0.20181300  0.03831100  0.16794600  1
  O  O10  1  0.03831100  0.20181300  0.66794600  1
  O  O11  1  0.96168900  0.79818700  0.33205400  1
  O  O12  1  0.71910600  0.81935200  0.10051100  1
  O  O13  1  0.28089400  0.18064800  0.89948900  1
  O  O14  1  0.18064800  0.28089400  0.39948900  1
  O  O15  1  0.81935200  0.71910600  0.60051100  1
  O  O16  1  0.41922500  0.11845900  0.62929100  1
  O  O17  1  0.58077500  0.88154100  0.37070900  1
  O  O18  1  0.88154100  0.58077500  0.87070900  1
  O  O19  1  0.11845900  0.41922500  0.12929100  1
  O  O20  1  0.71977000  0.75638400  0.96560100  1
  O  O21  1  0.28023000  0.24361600  0.03439900  1
  O  O22  1  0.24361600  0.28023000  0.53439900  1
  O  O23  1  0.75638400  0.71977000  0.46560100  1
  O  O24  1  0.49438100  0.76788800  0.67108600  1
  O  O25  1  0.50561900  0.23211200  0.32891400  1
  O  O26  1  0.23211200  0.50561900  0.82891400  1
  O  O27  1  0.76788800  0.49438100  0.17108600  1
  O  O28  1  0.39863300  0.01113000  0.79027600  1
  O  O29  1  0.60136700  0.98887000  0.20972400  1
  O  O30  1  0.98887000  0.60136700  0.70972400  1
  O  O31  1  0.01113000  0.39863300  0.29027600  1
loop_
_geom_bond_atom_site_label_1
_geom_bond_atom_site_label_2
_geom_bond_distance
_geom_bond_site_symmetry_2
Ba0 O28 2.683077 1_555
Ba0 O30 2.683077 1_555
Ba0 O24 2.693410 1_555
Ba0 O26 2.693410 1_555
Ba0 O10 2.973793 1_555
Ba0 O8 2.973793 1_555
Ba0 O16 3.114178 1_555
Ba0 O18 3.114178 1_555
Ba0 O15 3.230541 1_555
Ba0 O13 3.230541 1_555
Ba1 O31 2.683077 1_555
Ba1 O29 2.683077 1_555
Ba1 O27 2.693410 1_555
Ba1 O25 2.693410 1_555
Ba1 O9 2.973793 1_555
Ba1 O11 2.973793 1_555
Ba1 O17 3.114178 1_555
Ba1 O19 3.114178 1_555
Ba1 O14 3.230541 1_555
Ba1 O12 3.230541 1_555
Mo0 O10 1.745990 1_655
Mo0 O15 1.798179 1_545
Mo0 O22 1.856217 1_655
Mo0 O0 1.883760 1_555
Mo1 O11 1.745990 1_455
Mo1 O14 1.798179 1_565
Mo1 O23 1.856217 1_455
Mo1 O1 1.883760 1_555
Mo2 O8 1.745990 1_545
Mo2 O13 1.798179 1_655
Mo2 O20 1.856217 1_545
Mo2 O2 1.883760 1_555
Mo3 O9 1.745990 1_565
Mo3 O12 1.798179 1_455
Mo3 O21 1.856217 1_565
Mo3 O3 1.883760 1_555
Mo4 O30 1.748669 1_455
Mo4 O24 1.771130 1_555
Mo4 O16 1.826247 1_565
Mo4 O6 1.882032 1_555
Mo5 O31 1.748669 1_655
Mo5 O25 1.771130 1_555
Mo5 O17 1.826247 1_545
Mo5 O7 1.882032 1_555
Mo6 O28 1.748669 1_565
Mo6 O26 1.771130 1_555
Mo6 O18 1.826247 1_455
Mo6 O4 1.882032 1_555
Mo7 O29 1.748669 1_545
Mo7 O27 1.771130 1_555
Mo7 O19 1.826247 1_655
Mo7 O5 1.882032 1_555
O0 Tm3 2.341094 1_545
O0 Tm2 2.456731 1_555
O1 Tm2 2.341094 1_565
O1 Tm3 2.456731 1_555
O2 Tm1 2.341094 1_656
O2 Tm0 2.456731 1_555
O3 Tm0 2.341094 1_454
O3 Tm1 2.456731 1_555
O4 Tm0 2.314354 1_565
O4 Tm1 2.368720 1_556
O5 Tm1 2.314354 1_545
O5 Tm0 2.368720 1_554
O6 Tm2 2.314354 1_455
O6 Tm3 2.368720 1_555
O7 Tm3 2.314354 1_655
O7 Tm2 2.368720 1_555
O12 Tm1 2.351910 1_555
O13 Tm0 2.351910 1_555
O14 Tm3 2.351910 1_555
O15 Tm2 2.351910 1_555
O16 Tm2 2.261717 1_555
O17 Tm3 2.261717 1_555
O18 Tm0 2.261717 1_555
O19 Tm1 2.261717 1_555
O20 Tm1 2.393085 1_556
O20 Tm0 2.455566 1_555
O21 Tm0 2.393085 1_554
O21 Tm1 2.455566 1_555
O22 Tm3 2.393085 1_555
O22 Tm2 2.455566 1_555
O23 Tm2 2.393085 1_555
O23 Tm3 2.455566 1_555
