# generated using pymatgen
data_YbCuGe
_symmetry_space_group_name_H-M   'P 1'
_cell_length_a   4.16238462
_cell_length_b   4.16238462
_cell_length_c   8.13021800
_cell_angle_alpha   90.00000000
_cell_angle_beta   90.00000000
_cell_angle_gamma   120.00000985
_symmetry_Int_Tables_number   1
_chemical_formula_structural   YbCuGe
_chemical_formula_sum   'Yb2 Cu2 Ge2'
_cell_volume   121.98802374
_cell_formula_units_Z   2
loop_
 _symmetry_equiv_pos_site_id
 _symmetry_equiv_pos_as_xyz
  1  'x, y, z'
loop_
 _atom_site_type_symbol
 _atom_site_label
 _atom_site_symmetry_multiplicity
 _atom_site_fract_x
 _atom_site_fract_y
 _atom_site_fract_z
 _atom_site_occupancy
  Yb  Yb0  1  0.00000000  0.00000000  0.21774500  1
  Yb  Yb1  1  0.00000000  0.00000000  0.78225500  1
  Cu  Cu0  1  0.33333300  0.66666700  0.01250800  1
  Cu  Cu1  1  0.66666700  0.33333300  0.98749200  1
  Ge  Ge0  1  0.66666700  0.33333300  0.56156300  1
  Ge  Ge1  1  0.33333300  0.66666700  0.43843700  1
loop_
_geom_bond_atom_site_label_1
_geom_bond_atom_site_label_2
_geom_bond_distance
_geom_bond_site_symmetry_2
Cu0 Cu1 2.411742 1_454
Cu0 Cu1 2.411742 1_564
Cu0 Cu1 2.411750 1_554
Cu0 Yb0 2.925651 1_565
Cu0 Yb0 2.925654 1_555
Cu0 Yb0 2.925654 1_665
Cu0 Yb1 3.046235 1_564
Cu0 Yb1 3.046238 1_554
Cu0 Yb1 3.046238 1_664
Cu1 Yb1 2.925651 1_655
Cu1 Yb1 2.925654 1_555
Cu1 Yb1 2.925654 1_665
Cu1 Yb0 3.046235 1_656
Cu1 Yb0 3.046238 1_556
Cu1 Yb0 3.046238 1_666
Ge0 Ge1 2.603309 1_545
Ge0 Ge1 2.603309 1_655
Ge0 Ge1 2.603316 1_555
Ge0 Yb1 2.999093 1_655
Ge0 Yb1 2.999095 1_555
Ge0 Yb1 2.999095 1_665
Ge1 Yb0 2.999093 1_565
Ge1 Yb0 2.999095 1_665
Ge1 Yb0 2.999095 1_555
