# generated using pymatgen
data_KMg14GaO16
_symmetry_space_group_name_H-M   'P 1'
_cell_length_a   8.65787769
_cell_length_b   8.53841498
_cell_length_c   4.40304657
_cell_angle_alpha   90.00000000
_cell_angle_beta   90.00000000
_cell_angle_gamma   90.00000000
_symmetry_Int_Tables_number   1
_chemical_formula_structural   KMg14GaO16
_chemical_formula_sum   'K1 Mg14 Ga1 O16'
_cell_volume   325.49324760
_cell_formula_units_Z   1
loop_
 _symmetry_equiv_pos_site_id
 _symmetry_equiv_pos_as_xyz
  1  'x, y, z'
loop_
 _atom_site_type_symbol
 _atom_site_label
 _atom_site_symmetry_multiplicity
 _atom_site_fract_x
 _atom_site_fract_y
 _atom_site_fract_z
 _atom_site_occupancy
  K  K0  1  -0.00000000  -0.00000000  -0.00000000  1
  Mg  Mg0  1  0.50000000  -0.00000000  -0.00000000  1
  Mg  Mg1  1  0.50000000  0.50000000  -0.00000000  1
  Mg  Mg2  1  -0.00000000  0.24707840  0.50000000  1
  Mg  Mg3  1  -0.00000000  0.75292160  0.50000000  1
  Mg  Mg4  1  0.50000000  0.24852717  0.50000000  1
  Mg  Mg5  1  0.50000000  0.75147283  0.50000000  1
  Mg  Mg6  1  0.25214951  -0.00000000  0.50000000  1
  Mg  Mg7  1  0.25160336  0.50000000  0.50000000  1
  Mg  Mg8  1  0.74785049  -0.00000000  0.50000000  1
  Mg  Mg9  1  0.74839664  0.50000000  0.50000000  1
  Mg  Mg10  1  0.25566346  0.24776384  -0.00000000  1
  Mg  Mg11  1  0.25566346  0.75223616  0.00000000  1
  Mg  Mg12  1  0.74433654  0.24776384  -0.00000000  1
  Mg  Mg13  1  0.74433654  0.75223616  0.00000000  1
  Ga  Ga0  1  -0.00000000  0.50000000  -0.00000000  1
  O  O0  1  0.27471867  -0.00000000  -0.00000000  1
  O  O1  1  0.24758951  0.50000000  -0.00000000  1
  O  O2  1  0.72528133  -0.00000000  -0.00000000  1
  O  O3  1  0.75241049  0.50000000  -0.00000000  1
  O  O4  1  0.24890422  0.25131910  0.50000000  1
  O  O5  1  0.24890422  0.74868090  0.50000000  1
  O  O6  1  0.75109578  0.25131910  0.50000000  1
  O  O7  1  0.75109578  0.74868090  0.50000000  1
  O  O8  1  -0.00000000  -0.00000000  0.50000000  1
  O  O9  1  -0.00000000  0.50000000  0.50000000  1
  O  O10  1  0.50000000  -0.00000000  0.50000000  1
  O  O11  1  0.50000000  0.50000000  0.50000000  1
  O  O12  1  -0.00000000  0.28186252  -0.00000000  1
  O  O13  1  -0.00000000  0.71813748  0.00000000  1
  O  O14  1  0.50000000  0.25758854  -0.00000000  1
  O  O15  1  0.50000000  0.74241146  0.00000000  1
loop_
_geom_bond_atom_site_label_1
_geom_bond_atom_site_label_2
_geom_bond_distance
_geom_bond_site_symmetry_2
K0 O8 2.201523 1_555
K0 O8 2.201523 1_554
K0 O0 2.378481 1_555
K0 O2 2.378481 1_455
K0 O13 2.406659 1_545
K0 O12 2.406659 1_555
Mg0 O2 1.950458 1_555
Mg0 O0 1.950458 1_555
Mg0 O14 2.199398 1_555
Mg0 O15 2.199398 1_545
Mg0 O10 2.201523 1_555
Mg0 O10 2.201523 1_554
Mg1 O14 2.069810 1_555
Mg1 O15 2.069810 1_555
Mg1 O1 2.185339 1_555
Mg1 O3 2.185339 1_555
Mg1 O11 2.201523 1_554
Mg1 O11 2.201523 1_555
Mg2 O8 2.109658 1_555
Mg2 O4 2.155286 1_555
Mg2 O6 2.155286 1_455
Mg2 O9 2.159550 1_555
Mg2 O12 2.221467 1_556
Mg2 O12 2.221467 1_555
Mg3 O8 2.109658 1_565
Mg3 O5 2.155286 1_555
Mg3 O7 2.155286 1_455
Mg3 O9 2.159550 1_555
Mg3 O13 2.221467 1_555
Mg3 O13 2.221467 1_556
Mg4 O10 2.122028 1_555
Mg4 O11 2.147179 1_555
Mg4 O6 2.174087 1_555
Mg4 O4 2.174087 1_555
Mg4 O14 2.202882 1_556
Mg4 O14 2.202882 1_555
Mg5 O10 2.122028 1_565
Mg5 O11 2.147179 1_555
Mg5 O5 2.174087 1_555
Mg5 O7 2.174087 1_555
Mg5 O15 2.202882 1_556
Mg5 O15 2.202882 1_555
Mg6 O10 2.145859 1_555
Mg6 O5 2.146051 1_545
Mg6 O4 2.146051 1_555
Mg6 O8 2.183080 1_555
Mg6 O0 2.210178 1_555
Mg6 O0 2.210178 1_556
Mg7 O4 2.123469 1_555
Mg7 O5 2.123469 1_555
Mg7 O11 2.150588 1_555
Mg7 O9 2.178351 1_555
Mg7 O1 2.201798 1_556
Mg7 O1 2.201798 1_555
Mg8 O10 2.145859 1_555
Mg8 O6 2.146051 1_555
Mg8 O7 2.146051 1_545
Mg8 O8 2.183080 1_655
Mg8 O2 2.210178 1_555
Mg8 O2 2.210178 1_556
Mg9 O6 2.123469 1_555
Mg9 O7 2.123469 1_555
Mg9 O11 2.150588 1_555
Mg9 O9 2.178351 1_655
Mg9 O3 2.201798 1_556
Mg9 O3 2.201798 1_555
Mg10 O14 2.117098 1_555
Mg10 O0 2.121934 1_555
Mg10 O1 2.154831 1_555
Mg10 O4 2.202510 1_555
Mg10 O4 2.202510 1_554
Mg10 O12 2.232569 1_555
Mg11 O15 2.117098 1_555
Mg11 O0 2.121934 1_565
Mg11 O1 2.154831 1_555
Mg11 O5 2.202510 1_554
Mg11 O5 2.202510 1_555
Mg11 O13 2.232569 1_555
Mg12 O14 2.117098 1_555
Mg12 O2 2.121934 1_555
Mg12 O3 2.154831 1_555
Mg12 O6 2.202510 1_555
Mg12 O6 2.202510 1_554
Mg12 O12 2.232569 1_655
Mg13 O15 2.117098 1_555
Mg13 O2 2.121934 1_565
Mg13 O3 2.154831 1_555
Mg13 O7 2.202510 1_555
Mg13 O7 2.202510 1_554
Mg13 O13 2.232569 1_655
Ga0 O13 1.862548 1_555
Ga0 O12 1.862548 1_555
Ga0 O3 2.143600 1_455
Ga0 O1 2.143600 1_555
Ga0 O9 2.201523 1_554
Ga0 O9 2.201523 1_555
