# generated using pymatgen
data_MgSnBiO5
_symmetry_space_group_name_H-M   'P 1'
_cell_length_a   11.05484500
_cell_length_b   5.44274800
_cell_length_c   8.71992510
_cell_angle_alpha   68.83335382
_cell_angle_beta   90.00000000
_cell_angle_gamma   90.00000000
_symmetry_Int_Tables_number   1
_chemical_formula_structural   MgSnBiO5
_chemical_formula_sum   'Mg4 Sn4 Bi4 O20'
_cell_volume   489.26977443
_cell_formula_units_Z   4
loop_
 _symmetry_equiv_pos_site_id
 _symmetry_equiv_pos_as_xyz
  1  'x, y, z'
loop_
 _atom_site_type_symbol
 _atom_site_label
 _atom_site_symmetry_multiplicity
 _atom_site_fract_x
 _atom_site_fract_y
 _atom_site_fract_z
 _atom_site_occupancy
  Mg  Mg0  1  0.08945100  0.54483800  0.83596400  1
  Mg  Mg1  1  0.91054900  0.45516200  0.16403600  1
  Mg  Mg2  1  0.58945100  0.45516200  0.66403600  1
  Mg  Mg3  1  0.41054900  0.54483800  0.33596400  1
  Sn  Sn0  1  0.38743700  0.15955000  0.04940100  1
  Sn  Sn1  1  0.61256300  0.84045000  0.95059900  1
  Sn  Sn2  1  0.88743700  0.84045000  0.45059900  1
  Sn  Sn3  1  0.11256300  0.15955000  0.54940100  1
  Bi  Bi0  1  0.89213800  0.04451800  0.85040400  1
  Bi  Bi1  1  0.10786200  0.95548200  0.14959600  1
  Bi  Bi2  1  0.60786200  0.04451800  0.35040400  1
  Bi  Bi3  1  0.39213800  0.95548200  0.64959600  1
  O  O0  1  0.95982600  0.86437800  0.65908000  1
  O  O1  1  0.03138300  0.34313600  0.68265000  1
  O  O2  1  0.79917700  0.18017600  0.31539900  1
  O  O3  1  0.46560000  0.75640500  0.48933000  1
  O  O4  1  0.71842600  0.69954500  0.51778100  1
  O  O5  1  0.78157400  0.69954500  0.01778100  1
  O  O6  1  0.46861700  0.34313600  0.18265000  1
  O  O7  1  0.53138300  0.65686400  0.81735000  1
  O  O8  1  0.53440000  0.24359500  0.51067000  1
  O  O9  1  0.45982600  0.13562200  0.84092000  1
  O  O10  1  0.28157400  0.30045500  0.48221900  1
  O  O11  1  0.04017400  0.13562200  0.34092000  1
  O  O12  1  0.54017400  0.86437800  0.15908000  1
  O  O13  1  0.21842600  0.30045500  0.98221900  1
  O  O14  1  0.96560000  0.24359500  0.01067000  1
  O  O15  1  0.03440000  0.75640500  0.98933000  1
  O  O16  1  0.20082300  0.81982400  0.68460100  1
  O  O17  1  0.96861700  0.65686400  0.31735000  1
  O  O18  1  0.29917700  0.81982400  0.18460100  1
  O  O19  1  0.70082300  0.18017600  0.81539900  1
loop_
_geom_bond_atom_site_label_1
_geom_bond_atom_site_label_2
_geom_bond_distance
_geom_bond_site_symmetry_2
Mg0 O16 2.017768 1_555
Mg0 O13 2.050255 1_555
Mg0 O1 2.112918 1_555
Mg0 O15 2.144041 1_555
Mg0 O14 2.253851 1_456
Mg0 O0 2.349467 1_455
Mg1 O2 2.017768 1_555
Mg1 O5 2.050255 1_555
Mg1 O17 2.112918 1_555
Mg1 O14 2.144041 1_555
Mg1 O15 2.253851 1_654
Mg1 O11 2.349467 1_655
Mg2 O19 2.017768 1_555
Mg2 O4 2.050255 1_555
Mg2 O7 2.112918 1_555
Mg2 O8 2.144041 1_555
Mg2 O3 2.253851 1_555
Mg2 O9 2.349467 1_555
Mg3 O18 2.017768 1_555
Mg3 O10 2.050255 1_555
Mg3 O6 2.112918 1_555
Mg3 O3 2.144041 1_555
Mg3 O8 2.253851 1_555
Mg3 O12 2.349467 1_555
Bi0 O14 2.209096 1_556
Bi0 O19 2.224550 1_555
Bi0 O15 2.242328 1_645
Bi0 O5 2.273874 1_546
Bi0 O1 2.331094 1_655
Bi0 O0 2.342180 1_545
Bi1 O15 2.209096 1_554
Bi1 O18 2.224550 1_555
Bi1 O14 2.242328 1_465
Bi1 O13 2.273874 1_564
Bi1 O17 2.331094 1_455
Bi1 O11 2.342180 1_565
Bi2 O8 2.209096 1_555
Bi2 O2 2.224550 1_555
Bi2 O3 2.242328 1_545
Bi2 O4 2.273874 1_545
Bi2 O6 2.331094 1_555
Bi2 O12 2.342180 1_545
Bi3 O3 2.209096 1_555
Bi3 O16 2.224550 1_555
Bi3 O8 2.242328 1_565
Bi3 O10 2.273874 1_565
Bi3 O7 2.331094 1_555
Bi3 O9 2.342180 1_565
O0 Sn2 2.033037 1_555
O0 Sn3 2.288462 1_665
O1 Sn3 1.998076 1_555
O2 Sn2 2.046117 1_545
O4 Sn2 2.024296 1_555
O5 Sn1 2.024296 1_554
O6 Sn0 1.998076 1_555
O7 Sn1 1.998076 1_555
O9 Sn0 2.033037 1_556
O9 Sn1 2.288462 1_545
O10 Sn3 2.024296 1_555
O11 Sn3 2.033037 1_555
O11 Sn2 2.288462 1_445
O12 Sn1 2.033037 1_554
O12 Sn0 2.288462 1_565
O13 Sn0 2.024296 1_556
O16 Sn3 2.046117 1_565
O17 Sn2 1.998076 1_555
O18 Sn0 2.046117 1_565
O19 Sn1 2.046117 1_545
