# generated using pymatgen
data_Ti2FeSe4
_symmetry_space_group_name_H-M   'P 1'
_cell_length_a   7.18988773
_cell_length_b   7.18991831
_cell_length_c   12.14029100
_cell_angle_alpha   89.99999933
_cell_angle_beta   89.99846158
_cell_angle_gamma   120.00013818
_symmetry_Int_Tables_number   1
_chemical_formula_structural   Ti2FeSe4
_chemical_formula_sum   'Ti8 Fe4 Se16'
_cell_volume   543.50705851
_cell_formula_units_Z   4
loop_
 _symmetry_equiv_pos_site_id
 _symmetry_equiv_pos_as_xyz
  1  'x, y, z'
loop_
 _atom_site_type_symbol
 _atom_site_label
 _atom_site_symmetry_multiplicity
 _atom_site_fract_x
 _atom_site_fract_y
 _atom_site_fract_z
 _atom_site_occupancy
  Ti  Ti0  1  0.01771900  0.50886000  0.24787100  1
  Ti  Ti1  1  0.49113100  0.50893000  0.24780700  1
  Ti  Ti2  1  0.49113100  0.98220100  0.24780700  1
  Ti  Ti3  1  0.98228100  0.49114000  0.75212900  1
  Ti  Ti4  1  0.50886900  0.49107000  0.75219300  1
  Ti  Ti5  1  0.50886900  0.01779900  0.75219300  1
  Ti  Ti6  1  0.99995800  0.99997900  0.24978900  1
  Ti  Ti7  1  0.00004200  0.00002100  0.75021100  1
  Fe  Fe0  1  0.00000000  0.00000000  0.00000000  1
  Fe  Fe1  1  0.50000000  0.50000000  0.50000000  1
  Fe  Fe2  1  0.50000000  0.00000000  0.50000000  1
  Fe  Fe3  1  0.00000000  0.50000000  0.50000000  1
  Se  Se0  1  0.33325200  0.66662600  0.62640700  1
  Se  Se1  1  0.66674800  0.33337400  0.37359300  1
  Se  Se2  1  0.33353300  0.66676700  0.11598500  1
  Se  Se3  1  0.66646700  0.33323300  0.88401500  1
  Se  Se4  1  0.66578700  0.83289400  0.87645500  1
  Se  Se5  1  0.16678900  0.83289800  0.87648500  1
  Se  Se6  1  0.16678900  0.33389200  0.87648500  1
  Se  Se7  1  0.33421300  0.16710600  0.12354500  1
  Se  Se8  1  0.83321100  0.16710200  0.12351500  1
  Se  Se9  1  0.83321100  0.66610800  0.12351500  1
  Se  Se10  1  0.66972200  0.83486100  0.38202900  1
  Se  Se11  1  0.16495600  0.83476900  0.38206200  1
  Se  Se12  1  0.16495600  0.33018700  0.38206200  1
  Se  Se13  1  0.33027800  0.16513900  0.61797100  1
  Se  Se14  1  0.83504400  0.16523100  0.61793800  1
  Se  Se15  1  0.83504400  0.66981300  0.61793800  1
loop_
_geom_bond_atom_site_label_1
_geom_bond_atom_site_label_2
_geom_bond_distance
_geom_bond_site_symmetry_2
Fe0 Se8 2.563348 1_455
Fe0 Se5 2.563348 1_544
Fe0 Se6 2.563353 1_554
Fe0 Se9 2.563353 1_445
Fe0 Se7 2.565237 1_555
Fe0 Se4 2.565237 1_444
Fe1 Se13 2.529596 1_555
Fe1 Se10 2.529596 1_555
Fe1 Se15 2.530356 1_555
Fe1 Se12 2.530356 1_555
Fe1 Se0 2.581454 1_555
Fe1 Se1 2.581454 1_555
Fe2 Se13 2.529596 1_555
Fe2 Se10 2.529596 1_545
Fe2 Se14 2.530356 1_555
Fe2 Se11 2.530356 1_545
Fe2 Se0 2.581454 1_545
Fe2 Se1 2.581454 1_555
Fe3 Se15 2.528904 1_455
Fe3 Se12 2.528904 1_555
Fe3 Se14 2.528904 1_455
Fe3 Se11 2.528904 1_555
Fe3 Se0 2.580893 1_555
Fe3 Se1 2.580893 1_455
Se0 Ti3 2.665557 1_455
Se0 Ti4 2.667099 1_555
Se0 Ti5 2.667099 1_565
Se1 Ti0 2.665557 1_655
Se1 Ti1 2.667099 1_555
Se1 Ti2 2.667099 1_545
Se2 Ti2 2.533557 1_555
Se2 Ti1 2.533562 1_555
Se2 Ti0 2.535818 1_555
Se3 Ti5 2.533557 1_555
Se3 Ti4 2.533562 1_555
Se3 Ti3 2.535818 1_555
Se4 Ti7 2.584667 1_665
Se4 Ti5 2.610775 1_565
Se4 Ti4 2.610781 1_555
Se5 Ti7 2.583018 1_565
Se5 Ti3 2.611008 1_455
Se5 Ti5 2.612191 1_565
Se6 Ti7 2.583023 1_555
Se6 Ti3 2.610998 1_455
Se6 Ti4 2.612191 1_555
Se7 Ti6 2.584667 1_445
Se7 Ti2 2.610775 1_545
Se7 Ti1 2.610781 1_555
Se8 Ti6 2.583018 1_545
Se8 Ti0 2.611008 1_655
Se8 Ti2 2.612191 1_545
Se9 Ti6 2.583023 1_555
Se9 Ti0 2.610998 1_655
Se9 Ti1 2.612191 1_555
Se10 Ti2 2.605125 1_555
Se10 Ti1 2.605125 1_555
Se10 Ti6 2.608713 1_555
Se11 Ti0 2.604808 1_555
Se11 Ti2 2.606501 1_555
Se11 Ti6 2.608888 1_455
Se12 Ti0 2.604813 1_555
Se12 Ti1 2.606501 1_555
Se12 Ti6 2.608888 1_445
Se13 Ti5 2.605125 1_555
Se13 Ti4 2.605125 1_555
Se13 Ti7 2.608713 1_555
Se14 Ti3 2.604808 1_555
Se14 Ti5 2.606501 1_555
Se14 Ti7 2.608888 1_655
Se15 Ti3 2.604813 1_555
Se15 Ti4 2.606501 1_555
Se15 Ti7 2.608888 1_665
