# generated using pymatgen
data_EuSi3Ir
_symmetry_space_group_name_H-M   'P 1'
_cell_length_a   5.81849381
_cell_length_b   5.81849381
_cell_length_c   5.81849381
_cell_angle_alpha   137.09976780
_cell_angle_beta   137.09976780
_cell_angle_gamma   62.28458223
_symmetry_Int_Tables_number   1
_chemical_formula_structural   EuSi3Ir
_chemical_formula_sum   'Eu1 Si3 Ir1'
_cell_volume   90.18536198
_cell_formula_units_Z   1
loop_
 _symmetry_equiv_pos_site_id
 _symmetry_equiv_pos_as_xyz
  1  'x, y, z'
loop_
 _atom_site_type_symbol
 _atom_site_label
 _atom_site_symmetry_multiplicity
 _atom_site_fract_x
 _atom_site_fract_y
 _atom_site_fract_z
 _atom_site_occupancy
  Eu  Eu0  1  0.00085900  0.00085900  0.00000000  1
  Si  Si0  1  0.41480000  0.41480000  0.00000000  1
  Si  Si1  1  0.26398600  0.76398600  0.50000000  1
  Si  Si2  1  0.76398600  0.26398600  0.50000000  1
  Ir  Ir0  1  0.65436900  0.65436900  0.00000000  1
loop_
_geom_bond_atom_site_label_1
_geom_bond_atom_site_label_2
_geom_bond_distance
_geom_bond_site_symmetry_2
Eu0 Si0 3.128819 1_545
Eu0 Si0 3.128819 1_556
Eu0 Si0 3.128819 1_444
Eu0 Si0 3.128819 1_455
Eu0 Si1 3.177014 1_444
Eu0 Si2 3.177014 1_444
Eu0 Si1 3.177014 1_545
Eu0 Si2 3.177014 1_455
Eu0 Ir0 3.375278 1_556
Eu0 Ir0 3.375278 1_444
Eu0 Ir0 3.375278 1_545
Eu0 Ir0 3.375278 1_455
Eu0 Si1 3.375739 1_555
Eu0 Si2 3.375739 1_555
Eu0 Si1 3.375739 1_544
Eu0 Si2 3.375739 1_454
Eu0 Ir0 3.451016 1_445
Si0 Si2 2.604555 1_555
Si0 Si1 2.604555 1_555
Si0 Si1 2.604555 1_544
Si0 Si2 2.604555 1_454
Ir0 Si0 2.386090 1_555
Ir0 Si1 2.391524 1_554
Ir0 Si2 2.391524 1_554
Ir0 Si1 2.391524 1_655
Ir0 Si2 2.391524 1_565
