# generated using pymatgen
data_Li6Mn3CoO10
_symmetry_space_group_name_H-M   'P 1'
_cell_length_a   5.08822534
_cell_length_b   5.08822534
_cell_length_c   13.34830793
_cell_angle_alpha   77.31438434
_cell_angle_beta   77.31438434
_cell_angle_gamma   32.98722091
_symmetry_Int_Tables_number   1
_chemical_formula_structural   Li6Mn3CoO10
_chemical_formula_sum   'Li6 Mn3 Co1 O10'
_cell_volume   183.15506338
_cell_formula_units_Z   1
loop_
 _symmetry_equiv_pos_site_id
 _symmetry_equiv_pos_as_xyz
  1  'x, y, z'
loop_
 _atom_site_type_symbol
 _atom_site_label
 _atom_site_symmetry_multiplicity
 _atom_site_fract_x
 _atom_site_fract_y
 _atom_site_fract_z
 _atom_site_occupancy
  Li  Li0  1  0.29863500  0.29863500  0.90639600  1
  Li  Li1  1  0.89487800  0.89487800  0.68363000  1
  Li  Li2  1  0.50302100  0.50302100  0.48445000  1
  Li  Li3  1  0.11752800  0.11752800  0.31251100  1
  Li  Li4  1  0.69987000  0.69987000  0.11550400  1
  Li  Li5  1  0.79834900  0.79834900  0.40148200  1
  Mn  Mn0  1  0.00144900  0.00144900  0.00464500  1
  Mn  Mn1  1  0.19011600  0.19011600  0.58854300  1
  Mn  Mn2  1  0.59891900  0.59891900  0.79732000  1
  Co  Co0  1  0.40506100  0.40506100  0.22480900  1
  O  O0  1  0.36837900  0.36837900  0.03815000  1
  O  O1  1  0.96477300  0.96477300  0.85475800  1
  O  O2  1  0.55420000  0.55420000  0.64324300  1
  O  O3  1  0.14855800  0.14855800  0.46335000  1
  O  O4  1  0.76452300  0.76452300  0.24772900  1
  O  O5  1  0.23190000  0.23190000  0.74359700  1
  O  O6  1  0.82308600  0.82308600  0.55599200  1
  O  O7  1  0.45979100  0.45979100  0.34318500  1
  O  O8  1  0.03892200  0.03892200  0.13647700  1
  O  O9  1  0.63804100  0.63804100  0.95423000  1
loop_
_geom_bond_atom_site_label_1
_geom_bond_atom_site_label_2
_geom_bond_distance
_geom_bond_site_symmetry_2
Li0 O0 2.025922 1_556
Li0 O9 2.119387 1_545
Li0 O9 2.119387 1_455
Li0 O1 2.162907 1_545
Li0 O1 2.162907 1_455
Li0 O5 2.407184 1_555
Li1 O6 1.984993 1_555
Li1 O2 2.100098 1_655
Li1 O2 2.100098 1_565
Li1 O5 2.161832 1_655
Li1 O5 2.161832 1_565
Li1 O1 2.529156 1_555
Li2 O3 1.999916 1_565
Li2 O3 1.999916 1_655
Li2 O7 2.024339 1_555
Li2 O2 2.286268 1_555
Li2 O6 2.305094 1_545
Li2 O6 2.305094 1_455
Li3 O4 2.079372 1_545
Li3 O4 2.079372 1_455
Li3 O7 2.082020 1_455
Li3 O7 2.082020 1_545
Li3 O3 2.103540 1_555
Li4 O4 2.005784 1_555
Li4 O8 2.104814 1_565
Li4 O8 2.104814 1_655
Li4 O0 2.253645 1_655
Li4 O0 2.253645 1_565
Li4 O9 2.364984 1_554
Li5 O3 2.086210 1_565
Li5 O3 2.086210 1_655
Li5 O6 2.130723 1_555
Li5 O7 2.147665 1_655
Li5 O7 2.147665 1_565
Li5 O4 2.152054 1_555
Mn0 O8 1.877524 1_555
Mn0 O0 1.925319 1_545
Mn0 O0 1.925319 1_455
Mn0 O9 1.976181 1_544
Mn0 O9 1.976181 1_454
Mn0 O1 2.111633 1_444
Mn1 O3 1.807613 1_555
Mn1 O6 1.923762 1_545
Mn1 O6 1.923762 1_455
Mn1 O2 1.983757 1_545
Mn1 O2 1.983757 1_455
Mn1 O5 2.199194 1_555
Mn2 O5 1.964333 1_655
Mn2 O5 1.964333 1_565
Mn2 O1 1.982006 1_545
Mn2 O1 1.982006 1_455
Mn2 O2 2.198035 1_555
Mn2 O9 2.213328 1_555
Co0 O7 1.780028 1_555
Co0 O4 1.966929 1_545
Co0 O4 1.966929 1_455
Co0 O8 2.116065 1_655
Co0 O8 2.116065 1_565
