# generated using pymatgen
data_Ba3Sb2Se7
_symmetry_space_group_name_H-M   'P 1'
_cell_length_a   11.61718960
_cell_length_b   11.61718960
_cell_length_c   13.88036889
_cell_angle_alpha   73.62731983
_cell_angle_beta   73.62731983
_cell_angle_gamma   67.65303676
_symmetry_Int_Tables_number   1
_chemical_formula_structural   Ba3Sb2Se7
_chemical_formula_sum   'Ba12 Sb8 Se28'
_cell_volume   1629.80103430
_cell_formula_units_Z   4
loop_
 _symmetry_equiv_pos_site_id
 _symmetry_equiv_pos_as_xyz
  1  'x, y, z'
loop_
 _atom_site_type_symbol
 _atom_site_label
 _atom_site_symmetry_multiplicity
 _atom_site_fract_x
 _atom_site_fract_y
 _atom_site_fract_z
 _atom_site_occupancy
  Ba  Ba0  1  0.39553200  0.40623100  0.67247500  1
  Ba  Ba1  1  0.59376900  0.60446800  0.82752500  1
  Ba  Ba2  1  0.60446800  0.59376900  0.32752500  1
  Ba  Ba3  1  0.40623100  0.39553200  0.17247500  1
  Ba  Ba4  1  0.89816400  0.89269500  0.67487200  1
  Ba  Ba5  1  0.10730500  0.10183600  0.82512800  1
  Ba  Ba6  1  0.10183600  0.10730500  0.32512800  1
  Ba  Ba7  1  0.89269500  0.89816400  0.17487200  1
  Ba  Ba8  1  0.11486100  0.62018100  0.94444800  1
  Ba  Ba9  1  0.37981900  0.88513900  0.55555200  1
  Ba  Ba10  1  0.88513900  0.37981900  0.05555200  1
  Ba  Ba11  1  0.62018100  0.11486100  0.44444800  1
  Sb  Sb0  1  0.75950000  0.70510700  0.50926000  1
  Sb  Sb1  1  0.29489300  0.24050000  0.99074000  1
  Sb  Sb2  1  0.24050000  0.29489300  0.49074000  1
  Sb  Sb3  1  0.70510700  0.75950000  0.00926000  1
  Sb  Sb4  1  0.85895300  0.30933800  0.59519900  1
  Sb  Sb5  1  0.69066200  0.14104700  0.90480100  1
  Sb  Sb6  1  0.14104700  0.69066200  0.40480100  1
  Sb  Sb7  1  0.30933800  0.85895300  0.09519900  1
  Se  Se0  1  0.19556200  0.70201000  0.68290500  1
  Se  Se1  1  0.29799000  0.80443800  0.81709500  1
  Se  Se2  1  0.80443800  0.29799000  0.31709500  1
  Se  Se3  1  0.70201000  0.19556200  0.18290500  1
  Se  Se4  1  0.09924500  0.60163900  0.61216500  1
  Se  Se5  1  0.39836000  0.90075500  0.88783500  1
  Se  Se6  1  0.90075500  0.39836000  0.38783500  1
  Se  Se7  1  0.60164000  0.09924500  0.11216500  1
  Se  Se8  1  0.14550200  0.35750400  0.85966600  1
  Se  Se9  1  0.64249600  0.85449800  0.64033400  1
  Se  Se10  1  0.85449800  0.64249600  0.14033400  1
  Se  Se11  1  0.35750400  0.14550200  0.35966600  1
  Se  Se12  1  0.85035300  0.64246100  0.86204500  1
  Se  Se13  1  0.35753900  0.14964700  0.63795500  1
  Se  Se14  1  0.14964700  0.35753900  0.13795500  1
  Se  Se15  1  0.64246100  0.85035300  0.36204500  1
  Se  Se16  1  0.59547500  0.57490900  0.58570100  1
  Se  Se17  1  0.42509100  0.40452500  0.91429900  1
  Se  Se18  1  0.40452500  0.42509100  0.41429900  1
  Se  Se19  1  0.57490900  0.59547500  0.08570100  1
  Se  Se20  1  0.06060300  0.10036000  0.58884900  1
  Se  Se21  1  0.89964000  0.93939700  0.91115100  1
  Se  Se22  1  0.93939700  0.89964000  0.41115100  1
  Se  Se23  1  0.10036000  0.06060300  0.08884900  1
  Se  Se24  1  0.69600600  0.19533300  0.63139700  1
  Se  Se25  1  0.80466700  0.30399400  0.86860300  1
  Se  Se26  1  0.30399400  0.80466700  0.36860300  1
  Se  Se27  1  0.19533300  0.69600600  0.13139700  1
loop_
_geom_bond_atom_site_label_1
_geom_bond_atom_site_label_2
_geom_bond_distance
_geom_bond_site_symmetry_2
Ba0 Se13 3.351768 1_555
Ba0 Se16 3.352496 1_555
Ba0 Se0 3.353418 1_555
Ba0 Se24 3.416817 1_555
Ba0 Se8 3.416839 1_555
Ba0 Se17 3.462984 1_555
Ba0 Se18 3.502091 1_555
Ba0 Se4 3.508979 1_555
Ba1 Se12 3.351768 1_555
Ba1 Se17 3.352496 1_555
Ba1 Se1 3.353418 1_555
Ba1 Se25 3.416817 1_555
Ba1 Se9 3.416839 1_555
Ba1 Se16 3.462984 1_555
Ba1 Se19 3.502091 1_556
Ba1 Se5 3.508981 1_555
Ba2 Se15 3.351768 1_555
Ba2 Se18 3.352496 1_555
Ba2 Se2 3.353418 1_555
Ba2 Se26 3.416817 1_555
Ba2 Se10 3.416839 1_555
Ba2 Se19 3.462984 1_555
Ba2 Se16 3.502091 1_555
Ba2 Se6 3.508981 1_555
Ba3 Se14 3.351768 1_555
Ba3 Se19 3.352496 1_555
Ba3 Se3 3.353418 1_555
Ba3 Se27 3.416817 1_555
Ba3 Se11 3.416839 1_555
Ba3 Se18 3.462984 1_555
Ba3 Se17 3.502091 1_554
Ba3 Se7 3.508981 1_555
Ba4 Se0 3.333799 1_655
Ba4 Se9 3.342661 1_555
Ba4 Se20 3.372609 1_665
Ba4 Se24 3.400678 1_565
Ba4 Se12 3.415469 1_555
Ba4 Se21 3.477443 1_555
Ba4 Se4 3.486249 1_655
Ba4 Se22 3.536934 1_555
Ba5 Se1 3.333799 1_545
Ba5 Se8 3.342661 1_555
Ba5 Se21 3.372609 1_445
Ba5 Se25 3.400678 1_455
Ba5 Se13 3.415469 1_555
Ba5 Se20 3.477443 1_555
Ba5 Se5 3.486239 1_545
Ba5 Se23 3.536934 1_556
Ba6 Se2 3.333799 1_455
Ba6 Se11 3.342661 1_555
Ba6 Se22 3.372609 1_445
Ba6 Se26 3.400678 1_545
Ba6 Se14 3.415469 1_555
Ba6 Se23 3.477443 1_555
Ba6 Se6 3.486239 1_455
Ba6 Se20 3.536934 1_555
Ba7 Se3 3.333799 1_565
Ba7 Se10 3.342661 1_555
Ba7 Se23 3.372609 1_665
Ba7 Se27 3.400678 1_655
Ba7 Se15 3.415469 1_555
Ba7 Se22 3.477443 1_555
Ba7 Se7 3.486239 1_565
Ba7 Se21 3.536934 1_554
Ba8 Se1 3.382645 1_555
Ba8 Se27 3.415555 1_556
Ba8 Se14 3.426558 1_556
Ba8 Se10 3.431239 1_456
Ba8 Se0 3.431493 1_555
Ba8 Se8 3.433078 1_555
Ba8 Se12 3.468044 1_455
Ba8 Se17 3.509318 1_555
Ba8 Se21 3.584919 1_455
Ba9 Se0 3.382645 1_555
Ba9 Se26 3.415555 1_555
Ba9 Se15 3.426558 1_555
Ba9 Se11 3.431239 1_565
Ba9 Se1 3.431493 1_555
Ba9 Se9 3.433078 1_555
Ba9 Se13 3.468044 1_565
Ba9 Se16 3.509318 1_555
Ba9 Se20 3.584919 1_565
Ba10 Se3 3.382645 1_555
Ba10 Se25 3.415555 1_554
Ba10 Se12 3.426558 1_554
Ba10 Se8 3.431239 1_654
Ba10 Se2 3.431493 1_555
Ba10 Se10 3.433078 1_555
Ba10 Se14 3.468044 1_655
Ba10 Se19 3.509318 1_555
Ba10 Se23 3.584919 1_655
Ba11 Se2 3.382645 1_555
Ba11 Se24 3.415555 1_555
Ba11 Se13 3.426558 1_555
Ba11 Se9 3.431239 1_545
Ba11 Se3 3.431493 1_555
Ba11 Se11 3.433078 1_555
Ba11 Se15 3.468044 1_545
Ba11 Se18 3.509318 1_555
Ba11 Se22 3.584919 1_545
Sb0 Se15 2.597926 1_555
Sb0 Se9 2.600322 1_555
Sb0 Se16 2.681715 1_555
Sb1 Se14 2.597926 1_556
Sb1 Se8 2.600322 1_555
Sb1 Se17 2.681715 1_555
Sb2 Se13 2.597926 1_555
Sb2 Se11 2.600322 1_555
Sb2 Se18 2.681715 1_555
Sb3 Se12 2.597926 1_554
Sb3 Se10 2.600322 1_555
Sb3 Se19 2.681715 1_555
Sb4 Se24 2.566133 1_555
Sb4 Se20 2.658754 1_655
Sb4 Se6 2.739644 1_555
Sb5 Se25 2.566133 1_555
Sb5 Se21 2.658754 1_545
Sb5 Se7 2.739644 1_556
Sb6 Se26 2.566133 1_555
Sb6 Se22 2.658754 1_455
Sb6 Se4 2.739645 1_555
Sb7 Se27 2.566133 1_555
Sb7 Se23 2.658754 1_565
Sb7 Se5 2.739644 1_554
Se0 Se4 2.415111 1_555
Se1 Se5 2.415102 1_555
Se2 Se6 2.415102 1_555
Se3 Se7 2.415102 1_555
