# generated using pymatgen
data_Sc2ZnCd
_symmetry_space_group_name_H-M   'P 1'
_cell_length_a   11.89515937
_cell_length_b   11.89515937
_cell_length_c   11.89515937
_cell_angle_alpha   122.07771107
_cell_angle_beta   119.67871534
_cell_angle_gamma   88.49839538
_symmetry_Int_Tables_number   1
_chemical_formula_structural   Sc2ZnCd
_chemical_formula_sum   'Sc2 Zn1 Cd1'
_cell_volume   1173.23373441
_cell_formula_units_Z   1
loop_
 _symmetry_equiv_pos_site_id
 _symmetry_equiv_pos_as_xyz
  1  'x, y, z'
loop_
 _atom_site_type_symbol
 _atom_site_label
 _atom_site_symmetry_multiplicity
 _atom_site_fract_x
 _atom_site_fract_y
 _atom_site_fract_z
 _atom_site_occupancy
  Sc  Sc0  1  0.00000000  0.24103000  0.24103000  1
  Sc  Sc1  1  0.00000000  0.75897000  0.75897000  1
  Zn  Zn0  1  0.00000000  0.00000000  0.00000000  1
  Cd  Cd0  1  0.00000000  0.50000000  0.50000000  1
loop_
_geom_bond_atom_site_label_1
_geom_bond_atom_site_label_2
_geom_bond_distance
_geom_bond_site_symmetry_2
Sc0 Zn0 2.776584 1_555
Sc1 Zn0 2.776584 1_566
Cd0 Sc0 2.983247 1_555
Cd0 Sc1 2.983247 1_555
