# generated using pymatgen
data_Zr3Pb
_symmetry_space_group_name_H-M   'P 1'
_cell_length_a   5.73067024
_cell_length_b   5.73067024
_cell_length_c   5.73067024
_cell_angle_alpha   135.01670316
_cell_angle_beta   135.01670316
_cell_angle_gamma   65.50424766
_symmetry_Int_Tables_number   1
_chemical_formula_structural   Zr3Pb
_chemical_formula_sum   'Zr3 Pb1'
_cell_volume   92.65217795
_cell_formula_units_Z   1
loop_
 _symmetry_equiv_pos_site_id
 _symmetry_equiv_pos_as_xyz
  1  'x, y, z'
loop_
 _atom_site_type_symbol
 _atom_site_label
 _atom_site_symmetry_multiplicity
 _atom_site_fract_x
 _atom_site_fract_y
 _atom_site_fract_z
 _atom_site_occupancy
  Zr  Zr0  1  0.75000000  0.25000000  0.50000000  1
  Zr  Zr1  1  0.25000000  0.75000000  0.50000000  1
  Zr  Zr2  1  0.50000000  0.50000000  -0.00000000  1
  Pb  Pb0  1  0.00000000  -0.00000000  -0.00000000  1
loop_
_geom_bond_atom_site_label_1
_geom_bond_atom_site_label_2
_geom_bond_distance
_geom_bond_site_symmetry_2
Zr0 Zr1 3.100325 1_555
Zr0 Zr1 3.100325 1_656
Zr0 Zr1 3.100325 1_544
Zr0 Zr1 3.100325 1_645
Zr0 Zr2 3.257783 1_556
Zr0 Zr2 3.257783 1_555
Zr0 Zr2 3.257783 1_545
Zr0 Zr2 3.257783 1_656
Zr1 Zr2 3.257783 1_566
Zr1 Zr2 3.257783 1_556
Zr1 Zr2 3.257783 1_555
Zr1 Zr2 3.257783 1_455
Pb0 Zr2 3.100325 1_455
Pb0 Zr2 3.100325 1_556
Pb0 Zr2 3.100325 1_444
Pb0 Zr2 3.100325 1_545
Pb0 Zr0 3.257783 1_455
Pb0 Zr1 3.257783 1_544
Pb0 Zr1 3.257783 1_555
Pb0 Zr0 3.257783 1_444
Pb0 Zr1 3.257783 1_545
Pb0 Zr0 3.257783 1_454
Pb0 Zr0 3.257783 1_555
Pb0 Zr1 3.257783 1_444
