# generated using pymatgen
data_B5TeH5C
_symmetry_space_group_name_H-M   'P 1'
_cell_length_a   7.18705400
_cell_length_b   8.95701313
_cell_length_c   10.22613721
_cell_angle_alpha   84.22285873
_cell_angle_beta   78.46579404
_cell_angle_gamma   81.78101972
_symmetry_Int_Tables_number   1
_chemical_formula_structural   B5TeH5C
_chemical_formula_sum   'B20 Te4 H20 C4'
_cell_volume   636.61816537
_cell_formula_units_Z   4
loop_
 _symmetry_equiv_pos_site_id
 _symmetry_equiv_pos_as_xyz
  1  'x, y, z'
loop_
 _atom_site_type_symbol
 _atom_site_label
 _atom_site_symmetry_multiplicity
 _atom_site_fract_x
 _atom_site_fract_y
 _atom_site_fract_z
 _atom_site_occupancy
  B  B0  1  0.09628500  0.15426100  0.26295800  1
  B  B1  1  0.90371500  0.84573900  0.73704200  1
  B  B2  1  0.05844000  0.34615200  0.19861600  1
  B  B3  1  0.94156000  0.65384800  0.80138400  1
  B  B4  1  0.28632900  0.40578100  0.13520100  1
  B  B5  1  0.71367100  0.59421900  0.86479900  1
  B  B6  1  0.46344700  0.24954300  0.16026700  1
  B  B7  1  0.53655300  0.75045700  0.83973300  1
  B  B8  1  0.40975900  0.39874200  0.27019600  1
  B  B9  1  0.59024100  0.60125800  0.72980400  1
  B  B10  1  0.44464700  0.20820400  0.33674700  1
  B  B11  1  0.55535300  0.79179600  0.66325300  1
  B  B12  1  0.21654900  0.14869800  0.40012200  1
  B  B13  1  0.78345100  0.85130200  0.59987800  1
  B  B14  1  0.03821800  0.30112500  0.37336300  1
  B  B15  1  0.96178200  0.69887500  0.62663700  1
  B  B16  1  0.15801500  0.45795400  0.29446100  1
  B  B17  1  0.84198500  0.54204600  0.70553900  1
  B  B18  1  0.25529200  0.33621200  0.41893400  1
  B  B19  1  0.74470800  0.66378800  0.58106600  1
  Te  Te0  1  0.21584900  0.15093300  0.93424800  1
  Te  Te1  1  0.78415100  0.84906700  0.06575200  1
  Te  Te2  1  0.56656500  0.13341100  0.77775900  1
  Te  Te3  1  0.43343500  0.86658900  0.22224100  1
  H  H0  1  0.00141500  0.06026700  0.24919200  1
  H  H1  1  0.99858500  0.93973300  0.75080800  1
  H  H2  1  0.92930000  0.38133700  0.14022600  1
  H  H3  1  0.07070000  0.61866300  0.85977400  1
  H  H4  1  0.31284300  0.48299600  0.03346300  1
  H  H5  1  0.68715700  0.51700400  0.96653700  1
  H  H6  1  0.60408700  0.21736900  0.08074700  1
  H  H7  1  0.39591300  0.78263100  0.91925300  1
  H  H8  1  0.52738600  0.48072000  0.26746300  1
  H  H9  1  0.47261400  0.51928000  0.73253700  1
  H  H10  1  0.58253200  0.14676200  0.37656900  1
  H  H11  1  0.41746800  0.85323800  0.62343100  1
  H  H12  1  0.19812400  0.04574700  0.48270800  1
  H  H13  1  0.80187600  0.95425300  0.51729200  1
  H  H14  1  0.88537800  0.31240000  0.44528300  1
  H  H15  1  0.11462200  0.68760000  0.55471700  1
  H  H16  1  0.09192400  0.58660900  0.30840100  1
  H  H17  1  0.90807600  0.41339100  0.69159900  1
  H  H18  1  0.26255700  0.37322200  0.52644800  1
  H  H19  1  0.73744300  0.62677800  0.47355200  1
  C  C0  1  0.24752500  0.22467200  0.12599700  1
  C  C1  1  0.75247500  0.77532800  0.87400300  1
  C  C2  1  0.34010600  0.10851700  0.24400100  1
  C  C3  1  0.65989400  0.89148300  0.75599900  1
loop_
_geom_bond_atom_site_label_1
_geom_bond_atom_site_label_2
_geom_bond_distance
_geom_bond_site_symmetry_2
B0 H0 1.191592 1_555
B0 C0 1.717627 1_555
B0 C2 1.717866 1_555
B1 H1 1.191592 1_555
B1 C1 1.717627 1_555
B1 C3 1.717866 1_555
B2 H2 1.190547 1_455
B2 C0 1.708371 1_555
B3 H3 1.190547 1_655
B3 C1 1.708371 1_555
B4 H4 1.187682 1_555
B4 C0 1.699629 1_555
B5 H5 1.187682 1_555
B5 C1 1.699629 1_555
B6 H6 1.183721 1_555
B6 C0 1.706664 1_555
B6 C2 1.706889 1_555
B7 H7 1.183721 1_555
B7 C1 1.706664 1_555
B7 C3 1.706889 1_555
B8 H8 1.191022 1_555
B9 H9 1.191022 1_555
B10 H10 1.187895 1_555
B10 C2 1.705455 1_555
B11 H11 1.187895 1_555
B11 C3 1.705455 1_555
B12 H12 1.189333 1_555
B12 C2 1.710057 1_555
B13 H13 1.189333 1_555
B13 C3 1.710057 1_555
B14 H14 1.190755 1_455
B15 H15 1.190755 1_655
B16 H16 1.193055 1_555
B17 H17 1.193055 1_555
B18 H18 1.192768 1_555
B19 H19 1.192768 1_555
C0 C2 1.688721 1_555
C0 Te0 2.194366 1_554
C1 C3 1.688721 1_555
C1 Te1 2.194366 1_556
C2 Te3 2.194749 1_545
C3 Te2 2.194749 1_565
