# generated using pymatgen
data_EuGa3Pd
_symmetry_space_group_name_H-M   'P 1'
_cell_length_a   6.06941826
_cell_length_b   6.06941826
_cell_length_c   5.91717711
_cell_angle_alpha   90.00000000
_cell_angle_beta   90.00000000
_cell_angle_gamma   116.47568080
_symmetry_Int_Tables_number   1
_chemical_formula_structural   EuGa3Pd
_chemical_formula_sum   'Eu2 Ga6 Pd2'
_cell_volume   195.11548778
_cell_formula_units_Z   2
loop_
 _symmetry_equiv_pos_site_id
 _symmetry_equiv_pos_as_xyz
  1  'x, y, z'
loop_
 _atom_site_type_symbol
 _atom_site_label
 _atom_site_symmetry_multiplicity
 _atom_site_fract_x
 _atom_site_fract_y
 _atom_site_fract_z
 _atom_site_occupancy
  Eu  Eu0  1  0.23356927  0.76643073  0.75000000  1
  Eu  Eu1  1  0.76642973  0.23357027  0.25000000  1
  Ga  Ga0  1  0.66272878  0.33727122  0.75000000  1
  Ga  Ga1  1  0.33727022  0.66272978  0.25000000  1
  Ga  Ga2  1  0.71742689  0.71742689  0.99999800  1
  Ga  Ga3  1  0.71742689  0.71742689  0.50000200  1
  Ga  Ga4  1  0.28257311  0.28257311  0.99999800  1
  Ga  Ga5  1  0.28257311  0.28257311  0.50000200  1
  Pd  Pd0  1  0.90278663  0.09721337  0.75000000  1
  Pd  Pd1  1  0.09721337  0.90278663  0.25000000  1
loop_
_geom_bond_atom_site_label_1
_geom_bond_atom_site_label_2
_geom_bond_distance
_geom_bond_site_symmetry_2
Eu0 Ga1 3.146231 1_555
Eu0 Ga1 3.146231 1_556
Eu0 Pd1 3.276247 1_555
Eu0 Pd1 3.276247 1_556
Eu0 Ga0 3.277499 1_455
Eu0 Ga0 3.277499 1_565
Eu0 Ga5 3.355544 1_565
Eu0 Ga2 3.355544 1_455
Eu0 Ga3 3.355544 1_455
Eu0 Ga4 3.355544 1_565
Eu0 Pd0 3.413985 1_465
Eu0 Ga4 3.417595 1_555
Eu0 Ga5 3.417595 1_555
Eu0 Ga2 3.417595 1_555
Eu0 Ga3 3.417595 1_555
Eu0 Pd0 3.641103 1_565
Eu0 Pd0 3.641103 1_455
Eu1 Ga0 3.146231 1_555
Eu1 Ga0 3.146231 1_554
Eu1 Pd0 3.276252 1_554
Eu1 Pd0 3.276252 1_555
Eu1 Ga1 3.277499 1_545
Eu1 Ga1 3.277499 1_655
Eu1 Ga4 3.355562 1_654
Eu1 Ga5 3.355562 1_655
Eu1 Ga3 3.355562 1_545
Eu1 Ga2 3.355562 1_544
Eu1 Pd1 3.413995 1_645
Eu1 Ga4 3.417596 1_554
Eu1 Ga5 3.417596 1_555
Eu1 Ga2 3.417596 1_554
Eu1 Ga3 3.417596 1_555
Eu1 Pd1 3.641098 1_655
Eu1 Pd1 3.641098 1_545
Ga0 Pd0 2.477620 1_555
Ga0 Ga5 2.634244 1_555
Ga0 Ga4 2.634244 1_555
Ga0 Ga3 2.634244 1_555
Ga0 Ga2 2.634244 1_555
Ga1 Pd1 2.477610 1_555
Ga1 Ga5 2.634264 1_555
Ga1 Ga2 2.634264 1_554
Ga1 Ga3 2.634264 1_555
Ga1 Ga4 2.634264 1_554
Ga2 Pd0 2.540690 1_565
Ga2 Pd1 2.540704 1_656
Ga3 Pd0 2.540690 1_565
Ga3 Pd1 2.540704 1_655
Ga4 Pd0 2.540690 1_455
Ga4 Pd1 2.540704 1_546
Ga5 Pd0 2.540690 1_455
Ga5 Pd1 2.540704 1_545
