# generated using pymatgen
data_Mn4Cr(Co2Sn)5
_symmetry_space_group_name_H-M   'P 1'
_cell_length_a   17.46910838
_cell_length_b   17.46910838
_cell_length_c   17.46910865
_cell_angle_alpha   13.92332022
_cell_angle_beta   13.92332022
_cell_angle_gamma   13.92332125
_symmetry_Int_Tables_number   1
_chemical_formula_structural   Mn4Cr(Co2Sn)5
_chemical_formula_sum   'Mn4 Cr1 Co10 Sn5'
_cell_volume   268.62683372
_cell_formula_units_Z   1
loop_
 _symmetry_equiv_pos_site_id
 _symmetry_equiv_pos_as_xyz
  1  'x, y, z'
loop_
 _atom_site_type_symbol
 _atom_site_label
 _atom_site_symmetry_multiplicity
 _atom_site_fract_x
 _atom_site_fract_y
 _atom_site_fract_z
 _atom_site_occupancy
  Mn  Mn0  1  0.59997400  0.59997400  0.59997400  1
  Mn  Mn1  1  0.19998700  0.19998700  0.19998700  1
  Mn  Mn2  1  0.80001300  0.80001300  0.80001300  1
  Mn  Mn3  1  0.40002600  0.40002600  0.40002600  1
  Cr  Cr0  1  0.00000000  0.00000000  0.00000000  1
  Co  Co0  1  0.05001300  0.05001300  0.05001300  1
  Co  Co1  1  0.85001200  0.85001200  0.85001200  1
  Co  Co2  1  0.44999700  0.44999700  0.44999700  1
  Co  Co3  1  0.65002400  0.65002400  0.65002400  1
  Co  Co4  1  0.25001100  0.25001100  0.25001100  1
  Co  Co5  1  0.34997600  0.34997600  0.34997600  1
  Co  Co6  1  0.14998800  0.14998800  0.14998800  1
  Co  Co7  1  0.74998900  0.74998900  0.74998900  1
  Co  Co8  1  0.94998700  0.94998700  0.94998700  1
  Co  Co9  1  0.55000300  0.55000300  0.55000300  1
  Sn  Sn0  1  0.69996600  0.69996600  0.69996600  1
  Sn  Sn1  1  0.50000000  0.50000000  0.50000000  1
  Sn  Sn2  1  0.10002200  0.10002200  0.10002200  1
  Sn  Sn3  1  0.30003400  0.30003400  0.30003400  1
  Sn  Sn4  1  0.89997800  0.89997800  0.89997800  1
loop_
_geom_bond_atom_site_label_1
_geom_bond_atom_site_label_2
_geom_bond_distance
_geom_bond_site_symmetry_2
Mn0 Sn4 2.994786 1_545
Mn0 Sn4 2.994786 1_455
Mn0 Sn4 2.994786 1_554
Mn0 Sn3 2.996705 1_655
Mn0 Sn3 2.996705 1_565
Mn0 Sn3 2.996705 1_556
Mn1 Sn1 2.994516 1_545
Mn1 Sn1 2.994516 1_455
Mn1 Sn1 2.994516 1_554
Mn1 Sn4 2.994636 1_454
Mn1 Sn4 2.994636 1_544
Mn1 Sn4 2.994636 1_445
Mn2 Sn1 2.994516 1_565
Mn2 Sn1 2.994516 1_655
Mn2 Sn1 2.994516 1_556
Mn2 Sn2 2.994636 1_656
Mn2 Sn2 2.994636 1_566
Mn2 Sn2 2.994636 1_665
Mn3 Sn2 2.994786 1_565
Mn3 Sn2 2.994786 1_655
Mn3 Sn2 2.994786 1_556
Mn3 Sn0 2.996705 1_545
Mn3 Sn0 2.996705 1_455
Mn3 Sn0 2.996705 1_554
Cr0 Sn0 2.993887 1_544
Cr0 Sn0 2.993887 1_454
Cr0 Sn3 2.993887 1_545
Cr0 Sn3 2.993887 1_455
Cr0 Sn0 2.993887 1_445
Cr0 Sn3 2.993887 1_554
Co0 Mn3 2.593585 1_554
Co0 Mn3 2.593586 1_455
Co0 Mn3 2.593586 1_545
Co0 Sn0 2.594175 1_445
Co0 Sn0 2.594175 1_544
Co0 Sn0 2.594175 1_454
Co0 Sn2 2.595043 1_555
Co0 Cr0 2.595251 1_555
Co1 Sn4 2.592812 1_555
Co1 Mn1 2.592928 1_665
Co1 Mn1 2.592928 1_566
Co1 Mn1 2.592928 1_656
Co1 Sn1 2.593568 1_556
Co1 Sn1 2.593568 1_565
Co1 Sn1 2.593568 1_655
Co1 Mn2 2.594524 1_555
Co2 Sn2 2.592928 1_556
Co2 Sn2 2.592928 1_655
Co2 Sn2 2.592928 1_565
Co2 Mn3 2.593071 1_555
Co2 Mn2 2.593637 1_554
Co2 Mn2 2.593638 1_455
Co2 Mn2 2.593638 1_545
Co2 Sn1 2.594732 1_555
Co3 Sn0 2.591566 1_555
Co3 Cr0 2.592945 1_665
Co3 Cr0 2.592946 1_656
Co3 Cr0 2.592946 1_566
Co3 Sn3 2.593187 1_556
Co3 Sn3 2.593188 1_655
Co3 Sn3 2.593188 1_565
Co3 Mn0 2.597171 1_555
Co4 Mn0 2.592721 1_554
Co4 Mn0 2.592721 1_545
Co4 Mn0 2.592721 1_455
Co4 Sn4 2.593932 1_445
Co4 Sn4 2.593932 1_454
Co4 Sn4 2.593932 1_544
Co4 Sn3 2.595770 1_555
Co4 Mn1 2.595821 1_555
Co5 Sn3 2.591566 1_555
Co5 Cr0 2.592945 1_556
Co5 Cr0 2.592946 1_565
Co5 Cr0 2.592946 1_655
Co5 Sn0 2.593187 1_554
Co5 Sn0 2.593188 1_455
Co5 Sn0 2.593188 1_545
Co5 Mn3 2.597171 1_555
Co6 Sn2 2.592812 1_555
Co6 Mn2 2.592928 1_445
Co6 Mn2 2.592928 1_544
Co6 Mn2 2.592928 1_454
Co6 Sn1 2.593568 1_554
Co6 Sn1 2.593568 1_545
Co6 Sn1 2.593568 1_455
Co6 Mn1 2.594524 1_555
Co7 Mn3 2.592721 1_556
Co7 Mn3 2.592721 1_565
Co7 Mn3 2.592721 1_655
Co7 Sn2 2.593932 1_665
Co7 Sn2 2.593932 1_656
Co7 Sn2 2.593932 1_566
Co7 Sn0 2.595770 1_555
Co7 Mn2 2.595821 1_555
Co8 Mn0 2.593585 1_556
Co8 Mn0 2.593586 1_655
Co8 Mn0 2.593586 1_565
Co8 Sn3 2.594175 1_665
Co8 Sn3 2.594175 1_566
Co8 Sn3 2.594175 1_656
Co8 Sn4 2.595043 1_555
Co8 Cr0 2.595251 1_666
Co9 Sn4 2.592928 1_554
Co9 Sn4 2.592928 1_545
Co9 Sn4 2.592928 1_455
Co9 Mn0 2.593071 1_555
Co9 Mn1 2.593637 1_556
Co9 Mn1 2.593638 1_655
Co9 Mn1 2.593638 1_565
Co9 Sn1 2.594732 1_555
