# generated using pymatgen
data_BN
_symmetry_space_group_name_H-M   'P 1'
_cell_length_a   10.75648167
_cell_length_b   10.44419468
_cell_length_c   10.66331323
_cell_angle_alpha   81.81229423
_cell_angle_beta   90.24926457
_cell_angle_gamma   94.24758088
_symmetry_Int_Tables_number   1
_chemical_formula_structural   BN
_chemical_formula_sum   'B50 N50'
_cell_volume   1182.45529887
_cell_formula_units_Z   50
loop_
 _symmetry_equiv_pos_site_id
 _symmetry_equiv_pos_as_xyz
  1  'x, y, z'
loop_
 _atom_site_type_symbol
 _atom_site_label
 _atom_site_symmetry_multiplicity
 _atom_site_fract_x
 _atom_site_fract_y
 _atom_site_fract_z
 _atom_site_occupancy
  B  B0  1  0.60945300  0.26936800  0.58474300  1
  B  B1  1  0.04904000  0.81542100  0.54373600  1
  B  B2  1  0.35677600  0.18780300  0.64759700  1
  B  B3  1  0.86085900  0.92924300  0.42648400  1
  B  B4  1  0.84384800  0.85620000  0.88187800  1
  B  B5  1  0.62195000  0.14219100  0.44068600  1
  B  B6  1  0.90788200  0.18354200  0.38252800  1
  B  B7  1  0.51751700  0.73772100  0.24446700  1
  B  B8  1  0.05224500  0.91360800  0.75009500  1
  B  B9  1  0.93309400  0.02559800  0.91099300  1
  B  B10  1  0.35422100  0.54449500  0.87570400  1
  B  B11  1  0.73310300  0.95073100  0.77186000  1
  B  B12  1  0.21576800  0.69293400  0.96595900  1
  B  B13  1  0.07014800  0.67695500  0.76149800  1
  B  B14  1  0.53465700  0.44606100  0.06728100  1
  B  B15  1  0.23453300  0.85964200  0.14092800  1
  B  B16  1  0.42690000  0.65681500  0.06012400  1
  B  B17  1  0.81221400  0.15540600  0.17880500  1
  B  B18  1  0.51758100  0.89134700  0.13238100  1
  B  B19  1  0.81098000  0.36641800  0.77633800  1
  B  B20  1  0.67034400  0.50290200  0.45405000  1
  B  B21  1  0.05955000  0.43562000  0.79163300  1
  B  B22  1  0.97064400  0.24224400  0.52385000  1
  B  B23  1  0.67333500  0.00365700  0.53287400  1
  B  B24  1  0.48059400  0.05349600  0.96876000  1
  B  B25  1  0.27839200  0.35563000  0.79235100  1
  B  B26  1  0.72567200  0.45957600  0.67121900  1
  B  B27  1  0.22586200  0.97733100  0.25833200  1
  B  B28  1  0.14346700  0.17600600  0.70070800  1
  B  B29  1  0.14232600  0.30573300  0.99383000  1
  B  B30  1  0.60094700  0.92675500  0.37751900  1
  B  B31  1  0.72526400  0.16191000  0.56618500  1
  B  B32  1  0.60607100  0.35142800  0.31501000  1
  B  B33  1  0.96167800  0.26765500  0.92454000  1
  B  B34  1  0.73557200  0.69338900  0.74425400  1
  B  B35  1  0.17384100  0.20397000  0.21003800  1
  B  B36  1  0.07870400  0.79825600  0.95135800  1
  B  B37  1  0.19475800  0.00788000  0.58926600  1
  B  B38  1  0.99006100  0.29223200  0.17197400  1
  B  B39  1  0.64976900  0.30879600  0.93685800  1
  B  B40  1  0.12756800  0.58095400  0.57602000  1
  B  B41  1  0.44604800  0.07785500  0.54471200  1
  B  B42  1  0.07134500  0.29575900  0.38394600  1
  B  B43  1  0.71070200  0.01531900  0.01513700  1
  B  B44  1  0.54948000  0.57912200  0.24602900  1
  B  B45  1  0.29543900  0.11659400  0.04617000  1
  B  B46  1  0.13166800  0.35946200  0.50823800  1
  B  B47  1  0.07753700  0.02775600  0.39539200  1
  B  B48  1  0.17835500  0.72618300  0.37772500  1
  B  B49  1  0.83744600  0.70045600  0.46597200  1
  N  N0  1  0.28186600  0.99398600  0.13371900  1
  N  N1  1  0.17736500  0.48499400  0.51385900  1
  N  N2  1  0.21800800  0.59165100  0.34534400  1
  N  N3  1  0.61072900  0.22757200  0.33020300  1
  N  N4  1  0.37329400  0.45895800  0.80221600  1
  N  N5  1  0.44573800  0.76848500  0.12433800  1
  N  N6  1  0.72278400  0.27515800  0.85323100  1
  N  N7  1  0.01248900  0.31335700  0.04137600  1
  N  N8  1  0.18036100  0.79353600  0.04104900  1
  N  N9  1  0.12342200  0.94353800  0.49989800  1
  N  N10  1  0.31734200  0.07265000  0.58084100  1
  N  N11  1  0.92575300  0.60829200  0.19547300  1
  N  N12  1  0.76769600  0.07011100  0.11131900  1
  N  N13  1  0.07202900  0.25647400  0.61090600  1
  N  N14  1  0.98328400  0.89073300  0.89156900  1
  N  N15  1  0.10041200  0.30079300  0.25362600  1
  N  N16  1  0.64752100  0.41182900  0.56860700  1
  N  N17  1  0.75957900  0.60850900  0.44092800  1
  N  N18  1  0.71406200  0.58465200  0.70636100  1
  N  N19  1  0.33716700  0.63797300  0.95791900  1
  N  N20  1  0.16186000  0.36888300  0.86491000  1
  N  N21  1  0.54811500  0.86962300  0.27035300  1
  N  N22  1  0.86401300  0.64980800  0.11840200  1
  N  N23  1  0.58050000  0.35130600  0.02501200  1
  N  N24  1  0.79021400  0.97973100  0.90634300  1
  N  N25  1  0.75445800  0.80698700  0.79919300  1
  N  N26  1  0.57359700  0.97653900  0.02021300  1
  N  N27  1  0.04205300  0.79871500  0.68988300  1
  N  N28  1  0.17371000  0.08474000  0.30122500  1
  N  N29  1  0.09978200  0.68223800  0.89511000  1
  N  N30  1  0.94217200  0.04163900  0.38572700  1
  N  N31  1  0.22170800  0.22080600  0.07974000  1
  N  N32  1  0.50153900  0.55182000  0.12002300  1
  N  N33  1  0.38443600  0.11990200  0.94650200  1
  N  N34  1  0.53547700  0.01137900  0.47452300  1
  N  N35  1  0.12320100  0.70899700  0.49829100  1
  N  N36  1  0.98567200  0.14225200  0.90733000  1
  N  N37  1  0.48752600  0.19978200  0.60284800  1
  N  N38  1  0.08179500  0.56053300  0.70569100  1
  N  N39  1  0.20957200  0.83265400  0.28061700  1
  N  N40  1  0.71042300  0.02658000  0.65930300  1
  N  N41  1  0.60233100  0.48005900  0.32991100  1
  N  N42  1  0.72111300  0.93361800  0.43153800  1
  N  N43  1  0.91409000  0.80959000  0.47946200  1
  N  N44  1  0.87555000  0.24400200  0.24417900  1
  N  N45  1  0.25846200  0.54583600  0.26417000  1
  N  N46  1  0.12380000  0.03000500  0.70700100  1
  N  N47  1  0.84714300  0.21130200  0.50544500  1
  N  N48  1  0.27139200  0.24322300  0.72234900  1
  N  N49  1  0.93770000  0.37163600  0.81886600  1
loop_
_geom_bond_atom_site_label_1
_geom_bond_atom_site_label_2
_geom_bond_distance
_geom_bond_site_symmetry_2
B0 N37 1.451398 1_555
B0 N16 1.499512 1_555
B1 N9 1.521716 1_555
B1 N27 1.544786 1_555
B1 N35 1.547503 1_555
B1 N43 1.603337 1_455
B2 N48 1.424940 1_555
B2 N37 1.477872 1_555
B2 N10 1.516157 1_555
B3 N30 1.427511 1_565
B3 N43 1.452851 1_555
B3 N42 1.508678 1_555
B4 N25 1.419364 1_555
B4 N24 1.507612 1_555
B4 N14 1.522964 1_555
B5 N3 1.383180 1_555
B5 N34 1.592544 1_555
B6 N47 1.540325 1_555
B6 N30 1.549252 1_555
B6 N44 1.568057 1_555
B7 N21 1.456943 1_555
B7 N5 1.500387 1_555
B8 N46 1.409534 1_565
B8 N27 1.436497 1_555
B8 N14 1.662515 1_455
B9 N36 1.300130 1_555
B9 N24 1.578291 1_545
B9 N14 1.585908 1_545
B10 N4 1.297000 1_555
B10 N19 1.423767 1_555
B11 N40 1.372181 1_565
B11 N25 1.522319 1_555
B11 N24 1.616806 1_555
B12 N29 1.461143 1_555
B12 N19 1.472434 1_555
B12 N8 1.480450 1_556
B13 N27 1.438745 1_555
B13 N38 1.441401 1_555
B13 N29 1.466420 1_555
B14 N23 1.275529 1_555
B14 N32 1.378493 1_555
B15 N8 1.447407 1_555
B15 N0 1.448329 1_555
B15 N39 1.497655 1_555
B16 N5 1.435771 1_555
B16 N32 1.476989 1_555
B16 N19 1.477131 1_554
B17 N12 1.287308 1_555
B17 N44 1.375684 1_555
B18 N5 1.461167 1_555
B18 N26 1.486292 1_555
B18 N21 1.495208 1_555
B19 N49 1.434300 1_555
B19 N6 1.459787 1_555
B20 N17 1.399230 1_555
B20 N16 1.447164 1_555
B20 N41 1.549216 1_555
B21 N49 1.437730 1_455
B21 N38 1.488031 1_555
B21 N20 1.502825 1_555
B22 N47 1.363781 1_555
B22 N13 1.442085 1_655
B23 N40 1.451581 1_555
B23 N42 1.500841 1_545
B23 N34 1.608709 1_555
B24 N33 1.290123 1_555
B24 N26 1.391597 1_546
B25 N4 1.444285 1_555
B25 N48 1.475522 1_555
B25 N20 1.501214 1_555
B26 N18 1.423548 1_555
B26 N16 1.495959 1_555
B27 N28 1.422646 1_565
B27 N0 1.443757 1_555
B27 N39 1.493072 1_555
B28 N13 1.440066 1_555
B28 N46 1.515802 1_555
B28 N48 1.529646 1_555
B29 N20 1.446625 1_555
B29 N31 1.492986 1_556
B29 N7 1.499327 1_556
B30 N42 1.413936 1_555
B30 N21 1.457121 1_555
B30 N34 1.644986 1_565
B31 N47 1.488740 1_555
B31 N40 1.605419 1_555
B32 N3 1.285276 1_555
B32 N41 1.378615 1_555
B33 N36 1.390912 1_555
B33 N7 1.484428 1_656
B33 N49 1.485285 1_555
B34 N18 1.263929 1_555
B34 N25 1.397620 1_555
B35 N15 1.455288 1_555
B35 N31 1.466186 1_555
B35 N28 1.466635 1_555
B36 N8 1.448542 1_556
B36 N29 1.458867 1_555
B36 N14 1.535759 1_455
B37 N9 1.431139 1_545
B37 N10 1.433843 1_555
B37 N46 1.526171 1_555
B38 N7 1.397768 1_655
B38 N44 1.472955 1_555
B38 N15 1.473934 1_655
B39 N6 1.292927 1_555
B39 N23 1.345318 1_556
B40 N1 1.415117 1_555
B40 N38 1.451273 1_555
B40 N35 1.473375 1_555
B41 N10 1.433713 1_555
B41 N34 1.490217 1_555
B41 N37 1.530774 1_555
B42 N15 1.418507 1_555
B43 N12 1.365630 1_555
B43 N26 1.499294 1_545
B43 N24 1.547263 1_544
B44 N41 1.418737 1_555
B44 N32 1.494631 1_555
B45 N33 1.428505 1_554
B45 N0 1.471606 1_545
B45 N31 1.477524 1_555
B46 N1 1.375063 1_555
B46 N13 1.528245 1_555
B47 N9 1.428095 1_545
B47 N30 1.475616 1_455
B47 N28 1.476570 1_555
B48 N35 1.400773 1_555
B48 N39 1.428736 1_555
B48 N2 1.582290 1_555
B49 N17 1.283355 1_555
B49 N43 1.380584 1_555
N2 N45 1.148756 1_555
N11 N22 1.113940 1_555
