# generated using pymatgen
data_NaMg30GaO32
_symmetry_space_group_name_H-M   'P 1'
_cell_length_a   8.52893800
_cell_length_b   8.52893800
_cell_length_c   8.53321900
_cell_angle_alpha   90.00000000
_cell_angle_beta   90.00000000
_cell_angle_gamma   90.00000000
_symmetry_Int_Tables_number   1
_chemical_formula_structural   NaMg30GaO32
_chemical_formula_sum   'Na1 Mg30 Ga1 O32'
_cell_volume   620.73010149
_cell_formula_units_Z   1
loop_
 _symmetry_equiv_pos_site_id
 _symmetry_equiv_pos_as_xyz
  1  'x, y, z'
loop_
 _atom_site_type_symbol
 _atom_site_label
 _atom_site_symmetry_multiplicity
 _atom_site_fract_x
 _atom_site_fract_y
 _atom_site_fract_z
 _atom_site_occupancy
  Na  Na0  1  0.00000000  0.00000000  0.00000000  1
  Mg  Mg0  1  0.00000000  0.50000000  0.00000000  1
  Mg  Mg1  1  0.50000000  0.00000000  0.00000000  1
  Mg  Mg2  1  0.00000000  0.00000000  0.50000000  1
  Mg  Mg3  1  0.00000000  0.50000000  0.50000000  1
  Mg  Mg4  1  0.50000000  0.00000000  0.50000000  1
  Mg  Mg5  1  0.50000000  0.50000000  0.50000000  1
  Mg  Mg6  1  0.24626200  0.24626200  0.00000000  1
  Mg  Mg7  1  0.24626200  0.75373800  0.00000000  1
  Mg  Mg8  1  0.75373800  0.24626200  0.00000000  1
  Mg  Mg9  1  0.75373800  0.75373800  0.00000000  1
  Mg  Mg10  1  0.24872100  0.24872100  0.50000000  1
  Mg  Mg11  1  0.24872100  0.75127900  0.50000000  1
  Mg  Mg12  1  0.75127900  0.24872100  0.50000000  1
  Mg  Mg13  1  0.75127900  0.75127900  0.50000000  1
  Mg  Mg14  1  0.00000000  0.24772100  0.24902100  1
  Mg  Mg15  1  0.00000000  0.75227900  0.24902100  1
  Mg  Mg16  1  0.50000000  0.24761900  0.25122500  1
  Mg  Mg17  1  0.50000000  0.75238100  0.25122500  1
  Mg  Mg18  1  0.00000000  0.24772100  0.75097900  1
  Mg  Mg19  1  0.00000000  0.75227900  0.75097900  1
  Mg  Mg20  1  0.50000000  0.24761900  0.74877500  1
  Mg  Mg21  1  0.50000000  0.75238100  0.74877500  1
  Mg  Mg22  1  0.24772100  0.00000000  0.24902100  1
  Mg  Mg23  1  0.24761900  0.50000000  0.25122500  1
  Mg  Mg24  1  0.75227900  0.00000000  0.24902100  1
  Mg  Mg25  1  0.75238100  0.50000000  0.25122500  1
  Mg  Mg26  1  0.24772100  0.00000000  0.75097900  1
  Mg  Mg27  1  0.24761900  0.50000000  0.74877500  1
  Mg  Mg28  1  0.75227900  0.00000000  0.75097900  1
  Mg  Mg29  1  0.75238100  0.50000000  0.74877500  1
  Ga  Ga0  1  0.50000000  0.50000000  0.00000000  1
  O  O0  1  0.00000000  0.00000000  0.26260500  1
  O  O1  1  0.00000000  0.50000000  0.25059400  1
  O  O2  1  0.50000000  0.00000000  0.25059400  1
  O  O3  1  0.50000000  0.50000000  0.24311400  1
  O  O4  1  0.00000000  0.00000000  0.73739500  1
  O  O5  1  0.00000000  0.50000000  0.74940600  1
  O  O6  1  0.50000000  0.00000000  0.74940600  1
  O  O7  1  0.50000000  0.50000000  0.75688600  1
  O  O8  1  0.25087400  0.25087400  0.24953000  1
  O  O9  1  0.25087400  0.74912600  0.24953000  1
  O  O10  1  0.74912600  0.25087400  0.24953000  1
  O  O11  1  0.74912600  0.74912600  0.24953000  1
  O  O12  1  0.25087400  0.25087400  0.75047000  1
  O  O13  1  0.25087400  0.74912600  0.75047000  1
  O  O14  1  0.74912600  0.25087400  0.75047000  1
  O  O15  1  0.74912600  0.74912600  0.75047000  1
  O  O16  1  0.00000000  0.26453600  0.00000000  1
  O  O17  1  0.00000000  0.73546400  0.00000000  1
  O  O18  1  0.50000000  0.26063700  0.00000000  1
  O  O19  1  0.50000000  0.73936300  0.00000000  1
  O  O20  1  0.00000000  0.25299300  0.50000000  1
  O  O21  1  0.00000000  0.74700700  0.50000000  1
  O  O22  1  0.50000000  0.25255300  0.50000000  1
  O  O23  1  0.50000000  0.74744700  0.50000000  1
  O  O24  1  0.26453600  0.00000000  0.00000000  1
  O  O25  1  0.26063700  0.50000000  0.00000000  1
  O  O26  1  0.73546400  0.00000000  0.00000000  1
  O  O27  1  0.73936300  0.50000000  0.00000000  1
  O  O28  1  0.25299300  0.00000000  0.50000000  1
  O  O29  1  0.25255300  0.50000000  0.50000000  1
  O  O30  1  0.74700700  0.00000000  0.50000000  1
  O  O31  1  0.74744700  0.50000000  0.50000000  1
loop_
_geom_bond_atom_site_label_1
_geom_bond_atom_site_label_2
_geom_bond_distance
_geom_bond_site_symmetry_2
Na0 O0 2.240866 1_555
Na0 O4 2.240866 1_554
Na0 O24 2.256211 1_555
Na0 O16 2.256211 1_555
Na0 O26 2.256211 1_455
Na0 O17 2.256211 1_545
Mg0 O17 2.008258 1_555
Mg0 O16 2.008258 1_555
Mg0 O1 2.138373 1_555
Mg0 O5 2.138373 1_554
Mg0 O27 2.222957 1_455
Mg0 O25 2.222957 1_555
Mg1 O24 2.008258 1_555
Mg1 O26 2.008258 1_555
Mg1 O6 2.138373 1_554
Mg1 O2 2.138373 1_555
Mg1 O19 2.222957 1_545
Mg1 O18 2.222957 1_555
Mg2 O4 2.025744 1_555
Mg2 O0 2.025744 1_555
Mg2 O30 2.157762 1_455
Mg2 O21 2.157762 1_545
Mg2 O20 2.157762 1_555
Mg2 O28 2.157762 1_555
Mg3 O20 2.106707 1_555
Mg3 O21 2.106707 1_555
Mg3 O1 2.128236 1_555
Mg3 O5 2.128236 1_555
Mg3 O31 2.154009 1_455
Mg3 O29 2.154009 1_555
Mg4 O28 2.106707 1_555
Mg4 O30 2.106707 1_555
Mg4 O2 2.128236 1_555
Mg4 O6 2.128236 1_555
Mg4 O23 2.154009 1_545
Mg4 O22 2.154009 1_555
Mg5 O23 2.110460 1_555
Mg5 O29 2.110460 1_555
Mg5 O31 2.110460 1_555
Mg5 O22 2.110460 1_555
Mg5 O7 2.192064 1_555
Mg5 O3 2.192064 1_555
Mg6 O24 2.106128 1_555
Mg6 O16 2.106128 1_555
Mg6 O8 2.130021 1_555
Mg6 O12 2.130021 1_554
Mg6 O25 2.167586 1_555
Mg6 O18 2.167586 1_555
Mg7 O24 2.106128 1_565
Mg7 O17 2.106128 1_555
Mg7 O9 2.130021 1_555
Mg7 O13 2.130021 1_554
Mg7 O19 2.167586 1_555
Mg7 O25 2.167586 1_555
Mg8 O16 2.106128 1_655
Mg8 O26 2.106128 1_555
Mg8 O10 2.130021 1_555
Mg8 O14 2.130021 1_554
Mg8 O27 2.167586 1_555
Mg8 O18 2.167586 1_555
Mg9 O17 2.106128 1_655
Mg9 O26 2.106128 1_565
Mg9 O11 2.130021 1_555
Mg9 O15 2.130021 1_554
Mg9 O19 2.167586 1_555
Mg9 O27 2.167586 1_555
Mg10 O20 2.121639 1_555
Mg10 O28 2.121639 1_555
Mg10 O8 2.137473 1_555
Mg10 O12 2.137473 1_555
Mg10 O29 2.143392 1_555
Mg10 O22 2.143392 1_555
Mg11 O28 2.121639 1_565
Mg11 O21 2.121639 1_555
Mg11 O9 2.137473 1_555
Mg11 O13 2.137473 1_555
Mg11 O29 2.143392 1_555
Mg11 O23 2.143392 1_555
Mg12 O20 2.121639 1_655
Mg12 O30 2.121639 1_555
Mg12 O14 2.137473 1_555
Mg12 O10 2.137473 1_555
Mg12 O31 2.143392 1_555
Mg12 O22 2.143392 1_555
Mg13 O30 2.121639 1_565
Mg13 O21 2.121639 1_655
Mg13 O11 2.137473 1_555
Mg13 O15 2.137473 1_555
Mg13 O31 2.143392 1_555
Mg13 O23 2.143392 1_555
Mg14 O0 2.115974 1_555
Mg14 O16 2.129785 1_555
Mg14 O8 2.139862 1_555
Mg14 O10 2.139862 1_455
Mg14 O20 2.142131 1_555
Mg14 O1 2.151714 1_555
Mg15 O0 2.115974 1_565
Mg15 O17 2.129785 1_555
Mg15 O9 2.139862 1_555
Mg15 O11 2.139862 1_455
Mg15 O21 2.142131 1_555
Mg15 O1 2.151714 1_555
Mg16 O2 2.111934 1_555
Mg16 O22 2.123269 1_555
Mg16 O10 2.125011 1_555
Mg16 O8 2.125011 1_555
Mg16 O18 2.146631 1_555
Mg16 O3 2.153654 1_555
Mg17 O2 2.111934 1_565
Mg17 O23 2.123269 1_555
Mg17 O11 2.125011 1_555
Mg17 O9 2.125011 1_555
Mg17 O19 2.146631 1_555
Mg17 O3 2.153654 1_555
Mg18 O4 2.115974 1_555
Mg18 O16 2.129785 1_556
Mg18 O12 2.139862 1_555
Mg18 O14 2.139862 1_455
Mg18 O20 2.142131 1_555
Mg18 O5 2.151714 1_555
Mg19 O4 2.115974 1_565
Mg19 O17 2.129785 1_556
Mg19 O13 2.139862 1_555
Mg19 O15 2.139862 1_455
Mg19 O21 2.142131 1_555
Mg19 O5 2.151714 1_555
Mg20 O6 2.111934 1_555
Mg20 O22 2.123269 1_555
Mg20 O14 2.125011 1_555
Mg20 O12 2.125011 1_555
Mg20 O18 2.146631 1_556
Mg20 O7 2.153654 1_555
Mg21 O6 2.111934 1_565
Mg21 O23 2.123269 1_555
Mg21 O15 2.125011 1_555
Mg21 O13 2.125011 1_555
Mg21 O19 2.146631 1_556
Mg21 O7 2.153654 1_555
Mg22 O0 2.115974 1_555
Mg22 O24 2.129785 1_555
Mg22 O8 2.139862 1_555
Mg22 O9 2.139862 1_545
Mg22 O28 2.142131 1_555
Mg22 O2 2.151714 1_555
Mg23 O1 2.111934 1_555
Mg23 O29 2.123269 1_555
Mg23 O9 2.125011 1_555
Mg23 O8 2.125011 1_555
Mg23 O25 2.146631 1_555
Mg23 O3 2.153654 1_555
Mg24 O0 2.115974 1_655
Mg24 O26 2.129785 1_555
Mg24 O10 2.139862 1_555
Mg24 O11 2.139862 1_545
Mg24 O30 2.142131 1_555
Mg24 O2 2.151714 1_555
Mg25 O1 2.111934 1_655
Mg25 O31 2.123269 1_555
Mg25 O11 2.125011 1_555
Mg25 O10 2.125011 1_555
Mg25 O27 2.146631 1_555
Mg25 O3 2.153654 1_555
Mg26 O4 2.115974 1_555
Mg26 O24 2.129785 1_556
Mg26 O12 2.139862 1_555
Mg26 O13 2.139862 1_545
Mg26 O28 2.142131 1_555
Mg26 O6 2.151714 1_555
Mg27 O5 2.111934 1_555
Mg27 O29 2.123269 1_555
Mg27 O13 2.125011 1_555
Mg27 O12 2.125011 1_555
Mg27 O25 2.146631 1_556
Mg27 O7 2.153654 1_555
Mg28 O4 2.115974 1_655
Mg28 O26 2.129785 1_556
Mg28 O14 2.139862 1_555
Mg28 O15 2.139862 1_545
Mg28 O30 2.142131 1_555
Mg28 O6 2.151714 1_555
Mg29 O5 2.111934 1_655
Mg29 O31 2.123269 1_555
Mg29 O15 2.125011 1_555
Mg29 O14 2.125011 1_555
Mg29 O27 2.146631 1_556
Mg29 O7 2.153654 1_555
Ga0 O27 2.041512 1_555
Ga0 O25 2.041512 1_555
Ga0 O18 2.041512 1_555
Ga0 O19 2.041512 1_555
Ga0 O3 2.074545 1_555
Ga0 O7 2.074545 1_554
