# generated using pymatgen
data_MgFeNiP2O9
_symmetry_space_group_name_H-M   'P 1'
_cell_length_a   6.28447300
_cell_length_b   7.24748800
_cell_length_c   14.20242800
_cell_angle_alpha   90.00000000
_cell_angle_beta   90.00000000
_cell_angle_gamma   90.00000000
_symmetry_Int_Tables_number   1
_chemical_formula_structural   MgFeNiP2O9
_chemical_formula_sum   'Mg4 Fe4 Ni4 P8 O36'
_cell_volume   646.87291293
_cell_formula_units_Z   4
loop_
 _symmetry_equiv_pos_site_id
 _symmetry_equiv_pos_as_xyz
  1  'x, y, z'
loop_
 _atom_site_type_symbol
 _atom_site_label
 _atom_site_symmetry_multiplicity
 _atom_site_fract_x
 _atom_site_fract_y
 _atom_site_fract_z
 _atom_site_occupancy
  Mg  Mg0  1  0.75000000  0.40900700  0.22400200  1
  Mg  Mg1  1  0.75000000  0.09099300  0.72400200  1
  Mg  Mg2  1  0.25000000  0.59099300  0.77599800  1
  Mg  Mg3  1  0.25000000  0.90900700  0.27599800  1
  Fe  Fe0  1  0.75000000  0.85447700  0.11783000  1
  Fe  Fe1  1  0.25000000  0.14552300  0.88217000  1
  Fe  Fe2  1  0.25000000  0.35447700  0.38217000  1
  Fe  Fe3  1  0.75000000  0.64552300  0.61783000  1
  Ni  Ni0  1  0.00000000  0.50000000  0.00000000  1
  Ni  Ni1  1  0.00000000  0.00000000  0.50000000  1
  Ni  Ni2  1  0.50000000  0.00000000  0.50000000  1
  Ni  Ni3  1  0.50000000  0.50000000  0.00000000  1
  P  P0  1  0.25000000  0.85755500  0.07010500  1
  P  P1  1  0.75000000  0.14244500  0.92989500  1
  P  P2  1  0.75000000  0.35755500  0.42989500  1
  P  P3  1  0.25000000  0.64244500  0.57010500  1
  P  P4  1  0.75000000  0.88143200  0.30372000  1
  P  P5  1  0.25000000  0.11856800  0.69628000  1
  P  P6  1  0.25000000  0.38143200  0.19628000  1
  P  P7  1  0.75000000  0.61856800  0.80372000  1
  O  O0  1  0.46096900  0.11027200  0.63829800  1
  O  O1  1  0.96096900  0.88972800  0.36170200  1
  O  O2  1  0.53903100  0.61027200  0.86170200  1
  O  O3  1  0.03903100  0.38972800  0.13829800  1
  O  O4  1  0.53903100  0.88972800  0.36170200  1
  O  O5  1  0.03903100  0.11027200  0.63829800  1
  O  O6  1  0.46096900  0.38972800  0.13829800  1
  O  O7  1  0.96096900  0.61027200  0.86170200  1
  O  O8  1  0.25000000  0.83340800  0.52183000  1
  O  O9  1  0.75000000  0.16659200  0.47817000  1
  O  O10  1  0.75000000  0.33340800  0.97817000  1
  O  O11  1  0.25000000  0.66659200  0.02183000  1
  O  O12  1  0.75000000  0.63352200  0.04910800  1
  O  O13  1  0.25000000  0.36647800  0.95089200  1
  O  O14  1  0.25000000  0.13352200  0.45089200  1
  O  O15  1  0.75000000  0.86647800  0.54910800  1
  O  O16  1  0.75000000  0.69992500  0.24265500  1
  O  O17  1  0.25000000  0.30007500  0.75734500  1
  O  O18  1  0.25000000  0.19992500  0.25734500  1
  O  O19  1  0.75000000  0.80007500  0.74265500  1
  O  O20  1  0.06261400  0.62809800  0.64040600  1
  O  O21  1  0.56261400  0.37190200  0.35959400  1
  O  O22  1  0.93738600  0.12809800  0.85959400  1
  O  O23  1  0.43738600  0.87190200  0.14040600  1
  O  O24  1  0.93738600  0.37190200  0.35959400  1
  O  O25  1  0.43738600  0.62809800  0.64040600  1
  O  O26  1  0.06261400  0.87190200  0.14040600  1
  O  O27  1  0.56261400  0.12809800  0.85959400  1
  O  O28  1  0.75000000  0.46245500  0.72743200  1
  O  O29  1  0.25000000  0.53754500  0.27256800  1
  O  O30  1  0.25000000  0.96245500  0.77256800  1
  O  O31  1  0.75000000  0.03754500  0.22743200  1
  O  O32  1  0.75000000  0.50677700  0.50370100  1
  O  O33  1  0.25000000  0.49322300  0.49629900  1
  O  O34  1  0.25000000  0.00677700  0.99629900  1
  O  O35  1  0.75000000  0.99322300  0.00370100  1
loop_
_geom_bond_atom_site_label_1
_geom_bond_atom_site_label_2
_geom_bond_distance
_geom_bond_site_symmetry_2
Mg0 O16 2.125003 1_555
Mg0 O3 2.190992 1_655
Mg0 O6 2.190992 1_555
Mg0 O24 2.273229 1_555
Mg0 O21 2.273229 1_555
Mg0 O31 2.692607 1_555
Mg1 O19 2.125003 1_545
Mg1 O5 2.190992 1_655
Mg1 O0 2.190992 1_555
Mg1 O22 2.273229 1_555
Mg1 O27 2.273229 1_555
Mg1 O28 2.692607 1_555
Mg2 O17 2.125003 1_555
Mg2 O2 2.190992 1_555
Mg2 O7 2.190992 1_455
Mg2 O25 2.273229 1_555
Mg2 O20 2.273229 1_555
Mg2 O30 2.692607 1_555
Mg3 O18 2.125003 1_565
Mg3 O4 2.190992 1_555
Mg3 O1 2.190992 1_455
Mg3 O26 2.273229 1_555
Mg3 O23 2.273229 1_555
Mg3 O29 2.692607 1_555
Fe0 O12 1.875365 1_555
Fe0 O35 1.907484 1_555
Fe0 O26 1.994609 1_655
Fe0 O23 1.994609 1_555
Fe0 O31 2.045337 1_565
Fe0 O16 2.097031 1_555
Fe1 O13 1.875365 1_555
Fe1 O34 1.907484 1_555
Fe1 O27 1.994609 1_555
Fe1 O22 1.994609 1_455
Fe1 O30 2.045337 1_545
Fe1 O17 2.097031 1_555
Fe2 O14 1.875365 1_555
Fe2 O33 1.907484 1_555
Fe2 O21 1.994609 1_555
Fe2 O24 1.994609 1_455
Fe2 O29 2.045337 1_555
Fe2 O18 2.097031 1_555
Fe3 O15 1.875365 1_555
Fe3 O32 1.907484 1_555
Fe3 O20 1.994609 1_655
Fe3 O25 1.994609 1_555
Fe3 O28 2.045337 1_555
Fe3 O19 2.097031 1_555
Ni0 O12 1.972636 1_455
Ni0 O13 1.972636 1_554
Ni0 O10 2.005564 1_454
Ni0 O11 2.005564 1_555
Ni0 O7 2.134674 1_454
Ni0 O3 2.134674 1_555
Ni1 O15 1.972636 1_445
Ni1 O14 1.972636 1_555
Ni1 O9 2.005564 1_455
Ni1 O8 2.005564 1_545
Ni1 O5 2.134674 1_555
Ni1 O1 2.134674 1_445
Ni2 O15 1.972636 1_545
Ni2 O14 1.972636 1_555
Ni2 O9 2.005564 1_555
Ni2 O8 2.005564 1_545
Ni2 O0 2.134674 1_555
Ni2 O4 2.134674 1_545
Ni3 O12 1.972636 1_555
Ni3 O13 1.972636 1_554
Ni3 O11 2.005564 1_555
Ni3 O10 2.005564 1_554
Ni3 O2 2.134674 1_554
Ni3 O6 2.134674 1_555
O0 P5 1.561911 1_555
O1 P4 1.561911 1_555
O2 P7 1.561911 1_555
O3 P6 1.561911 1_555
O4 P4 1.561911 1_555
O5 P5 1.561911 1_555
O6 P6 1.561911 1_555
O7 P7 1.561911 1_555
O8 P3 1.544519 1_555
O9 P2 1.544519 1_555
O10 P1 1.544519 1_555
O11 P0 1.544519 1_555
O16 P4 1.575633 1_555
O17 P5 1.575633 1_555
O18 P6 1.575633 1_555
O19 P7 1.575633 1_555
O20 P3 1.547417 1_555
O21 P2 1.547417 1_555
O22 P1 1.547417 1_555
O23 P0 1.547417 1_555
O24 P2 1.547417 1_555
O25 P3 1.547417 1_555
O26 P0 1.547417 1_555
O27 P1 1.547417 1_555
O28 P7 1.566539 1_555
O29 P6 1.566539 1_555
O30 P5 1.566539 1_565
O31 P4 1.566539 1_545
O32 P2 1.506115 1_555
O33 P3 1.506115 1_555
O34 P0 1.506115 1_546
O35 P1 1.506115 1_564
