# generated using pymatgen
data_K2NaCo(NO2)6
_symmetry_space_group_name_H-M   'P 1'
_cell_length_a   7.28036718
_cell_length_b   7.28036718
_cell_length_c   7.28036718
_cell_angle_alpha   60.00000000
_cell_angle_beta   60.00000000
_cell_angle_gamma   60.00000000
_symmetry_Int_Tables_number   1
_chemical_formula_structural   K2NaCo(NO2)6
_chemical_formula_sum   'K2 Na1 Co1 N6 O12'
_cell_volume   272.86312655
_cell_formula_units_Z   1
loop_
 _symmetry_equiv_pos_site_id
 _symmetry_equiv_pos_as_xyz
  1  'x, y, z'
loop_
 _atom_site_type_symbol
 _atom_site_label
 _atom_site_symmetry_multiplicity
 _atom_site_fract_x
 _atom_site_fract_y
 _atom_site_fract_z
 _atom_site_occupancy
  K  K0  1  0.25000000  0.25000000  0.25000000  1
  K  K1  1  0.75000000  0.75000000  0.75000000  1
  Na  Na0  1  0.50000000  0.50000000  0.50000000  1
  Co  Co0  1  0.00000000  0.00000000  0.00000000  1
  N  N0  1  0.80640600  0.19359400  0.19359400  1
  N  N1  1  0.19359400  0.80640600  0.80640600  1
  N  N2  1  0.19359400  0.80640600  0.19359400  1
  N  N3  1  0.80640600  0.19359400  0.80640600  1
  N  N4  1  0.19359400  0.19359400  0.80640600  1
  N  N5  1  0.80640600  0.80640600  0.19359400  1
  O  O0  1  0.35995500  0.15016600  0.84983400  1
  O  O1  1  0.64004500  0.84983400  0.15016600  1
  O  O2  1  0.15016600  0.35995500  0.64004500  1
  O  O3  1  0.84983400  0.64004500  0.35995500  1
  O  O4  1  0.84983400  0.35995500  0.15016600  1
  O  O5  1  0.15016600  0.64004500  0.84983400  1
  O  O6  1  0.64004500  0.15016600  0.35995500  1
  O  O7  1  0.35995500  0.84983400  0.64004500  1
  O  O8  1  0.15016600  0.84983400  0.35995500  1
  O  O9  1  0.84983400  0.15016600  0.64004500  1
  O  O10  1  0.64004500  0.35995500  0.84983400  1
  O  O11  1  0.35995500  0.64004500  0.15016600  1
loop_
_geom_bond_atom_site_label_1
_geom_bond_atom_site_label_2
_geom_bond_distance
_geom_bond_site_symmetry_2
K0 O11 2.976615 1_555
K0 O6 2.976615 1_555
K0 O2 2.976615 1_555
K0 O10 2.976615 1_554
K0 O3 2.976615 1_455
K0 O7 2.976615 1_545
K0 O5 2.976615 1_554
K0 O9 2.976615 1_455
K0 O1 2.976615 1_545
K0 O0 2.976615 1_554
K0 O8 2.976615 1_545
K0 O4 2.976615 1_455
K1 O1 2.976615 1_556
K1 O9 2.976615 1_565
K1 O5 2.976615 1_655
K1 O8 2.976615 1_655
K1 O4 2.976615 1_556
K1 O0 2.976615 1_565
K1 O2 2.976615 1_655
K1 O6 2.976615 1_565
K1 O11 2.976615 1_556
K1 O3 2.976615 1_555
K1 O7 2.976615 1_555
K1 O10 2.976615 1_555
Na0 O3 2.743418 1_555
Na0 O10 2.743418 1_555
Na0 O7 2.743418 1_555
Na0 O5 2.743418 1_555
Na0 O9 2.743418 1_555
Na0 O1 2.743418 1_555
Na0 O8 2.743418 1_555
Na0 O0 2.743418 1_555
Na0 O4 2.743418 1_555
Na0 O2 2.743418 1_555
Na0 O11 2.743418 1_555
Na0 O6 2.743418 1_555
Co0 N4 1.993243 1_554
Co0 N2 1.993243 1_545
Co0 N0 1.993243 1_455
Co0 N1 1.993243 1_544
Co0 N3 1.993243 1_454
Co0 N5 1.993243 1_445
N0 O4 1.251757 1_555
N0 O6 1.251757 1_555
N1 O7 1.251757 1_555
N1 O5 1.251757 1_555
N2 O8 1.251757 1_555
N2 O11 1.251757 1_555
N3 O10 1.251757 1_555
N3 O9 1.251757 1_555
N4 O0 1.251757 1_555
N4 O2 1.251757 1_555
N5 O3 1.251757 1_555
N5 O1 1.251757 1_555
