# generated using pymatgen
data_SrNd4Si3O13
_symmetry_space_group_name_H-M   'P 1'
_cell_length_a   9.67851847
_cell_length_b   9.67851847
_cell_length_c   7.16195100
_cell_angle_alpha   90.00000000
_cell_angle_beta   90.00000000
_cell_angle_gamma   120.00000320
_symmetry_Int_Tables_number   1
_chemical_formula_structural   SrNd4Si3O13
_chemical_formula_sum   'Sr2 Nd8 Si6 O26'
_cell_volume   581.00481195
_cell_formula_units_Z   2
loop_
 _symmetry_equiv_pos_site_id
 _symmetry_equiv_pos_as_xyz
  1  'x, y, z'
loop_
 _atom_site_type_symbol
 _atom_site_label
 _atom_site_symmetry_multiplicity
 _atom_site_fract_x
 _atom_site_fract_y
 _atom_site_fract_z
 _atom_site_occupancy
  Sr  Sr0  1  0.33333300  0.66666700  0.99877900  1
  Sr  Sr1  1  0.66666700  0.33333300  0.49877900  1
  Nd  Nd0  1  0.66666700  0.33333300  0.99872900  1
  Nd  Nd1  1  0.33333300  0.66666700  0.49872900  1
  Nd  Nd2  1  0.23326400  0.99094300  0.75005500  1
  Nd  Nd3  1  0.75767900  0.76673600  0.75005500  1
  Nd  Nd4  1  0.00905700  0.24232100  0.75005500  1
  Nd  Nd5  1  0.76673600  0.00905700  0.25005500  1
  Nd  Nd6  1  0.24232100  0.23326400  0.25005500  1
  Nd  Nd7  1  0.99094300  0.75767900  0.25005500  1
  Si  Si0  1  0.97126100  0.60202800  0.74874600  1
  Si  Si1  1  0.63076700  0.02873900  0.74874600  1
  Si  Si2  1  0.39797200  0.36923300  0.74874600  1
  Si  Si3  1  0.02873900  0.39797200  0.24874600  1
  Si  Si4  1  0.36923300  0.97126100  0.24874600  1
  Si  Si5  1  0.60202800  0.63076700  0.24874600  1
  O  O0  1  0.90969700  0.65872000  0.93402000  1
  O  O1  1  0.74902300  0.09030300  0.93402000  1
  O  O2  1  0.34128000  0.25097700  0.93402000  1
  O  O3  1  0.09030300  0.34128000  0.43402000  1
  O  O4  1  0.25097700  0.90969700  0.43402000  1
  O  O5  1  0.65872000  0.74902300  0.43402000  1
  O  O6  1  0.09119900  0.33771000  0.06848700  1
  O  O7  1  0.24651000  0.90880100  0.06848700  1
  O  O8  1  0.66229000  0.75349000  0.06848700  1
  O  O9  1  0.90880100  0.66229000  0.56848700  1
  O  O10  1  0.75349000  0.09119900  0.56848700  1
  O  O11  1  0.33771000  0.24651000  0.56848700  1
  O  O12  1  0.16570200  0.68505500  0.74001900  1
  O  O13  1  0.51935300  0.83429800  0.74001900  1
  O  O14  1  0.31494500  0.48064700  0.74001900  1
  O  O15  1  0.83429800  0.31494500  0.24001900  1
  O  O16  1  0.48064700  0.16570200  0.24001900  1
  O  O17  1  0.68505500  0.51935300  0.24001900  1
  O  O18  1  0.87882300  0.40586000  0.75873800  1
  O  O19  1  0.52703700  0.12117700  0.75873800  1
  O  O20  1  0.59414000  0.47296300  0.75873800  1
  O  O21  1  0.12117700  0.59414000  0.25873800  1
  O  O22  1  0.47296300  0.87882300  0.25873800  1
  O  O23  1  0.40586000  0.52703700  0.25873800  1
  O  O24  1  0.00000000  0.00000000  0.75228400  1
  O  O25  1  0.00000000  0.00000000  0.25228400  1
loop_
_geom_bond_atom_site_label_1
_geom_bond_atom_site_label_2
_geom_bond_distance
_geom_bond_site_symmetry_2
Nd0 O15 2.437009 1_556
Nd0 O16 2.437013 1_556
Nd0 O17 2.437016 1_556
Nd0 O18 2.494381 1_555
Nd0 O19 2.494382 1_555
Nd0 O20 2.494387 1_555
Nd0 O1 2.873622 1_555
Nd0 O0 2.873629 1_555
Nd0 O2 2.873631 1_555
Nd1 O12 2.437009 1_555
Nd1 O13 2.437013 1_555
Nd1 O14 2.437016 1_555
Nd1 O21 2.494381 1_555
Nd1 O22 2.494382 1_555
Nd1 O23 2.494387 1_555
Nd1 O4 2.873622 1_555
Nd1 O3 2.873629 1_555
Nd1 O5 2.873631 1_555
Nd2 O24 2.302786 1_565
Nd2 O4 2.430151 1_555
Nd2 O7 2.439572 1_556
Nd2 O19 2.468412 1_565
Nd2 O11 2.516088 1_565
Nd2 O2 2.555734 1_565
Nd2 O12 2.694748 1_555
Nd3 O24 2.302786 1_665
Nd3 O5 2.430151 1_555
Nd3 O8 2.439576 1_556
Nd3 O20 2.468412 1_555
Nd3 O9 2.516095 1_555
Nd3 O0 2.555734 1_555
Nd3 O13 2.694748 1_555
Nd4 O24 2.302786 1_555
Nd4 O3 2.430151 1_555
Nd4 O6 2.439575 1_556
Nd4 O18 2.468412 1_455
Nd4 O10 2.516089 1_455
Nd4 O1 2.555734 1_455
Nd4 O14 2.694748 1_555
Nd5 O25 2.302786 1_655
Nd5 O1 2.430151 1_554
Nd5 O10 2.439572 1_555
Nd5 O22 2.468412 1_545
Nd5 O8 2.516088 1_545
Nd5 O5 2.555734 1_545
Nd5 O15 2.694748 1_555
Nd6 O25 2.302786 1_555
Nd6 O2 2.430151 1_554
Nd6 O11 2.439576 1_555
Nd6 O23 2.468412 1_555
Nd6 O6 2.516095 1_555
Nd6 O3 2.555734 1_555
Nd6 O16 2.694748 1_555
Nd7 O25 2.302786 1_665
Nd7 O0 2.430151 1_554
Nd7 O9 2.439575 1_555
Nd7 O21 2.468412 1_655
Nd7 O7 2.516089 1_655
Nd7 O4 2.555734 1_655
Nd7 O17 2.694748 1_555
O0 Si0 1.656431 1_555
O1 Si1 1.656431 1_555
O2 Si2 1.656431 1_555
O3 Si3 1.656431 1_555
O4 Si4 1.656431 1_555
O5 Si5 1.656431 1_555
O6 Si3 1.650728 1_555
O6 Sr0 2.901146 1_554
O7 Si4 1.650733 1_555
O7 Sr0 2.901146 1_554
O8 Si5 1.650733 1_555
O8 Sr0 2.901146 1_554
O9 Si0 1.650728 1_555
O9 Sr1 2.901146 1_555
O10 Si1 1.650733 1_555
O10 Sr1 2.901146 1_555
O11 Si2 1.650733 1_555
O11 Sr1 2.901146 1_555
O12 Si0 1.636747 1_455
O12 Sr0 2.527273 1_555
O13 Si1 1.636747 1_565
O13 Sr0 2.527276 1_555
O14 Si2 1.636747 1_555
O14 Sr0 2.527279 1_555
O15 Si3 1.636747 1_655
O15 Sr1 2.527273 1_555
O16 Si4 1.636747 1_545
O16 Sr1 2.527276 1_555
O17 Si5 1.636747 1_555
O17 Sr1 2.527279 1_555
O18 Si0 1.646713 1_555
O18 Sr1 2.594995 1_555
O19 Si1 1.646713 1_555
O19 Sr1 2.594996 1_555
O20 Si2 1.646713 1_555
O20 Sr1 2.595001 1_555
O21 Si3 1.646713 1_555
O21 Sr0 2.594995 1_554
O22 Si4 1.646713 1_555
O22 Sr0 2.594996 1_554
O23 Si5 1.646713 1_555
O23 Sr0 2.595001 1_554
