# generated using pymatgen
data_Sb(WBr3)5
_symmetry_space_group_name_H-M   'P 1'
_cell_length_a   9.91287600
_cell_length_b   15.34133295
_cell_length_c   19.59257879
_cell_angle_alpha   88.32534282
_cell_angle_beta   80.54168341
_cell_angle_gamma   88.97039453
_symmetry_Int_Tables_number   1
_chemical_formula_structural   Sb(WBr3)5
_chemical_formula_sum   'Sb4 W20 Br60'
_cell_volume   2937.55197251
_cell_formula_units_Z   4
loop_
 _symmetry_equiv_pos_site_id
 _symmetry_equiv_pos_as_xyz
  1  'x, y, z'
loop_
 _atom_site_type_symbol
 _atom_site_label
 _atom_site_symmetry_multiplicity
 _atom_site_fract_x
 _atom_site_fract_y
 _atom_site_fract_z
 _atom_site_occupancy
  Sb  Sb0  1  0.64916800  0.36658100  0.98344400  1
  Sb  Sb1  1  0.35083200  0.63341900  0.01655600  1
  Sb  Sb2  1  0.31692800  0.07049300  0.00181800  1
  Sb  Sb3  1  0.68307200  0.92950700  0.99818200  1
  W  W0  1  0.92967600  0.73997500  0.78807900  1
  W  W1  1  0.07032400  0.26002500  0.21192100  1
  W  W2  1  0.89889600  0.74553000  0.65563300  1
  W  W3  1  0.10110400  0.25447000  0.34436700  1
  W  W4  1  0.05085400  0.62284500  0.70115300  1
  W  W5  1  0.94914600  0.37715500  0.29884700  1
  W  W6  1  0.19974200  0.73713700  0.74956800  1
  W  W7  1  0.80025800  0.26286300  0.25043200  1
  W  W8  1  0.05178500  0.86056900  0.70247400  1
  W  W9  1  0.94821500  0.13943100  0.29752600  1
  W  W10  1  0.40156900  0.23917800  0.75002200  1
  W  W11  1  0.59843100  0.76082200  0.24997800  1
  W  W12  1  0.50990600  0.15783300  0.63621500  1
  W  W13  1  0.49009400  0.84216700  0.36378500  1
  W  W14  1  0.50843100  0.32944200  0.63650000  1
  W  W15  1  0.49156900  0.67055800  0.36350000  1
  W  W16  1  0.24300400  0.32710900  0.67568300  1
  W  W17  1  0.75699600  0.67289100  0.32431700  1
  W  W18  1  0.24409100  0.15814000  0.67645800  1
  W  W19  1  0.75590900  0.84186000  0.32354200  1
  Br  Br0  1  0.78380600  0.61980100  0.74088900  1
  Br  Br1  1  0.21619400  0.38019900  0.25911100  1
  Br  Br2  1  0.07789900  0.61138200  0.83217200  1
  Br  Br3  1  0.92210100  0.38861800  0.16782800  1
  Br  Br4  1  0.08116700  0.85907400  0.83333800  1
  Br  Br5  1  0.91883300  0.14092600  0.16666200  1
  Br  Br6  1  0.78485700  0.86721700  0.74033500  1
  Br  Br7  1  0.21514300  0.13278300  0.25966500  1
  Br  Br8  1  0.02521800  0.63220600  0.57229400  1
  Br  Br9  1  0.97478200  0.36779400  0.42770600  1
  Br  Br10  1  0.31081500  0.62597700  0.66032300  1
  Br  Br11  1  0.68918500  0.37402300  0.33967700  1
  Br  Br12  1  0.31223300  0.85494300  0.66357100  1
  Br  Br13  1  0.68776700  0.14505700  0.33642900  1
  Br  Br14  1  0.02602800  0.86259100  0.57373700  1
  Br  Br15  1  0.97397200  0.13740900  0.42626300  1
  Br  Br16  1  0.76561500  0.74099400  0.90594300  1
  Br  Br17  1  0.23438500  0.25900600  0.09405700  1
  Br  Br18  1  0.68841600  0.74856800  0.59731900  1
  Br  Br19  1  0.31158400  0.25143200  0.40268100  1
  Br  Br20  1  0.03846200  0.44657700  0.70034600  1
  Br  Br21  1  0.96153800  0.55342300  0.29965400  1
  Br  Br22  1  0.40191500  0.72767100  0.81515100  1
  Br  Br23  1  0.59808500  0.27232900  0.18484900  1
  Br  Br24  1  0.04200600  0.03841200  0.70332000  1
  Br  Br25  1  0.95799400  0.96158800  0.29668000  1
  Br  Br26  1  0.66986800  0.23987400  0.70957800  1
  Br  Br27  1  0.33013200  0.76012600  0.29042200  1
  Br  Br28  1  0.39363900  0.41134400  0.74987300  1
  Br  Br29  1  0.60636100  0.58865600  0.25012700  1
  Br  Br30  1  0.13148500  0.24061200  0.78858800  1
  Br  Br31  1  0.86851500  0.75938800  0.21141200  1
  Br  Br32  1  0.39854800  0.06650000  0.74892100  1
  Br  Br33  1  0.60145200  0.93350000  0.25107900  1
  Br  Br34  1  0.60591200  0.24729900  0.52698700  1
  Br  Br35  1  0.39408800  0.75270100  0.47301300  1
  Br  Br36  1  0.34728000  0.40854500  0.56335800  1
  Br  Br37  1  0.65272000  0.59145500  0.43664200  1
  Br  Br38  1  0.08657200  0.24584000  0.60624700  1
  Br  Br39  1  0.91342800  0.75416000  0.39375300  1
  Br  Br40  1  0.35045800  0.08481700  0.56398100  1
  Br  Br41  1  0.64954200  0.91518300  0.43601900  1
  Br  Br42  1  0.43556100  0.23222600  0.87836700  1
  Br  Br43  1  0.56443900  0.76777400  0.12163300  1
  Br  Br44  1  0.69866000  0.04365200  0.61155800  1
  Br  Br45  1  0.30134000  0.95634800  0.38844200  1
  Br  Br46  1  0.69049300  0.44587100  0.61243500  1
  Br  Br47  1  0.30950700  0.55412900  0.38756500  1
  Br  Br48  1  0.71518200  0.42454200  0.85917400  1
  Br  Br49  1  0.28481800  0.57545800  0.14082600  1
  Br  Br50  1  0.68137100  0.50861400  0.04418100  1
  Br  Br51  1  0.31862900  0.49138600  0.95581900  1
  Br  Br52  1  0.87924700  0.29566500  0.99304400  1
  Br  Br53  1  0.12075300  0.70433500  0.00695600  1
  Br  Br54  1  0.39338600  0.93209300  0.92933500  1
  Br  Br55  1  0.60661400  0.06790700  0.07066500  1
  Br  Br56  1  0.10249400  0.08946500  0.94584100  1
  Br  Br57  1  0.89750600  0.91053500  0.05415900  1
  Br  Br58  1  0.22373400  0.97884200  0.11146100  1
  Br  Br59  1  0.77626600  0.02115800  0.88853900  1
loop_
_geom_bond_atom_site_label_1
_geom_bond_atom_site_label_2
_geom_bond_distance
_geom_bond_site_symmetry_2
Br0 W4 2.634578 1_655
Br0 W0 2.641879 1_555
Br0 W2 2.660204 1_555
Br1 W5 2.634578 1_455
Br1 W1 2.641879 1_555
Br1 W3 2.660204 1_555
Br2 W4 2.624956 1_555
Br2 W0 2.647734 1_455
Br2 W6 2.656862 1_555
Br3 W5 2.624956 1_555
Br3 W1 2.647734 1_655
Br3 W7 2.656862 1_555
Br4 W8 2.626980 1_555
Br4 W0 2.647798 1_455
Br4 W6 2.653525 1_555
Br5 W9 2.626980 1_555
Br5 W1 2.647798 1_655
Br5 W7 2.653525 1_555
Br6 W8 2.629017 1_655
Br6 W0 2.642036 1_555
Br6 W2 2.646833 1_555
Br7 W9 2.629017 1_455
Br7 W1 2.642036 1_555
Br7 W3 2.646833 1_555
Br8 W4 2.578289 1_555
Br8 W2 2.583094 1_455
Br9 W5 2.578289 1_555
Br9 W3 2.583094 1_655
Br10 W4 2.570537 1_555
Br10 W6 2.579139 1_555
Br11 W5 2.570537 1_555
Br11 W7 2.579139 1_555
Br12 W8 2.569655 1_555
Br12 W6 2.574033 1_555
Br13 W9 2.569655 1_555
Br13 W7 2.574033 1_555
Br14 W8 2.575830 1_555
Br14 W2 2.576098 1_455
Br15 W9 2.575830 1_555
Br15 W3 2.576098 1_655
Br16 W0 2.597059 1_555
Br17 W1 2.597059 1_555
Br18 W2 2.537265 1_555
Br19 W3 2.537265 1_555
Br20 W16 2.701852 1_555
Br20 W4 2.709804 1_555
Br21 W17 2.701852 1_555
Br21 W5 2.709804 1_555
Br22 W6 2.552181 1_555
Br23 W7 2.552181 1_555
Br24 W18 2.719005 1_555
Br24 W8 2.728767 1_545
Br25 W19 2.719005 1_555
Br25 W9 2.728767 1_565
Br26 W10 2.647536 1_555
Br26 W14 2.656719 1_555
Br26 W12 2.662911 1_555
Br27 W11 2.647536 1_555
Br27 W15 2.656719 1_555
Br27 W13 2.662911 1_555
Br28 W16 2.627752 1_555
Br28 W10 2.640944 1_555
Br28 W14 2.662456 1_555
Br29 W17 2.627752 1_555
Br29 W11 2.640944 1_555
Br29 W15 2.662456 1_555
Br30 W16 2.637000 1_555
Br30 W18 2.641778 1_555
Br30 W10 2.659584 1_555
Br31 W17 2.637000 1_555
Br31 W19 2.641778 1_555
Br31 W11 2.659584 1_555
Br32 W18 2.618563 1_555
Br32 W10 2.650576 1_555
Br32 W12 2.670502 1_555
Br33 W19 2.618563 1_555
Br33 W11 2.650576 1_555
Br33 W13 2.670502 1_555
Br34 W14 2.560947 1_555
Br34 W12 2.564233 1_555
Br35 W15 2.560947 1_555
Br35 W13 2.564233 1_555
Br36 W16 2.571114 1_555
Br36 W14 2.580557 1_555
Br37 W17 2.571114 1_555
Br37 W15 2.580557 1_555
Br38 W18 2.581272 1_555
Br38 W16 2.582987 1_555
Br39 W19 2.581272 1_555
Br39 W17 2.582987 1_555
Br40 W18 2.563601 1_555
Br40 W12 2.578262 1_555
Br41 W19 2.563601 1_555
Br41 W13 2.578262 1_555
Br42 W10 2.590307 1_555
Br43 W11 2.590307 1_555
Br44 W12 2.537199 1_555
Br45 W13 2.537199 1_555
Br46 W14 2.541032 1_555
Br47 W15 2.541032 1_555
Br48 Sb0 2.552984 1_555
Br49 Sb1 2.552984 1_555
Br50 Sb0 2.562680 1_554
Br51 Sb1 2.562680 1_556
Br52 Sb0 2.541782 1_555
Br53 Sb1 2.541782 1_555
Br54 Sb2 2.619926 1_566
Br55 Sb3 2.619926 1_544
Br56 Sb2 2.555634 1_556
Br57 Sb3 2.555634 1_554
Br58 Sb2 2.581285 1_565
Br59 Sb3 2.581285 1_545
