# generated using pymatgen
data_AlPS4
_symmetry_space_group_name_H-M   'P 1'
_cell_length_a   5.66370119
_cell_length_b   5.91293351
_cell_length_c   6.19758758
_cell_angle_alpha   118.49194283
_cell_angle_beta   117.18904657
_cell_angle_gamma   90.00000000
_symmetry_Int_Tables_number   1
_chemical_formula_structural   AlPS4
_chemical_formula_sum   'Al1 P1 S4'
_cell_volume   155.82331247
_cell_formula_units_Z   1
loop_
 _symmetry_equiv_pos_site_id
 _symmetry_equiv_pos_as_xyz
  1  'x, y, z'
loop_
 _atom_site_type_symbol
 _atom_site_label
 _atom_site_symmetry_multiplicity
 _atom_site_fract_x
 _atom_site_fract_y
 _atom_site_fract_z
 _atom_site_occupancy
  Al  Al0  1  0.50000000  0.00000000  -0.00000000  1
  P  P0  1  -0.00000000  0.00000000  -0.00000000  1
  S  S0  1  0.10157143  0.68282538  0.75708577  1
  S  S1  1  0.65551434  0.07426039  0.75708577  1
  S  S2  1  0.34448566  0.31717462  0.24291423  1
  S  S3  1  0.89842857  0.92573961  0.24291423  1
loop_
_geom_bond_atom_site_label_1
_geom_bond_atom_site_label_2
_geom_bond_distance
_geom_bond_site_symmetry_2
Al0 S2 2.253339 1_555
Al0 S0 2.253339 1_544
Al0 S1 2.253340 1_554
Al0 S3 2.253340 1_545
P0 S0 2.052404 1_544
P0 S2 2.052404 1_555
P0 S3 2.052404 1_445
P0 S1 2.052404 1_454
