# generated using pymatgen
data_Ce(BIr)4
_symmetry_space_group_name_H-M   'P 1'
_cell_length_a   3.95402285
_cell_length_b   7.69538070
_cell_length_c   7.69538070
_cell_angle_alpha   90.00000000
_cell_angle_beta   90.00000000
_cell_angle_gamma   90.00000000
_symmetry_Int_Tables_number   1
_chemical_formula_structural   Ce(BIr)4
_chemical_formula_sum   'Ce2 B8 Ir8'
_cell_volume   234.15282095
_cell_formula_units_Z   2
loop_
 _symmetry_equiv_pos_site_id
 _symmetry_equiv_pos_as_xyz
  1  'x, y, z'
loop_
 _atom_site_type_symbol
 _atom_site_label
 _atom_site_symmetry_multiplicity
 _atom_site_fract_x
 _atom_site_fract_y
 _atom_site_fract_z
 _atom_site_occupancy
  Ce  Ce0  1  0.25000000  0.25000000  0.25000000  1
  Ce  Ce1  1  0.75000000  0.75000000  0.75000000  1
  B  B0  1  0.35849638  0.90839176  0.02919867  1
  B  B1  1  0.35849638  0.59160824  0.47080133  1
  B  B2  1  0.85849638  0.52919867  0.09160824  1
  B  B3  1  0.85849638  0.97080133  0.40839176  1
  B  B4  1  0.64150362  0.09160824  0.97080133  1
  B  B5  1  0.64150362  0.40839176  0.52919867  1
  B  B6  1  0.14150362  0.47080133  0.90839176  1
  B  B7  1  0.14150362  0.02919867  0.59160824  1
  Ir  Ir0  1  0.14016671  0.41104915  0.64149578  1
  Ir  Ir1  1  0.14016671  0.08895085  0.85850422  1
  Ir  Ir2  1  0.64016671  0.14149578  0.58895085  1
  Ir  Ir3  1  0.64016671  0.35850422  0.91104915  1
  Ir  Ir4  1  0.85983329  0.58895085  0.35850422  1
  Ir  Ir5  1  0.85983329  0.91104915  0.14149578  1
  Ir  Ir6  1  0.35983329  0.85850422  0.41104915  1
  Ir  Ir7  1  0.35983329  0.64149578  0.08895085  1
loop_
_geom_bond_atom_site_label_1
_geom_bond_atom_site_label_2
_geom_bond_distance
_geom_bond_site_symmetry_2
Ce0 Ir5 3.143362 1_445
Ce0 Ir4 3.143362 1_455
Ce0 Ir2 3.143362 1_555
Ce0 Ir3 3.143362 1_554
Ce0 Ir1 3.286483 1_554
Ce0 Ir6 3.286483 1_545
Ce0 Ir7 3.286483 1_555
Ce0 Ir0 3.286483 1_555
Ce1 Ir0 3.143362 1_655
Ce1 Ir1 3.143362 1_665
Ce1 Ir6 3.143362 1_555
Ce1 Ir7 3.143362 1_556
Ce1 Ir4 3.286483 1_555
Ce1 Ir3 3.286483 1_555
Ce1 Ir2 3.286483 1_565
Ce1 Ir5 3.286483 1_556
B0 B4 1.855270 1_564
B0 Ir1 2.097932 1_564
B0 Ir7 2.104715 1_555
B0 Ir5 2.152883 1_455
B0 Ir5 2.162570 1_555
B0 Ce1 2.915176 1_554
B0 Ce0 3.159394 1_565
B0 Ce1 3.448301 1_454
B1 B5 1.855270 1_555
B1 Ir0 2.097932 1_555
B1 Ir6 2.104715 1_555
B1 Ir4 2.152883 1_455
B1 Ir4 2.162570 1_555
B1 Ce1 2.915176 1_555
B1 Ce0 3.159394 1_555
B1 Ce1 3.448301 1_455
B2 B6 1.855270 1_654
B2 Ir3 2.097932 1_554
B2 Ir4 2.104715 1_555
B2 Ir7 2.152883 1_555
B2 Ir7 2.162570 1_655
B2 Ce0 2.915176 1_655
B2 Ce1 3.159394 1_554
B2 Ce0 3.448301 1_555
B3 B7 1.855270 1_665
B3 Ir2 2.097932 1_565
B3 Ir5 2.104715 1_555
B3 Ir6 2.152883 1_555
B3 Ir6 2.162570 1_655
B3 Ce0 2.915176 1_665
B3 Ce1 3.159394 1_555
B3 Ce0 3.448301 1_565
B4 Ir5 2.097932 1_546
B4 Ir3 2.104715 1_555
B4 Ir1 2.152883 1_655
B4 Ir1 2.162570 1_555
B4 Ce0 2.915176 1_556
B4 Ce1 3.159394 1_545
B4 Ce0 3.448301 1_656
B5 Ir4 2.097932 1_555
B5 Ir2 2.104715 1_555
B5 Ir0 2.152883 1_655
B5 Ir0 2.162570 1_555
B5 Ce0 2.915176 1_555
B5 Ce1 3.159394 1_555
B5 Ce0 3.448301 1_655
B6 Ir7 2.097932 1_556
B6 Ir0 2.104715 1_555
B6 Ir3 2.152883 1_555
B6 Ir3 2.162570 1_455
B6 Ce1 2.915176 1_455
B6 Ce0 3.159394 1_556
B6 Ce1 3.448301 1_555
B7 Ir6 2.097932 1_545
B7 Ir1 2.104715 1_555
B7 Ir2 2.152883 1_555
B7 Ir2 2.162570 1_455
B7 Ce1 2.915176 1_445
B7 Ce0 3.159394 1_555
B7 Ce1 3.448301 1_545
