# generated using pymatgen
data_CaZnSiO5
_symmetry_space_group_name_H-M   'P 1'
_cell_length_a   8.48034238
_cell_length_b   8.48034238
_cell_length_c   5.43896175
_cell_angle_alpha   85.98801063
_cell_angle_beta   85.98801063
_cell_angle_gamma   145.27537339
_symmetry_Int_Tables_number   1
_chemical_formula_structural   CaZnSiO5
_chemical_formula_sum   'Ca2 Zn2 Si2 O10'
_cell_volume   216.60102620
_cell_formula_units_Z   2
loop_
 _symmetry_equiv_pos_site_id
 _symmetry_equiv_pos_as_xyz
  1  'x, y, z'
loop_
 _atom_site_type_symbol
 _atom_site_label
 _atom_site_symmetry_multiplicity
 _atom_site_fract_x
 _atom_site_fract_y
 _atom_site_fract_z
 _atom_site_occupancy
  Ca  Ca0  1  0.23699800  0.09244500  0.11819200  1
  Ca  Ca1  1  0.09244500  0.23699800  0.61819200  1
  Zn  Zn0  1  0.76294900  0.25963400  0.99524300  1
  Zn  Zn1  1  0.25963400  0.76294900  0.49524300  1
  Si  Si0  1  0.64544800  0.36982100  0.51088900  1
  Si  Si1  1  0.36982100  0.64544800  0.01088900  1
  O  O0  1  0.81027400  0.86666100  0.34495300  1
  O  O1  1  0.86666100  0.81027400  0.84495300  1
  O  O2  1  0.69378500  0.98237100  0.92307700  1
  O  O3  1  0.98237100  0.69378500  0.42307700  1
  O  O4  1  0.58611100  0.17247200  0.33952700  1
  O  O5  1  0.17247200  0.58611100  0.83952700  1
  O  O6  1  0.54863800  0.22721700  0.80880800  1
  O  O7  1  0.22721700  0.54863800  0.30880800  1
  O  O8  1  0.44078100  0.34639600  0.44331200  1
  O  O9  1  0.34639600  0.44078100  0.94331200  1
loop_
_geom_bond_atom_site_label_1
_geom_bond_atom_site_label_2
_geom_bond_distance
_geom_bond_site_symmetry_2
Ca0 O6 2.294729 1_554
Ca0 O9 2.338812 1_554
Ca0 O3 2.357237 1_445
Ca0 O8 2.365191 1_555
Ca0 O0 2.436803 1_445
Ca0 O1 2.568121 1_444
Ca0 O4 2.825810 1_555
Ca1 O7 2.294729 1_555
Ca1 O8 2.338812 1_555
Ca1 O2 2.357237 1_445
Ca1 O9 2.365191 1_555
Ca1 O1 2.436803 1_445
Ca1 O0 2.568121 1_445
Ca1 O5 2.825810 1_555
O2 Si1 1.631473 1_556
O2 Zn0 1.980153 1_565
O3 Si0 1.631473 1_555
O3 Zn1 1.980153 1_655
O4 Si0 1.679989 1_555
O4 Zn0 1.973065 1_554
O4 Zn1 1.974468 1_545
O5 Si1 1.679989 1_556
O5 Zn1 1.973065 1_555
O5 Zn0 1.974468 1_455
O6 Si0 1.633926 1_555
O6 Zn0 1.970394 1_555
O7 Si1 1.633926 1_555
O7 Zn1 1.970394 1_555
O8 Si0 1.649164 1_555
O9 Si1 1.649164 1_556
