# generated using pymatgen
data_ScCo5P3
_symmetry_space_group_name_H-M   'P 1'
_cell_length_a   3.57909000
_cell_length_b   10.16641700
_cell_length_c   11.61734800
_cell_angle_alpha   90.00000000
_cell_angle_beta   90.00000000
_cell_angle_gamma   90.00000000
_symmetry_Int_Tables_number   1
_chemical_formula_structural   ScCo5P3
_chemical_formula_sum   'Sc4 Co20 P12'
_cell_volume   422.71488185
_cell_formula_units_Z   4
loop_
 _symmetry_equiv_pos_site_id
 _symmetry_equiv_pos_as_xyz
  1  'x, y, z'
loop_
 _atom_site_type_symbol
 _atom_site_label
 _atom_site_symmetry_multiplicity
 _atom_site_fract_x
 _atom_site_fract_y
 _atom_site_fract_z
 _atom_site_occupancy
  Sc  Sc0  1  0.25000000  0.58223700  0.70323600  1
  Sc  Sc1  1  0.25000000  0.91776300  0.20323600  1
  Sc  Sc2  1  0.75000000  0.41776300  0.29676400  1
  Sc  Sc3  1  0.75000000  0.08223700  0.79676400  1
  Co  Co0  1  0.25000000  0.71774800  0.99091900  1
  Co  Co1  1  0.25000000  0.78225200  0.49091900  1
  Co  Co2  1  0.75000000  0.28225200  0.00908100  1
  Co  Co3  1  0.75000000  0.21774800  0.50908100  1
  Co  Co4  1  0.25000000  0.40826800  0.48559700  1
  Co  Co5  1  0.25000000  0.09173200  0.98559700  1
  Co  Co6  1  0.75000000  0.59173200  0.51440300  1
  Co  Co7  1  0.75000000  0.90826800  0.01440300  1
  Co  Co8  1  0.25000000  0.22099100  0.17655500  1
  Co  Co9  1  0.25000000  0.27901000  0.67655500  1
  Co  Co10  1  0.75000000  0.77901000  0.82344500  1
  Co  Co11  1  0.75000000  0.72099000  0.32344500  1
  Co  Co12  1  0.25000000  0.88328900  0.69921500  1
  Co  Co13  1  0.25000000  0.61671100  0.19921500  1
  Co  Co14  1  0.75000000  0.11671100  0.30078500  1
  Co  Co15  1  0.75000000  0.38328900  0.80078500  1
  Co  Co16  1  0.25000000  0.46680400  0.93118300  1
  Co  Co17  1  0.25000000  0.03319600  0.43118300  1
  Co  Co18  1  0.75000000  0.53319600  0.06881700  1
  Co  Co19  1  0.75000000  0.96680400  0.56881700  1
  P  P0  1  0.25000000  0.41832700  0.11421600  1
  P  P1  1  0.25000000  0.08167300  0.61421600  1
  P  P2  1  0.75000000  0.58167300  0.88578400  1
  P  P3  1  0.75000000  0.91832700  0.38578400  1
  P  P4  1  0.25000000  0.26651100  0.86907200  1
  P  P5  1  0.25000000  0.23348900  0.36907200  1
  P  P6  1  0.75000000  0.73348900  0.13092800  1
  P  P7  1  0.75000000  0.76651100  0.63092800  1
  P  P8  1  0.25000000  0.59847300  0.38942400  1
  P  P9  1  0.25000000  0.90152700  0.88942400  1
  P  P10  1  0.75000000  0.40152700  0.61057600  1
  P  P11  1  0.75000000  0.09847300  0.11057600  1
loop_
_geom_bond_atom_site_label_1
_geom_bond_atom_site_label_2
_geom_bond_distance
_geom_bond_site_symmetry_2
Co0 P9 2.209322 1_555
Co0 P6 2.423570 1_456
Co0 P6 2.423570 1_556
Co0 P2 2.570612 1_555
Co0 P2 2.570612 1_455
Co0 Sc1 3.196683 1_556
Co1 P8 2.209322 1_555
Co1 P7 2.423570 1_555
Co1 P7 2.423570 1_455
Co1 P3 2.570612 1_555
Co1 P3 2.570612 1_455
Co1 Sc0 3.196683 1_555
Co2 P11 2.209322 1_555
Co2 P4 2.423570 1_554
Co2 P4 2.423570 1_654
Co2 P0 2.570612 1_555
Co2 P0 2.570612 1_655
Co2 Sc3 3.196683 1_554
Co3 P10 2.209322 1_555
Co3 P5 2.423570 1_555
Co3 P5 2.423570 1_655
Co3 P1 2.570612 1_655
Co3 P1 2.570612 1_555
Co3 Sc2 3.196683 1_555
Co4 P8 2.233274 1_555
Co4 P5 2.233791 1_555
Co4 P10 2.305483 1_555
Co4 P10 2.305483 1_455
Co4 Sc2 2.832716 1_455
Co4 Sc2 2.832716 1_555
Co4 Sc0 3.085586 1_555
Co5 P9 2.233274 1_545
Co5 P4 2.233791 1_555
Co5 P11 2.305483 1_456
Co5 P11 2.305483 1_556
Co5 Sc3 2.832716 1_455
Co5 Sc3 2.832716 1_555
Co5 Sc1 3.085586 1_546
Co6 P10 2.233274 1_555
Co6 P7 2.233791 1_555
Co6 P8 2.305483 1_655
Co6 P8 2.305483 1_555
Co6 Sc0 2.832716 1_555
Co6 Sc0 2.832716 1_655
Co6 Sc2 3.085586 1_555
Co7 P11 2.233274 1_565
Co7 P6 2.233791 1_555
Co7 P9 2.305483 1_654
Co7 P9 2.305483 1_554
Co7 Sc1 2.832716 1_555
Co7 Sc1 2.832716 1_655
Co7 Sc3 3.085586 1_564
Co8 P0 2.132915 1_555
Co8 P5 2.240143 1_555
Co8 P11 2.311155 1_455
Co8 P11 2.311155 1_555
Co8 Sc2 3.025653 1_455
Co8 Sc2 3.025653 1_555
Co8 Sc1 3.098286 1_545
Co9 P1 2.132924 1_555
Co9 P4 2.240144 1_555
Co9 P10 2.311150 1_455
Co9 P10 2.311150 1_555
Co9 Sc3 3.025660 1_555
Co9 Sc3 3.025660 1_455
Co9 Sc0 3.098276 1_555
Co10 P2 2.132924 1_555
Co10 P7 2.240144 1_555
Co10 P9 2.311150 1_655
Co10 P9 2.311150 1_555
Co10 Sc0 3.025660 1_655
Co10 Sc0 3.025660 1_555
Co10 Sc3 3.098276 1_565
Co11 P3 2.132924 1_555
Co11 P6 2.240144 1_555
Co11 P8 2.311150 1_555
Co11 P8 2.311150 1_655
Co11 Sc1 3.025660 1_555
Co11 Sc1 3.025660 1_655
Co11 Sc2 3.098276 1_555
Co12 P9 2.217489 1_555
Co12 P1 2.245615 1_565
Co12 P7 2.289387 1_455
Co12 P7 2.289387 1_555
Co12 Sc3 2.928756 1_465
Co12 Sc3 2.928756 1_565
Co12 Sc0 3.060977 1_555
Co13 P8 2.217489 1_555
Co13 P0 2.245615 1_555
Co13 P6 2.289387 1_555
Co13 P6 2.289387 1_455
Co13 Sc2 2.928756 1_455
Co13 Sc2 2.928756 1_555
Co13 Sc1 3.060977 1_555
Co14 P11 2.217489 1_555
Co14 P3 2.245615 1_545
Co14 P5 2.289387 1_655
Co14 P5 2.289387 1_555
Co14 Sc1 2.928756 1_545
Co14 Sc1 2.928756 1_645
Co14 Sc2 3.060977 1_555
Co15 P10 2.217489 1_555
Co15 P2 2.245615 1_555
Co15 P4 2.289387 1_655
Co15 P4 2.289387 1_555
Co15 Sc0 2.928756 1_655
Co15 Sc0 2.928756 1_555
Co15 Sc3 3.060977 1_555
Co16 P4 2.160329 1_555
Co16 P0 2.182725 1_556
Co16 P2 2.201002 1_555
Co16 P2 2.201002 1_455
Co16 Sc0 2.896522 1_555
Co17 P5 2.160329 1_555
Co17 P1 2.182725 1_555
Co17 P3 2.201002 1_445
Co17 P3 2.201002 1_545
Co17 Sc1 2.896522 1_545
Co18 P6 2.160329 1_555
Co18 P2 2.182725 1_554
Co18 P0 2.201002 1_655
Co18 P0 2.201002 1_555
Co18 Sc2 2.896522 1_555
Co19 P7 2.160329 1_555
Co19 P3 2.182725 1_555
Co19 P1 2.201002 1_565
Co19 P1 2.201002 1_665
Co19 Sc3 2.896522 1_565
P0 Sc2 2.774883 1_455
P0 Sc2 2.774883 1_555
P1 Sc3 2.774883 1_555
P1 Sc3 2.774883 1_455
P2 Sc0 2.774883 1_655
P2 Sc0 2.774883 1_555
P3 Sc1 2.774883 1_555
P3 Sc1 2.774883 1_655
P4 Sc3 2.723558 1_455
P4 Sc3 2.723558 1_555
P5 Sc2 2.723558 1_455
P5 Sc2 2.723558 1_555
P6 Sc1 2.723558 1_655
P6 Sc1 2.723558 1_555
P7 Sc0 2.723558 1_555
P7 Sc0 2.723558 1_655
P8 Sc2 2.781448 1_555
P8 Sc2 2.781448 1_455
P9 Sc3 2.781448 1_565
P9 Sc3 2.781448 1_465
P10 Sc0 2.781448 1_555
P10 Sc0 2.781448 1_655
P11 Sc1 2.781448 1_545
P11 Sc1 2.781448 1_645
