# generated using pymatgen
data_TbHoCo4
_symmetry_space_group_name_H-M   'P 1'
_cell_length_a   5.05001631
_cell_length_b   5.05001631
_cell_length_c   5.05001631
_cell_angle_alpha   60.00000000
_cell_angle_beta   60.00000000
_cell_angle_gamma   60.00000000
_symmetry_Int_Tables_number   1
_chemical_formula_structural   TbHoCo4
_chemical_formula_sum   'Tb1 Ho1 Co4'
_cell_volume   91.06748549
_cell_formula_units_Z   1
loop_
 _symmetry_equiv_pos_site_id
 _symmetry_equiv_pos_as_xyz
  1  'x, y, z'
loop_
 _atom_site_type_symbol
 _atom_site_label
 _atom_site_symmetry_multiplicity
 _atom_site_fract_x
 _atom_site_fract_y
 _atom_site_fract_z
 _atom_site_occupancy
  Tb  Tb0  1  0.25000000  0.25000000  0.25000000  1
  Ho  Ho0  1  0.00000000  -0.00000000  -0.00000000  1
  Co  Co0  1  0.12472292  0.62509303  0.62509303  1
  Co  Co1  1  0.62509303  0.12472292  0.62509303  1
  Co  Co2  1  0.62509303  0.62509303  0.12472292  1
  Co  Co3  1  0.62509303  0.62509303  0.62509303  1
loop_
_geom_bond_atom_site_label_1
_geom_bond_atom_site_label_2
_geom_bond_distance
_geom_bond_site_symmetry_2
Ho0 Tb0 3.092491 1_455
Ho0 Tb0 3.092491 1_555
Ho0 Tb0 3.092491 1_545
Ho0 Tb0 3.092491 1_554
Co0 Co2 2.523139 1_456
Co0 Co1 2.523139 1_465
Co0 Co3 2.523139 1_455
Co0 Co1 2.526877 1_555
Co0 Co2 2.526877 1_555
Co0 Co3 2.526877 1_555
Co0 Ho0 2.960630 1_566
Co0 Ho0 2.960639 1_556
Co0 Ho0 2.960639 1_565
Co0 Tb0 2.961031 1_556
Co0 Tb0 2.961031 1_565
Co0 Tb0 2.961039 1_555
Co1 Co3 2.523139 1_545
Co1 Co2 2.523139 1_546
Co1 Co2 2.526877 1_555
Co1 Co3 2.526877 1_555
Co1 Ho0 2.960630 1_656
Co1 Ho0 2.960639 1_556
Co1 Ho0 2.960639 1_655
Co1 Tb0 2.961031 1_556
Co1 Tb0 2.961031 1_655
Co1 Tb0 2.961039 1_555
Co2 Co3 2.523139 1_554
Co2 Co3 2.526877 1_555
Co2 Ho0 2.960630 1_665
Co2 Ho0 2.960639 1_565
Co2 Ho0 2.960639 1_655
Co2 Tb0 2.961031 1_565
Co2 Tb0 2.961031 1_655
Co2 Tb0 2.961039 1_555
Co3 Ho0 2.960634 1_665
Co3 Ho0 2.960634 1_656
Co3 Ho0 2.960634 1_566
Co3 Tb0 2.961035 1_556
Co3 Tb0 2.961035 1_565
Co3 Tb0 2.961035 1_655
