# generated using pymatgen
data_Te3MoWSe
_symmetry_space_group_name_H-M   'P 1'
_cell_length_a   3.49653823
_cell_length_b   3.49653823
_cell_length_c   39.63505000
_cell_angle_alpha   90.00000000
_cell_angle_beta   90.00000000
_cell_angle_gamma   120.00000437
_symmetry_Int_Tables_number   1
_chemical_formula_structural   Te3MoWSe
_chemical_formula_sum   'Te6 Mo2 W2 Se2'
_cell_volume   419.64937948
_cell_formula_units_Z   2
loop_
 _symmetry_equiv_pos_site_id
 _symmetry_equiv_pos_as_xyz
  1  'x, y, z'
loop_
 _atom_site_type_symbol
 _atom_site_label
 _atom_site_symmetry_multiplicity
 _atom_site_fract_x
 _atom_site_fract_y
 _atom_site_fract_z
 _atom_site_occupancy
  Te  Te0  1  0.00000000  0.00000000  0.70406400  1
  Te  Te1  1  0.33333300  0.66666700  0.04768300  1
  Te  Te2  1  0.33333300  0.66666700  0.42341600  1
  Te  Te3  1  0.33333300  0.66666700  0.14017200  1
  Te  Te4  1  0.33333300  0.66666700  0.51589500  1
  Te  Te5  1  0.00000000  0.00000000  0.61100800  1
  Mo  Mo0  1  0.00000000  0.00000000  0.09392100  1
  Mo  Mo1  1  0.00000000  0.00000000  0.46964400  1
  W  W0  1  0.33333300  0.66666700  0.28179700  1
  W  W1  1  0.33333300  0.66666700  0.65755200  1
  Se  Se0  1  0.00000000  0.00000000  0.32276100  1
  Se  Se1  1  0.00000000  0.00000000  0.24083500  1
loop_
_geom_bond_atom_site_label_1
_geom_bond_atom_site_label_2
_geom_bond_distance
_geom_bond_site_symmetry_2
Te0 W1 2.733819 1_545
Te0 W1 2.733821 1_445
Te0 W1 2.733821 1_555
Te5 W1 2.734674 1_545
Te5 W1 2.734676 1_445
Te5 W1 2.734676 1_555
Mo0 Te1 2.726507 1_545
Mo0 Te1 2.726509 1_445
Mo0 Te1 2.726509 1_555
Mo0 Te3 2.726854 1_545
Mo0 Te3 2.726856 1_555
Mo0 Te3 2.726856 1_445
Mo1 Te2 2.726241 1_545
Mo1 Te2 2.726243 1_555
Mo1 Te2 2.726243 1_445
Mo1 Te4 2.726854 1_545
Mo1 Te4 2.726856 1_445
Mo1 Te4 2.726856 1_555
Se0 W0 2.590630 1_545
Se0 W0 2.590632 1_445
Se0 W0 2.590632 1_555
Se1 W0 2.590580 1_545
Se1 W0 2.590582 1_445
Se1 W0 2.590582 1_555
