# generated using pymatgen
data_SrNdNiO4
_symmetry_space_group_name_H-M   'P 1'
_cell_length_a   6.79048696
_cell_length_b   6.79048696
_cell_length_c   5.40911500
_cell_angle_alpha   90.00000000
_cell_angle_beta   90.00000000
_cell_angle_gamma   133.18976843
_symmetry_Int_Tables_number   1
_chemical_formula_structural   SrNdNiO4
_chemical_formula_sum   'Sr2 Nd2 Ni2 O8'
_cell_volume   181.84849320
_cell_formula_units_Z   2
loop_
 _symmetry_equiv_pos_site_id
 _symmetry_equiv_pos_as_xyz
  1  'x, y, z'
loop_
 _atom_site_type_symbol
 _atom_site_label
 _atom_site_symmetry_multiplicity
 _atom_site_fract_x
 _atom_site_fract_y
 _atom_site_fract_z
 _atom_site_occupancy
  Sr  Sr0  1  0.89409900  0.10590100  0.25000000  1
  Sr  Sr1  1  0.10590100  0.89409900  0.75000000  1
  Nd  Nd0  1  0.38542500  0.61457500  0.75000000  1
  Nd  Nd1  1  0.61457500  0.38542500  0.25000000  1
  Ni  Ni0  1  0.24969400  0.75030600  0.25000000  1
  Ni  Ni1  1  0.75030600  0.24969400  0.75000000  1
  O  O0  1  0.57461100  0.42538900  0.75000000  1
  O  O1  1  0.08867100  0.91132900  0.25000000  1
  O  O2  1  0.42538900  0.57461100  0.25000000  1
  O  O3  1  0.91132900  0.08867100  0.75000000  1
  O  O4  1  0.00000000  0.50000000  0.00000000  1
  O  O5  1  0.50000000  0.00000000  0.50000000  1
  O  O6  1  0.00000000  0.50000000  0.50000000  1
  O  O7  1  0.50000000  0.00000000  0.00000000  1
loop_
_geom_bond_atom_site_label_1
_geom_bond_atom_site_label_2
_geom_bond_distance
_geom_bond_site_symmetry_2
Nd0 O0 2.357923 1_555
Nd0 O7 2.548831 1_566
Nd0 O4 2.548831 1_556
Nd0 O5 2.548831 1_565
Nd0 O6 2.548831 1_555
Nd0 O3 2.716637 1_565
Nd0 O3 2.716637 1_455
Nd0 O2 2.750041 1_555
Nd0 O2 2.750041 1_556
Nd1 O2 2.357923 1_555
Nd1 O7 2.548831 1_555
Nd1 O5 2.548831 1_555
Nd1 O4 2.548831 1_655
Nd1 O6 2.548831 1_655
Nd1 O1 2.716637 1_655
Nd1 O1 2.716637 1_545
Nd1 O0 2.750041 1_554
Nd1 O0 2.750041 1_555
Ni0 O6 1.909880 1_555
Ni0 O4 1.909880 1_555
Ni0 O7 1.909880 1_565
Ni0 O5 1.909880 1_565
Ni0 O1 2.006913 1_555
Ni0 O2 2.189778 1_555
Ni1 O7 1.909880 1_556
Ni1 O6 1.909880 1_655
Ni1 O4 1.909880 1_656
Ni1 O5 1.909880 1_555
Ni1 O3 2.006913 1_555
Ni1 O0 2.189778 1_555
O0 Sr1 2.725430 1_545
O0 Sr1 2.725430 1_655
O1 Sr0 2.425052 1_465
O1 Sr1 2.713070 1_555
O1 Sr1 2.713070 1_554
O2 Sr0 2.725430 1_455
O2 Sr0 2.725430 1_565
O3 Sr1 2.425052 1_645
O3 Sr0 2.713070 1_555
O3 Sr0 2.713070 1_556
O4 Sr1 2.621674 1_554
O4 Sr0 2.621674 1_455
O5 Sr0 2.621674 1_555
O5 Sr1 2.621674 1_545
O6 Sr1 2.621674 1_555
O6 Sr0 2.621674 1_455
O7 Sr0 2.621674 1_555
O7 Sr1 2.621674 1_544
