# generated using pymatgen
data_Li9Mn2Co5O16
_symmetry_space_group_name_H-M   'P 1'
_cell_length_a   5.17719600
_cell_length_b   6.43493684
_cell_length_c   8.56241663
_cell_angle_alpha   96.78575970
_cell_angle_beta   94.23957429
_cell_angle_gamma   95.76079382
_symmetry_Int_Tables_number   1
_chemical_formula_structural   Li9Mn2Co5O16
_chemical_formula_sum   'Li9 Mn2 Co5 O16'
_cell_volume   280.76305552
_cell_formula_units_Z   1
loop_
 _symmetry_equiv_pos_site_id
 _symmetry_equiv_pos_as_xyz
  1  'x, y, z'
loop_
 _atom_site_type_symbol
 _atom_site_label
 _atom_site_symmetry_multiplicity
 _atom_site_fract_x
 _atom_site_fract_y
 _atom_site_fract_z
 _atom_site_occupancy
  Li  Li0  1  0.75043800  0.55834400  0.94259300  1
  Li  Li1  1  0.25026600  0.93384400  0.56606200  1
  Li  Li2  1  0.74721900  0.31366600  0.18473700  1
  Li  Li3  1  0.25353100  0.43310300  0.05627200  1
  Li  Li4  1  0.74649800  0.82454900  0.69083800  1
  Li  Li5  1  0.25069100  0.18458700  0.31004000  1
  Li  Li6  1  0.25654900  0.69405100  0.81437100  1
  Li  Li7  1  0.74448200  0.05867000  0.43460400  1
  Li  Li8  1  0.50020000  0.12546100  0.87505700  1
  Mn  Mn0  1  0.99968900  0.00147500  0.99882600  1
  Mn  Mn1  1  0.50010900  0.37351100  0.62724800  1
  Co  Co0  1  0.99965300  0.74985600  0.24996600  1
  Co  Co1  1  0.99884800  0.49979900  0.49994000  1
  Co  Co2  1  0.49985800  0.87629100  0.12264400  1
  Co  Co3  1  0.00051300  0.24884400  0.75076100  1
  Co  Co4  1  0.50014800  0.62625900  0.37386800  1
  O  O0  1  0.10645600  0.72756900  0.03972200  1
  O  O1  1  0.64769100  0.12048000  0.65829900  1
  O  O2  1  0.10575800  0.48215800  0.29314600  1
  O  O3  1  0.60692800  0.60482400  0.16386300  1
  O  O4  1  0.10572300  0.97825400  0.78934000  1
  O  O5  1  0.60561700  0.35803100  0.41066100  1
  O  O6  1  0.64596300  0.85650100  0.92645700  1
  O  O7  1  0.14523700  0.24068400  0.54391500  1
  O  O8  1  0.35318800  0.39751700  0.82459300  1
  O  O9  1  0.89357800  0.76835900  0.46017200  1
  O  O10  1  0.35356600  0.12760500  0.08805400  1
  O  O11  1  0.89340100  0.26825000  0.96265300  1
  O  O12  1  0.39577700  0.64842900  0.58716500  1
  O  O13  1  0.89271500  0.01932900  0.21525900  1
  O  O14  1  0.85841200  0.50952000  0.70308200  1
  O  O15  1  0.39129800  0.89018000  0.33579100  1
loop_
_geom_bond_atom_site_label_1
_geom_bond_atom_site_label_2
_geom_bond_distance
_geom_bond_site_symmetry_2
Li0 O6 2.062203 1_555
Li0 O3 2.085626 1_556
Li0 O11 2.096752 1_555
Li0 O0 2.105036 1_656
Li0 O14 2.160889 1_555
Li0 O8 2.310851 1_555
Li1 O12 2.075916 1_555
Li1 O4 2.102852 1_555
Li1 O9 2.120294 1_455
Li1 O7 2.125803 1_565
Li1 O15 2.150046 1_555
Li1 O1 2.310657 1_565
Li2 O11 2.097623 1_554
Li2 O3 2.098313 1_555
Li2 O5 2.117131 1_555
Li2 O2 2.141532 1_655
Li2 O13 2.144148 1_555
Li2 O10 2.301915 1_555
Li3 O8 2.078828 1_554
Li3 O11 2.103603 1_454
Li3 O10 2.125289 1_555
Li3 O3 2.126395 1_555
Li3 O0 2.127804 1_555
Li3 O2 2.219280 1_555
Li4 O1 2.065312 1_565
Li4 O4 2.085684 1_655
Li4 O6 2.112363 1_555
Li4 O12 2.116648 1_555
Li4 O9 2.172624 1_555
Li4 O14 2.175601 1_555
Li5 O10 2.013728 1_555
Li5 O13 2.098161 1_455
Li5 O7 2.113979 1_555
Li5 O5 2.119299 1_555
Li5 O15 2.125902 1_545
Li5 O2 2.142066 1_555
Li6 O8 2.030707 1_555
Li6 O4 2.086828 1_555
Li6 O12 2.122572 1_555
Li6 O0 2.128495 1_556
Li6 O6 2.265424 1_555
Li6 O14 2.348951 1_455
Li7 O1 2.019862 1_555
Li7 O13 2.078494 1_555
Li7 O15 2.095543 1_545
Li7 O9 2.120100 1_545
Li7 O5 2.149267 1_555
Li7 O7 2.349164 1_655
Li8 O10 2.025710 1_556
Li8 O6 2.037582 1_545
Li8 O8 2.056317 1_555
Li8 O1 2.056483 1_555
Li8 O11 2.187853 1_555
Li8 O4 2.198324 1_545
Mn0 O11 1.906781 1_555
Mn0 O4 1.907822 1_645
Mn0 O0 1.961535 1_646
Mn0 O13 1.966836 1_556
Mn0 O10 1.986708 1_656
Mn0 O6 1.990127 1_545
Mn1 O8 1.899902 1_555
Mn1 O1 1.904640 1_555
Mn1 O12 1.961402 1_555
Mn1 O5 1.965843 1_555
Mn1 O7 1.990466 1_555
Mn1 O14 1.997585 1_555
Co0 O9 1.914140 1_555
Co0 O0 1.915490 1_655
Co0 O13 1.921434 1_565
Co0 O2 1.927776 1_655
Co0 O15 2.173012 1_655
Co0 O3 2.187083 1_555
Co1 O2 1.887984 1_655
Co1 O9 1.923600 1_555
Co1 O14 1.930907 1_555
Co1 O7 1.963723 1_655
Co1 O5 2.189403 1_555
Co1 O12 2.214768 1_655
Co2 O6 1.888619 1_554
Co2 O10 1.898040 1_565
Co2 O15 1.943680 1_555
Co2 O3 1.947964 1_555
Co2 O0 2.191470 1_555
Co2 O13 2.196822 1_565
Co3 O11 1.929751 1_455
Co3 O4 1.933238 1_545
Co3 O7 1.970554 1_555
Co3 O14 1.971508 1_455
Co3 O1 1.993591 1_455
Co3 O8 1.996111 1_555
Co4 O15 1.898410 1_555
Co4 O3 1.913544 1_555
Co4 O5 1.915424 1_555
Co4 O12 1.935886 1_555
Co4 O2 2.183220 1_555
Co4 O9 2.185154 1_555
