# generated using pymatgen
data_Eu2MoO6
_symmetry_space_group_name_H-M   'P 1'
_cell_length_a   5.43489506
_cell_length_b   10.02527782
_cell_length_c   10.02527782
_cell_angle_alpha   68.19235588
_cell_angle_beta   75.41298089
_cell_angle_gamma   75.41298089
_symmetry_Int_Tables_number   1
_chemical_formula_structural   Eu2MoO6
_chemical_formula_sum   'Eu8 Mo4 O24'
_cell_volume   483.12606040
_cell_formula_units_Z   4
loop_
 _symmetry_equiv_pos_site_id
 _symmetry_equiv_pos_as_xyz
  1  'x, y, z'
loop_
 _atom_site_type_symbol
 _atom_site_label
 _atom_site_symmetry_multiplicity
 _atom_site_fract_x
 _atom_site_fract_y
 _atom_site_fract_z
 _atom_site_occupancy
  Eu  Eu0  1  0.25000000  0.36686516  0.63313484  1
  Eu  Eu1  1  0.75000000  0.63313484  0.36686516  1
  Eu  Eu2  1  0.25000000  0.88734067  0.11265933  1
  Eu  Eu3  1  0.75000000  0.11265933  0.88734067  1
  Eu  Eu4  1  0.38762001  0.94661192  0.71044031  1
  Eu  Eu5  1  0.61237999  0.05338808  0.28955969  1
  Eu  Eu6  1  0.11237999  0.28955969  0.05338808  1
  Eu  Eu7  1  0.88762001  0.71044031  0.94661192  1
  Mo  Mo0  1  0.06192516  0.79810842  0.50998736  1
  Mo  Mo1  1  0.93807484  0.20189158  0.49001264  1
  Mo  Mo2  1  0.43807484  0.49001264  0.20189158  1
  Mo  Mo3  1  0.56192516  0.50998736  0.79810842  1
  O  O0  1  0.08457713  0.16225785  0.68841950  1
  O  O1  1  0.91542287  0.83774215  0.31158050  1
  O  O2  1  0.41542287  0.31158050  0.83774215  1
  O  O3  1  0.58457713  0.68841950  0.16225785  1
  O  O4  1  0.36185511  0.82830524  0.38334309  1
  O  O5  1  0.63814489  0.17169476  0.61665691  1
  O  O6  1  0.13814489  0.61665691  0.17169476  1
  O  O7  1  0.86185511  0.38334309  0.82830524  1
  O  O8  1  0.13698955  0.78412915  0.67916048  1
  O  O9  1  0.86301045  0.21587085  0.32083952  1
  O  O10  1  0.36301045  0.32083952  0.21587085  1
  O  O11  1  0.63698955  0.67916048  0.78412915  1
  O  O12  1  0.23097560  0.06508816  0.47813064  1
  O  O13  1  0.76902440  0.93491184  0.52186936  1
  O  O14  1  0.26902440  0.52186936  0.93491184  1
  O  O15  1  0.73097560  0.47813064  0.06508816  1
  O  O16  1  0.01192743  0.61811989  0.54499096  1
  O  O17  1  0.98807257  0.38188011  0.45500904  1
  O  O18  1  0.48807257  0.45500904  0.38188011  1
  O  O19  1  0.51192743  0.54499096  0.61811989  1
  O  O20  1  0.57346998  0.92097152  0.89613135  1
  O  O21  1  0.42653002  0.07902848  0.10386865  1
  O  O22  1  0.92653002  0.10386865  0.07902848  1
  O  O23  1  0.07346998  0.89613135  0.92097152  1
loop_
_geom_bond_atom_site_label_1
_geom_bond_atom_site_label_2
_geom_bond_distance
_geom_bond_site_symmetry_2
Eu0 O2 2.270755 1_555
Eu0 O0 2.270755 1_555
Eu0 O18 2.465840 1_555
Eu0 O16 2.465840 1_555
Eu0 O19 2.492167 1_555
Eu0 O17 2.492167 1_455
Eu0 O5 2.508263 1_555
Eu0 O7 2.508263 1_455
Eu1 O1 2.270755 1_555
Eu1 O3 2.270755 1_555
Eu1 O19 2.465840 1_555
Eu1 O17 2.465840 1_555
Eu1 O18 2.492167 1_555
Eu1 O16 2.492167 1_655
Eu1 O6 2.508263 1_655
Eu1 O4 2.508263 1_555
Eu2 O23 2.319817 1_554
Eu2 O21 2.319817 1_565
Eu2 O1 2.328711 1_455
Eu2 O3 2.328711 1_555
Eu2 O22 2.397715 1_465
Eu2 O20 2.397715 1_554
Eu2 O4 2.745968 1_555
Eu2 O6 2.745968 1_555
Eu3 O20 2.319817 1_545
Eu3 O22 2.319817 1_556
Eu3 O2 2.328711 1_555
Eu3 O0 2.328711 1_655
Eu3 O21 2.397715 1_556
Eu3 O23 2.397715 1_645
Eu3 O7 2.745968 1_555
Eu3 O5 2.745968 1_555
Eu4 O20 2.238909 1_555
Eu4 O23 2.335053 1_555
Eu4 O0 2.338856 1_565
Eu4 O13 2.439866 1_555
Eu4 O12 2.448214 1_565
Eu4 O8 2.513870 1_555
Eu4 O11 2.602697 1_555
Eu4 O5 2.675109 1_565
Eu5 O21 2.238909 1_555
Eu5 O22 2.335053 1_555
Eu5 O1 2.338856 1_545
Eu5 O12 2.439866 1_555
Eu5 O13 2.448214 1_545
Eu5 O9 2.513870 1_555
Eu5 O10 2.602697 1_555
Eu5 O4 2.675109 1_545
Eu6 O22 2.238909 1_455
Eu6 O21 2.335053 1_555
Eu6 O2 2.338856 1_554
Eu6 O15 2.439866 1_455
Eu6 O14 2.448214 1_554
Eu6 O10 2.513870 1_555
Eu6 O9 2.602697 1_455
Eu6 O7 2.675109 1_454
Eu7 O23 2.238909 1_655
Eu7 O20 2.335053 1_555
Eu7 O3 2.338856 1_556
Eu7 O14 2.439866 1_655
Eu7 O15 2.448214 1_556
Eu7 O11 2.513870 1_555
Eu7 O8 2.602697 1_655
Eu7 O6 2.675109 1_656
Mo0 O16 1.783661 1_555
Mo0 O8 1.790430 1_555
Mo0 O4 1.811449 1_555
Mo0 O13 1.831786 1_455
Mo0 O1 2.190771 1_455
Mo1 O17 1.783661 1_555
Mo1 O9 1.790430 1_555
Mo1 O5 1.811449 1_555
Mo1 O12 1.831786 1_655
Mo1 O0 2.190771 1_655
Mo2 O18 1.783661 1_555
Mo2 O10 1.790430 1_555
Mo2 O6 1.811449 1_555
Mo2 O15 1.831786 1_555
Mo2 O3 2.190771 1_555
Mo3 O19 1.783661 1_555
Mo3 O11 1.790430 1_555
Mo3 O7 1.811449 1_555
Mo3 O14 1.831786 1_555
Mo3 O2 2.190771 1_555
