# generated using pymatgen
data_TiSiPt
_symmetry_space_group_name_H-M   'P 1'
_cell_length_a   3.79708230
_cell_length_b   6.35600422
_cell_length_c   7.34591915
_cell_angle_alpha   90.00000000
_cell_angle_beta   90.00000000
_cell_angle_gamma   90.00000000
_symmetry_Int_Tables_number   1
_chemical_formula_structural   TiSiPt
_chemical_formula_sum   'Ti4 Si4 Pt4'
_cell_volume   177.28840441
_cell_formula_units_Z   4
loop_
 _symmetry_equiv_pos_site_id
 _symmetry_equiv_pos_as_xyz
  1  'x, y, z'
loop_
 _atom_site_type_symbol
 _atom_site_label
 _atom_site_symmetry_multiplicity
 _atom_site_fract_x
 _atom_site_fract_y
 _atom_site_fract_z
 _atom_site_occupancy
  Ti  Ti0  1  0.75000000  0.47300120  0.17434757  1
  Ti  Ti1  1  0.75000000  0.97300120  0.32565243  1
  Ti  Ti2  1  0.25000000  0.52699880  0.82565243  1
  Ti  Ti3  1  0.25000000  0.02699880  0.67434757  1
  Si  Si0  1  0.75000000  0.24228830  0.87608460  1
  Si  Si1  1  0.75000000  0.74228830  0.62391540  1
  Si  Si2  1  0.25000000  0.75771170  0.12391540  1
  Si  Si3  1  0.25000000  0.25771170  0.37608460  1
  Pt  Pt0  1  0.75000000  0.35205462  0.56520223  1
  Pt  Pt1  1  0.75000000  0.85205462  0.93479777  1
  Pt  Pt2  1  0.25000000  0.64794538  0.43479777  1
  Pt  Pt3  1  0.25000000  0.14794538  0.06520223  1
loop_
_geom_bond_atom_site_label_1
_geom_bond_atom_site_label_2
_geom_bond_distance
_geom_bond_site_symmetry_2
Si0 Ti0 2.636459 1_556
Si0 Ti2 2.648856 1_655
Si0 Ti2 2.648856 1_555
Si0 Ti3 2.770033 1_555
Si0 Ti3 2.770033 1_655
Si1 Ti1 2.636459 1_555
Si1 Ti3 2.648856 1_665
Si1 Ti3 2.648856 1_565
Si1 Ti2 2.770033 1_655
Si1 Ti2 2.770033 1_555
Si2 Ti2 2.636459 1_554
Si2 Ti0 2.648856 1_555
Si2 Ti0 2.648856 1_455
Si2 Ti1 2.770033 1_455
Si2 Ti1 2.770033 1_555
Si3 Ti3 2.636459 1_555
Si3 Ti1 2.648856 1_545
Si3 Ti1 2.648856 1_445
Si3 Ti0 2.770033 1_455
Si3 Ti0 2.770033 1_555
Pt0 Si0 2.387910 1_555
Pt0 Si3 2.427762 1_655
Pt0 Si3 2.427762 1_555
Pt0 Si1 2.517547 1_555
Pt0 Ti2 2.915715 1_655
Pt0 Ti2 2.915715 1_555
Pt0 Ti3 2.918199 1_555
Pt0 Ti3 2.918199 1_655
Pt0 Ti0 2.972317 1_555
Pt0 Ti1 2.983480 1_545
Pt1 Si1 2.387910 1_555
Pt1 Si2 2.427762 1_556
Pt1 Si2 2.427762 1_656
Pt1 Si0 2.517547 1_565
Pt1 Ti3 2.915715 1_665
Pt1 Ti3 2.915715 1_565
Pt1 Ti2 2.918199 1_555
Pt1 Ti2 2.918199 1_655
Pt1 Ti1 2.972317 1_556
Pt1 Ti0 2.983480 1_556
Pt2 Si2 2.387910 1_555
Pt2 Si1 2.427762 1_555
Pt2 Si1 2.427762 1_455
Pt2 Si3 2.517547 1_555
Pt2 Ti0 2.915715 1_455
Pt2 Ti0 2.915715 1_555
Pt2 Ti1 2.918199 1_555
Pt2 Ti1 2.918199 1_455
Pt2 Ti2 2.972317 1_555
Pt2 Ti3 2.983480 1_565
Pt3 Si3 2.387910 1_555
Pt3 Si0 2.427762 1_554
Pt3 Si0 2.427762 1_454
Pt3 Si2 2.517547 1_545
Pt3 Ti1 2.915715 1_545
Pt3 Ti1 2.915715 1_445
Pt3 Ti0 2.918199 1_555
Pt3 Ti0 2.918199 1_455
Pt3 Ti3 2.972317 1_554
Pt3 Ti2 2.983480 1_554
