# generated using pymatgen
data_Sr3Tl(FeO4)2
_symmetry_space_group_name_H-M   'P 1'
_cell_length_a   3.88272200
_cell_length_b   3.89738200
_cell_length_c   12.68725700
_cell_angle_alpha   90.00000000
_cell_angle_beta   90.00000000
_cell_angle_gamma   90.00000000
_symmetry_Int_Tables_number   1
_chemical_formula_structural   Sr3Tl(FeO4)2
_chemical_formula_sum   'Sr3 Tl1 Fe2 O8'
_cell_volume   191.98929277
_cell_formula_units_Z   1
loop_
 _symmetry_equiv_pos_site_id
 _symmetry_equiv_pos_as_xyz
  1  'x, y, z'
loop_
 _atom_site_type_symbol
 _atom_site_label
 _atom_site_symmetry_multiplicity
 _atom_site_fract_x
 _atom_site_fract_y
 _atom_site_fract_z
 _atom_site_occupancy
  Sr  Sr0  1  0.50000000  0.49915400  0.80161300  1
  Sr  Sr1  1  0.50000000  0.49915400  0.19838700  1
  Sr  Sr2  1  0.50000000  0.50043000  0.50000000  1
  Tl  Tl0  1  0.00000000  0.93809600  0.00000000  1
  Fe  Fe0  1  0.00000000  0.00030800  0.65510100  1
  Fe  Fe1  1  0.00000000  0.00030800  0.34489900  1
  O  O0  1  0.50000000  0.99823300  0.66160100  1
  O  O1  1  0.00000000  0.50056300  0.66201000  1
  O  O2  1  0.50000000  0.99823300  0.33839900  1
  O  O3  1  0.00000000  0.50056300  0.33799000  1
  O  O4  1  0.00000000  0.00079500  0.50000000  1
  O  O5  1  0.00000000  0.01895400  0.83325000  1
  O  O6  1  0.00000000  0.01895400  0.16675000  1
  O  O7  1  0.50000000  0.60025600  0.00000000  1
loop_
_geom_bond_atom_site_label_1
_geom_bond_atom_site_label_2
_geom_bond_distance
_geom_bond_site_symmetry_2
Fe0 O0 1.943129 1_545
Fe0 O0 1.943129 1_445
Fe0 O1 1.949669 1_545
Fe0 O1 1.951654 1_555
Fe0 O4 1.967807 1_555
Fe0 O5 2.261390 1_555
Fe1 O2 1.943129 1_445
Fe1 O2 1.943129 1_545
Fe1 O3 1.949669 1_545
Fe1 O3 1.951654 1_555
Fe1 O4 1.967807 1_555
Fe1 O6 2.261390 1_555
O0 Sr0 2.634180 1_555
O0 Sr0 2.639485 1_565
O0 Sr2 2.822715 1_555
O0 Sr2 2.834513 1_565
O1 Sr0 2.627925 1_555
O1 Sr0 2.627925 1_455
O1 Sr2 2.827332 1_555
O1 Sr2 2.827332 1_455
O2 Sr1 2.634180 1_555
O2 Sr1 2.639485 1_565
O2 Sr2 2.822715 1_555
O2 Sr2 2.834513 1_565
O3 Sr1 2.627925 1_455
O3 Sr1 2.627925 1_555
O3 Sr2 2.827332 1_555
O3 Sr2 2.827332 1_455
O4 Sr2 2.749679 1_555
O4 Sr2 2.749679 1_455
O4 Sr2 2.751695 1_545
O4 Sr2 2.751695 1_445
O5 Tl0 2.138942 1_546
O5 Sr0 2.726278 1_455
O5 Sr0 2.726278 1_555
O5 Sr0 2.834449 1_445
O5 Sr0 2.834449 1_545
O6 Tl0 2.138942 1_545
O6 Sr1 2.726278 1_455
O6 Sr1 2.726278 1_555
O6 Sr1 2.834449 1_545
O6 Sr1 2.834449 1_445
O7 Tl0 2.345753 1_655
O7 Tl0 2.345753 1_555
O7 Sr0 2.547643 1_554
O7 Sr1 2.547643 1_555
