# generated using pymatgen
data_Li3Mn2(P2O7)2
_symmetry_space_group_name_H-M   'P 1'
_cell_length_a   9.85936500
_cell_length_b   9.87258674
_cell_length_c   11.33858164
_cell_angle_alpha   76.72189916
_cell_angle_beta   89.54639747
_cell_angle_gamma   89.56945002
_symmetry_Int_Tables_number   1
_chemical_formula_structural   Li3Mn2(P2O7)2
_chemical_formula_sum   'Li12 Mn8 P16 O56'
_cell_volume   1074.11173935
_cell_formula_units_Z   4
loop_
 _symmetry_equiv_pos_site_id
 _symmetry_equiv_pos_as_xyz
  1  'x, y, z'
loop_
 _atom_site_type_symbol
 _atom_site_label
 _atom_site_symmetry_multiplicity
 _atom_site_fract_x
 _atom_site_fract_y
 _atom_site_fract_z
 _atom_site_occupancy
  Li  Li0  1  0.71947600  0.12148100  0.54904100  1
  Li  Li1  1  0.40859700  0.18517600  0.44313800  1
  Li  Li2  1  0.10365400  0.08723100  0.97116500  1
  Li  Li3  1  0.40064700  0.14664700  0.96057900  1
  Li  Li4  1  0.60891500  0.41164800  0.02997300  1
  Li  Li5  1  0.95429300  0.37714500  0.50390000  1
  Li  Li6  1  0.05017700  0.63108200  0.48972800  1
  Li  Li7  1  0.39524500  0.58681300  0.97084600  1
  Li  Li8  1  0.09833900  0.64833100  0.96350100  1
  Li  Li9  1  0.89146900  0.91316900  0.02884100  1
  Li  Li10  1  0.59250400  0.81536200  0.55635300  1
  Li  Li11  1  0.27619600  0.88215000  0.44731900  1
  Mn  Mn0  1  0.92454000  0.20010100  0.32481700  1
  Mn  Mn1  1  0.21528000  0.25100500  0.17775500  1
  Mn  Mn2  1  0.71755000  0.24732600  0.82901800  1
  Mn  Mn3  1  0.42399600  0.29937100  0.66944300  1
  Mn  Mn4  1  0.57776700  0.70249300  0.32597000  1
  Mn  Mn5  1  0.28660800  0.74707400  0.17848900  1
  Mn  Mn6  1  0.78087000  0.74159000  0.83128400  1
  Mn  Mn7  1  0.07334900  0.80173900  0.67148100  1
  P  P0  1  0.45418100  0.01859900  0.24652600  1
  P  P1  1  0.71096900  0.12087300  0.12049800  1
  P  P2  1  0.92692700  0.06206600  0.75598400  1
  P  P3  1  0.14588100  0.12241900  0.57399900  1
  P  P4  1  0.64769100  0.38189400  0.41944400  1
  P  P5  1  0.43063700  0.43566200  0.24160900  1
  P  P6  1  0.04150100  0.51456500  0.25060500  1
  P  P7  1  0.20986800  0.38029700  0.88855300  1
  P  P8  1  0.78841100  0.62136700  0.11616600  1
  P  P9  1  0.95869000  0.48429200  0.74760000  1
  P  P10  1  0.57084000  0.56120900  0.75648800  1
  P  P11  1  0.35420600  0.62115700  0.57643900  1
  P  P12  1  0.85185900  0.88042300  0.42216800  1
  P  P13  1  0.07119300  0.93444800  0.24213300  1
  P  P14  1  0.29092600  0.88049000  0.88561800  1
  P  P15  1  0.54667900  0.97836100  0.75304300  1
  O  O0  1  0.40722800  0.02395300  0.37305500  1
  O  O1  1  0.83935800  0.03600900  0.43018300  1
  O  O2  1  0.08725200  0.07986100  0.26923500  1
  O  O3  1  0.36227600  0.09616800  0.14396000  1
  O  O4  1  0.59782500  0.09391700  0.23001600  1
  O  O5  1  0.82433500  0.19232200  0.17597600  1
  O  O6  1  0.64376700  0.22324000  0.00981800  1
  O  O7  1  0.26995500  0.02136300  0.91311200  1
  O  O8  1  0.07350800  0.12083900  0.70177200  1
  O  O9  1  0.93310000  0.06531800  0.88838800  1
  O  O10  1  0.52600900  0.13034600  0.77570500  1
  O  O11  1  0.28641800  0.18286900  0.58229500  1
  O  O12  1  0.81707600  0.16276400  0.69056000  1
  O  O13  1  0.05380300  0.20733700  0.47578900  1
  O  O14  1  0.56145100  0.28332900  0.51691800  1
  O  O15  1  0.32886900  0.32699200  0.30756000  1
  O  O16  1  0.79052500  0.31976500  0.41850600  1
  O  O17  1  0.02864400  0.36217400  0.22975800  1
  O  O18  1  0.58010100  0.37830000  0.29204300  1
  O  O19  1  0.43498600  0.43796600  0.10799800  1
  O  O20  1  0.75895000  0.48775000  0.08170900  1
  O  O21  1  0.15614000  0.26939100  0.99756500  1
  O  O22  1  0.33438200  0.31919100  0.83494600  1
  O  O23  1  0.09917500  0.40049600  0.78186500  1
  O  O24  1  0.58609900  0.41709200  0.72530200  1
  O  O25  1  0.84946400  0.40884800  0.83227300  1
  O  O26  1  0.06829000  0.51338200  0.38114000  1
  O  O27  1  0.34694900  0.46953800  0.56646000  1
  O  O28  1  0.65089600  0.53421300  0.42957700  1
  O  O29  1  0.94522000  0.49461800  0.61418400  1
  O  O30  1  0.14058300  0.59311700  0.15405800  1
  O  O31  1  0.41413000  0.57972000  0.27189100  1
  O  O32  1  0.89832200  0.59234100  0.22479300  1
  O  O33  1  0.67243600  0.69059000  0.17262100  1
  O  O34  1  0.85833000  0.72554600  0.00698000  1
  O  O35  1  0.22908400  0.52013900  0.91815300  1
  O  O36  1  0.56325100  0.55737100  0.89001700  1
  O  O37  1  0.42357100  0.62313900  0.70375500  1
  O  O38  1  0.97430100  0.63446400  0.77706100  1
  O  O39  1  0.21268200  0.68678700  0.58083300  1
  O  O40  1  0.67511200  0.67040800  0.69422400  1
  O  O41  1  0.44093500  0.71838300  0.47850200  1
  O  O42  1  0.94368600  0.79504300  0.52014000  1
  O  O43  1  0.17806000  0.83191200  0.31038000  1
  O  O44  1  0.71061800  0.82151600  0.41649200  1
  O  O45  1  0.47122700  0.86431200  0.23206500  1
  O  O46  1  0.06789700  0.93171200  0.10940100  1
  O  O47  1  0.92321000  0.87950500  0.29462100  1
  O  O48  1  0.74335000  0.98460100  0.09127800  1
  O  O49  1  0.34391900  0.77065000  0.99550300  1
  O  O50  1  0.16749600  0.81897700  0.83341400  1
  O  O51  1  0.40339600  0.89914900  0.77736900  1
  O  O52  1  0.64782100  0.90139000  0.84615600  1
  O  O53  1  0.91285100  0.91561100  0.72965400  1
  O  O54  1  0.16050500  0.96723100  0.56616300  1
  O  O55  1  0.58109500  0.98146500  0.62203200  1
loop_
_geom_bond_atom_site_label_1
_geom_bond_atom_site_label_2
_geom_bond_distance
_geom_bond_site_symmetry_2
Li0 O55 1.985485 1_545
Li0 O12 1.999416 1_555
Li0 O1 2.099404 1_555
Li0 O14 2.194879 1_555
Li0 O16 2.277435 1_555
Li1 O0 1.935615 1_555
Li1 O11 1.973574 1_555
Li1 O15 1.988781 1_555
Li1 O14 2.079496 1_555
Li2 O7 1.925623 1_555
Li2 O46 1.957634 1_546
Li2 O21 1.963496 1_555
Li2 O9 1.969537 1_455
Li3 O7 1.954634 1_555
Li3 O3 2.056519 1_556
Li3 O22 2.059406 1_555
Li3 O10 2.461425 1_555
Li3 O6 2.621355 1_556
Li4 O20 1.824741 1_555
Li4 O36 1.934830 1_554
Li4 O6 1.953098 1_555
Li4 O19 1.966140 1_555
Li5 O29 1.891972 1_555
Li5 O13 2.022477 1_655
Li5 O26 2.036593 1_655
Li5 O16 2.038617 1_555
Li6 O26 1.883794 1_555
Li6 O29 2.000447 1_455
Li6 O42 2.016593 1_455
Li6 O39 2.058393 1_555
Li7 O19 1.919007 1_556
Li7 O35 1.920012 1_555
Li7 O36 1.938892 1_555
Li7 O49 1.960947 1_555
Li8 O35 1.947225 1_555
Li8 O50 2.082948 1_555
Li8 O30 2.146816 1_556
Li8 O38 2.481845 1_455
Li8 O34 2.559444 1_456
Li9 O48 1.824462 1_555
Li9 O34 1.954632 1_555
Li9 O9 1.964951 1_564
Li9 O46 2.000096 1_655
Li10 O44 1.949930 1_555
Li10 O55 1.952762 1_555
Li10 O40 2.032265 1_555
Li10 O41 2.087975 1_555
Li11 O0 1.950994 1_565
Li11 O43 1.994436 1_555
Li11 O54 2.074518 1_555
Li11 O39 2.250741 1_555
Li11 O41 2.254817 1_555
Mn0 O1 1.967891 1_555
Mn0 O5 1.979188 1_555
Mn0 O17 1.997606 1_655
Mn0 O13 2.156780 1_655
Mn0 O2 2.163086 1_655
Mn0 O16 2.191077 1_555
Mn1 O21 2.096212 1_554
Mn1 O15 2.128172 1_555
Mn1 O2 2.174939 1_555
Mn1 O3 2.193398 1_555
Mn1 O17 2.277716 1_555
Mn2 O25 2.072374 1_555
Mn2 O6 2.131516 1_556
Mn2 O12 2.165602 1_555
Mn2 O24 2.226614 1_555
Mn2 O10 2.374251 1_555
Mn2 O9 2.758261 1_555
Mn3 O27 1.963832 1_555
Mn3 O10 2.078050 1_555
Mn3 O22 2.116663 1_555
Mn3 O24 2.165249 1_555
Mn3 O11 2.169323 1_555
Mn3 O14 2.222176 1_555
Mn4 O28 1.938789 1_555
Mn4 O33 1.993690 1_555
Mn4 O45 2.000105 1_555
Mn4 O44 2.179068 1_555
Mn4 O31 2.198755 1_555
Mn4 O41 2.218171 1_555
Mn5 O49 2.107093 1_554
Mn5 O31 2.149014 1_555
Mn5 O43 2.149378 1_555
Mn5 O30 2.166191 1_555
Mn5 O45 2.322515 1_555
Mn6 O52 2.079842 1_555
Mn6 O34 2.110520 1_556
Mn6 O40 2.129450 1_555
Mn6 O53 2.252383 1_555
Mn6 O38 2.320216 1_555
Mn7 O54 1.985561 1_555
Mn7 O38 2.052218 1_455
Mn7 O50 2.105872 1_555
Mn7 O53 2.121391 1_455
Mn7 O42 2.161344 1_455
Mn7 O39 2.172907 1_555
O0 P0 1.516342 1_555
O1 P12 1.563316 1_545
O2 P13 1.545086 1_545
O3 P0 1.535297 1_555
O4 P0 1.594170 1_555
O4 P1 1.639502 1_555
O5 P1 1.539273 1_555
O6 P1 1.567093 1_555
O7 P14 1.505996 1_545
O8 P3 1.606778 1_555
O8 P2 1.624134 1_455
O9 P2 1.510687 1_555
O10 P15 1.590816 1_545
O11 P3 1.524860 1_555
O12 P2 1.539292 1_555
O13 P3 1.530606 1_555
O14 P4 1.547547 1_555
O15 P5 1.533859 1_555
O16 P4 1.532741 1_555
O17 P6 1.581816 1_555
O18 P4 1.603495 1_555
O18 P5 1.634417 1_555
O19 P5 1.510170 1_555
O20 P8 1.490455 1_555
O21 P7 1.544003 1_555
O22 P7 1.544656 1_555
O23 P9 1.611670 1_455
O23 P7 1.612765 1_555
O24 P10 1.548903 1_555
O25 P9 1.517703 1_555
O26 P6 1.502911 1_555
O27 P11 1.529080 1_555
O28 P4 1.534828 1_555
O29 P9 1.499525 1_555
O30 P6 1.535769 1_555
O31 P5 1.545010 1_555
O32 P6 1.598449 1_655
O32 P8 1.621044 1_555
O33 P8 1.536839 1_555
O34 P8 1.574159 1_555
O35 P7 1.507443 1_555
O36 P10 1.507055 1_555
O37 P11 1.606498 1_555
O37 P10 1.634639 1_555
O38 P9 1.601586 1_555
O39 P11 1.539289 1_555
O40 P10 1.540490 1_555
O41 P11 1.547044 1_555
O42 P12 1.529226 1_555
O43 P13 1.539725 1_555
O44 P12 1.520634 1_555
O45 P0 1.576626 1_565
O46 P13 1.512035 1_555
O47 P12 1.605078 1_555
O47 P13 1.620806 1_655
O48 P1 1.489396 1_565
O49 P14 1.543515 1_555
O50 P14 1.545236 1_555
O51 P15 1.610794 1_555
O51 P14 1.627176 1_555
O52 P15 1.524221 1_555
O53 P2 1.549498 1_565
O54 P3 1.560462 1_565
O55 P15 1.514592 1_555
