# generated using pymatgen
data_Li5Mn2CoO8
_symmetry_space_group_name_H-M   'P 1'
_cell_length_a   19.74634430
_cell_length_b   19.74634430
_cell_length_c   19.74634441
_cell_angle_alpha   8.66169660
_cell_angle_beta   8.66169660
_cell_angle_gamma   8.66169583
_symmetry_Int_Tables_number   1
_chemical_formula_structural   Li5Mn2CoO8
_chemical_formula_sum   'Li5 Mn2 Co1 O8'
_cell_volume   151.51887686
_cell_formula_units_Z   1
loop_
 _symmetry_equiv_pos_site_id
 _symmetry_equiv_pos_as_xyz
  1  'x, y, z'
loop_
 _atom_site_type_symbol
 _atom_site_label
 _atom_site_symmetry_multiplicity
 _atom_site_fract_x
 _atom_site_fract_y
 _atom_site_fract_z
 _atom_site_occupancy
  Li  Li0  1  0.13037800  0.13037800  0.13037800  1
  Li  Li1  1  0.87309900  0.87309900  0.87309900  1
  Li  Li2  1  0.62218700  0.62218700  0.62218700  1
  Li  Li3  1  0.37469800  0.37469800  0.37469800  1
  Li  Li4  1  0.50019000  0.50019000  0.50019000  1
  Mn  Mn0  1  0.99969400  0.99969400  0.99969400  1
  Mn  Mn1  1  0.74989700  0.74989700  0.74989700  1
  Co  Co0  1  0.24983300  0.24983300  0.24983300  1
  O  O0  1  0.18780900  0.18780900  0.18780900  1
  O  O1  1  0.93612400  0.93612400  0.93612400  1
  O  O2  1  0.68571900  0.68571900  0.68571900  1
  O  O3  1  0.43387400  0.43387400  0.43387400  1
  O  O4  1  0.06399200  0.06399200  0.06399200  1
  O  O5  1  0.81205600  0.81205600  0.81205600  1
  O  O6  1  0.56557300  0.56557300  0.56557300  1
  O  O7  1  0.31487700  0.31487700  0.31487700  1
loop_
_geom_bond_atom_site_label_1
_geom_bond_atom_site_label_2
_geom_bond_distance
_geom_bond_site_symmetry_2
Li0 O5 1.936362 1_454
Li0 O5 1.936362 1_544
Li0 O5 1.936362 1_445
Li0 O3 2.462754 1_455
Li0 O3 2.462754 1_545
Li0 O3 2.462754 1_554
Li1 O0 2.042692 1_656
Li1 O0 2.042692 1_566
Li1 O0 2.042692 1_665
Li1 O6 2.298738 1_655
Li1 O6 2.298738 1_565
Li1 O6 2.298738 1_556
Li2 O1 2.067593 1_455
Li2 O1 2.067593 1_545
Li2 O1 2.067593 1_554
Li2 O7 2.307203 1_655
Li2 O7 2.307203 1_565
Li2 O7 2.307203 1_556
Li3 O2 2.167603 1_545
Li3 O2 2.167603 1_455
Li3 O2 2.167603 1_554
Li3 O4 2.178945 1_565
Li3 O4 2.178945 1_655
Li3 O4 2.178945 1_556
Li4 O0 2.119808 1_565
Li4 O0 2.119808 1_655
Li4 O0 2.119808 1_556
Li4 O5 2.137678 1_455
Li4 O5 2.137678 1_545
Li4 O5 2.137678 1_554
Mn0 O7 2.027810 1_566
Mn0 O7 2.027810 1_656
Mn0 O7 2.027811 1_665
Mn0 O2 2.066352 1_655
Mn0 O2 2.066352 1_565
Mn0 O2 2.066353 1_556
Mn1 O3 2.002069 1_655
Mn1 O3 2.002069 1_565
Mn1 O3 2.002069 1_556
Mn1 O4 2.062446 1_656
Mn1 O4 2.062446 1_566
Mn1 O4 2.062446 1_665
Co0 O6 2.010642 1_545
Co0 O6 2.010642 1_455
Co0 O6 2.010642 1_554
Co0 O1 2.075072 1_544
Co0 O1 2.075072 1_454
Co0 O1 2.075072 1_445
