# generated using pymatgen
data_Li3(CoO2)4
_symmetry_space_group_name_H-M   'P 1'
_cell_length_a   5.74196968
_cell_length_b   5.88533761
_cell_length_c   10.02225742
_cell_angle_alpha   106.06481661
_cell_angle_beta   91.10010218
_cell_angle_gamma   119.03886638
_symmetry_Int_Tables_number   1
_chemical_formula_structural   Li3(CoO2)4
_chemical_formula_sum   'Li6 Co8 O16'
_cell_volume   279.75607854
_cell_formula_units_Z   2
loop_
 _symmetry_equiv_pos_site_id
 _symmetry_equiv_pos_as_xyz
  1  'x, y, z'
loop_
 _atom_site_type_symbol
 _atom_site_label
 _atom_site_symmetry_multiplicity
 _atom_site_fract_x
 _atom_site_fract_y
 _atom_site_fract_z
 _atom_site_occupancy
  Li  Li0  1  0.25066600  0.00196700  0.75232100  1
  Li  Li1  1  0.74947200  0.99976500  0.24626200  1
  Li  Li2  1  0.50408500  0.00699200  0.01119300  1
  Li  Li3  1  0.99538100  0.99200100  0.49358600  1
  Li  Li4  1  0.75007200  0.00357900  0.75598200  1
  Li  Li5  1  0.25584500  0.00032300  0.24032400  1
  Co  Co0  1  0.74707400  0.50015300  0.74754700  1
  Co  Co1  1  0.99769800  0.49936000  0.50113400  1
  Co  Co2  1  0.49621500  0.49694600  0.50036400  1
  Co  Co3  1  0.75248400  0.49583000  0.25136600  1
  Co  Co4  1  0.24783900  0.50449900  0.74926200  1
  Co  Co5  1  0.24926400  0.49798600  0.24881200  1
  Co  Co6  1  0.50248900  0.50012000  0.00094400  1
  Co  Co7  1  0.00484000  0.50389900  0.00053000  1
  O  O0  1  0.63929200  0.27756800  0.86509500  1
  O  O1  1  0.13420300  0.28208400  0.39140900  1
  O  O2  1  0.37521300  0.74069400  0.12460600  1
  O  O3  1  0.85451800  0.70841000  0.61760400  1
  O  O4  1  0.40068900  0.27490500  0.13130300  1
  O  O5  1  0.89512300  0.29647500  0.63301100  1
  O  O6  1  0.86319500  0.71652000  0.12618700  1
  O  O7  1  0.33574000  0.71443300  0.62530100  1
  O  O8  1  0.88910300  0.28161300  0.13609200  1
  O  O9  1  0.39092200  0.29990200  0.63552600  1
  O  O10  1  0.09914400  0.70937000  0.85828600  1
  O  O11  1  0.61128400  0.70068900  0.36936100  1
  O  O12  1  0.14220600  0.28664600  0.87463700  1
  O  O13  1  0.66110700  0.28434100  0.37614700  1
  O  O14  1  0.60857700  0.71226900  0.85761800  1
  O  O15  1  0.09625700  0.71066100  0.37819000  1
loop_
_geom_bond_atom_site_label_1
_geom_bond_atom_site_label_2
_geom_bond_distance
_geom_bond_site_symmetry_2
Li0 O0 2.064605 1_555
Li0 O7 2.087342 1_545
Li0 O10 2.107929 1_545
Li0 O12 2.145520 1_555
Li0 O3 2.181249 1_445
Li0 O9 2.212373 1_555
Li1 O2 2.029552 1_555
Li1 O8 2.090463 1_565
Li1 O13 2.097792 1_565
Li1 O6 2.151778 1_555
Li1 O1 2.175448 1_665
Li1 O11 2.265709 1_555
Li2 O4 2.042906 1_555
Li2 O2 2.046505 1_545
Li2 O8 2.090895 1_555
Li2 O10 2.290559 1_544
Li2 O14 2.303450 1_544
Li2 O0 2.327329 1_554
Li3 O1 2.067973 1_665
Li3 O15 2.076448 1_655
Li3 O11 2.096654 1_555
Li3 O3 2.204756 1_555
Li3 O9 2.217983 1_665
Li3 O5 2.267500 1_565
Li4 O0 2.060883 1_555
Li4 O14 2.069565 1_545
Li4 O12 2.102025 1_655
Li4 O7 2.233327 1_545
Li4 O5 2.237294 1_555
Li4 O3 2.238477 1_545
Li5 O4 2.050461 1_555
Li5 O2 2.053313 1_545
Li5 O6 2.090260 1_445
Li5 O13 2.214708 1_555
Li5 O1 2.303445 1_555
Li5 O15 2.343245 1_545
Co0 O10 1.890944 1_655
Co0 O0 1.892634 1_555
Co0 O14 1.908690 1_555
Co0 O9 1.916057 1_555
Co0 O5 1.934542 1_555
Co0 O3 1.938838 1_555
Co1 O13 1.887117 1_555
Co1 O7 1.889096 1_655
Co1 O15 1.891195 1_655
Co1 O1 1.920081 1_655
Co1 O5 1.933945 1_555
Co1 O3 1.943236 1_555
Co2 O1 1.925904 1_555
Co2 O11 1.932280 1_555
Co2 O9 1.940515 1_555
Co2 O3 1.942781 1_555
Co2 O13 2.084509 1_555
Co2 O7 2.087479 1_555
Co3 O13 1.908190 1_555
Co3 O15 1.924043 1_655
Co3 O11 1.925134 1_555
Co3 O4 1.926109 1_555
Co3 O8 1.930903 1_555
Co3 O6 1.948319 1_555
Co4 O7 1.895517 1_555
Co4 O9 1.913365 1_555
Co4 O5 1.915962 1_455
Co4 O10 1.919055 1_555
Co4 O14 1.919594 1_555
Co4 O12 1.938196 1_555
Co5 O8 1.931867 1_455
Co5 O11 1.975428 1_555
Co5 O2 2.031941 1_555
Co5 O4 2.039238 1_555
Co5 O15 2.057407 1_555
Co5 O1 2.078418 1_555
Co6 O6 1.985429 1_555
Co6 O12 1.989119 1_554
Co6 O4 2.010233 1_555
Co6 O2 2.035415 1_555
Co6 O0 2.058944 1_554
Co6 O14 2.069113 1_554
Co7 O6 1.992121 1_455
Co7 O12 1.993326 1_554
Co7 O2 2.018250 1_555
Co7 O10 2.033704 1_554
Co7 O8 2.042879 1_455
Co7 O0 2.048920 1_454
