# generated using pymatgen
data_TmSbO4
_symmetry_space_group_name_H-M   'P 1'
_cell_length_a   5.26955737
_cell_length_b   7.41324044
_cell_length_c   7.52833592
_cell_angle_alpha   81.54679541
_cell_angle_beta   90.00000000
_cell_angle_gamma   90.00000000
_symmetry_Int_Tables_number   1
_chemical_formula_structural   TmSbO4
_chemical_formula_sum   'Tm4 Sb4 O16'
_cell_volume   290.89572081
_cell_formula_units_Z   4
loop_
 _symmetry_equiv_pos_site_id
 _symmetry_equiv_pos_as_xyz
  1  'x, y, z'
loop_
 _atom_site_type_symbol
 _atom_site_label
 _atom_site_symmetry_multiplicity
 _atom_site_fract_x
 _atom_site_fract_y
 _atom_site_fract_z
 _atom_site_occupancy
  Tm  Tm0  1  0.72590318  0.61372623  0.14423438  1
  Tm  Tm1  1  0.27409682  0.38627377  0.85576562  1
  Tm  Tm2  1  0.77409682  0.11372623  0.14423438  1
  Tm  Tm3  1  0.22590318  0.88627377  0.85576562  1
  Sb  Sb0  1  0.76860609  0.19180686  0.66395880  1
  Sb  Sb1  1  0.23139391  0.80819314  0.33604120  1
  Sb  Sb2  1  0.26860609  0.30819314  0.33604120  1
  Sb  Sb3  1  0.73139391  0.69180686  0.66395880  1
  O  O0  1  0.90485262  0.69045810  0.43109845  1
  O  O1  1  0.09514738  0.30954190  0.56890155  1
  O  O2  1  0.38674926  0.56258855  0.32844833  1
  O  O3  1  0.61325074  0.43741145  0.67155167  1
  O  O4  1  0.11325074  0.06258855  0.32844833  1
  O  O5  1  0.88674926  0.93741145  0.67155167  1
  O  O6  1  0.59514738  0.19045810  0.43109845  1
  O  O7  1  0.40485262  0.80954190  0.56890155  1
  O  O8  1  0.97562045  0.17547336  0.88911766  1
  O  O9  1  0.02437955  0.82452664  0.11088234  1
  O  O10  1  0.47562045  0.32452664  0.11088234  1
  O  O11  1  0.52437955  0.67547336  0.88911766  1
  O  O12  1  0.51510210  0.88361046  0.17814784  1
  O  O13  1  0.48489790  0.11638954  0.82185216  1
  O  O14  1  0.98489790  0.38361046  0.17814784  1
  O  O15  1  0.01510210  0.61638954  0.82185216  1
loop_
_geom_bond_atom_site_label_1
_geom_bond_atom_site_label_2
_geom_bond_distance
_geom_bond_site_symmetry_2
O0 Sb3 1.978365 1_555
O0 Sb1 2.012751 1_655
O0 Tm0 2.497573 1_555
O1 Sb2 1.978365 1_555
O1 Sb0 2.012751 1_455
O1 Tm1 2.497573 1_555
O2 Sb2 1.978827 1_555
O2 Sb1 2.004770 1_555
O2 Tm0 2.259752 1_555
O3 Sb3 1.978827 1_555
O3 Sb0 2.004770 1_555
O3 Tm1 2.259752 1_555
O4 Sb1 1.978827 1_545
O4 Sb2 2.004770 1_555
O4 Tm2 2.259752 1_455
O5 Sb0 1.978827 1_565
O5 Sb3 2.004770 1_555
O5 Tm3 2.259752 1_655
O6 Sb0 1.978365 1_555
O6 Sb2 2.012751 1_555
O6 Tm2 2.497573 1_555
O7 Sb1 1.978365 1_555
O7 Sb3 2.012751 1_555
O7 Tm3 2.497573 1_555
O8 Sb0 2.004393 1_555
O8 Tm2 2.183460 1_556
O8 Tm1 2.205353 1_655
O8 Tm3 2.560680 1_645
O9 Sb1 2.004393 1_555
O9 Tm3 2.183460 1_554
O9 Tm0 2.205353 1_455
O9 Tm2 2.560680 1_465
O10 Sb2 2.004393 1_555
O10 Tm1 2.183460 1_554
O10 Tm2 2.205353 1_555
O10 Tm0 2.560680 1_555
O11 Sb3 2.004393 1_555
O11 Tm0 2.183460 1_556
O11 Tm3 2.205353 1_555
O11 Tm1 2.560680 1_555
O12 Sb1 1.940416 1_555
O12 Tm2 2.170227 1_565
O12 Tm0 2.334988 1_555
O12 Tm3 2.863401 1_554
O13 Sb0 1.940416 1_555
O13 Tm3 2.170227 1_545
O13 Tm1 2.334988 1_555
O13 Tm2 2.863401 1_556
O14 Sb2 1.940416 1_655
O14 Tm0 2.170227 1_555
O14 Tm2 2.334988 1_555
O14 Tm1 2.863401 1_654
O15 Sb3 1.940416 1_455
O15 Tm1 2.170227 1_555
O15 Tm3 2.334988 1_555
O15 Tm0 2.863401 1_456
