# generated using pymatgen
data_Tb23Cd4Rh7
_symmetry_space_group_name_H-M   'P 1'
_cell_length_a   9.76506580
_cell_length_b   9.76506580
_cell_length_c   21.99925100
_cell_angle_alpha   90.00000000
_cell_angle_beta   90.00000000
_cell_angle_gamma   119.99999868
_symmetry_Int_Tables_number   1
_chemical_formula_structural   Tb23Cd4Rh7
_chemical_formula_sum   'Tb46 Cd8 Rh14'
_cell_volume   1816.72369583
_cell_formula_units_Z   2
loop_
 _symmetry_equiv_pos_site_id
 _symmetry_equiv_pos_as_xyz
  1  'x, y, z'
loop_
 _atom_site_type_symbol
 _atom_site_label
 _atom_site_symmetry_multiplicity
 _atom_site_fract_x
 _atom_site_fract_y
 _atom_site_fract_z
 _atom_site_occupancy
  Tb  Tb0  1  0.20821900  0.41643800  0.72057000  1
  Tb  Tb1  1  0.20821900  0.79178100  0.72057000  1
  Tb  Tb2  1  0.79178100  0.58356200  0.22057000  1
  Tb  Tb3  1  0.58356200  0.79178100  0.72057000  1
  Tb  Tb4  1  0.79178100  0.20821900  0.22057000  1
  Tb  Tb5  1  0.41643800  0.20821900  0.22057000  1
  Tb  Tb6  1  0.79211000  0.58422100  0.94722100  1
  Tb  Tb7  1  0.79211000  0.20789000  0.94722100  1
  Tb  Tb8  1  0.20789000  0.41577900  0.44722100  1
  Tb  Tb9  1  0.41577900  0.20789000  0.94722100  1
  Tb  Tb10  1  0.20789000  0.79211000  0.44722100  1
  Tb  Tb11  1  0.58422100  0.79211000  0.44722100  1
  Tb  Tb12  1  0.21031900  0.42063900  0.99021700  1
  Tb  Tb13  1  0.21031900  0.78968100  0.99021700  1
  Tb  Tb14  1  0.78968100  0.57936100  0.49021700  1
  Tb  Tb15  1  0.57936100  0.78968100  0.99021700  1
  Tb  Tb16  1  0.78968100  0.21031900  0.49021700  1
  Tb  Tb17  1  0.42063900  0.21031900  0.49021700  1
  Tb  Tb18  1  0.87258000  0.74516000  0.63615400  1
  Tb  Tb19  1  0.87258000  0.12742000  0.63615400  1
  Tb  Tb20  1  0.12742000  0.25484000  0.13615400  1
  Tb  Tb21  1  0.25484000  0.12742000  0.63615400  1
  Tb  Tb22  1  0.12742000  0.87258000  0.13615400  1
  Tb  Tb23  1  0.74516000  0.87258000  0.13615400  1
  Tb  Tb24  1  0.45796000  0.91592100  0.85651200  1
  Tb  Tb25  1  0.45796000  0.54204000  0.85651200  1
  Tb  Tb26  1  0.54204000  0.08407900  0.35651200  1
  Tb  Tb27  1  0.08407900  0.54204000  0.85651200  1
  Tb  Tb28  1  0.54204000  0.45796000  0.35651200  1
  Tb  Tb29  1  0.91592100  0.45796000  0.35651200  1
  Tb  Tb30  1  0.00000000  0.00000000  0.99675200  1
  Tb  Tb31  1  0.00000000  0.00000000  0.49675200  1
  Tb  Tb32  1  0.45983100  0.91966200  0.58448600  1
  Tb  Tb33  1  0.45983100  0.54016900  0.58448600  1
  Tb  Tb34  1  0.54016900  0.08033800  0.08448600  1
  Tb  Tb35  1  0.08033800  0.54016900  0.58448600  1
  Tb  Tb36  1  0.54016900  0.45983100  0.08448600  1
  Tb  Tb37  1  0.91966200  0.45983100  0.08448600  1
  Tb  Tb38  1  0.79825200  0.59650300  0.78289600  1
  Tb  Tb39  1  0.79825200  0.20174800  0.78289600  1
  Tb  Tb40  1  0.20174800  0.40349700  0.28289600  1
  Tb  Tb41  1  0.40349700  0.20174800  0.78289600  1
  Tb  Tb42  1  0.20174800  0.79825200  0.28289600  1
  Tb  Tb43  1  0.59650300  0.79825200  0.28289600  1
  Tb  Tb44  1  0.66666700  0.33333300  0.64371700  1
  Tb  Tb45  1  0.33333300  0.66666700  0.14371700  1
  Cd  Cd0  1  0.00000000  0.00000000  0.74973100  1
  Cd  Cd1  1  0.00000000  0.00000000  0.24973100  1
  Cd  Cd2  1  0.10766200  0.21532500  0.86350500  1
  Cd  Cd3  1  0.10766200  0.89233800  0.86350500  1
  Cd  Cd4  1  0.89233800  0.78467500  0.36350500  1
  Cd  Cd5  1  0.78467500  0.89233800  0.86350500  1
  Cd  Cd6  1  0.89233800  0.10766200  0.36350500  1
  Cd  Cd7  1  0.21532500  0.10766200  0.36350500  1
  Rh  Rh0  1  0.52186900  0.04373900  0.70928700  1
  Rh  Rh1  1  0.52186900  0.47813100  0.70928700  1
  Rh  Rh2  1  0.47813100  0.95626100  0.20928700  1
  Rh  Rh3  1  0.95626100  0.47813100  0.70928700  1
  Rh  Rh4  1  0.47813100  0.52186900  0.20928700  1
  Rh  Rh5  1  0.04373900  0.52186900  0.20928700  1
  Rh  Rh6  1  0.66666700  0.33333300  0.86255200  1
  Rh  Rh7  1  0.33333300  0.66666700  0.36255200  1
  Rh  Rh8  1  0.14311200  0.28622400  0.56380800  1
  Rh  Rh9  1  0.14311200  0.85688800  0.56380800  1
  Rh  Rh10  1  0.85688800  0.71377600  0.06380800  1
  Rh  Rh11  1  0.71377600  0.85688800  0.56380800  1
  Rh  Rh12  1  0.85688800  0.14311200  0.06380800  1
  Rh  Rh13  1  0.28622400  0.14311200  0.06380800  1
loop_
_geom_bond_atom_site_label_1
_geom_bond_atom_site_label_2
_geom_bond_distance
_geom_bond_site_symmetry_2
Cd0 Cd3 3.095252 1_545
Cd0 Cd2 3.095257 1_555
Cd0 Cd5 3.095257 1_445
Cd0 Tb19 3.299641 1_455
Cd0 Tb18 3.299641 1_445
Cd0 Tb21 3.299641 1_555
Cd0 Tb39 3.489412 1_455
Cd0 Tb41 3.489421 1_555
Cd0 Tb38 3.489421 1_445
Cd0 Tb1 3.579684 1_545
Cd0 Tb3 3.579684 1_445
Cd0 Tb0 3.579684 1_555
Cd1 Cd6 3.095252 1_455
Cd1 Cd4 3.095257 1_445
Cd1 Cd7 3.095257 1_555
Cd1 Tb22 3.299641 1_545
Cd1 Tb23 3.299641 1_445
Cd1 Tb20 3.299641 1_555
Cd1 Tb42 3.489412 1_545
Cd1 Tb40 3.489421 1_555
Cd1 Tb43 3.489421 1_445
Cd1 Tb4 3.579684 1_455
Cd1 Tb5 3.579684 1_555
Cd1 Tb2 3.579684 1_445
Cd2 Cd3 3.153989 1_545
Cd2 Cd5 3.153989 1_445
Cd2 Tb12 3.284094 1_555
Cd2 Tb27 3.315121 1_555
Cd2 Tb25 3.315121 1_555
Cd2 Tb39 3.448280 1_455
Cd2 Tb41 3.448297 1_555
Cd2 Tb30 3.450886 1_555
Cd2 Tb9 3.559257 1_555
Cd2 Tb7 3.559257 1_455
Cd2 Tb0 3.574950 1_555
Cd3 Cd5 3.153989 1_455
Cd3 Tb13 3.284094 1_555
Cd3 Tb27 3.315121 1_555
Cd3 Tb24 3.315121 1_555
Cd3 Tb41 3.448288 1_565
Cd3 Tb38 3.448288 1_455
Cd3 Tb30 3.450881 1_565
Cd3 Tb9 3.559257 1_565
Cd3 Tb6 3.559257 1_455
Cd3 Tb1 3.574954 1_555
Cd4 Cd6 3.153989 1_565
Cd4 Cd7 3.153989 1_665
Cd4 Tb14 3.284094 1_555
Cd4 Tb29 3.315121 1_555
Cd4 Tb28 3.315121 1_555
Cd4 Tb42 3.448280 1_655
Cd4 Tb43 3.448297 1_555
Cd4 Tb31 3.450886 1_665
Cd4 Tb11 3.559257 1_555
Cd4 Tb10 3.559257 1_655
Cd4 Tb2 3.574950 1_555
Cd5 Tb15 3.284094 1_555
Cd5 Tb24 3.315121 1_555
Cd5 Tb25 3.315121 1_555
Cd5 Tb39 3.448280 1_565
Cd5 Tb38 3.448297 1_555
Cd5 Tb30 3.450886 1_665
Cd5 Tb6 3.559257 1_555
Cd5 Tb7 3.559257 1_565
Cd5 Tb3 3.574950 1_555
Cd6 Cd7 3.153989 1_655
Cd6 Tb16 3.284094 1_555
Cd6 Tb26 3.315121 1_555
Cd6 Tb29 3.315121 1_555
Cd6 Tb40 3.448288 1_655
Cd6 Tb43 3.448288 1_545
Cd6 Tb31 3.450881 1_655
Cd6 Tb8 3.559257 1_655
Cd6 Tb11 3.559257 1_545
Cd6 Tb4 3.574954 1_555
Cd7 Tb17 3.284094 1_555
Cd7 Tb26 3.315121 1_555
Cd7 Tb28 3.315121 1_555
Cd7 Tb42 3.448280 1_545
Cd7 Tb40 3.448297 1_555
Cd7 Tb31 3.450886 1_555
Cd7 Tb8 3.559257 1_555
Cd7 Tb10 3.559257 1_545
Cd7 Tb5 3.574950 1_555
Rh0 Tb1 2.821389 1_545
Rh0 Tb3 2.821395 1_545
Rh0 Tb44 2.842281 1_555
Rh0 Tb41 2.850032 1_555
Rh0 Tb39 2.850046 1_555
Rh0 Tb32 2.939208 1_545
Rh0 Tb24 3.414454 1_545
Rh0 Tb21 3.490890 1_555
Rh0 Tb19 3.490899 1_555
Rh1 Tb3 2.821385 1_555
Rh1 Tb0 2.821385 1_555
Rh1 Tb44 2.842296 1_555
Rh1 Tb38 2.850047 1_555
Rh1 Tb41 2.850047 1_555
Rh1 Tb33 2.939205 1_555
Rh1 Tb25 3.414454 1_555
Rh1 Tb21 3.490896 1_555
Rh1 Tb18 3.490896 1_555
Rh2 Tb4 2.821389 1_565
Rh2 Tb5 2.821395 1_565
Rh2 Tb45 2.842281 1_555
Rh2 Tb43 2.850032 1_555
Rh2 Tb42 2.850046 1_555
Rh2 Tb34 2.939208 1_565
Rh2 Tb26 3.414454 1_565
Rh2 Tb23 3.490890 1_555
Rh2 Tb22 3.490899 1_555
Rh3 Tb1 2.821389 1_655
Rh3 Tb0 2.821395 1_655
Rh3 Tb44 2.842281 1_555
Rh3 Tb38 2.850032 1_555
Rh3 Tb39 2.850046 1_555
Rh3 Tb35 2.939208 1_655
Rh3 Tb27 3.414454 1_655
Rh3 Tb18 3.490890 1_555
Rh3 Tb19 3.490899 1_555
Rh4 Tb2 2.821385 1_555
Rh4 Tb5 2.821385 1_555
Rh4 Tb45 2.842296 1_555
Rh4 Tb43 2.850047 1_555
Rh4 Tb40 2.850047 1_555
Rh4 Tb36 2.939205 1_555
Rh4 Tb28 3.414454 1_555
Rh4 Tb20 3.490896 1_555
Rh4 Tb23 3.490896 1_555
Rh5 Tb4 2.821389 1_455
Rh5 Tb2 2.821395 1_455
Rh5 Tb45 2.842281 1_555
Rh5 Tb40 2.850032 1_555
Rh5 Tb42 2.850046 1_555
Rh5 Tb37 2.939208 1_455
Rh5 Tb29 3.414454 1_455
Rh5 Tb20 3.490890 1_555
Rh5 Tb22 3.490899 1_555
Rh6 Tb7 2.823306 1_555
Rh6 Tb6 2.823319 1_555
Rh6 Tb9 2.823319 1_555
Rh6 Tb39 2.832665 1_555
Rh6 Tb38 2.832665 1_555
Rh6 Tb41 2.832665 1_555
Rh6 Tb24 3.532468 1_545
Rh6 Tb27 3.532468 1_655
Rh6 Tb25 3.532485 1_555
Rh7 Tb10 2.823306 1_555
Rh7 Tb11 2.823319 1_555
Rh7 Tb8 2.823319 1_555
Rh7 Tb42 2.832665 1_555
Rh7 Tb43 2.832665 1_555
Rh7 Tb40 2.832665 1_555
Rh7 Tb26 3.532468 1_565
Rh7 Tb29 3.532468 1_455
Rh7 Tb28 3.532485 1_555
Rh8 Tb8 2.789036 1_555
Rh8 Tb21 2.796439 1_555
Rh8 Tb19 2.796439 1_455
Rh8 Tb31 2.834637 1_555
Rh8 Tb35 2.872654 1_555
Rh8 Tb33 2.872654 1_555
Rh8 Tb16 3.538864 1_455
Rh8 Tb17 3.538873 1_555
Rh9 Tb10 2.789039 1_555
Rh9 Tb18 2.796439 1_455
Rh9 Tb21 2.796439 1_565
Rh9 Tb31 2.834636 1_565
Rh9 Tb35 2.872654 1_555
Rh9 Tb32 2.872654 1_555
Rh9 Tb17 3.538867 1_565
Rh9 Tb14 3.538867 1_455
Rh10 Tb6 2.789036 1_554
Rh10 Tb23 2.796439 1_555
Rh10 Tb22 2.796439 1_655
Rh10 Tb30 2.834637 1_664
Rh10 Tb37 2.872654 1_555
Rh10 Tb36 2.872654 1_555
Rh10 Tb13 3.538864 1_654
Rh10 Tb15 3.538873 1_554
Rh11 Tb11 2.789036 1_555
Rh11 Tb18 2.796439 1_555
Rh11 Tb19 2.796439 1_565
Rh11 Tb31 2.834637 1_665
Rh11 Tb32 2.872654 1_555
Rh11 Tb33 2.872654 1_555
Rh11 Tb16 3.538864 1_565
Rh11 Tb14 3.538873 1_555
Rh12 Tb7 2.789039 1_554
Rh12 Tb23 2.796439 1_545
Rh12 Tb20 2.796439 1_655
Rh12 Tb30 2.834636 1_654
Rh12 Tb34 2.872654 1_555
Rh12 Tb37 2.872654 1_555
Rh12 Tb12 3.538867 1_654
Rh12 Tb15 3.538867 1_544
Rh13 Tb9 2.789036 1_554
Rh13 Tb20 2.796439 1_555
Rh13 Tb22 2.796439 1_545
Rh13 Tb30 2.834637 1_554
Rh13 Tb34 2.872654 1_555
Rh13 Tb36 2.872654 1_555
Rh13 Tb13 3.538864 1_544
Rh13 Tb12 3.538873 1_554
