# generated using pymatgen
data_Mg(Fe2O3)4
_symmetry_space_group_name_H-M   'P 1'
_cell_length_a   5.18369373
_cell_length_b   5.23480570
_cell_length_c   8.70480293
_cell_angle_alpha   98.68341080
_cell_angle_beta   86.45092701
_cell_angle_gamma   102.32557491
_symmetry_Int_Tables_number   1
_chemical_formula_structural   Mg(Fe2O3)4
_chemical_formula_sum   'Mg1 Fe8 O12'
_cell_volume   228.01291011
_cell_formula_units_Z   1
loop_
 _symmetry_equiv_pos_site_id
 _symmetry_equiv_pos_as_xyz
  1  'x, y, z'
loop_
 _atom_site_type_symbol
 _atom_site_label
 _atom_site_symmetry_multiplicity
 _atom_site_fract_x
 _atom_site_fract_y
 _atom_site_fract_z
 _atom_site_occupancy
  Mg  Mg0  1  0.45905700  0.43025300  0.68209300  1
  Fe  Fe0  1  0.27865000  0.53507700  0.08550700  1
  Fe  Fe1  1  0.29437600  0.02333000  0.39517700  1
  Fe  Fe2  1  0.03253900  0.50635500  0.51028000  1
  Fe  Fe3  1  0.21791400  0.91501600  0.86616700  1
  Fe  Fe4  1  0.76774600  0.45283600  0.92827800  1
  Fe  Fe5  1  0.76738700  0.97823200  0.61480900  1
  Fe  Fe6  1  0.59002900  0.54422400  0.34027200  1
  Fe  Fe7  1  0.85019700  0.07137400  0.15659100  1
  O  O0  1  0.43351700  0.64836900  0.89104600  1
  O  O1  1  0.11495800  0.21719900  0.60548800  1
  O  O2  1  0.13299700  0.32390600  0.28835200  1
  O  O3  1  0.50717900  0.82333600  0.22673900  1
  O  O4  1  0.61382900  0.32400000  0.14040900  1
  O  O5  1  0.91721800  0.78345300  0.41113100  1
  O  O6  1  0.92535400  0.71497400  0.72092100  1
  O  O7  1  0.55327700  0.14058300  0.78466700  1
  O  O8  1  0.01711900  0.76229800  0.05703300  1
  O  O9  1  0.65617900  0.28028500  0.48309800  1
  O  O10  1  0.05239200  0.21535300  0.97050900  1
  O  O11  1  0.41808400  0.70954600  0.53786200  1
loop_
_geom_bond_atom_site_label_1
_geom_bond_atom_site_label_2
_geom_bond_distance
_geom_bond_site_symmetry_2
Mg0 O1 1.985830 1_555
Mg0 O0 2.009287 1_555
Mg0 O7 2.028338 1_555
Mg0 O9 2.091341 1_555
Mg0 O11 2.116322 1_555
Mg0 O6 2.566948 1_555
Fe0 O0 1.947611 1_554
Fe0 O10 1.995069 1_554
Fe0 O3 2.012150 1_555
Fe0 O8 2.033034 1_555
Fe0 O2 2.231105 1_555
Fe0 O4 2.355838 1_555
Fe1 O3 2.071717 1_545
Fe1 O5 2.095070 1_445
Fe1 O9 2.168478 1_555
Fe1 O1 2.208537 1_555
Fe1 O2 2.267227 1_555
Fe1 O11 2.411715 1_545
Fe2 O1 1.964515 1_555
Fe2 O5 2.004608 1_455
Fe2 O9 2.061442 1_455
Fe2 O11 2.063480 1_555
Fe2 O6 2.095634 1_455
Fe2 O2 2.108562 1_555
Fe3 O0 2.007892 1_555
Fe3 O10 2.020209 1_565
Fe3 O7 2.035577 1_565
Fe3 O6 2.038293 1_455
Fe3 O8 2.077168 1_556
Fe4 O7 2.061510 1_555
Fe4 O8 2.070889 1_656
Fe4 O4 2.113083 1_556
Fe4 O10 2.201378 1_655
Fe4 O0 2.254163 1_555
Fe4 O6 2.428011 1_555
Fe5 O1 1.966696 1_665
Fe5 O7 1.990082 1_565
Fe5 O6 2.093482 1_555
Fe5 O5 2.099542 1_555
Fe5 O11 2.117521 1_555
Fe5 O9 2.272740 1_565
Fe6 O4 1.949249 1_555
Fe6 O5 1.953155 1_555
Fe6 O3 2.013059 1_555
Fe6 O11 2.047389 1_555
Fe6 O9 2.084719 1_555
Fe6 O2 2.440442 1_555
Fe7 O4 2.009817 1_555
Fe7 O10 2.027701 1_654
Fe7 O2 2.033484 1_655
Fe7 O8 2.049144 1_645
Fe7 O3 2.083201 1_545
