# generated using pymatgen
data_Al3WC4
_symmetry_space_group_name_H-M   'P 1'
_cell_length_a   2.66436100
_cell_length_b   3.03114300
_cell_length_c   10.43372300
_cell_angle_alpha   90.00000000
_cell_angle_beta   90.00000000
_cell_angle_gamma   90.00000000
_symmetry_Int_Tables_number   1
_chemical_formula_structural   Al3WC4
_chemical_formula_sum   'Al3 W1 C4'
_cell_volume   84.26336457
_cell_formula_units_Z   1
loop_
 _symmetry_equiv_pos_site_id
 _symmetry_equiv_pos_as_xyz
  1  'x, y, z'
loop_
 _atom_site_type_symbol
 _atom_site_label
 _atom_site_symmetry_multiplicity
 _atom_site_fract_x
 _atom_site_fract_y
 _atom_site_fract_z
 _atom_site_occupancy
  Al  Al0  1  0.00000000  0.00000000  0.24637200  1
  Al  Al1  1  0.00000000  0.50000000  0.49782500  1
  Al  Al2  1  0.00000000  0.00000000  0.74695700  1
  W  W0  1  0.00000000  0.50000000  0.00565800  1
  C  C0  1  0.50000000  0.50000000  0.16120100  1
  C  C1  1  0.50000000  0.00000000  0.41455400  1
  C  C2  1  0.50000000  0.50000000  0.66717600  1
  C  C3  1  0.50000000  0.00000000  0.92695800  1
loop_
_geom_bond_atom_site_label_1
_geom_bond_atom_site_label_2
_geom_bond_distance
_geom_bond_site_symmetry_2
Al0 C1 2.203158 1_455
Al0 C1 2.203158 1_555
Al0 C0 2.204850 1_545
Al0 C0 2.204850 1_455
Al0 C0 2.204850 1_445
Al0 C0 2.204850 1_555
Al1 C1 2.196935 1_555
Al1 C1 2.196935 1_465
Al1 C1 2.196935 1_565
Al1 C1 2.196935 1_455
Al1 C2 2.212884 1_455
Al1 C2 2.212884 1_555
Al2 C2 2.182790 1_555
Al2 C2 2.182790 1_545
Al2 C2 2.182790 1_445
Al2 C2 2.182790 1_455
Al2 C3 2.302584 1_555
Al2 C3 2.302584 1_455
C0 W0 2.099639 1_555
C0 W0 2.099639 1_655
C3 W0 2.178514 1_656
C3 W0 2.178514 1_546
C3 W0 2.178514 1_556
C3 W0 2.178514 1_646
