# generated using pymatgen
data_TbDy3Al8
_symmetry_space_group_name_H-M   'P 1'
_cell_length_a   9.59631225
_cell_length_b   9.59631225
_cell_length_c   9.59631293
_cell_angle_alpha   33.54707745
_cell_angle_beta   33.54707745
_cell_angle_gamma   33.54708097
_symmetry_Int_Tables_number   1
_chemical_formula_structural   TbDy3Al8
_chemical_formula_sum   'Tb1 Dy3 Al8'
_cell_volume   240.38373747
_cell_formula_units_Z   1
loop_
 _symmetry_equiv_pos_site_id
 _symmetry_equiv_pos_as_xyz
  1  'x, y, z'
loop_
 _atom_site_type_symbol
 _atom_site_label
 _atom_site_symmetry_multiplicity
 _atom_site_fract_x
 _atom_site_fract_y
 _atom_site_fract_z
 _atom_site_occupancy
  Tb  Tb0  1  0.81239347  0.81239347  0.81239347  1
  Dy  Dy0  1  0.31240134  0.31240134  0.31240134  1
  Dy  Dy1  1  0.68758819  0.68758819  0.68758819  1
  Dy  Dy2  1  0.18760370  0.18760370  0.18760370  1
  Al  Al0  1  0.50004352  0.50004352  0.50004352  1
  Al  Al1  1  -0.00004528  -0.00004528  -0.00004528  1
  Al  Al2  1  0.25001191  0.25001191  0.74979716  1
  Al  Al3  1  0.75006514  0.75006514  0.25006480  1
  Al  Al4  1  0.25001191  0.74979716  0.25001191  1
  Al  Al5  1  0.75006514  0.25006480  0.75006514  1
  Al  Al6  1  0.74979716  0.25001191  0.25001191  1
  Al  Al7  1  0.25006480  0.75006514  0.75006514  1
loop_
_geom_bond_atom_site_label_1
_geom_bond_atom_site_label_2
_geom_bond_distance
_geom_bond_site_symmetry_2
Dy0 Dy2 3.387442 1_555
Dy0 Dy1 3.393624 1_554
Dy0 Dy1 3.393624 1_545
Dy0 Dy1 3.393624 1_455
Dy1 Tb0 3.387649 1_555
Dy2 Tb0 3.393836 1_445
Dy2 Tb0 3.393837 1_544
Dy2 Tb0 3.393837 1_454
Al0 Al3 2.770489 1_555
Al0 Al7 2.770489 1_555
Al0 Al5 2.770489 1_555
Al0 Al2 2.771903 1_555
Al0 Al4 2.771904 1_555
Al0 Al6 2.771904 1_555
Al0 Dy2 3.247723 1_556
Al0 Dy2 3.247723 1_655
Al0 Dy2 3.247723 1_565
Al0 Tb0 3.248150 1_554
Al0 Tb0 3.248150 1_545
Al0 Tb0 3.248150 1_455
Al1 Al3 2.767566 1_445
Al1 Al7 2.767567 1_544
Al1 Al5 2.767567 1_454
Al1 Al2 2.770089 1_554
Al1 Al4 2.770089 1_545
Al1 Al6 2.770089 1_455
Al1 Dy0 3.247691 1_554
Al1 Dy0 3.247691 1_455
Al1 Dy0 3.247691 1_545
Al1 Dy1 3.248071 1_445
Al1 Dy1 3.248071 1_544
Al1 Dy1 3.248071 1_454
Al2 Al6 2.768207 1_555
Al2 Al4 2.768207 1_555
Al2 Al4 2.770586 1_546
Al2 Al6 2.770586 1_456
Al2 Dy1 3.245606 1_455
Al2 Dy1 3.245606 1_545
Al2 Tb0 3.247036 1_545
Al2 Tb0 3.247036 1_455
Al2 Dy0 3.248809 1_555
Al2 Dy2 3.252424 1_556
Al3 Al7 2.769395 1_654
Al3 Al5 2.769395 1_564
Al3 Al7 2.769398 1_555
Al3 Al5 2.769398 1_555
Al3 Dy0 3.245382 1_565
Al3 Dy0 3.245382 1_655
Al3 Dy2 3.247152 1_655
Al3 Dy2 3.247152 1_565
Al3 Dy1 3.248773 1_555
Al3 Tb0 3.252279 1_554
Al4 Al6 2.768207 1_555
Al4 Al6 2.770586 1_465
Al4 Dy1 3.245605 1_455
Al4 Dy1 3.245606 1_554
Al4 Tb0 3.247036 1_554
Al4 Tb0 3.247036 1_455
Al4 Dy0 3.248808 1_555
Al4 Dy2 3.252423 1_565
Al5 Al7 2.769395 1_645
Al5 Al7 2.769398 1_555
Al5 Dy0 3.245381 1_655
Al5 Dy0 3.245382 1_556
Al5 Dy2 3.247152 1_556
Al5 Dy2 3.247152 1_655
Al5 Dy1 3.248773 1_555
Al5 Tb0 3.252279 1_545
Al6 Dy1 3.245605 1_545
Al6 Dy1 3.245606 1_554
Al6 Tb0 3.247036 1_554
Al6 Tb0 3.247036 1_545
Al6 Dy0 3.248808 1_555
Al6 Dy2 3.252423 1_655
Al7 Dy0 3.245381 1_565
Al7 Dy0 3.245382 1_556
Al7 Dy2 3.247152 1_556
Al7 Dy2 3.247152 1_565
Al7 Dy1 3.248773 1_555
Al7 Tb0 3.252279 1_455
