# generated using pymatgen
data_Cs2NbAgSe4
_symmetry_space_group_name_H-M   'P 1'
_cell_length_a   14.98631258
_cell_length_b   13.34295381
_cell_length_c   8.10174739
_cell_angle_alpha   84.93618496
_cell_angle_beta   62.48224300
_cell_angle_gamma   32.58157204
_symmetry_Int_Tables_number   1
_chemical_formula_structural   Cs2NbAgSe4
_chemical_formula_sum   'Cs4 Nb2 Ag2 Se8'
_cell_volume   600.61982266
_cell_formula_units_Z   2
loop_
 _symmetry_equiv_pos_site_id
 _symmetry_equiv_pos_as_xyz
  1  'x, y, z'
loop_
 _atom_site_type_symbol
 _atom_site_label
 _atom_site_symmetry_multiplicity
 _atom_site_fract_x
 _atom_site_fract_y
 _atom_site_fract_z
 _atom_site_occupancy
  Cs  Cs0  1  0.92932800  0.92932800  0.57067200  1
  Cs  Cs1  1  0.57067200  0.57067200  0.92932800  1
  Cs  Cs2  1  0.67932800  0.67932800  0.32067200  1
  Cs  Cs3  1  0.32067200  0.32067200  0.67932800  1
  Nb  Nb0  1  0.75000000  0.75000000  0.75000000  1
  Nb  Nb1  1  0.50000000  0.50000000  0.50000000  1
  Ag  Ag0  1  0.00000000  0.00000000  0.00000000  1
  Ag  Ag1  1  0.25000000  0.25000000  0.25000000  1
  Se  Se0  1  0.56783600  0.32206400  0.23917300  1
  Se  Se1  1  0.87092700  0.23917300  0.32206400  1
  Se  Se2  1  0.23917300  0.87092700  0.56783600  1
  Se  Se3  1  0.32206400  0.56783600  0.87092700  1
  Se  Se4  1  0.92793600  0.68216400  0.37907300  1
  Se  Se5  1  0.37907300  0.01082700  0.92793600  1
  Se  Se6  1  0.01082700  0.37907300  0.68216400  1
  Se  Se7  1  0.68216400  0.92793600  0.01082700  1
loop_
_geom_bond_atom_site_label_1
_geom_bond_atom_site_label_2
_geom_bond_distance
_geom_bond_site_symmetry_2
Cs0 Se3 3.722985 1_565
Cs0 Se0 3.722985 1_655
Cs0 Se7 3.786256 1_556
Cs0 Se4 3.786256 1_555
Cs0 Se1 3.996993 1_565
Cs0 Se2 3.996993 1_655
Cs0 Se3 4.024650 1_654
Cs0 Se0 4.024650 1_566
Cs1 Se2 3.722985 1_556
Cs1 Se1 3.722985 1_555
Cs1 Se6 3.786256 1_655
Cs1 Se5 3.786256 1_565
Cs1 Se3 3.996993 1_555
Cs1 Se0 3.996993 1_556
Cs1 Se1 4.024650 1_466
Cs1 Se2 4.024650 1_645
Cs2 Se5 3.722985 1_565
Cs2 Se6 3.722985 1_654
Cs2 Se1 3.786256 1_555
Cs2 Se2 3.786256 1_555
Cs2 Se4 3.996993 1_555
Cs2 Se7 3.996993 1_555
Cs2 Se5 4.024650 1_654
Cs2 Se6 4.024650 1_565
Cs3 Se4 3.722985 1_545
Cs3 Se7 3.722985 1_456
Cs3 Se3 3.786256 1_555
Cs3 Se0 3.786256 1_555
Cs3 Se5 3.996993 1_555
Cs3 Se6 3.996993 1_555
Cs3 Se4 4.024650 1_456
Cs3 Se7 4.024650 1_545
Nb0 Se7 2.443093 1_556
Nb0 Se4 2.443093 1_555
Nb0 Se6 2.443093 1_655
Nb0 Se5 2.443093 1_565
Nb1 Se3 2.443093 1_555
Nb1 Se2 2.443093 1_555
Nb1 Se1 2.443093 1_555
Nb1 Se0 2.443093 1_555
Ag0 Se3 2.671572 1_544
Ag0 Se0 2.671572 1_455
Ag0 Se2 2.671572 1_544
Ag0 Se1 2.671572 1_455
Ag1 Se4 2.671572 1_455
Ag1 Se7 2.671572 1_545
Ag1 Se6 2.671572 1_555
Ag1 Se5 2.671572 1_554
