# generated using pymatgen
data_LiMgAlH6
_symmetry_space_group_name_H-M   'P 1'
_cell_length_a   8.00049842
_cell_length_b   8.00049842
_cell_length_c   4.37376000
_cell_angle_alpha   90.00000000
_cell_angle_beta   90.00000000
_cell_angle_gamma   120.00000350
_symmetry_Int_Tables_number   1
_chemical_formula_structural   LiMgAlH6
_chemical_formula_sum   'Li3 Mg3 Al3 H18'
_cell_volume   242.44858443
_cell_formula_units_Z   3
loop_
 _symmetry_equiv_pos_site_id
 _symmetry_equiv_pos_as_xyz
  1  'x, y, z'
loop_
 _atom_site_type_symbol
 _atom_site_label
 _atom_site_symmetry_multiplicity
 _atom_site_fract_x
 _atom_site_fract_y
 _atom_site_fract_z
 _atom_site_occupancy
  Li  Li0  1  0.29580700  0.29580700  0.50000000  1
  Li  Li1  1  0.00000000  0.70419300  0.50000000  1
  Li  Li2  1  0.70419300  0.00000000  0.50000000  1
  Mg  Mg0  1  0.63672300  0.63672300  0.00000000  1
  Mg  Mg1  1  0.00000000  0.36327700  0.00000000  1
  Mg  Mg2  1  0.36327700  0.00000000  0.00000000  1
  Al  Al0  1  0.00000000  0.00000000  0.00000000  1
  Al  Al1  1  0.33333300  0.66666700  0.49684800  1
  Al  Al2  1  0.66666700  0.33333300  0.50315200  1
  H  H0  1  0.20919500  0.09430900  0.77934400  1
  H  H1  1  0.88511300  0.79080500  0.77934400  1
  H  H2  1  0.90569100  0.11488700  0.77934400  1
  H  H3  1  0.11488700  0.90569100  0.22065600  1
  H  H4  1  0.79080500  0.88511300  0.22065600  1
  H  H5  1  0.09430900  0.20919500  0.22065600  1
  H  H6  1  0.87398600  0.45543800  0.72939400  1
  H  H7  1  0.58145200  0.12601400  0.72939400  1
  H  H8  1  0.54456200  0.41854800  0.72939400  1
  H  H9  1  0.41854800  0.54456200  0.27060600  1
  H  H10  1  0.12601400  0.58145200  0.27060600  1
  H  H11  1  0.45543800  0.87398600  0.27060600  1
  H  H12  1  0.54129900  0.76394200  0.72364300  1
  H  H13  1  0.22264300  0.45870100  0.72364300  1
  H  H14  1  0.23605800  0.77735700  0.72364300  1
  H  H15  1  0.77735700  0.23605800  0.27635700  1
  H  H16  1  0.45870100  0.22264300  0.27635700  1
  H  H17  1  0.76394200  0.54129900  0.27635700  1
loop_
_geom_bond_atom_site_label_1
_geom_bond_atom_site_label_2
_geom_bond_distance
_geom_bond_site_symmetry_2
Al0 H5 1.743287 1_555
Al0 H0 1.743287 1_554
Al0 H4 1.743288 1_445
Al0 H1 1.743288 1_444
Al0 H3 1.743293 1_545
Al0 H2 1.743293 1_454
Al1 H14 1.750163 1_555
Al1 H13 1.750168 1_555
Al1 H12 1.750169 1_555
Al1 H10 1.750513 1_555
Al1 H11 1.750513 1_555
Al1 H9 1.750519 1_555
Al2 H15 1.750163 1_555
Al2 H16 1.750168 1_555
Al2 H17 1.750169 1_555
Al2 H7 1.750513 1_555
Al2 H6 1.750513 1_555
Al2 H8 1.750519 1_555
H0 Li0 1.858671 1_555
H0 Mg2 1.987577 1_556
H1 Li1 1.858677 1_655
H1 Mg0 1.987571 1_556
H2 Li2 1.858672 1_555
H2 Mg1 1.987570 1_656
H3 Li1 1.858672 1_555
H3 Mg2 1.987570 1_565
H4 Li2 1.858677 1_565
H4 Mg0 1.987571 1_555
H5 Li0 1.858671 1_555
H5 Mg1 1.987577 1_555
H6 Mg1 1.924647 1_656
H6 Li1 1.994336 1_655
H7 Mg2 1.924647 1_556
H7 Li2 1.994336 1_555
H8 Mg0 1.924647 1_556
H8 Li0 1.994336 1_555
H9 Mg0 1.924647 1_555
H9 Li0 1.994336 1_555
H10 Mg1 1.924647 1_555
H10 Li1 1.994336 1_555
H11 Mg2 1.924647 1_565
H11 Li2 1.994336 1_565
H12 Li2 1.939251 1_565
H12 Mg0 1.963882 1_556
H13 Li0 1.939251 1_555
H13 Mg1 1.963882 1_556
H14 Li1 1.939251 1_555
H14 Mg2 1.963882 1_566
H15 Li2 1.939251 1_555
H15 Mg1 1.963882 1_655
H16 Li0 1.939251 1_555
H16 Mg2 1.963882 1_555
H17 Li1 1.939251 1_655
H17 Mg0 1.963882 1_555
