# generated using pymatgen
data_Mg6ZnSb
_symmetry_space_group_name_H-M   'P 1'
_cell_length_a   5.19378600
_cell_length_b   6.47080300
_cell_length_c   10.55500000
_cell_angle_alpha   90.00000000
_cell_angle_beta   90.00000000
_cell_angle_gamma   90.00000000
_symmetry_Int_Tables_number   1
_chemical_formula_structural   Mg6ZnSb
_chemical_formula_sum   'Mg12 Zn2 Sb2'
_cell_volume   354.73208145
_cell_formula_units_Z   2
loop_
 _symmetry_equiv_pos_site_id
 _symmetry_equiv_pos_as_xyz
  1  'x, y, z'
loop_
 _atom_site_type_symbol
 _atom_site_label
 _atom_site_symmetry_multiplicity
 _atom_site_fract_x
 _atom_site_fract_y
 _atom_site_fract_z
 _atom_site_occupancy
  Mg  Mg0  1  0.50000000  0.74949600  0.08447500  1
  Mg  Mg1  1  0.50000000  0.25050400  0.08447500  1
  Mg  Mg2  1  0.00000000  0.75726700  0.91503400  1
  Mg  Mg3  1  0.00000000  0.24273300  0.91503400  1
  Mg  Mg4  1  0.00000000  0.50000000  0.16843400  1
  Mg  Mg5  1  0.00000000  0.50000000  0.66667600  1
  Mg  Mg6  1  0.50000000  0.24949600  0.58447500  1
  Mg  Mg7  1  0.50000000  0.75050400  0.58447500  1
  Mg  Mg8  1  0.00000000  0.25726700  0.41503400  1
  Mg  Mg9  1  0.00000000  0.74273300  0.41503400  1
  Mg  Mg10  1  0.00000000  0.00000000  0.66843400  1
  Mg  Mg11  1  0.00000000  0.00000000  0.16667600  1
  Zn  Zn0  1  0.50000000  0.50000000  0.33148100  1
  Zn  Zn1  1  0.50000000  0.00000000  0.83148100  1
  Sb  Sb0  1  0.50000000  0.50000000  0.83439500  1
  Sb  Sb1  1  0.50000000  0.00000000  0.33439500  1
loop_
_geom_bond_atom_site_label_1
_geom_bond_atom_site_label_2
_geom_bond_distance
_geom_bond_site_symmetry_2
Mg0 Zn0 3.066535 1_555
Mg0 Sb0 3.094168 1_554
Mg0 Sb1 3.096137 1_565
Mg0 Zn1 3.123827 1_564
Mg0 Mg2 3.153559 1_554
Mg0 Mg2 3.153559 1_654
Mg0 Mg4 3.183645 1_655
Mg0 Mg4 3.183645 1_555
Mg1 Zn0 3.066535 1_555
Mg1 Sb0 3.094168 1_554
Mg1 Sb1 3.096137 1_555
Mg1 Zn1 3.123827 1_554
Mg1 Mg3 3.153559 1_554
Mg1 Mg3 3.153559 1_654
Mg1 Mg4 3.183645 1_555
Mg1 Mg4 3.183645 1_655
Mg2 Mg5 3.105341 1_555
Mg2 Mg3 3.141355 1_565
Mg2 Mg4 3.150395 1_556
Mg2 Zn1 3.160480 1_565
Mg2 Zn1 3.160480 1_465
Mg2 Sb0 3.199939 1_555
Mg2 Sb0 3.199939 1_455
Mg2 Mg3 3.329448 1_555
Mg3 Mg5 3.105341 1_555
Mg3 Mg4 3.150395 1_556
Mg3 Zn1 3.160480 1_555
Mg3 Zn1 3.160480 1_455
Mg3 Sb0 3.199939 1_455
Mg3 Sb0 3.199939 1_555
Mg4 Mg9 3.040053 1_555
Mg4 Mg8 3.040053 1_555
Mg4 Zn0 3.115375 1_455
Mg4 Zn0 3.115375 1_555
Mg5 Mg9 3.085741 1_555
Mg5 Mg8 3.085741 1_555
Mg5 Sb0 3.142885 1_455
Mg5 Sb0 3.142885 1_555
Mg6 Zn1 3.066535 1_555
Mg6 Sb1 3.094168 1_555
Mg6 Sb0 3.096137 1_555
Mg6 Zn0 3.123827 1_555
Mg6 Mg8 3.153559 1_655
Mg6 Mg8 3.153559 1_555
Mg7 Zn1 3.066535 1_565
Mg7 Sb1 3.094168 1_565
Mg7 Sb0 3.096137 1_555
Mg7 Zn0 3.123827 1_555
Mg7 Mg9 3.153559 1_655
Mg7 Mg9 3.153559 1_555
Mg8 Mg9 3.141355 1_555
Mg8 Zn0 3.160480 1_455
Mg8 Zn0 3.160480 1_555
Mg8 Sb1 3.199939 1_455
Mg8 Sb1 3.199939 1_555
Mg8 Mg9 3.329448 1_545
Mg9 Zn0 3.160480 1_555
Mg9 Zn0 3.160480 1_455
Mg9 Sb1 3.199939 1_465
Mg9 Sb1 3.199939 1_565
Mg10 Mg3 3.040053 1_555
Mg10 Mg2 3.040053 1_545
Mg10 Zn1 3.115375 1_455
Mg10 Zn1 3.115375 1_555
Mg10 Mg8 3.150395 1_555
Mg10 Mg9 3.150395 1_545
Mg10 Mg6 3.183645 1_555
Mg10 Mg6 3.183645 1_455
Mg10 Mg7 3.183645 1_545
Mg10 Mg7 3.183645 1_445
Mg10 Mg5 3.235455 1_555
Mg10 Mg5 3.235455 1_545
Mg11 Mg3 3.085741 1_554
Mg11 Mg2 3.085741 1_544
Mg11 Mg8 3.105341 1_555
Mg11 Mg9 3.105341 1_545
Mg11 Sb1 3.142885 1_555
Mg11 Sb1 3.142885 1_455
Mg11 Mg4 3.235455 1_555
Mg11 Mg4 3.235455 1_545
Sb0 Zn1 3.235548 1_555
Sb0 Zn1 3.235548 1_565
Sb1 Zn0 3.235548 1_545
Sb1 Zn0 3.235548 1_555
