# generated using pymatgen
data_Sr7CaFe5(CoO8)3
_symmetry_space_group_name_H-M   'P 1'
_cell_length_a   7.76446383
_cell_length_b   7.76446383
_cell_length_c   7.76841307
_cell_angle_alpha   89.99439939
_cell_angle_beta   89.99439939
_cell_angle_gamma   90.01175072
_symmetry_Int_Tables_number   1
_chemical_formula_structural   Sr7CaFe5(CoO8)3
_chemical_formula_sum   'Sr7 Ca1 Fe5 Co3 O24'
_cell_volume   468.33351712
_cell_formula_units_Z   1
loop_
 _symmetry_equiv_pos_site_id
 _symmetry_equiv_pos_as_xyz
  1  'x, y, z'
loop_
 _atom_site_type_symbol
 _atom_site_label
 _atom_site_symmetry_multiplicity
 _atom_site_fract_x
 _atom_site_fract_y
 _atom_site_fract_z
 _atom_site_occupancy
  Sr  Sr0  1  0.74840700  0.25160200  0.25208800  1
  Sr  Sr1  1  0.74847500  0.25159600  0.74786700  1
  Sr  Sr2  1  0.74843900  0.74843900  0.74776400  1
  Sr  Sr3  1  0.25160500  0.25160500  0.25205600  1
  Sr  Sr4  1  0.25151600  0.25151600  0.74791300  1
  Sr  Sr5  1  0.25160200  0.74840700  0.25208800  1
  Sr  Sr6  1  0.25159600  0.74847500  0.74786700  1
  Ca  Ca0  1  0.74842700  0.74842700  0.25179100  1
  Fe  Fe0  1  0.99941800  0.99941800  0.00059000  1
  Fe  Fe1  1  0.99903700  0.99903700  0.49946900  1
  Fe  Fe2  1  0.99944200  0.50057100  0.00077700  1
  Fe  Fe3  1  0.50057100  0.99944200  0.00077700  1
  Fe  Fe4  1  0.50058000  0.50058000  0.00094800  1
  Co  Co0  1  0.99936600  0.50042000  0.49946500  1
  Co  Co1  1  0.50042000  0.99936600  0.49946500  1
  Co  Co2  1  0.50074500  0.50074500  0.49963300  1
  O  O0  1  0.74934600  0.99764600  0.00231500  1
  O  O1  1  0.74208800  0.99747700  0.49753600  1
  O  O2  1  0.74834600  0.50235600  0.00248300  1
  O  O3  1  0.75017700  0.50271500  0.49744800  1
  O  O4  1  0.25066500  0.99958300  0.00047200  1
  O  O5  1  0.25812800  0.99979100  0.49973200  1
  O  O6  1  0.25168100  0.50047600  0.00034000  1
  O  O7  1  0.24964100  0.50039900  0.49942300  1
  O  O8  1  0.99958300  0.25066500  0.00047200  1
  O  O9  1  0.99979100  0.25812800  0.49973200  1
  O  O10  1  0.99764600  0.74934600  0.00231500  1
  O  O11  1  0.99747700  0.74208800  0.49753600  1
  O  O12  1  0.50047600  0.25168100  0.00034000  1
  O  O13  1  0.50039900  0.24964100  0.49942300  1
  O  O14  1  0.50235600  0.74834600  0.00248300  1
  O  O15  1  0.50271500  0.75017700  0.49744800  1
  O  O16  1  0.99770400  0.99770400  0.25276800  1
  O  O17  1  0.99952700  0.99952700  0.74719300  1
  O  O18  1  0.99746900  0.50260700  0.25342900  1
  O  O19  1  0.99956500  0.50023600  0.74661400  1
  O  O20  1  0.50260700  0.99746900  0.25342900  1
  O  O21  1  0.50023600  0.99956500  0.74661400  1
  O  O22  1  0.50205700  0.50205700  0.26008800  1
  O  O23  1  0.50067300  0.50067300  0.73980800  1
loop_
_geom_bond_atom_site_label_1
_geom_bond_atom_site_label_2
_geom_bond_distance
_geom_bond_site_symmetry_2
Ca0 O3 2.698357 1_555
Ca0 O15 2.698357 1_555
Ca0 O22 2.705774 1_555
Ca0 O18 2.717309 1_555
Ca0 O20 2.717309 1_555
Ca0 O11 2.717900 1_555
Ca0 O1 2.717900 1_555
Ca0 O2 2.720674 1_555
Ca0 O14 2.720674 1_555
Ca0 O16 2.736944 1_555
Ca0 O0 2.738559 1_555
Ca0 O10 2.738559 1_555
Fe0 O0 1.941766 1_555
Fe0 O10 1.941766 1_555
Fe0 O4 1.950799 1_655
Fe0 O8 1.950799 1_565
Fe0 O16 1.959111 1_555
Fe0 O17 1.968493 1_554
Fe1 O16 1.916533 1_555
Fe1 O17 1.924431 1_555
Fe1 O11 1.995163 1_555
Fe1 O1 1.995163 1_555
Fe1 O9 2.011711 1_565
Fe1 O5 2.011711 1_655
Fe2 O10 1.931696 1_555
Fe2 O8 1.940388 1_555
Fe2 O2 1.949722 1_555
Fe2 O6 1.958503 1_655
Fe2 O18 1.962829 1_555
Fe2 O19 1.974445 1_554
Fe3 O0 1.931696 1_555
Fe3 O4 1.940388 1_555
Fe3 O14 1.949722 1_555
Fe3 O12 1.958503 1_565
Fe3 O20 1.962829 1_555
Fe3 O21 1.974445 1_554
Fe4 O14 1.923855 1_555
Fe4 O2 1.923855 1_555
Fe4 O6 1.932574 1_555
Fe4 O12 1.932574 1_555
Fe4 O22 2.013174 1_555
Fe4 O23 2.028644 1_554
Co0 O11 1.876541 1_555
Co0 O9 1.881272 1_555
Co0 O18 1.911441 1_555
Co0 O19 1.919957 1_555
Co0 O3 1.934970 1_555
Co0 O7 1.943251 1_655
Co1 O1 1.876541 1_555
Co1 O5 1.881272 1_555
Co1 O20 1.911441 1_555
Co1 O21 1.919957 1_555
Co1 O15 1.934970 1_555
Co1 O13 1.943251 1_565
Co2 O22 1.860938 1_555
Co2 O23 1.865779 1_555
Co2 O15 1.936836 1_555
Co2 O3 1.936836 1_555
Co2 O7 1.949690 1_555
Co2 O13 1.949690 1_555
O0 Sr0 2.766558 1_565
O0 Sr2 2.766803 1_554
O0 Sr1 2.791846 1_564
O1 Sr2 2.742151 1_555
O1 Sr0 2.744189 1_565
O1 Sr1 2.770932 1_565
O2 Sr0 2.747692 1_555
O2 Sr2 2.750554 1_554
O2 Sr1 2.775602 1_554
O3 Sr2 2.724401 1_555
O3 Sr0 2.726815 1_555
O3 Sr1 2.754192 1_555
O4 Sr5 2.761062 1_555
O4 Sr3 2.765798 1_565
O4 Sr6 2.766403 1_554
O4 Sr4 2.770394 1_564
O5 Sr5 2.741178 1_555
O5 Sr6 2.743206 1_555
O5 Sr3 2.743477 1_565
O5 Sr4 2.746012 1_565
O6 Sr5 2.744313 1_555
O6 Sr6 2.748431 1_554
O6 Sr3 2.748992 1_555
O6 Sr4 2.753678 1_554
O7 Sr5 2.720183 1_555
O7 Sr3 2.724952 1_555
O7 Sr6 2.726916 1_555
O7 Sr4 2.731332 1_555
O8 Sr0 2.761062 1_555
O8 Sr3 2.765798 1_655
O8 Sr1 2.766403 1_554
O8 Sr4 2.770394 1_654
O9 Sr0 2.741178 1_555
O9 Sr1 2.743206 1_555
O9 Sr3 2.743477 1_655
O9 Sr4 2.746012 1_655
O10 Sr5 2.766558 1_655
O10 Sr2 2.766803 1_554
O10 Sr6 2.791846 1_654
O11 Sr2 2.742151 1_555
O11 Sr5 2.744189 1_655
O11 Sr6 2.770932 1_655
O12 Sr0 2.744313 1_555
O12 Sr1 2.748431 1_554
O12 Sr3 2.748992 1_555
O12 Sr4 2.753678 1_554
O13 Sr0 2.720183 1_555
O13 Sr3 2.724952 1_555
O13 Sr1 2.726916 1_555
O13 Sr4 2.731332 1_555
O14 Sr5 2.747692 1_555
O14 Sr2 2.750554 1_554
O14 Sr6 2.775602 1_554
O15 Sr2 2.724401 1_555
O15 Sr5 2.726815 1_555
O15 Sr6 2.754192 1_555
O16 Sr5 2.763098 1_655
O16 Sr0 2.763098 1_565
O16 Sr3 2.787707 1_665
O17 Sr2 2.756820 1_555
O17 Sr6 2.762582 1_655
O17 Sr1 2.762582 1_565
O17 Sr4 2.766716 1_665
O18 Sr5 2.744903 1_655
O18 Sr0 2.745281 1_555
O18 Sr3 2.773720 1_655
O19 Sr2 2.741811 1_555
O19 Sr1 2.743438 1_555
O19 Sr6 2.746451 1_655
O19 Sr4 2.749194 1_655
O20 Sr0 2.744903 1_565
O20 Sr5 2.745281 1_555
O20 Sr3 2.773720 1_565
O21 Sr2 2.741811 1_555
O21 Sr6 2.743438 1_555
O21 Sr1 2.746451 1_565
O21 Sr4 2.749194 1_565
O22 Sr0 2.728692 1_555
O22 Sr5 2.728692 1_555
O22 Sr3 2.750550 1_555
O23 Sr2 2.721053 1_555
O23 Sr1 2.729024 1_555
O23 Sr6 2.729024 1_555
O23 Sr4 2.736331 1_555
