# generated using pymatgen
data_V4(OF3)3
_symmetry_space_group_name_H-M   'P 1'
_cell_length_a   5.27861500
_cell_length_b   5.37811212
_cell_length_c   9.04521273
_cell_angle_alpha   105.58352097
_cell_angle_beta   90.07251596
_cell_angle_gamma   118.79185161
_symmetry_Int_Tables_number   1
_chemical_formula_structural   V4(OF3)3
_chemical_formula_sum   'V4 O3 F9'
_cell_volume   214.15501259
_cell_formula_units_Z   1
loop_
 _symmetry_equiv_pos_site_id
 _symmetry_equiv_pos_as_xyz
  1  'x, y, z'
loop_
 _atom_site_type_symbol
 _atom_site_label
 _atom_site_symmetry_multiplicity
 _atom_site_fract_x
 _atom_site_fract_y
 _atom_site_fract_z
 _atom_site_occupancy
  V  V0  1  0.25032200  0.75100500  0.74978000  1
  V  V1  1  0.50133100  0.46859000  0.50581300  1
  V  V2  1  0.73546700  0.26467300  0.25529400  1
  V  V3  1  0.99942300  0.03302400  0.99275900  1
  O  O0  1  0.03961500  0.35881900  0.87989300  1
  O  O1  1  0.45998700  0.14177100  0.62073400  1
  O  O2  1  0.59322100  0.40796700  0.33053800  1
  F  F0  1  0.08169700  0.33112100  0.41836900  1
  F  F1  1  0.07235500  0.91332800  0.83101100  1
  F  F2  1  0.57512200  0.82567700  0.92419200  1
  F  F3  1  0.42728300  0.58881300  0.66827600  1
  F  F4  1  0.42188000  0.16356800  0.07842100  1
  F  F5  1  0.53863200  0.86402700  0.37515900  1
  F  F6  1  0.96163700  0.62961300  0.11924600  1
  F  F7  1  0.91651300  0.08174000  0.17409800  1
  F  F8  1  0.92551500  0.67626400  0.57641800  1
loop_
_geom_bond_atom_site_label_1
_geom_bond_atom_site_label_2
_geom_bond_distance
_geom_bond_site_symmetry_2
O0 V3 2.181942 1_455
O0 V0 2.479568 1_555
O1 V1 2.197793 1_555
O1 V0 2.466742 1_545
O2 V2 1.377602 1_555
O2 V1 1.652763 1_555
F0 V1 2.045163 1_555
F0 V2 2.173587 1_455
F1 V3 1.561163 1_465
F1 V0 1.622212 1_555
F2 V3 1.965603 1_565
F2 V0 2.139881 1_555
F3 V1 1.569936 1_555
F3 V0 1.618037 1_555
F4 V2 2.062553 1_555
F4 V3 2.064308 1_454
F5 V2 2.449362 1_565
F5 V1 2.627904 1_555
F6 V2 2.415802 1_555
F6 V3 2.640696 1_564
F7 V3 1.682847 1_554
F7 V2 1.714604 1_555
F8 V1 1.968014 1_555
F8 V0 2.133258 1_655
