# generated using pymatgen
data_ScTc2
_symmetry_space_group_name_H-M   'P 1'
_cell_length_a   5.23587272
_cell_length_b   5.23587322
_cell_length_c   8.63502500
_cell_angle_alpha   90.00000000
_cell_angle_beta   90.00000000
_cell_angle_gamma   119.99999968
_symmetry_Int_Tables_number   1
_chemical_formula_structural   ScTc2
_chemical_formula_sum   'Sc4 Tc8'
_cell_volume   205.00876808
_cell_formula_units_Z   4
loop_
 _symmetry_equiv_pos_site_id
 _symmetry_equiv_pos_as_xyz
  1  'x, y, z'
loop_
 _atom_site_type_symbol
 _atom_site_label
 _atom_site_symmetry_multiplicity
 _atom_site_fract_x
 _atom_site_fract_y
 _atom_site_fract_z
 _atom_site_occupancy
  Sc  Sc0  1  0.66666700  0.33333400  0.56229600  1
  Sc  Sc1  1  0.33333300  0.66666600  0.43770400  1
  Sc  Sc2  1  0.33333300  0.66666600  0.06229600  1
  Sc  Sc3  1  0.66666700  0.33333400  0.93770400  1
  Tc  Tc0  1  0.00000000  0.00000000  0.50000000  1
  Tc  Tc1  1  0.00000000  0.00000000  0.00000000  1
  Tc  Tc2  1  0.17199700  0.34399400  0.75000000  1
  Tc  Tc3  1  0.17199700  0.82800400  0.75000000  1
  Tc  Tc4  1  0.65600700  0.82800400  0.75000000  1
  Tc  Tc5  1  0.82800300  0.65600600  0.25000000  1
  Tc  Tc6  1  0.82800300  0.17199600  0.25000000  1
  Tc  Tc7  1  0.34399300  0.17199600  0.25000000  1
loop_
_geom_bond_atom_site_label_1
_geom_bond_atom_site_label_2
_geom_bond_distance
_geom_bond_site_symmetry_2
Sc0 Tc5 3.068034 1_555
Sc0 Tc7 3.068039 1_555
Sc0 Tc6 3.068039 1_555
Sc0 Tc0 3.070419 1_665
Sc0 Tc0 3.070423 1_555
Sc0 Tc0 3.070423 1_655
Sc0 Tc2 3.079450 1_655
Sc0 Tc2 3.079450 1_555
Sc0 Tc3 3.079450 1_655
Sc0 Tc3 3.079450 1_545
Sc0 Tc4 3.079450 1_555
Sc0 Tc4 3.079450 1_545
Sc1 Tc2 3.068034 1_555
Sc1 Tc4 3.068039 1_555
Sc1 Tc3 3.068039 1_555
Sc1 Tc0 3.070419 1_555
Sc1 Tc0 3.070423 1_665
Sc1 Tc0 3.070423 1_565
Sc1 Tc5 3.079450 1_455
Sc1 Tc5 3.079450 1_555
Sc1 Tc6 3.079450 1_455
Sc1 Tc6 3.079450 1_565
Sc1 Tc7 3.079450 1_555
Sc1 Tc7 3.079450 1_565
Sc2 Tc2 3.068034 1_554
Sc2 Tc4 3.068039 1_554
Sc2 Tc3 3.068039 1_554
Sc2 Tc1 3.070419 1_555
Sc2 Tc1 3.070423 1_665
Sc2 Tc1 3.070423 1_565
Sc2 Tc5 3.079450 1_455
Sc2 Tc5 3.079450 1_555
Sc2 Tc6 3.079450 1_455
Sc2 Tc6 3.079450 1_565
Sc2 Tc7 3.079450 1_555
Sc2 Tc7 3.079450 1_565
Sc3 Tc5 3.068034 1_556
Sc3 Tc7 3.068039 1_556
Sc3 Tc6 3.068039 1_556
Sc3 Tc1 3.070419 1_666
Sc3 Tc1 3.070423 1_556
Sc3 Tc1 3.070423 1_656
Sc3 Tc2 3.079450 1_655
Sc3 Tc2 3.079450 1_555
Sc3 Tc3 3.079450 1_655
Sc3 Tc3 3.079450 1_545
Sc3 Tc4 3.079450 1_555
Sc3 Tc4 3.079450 1_545
Tc0 Tc4 2.663308 1_445
Tc0 Tc7 2.663308 1_555
Tc0 Tc3 2.663308 1_545
Tc0 Tc6 2.663308 1_455
Tc0 Tc2 2.663311 1_555
Tc0 Tc5 2.663311 1_445
Tc1 Tc4 2.663308 1_444
Tc1 Tc7 2.663308 1_555
Tc1 Tc3 2.663308 1_544
Tc1 Tc6 2.663308 1_455
Tc1 Tc2 2.663311 1_554
Tc1 Tc5 2.663311 1_445
Tc2 Tc4 2.534215 1_555
Tc2 Tc3 2.534215 1_555
Tc2 Tc4 2.701658 1_445
Tc2 Tc3 2.701658 1_545
Tc3 Tc4 2.534215 1_555
Tc3 Tc4 2.701658 1_455
Tc5 Tc7 2.534215 1_555
Tc5 Tc6 2.534215 1_555
Tc5 Tc7 2.701658 1_665
Tc5 Tc6 2.701658 1_565
Tc6 Tc7 2.534215 1_555
Tc6 Tc7 2.701658 1_655
