# generated using pymatgen
data_Sr(CuO)2
_symmetry_space_group_name_H-M   'P 1'
_cell_length_a   5.45096050
_cell_length_b   5.45096009
_cell_length_c   6.24573346
_cell_angle_alpha   115.87279586
_cell_angle_beta   115.87280996
_cell_angle_gamma   89.99999957
_symmetry_Int_Tables_number   1
_chemical_formula_structural   Sr(CuO)2
_chemical_formula_sum   'Sr2 Cu4 O4'
_cell_volume   146.02556235
_cell_formula_units_Z   2
loop_
 _symmetry_equiv_pos_site_id
 _symmetry_equiv_pos_as_xyz
  1  'x, y, z'
loop_
 _atom_site_type_symbol
 _atom_site_label
 _atom_site_symmetry_multiplicity
 _atom_site_fract_x
 _atom_site_fract_y
 _atom_site_fract_z
 _atom_site_occupancy
  Sr  Sr0  1  0.62500000  0.37500000  0.25000000  1
  Sr  Sr1  1  0.37500000  0.62500000  0.75000000  1
  Cu  Cu0  1  0.50000000  0.00000000  0.50000000  1
  Cu  Cu1  1  -0.00000000  0.00000000  -0.00000000  1
  Cu  Cu2  1  -0.00000000  0.00000000  0.50000000  1
  Cu  Cu3  1  -0.00000000  0.50000000  -0.00000000  1
  O  O0  1  0.12522499  0.37522499  0.25044998  1
  O  O1  1  0.37522499  0.12522499  0.75044998  1
  O  O2  1  0.87477501  0.62477501  0.74955002  1
  O  O3  1  0.62477501  0.87477501  0.24955002  1
loop_
_geom_bond_atom_site_label_1
_geom_bond_atom_site_label_2
_geom_bond_distance
_geom_bond_site_symmetry_2
Cu0 O3 1.836313 1_545
Cu0 O1 1.836313 1_555
Cu1 O2 1.836312 1_444
Cu1 O0 1.836312 1_555
Cu2 O1 1.836312 1_555
Cu2 O3 1.836312 1_445
Cu3 O2 1.836312 1_454
Cu3 O0 1.836312 1_555
O0 Sr1 2.455058 1_555
O0 Sr0 2.725481 1_455
O0 Sr0 2.725481 1_555
O1 Sr0 2.455058 1_556
O1 Sr1 2.725481 1_555
O1 Sr1 2.725481 1_545
O2 Sr0 2.455058 1_555
O2 Sr1 2.725481 1_655
O2 Sr1 2.725481 1_555
O3 Sr1 2.455058 1_554
O3 Sr0 2.725481 1_555
O3 Sr0 2.725481 1_565
