# generated using pymatgen
data_CoH10(SeO5)2
_symmetry_space_group_name_H-M   'P 1'
_cell_length_a   8.01967109
_cell_length_b   8.01967109
_cell_length_c   10.77165037
_cell_angle_alpha   63.50608294
_cell_angle_beta   63.50608294
_cell_angle_gamma   66.44329450
_symmetry_Int_Tables_number   1
_chemical_formula_structural   CoH10(SeO5)2
_chemical_formula_sum   'Co2 H20 Se4 O20'
_cell_volume   537.21896556
_cell_formula_units_Z   2
loop_
 _symmetry_equiv_pos_site_id
 _symmetry_equiv_pos_as_xyz
  1  'x, y, z'
loop_
 _atom_site_type_symbol
 _atom_site_label
 _atom_site_symmetry_multiplicity
 _atom_site_fract_x
 _atom_site_fract_y
 _atom_site_fract_z
 _atom_site_occupancy
  Co  Co0  1  0.07491400  0.92508600  0.25000000  1
  Co  Co1  1  0.92508600  0.07491400  0.75000000  1
  H  H0  1  0.28091900  0.25993900  0.03125800  1
  H  H1  1  0.74006100  0.71908100  0.46874200  1
  H  H2  1  0.71908100  0.74006100  0.96874200  1
  H  H3  1  0.25993900  0.28091900  0.53125800  1
  H  H4  1  0.59197200  0.30157900  0.41559000  1
  H  H5  1  0.69842100  0.40802800  0.08441000  1
  H  H6  1  0.40802800  0.69842100  0.58441000  1
  H  H7  1  0.30157900  0.59197200  0.91559000  1
  H  H8  1  0.33693700  0.56906000  0.33723500  1
  H  H9  1  0.43094000  0.66306300  0.16276500  1
  H  H10  1  0.66306300  0.43094000  0.66276500  1
  H  H11  1  0.56906000  0.33693700  0.83723500  1
  H  H12  1  0.29265400  0.29279000  0.29572100  1
  H  H13  1  0.70721000  0.70734600  0.20427900  1
  H  H14  1  0.70734600  0.70721000  0.70427900  1
  H  H15  1  0.29279000  0.29265400  0.79572100  1
  H  H16  1  0.31172600  0.40181000  0.58880100  1
  H  H17  1  0.59819000  0.68827400  0.91119900  1
  H  H18  1  0.68827400  0.59819000  0.41119900  1
  H  H19  1  0.40181000  0.31172600  0.08880100  1
  Se  Se0  1  0.89803200  0.76719400  0.62303900  1
  Se  Se1  1  0.23280600  0.10196800  0.87696100  1
  Se  Se2  1  0.10196800  0.23280600  0.37696100  1
  Se  Se3  1  0.76719400  0.89803200  0.12303900  1
  O  O0  1  0.98095700  0.81346500  0.15848200  1
  O  O1  1  0.18653500  0.01904300  0.34151800  1
  O  O2  1  0.01904300  0.18653500  0.84151800  1
  O  O3  1  0.81346500  0.98095700  0.65848200  1
  O  O4  1  0.88412400  0.81904400  0.45186900  1
  O  O5  1  0.18095600  0.11587600  0.04813100  1
  O  O6  1  0.11587600  0.18095600  0.54813100  1
  O  O7  1  0.81904400  0.88412400  0.95186900  1
  O  O8  1  0.28628100  0.66198500  0.66118400  1
  O  O9  1  0.33801500  0.71371900  0.83881600  1
  O  O10  1  0.71371900  0.33801500  0.33881600  1
  O  O11  1  0.66198500  0.28628100  0.16118400  1
  O  O12  1  0.78271400  0.21728600  0.25000000  1
  O  O13  1  0.21728600  0.78271400  0.75000000  1
  O  O14  1  0.31894700  0.68105300  0.25000000  1
  O  O15  1  0.68105300  0.31894700  0.75000000  1
  O  O16  1  0.35341100  0.35720400  0.50613000  1
  O  O17  1  0.64279600  0.64658900  0.99387000  1
  O  O18  1  0.64658900  0.64279600  0.49387000  1
  O  O19  1  0.35720400  0.35341100  0.00613000  1
loop_
_geom_bond_atom_site_label_1
_geom_bond_atom_site_label_2
_geom_bond_distance
_geom_bond_site_symmetry_2
Co0 O5 2.052895 1_565
Co0 O4 2.052895 1_455
Co0 O1 2.080888 1_565
Co0 O0 2.080888 1_455
Co0 O14 2.144470 1_555
Co0 O12 2.567744 1_465
Co1 O6 2.052895 1_655
Co1 O7 2.052895 1_545
Co1 O2 2.080888 1_655
Co1 O3 2.080888 1_545
Co1 O15 2.144470 1_555
Co1 O13 2.567744 1_645
H0 O19 1.023356 1_555
H0 O5 1.559966 1_555
H1 O18 1.023356 1_555
H1 O4 1.559966 1_555
H2 O17 1.023356 1_555
H2 O7 1.559966 1_555
H3 O16 1.023356 1_555
H3 O6 1.559966 1_555
H4 O10 1.007286 1_555
H5 O11 1.007286 1_555
H6 O8 1.007286 1_555
H7 O9 1.007286 1_555
H8 O14 0.987345 1_555
H9 O14 0.987345 1_555
H10 O15 0.987345 1_555
H11 O15 0.987345 1_555
H12 Se2 1.534347 1_555
H13 Se3 1.534347 1_555
H14 Se0 1.534347 1_555
H15 Se1 1.534347 1_555
H16 O16 0.977621 1_555
H17 O17 0.977621 1_555
H18 O18 0.977621 1_555
H19 O19 0.977621 1_555
O0 Se3 1.722839 1_555
O1 Se2 1.722839 1_555
O2 Se1 1.722839 1_555
O3 Se0 1.722839 1_555
O4 Se0 1.745640 1_555
O5 Se1 1.745640 1_554
O6 Se2 1.745640 1_555
O7 Se3 1.745640 1_556
O10 O12 1.443875 1_555
O11 O12 1.443875 1_555
O13 O8 1.443875 1_555
O13 O9 1.443875 1_555
