# generated using pymatgen
data_K3CoPCO7
_symmetry_space_group_name_H-M   'P 1'
_cell_length_a   5.63820753
_cell_length_b   9.59668415
_cell_length_c   13.97847475
_cell_angle_alpha   89.92961342
_cell_angle_beta   89.97016930
_cell_angle_gamma   90.01211393
_symmetry_Int_Tables_number   1
_chemical_formula_structural   K3CoPCO7
_chemical_formula_sum   'K12 Co4 P4 C4 O28'
_cell_volume   756.34797568
_cell_formula_units_Z   4
loop_
 _symmetry_equiv_pos_site_id
 _symmetry_equiv_pos_as_xyz
  1  'x, y, z'
loop_
 _atom_site_type_symbol
 _atom_site_label
 _atom_site_symmetry_multiplicity
 _atom_site_fract_x
 _atom_site_fract_y
 _atom_site_fract_z
 _atom_site_occupancy
  K  K0  1  0.75654500  0.07207900  0.12516500  1
  K  K1  1  0.75790800  0.07132700  0.62476500  1
  K  K2  1  0.24368300  0.92875000  0.37460000  1
  K  K3  1  0.24147000  0.92775100  0.87547600  1
  K  K4  1  0.25830400  0.28791900  0.00538100  1
  K  K5  1  0.25618000  0.28690100  0.50581400  1
  K  K6  1  0.25433000  0.28844400  0.24439100  1
  K  K7  1  0.25673800  0.28611800  0.74440100  1
  K  K8  1  0.74150600  0.71267000  0.25596500  1
  K  K9  1  0.74447600  0.71383100  0.75492900  1
  K  K10  1  0.74314900  0.71269300  0.49358100  1
  K  K11  1  0.74399900  0.71147800  0.99507900  1
  Co  Co0  1  0.76446600  0.35523400  0.87098300  1
  Co  Co1  1  0.23770400  0.64657800  0.62396000  1
  Co  Co2  1  0.76066100  0.35252700  0.37459400  1
  Co  Co3  1  0.23744800  0.64671900  0.12551000  1
  P  P0  1  0.73334500  0.42095600  0.12607100  1
  P  P1  1  0.73176000  0.42073200  0.62461400  1
  P  P2  1  0.26710800  0.57965900  0.37557500  1
  P  P3  1  0.26781600  0.57850800  0.87498700  1
  C  C0  1  0.74349100  0.08493500  0.37517100  1
  C  C1  1  0.74390100  0.08532900  0.87429000  1
  C  C2  1  0.25547600  0.91501900  0.12488400  1
  C  C3  1  0.25746400  0.91471300  0.62508600  1
  O  O0  1  0.26082200  0.04933000  0.12550000  1
  O  O1  1  0.26212000  0.04904200  0.62524600  1
  O  O2  1  0.73931800  0.95062500  0.37521500  1
  O  O3  1  0.73711800  0.95096000  0.87490200  1
  O  O4  1  0.94379800  0.15397300  0.37416600  1
  O  O5  1  0.94512900  0.15312200  0.87199300  1
  O  O6  1  0.05502600  0.84641000  0.12122400  1
  O  O7  1  0.05712500  0.84581400  0.62772600  1
  O  O8  1  0.54841100  0.15927600  0.37610600  1
  O  O9  1  0.54983500  0.16066400  0.87621600  1
  O  O10  1  0.44983300  0.84008300  0.12792800  1
  O  O11  1  0.45213800  0.84019500  0.62231200  1
  O  O12  1  0.48019800  0.48767500  0.12433500  1
  O  O13  1  0.47799500  0.48620300  0.62647400  1
  O  O14  1  0.52167100  0.51504600  0.37483900  1
  O  O15  1  0.52099000  0.51188900  0.87507900  1
  O  O16  1  0.07863500  0.46178900  0.37591600  1
  O  O17  1  0.07866200  0.46083200  0.87454100  1
  O  O18  1  0.92283000  0.53845200  0.12658800  1
  O  O19  1  0.92061300  0.53834500  0.62436300  1
  O  O20  1  0.76434100  0.32668000  0.03634200  1
  O  O21  1  0.75690100  0.32673900  0.53408800  1
  O  O22  1  0.75720200  0.32748800  0.21738400  1
  O  O23  1  0.76284200  0.32601100  0.71482100  1
  O  O24  1  0.23735200  0.67392400  0.28519100  1
  O  O25  1  0.24029400  0.67261400  0.78452800  1
  O  O26  1  0.23988900  0.67375100  0.46621300  1
  O  O27  1  0.23998100  0.67219500  0.96549000  1
loop_
_geom_bond_atom_site_label_1
_geom_bond_atom_site_label_2
_geom_bond_distance
_geom_bond_site_symmetry_2
K0 O20 2.739673 1_555
K0 O6 2.743549 1_645
K0 O22 2.770794 1_555
K0 O0 2.803457 1_555
K0 O10 2.819025 1_545
K0 O0 2.851640 1_655
K1 O7 2.744613 1_645
K1 O23 2.750775 1_555
K1 O21 2.758073 1_555
K1 O1 2.803483 1_555
K1 O11 2.809259 1_545
K1 O1 2.850941 1_655
K2 O4 2.744456 1_465
K2 O24 2.747943 1_555
K2 O26 2.760650 1_555
K2 O8 2.800916 1_565
K2 O2 2.802341 1_555
K2 O2 2.851506 1_455
K3 O5 2.733710 1_465
K3 O27 2.755067 1_555
K3 O25 2.760242 1_555
K3 O3 2.803388 1_555
K3 O9 2.831509 1_565
K3 O3 2.852412 1_455
K4 O17 2.668273 1_554
K4 O9 2.730622 1_554
K4 O12 2.830893 1_555
K4 O0 2.837721 1_555
K4 O20 2.842858 1_455
K4 O5 2.876846 1_454
K4 O20 2.909866 1_555
K4 O15 3.180753 1_554
K5 O16 2.666659 1_555
K5 O8 2.739610 1_555
K5 O1 2.826576 1_555
K5 O13 2.841858 1_555
K5 O4 2.850278 1_455
K5 O21 2.868184 1_455
K5 O21 2.876409 1_555
K6 O16 2.671165 1_555
K6 O8 2.770234 1_555
K6 O4 2.830471 1_455
K6 O0 2.835189 1_555
K6 O12 2.842987 1_555
K6 O22 2.853142 1_455
K6 O22 2.884425 1_555
K7 O17 2.671134 1_555
K7 O9 2.752091 1_555
K7 O5 2.808374 1_455
K7 O13 2.819512 1_555
K7 O1 2.821476 1_555
K7 O23 2.841353 1_455
K7 O23 2.908269 1_555
K8 O18 2.667838 1_555
K8 O10 2.720534 1_555
K8 O14 2.807745 1_555
K8 O2 2.828939 1_555
K8 O24 2.849958 1_655
K8 O6 2.882553 1_655
K8 O24 2.895355 1_555
K9 O19 2.675779 1_555
K9 O11 2.760863 1_555
K9 O7 2.804207 1_655
K9 O3 2.828802 1_555
K9 O25 2.853747 1_655
K9 O15 2.855351 1_555
K9 O25 2.899377 1_555
K10 O19 2.671666 1_555
K10 O11 2.725913 1_555
K10 O14 2.814421 1_555
K10 O2 2.818260 1_555
K10 O26 2.851271 1_655
K10 O7 2.879311 1_655
K10 O26 2.887623 1_555
K11 O18 2.673628 1_556
K11 O10 2.779549 1_556
K11 O6 2.805200 1_656
K11 O15 2.841216 1_555
K11 O3 2.845353 1_555
K11 O27 2.851832 1_655
K11 O27 2.896538 1_555
K11 O12 3.174272 1_556
Co0 O15 2.036882 1_555
Co0 O17 2.041350 1_655
Co0 O5 2.191033 1_555
Co0 O23 2.201213 1_555
Co0 O9 2.225967 1_555
Co0 O20 2.327318 1_556
Co1 O13 2.050921 1_555
Co1 O19 2.067460 1_455
Co1 O7 2.167063 1_555
Co1 O11 2.216675 1_555
Co1 O26 2.220138 1_555
Co1 O25 2.258720 1_555
Co2 O14 2.061331 1_555
Co2 O16 2.076833 1_655
Co2 O4 2.167454 1_555
Co2 O8 2.207017 1_555
Co2 O22 2.211043 1_555
Co2 O21 2.242963 1_555
Co3 O12 2.050375 1_555
Co3 O18 2.055618 1_455
Co3 O6 2.175906 1_555
Co3 O10 2.208571 1_555
Co3 O24 2.247632 1_555
Co3 O27 2.249896 1_554
C0 O2 1.289140 1_545
C0 O4 1.309304 1_555
C0 O8 1.311210 1_555
C1 O3 1.290073 1_545
C1 O5 1.308103 1_555
C1 O9 1.311867 1_555
C2 O0 1.289326 1_565
C2 O6 1.308918 1_555
C2 O10 1.311529 1_555
C3 O1 1.289379 1_565
C3 O7 1.309206 1_555
C3 O11 1.310732 1_555
O12 P0 1.564642 1_555
O13 P1 1.562995 1_555
O14 P2 1.563648 1_555
O15 P3 1.564201 1_555
O16 P2 1.551853 1_555
O17 P3 1.553149 1_555
O18 P0 1.553182 1_555
O19 P1 1.551524 1_555
O20 P0 1.557216 1_555
O21 P1 1.561308 1_555
O22 P0 1.565033 1_555
O23 P1 1.563489 1_555
O24 P2 1.562126 1_555
O25 P3 1.560783 1_555
O26 P2 1.564230 1_555
O27 P3 1.560799 1_555
