# generated using pymatgen
data_H5CN6Cl
_symmetry_space_group_name_H-M   'P 1'
_cell_length_a   6.59518000
_cell_length_b   12.55083800
_cell_length_c   13.76927300
_cell_angle_alpha   90.00000000
_cell_angle_beta   90.00000000
_cell_angle_gamma   90.00000000
_symmetry_Int_Tables_number   1
_chemical_formula_structural   H5CN6Cl
_chemical_formula_sum   'H40 C8 N48 Cl8'
_cell_volume   1139.75206498
_cell_formula_units_Z   8
loop_
 _symmetry_equiv_pos_site_id
 _symmetry_equiv_pos_as_xyz
  1  'x, y, z'
loop_
 _atom_site_type_symbol
 _atom_site_label
 _atom_site_symmetry_multiplicity
 _atom_site_fract_x
 _atom_site_fract_y
 _atom_site_fract_z
 _atom_site_occupancy
  H  H0  1  0.64430600  0.23627000  0.78165800  1
  H  H1  1  0.35569400  0.76373000  0.28165800  1
  H  H2  1  0.85569400  0.73627000  0.78165800  1
  H  H3  1  0.14430600  0.26373000  0.28165800  1
  H  H4  1  0.23917900  0.03754300  0.88466600  1
  H  H5  1  0.76082100  0.96245700  0.38466600  1
  H  H6  1  0.26082100  0.53754300  0.88466600  1
  H  H7  1  0.73917900  0.46245700  0.38466600  1
  H  H8  1  0.73001800  0.21065000  0.97931600  1
  H  H9  1  0.26998200  0.78935000  0.47931600  1
  H  H10  1  0.76998200  0.71065000  0.97931600  1
  H  H11  1  0.23001800  0.28935000  0.47931600  1
  H  H12  1  0.50715500  0.50045600  0.84718100  1
  H  H13  1  0.49284500  0.49954400  0.34718100  1
  H  H14  1  0.99284500  0.00045600  0.84718100  1
  H  H15  1  0.00715500  0.99954400  0.34718100  1
  H  H16  1  0.39603200  0.02239400  0.05528800  1
  H  H17  1  0.60396800  0.97760600  0.55528800  1
  H  H18  1  0.10396800  0.52239400  0.05528800  1
  H  H19  1  0.89603200  0.47760600  0.55528800  1
  H  H20  1  0.45901800  0.08888100  0.32259600  1
  H  H21  1  0.54098200  0.91111900  0.82259600  1
  H  H22  1  0.04098200  0.58888100  0.32259600  1
  H  H23  1  0.95901800  0.41111900  0.82259600  1
  H  H24  1  0.12925400  0.17816500  0.18646000  1
  H  H25  1  0.87074600  0.82183500  0.68646000  1
  H  H26  1  0.37074600  0.67816500  0.18646000  1
  H  H27  1  0.62925400  0.32183500  0.68646000  1
  H  H28  1  0.47859000  0.24473200  0.50460100  1
  H  H29  1  0.52141000  0.75526800  0.00460100  1
  H  H30  1  0.02141000  0.74473200  0.50460100  1
  H  H31  1  0.97859000  0.25526800  0.00460100  1
  H  H32  1  0.42687200  0.33487900  0.04182600  1
  H  H33  1  0.57312800  0.66512100  0.54182600  1
  H  H34  1  0.07312800  0.83487900  0.04182600  1
  H  H35  1  0.92687200  0.16512100  0.54182600  1
  H  H36  1  0.60423900  0.05503500  0.65596000  1
  H  H37  1  0.39576100  0.94496500  0.15596000  1
  H  H38  1  0.89576100  0.55503500  0.65596000  1
  H  H39  1  0.10423900  0.44496500  0.15596000  1
  C  C0  1  0.28114700  0.39471700  0.81477100  1
  C  C1  1  0.71885300  0.60528300  0.31477100  1
  C  C2  1  0.21885300  0.89471700  0.81477100  1
  C  C3  1  0.78114700  0.10528300  0.31477100  1
  C  C4  1  0.24817800  0.14275400  0.54177200  1
  C  C5  1  0.75182200  0.85724600  0.04177200  1
  C  C6  1  0.25182200  0.64275400  0.54177200  1
  C  C7  1  0.74817800  0.35724600  0.04177200  1
  N  N0  1  0.03804200  0.01860500  0.59798200  1
  N  N1  1  0.96195800  0.98139500  0.09798200  1
  N  N2  1  0.46195800  0.51860500  0.59798200  1
  N  N3  1  0.53804200  0.48139500  0.09798200  1
  N  N4  1  0.07242200  0.26813100  0.76117700  1
  N  N5  1  0.92757800  0.73186900  0.26117700  1
  N  N6  1  0.42757800  0.76813100  0.76117700  1
  N  N7  1  0.57242200  0.23186900  0.26117700  1
  N  N8  1  0.35198400  0.05840000  0.57868900  1
  N  N9  1  0.64801600  0.94160000  0.07868900  1
  N  N10  1  0.14801600  0.55840000  0.57868900  1
  N  N11  1  0.85198400  0.44160000  0.07868900  1
  N  N12  1  0.28282800  0.48353800  0.61275700  1
  N  N13  1  0.71717200  0.51646200  0.11275700  1
  N  N14  1  0.21717200  0.98353800  0.61275700  1
  N  N15  1  0.78282800  0.01646200  0.11275700  1
  N  N16  1  0.05212600  0.11550100  0.55429300  1
  N  N17  1  0.94787400  0.88449900  0.05429300  1
  N  N18  1  0.44787400  0.61550100  0.55429300  1
  N  N19  1  0.55212600  0.38449900  0.05429300  1
  N  N20  1  0.35520200  0.48134400  0.85530900  1
  N  N21  1  0.64479800  0.51865600  0.35530900  1
  N  N22  1  0.14479800  0.98134400  0.85530900  1
  N  N23  1  0.85520200  0.01865600  0.35530900  1
  N  N24  1  0.59255800  0.30968600  0.75844900  1
  N  N25  1  0.40744200  0.69031400  0.25844900  1
  N  N26  1  0.90744200  0.80968600  0.75844900  1
  N  N27  1  0.09255800  0.19031400  0.25844900  1
  N  N28  1  0.38564600  0.31418900  0.77112200  1
  N  N29  1  0.61435400  0.68581100  0.27112200  1
  N  N30  1  0.11435400  0.81418900  0.77112200  1
  N  N31  1  0.88564600  0.18581100  0.27112200  1
  N  N32  1  0.08561300  0.36356500  0.80770300  1
  N  N33  1  0.91438700  0.63643500  0.30770300  1
  N  N34  1  0.41438700  0.86356500  0.80770300  1
  N  N35  1  0.58561300  0.13643500  0.30770300  1
  N  N36  1  0.55957600  0.04994400  0.58429600  1
  N  N37  1  0.44042400  0.95005600  0.08429600  1
  N  N38  1  0.94042400  0.54994400  0.58429600  1
  N  N39  1  0.05957600  0.45005600  0.08429600  1
  N  N40  1  0.25117200  0.23786400  0.73900900  1
  N  N41  1  0.74882800  0.76213600  0.23900900  1
  N  N42  1  0.24882800  0.73786400  0.73900900  1
  N  N43  1  0.75117200  0.26213600  0.23900900  1
  N  N44  1  0.32392600  0.22988300  0.50262800  1
  N  N45  1  0.67607400  0.77011700  0.00262800  1
  N  N46  1  0.17607400  0.72988300  0.50262800  1
  N  N47  1  0.82392600  0.27011700  0.00262800  1
  Cl  Cl0  1  0.28175600  0.19143900  0.01154700  1
  Cl  Cl1  1  0.71824400  0.80856100  0.51154700  1
  Cl  Cl2  1  0.21824400  0.69143900  0.01154700  1
  Cl  Cl3  1  0.78175600  0.30856100  0.51154700  1
  Cl  Cl4  1  0.68001300  0.06005300  0.84361200  1
  Cl  Cl5  1  0.31998700  0.93994700  0.34361200  1
  Cl  Cl6  1  0.81998700  0.56005300  0.84361200  1
  Cl  Cl7  1  0.18001300  0.43994700  0.34361200  1
loop_
_geom_bond_atom_site_label_1
_geom_bond_atom_site_label_2
_geom_bond_distance
_geom_bond_site_symmetry_2
H0 N24 1.033267 1_555
H1 N25 1.033267 1_555
H2 N26 1.033267 1_555
H3 N27 1.033267 1_555
H4 N22 1.023897 1_545
H5 N23 1.023897 1_565
H6 N20 1.023897 1_555
H7 N21 1.023897 1_555
H8 N47 1.021602 1_556
H9 N46 1.021602 1_555
H10 N45 1.021602 1_556
H11 N44 1.021602 1_555
H12 N20 1.036525 1_555
H13 N21 1.036525 1_555
H14 N22 1.036525 1_645
H15 N23 1.036525 1_465
H16 N37 1.034185 1_545
H17 N36 1.034185 1_565
H18 N39 1.034185 1_555
H19 N38 1.034185 1_555
H20 N35 1.046594 1_555
H21 N34 1.046594 1_555
H22 N33 1.046594 1_455
H23 N32 1.046594 1_655
H24 N27 1.031684 1_555
H25 N26 1.031684 1_555
H26 N25 1.031684 1_555
H27 N24 1.031684 1_555
H28 N44 1.037278 1_555
H29 N45 1.037278 1_555
H30 N46 1.037278 1_555
H31 N47 1.037278 1_555
H32 N19 1.048670 1_555
H33 N18 1.048670 1_555
H34 N17 1.048670 1_455
H35 N16 1.048670 1_655
H36 N36 1.031769 1_555
H37 N37 1.031769 1_555
H38 N38 1.031769 1_555
H39 N39 1.031769 1_555
C0 N20 1.316130 1_555
C0 N32 1.351059 1_555
C0 N28 1.362976 1_555
C1 N21 1.316130 1_555
C1 N33 1.351059 1_555
C1 N29 1.362976 1_555
C2 N22 1.316130 1_555
C2 N34 1.351059 1_555
C2 N30 1.362976 1_555
C3 N23 1.316130 1_555
C3 N35 1.351059 1_555
C3 N31 1.362976 1_555
C4 N44 1.317539 1_555
C4 N16 1.348542 1_555
C4 N8 1.359400 1_555
C5 N45 1.317539 1_555
C5 N17 1.348542 1_555
C5 N9 1.359400 1_555
C6 N46 1.317539 1_555
C6 N18 1.348542 1_555
C6 N10 1.359400 1_555
C7 N47 1.317539 1_555
C7 N19 1.348542 1_555
C7 N11 1.359400 1_555
N0 N14 1.277023 1_545
N0 N16 1.359953 1_555
N1 N15 1.277023 1_565
N1 N17 1.359953 1_555
N4 N40 1.275639 1_555
N10 N38 1.375382 1_455
N10 N12 1.375999 1_555
N11 N39 1.375382 1_655
N11 N13 1.375999 1_555
N12 N2 1.277023 1_555
N13 N3 1.277023 1_555
N14 N8 1.375999 1_565
N15 N9 1.375999 1_545
N18 N2 1.359953 1_555
N19 N3 1.359953 1_555
N24 N28 1.376894 1_555
N25 N29 1.376894 1_555
N26 N30 1.376894 1_655
N27 N31 1.376894 1_455
N28 N40 1.378306 1_555
N29 N41 1.378306 1_555
N30 N42 1.378306 1_555
N31 N43 1.378306 1_555
N32 N4 1.361118 1_555
N33 N5 1.361118 1_555
N34 N6 1.361118 1_555
N35 N7 1.361118 1_555
N36 N8 1.375382 1_555
N37 N9 1.375382 1_555
N41 N5 1.275639 1_555
N42 N6 1.275639 1_555
N43 N7 1.275639 1_555
