# generated using pymatgen
data_UCo3
_symmetry_space_group_name_H-M   'P 1'
_cell_length_a   4.79468970
_cell_length_b   4.79469000
_cell_length_c   8.58048296
_cell_angle_alpha   73.77589355
_cell_angle_beta   73.77589189
_cell_angle_gamma   59.99999795
_symmetry_Int_Tables_number   1
_chemical_formula_structural   UCo3
_chemical_formula_sum   'U3 Co9'
_cell_volume   161.69533209
_cell_formula_units_Z   3
loop_
 _symmetry_equiv_pos_site_id
 _symmetry_equiv_pos_as_xyz
  1  'x, y, z'
loop_
 _atom_site_type_symbol
 _atom_site_label
 _atom_site_symmetry_multiplicity
 _atom_site_fract_x
 _atom_site_fract_y
 _atom_site_fract_z
 _atom_site_occupancy
  U  U0  1  0.85938600  0.85938600  0.42184300  1
  U  U1  1  0.14061400  0.14061400  0.57815700  1
  U  U2  1  0.00000000  0.00000000  0.00000000  1
  Co  Co0  1  0.41729400  0.41729400  0.24924200  1
  Co  Co1  1  0.91617000  0.41729400  0.24924200  1
  Co  Co2  1  0.41729400  0.91617000  0.24924200  1
  Co  Co3  1  0.58270600  0.58270600  0.75075800  1
  Co  Co4  1  0.08383000  0.58270600  0.75075800  1
  Co  Co5  1  0.58270600  0.08383000  0.75075800  1
  Co  Co6  1  0.66628800  0.66628800  0.00113700  1
  Co  Co7  1  0.33371200  0.33371200  0.99886300  1
  Co  Co8  1  0.50000000  0.50000000  0.50000000  1
loop_
_geom_bond_atom_site_label_1
_geom_bond_atom_site_label_2
_geom_bond_distance
_geom_bond_site_symmetry_2
Co0 Co1 2.391956 1_555
Co0 Co2 2.391956 1_555
Co0 Co1 2.402734 1_455
Co0 Co2 2.402734 1_545
Co0 Co6 2.442847 1_555
Co0 Co8 2.460649 1_555
Co0 Co7 2.461605 1_554
Co0 U0 2.777111 1_455
Co0 U0 2.777111 1_545
Co0 U1 3.010059 1_555
Co0 U2 3.137661 1_655
Co0 U2 3.137661 1_565
Co1 Co2 2.391956 1_555
Co1 Co2 2.402734 1_645
Co1 Co6 2.442845 1_555
Co1 Co8 2.460649 1_555
Co1 Co7 2.461602 1_654
Co1 U0 2.777109 1_545
Co1 U0 2.777113 1_555
Co1 U1 3.010057 1_655
Co1 U2 3.137661 1_655
Co1 U2 3.137661 1_665
Co2 Co6 2.442845 1_555
Co2 Co8 2.460649 1_555
Co2 Co7 2.461603 1_564
Co2 U0 2.777108 1_455
Co2 U0 2.777113 1_555
Co2 U1 3.010057 1_565
Co2 U2 3.137661 1_665
Co2 U2 3.137661 1_565
Co3 Co4 2.391956 1_555
Co3 Co5 2.391956 1_555
Co3 Co4 2.402734 1_655
Co3 Co5 2.402734 1_565
Co3 Co7 2.442847 1_555
Co3 Co8 2.460649 1_555
Co3 Co6 2.461605 1_556
Co3 U1 2.777111 1_655
Co3 U1 2.777111 1_565
Co3 U0 3.010059 1_555
Co3 U2 3.137661 1_566
Co3 U2 3.137661 1_656
Co4 Co5 2.391956 1_555
Co4 Co5 2.402734 1_465
Co4 Co7 2.442845 1_555
Co4 Co8 2.460649 1_555
Co4 Co6 2.461602 1_456
Co4 U1 2.777109 1_565
Co4 U1 2.777113 1_555
Co4 U0 3.010057 1_455
Co4 U2 3.137661 1_556
Co4 U2 3.137661 1_566
Co5 Co7 2.442845 1_555
Co5 Co8 2.460649 1_555
Co5 Co6 2.461603 1_546
Co5 U1 2.777108 1_655
Co5 U1 2.777113 1_555
Co5 U0 3.010057 1_545
Co5 U2 3.137661 1_556
Co5 U2 3.137661 1_656
Co6 U2 2.768228 1_665
Co6 U2 2.768232 1_565
Co6 U2 2.768232 1_655
Co6 Co7 2.768274 1_654
Co6 Co7 2.768274 1_564
Co6 Co7 2.768283 1_554
Co7 U2 2.768228 1_556
Co7 U2 2.768232 1_656
Co7 U2 2.768232 1_566
Co8 U1 2.840059 1_655
Co8 U0 2.840059 1_455
Co8 U1 2.840059 1_565
Co8 U0 2.840059 1_545
Co8 U0 2.840063 1_555
Co8 U1 2.840063 1_555
