# generated using pymatgen
data_SrSn2Cl6O5
_symmetry_space_group_name_H-M   'P 1'
_cell_length_a   9.59630043
_cell_length_b   9.59630043
_cell_length_c   10.52717102
_cell_angle_alpha   65.46035575
_cell_angle_beta   65.46035575
_cell_angle_gamma   82.12647206
_symmetry_Int_Tables_number   1
_chemical_formula_structural   SrSn2Cl6O5
_chemical_formula_sum   'Sr2 Sn4 Cl12 O10'
_cell_volume   801.47666366
_cell_formula_units_Z   2
loop_
 _symmetry_equiv_pos_site_id
 _symmetry_equiv_pos_as_xyz
  1  'x, y, z'
loop_
 _atom_site_type_symbol
 _atom_site_label
 _atom_site_symmetry_multiplicity
 _atom_site_fract_x
 _atom_site_fract_y
 _atom_site_fract_z
 _atom_site_occupancy
  Sr  Sr0  1  0.21004000  0.78996000  0.75000000  1
  Sr  Sr1  1  0.78996000  0.21004000  0.25000000  1
  Sn  Sn0  1  0.55596500  0.79649700  0.89307400  1
  Sn  Sn1  1  0.20350300  0.44403500  0.60692600  1
  Sn  Sn2  1  0.44403500  0.20350300  0.10692600  1
  Sn  Sn3  1  0.79649700  0.55596500  0.39307400  1
  Cl  Cl0  1  0.76851300  0.95837300  0.67984500  1
  Cl  Cl1  1  0.04162700  0.23148700  0.82015500  1
  Cl  Cl2  1  0.23148700  0.04162700  0.32015500  1
  Cl  Cl3  1  0.95837300  0.76851300  0.17984500  1
  Cl  Cl4  1  0.52247900  0.82357600  0.11582600  1
  Cl  Cl5  1  0.17642400  0.47752100  0.38417400  1
  Cl  Cl6  1  0.47752100  0.17642400  0.88417400  1
  Cl  Cl7  1  0.82357600  0.52247900  0.61582600  1
  Cl  Cl8  1  0.68591700  0.56539600  0.94098600  1
  Cl  Cl9  1  0.43460400  0.31408300  0.55901400  1
  Cl  Cl10  1  0.31408300  0.43460400  0.05901400  1
  Cl  Cl11  1  0.56539600  0.68591700  0.44098600  1
  O  O0  1  0.38926500  0.81279700  0.83588600  1
  O  O1  1  0.18720300  0.61073500  0.66411400  1
  O  O2  1  0.61073500  0.18720300  0.16411400  1
  O  O3  1  0.81279700  0.38926500  0.33588600  1
  O  O4  1  0.98441100  0.55971300  0.01162600  1
  O  O5  1  0.44028700  0.01558900  0.48837400  1
  O  O6  1  0.01558900  0.44028700  0.98837400  1
  O  O7  1  0.55971300  0.98441100  0.51162600  1
  O  O8  1  0.99731100  0.00268900  0.75000000  1
  O  O9  1  0.00268900  0.99731100  0.25000000  1
loop_
_geom_bond_atom_site_label_1
_geom_bond_atom_site_label_2
_geom_bond_distance
_geom_bond_site_symmetry_2
Cl0 Sn0 2.404292 1_555
Cl1 Sn1 2.404292 1_555
Cl2 Sn2 2.404292 1_555
Cl3 Sn3 2.404292 1_555
Cl4 Sn0 2.350943 1_554
Cl5 Sn1 2.350943 1_555
Cl6 Sn2 2.350943 1_556
Cl7 Sn3 2.350943 1_555
Cl8 Sn0 2.358694 1_555
Cl9 Sn1 2.358694 1_555
Cl10 Sn2 2.358694 1_555
Cl11 Sn3 2.358694 1_555
O0 Sn0 1.897141 1_555
O0 Sr0 2.320142 1_555
O1 Sn1 1.897141 1_555
O1 Sr0 2.320142 1_555
O2 Sn2 1.897141 1_555
O2 Sr1 2.320142 1_555
O3 Sn3 1.897141 1_555
O3 Sr1 2.320142 1_555
O4 O6 1.241411 1_654
O4 Sr0 2.908271 1_654
O5 O7 1.241411 1_545
O5 Sr0 2.908271 1_545
O6 Sr1 2.908271 1_456
O7 Sr1 2.908271 1_565
O8 Sr0 2.681972 1_645
O9 Sr1 2.681972 1_465
