# generated using pymatgen
data_DyCdIn
_symmetry_space_group_name_H-M   'P 1'
_cell_length_a   4.82213818
_cell_length_b   4.82213818
_cell_length_c   7.46160528
_cell_angle_alpha   90.00000000
_cell_angle_beta   90.00000000
_cell_angle_gamma   119.99999644
_symmetry_Int_Tables_number   1
_chemical_formula_structural   DyCdIn
_chemical_formula_sum   'Dy2 Cd2 In2'
_cell_volume   150.25959730
_cell_formula_units_Z   2
loop_
 _symmetry_equiv_pos_site_id
 _symmetry_equiv_pos_as_xyz
  1  'x, y, z'
loop_
 _atom_site_type_symbol
 _atom_site_label
 _atom_site_symmetry_multiplicity
 _atom_site_fract_x
 _atom_site_fract_y
 _atom_site_fract_z
 _atom_site_occupancy
  Dy  Dy0  1  0.00000000  0.00000000  0.26378838  1
  Dy  Dy1  1  0.00000000  0.00000000  0.73621162  1
  Cd  Cd0  1  0.33333300  0.66666700  0.47132096  1
  Cd  Cd1  1  0.66666700  0.33333300  0.52867904  1
  In  In0  1  0.66666700  0.33333300  0.94412997  1
  In  In1  1  0.33333300  0.66666700  0.05587003  1
loop_
_geom_bond_atom_site_label_1
_geom_bond_atom_site_label_2
_geom_bond_distance
_geom_bond_site_symmetry_2
Dy0 In1 3.187138 1_545
Dy0 In1 3.187141 1_555
Dy0 In1 3.187141 1_445
Dy0 Dy1 3.525036 1_555
Dy0 In0 3.666061 1_454
Dy0 In0 3.666064 1_554
Dy0 In0 3.666064 1_444
Dy0 Dy1 3.936570 1_554
Dy1 In0 3.187138 1_455
Dy1 In0 3.187141 1_555
Dy1 In0 3.187141 1_445
Dy1 In1 3.666061 1_546
Dy1 In1 3.666064 1_446
Dy1 In1 3.666064 1_556
Cd0 Cd1 2.816764 1_455
Cd0 Cd1 2.816764 1_565
Cd0 Cd1 2.816772 1_555
Cd0 In1 3.099931 1_555
Cd0 Dy0 3.185737 1_565
Cd0 Dy0 3.185741 1_665
Cd0 Dy0 3.185741 1_555
Cd0 Dy1 3.414320 1_565
Cd0 Dy1 3.414323 1_665
Cd0 Dy1 3.414323 1_555
Cd1 In0 3.099931 1_555
Cd1 Dy1 3.185737 1_655
Cd1 Dy1 3.185741 1_555
Cd1 Dy1 3.185741 1_665
Cd1 Dy0 3.414320 1_655
Cd1 Dy0 3.414323 1_665
Cd1 Dy0 3.414323 1_555
In0 In1 2.906226 1_546
In0 In1 2.906226 1_656
In0 In1 2.906233 1_556
