# generated using pymatgen
data_La2MgSe4
_symmetry_space_group_name_H-M   'P 1'
_cell_length_a   4.20084800
_cell_length_b   13.70759100
_cell_length_c   14.83559200
_cell_angle_alpha   90.00000000
_cell_angle_beta   90.00000000
_cell_angle_gamma   90.00000000
_symmetry_Int_Tables_number   1
_chemical_formula_structural   La2MgSe4
_chemical_formula_sum   'La8 Mg4 Se16'
_cell_volume   854.28540446
_cell_formula_units_Z   4
loop_
 _symmetry_equiv_pos_site_id
 _symmetry_equiv_pos_as_xyz
  1  'x, y, z'
loop_
 _atom_site_type_symbol
 _atom_site_label
 _atom_site_symmetry_multiplicity
 _atom_site_fract_x
 _atom_site_fract_y
 _atom_site_fract_z
 _atom_site_occupancy
  La  La0  1  0.25000000  0.12143600  0.07477600  1
  La  La1  1  0.75000000  0.87856400  0.92522400  1
  La  La2  1  0.75000000  0.37856400  0.57477600  1
  La  La3  1  0.25000000  0.62143600  0.42522400  1
  La  La4  1  0.25000000  0.13147400  0.70542500  1
  La  La5  1  0.75000000  0.86852600  0.29457500  1
  La  La6  1  0.75000000  0.36852600  0.20542400  1
  La  La7  1  0.25000000  0.63147400  0.79457500  1
  Mg  Mg0  1  0.75000000  0.10598100  0.46407500  1
  Mg  Mg1  1  0.25000000  0.89401900  0.53592500  1
  Mg  Mg2  1  0.25000000  0.39401900  0.96407500  1
  Mg  Mg3  1  0.75000000  0.60598100  0.03592500  1
  Se  Se0  1  0.75000000  0.99974800  0.61296900  1
  Se  Se1  1  0.25000000  0.00025200  0.38703100  1
  Se  Se2  1  0.25000000  0.50025200  0.11296900  1
  Se  Se3  1  0.75000000  0.49974800  0.88703100  1
  Se  Se4  1  0.25000000  0.02668000  0.88559000  1
  Se  Se5  1  0.75000000  0.97332000  0.11441000  1
  Se  Se6  1  0.75000000  0.47332000  0.38559000  1
  Se  Se7  1  0.25000000  0.52668000  0.61441000  1
  Se  Se8  1  0.25000000  0.22982500  0.24566000  1
  Se  Se9  1  0.75000000  0.77017500  0.75434000  1
  Se  Se10  1  0.75000000  0.27017500  0.74566000  1
  Se  Se11  1  0.25000000  0.72982500  0.25434000  1
  Se  Se12  1  0.75000000  0.27016300  0.01522500  1
  Se  Se13  1  0.25000000  0.72983700  0.98477500  1
  Se  Se14  1  0.25000000  0.22983700  0.51522500  1
  Se  Se15  1  0.75000000  0.77016300  0.48477500  1
loop_
_geom_bond_atom_site_label_1
_geom_bond_atom_site_label_2
_geom_bond_distance
_geom_bond_site_symmetry_2
La0 Se8 2.938456 1_555
La0 Se5 2.979881 1_545
La0 Se5 2.979881 1_445
La0 Se12 3.057542 1_455
La0 Se12 3.057542 1_555
La0 Se4 3.092664 1_554
La1 Se9 2.938456 1_555
La1 Se4 2.979881 1_565
La1 Se4 2.979881 1_665
La1 Se13 3.057542 1_555
La1 Se13 3.057542 1_655
La1 Se5 3.092664 1_556
La2 Se10 2.938456 1_555
La2 Se7 2.979881 1_555
La2 Se7 2.979881 1_655
La2 Se14 3.057542 1_555
La2 Se14 3.057542 1_655
La2 Se6 3.092664 1_555
La3 Se11 2.938456 1_555
La3 Se6 2.979881 1_555
La3 Se6 2.979881 1_455
La3 Se15 3.057542 1_455
La3 Se15 3.057542 1_555
La3 Se7 3.092664 1_555
La4 Se10 2.895317 1_455
La4 Se10 2.895317 1_555
La4 Se4 3.034404 1_555
La4 Se0 3.090879 1_545
La4 Se0 3.090879 1_445
La4 Se14 3.127319 1_555
La5 Se11 2.895317 1_655
La5 Se11 2.895317 1_555
La5 Se5 3.034404 1_555
La5 Se1 3.090879 1_665
La5 Se1 3.090879 1_565
La5 Se15 3.127319 1_555
La6 Se8 2.895320 1_655
La6 Se8 2.895320 1_555
La6 Se6 3.034417 1_555
La6 Se2 3.090873 1_555
La6 Se2 3.090873 1_655
La6 Se12 3.127306 1_555
La7 Se9 2.895317 1_455
La7 Se9 2.895317 1_555
La7 Se7 3.034404 1_555
La7 Se3 3.090879 1_555
La7 Se3 3.090879 1_455
La7 Se13 3.127319 1_555
Mg0 Se0 2.645730 1_545
Mg0 Se1 2.796186 1_655
Mg0 Se1 2.796186 1_555
Mg0 Se14 2.805358 1_655
Mg0 Se14 2.805358 1_555
Mg1 Se1 2.645730 1_565
Mg1 Se0 2.796186 1_555
Mg1 Se0 2.796186 1_455
Mg1 Se15 2.805358 1_555
Mg1 Se15 2.805358 1_455
Mg2 Se2 2.645730 1_556
Mg2 Se3 2.796186 1_455
Mg2 Se3 2.796186 1_555
Mg2 Se12 2.805358 1_456
Mg2 Se12 2.805358 1_556
Mg3 Se3 2.645730 1_554
Mg3 Se2 2.796186 1_555
Mg3 Se2 2.796186 1_655
Mg3 Se13 2.805358 1_654
Mg3 Se13 2.805358 1_554
