# generated using pymatgen
data_CaCdGe
_symmetry_space_group_name_H-M   'P 1'
_cell_length_a   7.31384411
_cell_length_b   7.31384325
_cell_length_c   4.47865536
_cell_angle_alpha   90.00000000
_cell_angle_beta   90.00000000
_cell_angle_gamma   120.00000862
_symmetry_Int_Tables_number   1
_chemical_formula_structural   CaCdGe
_chemical_formula_sum   'Ca3 Cd3 Ge3'
_cell_volume   207.47682138
_cell_formula_units_Z   3
loop_
 _symmetry_equiv_pos_site_id
 _symmetry_equiv_pos_as_xyz
  1  'x, y, z'
loop_
 _atom_site_type_symbol
 _atom_site_label
 _atom_site_symmetry_multiplicity
 _atom_site_fract_x
 _atom_site_fract_y
 _atom_site_fract_z
 _atom_site_occupancy
  Ca  Ca0  1  0.58042730  0.00000000  0.50000000  1
  Ca  Ca1  1  0.41957270  0.41957270  0.50000000  1
  Ca  Ca2  1  0.00000000  0.58042730  0.50000000  1
  Cd  Cd0  1  0.00000000  0.25414192  0.00000000  1
  Cd  Cd1  1  0.25414192  0.00000000  0.00000000  1
  Cd  Cd2  1  0.74585808  0.74585808  -0.00000000  1
  Ge  Ge0  1  0.33333300  0.66666700  -0.00000000  1
  Ge  Ge1  1  0.66666700  0.33333300  -0.00000000  1
  Ge  Ge2  1  -0.00000000  0.00000000  0.50000000  1
loop_
_geom_bond_atom_site_label_1
_geom_bond_atom_site_label_2
_geom_bond_distance
_geom_bond_site_symmetry_2
Ca0 Ge2 3.068689 1_655
Ca0 Ge1 3.133414 1_555
Ca0 Ge1 3.133414 1_556
Ca0 Ge0 3.133415 1_545
Ca0 Ge0 3.133415 1_546
Ca0 Cd1 3.272537 1_556
Ca0 Cd1 3.272537 1_555
Ca0 Cd0 3.490339 1_656
Ca0 Cd0 3.490339 1_655
Ca0 Cd2 3.490340 1_546
Ca0 Cd2 3.490340 1_545
Ca1 Ge2 3.068689 1_555
Ca1 Ge0 3.133419 1_555
Ca1 Ge0 3.133419 1_556
Ca1 Ge1 3.133419 1_555
Ca1 Ge1 3.133419 1_556
Ca1 Cd2 3.272536 1_555
Ca1 Cd2 3.272536 1_556
Ca1 Cd1 3.490339 1_555
Ca1 Cd1 3.490339 1_556
Ca1 Cd0 3.490340 1_555
Ca1 Cd0 3.490340 1_556
Ca2 Ge2 3.068689 1_565
Ca2 Ge0 3.133414 1_555
Ca2 Ge0 3.133414 1_556
Ca2 Ge1 3.133416 1_456
Ca2 Ge1 3.133416 1_455
Ca2 Cd0 3.272536 1_555
Ca2 Cd0 3.272536 1_556
Ca2 Cd1 3.490339 1_565
Ca2 Cd1 3.490339 1_566
Ca2 Cd2 3.490340 1_455
Ca2 Cd2 3.490340 1_456
Cd0 Ge1 2.773279 1_455
Cd0 Ge0 2.773283 1_555
Cd0 Ge2 2.910250 1_554
Cd0 Ge2 2.910250 1_555
Cd0 Cd2 3.219456 1_445
Cd0 Cd1 3.219457 1_555
Cd1 Ge0 2.773279 1_545
Cd1 Ge1 2.773284 1_555
Cd1 Ge2 2.910250 1_554
Cd1 Ge2 2.910250 1_555
Cd1 Cd2 3.219457 1_445
Cd2 Ge1 2.773286 1_555
Cd2 Ge0 2.773286 1_555
Cd2 Ge2 2.910250 1_665
Cd2 Ge2 2.910250 1_664
