# generated using pymatgen
data_WSeS
_symmetry_space_group_name_H-M   'P 1'
_cell_length_a   3.25432378
_cell_length_b   3.25432378
_cell_length_c   36.89402600
_cell_angle_alpha   90.00000000
_cell_angle_beta   90.00000000
_cell_angle_gamma   119.99999549
_symmetry_Int_Tables_number   1
_chemical_formula_structural   WSeS
_chemical_formula_sum   'W4 Se4 S4'
_cell_volume   338.38275330
_cell_formula_units_Z   4
loop_
 _symmetry_equiv_pos_site_id
 _symmetry_equiv_pos_as_xyz
  1  'x, y, z'
loop_
 _atom_site_type_symbol
 _atom_site_label
 _atom_site_symmetry_multiplicity
 _atom_site_fract_x
 _atom_site_fract_y
 _atom_site_fract_z
 _atom_site_occupancy
  W  W0  1  0.33333300  0.66666700  0.71817200  1
  W  W1  1  0.33333300  0.66666700  0.09392900  1
  W  W2  1  0.66666700  0.33333300  0.90607100  1
  W  W3  1  0.66666700  0.33333300  0.28182800  1
  Se  Se0  1  0.33333300  0.66666700  0.32807600  1
  Se  Se1  1  0.66666700  0.33333300  0.67192400  1
  Se  Se2  1  0.66666700  0.33333300  0.76443000  1
  Se  Se3  1  0.33333300  0.66666700  0.23557000  1
  S  S0  1  0.33333300  0.66666700  0.94804300  1
  S  S1  1  0.66666700  0.33333300  0.05195700  1
  S  S2  1  0.66666700  0.33333300  0.13590200  1
  S  S3  1  0.33333300  0.66666700  0.86409800  1
loop_
_geom_bond_atom_site_label_1
_geom_bond_atom_site_label_2
_geom_bond_distance
_geom_bond_site_symmetry_2
Se0 W3 2.538026 1_455
Se0 W3 2.538026 1_565
Se0 W3 2.538030 1_555
Se1 W0 2.538026 1_545
Se1 W0 2.538026 1_655
Se1 W0 2.538030 1_555
Se2 W0 2.538274 1_545
Se2 W0 2.538274 1_655
Se2 W0 2.538278 1_555
Se3 W3 2.538274 1_455
Se3 W3 2.538274 1_565
Se3 W3 2.538278 1_555
S0 W2 2.434770 1_455
S0 W2 2.434770 1_565
S0 W2 2.434774 1_555
S1 W1 2.434770 1_545
S1 W1 2.434770 1_655
S1 W1 2.434774 1_555
S2 W1 2.434793 1_655
S2 W1 2.434793 1_545
S2 W1 2.434797 1_555
S3 W2 2.434793 1_455
S3 W2 2.434793 1_565
S3 W2 2.434797 1_555
