# generated using pymatgen
data_YbGa2Ni
_symmetry_space_group_name_H-M   'P 1'
_cell_length_a   5.29889523
_cell_length_b   5.29889523
_cell_length_c   6.54119527
_cell_angle_alpha   90.00000000
_cell_angle_beta   90.00000000
_cell_angle_gamma   134.84123470
_symmetry_Int_Tables_number   1
_chemical_formula_structural   YbGa2Ni
_chemical_formula_sum   'Yb2 Ga4 Ni2'
_cell_volume   130.23054950
_cell_formula_units_Z   2
loop_
 _symmetry_equiv_pos_site_id
 _symmetry_equiv_pos_as_xyz
  1  'x, y, z'
loop_
 _atom_site_type_symbol
 _atom_site_label
 _atom_site_symmetry_multiplicity
 _atom_site_fract_x
 _atom_site_fract_y
 _atom_site_fract_z
 _atom_site_occupancy
  Yb  Yb0  1  0.57403209  0.42596791  0.25000000  1
  Yb  Yb1  1  0.42596791  0.57403209  0.75000000  1
  Ga  Ga0  1  0.85877172  0.14122828  0.44663059  1
  Ga  Ga1  1  0.14122828  0.85877172  0.55336941  1
  Ga  Ga2  1  0.85877172  0.14122828  0.05336941  1
  Ga  Ga3  1  0.14122828  0.85877172  0.94663059  1
  Ni  Ni0  1  0.29136390  0.70863610  0.25000000  1
  Ni  Ni1  1  0.70863610  0.29136390  0.75000000  1
loop_
_geom_bond_atom_site_label_1
_geom_bond_atom_site_label_2
_geom_bond_distance
_geom_bond_site_symmetry_2
Ga0 Ni1 2.469053 1_555
Ga0 Ni0 2.495780 1_655
Ga0 Ni0 2.495780 1_545
Ga0 Ga2 2.572398 1_555
Ga0 Ga1 2.850787 1_645
Ga0 Yb1 2.917142 1_545
Ga0 Yb1 2.917142 1_655
Ga0 Yb0 3.068845 1_555
Ga0 Yb0 3.198567 1_545
Ga0 Yb0 3.198567 1_655
Ga1 Ni0 2.469053 1_555
Ga1 Ni1 2.495780 1_565
Ga1 Ni1 2.495780 1_455
Ga1 Ga3 2.572398 1_555
Ga1 Yb0 2.917142 1_565
Ga1 Yb0 2.917142 1_455
Ga1 Yb1 3.068845 1_555
Ga1 Yb1 3.198567 1_455
Ga1 Yb1 3.198567 1_565
Ga2 Ni1 2.469053 1_554
Ga2 Ni0 2.495780 1_655
Ga2 Ni0 2.495780 1_545
Ga2 Ga3 2.850787 1_644
Ga2 Yb1 2.917142 1_544
Ga2 Yb1 2.917142 1_654
Ga2 Yb0 3.068845 1_555
Ga2 Yb0 3.198567 1_545
Ga2 Yb0 3.198567 1_655
Ga3 Ni0 2.469053 1_556
Ga3 Ni1 2.495780 1_455
Ga3 Ni1 2.495780 1_565
Ga3 Yb0 2.917142 1_456
Ga3 Yb0 2.917142 1_566
Ga3 Yb1 3.068845 1_555
Ga3 Yb1 3.198567 1_455
Ga3 Yb1 3.198567 1_565
Ni0 Yb0 2.766036 1_555
Ni0 Yb0 2.943183 1_455
Ni0 Yb0 2.943183 1_565
Ni1 Yb1 2.766036 1_555
Ni1 Yb1 2.943183 1_545
Ni1 Yb1 2.943183 1_655
