# generated using pymatgen
data_ZnP14Pb
_symmetry_space_group_name_H-M   'P 1'
_cell_length_a   9.90031300
_cell_length_b   10.66247000
_cell_length_c   12.94600600
_cell_angle_alpha   90.00000000
_cell_angle_beta   90.00000000
_cell_angle_gamma   90.00000000
_symmetry_Int_Tables_number   1
_chemical_formula_structural   ZnP14Pb
_chemical_formula_sum   'Zn4 P56 Pb4'
_cell_volume   1366.60357128
_cell_formula_units_Z   4
loop_
 _symmetry_equiv_pos_site_id
 _symmetry_equiv_pos_as_xyz
  1  'x, y, z'
loop_
 _atom_site_type_symbol
 _atom_site_label
 _atom_site_symmetry_multiplicity
 _atom_site_fract_x
 _atom_site_fract_y
 _atom_site_fract_z
 _atom_site_occupancy
  Zn  Zn0  1  0.25000000  0.00371000  0.82190400  1
  Zn  Zn1  1  0.25000000  0.49629000  0.32190400  1
  Zn  Zn2  1  0.75000000  0.99629000  0.17809600  1
  Zn  Zn3  1  0.75000000  0.50371000  0.67809600  1
  P  P0  1  0.25000000  0.84607300  0.96503000  1
  P  P1  1  0.25000000  0.65392700  0.46503000  1
  P  P2  1  0.75000000  0.15392700  0.03497000  1
  P  P3  1  0.75000000  0.34607300  0.53497000  1
  P  P4  1  0.25000000  0.85776300  0.67472400  1
  P  P5  1  0.25000000  0.64223700  0.17472400  1
  P  P6  1  0.75000000  0.14223700  0.32527600  1
  P  P7  1  0.75000000  0.35776300  0.82527600  1
  P  P8  1  0.05322000  0.13272900  0.86254300  1
  P  P9  1  0.44678000  0.36727100  0.36254300  1
  P  P10  1  0.55322000  0.86727100  0.13745700  1
  P  P11  1  0.94678000  0.63272900  0.63745700  1
  P  P12  1  0.94678000  0.86727100  0.13745700  1
  P  P13  1  0.55322000  0.63272900  0.63745700  1
  P  P14  1  0.44678000  0.13272900  0.86254300  1
  P  P15  1  0.05322000  0.36727100  0.36254300  1
  P  P16  1  0.07757100  0.35053500  0.53093400  1
  P  P17  1  0.42242900  0.14946500  0.03093400  1
  P  P18  1  0.57757100  0.64946500  0.46906600  1
  P  P19  1  0.92242900  0.85053500  0.96906600  1
  P  P20  1  0.92242900  0.64946500  0.46906600  1
  P  P21  1  0.57757100  0.85053500  0.96906600  1
  P  P22  1  0.42242900  0.35053500  0.53093400  1
  P  P23  1  0.07757100  0.14946500  0.03093400  1
  P  P24  1  0.25000000  0.22114600  0.55954600  1
  P  P25  1  0.25000000  0.27885400  0.05954600  1
  P  P26  1  0.75000000  0.77885400  0.44045400  1
  P  P27  1  0.75000000  0.72114600  0.94045400  1
  P  P28  1  0.58429800  0.21196400  0.56763700  1
  P  P29  1  0.91570200  0.28803600  0.06763700  1
  P  P30  1  0.08429800  0.78803600  0.43236300  1
  P  P31  1  0.41570200  0.71196400  0.93236300  1
  P  P32  1  0.41570200  0.78803600  0.43236300  1
  P  P33  1  0.08429800  0.71196400  0.93236300  1
  P  P34  1  0.91570200  0.21196400  0.56763700  1
  P  P35  1  0.58429800  0.28803600  0.06763700  1
  P  P36  1  0.25000000  0.40204700  0.91966200  1
  P  P37  1  0.25000000  0.09795300  0.41966200  1
  P  P38  1  0.75000000  0.59795300  0.08033800  1
  P  P39  1  0.75000000  0.90204700  0.58033800  1
  P  P40  1  0.08015300  0.91786900  0.57402400  1
  P  P41  1  0.41984700  0.58213100  0.07402400  1
  P  P42  1  0.58015300  0.08213100  0.42597600  1
  P  P43  1  0.91984700  0.41786900  0.92597600  1
  P  P44  1  0.91984700  0.08213100  0.42597600  1
  P  P45  1  0.58015300  0.41786900  0.92597600  1
  P  P46  1  0.41984700  0.91786900  0.57402400  1
  P  P47  1  0.08015300  0.58213100  0.07402400  1
  P  P48  1  0.07837000  0.33276800  0.82535200  1
  P  P49  1  0.42163000  0.16723200  0.32535200  1
  P  P50  1  0.57837000  0.66723200  0.17464800  1
  P  P51  1  0.92163000  0.83276800  0.67464800  1
  P  P52  1  0.92163000  0.66723200  0.17464800  1
  P  P53  1  0.57837000  0.83276800  0.67464800  1
  P  P54  1  0.42163000  0.33276800  0.82535200  1
  P  P55  1  0.07837000  0.16723200  0.32535200  1
  Pb  Pb0  1  0.25000000  0.90871400  0.17696600  1
  Pb  Pb1  1  0.25000000  0.59128600  0.67696600  1
  Pb  Pb2  1  0.75000000  0.09128600  0.82303400  1
  Pb  Pb3  1  0.75000000  0.40871400  0.32303400  1
loop_
_geom_bond_atom_site_label_1
_geom_bond_atom_site_label_2
_geom_bond_distance
_geom_bond_site_symmetry_2
P0 P31 2.216936 1_555
P0 P33 2.216936 1_555
P0 Zn0 2.501672 1_565
P0 Pb0 2.823850 1_556
P1 P32 2.216936 1_555
P1 P30 2.216936 1_555
P1 Zn1 2.501672 1_555
P1 Pb1 2.823850 1_555
P2 P29 2.216936 1_555
P2 P35 2.216936 1_555
P2 Zn2 2.501672 1_545
P2 Pb2 2.823850 1_554
P3 P34 2.216936 1_555
P3 Zn3 2.501672 1_555
P3 Pb3 2.823850 1_555
P4 P46 2.222124 1_555
P4 P40 2.222124 1_555
P4 Zn0 2.460110 1_565
P4 Pb1 2.841451 1_555
P5 Zn1 2.460110 1_555
P5 Pb0 2.841451 1_555
P6 Zn2 2.460110 1_545
P6 Pb3 2.841451 1_555
P7 Zn3 2.460110 1_555
P7 Pb2 2.841451 1_555
P8 Zn0 2.442265 1_555
P8 Pb2 3.077128 1_455
P9 Zn1 2.442265 1_555
P9 Pb3 3.077128 1_555
P10 P21 2.200528 1_554
P10 P50 2.200709 1_555
P10 Zn2 2.442265 1_555
P10 Pb0 3.077128 1_555
P11 P20 2.200528 1_555
P11 P51 2.200709 1_555
P11 Zn3 2.442265 1_555
P11 Pb1 3.077128 1_655
P12 P19 2.200528 1_554
P12 P52 2.200709 1_555
P12 Zn2 2.442265 1_555
P12 Pb0 3.077128 1_655
P13 P18 2.200528 1_555
P13 P53 2.200709 1_555
P13 Zn3 2.442265 1_555
P13 Pb1 3.077128 1_555
P14 P17 2.200528 1_556
P14 P54 2.200709 1_555
P14 Zn0 2.442265 1_555
P14 Pb2 3.077128 1_555
P15 P16 2.200528 1_555
P15 P55 2.200709 1_555
P15 Zn1 2.442265 1_555
P15 Pb3 3.077128 1_455
P16 P24 2.225918 1_555
P16 P34 2.230916 1_455
P17 P25 2.225918 1_555
P17 P35 2.230916 1_555
P18 P26 2.225918 1_555
P18 P32 2.230916 1_555
P19 P27 2.225918 1_555
P19 P33 2.230916 1_655
P20 P26 2.225918 1_555
P20 P30 2.230916 1_655
P21 P27 2.225918 1_555
P21 P31 2.230916 1_555
P22 P9 2.200528 1_555
P22 P24 2.225918 1_555
P22 P28 2.230916 1_555
P23 P8 2.200528 1_554
P23 P25 2.225918 1_555
P23 P29 2.230916 1_455
P24 P37 2.237162 1_555
P25 P36 2.237162 1_554
P26 P39 2.237162 1_555
P27 P38 2.237162 1_556
P28 P3 2.216936 1_555
P28 P42 2.298137 1_555
P29 P43 2.298137 1_554
P30 P40 2.298137 1_555
P31 P41 2.298137 1_556
P32 P46 2.298137 1_555
P33 P47 2.298137 1_556
P34 P44 2.298137 1_555
P35 P45 2.298137 1_554
P36 P48 2.218917 1_555
P36 P54 2.218917 1_555
P37 P55 2.218917 1_555
P37 P49 2.218917 1_555
P38 P50 2.218917 1_555
P38 P52 2.218917 1_555
P39 P53 2.218917 1_555
P39 P51 2.218917 1_555
P40 P51 2.232359 1_455
P41 P5 2.222124 1_555
P41 P50 2.232359 1_555
P42 P6 2.222124 1_555
P42 P49 2.232359 1_555
P43 P7 2.222124 1_555
P43 P48 2.232359 1_655
P44 P6 2.222124 1_555
P44 P55 2.232359 1_655
P45 P7 2.222124 1_555
P45 P54 2.232359 1_555
P46 P53 2.232359 1_555
P47 P5 2.222124 1_555
P47 P52 2.232359 1_455
P48 P8 2.200709 1_555
P49 P9 2.200709 1_555
