# generated using pymatgen
data_PaPt5
_symmetry_space_group_name_H-M   'P 1'
_cell_length_a   5.28507179
_cell_length_b   5.28507179
_cell_length_c   5.28507179
_cell_angle_alpha   60.00000000
_cell_angle_beta   60.00000000
_cell_angle_gamma   60.00000000
_symmetry_Int_Tables_number   1
_chemical_formula_structural   PaPt5
_chemical_formula_sum   'Pa1 Pt5'
_cell_volume   104.38489877
_cell_formula_units_Z   1
loop_
 _symmetry_equiv_pos_site_id
 _symmetry_equiv_pos_as_xyz
  1  'x, y, z'
loop_
 _atom_site_type_symbol
 _atom_site_label
 _atom_site_symmetry_multiplicity
 _atom_site_fract_x
 _atom_site_fract_y
 _atom_site_fract_z
 _atom_site_occupancy
  Pa  Pa0  1  0.00000000  0.00000000  0.00000000  1
  Pt  Pt0  1  0.75000000  0.75000000  0.75000000  1
  Pt  Pt1  1  0.87352599  0.37549100  0.37549100  1
  Pt  Pt2  1  0.37549100  0.87352599  0.37549100  1
  Pt  Pt3  1  0.37549100  0.37549100  0.87352599  1
  Pt  Pt4  1  0.37549100  0.37549100  0.37549100  1
loop_
_geom_bond_atom_site_label_1
_geom_bond_atom_site_label_2
_geom_bond_distance
_geom_bond_site_symmetry_2
Pa0 Pt2 3.099759 1_545
Pa0 Pt1 3.099759 1_455
Pa0 Pt3 3.099759 1_554
Pa0 Pt4 3.099761 1_545
Pa0 Pt4 3.099761 1_554
Pa0 Pt4 3.099761 1_455
Pa0 Pt2 3.099763 1_544
Pa0 Pt3 3.099763 1_544
Pa0 Pt2 3.099763 1_445
Pa0 Pt1 3.099763 1_445
Pa0 Pt1 3.099763 1_454
Pa0 Pt3 3.099763 1_454
Pa0 Pt0 3.236432 1_454
Pa0 Pt0 3.236432 1_444
Pa0 Pt0 3.236432 1_445
Pa0 Pt0 3.236432 1_544
Pt0 Pt2 3.097546 1_556
Pt0 Pt3 3.097546 1_565
Pt0 Pt3 3.097546 1_655
Pt0 Pt1 3.097546 1_565
Pt0 Pt2 3.097546 1_655
Pt0 Pt1 3.097546 1_556
Pt0 Pt4 3.097548 1_655
Pt0 Pt4 3.097548 1_565
Pt0 Pt4 3.097548 1_556
Pt0 Pt2 3.097550 1_555
Pt0 Pt3 3.097550 1_555
Pt0 Pt1 3.097550 1_555
Pt1 Pt4 2.632151 1_555
Pt1 Pt2 2.632151 1_555
Pt1 Pt3 2.632151 1_555
Pt1 Pt4 2.652921 1_655
Pt1 Pt3 2.652921 1_654
Pt1 Pt2 2.652921 1_645
Pt2 Pt4 2.632151 1_555
Pt2 Pt3 2.632151 1_555
Pt2 Pt4 2.652921 1_565
Pt2 Pt3 2.652921 1_564
Pt3 Pt4 2.632151 1_555
Pt3 Pt4 2.652921 1_556
