# generated using pymatgen
data_NaBrO3
_symmetry_space_group_name_H-M   'P 1'
_cell_length_a   7.74928600
_cell_length_b   7.38742500
_cell_length_c   7.53683017
_cell_angle_alpha   89.69588394
_cell_angle_beta   90.00000000
_cell_angle_gamma   90.00000000
_symmetry_Int_Tables_number   1
_chemical_formula_structural   NaBrO3
_chemical_formula_sum   'Na4 Br4 O12'
_cell_volume   431.45686718
_cell_formula_units_Z   4
loop_
 _symmetry_equiv_pos_site_id
 _symmetry_equiv_pos_as_xyz
  1  'x, y, z'
loop_
 _atom_site_type_symbol
 _atom_site_label
 _atom_site_symmetry_multiplicity
 _atom_site_fract_x
 _atom_site_fract_y
 _atom_site_fract_z
 _atom_site_occupancy
  Na  Na0  1  0.53925600  0.14829600  0.12967500  1
  Na  Na1  1  0.03925600  0.85170400  0.87032500  1
  Na  Na2  1  0.46030200  0.64644700  0.37098900  1
  Na  Na3  1  0.96030200  0.35355300  0.62901100  1
  Br  Br0  1  0.35354400  0.13044100  0.63683300  1
  Br  Br1  1  0.64763000  0.63098000  0.86700700  1
  Br  Br2  1  0.85354400  0.86955900  0.36316700  1
  Br  Br3  1  0.14763000  0.36902000  0.13299300  1
  O  O0  1  0.86270000  0.61202300  0.78244300  1
  O  O1  1  0.66981100  0.40976900  0.47395000  1
  O  O2  1  0.70916000  0.26316200  0.39653500  1
  O  O3  1  0.79413900  0.23875900  0.90098700  1
  O  O4  1  0.20916000  0.73683800  0.60346500  1
  O  O5  1  0.29413900  0.76124100  0.09901300  1
  O  O6  1  0.13737700  0.11289300  0.71852500  1
  O  O7  1  0.63737700  0.88710700  0.28147500  1
  O  O8  1  0.16981100  0.59023100  0.52605000  1
  O  O9  1  0.32480800  0.91464700  0.03175300  1
  O  O10  1  0.82480800  0.08535300  0.96824700  1
  O  O11  1  0.36270000  0.38797700  0.21755700  1
loop_
_geom_bond_atom_site_label_1
_geom_bond_atom_site_label_2
_geom_bond_distance
_geom_bond_site_symmetry_2
Na0 O11 2.336279 1_555
Na0 O7 2.363619 1_545
Na0 O9 2.509809 1_545
Na0 O2 2.552831 1_555
Na0 O10 2.568863 1_554
Na0 O3 2.703032 1_554
Na1 O0 2.336279 1_455
Na1 O6 2.363619 1_565
Na1 O10 2.509809 1_465
Na1 O4 2.552831 1_555
Na1 O9 2.568863 1_556
Na1 O5 2.703032 1_556
Na2 O7 2.342252 1_555
Na2 O11 2.361917 1_555
Na2 O1 2.506136 1_555
Na2 O5 2.561360 1_555
Na2 O8 2.569152 1_555
Na2 O4 2.704786 1_555
Na3 O6 2.342252 1_655
Na3 O0 2.361917 1_555
Na3 O8 2.506136 1_655
Na3 O3 2.561360 1_555
Na3 O1 2.569152 1_555
Na3 O2 2.704786 1_555
Br0 O6 1.789172 1_555
Br1 O0 1.790099 1_555
Br2 O7 1.789172 1_555
Br3 O11 1.790099 1_555
O1 O2 1.270083 1_555
O4 O8 1.270083 1_555
O5 O9 1.261615 1_555
O10 O3 1.261615 1_555
