# generated using pymatgen
data_Li2CoCuO4
_symmetry_space_group_name_H-M   'P 1'
_cell_length_a   4.14790765
_cell_length_b   7.72311612
_cell_length_c   5.11963851
_cell_angle_alpha   103.90243301
_cell_angle_beta   113.86653705
_cell_angle_gamma   74.43673963
_symmetry_Int_Tables_number   1
_chemical_formula_structural   Li2CoCuO4
_chemical_formula_sum   'Li4 Co2 Cu2 O8'
_cell_volume   142.85924510
_cell_formula_units_Z   2
loop_
 _symmetry_equiv_pos_site_id
 _symmetry_equiv_pos_as_xyz
  1  'x, y, z'
loop_
 _atom_site_type_symbol
 _atom_site_label
 _atom_site_symmetry_multiplicity
 _atom_site_fract_x
 _atom_site_fract_y
 _atom_site_fract_z
 _atom_site_occupancy
  Li  Li0  1  0.74754600  0.87709600  0.37224600  1
  Li  Li1  1  0.74763200  0.37530600  0.87040000  1
  Li  Li2  1  0.49569600  0.75334100  0.74446000  1
  Li  Li3  1  0.50456600  0.24652600  0.25586200  1
  Co  Co0  1  0.00125200  0.49960900  0.50198200  1
  Co  Co1  1  0.99722900  0.00064300  0.99522100  1
  Cu  Cu0  1  0.25337400  0.62656800  0.13335000  1
  Cu  Cu1  1  0.24895300  0.12246500  0.62049200  1
  O  O0  1  0.01991700  0.23016800  0.27021600  1
  O  O1  1  0.02526300  0.74750600  0.79807500  1
  O  O2  1  0.47499400  0.01329600  0.96340300  1
  O  O3  1  0.47959200  0.50958100  0.46862500  1
  O  O4  1  0.24068800  0.88073300  0.36225800  1
  O  O5  1  0.22535800  0.38616100  0.83652000  1
  O  O6  1  0.77489200  0.61322200  0.16287200  1
  O  O7  1  0.76305000  0.11777800  0.64401800  1
loop_
_geom_bond_atom_site_label_1
_geom_bond_atom_site_label_2
_geom_bond_distance
_geom_bond_site_symmetry_2
Li0 O7 2.035723 1_565
Li0 O6 2.059040 1_555
Li0 O4 2.074528 1_655
Li0 O4 2.074969 1_555
Li0 O2 2.295815 1_564
Li0 O1 2.340742 1_655
Li1 O7 2.046257 1_555
Li1 O6 2.069649 1_556
Li1 O5 2.082216 1_555
Li1 O5 2.082780 1_655
Li1 O3 2.257936 1_555
Li1 O0 2.296598 1_656
Li2 O2 2.049022 1_565
Li2 O3 2.063116 1_555
Li2 O1 2.089814 1_655
Li2 O1 2.090826 1_555
Li2 O4 2.146498 1_555
Li2 O6 2.352632 1_556
Li3 O2 2.043375 1_554
Li3 O3 2.059034 1_555
Li3 O0 2.079151 1_555
Li3 O0 2.079241 1_655
Li3 O7 2.177292 1_555
Li3 O5 2.354507 1_554
Co0 O5 1.887033 1_555
Co0 O6 1.906951 1_455
Co0 O3 2.081898 1_555
Co0 O3 2.082064 1_455
Co0 O0 2.132025 1_555
Co0 O1 2.135137 1_555
Co1 O1 1.969535 1_645
Co1 O7 1.972720 1_555
Co1 O0 1.978961 1_656
Co1 O4 2.051158 1_646
Co1 O2 2.082333 1_655
Co1 O2 2.082534 1_555
Cu0 O3 1.905278 1_555
Cu0 O1 1.922476 1_554
Cu0 O4 2.029376 1_555
Cu0 O6 2.081465 1_455
Cu0 O6 2.082356 1_555
Cu0 O5 2.094563 1_554
Cu1 O2 1.904497 1_555
Cu1 O0 1.929882 1_555
Cu1 O4 2.011477 1_545
Cu1 O5 2.068480 1_555
Cu1 O7 2.077418 1_455
Cu1 O7 2.077474 1_555
