# generated using pymatgen
data_Na4Cu3S8N5O12
_symmetry_space_group_name_H-M   'P 1'
_cell_length_a   10.16230592
_cell_length_b   10.16230592
_cell_length_c   10.16230592
_cell_angle_alpha   94.81531288
_cell_angle_beta   94.81531288
_cell_angle_gamma   146.31627296
_symmetry_Int_Tables_number   1
_chemical_formula_structural   Na4Cu3S8N5O12
_chemical_formula_sum   'Na4 Cu3 S8 N5 O12'
_cell_volume   557.08823587
_cell_formula_units_Z   1
loop_
 _symmetry_equiv_pos_site_id
 _symmetry_equiv_pos_as_xyz
  1  'x, y, z'
loop_
 _atom_site_type_symbol
 _atom_site_label
 _atom_site_symmetry_multiplicity
 _atom_site_fract_x
 _atom_site_fract_y
 _atom_site_fract_z
 _atom_site_occupancy
  Na  Na0  1  0.67397100  0.21254900  0.88651900  1
  Na  Na1  1  0.32602900  0.78745100  0.11348100  1
  Na  Na2  1  0.21254900  0.32602900  0.53857800  1
  Na  Na3  1  0.78745100  0.67397100  0.46142200  1
  Cu  Cu0  1  0.25000000  0.75000000  0.50000000  1
  Cu  Cu1  1  0.75000000  0.25000000  0.50000000  1
  Cu  Cu2  1  0.00000000  0.00000000  0.00000000  1
  S  S0  1  0.07311900  0.60290700  0.67602600  1
  S  S1  1  0.92688100  0.39709300  0.32397400  1
  S  S2  1  0.60290700  0.92688100  0.52978800  1
  S  S3  1  0.39709300  0.07311900  0.47021200  1
  S  S4  1  0.23005100  0.58716500  0.81721600  1
  S  S5  1  0.76994900  0.41283500  0.18278400  1
  S  S6  1  0.58716500  0.76994900  0.35711400  1
  S  S7  1  0.41283500  0.23005100  0.64288600  1
  N  N0  1  0.95993500  0.13116200  0.09109700  1
  N  N1  1  0.04006500  0.86883800  0.90890300  1
  N  N2  1  0.13116200  0.04006500  0.17122600  1
  N  N3  1  0.86883800  0.95993500  0.82877400  1
  N  N4  1  0.50000000  0.50000000  0.00000000  1
  O  O0  1  0.46545800  0.84578500  0.89865300  1
  O  O1  1  0.94713100  0.56680400  0.10134700  1
  O  O2  1  0.84578500  0.94713100  0.38032700  1
  O  O3  1  0.56680400  0.46545800  0.61967300  1
  O  O4  1  0.53454200  0.15421500  0.10134700  1
  O  O5  1  0.05286900  0.43319600  0.89865300  1
  O  O6  1  0.15421500  0.05286900  0.61967300  1
  O  O7  1  0.43319600  0.53454200  0.38032700  1
  O  O8  1  0.25327300  0.48425600  0.73752900  1
  O  O9  1  0.74672700  0.51574400  0.26247100  1
  O  O10  1  0.48425600  0.74672700  0.23098300  1
  O  O11  1  0.51574400  0.25327300  0.76901700  1
loop_
_geom_bond_atom_site_label_1
_geom_bond_atom_site_label_2
_geom_bond_distance
_geom_bond_site_symmetry_2
Na0 O11 2.247377 1_555
Na0 O0 2.318278 1_545
Na0 O5 2.318278 1_655
Na0 O1 2.542424 1_556
Na0 O4 2.542430 1_556
Na1 O10 2.247377 1_555
Na1 O1 2.318278 1_455
Na1 O4 2.318278 1_565
Na1 O5 2.542424 1_554
Na1 O0 2.542430 1_554
Na2 O8 2.247382 1_555
Na2 O2 2.318278 1_445
Na2 O7 2.318278 1_555
Na2 O6 2.542411 1_555
Na2 O3 2.542411 1_555
Na3 O9 2.247382 1_555
Na3 O3 2.318278 1_555
Na3 O6 2.318278 1_665
Na3 O2 2.542411 1_555
Na3 O7 2.542411 1_555
Cu0 S1 2.276516 1_455
Cu0 S0 2.276516 1_555
Cu0 S2 2.276516 1_555
Cu0 S3 2.276516 1_565
Cu1 S2 2.276516 1_545
Cu1 S3 2.276516 1_555
Cu1 S1 2.276516 1_555
Cu1 S0 2.276516 1_655
Cu2 N3 1.886450 1_444
Cu2 N2 1.886450 1_555
Cu2 N1 1.886459 1_544
Cu2 N0 1.886459 1_455
S0 S4 2.169471 1_555
S1 S5 2.169471 1_555
S2 S6 2.169471 1_555
S3 S7 2.169471 1_555
O0 S4 1.467697 1_555
O1 S5 1.467692 1_555
O2 S6 1.467699 1_555
O3 S7 1.467699 1_555
O4 S5 1.467697 1_555
O5 S4 1.467692 1_555
O6 S7 1.467699 1_555
O7 S6 1.467699 1_555
O8 S4 1.451131 1_555
O9 S5 1.451131 1_555
O10 S6 1.451131 1_555
O11 S7 1.451131 1_555
