# generated using pymatgen
data_Ca3B5Cl2O21
_symmetry_space_group_name_H-M   'P 1'
_cell_length_a   7.38650900
_cell_length_b   8.89416400
_cell_length_c   17.31178184
_cell_angle_alpha   59.19244910
_cell_angle_beta   90.00000000
_cell_angle_gamma   90.00000000
_symmetry_Int_Tables_number   1
_chemical_formula_structural   Ca3B5Cl2O21
_chemical_formula_sum   'Ca6 B10 Cl4 O42'
_cell_volume   976.84329350
_cell_formula_units_Z   2
loop_
 _symmetry_equiv_pos_site_id
 _symmetry_equiv_pos_as_xyz
  1  'x, y, z'
loop_
 _atom_site_type_symbol
 _atom_site_label
 _atom_site_symmetry_multiplicity
 _atom_site_fract_x
 _atom_site_fract_y
 _atom_site_fract_z
 _atom_site_occupancy
  Ca  Ca0  1  0.56408800  0.02220200  0.98235600  1
  Ca  Ca1  1  0.43591200  0.02220200  0.48235600  1
  Ca  Ca2  1  0.29582500  0.26688600  0.59212800  1
  Ca  Ca3  1  0.70417500  0.26688600  0.09212800  1
  Ca  Ca4  1  0.56296800  0.46651300  0.38163200  1
  Ca  Ca5  1  0.43703200  0.46651300  0.88163200  1
  B  B0  1  0.46241900  0.57799600  0.65238600  1
  B  B1  1  0.53758100  0.57799600  0.15238600  1
  B  B2  1  0.46023200  0.91732300  0.81465300  1
  B  B3  1  0.53976800  0.91732300  0.31465300  1
  B  B4  1  0.53826800  0.24409900  0.26128100  1
  B  B5  1  0.46173200  0.24409900  0.76128100  1
  B  B6  1  0.48878300  0.69186500  0.98386400  1
  B  B7  1  0.51121700  0.69186500  0.48386400  1
  B  B8  1  0.54241400  0.80335400  0.20391600  1
  B  B9  1  0.45758600  0.80335400  0.70391600  1
  Cl  Cl0  1  0.04757100  0.70421700  0.18768800  1
  Cl  Cl1  1  0.95242900  0.70421700  0.68768800  1
  Cl  Cl2  1  0.02359600  0.66433700  0.46264700  1
  Cl  Cl3  1  0.97640400  0.66433700  0.96264700  1
  O  O0  1  0.43973600  0.40433700  0.67641800  1
  O  O1  1  0.56026400  0.40433700  0.17641800  1
  O  O2  1  0.48462700  0.70631100  0.56272300  1
  O  O3  1  0.51537300  0.70631100  0.06272300  1
  O  O4  1  0.54110600  0.62786500  0.21675300  1
  O  O5  1  0.45889400  0.62786500  0.71675300  1
  O  O6  1  0.44191700  0.09412500  0.75071000  1
  O  O7  1  0.55808300  0.09412500  0.25071000  1
  O  O8  1  0.46033300  0.78984900  0.79092500  1
  O  O9  1  0.53966700  0.78984900  0.29092500  1
  O  O10  1  0.47739600  0.86590700  0.90487200  1
  O  O11  1  0.52260400  0.86590700  0.40487200  1
  O  O12  1  0.61229000  0.23514100  0.34430400  1
  O  O13  1  0.38771000  0.23514100  0.84430400  1
  O  O14  1  0.40607400  0.24253100  0.32406300  1
  O  O15  1  0.59392600  0.24253100  0.82406300  1
  O  O16  1  0.37810500  0.54864200  0.99079000  1
  O  O17  1  0.62189500  0.54864200  0.49079000  1
  O  O18  1  0.58848400  0.55823800  0.97768800  1
  O  O19  1  0.41151600  0.55823800  0.47768800  1
  O  O20  1  0.65813200  0.93884400  0.13372700  1
  O  O21  1  0.34186800  0.93884400  0.63372700  1
  O  O22  1  0.44652900  0.94715800  0.12912100  1
  O  O23  1  0.55347100  0.94715800  0.62912100  1
  O  O24  1  0.40178300  0.26094400  0.47876300  1
  O  O25  1  0.59821700  0.26094400  0.97876300  1
  O  O26  1  0.07250600  0.50187300  0.31250500  1
  O  O27  1  0.92749400  0.50187300  0.81250500  1
  O  O28  1  0.93260700  0.45741700  0.36006100  1
  O  O29  1  0.06739300  0.45741700  0.86006100  1
  O  O30  1  0.95208300  0.25078600  0.55921500  1
  O  O31  1  0.04791700  0.25078600  0.05921500  1
  O  O32  1  0.92293900  0.05839000  0.95564000  1
  O  O33  1  0.07706100  0.05839000  0.45564000  1
  O  O34  1  0.06410600  0.48887400  0.55879300  1
  O  O35  1  0.93589400  0.48887400  0.05879300  1
  O  O36  1  0.07017900  0.00075000  0.99365000  1
  O  O37  1  0.92982100  0.00075000  0.49365000  1
  O  O38  1  0.03132000  0.09309900  0.70268500  1
  O  O39  1  0.96868000  0.09309900  0.20268500  1
  O  O40  1  0.89657600  0.15522800  0.64314300  1
  O  O41  1  0.10342400  0.15522800  0.14314300  1
loop_
_geom_bond_atom_site_label_1
_geom_bond_atom_site_label_2
_geom_bond_distance
_geom_bond_site_symmetry_2
Ca0 O25 2.107369 1_555
Ca0 O15 2.428492 1_555
Ca0 O20 2.430880 1_546
Ca0 O22 2.432681 1_546
Ca0 O3 2.440278 1_546
Ca0 O10 2.460040 1_545
Ca0 O13 2.521831 1_555
Ca0 O32 2.681604 1_555
Ca1 O24 2.107369 1_555
Ca1 O14 2.428492 1_555
Ca1 O21 2.430880 1_545
Ca1 O23 2.432681 1_545
Ca1 O2 2.440278 1_545
Ca1 O11 2.460040 1_545
Ca1 O12 2.521831 1_555
Ca1 O33 2.681604 1_555
Ca2 O24 2.138503 1_555
Ca2 O34 2.448209 1_555
Ca2 O19 2.472165 1_555
Ca2 O0 2.565360 1_555
Ca2 O6 2.596428 1_555
Ca2 O38 2.615196 1_555
Ca2 O30 2.622122 1_455
Ca2 O21 2.644764 1_545
Ca3 O25 2.138503 1_554
Ca3 O35 2.448209 1_555
Ca3 O18 2.472165 1_554
Ca3 O1 2.565360 1_555
Ca3 O7 2.596428 1_555
Ca3 O39 2.615196 1_555
Ca3 O31 2.622122 1_655
Ca3 O20 2.644764 1_545
Ca4 O24 2.106834 1_555
Ca4 O17 2.389146 1_555
Ca4 O4 2.457038 1_555
Ca4 O19 2.464121 1_555
Ca4 O9 2.477912 1_555
Ca4 O12 2.479367 1_555
Ca4 O28 2.762555 1_555
Ca5 O25 2.106834 1_555
Ca5 O16 2.389146 1_555
Ca5 O5 2.457038 1_555
Ca5 O18 2.464121 1_555
Ca5 O8 2.477912 1_555
Ca5 O13 2.479367 1_555
Ca5 O29 2.762555 1_555
B0 O2 1.387164 1_555
B0 O0 1.388735 1_555
B0 O5 1.394758 1_555
B1 O3 1.387164 1_555
B1 O1 1.388735 1_555
B1 O4 1.394758 1_555
B2 O8 1.389687 1_555
B2 O10 1.390315 1_555
B2 O6 1.390475 1_565
B3 O9 1.389687 1_555
B3 O11 1.390315 1_555
B3 O7 1.390475 1_565
B4 O1 1.439168 1_555
B4 O7 1.443684 1_555
B4 O14 1.455819 1_555
B4 O12 1.501254 1_555
B5 O0 1.439168 1_555
B5 O6 1.443684 1_555
B5 O15 1.455819 1_555
B5 O13 1.501254 1_555
B6 O18 1.447920 1_555
B6 O3 1.448620 1_556
B6 O10 1.450861 1_555
B6 O16 1.465934 1_555
B7 O19 1.447920 1_555
B7 O2 1.448620 1_555
B7 O11 1.450861 1_555
B7 O17 1.465934 1_555
B8 O9 1.448584 1_555
B8 O22 1.455241 1_555
B8 O4 1.459577 1_555
B8 O20 1.469482 1_555
B9 O8 1.448584 1_555
B9 O23 1.455241 1_555
B9 O5 1.459577 1_555
B9 O21 1.469482 1_555
Cl0 O26 1.989610 1_555
Cl1 O27 1.989610 1_555
Cl2 O34 1.623182 1_555
Cl3 O35 1.623182 1_556
O12 O14 1.556824 1_555
O13 O15 1.556824 1_555
O26 O28 1.252412 1_455
O27 O29 1.252412 1_655
O30 O40 1.317801 1_555
O31 O41 1.317801 1_555
O32 O36 1.238192 1_655
O33 O37 1.238192 1_455
O38 O40 1.332295 1_455
O39 O41 1.332295 1_655
