# generated using pymatgen
data_AlC
_symmetry_space_group_name_H-M   'P 1'
_cell_length_a   29.96977100
_cell_length_b   8.06643000
_cell_length_c   8.10666236
_cell_angle_alpha   89.63626340
_cell_angle_beta   90.00000000
_cell_angle_gamma   90.00000000
_symmetry_Int_Tables_number   1
_chemical_formula_structural   AlC
_chemical_formula_sum   'Al30 C30'
_cell_volume   1959.73851223
_cell_formula_units_Z   30
loop_
 _symmetry_equiv_pos_site_id
 _symmetry_equiv_pos_as_xyz
  1  'x, y, z'
loop_
 _atom_site_type_symbol
 _atom_site_label
 _atom_site_symmetry_multiplicity
 _atom_site_fract_x
 _atom_site_fract_y
 _atom_site_fract_z
 _atom_site_occupancy
  Al  Al0  1  0.30254800  0.50000000  0.50000000  1
  Al  Al1  1  0.30408800  0.16909300  0.49738500  1
  Al  Al2  1  0.30408800  0.83090700  0.50261500  1
  Al  Al3  1  0.30303600  0.50000000  0.00000000  1
  Al  Al4  1  0.30351300  0.16582300  0.99776400  1
  Al  Al5  1  0.30351300  0.83417700  0.00223600  1
  Al  Al6  1  0.34691600  0.33271600  0.74553800  1
  Al  Al7  1  0.34757700  0.99955500  0.74831100  1
  Al  Al8  1  0.35125100  0.66331500  0.74800100  1
  Al  Al9  1  0.35125100  0.33668500  0.25199900  1
  Al  Al10  1  0.34757700  0.00044500  0.25168900  1
  Al  Al11  1  0.34691600  0.66728400  0.25446200  1
  Al  Al12  1  0.39917200  0.50000000  0.50000000  1
  Al  Al13  1  0.40066200  0.16924000  0.49850600  1
  Al  Al14  1  0.40066200  0.83076000  0.50149400  1
  Al  Al15  1  0.39692100  0.50000000  0.00000000  1
  Al  Al16  1  0.39464800  0.16814300  0.00043200  1
  Al  Al17  1  0.39464800  0.83185700  0.99956800  1
  Al  Al18  1  0.44164700  0.34254400  0.76548800  1
  Al  Al19  1  0.44175900  0.99720400  0.75863600  1
  Al  Al20  1  0.45856300  0.67375900  0.73617400  1
  Al  Al21  1  0.45856300  0.32624100  0.26382600  1
  Al  Al22  1  0.44175900  0.00279600  0.24136400  1
  Al  Al23  1  0.44164700  0.65745600  0.23451200  1
  Al  Al24  1  0.49962200  0.50000000  0.50000000  1
  Al  Al25  1  0.50003700  0.17577100  0.57535000  1
  Al  Al26  1  0.50003700  0.82422900  0.42465000  1
  Al  Al27  1  0.50762300  0.50000000  0.00000000  1
  Al  Al28  1  0.49175800  0.16735300  0.00096700  1
  Al  Al29  1  0.49175800  0.83264700  0.99903300  1
  C  C0  1  0.55602400  0.03114500  0.58834600  1
  C  C1  1  0.55693000  0.43147700  0.79996500  1
  C  C2  1  0.56064800  0.82852400  0.98702200  1
  C  C3  1  0.56040400  0.22758200  0.18192600  1
  C  C4  1  0.55456500  0.62708200  0.37949800  1
  C  C5  1  0.55456500  0.37291800  0.62050200  1
  C  C6  1  0.56040400  0.77241800  0.81807400  1
  C  C7  1  0.56064800  0.17147600  0.01297800  1
  C  C8  1  0.55693000  0.56852300  0.20003500  1
  C  C9  1  0.55602400  0.96885500  0.41165400  1
  C  C10  1  0.58157600  0.50000000  0.50000000  1
  C  C11  1  0.58150000  0.90069500  0.69992300  1
  C  C12  1  0.58517700  0.30043500  0.90055400  1
  C  C13  1  0.58517700  0.69956500  0.09944600  1
  C  C14  1  0.58150000  0.09930500  0.30007700  1
  C  C15  1  0.58292300  0.20165200  0.60182300  1
  C  C16  1  0.58389900  0.60062600  0.80128200  1
  C  C17  1  0.58518500  0.00000000  0.00000000  1
  C  C18  1  0.58389900  0.39937400  0.19871800  1
  C  C19  1  0.58292300  0.79834800  0.39817700  1
  C  C20  1  0.60171400  0.62006400  0.62595000  1
  C  C21  1  0.60363800  0.02192200  0.82449700  1
  C  C22  1  0.60592500  0.42022200  0.02694100  1
  C  C23  1  0.60386100  0.81827500  0.22932000  1
  C  C24  1  0.60149400  0.22078500  0.42854000  1
  C  C25  1  0.60149400  0.77921500  0.57146000  1
  C  C26  1  0.60386100  0.18172500  0.77068000  1
  C  C27  1  0.60592500  0.57977800  0.97305900  1
  C  C28  1  0.60363800  0.97807800  0.17550300  1
  C  C29  1  0.60171400  0.37993600  0.37405000  1
loop_
_geom_bond_atom_site_label_1
_geom_bond_atom_site_label_2
_geom_bond_distance
_geom_bond_site_symmetry_2
Al0 Al6 2.741697 1_555
Al0 Al11 2.741697 1_555
Al0 Al8 2.818071 1_555
Al0 Al9 2.818071 1_555
Al0 Al12 2.895799 1_555
Al1 Al6 2.733152 1_555
Al1 Al10 2.747901 1_555
Al1 Al7 2.769749 1_545
Al1 Al9 2.783603 1_555
Al1 Al13 2.894315 1_555
Al2 Al7 2.747901 1_555
Al2 Al8 2.783603 1_555
Al3 Al6 2.800160 1_554
Al3 Al9 2.821811 1_555
Al3 Al8 2.821811 1_554
Al4 Al6 2.765909 1_555
Al4 Al7 2.768862 1_545
Al4 Al9 2.868838 1_556
Al5 Al7 2.779573 1_554
Al5 Al8 2.868838 1_554
Al6 Al8 2.670118 1_555
Al6 Al7 2.687444 1_545
Al7 Al8 2.714508 1_555
Al10 Al11 2.687444 1_545
Al10 Al9 2.714508 1_555
Al10 Al5 2.768862 1_545
Al10 Al2 2.769749 1_545
Al10 Al4 2.779573 1_554
Al10 Al16 2.816692 1_555
Al10 Al22 2.823914 1_555
Al10 Al17 2.837619 1_544
Al10 Al13 2.902245 1_555
Al10 Al14 2.910389 1_545
Al11 Al9 2.670118 1_555
Al11 Al2 2.733152 1_555
Al11 Al5 2.765909 1_555
Al11 Al3 2.800160 1_555
Al11 Al17 2.836126 1_554
Al11 Al23 2.844803 1_555
Al11 Al12 2.863821 1_555
Al11 Al15 2.890916 1_555
Al11 Al14 2.894369 1_555
Al12 Al13 2.668530 1_555
Al12 Al14 2.668530 1_555
Al12 Al23 2.798386 1_555
Al12 Al18 2.798386 1_555
Al12 Al8 2.806004 1_555
Al12 Al9 2.806004 1_555
Al12 Al6 2.863821 1_555
Al12 Al20 2.971934 1_555
Al12 Al21 2.971934 1_555
Al12 Al24 3.010463 1_555
Al13 Al14 2.730279 1_545
Al13 Al22 2.774985 1_555
Al13 Al19 2.802246 1_545
Al13 Al9 2.824243 1_555
Al13 Al18 2.861075 1_555
Al13 Al21 2.864239 1_555
Al13 Al6 2.894369 1_555
Al13 Al7 2.910389 1_545
Al13 Al25 3.043223 1_555
Al14 Al19 2.774985 1_555
Al14 Al22 2.802246 1_565
Al14 Al8 2.824243 1_555
Al14 Al23 2.861075 1_555
Al14 Al20 2.864239 1_555
Al14 Al2 2.894315 1_555
Al14 Al7 2.902245 1_555
Al14 Al26 3.043223 1_555
Al15 Al23 2.656087 1_555
Al15 Al18 2.656087 1_554
Al15 Al17 2.677748 1_554
Al15 Al16 2.677748 1_555
Al15 Al9 2.783524 1_555
Al15 Al8 2.783524 1_554
Al15 Al3 2.813712 1_555
Al15 Al6 2.890916 1_554
Al16 Al17 2.712681 1_544
Al16 Al4 2.731446 1_554
Al16 Al22 2.748478 1_555
Al16 Al18 2.748928 1_554
Al16 Al9 2.781027 1_555
Al16 Al19 2.787704 1_544
Al16 Al6 2.836126 1_554
Al16 Al7 2.837619 1_544
Al16 Al28 2.910375 1_555
Al17 Al5 2.731446 1_556
Al17 Al19 2.748478 1_555
Al17 Al23 2.748928 1_556
Al17 Al8 2.781027 1_555
Al17 Al22 2.787704 1_566
Al17 Al7 2.816692 1_555
Al17 Al29 2.910375 1_555
Al18 Al25 2.697072 1_555
Al18 Al20 2.728283 1_555
Al18 Al19 2.786569 1_545
Al18 Al28 2.803983 1_556
Al18 Al6 2.844803 1_555
Al18 Al27 3.027822 1_556
Al18 Al24 3.037996 1_555
Al19 Al20 2.664571 1_555
Al19 Al25 2.702929 1_565
Al19 Al29 2.787899 1_555
Al19 Al7 2.823914 1_555
Al19 Al28 2.832419 1_566
Al20 Al24 2.679258 1_555
Al20 Al29 2.684738 1_555
Al20 Al27 2.943219 1_556
Al20 Al26 3.058921 1_555
Al21 Al22 2.664571 1_555
Al21 Al24 2.679258 1_555
Al21 Al28 2.684738 1_555
Al21 Al23 2.728283 1_555
Al21 Al27 2.943219 1_555
Al21 Al25 3.058921 1_555
Al22 Al26 2.702929 1_545
Al22 Al23 2.786569 1_545
Al22 Al28 2.787899 1_555
Al22 Al29 2.832419 1_544
Al23 Al26 2.697072 1_555
Al23 Al29 2.803983 1_554
Al23 Al27 3.027822 1_555
Al23 Al24 3.037996 1_555
Al24 C4 2.168818 1_555
Al24 C5 2.168818 1_555
Al24 C10 2.456143 1_555
Al25 C0 2.045957 1_555
Al25 C5 2.311043 1_555
Al26 C9 2.045957 1_555
Al26 C4 2.311043 1_555
Al27 C8 2.264993 1_555
Al27 C1 2.264993 1_554
Al28 C7 2.067190 1_555
Al29 C2 2.067190 1_555
C0 C9 1.520961 1_545
C0 C11 1.579961 1_545
C0 C15 1.598565 1_555
C1 C5 1.534096 1_555
C1 C12 1.577337 1_555
C1 C16 1.585951 1_555
C2 C6 1.445186 1_555
C3 C7 1.445186 1_555
C4 C8 1.534096 1_555
C10 C29 1.535345 1_555
C10 C20 1.535345 1_555
C10 C4 1.627175 1_555
C10 C5 1.627175 1_555
C11 C6 1.541178 1_555
C11 C25 1.554595 1_555
C11 C21 1.558466 1_565
C12 C26 1.533546 1_555
C12 C22 1.543575 1_556
C12 C7 1.562400 1_556
C13 C23 1.533546 1_555
C13 C27 1.543575 1_554
C13 C2 1.562400 1_554
C13 C8 1.577337 1_555
C14 C3 1.541178 1_555
C14 C24 1.554595 1_555
C14 C28 1.558466 1_545
C14 C9 1.579961 1_545
C15 C26 1.513474 1_555
C15 C24 1.517942 1_555
C15 C5 1.629860 1_555
C16 C20 1.525475 1_555
C16 C27 1.549265 1_555
C16 C6 1.561101 1_555
C17 C28 1.535617 1_545
C17 C21 1.535617 1_554
C17 C7 1.570644 1_555
C17 C2 1.570644 1_544
C18 C29 1.525475 1_555
C18 C22 1.549265 1_555
C18 C3 1.561101 1_555
C18 C8 1.585951 1_555
C19 C23 1.513474 1_555
C19 C25 1.517942 1_555
C19 C9 1.598565 1_555
C19 C4 1.629860 1_555
