# generated using pymatgen
data_Li3MnCoO5
_symmetry_space_group_name_H-M   'P 1'
_cell_length_a   12.19029799
_cell_length_b   12.19029799
_cell_length_c   5.23601663
_cell_angle_alpha   87.31704158
_cell_angle_beta   87.31704158
_cell_angle_gamma   13.72073175
_symmetry_Int_Tables_number   1
_chemical_formula_structural   Li3MnCoO5
_chemical_formula_sum   'Li6 Mn2 Co2 O10'
_cell_volume   184.34960825
_cell_formula_units_Z   2
loop_
 _symmetry_equiv_pos_site_id
 _symmetry_equiv_pos_as_xyz
  1  'x, y, z'
loop_
 _atom_site_type_symbol
 _atom_site_label
 _atom_site_symmetry_multiplicity
 _atom_site_fract_x
 _atom_site_fract_y
 _atom_site_fract_z
 _atom_site_occupancy
  Li  Li0  1  0.69466900  0.69466900  0.09124700  1
  Li  Li1  1  0.09101200  0.09101200  0.31693400  1
  Li  Li2  1  0.50000000  0.50000000  0.50000000  1
  Li  Li3  1  0.90898800  0.90898800  0.68306600  1
  Li  Li4  1  0.30533100  0.30533100  0.90875300  1
  Li  Li5  1  0.00000000  0.00000000  0.00000000  1
  Mn  Mn0  1  0.19914100  0.19914100  0.59954900  1
  Mn  Mn1  1  0.80085900  0.80086000  0.40045100  1
  Co  Co0  1  0.59133800  0.59133800  0.83135500  1
  Co  Co1  1  0.40866200  0.40866200  0.16864500  1
  O  O0  1  0.74765400  0.74765400  0.71869100  1
  O  O1  1  0.15495000  0.15495000  0.90336400  1
  O  O2  1  0.55572700  0.55572700  0.13666400  1
  O  O3  1  0.94569700  0.94569700  0.34354400  1
  O  O4  1  0.34150400  0.34150400  0.54116000  1
  O  O5  1  0.65849600  0.65849600  0.45884000  1
  O  O6  1  0.05430300  0.05430300  0.65645600  1
  O  O7  1  0.44427300  0.44427300  0.86333600  1
  O  O8  1  0.84505000  0.84505000  0.09663600  1
  O  O9  1  0.25234600  0.25234600  0.28130900  1
loop_
_geom_bond_atom_site_label_1
_geom_bond_atom_site_label_2
_geom_bond_distance
_geom_bond_site_symmetry_2
Li0 O1 2.025254 1_654
Li0 O1 2.025254 1_564
Li0 O5 2.076615 1_555
Li0 O9 2.278349 1_655
Li0 O9 2.278349 1_565
Li0 O0 2.283485 1_554
Li1 O6 1.949613 1_555
Li1 O2 1.953659 1_455
Li1 O2 1.953659 1_545
Li1 O5 2.335645 1_545
Li1 O5 2.335645 1_455
Li1 O1 2.601639 1_554
Li2 O6 2.149596 1_565
Li2 O6 2.149596 1_655
Li2 O3 2.149596 1_545
Li2 O3 2.149596 1_455
Li2 O7 2.279667 1_555
Li2 O2 2.279667 1_555
Li3 O3 1.949613 1_555
Li3 O7 1.953659 1_565
Li3 O7 1.953659 1_655
Li3 O4 2.335645 1_655
Li3 O4 2.335645 1_565
Li3 O8 2.601639 1_556
Li4 O8 2.025254 1_456
Li4 O8 2.025254 1_546
Li4 O4 2.076615 1_555
Li4 O0 2.278349 1_545
Li4 O0 2.278349 1_455
Li4 O9 2.283485 1_556
Li5 O2 2.131431 1_545
Li5 O2 2.131431 1_455
Li5 O7 2.131431 1_454
Li5 O7 2.131431 1_544
Li5 O3 2.177278 1_445
Li5 O6 2.177278 1_554
Mn0 O1 1.874663 1_555
Mn0 O5 1.923395 1_545
Mn0 O5 1.923395 1_455
Mn0 O0 1.989361 1_545
Mn0 O0 1.989361 1_455
Mn0 O9 2.057395 1_555
Mn1 O8 1.874657 1_555
Mn1 O4 1.923387 1_565
Mn1 O4 1.923389 1_655
Mn1 O9 1.989368 1_565
Mn1 O9 1.989370 1_655
Mn1 O0 2.057402 1_555
Co0 O2 1.780068 1_556
Co0 O6 1.959600 1_565
Co0 O6 1.959600 1_655
Co0 O1 2.165223 1_655
Co0 O1 2.165223 1_565
Co0 O5 2.479539 1_555
Co1 O7 1.780068 1_554
Co1 O3 1.959600 1_545
Co1 O3 1.959600 1_455
Co1 O8 2.165223 1_455
Co1 O8 2.165223 1_545
Co1 O4 2.479539 1_555
