# generated using pymatgen
data_Nd20Mn20O59
_symmetry_space_group_name_H-M   'P 1'
_cell_length_a   9.44110000
_cell_length_b   11.17337165
_cell_length_c   13.04427361
_cell_angle_alpha   73.79980009
_cell_angle_beta   76.08642176
_cell_angle_gamma   74.15521557
_symmetry_Int_Tables_number   1
_chemical_formula_structural   Nd20Mn20O59
_chemical_formula_sum   'Nd20 Mn20 O59'
_cell_volume   1250.91988773
_cell_formula_units_Z   1
loop_
 _symmetry_equiv_pos_site_id
 _symmetry_equiv_pos_as_xyz
  1  'x, y, z'
loop_
 _atom_site_type_symbol
 _atom_site_label
 _atom_site_symmetry_multiplicity
 _atom_site_fract_x
 _atom_site_fract_y
 _atom_site_fract_z
 _atom_site_occupancy
  Nd  Nd0  1  0.85780700  0.89196100  0.01793900  1
  Nd  Nd1  1  0.82825600  0.41998200  0.07784100  1
  Nd  Nd2  1  0.25961500  0.49154500  0.21665000  1
  Nd  Nd3  1  0.22892300  0.02179700  0.27688900  1
  Nd  Nd4  1  0.57107500  0.17896300  0.12316100  1
  Nd  Nd5  1  0.65890100  0.09135300  0.41580600  1
  Nd  Nd6  1  0.54102400  0.70895700  0.18241700  1
  Nd  Nd7  1  0.62979600  0.62279200  0.47563200  1
  Nd  Nd8  1  0.97221200  0.77933300  0.32243900  1
  Nd  Nd9  1  0.05990900  0.68948900  0.61594100  1
  Nd  Nd10  1  0.94300900  0.30876400  0.38273600  1
  Nd  Nd11  1  0.02520200  0.21886200  0.67594700  1
  Nd  Nd12  1  0.36748900  0.38234100  0.52288900  1
  Nd  Nd13  1  0.44930300  0.30024500  0.82026900  1
  Nd  Nd14  1  0.34098500  0.90791000  0.58331600  1
  Nd  Nd15  1  0.43236800  0.82149600  0.87530900  1
  Nd  Nd16  1  0.78579200  0.96294000  0.72465100  1
  Nd  Nd17  1  0.74218000  0.50699800  0.78342600  1
  Nd  Nd18  1  0.16931600  0.58047500  0.92425900  1
  Nd  Nd19  1  0.14142500  0.10857300  0.98274100  1
  Mn  Mn0  1  0.20102600  0.80018600  0.09925900  1
  Mn  Mn1  1  0.49995300  0.50025000  0.00052300  1
  Mn  Mn2  1  0.60017200  0.39966700  0.30151000  1
  Mn  Mn3  1  0.90019000  0.09985000  0.19952800  1
  Mn  Mn4  1  0.19941300  0.29999200  0.10074100  1
  Mn  Mn5  1  0.50076200  0.00161600  0.99844000  1
  Mn  Mn6  1  0.99982300  0.99885900  0.49921500  1
  Mn  Mn7  1  0.60025300  0.90033300  0.29925100  1
  Mn  Mn8  1  0.30084200  0.70100700  0.39906800  1
  Mn  Mn9  1  0.39891300  0.60109900  0.70043000  1
  Mn  Mn10  1  0.90113400  0.59965600  0.19979100  1
  Mn  Mn11  1  0.70192500  0.30526900  0.59872300  1
  Mn  Mn12  1  0.00068000  0.50198100  0.49794800  1
  Mn  Mn13  1  0.79861600  0.19899900  0.89930800  1
  Mn  Mn14  1  0.30076500  0.19960300  0.40135100  1
  Mn  Mn15  1  0.10001300  0.89918700  0.80183800  1
  Mn  Mn16  1  0.39324200  0.09906200  0.70190800  1
  Mn  Mn17  1  0.70071500  0.79927800  0.59908400  1
  Mn  Mn18  1  0.79913700  0.69739400  0.90326700  1
  Mn  Mn19  1  0.09855000  0.40071100  0.79989300  1
  O  O0  1  0.39429600  0.85738800  0.05628300  1
  O  O1  1  0.79071000  0.65973400  0.07935300  1
  O  O2  1  0.54997500  0.49939600  0.15929100  1
  O  O3  1  0.79567500  0.45470100  0.25925700  1
  O  O4  1  0.07682700  0.47094500  0.10509500  1
  O  O5  1  0.31966000  0.63269300  0.02438700  1
  O  O6  1  0.01650500  0.23294200  0.11818300  1
  O  O7  1  0.38354000  0.36642300  0.08032000  1
  O  O8  1  0.94913000  0.10012700  0.35972600  1
  O  O9  1  0.19081700  0.25999000  0.27890000  1
  O  O10  1  0.32202000  0.12910800  0.09425100  1
  O  O11  1  0.08099900  0.96778800  0.17556600  1
  O  O12  1  0.19416400  0.05446000  0.45990200  1
  O  O13  1  0.47733100  0.07109500  0.30532700  1
  O  O14  1  0.71958200  0.23224200  0.22441700  1
  O  O15  1  0.85108300  0.10076600  0.04053900  1
  O  O16  1  0.60918200  0.94038700  0.12094200  1
  O  O17  1  0.41720800  0.83396300  0.31857900  1
  O  O18  1  0.78378400  0.96638300  0.28063200  1
  O  O19  1  0.34937000  0.69921200  0.55989100  1
  O  O20  1  0.59018500  0.86048600  0.47982500  1
  O  O21  1  0.72304000  0.72920300  0.29500000  1
  O  O22  1  0.48127200  0.56771700  0.37640200  1
  O  O23  1  0.00619400  0.74460300  0.14067900  1
  O  O24  1  0.59537800  0.65387400  0.65869500  1
  O  O25  1  0.12033300  0.83362000  0.42298700  1
  O  O26  1  0.87708800  0.67356600  0.50398000  1
  O  O27  1  0.25222800  0.70111900  0.23951400  1
  O  O28  1  0.01102800  0.54031000  0.31918700  1
  O  O29  1  0.82178600  0.43893300  0.51516800  1
  O  O30  1  0.18289900  0.56816500  0.47920500  1
  O  O31  1  0.99039200  0.46018900  0.67918500  1
  O  O32  1  0.74266700  0.29521600  0.75688000  1
  O  O33  1  0.87419200  0.15719700  0.58363100  1
  O  O34  1  0.12209200  0.32723600  0.49592500  1
  O  O35  1  0.40665500  0.34375200  0.34200300  1
  O  O36  1  0.99442000  0.25543700  0.85601600  1
  O  O37  1  0.51095700  0.42782100  0.63000000  1
  O  O38  1  0.28510100  0.27637700  0.70555000  1
  O  O39  1  0.65007700  0.29948600  0.44567800  1
  O  O40  1  0.41076300  0.13944300  0.52573400  1
  O  O41  1  0.20844500  0.03070000  0.71885700  1
  O  O42  1  0.15041000  0.89995100  0.95919400  1
  O  O43  1  0.39704100  0.06519300  0.87177900  1
  O  O44  1  0.53594400  0.93166500  0.69593700  1
  O  O45  1  0.28377900  0.76837900  0.77512100  1
  O  O46  1  0.80609900  0.94368900  0.53975300  1
  O  O47  1  0.67738400  0.86946400  0.90617100  1
  O  O48  1  0.91703400  0.03122100  0.82618800  1
  O  O49  1  0.04918300  0.89672200  0.64014300  1
  O  O50  1  0.81145700  0.73819300  0.72025000  1
  O  O51  1  0.61662500  0.63323900  0.91773900  1
  O  O52  1  0.98155500  0.76715300  0.87982100  1
  O  O53  1  0.92167200  0.52771900  0.89610800  1
  O  O54  1  0.68072900  0.36787500  0.97468100  1
  O  O55  1  0.20334300  0.54625500  0.74336500  1
  O  O56  1  0.44813600  0.50237900  0.84184400  1
  O  O57  1  0.20677300  0.34136300  0.92215200  1
  O  O58  1  0.60230700  0.14733500  0.94069600  1
loop_
_geom_bond_atom_site_label_1
_geom_bond_atom_site_label_2
_geom_bond_distance
_geom_bond_site_symmetry_2
Nd0 O23 2.363284 1_655
Nd0 O16 2.408984 1_555
Nd0 O15 2.414123 1_565
Nd0 O52 2.460807 1_554
Nd0 O48 2.573112 1_564
Nd0 O47 2.592859 1_554
Nd0 O1 2.696194 1_555
Nd0 O42 2.702777 1_654
Nd1 O6 2.368772 1_655
Nd1 O53 2.414234 1_554
Nd1 O54 2.423014 1_554
Nd1 O3 2.437654 1_555
Nd1 O2 2.594102 1_555
Nd1 O1 2.609560 1_555
Nd1 O14 2.665059 1_555
Nd1 O4 2.683642 1_655
Nd2 O35 2.379272 1_555
Nd2 O28 2.406797 1_555
Nd2 O27 2.422321 1_555
Nd2 O7 2.445255 1_555
Nd2 O5 2.587627 1_555
Nd2 O4 2.600005 1_555
Nd2 O2 2.681535 1_555
Nd2 O9 2.695711 1_555
Nd3 O17 2.377222 1_545
Nd3 O11 2.419577 1_545
Nd3 O10 2.420842 1_555
Nd3 O12 2.446209 1_555
Nd3 O9 2.593230 1_555
Nd3 O8 2.608435 1_455
Nd3 O25 2.665587 1_545
Nd3 O13 2.679366 1_555
Nd4 O7 2.373162 1_555
Nd4 O14 2.418644 1_555
Nd4 O13 2.419796 1_555
Nd4 O58 2.439618 1_554
Nd4 O16 2.598185 1_545
Nd4 O15 2.609105 1_555
Nd4 O54 2.688162 1_554
Nd4 O10 2.690776 1_555
Nd5 O46 2.368026 1_545
Nd5 O18 2.433914 1_545
Nd5 O39 2.439503 1_555
Nd5 O40 2.441336 1_555
Nd5 O13 2.578479 1_555
Nd5 O14 2.578897 1_555
Nd5 O8 2.682440 1_555
Nd5 O20 2.687694 1_545
Nd6 O0 2.386542 1_555
Nd6 O1 2.418121 1_555
Nd6 O2 2.419627 1_555
Nd6 O17 2.442578 1_555
Nd6 O21 2.602337 1_555
Nd6 O22 2.604430 1_555
Nd6 O27 2.667182 1_555
Nd6 O16 2.692060 1_555
Nd7 O29 2.365746 1_555
Nd7 O21 2.398166 1_555
Nd7 O22 2.410163 1_555
Nd7 O24 2.440561 1_555
Nd7 O20 2.593301 1_555
Nd7 O19 2.614635 1_555
Nd7 O26 2.676745 1_555
Nd7 O37 2.803528 1_555
Nd8 O18 2.372858 1_555
Nd8 O26 2.409590 1_555
Nd8 O25 2.415145 1_655
Nd8 O23 2.440161 1_655
Nd8 O28 2.605761 1_655
Nd8 O27 2.610242 1_655
Nd8 O11 2.672615 1_655
Nd8 O21 2.685558 1_555
Nd9 O55 2.360624 1_555
Nd9 O49 2.394972 1_555
Nd9 O50 2.414709 1_455
Nd9 O30 2.420917 1_555
Nd9 O26 2.582384 1_455
Nd9 O25 2.608323 1_555
Nd9 O31 2.674678 1_455
Nd9 O19 2.677988 1_555
Nd10 O3 2.358281 1_555
Nd10 O9 2.407671 1_655
Nd10 O8 2.415852 1_555
Nd10 O29 2.439581 1_555
Nd10 O34 2.577262 1_655
Nd10 O28 2.692107 1_655
Nd10 O39 2.711173 1_555
Nd10 O33 2.731852 1_555
Nd11 O41 2.355690 1_555
Nd11 O33 2.404673 1_455
Nd11 O34 2.408845 1_555
Nd11 O36 2.431282 1_455
Nd11 O32 2.619773 1_455
Nd11 O31 2.636954 1_455
Nd11 O48 2.682032 1_455
Nd11 O38 2.835155 1_555
Nd12 O30 2.348252 1_555
Nd12 O38 2.391961 1_555
Nd12 O37 2.393152 1_555
Nd12 O35 2.439472 1_555
Nd12 O39 2.620808 1_555
Nd12 O40 2.622907 1_555
Nd12 O22 2.667361 1_555
Nd12 O34 2.676216 1_555
Nd13 O56 2.349429 1_555
Nd13 O57 2.350114 1_555
Nd13 O58 2.391524 1_555
Nd13 O38 2.505546 1_555
Nd13 O37 2.512946 1_555
Nd13 O43 2.675074 1_555
Nd13 O32 2.682826 1_555
Nd14 O12 2.357355 1_565
Nd14 O19 2.412956 1_555
Nd14 O20 2.414422 1_555
Nd14 O41 2.434368 1_565
Nd14 O45 2.572061 1_555
Nd14 O40 2.701700 1_565
Nd14 O49 2.703518 1_555
Nd14 O44 2.720521 1_555
Nd15 O51 2.360581 1_555
Nd15 O45 2.407751 1_555
Nd15 O44 2.428152 1_555
Nd15 O0 2.429873 1_556
Nd15 O42 2.629091 1_555
Nd15 O43 2.639914 1_565
Nd15 O47 2.654349 1_555
Nd15 O5 2.702905 1_556
Nd16 O48 2.396012 1_565
Nd16 O47 2.404829 1_555
Nd16 O46 2.438170 1_555
Nd16 O49 2.465440 1_655
Nd16 O50 2.471746 1_555
Nd16 O44 2.602801 1_555
Nd16 O33 2.610446 1_565
Nd17 O24 2.369364 1_555
Nd17 O31 2.410208 1_555
Nd17 O51 2.435456 1_555
Nd17 O32 2.483928 1_555
Nd17 O54 2.570874 1_555
Nd17 O53 2.586070 1_555
Nd17 O50 2.693607 1_555
Nd17 O56 2.707213 1_555
Nd18 O52 2.372652 1_455
Nd18 O4 2.409698 1_556
Nd18 O5 2.414548 1_556
Nd18 O55 2.426737 1_555
Nd18 O56 2.598977 1_555
Nd18 O57 2.604631 1_555
Nd18 O53 2.689786 1_455
Nd18 O45 2.703560 1_555
Nd19 O36 2.386970 1_455
Nd19 O42 2.411256 1_545
Nd19 O6 2.432340 1_556
Nd19 O43 2.495358 1_555
Nd19 O10 2.582254 1_556
Nd19 O11 2.592041 1_546
Nd19 O15 2.681400 1_456
Nd19 O57 2.695451 1_555
Mn0 O42 1.949776 1_554
Mn0 O27 1.951724 1_555
Mn0 O0 1.999301 1_555
Mn0 O23 2.004930 1_555
Mn0 O5 2.249421 1_555
Mn0 O11 2.262886 1_555
Mn1 O5 1.952153 1_555
Mn1 O54 1.958891 1_554
Mn1 O7 2.001523 1_555
Mn1 O51 2.003453 1_554
Mn1 O2 2.229147 1_555
Mn1 O56 2.230991 1_554
Mn2 O2 1.972005 1_555
Mn2 O39 1.993746 1_555
Mn2 O35 1.995586 1_555
Mn2 O3 2.007527 1_555
Mn2 O22 2.255068 1_555
Mn2 O14 2.265966 1_555
Mn3 O11 1.953021 1_645
Mn3 O14 1.955890 1_555
Mn3 O6 1.998536 1_655
Mn3 O18 2.001605 1_545
Mn3 O15 2.228019 1_555
Mn3 O8 2.246982 1_555
Mn4 O4 1.952689 1_555
Mn4 O10 1.956751 1_555
Mn4 O7 2.003841 1_555
Mn4 O6 2.004356 1_555
Mn4 O9 2.226351 1_555
Mn4 O57 2.232531 1_554
Mn5 O16 1.965570 1_546
Mn5 O43 1.984094 1_555
Mn5 O58 1.989516 1_555
Mn5 O0 2.004480 1_546
Mn5 O47 2.256418 1_545
Mn5 O10 2.259511 1_556
Mn6 O8 1.947908 1_565
Mn6 O49 1.962109 1_655
Mn6 O46 1.993337 1_555
Mn6 O12 2.001892 1_665
Mn6 O25 2.241687 1_655
Mn6 O33 2.249968 1_565
Mn7 O21 1.954710 1_555
Mn7 O13 1.955638 1_565
Mn7 O17 1.996482 1_555
Mn7 O18 2.000472 1_555
Mn7 O16 2.227720 1_555
Mn7 O20 2.255151 1_555
Mn8 O25 1.954619 1_555
Mn8 O22 1.955847 1_555
Mn8 O17 1.995596 1_555
Mn8 O30 2.003180 1_555
Mn8 O27 2.236056 1_555
Mn8 O19 2.246082 1_555
Mn9 O19 1.947376 1_555
Mn9 O56 1.957642 1_555
Mn9 O24 2.004260 1_555
Mn9 O55 2.006837 1_555
Mn9 O45 2.240900 1_555
Mn9 O37 2.262356 1_555
Mn10 O28 1.940854 1_655
Mn10 O1 1.955161 1_555
Mn10 O23 2.003470 1_655
Mn10 O3 2.006083 1_555
Mn10 O4 2.246930 1_655
Mn10 O21 2.265950 1_555
Mn11 O37 1.975337 1_555
Mn11 O33 1.994883 1_555
Mn11 O29 2.029879 1_555
Mn11 O32 2.155331 1_555
Mn11 O39 2.188254 1_555
Mn12 O29 1.943773 1_455
Mn12 O26 1.965134 1_455
Mn12 O34 1.979623 1_555
Mn12 O30 1.989414 1_555
Mn12 O28 2.233013 1_555
Mn12 O31 2.261599 1_455
Mn13 O15 1.964097 1_556
Mn13 O32 1.983390 1_555
Mn13 O58 1.997201 1_555
Mn13 O36 2.017355 1_555
Mn13 O48 2.239276 1_555
Mn13 O54 2.264500 1_555
Mn14 O9 1.974243 1_555
Mn14 O40 1.995837 1_555
Mn14 O35 2.001050 1_555
Mn14 O12 2.014132 1_555
Mn14 O34 2.251312 1_555
Mn14 O13 2.258718 1_555
Mn15 O41 1.944205 1_565
Mn15 O48 1.966605 1_465
Mn15 O45 1.968870 1_555
Mn15 O52 1.994593 1_455
Mn15 O42 2.218396 1_555
Mn15 O49 2.281701 1_555
Mn16 O38 1.973437 1_555
Mn16 O44 1.993573 1_545
Mn16 O41 2.030821 1_555
Mn16 O43 2.148807 1_555
Mn16 O40 2.188928 1_555
Mn17 O20 1.942690 1_555
Mn17 O50 1.964719 1_555
Mn17 O46 2.000494 1_555
Mn17 O24 2.009636 1_555
Mn17 O26 2.233020 1_555
Mn17 O44 2.246152 1_555
Mn18 O53 1.946910 1_555
Mn18 O47 1.957560 1_555
Mn18 O51 1.990262 1_555
Mn18 O52 2.003456 1_555
Mn18 O1 2.202339 1_556
Mn18 O50 2.282283 1_555
Mn19 O31 1.944825 1_455
Mn19 O57 1.962288 1_555
Mn19 O36 1.999855 1_455
Mn19 O55 2.006431 1_555
Mn19 O53 2.251553 1_455
Mn19 O38 2.263164 1_555
