# generated using pymatgen
data_Ba2LiY2(Fe2O5)2
_symmetry_space_group_name_H-M   'P 1'
_cell_length_a   3.96802046
_cell_length_b   8.29500583
_cell_length_c   8.08091605
_cell_angle_alpha   85.39272778
_cell_angle_beta   89.43269458
_cell_angle_gamma   84.80979341
_symmetry_Int_Tables_number   1
_chemical_formula_structural   Ba2LiY2(Fe2O5)2
_chemical_formula_sum   'Ba2 Li1 Y2 Fe4 O10'
_cell_volume   264.03392396
_cell_formula_units_Z   1
loop_
 _symmetry_equiv_pos_site_id
 _symmetry_equiv_pos_as_xyz
  1  'x, y, z'
loop_
 _atom_site_type_symbol
 _atom_site_label
 _atom_site_symmetry_multiplicity
 _atom_site_fract_x
 _atom_site_fract_y
 _atom_site_fract_z
 _atom_site_occupancy
  Ba  Ba0  1  0.96440300  0.95795800  0.50203200  1
  Ba  Ba1  1  0.08101900  0.07291000  0.02563900  1
  Li  Li0  1  0.73443500  0.83545300  0.87680700  1
  Y  Y0  1  0.99116900  0.49887600  0.01165400  1
  Y  Y1  1  0.98269000  0.49164700  0.48023800  1
  Fe  Fe0  1  0.46139900  0.73271200  0.23020000  1
  Fe  Fe1  1  0.53160500  0.27271000  0.75187300  1
  Fe  Fe2  1  0.52031700  0.25980100  0.27380100  1
  Fe  Fe3  1  0.43740900  0.66394100  0.72959600  1
  O  O0  1  0.45384800  0.68596900  0.48877100  1
  O  O1  1  0.51377300  0.34005300  0.51041600  1
  O  O2  1  0.46186800  0.68156600  0.98213600  1
  O  O3  1  0.51483100  0.33002300  0.99438900  1
  O  O4  1  0.94223300  0.67384000  0.74094600  1
  O  O5  1  0.00739200  0.31539300  0.25615000  1
  O  O6  1  0.98489700  0.65831100  0.23484400  1
  O  O7  1  0.01962200  0.32945000  0.75574400  1
  O  O8  1  0.53933900  0.00116600  0.25747800  1
  O  O9  1  0.59107500  0.03988800  0.78061900  1
loop_
_geom_bond_atom_site_label_1
_geom_bond_atom_site_label_2
_geom_bond_distance
_geom_bond_site_symmetry_2
Ba0 O8 2.592601 1_565
Ba0 O9 2.778851 1_565
Ba0 O0 2.848774 1_655
Ba0 O4 2.931317 1_555
Ba0 O8 3.030407 1_665
Ba0 O0 3.174277 1_555
Ba1 O8 2.619922 1_555
Ba1 O9 2.828263 1_554
Ba1 O9 2.834543 1_454
Ba1 O5 2.843535 1_555
Ba1 O3 2.853880 1_554
Ba1 O8 2.908013 1_455
Ba1 O7 2.918152 1_554
Ba1 O3 2.952563 1_454
Li0 O9 1.850930 1_565
Li0 O2 1.892264 1_555
Li0 O4 1.923774 1_555
Fe0 O6 2.040416 1_455
Fe0 O2 2.082010 1_554
Fe0 O0 2.094735 1_555
Fe0 O6 2.112615 1_555
Fe0 O8 2.303867 1_565
Fe1 O9 1.919888 1_555
Fe1 O1 1.986124 1_555
Fe1 O7 2.034906 1_655
Fe1 O7 2.043977 1_555
Fe1 O3 2.052423 1_555
Fe2 O5 2.028210 1_655
Fe2 O5 2.049585 1_555
Fe2 O1 2.073689 1_555
Fe2 O8 2.154464 1_555
Fe2 O3 2.285890 1_554
Fe3 O0 1.940982 1_555
Fe3 O4 1.960692 1_455
Fe3 O4 2.015535 1_555
Fe3 O2 2.061527 1_555
O0 Y1 2.531701 1_555
O0 Y1 2.581451 1_455
O1 Y1 2.338350 1_555
O1 Y1 2.358622 1_455
O2 Y0 2.478013 1_556
O2 Y0 2.507397 1_456
O3 Y0 2.407907 1_456
O3 Y0 2.463613 1_556
O4 Y0 2.525251 1_556
O4 Y1 2.684980 1_555
O5 Y0 2.392886 1_455
O5 Y1 2.412911 1_455
O6 Y0 2.319248 1_555
O6 Y1 2.324881 1_555
O7 Y1 2.505557 1_455
O7 Y0 2.588052 1_456
