# generated using pymatgen
data_Li4Fe(BO3)2
_symmetry_space_group_name_H-M   'P 1'
_cell_length_a   3.32509820
_cell_length_b   12.30614728
_cell_length_c   12.28214446
_cell_angle_alpha   99.38642731
_cell_angle_beta   89.81414176
_cell_angle_gamma   91.00706744
_symmetry_Int_Tables_number   1
_chemical_formula_structural   Li4Fe(BO3)2
_chemical_formula_sum   'Li16 Fe4 B8 O24'
_cell_volume   495.76919904
_cell_formula_units_Z   4
loop_
 _symmetry_equiv_pos_site_id
 _symmetry_equiv_pos_as_xyz
  1  'x, y, z'
loop_
 _atom_site_type_symbol
 _atom_site_label
 _atom_site_symmetry_multiplicity
 _atom_site_fract_x
 _atom_site_fract_y
 _atom_site_fract_z
 _atom_site_occupancy
  Li  Li0  1  0.49529400  0.11350500  0.05530600  1
  Li  Li1  1  0.50544600  0.61363700  0.55631600  1
  Li  Li2  1  0.99009500  0.55535300  0.11374800  1
  Li  Li3  1  0.00836000  0.05572300  0.61316700  1
  Li  Li4  1  0.99177000  0.44421400  0.88679000  1
  Li  Li5  1  0.01000100  0.94451700  0.38621300  1
  Li  Li6  1  0.49471000  0.88634700  0.94359800  1
  Li  Li7  1  0.50426400  0.38659700  0.44475100  1
  Li  Li8  1  0.99276700  0.10343600  0.89803600  1
  Li  Li9  1  0.00437100  0.60306400  0.39910000  1
  Li  Li10  1  0.48199600  0.39850200  0.10340200  1
  Li  Li11  1  0.50361200  0.89888100  0.60256600  1
  Li  Li12  1  0.49668100  0.60111300  0.89743900  1
  Li  Li13  1  0.51784900  0.10130700  0.39667600  1
  Li  Li14  1  0.99568600  0.89700600  0.10078200  1
  Li  Li15  1  0.00687600  0.39656100  0.60201300  1
  Fe  Fe0  1  0.00038200  0.75013400  0.74993100  1
  Fe  Fe1  1  0.50030500  0.75012400  0.24997900  1
  Fe  Fe2  1  0.99964600  0.25001000  0.25026200  1
  Fe  Fe3  1  0.50021500  0.24990200  0.74999200  1
  B  B0  1  0.48645100  0.48137500  0.28277400  1
  B  B1  1  0.48843000  0.98138000  0.78196300  1
  B  B2  1  0.98371500  0.28251000  0.98151300  1
  B  B3  1  0.01341500  0.78226200  0.48137100  1
  B  B4  1  0.98688000  0.71777700  0.01863200  1
  B  B5  1  0.01607300  0.21745300  0.51845800  1
  B  B6  1  0.51152000  0.51866100  0.71803100  1
  B  B7  1  0.51342100  0.01859300  0.21725300  1
  O  O0  1  0.47468700  0.36442300  0.25272400  1
  O  O1  1  0.47748700  0.86453400  0.75167300  1
  O  O2  1  0.97032100  0.25258000  0.86432300  1
  O  O3  1  0.02564400  0.75178500  0.36429600  1
  O  O4  1  0.97481000  0.74833500  0.13570300  1
  O  O5  1  0.02961500  0.24740100  0.63561300  1
  O  O6  1  0.52279800  0.63551700  0.74830100  1
  O  O7  1  0.52468300  0.13551100  0.24743900  1
  O  O8  1  0.00400100  0.20035600  0.04625300  1
  O  O9  1  0.01278400  0.70053900  0.54698500  1
  O  O10  1  0.48558600  0.54629200  0.20040600  1
  O  O11  1  0.50542300  0.04648800  0.69966200  1
  O  O12  1  0.49468900  0.45355500  0.80031700  1
  O  O13  1  0.51455300  0.95357900  0.29957700  1
  O  O14  1  0.98737400  0.79949400  0.95298000  1
  O  O15  1  0.99550100  0.29960400  0.45367900  1
  O  O16  1  0.50028900  0.52639600  0.39210300  1
  O  O17  1  0.48672800  0.02642600  0.89126900  1
  O  O18  1  0.98111100  0.39153700  0.02678600  1
  O  O19  1  0.00187600  0.89148300  0.52595900  1
  O  O20  1  0.99839800  0.60855600  0.97408400  1
  O  O21  1  0.01876700  0.10842300  0.47318800  1
  O  O22  1  0.51287500  0.47358500  0.60870300  1
  O  O23  1  0.49977100  0.97365800  0.10791400  1
loop_
_geom_bond_atom_site_label_1
_geom_bond_atom_site_label_2
_geom_bond_distance
_geom_bond_site_symmetry_2
Li0 O23 1.934725 1_545
Li0 O8 1.981075 1_555
Li0 O8 1.997465 1_655
Li0 O17 2.122108 1_554
Li0 O7 2.333170 1_555
Li1 O22 1.936073 1_555
Li1 O9 1.985730 1_555
Li1 O9 1.994471 1_655
Li1 O16 2.124624 1_555
Li1 O6 2.330059 1_555
Li2 O20 1.933216 1_554
Li2 O10 1.978953 1_655
Li2 O10 1.994985 1_555
Li2 O18 2.121667 1_555
Li2 O4 2.347456 1_555
Li3 O21 1.933935 1_555
Li3 O11 1.982564 1_555
Li3 O11 1.989800 1_455
Li3 O19 2.127273 1_545
Li3 O5 2.329629 1_555
Li4 O18 1.934004 1_556
Li4 O12 1.982674 1_555
Li4 O12 1.989773 1_655
Li4 O20 2.128728 1_555
Li4 O2 2.329088 1_555
Li5 O19 1.933159 1_555
Li5 O13 1.978687 1_455
Li5 O13 1.994961 1_555
Li5 O21 2.122684 1_565
Li5 O3 2.344470 1_555
Li6 O17 1.936102 1_565
Li6 O14 1.985489 1_555
Li6 O14 1.994235 1_455
Li6 O23 2.126022 1_556
Li6 O1 2.329357 1_555
Li7 O16 1.934362 1_555
Li7 O15 1.981679 1_555
Li7 O15 1.998332 1_455
Li7 O22 2.120812 1_555
Li7 O0 2.331803 1_555
Li8 O17 1.905486 1_655
Li8 O17 1.911920 1_555
Li8 O2 1.948995 1_555
Li8 O8 2.007124 1_656
Li9 O16 1.904163 1_455
Li9 O16 1.908926 1_555
Li9 O3 1.946212 1_555
Li9 O9 2.006803 1_555
Li10 O18 1.901499 1_555
Li10 O18 1.909332 1_455
Li10 O0 1.946854 1_555
Li10 O10 2.004972 1_555
Li11 O19 1.898877 1_655
Li11 O19 1.911486 1_555
Li11 O1 1.946851 1_555
Li11 O11 2.003710 1_565
Li12 O20 1.899149 1_455
Li12 O20 1.911632 1_555
Li12 O6 1.947481 1_555
Li12 O12 2.003358 1_555
Li13 O21 1.900748 1_555
Li13 O21 1.908711 1_655
Li13 O7 1.946394 1_555
Li13 O13 2.004883 1_545
Li14 O23 1.904025 1_655
Li14 O23 1.908755 1_555
Li14 O4 1.946124 1_555
Li14 O14 2.006182 1_554
Li15 O22 1.905727 1_455
Li15 O22 1.911919 1_555
Li15 O5 1.948734 1_555
Li15 O15 2.008496 1_455
Fe0 O1 2.100248 1_555
Fe0 O6 2.103317 1_455
Fe0 O1 2.254196 1_455
Fe0 O6 2.254783 1_555
Fe0 O9 2.468057 1_555
Fe0 O14 2.469082 1_455
Fe1 O4 2.106324 1_555
Fe1 O3 2.107180 1_555
Fe1 O4 2.242335 1_455
Fe1 O3 2.242413 1_655
Fe1 O13 2.478024 1_555
Fe1 O10 2.482503 1_555
Fe2 O0 2.094416 1_655
Fe2 O7 2.094512 1_555
Fe2 O0 2.258850 1_555
Fe2 O7 2.259327 1_655
Fe2 O15 2.473330 1_555
Fe2 O8 2.480448 1_655
Fe3 O2 2.100885 1_555
Fe3 O5 2.102737 1_555
Fe3 O5 2.246086 1_655
Fe3 O2 2.246844 1_455
Fe3 O11 2.478984 1_555
Fe3 O12 2.481855 1_555
B0 O16 1.367116 1_555
B0 O10 1.387581 1_555
B0 O0 1.426176 1_555
B1 O17 1.366374 1_565
B1 O11 1.388942 1_565
B1 O1 1.425170 1_555
B2 O18 1.366184 1_556
B2 O8 1.387043 1_656
B2 O2 1.426980 1_555
B3 O19 1.367310 1_555
B3 O9 1.387497 1_555
B3 O3 1.426258 1_555
B4 O20 1.367189 1_554
B4 O14 1.387769 1_554
B4 O4 1.426294 1_555
B5 O21 1.366215 1_555
B5 O15 1.387405 1_455
B5 O5 1.426600 1_555
B6 O22 1.366703 1_555
B6 O12 1.388759 1_555
B6 O6 1.425276 1_555
B7 O23 1.366952 1_545
B7 O13 1.387979 1_545
B7 O7 1.425913 1_555
