# generated using pymatgen
data_Lu(TiGa2)2
_symmetry_space_group_name_H-M   'P 1'
_cell_length_a   5.42855817
_cell_length_b   5.42855817
_cell_length_c   5.42855817
_cell_angle_alpha   104.46975096
_cell_angle_beta   104.46975096
_cell_angle_gamma   120.01735646
_symmetry_Int_Tables_number   1
_chemical_formula_structural   Lu(TiGa2)2
_chemical_formula_sum   'Lu1 Ti2 Ga4'
_cell_volume   119.97112704
_cell_formula_units_Z   1
loop_
 _symmetry_equiv_pos_site_id
 _symmetry_equiv_pos_as_xyz
  1  'x, y, z'
loop_
 _atom_site_type_symbol
 _atom_site_label
 _atom_site_symmetry_multiplicity
 _atom_site_fract_x
 _atom_site_fract_y
 _atom_site_fract_z
 _atom_site_occupancy
  Lu  Lu0  1  -0.00000000  -0.00000000  -0.00000000  1
  Ti  Ti0  1  0.75000000  0.25000000  0.50000000  1
  Ti  Ti1  1  0.25000000  0.75000000  0.50000000  1
  Ga  Ga0  1  0.69722291  0.69722291  0.39444582  1
  Ga  Ga1  1  0.30277709  0.30277709  0.60555418  1
  Ga  Ga2  1  0.30277709  0.69722291  0.00000000  1
  Ga  Ga3  1  0.69722291  0.30277709  -0.00000000  1
loop_
_geom_bond_atom_site_label_1
_geom_bond_atom_site_label_2
_geom_bond_distance
_geom_bond_site_symmetry_2
Ti0 Ti1 2.713567 1_545
Ti0 Ti1 2.713567 1_655
Ga0 Ga2 2.622741 1_555
Ga0 Ga3 2.622741 1_555
Ga0 Ti1 2.759276 1_555
Ga0 Ti0 2.759276 1_555
Ga0 Ti0 2.759276 1_565
Ga0 Ti1 2.759276 1_655
Ga0 Lu0 2.847122 1_666
Ga0 Ga1 2.889399 1_665
Ga0 Ga1 2.889399 1_555
Ga0 Lu0 3.286766 1_555
Ga0 Lu0 3.286766 1_665
Ga1 Ga2 2.622741 1_556
Ga1 Ga3 2.622741 1_556
Ga1 Ti1 2.759276 1_545
Ga1 Ti1 2.759276 1_555
Ga1 Ti0 2.759276 1_455
Ga1 Ti0 2.759276 1_555
Ga1 Lu0 2.847122 1_555
Ga1 Lu0 3.286766 1_556
Ga1 Lu0 3.286766 1_666
Ga2 Ti0 2.759276 1_565
Ga2 Ti0 2.759276 1_454
Ga2 Ti1 2.759276 1_554
Ga2 Ti1 2.759276 1_555
Ga2 Lu0 2.847122 1_565
Ga2 Ga3 2.889399 1_455
Ga2 Ga3 2.889399 1_565
Ga2 Lu0 3.286766 1_555
Ga2 Lu0 3.286766 1_665
Ga3 Ti0 2.759276 1_554
Ga3 Ti1 2.759276 1_655
Ga3 Ti0 2.759276 1_555
Ga3 Ti1 2.759276 1_544
Ga3 Lu0 2.847122 1_655
Ga3 Lu0 3.286766 1_555
Ga3 Lu0 3.286766 1_665
