# generated using pymatgen
data_Mg2Ga
_symmetry_space_group_name_H-M   'P 1'
_cell_length_a   5.17369419
_cell_length_b   5.17369419
_cell_length_c   6.14558816
_cell_angle_alpha   60.88972008
_cell_angle_beta   60.88972008
_cell_angle_gamma   60.78778017
_symmetry_Int_Tables_number   1
_chemical_formula_structural   Mg2Ga
_chemical_formula_sum   'Mg4 Ga2'
_cell_volume   118.56284530
_cell_formula_units_Z   2
loop_
 _symmetry_equiv_pos_site_id
 _symmetry_equiv_pos_as_xyz
  1  'x, y, z'
loop_
 _atom_site_type_symbol
 _atom_site_label
 _atom_site_symmetry_multiplicity
 _atom_site_fract_x
 _atom_site_fract_y
 _atom_site_fract_z
 _atom_site_occupancy
  Mg  Mg0  1  0.23748751  0.41908993  0.25114858  1
  Mg  Mg1  1  0.58091007  0.76251249  0.24885142  1
  Mg  Mg2  1  0.41908993  0.23748751  0.75114858  1
  Mg  Mg3  1  0.76251249  0.58091007  0.74885142  1
  Ga  Ga0  1  0.08802918  0.91197082  0.75000000  1
  Ga  Ga1  1  0.91197082  0.08802918  0.25000000  1
loop_
_geom_bond_atom_site_label_1
_geom_bond_atom_site_label_2
_geom_bond_distance
_geom_bond_site_symmetry_2
Mg0 Mg1 2.971067 1_455
Mg0 Mg1 2.971067 1_545
Mg0 Mg3 3.025724 1_554
Mg0 Mg3 3.043892 1_455
Mg0 Mg1 3.057217 1_555
Mg0 Mg2 3.216509 1_554
Mg0 Mg2 3.216509 1_555
Mg1 Mg2 3.025724 1_555
Mg1 Mg2 3.043892 1_564
Mg1 Mg3 3.216509 1_554
Mg1 Mg3 3.216509 1_555
Mg2 Mg3 2.971067 1_455
Mg2 Mg3 2.971067 1_545
Mg2 Mg3 3.057217 1_555
Ga0 Mg2 2.934105 1_565
Ga0 Mg3 2.934105 1_455
Ga0 Mg0 2.954295 1_565
Ga0 Mg1 2.954295 1_456
Ga0 Mg2 3.018716 1_465
Ga0 Mg3 3.018716 1_465
Ga0 Mg3 3.043780 1_555
Ga0 Mg2 3.043780 1_555
Ga0 Mg1 3.055649 1_555
Ga0 Mg0 3.055649 1_556
Ga1 Mg0 2.934105 1_655
Ga1 Mg1 2.934105 1_545
Ga1 Mg2 2.954295 1_654
Ga1 Mg3 2.954295 1_545
Ga1 Mg1 3.018716 1_645
Ga1 Mg0 3.018716 1_645
Ga1 Mg1 3.043780 1_555
Ga1 Mg0 3.043780 1_555
Ga1 Mg3 3.055649 1_554
Ga1 Mg2 3.055649 1_555
