# generated using pymatgen
data_LaCrGe3
_symmetry_space_group_name_H-M   'P 1'
_cell_length_a   6.17481849
_cell_length_b   6.17481974
_cell_length_c   5.96819897
_cell_angle_alpha   90.00001943
_cell_angle_beta   89.99998517
_cell_angle_gamma   119.99952582
_symmetry_Int_Tables_number   1
_chemical_formula_structural   LaCrGe3
_chemical_formula_sum   'La2 Cr2 Ge6'
_cell_volume   197.07179838
_cell_formula_units_Z   2
loop_
 _symmetry_equiv_pos_site_id
 _symmetry_equiv_pos_as_xyz
  1  'x, y, z'
loop_
 _atom_site_type_symbol
 _atom_site_label
 _atom_site_symmetry_multiplicity
 _atom_site_fract_x
 _atom_site_fract_y
 _atom_site_fract_z
 _atom_site_occupancy
  La  La0  1  0.33333304  0.66666673  0.74999965  1
  La  La1  1  0.66666644  0.33333308  0.25000060  1
  Cr  Cr0  1  0.00000113  0.00000120  0.49999966  1
  Cr  Cr1  1  -0.00000049  -0.00000086  0.00000036  1
  Ge  Ge0  1  0.19474059  0.80525937  0.25000167  1
  Ge  Ge1  1  0.19473789  0.38947873  0.25000201  1
  Ge  Ge2  1  0.61052128  0.80526203  0.25000272  1
  Ge  Ge3  1  0.80525948  0.19474056  0.74999830  1
  Ge  Ge4  1  0.80526190  0.61052121  0.74999758  1
  Ge  Ge5  1  0.38947873  0.19473796  0.74999745  1
loop_
_geom_bond_atom_site_label_1
_geom_bond_atom_site_label_2
_geom_bond_distance
_geom_bond_site_symmetry_2
Cr0 Ge1 2.562043 1_555
Cr0 Ge5 2.562043 1_555
Cr0 Ge0 2.562048 1_545
Cr0 Ge3 2.562049 1_455
Cr0 Ge2 2.562050 1_445
Cr0 Ge4 2.562055 1_445
Cr1 Ge0 2.562058 1_545
Cr1 Ge2 2.562062 1_445
Cr1 Ge4 2.562062 1_444
Cr1 Ge3 2.562063 1_454
Cr1 Ge1 2.562065 1_555
Cr1 Ge5 2.562068 1_554
Ge0 Ge2 2.567362 1_555
Ge0 Ge1 2.567362 1_555
Ge0 La1 3.101996 1_565
Ge0 La1 3.101998 1_455
Ge0 La0 3.331947 1_555
Ge0 La0 3.331967 1_554
Ge1 Ge2 2.567405 1_555
Ge1 La1 3.101968 1_455
Ge1 La1 3.101980 1_555
Ge1 La0 3.331956 1_555
Ge1 La0 3.331982 1_554
Ge2 La1 3.101967 1_565
Ge2 La1 3.101981 1_555
Ge2 La0 3.331953 1_555
Ge2 La0 3.331986 1_554
Ge3 Ge5 2.567363 1_555
Ge3 Ge4 2.567363 1_555
Ge3 La0 3.101996 1_655
Ge3 La0 3.101998 1_545
Ge3 La1 3.331946 1_555
Ge3 La1 3.331970 1_556
Ge4 Ge5 2.567405 1_555
Ge4 La0 3.101966 1_655
Ge4 La0 3.101981 1_555
Ge4 La1 3.331953 1_555
Ge4 La1 3.331985 1_556
Ge5 La0 3.101967 1_545
Ge5 La0 3.101982 1_555
Ge5 La1 3.331951 1_555
Ge5 La1 3.331985 1_556
