# generated using pymatgen
data_Ho3Co4Ge13
_symmetry_space_group_name_H-M   'P 1'
_cell_length_a   8.81030300
_cell_length_b   8.81030300
_cell_length_c   8.81030300
_cell_angle_alpha   90.00000000
_cell_angle_beta   90.00000000
_cell_angle_gamma   90.00000000
_symmetry_Int_Tables_number   1
_chemical_formula_structural   Ho3Co4Ge13
_chemical_formula_sum   'Ho6 Co8 Ge26'
_cell_volume   683.86839646
_cell_formula_units_Z   2
loop_
 _symmetry_equiv_pos_site_id
 _symmetry_equiv_pos_as_xyz
  1  'x, y, z'
loop_
 _atom_site_type_symbol
 _atom_site_label
 _atom_site_symmetry_multiplicity
 _atom_site_fract_x
 _atom_site_fract_y
 _atom_site_fract_z
 _atom_site_occupancy
  Ho  Ho0  1  0.00000000  0.50000000  0.75000000  1
  Ho  Ho1  1  0.50000000  0.25000000  0.00000000  1
  Ho  Ho2  1  0.75000000  0.00000000  0.50000000  1
  Ho  Ho3  1  0.00000000  0.50000000  0.25000000  1
  Ho  Ho4  1  0.50000000  0.75000000  0.00000000  1
  Ho  Ho5  1  0.25000000  0.00000000  0.50000000  1
  Co  Co0  1  0.75000000  0.25000000  0.75000000  1
  Co  Co1  1  0.25000000  0.75000000  0.25000000  1
  Co  Co2  1  0.75000000  0.75000000  0.25000000  1
  Co  Co3  1  0.25000000  0.25000000  0.75000000  1
  Co  Co4  1  0.25000000  0.75000000  0.75000000  1
  Co  Co5  1  0.75000000  0.25000000  0.25000000  1
  Co  Co6  1  0.25000000  0.25000000  0.25000000  1
  Co  Co7  1  0.75000000  0.75000000  0.75000000  1
  Ge  Ge0  1  0.50000000  0.50000000  0.50000000  1
  Ge  Ge1  1  0.00000000  0.00000000  0.00000000  1
  Ge  Ge2  1  0.80536200  0.34634800  0.50000000  1
  Ge  Ge3  1  0.65365200  0.50000000  0.80536200  1
  Ge  Ge4  1  0.50000000  0.19463800  0.65365200  1
  Ge  Ge5  1  0.19463800  0.65365200  0.50000000  1
  Ge  Ge6  1  0.34634800  0.50000000  0.19463800  1
  Ge  Ge7  1  0.50000000  0.80536200  0.34634800  1
  Ge  Ge8  1  0.80536200  0.65365200  0.50000000  1
  Ge  Ge9  1  0.65365200  0.50000000  0.19463800  1
  Ge  Ge10  1  0.19463800  0.34634800  0.50000000  1
  Ge  Ge11  1  0.34634800  0.50000000  0.80536200  1
  Ge  Ge12  1  0.50000000  0.80536200  0.65365200  1
  Ge  Ge13  1  0.50000000  0.19463800  0.34634800  1
  Ge  Ge14  1  0.30536200  0.00000000  0.84634800  1
  Ge  Ge15  1  0.15365200  0.30536200  0.00000000  1
  Ge  Ge16  1  0.00000000  0.15365200  0.69463800  1
  Ge  Ge17  1  0.69463800  0.00000000  0.15365200  1
  Ge  Ge18  1  0.84634800  0.69463800  0.00000000  1
  Ge  Ge19  1  0.00000000  0.84634800  0.30536200  1
  Ge  Ge20  1  0.30536200  0.00000000  0.15365200  1
  Ge  Ge21  1  0.15365200  0.69463800  0.00000000  1
  Ge  Ge22  1  0.69463800  0.00000000  0.84634800  1
  Ge  Ge23  1  0.84634800  0.30536200  0.00000000  1
  Ge  Ge24  1  0.00000000  0.15365200  0.30536200  1
  Ge  Ge25  1  0.00000000  0.84634800  0.69463800  1
loop_
_geom_bond_atom_site_label_1
_geom_bond_atom_site_label_2
_geom_bond_distance
_geom_bond_site_symmetry_2
Co0 Ge3 2.410353 1_555
Co0 Ge2 2.410353 1_555
Co0 Ge23 2.410353 1_556
Co0 Ge22 2.410353 1_555
Co0 Ge4 2.410353 1_555
Co0 Ge16 2.410353 1_655
Co0 Ho2 3.114912 1_555
Co0 Ho1 3.114912 1_556
Co0 Ho0 3.114912 1_655
Co1 Ge7 2.410353 1_555
Co1 Ge19 2.410353 1_555
Co1 Ge20 2.410353 1_565
Co1 Ge6 2.410353 1_555
Co1 Ge5 2.410353 1_555
Co1 Ge21 2.410353 1_555
Co1 Ho4 3.114912 1_555
Co1 Ho5 3.114912 1_565
Co1 Ho3 3.114912 1_555
Co2 Ge19 2.410353 1_655
Co2 Ge8 2.410353 1_555
Co2 Ge7 2.410353 1_555
Co2 Ge18 2.410353 1_555
Co2 Ge9 2.410353 1_555
Co2 Ge17 2.410353 1_565
Co2 Ho4 3.114912 1_555
Co2 Ho2 3.114912 1_565
Co2 Ho3 3.114912 1_655
Co3 Ge14 2.410353 1_555
Co3 Ge11 2.410353 1_555
Co3 Ge15 2.410353 1_556
Co3 Ge10 2.410353 1_555
Co3 Ge4 2.410353 1_555
Co3 Ge16 2.410353 1_555
Co3 Ho0 3.114912 1_555
Co3 Ho5 3.114912 1_555
Co3 Ho1 3.114912 1_556
Co4 Ge12 2.410353 1_555
Co4 Ge14 2.410353 1_565
Co4 Ge11 2.410353 1_555
Co4 Ge25 2.410353 1_555
Co4 Ge5 2.410353 1_555
Co4 Ge21 2.410353 1_556
Co4 Ho4 3.114912 1_556
Co4 Ho0 3.114912 1_555
Co4 Ho5 3.114912 1_565
Co5 Ge2 2.410353 1_555
Co5 Ge23 2.410353 1_555
Co5 Ge24 2.410353 1_655
Co5 Ge9 2.410353 1_555
Co5 Ge13 2.410353 1_555
Co5 Ge17 2.410353 1_555
Co5 Ho2 3.114912 1_555
Co5 Ho1 3.114912 1_555
Co5 Ho3 3.114912 1_655
Co6 Ge24 2.410353 1_555
Co6 Ge15 2.410353 1_555
Co6 Ge20 2.410353 1_555
Co6 Ge10 2.410353 1_555
Co6 Ge13 2.410353 1_555
Co6 Ge6 2.410353 1_555
Co6 Ho1 3.114912 1_555
Co6 Ho3 3.114912 1_555
Co6 Ho5 3.114912 1_555
Co7 Ge8 2.410353 1_555
Co7 Ge12 2.410353 1_555
Co7 Ge3 2.410353 1_555
Co7 Ge18 2.410353 1_556
Co7 Ge22 2.410353 1_565
Co7 Ge25 2.410353 1_655
Co7 Ho4 3.114912 1_556
Co7 Ho2 3.114912 1_565
Co7 Ho0 3.114912 1_655
Ge0 Ge2 3.011718 1_555
Ge0 Ge12 3.011718 1_555
Ge0 Ge8 3.011718 1_555
Ge0 Ge3 3.011718 1_555
Ge0 Ge7 3.011718 1_555
Ge0 Ge11 3.011718 1_555
Ge0 Ge13 3.011718 1_555
Ge0 Ge4 3.011718 1_555
Ge0 Ge6 3.011718 1_555
Ge0 Ge5 3.011718 1_555
Ge0 Ge9 3.011718 1_555
Ge0 Ge10 3.011718 1_555
Ge1 Ge15 3.011718 1_555
Ge1 Ge20 3.011718 1_555
Ge1 Ge24 3.011718 1_555
Ge1 Ge23 3.011718 1_455
Ge1 Ge14 3.011718 1_554
Ge1 Ge19 3.011718 1_545
Ge1 Ge21 3.011718 1_545
Ge1 Ge16 3.011718 1_554
Ge1 Ge17 3.011718 1_455
Ge1 Ge25 3.011718 1_544
Ge1 Ge22 3.011718 1_454
Ge1 Ge18 3.011718 1_445
Ge2 Ge8 2.707441 1_555
Ge2 Ge24 2.960310 1_655
Ge2 Ho2 3.090168 1_555
Ge2 Ho3 3.102339 1_655
Ge2 Ho0 3.102339 1_655
Ge3 Ho0 3.090168 1_655
Ge3 Ho4 3.102339 1_556
Ge3 Ho1 3.102339 1_556
Ge4 Ho1 3.090168 1_556
Ge4 Ho2 3.102339 1_555
Ge4 Ho5 3.102339 1_555
Ge5 Ho5 3.090168 1_565
Ge5 Ho0 3.102339 1_555
Ge5 Ho3 3.102339 1_555
Ge6 Ge9 2.707441 1_555
Ge6 Ho3 3.090168 1_555
Ge6 Ho4 3.102339 1_555
Ge6 Ho1 3.102339 1_555
Ge7 Ho4 3.090168 1_555
Ge7 Ho5 3.102339 1_565
Ge7 Ho2 3.102339 1_565
Ge8 Ho2 3.090168 1_565
Ge8 Ho3 3.102339 1_655
Ge8 Ho0 3.102339 1_655
Ge9 Ho3 3.090168 1_655
Ge9 Ho4 3.102339 1_555
Ge9 Ho1 3.102339 1_555
Ge10 Ge5 2.707441 1_555
Ge10 Ge16 2.960310 1_555
Ge10 Ge24 2.960310 1_555
Ge10 Ho5 3.090168 1_555
Ge10 Ho3 3.102339 1_555
Ge10 Ho0 3.102339 1_555
Ge11 Ge3 2.707441 1_555
Ge11 Ge21 2.960310 1_556
Ge11 Ge15 2.960310 1_556
Ge11 Ho0 3.090168 1_555
Ge11 Ho4 3.102339 1_556
Ge11 Ho1 3.102339 1_556
Ge12 Ge7 2.707441 1_555
Ge12 Ge22 2.960310 1_565
Ge12 Ge14 2.960310 1_565
Ge12 Ho4 3.090168 1_556
Ge12 Ho5 3.102339 1_565
Ge12 Ho2 3.102339 1_565
Ge13 Ge4 2.707441 1_555
Ge13 Ge17 2.960310 1_555
Ge13 Ge20 2.960310 1_555
Ge13 Ho1 3.090168 1_555
Ge13 Ho2 3.102339 1_555
Ge13 Ho5 3.102339 1_555
Ge14 Ge20 2.707441 1_556
Ge14 Ge4 2.960310 1_555
Ge14 Ho5 3.090168 1_555
Ge14 Ho4 3.102339 1_546
Ge14 Ho1 3.102339 1_556
Ge15 Ge23 2.707441 1_455
Ge15 Ge6 2.960310 1_555
Ge15 Ho1 3.090168 1_555
Ge15 Ho3 3.102339 1_555
Ge15 Ho0 3.102339 1_554
Ge16 Ge25 2.707441 1_545
Ge16 Ge2 2.960310 1_455
Ge16 Ho0 3.090168 1_555
Ge16 Ho5 3.102339 1_555
Ge16 Ho2 3.102339 1_455
Ge17 Ge22 2.707441 1_554
Ge17 Ge7 2.960310 1_545
Ge17 Ho2 3.090168 1_555
Ge17 Ho4 3.102339 1_545
Ge17 Ho1 3.102339 1_555
Ge18 Ge21 2.707441 1_655
Ge18 Ge9 2.960310 1_555
Ge18 Ge3 2.960310 1_554
Ge18 Ho4 3.090168 1_555
Ge18 Ho3 3.102339 1_655
Ge18 Ho0 3.102339 1_654
Ge19 Ge24 2.707441 1_565
Ge19 Ge5 2.960310 1_555
Ge19 Ge8 2.960310 1_455
Ge19 Ho3 3.090168 1_555
Ge19 Ho2 3.102339 1_465
Ge19 Ho5 3.102339 1_565
Ge20 Ge7 2.960310 1_545
Ge20 Ho5 3.090168 1_555
Ge20 Ho1 3.102339 1_555
Ge20 Ho4 3.102339 1_545
Ge21 Ge6 2.960310 1_555
Ge21 Ho4 3.090168 1_555
Ge21 Ho0 3.102339 1_554
Ge21 Ho3 3.102339 1_555
Ge22 Ge4 2.960310 1_555
Ge22 Ho2 3.090168 1_555
Ge22 Ho1 3.102339 1_556
Ge22 Ho4 3.102339 1_546
Ge23 Ge9 2.960310 1_555
Ge23 Ge3 2.960310 1_554
Ge23 Ho1 3.090168 1_555
Ge23 Ho3 3.102339 1_655
Ge23 Ho0 3.102339 1_654
Ge24 Ho3 3.090168 1_555
Ge24 Ho5 3.102339 1_555
Ge24 Ho2 3.102339 1_455
Ge25 Ge5 2.960310 1_555
Ge25 Ge8 2.960310 1_455
Ge25 Ho0 3.090168 1_555
Ge25 Ho2 3.102339 1_465
Ge25 Ho5 3.102339 1_565
