# generated using pymatgen
data_Sc2CrReO6
_symmetry_space_group_name_H-M   'P 1'
_cell_length_a   5.47141408
_cell_length_b   5.47141408
_cell_length_c   5.47141408
_cell_angle_alpha   60.00000000
_cell_angle_beta   60.00000000
_cell_angle_gamma   60.00000000
_symmetry_Int_Tables_number   1
_chemical_formula_structural   Sc2CrReO6
_chemical_formula_sum   'Sc2 Cr1 Re1 O6'
_cell_volume   115.82005150
_cell_formula_units_Z   1
loop_
 _symmetry_equiv_pos_site_id
 _symmetry_equiv_pos_as_xyz
  1  'x, y, z'
loop_
 _atom_site_type_symbol
 _atom_site_label
 _atom_site_symmetry_multiplicity
 _atom_site_fract_x
 _atom_site_fract_y
 _atom_site_fract_z
 _atom_site_occupancy
  Sc  Sc0  1  0.75000000  0.75000000  0.75000000  1
  Sc  Sc1  1  0.25000000  0.25000000  0.25000000  1
  Cr  Cr0  1  0.50000000  0.50000000  0.50000000  1
  Re  Re0  1  0.00000000  0.00000000  0.00000000  1
  O  O0  1  0.74817600  0.74817600  0.25182400  1
  O  O1  1  0.25182400  0.25182400  0.74817600  1
  O  O2  1  0.74817600  0.25182400  0.74817600  1
  O  O3  1  0.25182400  0.74817600  0.25182400  1
  O  O4  1  0.25182400  0.74817600  0.74817600  1
  O  O5  1  0.74817600  0.25182400  0.25182400  1
loop_
_geom_bond_atom_site_label_1
_geom_bond_atom_site_label_2
_geom_bond_distance
_geom_bond_site_symmetry_2
Cr0 O0 1.920323 1_555
Cr0 O2 1.920323 1_555
Cr0 O4 1.920323 1_555
Cr0 O1 1.920323 1_555
Cr0 O5 1.920323 1_555
Cr0 O3 1.920323 1_555
O0 Re0 1.948551 1_665
O0 Sc1 2.735743 1_565
O0 Sc0 2.735743 1_554
O0 Sc1 2.735743 1_655
O0 Sc0 2.735743 1_555
O1 Re0 1.948551 1_556
O1 Sc1 2.735743 1_555
O1 Sc0 2.735743 1_545
O1 Sc1 2.735743 1_556
O1 Sc0 2.735743 1_455
O2 Re0 1.948551 1_656
O2 Sc0 2.735743 1_545
O2 Sc1 2.735743 1_556
O2 Sc1 2.735743 1_655
O2 Sc0 2.735743 1_555
O3 Re0 1.948551 1_565
O3 Sc1 2.735743 1_555
O3 Sc0 2.735743 1_455
O3 Sc0 2.735743 1_554
O3 Sc1 2.735743 1_565
O4 Re0 1.948551 1_566
O4 Sc1 2.735743 1_556
O4 Sc0 2.735743 1_455
O4 Sc1 2.735743 1_565
O4 Sc0 2.735743 1_555
O5 Re0 1.948551 1_655
O5 Sc1 2.735743 1_555
O5 Sc1 2.735743 1_655
O5 Sc0 2.735743 1_545
O5 Sc0 2.735743 1_554
