# generated using pymatgen
data_ZnAg2GeS4
_symmetry_space_group_name_H-M   'P 1'
_cell_length_a   6.67128811
_cell_length_b   6.67128811
_cell_length_c   6.67128811
_cell_angle_alpha   128.48011773
_cell_angle_beta   128.48011773
_cell_angle_gamma   75.84853701
_symmetry_Int_Tables_number   1
_chemical_formula_structural   ZnAg2GeS4
_chemical_formula_sum   'Zn1 Ag2 Ge1 S4'
_cell_volume   176.95041939
_cell_formula_units_Z   1
loop_
 _symmetry_equiv_pos_site_id
 _symmetry_equiv_pos_as_xyz
  1  'x, y, z'
loop_
 _atom_site_type_symbol
 _atom_site_label
 _atom_site_symmetry_multiplicity
 _atom_site_fract_x
 _atom_site_fract_y
 _atom_site_fract_z
 _atom_site_occupancy
  Zn  Zn0  1  0.75000000  0.25000000  0.50000000  1
  Ag  Ag0  1  0.50000000  0.50000000  0.00000000  1
  Ag  Ag1  1  0.25000000  0.75000000  0.50000000  1
  Ge  Ge0  1  0.00000000  0.00000000  0.00000000  1
  S  S0  1  0.08847800  0.11631800  0.45001700  1
  S  S1  1  0.66630100  0.63846100  0.54998300  1
  S  S2  1  0.88368200  0.33369900  0.97216000  1
  S  S3  1  0.36153900  0.91152200  0.02784000  1
loop_
_geom_bond_atom_site_label_1
_geom_bond_atom_site_label_2
_geom_bond_distance
_geom_bond_site_symmetry_2
Ag0 S3 2.600731 1_555
Ag0 S2 2.600731 1_554
Ag0 S1 2.600731 1_555
Ag0 S0 2.600731 1_554
Ag1 S0 2.554187 1_565
Ag1 S1 2.554187 1_555
Ag1 S3 2.554187 1_556
Ag1 S2 2.554187 1_454
Ge0 S2 2.254579 1_454
Ge0 S3 2.254579 1_545
Ge0 S0 2.254579 1_555
Ge0 S1 2.254579 1_444
S0 Zn0 2.363842 1_455
S1 Zn0 2.363842 1_555
S2 Zn0 2.363842 1_555
S3 Zn0 2.363842 1_565
