# generated using pymatgen
data_KSrPrBiO6
_symmetry_space_group_name_H-M   'P 1'
_cell_length_a   8.79746829
_cell_length_b   8.76655586
_cell_length_c   8.85890714
_cell_angle_alpha   90.00000000
_cell_angle_beta   90.00000000
_cell_angle_gamma   90.00000000
_symmetry_Int_Tables_number   1
_chemical_formula_structural   KSrPrBiO6
_chemical_formula_sum   'K4 Sr4 Pr4 Bi4 O24'
_cell_volume   683.22989993
_cell_formula_units_Z   4
loop_
 _symmetry_equiv_pos_site_id
 _symmetry_equiv_pos_as_xyz
  1  'x, y, z'
loop_
 _atom_site_type_symbol
 _atom_site_label
 _atom_site_symmetry_multiplicity
 _atom_site_fract_x
 _atom_site_fract_y
 _atom_site_fract_z
 _atom_site_occupancy
  K  K0  1  0.50000000  -0.00000000  0.50000000  1
  K  K1  1  0.50000000  0.50000000  -0.00000000  1
  K  K2  1  -0.00000000  0.50000000  0.00000000  1
  K  K3  1  -0.00000000  -0.00000000  0.50000000  1
  Sr  Sr0  1  -0.00000000  0.50000000  0.50000000  1
  Sr  Sr1  1  0.50000000  -0.00000000  0.00000000  1
  Sr  Sr2  1  -0.00000000  -0.00000000  -0.00000000  1
  Sr  Sr3  1  0.50000000  0.50000000  0.50000000  1
  Pr  Pr0  1  0.25000000  0.25000000  0.25000000  1
  Pr  Pr1  1  0.75000000  0.75000000  0.25000000  1
  Pr  Pr2  1  0.75000000  0.25000000  0.75000000  1
  Pr  Pr3  1  0.25000000  0.75000000  0.75000000  1
  Bi  Bi0  1  0.75000000  0.75000000  0.75000000  1
  Bi  Bi1  1  0.25000000  0.25000000  0.75000000  1
  Bi  Bi2  1  0.25000000  0.75000000  0.25000000  1
  Bi  Bi3  1  0.75000000  0.25000000  0.25000000  1
  O  O0  1  0.98731265  0.21709127  0.27616990  1
  O  O1  1  0.01268735  0.78290873  0.27616990  1
  O  O2  1  0.01268735  0.21709127  0.72383010  1
  O  O3  1  0.98731265  0.78290873  0.72383010  1
  O  O4  1  0.28020252  0.98746835  0.19895083  1
  O  O5  1  0.28020252  0.01253165  0.80104917  1
  O  O6  1  0.71979748  0.01253165  0.19895083  1
  O  O7  1  0.71979748  0.98746835  0.80104917  1
  O  O8  1  0.21305366  0.26760804  0.98723654  1
  O  O9  1  0.78694634  0.26760804  0.01276346  1
  O  O10  1  0.21305366  0.73239196  0.01276346  1
  O  O11  1  0.78694634  0.73239196  0.98723654  1
  O  O12  1  0.51268735  0.28290873  0.22383010  1
  O  O13  1  0.48731265  0.71709127  0.22383010  1
  O  O14  1  0.48731265  0.28290873  0.77616990  1
  O  O15  1  0.51268735  0.71709127  0.77616990  1
  O  O16  1  0.21979748  0.51253165  0.30104917  1
  O  O17  1  0.21979748  0.48746835  0.69895083  1
  O  O18  1  0.78020252  0.48746835  0.30104917  1
  O  O19  1  0.78020252  0.51253165  0.69895083  1
  O  O20  1  0.28694634  0.23239196  0.51276346  1
  O  O21  1  0.71305366  0.23239196  0.48723654  1
  O  O22  1  0.28694634  0.76760804  0.48723654  1
  O  O23  1  0.71305366  0.76760804  0.51276346  1
loop_
_geom_bond_atom_site_label_1
_geom_bond_atom_site_label_2
_geom_bond_distance
_geom_bond_site_symmetry_2
K0 O22 2.770633 1_545
K0 O23 2.770633 1_545
K0 O20 2.770633 1_555
K0 O21 2.770633 1_555
K0 O5 3.296032 1_555
K0 O6 3.296032 1_555
K0 O7 3.296032 1_545
K0 O4 3.296032 1_545
K1 O15 2.750684 1_554
K1 O13 2.750684 1_555
K1 O14 2.750684 1_554
K1 O12 2.750684 1_555
K1 O11 3.245903 1_554
K1 O10 3.245903 1_555
K1 O9 3.245903 1_555
K1 O8 3.245903 1_554
K2 O10 2.770633 1_555
K2 O11 2.770633 1_454
K2 O8 2.770633 1_554
K2 O9 2.770633 1_455
K2 O19 3.296032 1_454
K2 O16 3.296032 1_555
K2 O17 3.296032 1_554
K2 O18 3.296032 1_455
K3 O1 2.750684 1_545
K3 O0 2.750684 1_455
K3 O3 2.750684 1_445
K3 O2 2.750684 1_555
K3 O23 3.245903 1_445
K3 O21 3.245903 1_455
K3 O22 3.245903 1_545
K3 O20 3.245903 1_555
Bi0 O15 2.120302 1_555
Bi0 O3 2.120302 1_555
Bi0 O11 2.132237 1_555
Bi0 O23 2.132237 1_555
Bi0 O7 2.146841 1_555
Bi0 O19 2.146841 1_555
Bi1 O14 2.120302 1_555
Bi1 O2 2.120302 1_555
Bi1 O8 2.132237 1_555
Bi1 O20 2.132237 1_555
Bi1 O5 2.146841 1_555
Bi1 O17 2.146841 1_555
Bi2 O1 2.120302 1_555
Bi2 O13 2.120302 1_555
Bi2 O22 2.132237 1_555
Bi2 O10 2.132237 1_555
Bi2 O16 2.146841 1_555
Bi2 O4 2.146841 1_555
Bi3 O12 2.120302 1_555
Bi3 O0 2.120302 1_555
Bi3 O9 2.132237 1_555
Bi3 O21 2.132237 1_555
Bi3 O6 2.146841 1_555
Bi3 O18 2.146841 1_555
O0 Pr0 2.340432 1_655
O0 Sr2 3.101626 1_655
O0 Sr0 3.177323 1_655
O1 Pr1 2.340432 1_455
O1 Sr2 3.101626 1_565
O1 Sr0 3.177323 1_555
O2 Pr2 2.340432 1_455
O2 Sr2 3.101626 1_556
O2 Sr0 3.177323 1_555
O3 Pr3 2.340432 1_655
O3 Sr2 3.101626 1_666
O3 Sr0 3.177323 1_655
O4 Pr0 2.360512 1_565
O4 Sr1 2.618678 1_565
O4 Sr2 3.032328 1_565
O5 Pr3 2.360512 1_545
O5 Sr1 2.618678 1_556
O5 Sr2 3.032328 1_556
O6 Pr1 2.360512 1_545
O6 Sr1 2.618678 1_555
O6 Sr2 3.032328 1_655
O7 Pr2 2.360512 1_565
O7 Sr1 2.618678 1_566
O7 Sr2 3.032328 1_666
O8 Pr0 2.355444 1_556
O8 Sr2 3.004934 1_556
O9 Pr2 2.355444 1_554
O9 Sr2 3.004934 1_655
O10 Pr3 2.355444 1_554
O10 Sr2 3.004934 1_565
O11 Pr1 2.355444 1_556
O11 Sr2 3.004934 1_666
O12 Pr0 2.340432 1_555
O12 Sr3 3.101626 1_555
O12 Sr1 3.177323 1_555
O13 Pr1 2.340432 1_555
O13 Sr3 3.101626 1_555
O13 Sr1 3.177323 1_565
O14 Pr2 2.340432 1_555
O14 Sr3 3.101626 1_555
O14 Sr1 3.177323 1_556
O15 Pr3 2.340432 1_555
O15 Sr3 3.101626 1_555
O15 Sr1 3.177323 1_566
O16 Pr0 2.360512 1_555
O16 Sr0 2.618678 1_555
O16 Sr3 3.032328 1_555
O17 Pr3 2.360512 1_555
O17 Sr0 2.618678 1_555
O17 Sr3 3.032328 1_555
O18 Pr1 2.360512 1_555
O18 Sr0 2.618678 1_655
O18 Sr3 3.032328 1_555
O19 Pr2 2.360512 1_555
O19 Sr0 2.618678 1_655
O19 Sr3 3.032328 1_555
O20 Pr0 2.355444 1_555
O20 Sr3 3.004934 1_555
O21 Pr2 2.355444 1_555
O21 Sr3 3.004934 1_555
O22 Pr3 2.355444 1_555
O22 Sr3 3.004934 1_555
O23 Pr1 2.355444 1_555
O23 Sr3 3.004934 1_555
