# generated using pymatgen
data_LiLaGe2
_symmetry_space_group_name_H-M   'P 1'
_cell_length_a   4.01035352
_cell_length_b   7.90983795
_cell_length_c   10.89154981
_cell_angle_alpha   90.00001855
_cell_angle_beta   90.00000000
_cell_angle_gamma   90.00000000
_symmetry_Int_Tables_number   1
_chemical_formula_structural   LiLaGe2
_chemical_formula_sum   'Li4 La4 Ge8'
_cell_volume   345.49353591
_cell_formula_units_Z   4
loop_
 _symmetry_equiv_pos_site_id
 _symmetry_equiv_pos_as_xyz
  1  'x, y, z'
loop_
 _atom_site_type_symbol
 _atom_site_label
 _atom_site_symmetry_multiplicity
 _atom_site_fract_x
 _atom_site_fract_y
 _atom_site_fract_z
 _atom_site_occupancy
  Li  Li0  1  0.25000000  0.99257455  0.38905194  1
  Li  Li1  1  0.25000000  0.49257455  0.11094906  1
  Li  Li2  1  0.75000000  0.00743248  0.61093909  1
  Li  Li3  1  0.75000000  0.50743148  0.88906091  1
  La  La0  1  0.25000000  0.13895820  0.86582747  1
  La  La1  1  0.25000000  0.63895820  0.63417153  1
  La  La2  1  0.75000000  0.86096650  0.13418306  1
  La  La3  1  0.75000000  0.36096750  0.36581694  1
  Ge  Ge0  1  0.25000000  0.21872199  0.56987696  1
  Ge  Ge1  1  0.25000000  0.71872099  0.93012304  1
  Ge  Ge2  1  0.75000000  0.78131031  0.43013097  1
  Ge  Ge3  1  0.75000000  0.28131131  0.06986903  1
  Ge  Ge4  1  0.25000000  0.66043447  0.31845206  1
  Ge  Ge5  1  0.25000000  0.16043447  0.18154794  1
  Ge  Ge6  1  0.75000000  0.33960150  0.68156074  1
  Ge  Ge7  1  0.75000000  0.83960150  0.81843926  1
loop_
_geom_bond_atom_site_label_1
_geom_bond_atom_site_label_2
_geom_bond_distance
_geom_bond_site_symmetry_2
Ge0 Ge6 2.532703 1_555
Ge0 Ge6 2.532703 1_455
Ge0 Li2 2.648373 1_455
Ge0 Li2 2.648373 1_555
Ge0 Li0 2.660556 1_545
Ge0 La3 3.197861 1_555
Ge0 La3 3.197861 1_455
Ge0 La0 3.284525 1_555
Ge0 La1 3.396962 1_555
Ge1 Ge7 2.532706 1_555
Ge1 Ge7 2.532706 1_455
Ge1 Li3 2.648373 1_555
Ge1 Li3 2.648373 1_455
Ge1 Li1 2.660559 1_556
Ge1 La2 3.197860 1_556
Ge1 La2 3.197860 1_456
Ge1 La1 3.284534 1_555
Ge1 La0 3.396972 1_565
Ge2 Ge4 2.532666 1_655
Ge2 Ge4 2.532666 1_555
Ge2 Li0 2.648278 1_555
Ge2 Li0 2.648278 1_655
Ge2 Li2 2.660285 1_565
Ge2 La1 3.198010 1_655
Ge2 La1 3.198010 1_555
Ge2 La2 3.284334 1_555
Ge2 La3 3.397831 1_555
Ge3 Ge5 2.532670 1_555
Ge3 Ge5 2.532670 1_655
Ge3 Li1 2.648274 1_655
Ge3 Li1 2.648274 1_555
Ge3 Li3 2.660275 1_554
Ge3 La0 3.198020 1_554
Ge3 La0 3.198020 1_654
Ge3 La3 3.284334 1_555
Ge3 La2 3.397847 1_545
Ge4 Li1 2.621190 1_555
Ge4 Li0 2.737392 1_555
Ge4 La3 3.146072 1_555
Ge4 La3 3.146072 1_455
Ge4 La2 3.250329 1_455
Ge4 La2 3.250329 1_555
Ge4 La1 3.442868 1_555
Ge5 Li0 2.621200 1_545
Ge5 Li1 2.737389 1_555
Ge5 La2 3.146078 1_545
Ge5 La2 3.146078 1_445
Ge5 La3 3.250332 1_455
Ge5 La3 3.250332 1_555
Ge5 La0 3.442879 1_554
Ge6 Li3 2.621043 1_555
Ge6 Li2 2.737678 1_555
Ge6 La1 3.145459 1_555
Ge6 La1 3.145459 1_655
Ge6 La0 3.250743 1_555
Ge6 La0 3.250743 1_655
Ge6 La3 3.443090 1_555
Ge7 Li2 2.621048 1_565
Ge7 Li3 2.737686 1_555
Ge7 La0 3.145457 1_665
Ge7 La0 3.145457 1_565
Ge7 La1 3.250749 1_555
Ge7 La1 3.250749 1_655
Ge7 La2 3.443089 1_556
