# generated using pymatgen
data_CsMn2(PO3)6
_symmetry_space_group_name_H-M   'P 1'
_cell_length_a   9.33080696
_cell_length_b   9.29382756
_cell_length_c   10.58800064
_cell_angle_alpha   106.79740979
_cell_angle_beta   108.58806283
_cell_angle_gamma   88.41963850
_symmetry_Int_Tables_number   1
_chemical_formula_structural   CsMn2(PO3)6
_chemical_formula_sum   'Cs2 Mn4 P12 O36'
_cell_volume   831.04004210
_cell_formula_units_Z   2
loop_
 _symmetry_equiv_pos_site_id
 _symmetry_equiv_pos_as_xyz
  1  'x, y, z'
loop_
 _atom_site_type_symbol
 _atom_site_label
 _atom_site_symmetry_multiplicity
 _atom_site_fract_x
 _atom_site_fract_y
 _atom_site_fract_z
 _atom_site_occupancy
  Cs  Cs0  1  0.99238300  0.48970800  0.99362000  1
  Cs  Cs1  1  0.99215000  0.48912500  0.49290600  1
  Mn  Mn0  1  0.49946200  0.49962300  0.99985600  1
  Mn  Mn1  1  0.99950900  0.99863400  0.49964500  1
  Mn  Mn2  1  0.49947100  0.49953200  0.49985700  1
  Mn  Mn3  1  0.99960500  0.99872000  0.99941100  1
  P  P0  1  0.45248600  0.70826100  0.79973200  1
  P  P1  1  0.45136100  0.70894800  0.30101200  1
  P  P2  1  0.54772100  0.28963300  0.69800300  1
  P  P3  1  0.54658500  0.29042400  0.19915400  1
  P  P4  1  0.74084300  0.75010700  0.74635200  1
  P  P5  1  0.73951200  0.75079400  0.24829200  1
  P  P6  1  0.25864800  0.24889100  0.25287100  1
  P  P7  1  0.25988000  0.24835700  0.75095300  1
  P  P8  1  0.77206700  0.04880800  0.69831800  1
  P  P9  1  0.77149200  0.04921000  0.19948300  1
  P  P10  1  0.22747400  0.95006600  0.79960100  1
  P  P11  1  0.22673100  0.95035100  0.30071000  1
  O  O0  1  0.44129400  0.67142900  0.92719300  1
  O  O1  1  0.43926700  0.67065100  0.42762500  1
  O  O2  1  0.56082000  0.32819000  0.57183600  1
  O  O3  1  0.55861400  0.32778000  0.07220300  1
  O  O4  1  0.62718900  0.75959000  0.83446500  1
  O  O5  1  0.62645100  0.75966500  0.33683000  1
  O  O6  1  0.37231400  0.24058500  0.66194700  1
  O  O7  1  0.37160500  0.24063400  0.16422700  1
  O  O8  1  0.69751900  0.88449400  0.18030400  1
  O  O9  1  0.69920900  0.88332100  0.67763600  1
  O  O10  1  0.30125500  0.11507300  0.32056300  1
  O  O11  1  0.30284700  0.11409500  0.81798800  1
  O  O12  1  0.70051400  0.60459100  0.12839600  1
  O  O13  1  0.70183400  0.60397900  0.62652900  1
  O  O14  1  0.29768600  0.39459400  0.37313900  1
  O  O15  1  0.29889000  0.39422900  0.87117200  1
  O  O16  1  0.89030700  0.10821300  0.83906800  1
  O  O17  1  0.89118200  0.10834600  0.33942100  1
  O  O18  1  0.10668200  0.89174800  0.66041900  1
  O  O19  1  0.10764900  0.89174300  0.16056700  1
  O  O20  1  0.89856500  0.77190200  0.84737600  1
  O  O21  1  0.89746700  0.77225700  0.34883000  1
  O  O22  1  0.10160600  0.22679700  0.65089500  1
  O  O23  1  0.10057100  0.22720700  0.15240900  1
  O  O24  1  0.39247000  0.59117300  0.66034100  1
  O  O25  1  0.39091300  0.59371300  0.16060000  1
  O  O26  1  0.60915800  0.40413600  0.83886100  1
  O  O27  1  0.60766900  0.40662800  0.33907500  1
  O  O28  1  0.61709300  0.13217300  0.69704300  1
  O  O29  1  0.61765900  0.13416800  0.20051800  1
  O  O30  1  0.38017600  0.86371000  0.79738800  1
  O  O31  1  0.38073100  0.86559700  0.30137600  1
  O  O32  1  0.80667400  0.04542400  0.56944700  1
  O  O33  1  0.80492300  0.04439600  0.06976800  1
  O  O34  1  0.19500400  0.95638100  0.93009000  1
  O  O35  1  0.19281000  0.95539400  0.43028400  1
loop_
_geom_bond_atom_site_label_1
_geom_bond_atom_site_label_2
_geom_bond_distance
_geom_bond_site_symmetry_2
Cs0 O23 3.309130 1_656
Cs0 O20 3.376196 1_555
Cs0 O26 3.431041 1_555
Cs0 O16 3.463398 1_555
Cs0 O12 3.468385 1_556
Cs0 O15 3.493791 1_655
Cs0 O25 3.592673 1_656
Cs0 O19 3.665323 1_656
Cs1 O22 3.303929 1_655
Cs1 O21 3.371112 1_555
Cs1 O27 3.437406 1_555
Cs1 O13 3.448201 1_555
Cs1 O17 3.454874 1_555
Cs1 O14 3.468464 1_655
Cs1 O24 3.605109 1_655
Cs1 O18 3.669605 1_655
Mn0 O3 1.957292 1_556
Mn0 O0 1.957565 1_555
Mn0 O15 2.005614 1_555
Mn0 O12 2.007267 1_556
Mn0 O25 2.208422 1_556
Mn0 O26 2.220094 1_555
Mn1 O35 2.141939 1_655
Mn1 O32 2.142822 1_565
Mn1 O18 2.172989 1_655
Mn1 O17 2.188386 1_565
Mn1 O21 2.254395 1_555
Mn1 O22 2.268209 1_665
Mn2 O1 1.951794 1_555
Mn2 O2 1.953802 1_555
Mn2 O14 2.007686 1_555
Mn2 O13 2.010113 1_555
Mn2 O24 2.192646 1_555
Mn2 O27 2.204731 1_555
Mn3 O34 2.159711 1_655
Mn3 O33 2.161563 1_566
Mn3 O19 2.178283 1_656
Mn3 O16 2.189816 1_565
Mn3 O20 2.259342 1_555
Mn3 O23 2.273820 1_666
O0 P0 1.519281 1_555
O1 P1 1.520200 1_555
O2 P2 1.520211 1_555
O3 P3 1.519192 1_555
O4 P0 1.606056 1_555
O4 P4 1.606499 1_555
O5 P1 1.606001 1_555
O5 P5 1.606090 1_555
O6 P2 1.604530 1_555
O6 P7 1.606460 1_555
O7 P3 1.604509 1_555
O7 P6 1.606931 1_555
O8 P5 1.589357 1_555
O8 P9 1.627999 1_565
O9 P4 1.589649 1_555
O9 P8 1.625942 1_565
O10 P6 1.588948 1_555
O10 P11 1.628162 1_545
O11 P7 1.588839 1_555
O11 P10 1.629970 1_545
O12 P5 1.525138 1_555
O13 P4 1.524295 1_555
O14 P6 1.524065 1_555
O15 P7 1.524832 1_555
O16 P8 1.500922 1_555
O17 P9 1.500969 1_555
O18 P10 1.499640 1_555
O19 P11 1.499400 1_555
O20 P4 1.496207 1_555
O21 P5 1.496143 1_555
O22 P7 1.496562 1_555
O23 P6 1.496631 1_555
O24 P0 1.501473 1_555
O25 P1 1.501273 1_555
O26 P2 1.502215 1_555
O27 P3 1.502296 1_555
O28 P2 1.582404 1_555
O28 P8 1.619654 1_555
O29 P3 1.581721 1_555
O29 P9 1.620620 1_555
O30 P0 1.580929 1_555
O30 P10 1.619311 1_555
O31 P1 1.580933 1_555
O31 P11 1.618528 1_555
O32 P8 1.490845 1_555
O33 P9 1.490785 1_555
O34 P10 1.491012 1_555
O35 P11 1.491112 1_555
