# generated using pymatgen
data_Li4Co2OF7
_symmetry_space_group_name_H-M   'P 1'
_cell_length_a   6.02747861
_cell_length_b   5.90064707
_cell_length_c   8.49804293
_cell_angle_alpha   89.45995571
_cell_angle_beta   89.99946860
_cell_angle_gamma   90.00024602
_symmetry_Int_Tables_number   1
_chemical_formula_structural   Li4Co2OF7
_chemical_formula_sum   'Li8 Co4 O2 F14'
_cell_volume   302.22817348
_cell_formula_units_Z   2
loop_
 _symmetry_equiv_pos_site_id
 _symmetry_equiv_pos_as_xyz
  1  'x, y, z'
loop_
 _atom_site_type_symbol
 _atom_site_label
 _atom_site_symmetry_multiplicity
 _atom_site_fract_x
 _atom_site_fract_y
 _atom_site_fract_z
 _atom_site_occupancy
  Li  Li0  1  0.50232500  0.50973000  0.49081300  1
  Li  Li1  1  0.99766700  0.00973300  0.99081400  1
  Li  Li2  1  0.49943100  0.99179900  0.25947200  1
  Li  Li3  1  0.00056300  0.49179400  0.75947200  1
  Li  Li4  1  0.99892900  0.24948200  0.37383300  1
  Li  Li5  1  0.50106200  0.74948700  0.87384000  1
  Li  Li6  1  0.00075900  0.74539500  0.37801200  1
  Li  Li7  1  0.49923700  0.24540100  0.87800600  1
  Co  Co0  1  0.76984100  0.02206100  0.62563000  1
  Co  Co1  1  0.73025600  0.52206000  0.12562000  1
  Co  Co2  1  0.25583800  0.50856400  0.12408100  1
  Co  Co3  1  0.24414900  0.00858100  0.62408300  1
  O  O0  1  0.51152000  0.71634800  0.12383700  1
  O  O1  1  0.98847600  0.21631500  0.62385800  1
  F  F0  1  0.50788400  0.25156600  0.11838900  1
  F  F1  1  0.99208300  0.75155800  0.61839600  1
  F  F2  1  0.99442200  0.74199900  0.13069300  1
  F  F3  1  0.50560000  0.24202200  0.63068900  1
  F  F4  1  0.98668400  0.28366700  0.12638300  1
  F  F5  1  0.51330300  0.78367100  0.62638700  1
  F  F6  1  0.76598000  0.49393000  0.36007900  1
  F  F7  1  0.26478300  0.99668600  0.86284400  1
  F  F8  1  0.23521600  0.49668100  0.36283500  1
  F  F9  1  0.73401300  0.99393800  0.86008000  1
  F  F10  1  0.76020800  0.99310000  0.38990600  1
  F  F11  1  0.26742500  0.49566300  0.88602800  1
  F  F12  1  0.23256100  0.99566200  0.38602500  1
  F  F13  1  0.73979000  0.49310200  0.88989800  1
loop_
_geom_bond_atom_site_label_1
_geom_bond_atom_site_label_2
_geom_bond_distance
_geom_bond_site_symmetry_2
Li2 O0 2.002726 1_555
Li3 O1 2.002757 1_455
Li4 O1 2.132810 1_555
Li5 O0 2.132562 1_556
Co0 O1 1.746529 1_555
Co0 F9 2.009342 1_545
Co0 F10 2.012911 1_545
Co0 F3 2.055288 1_555
Co0 F1 2.085122 1_545
Co0 F5 2.090336 1_545
Co1 O0 1.747127 1_555
Co1 F6 2.009358 1_555
Co1 F13 2.012874 1_554
Co1 F2 2.054851 1_555
Co1 F0 2.085576 1_555
Co1 F4 2.089866 1_555
Co2 O0 1.969316 1_555
Co2 F11 2.026337 1_554
Co2 F8 2.033294 1_555
Co2 F2 2.093962 1_455
Co2 F4 2.095907 1_455
Co2 F0 2.147405 1_555
Co3 O1 1.969099 1_455
Co3 F12 2.026385 1_545
Co3 F7 2.033362 1_545
Co3 F3 2.094134 1_555
Co3 F5 2.095965 1_545
Co3 F1 2.147585 1_445
F0 Li2 1.937741 1_545
F0 Li7 2.044117 1_554
F1 Li3 1.937696 1_655
F1 Li6 2.044128 1_655
F2 Li1 1.968188 1_564
F2 Li6 2.102359 1_655
F3 Li0 1.968053 1_555
F3 Li7 2.102342 1_555
F4 Li1 1.994859 1_554
F4 Li4 2.111891 1_555
F5 Li0 1.994917 1_555
F5 Li5 2.111913 1_555
F6 Li0 1.941745 1_555
F6 Li4 2.015567 1_555
F6 Li6 2.057118 1_655
F7 Li1 1.944822 1_465
F7 Li5 2.040109 1_555
F7 Li7 2.042298 1_565
F8 Li0 1.944842 1_555
F8 Li4 2.040134 1_455
F8 Li6 2.042322 1_555
F9 Li1 1.941755 1_565
F9 Li5 2.015580 1_555
F9 Li7 2.057099 1_565
F10 Li2 1.923414 1_555
F10 Li6 2.061942 1_655
F10 Li4 2.091352 1_565
F11 Li3 1.935189 1_555
F11 Li7 2.034579 1_555
F11 Li5 2.057696 1_555
F12 Li2 1.935198 1_555
F12 Li6 2.034548 1_555
F12 Li4 2.057669 1_465
F13 Li3 1.923338 1_655
F13 Li7 2.061925 1_555
F13 Li5 2.091397 1_555
