# generated using pymatgen
data_Y3Mg2CrS8
_symmetry_space_group_name_H-M   'P 1'
_cell_length_a   7.79165520
_cell_length_b   7.69953320
_cell_length_c   7.79168700
_cell_angle_alpha   59.60402375
_cell_angle_beta   59.99899497
_cell_angle_gamma   59.60446375
_symmetry_Int_Tables_number   1
_chemical_formula_structural   Y3Mg2CrS8
_chemical_formula_sum   'Y3 Mg2 Cr1 S8'
_cell_volume   328.53633640
_cell_formula_units_Z   1
loop_
 _symmetry_equiv_pos_site_id
 _symmetry_equiv_pos_as_xyz
  1  'x, y, z'
loop_
 _atom_site_type_symbol
 _atom_site_label
 _atom_site_symmetry_multiplicity
 _atom_site_fract_x
 _atom_site_fract_y
 _atom_site_fract_z
 _atom_site_occupancy
  Y  Y0  1  0.49999900  0.50000700  0.49999400  1
  Y  Y1  1  0.49999700  0.49999500  0.00000500  1
  Y  Y2  1  0.00000000  0.49999300  0.50001600  1
  Mg  Mg0  1  0.87433700  0.87697700  0.87434300  1
  Mg  Mg1  1  0.12566200  0.12301800  0.12565400  1
  Cr  Cr0  1  0.50002000  0.00001100  0.49998600  1
  S  S0  1  0.72963200  0.76960000  0.72964000  1
  S  S1  1  0.27036700  0.23040000  0.72886900  1
  S  S2  1  0.25442300  0.73673300  0.25442200  1
  S  S3  1  0.72886900  0.23040700  0.27035600  1
  S  S4  1  0.74556300  0.26327300  0.74557400  1
  S  S5  1  0.27112700  0.76958800  0.72964400  1
  S  S6  1  0.27036000  0.23039800  0.27036900  1
  S  S7  1  0.72964900  0.76959300  0.27112900  1
loop_
_geom_bond_atom_site_label_1
_geom_bond_atom_site_label_2
_geom_bond_distance
_geom_bond_site_symmetry_2
Mg0 S4 2.413883 1_565
Mg0 S7 2.526611 1_556
Mg0 S0 2.526618 1_555
Mg0 S5 2.526633 1_655
Mg1 S2 2.413814 1_545
Mg1 S1 2.526606 1_554
Mg1 S3 2.526653 1_455
Mg1 S6 2.526668 1_555
Cr0 S3 2.515191 1_555
Cr0 S1 2.515363 1_555
Cr0 S7 2.515376 1_545
Cr0 S0 2.515389 1_545
Cr0 S6 2.515452 1_555
Cr0 S5 2.515581 1_545
S0 Y2 2.740816 1_655
S0 Y1 2.740836 1_556
S1 Y2 2.740821 1_555
S1 Y0 2.740831 1_555
S2 Y1 2.692089 1_555
S2 Y2 2.692110 1_555
S2 Y0 2.692120 1_555
S3 Y1 2.740828 1_555
S3 Y0 2.740849 1_555
S4 Y2 2.692083 1_655
S4 Y1 2.692083 1_556
S4 Y0 2.692095 1_555
S5 Y0 2.740803 1_555
S5 Y1 2.740874 1_556
S6 Y1 2.740802 1_555
S6 Y2 2.740864 1_555
S7 Y0 2.740812 1_555
S7 Y2 2.740908 1_655
