# generated using pymatgen
data_Sm2TiCo16
_symmetry_space_group_name_H-M   'P 1'
_cell_length_a   6.31856163
_cell_length_b   6.31856163
_cell_length_c   6.31856131
_cell_angle_alpha   82.88332579
_cell_angle_beta   82.88332579
_cell_angle_gamma   82.88334291
_symmetry_Int_Tables_number   1
_chemical_formula_structural   Sm2TiCo16
_chemical_formula_sum   'Sm2 Ti1 Co16'
_cell_volume   246.87793708
_cell_formula_units_Z   1
loop_
 _symmetry_equiv_pos_site_id
 _symmetry_equiv_pos_as_xyz
  1  'x, y, z'
loop_
 _atom_site_type_symbol
 _atom_site_label
 _atom_site_symmetry_multiplicity
 _atom_site_fract_x
 _atom_site_fract_y
 _atom_site_fract_z
 _atom_site_occupancy
  Sm  Sm0  1  0.65525322  0.65525322  0.65525322  1
  Sm  Sm1  1  0.35251247  0.35251247  0.35251247  1
  Ti  Ti0  1  0.09285166  0.09285166  0.09285166  1
  Co  Co0  1  0.28907853  0.70817787  0.99717149  1
  Co  Co1  1  0.70817787  0.99717149  0.28907853  1
  Co  Co2  1  0.99717149  0.28907853  0.70817787  1
  Co  Co3  1  0.28907853  0.99717149  0.70817787  1
  Co  Co4  1  0.99717149  0.70817787  0.28907853  1
  Co  Co5  1  0.70817787  0.28907853  0.99717149  1
  Co  Co6  1  0.99716605  0.99716605  0.50465328  1
  Co  Co7  1  0.99716605  0.50465328  0.99716605  1
  Co  Co8  1  0.50465328  0.99716605  0.99716605  1
  Co  Co9  1  0.34463638  0.34463638  0.84713243  1
  Co  Co10  1  0.34463638  0.84713243  0.34463638  1
  Co  Co11  1  0.84713243  0.34463638  0.34463638  1
  Co  Co12  1  0.66190688  0.66190688  0.15244595  1
  Co  Co13  1  0.66190688  0.15244595  0.66190688  1
  Co  Co14  1  0.15244595  0.66190688  0.66190688  1
  Co  Co15  1  0.89887357  0.89887357  0.89887357  1
loop_
_geom_bond_atom_site_label_1
_geom_bond_atom_site_label_2
_geom_bond_distance
_geom_bond_site_symmetry_2
Sm1 Ti0 3.174346 1_555
Co0 Co7 2.375618 1_455
Co0 Co8 2.409538 1_555
Co0 Co3 2.417134 1_555
Co0 Co4 2.441502 1_456
Co0 Co14 2.446944 1_555
Co0 Co10 2.541494 1_556
Co0 Co9 2.560430 1_555
Co0 Co12 2.632207 1_556
Co0 Ti0 2.691129 1_566
Co0 Co15 2.715579 1_455
Co0 Sm0 2.980140 1_555
Co0 Sm1 3.000277 1_556
Co1 Co8 2.375618 1_554
Co1 Co6 2.409538 1_555
Co1 Co4 2.417134 1_555
Co1 Co5 2.441502 1_564
Co1 Co12 2.446944 1_555
Co1 Co11 2.541494 1_565
Co1 Co10 2.560429 1_555
Co1 Co13 2.632207 1_565
Co1 Ti0 2.691128 1_665
Co1 Co15 2.715579 1_554
Co1 Sm0 2.980140 1_555
Co1 Sm1 3.000278 1_565
Co2 Co6 2.375618 1_545
Co2 Co7 2.409538 1_555
Co2 Co5 2.417134 1_555
Co2 Co3 2.441502 1_645
Co2 Co9 2.541494 1_655
Co2 Ti0 2.691128 1_656
Co2 Sm0 2.980141 1_555
Co2 Sm1 3.000277 1_655
Co3 Co6 2.375618 1_455
Co3 Co8 2.409538 1_555
Co3 Co9 2.541494 1_565
Co3 Ti0 2.691128 1_566
Co3 Sm0 2.980141 1_555
Co3 Sm1 3.000277 1_565
Co4 Co7 2.375618 1_554
Co4 Co6 2.409538 1_555
Co4 Ti0 2.691128 1_665
Co4 Sm0 2.980140 1_555
Co4 Sm1 3.000278 1_655
Co5 Co8 2.375618 1_545
Co5 Co7 2.409538 1_555
Co5 Co9 2.560430 1_555
Co5 Ti0 2.691129 1_656
Co5 Sm0 2.980140 1_555
Co5 Sm1 3.000277 1_556
Co6 Ti0 2.610062 1_665
Co6 Sm0 3.221464 1_555
Co6 Sm1 3.344573 1_665
Co7 Co9 2.431666 1_655
Co7 Ti0 2.610062 1_656
Co7 Sm0 3.221465 1_555
Co7 Sm1 3.344574 1_656
Co8 Co9 2.431666 1_565
Co8 Ti0 2.610062 1_566
Co8 Sm0 3.221465 1_555
Co8 Sm1 3.344574 1_566
Co9 Ti0 2.622147 1_556
Co9 Sm0 2.991516 1_555
Co9 Sm1 3.113825 1_555
Co9 Sm1 3.206450 1_556
Co10 Co8 2.431666 1_554
Co10 Co6 2.431666 1_455
Co10 Co14 2.455774 1_555
Co10 Co12 2.455775 1_555
Co10 Co4 2.541494 1_455
Co10 Co3 2.560430 1_555
Co10 Ti0 2.622147 1_565
Co10 Sm0 2.991517 1_555
Co10 Sm1 3.113825 1_555
Co10 Sm1 3.206450 1_565
Co11 Co7 2.431666 1_554
Co11 Co6 2.431666 1_545
Co11 Co13 2.455774 1_555
Co11 Co12 2.455775 1_555
Co11 Co5 2.541494 1_554
Co11 Co4 2.560429 1_555
Co11 Co2 2.560430 1_555
Co11 Ti0 2.622147 1_655
Co11 Sm0 2.991517 1_555
Co11 Sm1 3.113825 1_555
Co11 Sm1 3.206450 1_655
Co12 Co7 2.375370 1_554
Co12 Co8 2.375370 1_554
Co12 Co4 2.446944 1_555
Co12 Co15 2.533275 1_554
Co12 Co5 2.632207 1_554
Co12 Sm1 2.993959 1_555
Co12 Sm0 3.152573 1_554
Co12 Sm0 3.167212 1_555
Co13 Co8 2.375369 1_545
Co13 Co6 2.375370 1_545
Co13 Co2 2.446944 1_555
Co13 Co5 2.446944 1_555
Co13 Co9 2.455775 1_555
Co13 Co15 2.533276 1_545
Co13 Co3 2.632207 1_545
Co13 Sm1 2.993960 1_555
Co13 Sm0 3.152573 1_545
Co13 Sm0 3.167212 1_555
Co14 Co7 2.375369 1_455
Co14 Co6 2.375370 1_455
Co14 Co3 2.446944 1_555
Co14 Co9 2.455775 1_555
Co14 Co15 2.533276 1_455
Co14 Co2 2.632207 1_455
Co14 Co4 2.632207 1_455
Co14 Sm1 2.993960 1_555
Co14 Sm0 3.152573 1_455
Co14 Sm0 3.167212 1_555
Co15 Ti0 2.371377 1_666
Co15 Co6 2.510974 1_555
Co15 Co8 2.510974 1_555
Co15 Co7 2.510974 1_555
Co15 Co2 2.715578 1_565
Co15 Co3 2.715578 1_655
Co15 Co4 2.715579 1_556
Co15 Co5 2.715579 1_565
Co15 Sm0 2.978252 1_555
