# generated using pymatgen
data_Li4Co3Sn5O16
_symmetry_space_group_name_H-M   'P 1'
_cell_length_a   6.14789785
_cell_length_b   11.60602820
_cell_length_c   10.59906580
_cell_angle_alpha   62.66988992
_cell_angle_beta   90.68249776
_cell_angle_gamma   75.36785307
_symmetry_Int_Tables_number   1
_chemical_formula_structural   Li4Co3Sn5O16
_chemical_formula_sum   'Li8 Co6 Sn10 O32'
_cell_volume   642.82839101
_cell_formula_units_Z   2
loop_
 _symmetry_equiv_pos_site_id
 _symmetry_equiv_pos_as_xyz
  1  'x, y, z'
loop_
 _atom_site_type_symbol
 _atom_site_label
 _atom_site_symmetry_multiplicity
 _atom_site_fract_x
 _atom_site_fract_y
 _atom_site_fract_z
 _atom_site_occupancy
  Li  Li0  1  0.54724730  0.89224932  0.22068702  1
  Li  Li1  1  0.04424179  0.89121373  0.72101707  1
  Li  Li2  1  0.03412775  0.98526565  0.01945486  1
  Li  Li3  1  0.53790454  0.98625090  0.51821920  1
  Li  Li4  1  0.27044561  0.49905023  0.25148710  1
  Li  Li5  1  0.76358986  0.49821424  0.75413368  1
  Li  Li6  1  0.79878500  0.40451423  0.12994757  1
  Li  Li7  1  0.29615246  0.40405804  0.63009933  1
  Co  Co0  1  0.64933512  0.21566652  0.47708206  1
  Co  Co1  1  0.39644506  0.71508411  0.05077564  1
  Co  Co2  1  0.63991100  0.71045151  0.81501270  1
  Co  Co3  1  0.14704714  0.21501487  0.97839613  1
  Co  Co4  1  0.88894402  0.71485820  0.55400949  1
  Co  Co5  1  0.14230231  0.70971811  0.31385929  1
  Sn  Sn0  1  0.89128562  0.21232196  0.72489925  1
  Sn  Sn1  1  0.39411002  0.21626191  0.22314004  1
  Sn  Sn2  1  0.74431072  0.49584679  0.41438878  1
  Sn  Sn3  1  0.24677267  0.49548471  0.91346279  1
  Sn  Sn4  1  0.14096985  0.21418171  0.47700141  1
  Sn  Sn5  1  0.63636138  0.21511588  0.97703451  1
  Sn  Sn6  1  0.88607682  0.71461295  0.05755850  1
  Sn  Sn7  1  0.38551022  0.71479807  0.55712020  1
  Sn  Sn8  1  0.49975104  0.98444219  0.84063084  1
  Sn  Sn9  1  0.99364891  0.98513456  0.33932837  1
  O  O0  1  0.69866884  0.59341602  0.53814228  1
  O  O1  1  0.20107258  0.59983739  0.03490124  1
  O  O2  1  0.05163679  0.34396488  0.56879160  1
  O  O3  1  0.55732291  0.34526324  0.06994265  1
  O  O4  1  0.93273584  0.10640466  0.60788360  1
  O  O5  1  0.45478330  0.09980546  0.12149234  1
  O  O6  1  0.36089566  0.31185408  0.35019542  1
  O  O7  1  0.84146354  0.31301519  0.84141468  1
  O  O8  1  0.10082570  0.80114003  0.11061692  1
  O  O9  1  0.60140392  0.80563782  0.59375771  1
  O  O10  1  0.97052671  0.59162219  0.28730631  1
  O  O11  1  0.46036048  0.59261626  0.78138250  1
  O  O12  1  0.60340676  0.33411752  0.56404499  1
  O  O13  1  0.10669868  0.34721915  0.07326142  1
  O  O14  1  0.81942980  0.33445347  0.35046574  1
  O  O15  1  0.33174111  0.34315072  0.84341366  1
  O  O16  1  0.21133768  0.09501220  0.37260482  1
  O  O17  1  0.71052860  0.09274046  0.87405580  1
  O  O18  1  0.44905341  0.60361891  0.27309034  1
  O  O19  1  0.95331023  0.60324332  0.76753683  1
  O  O20  1  0.57793464  0.84360759  0.06310635  1
  O  O21  1  0.07766424  0.84521156  0.56039318  1
  O  O22  1  0.79672612  0.84820214  0.83558123  1
  O  O23  1  0.28879980  0.84085531  0.33147809  1
  O  O24  1  0.69360984  0.60290617  0.03752046  1
  O  O25  1  0.19167364  0.60929237  0.51740467  1
  O  O26  1  0.69429925  0.10286362  0.37635772  1
  O  O27  1  0.19390140  0.09616033  0.86662444  1
  O  O28  1  0.33830264  0.84180955  0.84701850  1
  O  O29  1  0.84316400  0.83788761  0.34679463  1
  O  O30  1  0.94559836  0.09723544  0.11690810  1
  O  O31  1  0.45771530  0.10169891  0.61023794  1
loop_
_geom_bond_atom_site_label_1
_geom_bond_atom_site_label_2
_geom_bond_distance
_geom_bond_site_symmetry_2
Li0 O20 1.990825 1_555
Li0 O29 2.020437 1_555
Li0 O23 2.034569 1_555
Li0 O5 2.049317 1_565
Li1 O22 1.977482 1_455
Li1 O21 2.003295 1_555
Li1 O28 2.023930 1_555
Li1 O4 2.123883 1_465
Li2 O8 1.822156 1_555
Li2 O30 1.985068 1_465
Li2 O27 2.001888 1_564
Li2 O17 2.190183 1_464
Li3 O9 1.795975 1_555
Li3 O26 1.959671 1_565
Li3 O31 1.966539 1_565
Li3 O16 2.205254 1_565
Li4 O6 1.847323 1_555
Li4 O18 1.911418 1_555
Li4 O1 2.019637 1_555
Li4 O10 2.022044 1_455
Li5 O7 1.829959 1_555
Li5 O19 1.933881 1_555
Li5 O11 2.007639 1_555
Li5 O0 2.013413 1_555
Li6 O24 1.959843 1_555
Li6 O3 1.993972 1_555
Li6 O13 2.035848 1_655
Li6 O14 2.082276 1_555
Li7 O2 2.022628 1_555
Li7 O15 2.025316 1_555
Li7 O25 2.027129 1_555
Li7 O12 2.120361 1_555
Co0 O6 1.940092 1_555
Co0 O4 1.943623 1_555
Co0 O12 1.947523 1_555
Co0 O14 1.964213 1_555
Co0 O26 2.009407 1_555
Co0 O31 2.059603 1_555
Co1 O28 1.937617 1_554
Co1 O24 2.006204 1_555
Co1 O1 2.067268 1_555
Co1 O18 2.074093 1_555
Co1 O8 2.096417 1_555
Co1 O20 2.122136 1_555
Co2 O9 2.061972 1_555
Co2 O24 2.073441 1_556
Co2 O11 2.101627 1_555
Co2 O22 2.150974 1_555
Co2 O19 2.213718 1_555
Co2 O28 2.222440 1_555
Co3 O7 2.066453 1_455
Co3 O5 2.111638 1_556
Co3 O15 2.118007 1_555
Co3 O30 2.147935 1_456
Co3 O13 2.158029 1_556
Co3 O27 2.167300 1_555
Co4 O29 1.960701 1_555
Co4 O9 1.974052 1_555
Co4 O19 1.996083 1_555
Co4 O25 2.101702 1_655
Co4 O0 2.104579 1_555
Co4 O21 2.149065 1_655
Co5 O8 1.892818 1_555
Co5 O25 1.897813 1_555
Co5 O23 2.027806 1_555
Co5 O10 2.037521 1_455
Co5 O18 2.143435 1_555
Co5 O29 2.196995 1_455
O0 Sn2 2.072109 1_555
O0 Sn7 2.151944 1_555
O1 Sn3 2.114373 1_554
O1 Sn6 2.141006 1_455
O2 Sn4 2.111250 1_555
O2 Sn0 2.126597 1_455
O2 Sn2 2.224887 1_455
O3 Sn1 2.109627 1_555
O3 Sn5 2.119862 1_554
O3 Sn3 2.241264 1_554
O4 Sn0 2.088905 1_555
O4 Sn4 2.094274 1_655
O5 Sn1 2.053933 1_555
O5 Sn5 2.072560 1_554
O6 Sn4 2.082837 1_555
O6 Sn1 2.085681 1_555
O7 Sn0 2.034221 1_555
O7 Sn5 2.052936 1_555
O8 Sn6 2.058775 1_455
O9 Sn7 2.023527 1_555
O10 Sn2 2.105927 1_555
O10 Sn6 2.154207 1_555
O11 Sn3 2.073032 1_555
O11 Sn7 2.102812 1_555
O12 Sn0 2.118595 1_555
O12 Sn2 2.215864 1_555
O13 Sn1 2.077281 1_555
O13 Sn3 2.162999 1_554
O14 Sn4 2.116277 1_655
O14 Sn2 2.217360 1_555
O15 Sn5 2.078358 1_555
O15 Sn3 2.167458 1_555
O16 Sn4 2.106845 1_555
O16 Sn1 2.132330 1_555
O16 Sn9 2.192210 1_445
O17 Sn0 2.113475 1_555
O17 Sn5 2.127109 1_555
O17 Sn8 2.146012 1_545
O18 Sn2 2.042172 1_555
O19 Sn3 2.056391 1_655
O20 Sn6 2.117604 1_555
O20 Sn8 2.121317 1_554
O21 Sn9 2.108909 1_455
O21 Sn7 2.115797 1_555
O22 Sn6 2.104862 1_556
O22 Sn8 2.111401 1_555
O23 Sn7 2.127784 1_555
O23 Sn9 2.167933 1_455
O24 Sn6 2.036656 1_555
O25 Sn7 2.072513 1_555
O26 Sn1 2.124686 1_555
O26 Sn9 2.155722 1_545
O27 Sn0 2.083736 1_455
O27 Sn8 2.097935 1_545
O28 Sn8 2.111620 1_555
O29 Sn9 2.111651 1_555
O30 Sn9 2.076155 1_545
O30 Sn5 2.107220 1_554
O31 Sn4 2.108997 1_555
O31 Sn8 2.153534 1_545
