# generated using pymatgen
data_HgAsC4Se3N
_symmetry_space_group_name_H-M   'P 1'
_cell_length_a   7.55983400
_cell_length_b   16.68832700
_cell_length_c   10.70614364
_cell_angle_alpha   90.00000000
_cell_angle_beta   133.68566087
_cell_angle_gamma   90.00000000
_symmetry_Int_Tables_number   1
_chemical_formula_structural   HgAsC4Se3N
_chemical_formula_sum   'Hg4 As4 C16 Se12 N4'
_cell_volume   976.74349414
_cell_formula_units_Z   4
loop_
 _symmetry_equiv_pos_site_id
 _symmetry_equiv_pos_as_xyz
  1  'x, y, z'
loop_
 _atom_site_type_symbol
 _atom_site_label
 _atom_site_symmetry_multiplicity
 _atom_site_fract_x
 _atom_site_fract_y
 _atom_site_fract_z
 _atom_site_occupancy
  Hg  Hg0  1  0.68898000  0.94768400  0.80375600  1
  Hg  Hg1  1  0.68898000  0.55231600  0.30375600  1
  Hg  Hg2  1  0.31102000  0.05231600  0.19624400  1
  Hg  Hg3  1  0.31102000  0.44768400  0.69624400  1
  As  As0  1  0.17864500  0.95078100  0.83873200  1
  As  As1  1  0.17864500  0.54921900  0.33873200  1
  As  As2  1  0.82135500  0.04921900  0.16126800  1
  As  As3  1  0.82135500  0.45078100  0.66126800  1
  C  C0  1  0.90853500  0.11546400  0.57301300  1
  C  C1  1  0.90853500  0.38453600  0.07301300  1
  C  C2  1  0.09146500  0.88453600  0.42698700  1
  C  C3  1  0.09146500  0.61546400  0.92698700  1
  C  C4  1  0.15285800  0.15444500  0.72221900  1
  C  C5  1  0.15285800  0.34555500  0.22221900  1
  C  C6  1  0.84714200  0.84555500  0.27778100  1
  C  C7  1  0.84714200  0.65444500  0.77778100  1
  C  C8  1  0.99216700  0.21358200  0.57384300  1
  C  C9  1  0.99216700  0.28641800  0.07384300  1
  C  C10  1  0.00783300  0.78641800  0.42615700  1
  C  C11  1  0.00783300  0.71358200  0.92615700  1
  C  C12  1  0.81058000  0.16380300  0.42507600  1
  C  C13  1  0.81058000  0.33619700  0.92507600  1
  C  C14  1  0.18942000  0.83619700  0.57492400  1
  C  C15  1  0.18942000  0.66380300  0.07492400  1
  Se  Se0  1  0.41858600  0.83746500  0.81346300  1
  Se  Se1  1  0.41858600  0.66253500  0.31346300  1
  Se  Se2  1  0.58141400  0.16253500  0.18653700  1
  Se  Se3  1  0.58141400  0.33746500  0.68653700  1
  Se  Se4  1  0.77088500  0.90863200  0.61007400  1
  Se  Se5  1  0.77088500  0.59136800  0.11007400  1
  Se  Se6  1  0.22911500  0.09136800  0.38992600  1
  Se  Se7  1  0.22911500  0.40863200  0.88992600  1
  Se  Se8  1  0.25113900  0.90662000  0.08232900  1
  Se  Se9  1  0.25113900  0.59338000  0.58232900  1
  Se  Se10  1  0.74886100  0.09338000  0.91767100  1
  Se  Se11  1  0.74886100  0.40662000  0.41767100  1
  N  N0  1  0.92715600  0.18526100  0.67374300  1
  N  N1  1  0.92715600  0.31473900  0.17374300  1
  N  N2  1  0.07284400  0.81473900  0.32625700  1
  N  N3  1  0.07284400  0.68526100  0.82625700  1
loop_
_geom_bond_atom_site_label_1
_geom_bond_atom_site_label_2
_geom_bond_distance
_geom_bond_site_symmetry_2
Hg0 Se10 2.615622 1_565
Hg0 Se4 2.623267 1_555
Hg0 Se0 2.804644 1_555
Hg0 Se8 3.149052 1_656
Hg1 Se11 2.615622 1_555
Hg1 Se5 2.623267 1_555
Hg1 Se1 2.804644 1_555
Hg1 Se9 3.149052 1_655
Hg2 Se8 2.615622 1_545
Hg2 Se6 2.623267 1_555
Hg2 Se2 2.804644 1_555
Hg2 Se10 3.149052 1_454
Hg3 Se9 2.615622 1_555
Hg3 Se7 2.623267 1_555
Hg3 Se3 2.804644 1_555
Hg3 Se11 3.149052 1_455
As0 Se4 2.359145 1_455
As0 Se8 2.381311 1_556
As0 Se0 2.759973 1_555
As1 Se5 2.359145 1_455
As1 Se9 2.381311 1_555
As1 Se1 2.759973 1_555
As2 Se6 2.359145 1_655
As2 Se10 2.381311 1_554
As2 Se2 2.759973 1_555
As3 Se7 2.359145 1_655
As3 Se11 2.381311 1_555
As3 Se3 2.759973 1_555
C0 C12 1.444807 1_555
C0 C4 1.520088 1_655
C0 N0 1.526388 1_555
C0 C8 1.753058 1_555
C1 C13 1.444807 1_554
C1 C5 1.520088 1_655
C1 N1 1.526388 1_555
C1 C9 1.753058 1_555
C2 C6 1.520088 1_455
C2 N2 1.526388 1_555
C3 C7 1.520088 1_455
C3 N3 1.526388 1_555
C4 N0 1.490602 1_455
C4 C8 1.519007 1_455
C5 N1 1.490602 1_455
C5 C9 1.519007 1_455
C6 N2 1.490602 1_655
C7 N3 1.490602 1_655
C8 N0 1.528066 1_555
C9 N1 1.528066 1_555
C10 C14 1.446033 1_555
C10 C6 1.519007 1_455
C10 N2 1.528066 1_555
C10 C2 1.753058 1_555
C11 C15 1.446033 1_556
C11 C7 1.519007 1_455
C11 N3 1.528066 1_555
C11 C3 1.753058 1_555
C12 C8 1.446033 1_555
C12 Se2 1.847168 1_555
C13 C9 1.446033 1_556
C13 Se3 1.847168 1_555
C14 C2 1.444807 1_555
C14 Se0 1.847168 1_555
C15 C3 1.444807 1_554
C15 Se1 1.847168 1_555
