# generated using pymatgen
data_VCr3GaSe8
_symmetry_space_group_name_H-M   'P 1'
_cell_length_a   7.34164165
_cell_length_b   7.34164165
_cell_length_c   7.34164103
_cell_angle_alpha   60.56719461
_cell_angle_beta   60.56719461
_cell_angle_gamma   60.56719090
_symmetry_Int_Tables_number   1
_chemical_formula_structural   VCr3GaSe8
_chemical_formula_sum   'V1 Cr3 Ga1 Se8'
_cell_volume   283.39600562
_cell_formula_units_Z   1
loop_
 _symmetry_equiv_pos_site_id
 _symmetry_equiv_pos_as_xyz
  1  'x, y, z'
loop_
 _atom_site_type_symbol
 _atom_site_label
 _atom_site_symmetry_multiplicity
 _atom_site_fract_x
 _atom_site_fract_y
 _atom_site_fract_z
 _atom_site_occupancy
  V  V0  1  0.39269100  0.39269100  0.39269100  1
  Cr  Cr0  1  0.84912300  0.38213400  0.38213400  1
  Cr  Cr1  1  0.38213400  0.84912300  0.38213400  1
  Cr  Cr2  1  0.38213400  0.38213400  0.84912300  1
  Ga  Ga0  1  0.99743000  0.99743000  0.99743000  1
  Se  Se0  1  0.13436300  0.13436300  0.13436300  1
  Se  Se1  1  0.58784100  0.13795000  0.13795000  1
  Se  Se2  1  0.13795000  0.58784100  0.13795000  1
  Se  Se3  1  0.13795000  0.13795000  0.58784100  1
  Se  Se4  1  0.61974400  0.61974400  0.61974400  1
  Se  Se5  1  0.12941100  0.62461500  0.62461500  1
  Se  Se6  1  0.62461500  0.12941100  0.62461500  1
  Se  Se7  1  0.62461500  0.62461500  0.12941100  1
loop_
_geom_bond_atom_site_label_1
_geom_bond_atom_site_label_2
_geom_bond_distance
_geom_bond_site_symmetry_2
Cr0 Se4 2.477609 1_555
Cr0 Se7 2.490785 1_555
Cr0 Se6 2.490785 1_555
Cr0 Se3 2.596425 1_655
Cr0 Se2 2.596425 1_655
Cr0 Se0 2.601467 1_655
Cr1 Se4 2.477609 1_555
Cr1 Se7 2.490785 1_555
Cr1 Se5 2.490785 1_555
Cr1 Se3 2.596425 1_565
Cr1 Se1 2.596425 1_565
Cr1 Se0 2.601467 1_565
Cr2 Se4 2.477609 1_555
Cr2 Se6 2.490785 1_555
Cr2 Se5 2.490785 1_555
Cr2 Se2 2.596425 1_556
Cr2 Se1 2.596425 1_556
Cr2 Se0 2.601467 1_556
Ga0 Se0 2.451895 1_666
Ga0 Se3 2.473705 1_665
Ga0 Se2 2.473705 1_656
Ga0 Se1 2.473705 1_566
Se1 V0 2.686788 1_555
Se2 V0 2.686788 1_555
Se3 V0 2.686788 1_555
Se5 V0 2.432020 1_555
Se6 V0 2.432020 1_555
Se7 V0 2.432020 1_555
