# generated using pymatgen
data_CaHo(SbO3)2
_symmetry_space_group_name_H-M   'P 1'
_cell_length_a   5.67014100
_cell_length_b   5.98808900
_cell_length_c   8.31548300
_cell_angle_alpha   90.00000000
_cell_angle_beta   90.00000000
_cell_angle_gamma   90.00000000
_symmetry_Int_Tables_number   1
_chemical_formula_structural   CaHo(SbO3)2
_chemical_formula_sum   'Ca2 Ho2 Sb4 O12'
_cell_volume   282.33816337
_cell_formula_units_Z   2
loop_
 _symmetry_equiv_pos_site_id
 _symmetry_equiv_pos_as_xyz
  1  'x, y, z'
loop_
 _atom_site_type_symbol
 _atom_site_label
 _atom_site_symmetry_multiplicity
 _atom_site_fract_x
 _atom_site_fract_y
 _atom_site_fract_z
 _atom_site_occupancy
  Ca  Ca0  1  0.49183700  0.19860400  0.00000000  1
  Ca  Ca1  1  0.99183700  0.80139600  0.50000000  1
  Ho  Ho0  1  0.02926100  0.68334400  0.00000000  1
  Ho  Ho1  1  0.52926100  0.31665600  0.50000000  1
  Sb  Sb0  1  0.00204800  0.24611500  0.75023700  1
  Sb  Sb1  1  0.00204800  0.24611500  0.24976300  1
  Sb  Sb2  1  0.50204800  0.75388500  0.25023700  1
  Sb  Sb3  1  0.50204800  0.75388500  0.74976300  1
  O  O0  1  0.15564500  0.18880200  0.50000000  1
  O  O1  1  0.17440100  0.92627600  0.81907300  1
  O  O2  1  0.17440100  0.92627600  0.18092700  1
  O  O3  1  0.29883800  0.45691200  0.82397100  1
  O  O4  1  0.29883800  0.45691200  0.17602900  1
  O  O5  1  0.37746100  0.67715200  0.50000000  1
  O  O6  1  0.65564500  0.81119800  0.00000000  1
  O  O7  1  0.67440100  0.07372400  0.31907300  1
  O  O8  1  0.67440100  0.07372400  0.68092700  1
  O  O9  1  0.79883800  0.54308800  0.67602900  1
  O  O10  1  0.79883800  0.54308800  0.32397100  1
  O  O11  1  0.87746100  0.32284800  0.00000000  1
loop_
_geom_bond_atom_site_label_1
_geom_bond_atom_site_label_2
_geom_bond_distance
_geom_bond_site_symmetry_2
Ca0 O11 2.309649 1_555
Ca0 O4 2.394300 1_555
Ca0 O3 2.394300 1_554
Ca0 O6 2.498853 1_545
Ca0 O1 2.856997 1_544
Ca0 O2 2.856997 1_545
Ca0 O7 2.944567 1_555
Ca0 O8 2.944567 1_554
Ca1 O5 2.309649 1_655
Ca1 O9 2.394300 1_555
Ca1 O10 2.394300 1_555
Ca1 O0 2.498853 1_665
Ca1 O7 2.856997 1_565
Ca1 O8 2.856997 1_565
Ca1 O2 2.944567 1_655
Ca1 O1 2.944567 1_655
Ho0 O2 2.248761 1_555
Ho0 O1 2.248761 1_554
Ho0 O6 2.252554 1_455
Ho0 O11 2.323954 1_455
Ho0 O3 2.513463 1_554
Ho0 O4 2.513463 1_555
Ho1 O8 2.248761 1_555
Ho1 O7 2.248761 1_555
Ho1 O0 2.252554 1_555
Ho1 O5 2.323954 1_555
Ho1 O9 2.513463 1_555
Ho1 O10 2.513463 1_555
O0 Sb1 2.281706 1_555
O0 Sb0 2.281706 1_555
O1 Sb3 2.202099 1_555
O1 Sb0 2.225035 1_565
O2 Sb2 2.202099 1_555
O2 Sb1 2.225035 1_565
O3 Sb0 2.191168 1_555
O3 Sb3 2.206982 1_555
O4 Sb1 2.191168 1_555
O4 Sb2 2.206982 1_555
O5 Sb3 2.241356 1_555
O5 Sb2 2.241356 1_555
O6 Sb2 2.281706 1_555
O6 Sb3 2.281706 1_554
O7 Sb1 2.202099 1_655
O7 Sb2 2.225035 1_545
O8 Sb0 2.202099 1_655
O8 Sb3 2.225035 1_545
O9 Sb3 2.191168 1_555
O9 Sb0 2.206982 1_655
O10 Sb2 2.191168 1_555
O10 Sb1 2.206982 1_655
O11 Sb0 2.241356 1_654
O11 Sb1 2.241356 1_655
