# generated using pymatgen
data_AlSbO3
_symmetry_space_group_name_H-M   'P 1'
_cell_length_a   5.50321717
_cell_length_b   5.11810450
_cell_length_c   11.53031070
_cell_angle_alpha   90.04020737
_cell_angle_beta   89.91727264
_cell_angle_gamma   90.07938599
_symmetry_Int_Tables_number   1
_chemical_formula_structural   AlSbO3
_chemical_formula_sum   'Al4 Sb4 O12'
_cell_volume   324.76246933
_cell_formula_units_Z   4
loop_
 _symmetry_equiv_pos_site_id
 _symmetry_equiv_pos_as_xyz
  1  'x, y, z'
loop_
 _atom_site_type_symbol
 _atom_site_label
 _atom_site_symmetry_multiplicity
 _atom_site_fract_x
 _atom_site_fract_y
 _atom_site_fract_z
 _atom_site_occupancy
  Al  Al0  1  0.90202500  0.00249300  0.73764200  1
  Al  Al1  1  0.42824800  0.49869500  0.26274700  1
  Al  Al2  1  0.57179200  0.50166400  0.76151500  1
  Al  Al3  1  0.09819400  0.99743500  0.23896700  1
  Sb  Sb0  1  0.05698100  0.51001700  0.56551400  1
  Sb  Sb1  1  0.58131500  0.99166600  0.43518000  1
  Sb  Sb2  1  0.41800600  0.00905500  0.93375000  1
  Sb  Sb3  1  0.94456900  0.48956700  0.06693300  1
  O  O0  1  0.47356300  0.34880100  0.39882500  1
  O  O1  1  0.94399000  0.15275500  0.60058100  1
  O  O2  1  0.05764100  0.84678200  0.10184100  1
  O  O3  1  0.52601600  0.65179800  0.89764800  1
  O  O4  1  0.33810500  0.52294100  0.66285600  1
  O  O5  1  0.86357100  0.97469200  0.33723100  1
  O  O6  1  0.13507100  0.02437600  0.83653300  1
  O  O7  1  0.66162700  0.47693900  0.16353100  1
  O  O8  1  0.16611400  0.33369800  0.20163500  1
  O  O9  1  0.64030400  0.16615500  0.79775100  1
  O  O10  1  0.35918100  0.83404500  0.29931900  1
  O  O11  1  0.83368800  0.66642900  0.70000300  1
loop_
_geom_bond_atom_site_label_1
_geom_bond_atom_site_label_2
_geom_bond_distance
_geom_bond_site_symmetry_2
Al0 O6 1.720802 1_655
Al0 O1 1.772700 1_555
Al0 O9 1.804473 1_555
Al0 O11 1.812690 1_545
Al1 O7 1.722384 1_555
Al1 O0 1.765198 1_555
Al1 O10 1.807898 1_555
Al1 O8 1.813674 1_555
Al2 O4 1.721796 1_555
Al2 O3 1.765056 1_555
Al2 O9 1.807942 1_555
Al2 O11 1.812718 1_555
Al3 O5 1.720455 1_455
Al3 O2 1.772868 1_555
Al3 O10 1.803733 1_555
Al3 O8 1.812659 1_565
O0 Sb1 1.968043 1_545
O1 Sb0 1.972493 1_655
O2 Sb3 1.971877 1_455
O3 Sb2 1.967525 1_565
O4 Sb0 1.913694 1_555
O5 Sb1 1.921201 1_555
O6 Sb2 1.921608 1_555
O7 Sb3 1.914180 1_555
O8 Sb3 2.131919 1_455
O9 Sb2 2.143729 1_555
O10 Sb1 2.144806 1_555
O11 Sb0 2.133314 1_655
