# generated using pymatgen
data_CrCoNF6
_symmetry_space_group_name_H-M   'P 1'
_cell_length_a   7.09907980
_cell_length_b   7.09907980
_cell_length_c   7.09907980
_cell_angle_alpha   121.54724862
_cell_angle_beta   119.00281642
_cell_angle_gamma   89.53852770
_symmetry_Int_Tables_number   1
_chemical_formula_structural   CrCoNF6
_chemical_formula_sum   'Cr2 Co2 N2 F12'
_cell_volume   251.76553779
_cell_formula_units_Z   2
loop_
 _symmetry_equiv_pos_site_id
 _symmetry_equiv_pos_as_xyz
  1  'x, y, z'
loop_
 _atom_site_type_symbol
 _atom_site_label
 _atom_site_symmetry_multiplicity
 _atom_site_fract_x
 _atom_site_fract_y
 _atom_site_fract_z
 _atom_site_occupancy
  Cr  Cr0  1  0.00000000  0.00000000  0.00000000  1
  Cr  Cr1  1  0.50000000  0.00000000  0.50000000  1
  Co  Co0  1  0.00000000  0.00000000  0.50000000  1
  Co  Co1  1  0.00000000  0.50000000  0.00000000  1
  N  N0  1  0.12338100  0.87338100  0.25000000  1
  N  N1  1  0.87661900  0.12661900  0.75000000  1
  F  F0  1  0.33877300  0.08877300  0.25000000  1
  F  F1  1  0.90315700  0.65315700  0.25000000  1
  F  F2  1  0.34888100  0.65858800  0.25725200  1
  F  F3  1  0.90133700  0.09162900  0.24274800  1
  F  F4  1  0.34888100  0.09162900  0.69029200  1
  F  F5  1  0.90133700  0.65858800  0.80970800  1
  F  F6  1  0.66122700  0.91122700  0.75000000  1
  F  F7  1  0.09684300  0.34684300  0.75000000  1
  F  F8  1  0.65111900  0.34141200  0.74274800  1
  F  F9  1  0.09866300  0.90837100  0.75725200  1
  F  F10  1  0.65111900  0.90837100  0.30970800  1
  F  F11  1  0.09866300  0.34141200  0.19029200  1
loop_
_geom_bond_atom_site_label_1
_geom_bond_atom_site_label_2
_geom_bond_distance
_geom_bond_site_symmetry_2
Cr0 F3 1.968136 1_455
Cr0 F9 1.968136 1_544
Cr0 F11 1.968142 1_555
Cr0 F5 1.968142 1_444
Cr0 F6 2.011455 1_444
Cr0 F0 2.011455 1_555
Cr0 N1 2.207762 1_454
Cr0 N0 2.207762 1_545
Cr1 F10 1.968136 1_545
Cr1 F4 1.968136 1_555
Cr1 F8 1.968142 1_555
Cr1 F2 1.968142 1_545
Cr1 F0 2.011455 1_555
Cr1 F6 2.011455 1_545
Cr1 N1 2.207762 1_555
Cr1 N0 2.207762 1_545
Co0 F7 1.989111 1_555
Co0 F1 1.989111 1_445
Co0 F9 2.060158 1_545
Co0 F3 2.060158 1_455
Co0 F10 2.060158 1_445
Co0 F4 2.060158 1_555
Co0 N0 2.133161 1_545
Co0 N1 2.133161 1_455
Co1 F1 1.989111 1_455
Co1 F7 1.989111 1_554
Co1 F5 2.060152 1_454
Co1 F11 2.060152 1_555
Co1 F8 2.060157 1_454
Co1 F2 2.060157 1_555
Co1 N0 2.133161 1_555
Co1 N1 2.133161 1_454
