# generated using pymatgen
data_Zr3N
_symmetry_space_group_name_H-M   'P 1'
_cell_length_a   5.57078200
_cell_length_b   5.57078200
_cell_length_c   5.57078200
_cell_angle_alpha   139.18004749
_cell_angle_beta   139.18004749
_cell_angle_gamma   59.10042220
_symmetry_Int_Tables_number   1
_chemical_formula_structural   Zr3N
_chemical_formula_sum   'Zr3 N1'
_cell_volume   73.16129441
_cell_formula_units_Z   1
loop_
 _symmetry_equiv_pos_site_id
 _symmetry_equiv_pos_as_xyz
  1  'x, y, z'
loop_
 _atom_site_type_symbol
 _atom_site_label
 _atom_site_symmetry_multiplicity
 _atom_site_fract_x
 _atom_site_fract_y
 _atom_site_fract_z
 _atom_site_occupancy
  Zr  Zr0  1  0.75000100  0.25000000  0.50000100  1
  Zr  Zr1  1  0.25000000  0.75000100  0.50000100  1
  Zr  Zr2  1  0.50000000  0.50000000  0.00000000  1
  N  N0  1  0.00000000  0.00000000  0.00000000  1
loop_
_geom_bond_atom_site_label_1
_geom_bond_atom_site_label_2
_geom_bond_distance
_geom_bond_site_symmetry_2
Zr0 Zr1 2.747427 1_645
Zr0 Zr1 2.747432 1_656
Zr0 Zr1 2.747432 1_544
Zr0 Zr1 2.747438 1_555
Zr0 Zr2 3.105718 1_656
Zr0 Zr2 3.105720 1_556
Zr0 Zr2 3.105720 1_545
Zr0 Zr2 3.105723 1_555
Zr1 Zr2 3.105718 1_566
Zr1 Zr2 3.105720 1_556
Zr1 Zr2 3.105720 1_455
Zr1 Zr2 3.105723 1_555
N0 Zr2 2.747432 1_545
N0 Zr2 2.747432 1_455
N0 Zr2 2.747432 1_556
N0 Zr2 2.747432 1_444
N0 Zr0 3.105718 1_454
N0 Zr1 3.105718 1_544
N0 Zr0 3.105720 1_455
N0 Zr0 3.105720 1_444
N0 Zr1 3.105720 1_545
N0 Zr1 3.105720 1_444
N0 Zr0 3.105723 1_555
N0 Zr1 3.105723 1_555
