# generated using pymatgen
data_CaFe6(OF2)4
_symmetry_space_group_name_H-M   'P 1'
_cell_length_a   7.75981791
_cell_length_b   5.87898072
_cell_length_c   5.89146777
_cell_angle_alpha   69.68013576
_cell_angle_beta   73.76243423
_cell_angle_gamma   73.71674768
_symmetry_Int_Tables_number   1
_chemical_formula_structural   CaFe6(OF2)4
_chemical_formula_sum   'Ca1 Fe6 O4 F8'
_cell_volume   236.92105892
_cell_formula_units_Z   1
loop_
 _symmetry_equiv_pos_site_id
 _symmetry_equiv_pos_as_xyz
  1  'x, y, z'
loop_
 _atom_site_type_symbol
 _atom_site_label
 _atom_site_symmetry_multiplicity
 _atom_site_fract_x
 _atom_site_fract_y
 _atom_site_fract_z
 _atom_site_occupancy
  Ca  Ca0  1  0.50586300  0.23731700  0.77258400  1
  Fe  Fe0  1  0.85274800  0.63302300  0.65152800  1
  Fe  Fe1  1  0.70577300  0.31881300  0.23805200  1
  Fe  Fe2  1  0.27288900  0.79372800  0.69167200  1
  Fe  Fe3  1  0.14945100  0.35003000  0.36313900  1
  Fe  Fe4  1  0.49991500  0.79763100  0.19427000  1
  Fe  Fe5  1  0.99513600  0.99476600  0.01944700  1
  O  O0  1  0.32515500  0.02805300  0.37690000  1
  O  O1  1  0.66847400  0.61409900  0.96155800  1
  O  O2  1  0.00356300  0.29495900  0.70220800  1
  O  O3  1  0.00665400  0.69125600  0.31355900  1
  F  F0  1  0.69764300  0.01177100  0.53332500  1
  F  F1  1  0.29691400  0.48059800  0.97313500  1
  F  F2  1  0.31605600  0.96315800  0.92325800  1
  F  F3  1  0.98213700  0.24748000  0.21691100  1
  F  F4  1  0.66062600  0.54086800  0.49404600  1
  F  F5  1  0.00311800  0.78262800  0.76973000  1
  F  F6  1  0.37166400  0.46135000  0.42592200  1
  F  F7  1  0.68622300  0.08138700  0.05584100  1
loop_
_geom_bond_atom_site_label_1
_geom_bond_atom_site_label_2
_geom_bond_distance
_geom_bond_site_symmetry_2
Ca0 F1 2.207364 1_555
Ca0 F0 2.231200 1_555
Ca0 F7 2.260139 1_556
Ca0 F2 2.271897 1_545
Ca0 F4 2.320694 1_555
Ca0 F6 2.354225 1_555
Fe0 O1 1.969961 1_555
Fe0 O2 1.971736 1_655
Fe0 O3 1.983460 1_655
Fe1 O1 1.941343 1_554
Fe2 O0 1.902552 1_565
Fe3 O3 1.965949 1_555
Fe3 O2 1.966856 1_555
Fe3 O0 1.989107 1_555
Fe4 O1 1.996956 1_554
Fe4 O0 1.999478 1_565
Fe5 O3 2.010996 1_655
Fe5 O2 2.077878 1_664
F0 Fe1 2.027344 1_555
F0 Fe0 2.186437 1_545
F1 Fe2 2.008399 1_555
F1 Fe3 2.230530 1_556
F2 Fe2 2.086258 1_555
F2 Fe4 2.224424 1_556
F2 Fe5 2.362539 1_456
F3 Fe1 2.042788 1_555
F3 Fe3 2.053409 1_655
F3 Fe5 2.149794 1_545
F4 Fe1 2.217437 1_555
F4 Fe0 2.225421 1_555
F4 Fe4 2.297288 1_555
F5 Fe0 2.018749 1_455
F5 Fe2 2.028631 1_555
F5 Fe5 2.214430 1_456
F6 Fe3 2.167042 1_555
F6 Fe4 2.287215 1_555
F6 Fe1 2.543627 1_555
F7 Fe1 2.091461 1_555
F7 Fe5 2.270526 1_545
F7 Fe4 2.299187 1_545
