# generated using pymatgen
data_K2Cd3Se4
_symmetry_space_group_name_H-M   'P 1'
_cell_length_a   6.90899886
_cell_length_b   10.70660542
_cell_length_c   14.40546863
_cell_angle_alpha   90.00000000
_cell_angle_beta   90.00000000
_cell_angle_gamma   90.00000000
_symmetry_Int_Tables_number   1
_chemical_formula_structural   K2Cd3Se4
_chemical_formula_sum   'K8 Cd12 Se16'
_cell_volume   1065.60023992
_cell_formula_units_Z   4
loop_
 _symmetry_equiv_pos_site_id
 _symmetry_equiv_pos_as_xyz
  1  'x, y, z'
loop_
 _atom_site_type_symbol
 _atom_site_label
 _atom_site_symmetry_multiplicity
 _atom_site_fract_x
 _atom_site_fract_y
 _atom_site_fract_z
 _atom_site_occupancy
  K  K0  1  0.50000000  -0.00000000  0.50000000  1
  K  K1  1  -0.00000000  0.50000000  -0.00000000  1
  K  K2  1  0.50000000  0.50000000  0.50000000  1
  K  K3  1  -0.00000000  -0.00000000  -0.00000000  1
  K  K4  1  0.01992529  0.75000000  0.53319564  1
  K  K5  1  0.48007471  0.75000000  0.03319564  1
  K  K6  1  0.98007471  0.25000000  0.46680436  1
  K  K7  1  0.51992529  0.25000000  0.96680436  1
  Cd  Cd0  1  0.72796105  0.75000000  0.29689737  1
  Cd  Cd1  1  0.77203895  0.75000000  0.79689737  1
  Cd  Cd2  1  0.27203895  0.25000000  0.70310263  1
  Cd  Cd3  1  0.22796105  0.25000000  0.20310263  1
  Cd  Cd4  1  0.16307281  0.90613407  0.24655253  1
  Cd  Cd5  1  0.33692719  0.59386593  0.74655253  1
  Cd  Cd6  1  0.83692719  0.40613407  0.75344747  1
  Cd  Cd7  1  0.66307281  0.09386593  0.25344747  1
  Cd  Cd8  1  0.83692719  0.09386593  0.75344747  1
  Cd  Cd9  1  0.66307281  0.40613407  0.25344747  1
  Cd  Cd10  1  0.16307281  0.59386593  0.24655253  1
  Cd  Cd11  1  0.33692719  0.90613407  0.74655253  1
  Se  Se0  1  0.93071140  0.75000000  0.13857579  1
  Se  Se1  1  0.56928860  0.75000000  0.63857579  1
  Se  Se2  1  0.06928860  0.25000000  0.86142421  1
  Se  Se3  1  0.43071140  0.25000000  0.36142421  1
  Se  Se4  1  0.37001851  0.75000000  0.35567779  1
  Se  Se5  1  0.12998149  0.75000000  0.85567779  1
  Se  Se6  1  0.62998149  0.25000000  0.64432221  1
  Se  Se7  1  0.87001851  0.25000000  0.14432221  1
  Se  Se8  1  0.88620085  0.96795259  0.36709129  1
  Se  Se9  1  0.61379915  0.53204741  0.86709129  1
  Se  Se10  1  0.11379915  0.46795259  0.63290871  1
  Se  Se11  1  0.38620085  0.03204741  0.13290871  1
  Se  Se12  1  0.11379915  0.03204741  0.63290871  1
  Se  Se13  1  0.38620085  0.46795259  0.13290871  1
  Se  Se14  1  0.88620085  0.53204741  0.36709129  1
  Se  Se15  1  0.61379915  0.96795259  0.86709129  1
loop_
_geom_bond_atom_site_label_1
_geom_bond_atom_site_label_2
_geom_bond_distance
_geom_bond_site_symmetry_2
K0 Se8 3.301983 1_545
K0 Se12 3.301983 1_555
K0 Se1 3.373224 1_545
K0 Se3 3.373224 1_555
K0 Se6 3.506181 1_555
K0 Se4 3.506181 1_545
K1 Se13 3.301983 1_555
K1 Se9 3.301983 1_454
K1 Se2 3.373224 1_554
K1 Se0 3.373224 1_455
K1 Se7 3.506181 1_455
K1 Se5 3.506181 1_554
K2 Se10 3.301983 1_555
K2 Se14 3.301983 1_555
K2 Se1 3.373224 1_555
K2 Se3 3.373224 1_555
K2 Se6 3.506181 1_555
K2 Se4 3.506181 1_555
K3 Se11 3.301983 1_555
K3 Se15 3.301983 1_444
K3 Se2 3.373224 1_554
K3 Se0 3.373224 1_445
K3 Se7 3.506181 1_455
K3 Se5 3.506181 1_544
K4 Se10 3.406310 1_555
K4 Se12 3.406310 1_565
K4 Se1 3.463818 1_455
K4 Se14 3.467638 1_455
K4 Se8 3.467638 1_455
K4 Se4 3.519940 1_555
K5 Se13 3.406310 1_555
K5 Se11 3.406310 1_565
K5 Se0 3.463818 1_555
K5 Se15 3.467638 1_554
K5 Se9 3.467638 1_554
K5 Se5 3.519940 1_554
K6 Se14 3.406310 1_555
K6 Se8 3.406310 1_545
K6 Se3 3.463818 1_655
K6 Se10 3.467638 1_655
K6 Se12 3.467638 1_655
K6 Se6 3.519940 1_555
K7 Se15 3.406310 1_545
K7 Se9 3.406310 1_555
K7 Se2 3.463818 1_555
K7 Se13 3.467638 1_556
K7 Se11 3.467638 1_556
K7 Se7 3.519940 1_556
Cd0 Se4 2.613973 1_555
Cd0 Se0 2.676532 1_555
Cd0 Se8 2.768232 1_555
Cd0 Se14 2.768232 1_555
Cd1 Se5 2.613973 1_655
Cd1 Se1 2.676532 1_555
Cd1 Se9 2.768232 1_555
Cd1 Se15 2.768232 1_555
Cd2 Se6 2.613973 1_555
Cd2 Se2 2.676532 1_555
Cd2 Se10 2.768232 1_555
Cd2 Se12 2.768232 1_555
Cd3 Se7 2.613973 1_455
Cd3 Se3 2.676532 1_555
Cd3 Se11 2.768232 1_555
Cd3 Se13 2.768232 1_555
Cd4 Se11 2.621824 1_565
Cd4 Se8 2.666914 1_455
Cd4 Se4 2.703691 1_555
Cd4 Se0 2.791267 1_455
Cd5 Se10 2.621824 1_555
Cd5 Se9 2.666914 1_555
Cd5 Se5 2.703691 1_555
Cd5 Se1 2.791267 1_555
Cd6 Se9 2.621824 1_555
Cd6 Se10 2.666914 1_655
Cd6 Se6 2.703691 1_555
Cd6 Se2 2.791267 1_655
Cd7 Se8 2.621824 1_545
Cd7 Se11 2.666914 1_555
Cd7 Se7 2.703691 1_555
Cd7 Se3 2.791267 1_555
Cd8 Se15 2.621824 1_545
Cd8 Se12 2.666914 1_655
Cd8 Se6 2.703691 1_555
Cd8 Se2 2.791267 1_655
Cd9 Se14 2.621824 1_555
Cd9 Se13 2.666914 1_555
Cd9 Se7 2.703691 1_555
Cd9 Se3 2.791267 1_555
Cd10 Se13 2.621824 1_555
Cd10 Se14 2.666914 1_455
Cd10 Se4 2.703691 1_555
Cd10 Se0 2.791267 1_455
Cd11 Se12 2.621824 1_565
Cd11 Se15 2.666914 1_555
Cd11 Se5 2.703691 1_555
Cd11 Se1 2.791267 1_555
