# generated using pymatgen
data_Mg2Nb2CoO8
_symmetry_space_group_name_H-M   'P 1'
_cell_length_a   10.03509414
_cell_length_b   10.03509414
_cell_length_c   5.20126079
_cell_angle_alpha   89.92583054
_cell_angle_beta   89.92583054
_cell_angle_gamma   35.01106337
_symmetry_Int_Tables_number   1
_chemical_formula_structural   Mg2Nb2CoO8
_chemical_formula_sum   'Mg4 Nb4 Co2 O16'
_cell_volume   300.51224390
_cell_formula_units_Z   2
loop_
 _symmetry_equiv_pos_site_id
 _symmetry_equiv_pos_as_xyz
  1  'x, y, z'
loop_
 _atom_site_type_symbol
 _atom_site_label
 _atom_site_symmetry_multiplicity
 _atom_site_fract_x
 _atom_site_fract_y
 _atom_site_fract_z
 _atom_site_occupancy
  Mg  Mg0  1  0.58598800  0.87075600  0.24594700  1
  Mg  Mg1  1  0.12924400  0.41401200  0.25405300  1
  Mg  Mg2  1  0.41401200  0.12924400  0.75405300  1
  Mg  Mg3  1  0.87075600  0.58598800  0.74594700  1
  Nb  Nb0  1  0.71619600  0.05297500  0.25672200  1
  Nb  Nb1  1  0.94702500  0.28380400  0.24327800  1
  Nb  Nb2  1  0.28380400  0.94702500  0.74327800  1
  Nb  Nb3  1  0.05297500  0.71619600  0.75672200  1
  Co  Co0  1  0.35273400  0.64726600  0.25000000  1
  Co  Co1  1  0.64726600  0.35273400  0.75000000  1
  O  O0  1  0.81591300  0.04270800  0.91765700  1
  O  O1  1  0.95729200  0.18408700  0.58234300  1
  O  O2  1  0.18408700  0.95729200  0.08234300  1
  O  O3  1  0.04270800  0.81591300  0.41765700  1
  O  O4  1  0.56951500  0.31530300  0.41447400  1
  O  O5  1  0.68469700  0.43048500  0.08552600  1
  O  O6  1  0.43048500  0.68469700  0.58552600  1
  O  O7  1  0.31530300  0.56951500  0.91447400  1
  O  O8  1  0.70774100  0.91733500  0.54103600  1
  O  O9  1  0.08266500  0.29225900  0.95896400  1
  O  O10  1  0.16363300  0.45465000  0.61541800  1
  O  O11  1  0.54535000  0.83636700  0.88458200  1
  O  O12  1  0.83636700  0.54535000  0.38458200  1
  O  O13  1  0.45465000  0.16363300  0.11541800  1
  O  O14  1  0.91733500  0.70774100  0.04103600  1
  O  O15  1  0.29225900  0.08266500  0.45896400  1
loop_
_geom_bond_atom_site_label_1
_geom_bond_atom_site_label_2
_geom_bond_distance
_geom_bond_site_symmetry_2
Mg0 O11 2.013036 1_554
Mg0 O12 2.013668 1_555
Mg0 O15 2.041549 1_565
Mg0 O13 2.118453 1_565
Mg0 O8 2.238131 1_555
Mg0 O14 2.439954 1_555
Mg1 O10 2.013036 1_555
Mg1 O13 2.013668 1_555
Mg1 O14 2.041549 1_455
Mg1 O12 2.118453 1_455
Mg1 O9 2.238131 1_554
Mg1 O15 2.439954 1_555
Mg2 O13 2.013036 1_556
Mg2 O10 2.013668 1_555
Mg2 O8 2.041549 1_545
Mg2 O11 2.118453 1_545
Mg2 O15 2.238131 1_555
Mg2 O9 2.439954 1_555
Mg3 O12 2.013036 1_555
Mg3 O11 2.013668 1_555
Mg3 O9 2.041549 1_655
Mg3 O10 2.118453 1_655
Mg3 O14 2.238131 1_556
Mg3 O8 2.439954 1_555
Nb0 O4 1.850655 1_555
Nb0 O13 1.972462 1_555
Nb0 O0 1.987243 1_554
Nb0 O8 2.056800 1_545
Nb0 O3 2.080732 1_645
Nb0 O14 2.425796 1_545
Nb1 O5 1.850655 1_555
Nb1 O12 1.972462 1_555
Nb1 O1 1.987243 1_555
Nb1 O9 2.056800 1_654
Nb1 O2 2.080732 1_645
Nb1 O15 2.425796 1_655
Nb2 O6 1.850655 1_555
Nb2 O11 1.972462 1_555
Nb2 O2 1.987243 1_556
Nb2 O15 2.056800 1_565
Nb2 O1 2.080732 1_465
Nb2 O9 2.425796 1_565
Nb3 O7 1.850655 1_555
Nb3 O10 1.972462 1_555
Nb3 O3 1.987243 1_555
Nb3 O14 2.056800 1_456
Nb3 O0 2.080732 1_465
Nb3 O8 2.425796 1_455
Co0 O7 2.068997 1_554
Co0 O6 2.068997 1_555
Co0 O3 2.162331 1_555
Co0 O2 2.162331 1_555
Co0 O5 2.165197 1_555
Co0 O4 2.165197 1_555
Co1 O4 2.068997 1_555
Co1 O5 2.068997 1_556
Co1 O0 2.162331 1_555
Co1 O1 2.162331 1_555
Co1 O7 2.165197 1_555
Co1 O6 2.165197 1_555
