# generated using pymatgen
data_Sr2GdCu2HgO7
_symmetry_space_group_name_H-M   'P 1'
_cell_length_a   3.83833600
_cell_length_b   3.83833600
_cell_length_c   12.20135100
_cell_angle_alpha   90.00000000
_cell_angle_beta   90.00000000
_cell_angle_gamma   90.00000000
_symmetry_Int_Tables_number   1
_chemical_formula_structural   Sr2GdCu2HgO7
_chemical_formula_sum   'Sr2 Gd1 Cu2 Hg1 O7'
_cell_volume   179.76034768
_cell_formula_units_Z   1
loop_
 _symmetry_equiv_pos_site_id
 _symmetry_equiv_pos_as_xyz
  1  'x, y, z'
loop_
 _atom_site_type_symbol
 _atom_site_label
 _atom_site_symmetry_multiplicity
 _atom_site_fract_x
 _atom_site_fract_y
 _atom_site_fract_z
 _atom_site_occupancy
  Sr  Sr0  1  0.50000000  0.50000000  0.19893600  1
  Sr  Sr1  1  0.50000000  0.50000000  0.80106400  1
  Gd  Gd0  1  0.50000000  0.50000000  0.50000000  1
  Cu  Cu0  1  0.00000000  0.00000000  0.35571000  1
  Cu  Cu1  1  0.00000000  0.00000000  0.64429000  1
  Hg  Hg0  1  0.00000000  0.00000000  0.00000000  1
  O  O0  1  0.00000000  0.00000000  0.17501900  1
  O  O1  1  0.00000000  0.00000000  0.82498100  1
  O  O2  1  0.00000000  0.50000000  0.37929300  1
  O  O3  1  0.00000000  0.50000000  0.62070700  1
  O  O4  1  0.50000000  0.00000000  0.37929300  1
  O  O5  1  0.50000000  0.00000000  0.62070700  1
  O  O6  1  0.50000000  0.50000000  0.00000000  1
loop_
_geom_bond_atom_site_label_1
_geom_bond_atom_site_label_2
_geom_bond_distance
_geom_bond_site_symmetry_2
Gd0 O4 2.419155 1_555
Gd0 O5 2.419155 1_555
Gd0 O4 2.419155 1_565
Gd0 O2 2.419155 1_555
Gd0 O5 2.419155 1_565
Gd0 O2 2.419155 1_655
Gd0 O3 2.419155 1_555
Gd0 O3 2.419155 1_655
Cu0 O4 1.940619 1_455
Cu0 O2 1.940619 1_545
Cu0 O4 1.940619 1_555
Cu0 O2 1.940619 1_555
Cu0 O0 2.204674 1_555
Cu1 O5 1.940619 1_455
Cu1 O3 1.940619 1_545
Cu1 O5 1.940619 1_555
Cu1 O3 1.940619 1_555
Cu1 O1 2.204674 1_555
Hg0 O0 2.135468 1_555
Hg0 O1 2.135468 1_554
O0 Sr0 2.729756 1_545
O0 Sr0 2.729756 1_455
O0 Sr0 2.729756 1_555
O0 Sr0 2.729756 1_445
O1 Sr1 2.729756 1_545
O1 Sr1 2.729756 1_455
O1 Sr1 2.729756 1_555
O1 Sr1 2.729756 1_445
O2 Sr0 2.919904 1_555
O2 Sr0 2.919904 1_455
O3 Sr1 2.919904 1_455
O3 Sr1 2.919904 1_555
O4 Sr0 2.919904 1_555
O4 Sr0 2.919904 1_545
O5 Sr1 2.919904 1_555
O5 Sr1 2.919904 1_545
O6 Sr0 2.427288 1_555
O6 Sr1 2.427288 1_554
