# generated using pymatgen
data_HoFe3(BO3)4
_symmetry_space_group_name_H-M   'P 1'
_cell_length_a   6.12574564
_cell_length_b   6.12574564
_cell_length_c   6.12574584
_cell_angle_alpha   103.96283359
_cell_angle_beta   103.96283359
_cell_angle_gamma   103.96283425
_symmetry_Int_Tables_number   1
_chemical_formula_structural   HoFe3(BO3)4
_chemical_formula_sum   'Ho1 Fe3 B4 O12'
_cell_volume   205.24404285
_cell_formula_units_Z   1
loop_
 _symmetry_equiv_pos_site_id
 _symmetry_equiv_pos_as_xyz
  1  'x, y, z'
loop_
 _atom_site_type_symbol
 _atom_site_label
 _atom_site_symmetry_multiplicity
 _atom_site_fract_x
 _atom_site_fract_y
 _atom_site_fract_z
 _atom_site_occupancy
  Ho  Ho0  1  0.50000000  0.50000000  0.50000000  1
  Fe  Fe0  1  0.04728300  0.95271700  0.50000000  1
  Fe  Fe1  1  0.95271700  0.50000000  0.04728300  1
  Fe  Fe2  1  0.50000000  0.04728300  0.95271700  1
  B  B0  1  0.45203700  0.54796300  0.00000000  1
  B  B1  1  0.54796300  0.00000000  0.45203700  1
  B  B2  1  0.00000000  0.45203700  0.54796300  1
  B  B3  1  0.00000000  0.00000000  0.00000000  1
  O  O0  1  0.29882100  0.52556800  0.13276700  1
  O  O1  1  0.52556800  0.13276700  0.29882100  1
  O  O2  1  0.70117900  0.86723300  0.47443200  1
  O  O3  1  0.13276700  0.29882100  0.52556800  1
  O  O4  1  0.47443200  0.70117900  0.86723300  1
  O  O5  1  0.86723300  0.47443200  0.70117900  1
  O  O6  1  0.85651100  0.14348900  0.00000000  1
  O  O7  1  0.14348900  0.00000000  0.85651100  1
  O  O8  1  0.00000000  0.85651100  0.14348900  1
  O  O9  1  0.59524200  0.40475800  0.00000000  1
  O  O10  1  0.40475800  0.00000000  0.59524200  1
  O  O11  1  0.00000000  0.59524200  0.40475800  1
loop_
_geom_bond_atom_site_label_1
_geom_bond_atom_site_label_2
_geom_bond_distance
_geom_bond_site_symmetry_2
Ho0 O2 2.351418 1_555
Ho0 O3 2.351418 1_555
Ho0 O1 2.351418 1_555
Ho0 O5 2.351418 1_555
Ho0 O0 2.351418 1_555
Ho0 O4 2.351418 1_555
Fe0 O3 2.014486 1_565
Fe0 O2 2.014486 1_455
Fe0 O8 2.047405 1_555
Fe0 O7 2.047405 1_565
Fe0 O10 2.053126 1_565
Fe0 O11 2.053126 1_555
Fe1 O0 2.014486 1_655
Fe1 O5 2.014486 1_554
Fe1 O6 2.047404 1_555
Fe1 O8 2.047404 1_655
Fe1 O9 2.053126 1_555
Fe1 O11 2.053127 1_655
Fe2 O4 2.014486 1_545
Fe2 O1 2.014486 1_556
Fe2 O6 2.047404 1_556
Fe2 O7 2.047404 1_555
Fe2 O9 2.053126 1_556
Fe2 O10 2.053127 1_555
B0 O9 1.382195 1_555
B0 O4 1.386091 1_554
B0 O0 1.386091 1_555
B1 O10 1.382195 1_555
B1 O2 1.386091 1_545
B1 O1 1.386091 1_555
B2 O11 1.382195 1_555
B2 O3 1.386091 1_555
B2 O5 1.386091 1_455
B3 O6 1.384936 1_455
B3 O8 1.384936 1_545
B3 O7 1.384936 1_554
