# generated using pymatgen
data_Ba7Fe7F34
_symmetry_space_group_name_H-M   'P 1'
_cell_length_a   10.39911559
_cell_length_b   10.39911559
_cell_length_c   7.92941447
_cell_angle_alpha   79.71572601
_cell_angle_beta   79.71572601
_cell_angle_gamma   67.51103908
_symmetry_Int_Tables_number   1
_chemical_formula_structural   Ba7Fe7F34
_chemical_formula_sum   'Ba7 Fe7 F34'
_cell_volume   773.80770581
_cell_formula_units_Z   1
loop_
 _symmetry_equiv_pos_site_id
 _symmetry_equiv_pos_as_xyz
  1  'x, y, z'
loop_
 _atom_site_type_symbol
 _atom_site_label
 _atom_site_symmetry_multiplicity
 _atom_site_fract_x
 _atom_site_fract_y
 _atom_site_fract_z
 _atom_site_occupancy
  Ba  Ba0  1  0.44963000  0.83961500  0.20025300  1
  Ba  Ba1  1  0.55037000  0.16038500  0.79974700  1
  Ba  Ba2  1  0.16038500  0.55037000  0.79974700  1
  Ba  Ba3  1  0.83961500  0.44963000  0.20025300  1
  Ba  Ba4  1  0.00000000  0.00000000  0.50000000  1
  Ba  Ba5  1  0.73840300  0.73840300  0.61529300  1
  Ba  Ba6  1  0.26159700  0.26159700  0.38470700  1
  Fe  Fe0  1  0.64758500  0.13748200  0.29973300  1
  Fe  Fe1  1  0.35241500  0.86251800  0.70026700  1
  Fe  Fe2  1  0.86251800  0.35241500  0.70026700  1
  Fe  Fe3  1  0.13748200  0.64758500  0.29973300  1
  Fe  Fe4  1  0.83482000  0.83482000  0.03971400  1
  Fe  Fe5  1  0.16518000  0.16518000  0.96028600  1
  Fe  Fe6  1  0.50000000  0.50000000  0.00000000  1
  F  F0  1  0.21923600  0.78446300  0.30394100  1
  F  F1  1  0.78076400  0.21553700  0.69605900  1
  F  F2  1  0.21553700  0.78076400  0.69605900  1
  F  F3  1  0.78446300  0.21923600  0.30394100  1
  F  F4  1  0.73846000  0.99798700  0.48862100  1
  F  F5  1  0.26154000  0.00201300  0.51137900  1
  F  F6  1  0.00201300  0.26154000  0.51137900  1
  F  F7  1  0.99798700  0.73846000  0.48862100  1
  F  F8  1  0.89768300  0.89768300  0.80746000  1
  F  F9  1  0.10231700  0.10231700  0.19254000  1
  F  F10  1  0.34821100  0.11116200  0.04329800  1
  F  F11  1  0.65178900  0.88883800  0.95670200  1
  F  F12  1  0.88883800  0.65178900  0.95670200  1
  F  F13  1  0.11116200  0.34821100  0.04329800  1
  F  F14  1  0.77604200  0.02084000  0.11887400  1
  F  F15  1  0.22395800  0.97916000  0.88112600  1
  F  F16  1  0.97916000  0.22395800  0.88112600  1
  F  F17  1  0.02084000  0.77604200  0.11887400  1
  F  F18  1  0.75369600  0.75369600  0.25578800  1
  F  F19  1  0.24630400  0.24630400  0.74421200  1
  F  F20  1  0.50884000  0.24405400  0.47155100  1
  F  F21  1  0.49116000  0.75594600  0.52844900  1
  F  F22  1  0.75594600  0.49116000  0.52844900  1
  F  F23  1  0.24405400  0.50884000  0.47155100  1
  F  F24  1  0.55072100  0.28272800  0.11633000  1
  F  F25  1  0.44927900  0.71727200  0.88367000  1
  F  F26  1  0.71727200  0.44927900  0.88367000  1
  F  F27  1  0.28272800  0.55072100  0.11633000  1
  F  F28  1  0.57084100  0.57084100  0.17689400  1
  F  F29  1  0.42915900  0.42915900  0.82310600  1
  F  F30  1  0.51800900  0.04380700  0.29972000  1
  F  F31  1  0.48199100  0.95619300  0.70028000  1
  F  F32  1  0.95619300  0.48199100  0.70028000  1
  F  F33  1  0.04380700  0.51800900  0.29972000  1
loop_
_geom_bond_atom_site_label_1
_geom_bond_atom_site_label_2
_geom_bond_distance
_geom_bond_site_symmetry_2
Ba0 F28 2.615631 1_555
Ba0 F0 2.631484 1_555
Ba0 F21 2.649792 1_555
Ba0 F11 2.726127 1_554
Ba0 F10 2.751509 1_565
Ba0 F30 2.754990 1_565
Ba0 F25 3.011239 1_554
Ba0 F18 3.030836 1_555
Ba0 F5 3.162563 1_565
Ba1 F29 2.615631 1_555
Ba1 F1 2.631484 1_555
Ba1 F20 2.649792 1_555
Ba1 F10 2.726127 1_556
Ba1 F11 2.751509 1_545
Ba1 F31 2.754990 1_545
Ba1 F24 3.011239 1_556
Ba1 F19 3.030836 1_555
Ba1 F4 3.162563 1_545
Ba2 F29 2.615631 1_555
Ba2 F2 2.631484 1_555
Ba2 F23 2.649792 1_555
Ba2 F13 2.726127 1_556
Ba2 F12 2.751509 1_455
Ba2 F32 2.754990 1_455
Ba2 F27 3.011239 1_556
Ba2 F19 3.030836 1_555
Ba2 F7 3.162563 1_455
Ba3 F28 2.615631 1_555
Ba3 F3 2.631484 1_555
Ba3 F22 2.649792 1_555
Ba3 F12 2.726127 1_554
Ba3 F13 2.751509 1_655
Ba3 F33 2.754990 1_655
Ba3 F26 3.011239 1_554
Ba3 F18 3.030836 1_555
Ba3 F6 3.162563 1_655
Ba4 F8 2.687297 1_445
Ba4 F9 2.687297 1_555
Ba4 F6 2.745480 1_555
Ba4 F7 2.745480 1_445
Ba4 F5 2.745480 1_555
Ba4 F4 2.745480 1_445
Ba4 F3 2.950913 1_455
Ba4 F1 2.950913 1_455
Ba4 F2 2.950913 1_545
Ba4 F0 2.950913 1_545
Ba5 F4 2.707166 1_555
Ba5 F7 2.707166 1_555
Ba5 F21 2.710458 1_555
Ba5 F22 2.710458 1_555
Ba5 F18 2.805792 1_555
Ba5 F32 2.824354 1_555
Ba5 F31 2.824354 1_555
Ba5 F11 3.186060 1_555
Ba5 F12 3.186060 1_555
Ba6 F6 2.707166 1_555
Ba6 F5 2.707166 1_555
Ba6 F20 2.710458 1_555
Ba6 F23 2.710458 1_555
Ba6 F19 2.805792 1_555
Ba6 F30 2.824354 1_555
Ba6 F33 2.824354 1_555
Ba6 F10 3.186060 1_555
Ba6 F13 3.186060 1_555
F0 Fe3 1.924280 1_555
F1 Fe2 1.924280 1_555
F2 Fe1 1.924280 1_555
F3 Fe0 1.924280 1_555
F4 Fe0 1.980294 1_565
F5 Fe1 1.980294 1_545
F6 Fe2 1.980294 1_455
F7 Fe3 1.980294 1_655
F8 Fe4 1.927046 1_556
F9 Fe5 1.927046 1_554
F10 Fe5 1.966975 1_554
F11 Fe4 1.966975 1_556
F12 Fe4 1.966975 1_556
F13 Fe5 1.966975 1_554
F14 Fe4 1.975270 1_545
F14 Fe0 2.002483 1_555
F15 Fe5 1.975270 1_565
F15 Fe1 2.002483 1_555
F16 Fe5 1.975270 1_655
F16 Fe2 2.002483 1_555
F17 Fe4 1.975270 1_455
F17 Fe3 2.002483 1_555
F18 Fe4 1.967527 1_555
F19 Fe5 1.967527 1_555
F20 Fe0 1.944255 1_555
F21 Fe1 1.944255 1_555
F22 Fe2 1.944255 1_555
F23 Fe3 1.944255 1_555
F24 Fe0 1.996443 1_555
F24 Fe6 2.179903 1_555
F25 Fe1 1.996443 1_555
F25 Fe6 2.179903 1_556
F26 Fe2 1.996443 1_555
F26 Fe6 2.179903 1_556
F27 Fe3 1.996443 1_555
F27 Fe6 2.179903 1_555
F28 Fe6 2.050847 1_555
F29 Fe6 2.050847 1_556
F30 Fe0 1.941364 1_555
F31 Fe1 1.941364 1_555
F32 Fe2 1.941364 1_555
F33 Fe3 1.941364 1_555
