# generated using pymatgen
data_Sm2MgMo2(I4O15)2
_symmetry_space_group_name_H-M   'P 1'
_cell_length_a   7.24213031
_cell_length_b   7.21007863
_cell_length_c   14.29088142
_cell_angle_alpha   91.96046844
_cell_angle_beta   88.62056418
_cell_angle_gamma   114.85524816
_symmetry_Int_Tables_number   1
_chemical_formula_structural   Sm2MgMo2(I4O15)2
_chemical_formula_sum   'Sm2 Mg1 Mo2 I8 O30'
_cell_volume   676.66219622
_cell_formula_units_Z   1
loop_
 _symmetry_equiv_pos_site_id
 _symmetry_equiv_pos_as_xyz
  1  'x, y, z'
loop_
 _atom_site_type_symbol
 _atom_site_label
 _atom_site_symmetry_multiplicity
 _atom_site_fract_x
 _atom_site_fract_y
 _atom_site_fract_z
 _atom_site_occupancy
  Sm  Sm0  1  0.08619706  0.42205452  0.44038044  1
  Sm  Sm1  1  0.88546768  0.56289737  0.95313430  1
  Mg  Mg0  1  0.21724419  0.43228983  0.85515692  1
  Mo  Mo0  1  0.58507926  0.77305567  0.27875110  1
  Mo  Mo1  1  0.45528647  0.24658259  0.76496325  1
  I  I0  1  0.49581377  0.74814250  0.03764891  1
  I  I1  1  0.48953782  0.24438676  0.51920290  1
  I  I2  1  0.74681818  0.28557424  0.19812555  1
  I  I3  1  0.26791307  0.72843534  0.68144307  1
  I  I4  1  0.15463031  0.92717322  0.31687488  1
  I  I5  1  0.83427445  0.03341331  0.79754064  1
  I  I6  1  0.76234657  0.86676414  0.54123642  1
  I  I7  1  0.22610690  0.12354882  0.05347336  1
  O  O0  1  0.37565795  0.68047984  0.15243094  1
  O  O1  1  0.60783077  0.29200665  0.63873116  1
  O  O2  1  0.25938337  0.61594734  0.96818965  1
  O  O3  1  0.72570101  0.36335309  0.45371523  1
  O  O4  1  0.57197434  0.53276074  0.01820466  1
  O  O5  1  0.40946746  0.45510307  0.52321749  1
  O  O6  1  0.74070042  0.02277425  0.18037466  1
  O  O7  1  0.24295172  0.97715825  0.68610150  1
  O  O8  1  0.88679380  0.38914610  0.08987481  1
  O  O9  1  0.07877188  0.59200175  0.59369576  1
  O  O10  1  0.95181676  0.38495404  0.28195645  1
  O  O11  1  0.12249508  0.62956071  0.79186705  1
  O  O12  1  0.42773653  0.97897453  0.29863458  1
  O  O13  1  0.57028338  0.01269946  0.79021126  1
  O  O14  1  0.21296062  0.16722813  0.38149877  1
  O  O15  1  0.77193011  0.82182817  0.87485073  1
  O  O16  1  0.10019789  0.75931511  0.41713833  1
  O  O17  1  0.92608728  0.25199529  0.88980734  1
  O  O18  1  0.52589756  0.90276648  0.53752779  1
  O  O19  1  0.44997781  0.06651680  0.03777351  1
  O  O20  1  0.75063678  0.81508820  0.66892854  1
  O  O21  1  0.22977002  0.15936653  0.17947783  1
  O  O22  1  0.95150429  0.13237072  0.54463510  1
  O  O23  1  0.02204149  0.86561971  0.03798145  1
  O  O24  1  0.76804944  0.91241405  0.36825969  1
  O  O25  1  0.27570162  0.16540191  0.86434687  1
  O  O26  1  0.38018199  0.59172035  0.34227332  1
  O  O27  1  0.67359861  0.41849649  0.82459960  1
  O  O28  1  0.71191034  0.63382893  0.22460182  1
  O  O29  1  0.33979293  0.41295303  0.72899537  1
loop_
_geom_bond_atom_site_label_1
_geom_bond_atom_site_label_2
_geom_bond_distance
_geom_bond_site_symmetry_2
Mg0 O2 1.998394 1_555
Mg0 O29 2.016820 1_555
Mg0 O17 2.017604 1_455
Mg0 O11 2.061633 1_555
Mg0 O25 2.145730 1_555
Mo0 O26 1.766583 1_555
Mo0 O28 1.771429 1_555
Mo0 O24 1.810001 1_555
Mo0 O6 2.208963 1_565
Mo0 O12 2.227390 1_555
Mo0 O0 2.281002 1_555
Mo1 O27 1.762833 1_555
Mo1 O29 1.819078 1_555
Mo1 O25 1.838283 1_555
Mo1 O1 2.054832 1_555
Mo1 O7 2.197922 1_545
Mo1 O13 2.214533 1_555
I0 O0 1.820735 1_555
I0 O2 1.862998 1_554
I0 O4 1.864442 1_555
I0 O19 2.453527 1_565
I1 O3 1.811465 1_555
I1 O5 1.838700 1_555
I1 O1 1.884859 1_555
I2 O10 1.812569 1_555
I2 O8 1.829110 1_555
I2 O6 1.885125 1_555
I3 O9 1.811633 1_555
I3 O11 1.863703 1_555
I3 O7 1.875328 1_555
I4 O14 1.822594 1_565
I4 O16 1.834012 1_555
I4 O12 1.865543 1_555
I4 O21 2.522278 1_565
I5 O15 1.806671 1_545
I5 O13 1.859304 1_555
I5 O17 1.919273 1_555
I5 O20 2.297190 1_545
I6 O22 1.826974 1_565
I6 O18 1.838877 1_555
I6 O20 1.867762 1_555
I6 O24 2.502019 1_555
I7 O21 1.809611 1_555
I7 O23 1.835402 1_545
I7 O19 1.839750 1_555
O2 Sm1 2.584039 1_455
O3 Sm0 2.466611 1_655
O4 Sm1 2.358802 1_554
O5 Sm0 2.566014 1_555
O8 Sm1 2.359383 1_554
O9 Sm0 2.484128 1_555
O10 Sm0 2.447499 1_655
O11 Sm1 2.771428 1_455
O14 Sm0 2.490299 1_555
O15 Sm1 2.625014 1_555
O16 Sm0 2.424875 1_555
O17 Sm1 2.516582 1_555
O22 Sm0 2.442115 1_655
O23 Sm1 2.296595 1_454
O26 Sm0 2.404015 1_555
O27 Sm1 2.339725 1_555
