# generated using pymatgen
data_Li2WO4
_symmetry_space_group_name_H-M   'P 1'
_cell_length_a   5.00439936
_cell_length_b   5.70706976
_cell_length_c   5.70706971
_cell_angle_alpha   62.21757422
_cell_angle_beta   88.48244270
_cell_angle_gamma   88.48243210
_symmetry_Int_Tables_number   1
_chemical_formula_structural   Li2WO4
_chemical_formula_sum   'Li4 W2 O8'
_cell_volume   144.13792361
_cell_formula_units_Z   2
loop_
 _symmetry_equiv_pos_site_id
 _symmetry_equiv_pos_as_xyz
  1  'x, y, z'
loop_
 _atom_site_type_symbol
 _atom_site_label
 _atom_site_symmetry_multiplicity
 _atom_site_fract_x
 _atom_site_fract_y
 _atom_site_fract_z
 _atom_site_occupancy
  Li  Li0  1  0.26356744  0.45199317  0.15231161  1
  Li  Li1  1  0.23643256  0.84768839  0.54800683  1
  Li  Li2  1  0.73643256  0.54800683  0.84768839  1
  Li  Li3  1  0.76356744  0.15231161  0.45199317  1
  W  W0  1  0.25000000  0.17208371  0.82791629  1
  W  W1  1  0.75000000  0.82791629  0.17208371  1
  O  O0  1  0.87463788  0.77002153  0.48727793  1
  O  O1  1  0.37463788  0.48727793  0.77002153  1
  O  O2  1  0.43344856  0.00516891  0.20821794  1
  O  O3  1  0.06655144  0.79178206  0.99483109  1
  O  O4  1  0.56655144  0.99483109  0.79178206  1
  O  O5  1  0.93344856  0.20821794  0.00516891  1
  O  O6  1  0.12536212  0.22997847  0.51272207  1
  O  O7  1  0.62536212  0.51272207  0.22997847  1
loop_
_geom_bond_atom_site_label_1
_geom_bond_atom_site_label_2
_geom_bond_distance
_geom_bond_site_symmetry_2
Li0 O7 1.952868 1_555
Li0 O6 1.963688 1_555
Li0 O3 1.965008 1_554
Li0 O1 2.154459 1_554
Li0 O2 2.543306 1_555
Li0 O5 2.579602 1_455
Li1 O0 1.952868 1_455
Li1 O1 1.963687 1_555
Li1 O2 1.965008 1_565
Li1 O6 2.154459 1_565
Li1 O3 2.543306 1_555
Li1 O4 2.579602 1_555
Li2 O1 1.952868 1_555
Li2 O0 1.963688 1_555
Li2 O5 1.965008 1_556
Li2 O7 2.154459 1_556
Li2 O4 2.543306 1_555
Li2 O3 2.579602 1_655
Li3 O6 1.952868 1_655
Li3 O7 1.963687 1_555
Li3 O4 1.965008 1_545
Li3 O0 2.154459 1_545
Li3 O5 2.543306 1_555
Li3 O2 2.579602 1_555
O0 W1 1.796794 1_555
O1 W0 1.796794 1_555
O2 W1 1.915116 1_545
O2 W0 2.143067 1_554
O3 W1 1.915116 1_456
O3 W0 2.143067 1_565
O4 W0 1.915116 1_565
O4 W1 2.143067 1_556
O5 W0 1.915116 1_654
O5 W1 2.143067 1_545
O6 W0 1.796794 1_555
O7 W1 1.796794 1_555
