# generated using pymatgen
data_Si2Sb2Mo13O28
_symmetry_space_group_name_H-M   'P 1'
_cell_length_a   5.97808545
_cell_length_b   8.94816003
_cell_length_c   12.63263432
_cell_angle_alpha   86.69046833
_cell_angle_beta   76.58029200
_cell_angle_gamma   75.89044314
_symmetry_Int_Tables_number   1
_chemical_formula_structural   Si2Sb2Mo13O28
_chemical_formula_sum   'Si2 Sb2 Mo13 O28'
_cell_volume   637.47456967
_cell_formula_units_Z   1
loop_
 _symmetry_equiv_pos_site_id
 _symmetry_equiv_pos_as_xyz
  1  'x, y, z'
loop_
 _atom_site_type_symbol
 _atom_site_label
 _atom_site_symmetry_multiplicity
 _atom_site_fract_x
 _atom_site_fract_y
 _atom_site_fract_z
 _atom_site_occupancy
  Si  Si0  1  0.21191400  0.31343600  0.00013000  1
  Si  Si1  1  0.79076100  0.68434300  0.00076000  1
  Sb  Sb0  1  0.84367200  0.99871400  0.30831100  1
  Sb  Sb1  1  0.15958500  0.00040100  0.69274100  1
  Mo  Mo0  1  0.89360900  0.62241000  0.70097100  1
  Mo  Mo1  1  0.63081800  0.35199100  0.14416900  1
  Mo  Mo2  1  0.40458300  0.37739300  0.70020800  1
  Mo  Mo3  1  0.10423100  0.37658300  0.29890100  1
  Mo  Mo4  1  0.37279900  0.64554000  0.85575300  1
  Mo  Mo5  1  0.28567300  0.99969500  0.42995300  1
  Mo  Mo6  1  0.22920200  0.64636800  0.14525700  1
  Mo  Mo7  1  0.00120600  0.99875900  0.99940400  1
  Mo  Mo8  1  0.42831000  0.99951800  0.14633100  1
  Mo  Mo9  1  0.77236000  0.35254800  0.85584700  1
  Mo  Mo10  1  0.59442000  0.62233300  0.29979500  1
  Mo  Mo11  1  0.57295700  0.99893900  0.85358500  1
  Mo  Mo12  1  0.71618900  0.99915900  0.57101300  1
  O  O0  1  0.77615000  0.38760000  0.26867800  1
  O  O1  1  0.14008500  0.37906100  0.42873800  1
  O  O2  1  0.93043400  0.34838400  0.99915700  1
  O  O3  1  0.29742300  0.12002300  0.99971700  1
  O  O4  1  0.85804100  0.61809700  0.57115900  1
  O  O5  1  0.22171600  0.61139600  0.73294600  1
  O  O6  1  0.01159700  0.10076400  0.57105700  1
  O  O7  1  0.99031100  0.89804100  0.43028800  1
  O  O8  1  0.70450500  0.87779500  0.99965600  1
  O  O9  1  0.16927400  0.88298800  0.12727600  1
  O  O10  1  0.26796800  0.37645500  0.10852700  1
  O  O11  1  0.95460800  0.60958700  0.26486500  1
  O  O12  1  0.42317200  0.89740900  0.57059200  1
  O  O13  1  0.70661900  0.11584200  0.12506800  1
  O  O14  1  0.62546500  0.62085800  0.10829900  1
  O  O15  1  0.07264200  0.65023500  0.00095700  1
  O  O16  1  0.29590000  0.88256600  0.87272000  1
  O  O17  1  0.83322100  0.11511700  0.87140800  1
  O  O18  1  0.57929500  0.10123200  0.43034500  1
  O  O19  1  0.18519400  0.13261500  0.28147500  1
  O  O20  1  0.81349500  0.86619300  0.71901200  1
  O  O21  1  0.37801400  0.37767600  0.89337000  1
  O  O22  1  0.45947900  0.13137300  0.71736600  1
  O  O23  1  0.57756800  0.37733700  0.57216900  1
  O  O24  1  0.73193500  0.62003300  0.89349600  1
  O  O25  1  0.53872900  0.86692600  0.28298300  1
  O  O26  1  0.04489200  0.38891900  0.73546300  1
  O  O27  1  0.42100500  0.62127400  0.42759300  1
loop_
_geom_bond_atom_site_label_1
_geom_bond_atom_site_label_2
_geom_bond_distance
_geom_bond_site_symmetry_2
Mo0 O4 1.705585 1_555
Mo0 O5 2.071007 1_655
Mo0 O26 2.128273 1_655
Mo0 O20 2.130078 1_555
Mo0 O24 2.400552 1_555
Mo1 O0 2.038976 1_555
Mo1 O13 2.066402 1_555
Mo1 O2 2.240678 1_554
Mo1 O10 2.272948 1_555
Mo1 O14 2.416167 1_555
Mo2 O23 1.705598 1_555
Mo2 O26 2.070094 1_555
Mo2 O5 2.127115 1_555
Mo2 O22 2.150964 1_555
Mo2 O21 2.408352 1_555
Mo3 O1 1.704796 1_555
Mo3 O0 2.061827 1_455
Mo3 O11 2.120787 1_455
Mo3 O19 2.130579 1_555
Mo3 O10 2.376741 1_555
Mo4 O5 2.038506 1_555
Mo4 O16 2.070523 1_555
Mo4 O15 2.242895 1_556
Mo4 O24 2.261077 1_555
Mo4 O21 2.410561 1_555
Mo5 O18 2.165341 1_565
Mo5 O7 2.173537 1_455
Mo5 O6 2.188114 1_565
Mo5 O12 2.189320 1_555
Mo5 O19 2.282682 1_565
Mo5 O25 2.285111 1_555
Mo6 O11 2.034877 1_455
Mo6 O9 2.067698 1_555
Mo6 O15 2.229108 1_555
Mo6 O14 2.262089 1_555
Mo6 O10 2.430822 1_555
Mo7 O13 2.171146 1_466
Mo7 O16 2.176275 1_555
Mo7 O9 2.178231 1_556
Mo7 O17 2.180948 1_465
Mo7 O8 2.291431 1_455
Mo7 O3 2.292112 1_565
Mo8 O13 2.127979 1_565
Mo8 O9 2.128957 1_555
Mo8 O19 2.164361 1_565
Mo8 O25 2.175781 1_555
Mo8 O3 2.288238 1_564
Mo8 O8 2.298241 1_554
Mo9 O26 2.030846 1_655
Mo9 O17 2.071936 1_555
Mo9 O2 2.222833 1_555
Mo9 O21 2.251206 1_555
Mo9 O24 2.410293 1_555
Mo10 O27 1.705097 1_555
Mo10 O11 2.071037 1_555
Mo10 O0 2.128647 1_555
Mo10 O25 2.137769 1_555
Mo10 O14 2.383434 1_555
Mo11 O16 2.124150 1_555
Mo11 O17 2.128475 1_565
Mo11 O20 2.152770 1_555
Mo11 O22 2.177187 1_565
Mo11 O8 2.285934 1_555
Mo11 O3 2.290051 1_565
Mo12 O12 2.163294 1_555
Mo12 O6 2.174533 1_665
Mo12 O7 2.185183 1_555
Mo12 O18 2.187439 1_565
Mo12 O20 2.271564 1_555
Mo12 O22 2.285455 1_565
O2 Si0 1.637700 1_656
O3 Si0 1.680801 1_556
O6 Sb1 2.009133 1_555
O7 Sb0 2.008983 1_555
O8 Si1 1.681648 1_556
O9 Sb0 2.704757 1_455
O10 Si0 1.643058 1_555
O12 Sb1 2.010202 1_565
O13 Sb0 2.703660 1_545
O14 Si1 1.645042 1_555
O15 Si1 1.638248 1_455
O16 Sb1 2.666348 1_565
O17 Sb1 2.683565 1_655
O18 Sb0 2.010338 1_545
O19 Sb0 2.558000 1_445
O20 Sb1 2.584489 1_665
O21 Si0 1.643918 1_556
O22 Sb1 2.451470 1_555
O24 Si1 1.643410 1_556
O25 Sb0 2.485698 1_555
