# generated using pymatgen
data_Te4MoW3(SeS)2
_symmetry_space_group_name_H-M   'P 1'
_cell_length_a   3.39798943
_cell_length_b   3.39798943
_cell_length_c   38.74466800
_cell_angle_alpha   90.00000000
_cell_angle_beta   90.00000000
_cell_angle_gamma   119.99998884
_symmetry_Int_Tables_number   1
_chemical_formula_structural   Te4MoW3(SeS)2
_chemical_formula_sum   'Te4 Mo1 W3 Se2 S2'
_cell_volume   387.42413380
_cell_formula_units_Z   1
loop_
 _symmetry_equiv_pos_site_id
 _symmetry_equiv_pos_as_xyz
  1  'x, y, z'
loop_
 _atom_site_type_symbol
 _atom_site_label
 _atom_site_symmetry_multiplicity
 _atom_site_fract_x
 _atom_site_fract_y
 _atom_site_fract_z
 _atom_site_occupancy
  Te  Te0  1  0.33333300  0.66666700  0.70612000  1
  Te  Te1  1  0.66666700  0.33333300  0.04532400  1
  Te  Te2  1  0.66666700  0.33333300  0.14250900  1
  Te  Te3  1  0.33333300  0.66666700  0.60894700  1
  Mo  Mo0  1  0.66666700  0.33333300  0.28180700  1
  W  W0  1  0.33333300  0.66666700  0.09390600  1
  W  W1  1  0.33333300  0.66666700  0.46965300  1
  W  W2  1  0.66666700  0.33333300  0.65754300  1
  Se  Se0  1  0.33333300  0.66666700  0.32432700  1
  Se  Se1  1  0.33333300  0.66666700  0.23929800  1
  S  S0  1  0.66666700  0.33333300  0.43077600  1
  S  S1  1  0.66666700  0.33333300  0.50853900  1
loop_
_geom_bond_atom_site_label_1
_geom_bond_atom_site_label_2
_geom_bond_distance
_geom_bond_site_symmetry_2
Te0 W2 2.718652 1_455
Te0 W2 2.718652 1_565
Te0 W2 2.718656 1_555
Te1 W0 2.718786 1_655
Te1 W0 2.718786 1_545
Te1 W0 2.718790 1_555
Te2 W0 2.719350 1_545
Te2 W0 2.719350 1_655
Te2 W0 2.719354 1_555
Te3 W2 2.719162 1_455
Te3 W2 2.719162 1_565
Te3 W2 2.719166 1_555
Mo0 Se1 2.561517 1_655
Mo0 Se1 2.561517 1_545
Mo0 Se1 2.561521 1_555
Mo0 Se0 2.561791 1_545
Mo0 Se0 2.561791 1_655
Mo0 Se0 2.561795 1_555
S0 W1 2.473386 1_655
S0 W1 2.473386 1_545
S0 W1 2.473391 1_555
S1 W1 2.473599 1_655
S1 W1 2.473599 1_545
S1 W1 2.473603 1_555
