# generated using pymatgen
data_MgNi3B
_symmetry_space_group_name_H-M   'P 1'
_cell_length_a   3.86238800
_cell_length_b   3.86238800
_cell_length_c   3.86238800
_cell_angle_alpha   90.00000000
_cell_angle_beta   90.00000000
_cell_angle_gamma   90.00000000
_symmetry_Int_Tables_number   1
_chemical_formula_structural   MgNi3B
_chemical_formula_sum   'Mg1 Ni3 B1'
_cell_volume   57.61926278
_cell_formula_units_Z   1
loop_
 _symmetry_equiv_pos_site_id
 _symmetry_equiv_pos_as_xyz
  1  'x, y, z'
loop_
 _atom_site_type_symbol
 _atom_site_label
 _atom_site_symmetry_multiplicity
 _atom_site_fract_x
 _atom_site_fract_y
 _atom_site_fract_z
 _atom_site_occupancy
  Mg  Mg0  1  0.50000000  0.50000000  0.50000000  1
  Ni  Ni0  1  0.50000000  0.00000000  0.00000000  1
  Ni  Ni1  1  0.00000000  0.50000000  0.00000000  1
  Ni  Ni2  1  0.00000000  0.00000000  0.50000000  1
  B  B0  1  0.00000000  0.00000000  0.00000000  1
loop_
_geom_bond_atom_site_label_1
_geom_bond_atom_site_label_2
_geom_bond_distance
_geom_bond_site_symmetry_2
Mg0 Ni0 2.731121 1_555
Mg0 Ni2 2.731121 1_665
Mg0 Ni1 2.731121 1_555
Mg0 Ni1 2.731121 1_656
Mg0 Ni0 2.731121 1_565
Mg0 Ni0 2.731121 1_566
Mg0 Ni2 2.731121 1_555
Mg0 Ni2 2.731121 1_565
Mg0 Ni0 2.731121 1_556
Mg0 Ni1 2.731121 1_556
Mg0 Ni1 2.731121 1_655
Mg0 Ni2 2.731121 1_655
B0 Ni2 1.931194 1_554
B0 Ni0 1.931194 1_455
B0 Ni1 1.931194 1_555
B0 Ni0 1.931194 1_555
B0 Ni1 1.931194 1_545
B0 Ni2 1.931194 1_555
