# generated using pymatgen
data_K2AgMoF6
_symmetry_space_group_name_H-M   'P 1'
_cell_length_a   6.33311200
_cell_length_b   6.33311191
_cell_length_c   6.33311168
_cell_angle_alpha   59.99979729
_cell_angle_beta   59.99979247
_cell_angle_gamma   59.99979555
_symmetry_Int_Tables_number   1
_chemical_formula_structural   K2AgMoF6
_chemical_formula_sum   'K2 Ag1 Mo1 F6'
_cell_volume   179.61163335
_cell_formula_units_Z   1
loop_
 _symmetry_equiv_pos_site_id
 _symmetry_equiv_pos_as_xyz
  1  'x, y, z'
loop_
 _atom_site_type_symbol
 _atom_site_label
 _atom_site_symmetry_multiplicity
 _atom_site_fract_x
 _atom_site_fract_y
 _atom_site_fract_z
 _atom_site_occupancy
  K  K0  1  0.25000000  0.25000000  0.25000000  1
  K  K1  1  0.75000000  0.75000000  0.75000000  1
  Ag  Ag0  1  0.50000000  0.50000000  0.50000000  1
  Mo  Mo0  1  0.00000000  0.00000000  0.00000000  1
  F  F0  1  0.23134800  0.76865100  0.23134900  1
  F  F1  1  0.76865200  0.76865200  0.23134900  1
  F  F2  1  0.76865200  0.23134900  0.76865100  1
  F  F3  1  0.76865100  0.23134800  0.23134900  1
  F  F4  1  0.23134900  0.76865200  0.76865200  1
  F  F5  1  0.23134800  0.23134800  0.76865100  1
loop_
_geom_bond_atom_site_label_1
_geom_bond_atom_site_label_2
_geom_bond_distance
_geom_bond_site_symmetry_2
Ag0 F3 2.406139 1_555
Ag0 F2 2.406139 1_555
Ag0 F0 2.406139 1_555
Ag0 F4 2.406144 1_555
Ag0 F1 2.406144 1_555
Ag0 F5 2.406144 1_555
F0 Mo0 2.072040 1_565
F0 K1 3.170946 1_455
F0 K1 3.170952 1_554
F0 K0 3.170955 1_555
F0 K0 3.170963 1_565
F1 Mo0 2.072036 1_665
F1 K0 3.170950 1_565
F1 K0 3.170950 1_655
F1 K1 3.170952 1_555
F1 K1 3.170966 1_554
F2 Mo0 2.072040 1_656
F2 K0 3.170946 1_655
F2 K0 3.170952 1_556
F2 K1 3.170955 1_555
F2 K1 3.170963 1_545
F3 Mo0 2.072040 1_655
F3 K1 3.170946 1_545
F3 K1 3.170953 1_554
F3 K0 3.170955 1_555
F3 K0 3.170963 1_655
F4 Mo0 2.072036 1_566
F4 K0 3.170950 1_565
F4 K0 3.170950 1_556
F4 K1 3.170952 1_555
F4 K1 3.170967 1_455
F5 Mo0 2.072036 1_556
F5 K1 3.170950 1_545
F5 K1 3.170950 1_455
F5 K0 3.170952 1_555
F5 K0 3.170966 1_556
