# generated using pymatgen
data_Tm3(CuSn)4
_symmetry_space_group_name_H-M   'P 1'
_cell_length_a   4.40372258
_cell_length_b   6.88322494
_cell_length_c   8.32330360
_cell_angle_alpha   114.42433754
_cell_angle_beta   105.33972158
_cell_angle_gamma   90.00000000
_symmetry_Int_Tables_number   1
_chemical_formula_structural   Tm3(CuSn)4
_chemical_formula_sum   'Tm3 Cu4 Sn4'
_cell_volume   219.80661354
_cell_formula_units_Z   1
loop_
 _symmetry_equiv_pos_site_id
 _symmetry_equiv_pos_as_xyz
  1  'x, y, z'
loop_
 _atom_site_type_symbol
 _atom_site_label
 _atom_site_symmetry_multiplicity
 _atom_site_fract_x
 _atom_site_fract_y
 _atom_site_fract_z
 _atom_site_occupancy
  Tm  Tm0  1  -0.00000000  -0.00000000  -0.00000000  1
  Tm  Tm1  1  0.86898596  0.36898596  0.73797292  1
  Tm  Tm2  1  0.13101404  0.63101404  0.26202708  1
  Cu  Cu0  1  0.32809694  0.01655873  0.65619488  1
  Cu  Cu1  1  0.32809694  0.63963614  0.65619488  1
  Cu  Cu2  1  0.67190306  0.98344127  0.34380512  1
  Cu  Cu3  1  0.67190306  0.36036386  0.34380512  1
  Sn  Sn0  1  0.21626736  0.21626736  0.43253572  1
  Sn  Sn1  1  0.78373264  0.78373264  0.56746428  1
  Sn  Sn2  1  0.50000000  0.29624162  1.00000000  1
  Sn  Sn3  1  0.50000000  0.70375838  0.00000000  1
loop_
_geom_bond_atom_site_label_1
_geom_bond_atom_site_label_2
_geom_bond_distance
_geom_bond_site_symmetry_2
Cu0 Cu1 2.594443 1_545
Cu0 Sn2 2.601148 1_555
Cu0 Sn1 2.635328 1_445
Cu0 Sn1 2.635335 1_545
Cu0 Sn0 2.688653 1_555
Cu0 Tm1 3.130217 1_455
Cu0 Tm1 3.130217 1_555
Cu0 Tm2 3.138907 1_545
Cu1 Sn3 2.601148 1_556
Cu1 Sn1 2.635331 1_455
Cu1 Sn1 2.635339 1_555
Cu1 Sn0 2.688658 1_555
Cu1 Tm1 3.130222 1_455
Cu1 Tm1 3.130222 1_555
Cu1 Tm2 3.138910 1_555
Cu2 Cu3 2.594443 1_565
Cu2 Sn3 2.601148 1_555
Cu2 Sn0 2.635328 1_665
Cu2 Sn0 2.635335 1_565
Cu2 Sn1 2.688653 1_555
Cu2 Tm2 3.130217 1_655
Cu2 Tm2 3.130217 1_555
Cu2 Tm1 3.138907 1_565
Cu3 Sn2 2.601148 1_554
Cu3 Sn0 2.635331 1_655
Cu3 Sn0 2.635339 1_555
Cu3 Sn1 2.688658 1_555
Cu3 Tm2 3.130222 1_655
Cu3 Tm2 3.130222 1_555
Cu3 Tm1 3.138910 1_555
Sn0 Tm1 3.123123 1_455
Sn0 Tm1 3.123123 1_555
Sn0 Tm0 3.136540 1_555
Sn1 Tm2 3.123123 1_655
Sn1 Tm2 3.123123 1_555
Sn1 Tm0 3.136540 1_666
Sn2 Sn3 2.805030 1_556
Sn2 Tm0 3.001019 1_556
Sn2 Tm0 3.001019 1_656
Sn2 Tm1 3.228866 1_555
Sn2 Tm2 3.228869 1_556
Sn2 Tm1 3.228869 1_455
Sn2 Tm2 3.228872 1_656
Sn3 Tm0 3.001019 1_665
Sn3 Tm0 3.001019 1_565
Sn3 Tm2 3.228866 1_555
Sn3 Tm1 3.228869 1_554
Sn3 Tm2 3.228869 1_655
Sn3 Tm1 3.228872 1_454
