# generated using pymatgen
data_CaH8C6S2(NO4)2
_symmetry_space_group_name_H-M   'P 1'
_cell_length_a   7.37880400
_cell_length_b   8.17555915
_cell_length_c   11.77927714
_cell_angle_alpha   92.14956788
_cell_angle_beta   101.88365976
_cell_angle_gamma   114.81550834
_symmetry_Int_Tables_number   1
_chemical_formula_structural   CaH8C6S2(NO4)2
_chemical_formula_sum   'Ca2 H16 C12 S4 N4 O16'
_cell_volume   624.98359979
_cell_formula_units_Z   2
loop_
 _symmetry_equiv_pos_site_id
 _symmetry_equiv_pos_as_xyz
  1  'x, y, z'
loop_
 _atom_site_type_symbol
 _atom_site_label
 _atom_site_symmetry_multiplicity
 _atom_site_fract_x
 _atom_site_fract_y
 _atom_site_fract_z
 _atom_site_occupancy
  Ca  Ca0  1  0.07578100  0.21955000  0.92688600  1
  Ca  Ca1  1  0.92421900  0.78045000  0.07311400  1
  H  H0  1  0.33042900  0.80470300  0.22351100  1
  H  H1  1  0.66957100  0.19529700  0.77648900  1
  H  H2  1  0.57073800  0.61159500  0.20214500  1
  H  H3  1  0.42926200  0.38840500  0.79785500  1
  H  H4  1  0.36958000  0.05217600  0.06790300  1
  H  H5  1  0.63042000  0.94782400  0.93209700  1
  H  H6  1  0.29763300  0.18581700  0.74846100  1
  H  H7  1  0.70236700  0.81418300  0.25153900  1
  H  H8  1  0.26219400  0.61929300  0.02199300  1
  H  H9  1  0.73780600  0.38070700  0.97800700  1
  H  H10  1  0.73328200  0.04765900  0.06093200  1
  H  H11  1  0.26671800  0.95234100  0.93906800  1
  H  H12  1  0.17096400  0.59494900  0.19955400  1
  H  H13  1  0.82903600  0.40505100  0.80044600  1
  H  H14  1  0.72231400  0.36134300  0.10891700  1
  H  H15  1  0.27768600  0.63865700  0.89108300  1
  C  C0  1  0.47283900  0.43478700  0.53836100  1
  C  C1  1  0.52716100  0.56521300  0.46163900  1
  C  C2  1  0.63546800  0.11744900  0.27191300  1
  C  C3  1  0.36453200  0.88255100  0.72808700  1
  C  C4  1  0.78433800  0.27293600  0.36431200  1
  C  C5  1  0.21566200  0.72706400  0.63568800  1
  C  C6  1  0.30461200  0.33334600  0.33285900  1
  C  C7  1  0.69538800  0.66665400  0.66714100  1
  C  C8  1  0.17543100  0.22134200  0.21696500  1
  C  C9  1  0.82456900  0.77865800  0.78303500  1
  C  C10  1  0.01292300  0.54215500  0.44922900  1
  C  C11  1  0.98707700  0.45784500  0.55077100  1
  S  S0  1  0.29316800  0.22858700  0.45907800  1
  S  S1  1  0.70683200  0.77141300  0.54092200  1
  S  S2  1  0.19195000  0.76588900  0.48925600  1
  S  S3  1  0.80805000  0.23411100  0.51074400  1
  N  N0  1  0.43261100  0.50827300  0.34635800  1
  N  N1  1  0.56738900  0.49172700  0.65364200  1
  N  N2  1  0.10021700  0.56150200  0.65516400  1
  N  N3  1  0.89978300  0.43849800  0.34483600  1
  O  O0  1  0.17817700  0.30750000  0.12956000  1
  O  O1  1  0.82182300  0.69250000  0.87044000  1
  O  O2  1  0.45443400  0.03283300  0.69102400  1
  O  O3  1  0.54556600  0.96716700  0.30897600  1
  O  O4  1  0.23681900  0.00324600  0.00619000  1
  O  O5  1  0.76318100  0.99675400  0.99381000  1
  O  O6  1  0.31158500  0.27950000  0.80786000  1
  O  O7  1  0.68841500  0.72050000  0.19214000  1
  O  O8  1  0.75488400  0.45014500  0.05237700  1
  O  O9  1  0.24511600  0.54985500  0.94762300  1
  O  O10  1  0.20136500  0.71027500  0.16841900  1
  O  O11  1  0.79863500  0.28972500  0.83158100  1
  O  O12  1  0.07712100  0.05153900  0.21804100  1
  O  O13  1  0.92287900  0.94846100  0.78195900  1
  O  O14  1  0.61054600  0.14651200  0.16526900  1
  O  O15  1  0.38945400  0.85348800  0.83473100  1
loop_
_geom_bond_atom_site_label_1
_geom_bond_atom_site_label_2
_geom_bond_distance
_geom_bond_site_symmetry_2
Ca0 O0 2.336591 1_556
Ca0 O6 2.360888 1_555
Ca0 O11 2.420562 1_455
Ca0 O9 2.430178 1_555
Ca0 O13 2.433771 1_445
Ca0 O5 2.567027 1_445
Ca0 O4 2.615814 1_556
Ca1 O1 2.336591 1_554
Ca1 O7 2.360888 1_555
Ca1 O10 2.420562 1_655
Ca1 O8 2.430178 1_555
Ca1 O12 2.433771 1_665
Ca1 O4 2.567027 1_665
Ca1 O5 2.615814 1_554
H0 O10 1.007384 1_555
H0 O3 1.664129 1_555
H1 O11 1.007384 1_555
H1 O2 1.664129 1_555
H2 O7 0.980648 1_555
H3 O6 0.980648 1_555
H4 O4 1.002032 1_555
H5 O5 1.002032 1_555
H6 O6 0.975045 1_555
H7 O7 0.975045 1_555
H8 O9 0.981201 1_554
H9 O8 0.981201 1_556
H10 O5 0.985509 1_544
H11 O4 0.985509 1_566
H12 O10 0.977797 1_555
H13 O11 0.977797 1_555
H14 O8 0.992035 1_555
H15 O9 0.992035 1_555
C0 N1 1.355432 1_555
C0 C1 1.406099 1_555
C0 S0 1.722695 1_555
C1 N0 1.355432 1_555
C1 S1 1.722695 1_555
C2 O3 1.271056 1_545
C2 O14 1.277581 1_555
C3 O2 1.271056 1_565
C3 O15 1.277581 1_555
C4 N3 1.321490 1_555
C4 S3 1.752117 1_555
C5 N2 1.321490 1_555
C5 S2 1.752117 1_555
C6 N0 1.322831 1_555
C6 S0 1.742889 1_555
C7 N1 1.322831 1_555
C7 S1 1.742889 1_555
C8 O0 1.267912 1_555
C8 O12 1.270188 1_555
C9 O1 1.267912 1_555
C9 O13 1.270188 1_555
C10 N3 1.353661 1_455
C10 C11 1.409811 1_455
C10 S2 1.721537 1_555
C11 N2 1.353661 1_655
C11 S3 1.721537 1_555
