# generated using pymatgen
data_Na2Zn(GeSe3)2
_symmetry_space_group_name_H-M   'P 1'
_cell_length_a   11.06007167
_cell_length_b   11.06007167
_cell_length_c   11.06007167
_cell_angle_alpha   137.88447240
_cell_angle_beta   137.88447240
_cell_angle_gamma   61.07998054
_symmetry_Int_Tables_number   1
_chemical_formula_structural   Na2Zn(GeSe3)2
_chemical_formula_sum   'Na4 Zn2 Ge4 Se12'
_cell_volume   601.74381702
_cell_formula_units_Z   2
loop_
 _symmetry_equiv_pos_site_id
 _symmetry_equiv_pos_as_xyz
  1  'x, y, z'
loop_
 _atom_site_type_symbol
 _atom_site_label
 _atom_site_symmetry_multiplicity
 _atom_site_fract_x
 _atom_site_fract_y
 _atom_site_fract_z
 _atom_site_occupancy
  Na  Na0  1  0.38257700  0.38257700  0.00000000  1
  Na  Na1  1  0.88257700  0.88257700  0.00000000  1
  Na  Na2  1  0.61742300  0.61742300  0.00000000  1
  Na  Na3  1  0.11742300  0.11742300  0.00000000  1
  Zn  Zn0  1  0.75000000  0.25000000  0.50000000  1
  Zn  Zn1  1  0.25000000  0.75000000  0.50000000  1
  Ge  Ge0  1  0.91504900  0.41504900  0.50000000  1
  Ge  Ge1  1  0.41504900  0.91504900  0.50000000  1
  Ge  Ge2  1  0.08495100  0.58495100  0.50000000  1
  Ge  Ge3  1  0.58495100  0.08495100  0.50000000  1
  Se  Se0  1  0.83808800  0.33808800  0.17617600  1
  Se  Se1  1  0.16191200  0.66191200  0.82382400  1
  Se  Se2  1  0.33808800  0.16191200  0.50000000  1
  Se  Se3  1  0.66191200  0.83808800  0.50000000  1
  Se  Se4  1  0.67213700  0.50527400  0.50000000  1
  Se  Se5  1  0.00527400  0.17213700  0.50000000  1
  Se  Se6  1  0.17213700  0.67213700  0.16686300  1
  Se  Se7  1  0.50527400  0.00527400  0.83313700  1
  Se  Se8  1  0.32786300  0.49472600  0.50000000  1
  Se  Se9  1  0.99472600  0.82786300  0.50000000  1
  Se  Se10  1  0.82786300  0.32786300  0.83313700  1
  Se  Se11  1  0.49472600  0.99472600  0.16686300  1
loop_
_geom_bond_atom_site_label_1
_geom_bond_atom_site_label_2
_geom_bond_distance
_geom_bond_site_symmetry_2
Na0 Se7 3.078034 1_554
Na0 Se4 3.078034 1_555
Na0 Se5 3.078034 1_554
Na0 Se6 3.078034 1_555
Na1 Se6 3.078034 1_655
Na1 Se4 3.078034 1_554
Na1 Se7 3.078034 1_564
Na1 Se5 3.078034 1_665
Na2 Se8 3.078034 1_554
Na2 Se9 3.078034 1_555
Na2 Se11 3.078034 1_555
Na2 Se10 3.078034 1_554
Na3 Se10 3.078034 1_454
Na3 Se8 3.078034 1_555
Na3 Se9 3.078034 1_444
Na3 Se11 3.078034 1_545
Ge0 Se4 2.370817 1_555
Ge0 Se5 2.370817 1_655
Ge0 Se0 2.435455 1_555
Ge0 Se1 2.435455 1_655
Ge1 Se7 2.370817 1_565
Ge1 Se6 2.370817 1_555
Ge1 Se3 2.435455 1_555
Ge1 Se2 2.435455 1_565
Ge2 Se8 2.370817 1_555
Ge2 Se9 2.370817 1_455
Ge2 Se1 2.435455 1_555
Ge2 Se0 2.435455 1_455
Ge3 Se10 2.370817 1_555
Ge3 Se11 2.370817 1_545
Ge3 Se2 2.435455 1_555
Ge3 Se3 2.435455 1_545
Se4 Zn0 2.522169 1_555
Se5 Zn0 2.522169 1_455
Se6 Zn1 2.522169 1_555
Se7 Zn1 2.522169 1_545
Se8 Zn1 2.522169 1_555
Se9 Zn1 2.522169 1_655
Se10 Zn0 2.522169 1_555
Se11 Zn0 2.522169 1_565
