# generated using pymatgen
data_TbMg(BO2)5
_symmetry_space_group_name_H-M   'P 1'
_cell_length_a   7.65979000
_cell_length_b   8.64242200
_cell_length_c   12.38435164
_cell_angle_alpha   49.29240774
_cell_angle_beta   90.00000000
_cell_angle_gamma   90.00000000
_symmetry_Int_Tables_number   1
_chemical_formula_structural   TbMg(BO2)5
_chemical_formula_sum   'Tb4 Mg4 B20 O40'
_cell_volume   621.47300235
_cell_formula_units_Z   4
loop_
 _symmetry_equiv_pos_site_id
 _symmetry_equiv_pos_as_xyz
  1  'x, y, z'
loop_
 _atom_site_type_symbol
 _atom_site_label
 _atom_site_symmetry_multiplicity
 _atom_site_fract_x
 _atom_site_fract_y
 _atom_site_fract_z
 _atom_site_occupancy
  Tb  Tb0  1  0.19069900  0.94649500  0.24053000  1
  Tb  Tb1  1  0.80930100  0.05350500  0.75947000  1
  Tb  Tb2  1  0.69069900  0.05350500  0.25947000  1
  Tb  Tb3  1  0.30930100  0.94649500  0.74053000  1
  Mg  Mg0  1  0.90917700  0.52619700  0.37225600  1
  Mg  Mg1  1  0.09082300  0.47380300  0.62774400  1
  Mg  Mg2  1  0.40917700  0.47380300  0.12774400  1
  Mg  Mg3  1  0.59082300  0.52619700  0.87225600  1
  B  B0  1  0.82666400  0.91232000  0.10412600  1
  B  B1  1  0.17333600  0.08768000  0.89587400  1
  B  B2  1  0.32666400  0.08768000  0.39587400  1
  B  B3  1  0.67333600  0.91232000  0.60412600  1
  B  B4  1  0.57635300  0.65828800  0.25870400  1
  B  B5  1  0.42364700  0.34171200  0.74129600  1
  B  B6  1  0.07635300  0.34171200  0.24129600  1
  B  B7  1  0.92364700  0.65828800  0.75870400  1
  B  B8  1  0.81257900  0.47788200  0.08808100  1
  B  B9  1  0.18742100  0.52211800  0.91191900  1
  B  B10  1  0.31257900  0.52211800  0.41191900  1
  B  B11  1  0.68742100  0.47788200  0.58808100  1
  B  B12  1  0.46827600  0.72234400  0.55558300  1
  B  B13  1  0.53172400  0.27765600  0.44441700  1
  B  B14  1  0.96827600  0.27765600  0.94441700  1
  B  B15  1  0.03172400  0.72234400  0.05558300  1
  B  B16  1  0.59807700  0.84638900  0.99552000  1
  B  B17  1  0.40192300  0.15361100  0.00448000  1
  B  B18  1  0.09807700  0.15361100  0.50448000  1
  B  B19  1  0.90192300  0.84638900  0.49552000  1
  O  O0  1  0.91327600  0.31282300  0.19395500  1
  O  O1  1  0.08672400  0.68717700  0.80604500  1
  O  O2  1  0.41327600  0.68717700  0.30604500  1
  O  O3  1  0.58672400  0.31282300  0.69395500  1
  O  O4  1  0.87371200  0.67370800  0.00940600  1
  O  O5  1  0.12628800  0.32629200  0.99059400  1
  O  O6  1  0.37371200  0.32629200  0.49059400  1
  O  O7  1  0.62628800  0.67370800  0.50940600  1
  O  O8  1  0.39094400  0.90669200  0.41874200  1
  O  O9  1  0.60905600  0.09330800  0.58125800  1
  O  O10  1  0.89094400  0.09330800  0.08125800  1
  O  O11  1  0.10905600  0.90669200  0.91874200  1
  O  O12  1  0.71096600  0.80324700  0.23120700  1
  O  O13  1  0.28903400  0.19675300  0.76879300  1
  O  O14  1  0.21096600  0.19675300  0.26879300  1
  O  O15  1  0.78903400  0.80324700  0.73120700  1
  O  O16  1  0.65121400  0.42385900  0.07333200  1
  O  O17  1  0.34878600  0.57614100  0.92666800  1
  O  O18  1  0.15121400  0.57614100  0.42666800  1
  O  O19  1  0.84878600  0.42385900  0.57333200  1
  O  O20  1  0.77152700  0.97332500  0.47962100  1
  O  O21  1  0.22847300  0.02667500  0.52037900  1
  O  O22  1  0.27152700  0.02667500  0.02037900  1
  O  O23  1  0.72847300  0.97332500  0.97962100  1
  O  O24  1  0.64999000  0.45269600  0.36543700  1
  O  O25  1  0.35001000  0.54730400  0.63456300  1
  O  O26  1  0.14999000  0.54730400  0.13456300  1
  O  O27  1  0.85001000  0.45269600  0.86543700  1
  O  O28  1  0.53086200  0.68946000  0.12774400  1
  O  O29  1  0.46913800  0.31054000  0.87225600  1
  O  O30  1  0.03086200  0.31054000  0.37225600  1
  O  O31  1  0.96913800  0.68946000  0.62774400  1
  O  O32  1  0.95267700  0.88245400  0.37633000  1
  O  O33  1  0.04732300  0.11754600  0.62367000  1
  O  O34  1  0.45267700  0.11754600  0.12367000  1
  O  O35  1  0.54732300  0.88245400  0.87633000  1
  O  O36  1  0.97187300  0.76653100  0.14811600  1
  O  O37  1  0.02812700  0.23346900  0.85188400  1
  O  O38  1  0.47187300  0.23346900  0.35188400  1
  O  O39  1  0.52812700  0.76653100  0.64811600  1
loop_
_geom_bond_atom_site_label_1
_geom_bond_atom_site_label_2
_geom_bond_distance
_geom_bond_site_symmetry_2
Mg0 O19 2.079528 1_555
Mg0 O30 2.083872 1_655
Mg0 O24 2.102880 1_555
Mg0 O18 2.111145 1_655
Mg0 O36 2.174730 1_555
Mg0 O12 2.373568 1_555
Mg1 O18 2.079528 1_555
Mg1 O31 2.083872 1_455
Mg1 O25 2.102880 1_555
Mg1 O19 2.111145 1_455
Mg1 O37 2.174730 1_555
Mg1 O13 2.373568 1_555
Mg2 O17 2.079528 1_554
Mg2 O28 2.083872 1_555
Mg2 O26 2.102880 1_555
Mg2 O16 2.111145 1_555
Mg2 O38 2.174730 1_555
Mg2 O14 2.373568 1_555
Mg3 O16 2.079528 1_556
Mg3 O29 2.083872 1_555
Mg3 O27 2.102880 1_555
Mg3 O17 2.111145 1_555
Mg3 O39 2.174730 1_555
Mg3 O15 2.373568 1_555
B0 O23 1.469951 1_554
B0 O10 1.480355 1_565
B0 O12 1.488531 1_555
B0 O36 1.492013 1_555
B1 O22 1.469951 1_556
B1 O11 1.480355 1_545
B1 O13 1.488531 1_555
B1 O37 1.492013 1_555
B2 O21 1.469951 1_555
B2 O8 1.480355 1_545
B2 O14 1.488531 1_555
B2 O38 1.492013 1_555
B3 O20 1.469951 1_555
B3 O9 1.480355 1_565
B3 O15 1.488531 1_555
B3 O39 1.492013 1_555
B4 O2 1.468790 1_555
B4 O24 1.469311 1_555
B4 O12 1.480596 1_555
B4 O28 1.501492 1_555
B5 O3 1.468790 1_555
B5 O25 1.469311 1_555
B5 O13 1.480596 1_555
B5 O29 1.501492 1_555
B6 O0 1.468790 1_455
B6 O26 1.469311 1_555
B6 O14 1.480596 1_555
B6 O30 1.501492 1_555
B7 O1 1.468790 1_655
B7 O27 1.469311 1_555
B7 O15 1.480596 1_555
B7 O31 1.501492 1_555
B8 O4 1.371837 1_555
B8 O16 1.374896 1_555
B8 O0 1.381772 1_555
B9 O5 1.371837 1_555
B9 O17 1.374896 1_555
B9 O1 1.381772 1_555
B10 O6 1.371837 1_555
B10 O18 1.374896 1_555
B10 O2 1.381772 1_555
B11 O7 1.371837 1_555
B11 O19 1.374896 1_555
B11 O3 1.381772 1_555
B12 O25 1.461422 1_555
B12 O8 1.496428 1_555
B12 O39 1.496686 1_555
B12 O7 1.510690 1_555
B13 O24 1.461422 1_555
B13 O9 1.496428 1_555
B13 O38 1.496686 1_555
B13 O6 1.510690 1_555
B14 O27 1.461422 1_555
B14 O10 1.496428 1_556
B14 O37 1.496686 1_655
B14 O5 1.510690 1_655
B15 O26 1.461422 1_555
B15 O11 1.496428 1_554
B15 O36 1.496686 1_455
B15 O4 1.510690 1_455
B16 O35 1.351667 1_555
B16 O28 1.374416 1_556
B16 O23 1.399325 1_555
B17 O34 1.351667 1_555
B17 O29 1.374416 1_554
B17 O22 1.399325 1_555
B18 O33 1.351667 1_555
B18 O30 1.374416 1_555
B18 O21 1.399325 1_555
B19 O32 1.351667 1_555
B19 O31 1.374416 1_555
B19 O20 1.399325 1_555
O0 Tb2 2.493146 1_555
O1 Tb3 2.493146 1_555
O2 Tb0 2.493146 1_555
O3 Tb1 2.493146 1_555
O4 Tb1 2.710287 1_564
O5 Tb0 2.710287 1_546
O6 Tb3 2.710287 1_545
O7 Tb2 2.710287 1_565
O8 Tb0 2.520257 1_555
O8 Tb2 2.740060 1_565
O9 Tb1 2.520257 1_555
O9 Tb3 2.740060 1_545
O10 Tb2 2.520257 1_555
O10 Tb0 2.740060 1_645
O11 Tb3 2.520257 1_555
O11 Tb1 2.740060 1_465
O12 Tb2 2.410797 1_565
O13 Tb3 2.410797 1_545
O14 Tb0 2.410797 1_545
O15 Tb1 2.410797 1_565
O16 Tb2 2.454773 1_555
O17 Tb3 2.454773 1_555
O18 Tb0 2.454773 1_555
O19 Tb1 2.454773 1_555
O20 Tb2 2.415064 1_565
O21 Tb3 2.415064 1_545
O22 Tb0 2.415064 1_545
O23 Tb1 2.415064 1_565
O32 Tb0 2.290121 1_655
O32 Tb2 2.348616 1_565
O33 Tb1 2.290121 1_455
O33 Tb3 2.348616 1_545
O34 Tb2 2.290121 1_555
O34 Tb0 2.348616 1_545
O35 Tb3 2.290121 1_555
O35 Tb1 2.348616 1_565
O36 Tb0 2.976625 1_655
O37 Tb1 2.976625 1_455
O38 Tb2 2.976625 1_555
O39 Tb3 2.976625 1_555
