# generated using pymatgen
data_HoTm3
_symmetry_space_group_name_H-M   'P 1'
_cell_length_a   7.07832405
_cell_length_b   7.07829400
_cell_length_c   5.68888074
_cell_angle_alpha   90.00000000
_cell_angle_beta   90.00000000
_cell_angle_gamma   119.99986776
_symmetry_Int_Tables_number   1
_chemical_formula_structural   HoTm3
_chemical_formula_sum   'Ho2 Tm6'
_cell_volume   246.84087561
_cell_formula_units_Z   2
loop_
 _symmetry_equiv_pos_site_id
 _symmetry_equiv_pos_as_xyz
  1  'x, y, z'
loop_
 _atom_site_type_symbol
 _atom_site_label
 _atom_site_symmetry_multiplicity
 _atom_site_fract_x
 _atom_site_fract_y
 _atom_site_fract_z
 _atom_site_occupancy
  Ho  Ho0  1  0.33333666  0.66666883  0.75000100  1
  Ho  Ho1  1  0.66666234  0.33333217  0.25000000  1
  Tm  Tm0  1  0.16613253  0.33226869  0.25000000  1
  Tm  Tm1  1  0.66773530  0.83386865  0.25000000  1
  Tm  Tm2  1  0.16613253  0.83386784  0.25000000  1
  Tm  Tm3  1  0.83386747  0.66773331  0.75000100  1
  Tm  Tm4  1  0.33226570  0.16613235  0.75000100  1
  Tm  Tm5  1  0.83386947  0.16613516  0.75000100  1
loop_
_geom_bond_atom_site_label_1
_geom_bond_atom_site_label_2
_geom_bond_distance
_geom_bond_site_symmetry_2
Ho0 Tm1 3.506105 1_556
Ho0 Tm0 3.506105 1_556
Ho0 Tm1 3.506114 1_555
Ho0 Tm0 3.506115 1_555
Ho0 Tm2 3.506116 1_556
Ho0 Tm2 3.506125 1_555
Ho0 Tm4 3.539146 1_565
Ho0 Tm3 3.539158 1_555
Ho0 Tm4 3.539160 1_555
Ho0 Tm5 3.539165 1_565
Ho0 Tm5 3.539171 1_455
Ho0 Tm3 3.539178 1_455
Ho1 Tm4 3.506098 1_554
Ho1 Tm4 3.506107 1_555
Ho1 Tm3 3.506109 1_554
Ho1 Tm3 3.506118 1_555
Ho1 Tm5 3.506120 1_554
Ho1 Tm5 3.506129 1_555
Ho1 Tm2 3.539147 1_545
Ho1 Tm1 3.539153 1_555
Ho1 Tm1 3.539153 1_545
Ho1 Tm0 3.539154 1_555
Ho1 Tm0 3.539182 1_655
Ho1 Tm2 3.539188 1_655
Tm0 Tm5 3.498467 1_454
Tm0 Tm5 3.498477 1_455
Tm0 Tm4 3.498485 1_554
Tm0 Tm4 3.498495 1_555
Tm0 Tm1 3.527827 1_445
Tm0 Tm2 3.527828 1_545
Tm0 Tm2 3.550466 1_555
Tm0 Tm1 3.550497 1_555
Tm1 Tm5 3.498475 1_564
Tm1 Tm3 3.498478 1_554
Tm1 Tm5 3.498484 1_565
Tm1 Tm3 3.498488 1_555
Tm1 Tm2 3.527820 1_655
Tm1 Tm2 3.550504 1_555
Tm2 Tm4 3.498467 1_564
Tm2 Tm3 3.498474 1_454
Tm2 Tm4 3.498477 1_565
Tm2 Tm3 3.498484 1_455
Tm3 Tm4 3.527827 1_665
Tm3 Tm5 3.527828 1_565
Tm3 Tm5 3.550466 1_555
Tm3 Tm4 3.550497 1_555
Tm4 Tm5 3.527820 1_455
Tm4 Tm5 3.550504 1_555
