# generated using pymatgen
data_Ca2GePt2
_symmetry_space_group_name_H-M   'P 1'
_cell_length_a   5.59268004
_cell_length_b   5.59268004
_cell_length_c   7.94088330
_cell_angle_alpha   79.70865831
_cell_angle_beta   79.70865831
_cell_angle_gamma   60.42187119
_symmetry_Int_Tables_number   1
_chemical_formula_structural   Ca2GePt2
_chemical_formula_sum   'Ca4 Ge2 Pt4'
_cell_volume   211.34175976
_cell_formula_units_Z   2
loop_
 _symmetry_equiv_pos_site_id
 _symmetry_equiv_pos_as_xyz
  1  'x, y, z'
loop_
 _atom_site_type_symbol
 _atom_site_label
 _atom_site_symmetry_multiplicity
 _atom_site_fract_x
 _atom_site_fract_y
 _atom_site_fract_z
 _atom_site_occupancy
  Ca  Ca0  1  0.78411438  0.52076455  0.84657585  1
  Ca  Ca1  1  0.47923545  0.21588562  0.65342415  1
  Ca  Ca2  1  0.21588562  0.47923545  0.15342415  1
  Ca  Ca3  1  0.52076455  0.78411438  0.34657585  1
  Ge  Ge0  1  0.12070599  0.87929401  0.75000000  1
  Ge  Ge1  1  0.87929401  0.12070599  0.25000000  1
  Pt  Pt0  1  0.00415624  0.74027857  0.50018766  1
  Pt  Pt1  1  0.25972143  0.99584376  0.99981234  1
  Pt  Pt2  1  0.99584376  0.25972143  0.49981234  1
  Pt  Pt3  1  0.74027857  0.00415624  0.00018766  1
loop_
_geom_bond_atom_site_label_1
_geom_bond_atom_site_label_2
_geom_bond_distance
_geom_bond_site_symmetry_2
Ca0 Pt3 3.037898 1_556
Ca0 Pt3 3.045300 1_566
Ca0 Pt1 3.054287 1_555
Ca0 Pt1 3.057023 1_645
Ca0 Pt0 3.108537 1_655
Ca0 Pt2 3.111370 1_555
Ca0 Ge0 3.286694 1_645
Ca0 Ge0 3.288374 1_655
Ca0 Ge0 3.390767 1_555
Ca0 Ge1 3.524841 1_556
Ca1 Pt2 3.037898 1_555
Ca1 Pt2 3.045300 1_455
Ca1 Pt0 3.054287 1_555
Ca1 Pt0 3.057023 1_645
Ca1 Pt1 3.108537 1_545
Ca1 Pt3 3.111370 1_556
Ca1 Ge0 3.286694 1_645
Ca1 Ge0 3.288374 1_545
Ca1 Ge0 3.390767 1_555
Ca1 Ge1 3.524841 1_555
Ca2 Pt1 3.037898 1_554
Ca2 Pt1 3.045300 1_544
Ca2 Pt3 3.054287 1_555
Ca2 Pt3 3.057023 1_465
Ca2 Pt2 3.108537 1_455
Ca2 Pt0 3.111370 1_555
Ca2 Ge1 3.286694 1_465
Ca2 Ge1 3.288374 1_455
Ca2 Ge1 3.390767 1_555
Ca2 Ge0 3.524841 1_554
Ca3 Pt0 3.037898 1_555
Ca3 Pt0 3.045300 1_655
Ca3 Pt2 3.054287 1_555
Ca3 Pt2 3.057023 1_465
Ca3 Pt3 3.108537 1_565
Ca3 Pt1 3.111370 1_554
Ca3 Ge1 3.286694 1_465
Ca3 Ge1 3.288374 1_565
Ca3 Ge1 3.390767 1_555
Ca3 Ge0 3.524841 1_555
Ge0 Pt1 2.545173 1_555
Ge0 Pt0 2.545173 1_555
Ge0 Pt2 2.545589 1_465
Ge0 Pt3 2.545589 1_466
Ge1 Pt2 2.545173 1_555
Ge1 Pt3 2.545173 1_555
Ge1 Pt1 2.545589 1_644
Ge1 Pt0 2.545589 1_645
Pt0 Pt2 2.711390 1_455
Pt0 Pt2 2.881887 1_465
Pt1 Pt3 2.711390 1_566
Pt1 Pt3 2.881887 1_466
