# generated using pymatgen
data_Tb3Ni11Ge4
_symmetry_space_group_name_H-M   'P 1'
_cell_length_a   8.33729142
_cell_length_b   8.33729142
_cell_length_c   8.59635100
_cell_angle_alpha   90.00000000
_cell_angle_beta   90.00000000
_cell_angle_gamma   119.99999539
_symmetry_Int_Tables_number   1
_chemical_formula_structural   Tb3Ni11Ge4
_chemical_formula_sum   'Tb6 Ni22 Ge8'
_cell_volume   517.48141351
_cell_formula_units_Z   2
loop_
 _symmetry_equiv_pos_site_id
 _symmetry_equiv_pos_as_xyz
  1  'x, y, z'
loop_
 _atom_site_type_symbol
 _atom_site_label
 _atom_site_symmetry_multiplicity
 _atom_site_fract_x
 _atom_site_fract_y
 _atom_site_fract_z
 _atom_site_occupancy
  Tb  Tb0  1  0.80462600  0.19537400  0.75000000  1
  Tb  Tb1  1  0.19537400  0.80462600  0.25000000  1
  Tb  Tb2  1  0.39074800  0.19537400  0.75000000  1
  Tb  Tb3  1  0.60925200  0.80462600  0.25000000  1
  Tb  Tb4  1  0.80462600  0.60925200  0.75000000  1
  Tb  Tb5  1  0.19537400  0.39074800  0.25000000  1
  Ni  Ni0  1  0.84167100  0.15832900  0.40387100  1
  Ni  Ni1  1  0.15832900  0.84167100  0.59612900  1
  Ni  Ni2  1  0.31665800  0.15832900  0.40387100  1
  Ni  Ni3  1  0.15832900  0.84167100  0.90387100  1
  Ni  Ni4  1  0.68334200  0.84167100  0.59612900  1
  Ni  Ni5  1  0.84167100  0.15832900  0.09612900  1
  Ni  Ni6  1  0.84167100  0.68334200  0.40387100  1
  Ni  Ni7  1  0.68334200  0.84167100  0.90387100  1
  Ni  Ni8  1  0.15832900  0.31665800  0.59612900  1
  Ni  Ni9  1  0.31665800  0.15832900  0.09612900  1
  Ni  Ni10  1  0.15832900  0.31665800  0.90387100  1
  Ni  Ni11  1  0.84167100  0.68334200  0.09612900  1
  Ni  Ni12  1  0.43393100  0.56606900  0.75000000  1
  Ni  Ni13  1  0.56606900  0.43393100  0.25000000  1
  Ni  Ni14  1  0.13213900  0.56606900  0.75000000  1
  Ni  Ni15  1  0.86786100  0.43393100  0.25000000  1
  Ni  Ni16  1  0.43393100  0.86786100  0.75000000  1
  Ni  Ni17  1  0.56606900  0.13213900  0.25000000  1
  Ni  Ni18  1  0.66666700  0.33333300  0.00637900  1
  Ni  Ni19  1  0.33333300  0.66666700  0.99362100  1
  Ni  Ni20  1  0.33333300  0.66666700  0.50637900  1
  Ni  Ni21  1  0.66666700  0.33333300  0.49362100  1
  Ge  Ge0  1  0.50000000  0.50000000  0.00000000  1
  Ge  Ge1  1  0.00000000  0.50000000  0.00000000  1
  Ge  Ge2  1  0.50000000  0.50000000  0.50000000  1
  Ge  Ge3  1  0.50000000  0.00000000  0.00000000  1
  Ge  Ge4  1  0.00000000  0.50000000  0.50000000  1
  Ge  Ge5  1  0.50000000  0.00000000  0.50000000  1
  Ge  Ge6  1  0.00000000  0.00000000  0.75000000  1
  Ge  Ge7  1  0.00000000  0.00000000  0.25000000  1
loop_
_geom_bond_atom_site_label_1
_geom_bond_atom_site_label_2
_geom_bond_distance
_geom_bond_site_symmetry_2
Ni0 Ni15 2.564241 1_555
Ni0 Ni17 2.564241 1_555
Ni0 Ni21 2.642311 1_555
Ni0 Ni5 2.645458 1_555
Ni0 Ni8 2.821161 1_655
Ni0 Ni4 2.821161 1_545
Ni0 Tb3 2.913136 1_545
Ni0 Tb5 2.913136 1_655
Ni0 Tb0 3.023153 1_555
Ni1 Ni16 2.564241 1_555
Ni1 Ni14 2.564241 1_555
Ni1 Ni20 2.642311 1_555
Ni1 Ni3 2.645458 1_555
Ni1 Ni2 2.821161 1_565
Ni1 Ni6 2.821161 1_455
Ni1 Tb2 2.913136 1_565
Ni1 Tb4 2.913136 1_455
Ni1 Tb1 3.023153 1_555
Ni2 Ni21 2.642318 1_555
Ni2 Ni9 2.645458 1_555
Ni2 Ni8 2.821161 1_555
Ni2 Tb5 2.913136 1_555
Ni2 Tb1 2.913136 1_545
Ni2 Tb2 3.023153 1_555
Ni3 Ni9 2.821161 1_566
Ni3 Tb2 2.913136 1_565
Ni3 Tb4 2.913136 1_455
Ni3 Tb1 3.023153 1_556
Ni4 Ni7 2.645458 1_555
Ni4 Ni6 2.821161 1_555
Ni4 Tb4 2.913136 1_555
Ni4 Tb0 2.913136 1_565
Ni4 Tb3 3.023153 1_555
Ni5 Ni7 2.821161 1_544
Ni5 Tb5 2.913136 1_655
Ni5 Tb3 2.913136 1_545
Ni5 Tb0 3.023153 1_554
Ni6 Tb3 2.913136 1_555
Ni6 Tb1 2.913136 1_655
Ni6 Tb4 3.023153 1_555
Ni7 Tb4 2.913136 1_555
Ni7 Tb0 2.913136 1_565
Ni7 Tb3 3.023153 1_556
Ni8 Tb2 2.913136 1_555
Ni8 Tb0 2.913136 1_455
Ni8 Tb5 3.023153 1_555
Ni9 Tb5 2.913136 1_555
Ni9 Tb1 2.913136 1_545
Ni9 Tb2 3.023153 1_554
Ni10 Ni14 2.564233 1_555
Ni10 Ni12 2.564238 1_555
Ni10 Ni19 2.642318 1_555
Ni10 Ni8 2.645458 1_555
Ni10 Ni9 2.821161 1_556
Ni10 Ni5 2.821161 1_456
Ni10 Tb2 2.913136 1_555
Ni10 Tb0 2.913136 1_455
Ni10 Tb5 3.023153 1_556
Ni11 Ni15 2.564233 1_555
Ni11 Ni13 2.564238 1_555
Ni11 Ni18 2.642318 1_555
Ni11 Ni6 2.645458 1_555
Ni11 Ni7 2.821161 1_554
Ni11 Ni3 2.821161 1_654
Ni11 Tb3 2.913136 1_555
Ni11 Tb1 2.913136 1_655
Ni11 Tb4 3.023153 1_554
Ni12 Ni14 2.516128 1_555
Ni12 Ni16 2.516128 1_555
Ni12 Ni19 2.548768 1_555
Ni12 Ni20 2.548768 1_555
Ni12 Ni8 2.564238 1_555
Ni12 Ni7 2.564238 1_555
Ni12 Ni4 2.564238 1_555
Ni12 Tb2 2.927230 1_555
Ni12 Tb4 2.927230 1_555
Ni13 Ni17 2.516128 1_555
Ni13 Ni15 2.516128 1_555
Ni13 Ni21 2.548768 1_555
Ni13 Ni18 2.548768 1_555
Ni13 Ni2 2.564238 1_555
Ni13 Ni9 2.564238 1_555
Ni13 Ni6 2.564238 1_555
Ni13 Tb5 2.927230 1_555
Ni13 Tb3 2.927230 1_555
Ni14 Ni16 2.516128 1_555
Ni14 Ni19 2.548760 1_555
Ni14 Ni20 2.548760 1_555
Ni14 Ni8 2.564233 1_555
Ni14 Ni3 2.564241 1_555
Ni14 Tb0 2.927234 1_455
Ni14 Tb4 2.927239 1_455
Ni15 Ni17 2.516128 1_555
Ni15 Ni21 2.548760 1_555
Ni15 Ni18 2.548760 1_555
Ni15 Ni6 2.564233 1_555
Ni15 Ni5 2.564241 1_555
Ni15 Tb1 2.927234 1_655
Ni15 Tb5 2.927239 1_655
Ni16 Ni19 2.548760 1_555
Ni16 Ni20 2.548760 1_555
Ni16 Ni7 2.564233 1_555
Ni16 Ni4 2.564233 1_555
Ni16 Ni3 2.564241 1_555
Ni16 Tb0 2.927234 1_565
Ni16 Tb2 2.927239 1_565
Ni17 Ni21 2.548760 1_555
Ni17 Ni18 2.548760 1_555
Ni17 Ni2 2.564233 1_555
Ni17 Ni9 2.564233 1_555
Ni17 Ni5 2.564241 1_555
Ni17 Tb1 2.927234 1_545
Ni17 Tb3 2.927239 1_545
Ni18 Ni5 2.642311 1_555
Ni18 Ni9 2.642318 1_555
Ni18 Tb0 2.970891 1_554
Ni18 Tb2 2.970895 1_554
Ni18 Tb4 2.970895 1_554
Ni19 Ni3 2.642311 1_555
Ni19 Ni7 2.642318 1_555
Ni19 Tb1 2.970891 1_556
Ni19 Tb5 2.970895 1_556
Ni19 Tb3 2.970895 1_556
Ni20 Ni4 2.642318 1_555
Ni20 Ni8 2.642318 1_555
Ni20 Tb1 2.970891 1_555
Ni20 Tb3 2.970895 1_555
Ni20 Tb5 2.970895 1_555
Ni21 Ni6 2.642318 1_555
Ni21 Tb0 2.970891 1_555
Ni21 Tb2 2.970895 1_555
Ni21 Tb4 2.970895 1_555
Ge0 Ni13 2.351349 1_555
Ge0 Ni12 2.351349 1_554
Ge0 Ni19 2.407398 1_554
Ge0 Ni18 2.407398 1_555
Ge0 Ni11 2.603782 1_555
Ge0 Ni9 2.603782 1_555
Ge0 Ni10 2.603782 1_554
Ge0 Ni7 2.603782 1_554
Ge0 Tb4 3.096003 1_554
Ge0 Tb3 3.096003 1_555
Ge0 Tb2 3.096003 1_554
Ge0 Tb5 3.096003 1_555
Ge1 Ni14 2.351352 1_554
Ge1 Ni15 2.351352 1_455
Ge1 Ni19 2.407391 1_554
Ge1 Ni18 2.407391 1_455
Ge1 Ni11 2.603781 1_455
Ge1 Ni10 2.603781 1_554
Ge1 Ni5 2.603782 1_455
Ge1 Ni3 2.603782 1_554
Ge1 Tb5 3.096003 1_555
Ge1 Tb4 3.096003 1_454
Ge1 Tb1 3.096004 1_555
Ge1 Tb0 3.096004 1_454
Ge2 Ni12 2.351349 1_555
Ge2 Ni13 2.351349 1_555
Ge2 Ni20 2.407398 1_555
Ge2 Ni21 2.407398 1_555
Ge2 Ni8 2.603782 1_555
Ge2 Ni2 2.603782 1_555
Ge2 Ni6 2.603782 1_555
Ge2 Ni4 2.603782 1_555
Ge2 Tb3 3.096003 1_555
Ge2 Tb4 3.096003 1_555
Ge2 Tb5 3.096003 1_555
Ge2 Tb2 3.096003 1_555
Ge3 Ni16 2.351352 1_544
Ge3 Ni17 2.351352 1_555
Ge3 Ni19 2.407391 1_544
Ge3 Ni18 2.407391 1_555
Ge3 Ni9 2.603781 1_555
Ge3 Ni7 2.603781 1_544
Ge3 Ni5 2.603782 1_555
Ge3 Ni3 2.603782 1_544
Ge3 Tb2 3.096003 1_554
Ge3 Tb3 3.096003 1_545
Ge3 Tb0 3.096004 1_554
Ge3 Tb1 3.096004 1_545
Ge4 Ni15 2.351352 1_455
Ge4 Ni14 2.351352 1_555
Ge4 Ni21 2.407391 1_455
Ge4 Ni20 2.407391 1_555
Ge4 Ni8 2.603781 1_555
Ge4 Ni6 2.603781 1_455
Ge4 Ni1 2.603782 1_555
Ge4 Ni0 2.603782 1_455
Ge4 Tb5 3.096003 1_555
Ge4 Tb4 3.096003 1_455
Ge4 Tb1 3.096004 1_555
Ge4 Tb0 3.096004 1_455
Ge5 Ni16 2.351352 1_545
Ge5 Ni17 2.351352 1_555
Ge5 Ni21 2.407391 1_555
Ge5 Ni20 2.407391 1_545
Ge5 Ni2 2.603781 1_555
Ge5 Ni4 2.603781 1_545
Ge5 Ni0 2.603782 1_555
Ge5 Ni1 2.603782 1_545
Ge5 Tb2 3.096003 1_555
Ge5 Tb3 3.096003 1_545
Ge5 Tb0 3.096004 1_555
Ge5 Tb1 3.096004 1_545
Ge6 Ni1 2.641418 1_545
Ge6 Ni3 2.641418 1_545
Ge6 Ni7 2.641418 1_445
Ge6 Ni10 2.641418 1_555
Ge6 Ni4 2.641418 1_445
Ge6 Ni8 2.641418 1_555
Ge6 Tb0 2.821320 1_455
Ge6 Tb2 2.821320 1_555
Ge6 Tb4 2.821320 1_445
Ge7 Ni0 2.641418 1_455
Ge7 Ni5 2.641418 1_455
Ge7 Ni6 2.641418 1_445
Ge7 Ni2 2.641418 1_555
Ge7 Ni9 2.641418 1_555
Ge7 Ni11 2.641418 1_445
Ge7 Tb1 2.821320 1_545
Ge7 Tb5 2.821320 1_555
Ge7 Tb3 2.821320 1_445
