# generated using pymatgen
data_RbNd(MoO4)2
_symmetry_space_group_name_H-M   'P 1'
_cell_length_a   5.26549300
_cell_length_b   8.43524600
_cell_length_c   18.99362100
_cell_angle_alpha   90.00000000
_cell_angle_beta   90.00000000
_cell_angle_gamma   90.00000000
_symmetry_Int_Tables_number   1
_chemical_formula_structural   RbNd(MoO4)2
_chemical_formula_sum   'Rb4 Nd4 Mo8 O32'
_cell_volume   843.61551863
_cell_formula_units_Z   4
loop_
 _symmetry_equiv_pos_site_id
 _symmetry_equiv_pos_as_xyz
  1  'x, y, z'
loop_
 _atom_site_type_symbol
 _atom_site_label
 _atom_site_symmetry_multiplicity
 _atom_site_fract_x
 _atom_site_fract_y
 _atom_site_fract_z
 _atom_site_occupancy
  Rb  Rb0  1  0.50000000  0.25000000  0.73129000  1
  Rb  Rb1  1  0.00000000  0.75000000  0.76871000  1
  Rb  Rb2  1  0.50000000  0.75000000  0.26871000  1
  Rb  Rb3  1  0.00000000  0.25000000  0.23129000  1
  Nd  Nd0  1  0.00000000  0.25000000  0.99275900  1
  Nd  Nd1  1  0.50000000  0.75000000  0.50724100  1
  Nd  Nd2  1  0.00000000  0.75000000  0.00724100  1
  Nd  Nd3  1  0.50000000  0.25000000  0.49275900  1
  Mo  Mo0  1  0.52385400  0.98113400  0.89897600  1
  Mo  Mo1  1  0.97614600  0.48113400  0.60102400  1
  Mo  Mo2  1  0.02385400  0.01886600  0.60102400  1
  Mo  Mo3  1  0.47614600  0.51886600  0.89897600  1
  Mo  Mo4  1  0.47614600  0.01886600  0.10102400  1
  Mo  Mo5  1  0.02385400  0.51886600  0.39897600  1
  Mo  Mo6  1  0.97614600  0.98113400  0.39897600  1
  Mo  Mo7  1  0.52385400  0.48113400  0.10102400  1
  O  O0  1  0.72761700  0.15197000  0.89998500  1
  O  O1  1  0.77238300  0.65197000  0.60001500  1
  O  O2  1  0.22761700  0.84803000  0.60001500  1
  O  O3  1  0.27238300  0.34803000  0.89998500  1
  O  O4  1  0.27238300  0.84803000  0.10001500  1
  O  O5  1  0.22761700  0.34803000  0.39998500  1
  O  O6  1  0.77238300  0.15197000  0.39998500  1
  O  O7  1  0.72761700  0.65197000  0.10001500  1
  O  O8  1  0.73645900  0.81226300  0.90870900  1
  O  O9  1  0.76354100  0.31226300  0.59129100  1
  O  O10  1  0.23645900  0.18773700  0.59129100  1
  O  O11  1  0.26354100  0.68773700  0.90870900  1
  O  O12  1  0.26354100  0.18773700  0.09129100  1
  O  O13  1  0.23645900  0.68773700  0.40870900  1
  O  O14  1  0.76354100  0.81226300  0.40870900  1
  O  O15  1  0.73645900  0.31226300  0.09129100  1
  O  O16  1  0.25677600  0.00433100  0.96262600  1
  O  O17  1  0.24322400  0.50433100  0.53737400  1
  O  O18  1  0.75677600  0.99566900  0.53737400  1
  O  O19  1  0.74322400  0.49566900  0.96262600  1
  O  O20  1  0.74322400  0.99566900  0.03737400  1
  O  O21  1  0.75677600  0.49566900  0.46262600  1
  O  O22  1  0.24322400  0.00433100  0.46262600  1
  O  O23  1  0.25677600  0.50433100  0.03737400  1
  O  O24  1  0.40194400  0.97343700  0.81299300  1
  O  O25  1  0.09805600  0.47343700  0.68700700  1
  O  O26  1  0.90194400  0.02656300  0.68700700  1
  O  O27  1  0.59805600  0.52656300  0.81299300  1
  O  O28  1  0.59805600  0.02656300  0.18700700  1
  O  O29  1  0.90194400  0.52656300  0.31299300  1
  O  O30  1  0.09805600  0.97343700  0.31299300  1
  O  O31  1  0.40194400  0.47343700  0.18700700  1
loop_
_geom_bond_atom_site_label_1
_geom_bond_atom_site_label_2
_geom_bond_distance
_geom_bond_site_symmetry_2
Nd0 O12 2.388286 1_556
Nd0 O15 2.388286 1_456
Nd0 O3 2.417817 1_555
Nd0 O0 2.417817 1_455
Nd0 O19 2.539675 1_455
Nd0 O16 2.539675 1_555
Nd0 O23 2.673693 1_556
Nd0 O20 2.673693 1_446
Nd1 O14 2.388286 1_555
Nd1 O13 2.388286 1_555
Nd1 O1 2.417817 1_555
Nd1 O2 2.417817 1_555
Nd1 O18 2.539675 1_555
Nd1 O17 2.539675 1_555
Nd1 O22 2.673693 1_565
Nd1 O21 2.673693 1_555
Nd2 O11 2.388286 1_554
Nd2 O8 2.388286 1_454
Nd2 O7 2.417817 1_455
Nd2 O4 2.417817 1_555
Nd2 O20 2.539675 1_455
Nd2 O23 2.539675 1_555
Nd2 O16 2.673693 1_564
Nd2 O19 2.673693 1_454
Nd3 O9 2.388286 1_555
Nd3 O10 2.388286 1_555
Nd3 O6 2.417817 1_555
Nd3 O5 2.417817 1_555
Nd3 O21 2.539675 1_555
Nd3 O22 2.539675 1_555
Nd3 O17 2.673693 1_555
Nd3 O18 2.673693 1_545
Mo0 O24 1.755956 1_555
Mo0 O0 1.796696 1_565
Mo0 O8 1.821126 1_555
Mo0 O16 1.864807 1_565
Mo1 O25 1.755956 1_655
Mo1 O1 1.796696 1_555
Mo1 O9 1.821126 1_555
Mo1 O17 1.864807 1_655
Mo2 O26 1.755956 1_455
Mo2 O2 1.796696 1_545
Mo2 O10 1.821126 1_555
Mo2 O18 1.864807 1_445
Mo3 O27 1.755956 1_555
Mo3 O3 1.796696 1_555
Mo3 O11 1.821126 1_555
Mo3 O19 1.864807 1_555
Mo4 O28 1.755956 1_555
Mo4 O4 1.796696 1_545
Mo4 O12 1.821126 1_555
Mo4 O20 1.864807 1_545
Mo5 O29 1.755956 1_455
Mo5 O5 1.796696 1_555
Mo5 O13 1.821126 1_555
Mo5 O21 1.864807 1_455
Mo6 O30 1.755956 1_655
Mo6 O6 1.796696 1_565
Mo6 O14 1.821126 1_555
Mo6 O22 1.864807 1_665
Mo7 O31 1.755956 1_555
Mo7 O7 1.796696 1_555
Mo7 O15 1.821126 1_555
Mo7 O23 1.864807 1_555
O8 Rb1 3.045033 1_655
O9 Rb0 3.045033 1_555
O10 Rb0 3.045033 1_555
O11 Rb1 3.045033 1_555
O12 Rb3 3.045033 1_555
O13 Rb2 3.045033 1_555
O14 Rb2 3.045033 1_555
O15 Rb3 3.045033 1_655
O24 Rb0 2.849050 1_565
O24 Rb1 2.956180 1_555
O25 Rb1 2.849050 1_555
O25 Rb0 2.956180 1_555
O26 Rb1 2.849050 1_645
O26 Rb0 2.956180 1_555
O27 Rb0 2.849050 1_555
O27 Rb1 2.956180 1_655
O28 Rb2 2.849050 1_545
O28 Rb3 2.956180 1_655
O29 Rb3 2.849050 1_655
O29 Rb2 2.956180 1_555
O30 Rb3 2.849050 1_565
O30 Rb2 2.956180 1_555
O31 Rb2 2.849050 1_555
O31 Rb3 2.956180 1_555
