# generated using pymatgen
data_Ca3(TaN2)2
_symmetry_space_group_name_H-M   'P 1'
_cell_length_a   8.46179730
_cell_length_b   7.96915371
_cell_length_c   5.34081294
_cell_angle_alpha   90.00000421
_cell_angle_beta   93.58686564
_cell_angle_gamma   118.09209473
_symmetry_Int_Tables_number   1
_chemical_formula_structural   Ca3(TaN2)2
_chemical_formula_sum   'Ca6 Ta4 N8'
_cell_volume   316.92055839
_cell_formula_units_Z   2
loop_
 _symmetry_equiv_pos_site_id
 _symmetry_equiv_pos_as_xyz
  1  'x, y, z'
loop_
 _atom_site_type_symbol
 _atom_site_label
 _atom_site_symmetry_multiplicity
 _atom_site_fract_x
 _atom_site_fract_y
 _atom_site_fract_z
 _atom_site_occupancy
  Ca  Ca0  1  0.26820800  0.00966900  0.00863300  1
  Ca  Ca1  1  0.73179200  0.74146000  0.49136700  1
  Ca  Ca2  1  0.73179200  0.99033100  0.99136700  1
  Ca  Ca3  1  0.26820800  0.25854000  0.50863300  1
  Ca  Ca4  1  0.00000000  0.60398600  0.75000000  1
  Ca  Ca5  1  0.00000000  0.39601400  0.25000000  1
  Ta  Ta0  1  0.61846600  0.20679600  0.56227000  1
  Ta  Ta1  1  0.38153400  0.58833100  0.93773000  1
  Ta  Ta2  1  0.38153400  0.79320400  0.43773000  1
  Ta  Ta3  1  0.61846600  0.41166900  0.06227000  1
  N  N0  1  0.33892300  0.00114900  0.55749000  1
  N  N1  1  0.66107700  0.66222600  0.94251000  1
  N  N2  1  0.66107700  0.99885100  0.44251000  1
  N  N3  1  0.33892300  0.33777400  0.05749000  1
  N  N4  1  0.76968700  0.31031400  0.89360900  1
  N  N5  1  0.23031300  0.54062700  0.60639100  1
  N  N6  1  0.23031300  0.68968600  0.10639100  1
  N  N7  1  0.76968700  0.45937300  0.39360900  1
loop_
_geom_bond_atom_site_label_1
_geom_bond_atom_site_label_2
_geom_bond_distance
_geom_bond_site_symmetry_2
Ca0 N3 2.402054 1_555
Ca0 N6 2.475633 1_545
Ca0 N0 2.527226 1_554
Ca0 N0 2.962132 1_555
Ca1 N2 2.402062 1_555
Ca1 N7 2.475625 1_555
Ca1 N1 2.527225 1_555
Ca1 N1 2.962131 1_554
Ca2 N1 2.402054 1_555
Ca2 N4 2.475633 1_565
Ca2 N2 2.527226 1_556
Ca2 N2 2.962132 1_555
Ca3 N0 2.402062 1_555
Ca3 N5 2.475625 1_555
Ca3 N3 2.527225 1_555
Ca3 N3 2.962131 1_556
Ca4 N4 2.398965 1_455
Ca4 N5 2.398965 1_555
Ca4 N7 2.483918 1_455
Ca4 N6 2.483918 1_556
Ca5 N6 2.398965 1_555
Ca5 N7 2.398965 1_455
Ca5 N5 2.483918 1_555
Ca5 N4 2.483918 1_454
N0 Ta2 1.968966 1_545
N0 Ta0 2.150185 1_555
N1 Ta3 1.968973 1_556
N1 Ta1 2.150187 1_555
N2 Ta0 1.968966 1_565
N2 Ta2 2.150185 1_555
N3 Ta1 1.968973 1_554
N3 Ta3 2.150187 1_555
N4 Ta0 2.042546 1_555
N4 Ta3 2.053972 1_556
N5 Ta1 2.042545 1_555
N5 Ta2 2.053977 1_555
N6 Ta2 2.042546 1_555
N6 Ta1 2.053972 1_554
N7 Ta3 2.042545 1_555
N7 Ta0 2.053977 1_555
