# generated using pymatgen
data_Ba2NaCu3S5
_symmetry_space_group_name_H-M   'P 1'
_cell_length_a   8.79624323
_cell_length_b   8.79624323
_cell_length_c   10.46906188
_cell_angle_alpha   81.91378841
_cell_angle_beta   81.91378841
_cell_angle_gamma   36.84871877
_symmetry_Int_Tables_number   1
_chemical_formula_structural   Ba2NaCu3S5
_chemical_formula_sum   'Ba4 Na2 Cu6 S10'
_cell_volume   480.41085871
_cell_formula_units_Z   2
loop_
 _symmetry_equiv_pos_site_id
 _symmetry_equiv_pos_as_xyz
  1  'x, y, z'
loop_
 _atom_site_type_symbol
 _atom_site_label
 _atom_site_symmetry_multiplicity
 _atom_site_fract_x
 _atom_site_fract_y
 _atom_site_fract_z
 _atom_site_occupancy
  Ba  Ba0  1  0.76364300  0.76364300  0.69815300  1
  Ba  Ba1  1  0.23635700  0.23635700  0.30184700  1
  Ba  Ba2  1  0.45770700  0.45770700  0.70963900  1
  Ba  Ba3  1  0.54229300  0.54229300  0.29036100  1
  Na  Na0  1  0.10578200  0.10578200  0.76395000  1
  Na  Na1  1  0.89421800  0.89421800  0.23605000  1
  Cu  Cu0  1  0.76258500  0.23741500  0.00000000  1
  Cu  Cu1  1  0.23741500  0.76258500  0.00000000  1
  Cu  Cu2  1  0.92523800  0.41268500  0.00962700  1
  Cu  Cu3  1  0.41268500  0.92523800  0.00962700  1
  Cu  Cu4  1  0.07476200  0.58731500  0.99037300  1
  Cu  Cu5  1  0.58731500  0.07476200  0.99037300  1
  S  S0  1  0.43317400  0.81490700  0.53041600  1
  S  S1  1  0.81490700  0.43317400  0.53041600  1
  S  S2  1  0.56682600  0.18509300  0.46958400  1
  S  S3  1  0.18509300  0.56682600  0.46958400  1
  S  S4  1  0.59752800  0.59752800  0.87968500  1
  S  S5  1  0.40247200  0.40247200  0.12031500  1
  S  S6  1  0.07010700  0.07010700  0.14753100  1
  S  S7  1  0.92989300  0.92989300  0.85246900  1
  S  S8  1  0.26117300  0.26117300  0.85382300  1
  S  S9  1  0.73882700  0.73882700  0.14617700  1
loop_
_geom_bond_atom_site_label_1
_geom_bond_atom_site_label_2
_geom_bond_distance
_geom_bond_site_symmetry_2
Ba0 S4 3.120342 1_555
Ba0 S8 3.219716 1_565
Ba0 S8 3.219716 1_655
Ba0 S1 3.294307 1_555
Ba0 S0 3.294307 1_555
Ba0 S2 3.296131 1_565
Ba0 S3 3.296131 1_655
Ba0 S7 3.411593 1_555
Ba1 S5 3.120342 1_555
Ba1 S9 3.219716 1_545
Ba1 S9 3.219716 1_455
Ba1 S3 3.294307 1_555
Ba1 S2 3.294307 1_555
Ba1 S0 3.296131 1_545
Ba1 S1 3.296131 1_455
Ba1 S6 3.411593 1_555
Ba2 S4 3.138046 1_555
Ba2 S7 3.158227 1_545
Ba2 S7 3.158227 1_455
Ba2 S2 3.212571 1_555
Ba2 S3 3.212571 1_555
Ba2 S0 3.287790 1_555
Ba2 S1 3.287790 1_555
Ba2 S8 3.401557 1_555
Ba3 S5 3.138046 1_555
Ba3 S6 3.158227 1_655
Ba3 S6 3.158227 1_565
Ba3 S0 3.212571 1_555
Ba3 S1 3.212571 1_555
Ba3 S3 3.287790 1_555
Ba3 S2 3.287790 1_555
Ba3 S9 3.401557 1_555
Na0 S8 2.887139 1_555
Na0 S7 2.944572 1_445
Na0 S1 2.967112 1_455
Na0 S0 2.967112 1_545
Na0 S4 3.027599 1_455
Na0 S4 3.027599 1_545
Na1 S9 2.887139 1_555
Na1 S6 2.944572 1_665
Na1 S2 2.967112 1_565
Na1 S3 2.967112 1_655
Na1 S5 3.027599 1_655
Na1 S5 3.027599 1_565
Cu0 S5 2.399995 1_555
Cu0 S4 2.399995 1_554
Cu0 S6 2.456259 1_655
Cu0 S7 2.456259 1_544
Cu1 S5 2.399995 1_555
Cu1 S4 2.399995 1_554
Cu1 S6 2.456259 1_565
Cu1 S7 2.456259 1_454
Cu2 S4 2.404895 1_554
Cu2 S9 2.434783 1_555
Cu2 S6 2.436543 1_655
Cu2 S8 2.474129 1_654
Cu3 S4 2.404895 1_554
Cu3 S9 2.434783 1_555
Cu3 S6 2.436543 1_565
Cu3 S8 2.474129 1_564
Cu4 S5 2.404895 1_556
Cu4 S8 2.434783 1_555
Cu4 S7 2.436543 1_455
Cu4 S9 2.474129 1_456
Cu5 S5 2.404895 1_556
Cu5 S8 2.434783 1_555
Cu5 S7 2.436543 1_545
Cu5 S9 2.474129 1_546
S0 S1 2.122492 1_555
S2 S3 2.122492 1_555
