# generated using pymatgen
data_Y3Th3Mn23
_symmetry_space_group_name_H-M   'P 1'
_cell_length_a   8.58097555
_cell_length_b   8.58097555
_cell_length_c   8.57299134
_cell_angle_alpha   59.96919283
_cell_angle_beta   120.03080717
_cell_angle_gamma   120.00000000
_symmetry_Int_Tables_number   1
_chemical_formula_structural   Y3Th3Mn23
_chemical_formula_sum   'Y3 Th3 Mn23'
_cell_volume   446.15763569
_cell_formula_units_Z   1
loop_
 _symmetry_equiv_pos_site_id
 _symmetry_equiv_pos_as_xyz
  1  'x, y, z'
loop_
 _atom_site_type_symbol
 _atom_site_label
 _atom_site_symmetry_multiplicity
 _atom_site_fract_x
 _atom_site_fract_y
 _atom_site_fract_z
 _atom_site_occupancy
  Y  Y0  1  0.70555200  0.70655500  0.29244200  1
  Y  Y1  1  0.29344500  0.29444800  0.29244200  1
  Y  Y2  1  0.29344500  0.70655500  0.29244200  1
  Th  Th0  1  0.29177000  0.29152500  0.70872000  1
  Th  Th1  1  0.70847500  0.70823000  0.70872000  1
  Th  Th2  1  0.70847500  0.29152500  0.70872000  1
  Mn  Mn0  1  0.68079000  0.31921000  0.04237000  1
  Mn  Mn1  1  0.67646700  0.32353300  0.31884300  1
  Mn  Mn2  1  0.67646700  0.03409200  0.31884300  1
  Mn  Mn3  1  0.96590800  0.32353300  0.31884300  1
  Mn  Mn4  1  0.32300300  0.67699700  0.96901000  1
  Mn  Mn5  1  0.31994400  0.68005600  0.67665500  1
  Mn  Mn6  1  0.31994400  0.96323300  0.67665500  1
  Mn  Mn7  1  0.03676700  0.68005600  0.67665500  1
  Mn  Mn8  1  0.00331200  0.99668800  0.00993700  1
  Mn  Mn9  1  0.87742800  0.12257200  0.63228400  1
  Mn  Mn10  1  0.87606300  0.12393700  0.12123500  1
  Mn  Mn11  1  0.87606300  0.63089000  0.12123500  1
  Mn  Mn12  1  0.36911000  0.12393700  0.12123500  1
  Mn  Mn13  1  0.12307600  0.87692400  0.36922800  1
  Mn  Mn14  1  0.12159700  0.87840300  0.87606100  1
  Mn  Mn15  1  0.12159700  0.36713300  0.87606100  1
  Mn  Mn16  1  0.63286700  0.87840300  0.87606100  1
  Mn  Mn17  1  0.49323800  0.00139400  0.49045100  1
  Mn  Mn18  1  0.99860600  0.50676200  0.49045100  1
  Mn  Mn19  1  0.99860600  0.00139400  0.49045100  1
  Mn  Mn20  1  0.01108700  0.50155200  0.00798300  1
  Mn  Mn21  1  0.49844800  0.98891300  0.00798300  1
  Mn  Mn22  1  0.49844800  0.50155200  0.00798300  1
loop_
_geom_bond_atom_site_label_1
_geom_bond_atom_site_label_2
_geom_bond_distance
_geom_bond_site_symmetry_2
Mn0 Mn2 2.407898 1_555
Mn0 Mn3 2.407898 1_555
Mn0 Mn1 2.407902 1_555
Mn0 Mn21 2.551101 1_545
Mn0 Mn20 2.551101 1_655
Mn0 Mn22 2.551101 1_555
Mn0 Mn11 2.571457 1_555
Mn0 Mn12 2.571457 1_555
Mn0 Mn10 2.571464 1_555
Mn0 Th2 3.116310 1_554
Mn0 Th1 3.116310 1_554
Mn0 Th0 3.116310 1_554
Mn1 Mn22 2.439904 1_555
Mn1 Mn3 2.483686 1_555
Mn1 Mn2 2.483686 1_555
Mn1 Mn17 2.485191 1_555
Mn1 Mn18 2.485191 1_555
Mn1 Mn11 2.583451 1_555
Mn1 Mn12 2.583451 1_555
Mn1 Mn9 2.620216 1_555
Mn1 Y1 3.067180 1_555
Mn1 Y0 3.067180 1_555
Mn1 Th2 3.091969 1_555
Mn2 Mn21 2.439907 1_545
Mn2 Mn3 2.483686 1_555
Mn2 Mn9 2.620211 1_555
Mn2 Y2 3.067183 1_545
Mn2 Y0 3.067188 1_545
Mn2 Th1 3.091972 1_545
Mn3 Mn9 2.620211 1_555
Mn3 Y2 3.067183 1_655
Mn3 Y1 3.067188 1_655
Mn3 Th0 3.091972 1_655
Mn4 Mn6 2.480357 1_555
Mn4 Mn7 2.480357 1_555
Mn4 Mn5 2.480361 1_555
Mn4 Y2 3.047814 1_556
Mn4 Y1 3.047819 1_556
Mn4 Y0 3.047819 1_556
Mn5 Mn6 2.429935 1_555
Mn5 Mn7 2.429935 1_555
Mn5 Y2 3.083057 1_555
Mn5 Th1 3.097186 1_555
Mn5 Th0 3.097186 1_555
Mn6 Mn7 2.429935 1_555
Mn6 Y1 3.083057 1_565
Mn6 Th0 3.097186 1_565
Mn6 Th2 3.097186 1_565
Mn7 Y0 3.083057 1_455
Mn7 Th1 3.097186 1_455
Mn7 Th2 3.097186 1_455
Mn8 Mn9 2.642271 1_464
Mn9 Th2 2.938845 1_555
Mn9 Th1 2.938845 1_545
Mn9 Th0 2.938845 1_655
Mn10 Mn8 2.563777 1_645
Mn10 Mn19 2.583253 1_555
Mn10 Mn2 2.583457 1_555
Mn10 Mn3 2.583457 1_555
Mn10 Mn20 2.647140 1_655
Mn10 Mn21 2.647140 1_545
Mn10 Th2 2.920612 1_554
Mn10 Y1 2.961429 1_655
Mn10 Y0 2.961429 1_545
Mn10 Mn16 2.976127 1_544
Mn10 Mn15 2.976127 1_654
Mn10 Mn13 2.996191 1_645
Mn11 Mn8 2.563792 1_655
Mn11 Mn18 2.583253 1_555
Mn11 Mn3 2.583443 1_555
Mn11 Mn20 2.647133 1_655
Mn11 Mn22 2.647140 1_555
Mn11 Th1 2.920611 1_554
Mn11 Y2 2.961428 1_655
Mn11 Y0 2.961435 1_555
Mn11 Mn14 2.976127 1_654
Mn11 Mn16 2.976134 1_554
Mn11 Mn13 2.996197 1_655
Mn12 Mn8 2.563792 1_545
Mn12 Mn17 2.583253 1_555
Mn12 Mn2 2.583443 1_555
Mn12 Mn21 2.647133 1_545
Mn12 Mn22 2.647140 1_555
Mn12 Th0 2.920611 1_554
Mn12 Y2 2.961428 1_545
Mn12 Y1 2.961435 1_555
Mn12 Mn14 2.976127 1_544
Mn12 Mn15 2.976134 1_554
Mn12 Mn13 2.996197 1_545
Mn13 Mn8 2.513800 1_555
Mn13 Mn6 2.568014 1_555
Mn13 Mn7 2.568014 1_555
Mn13 Mn5 2.568014 1_555
Mn13 Mn17 2.593142 1_565
Mn13 Mn18 2.593142 1_455
Mn13 Mn19 2.593149 1_465
Mn13 Y2 2.961690 1_555
Mn13 Y1 2.961690 1_565
Mn13 Y0 2.961690 1_455
Mn14 Mn8 2.596146 1_556
Mn14 Mn6 2.603257 1_555
Mn14 Mn7 2.603257 1_555
Mn14 Mn4 2.615095 1_555
Mn14 Mn21 2.642302 1_556
Mn14 Mn20 2.642302 1_556
Mn14 Mn19 2.699201 1_465
Mn14 Th0 2.930400 1_565
Mn14 Th1 2.930400 1_455
Mn14 Y2 2.954366 1_556
Mn14 Mn9 2.961700 1_465
Mn15 Mn8 2.596139 1_546
Mn15 Mn5 2.603257 1_555
Mn15 Mn7 2.603257 1_555
Mn15 Mn4 2.615102 1_555
Mn15 Mn20 2.642301 1_556
Mn15 Mn22 2.642302 1_556
Mn15 Mn18 2.699201 1_455
Mn15 Th0 2.930400 1_555
Mn15 Th2 2.930400 1_455
Mn15 Y1 2.954366 1_556
Mn15 Mn9 2.961700 1_455
Mn16 Mn8 2.596139 1_656
Mn16 Mn5 2.603257 1_555
Mn16 Mn6 2.603257 1_555
Mn16 Mn4 2.615102 1_555
Mn16 Mn21 2.642301 1_556
Mn16 Mn22 2.642302 1_556
Mn16 Mn17 2.699201 1_565
Mn16 Th1 2.930400 1_555
Mn16 Th2 2.930400 1_565
Mn16 Y0 2.954366 1_556
Mn16 Mn9 2.961700 1_565
Mn17 Mn2 2.485191 1_555
Mn17 Mn6 2.496514 1_545
Mn17 Mn5 2.496519 1_545
Mn17 Mn9 2.693198 1_555
Mn17 Y1 3.044669 1_555
Mn17 Y2 3.044676 1_545
Mn17 Th2 3.117101 1_555
Mn17 Th1 3.117109 1_545
Mn18 Mn3 2.485191 1_555
Mn18 Mn7 2.496514 1_655
Mn18 Mn5 2.496519 1_655
Mn18 Mn9 2.693198 1_555
Mn18 Y0 3.044669 1_555
Mn18 Y2 3.044676 1_655
Mn18 Th2 3.117101 1_555
Mn18 Th0 3.117109 1_655
Mn19 Mn2 2.485191 1_555
Mn19 Mn3 2.485191 1_555
Mn19 Mn6 2.496522 1_645
Mn19 Mn7 2.496522 1_645
Mn19 Mn9 2.693191 1_555
Mn19 Y1 3.044675 1_655
Mn19 Y0 3.044675 1_545
Mn19 Th0 3.117102 1_655
Mn19 Th1 3.117102 1_545
Mn20 Mn4 2.429844 1_554
Mn20 Mn3 2.439907 1_455
Mn20 Mn7 2.529254 1_554
Mn20 Y2 3.004936 1_555
Mn20 Y1 3.004936 1_555
Mn20 Th2 3.138962 1_454
Mn20 Th1 3.138963 1_454
Mn21 Mn4 2.429844 1_554
Mn21 Mn6 2.529254 1_554
Mn21 Y2 3.004936 1_555
Mn21 Y0 3.004936 1_555
Mn21 Th2 3.138962 1_564
Mn21 Th0 3.138963 1_564
Mn22 Mn4 2.429851 1_554
Mn22 Mn5 2.529254 1_554
Mn22 Y1 3.004936 1_555
Mn22 Y0 3.004936 1_555
Mn22 Th1 3.138962 1_554
Mn22 Th0 3.138962 1_554
