# generated using pymatgen
data_Ca7SeN6
_symmetry_space_group_name_H-M   'P 1'
_cell_length_a   12.13081569
_cell_length_b   6.38982303
_cell_length_c   12.52399844
_cell_angle_alpha   90.00000000
_cell_angle_beta   90.00000000
_cell_angle_gamma   90.00000000
_symmetry_Int_Tables_number   1
_chemical_formula_structural   Ca7SeN6
_chemical_formula_sum   'Ca28 Se4 N24'
_cell_volume   970.78227781
_cell_formula_units_Z   4
loop_
 _symmetry_equiv_pos_site_id
 _symmetry_equiv_pos_as_xyz
  1  'x, y, z'
loop_
 _atom_site_type_symbol
 _atom_site_label
 _atom_site_symmetry_multiplicity
 _atom_site_fract_x
 _atom_site_fract_y
 _atom_site_fract_z
 _atom_site_occupancy
  Ca  Ca0  1  0.06044894  0.70645269  0.00118522  1
  Ca  Ca1  1  0.43955106  0.79354731  0.50118522  1
  Ca  Ca2  1  0.56044894  0.79354731  0.99881478  1
  Ca  Ca3  1  0.93955106  0.70645269  0.49881478  1
  Ca  Ca4  1  0.93955106  0.29354731  0.99881478  1
  Ca  Ca5  1  0.56044894  0.20645269  0.49881478  1
  Ca  Ca6  1  0.43955106  0.20645269  0.00118522  1
  Ca  Ca7  1  0.06044894  0.29354731  0.50118522  1
  Ca  Ca8  1  0.22036283  0.89062491  0.65370116  1
  Ca  Ca9  1  0.27963717  0.60937509  0.15370116  1
  Ca  Ca10  1  0.72036283  0.60937509  0.34629884  1
  Ca  Ca11  1  0.77963717  0.89062491  0.84629884  1
  Ca  Ca12  1  0.77963717  0.10937509  0.34629884  1
  Ca  Ca13  1  0.72036283  0.39062491  0.84629884  1
  Ca  Ca14  1  0.27963717  0.39062491  0.65370116  1
  Ca  Ca15  1  0.22036283  0.10937509  0.15370116  1
  Ca  Ca16  1  0.30412364  0.65893240  0.88668046  1
  Ca  Ca17  1  0.19587636  0.84106760  0.38668046  1
  Ca  Ca18  1  0.80412364  0.84106760  0.11331954  1
  Ca  Ca19  1  0.69587636  0.65893240  0.61331954  1
  Ca  Ca20  1  0.69587636  0.34106760  0.11331954  1
  Ca  Ca21  1  0.80412364  0.15893240  0.61331954  1
  Ca  Ca22  1  0.19587636  0.15893240  0.88668046  1
  Ca  Ca23  1  0.30412364  0.34106760  0.38668046  1
  Ca  Ca24  1  0.00000000  0.56526279  0.75000000  1
  Ca  Ca25  1  0.50000000  0.93473721  0.25000000  1
  Ca  Ca26  1  0.00000000  0.43473721  0.25000000  1
  Ca  Ca27  1  0.50000000  0.06526279  0.75000000  1
  Se  Se0  1  0.00000000  0.04993126  0.75000000  1
  Se  Se1  1  0.50000000  0.45006874  0.25000000  1
  Se  Se2  1  0.00000000  0.95006874  0.25000000  1
  Se  Se3  1  0.50000000  0.54993126  0.75000000  1
  N  N0  1  0.14050828  0.80099600  0.83349307  1
  N  N1  1  0.35949172  0.69900400  0.33349307  1
  N  N2  1  0.64050828  0.69900400  0.16650693  1
  N  N3  1  0.85949172  0.80099600  0.66650693  1
  N  N4  1  0.85949172  0.19900400  0.16650693  1
  N  N5  1  0.64050828  0.30099600  0.66650693  1
  N  N6  1  0.35949172  0.30099600  0.83349307  1
  N  N7  1  0.14050828  0.19900400  0.33349307  1
  N  N8  1  0.13186465  0.64369923  0.53721868  1
  N  N9  1  0.36813535  0.85630077  0.03721868  1
  N  N10  1  0.63186465  0.85630077  0.46278132  1
  N  N11  1  0.86813535  0.64369923  0.96278132  1
  N  N12  1  0.86813535  0.35630077  0.46278132  1
  N  N13  1  0.63186465  0.14369923  0.96278132  1
  N  N14  1  0.36813535  0.14369923  0.53721868  1
  N  N15  1  0.13186465  0.35630077  0.03721868  1
  N  N16  1  0.39384667  0.72356319  0.69656661  1
  N  N17  1  0.10615333  0.77643681  0.19656661  1
  N  N18  1  0.89384667  0.77643681  0.30343339  1
  N  N19  1  0.60615333  0.72356319  0.80343339  1
  N  N20  1  0.60615333  0.27643681  0.30343339  1
  N  N21  1  0.89384667  0.22356319  0.80343339  1
  N  N22  1  0.10615333  0.22356319  0.69656661  1
  N  N23  1  0.39384667  0.27643681  0.19656661  1
loop_
_geom_bond_atom_site_label_1
_geom_bond_atom_site_label_2
_geom_bond_distance
_geom_bond_site_symmetry_2
Ca0 N0 2.391421 1_554
Ca0 N11 2.415500 1_454
Ca0 N15 2.441349 1_555
Ca0 N17 2.548522 1_555
Ca1 N1 2.391421 1_555
Ca1 N10 2.415500 1_555
Ca1 N14 2.441349 1_565
Ca1 N16 2.548522 1_555
Ca2 N2 2.391421 1_556
Ca2 N9 2.415500 1_556
Ca2 N13 2.441349 1_565
Ca2 N19 2.548522 1_555
Ca3 N3 2.391421 1_555
Ca3 N8 2.415500 1_655
Ca3 N12 2.441349 1_555
Ca3 N18 2.548522 1_555
Ca4 N4 2.391421 1_556
Ca4 N15 2.415500 1_656
Ca4 N11 2.441349 1_555
Ca4 N21 2.548522 1_555
Ca5 N5 2.391421 1_555
Ca5 N14 2.415500 1_555
Ca5 N10 2.441349 1_545
Ca5 N20 2.548522 1_555
Ca6 N6 2.391421 1_554
Ca6 N13 2.415500 1_554
Ca6 N9 2.441349 1_545
Ca6 N23 2.548522 1_555
Ca7 N7 2.391421 1_555
Ca7 N12 2.415500 1_455
Ca7 N8 2.441349 1_555
Ca7 N22 2.548522 1_555
Ca8 N8 2.402121 1_555
Ca8 N16 2.420056 1_555
Ca8 N0 2.517260 1_555
Ca8 N22 2.594916 1_565
Ca8 N14 2.820746 1_565
Ca9 N9 2.402121 1_555
Ca9 N17 2.420056 1_555
Ca9 N1 2.517260 1_555
Ca9 N23 2.594916 1_555
Ca9 N15 2.820746 1_555
Ca10 N10 2.402121 1_555
Ca10 N18 2.420056 1_555
Ca10 N2 2.517260 1_555
Ca10 N20 2.594916 1_555
Ca10 N12 2.820746 1_555
Ca11 N11 2.402121 1_555
Ca11 N19 2.420056 1_555
Ca11 N3 2.517260 1_555
Ca11 N21 2.594916 1_565
Ca11 N13 2.820746 1_565
Ca12 N12 2.402121 1_555
Ca12 N20 2.420056 1_555
Ca12 N4 2.517260 1_555
Ca12 N18 2.594916 1_545
Ca12 N10 2.820746 1_545
Ca13 N13 2.402121 1_555
Ca13 N21 2.420056 1_555
Ca13 N5 2.517260 1_555
Ca13 N19 2.594916 1_555
Ca13 N11 2.820746 1_555
Ca14 N14 2.402121 1_555
Ca14 N22 2.420056 1_555
Ca14 N6 2.517260 1_555
Ca14 N16 2.594916 1_555
Ca14 N8 2.820746 1_555
Ca15 N15 2.402121 1_555
Ca15 N23 2.420056 1_555
Ca15 N7 2.517260 1_555
Ca15 N17 2.594916 1_545
Ca15 N9 2.820746 1_545
Ca16 N0 2.281913 1_555
Ca16 N9 2.397494 1_556
Ca16 N6 2.475055 1_555
Ca16 N16 2.650337 1_555
Ca17 N1 2.281913 1_555
Ca17 N8 2.397494 1_555
Ca17 N7 2.475055 1_565
Ca17 N17 2.650337 1_555
Ca18 N2 2.281913 1_555
Ca18 N11 2.397494 1_554
Ca18 N4 2.475055 1_565
Ca18 N18 2.650337 1_555
Ca19 N3 2.281913 1_555
Ca19 N10 2.397494 1_555
Ca19 N5 2.475055 1_555
Ca19 N19 2.650337 1_555
Ca20 N4 2.281913 1_555
Ca20 N13 2.397494 1_554
Ca20 N2 2.475055 1_555
Ca20 N20 2.650337 1_555
Ca21 N5 2.281913 1_555
Ca21 N12 2.397494 1_555
Ca21 N3 2.475055 1_545
Ca21 N21 2.650337 1_555
Ca22 N6 2.281913 1_555
Ca22 N15 2.397494 1_556
Ca22 N0 2.475055 1_545
Ca22 N22 2.650337 1_555
Ca23 N7 2.281913 1_555
Ca23 N14 2.397494 1_555
Ca23 N1 2.475055 1_555
Ca23 N23 2.650337 1_555
Ca24 N3 2.503516 1_455
Ca24 N0 2.503516 1_555
Ca24 N21 2.621699 1_455
Ca24 N22 2.621699 1_555
Ca25 N1 2.503516 1_555
Ca25 N2 2.503516 1_555
Ca25 N20 2.621699 1_565
Ca25 N23 2.621699 1_565
Ca26 N4 2.503516 1_455
Ca26 N7 2.503516 1_555
Ca26 N18 2.621699 1_455
Ca26 N17 2.621699 1_555
Ca27 N5 2.503516 1_555
Ca27 N6 2.503516 1_555
Ca27 N16 2.621699 1_545
Ca27 N19 2.621699 1_545
N0 Se0 2.555161 1_565
N1 Se1 2.555161 1_555
N2 Se1 2.555161 1_555
N3 Se0 2.555161 1_665
N4 Se2 2.555161 1_645
N5 Se3 2.555161 1_555
N6 Se3 2.555161 1_555
N7 Se2 2.555161 1_545
N16 Se3 1.826748 1_555
N17 Se2 1.826748 1_555
N18 Se2 1.826748 1_655
N19 Se3 1.826748 1_555
N20 Se1 1.826748 1_555
N21 Se0 1.826748 1_655
N22 Se0 1.826748 1_555
N23 Se1 1.826748 1_555
