# generated using pymatgen
data_K2CaPrO4
_symmetry_space_group_name_H-M   'P 1'
_cell_length_a   3.65090400
_cell_length_b   6.17701600
_cell_length_c   6.62103036
_cell_angle_alpha   72.42192547
_cell_angle_beta   90.00000000
_cell_angle_gamma   90.00000000
_symmetry_Int_Tables_number   1
_chemical_formula_structural   K2CaPrO4
_chemical_formula_sum   'K2 Ca1 Pr1 O4'
_cell_volume   142.34335085
_cell_formula_units_Z   1
loop_
 _symmetry_equiv_pos_site_id
 _symmetry_equiv_pos_as_xyz
  1  'x, y, z'
loop_
 _atom_site_type_symbol
 _atom_site_label
 _atom_site_symmetry_multiplicity
 _atom_site_fract_x
 _atom_site_fract_y
 _atom_site_fract_z
 _atom_site_occupancy
  K  K0  1  0.00000000  0.00000000  0.00000000  1
  K  K1  1  0.50000000  0.50000000  0.00000000  1
  Ca  Ca0  1  0.00000000  0.50000000  0.50000000  1
  Pr  Pr0  1  0.50000000  0.00000000  0.50000000  1
  O  O0  1  0.50000000  0.73742600  0.30413300  1
  O  O1  1  0.00000000  0.23086700  0.30392300  1
  O  O2  1  0.50000000  0.26257400  0.69586700  1
  O  O3  1  0.00000000  0.76913300  0.69607700  1
loop_
_geom_bond_atom_site_label_1
_geom_bond_atom_site_label_2
_geom_bond_distance
_geom_bond_site_symmetry_2
K0 O1 2.795757 1_555
K0 O3 2.795757 1_544
K0 O2 2.836385 1_454
K0 O2 2.836385 1_554
K0 O0 2.836385 1_445
K0 O0 2.836385 1_545
K1 O0 2.826575 1_555
K1 O2 2.826575 1_554
K1 O1 2.850380 1_555
K1 O3 2.850380 1_654
K1 O1 2.850380 1_655
K1 O3 2.850380 1_554
Ca0 O3 2.398479 1_555
Ca0 O1 2.398479 1_555
Ca0 O0 2.452786 1_455
Ca0 O0 2.452786 1_555
Ca0 O2 2.452786 1_455
Ca0 O2 2.452786 1_555
O0 Pr0 2.362815 1_565
O1 Pr0 2.435797 1_455
O1 Pr0 2.435797 1_555
O2 Pr0 2.362815 1_555
O3 Pr0 2.435797 1_565
O3 Pr0 2.435797 1_465
