# generated using pymatgen
data_YbZnGe
_symmetry_space_group_name_H-M   'P 1'
_cell_length_a   5.65142664
_cell_length_b   5.65142664
_cell_length_c   7.21934743
_cell_angle_alpha   51.41771756
_cell_angle_beta   51.41771756
_cell_angle_gamma   46.39464372
_symmetry_Int_Tables_number   1
_chemical_formula_structural   YbZnGe
_chemical_formula_sum   'Yb2 Zn2 Ge2'
_cell_volume   122.65153260
_cell_formula_units_Z   2
loop_
 _symmetry_equiv_pos_site_id
 _symmetry_equiv_pos_as_xyz
  1  'x, y, z'
loop_
 _atom_site_type_symbol
 _atom_site_label
 _atom_site_symmetry_multiplicity
 _atom_site_fract_x
 _atom_site_fract_y
 _atom_site_fract_z
 _atom_site_occupancy
  Yb  Yb0  1  0.46360200  0.46360200  0.78711000  1
  Yb  Yb1  1  0.53639800  0.53639800  0.21289000  1
  Zn  Zn0  1  0.83736300  0.83736300  0.61236200  1
  Zn  Zn1  1  0.16263700  0.16263700  0.38763800  1
  Ge  Ge0  1  0.16318100  0.16318100  0.79068400  1
  Ge  Ge1  1  0.83681900  0.83681900  0.20931600  1
loop_
_geom_bond_atom_site_label_1
_geom_bond_atom_site_label_2
_geom_bond_distance
_geom_bond_site_symmetry_2
Yb0 Zn1 3.075077 1_565
Yb0 Zn1 3.075077 1_655
Yb0 Zn0 3.165753 1_555
Yb0 Zn1 3.190216 1_556
Yb0 Zn0 3.242263 1_455
Yb0 Zn0 3.242263 1_545
Yb1 Zn0 3.075077 1_455
Yb1 Zn0 3.075077 1_545
Yb1 Zn1 3.165753 1_555
Yb1 Zn0 3.190216 1_554
Yb1 Zn1 3.242263 1_565
Yb1 Zn1 3.242263 1_655
Zn0 Zn1 2.571401 1_665
Ge0 Ge1 2.593226 1_446
Ge0 Zn0 2.593486 1_455
Ge0 Zn0 2.593486 1_545
Ge0 Zn1 2.913567 1_555
Ge0 Yb0 3.054159 1_545
Ge0 Yb0 3.054159 1_455
Ge0 Yb0 3.103643 1_555
Ge0 Yb1 3.238262 1_555
Ge0 Yb1 3.245465 1_456
Ge0 Yb1 3.245465 1_546
Ge1 Zn1 2.593486 1_565
Ge1 Zn1 2.593486 1_655
Ge1 Zn0 2.913567 1_555
Ge1 Yb1 3.054159 1_565
Ge1 Yb1 3.054159 1_655
Ge1 Yb1 3.103643 1_555
Ge1 Yb0 3.238262 1_555
Ge1 Yb0 3.245465 1_654
Ge1 Yb0 3.245465 1_564
