# generated using pymatgen
data_SrLaMg6
_symmetry_space_group_name_H-M   'P 1'
_cell_length_a   6.84663068
_cell_length_b   6.84663068
_cell_length_c   5.45315200
_cell_angle_alpha   90.00000000
_cell_angle_beta   90.00000000
_cell_angle_gamma   116.70032479
_symmetry_Int_Tables_number   1
_chemical_formula_structural   SrLaMg6
_chemical_formula_sum   'Sr1 La1 Mg6'
_cell_volume   228.36640103
_cell_formula_units_Z   1
loop_
 _symmetry_equiv_pos_site_id
 _symmetry_equiv_pos_as_xyz
  1  'x, y, z'
loop_
 _atom_site_type_symbol
 _atom_site_label
 _atom_site_symmetry_multiplicity
 _atom_site_fract_x
 _atom_site_fract_y
 _atom_site_fract_z
 _atom_site_occupancy
  Sr  Sr0  1  0.65190100  0.34809900  0.50000000  1
  La  La0  1  0.84958900  0.15041100  0.00000000  1
  Mg  Mg0  1  0.84046800  0.66948100  0.00000000  1
  Mg  Mg1  1  0.33051900  0.15953200  0.00000000  1
  Mg  Mg2  1  0.34167900  0.65832100  0.00000000  1
  Mg  Mg3  1  0.66611600  0.83996300  0.50000000  1
  Mg  Mg4  1  0.16003700  0.33388400  0.50000000  1
  Mg  Mg5  1  0.15969100  0.84030900  0.50000000  1
loop_
_geom_bond_atom_site_label_1
_geom_bond_atom_site_label_2
_geom_bond_distance
_geom_bond_site_symmetry_2
La0 Mg0 3.265167 1_545
La0 Mg1 3.265167 1_655
La0 Mg4 3.336259 1_654
La0 Mg4 3.336259 1_655
La0 Mg3 3.336259 1_545
La0 Mg3 3.336259 1_544
La0 Sr0 3.569931 1_555
La0 Sr0 3.569931 1_554
La0 Mg1 3.582374 1_555
La0 Mg0 3.582374 1_555
La0 Mg2 3.593792 1_545
La0 Mg2 3.593792 1_655
Mg0 Mg5 3.358845 1_655
Mg0 Mg5 3.358845 1_654
Mg0 Sr0 3.374882 1_555
Mg0 Sr0 3.374882 1_554
Mg0 Mg2 3.381381 1_555
Mg0 Mg3 3.387291 1_555
Mg0 Mg3 3.387291 1_554
Mg0 Mg2 3.466611 1_655
Mg0 Mg1 3.521123 1_665
Mg1 Mg5 3.358845 1_544
Mg1 Mg5 3.358845 1_545
Mg1 Sr0 3.374882 1_555
Mg1 Sr0 3.374882 1_554
Mg1 Mg2 3.381381 1_555
Mg1 Mg4 3.387291 1_554
Mg1 Mg4 3.387291 1_555
Mg1 Mg2 3.466611 1_545
Mg2 Mg3 3.381200 1_555
Mg2 Mg3 3.381200 1_554
Mg2 Mg4 3.381200 1_555
Mg2 Mg4 3.381200 1_554
Mg2 Mg5 3.454627 1_554
Mg2 Mg5 3.454627 1_555
Mg3 Sr0 3.325018 1_555
Mg3 Mg5 3.378262 1_655
Mg3 Mg5 3.468370 1_555
Mg3 Sr0 3.523823 1_565
Mg4 Sr0 3.325018 1_555
Mg4 Mg5 3.378262 1_545
Mg4 Mg5 3.468370 1_555
Mg4 Sr0 3.523823 1_455
Mg5 Sr0 3.593756 1_565
Mg5 Sr0 3.593756 1_455
