# generated using pymatgen
data_Sr2MnTeO6
_symmetry_space_group_name_H-M   'P 1'
_cell_length_a   5.77006200
_cell_length_b   5.76907094
_cell_length_c   8.11836490
_cell_angle_alpha   90.17786256
_cell_angle_beta   90.00017994
_cell_angle_gamma   89.99980155
_symmetry_Int_Tables_number   1
_chemical_formula_structural   Sr2MnTeO6
_chemical_formula_sum   'Sr4 Mn2 Te2 O12'
_cell_volume   270.24199258
_cell_formula_units_Z   2
loop_
 _symmetry_equiv_pos_site_id
 _symmetry_equiv_pos_as_xyz
  1  'x, y, z'
loop_
 _atom_site_type_symbol
 _atom_site_label
 _atom_site_symmetry_multiplicity
 _atom_site_fract_x
 _atom_site_fract_y
 _atom_site_fract_z
 _atom_site_occupancy
  Sr  Sr0  1  0.52421500  0.99520900  0.75033700  1
  Sr  Sr1  1  0.47570000  0.00477800  0.24965000  1
  Sr  Sr2  1  0.02431300  0.50479200  0.74964300  1
  Sr  Sr3  1  0.97581600  0.49523300  0.25033300  1
  Mn  Mn0  1  0.49981200  0.50007600  0.00018500  1
  Mn  Mn1  1  0.00008800  0.00000100  0.50002100  1
  Te  Te0  1  0.99995600  0.99999600  0.99997400  1
  Te  Te1  1  0.50004700  0.49996500  0.50002600  1
  O  O0  1  0.79236700  0.73468400  0.96651600  1
  O  O1  1  0.20774800  0.26531700  0.03343200  1
  O  O2  1  0.29226000  0.76532900  0.53344600  1
  O  O3  1  0.70765200  0.23469700  0.46652000  1
  O  O4  1  0.98789400  0.06373300  0.76296600  1
  O  O5  1  0.01211300  0.93629200  0.23706700  1
  O  O6  1  0.48790800  0.43627400  0.73700000  1
  O  O7  1  0.51210200  0.56369400  0.26290100  1
  O  O8  1  0.26721800  0.79496400  0.96583800  1
  O  O9  1  0.73285000  0.20497300  0.03414900  1
  O  O10  1  0.76715200  0.70500500  0.53415400  1
  O  O11  1  0.23279000  0.29498700  0.46584300  1
loop_
_geom_bond_atom_site_label_1
_geom_bond_atom_site_label_2
_geom_bond_distance
_geom_bond_site_symmetry_2
Mn0 O7 2.164211 1_555
Mn0 O6 2.168066 1_554
Mn0 O1 2.179305 1_555
Mn0 O0 2.181389 1_554
Mn0 O8 2.185417 1_554
Mn0 O9 2.187555 1_555
Mn1 O4 2.166134 1_455
Mn1 O5 2.166152 1_545
Mn1 O2 2.179649 1_545
Mn1 O3 2.180991 1_455
Mn1 O11 2.186070 1_555
Mn1 O10 2.186897 1_445
O0 Te0 1.961807 1_555
O0 Sr2 2.575955 1_655
O0 Sr0 2.783775 1_555
O0 Sr3 2.890933 1_556
O1 Te0 1.962562 1_444
O1 Sr3 2.576139 1_455
O1 Sr1 2.783378 1_555
O1 Sr2 2.890788 1_554
O2 Te1 1.962691 1_555
O2 Sr0 2.576045 1_555
O2 Sr2 2.783260 1_555
O2 Sr1 2.890781 1_565
O3 Te1 1.961713 1_555
O3 Sr1 2.576035 1_555
O3 Sr3 2.783901 1_555
O3 Sr0 2.891019 1_545
O4 Te0 1.961293 1_545
O4 Sr2 2.555788 1_655
O4 Sr0 2.706402 1_545
O4 Sr0 3.121396 1_645
O5 Te0 1.961953 1_454
O5 Sr3 2.555710 1_455
O5 Sr1 2.705831 1_565
O5 Sr1 3.121883 1_465
O6 Te1 1.960988 1_555
O6 Sr0 2.555773 1_545
O6 Sr2 2.705920 1_555
O6 Sr2 3.121878 1_655
O7 Te1 1.962215 1_555
O7 Sr1 2.555896 1_565
O7 Sr3 2.706528 1_555
O7 Sr3 3.121136 1_455
O8 Te0 1.962652 1_455
O8 Sr0 2.570387 1_555
O8 Sr2 2.798049 1_555
O8 Sr1 2.864219 1_566
O9 Te0 1.961798 1_544
O9 Sr1 2.570767 1_555
O9 Sr3 2.798473 1_555
O9 Sr0 2.864468 1_544
O10 Te1 1.961964 1_555
O10 Sr2 2.570773 1_655
O10 Sr0 2.798191 1_555
O10 Sr3 2.864619 1_555
O11 Te1 1.962500 1_555
O11 Sr3 2.570352 1_455
O11 Sr1 2.798181 1_555
O11 Sr2 2.864109 1_555
