# generated using pymatgen
data_Na2ZrP2O11
_symmetry_space_group_name_H-M   'P 1'
_cell_length_a   5.35691700
_cell_length_b   8.90205805
_cell_length_c   10.96007933
_cell_angle_alpha   71.14566964
_cell_angle_beta   88.12891105
_cell_angle_gamma   88.87006419
_symmetry_Int_Tables_number   1
_chemical_formula_structural   Na2ZrP2O11
_chemical_formula_sum   'Na4 Zr2 P4 O22'
_cell_volume   494.32855859
_cell_formula_units_Z   2
loop_
 _symmetry_equiv_pos_site_id
 _symmetry_equiv_pos_as_xyz
  1  'x, y, z'
loop_
 _atom_site_type_symbol
 _atom_site_label
 _atom_site_symmetry_multiplicity
 _atom_site_fract_x
 _atom_site_fract_y
 _atom_site_fract_z
 _atom_site_occupancy
  Na  Na0  1  0.95197400  0.05189500  0.67964600  1
  Na  Na1  1  0.51456500  0.33589400  0.82814300  1
  Na  Na2  1  0.98708900  0.93159000  0.34122800  1
  Na  Na3  1  0.52522500  0.68349300  0.41018100  1
  Zr  Zr0  1  0.02093800  0.99948900  0.00328500  1
  Zr  Zr1  1  0.47578500  0.48895700  0.08474200  1
  P  P0  1  0.52389800  0.88707000  0.85545800  1
  P  P1  1  0.96258600  0.61712300  0.22462700  1
  P  P2  1  0.50651700  0.06165100  0.19710900  1
  P  P3  1  0.99541700  0.41666300  0.89019800  1
  O  O0  1  0.70980800  0.00978000  0.87995300  1
  O  O1  1  0.25510500  0.96246300  0.84981300  1
  O  O2  1  0.52597200  0.72811400  0.96689900  1
  O  O3  1  0.61402400  0.87932900  0.72327100  1
  O  O4  1  0.20142200  0.51871000  0.21628200  1
  O  O5  1  0.72390500  0.52395200  0.21646900  1
  O  O6  1  0.97239200  0.76605900  0.10065900  1
  O  O7  1  0.95079100  0.66426400  0.34695700  1
  O  O8  1  0.30316000  0.99729700  0.12865900  1
  O  O9  1  0.76205000  0.06160200  0.12457800  1
  O  O10  1  0.43904600  0.23868900  0.18126000  1
  O  O11  1  0.52523500  0.95498000  0.33580500  1
  O  O12  1  0.75924400  0.41340100  0.97866900  1
  O  O13  1  0.21972600  0.48945700  0.93753900  1
  O  O14  1  0.08575000  0.24033000  0.90791800  1
  O  O15  1  0.92582900  0.48885700  0.75034300  1
  O  O16  1  0.02006200  0.21694200  0.25257100  1
  O  O17  1  0.48794300  0.28229300  0.58396800  1
  O  O18  1  0.32572900  0.38628800  0.54102600  1
  O  O19  1  0.16270500  0.78862200  0.64872600  1
  O  O20  1  0.11508200  0.91775100  0.54663200  1
  O  O21  1  0.38202700  0.72879300  0.64958600  1
loop_
_geom_bond_atom_site_label_1
_geom_bond_atom_site_label_2
_geom_bond_distance
_geom_bond_site_symmetry_2
Na0 O20 2.305564 1_645
Na0 O3 2.333317 1_545
Na0 O1 2.436431 1_645
Na0 O0 2.438109 1_555
Na0 O19 2.695551 1_645
Na1 O12 2.414211 1_555
Na1 O14 2.496026 1_555
Na1 O13 2.579045 1_555
Na1 O15 2.584598 1_555
Na1 O17 2.874524 1_555
Na1 O0 2.949208 1_555
Na2 O20 2.339146 1_655
Na2 O7 2.371886 1_555
Na2 O16 2.416455 1_665
Na2 O11 2.479801 1_555
Na2 O9 2.605132 1_565
Na2 O8 2.745447 1_655
Na2 O11 2.891700 1_655
Na3 O11 2.287371 1_555
Na3 O7 2.380066 1_555
Na3 O18 2.785269 1_555
Na3 O21 2.859398 1_555
O0 P0 1.583378 1_545
O0 Zr0 2.162060 1_646
O1 P0 1.571132 1_555
O1 Zr0 2.171585 1_556
O2 P0 1.541906 1_555
O2 Zr1 2.120306 1_556
O3 P0 1.534387 1_555
O4 P1 1.553302 1_455
O4 Zr1 2.098054 1_555
O5 P1 1.558187 1_555
O5 Zr1 2.092947 1_555
O6 P1 1.562194 1_555
O6 Zr0 2.023498 1_655
O7 P1 1.527998 1_555
O8 P2 1.559970 1_565
O8 Zr0 2.071565 1_555
O9 P2 1.560411 1_555
O9 Zr0 2.078646 1_645
O10 P2 1.565020 1_555
O10 Zr1 2.145172 1_555
O11 P2 1.515180 1_565
O12 P3 1.563596 1_555
O12 Zr1 2.111761 1_556
O13 P3 1.556192 1_455
O13 Zr1 2.150371 1_556
O14 P3 1.585896 1_455
O14 Zr0 2.089731 1_546
O15 P3 1.514167 1_555
O17 O18 1.243796 1_555
O19 O21 1.279421 1_555
O19 O20 1.346946 1_555
