# generated using pymatgen
data_Mg4Sc
_symmetry_space_group_name_H-M   'P 1'
_cell_length_a   26.66434646
_cell_length_b   26.66434646
_cell_length_c   26.66434526
_cell_angle_alpha   13.78767900
_cell_angle_beta   13.78767900
_cell_angle_gamma   13.78767873
_symmetry_Int_Tables_number   1
_chemical_formula_structural   Mg4Sc
_chemical_formula_sum   'Mg32 Sc8'
_cell_volume   937.02640865
_cell_formula_units_Z   8
loop_
 _symmetry_equiv_pos_site_id
 _symmetry_equiv_pos_as_xyz
  1  'x, y, z'
loop_
 _atom_site_type_symbol
 _atom_site_label
 _atom_site_symmetry_multiplicity
 _atom_site_fract_x
 _atom_site_fract_y
 _atom_site_fract_z
 _atom_site_occupancy
  Mg  Mg0_0  1  0.29985350  0.29985350  0.29985350  1
  Mg  Mg0_1  1  0.29985350  0.29985350  0.79985350  1
  Mg  Mg0_2  1  0.29985350  0.79985350  0.29985350  1
  Mg  Mg0_3  1  0.29985350  0.79985350  0.79985350  1
  Mg  Mg0_4  1  0.79985350  0.29985350  0.29985350  1
  Mg  Mg0_5  1  0.79985350  0.29985350  0.79985350  1
  Mg  Mg0_6  1  0.79985350  0.79985350  0.29985350  1
  Mg  Mg0_7  1  0.79985350  0.79985350  0.79985350  1
  Mg  Mg1_0  1  0.09996550  0.09996550  0.09996550  1
  Mg  Mg1_1  1  0.09996550  0.09996550  0.59996550  1
  Mg  Mg1_2  1  0.09996550  0.59996550  0.09996550  1
  Mg  Mg1_3  1  0.09996550  0.59996550  0.59996550  1
  Mg  Mg1_4  1  0.59996550  0.09996550  0.09996550  1
  Mg  Mg1_5  1  0.59996550  0.09996550  0.59996550  1
  Mg  Mg1_6  1  0.59996550  0.59996550  0.09996550  1
  Mg  Mg1_7  1  0.59996550  0.59996550  0.59996550  1
  Mg  Mg2_0  1  0.40003450  0.40003450  0.40003450  1
  Mg  Mg2_1  1  0.40003450  0.40003450  0.90003450  1
  Mg  Mg2_2  1  0.40003450  0.90003450  0.40003450  1
  Mg  Mg2_3  1  0.40003450  0.90003450  0.90003450  1
  Mg  Mg2_4  1  0.90003450  0.40003450  0.40003450  1
  Mg  Mg2_5  1  0.90003450  0.40003450  0.90003450  1
  Mg  Mg2_6  1  0.90003450  0.90003450  0.40003450  1
  Mg  Mg2_7  1  0.90003450  0.90003450  0.90003450  1
  Mg  Mg3_0  1  0.20014650  0.20014650  0.20014650  1
  Mg  Mg3_1  1  0.20014650  0.20014650  0.70014650  1
  Mg  Mg3_2  1  0.20014650  0.70014650  0.20014650  1
  Mg  Mg3_3  1  0.20014650  0.70014650  0.70014650  1
  Mg  Mg3_4  1  0.70014650  0.20014650  0.20014650  1
  Mg  Mg3_5  1  0.70014650  0.20014650  0.70014650  1
  Mg  Mg3_6  1  0.70014650  0.70014650  0.20014650  1
  Mg  Mg3_7  1  0.70014650  0.70014650  0.70014650  1
  Sc  Sc0_0  1  0.00000000  0.00000000  0.00000000  1
  Sc  Sc0_1  1  0.00000000  0.00000000  0.50000000  1
  Sc  Sc0_2  1  0.00000000  0.50000000  0.00000000  1
  Sc  Sc0_3  1  0.00000000  0.50000000  0.50000000  1
  Sc  Sc0_4  1  0.50000000  0.00000000  0.00000000  1
  Sc  Sc0_5  1  0.50000000  0.00000000  0.50000000  1
  Sc  Sc0_6  1  0.50000000  0.50000000  0.00000000  1
  Sc  Sc0_7  1  0.50000000  0.50000000  0.50000000  1
loop_
_geom_bond_atom_site_label_1
_geom_bond_atom_site_label_2
_geom_bond_distance
_geom_bond_site_symmetry_2
Mg0_0 Mg0_3 3.200524 1_545
Mg0_0 Mg0_5 3.200524 1_455
Mg0_0 Mg0_5 3.200524 1_554
Mg0_0 Mg0_3 3.200524 1_554
Mg0_0 Mg0_6 3.200524 1_455
Mg0_0 Mg0_6 3.200524 1_545
Mg0_0 Mg1_2 3.215737 1_555
Mg0_0 Mg1_4 3.215737 1_555
Mg0_0 Mg1_1 3.215737 1_555
Mg0_0 Sc0_3 3.232518 1_555
Mg0_0 Sc0_5 3.232518 1_555
Mg0_0 Sc0_6 3.232519 1_555
Mg0_1 Mg0_4 3.200524 1_555
Mg0_1 Mg0_2 3.200524 1_555
Mg0_1 Mg0_2 3.200524 1_546
Mg0_1 Mg0_4 3.200524 1_456
Mg0_1 Mg0_7 3.200524 1_545
Mg0_1 Mg0_7 3.200524 1_455
Mg0_1 Mg1_3 3.215737 1_555
Mg0_1 Mg1_5 3.215737 1_555
Mg0_1 Mg1_0 3.215737 1_556
Mg0_1 Sc0_4 3.232518 1_556
Mg0_1 Sc0_2 3.232518 1_556
Mg0_1 Sc0_7 3.232519 1_555
Mg0_2 Mg0_7 3.200524 1_455
Mg0_2 Mg0_7 3.200524 1_554
Mg0_2 Mg0_4 3.200524 1_555
Mg0_2 Mg0_4 3.200524 1_465
Mg0_2 Mg1_6 3.215737 1_555
Mg0_2 Mg1_0 3.215737 1_565
Mg0_2 Mg1_3 3.215737 1_555
Mg0_2 Sc0_7 3.232518 1_555
Mg0_2 Sc0_1 3.232518 1_565
Mg0_2 Sc0_4 3.232519 1_565
Mg0_3 Mg0_6 3.200524 1_555
Mg0_3 Mg0_6 3.200524 1_456
Mg0_3 Mg0_5 3.200524 1_465
Mg0_3 Mg0_5 3.200524 1_555
Mg0_3 Mg1_7 3.215737 1_555
Mg0_3 Mg1_1 3.215737 1_565
Mg0_3 Mg1_2 3.215737 1_556
Mg0_3 Sc0_0 3.232518 1_566
Mg0_3 Sc0_6 3.232518 1_556
Mg0_3 Sc0_5 3.232519 1_565
Mg0_4 Mg0_7 3.200524 1_545
Mg0_4 Mg0_7 3.200524 1_554
Mg0_4 Mg1_6 3.215737 1_555
Mg0_4 Mg1_0 3.215737 1_655
Mg0_4 Mg1_5 3.215737 1_555
Mg0_4 Sc0_7 3.232518 1_555
Mg0_4 Sc0_1 3.232518 1_655
Mg0_4 Sc0_2 3.232519 1_655
Mg0_5 Mg0_6 3.200524 1_555
Mg0_5 Mg0_6 3.200524 1_546
Mg0_5 Mg1_7 3.215737 1_555
Mg0_5 Mg1_1 3.215737 1_655
Mg0_5 Mg1_4 3.215737 1_556
Mg0_5 Sc0_0 3.232518 1_656
Mg0_5 Sc0_6 3.232518 1_556
Mg0_5 Sc0_3 3.232519 1_655
Mg0_6 Mg1_4 3.215737 1_565
Mg0_6 Mg1_2 3.215737 1_655
Mg0_6 Mg1_7 3.215737 1_555
Mg0_6 Sc0_5 3.232518 1_565
Mg0_6 Sc0_3 3.232518 1_655
Mg0_6 Sc0_0 3.232519 1_665
Mg0_7 Mg1_3 3.215737 1_655
Mg0_7 Mg1_5 3.215737 1_565
Mg0_7 Mg1_6 3.215737 1_556
Mg0_7 Sc0_2 3.232518 1_656
Mg0_7 Sc0_4 3.232518 1_566
Mg0_7 Sc0_1 3.232519 1_665
Mg1_0 Mg1_3 3.200524 1_545
Mg1_0 Mg1_5 3.200524 1_455
Mg1_0 Mg1_5 3.200524 1_554
Mg1_0 Mg1_3 3.200524 1_554
Mg1_0 Mg1_6 3.200524 1_455
Mg1_0 Mg1_6 3.200524 1_545
Mg1_0 Mg2_3 3.218525 1_544
Mg1_0 Mg2_5 3.218525 1_454
Mg1_0 Mg2_6 3.218526 1_445
Mg1_1 Mg1_4 3.200524 1_456
Mg1_1 Mg1_2 3.200524 1_546
Mg1_1 Mg1_4 3.200524 1_555
Mg1_1 Mg1_2 3.200524 1_555
Mg1_1 Mg1_7 3.200524 1_455
Mg1_1 Mg1_7 3.200524 1_545
Mg1_1 Mg2_4 3.218525 1_455
Mg1_1 Mg2_2 3.218525 1_545
Mg1_1 Mg2_7 3.218526 1_445
Mg1_2 Mg1_7 3.200524 1_455
Mg1_2 Mg1_7 3.200524 1_554
Mg1_2 Mg1_4 3.200524 1_465
Mg1_2 Mg1_4 3.200524 1_555
Mg1_2 Mg2_7 3.218525 1_454
Mg1_2 Mg2_1 3.218525 1_554
Mg1_2 Mg2_4 3.218526 1_455
Mg1_3 Mg1_6 3.200524 1_456
Mg1_3 Mg1_6 3.200524 1_555
Mg1_3 Mg1_5 3.200524 1_555
Mg1_3 Mg1_5 3.200524 1_465
Mg1_3 Mg2_6 3.218525 1_455
Mg1_3 Mg2_0 3.218525 1_555
Mg1_3 Mg2_5 3.218526 1_455
Mg1_4 Mg1_7 3.200524 1_545
Mg1_4 Mg1_7 3.200524 1_554
Mg1_4 Mg2_7 3.218525 1_544
Mg1_4 Mg2_1 3.218525 1_554
Mg1_4 Mg2_2 3.218526 1_545
Mg1_5 Mg1_6 3.200524 1_546
Mg1_5 Mg1_6 3.200524 1_555
Mg1_5 Mg2_6 3.218525 1_545
Mg1_5 Mg2_0 3.218525 1_555
Mg1_5 Mg2_3 3.218526 1_545
Mg1_6 Mg2_3 3.218525 1_554
Mg1_6 Mg2_5 3.218525 1_554
Mg1_6 Mg2_0 3.218526 1_555
Mg1_7 Mg2_2 3.218525 1_555
Mg1_7 Mg2_4 3.218525 1_555
Mg1_7 Mg2_1 3.218526 1_555
Mg2_0 Mg2_3 3.200524 1_545
Mg2_0 Mg2_5 3.200524 1_455
Mg2_0 Mg2_3 3.200524 1_554
Mg2_0 Mg2_5 3.200524 1_554
Mg2_0 Mg2_6 3.200524 1_455
Mg2_0 Mg2_6 3.200524 1_545
Mg2_0 Mg3_4 3.215737 1_555
Mg2_0 Mg3_2 3.215737 1_555
Mg2_0 Mg3_1 3.215737 1_555
Mg2_1 Mg2_4 3.200524 1_456
Mg2_1 Mg2_4 3.200524 1_555
Mg2_1 Mg2_2 3.200524 1_555
Mg2_1 Mg2_2 3.200524 1_546
Mg2_1 Mg2_7 3.200524 1_545
Mg2_1 Mg2_7 3.200524 1_455
Mg2_1 Mg3_5 3.215737 1_555
Mg2_1 Mg3_3 3.215737 1_555
Mg2_1 Mg3_0 3.215737 1_556
Mg2_2 Mg2_7 3.200524 1_455
Mg2_2 Mg2_7 3.200524 1_554
Mg2_2 Mg2_4 3.200524 1_465
Mg2_2 Mg2_4 3.200524 1_555
Mg2_2 Mg3_0 3.215737 1_565
Mg2_2 Mg3_6 3.215737 1_555
Mg2_2 Mg3_3 3.215737 1_555
Mg2_3 Mg2_6 3.200524 1_555
Mg2_3 Mg2_6 3.200524 1_456
Mg2_3 Mg2_5 3.200524 1_555
Mg2_3 Mg2_5 3.200524 1_465
Mg2_3 Mg3_7 3.215737 1_555
Mg2_3 Mg3_1 3.215737 1_565
Mg2_3 Mg3_2 3.215737 1_556
Mg2_4 Mg2_7 3.200524 1_545
Mg2_4 Mg2_7 3.200524 1_554
Mg2_4 Mg3_0 3.215737 1_655
Mg2_4 Mg3_6 3.215737 1_555
Mg2_4 Mg3_5 3.215737 1_555
Mg2_5 Mg2_6 3.200524 1_555
Mg2_5 Mg2_6 3.200524 1_546
Mg2_5 Mg3_7 3.215737 1_555
Mg2_5 Mg3_1 3.215737 1_655
Mg2_5 Mg3_4 3.215737 1_556
Mg2_6 Mg3_4 3.215737 1_565
Mg2_6 Mg3_2 3.215737 1_655
Mg2_6 Mg3_7 3.215737 1_555
Mg2_7 Mg3_5 3.215737 1_565
Mg2_7 Mg3_3 3.215737 1_655
Mg2_7 Mg3_6 3.215737 1_556
Mg3_0 Mg3_5 3.200524 1_455
Mg3_0 Mg3_3 3.200524 1_545
Mg3_0 Mg3_5 3.200524 1_554
Mg3_0 Mg3_3 3.200524 1_554
Mg3_0 Mg3_6 3.200524 1_455
Mg3_0 Mg3_6 3.200524 1_545
Mg3_0 Sc0_4 3.232518 1_555
Mg3_0 Sc0_2 3.232518 1_555
Mg3_0 Sc0_1 3.232519 1_555
Mg3_1 Mg3_2 3.200524 1_546
Mg3_1 Mg3_4 3.200524 1_555
Mg3_1 Mg3_2 3.200524 1_555
Mg3_1 Mg3_4 3.200524 1_456
Mg3_1 Mg3_7 3.200524 1_545
Mg3_1 Mg3_7 3.200524 1_455
Mg3_1 Sc0_3 3.232518 1_555
Mg3_1 Sc0_5 3.232518 1_555
Mg3_1 Sc0_0 3.232519 1_556
Mg3_2 Mg3_7 3.200524 1_554
Mg3_2 Mg3_7 3.200524 1_455
Mg3_2 Mg3_4 3.200524 1_555
Mg3_2 Mg3_4 3.200524 1_465
Mg3_2 Sc0_6 3.232518 1_555
Mg3_2 Sc0_0 3.232518 1_565
Mg3_2 Sc0_3 3.232519 1_555
Mg3_3 Mg3_6 3.200524 1_555
Mg3_3 Mg3_6 3.200524 1_456
Mg3_3 Mg3_5 3.200524 1_465
Mg3_3 Mg3_5 3.200524 1_555
Mg3_3 Sc0_1 3.232518 1_565
Mg3_3 Sc0_7 3.232518 1_555
Mg3_3 Sc0_2 3.232519 1_556
Mg3_4 Mg3_7 3.200524 1_554
Mg3_4 Mg3_7 3.200524 1_545
Mg3_4 Sc0_6 3.232518 1_555
Mg3_4 Sc0_0 3.232518 1_655
Mg3_4 Sc0_5 3.232519 1_555
Mg3_5 Mg3_6 3.200524 1_555
Mg3_5 Mg3_6 3.200524 1_546
Mg3_5 Sc0_1 3.232518 1_655
Mg3_5 Sc0_7 3.232518 1_555
Mg3_5 Sc0_4 3.232519 1_556
Mg3_6 Sc0_2 3.232518 1_655
Mg3_6 Sc0_4 3.232518 1_565
Mg3_6 Sc0_7 3.232519 1_555
Mg3_7 Sc0_5 3.232518 1_565
Mg3_7 Sc0_3 3.232518 1_655
Mg3_7 Sc0_6 3.232519 1_556
Sc0_0 Sc0_3 3.200524 1_545
Sc0_0 Sc0_5 3.200524 1_455
Sc0_0 Sc0_5 3.200524 1_554
Sc0_0 Sc0_3 3.200524 1_554
Sc0_0 Sc0_6 3.200524 1_545
Sc0_0 Sc0_6 3.200524 1_455
Sc0_1 Sc0_2 3.200524 1_555
Sc0_1 Sc0_2 3.200524 1_546
Sc0_1 Sc0_4 3.200524 1_456
Sc0_1 Sc0_4 3.200524 1_555
Sc0_1 Sc0_7 3.200524 1_545
Sc0_1 Sc0_7 3.200524 1_455
Sc0_2 Sc0_7 3.200524 1_554
Sc0_2 Sc0_7 3.200524 1_455
Sc0_2 Sc0_4 3.200524 1_555
Sc0_2 Sc0_4 3.200524 1_465
Sc0_3 Sc0_6 3.200524 1_555
Sc0_3 Sc0_6 3.200524 1_456
Sc0_3 Sc0_5 3.200524 1_555
Sc0_3 Sc0_5 3.200524 1_465
Sc0_4 Sc0_7 3.200524 1_554
Sc0_4 Sc0_7 3.200524 1_545
Sc0_5 Sc0_6 3.200524 1_555
Sc0_5 Sc0_6 3.200524 1_546
