# generated using pymatgen
data_Ti2MnNiO6
_symmetry_space_group_name_H-M   'P 1'
_cell_length_a   5.13335474
_cell_length_b   5.13346000
_cell_length_c   9.91526943
_cell_angle_alpha   89.99993265
_cell_angle_beta   105.00215402
_cell_angle_gamma   120.00076148
_symmetry_Int_Tables_number   1
_chemical_formula_structural   Ti2MnNiO6
_chemical_formula_sum   'Ti4 Mn2 Ni2 O12'
_cell_volume   215.93390090
_cell_formula_units_Z   2
loop_
 _symmetry_equiv_pos_site_id
 _symmetry_equiv_pos_as_xyz
  1  'x, y, z'
loop_
 _atom_site_type_symbol
 _atom_site_label
 _atom_site_symmetry_multiplicity
 _atom_site_fract_x
 _atom_site_fract_y
 _atom_site_fract_z
 _atom_site_occupancy
  Ti  Ti0  1  0.85614000  0.42807500  0.28422600  1
  Ti  Ti1  1  0.85612300  0.92806400  0.78419700  1
  Ti  Ti2  1  0.14560400  0.07280000  0.21841500  1
  Ti  Ti3  1  0.14558300  0.57279100  0.71837500  1
  Mn  Mn0  1  0.35718800  0.17858700  0.53573300  1
  Mn  Mn1  1  0.35712200  0.67855000  0.03568500  1
  Ni  Ni0  1  0.64855300  0.82427800  0.47284800  1
  Ni  Ni1  1  0.64855800  0.32427500  0.97286400  1
  O  O0  1  0.43685100  0.34350200  0.12998200  1
  O  O1  1  0.43685500  0.84346200  0.62999700  1
  O  O2  1  0.03665000  0.69314900  0.12998000  1
  O  O3  1  0.03663700  0.19317300  0.62999900  1
  O  O4  1  0.78650300  0.09335600  0.12998100  1
  O  O5  1  0.78655500  0.59338800  0.63000000  1
  O  O6  1  0.56276700  0.13661900  0.36628000  1
  O  O7  1  0.56275200  0.63660700  0.86628300  1
  O  O8  1  0.94011400  0.80349500  0.36628200  1
  O  O9  1  0.94012600  0.30352300  0.86628400  1
  O  O10  1  0.22965600  0.42615400  0.36629200  1
  O  O11  1  0.22966300  0.92615000  0.86629300  1
loop_
_geom_bond_atom_site_label_1
_geom_bond_atom_site_label_2
_geom_bond_distance
_geom_bond_site_symmetry_2
Mn0 O5 2.122706 1_555
Mn0 O1 2.122760 1_545
Mn0 O3 2.122817 1_555
Mn0 O6 2.264595 1_555
Mn0 O10 2.264705 1_555
Mn0 O8 2.264832 1_445
Mn1 O2 2.122662 1_555
Mn1 O0 2.122683 1_555
Mn1 O4 2.122798 1_565
Mn1 O7 2.264301 1_554
Mn1 O9 2.264328 1_454
Mn1 O11 2.264359 1_554
Ni0 O10 2.084733 1_555
Ni0 O8 2.084786 1_555
Ni0 O6 2.084824 1_565
Ni0 O1 2.145281 1_555
Ni0 O5 2.145437 1_555
Ni0 O3 2.145485 1_665
Ni1 O11 2.084767 1_545
Ni1 O9 2.084849 1_555
Ni1 O7 2.084890 1_555
Ni1 O0 2.145117 1_556
Ni1 O4 2.145199 1_556
Ni1 O2 2.145283 1_656
O0 Ti2 1.880480 1_555
O0 Ti0 2.126374 1_555
O1 Ti3 1.880130 1_555
O1 Ti1 2.126051 1_555
O2 Ti2 1.880437 1_565
O2 Ti0 2.126510 1_455
O3 Ti3 1.880073 1_555
O3 Ti1 2.126196 1_445
O4 Ti2 1.880373 1_655
O4 Ti0 2.126489 1_555
O5 Ti3 1.880032 1_655
O5 Ti1 2.126157 1_555
O6 Ti0 1.884016 1_555
O6 Ti2 2.125003 1_555
O7 Ti1 1.884216 1_555
O7 Ti3 2.125214 1_555
O8 Ti0 1.884024 1_555
O8 Ti2 2.125049 1_665
O9 Ti1 1.884262 1_545
O9 Ti3 2.125254 1_655
O10 Ti0 1.884086 1_455
O10 Ti2 2.125129 1_555
O11 Ti1 1.884230 1_455
O11 Ti3 2.125350 1_555
