# generated using pymatgen
data_Eu2BBrN2
_symmetry_space_group_name_H-M   'P 1'
_cell_length_a   4.05954448
_cell_length_b   4.05954448
_cell_length_c   9.21831583
_cell_angle_alpha   77.27985214
_cell_angle_beta   77.27985214
_cell_angle_gamma   59.99999221
_symmetry_Int_Tables_number   1
_chemical_formula_structural   Eu2BBrN2
_chemical_formula_sum   'Eu2 B1 Br1 N2'
_cell_volume   127.24044114
_cell_formula_units_Z   1
loop_
 _symmetry_equiv_pos_site_id
 _symmetry_equiv_pos_as_xyz
  1  'x, y, z'
loop_
 _atom_site_type_symbol
 _atom_site_label
 _atom_site_symmetry_multiplicity
 _atom_site_fract_x
 _atom_site_fract_y
 _atom_site_fract_z
 _atom_site_occupancy
  Eu  Eu0  1  0.75183100  0.75183100  0.74450700  1
  Eu  Eu1  1  0.24816900  0.24816900  0.25549300  1
  B  B0  1  0.50000000  0.50000000  0.50000000  1
  Br  Br0  1  0.00000000  0.00000000  0.00000000  1
  N  N0  1  0.55064000  0.55064000  0.34808000  1
  N  N1  1  0.44936000  0.44936000  0.65192000  1
loop_
_geom_bond_atom_site_label_1
_geom_bond_atom_site_label_2
_geom_bond_distance
_geom_bond_site_symmetry_2
Eu0 N1 2.484887 1_655
Eu0 N1 2.484887 1_565
Eu0 N1 2.484888 1_555
Eu1 N0 2.484887 1_545
Eu1 N0 2.484887 1_455
Eu1 N0 2.484888 1_555
B0 N0 1.354425 1_555
B0 N1 1.354425 1_555
Br0 Eu0 3.268295 1_544
Br0 Eu0 3.268295 1_454
Br0 Eu1 3.268295 1_455
Br0 Eu1 3.268295 1_545
Br0 Eu0 3.268296 1_444
Br0 Eu1 3.268296 1_555
