# generated using pymatgen
data_Sr2NiIrO6
_symmetry_space_group_name_H-M   'P 1'
_cell_length_a   5.63311031
_cell_length_b   5.63311173
_cell_length_c   15.91580800
_cell_angle_alpha   90.00000000
_cell_angle_beta   89.99999491
_cell_angle_gamma   89.99989931
_symmetry_Int_Tables_number   1
_chemical_formula_structural   Sr2NiIrO6
_chemical_formula_sum   'Sr8 Ni4 Ir4 O24'
_cell_volume   505.03946039
_cell_formula_units_Z   4
loop_
 _symmetry_equiv_pos_site_id
 _symmetry_equiv_pos_as_xyz
  1  'x, y, z'
loop_
 _atom_site_type_symbol
 _atom_site_label
 _atom_site_symmetry_multiplicity
 _atom_site_fract_x
 _atom_site_fract_y
 _atom_site_fract_z
 _atom_site_occupancy
  Sr  Sr0  1  0.00000000  0.50000000  0.62500000  1
  Sr  Sr1  1  0.50000000  0.00000000  0.87499900  1
  Sr  Sr2  1  0.00000000  0.50000000  0.12500000  1
  Sr  Sr3  1  0.50000000  0.00000000  0.37500200  1
  Sr  Sr4  1  0.00000000  0.50000000  0.87499900  1
  Sr  Sr5  1  0.50000000  0.00000000  0.12500000  1
  Sr  Sr6  1  0.00000000  0.50000000  0.37500200  1
  Sr  Sr7  1  0.50000000  0.00000000  0.62500100  1
  Ni  Ni0  1  0.00000100  0.00000000  0.50119300  1
  Ni  Ni1  1  0.50000000  0.50000000  0.74880300  1
  Ni  Ni2  1  0.00000000  0.00000000  0.00117400  1
  Ni  Ni3  1  0.50000000  0.50000100  0.24882600  1
  Ir  Ir0  1  0.00000000  0.00000000  0.75088900  1
  Ir  Ir1  1  0.50000000  0.50000000  0.99911300  1
  Ir  Ir2  1  0.00000000  0.00000000  0.25088700  1
  Ir  Ir3  1  0.50000000  0.50000000  0.49911200  1
  O  O0  1  0.00000000  0.00000000  0.62837200  1
  O  O1  1  0.50000000  0.50000000  0.87742100  1
  O  O2  1  0.00000000  0.00000000  0.12836400  1
  O  O3  1  0.50000000  0.50000000  0.37744400  1
  O  O4  1  0.24401100  0.24401100  0.75037000  1
  O  O5  1  0.74400900  0.74400900  0.99961300  1
  O  O6  1  0.24400900  0.24400900  0.25038700  1
  O  O7  1  0.74401200  0.74401200  0.49963000  1
  O  O8  1  0.75598900  0.24401100  0.75037000  1
  O  O9  1  0.25599100  0.74400900  0.99961300  1
  O  O10  1  0.75599100  0.24400900  0.25038700  1
  O  O11  1  0.25598800  0.74401200  0.49963000  1
  O  O12  1  0.00000000  0.00000000  0.87255600  1
  O  O13  1  0.50000000  0.50000000  0.12163600  1
  O  O14  1  0.00000000  0.00000000  0.37257900  1
  O  O15  1  0.50000000  0.50000000  0.62162800  1
  O  O16  1  0.75598900  0.75598900  0.75037000  1
  O  O17  1  0.25599100  0.25599100  0.99961300  1
  O  O18  1  0.75599100  0.75599100  0.25038700  1
  O  O19  1  0.25598800  0.25598800  0.49963000  1
  O  O20  1  0.24401100  0.75598900  0.75037000  1
  O  O21  1  0.74400900  0.25599100  0.99961300  1
  O  O22  1  0.24400900  0.75599100  0.25038700  1
  O  O23  1  0.74401200  0.25598800  0.49963000  1
loop_
_geom_bond_atom_site_label_1
_geom_bond_atom_site_label_2
_geom_bond_distance
_geom_bond_site_symmetry_2
Ni0 O0 2.024157 1_555
Ni0 O11 2.039454 1_545
Ni0 O19 2.039458 1_555
Ni0 O23 2.039462 1_455
Ni0 O7 2.039466 1_445
Ni0 O14 2.046996 1_555
Ni1 O15 2.024093 1_555
Ni1 O20 2.039467 1_555
Ni1 O8 2.039467 1_555
Ni1 O4 2.039471 1_555
Ni1 O16 2.039471 1_555
Ni1 O1 2.047059 1_555
Ni2 O2 2.024332 1_555
Ni2 O9 2.039482 1_544
Ni2 O21 2.039482 1_454
Ni2 O17 2.039485 1_554
Ni2 O5 2.039485 1_444
Ni2 O12 2.047059 1_554
Ni3 O13 2.024332 1_555
Ni3 O22 2.039478 1_555
Ni3 O18 2.039481 1_555
Ni3 O10 2.039486 1_555
Ni3 O6 2.039489 1_555
Ni3 O3 2.047059 1_555
Ir0 O12 1.936429 1_555
Ir0 O20 1.943910 1_545
Ir0 O8 1.943910 1_455
Ir0 O4 1.943914 1_555
Ir0 O16 1.943914 1_445
Ir0 O0 1.949957 1_555
Ir1 O1 1.936827 1_555
Ir1 O9 1.943893 1_555
Ir1 O21 1.943893 1_555
Ir1 O17 1.943897 1_555
Ir1 O5 1.943897 1_555
Ir1 O13 1.950053 1_556
Ir2 O14 1.936827 1_555
Ir2 O22 1.943893 1_545
Ir2 O10 1.943893 1_455
Ir2 O6 1.943897 1_555
Ir2 O18 1.943897 1_445
Ir2 O2 1.950053 1_555
Ir3 O3 1.936445 1_555
Ir3 O11 1.943918 1_555
Ir3 O23 1.943918 1_555
Ir3 O19 1.943922 1_555
Ir3 O7 1.943922 1_555
Ir3 O15 1.949941 1_555
O0 Sr7 2.817066 1_555
O0 Sr7 2.817066 1_455
O0 Sr0 2.817067 1_555
O0 Sr0 2.817067 1_545
O1 Sr4 2.816819 1_655
O1 Sr4 2.816819 1_555
O1 Sr1 2.816820 1_565
O1 Sr1 2.816820 1_555
O2 Sr5 2.817064 1_555
O2 Sr5 2.817064 1_455
O2 Sr2 2.817065 1_555
O2 Sr2 2.817065 1_545
O3 Sr6 2.816823 1_655
O3 Sr6 2.816823 1_555
O3 Sr3 2.816824 1_565
O3 Sr3 2.816824 1_555
O4 Sr4 2.811284 1_555
O4 Sr1 2.811284 1_555
O4 Sr7 2.819606 1_555
O4 Sr0 2.819618 1_555
O5 Sr4 2.811116 1_655
O5 Sr1 2.811116 1_565
O5 Sr5 2.819809 1_566
O5 Sr2 2.819809 1_656
O6 Sr6 2.811127 1_555
O6 Sr3 2.811127 1_555
O6 Sr5 2.819809 1_555
O6 Sr2 2.819809 1_555
O7 Sr6 2.811272 1_655
O7 Sr3 2.811273 1_565
O7 Sr0 2.819617 1_655
O7 Sr7 2.819629 1_565
O8 Sr1 2.811286 1_555
O8 Sr4 2.811286 1_655
O8 Sr7 2.819609 1_555
O8 Sr0 2.819620 1_655
O9 Sr1 2.811118 1_565
O9 Sr4 2.811118 1_555
O9 Sr2 2.819812 1_556
O9 Sr5 2.819812 1_566
O10 Sr3 2.811129 1_555
O10 Sr6 2.811129 1_655
O10 Sr2 2.819812 1_655
O10 Sr5 2.819812 1_555
O11 Sr3 2.811275 1_565
O11 Sr6 2.811275 1_555
O11 Sr0 2.819620 1_555
O11 Sr7 2.819631 1_565
O12 Sr1 2.816824 1_455
O12 Sr1 2.816824 1_555
O12 Sr4 2.816824 1_545
O12 Sr4 2.816824 1_555
O13 Sr2 2.817064 1_555
O13 Sr2 2.817064 1_655
O13 Sr5 2.817065 1_555
O13 Sr5 2.817065 1_565
O14 Sr3 2.816819 1_455
O14 Sr3 2.816819 1_555
O14 Sr6 2.816820 1_545
O14 Sr6 2.816820 1_555
O15 Sr0 2.817066 1_555
O15 Sr0 2.817066 1_655
O15 Sr7 2.817067 1_555
O15 Sr7 2.817067 1_565
O16 Sr1 2.811284 1_565
O16 Sr4 2.811284 1_655
O16 Sr7 2.819606 1_565
O16 Sr0 2.819617 1_655
O17 Sr1 2.811116 1_555
O17 Sr4 2.811116 1_555
O17 Sr2 2.819809 1_556
O17 Sr5 2.819809 1_556
O18 Sr3 2.811127 1_565
O18 Sr6 2.811127 1_655
O18 Sr2 2.819809 1_655
O18 Sr5 2.819809 1_565
O19 Sr3 2.811272 1_555
O19 Sr6 2.811273 1_555
O19 Sr0 2.819617 1_555
O19 Sr7 2.819629 1_555
O20 Sr4 2.811286 1_555
O20 Sr1 2.811286 1_565
O20 Sr7 2.819609 1_565
O20 Sr0 2.819620 1_555
O21 Sr4 2.811118 1_655
O21 Sr1 2.811118 1_555
O21 Sr5 2.819812 1_556
O21 Sr2 2.819812 1_656
O22 Sr6 2.811129 1_555
O22 Sr3 2.811129 1_565
O22 Sr5 2.819812 1_565
O22 Sr2 2.819812 1_555
O23 Sr6 2.811275 1_655
O23 Sr3 2.811275 1_555
O23 Sr0 2.819620 1_655
O23 Sr7 2.819631 1_555
