# generated using pymatgen
data_NaLaMg14
_symmetry_space_group_name_H-M   'P 1'
_cell_length_a   6.64971991
_cell_length_b   6.55510981
_cell_length_c   10.54468474
_cell_angle_alpha   90.00000000
_cell_angle_beta   90.00000000
_cell_angle_gamma   119.53046341
_symmetry_Int_Tables_number   1
_chemical_formula_structural   NaLaMg14
_chemical_formula_sum   'Na1 La1 Mg14'
_cell_volume   399.92907366
_cell_formula_units_Z   1
loop_
 _symmetry_equiv_pos_site_id
 _symmetry_equiv_pos_as_xyz
  1  'x, y, z'
loop_
 _atom_site_type_symbol
 _atom_site_label
 _atom_site_symmetry_multiplicity
 _atom_site_fract_x
 _atom_site_fract_y
 _atom_site_fract_z
 _atom_site_occupancy
  Na  Na0  1  0.16927933  0.83463917  0.12500000  1
  La  La0  1  0.16475750  0.33237825  0.12500000  1
  Mg  Mg0  1  0.16475182  0.33237541  0.62500000  1
  Mg  Mg1  1  0.16558705  0.83279303  0.62500000  1
  Mg  Mg2  1  0.66064047  0.32475947  0.12500000  1
  Mg  Mg3  1  0.66687032  0.33313574  0.62500000  1
  Mg  Mg4  1  0.66064047  0.83588000  0.12500000  1
  Mg  Mg5  1  0.66687032  0.83373359  0.62500000  1
  Mg  Mg6  1  0.33922882  0.16828215  0.38497864  1
  Mg  Mg7  1  0.33922882  0.16828215  0.86502136  1
  Mg  Mg8  1  0.33922882  0.67094767  0.38497864  1
  Mg  Mg9  1  0.33922882  0.67094767  0.86502136  1
  Mg  Mg10  1  0.82974540  0.16487320  0.38086628  1
  Mg  Mg11  1  0.82974540  0.16487320  0.86913372  1
  Mg  Mg12  1  0.83209832  0.66604966  0.37472826  1
  Mg  Mg13  1  0.83209832  0.66604966  0.87527174  1
loop_
_geom_bond_atom_site_label_1
_geom_bond_atom_site_label_2
_geom_bond_distance
_geom_bond_site_symmetry_2
La0 Na0 3.277659 1_545
La0 Na0 3.277659 1_555
La0 Mg11 3.322126 1_454
La0 Mg10 3.322126 1_455
La0 Mg4 3.322382 1_555
La0 Mg2 3.322383 1_555
La0 Mg4 3.327905 1_445
La0 Mg2 3.327905 1_455
La0 Mg7 3.353885 1_554
La0 Mg6 3.353885 1_555
La0 Mg9 3.353891 1_554
La0 Mg8 3.353891 1_555
Mg0 Mg6 3.184193 1_555
Mg0 Mg7 3.184193 1_555
Mg0 Mg8 3.184199 1_555
Mg0 Mg9 3.184199 1_555
Mg0 Mg11 3.222440 1_455
Mg0 Mg10 3.222440 1_455
Mg0 Mg1 3.277558 1_545
Mg0 Mg1 3.277559 1_555
Mg0 Mg5 3.313232 1_445
Mg0 Mg3 3.313232 1_455
Mg0 Mg5 3.336493 1_555
Mg0 Mg3 3.336494 1_555
Mg1 Mg8 3.173654 1_555
Mg1 Mg9 3.173654 1_555
Mg1 Mg6 3.173661 1_565
Mg1 Mg7 3.173661 1_565
Mg1 Mg12 3.269187 1_455
Mg1 Mg13 3.269187 1_455
Mg1 Mg3 3.319369 1_455
Mg1 Mg5 3.319370 1_455
Mg1 Mg3 3.330358 1_565
Mg1 Mg5 3.330359 1_555
Mg2 Mg4 3.204659 1_545
Mg2 Na0 3.263412 1_545
Mg2 Mg7 3.312748 1_554
Mg2 Mg6 3.312748 1_555
Mg2 Mg4 3.350451 1_555
Mg2 Na0 3.386322 1_655
Mg3 Mg6 3.162184 1_555
Mg3 Mg7 3.162184 1_555
Mg3 Mg5 3.273636 1_545
Mg3 Mg5 3.281474 1_555
Mg4 Na0 3.263413 1_555
Mg4 Mg9 3.312748 1_554
Mg4 Mg8 3.312748 1_555
Mg4 Na0 3.386322 1_655
Mg5 Mg8 3.162184 1_555
Mg5 Mg9 3.162184 1_555
Mg6 Mg8 3.260082 1_545
Mg6 Mg8 3.295028 1_555
Mg6 Na0 3.337541 1_545
Mg7 Mg9 3.260082 1_545
Mg7 Mg9 3.295028 1_555
Mg7 Na0 3.337541 1_546
Mg8 Na0 3.337535 1_555
Mg9 Na0 3.337535 1_556
Mg10 Mg3 3.192853 1_555
Mg10 Mg5 3.192860 1_545
Mg10 Mg8 3.273157 1_545
Mg10 Mg6 3.273157 1_555
Mg10 Mg12 3.278222 1_555
Mg10 Mg12 3.278222 1_545
Mg10 Mg2 3.286960 1_555
Mg10 Mg4 3.286967 1_545
Mg10 Mg8 3.377242 1_655
Mg10 Mg6 3.377242 1_655
Mg11 Mg3 3.192853 1_555
Mg11 Mg5 3.192860 1_545
Mg11 Mg9 3.273157 1_545
Mg11 Mg7 3.273157 1_555
Mg11 Mg13 3.278222 1_555
Mg11 Mg13 3.278222 1_545
Mg11 Mg2 3.286960 1_556
Mg11 Mg4 3.286967 1_546
Mg11 Mg9 3.377242 1_655
Mg11 Mg7 3.377242 1_655
Mg12 Mg5 3.251219 1_555
Mg12 Mg3 3.251226 1_555
Mg12 Mg4 3.274873 1_555
Mg12 Mg2 3.274879 1_555
Mg12 Na0 3.277235 1_655
Mg12 Mg6 3.295161 1_555
Mg12 Mg8 3.295161 1_555
Mg12 Mg6 3.358306 1_665
Mg12 Mg8 3.358307 1_655
Mg13 Mg5 3.251219 1_555
Mg13 Mg3 3.251226 1_555
Mg13 Mg4 3.274873 1_556
Mg13 Mg2 3.274879 1_556
Mg13 Na0 3.277235 1_656
Mg13 Mg7 3.295161 1_555
Mg13 Mg9 3.295161 1_555
Mg13 Mg7 3.358306 1_665
Mg13 Mg9 3.358307 1_655
