# generated using pymatgen
data_AgSO4
_symmetry_space_group_name_H-M   'P 1'
_cell_length_a   4.74827599
_cell_length_b   4.64093364
_cell_length_c   8.26486873
_cell_angle_alpha   96.98026775
_cell_angle_beta   72.67431500
_cell_angle_gamma   112.22316058
_symmetry_Int_Tables_number   1
_chemical_formula_structural   AgSO4
_chemical_formula_sum   'Ag2 S2 O8'
_cell_volume   160.94139911
_cell_formula_units_Z   2
loop_
 _symmetry_equiv_pos_site_id
 _symmetry_equiv_pos_as_xyz
  1  'x, y, z'
loop_
 _atom_site_type_symbol
 _atom_site_label
 _atom_site_symmetry_multiplicity
 _atom_site_fract_x
 _atom_site_fract_y
 _atom_site_fract_z
 _atom_site_occupancy
  Ag  Ag0  1  -0.00000000  0.00000000  0.00000000  1
  Ag  Ag1  1  0.49999900  0.50000000  0.50000000  1
  S  S0  1  0.15172899  0.58680785  0.24224813  1
  S  S1  1  0.84827101  0.41319215  0.75775187  1
  O  O0  1  0.24035826  0.76246969  0.08745742  1
  O  O1  1  0.93418346  0.26370710  0.22825263  1
  O  O2  1  0.45342095  0.59497282  0.26347791  1
  O  O3  1  0.99316967  0.72959136  0.39307666  1
  O  O4  1  0.00682833  0.27040864  0.60692334  1
  O  O5  1  0.54657805  0.40502818  0.73652209  1
  O  O6  1  0.06581654  0.73629290  0.77174737  1
  O  O7  1  0.75964174  0.23753131  0.91254258  1
loop_
_geom_bond_atom_site_label_1
_geom_bond_atom_site_label_2
_geom_bond_distance
_geom_bond_site_symmetry_2
Ag0 O6 2.128681 1_544
Ag0 O1 2.128681 1_455
Ag0 O0 2.162615 1_545
Ag0 O7 2.162618 1_454
Ag1 O3 2.123394 1_555
Ag1 O4 2.123394 1_555
Ag1 O2 2.145969 1_555
Ag1 O5 2.145970 1_555
O0 S0 1.466866 1_555
O1 S0 1.478589 1_655
O2 S0 1.480323 1_555
O3 S0 1.475638 1_655
O4 S1 1.475634 1_455
O5 S1 1.480329 1_555
O6 S1 1.478589 1_455
O7 S1 1.466863 1_555
