# generated using pymatgen
data_Dy3GaNiSe7
_symmetry_space_group_name_H-M   'P 1'
_cell_length_a   9.98627200
_cell_length_b   9.98627179
_cell_length_c   6.49785200
_cell_angle_alpha   90.00000000
_cell_angle_beta   90.00000000
_cell_angle_gamma   120.00000069
_symmetry_Int_Tables_number   1
_chemical_formula_structural   Dy3GaNiSe7
_chemical_formula_sum   'Dy6 Ga2 Ni2 Se14'
_cell_volume   561.18650223
_cell_formula_units_Z   2
loop_
 _symmetry_equiv_pos_site_id
 _symmetry_equiv_pos_as_xyz
  1  'x, y, z'
loop_
 _atom_site_type_symbol
 _atom_site_label
 _atom_site_symmetry_multiplicity
 _atom_site_fract_x
 _atom_site_fract_y
 _atom_site_fract_z
 _atom_site_occupancy
  Dy  Dy0  1  0.15958400  0.37413100  0.82179300  1
  Dy  Dy1  1  0.21454800  0.84041600  0.82179300  1
  Dy  Dy2  1  0.62586900  0.78545200  0.82179300  1
  Dy  Dy3  1  0.84041600  0.62586900  0.32179300  1
  Dy  Dy4  1  0.78545200  0.15958400  0.32179300  1
  Dy  Dy5  1  0.37413100  0.21454800  0.32179300  1
  Ga  Ga0  1  0.66666700  0.33333300  0.89639900  1
  Ga  Ga1  1  0.33333300  0.66666700  0.39639900  1
  Ni  Ni0  1  0.00000000  0.00000000  0.49684700  1
  Ni  Ni1  1  0.00000000  0.00000000  0.99684700  1
  Se  Se0  1  0.43825500  0.52003100  0.55533300  1
  Se  Se1  1  0.08177600  0.56174500  0.55533300  1
  Se  Se2  1  0.47996900  0.91822400  0.55533300  1
  Se  Se3  1  0.56174500  0.47996900  0.05533300  1
  Se  Se4  1  0.91822400  0.43825500  0.05533300  1
  Se  Se5  1  0.52003100  0.08177600  0.05533300  1
  Se  Se6  1  0.66666700  0.33333300  0.52615200  1
  Se  Se7  1  0.33333300  0.66666700  0.02615200  1
  Se  Se8  1  0.86929000  0.10411300  0.73115100  1
  Se  Se9  1  0.23482200  0.13071000  0.73115100  1
  Se  Se10  1  0.89588700  0.76517800  0.73115100  1
  Se  Se11  1  0.13071000  0.89588700  0.23115100  1
  Se  Se12  1  0.76517800  0.86929000  0.23115100  1
  Se  Se13  1  0.10411300  0.23482200  0.23115100  1
loop_
_geom_bond_atom_site_label_1
_geom_bond_atom_site_label_2
_geom_bond_distance
_geom_bond_site_symmetry_2
Dy0 Se8 2.864411 1_455
Dy0 Se7 2.870419 1_556
Dy0 Se13 2.923511 1_556
Dy0 Se1 2.927043 1_555
Dy0 Se9 2.940572 1_555
Dy0 Se0 2.968238 1_555
Dy0 Se4 3.172668 1_456
Dy1 Se9 2.864419 1_565
Dy1 Se7 2.870405 1_556
Dy1 Se11 2.923511 1_556
Dy1 Se2 2.927035 1_555
Dy1 Se10 2.940591 1_455
Dy1 Se1 2.968238 1_555
Dy1 Se5 3.172662 1_566
Dy2 Se10 2.864400 1_555
Dy2 Se7 2.870421 1_556
Dy2 Se12 2.923511 1_556
Dy2 Se0 2.927037 1_555
Dy2 Se8 2.940585 1_565
Dy2 Se2 2.968245 1_555
Dy2 Se3 3.172660 1_556
Dy3 Se11 2.864411 1_655
Dy3 Se6 2.870419 1_555
Dy3 Se10 2.923511 1_555
Dy3 Se4 2.927043 1_555
Dy3 Se12 2.940572 1_555
Dy3 Se3 2.968238 1_555
Dy3 Se1 3.172668 1_655
Dy4 Se12 2.864419 1_545
Dy4 Se6 2.870405 1_555
Dy4 Se8 2.923511 1_555
Dy4 Se5 2.927035 1_555
Dy4 Se13 2.940591 1_655
Dy4 Se4 2.968238 1_555
Dy4 Se2 3.172662 1_545
Dy5 Se13 2.864400 1_555
Dy5 Se6 2.870421 1_555
Dy5 Se9 2.923511 1_555
Dy5 Se3 2.927037 1_555
Dy5 Se11 2.940585 1_545
Dy5 Se5 2.968245 1_555
Dy5 Se0 3.172660 1_555
Ga0 Se6 2.405810 1_555
Ga0 Se4 2.417221 1_556
Ga0 Se5 2.417222 1_556
Ga0 Se3 2.417229 1_556
Ga1 Se7 2.405810 1_555
Ga1 Se1 2.417221 1_555
Ga1 Se2 2.417222 1_555
Ga1 Se0 2.417229 1_555
Ni0 Se10 2.541616 1_445
Ni0 Se9 2.541617 1_555
Ni0 Se8 2.541624 1_455
Ni0 Se13 2.668807 1_555
Ni0 Se12 2.668808 1_445
Ni0 Se11 2.668814 1_545
Ni1 Se13 2.541616 1_556
Ni1 Se12 2.541617 1_446
Ni1 Se11 2.541624 1_546
Ni1 Se10 2.668807 1_445
Ni1 Se9 2.668808 1_555
Ni1 Se8 2.668814 1_455
