# generated using pymatgen
data_Lu5Sc5(Si5Ir2)4
_symmetry_space_group_name_H-M   'P 1'
_cell_length_a   12.48801631
_cell_length_b   12.48801631
_cell_length_c   4.16621900
_cell_angle_alpha   90.00000000
_cell_angle_beta   90.00000000
_cell_angle_gamma   90.00661827
_symmetry_Int_Tables_number   1
_chemical_formula_structural   Lu5Sc5(Si5Ir2)4
_chemical_formula_sum   'Lu5 Sc5 Si20 Ir8'
_cell_volume   649.72414556
_cell_formula_units_Z   1
loop_
 _symmetry_equiv_pos_site_id
 _symmetry_equiv_pos_as_xyz
  1  'x, y, z'
loop_
 _atom_site_type_symbol
 _atom_site_label
 _atom_site_symmetry_multiplicity
 _atom_site_fract_x
 _atom_site_fract_y
 _atom_site_fract_z
 _atom_site_occupancy
  Lu  Lu0  1  0.17399200  0.82600800  0.50000000  1
  Lu  Lu1  1  0.82544400  0.17455600  0.50000000  1
  Lu  Lu2  1  0.32524800  0.32473200  0.50000000  1
  Lu  Lu3  1  0.67526800  0.67475200  0.50000000  1
  Lu  Lu4  1  0.38433000  0.61567000  0.50000000  1
  Sc  Sc0  1  0.61618000  0.38382000  0.50000000  1
  Sc  Sc1  1  0.11634400  0.11640400  0.50000000  1
  Sc  Sc2  1  0.88359600  0.88365600  0.50000000  1
  Sc  Sc3  1  0.50000200  0.00007600  0.00000000  1
  Sc  Sc4  1  0.99992400  0.49999800  0.00000000  1
  Si  Si0  1  0.06515400  0.93484600  0.00000000  1
  Si  Si1  1  0.93468100  0.06531900  0.00000000  1
  Si  Si2  1  0.43501600  0.43368800  0.00000000  1
  Si  Si3  1  0.56631200  0.56498400  0.00000000  1
  Si  Si4  1  0.70195500  0.83596400  0.00000000  1
  Si  Si5  1  0.29835600  0.16407300  0.00000000  1
  Si  Si6  1  0.79847000  0.33570600  0.00000000  1
  Si  Si7  1  0.20060600  0.66477300  0.00000000  1
  Si  Si8  1  0.66429400  0.20153000  0.00000000  1
  Si  Si9  1  0.33522700  0.79939400  0.00000000  1
  Si  Si10  1  0.16403600  0.29804500  0.00000000  1
  Si  Si11  1  0.83592700  0.70164400  0.00000000  1
  Si  Si12  1  0.50347900  0.84889500  0.50000000  1
  Si  Si13  1  0.49716300  0.15175300  0.50000000  1
  Si  Si14  1  0.99720000  0.34794000  0.50000000  1
  Si  Si15  1  0.00277800  0.65204100  0.50000000  1
  Si  Si16  1  0.65206000  0.00280000  0.50000000  1
  Si  Si17  1  0.34795900  0.99722200  0.50000000  1
  Si  Si18  1  0.15110500  0.49652100  0.50000000  1
  Si  Si19  1  0.84824700  0.50283700  0.50000000  1
  Ir  Ir0  1  0.52007800  0.75513400  0.00000000  1
  Ir  Ir1  1  0.48015500  0.24489300  0.00000000  1
  Ir  Ir2  1  0.97991900  0.25445600  0.00000000  1
  Ir  Ir3  1  0.01971600  0.74565200  0.00000000  1
  Ir  Ir4  1  0.74554400  0.02008100  0.00000000  1
  Ir  Ir5  1  0.25434800  0.98028400  0.00000000  1
  Ir  Ir6  1  0.24486600  0.47992200  0.00000000  1
  Ir  Ir7  1  0.75510700  0.51984500  0.00000000  1
loop_
_geom_bond_atom_site_label_1
_geom_bond_atom_site_label_2
_geom_bond_distance
_geom_bond_site_symmetry_2
Lu0 Si0 2.834513 1_556
Lu0 Si0 2.834513 1_555
Lu0 Si9 2.916190 1_556
Lu0 Si9 2.916190 1_555
Lu0 Si7 2.916190 1_555
Lu0 Si7 2.916190 1_556
Lu0 Si15 3.047994 1_555
Lu0 Si17 3.047994 1_555
Lu1 Si1 2.839296 1_556
Lu1 Si1 2.839296 1_555
Lu1 Si8 2.915973 1_556
Lu1 Si8 2.915973 1_555
Lu1 Si6 2.915973 1_555
Lu1 Si6 2.915973 1_556
Lu1 Si16 3.047569 1_555
Lu1 Si14 3.047569 1_555
Lu2 Si2 2.840654 1_556
Lu2 Si2 2.840654 1_555
Lu2 Si5 2.911573 1_555
Lu2 Si5 2.911573 1_556
Lu2 Si10 2.916043 1_555
Lu2 Si10 2.916043 1_556
Lu2 Si13 3.045729 1_555
Lu2 Si18 3.054952 1_555
Lu3 Si3 2.840654 1_556
Lu3 Si3 2.840654 1_555
Lu3 Si11 2.911573 1_555
Lu3 Si11 2.911573 1_556
Lu3 Si4 2.916043 1_556
Lu3 Si4 2.916043 1_555
Lu3 Si19 3.045729 1_555
Lu3 Si12 3.054952 1_555
Lu4 Si3 3.147223 1_556
Lu4 Si2 3.147223 1_556
Lu4 Si2 3.147223 1_555
Lu4 Si3 3.147223 1_555
Lu4 Si7 3.159069 1_556
Lu4 Si7 3.159069 1_555
Lu4 Si9 3.159069 1_555
Lu4 Si9 3.159069 1_556
Lu4 Si12 3.270429 1_555
Lu4 Si18 3.270429 1_555
Sc0 Si2 3.137810 1_555
Sc0 Si2 3.137810 1_556
Sc0 Si3 3.137810 1_555
Sc0 Si3 3.137810 1_556
Sc0 Si8 3.143702 1_556
Sc0 Si8 3.143702 1_555
Sc0 Si6 3.143702 1_555
Sc0 Si6 3.143702 1_556
Sc0 Si13 3.256806 1_555
Sc0 Si19 3.256806 1_555
Sc1 Si10 3.136733 1_555
Sc1 Si10 3.136733 1_556
Sc1 Si5 3.140031 1_555
Sc1 Si5 3.140031 1_556
Sc1 Si0 3.144569 1_546
Sc1 Si0 3.144569 1_545
Sc1 Si1 3.145248 1_455
Sc1 Si1 3.145248 1_456
Sc1 Si14 3.251938 1_455
Sc1 Si17 3.253032 1_545
Sc2 Si4 3.136733 1_556
Sc2 Si4 3.136733 1_555
Sc2 Si11 3.140031 1_555
Sc2 Si11 3.140031 1_556
Sc2 Si0 3.144569 1_655
Sc2 Si0 3.144569 1_656
Sc2 Si1 3.145248 1_565
Sc2 Si1 3.145248 1_566
Sc2 Si16 3.251938 1_565
Sc2 Si15 3.253032 1_655
Sc3 Si12 2.811691 1_545
Sc3 Si12 2.811691 1_544
Sc3 Si13 2.815742 1_554
Sc3 Si13 2.815742 1_555
Sc3 Si17 2.818815 1_544
Sc3 Si17 2.818815 1_545
Sc3 Si16 2.818922 1_554
Sc3 Si16 2.818922 1_555
Sc3 Si9 3.242473 1_545
Sc3 Si5 3.246014 1_555
Sc3 Si8 3.246114 1_555
Sc3 Si4 3.249895 1_545
Sc4 Si18 2.811691 1_655
Sc4 Si18 2.811691 1_654
Sc4 Si19 2.815742 1_554
Sc4 Si19 2.815742 1_555
Sc4 Si15 2.818815 1_654
Sc4 Si15 2.818815 1_655
Sc4 Si14 2.818922 1_555
Sc4 Si14 2.818922 1_554
Sc4 Si7 3.242473 1_655
Sc4 Si11 3.246014 1_555
Sc4 Si6 3.246114 1_555
Sc4 Si10 3.249895 1_655
Si0 Si1 2.304380 1_465
Si2 Si3 2.318648 1_555
Si12 Si16 2.671320 1_565
Si12 Si17 2.683985 1_555
Si13 Si17 2.682347 1_545
Si13 Si16 2.683773 1_555
Si14 Si18 2.671320 1_655
Si14 Si19 2.683773 1_555
Si15 Si19 2.682347 1_455
Si15 Si18 2.683985 1_555
Ir0 Si9 2.373733 1_555
Ir0 Si12 2.398614 1_554
Ir0 Si12 2.398614 1_555
Ir0 Si3 2.443846 1_555
Ir0 Si4 2.485377 1_555
Ir0 Lu3 3.017173 1_555
Ir0 Lu3 3.017173 1_554
Ir0 Sc3 3.069126 1_565
Ir0 Lu4 3.200893 1_555
Ir0 Lu4 3.200893 1_554
Ir1 Si8 2.362493 1_555
Ir1 Si13 2.395286 1_555
Ir1 Si13 2.395286 1_554
Ir1 Si2 2.424189 1_555
Ir1 Si5 2.484436 1_555
Ir1 Lu2 3.012653 1_555
Ir1 Lu2 3.012653 1_554
Ir1 Sc3 3.067337 1_555
Ir1 Sc0 3.199085 1_554
Ir1 Sc0 3.199085 1_555
Ir2 Si10 2.362752 1_655
Ir2 Si14 2.397655 1_555
Ir2 Si14 2.397655 1_554
Ir2 Si1 2.428504 1_555
Ir2 Si6 2.482846 1_555
Ir2 Lu1 3.009296 1_555
Ir2 Lu1 3.009296 1_554
Ir2 Sc4 3.076464 1_555
Ir2 Sc1 3.196045 1_654
Ir2 Sc1 3.196045 1_655
Ir3 Si11 2.359978 1_455
Ir3 Si15 2.398047 1_555
Ir3 Si15 2.398047 1_554
Ir3 Si0 2.429778 1_555
Ir3 Si7 2.474581 1_555
Ir3 Lu0 3.009597 1_554
Ir3 Lu0 3.009597 1_555
Ir3 Sc4 3.077643 1_455
Ir3 Sc2 3.193692 1_454
Ir3 Sc2 3.193692 1_455
Ir4 Si4 2.362752 1_545
Ir4 Si16 2.397655 1_555
Ir4 Si16 2.397655 1_554
Ir4 Si1 2.428504 1_555
Ir4 Si8 2.482846 1_555
Ir4 Lu1 3.009296 1_555
Ir4 Lu1 3.009296 1_554
Ir4 Sc3 3.076464 1_555
Ir4 Sc2 3.196045 1_544
Ir4 Sc2 3.196045 1_545
Ir5 Si5 2.359978 1_565
Ir5 Si17 2.398047 1_554
Ir5 Si17 2.398047 1_555
Ir5 Si0 2.429778 1_555
Ir5 Si9 2.474581 1_555
Ir5 Lu0 3.009597 1_554
Ir5 Lu0 3.009597 1_555
Ir5 Sc3 3.077643 1_565
Ir5 Sc1 3.193692 1_565
Ir5 Sc1 3.193692 1_564
Ir6 Si7 2.373733 1_555
Ir6 Si18 2.398614 1_555
Ir6 Si18 2.398614 1_554
Ir6 Si2 2.443846 1_555
Ir6 Si10 2.485377 1_555
Ir6 Lu2 3.017173 1_555
Ir6 Lu2 3.017173 1_554
Ir6 Sc4 3.069126 1_455
Ir6 Lu4 3.200893 1_555
Ir6 Lu4 3.200893 1_554
Ir7 Si6 2.362493 1_555
Ir7 Si19 2.395286 1_555
Ir7 Si19 2.395286 1_554
Ir7 Si3 2.424189 1_555
Ir7 Si11 2.484436 1_555
Ir7 Lu3 3.012653 1_555
Ir7 Lu3 3.012653 1_554
Ir7 Sc4 3.067337 1_555
Ir7 Sc0 3.199085 1_555
Ir7 Sc0 3.199085 1_554
