# generated using pymatgen
data_Be13Tc
_symmetry_space_group_name_H-M   'P 1'
_cell_length_a   9.56053199
_cell_length_b   9.56053199
_cell_length_c   9.56053199
_cell_angle_alpha   60.00000000
_cell_angle_beta   60.00000000
_cell_angle_gamma   60.00000000
_symmetry_Int_Tables_number   1
_chemical_formula_structural   Be13Tc
_chemical_formula_sum   'Be52 Tc4'
_cell_volume   617.91847291
_cell_formula_units_Z   4
loop_
 _symmetry_equiv_pos_site_id
 _symmetry_equiv_pos_as_xyz
  1  'x, y, z'
loop_
 _atom_site_type_symbol
 _atom_site_label
 _atom_site_symmetry_multiplicity
 _atom_site_fract_x
 _atom_site_fract_y
 _atom_site_fract_z
 _atom_site_occupancy
  Be  Be0  1  0.49632500  0.49632500  0.26390700  1
  Be  Be1  1  0.74344300  0.26390700  0.49632500  1
  Be  Be2  1  0.26390700  0.74344300  0.49632500  1
  Be  Be3  1  0.49632500  0.26390700  0.49632500  1
  Be  Be4  1  0.00655700  0.25367500  0.48609300  1
  Be  Be5  1  0.25367500  0.25367500  0.48609300  1
  Be  Be6  1  0.49632500  0.49632500  0.74344300  1
  Be  Be7  1  0.26390700  0.49632500  0.74344300  1
  Be  Be8  1  0.25367500  0.48609300  0.25367500  1
  Be  Be9  1  0.00655700  0.48609300  0.25367500  1
  Be  Be10  1  0.74344300  0.49632500  0.26390700  1
  Be  Be11  1  0.25367500  0.00655700  0.25367500  1
  Be  Be12  1  0.48609300  0.00655700  0.25367500  1
  Be  Be13  1  0.49632500  0.74344300  0.49632500  1
  Be  Be14  1  0.48609300  0.25367500  0.00655700  1
  Be  Be15  1  0.25367500  0.25367500  0.00655700  1
  Be  Be16  1  0.26390700  0.49632500  0.49632500  1
  Be  Be17  1  0.49632500  0.26390700  0.74344300  1
  Be  Be18  1  0.74344300  0.49632500  0.49632500  1
  Be  Be19  1  0.49632500  0.74344300  0.26390700  1
  Be  Be20  1  0.25367500  0.48609300  0.00655700  1
  Be  Be21  1  0.48609300  0.25367500  0.25367500  1
  Be  Be22  1  0.25367500  0.00655700  0.48609300  1
  Be  Be23  1  0.00655700  0.25367500  0.25367500  1
  Be  Be24  1  0.50000000  0.50000000  0.50000000  1
  Be  Be25  1  0.25000000  0.25000000  0.25000000  1
  Be  Be26  1  0.00000000  0.00000000  0.00000000  1
  Be  Be27  1  0.75000000  0.75000000  0.75000000  1
  Be  Be28  1  0.14225600  0.75184800  0.75184800  1
  Be  Be29  1  0.35404800  0.75184800  0.75184800  1
  Be  Be30  1  0.75184800  0.35404800  0.14225600  1
  Be  Be31  1  0.75184800  0.75184800  0.14225600  1
  Be  Be32  1  0.39595200  0.99815200  0.99815200  1
  Be  Be33  1  0.60774400  0.99815200  0.99815200  1
  Be  Be34  1  0.75184800  0.14225600  0.35404800  1
  Be  Be35  1  0.75184800  0.75184800  0.35404800  1
  Be  Be36  1  0.35404800  0.14225600  0.75184800  1
  Be  Be37  1  0.99815200  0.39595200  0.60774400  1
  Be  Be38  1  0.14225600  0.35404800  0.75184800  1
  Be  Be39  1  0.99815200  0.60774400  0.39595200  1
  Be  Be40  1  0.75184800  0.14225600  0.75184800  1
  Be  Be41  1  0.39595200  0.99815200  0.60774400  1
  Be  Be42  1  0.99815200  0.99815200  0.60774400  1
  Be  Be43  1  0.14225600  0.75184800  0.35404800  1
  Be  Be44  1  0.99815200  0.60774400  0.99815200  1
  Be  Be45  1  0.39595200  0.60774400  0.99815200  1
  Be  Be46  1  0.35404800  0.75184800  0.14225600  1
  Be  Be47  1  0.99815200  0.39595200  0.99815200  1
  Be  Be48  1  0.60774400  0.39595200  0.99815200  1
  Be  Be49  1  0.75184800  0.35404800  0.75184800  1
  Be  Be50  1  0.60774400  0.99815200  0.39595200  1
  Be  Be51  1  0.99815200  0.99815200  0.39595200  1
  Tc  Tc0  1  0.87500000  0.87500000  0.87500000  1
  Tc  Tc1  1  0.37500000  0.87500000  0.87500000  1
  Tc  Tc2  1  0.87500000  0.37500000  0.87500000  1
  Tc  Tc3  1  0.87500000  0.87500000  0.37500000  1
loop_
_geom_bond_atom_site_label_1
_geom_bond_atom_site_label_2
_geom_bond_distance
_geom_bond_site_symmetry_2
Be0 Be46 2.142118 1_555
Be0 Be30 2.142118 1_555
Be0 Be16 2.222040 1_555
Be0 Be3 2.222040 1_555
Be0 Be24 2.292848 1_555
Be0 Be10 2.362580 1_555
Be0 Be19 2.362580 1_555
Be0 Be8 2.421641 1_555
Be0 Be21 2.421641 1_555
Be1 Be34 2.142118 1_555
Be1 Be40 2.142118 1_555
Be1 Be18 2.222040 1_555
Be1 Be10 2.222040 1_555
Be1 Be24 2.292848 1_555
Be1 Be17 2.362580 1_555
Be1 Be3 2.362580 1_555
Be1 Be23 2.421641 1_655
Be1 Be4 2.421641 1_655
Be2 Be43 2.142118 1_555
Be2 Be28 2.142118 1_555
Be2 Be24 2.292848 1_555
Be2 Be7 2.362580 1_555
Be2 Be22 2.421641 1_565
Be3 Be36 2.142118 1_555
Be3 Be34 2.142118 1_555
Be3 Be5 2.421641 1_555
Be4 Be42 2.142118 1_445
Be4 Be9 2.222040 1_555
Be4 Be5 2.362580 1_555
Be5 Be8 2.222040 1_555
Be6 Be7 2.222040 1_555
Be8 Be9 2.362580 1_555
Be10 Be30 2.142118 1_555
Be10 Be31 2.142118 1_555
Be10 Be18 2.222040 1_555
Be10 Be24 2.292848 1_555
Be10 Be19 2.362580 1_555
Be10 Be23 2.421641 1_655
Be10 Be9 2.421641 1_655
Be11 Be51 2.142118 1_445
Be11 Be32 2.142118 1_544
Be11 Be12 2.222040 1_555
Be11 Be22 2.222040 1_555
Be11 Be25 2.292848 1_555
Be11 Be23 2.362580 1_555
Be11 Be15 2.362580 1_555
Be11 Be2 2.421641 1_545
Be11 Be19 2.421641 1_545
Be12 Be50 2.142118 1_545
Be12 Be33 2.142118 1_544
Be12 Be22 2.222040 1_555
Be12 Be25 2.292848 1_555
Be12 Be21 2.362580 1_555
Be12 Be14 2.362580 1_555
Be12 Be13 2.421641 1_545
Be12 Be19 2.421641 1_545
Be13 Be35 2.142118 1_555
Be13 Be29 2.142118 1_555
Be13 Be19 2.222040 1_555
Be13 Be2 2.222040 1_555
Be13 Be24 2.292848 1_555
Be13 Be18 2.362580 1_555
Be13 Be6 2.362580 1_555
Be13 Be22 2.421641 1_565
Be14 Be48 2.142118 1_554
Be14 Be33 2.142118 1_544
Be14 Be20 2.222040 1_555
Be14 Be15 2.222040 1_555
Be14 Be25 2.292848 1_555
Be14 Be21 2.362580 1_555
Be14 Be6 2.421641 1_554
Be14 Be17 2.421641 1_554
Be15 Be47 2.142118 1_454
Be15 Be32 2.142118 1_544
Be15 Be20 2.222040 1_555
Be15 Be25 2.292848 1_555
Be15 Be23 2.362580 1_555
Be15 Be17 2.421641 1_554
Be15 Be7 2.421641 1_554
Be16 Be43 2.142118 1_555
Be16 Be38 2.142118 1_555
Be16 Be3 2.222040 1_555
Be16 Be24 2.292848 1_555
Be16 Be2 2.362580 1_555
Be16 Be7 2.362580 1_555
Be16 Be5 2.421641 1_555
Be16 Be8 2.421641 1_555
Be17 Be36 2.142118 1_555
Be17 Be40 2.142118 1_555
Be17 Be6 2.222040 1_555
Be17 Be7 2.222040 1_555
Be17 Be24 2.292848 1_555
Be17 Be3 2.362580 1_555
Be18 Be49 2.142118 1_555
Be18 Be35 2.142118 1_555
Be18 Be24 2.292848 1_555
Be18 Be6 2.362580 1_555
Be18 Be9 2.421641 1_655
Be18 Be4 2.421641 1_655
Be19 Be46 2.142118 1_555
Be19 Be31 2.142118 1_555
Be19 Be2 2.222040 1_555
Be19 Be24 2.292848 1_555
Be20 Be45 2.142118 1_554
Be20 Be44 2.142118 1_454
Be20 Be25 2.292848 1_555
Be20 Be9 2.362580 1_555
Be20 Be8 2.362580 1_555
Be20 Be6 2.421641 1_554
Be20 Be7 2.421641 1_554
Be21 Be48 2.142118 1_554
Be21 Be50 2.142118 1_545
Be21 Be8 2.222040 1_555
Be21 Be5 2.222040 1_555
Be21 Be25 2.292848 1_555
Be21 Be3 2.421641 1_555
Be22 Be41 2.142118 1_545
Be22 Be42 2.142118 1_445
Be22 Be25 2.292848 1_555
Be22 Be4 2.362580 1_555
Be22 Be5 2.362580 1_555
Be23 Be51 2.142118 1_445
Be23 Be47 2.142118 1_454
Be23 Be4 2.222040 1_555
Be23 Be9 2.222040 1_555
Be23 Be25 2.292848 1_555
Be24 Be6 2.292848 1_555
Be24 Be7 2.292848 1_555
Be24 Be3 2.292848 1_555
Be25 Be8 2.292848 1_555
Be25 Be5 2.292848 1_555
Be25 Be4 2.292848 1_555
Be25 Be9 2.292848 1_555
Be26 Tc2 2.927303 1_454
Be26 Tc1 2.927303 1_544
Be26 Tc3 2.927303 1_445
Be26 Tc0 2.927303 1_444
Be27 Tc1 2.927303 1_555
Be27 Tc2 2.927303 1_555
Be27 Tc0 2.927303 1_555
Be27 Tc3 2.927303 1_555
Be28 Be29 2.024844 1_555
Be28 Be7 2.142118 1_555
Be28 Tc0 2.161162 1_455
Be28 Be42 2.179650 1_455
Be28 Be44 2.179650 1_455
Be29 Be6 2.142118 1_555
Be29 Tc1 2.161162 1_555
Be29 Be45 2.179650 1_555
Be29 Be41 2.179650 1_555
Be30 Be34 2.024844 1_555
Be30 Tc2 2.161162 1_554
Be30 Be47 2.179650 1_554
Be30 Be48 2.179650 1_554
Be31 Be35 2.024844 1_555
Be31 Tc0 2.161162 1_554
Be31 Be33 2.179650 1_554
Be31 Be44 2.179650 1_554
Be32 Be33 2.024844 1_555
Be32 Tc1 2.161162 1_555
Be32 Be46 2.179650 1_556
Be32 Be36 2.179650 1_565
Be33 Tc0 2.161162 1_555
Be33 Be40 2.179650 1_565
Be34 Tc3 2.161162 1_545
Be34 Be51 2.179650 1_545
Be34 Be50 2.179650 1_545
Be35 Tc3 2.161162 1_555
Be35 Be39 2.179650 1_555
Be35 Be50 2.179650 1_555
Be36 Be38 2.024844 1_555
Be36 Tc1 2.161162 1_545
Be36 Be41 2.179650 1_545
Be37 Be39 2.024844 1_555
Be37 Be4 2.142118 1_655
Be37 Be5 2.142118 1_655
Be37 Tc2 2.161162 1_555
Be37 Be49 2.179650 1_555
Be37 Be38 2.179650 1_655
Be38 Be7 2.142118 1_555
Be38 Tc2 2.161162 1_455
Be38 Be47 2.179650 1_455
Be39 Be9 2.142118 1_655
Be39 Be8 2.142118 1_655
Be39 Tc3 2.161162 1_555
Be39 Be43 2.179650 1_655
Be40 Be49 2.024844 1_555
Be40 Tc0 2.161162 1_545
Be40 Be42 2.179650 1_545
Be41 Be50 2.024844 1_555
Be41 Be5 2.142118 1_565
Be41 Tc1 2.161162 1_555
Be42 Be51 2.024844 1_555
Be42 Tc0 2.161162 1_555
Be43 Be46 2.024844 1_555
Be43 Tc3 2.161162 1_455
Be43 Be51 2.179650 1_455
Be44 Be47 2.024844 1_555
Be44 Be9 2.142118 1_656
Be44 Tc0 2.161162 1_555
Be45 Be48 2.024844 1_555
Be45 Be8 2.142118 1_556
Be45 Tc1 2.161162 1_555
Be45 Be46 2.179650 1_556
Be46 Tc1 2.161162 1_554
Be47 Tc2 2.161162 1_555
Be48 Tc2 2.161162 1_555
Be48 Be49 2.179650 1_555
Be49 Be6 2.142118 1_555
Be49 Tc2 2.161162 1_555
Be50 Tc3 2.161162 1_555
Be51 Tc3 2.161162 1_555
