# generated using pymatgen
data_GdHoAl6
_symmetry_space_group_name_H-M   'P 1'
_cell_length_a   6.26561641
_cell_length_b   6.26561641
_cell_length_c   4.59009286
_cell_angle_alpha   90.00000000
_cell_angle_beta   90.00000000
_cell_angle_gamma   120.00001105
_symmetry_Int_Tables_number   1
_chemical_formula_structural   GdHoAl6
_chemical_formula_sum   'Gd1 Ho1 Al6'
_cell_volume   156.05570892
_cell_formula_units_Z   1
loop_
 _symmetry_equiv_pos_site_id
 _symmetry_equiv_pos_as_xyz
  1  'x, y, z'
loop_
 _atom_site_type_symbol
 _atom_site_label
 _atom_site_symmetry_multiplicity
 _atom_site_fract_x
 _atom_site_fract_y
 _atom_site_fract_z
 _atom_site_occupancy
  Gd  Gd0  1  0.33333300  0.66666700  0.50000000  1
  Ho  Ho0  1  0.00000000  0.00000000  0.00000000  1
  Al  Al0  1  0.37468676  0.18734288  0.50000000  1
  Al  Al1  1  0.81265712  0.18734288  0.50000000  1
  Al  Al2  1  0.81265712  0.62531324  0.50000000  1
  Al  Al3  1  0.95700513  0.47850307  -0.00000000  1
  Al  Al4  1  0.52149693  0.47850307  0.00000000  1
  Al  Al5  1  0.52149693  0.04299487  -0.00000000  1
loop_
_geom_bond_atom_site_label_1
_geom_bond_atom_site_label_2
_geom_bond_distance
_geom_bond_site_symmetry_2
Al0 Al2 2.744154 1_555
Al0 Al1 2.744154 1_555
Al0 Al5 2.786272 1_556
Al0 Al5 2.786272 1_555
Al0 Al4 2.786278 1_556
Al0 Al4 2.786278 1_555
Al0 Ho0 3.066074 1_555
Al0 Ho0 3.066074 1_556
Al0 Gd0 3.140828 1_545
Al0 Gd0 3.140840 1_555
Al1 Al2 2.744154 1_555
Al1 Al5 2.786278 1_555
Al1 Al3 2.786278 1_556
Al1 Al3 2.786278 1_555
Al1 Al5 2.786278 1_556
Al1 Ho0 3.066071 1_655
Al1 Ho0 3.066071 1_656
Al1 Gd0 3.140833 1_545
Al1 Gd0 3.140833 1_655
Al2 Al3 2.786272 1_556
Al2 Al3 2.786272 1_555
Al2 Al4 2.786278 1_556
Al2 Al4 2.786278 1_555
Al2 Ho0 3.066074 1_665
Al2 Ho0 3.066074 1_666
Al2 Gd0 3.140828 1_655
Al2 Gd0 3.140840 1_555
Al3 Al5 2.728727 1_555
Al3 Al4 2.728727 1_555
Al3 Gd0 3.071986 1_654
Al3 Gd0 3.071986 1_655
Al3 Ho0 3.141480 1_665
Al3 Ho0 3.141486 1_655
Al4 Al5 2.728727 1_555
Al4 Gd0 3.071986 1_554
Al4 Gd0 3.071986 1_555
Al4 Ho0 3.141482 1_555
Al4 Ho0 3.141482 1_665
Al5 Gd0 3.071986 1_544
Al5 Gd0 3.071986 1_545
Al5 Ho0 3.141480 1_555
Al5 Ho0 3.141486 1_655
