# generated using pymatgen
data_ZnBiMoO5
_symmetry_space_group_name_H-M   'P 1'
_cell_length_a   5.31068500
_cell_length_b   10.48286600
_cell_length_c   16.05838200
_cell_angle_alpha   90.00000000
_cell_angle_beta   90.00000000
_cell_angle_gamma   90.00000000
_symmetry_Int_Tables_number   1
_chemical_formula_structural   ZnBiMoO5
_chemical_formula_sum   'Zn8 Bi8 Mo8 O40'
_cell_volume   893.98938352
_cell_formula_units_Z   8
loop_
 _symmetry_equiv_pos_site_id
 _symmetry_equiv_pos_as_xyz
  1  'x, y, z'
loop_
 _atom_site_type_symbol
 _atom_site_label
 _atom_site_symmetry_multiplicity
 _atom_site_fract_x
 _atom_site_fract_y
 _atom_site_fract_z
 _atom_site_occupancy
  Zn  Zn0  1  0.53929500  0.37614200  0.56237000  1
  Zn  Zn1  1  0.03929500  0.12385800  0.56237000  1
  Zn  Zn2  1  0.03929500  0.62385800  0.93763000  1
  Zn  Zn3  1  0.96070500  0.37614200  0.06237000  1
  Zn  Zn4  1  0.46070500  0.12385800  0.06237000  1
  Zn  Zn5  1  0.96070500  0.87614200  0.43763000  1
  Zn  Zn6  1  0.46070500  0.62385800  0.43763000  1
  Zn  Zn7  1  0.53929500  0.87614200  0.93763000  1
  Bi  Bi0  1  0.99892900  0.85871800  0.77637100  1
  Bi  Bi1  1  0.00107100  0.14128200  0.22362900  1
  Bi  Bi2  1  0.50107100  0.35871800  0.22362900  1
  Bi  Bi3  1  0.00107100  0.64128200  0.27637100  1
  Bi  Bi4  1  0.49892900  0.14128200  0.72362900  1
  Bi  Bi5  1  0.49892900  0.64128200  0.77637100  1
  Bi  Bi6  1  0.50107100  0.85871800  0.27637100  1
  Bi  Bi7  1  0.99892900  0.35871800  0.72362900  1
  Mo  Mo0  1  0.98266700  0.37584800  0.41598800  1
  Mo  Mo1  1  0.51733300  0.87584800  0.58401200  1
  Mo  Mo2  1  0.01733300  0.62415200  0.58401200  1
  Mo  Mo3  1  0.48266700  0.12415200  0.41598800  1
  Mo  Mo4  1  0.01733300  0.12415200  0.91598800  1
  Mo  Mo5  1  0.98266700  0.87584800  0.08401200  1
  Mo  Mo6  1  0.51733300  0.37584800  0.91598800  1
  Mo  Mo7  1  0.48266700  0.62415200  0.08401200  1
  O  O0  1  0.88629600  0.32698500  0.30544500  1
  O  O1  1  0.27847400  0.02648900  0.95698300  1
  O  O2  1  0.22152600  0.52648900  0.04301700  1
  O  O3  1  0.32314700  0.78703200  0.85172600  1
  O  O4  1  0.17685300  0.28703200  0.14827400  1
  O  O5  1  0.88629600  0.82698500  0.19455500  1
  O  O6  1  0.17685300  0.78703200  0.35172600  1
  O  O7  1  0.61370400  0.82698500  0.69455500  1
  O  O8  1  0.27847400  0.52648900  0.54301700  1
  O  O9  1  0.11370400  0.67301500  0.69455500  1
  O  O10  1  0.61370400  0.32698500  0.80544500  1
  O  O11  1  0.72639600  0.22472700  0.46904400  1
  O  O12  1  0.77847400  0.97351100  0.54301700  1
  O  O13  1  0.67685300  0.71296800  0.35172600  1
  O  O14  1  0.19559200  0.01499100  0.12683000  1
  O  O15  1  0.77847400  0.47351100  0.95698300  1
  O  O16  1  0.11370400  0.17301500  0.80544500  1
  O  O17  1  0.82314700  0.21296800  0.64827400  1
  O  O18  1  0.22639600  0.77527300  0.03095600  1
  O  O19  1  0.22152600  0.02648900  0.45698300  1
  O  O20  1  0.27360400  0.77527300  0.53095600  1
  O  O21  1  0.80440800  0.98500900  0.87317000  1
  O  O22  1  0.67685300  0.21296800  0.14827400  1
  O  O23  1  0.69559200  0.98500900  0.37317000  1
  O  O24  1  0.27360400  0.27527300  0.96904400  1
  O  O25  1  0.22639600  0.27527300  0.46904400  1
  O  O26  1  0.72152600  0.47351100  0.45698300  1
  O  O27  1  0.72152600  0.97351100  0.04301700  1
  O  O28  1  0.69559200  0.48500900  0.12683000  1
  O  O29  1  0.77360400  0.72472700  0.53095600  1
  O  O30  1  0.77360400  0.22472700  0.96904400  1
  O  O31  1  0.72639600  0.72472700  0.03095600  1
  O  O32  1  0.80440800  0.48500900  0.62683000  1
  O  O33  1  0.82314700  0.71296800  0.85172600  1
  O  O34  1  0.32314700  0.28703200  0.64827400  1
  O  O35  1  0.19559200  0.51499100  0.37317000  1
  O  O36  1  0.30440800  0.51499100  0.87317000  1
  O  O37  1  0.38629600  0.17301500  0.30544500  1
  O  O38  1  0.30440800  0.01499100  0.62683000  1
  O  O39  1  0.38629600  0.67301500  0.19455500  1
loop_
_geom_bond_atom_site_label_1
_geom_bond_atom_site_label_2
_geom_bond_distance
_geom_bond_site_symmetry_2
Bi0 O33 2.161057 1_555
Bi0 O3 2.234652 1_655
Bi0 O21 2.288259 1_555
Bi0 O9 2.426381 1_655
Bi0 O7 2.454006 1_555
Bi1 O4 2.161057 1_555
Bi1 O22 2.234652 1_455
Bi1 O14 2.288259 1_555
Bi1 O0 2.426381 1_455
Bi1 O37 2.454006 1_555
Bi2 O22 2.161057 1_555
Bi2 O4 2.234652 1_555
Bi2 O28 2.288259 1_555
Bi2 O37 2.426381 1_555
Bi2 O0 2.454006 1_555
Bi3 O6 2.161057 1_555
Bi3 O13 2.234652 1_455
Bi3 O35 2.288259 1_555
Bi3 O5 2.426381 1_455
Bi3 O39 2.454006 1_555
Bi4 O34 2.161057 1_555
Bi4 O17 2.234652 1_555
Bi4 O38 2.288259 1_555
Bi4 O10 2.426381 1_555
Bi4 O16 2.454006 1_555
Bi5 O3 2.161057 1_555
Bi5 O33 2.234652 1_555
Bi5 O36 2.288259 1_555
Bi5 O7 2.426381 1_555
Bi5 O9 2.454006 1_555
Bi6 O13 2.161057 1_555
Bi6 O6 2.234652 1_555
Bi6 O23 2.288259 1_555
Bi6 O39 2.426381 1_555
Bi6 O5 2.454006 1_555
Bi7 O17 2.161057 1_555
Bi7 O34 2.234652 1_655
Bi7 O32 2.288259 1_555
Bi7 O16 2.426381 1_655
Bi7 O10 2.454006 1_555
Mo0 O26 1.845220 1_555
Mo0 O25 1.874262 1_655
Mo0 O0 1.917143 1_555
Mo0 O35 1.969518 1_655
Mo0 O11 2.255610 1_555
Mo1 O12 1.845220 1_555
Mo1 O20 1.874262 1_555
Mo1 O7 1.917143 1_555
Mo1 O38 1.969518 1_565
Mo1 O29 2.255610 1_555
Mo2 O8 1.845220 1_555
Mo2 O29 1.874262 1_455
Mo2 O9 1.917143 1_555
Mo2 O32 1.969518 1_455
Mo2 O20 2.255610 1_555
Mo3 O19 1.845220 1_555
Mo3 O11 1.874262 1_555
Mo3 O37 1.917143 1_555
Mo3 O23 1.969518 1_545
Mo3 O25 2.255610 1_555
Mo4 O1 1.845220 1_555
Mo4 O30 1.874262 1_455
Mo4 O16 1.917143 1_555
Mo4 O21 1.969518 1_445
Mo4 O24 2.255610 1_555
Mo5 O27 1.845220 1_555
Mo5 O18 1.874262 1_655
Mo5 O5 1.917143 1_555
Mo5 O14 1.969518 1_665
Mo5 O31 2.255610 1_555
Mo6 O15 1.845220 1_555
Mo6 O24 1.874262 1_555
Mo6 O10 1.917143 1_555
Mo6 O36 1.969518 1_555
Mo6 O30 2.255610 1_555
Mo7 O2 1.845220 1_555
Mo7 O31 1.874262 1_555
Mo7 O39 1.917143 1_555
Mo7 O28 1.969518 1_555
Mo7 O18 2.255610 1_555
O1 Zn7 2.121127 1_545
O1 Zn4 2.200557 1_556
O2 Zn3 2.121127 1_455
O2 Zn2 2.200557 1_554
O3 Zn7 2.023171 1_555
O4 Zn3 2.023171 1_455
O6 Zn5 2.023171 1_455
O8 Zn0 2.121127 1_555
O8 Zn6 2.200557 1_555
O11 Zn0 2.398481 1_555
O11 Zn1 2.474946 1_655
O12 Zn1 2.121127 1_665
O12 Zn5 2.200557 1_555
O13 Zn6 2.023171 1_555
O14 Zn4 2.087145 1_555
O15 Zn2 2.121127 1_655
O15 Zn3 2.200557 1_556
O17 Zn1 2.023171 1_655
O18 Zn2 2.398481 1_554
O18 Zn7 2.474946 1_554
O19 Zn5 2.121127 1_445
O19 Zn1 2.200557 1_555
O20 Zn6 2.398481 1_555
O20 Zn5 2.474946 1_455
O21 Zn7 2.087145 1_555
O22 Zn4 2.023171 1_555
O23 Zn5 2.087145 1_555
O24 Zn4 2.398481 1_556
O24 Zn3 2.474946 1_456
O25 Zn1 2.398481 1_555
O25 Zn0 2.474946 1_555
O26 Zn6 2.121127 1_555
O26 Zn0 2.200557 1_555
O27 Zn4 2.121127 1_565
O27 Zn7 2.200557 1_554
O28 Zn3 2.087145 1_555
O29 Zn5 2.398481 1_555
O29 Zn6 2.474946 1_555
O30 Zn3 2.398481 1_556
O30 Zn4 2.474946 1_556
O31 Zn7 2.398481 1_554
O31 Zn2 2.474946 1_654
O32 Zn0 2.087145 1_555
O33 Zn2 2.023171 1_655
O34 Zn0 2.023171 1_555
O35 Zn6 2.087145 1_555
O36 Zn2 2.087145 1_555
O38 Zn1 2.087145 1_555
