# generated using pymatgen
data_MgVO2
_symmetry_space_group_name_H-M   'P 1'
_cell_length_a   7.91908129
_cell_length_b   7.91908129
_cell_length_c   10.37945727
_cell_angle_alpha   49.79591537
_cell_angle_beta   49.79591537
_cell_angle_gamma   21.69259503
_symmetry_Int_Tables_number   1
_chemical_formula_structural   MgVO2
_chemical_formula_sum   'Mg4 V4 O8'
_cell_volume   181.32950206
_cell_formula_units_Z   4
loop_
 _symmetry_equiv_pos_site_id
 _symmetry_equiv_pos_as_xyz
  1  'x, y, z'
loop_
 _atom_site_type_symbol
 _atom_site_label
 _atom_site_symmetry_multiplicity
 _atom_site_fract_x
 _atom_site_fract_y
 _atom_site_fract_z
 _atom_site_occupancy
  Mg  Mg0  1  0.67778500  0.67778500  0.29640700  1
  Mg  Mg1  1  0.32221500  0.32221500  0.70359300  1
  Mg  Mg2  1  0.98118100  0.98118100  0.37493000  1
  Mg  Mg3  1  0.01881900  0.01881900  0.62507000  1
  V  V0  1  0.36045400  0.36045400  0.96506000  1
  V  V1  1  0.83978000  0.83978000  0.31879900  1
  V  V2  1  0.16022000  0.16022000  0.68120100  1
  V  V3  1  0.63954600  0.63954600  0.03494000  1
  O  O0  1  0.15324400  0.15324400  0.89336900  1
  O  O1  1  0.53823100  0.53823100  0.74536600  1
  O  O2  1  0.46176900  0.46176900  0.25463400  1
  O  O3  1  0.84675600  0.84675600  0.10663100  1
  O  O4  1  0.84054100  0.84054200  0.83412900  1
  O  O5  1  0.20366800  0.20366800  0.42353500  1
  O  O6  1  0.15945900  0.15945900  0.16587100  1
  O  O7  1  0.79633200  0.79633200  0.57646500  1
loop_
_geom_bond_atom_site_label_1
_geom_bond_atom_site_label_2
_geom_bond_distance
_geom_bond_site_symmetry_2
Mg0 O3 1.995689 1_555
Mg0 O6 2.155300 1_655
Mg0 O6 2.155300 1_565
Mg0 O5 2.195949 1_655
Mg0 O5 2.195949 1_565
Mg1 O0 1.995689 1_555
Mg1 O4 2.155303 1_545
Mg1 O4 2.155305 1_455
Mg1 O7 2.195949 1_455
Mg1 O7 2.195949 1_545
Mg2 O2 2.089598 1_655
Mg2 O2 2.089598 1_565
Mg2 O6 2.118693 1_665
Mg2 O7 2.176469 1_555
Mg3 O1 2.089598 1_455
Mg3 O1 2.089598 1_545
Mg3 O4 2.118688 1_445
Mg3 O5 2.176469 1_555
O0 V3 2.003415 1_456
O0 V3 2.003415 1_546
O0 V2 2.132437 1_555
O1 V0 2.134925 1_555
O1 V2 2.145620 1_565
O1 V2 2.145620 1_655
O2 V3 2.134925 1_555
O2 V1 2.145620 1_545
O2 V1 2.145620 1_455
O3 V0 2.003415 1_564
O3 V0 2.003415 1_654
O3 V1 2.132437 1_555
O4 V0 2.171806 1_565
O4 V0 2.171808 1_655
O4 V3 2.356553 1_556
O5 V1 2.204451 1_455
O5 V1 2.204451 1_545
O5 V2 2.287660 1_555
O6 V3 2.171811 1_545
O6 V3 2.171811 1_455
O6 V0 2.356547 1_554
O7 V2 2.204451 1_565
O7 V2 2.204451 1_655
O7 V1 2.287660 1_555
