# generated using pymatgen
data_CaSO4
_symmetry_space_group_name_H-M   'P 1'
_cell_length_a   6.98728800
_cell_length_b   6.43128300
_cell_length_c   8.18862632
_cell_angle_alpha   53.79267380
_cell_angle_beta   90.00000000
_cell_angle_gamma   90.00000000
_symmetry_Int_Tables_number   1
_chemical_formula_structural   CaSO4
_chemical_formula_sum   'Ca4 S4 O16'
_cell_volume   296.91274824
_cell_formula_units_Z   4
loop_
 _symmetry_equiv_pos_site_id
 _symmetry_equiv_pos_as_xyz
  1  'x, y, z'
loop_
 _atom_site_type_symbol
 _atom_site_label
 _atom_site_symmetry_multiplicity
 _atom_site_fract_x
 _atom_site_fract_y
 _atom_site_fract_z
 _atom_site_occupancy
  Ca  Ca0  1  0.65431300  0.19009600  0.21638200  1
  Ca  Ca1  1  0.15431300  0.80990400  0.28361800  1
  Ca  Ca2  1  0.34568700  0.80990400  0.78361800  1
  Ca  Ca3  1  0.84568700  0.19009600  0.71638200  1
  S  S0  1  0.66080500  0.69135300  0.19678900  1
  S  S1  1  0.16080500  0.30864700  0.30321100  1
  S  S2  1  0.33919500  0.30864700  0.80321100  1
  S  S3  1  0.83919500  0.69135300  0.69678900  1
  O  O0  1  0.70810600  0.42582500  0.37351400  1
  O  O1  1  0.20810600  0.57417500  0.12648600  1
  O  O2  1  0.29189400  0.57417500  0.62648600  1
  O  O3  1  0.79189400  0.42582500  0.87351400  1
  O  O4  1  0.59870400  0.66585200  0.03535500  1
  O  O5  1  0.09870400  0.33414800  0.46464500  1
  O  O6  1  0.40129600  0.33414800  0.96464500  1
  O  O7  1  0.90129600  0.66585200  0.53535500  1
  O  O8  1  0.98970800  0.80860000  0.74758100  1
  O  O9  1  0.48970800  0.19140000  0.75241900  1
  O  O10  1  0.01029200  0.19140000  0.25241900  1
  O  O11  1  0.51029200  0.80860000  0.24758100  1
  O  O12  1  0.66954800  0.86902900  0.62059600  1
  O  O13  1  0.16954800  0.13097100  0.87940400  1
  O  O14  1  0.33045200  0.13097100  0.37940400  1
  O  O15  1  0.83045200  0.86902900  0.12059600  1
loop_
_geom_bond_atom_site_label_1
_geom_bond_atom_site_label_2
_geom_bond_distance
_geom_bond_site_symmetry_2
Ca0 O6 2.444760 1_554
Ca0 O3 2.465070 1_554
Ca0 O10 2.505369 1_655
Ca0 O4 2.520280 1_555
Ca0 O11 2.521332 1_545
Ca0 O0 2.529784 1_555
Ca0 O14 2.539229 1_555
Ca0 O12 2.675123 1_545
Ca0 O15 2.882193 1_545
Ca1 O7 2.444760 1_455
Ca1 O2 2.465070 1_555
Ca1 O11 2.505369 1_555
Ca1 O5 2.520280 1_555
Ca1 O10 2.521332 1_565
Ca1 O1 2.529784 1_555
Ca1 O15 2.539229 1_455
Ca1 O13 2.675123 1_564
Ca1 O14 2.882193 1_565
Ca2 O4 2.444760 1_556
Ca2 O1 2.465070 1_556
Ca2 O8 2.505369 1_455
Ca2 O6 2.520280 1_555
Ca2 O9 2.521332 1_565
Ca2 O2 2.529784 1_555
Ca2 O12 2.539229 1_555
Ca2 O14 2.675123 1_565
Ca2 O13 2.882193 1_565
Ca3 O5 2.444760 1_655
Ca3 O0 2.465070 1_555
Ca3 O9 2.505369 1_555
Ca3 O7 2.520280 1_555
Ca3 O8 2.521332 1_545
Ca3 O3 2.529784 1_555
Ca3 O13 2.539229 1_655
Ca3 O15 2.675123 1_546
Ca3 O12 2.882193 1_545
O0 S0 1.483254 1_555
O1 S1 1.483254 1_555
O2 S2 1.483254 1_555
O3 S3 1.483254 1_555
O4 S0 1.489562 1_555
O5 S1 1.489562 1_555
O6 S2 1.489562 1_555
O7 S3 1.489562 1_555
O8 S3 1.489335 1_555
O9 S2 1.489335 1_555
O10 S1 1.489335 1_555
O11 S0 1.489335 1_555
O12 S3 1.502607 1_555
O13 S2 1.502607 1_555
O14 S1 1.502607 1_555
O15 S0 1.502607 1_555
