# generated using pymatgen
data_Er2Ga6Cu11
_symmetry_space_group_name_H-M   'P 1'
_cell_length_a   6.56066199
_cell_length_b   6.56066199
_cell_length_c   6.56066160
_cell_angle_alpha   83.56990940
_cell_angle_beta   83.56990940
_cell_angle_gamma   83.56991377
_symmetry_Int_Tables_number   1
_chemical_formula_structural   Er2Ga6Cu11
_chemical_formula_sum   'Er2 Ga6 Cu11'
_cell_volume   277.42645588
_cell_formula_units_Z   1
loop_
 _symmetry_equiv_pos_site_id
 _symmetry_equiv_pos_as_xyz
  1  'x, y, z'
loop_
 _atom_site_type_symbol
 _atom_site_label
 _atom_site_symmetry_multiplicity
 _atom_site_fract_x
 _atom_site_fract_y
 _atom_site_fract_z
 _atom_site_occupancy
  Er  Er0  1  0.66054000  0.66054000  0.66054000  1
  Er  Er1  1  0.33946000  0.33946000  0.33946000  1
  Ga  Ga0  1  0.34394300  0.85351300  0.34394300  1
  Ga  Ga1  1  0.34394300  0.34394300  0.85351300  1
  Ga  Ga2  1  0.85351300  0.34394300  0.34394300  1
  Ga  Ga3  1  0.65605700  0.14648700  0.65605700  1
  Ga  Ga4  1  0.65605700  0.65605700  0.14648700  1
  Ga  Ga5  1  0.14648700  0.65605700  0.65605700  1
  Cu  Cu0  1  0.89969500  0.89969500  0.89969500  1
  Cu  Cu1  1  0.10030500  0.10030500  0.10030500  1
  Cu  Cu2  1  0.00000000  0.00000000  0.50000000  1
  Cu  Cu3  1  0.50000000  0.00000000  0.00000000  1
  Cu  Cu4  1  0.00000000  0.50000000  0.00000000  1
  Cu  Cu5  1  0.70449300  0.29550700  0.00000000  1
  Cu  Cu6  1  0.00000000  0.70449300  0.29550700  1
  Cu  Cu7  1  0.29550700  0.00000000  0.70449300  1
  Cu  Cu8  1  0.00000000  0.29550700  0.70449300  1
  Cu  Cu9  1  0.70449300  0.00000000  0.29550700  1
  Cu  Cu10  1  0.29550700  0.70449300  0.00000000  1
loop_
_geom_bond_atom_site_label_1
_geom_bond_atom_site_label_2
_geom_bond_distance
_geom_bond_site_symmetry_2
Er0 Ga1 3.165397 1_555
Er0 Ga2 3.165397 1_555
Er0 Ga0 3.165397 1_555
Er0 Ga4 3.181842 1_556
Er0 Ga5 3.181842 1_655
Er0 Ga3 3.181842 1_565
Er0 Ga4 3.379394 1_555
Er0 Ga3 3.379394 1_555
Er0 Ga5 3.379394 1_555
Er1 Ga4 3.165397 1_555
Er1 Ga3 3.165397 1_555
Er1 Ga5 3.165397 1_555
Er1 Ga1 3.181842 1_554
Er1 Ga2 3.181842 1_455
Er1 Ga0 3.181842 1_545
Er1 Ga1 3.379394 1_555
Er1 Ga0 3.379394 1_555
Er1 Ga2 3.379394 1_555
Ga0 Ga5 2.595554 1_555
Ga0 Ga4 2.595555 1_555
Ga1 Ga5 2.595555 1_555
Ga1 Ga3 2.595555 1_555
Ga2 Ga3 2.595554 1_555
Ga2 Ga4 2.595555 1_555
Cu0 Cu1 2.522019 1_666
Cu0 Cu2 2.658261 1_665
Cu0 Cu4 2.658261 1_656
Cu0 Cu3 2.658261 1_566
Cu0 Ga4 2.672901 1_556
Cu0 Ga3 2.672901 1_565
Cu0 Ga5 2.672901 1_655
Cu0 Cu9 2.874989 1_566
Cu0 Cu6 2.874989 1_656
Cu0 Cu7 2.874989 1_665
Cu0 Cu8 2.874989 1_665
Cu0 Cu10 2.874989 1_656
Cu0 Cu5 2.874989 1_566
Cu0 Er0 3.006597 1_555
Cu1 Cu2 2.658261 1_555
Cu1 Cu4 2.658261 1_555
Cu1 Cu3 2.658261 1_555
Cu1 Ga1 2.672901 1_554
Cu1 Ga2 2.672901 1_455
Cu1 Ga0 2.672901 1_545
Cu1 Cu8 2.874989 1_554
Cu1 Cu7 2.874989 1_554
Cu1 Cu6 2.874989 1_545
Cu1 Cu9 2.874989 1_455
Cu1 Cu10 2.874989 1_545
Cu1 Cu5 2.874989 1_455
Cu1 Er1 3.006597 1_555
Cu2 Cu6 2.478131 1_545
Cu2 Cu9 2.478131 1_455
Cu2 Cu8 2.478131 1_555
Cu2 Cu7 2.478131 1_555
Cu2 Ga5 2.506158 1_545
Cu2 Ga0 2.506158 1_545
Cu2 Ga3 2.506158 1_455
Cu2 Ga2 2.506158 1_455
Cu2 Er0 3.330056 1_445
Cu2 Er1 3.330056 1_555
Cu3 Cu7 2.478131 1_554
Cu3 Cu9 2.478131 1_555
Cu3 Cu5 2.478131 1_555
Cu3 Ga3 2.506158 1_554
Cu3 Ga0 2.506158 1_545
Cu3 Ga4 2.506158 1_545
Cu3 Ga1 2.506158 1_554
Cu3 Er1 3.330056 1_555
Cu3 Er0 3.330056 1_544
Cu4 Cu8 2.478131 1_554
Cu4 Cu6 2.478131 1_555
Cu4 Cu5 2.478131 1_455
Cu4 Ga5 2.506158 1_554
Cu4 Ga2 2.506158 1_455
Cu4 Ga4 2.506158 1_455
Cu4 Ga1 2.506158 1_554
Cu4 Er1 3.330056 1_555
Cu4 Er0 3.330056 1_454
Cu5 Cu8 2.583683 1_654
Cu5 Cu9 2.583683 1_555
Cu5 Ga2 2.621622 1_555
Cu5 Ga3 2.621622 1_554
Cu5 Ga4 2.625329 1_555
Cu5 Ga1 2.625329 1_554
Cu5 Er0 3.094017 1_554
Cu5 Er1 3.094017 1_555
Cu6 Cu9 2.583683 1_465
Cu6 Ga0 2.621622 1_555
Cu6 Ga4 2.621622 1_455
Cu6 Ga5 2.625329 1_555
Cu6 Ga2 2.625329 1_455
Cu6 Er0 3.094017 1_455
Cu6 Er1 3.094017 1_555
Cu7 Cu8 2.583683 1_555
Cu7 Ga5 2.621622 1_545
Cu7 Ga1 2.621622 1_555
Cu7 Ga0 2.625329 1_545
Cu7 Ga3 2.625329 1_555
Cu7 Er1 3.094017 1_555
Cu7 Er0 3.094017 1_545
Cu8 Ga3 2.621622 1_455
Cu8 Ga1 2.621622 1_555
Cu8 Ga2 2.625329 1_455
Cu8 Ga5 2.625329 1_555
Cu8 Er1 3.094017 1_555
Cu8 Er0 3.094017 1_455
Cu9 Ga2 2.621622 1_555
Cu9 Ga4 2.621622 1_545
Cu9 Ga3 2.625329 1_555
Cu9 Ga0 2.625329 1_545
Cu9 Er0 3.094017 1_545
Cu9 Er1 3.094017 1_555
Cu10 Cu3 2.478131 1_565
Cu10 Cu4 2.478131 1_555
Cu10 Cu7 2.583683 1_564
Cu10 Cu6 2.583683 1_555
Cu10 Ga0 2.621622 1_555
Cu10 Ga5 2.621622 1_554
Cu10 Ga4 2.625329 1_555
Cu10 Ga1 2.625329 1_554
Cu10 Er0 3.094017 1_554
Cu10 Er1 3.094017 1_555
