# generated using pymatgen
data_CsO3
_symmetry_space_group_name_H-M   'P 1'
_cell_length_a   6.48965500
_cell_length_b   6.90130107
_cell_length_c   8.14287476
_cell_angle_alpha   75.55243007
_cell_angle_beta   90.00000000
_cell_angle_gamma   90.00000000
_symmetry_Int_Tables_number   1
_chemical_formula_structural   CsO3
_chemical_formula_sum   'Cs4 O12'
_cell_volume   353.16244442
_cell_formula_units_Z   4
loop_
 _symmetry_equiv_pos_site_id
 _symmetry_equiv_pos_as_xyz
  1  'x, y, z'
loop_
 _atom_site_type_symbol
 _atom_site_label
 _atom_site_symmetry_multiplicity
 _atom_site_fract_x
 _atom_site_fract_y
 _atom_site_fract_z
 _atom_site_occupancy
  Cs  Cs0  1  0.74593200  0.35246100  0.41492800  1
  Cs  Cs1  1  0.24593200  0.14753900  0.08507200  1
  Cs  Cs2  1  0.25406800  0.64753900  0.58507200  1
  Cs  Cs3  1  0.75406800  0.85246100  0.91492800  1
  O  O0  1  0.27946900  0.61254800  0.12220600  1
  O  O1  1  0.77946900  0.88745200  0.37779400  1
  O  O2  1  0.72053100  0.38745200  0.87779400  1
  O  O3  1  0.22053100  0.11254800  0.62220600  1
  O  O4  1  0.24865500  0.21840200  0.45727800  1
  O  O5  1  0.74865500  0.28159800  0.04272200  1
  O  O6  1  0.75134500  0.78159800  0.54272200  1
  O  O7  1  0.25134500  0.71840200  0.95727800  1
  O  O8  1  0.42342100  0.69371200  0.20830500  1
  O  O9  1  0.92342100  0.80628800  0.29169500  1
  O  O10  1  0.57657900  0.30628800  0.79169500  1
  O  O11  1  0.07657900  0.19371200  0.70830500  1
loop_
_geom_bond_atom_site_label_1
_geom_bond_atom_site_label_2
_geom_bond_distance
_geom_bond_site_symmetry_2
Cs0 O5 3.188260 1_555
Cs0 O11 3.194635 1_655
Cs0 O10 3.199068 1_555
Cs0 O9 3.251899 1_555
Cs0 O8 3.283381 1_555
Cs0 O1 3.304809 1_545
Cs0 O4 3.351152 1_555
Cs0 O6 3.375355 1_555
Cs0 O4 3.385200 1_655
Cs1 O4 3.188260 1_555
Cs1 O10 3.194635 1_554
Cs1 O11 3.199068 1_554
Cs1 O8 3.251899 1_545
Cs1 O9 3.283381 1_445
Cs1 O0 3.304809 1_555
Cs1 O5 3.351152 1_455
Cs1 O7 3.375355 1_544
Cs1 O5 3.385200 1_555
Cs2 O7 3.188260 1_555
Cs2 O9 3.194635 1_455
Cs2 O8 3.199068 1_555
Cs2 O11 3.251899 1_555
Cs2 O10 3.283381 1_555
Cs2 O3 3.304809 1_565
Cs2 O6 3.351152 1_555
Cs2 O4 3.375355 1_555
Cs2 O6 3.385200 1_455
Cs3 O6 3.188260 1_555
Cs3 O8 3.194635 1_556
Cs3 O9 3.199068 1_556
Cs3 O10 3.251899 1_565
Cs3 O11 3.283381 1_665
Cs3 O2 3.304809 1_555
Cs3 O7 3.351152 1_655
Cs3 O5 3.375355 1_566
Cs3 O7 3.385200 1_555
O0 O8 1.368930 1_555
O0 O7 1.371514 1_554
O1 O9 1.368930 1_555
O1 O6 1.371514 1_555
O2 O5 1.371514 1_556
O3 O4 1.371514 1_555
O10 O2 1.368930 1_555
O11 O3 1.368930 1_555
