# generated using pymatgen
data_Li4MnCo3O8
_symmetry_space_group_name_H-M   'P 1'
_cell_length_a   5.01265600
_cell_length_b   5.88956009
_cell_length_c   5.98300802
_cell_angle_alpha   61.30345593
_cell_angle_beta   76.68710312
_cell_angle_gamma   73.86913827
_symmetry_Int_Tables_number   1
_chemical_formula_structural   Li4MnCo3O8
_chemical_formula_sum   'Li4 Mn1 Co3 O8'
_cell_volume   147.85098007
_cell_formula_units_Z   1
loop_
 _symmetry_equiv_pos_site_id
 _symmetry_equiv_pos_as_xyz
  1  'x, y, z'
loop_
 _atom_site_type_symbol
 _atom_site_label
 _atom_site_symmetry_multiplicity
 _atom_site_fract_x
 _atom_site_fract_y
 _atom_site_fract_z
 _atom_site_occupancy
  Li  Li0  1  0.50000000  0.00000000  0.00000000  1
  Li  Li1  1  0.00693600  0.24602800  0.75151800  1
  Li  Li2  1  0.99306400  0.75397200  0.24848200  1
  Li  Li3  1  0.50000000  0.50000000  0.50000000  1
  Mn  Mn0  1  0.50000000  0.50000000  0.00000000  1
  Co  Co0  1  0.99908900  0.75248500  0.74751200  1
  Co  Co1  1  0.50000000  0.00000000  0.50000000  1
  Co  Co2  1  0.00091100  0.24751500  0.25248800  1
  O  O0  1  0.74830300  0.11470800  0.60879200  1
  O  O1  1  0.24749700  0.34049900  0.38950800  1
  O  O2  1  0.24755400  0.84874200  0.88200500  1
  O  O3  1  0.75257900  0.61647400  0.10983800  1
  O  O4  1  0.25169700  0.88529200  0.39120800  1
  O  O5  1  0.75244600  0.15125800  0.11799500  1
  O  O6  1  0.75250300  0.65950100  0.61049200  1
  O  O7  1  0.24742100  0.38352600  0.89016200  1
loop_
_geom_bond_atom_site_label_1
_geom_bond_atom_site_label_2
_geom_bond_distance
_geom_bond_site_symmetry_2
Li0 O7 2.122631 1_554
Li0 O3 2.122631 1_545
Li0 O5 2.129570 1_555
Li0 O2 2.129570 1_544
Li0 O0 2.256329 1_554
Li0 O4 2.256329 1_545
Li1 O7 2.108332 1_555
Li1 O1 2.113646 1_555
Li1 O2 2.156459 1_545
Li1 O5 2.163033 1_456
Li1 O0 2.170111 1_455
Li1 O6 2.250603 1_455
Li2 O3 2.108332 1_555
Li2 O6 2.113646 1_555
Li2 O5 2.156459 1_565
Li2 O2 2.163033 1_654
Li2 O4 2.170111 1_655
Li2 O1 2.250603 1_655
Li3 O4 2.123056 1_555
Li3 O0 2.123056 1_555
Li3 O6 2.136330 1_555
Li3 O1 2.136330 1_555
Li3 O7 2.259733 1_555
Li3 O3 2.259733 1_555
Mn0 O3 1.950416 1_555
Mn0 O7 1.950416 1_554
Mn0 O5 1.973077 1_555
Mn0 O2 1.973077 1_554
Mn0 O1 2.261697 1_555
Mn0 O6 2.261697 1_554
Co0 O6 1.942607 1_555
Co0 O2 1.952448 1_655
Co0 O0 2.027364 1_565
Co0 O7 2.050630 1_655
Co0 O4 2.113174 1_655
Co0 O3 2.125240 1_556
Co1 O0 1.921431 1_555
Co1 O4 1.921431 1_545
Co1 O6 1.939698 1_545
Co1 O1 1.939698 1_555
Co1 O2 2.226594 1_545
Co1 O5 2.226594 1_555
Co2 O1 1.942607 1_555
Co2 O5 1.952448 1_455
Co2 O4 2.027364 1_545
Co2 O3 2.050630 1_455
Co2 O0 2.113174 1_455
Co2 O7 2.125240 1_554
