# generated using pymatgen
data_Rb3BrF12
_symmetry_space_group_name_H-M   'P 1'
_cell_length_a   6.86698979
_cell_length_b   6.86698979
_cell_length_c   7.51085492
_cell_angle_alpha   86.98861102
_cell_angle_beta   86.98861102
_cell_angle_gamma   89.72930267
_symmetry_Int_Tables_number   1
_chemical_formula_structural   Rb3BrF12
_chemical_formula_sum   'Rb3 Br1 F12'
_cell_volume   353.20031386
_cell_formula_units_Z   1
loop_
 _symmetry_equiv_pos_site_id
 _symmetry_equiv_pos_as_xyz
  1  'x, y, z'
loop_
 _atom_site_type_symbol
 _atom_site_label
 _atom_site_symmetry_multiplicity
 _atom_site_fract_x
 _atom_site_fract_y
 _atom_site_fract_z
 _atom_site_occupancy
  Rb  Rb0  1  0.00000000  0.00000000  0.50000000  1
  Rb  Rb1  1  0.00000000  0.50000000  0.00000000  1
  Rb  Rb2  1  0.50000000  0.00000000  0.00000000  1
  Br  Br0  1  0.00000000  0.00000000  0.00000000  1
  F  F0  1  0.49011800  0.63817600  0.20782500  1
  F  F1  1  0.50988200  0.36182400  0.79217500  1
  F  F2  1  0.63798800  0.08817400  0.31448900  1
  F  F3  1  0.36182400  0.50988200  0.79217500  1
  F  F4  1  0.36201200  0.91182600  0.68551100  1
  F  F5  1  0.63817600  0.49011800  0.20782500  1
  F  F6  1  0.20631700  0.38787500  0.32373000  1
  F  F7  1  0.91182600  0.36201200  0.68551100  1
  F  F8  1  0.79368300  0.61212500  0.67627000  1
  F  F9  1  0.08817400  0.63798800  0.31448900  1
  F  F10  1  0.61212500  0.79368300  0.67627000  1
  F  F11  1  0.38787500  0.20631700  0.32373000  1
loop_
_geom_bond_atom_site_label_1
_geom_bond_atom_site_label_2
_geom_bond_distance
_geom_bond_site_symmetry_2
Br0 Rb1 3.433495 1_555
Br0 Rb2 3.433495 1_555
Br0 Rb2 3.433495 1_455
Br0 Rb1 3.433495 1_545
Br0 Rb0 3.755427 1_554
Br0 Rb0 3.755427 1_555
F0 F5 1.434448 1_555
F0 Rb2 2.863138 1_565
F1 F3 1.434448 1_555
F1 Rb2 2.863138 1_556
F2 Rb2 2.689755 1_555
F2 Rb0 2.957864 1_655
F3 Rb1 2.863138 1_556
F4 Rb2 2.689755 1_566
F4 Rb0 2.957864 1_565
F5 Rb1 2.863138 1_655
F6 F9 1.895551 1_555
F6 Rb1 2.944006 1_555
F6 Rb0 3.212872 1_555
F7 F8 1.895551 1_555
F7 Rb1 2.689755 1_656
F7 Rb0 2.957864 1_655
F8 Rb1 2.944006 1_656
F8 Rb0 3.212872 1_665
F9 Rb1 2.689755 1_555
F9 Rb0 2.957864 1_565
F10 F8 1.759011 1_555
F10 F4 1.895551 1_555
F10 Rb2 2.944006 1_566
F10 Rb0 3.212872 1_665
F11 F6 1.759011 1_555
F11 F2 1.895551 1_555
F11 Rb2 2.944006 1_555
F11 Rb0 3.212872 1_555
