# generated using pymatgen
data_Mg3Si4
_symmetry_space_group_name_H-M   'P 1'
_cell_length_a   5.65997100
_cell_length_b   6.73405961
_cell_length_c   7.14506380
_cell_angle_alpha   112.14122435
_cell_angle_beta   89.95287273
_cell_angle_gamma   99.82274441
_symmetry_Int_Tables_number   1
_chemical_formula_structural   Mg3Si4
_chemical_formula_sum   'Mg6 Si8'
_cell_volume   247.94904830
_cell_formula_units_Z   2
loop_
 _symmetry_equiv_pos_site_id
 _symmetry_equiv_pos_as_xyz
  1  'x, y, z'
loop_
 _atom_site_type_symbol
 _atom_site_label
 _atom_site_symmetry_multiplicity
 _atom_site_fract_x
 _atom_site_fract_y
 _atom_site_fract_z
 _atom_site_occupancy
  Mg  Mg0  1  0.77324000  0.67447600  0.29018400  1
  Mg  Mg1  1  0.10609300  0.85304800  0.04013900  1
  Mg  Mg2  1  0.49715300  0.54891300  0.60827100  1
  Mg  Mg3  1  0.63577300  0.11540900  0.45213800  1
  Mg  Mg4  1  0.21540400  0.42009700  0.91732500  1
  Mg  Mg5  1  0.89270300  0.98514800  0.74729000  1
  Si  Si0  1  0.01242200  0.54095100  0.56487100  1
  Si  Si1  1  0.13448100  0.11464500  0.46167200  1
  Si  Si2  1  0.27010800  0.70900300  0.35450000  1
  Si  Si3  1  0.99974200  0.26966200  0.20820400  1
  Si  Si4  1  0.60208900  0.85949500  0.01891400  1
  Si  Si5  1  0.69695800  0.38303600  0.88969400  1
  Si  Si6  1  0.40773400  0.01380000  0.78927700  1
  Si  Si7  1  0.50275900  0.25873500  0.15727100  1
loop_
_geom_bond_atom_site_label_1
_geom_bond_atom_site_label_2
_geom_bond_distance
_geom_bond_site_symmetry_2
Mg0 Si7 2.760323 1_555
Mg0 Si5 2.775996 1_554
Mg0 Si2 2.805801 1_655
Mg0 Si0 2.871085 1_655
Mg0 Si4 2.912513 1_555
Mg0 Si2 2.918549 1_555
Mg0 Mg3 2.992960 1_565
Mg0 Mg1 3.004674 1_655
Mg0 Mg2 3.051901 1_555
Mg0 Si3 3.066835 1_555
Mg0 Si1 3.109087 1_665
Mg0 Mg5 3.141909 1_555
Mg1 Si3 2.776825 1_465
Mg1 Si4 2.805107 1_555
Mg1 Si1 2.846989 1_565
Mg1 Si6 2.850681 1_564
Mg1 Si4 2.865382 1_455
Mg1 Mg4 2.887759 1_554
Mg1 Mg5 2.898640 1_454
Mg1 Si2 2.966610 1_555
Mg1 Si7 3.064519 1_565
Mg1 Si0 3.236175 1_554
Mg2 Si0 2.750427 1_555
Mg2 Si2 2.837483 1_555
Mg2 Si4 2.879100 1_556
Mg2 Si0 2.940034 1_655
Mg2 Si5 2.949194 1_555
Mg2 Mg3 2.950815 1_555
Mg2 Mg4 3.022882 1_555
Mg2 Si6 3.035938 1_565
Mg2 Si7 3.078630 1_555
Mg2 Si1 3.083700 1_555
Mg3 Si7 2.778568 1_555
Mg3 Si1 2.824479 1_655
Mg3 Si1 2.837233 1_555
Mg3 Si4 2.907867 1_545
Mg3 Si5 2.946830 1_555
Mg3 Si6 2.978717 1_555
Mg3 Si2 2.981715 1_545
Mg3 Si3 2.998210 1_555
Mg3 Mg5 3.027584 1_545
Mg3 Si0 3.095773 1_655
Mg4 Si5 2.779231 1_555
Mg4 Si3 2.827844 1_456
Mg4 Si5 2.902730 1_455
Mg4 Si6 2.938645 1_555
Mg4 Si7 2.962617 1_556
Mg4 Si2 2.975448 1_556
Mg4 Mg5 2.981099 1_445
Mg4 Si1 3.110192 1_555
Mg4 Si0 3.192610 1_555
Mg4 Si4 3.200981 1_556
Mg5 Si1 2.779839 1_665
Mg5 Si6 2.792397 1_565
Mg5 Si4 2.818842 1_556
Mg5 Si6 2.896672 1_665
Mg5 Si5 2.897922 1_565
Mg5 Si0 2.976047 1_655
Mg5 Si3 3.120020 1_566
Si0 Si3 2.506642 1_455
Si0 Si2 2.526396 1_555
Si0 Si1 2.888347 1_555
Si1 Si3 2.578786 1_455
Si1 Si2 2.788400 1_545
Si2 Si3 2.883424 1_455
Si3 Si7 2.821558 1_555
Si3 Si7 2.879792 1_655
Si4 Si6 2.580712 1_564
Si4 Si7 2.651949 1_565
Si5 Si7 2.540257 1_556
Si5 Si6 2.577869 1_555
Si6 Si7 2.520684 1_556
