# generated using pymatgen
data_K2Y2(PO4)3
_symmetry_space_group_name_H-M   'P 1'
_cell_length_a   10.75518100
_cell_length_b   10.75518100
_cell_length_c   10.75518100
_cell_angle_alpha   90.00000000
_cell_angle_beta   90.00000000
_cell_angle_gamma   90.00000000
_symmetry_Int_Tables_number   1
_chemical_formula_structural   K2Y2(PO4)3
_chemical_formula_sum   'K8 Y8 P12 O48'
_cell_volume   1244.09392876
_cell_formula_units_Z   4
loop_
 _symmetry_equiv_pos_site_id
 _symmetry_equiv_pos_as_xyz
  1  'x, y, z'
loop_
 _atom_site_type_symbol
 _atom_site_label
 _atom_site_symmetry_multiplicity
 _atom_site_fract_x
 _atom_site_fract_y
 _atom_site_fract_z
 _atom_site_occupancy
  K  K0  1  0.81850700  0.81850700  0.81850700  1
  K  K1  1  0.68149300  0.18149300  0.31850700  1
  K  K2  1  0.18149300  0.31850700  0.68149300  1
  K  K3  1  0.31850700  0.68149300  0.18149300  1
  K  K4  1  0.04760000  0.04760000  0.04760000  1
  K  K5  1  0.45240000  0.95240000  0.54760000  1
  K  K6  1  0.95240000  0.54760000  0.45240000  1
  K  K7  1  0.54760000  0.45240000  0.95240000  1
  Y  Y0  1  0.33244600  0.33244600  0.33244600  1
  Y  Y1  1  0.16755400  0.66755400  0.83244600  1
  Y  Y2  1  0.66755400  0.83244600  0.16755400  1
  Y  Y3  1  0.83244600  0.16755400  0.66755400  1
  Y  Y4  1  0.60236600  0.60236600  0.60236600  1
  Y  Y5  1  0.89763400  0.39763400  0.10236600  1
  Y  Y6  1  0.39763400  0.10236600  0.89763400  1
  Y  Y7  1  0.10236600  0.89763400  0.39763400  1
  P  P0  1  0.01505900  0.21380800  0.37498200  1
  P  P1  1  0.48494100  0.78619200  0.87498200  1
  P  P2  1  0.98494100  0.71380800  0.12501800  1
  P  P3  1  0.37498200  0.01505900  0.21380800  1
  P  P4  1  0.51505900  0.28619200  0.62501800  1
  P  P5  1  0.87498200  0.48494100  0.78619200  1
  P  P6  1  0.12501800  0.98494100  0.71380800  1
  P  P7  1  0.62501800  0.51505900  0.28619200  1
  P  P8  1  0.21380800  0.37498200  0.01505900  1
  P  P9  1  0.71380800  0.12501800  0.98494100  1
  P  P10  1  0.28619200  0.62501800  0.51505900  1
  P  P11  1  0.78619200  0.87498200  0.48494100  1
  O  O0  1  0.27316600  0.50629500  0.43418700  1
  O  O1  1  0.22683400  0.49370500  0.93418700  1
  O  O2  1  0.72683400  0.00629500  0.06581300  1
  O  O3  1  0.43418700  0.27316600  0.50629500  1
  O  O4  1  0.77316600  0.99370500  0.56581300  1
  O  O5  1  0.93418700  0.22683400  0.49370500  1
  O  O6  1  0.06581300  0.72683400  0.00629500  1
  O  O7  1  0.56581300  0.77316600  0.99370500  1
  O  O8  1  0.50629500  0.43418700  0.27316600  1
  O  O9  1  0.00629500  0.06581300  0.72683400  1
  O  O10  1  0.99370500  0.56581300  0.77316600  1
  O  O11  1  0.49370500  0.93418700  0.22683400  1
  O  O12  1  0.01689000  0.07722400  0.32921100  1
  O  O13  1  0.48311000  0.92277600  0.82921100  1
  O  O14  1  0.98311000  0.57722400  0.17078900  1
  O  O15  1  0.32921100  0.01689000  0.07722400  1
  O  O16  1  0.51689000  0.42277600  0.67078900  1
  O  O17  1  0.82921100  0.48311000  0.92277600  1
  O  O18  1  0.17078900  0.98311000  0.57722400  1
  O  O19  1  0.67078900  0.51689000  0.42277600  1
  O  O20  1  0.07722400  0.32921100  0.01689000  1
  O  O21  1  0.57722400  0.17078900  0.98311000  1
  O  O22  1  0.42277600  0.67078900  0.51689000  1
  O  O23  1  0.92277600  0.82921100  0.48311000  1
  O  O24  1  0.04516700  0.79639600  0.22597900  1
  O  O25  1  0.45483300  0.20360400  0.72597900  1
  O  O26  1  0.95483300  0.29639600  0.27402100  1
  O  O27  1  0.22597900  0.04516700  0.79639600  1
  O  O28  1  0.54516700  0.70360400  0.77402100  1
  O  O29  1  0.72597900  0.45483300  0.20360400  1
  O  O30  1  0.27402100  0.95483300  0.29639600  1
  O  O31  1  0.77402100  0.54516700  0.70360400  1
  O  O32  1  0.79639600  0.22597900  0.04516700  1
  O  O33  1  0.29639600  0.27402100  0.95483300  1
  O  O34  1  0.70360400  0.77402100  0.54516700  1
  O  O35  1  0.20360400  0.72597900  0.45483300  1
  O  O36  1  0.14911200  0.25846200  0.40344200  1
  O  O37  1  0.35088800  0.74153800  0.90344200  1
  O  O38  1  0.85088800  0.75846200  0.09655800  1
  O  O39  1  0.40344200  0.14911200  0.25846200  1
  O  O40  1  0.64911200  0.24153800  0.59655800  1
  O  O41  1  0.90344200  0.35088800  0.74153800  1
  O  O42  1  0.09655800  0.85088800  0.75846200  1
  O  O43  1  0.59655800  0.64911200  0.24153800  1
  O  O44  1  0.25846200  0.40344200  0.14911200  1
  O  O45  1  0.75846200  0.09655800  0.85088800  1
  O  O46  1  0.24153800  0.59655800  0.64911200  1
  O  O47  1  0.74153800  0.90344200  0.35088800  1
loop_
_geom_bond_atom_site_label_1
_geom_bond_atom_site_label_2
_geom_bond_distance
_geom_bond_site_symmetry_2
K0 O38 3.079182 1_556
K0 O45 3.079182 1_565
K0 O42 3.079182 1_655
K0 O34 3.224698 1_555
K0 O28 3.224698 1_555
K0 O31 3.224698 1_555
K0 O7 3.342845 1_555
K0 O4 3.342845 1_555
K0 O10 3.342845 1_555
K1 O40 3.079182 1_555
K1 O47 3.079182 1_545
K1 O39 3.079182 1_555
K1 O26 3.224698 1_555
K1 O32 3.224698 1_555
K1 O29 3.224698 1_555
K1 O5 3.342845 1_555
K1 O2 3.342845 1_555
K1 O8 3.342845 1_555
K2 O46 3.079182 1_555
K2 O41 3.079182 1_455
K2 O36 3.079182 1_555
K2 O33 3.224698 1_555
K2 O27 3.224698 1_555
K2 O25 3.224698 1_555
K2 O1 3.342845 1_555
K2 O9 3.342845 1_555
K2 O3 3.342845 1_555
K3 O43 3.079182 1_555
K3 O37 3.079182 1_554
K3 O44 3.079182 1_555
K3 O30 3.224698 1_555
K3 O24 3.224698 1_555
K3 O35 3.224698 1_555
K3 O11 3.342845 1_555
K3 O6 3.342845 1_555
K3 O0 3.342845 1_555
K4 O15 3.063347 1_555
K4 O12 3.063347 1_555
K4 O20 3.063347 1_555
K4 O27 3.313721 1_554
K4 O24 3.313721 1_545
K4 O32 3.313721 1_455
K5 O13 3.063347 1_555
K5 O18 3.063347 1_555
K5 O22 3.063347 1_555
K5 O25 3.313721 1_565
K5 O30 3.313721 1_555
K5 O34 3.313721 1_555
K6 O23 3.063347 1_555
K6 O19 3.063347 1_555
K6 O14 3.063347 1_555
K6 O35 3.313721 1_655
K6 O26 3.313721 1_555
K6 O31 3.313721 1_555
K7 O17 3.063347 1_555
K7 O16 3.063347 1_555
K7 O21 3.063347 1_555
K7 O29 3.313721 1_556
K7 O33 3.313721 1_555
K7 O28 3.313721 1_555
O0 P10 1.551325 1_555
O0 Y0 2.258302 1_555
O1 P8 1.551325 1_556
O1 Y1 2.258302 1_555
O2 P9 1.551325 1_554
O2 Y2 2.258302 1_545
O3 P4 1.551325 1_555
O3 Y0 2.258302 1_555
O4 P11 1.551325 1_555
O4 Y3 2.258302 1_565
O5 P0 1.551325 1_655
O5 Y3 2.258302 1_555
O6 P2 1.551325 1_455
O6 Y1 2.258302 1_554
O7 P1 1.551325 1_555
O7 Y2 2.258302 1_556
O8 P7 1.551325 1_555
O8 Y0 2.258302 1_555
O9 P6 1.551325 1_545
O9 Y3 2.258302 1_455
O10 P5 1.551325 1_555
O10 Y1 2.258302 1_655
O11 P3 1.551325 1_565
O11 Y2 2.258302 1_555
O12 P0 1.549400 1_555
O12 Y7 2.262181 1_545
O13 P1 1.549400 1_555
O13 Y6 2.262181 1_565
O14 P2 1.549400 1_555
O14 Y5 2.262181 1_555
O15 P3 1.549400 1_555
O15 Y6 2.262181 1_554
O16 P4 1.549400 1_555
O16 Y4 2.262181 1_555
O17 P5 1.549400 1_555
O17 Y5 2.262181 1_556
O18 P6 1.549400 1_555
O18 Y7 2.262181 1_555
O19 P7 1.549400 1_555
O19 Y4 2.262181 1_555
O20 P8 1.549400 1_555
O20 Y5 2.262181 1_455
O21 P9 1.549400 1_555
O21 Y6 2.262181 1_555
O22 P10 1.549400 1_555
O22 Y4 2.262181 1_555
O23 P11 1.549400 1_555
O23 Y7 2.262181 1_655
O24 P2 1.545197 1_455
O24 Y7 2.229886 1_555
O25 P4 1.545197 1_555
O25 Y6 2.229886 1_555
O26 P0 1.545197 1_655
O26 Y5 2.229886 1_555
O27 P6 1.545197 1_545
O27 Y6 2.229886 1_555
O28 P1 1.545197 1_555
O28 Y4 2.229886 1_555
O29 P7 1.545197 1_555
O29 Y5 2.229886 1_555
O30 P3 1.545197 1_565
O30 Y7 2.229886 1_555
O31 P5 1.545197 1_555
O31 Y4 2.229886 1_555
O32 P9 1.545197 1_554
O32 Y5 2.229886 1_555
O33 P8 1.545197 1_556
O33 Y6 2.229886 1_555
O34 P11 1.545197 1_555
O34 Y4 2.229886 1_555
O35 P10 1.545197 1_555
O35 Y7 2.229886 1_555
O36 P0 1.550170 1_555
O36 Y0 2.259239 1_555
O37 P1 1.550170 1_555
O37 Y1 2.259239 1_555
O38 P2 1.550170 1_555
O38 Y2 2.259239 1_555
O39 P3 1.550170 1_555
O39 Y0 2.259239 1_555
O40 P4 1.550170 1_555
O40 Y3 2.259239 1_555
O41 P5 1.550170 1_555
O41 Y3 2.259239 1_555
O42 P6 1.550170 1_555
O42 Y1 2.259239 1_555
O43 P7 1.550170 1_555
O43 Y2 2.259239 1_555
O44 P8 1.550170 1_555
O44 Y0 2.259239 1_555
O45 P9 1.550170 1_555
O45 Y3 2.259239 1_555
O46 P10 1.550170 1_555
O46 Y1 2.259239 1_555
O47 P11 1.550170 1_555
O47 Y2 2.259239 1_555
