# generated using pymatgen
data_Sr2FeMoO6
_symmetry_space_group_name_H-M   'P 1'
_cell_length_a   5.64366096
_cell_length_b   5.64366096
_cell_length_c   5.64366096
_cell_angle_alpha   90.92579713
_cell_angle_beta   119.46693800
_cell_angle_gamma   119.46693800
_symmetry_Int_Tables_number   1
_chemical_formula_structural   Sr2FeMoO6
_chemical_formula_sum   'Sr2 Fe1 Mo1 O6'
_cell_volume   128.11251786
_cell_formula_units_Z   1
loop_
 _symmetry_equiv_pos_site_id
 _symmetry_equiv_pos_as_xyz
  1  'x, y, z'
loop_
 _atom_site_type_symbol
 _atom_site_label
 _atom_site_symmetry_multiplicity
 _atom_site_fract_x
 _atom_site_fract_y
 _atom_site_fract_z
 _atom_site_occupancy
  Sr  Sr0  1  0.50000000  0.25000000  0.75000000  1
  Sr  Sr1  1  0.50000000  0.75000000  0.25000000  1
  Fe  Fe0  1  0.00000000  0.00000000  0.00000000  1
  Mo  Mo0  1  0.00000000  0.50000000  0.50000000  1
  O  O0  1  0.00000000  0.74352700  0.74352700  1
  O  O1  1  0.00000000  0.25647300  0.25647300  1
  O  O2  1  0.05242900  0.27536900  0.77706000  1
  O  O3  1  0.94757100  0.72463100  0.22294000  1
  O  O4  1  0.49830900  0.22294000  0.27536900  1
  O  O5  1  0.50169100  0.77706000  0.72463100  1
loop_
_geom_bond_atom_site_label_1
_geom_bond_atom_site_label_2
_geom_bond_distance
_geom_bond_site_symmetry_2
Fe0 O3 2.015653 1_445
Fe0 O4 2.015653 1_555
Fe0 O2 2.015653 1_554
Fe0 O5 2.015653 1_444
Fe0 O0 2.030394 1_544
Fe0 O1 2.030394 1_555
Mo0 O1 1.927906 1_555
Mo0 O0 1.927906 1_555
Mo0 O3 2.029184 1_455
Mo0 O2 2.029184 1_555
Mo0 O4 2.029184 1_455
Mo0 O5 2.029184 1_555
O0 Sr1 2.844998 1_556
O0 Sr0 2.844998 1_455
O0 Sr1 2.844998 1_455
O0 Sr0 2.844998 1_565
O1 Sr0 2.844998 1_454
O1 Sr0 2.844998 1_555
O1 Sr1 2.844998 1_555
O1 Sr1 2.844998 1_445
O2 Sr0 2.675595 1_555
O2 Sr1 2.675595 1_556
O2 Sr1 2.975853 1_445
O2 Sr0 2.975853 1_455
O3 Sr1 2.675595 1_555
O3 Sr0 2.675595 1_554
O3 Sr1 2.975853 1_655
O3 Sr0 2.975853 1_665
O4 Sr1 2.675595 1_545
O4 Sr0 2.675595 1_555
O4 Sr1 2.975853 1_555
O4 Sr0 2.975853 1_554
O5 Sr1 2.675595 1_555
O5 Sr0 2.675595 1_565
O5 Sr1 2.975853 1_556
O5 Sr0 2.975853 1_555
