# generated using pymatgen
data_Na4Ni2C4SO16
_symmetry_space_group_name_H-M   'P 1'
_cell_length_a   9.79963000
_cell_length_b   9.84354430
_cell_length_c   9.87953362
_cell_angle_alpha   119.61372760
_cell_angle_beta   119.32936233
_cell_angle_gamma   90.18497461
_symmetry_Int_Tables_number   1
_chemical_formula_structural   Na4Ni2C4SO16
_chemical_formula_sum   'Na8 Ni4 C8 S2 O32'
_cell_volume   683.45500144
_cell_formula_units_Z   2
loop_
 _symmetry_equiv_pos_site_id
 _symmetry_equiv_pos_as_xyz
  1  'x, y, z'
loop_
 _atom_site_type_symbol
 _atom_site_label
 _atom_site_symmetry_multiplicity
 _atom_site_fract_x
 _atom_site_fract_y
 _atom_site_fract_z
 _atom_site_occupancy
  Na  Na0  1  0.41289900  0.08772700  0.74874000  1
  Na  Na1  1  0.16924400  0.90963800  0.25450400  1
  Na  Na2  1  0.58219500  0.34727700  0.25524600  1
  Na  Na3  1  0.84507000  0.09061200  0.76017000  1
  Na  Na4  1  0.40929200  0.64979400  0.73412200  1
  Na  Na5  1  0.84573100  0.09160900  0.17617900  1
  Na  Na6  1  0.58566500  0.90765700  0.25460000  1
  Na  Na7  1  0.83724300  0.65938200  0.74884400  1
  Ni  Ni0  1  0.00054100  0.50019600  0.50020700  1
  Ni  Ni1  1  0.99999900  0.49924400  0.99947600  1
  Ni  Ni2  1  0.49896000  0.50068000  0.99832500  1
  Ni  Ni3  1  0.99905000  0.00059800  0.50053400  1
  C  C0  1  0.78286500  0.35323600  0.06978000  1
  C  C1  1  0.14387800  0.71487400  0.42746100  1
  C  C2  1  0.78393200  0.71348800  0.42723500  1
  C  C3  1  0.78587500  0.71837400  0.07093500  1
  C  C4  1  0.21315200  0.28531700  0.57158600  1
  C  C5  1  0.21437300  0.28460500  0.92785500  1
  C  C6  1  0.21461500  0.64535000  0.92805800  1
  C  C7  1  0.85413000  0.28424300  0.56929200  1
  S  S0  1  0.62651900  0.87564300  0.75183400  1
  S  S1  1  0.37660100  0.12396700  0.25075600  1
  O  O0  1  0.56973000  0.69209700  0.63447700  1
  O  O1  1  0.81306600  0.93744500  0.87604600  1
  O  O2  1  0.56351900  0.93694100  0.87616300  1
  O  O3  1  0.56878200  0.94328500  0.63529400  1
  O  O4  1  0.14849200  0.60166500  0.45786800  1
  O  O5  1  0.89885300  0.35157900  0.04281600  1
  O  O6  1  0.80634900  0.34915200  0.20865300  1
  O  O7  1  0.13739900  0.68964400  0.28389200  1
  O  O8  1  0.15205200  0.85961900  0.54769600  1
  O  O9  1  0.64064200  0.34998900  0.95296700  1
  O  O10  1  0.89633900  0.68851800  0.54619300  1
  O  O11  1  0.81236400  0.60348600  0.95579800  1
  O  O12  1  0.36069000  0.30473900  0.95990600  1
  O  O13  1  0.19438500  0.13943600  0.54099700  1
  O  O14  1  0.64839300  0.59429200  0.28226200  1
  O  O15  1  0.90194800  0.86068300  0.21038600  1
  O  O16  1  0.34926000  0.40429300  0.71437200  1
  O  O17  1  0.09665900  0.14712200  0.78684800  1
  O  O18  1  0.80633200  0.85866500  0.45867400  1
  O  O19  1  0.64178600  0.69614700  0.04342800  1
  O  O20  1  0.18947800  0.40179500  0.04132800  1
  O  O21  1  0.09575100  0.30767100  0.45488100  1
  O  O22  1  0.35724300  0.65084900  0.04816700  1
  O  O23  1  0.84446700  0.13945600  0.44518000  1
  O  O24  1  0.19151800  0.63746400  0.78451500  1
  O  O25  1  0.86602100  0.30832600  0.71536500  1
  O  O26  1  0.09920200  0.65422700  0.95837200  1
  O  O27  1  0.84577000  0.39999800  0.54005700  1
  O  O28  1  0.43441300  0.05746200  0.36911500  1
  O  O29  1  0.44540000  0.06764100  0.13397200  1
  O  O30  1  0.19152900  0.06417000  0.12959500  1
  O  O31  1  0.43388100  0.30863200  0.37252400  1
loop_
_geom_bond_atom_site_label_1
_geom_bond_atom_site_label_2
_geom_bond_distance
_geom_bond_site_symmetry_2
Na0 O3 2.393260 1_545
Na0 O13 2.406410 1_555
Na0 O12 2.413635 1_555
Na0 O2 2.450905 1_545
Na0 O8 2.470304 1_545
Na0 O9 2.473868 1_555
Na1 O7 2.361556 1_555
Na1 O28 2.369957 1_565
Na1 O15 2.439108 1_455
Na1 O30 2.449794 1_565
Na1 O26 2.470548 1_554
Na1 O13 2.484835 1_565
Na2 O14 2.362854 1_555
Na2 O31 2.383569 1_555
Na2 O29 2.439821 1_555
Na2 O12 2.445953 1_554
Na2 O6 2.456850 1_555
Na2 O27 2.507290 1_555
Na3 O17 2.380573 1_655
Na3 O1 2.395125 1_545
Na3 O25 2.419630 1_555
Na3 O3 2.426914 1_545
Na3 O5 2.476771 1_556
Na3 O18 2.528789 1_545
Na4 O0 2.351947 1_555
Na4 O16 2.374125 1_555
Na4 O24 2.432265 1_555
Na4 O4 2.466988 1_555
Na4 O2 2.493474 1_555
Na4 O19 2.555725 1_556
Na5 O21 2.382774 1_655
Na5 O1 2.411956 1_544
Na5 O6 2.450015 1_555
Na5 O23 2.465782 1_555
Na5 O15 2.483896 1_545
Na5 O2 2.496844 1_544
Na6 O28 2.378975 1_565
Na6 O18 2.381211 1_555
Na6 O19 2.414205 1_555
Na6 O22 2.440533 1_555
Na6 O29 2.460421 1_565
Na6 O23 2.494433 1_565
Na7 O0 2.390823 1_555
Na7 O27 2.397106 1_555
Na7 O26 2.403413 1_655
Na7 O1 2.454314 1_555
Na7 O10 2.475542 1_555
Na7 O11 2.478285 1_555
Ni0 O21 2.060239 1_555
Ni0 O4 2.066976 1_555
Ni0 O24 2.073830 1_555
Ni0 O10 2.078440 1_455
Ni0 O27 2.094576 1_455
Ni0 O6 2.123228 1_455
Ni1 O20 2.047011 1_656
Ni1 O11 2.071859 1_555
Ni1 O7 2.072117 1_656
Ni1 O25 2.072363 1_555
Ni1 O5 2.073685 1_556
Ni1 O26 2.104005 1_655
Ni2 O16 2.061777 1_555
Ni2 O14 2.067571 1_556
Ni2 O9 2.072370 1_555
Ni2 O22 2.078474 1_556
Ni2 O19 2.093790 1_556
Ni2 O12 2.110909 1_555
Ni3 O17 2.074812 1_655
Ni3 O18 2.082415 1_545
Ni3 O8 2.087836 1_645
Ni3 O13 2.094106 1_655
Ni3 O23 2.098258 1_555
Ni3 O15 2.106388 1_545
C0 O5 1.286716 1_555
C0 O9 1.289531 1_554
C0 O6 1.297001 1_555
C1 O7 1.281049 1_555
C1 O4 1.285300 1_555
C1 O8 1.296488 1_555
C2 O14 1.287504 1_555
C2 O10 1.293835 1_555
C2 O18 1.295904 1_555
C3 O11 1.288428 1_554
C3 O19 1.295701 1_555
C3 O15 1.304366 1_555
C4 O21 1.286189 1_555
C4 O16 1.286260 1_555
C4 O13 1.304672 1_555
C5 O20 1.280105 1_556
C5 O17 1.286555 1_555
C5 O12 1.298780 1_555
C6 O24 1.282578 1_555
C6 O22 1.294525 1_556
C6 O26 1.297346 1_555
C7 O25 1.284281 1_555
C7 O27 1.300434 1_555
C7 O23 1.304596 1_555
O0 S0 1.486411 1_555
O1 S0 1.508381 1_555
O2 S0 1.505595 1_555
O3 S0 1.486941 1_555
O28 S1 1.492247 1_555
O29 S1 1.491777 1_555
O30 S1 1.496185 1_555
O31 S1 1.495739 1_555
