# generated using pymatgen
data_Na11N7O16
_symmetry_space_group_name_H-M   'P 1'
_cell_length_a   4.56697800
_cell_length_b   5.91119273
_cell_length_c   20.14603775
_cell_angle_alpha   85.25304897
_cell_angle_beta   85.03880213
_cell_angle_gamma   77.65060794
_symmetry_Int_Tables_number   1
_chemical_formula_structural   Na11N7O16
_chemical_formula_sum   'Na11 N7 O16'
_cell_volume   528.13843937
_cell_formula_units_Z   1
loop_
 _symmetry_equiv_pos_site_id
 _symmetry_equiv_pos_as_xyz
  1  'x, y, z'
loop_
 _atom_site_type_symbol
 _atom_site_label
 _atom_site_symmetry_multiplicity
 _atom_site_fract_x
 _atom_site_fract_y
 _atom_site_fract_z
 _atom_site_occupancy
  Na  Na0  1  0.91408600  0.97679500  0.03091300  1
  Na  Na1  1  0.58085400  0.12739700  0.28237700  1
  Na  Na2  1  0.37128800  0.99446300  0.63484300  1
  Na  Na3  1  0.12896200  0.74084800  0.25855200  1
  Na  Na4  1  0.51164500  0.56528600  0.93419400  1
  Na  Na5  1  0.29952000  0.16253900  0.14307500  1
  Na  Na6  1  0.71260900  0.25983100  0.73259200  1
  Na  Na7  1  0.00974900  0.30811800  0.40938900  1
  Na  Na8  1  0.77461500  0.55796000  0.15376900  1
  Na  Na9  1  0.40954700  0.62319800  0.50321100  1
  Na  Na10  1  0.08298500  0.50381600  0.81460900  1
  N  N0  1  0.81899200  0.96586200  0.16154900  1
  N  N1  1  0.32254300  0.96486700  0.88183500  1
  N  N2  1  0.88759000  0.87722700  0.48368000  1
  N  N3  1  0.14507100  0.55981500  0.66590700  1
  N  N4  1  0.96498000  0.54676300  0.02532500  1
  N  N5  1  0.49628700  0.57201100  0.34050300  1
  N  N6  1  0.92601400  0.70012400  0.69716500  1
  O  O0  1  0.07043000  0.17190300  0.25479000  1
  O  O1  1  0.62944600  0.99366900  0.49974400  1
  O  O2  1  0.24060500  0.07990600  0.83146800  1
  O  O3  1  0.35140000  0.11027200  0.93319400  1
  O  O4  1  0.42443000  0.97432000  0.99336600  1
  O  O5  1  0.09552800  0.07135200  0.32150400  1
  O  O6  1  0.87495600  0.92009600  0.67101700  1
  O  O7  1  0.28505600  0.52776600  0.17194700  1
  O  O8  1  0.90757600  0.65638300  0.48391900  1
  O  O9  1  0.59089100  0.46030500  0.82713800  1
  O  O10  1  0.82666700  0.38399800  0.04302600  1
  O  O11  1  0.48217200  0.42448000  0.39121300  1
  O  O12  1  0.72982600  0.65519700  0.33457800  1
  O  O13  1  0.20343100  0.34053800  0.69113500  1
  O  O14  1  0.31350200  0.61984600  0.61501600  1
  O  O15  1  0.99207800  0.59805000  0.96272700  1
loop_
_geom_bond_atom_site_label_1
_geom_bond_atom_site_label_2
_geom_bond_distance
_geom_bond_site_symmetry_2
Na0 O10 2.383730 1_565
Na0 O4 2.384744 1_654
Na0 O4 2.425200 1_554
Na0 O15 2.666369 1_554
Na1 O0 2.321583 1_655
Na1 O5 2.369079 1_555
Na1 O0 2.397843 1_555
Na1 O5 2.490005 1_655
Na1 O12 2.861048 1_545
Na1 O11 2.867482 1_555
Na2 O14 2.355317 1_555
Na2 O13 2.370975 1_565
Na2 O6 2.412434 1_555
Na2 O6 2.439247 1_455
Na2 O1 2.870975 1_555
Na3 O7 2.214356 1_555
Na3 O5 2.386956 1_565
Na3 O12 2.389247 1_455
Na3 O0 2.499989 1_565
Na4 O9 2.271148 1_555
Na4 O15 2.363111 1_455
Na4 O15 2.366531 1_555
Na4 O4 2.721916 1_555
Na4 O10 2.742750 1_556
Na4 O3 2.936637 1_555
Na5 O7 2.268005 1_555
Na5 O0 2.398237 1_555
Na6 O9 2.291286 1_555
Na6 O6 2.395393 1_545
Na6 O13 2.453054 1_655
Na6 O13 2.475499 1_555
Na7 O5 2.302758 1_555
Na7 O11 2.391373 1_555
Na7 O11 2.411344 1_455
Na7 O8 2.586464 1_455
Na7 O12 2.610486 1_455
Na8 O7 2.276631 1_555
Na8 O7 2.357796 1_655
Na8 O10 2.504972 1_555
Na9 O14 2.256473 1_555
Na9 O8 2.321241 1_555
Na9 O8 2.322537 1_455
Na9 O1 2.590850 1_555
Na9 O11 2.592947 1_555
Na10 O9 2.306292 1_455
Na10 O9 2.312080 1_555
Na10 O2 2.458149 1_555
Na10 O13 2.712093 1_555
N0 Na5 2.453533 1_565
N0 Na8 2.481237 1_555
N0 Na3 2.614389 1_655
N0 Na0 2.627796 1_555
N0 Na5 2.680429 1_665
N0 Na1 2.739075 1_565
N1 O2 1.214367 1_565
N1 O3 1.430361 1_565
N1 Na4 2.512011 1_555
N2 O1 1.261813 1_555
N2 O8 1.288652 1_555
N2 Na9 2.573972 1_655
N2 Na7 2.978480 1_665
N3 O14 1.299577 1_555
N3 N6 1.306852 1_455
N3 O13 1.332695 1_555
N4 O10 1.271258 1_555
N4 O15 1.274119 1_554
N4 Na0 2.513679 1_555
N4 Na8 2.659082 1_555
N5 O12 1.259449 1_555
N5 O11 1.293663 1_555
N5 Na3 2.454835 1_555
N5 Na1 2.902555 1_555
N6 O6 1.341948 1_555
N6 Na10 2.634712 1_655
O0 O5 1.427622 1_555
O3 O4 1.421482 1_545
