# generated using pymatgen
data_Ba4SiGeS8
_symmetry_space_group_name_H-M   'P 1'
_cell_length_a   6.86025000
_cell_length_b   9.06367200
_cell_length_c   12.46545200
_cell_angle_alpha   90.00000000
_cell_angle_beta   90.00000000
_cell_angle_gamma   90.00000000
_symmetry_Int_Tables_number   1
_chemical_formula_structural   Ba4SiGeS8
_chemical_formula_sum   'Ba8 Si2 Ge2 S16'
_cell_volume   775.09003595
_cell_formula_units_Z   2
loop_
 _symmetry_equiv_pos_site_id
 _symmetry_equiv_pos_as_xyz
  1  'x, y, z'
loop_
 _atom_site_type_symbol
 _atom_site_label
 _atom_site_symmetry_multiplicity
 _atom_site_fract_x
 _atom_site_fract_y
 _atom_site_fract_z
 _atom_site_occupancy
  Ba  Ba0  1  0.50000000  0.37245700  0.32752800  1
  Ba  Ba1  1  0.50000000  0.87245700  0.67247200  1
  Ba  Ba2  1  0.00000000  0.62894400  0.16690000  1
  Ba  Ba3  1  0.00000000  0.12894400  0.83310000  1
  Ba  Ba4  1  0.50000000  0.01944800  0.08051300  1
  Ba  Ba5  1  0.50000000  0.51944800  0.91948700  1
  Ba  Ba6  1  0.00000000  0.98103500  0.41811500  1
  Ba  Ba7  1  0.00000000  0.48103500  0.58188500  1
  Si  Si0  1  0.00000000  0.73126100  0.82456000  1
  Si  Si1  1  0.00000000  0.23126100  0.17544000  1
  Ge  Ge0  1  0.50000000  0.27014600  0.67416300  1
  Ge  Ge1  1  0.50000000  0.77014600  0.32583700  1
  S  S0  1  0.25442200  0.32411500  0.10598900  1
  S  S1  1  0.74557800  0.82411500  0.89401100  1
  S  S2  1  0.76581800  0.67095200  0.39387400  1
  S  S3  1  0.23418200  0.17095200  0.60612600  1
  S  S4  1  0.23418200  0.67095200  0.39387400  1
  S  S5  1  0.76581800  0.17095200  0.60612600  1
  S  S6  1  0.74557800  0.32411500  0.10598900  1
  S  S7  1  0.25442200  0.82411500  0.89401100  1
  S  S8  1  0.50000000  0.19026200  0.84427900  1
  S  S9  1  0.50000000  0.69026200  0.15572100  1
  S  S10  1  0.00000000  0.80602200  0.66174800  1
  S  S11  1  0.00000000  0.30602200  0.33825200  1
  S  S12  1  0.50000000  0.01295000  0.34771000  1
  S  S13  1  0.50000000  0.51295000  0.65229000  1
  S  S14  1  0.00000000  0.99733900  0.15452900  1
  S  S15  1  0.00000000  0.49733900  0.84547100  1
loop_
_geom_bond_atom_site_label_1
_geom_bond_atom_site_label_2
_geom_bond_distance
_geom_bond_site_symmetry_2
Ba0 S6 3.264449 1_555
Ba0 S0 3.264449 1_555
Ba0 S12 3.268151 1_555
Ba0 S4 3.365849 1_555
Ba0 S2 3.365849 1_555
Ba0 S11 3.485141 1_555
Ba0 S11 3.485141 1_655
Ba0 S9 3.589407 1_555
Ba1 S1 3.264449 1_555
Ba1 S7 3.264449 1_555
Ba1 S13 3.268151 1_555
Ba1 S3 3.365849 1_565
Ba1 S5 3.365849 1_565
Ba1 S10 3.485141 1_555
Ba1 S10 3.485141 1_655
Ba1 S8 3.589407 1_565
Ba2 S2 3.275834 1_455
Ba2 S4 3.275834 1_555
Ba2 S14 3.342571 1_555
Ba2 S6 3.355053 1_455
Ba2 S0 3.355053 1_555
Ba2 S9 3.477650 1_455
Ba2 S9 3.477650 1_555
Ba2 S11 3.623385 1_555
Ba3 S3 3.275834 1_555
Ba3 S5 3.275834 1_455
Ba3 S15 3.342571 1_555
Ba3 S1 3.355053 1_445
Ba3 S7 3.355053 1_545
Ba3 S8 3.477650 1_455
Ba3 S8 3.477650 1_555
Ba3 S10 3.623385 1_545
Ba4 S9 3.127456 1_545
Ba4 S0 3.250307 1_555
Ba4 S6 3.250307 1_555
Ba4 S8 3.326945 1_554
Ba4 S12 3.331252 1_555
Ba4 S1 3.373067 1_544
Ba4 S7 3.373067 1_544
Ba4 S14 3.557694 1_645
Ba4 S14 3.557694 1_545
Ba5 S8 3.127456 1_555
Ba5 S1 3.250307 1_555
Ba5 S7 3.250307 1_555
Ba5 S9 3.326945 1_556
Ba5 S13 3.331252 1_555
Ba5 S6 3.373067 1_556
Ba5 S0 3.373067 1_556
Ba5 S15 3.557694 1_555
Ba5 S15 3.557694 1_655
Ba6 S11 3.109259 1_565
Ba6 S2 3.251332 1_455
Ba6 S4 3.251332 1_555
Ba6 S14 3.289040 1_555
Ba6 S3 3.322150 1_565
Ba6 S5 3.322150 1_465
Ba6 S10 3.426305 1_555
Ba6 S12 3.552417 1_565
Ba6 S12 3.552417 1_465
Ba7 S10 3.109259 1_555
Ba7 S3 3.251332 1_555
Ba7 S5 3.251332 1_455
Ba7 S15 3.289040 1_555
Ba7 S2 3.322150 1_455
Ba7 S4 3.322150 1_555
Ba7 S11 3.426305 1_555
Ba7 S13 3.552417 1_455
Ba7 S13 3.552417 1_555
Ge0 S5 2.202962 1_555
Ge0 S3 2.202962 1_555
Ge0 S13 2.217522 1_555
Ge0 S8 2.240774 1_555
Ge1 S4 2.202962 1_555
Ge1 S2 2.202962 1_555
Ge1 S12 2.217522 1_565
Ge1 S9 2.240774 1_555
S0 Si1 2.122311 1_555
S1 Si0 2.122311 1_655
S6 Si1 2.122311 1_655
S7 Si0 2.122311 1_555
S10 Si0 2.139656 1_555
S11 Si1 2.139656 1_555
S14 Si1 2.136156 1_565
S15 Si0 2.136156 1_555
