# generated using pymatgen
data_Yb2Fe17
_symmetry_space_group_name_H-M   'P 1'
_cell_length_a   8.48670154
_cell_length_b   8.48670154
_cell_length_c   8.24169700
_cell_angle_alpha   90.00000000
_cell_angle_beta   90.00000000
_cell_angle_gamma   119.99999645
_symmetry_Int_Tables_number   1
_chemical_formula_structural   Yb2Fe17
_chemical_formula_sum   'Yb4 Fe34'
_cell_volume   514.07342074
_cell_formula_units_Z   2
loop_
 _symmetry_equiv_pos_site_id
 _symmetry_equiv_pos_as_xyz
  1  'x, y, z'
loop_
 _atom_site_type_symbol
 _atom_site_label
 _atom_site_symmetry_multiplicity
 _atom_site_fract_x
 _atom_site_fract_y
 _atom_site_fract_z
 _atom_site_occupancy
  Yb  Yb0  1  0.00000000  0.00000000  0.25000000  1
  Yb  Yb1  1  0.00000000  0.00000000  0.75000000  1
  Yb  Yb2  1  0.33333300  0.66666700  0.75000000  1
  Yb  Yb3  1  0.66666700  0.33333300  0.25000000  1
  Fe  Fe0  1  0.33333300  0.66666700  0.39658800  1
  Fe  Fe1  1  0.66666700  0.33333300  0.60341200  1
  Fe  Fe2  1  0.66666700  0.33333300  0.89658800  1
  Fe  Fe3  1  0.33333300  0.66666700  0.10341200  1
  Fe  Fe4  1  0.50000000  0.50000000  0.50000000  1
  Fe  Fe5  1  0.50000000  0.00000000  0.50000000  1
  Fe  Fe6  1  0.00000000  0.50000000  0.50000000  1
  Fe  Fe7  1  0.50000000  0.50000000  0.00000000  1
  Fe  Fe8  1  0.50000000  0.00000000  0.00000000  1
  Fe  Fe9  1  0.00000000  0.50000000  0.00000000  1
  Fe  Fe10  1  0.32833300  0.37321900  0.25000000  1
  Fe  Fe11  1  0.62678100  0.95511400  0.25000000  1
  Fe  Fe12  1  0.04488600  0.67166700  0.25000000  1
  Fe  Fe13  1  0.62678100  0.67166700  0.25000000  1
  Fe  Fe14  1  0.04488600  0.37321900  0.25000000  1
  Fe  Fe15  1  0.32833300  0.95511400  0.25000000  1
  Fe  Fe16  1  0.67166700  0.62678100  0.75000000  1
  Fe  Fe17  1  0.37321900  0.04488600  0.75000000  1
  Fe  Fe18  1  0.95511400  0.32833300  0.75000000  1
  Fe  Fe19  1  0.37321900  0.32833300  0.75000000  1
  Fe  Fe20  1  0.95511400  0.62678100  0.75000000  1
  Fe  Fe21  1  0.67166700  0.04488600  0.75000000  1
  Fe  Fe22  1  0.16614300  0.83385700  0.51931900  1
  Fe  Fe23  1  0.16614300  0.33228700  0.51931900  1
  Fe  Fe24  1  0.66771300  0.83385700  0.51931900  1
  Fe  Fe25  1  0.83385700  0.16614300  0.48068100  1
  Fe  Fe26  1  0.83385700  0.66771300  0.48068100  1
  Fe  Fe27  1  0.33228700  0.16614300  0.48068100  1
  Fe  Fe28  1  0.83385700  0.16614300  0.01931900  1
  Fe  Fe29  1  0.83385700  0.66771300  0.01931900  1
  Fe  Fe30  1  0.33228700  0.16614300  0.01931900  1
  Fe  Fe31  1  0.16614300  0.83385700  0.98068100  1
  Fe  Fe32  1  0.16614300  0.33228700  0.98068100  1
  Fe  Fe33  1  0.66771300  0.83385700  0.98068100  1
loop_
_geom_bond_atom_site_label_1
_geom_bond_atom_site_label_2
_geom_bond_distance
_geom_bond_site_symmetry_2
Fe0 Fe3 2.416268 1_555
Fe0 Fe6 2.593915 1_555
Fe0 Fe5 2.593915 1_565
Fe0 Fe4 2.593922 1_555
Fe0 Fe22 2.657615 1_555
Fe0 Fe23 2.657615 1_555
Fe0 Fe24 2.657615 1_555
Fe0 Fe15 2.749143 1_555
Fe0 Fe12 2.749143 1_555
Fe0 Fe11 2.749147 1_555
Fe0 Fe14 2.749147 1_555
Fe0 Fe13 2.749151 1_555
Fe0 Fe10 2.749151 1_555
Fe0 Yb2 2.912715 1_555
Fe1 Fe2 2.416268 1_555
Fe1 Fe6 2.593915 1_655
Fe1 Fe5 2.593915 1_555
Fe1 Fe4 2.593922 1_555
Fe1 Fe25 2.657615 1_555
Fe1 Fe26 2.657615 1_555
Fe1 Fe27 2.657615 1_555
Fe1 Fe18 2.749143 1_555
Fe1 Fe21 2.749143 1_555
Fe1 Fe20 2.749147 1_555
Fe1 Fe17 2.749147 1_555
Fe1 Fe19 2.749151 1_555
Fe1 Fe16 2.749151 1_555
Fe1 Yb3 2.912715 1_555
Fe2 Fe9 2.593915 1_656
Fe2 Fe8 2.593915 1_556
Fe2 Fe7 2.593922 1_556
Fe2 Fe28 2.657615 1_556
Fe2 Fe29 2.657615 1_556
Fe2 Fe30 2.657615 1_556
Fe2 Fe21 2.749143 1_555
Fe2 Fe20 2.749147 1_555
Fe2 Yb3 2.912715 1_556
Fe3 Fe8 2.593915 1_565
Fe3 Fe9 2.593915 1_555
Fe3 Fe7 2.593922 1_555
Fe3 Fe31 2.657615 1_554
Fe3 Fe32 2.657615 1_554
Fe3 Fe33 2.657615 1_554
Fe3 Yb2 2.912715 1_554
Fe4 Yb2 3.201153 1_555
Fe4 Yb3 3.201153 1_555
Fe5 Yb2 3.201147 1_545
Fe5 Yb3 3.201147 1_555
Fe6 Yb2 3.201147 1_555
Fe6 Yb3 3.201147 1_455
Fe7 Yb3 3.201153 1_555
Fe7 Yb2 3.201153 1_554
Fe8 Yb2 3.201147 1_544
Fe8 Yb3 3.201147 1_555
Fe9 Yb2 3.201147 1_554
Fe9 Yb3 3.201147 1_455
Fe10 Fe14 2.405530 1_555
Fe10 Fe4 2.440901 1_555
Fe10 Fe7 2.440901 1_555
Fe10 Fe13 2.532839 1_555
Fe10 Fe32 2.542437 1_554
Fe10 Fe23 2.542437 1_555
Fe10 Fe30 2.600596 1_555
Fe10 Fe27 2.600596 1_555
Fe10 Fe3 2.749151 1_555
Fe10 Yb0 2.995155 1_555
Fe10 Yb3 3.054689 1_555
Fe11 Fe13 2.405530 1_555
Fe11 Fe8 2.440901 1_565
Fe11 Fe5 2.440901 1_565
Fe11 Fe15 2.532839 1_555
Fe11 Fe33 2.542433 1_554
Fe11 Fe24 2.542433 1_555
Fe11 Fe28 2.600593 1_565
Fe11 Fe25 2.600593 1_565
Fe11 Fe3 2.749147 1_555
Fe11 Yb0 2.995155 1_665
Fe11 Yb3 3.054680 1_565
Fe12 Fe15 2.405530 1_555
Fe12 Fe6 2.440901 1_555
Fe12 Fe9 2.440901 1_555
Fe12 Fe14 2.532839 1_555
Fe12 Fe22 2.542436 1_555
Fe12 Fe31 2.542436 1_554
Fe12 Fe29 2.600590 1_455
Fe12 Fe26 2.600590 1_455
Fe12 Fe3 2.749143 1_555
Fe12 Yb0 2.995155 1_565
Fe12 Yb3 3.054684 1_455
Fe13 Fe4 2.440901 1_555
Fe13 Fe7 2.440901 1_555
Fe13 Fe24 2.542437 1_555
Fe13 Fe33 2.542437 1_554
Fe13 Fe26 2.600596 1_555
Fe13 Fe29 2.600596 1_555
Fe13 Fe3 2.749151 1_555
Fe13 Yb0 2.995155 1_665
Fe13 Yb3 3.054689 1_555
Fe14 Fe6 2.440901 1_555
Fe14 Fe9 2.440901 1_555
Fe14 Fe23 2.542433 1_555
Fe14 Fe32 2.542433 1_554
Fe14 Fe28 2.600593 1_455
Fe14 Fe25 2.600593 1_455
Fe14 Fe3 2.749147 1_555
Fe14 Yb0 2.995155 1_555
Fe14 Yb3 3.054680 1_455
Fe15 Fe8 2.440901 1_565
Fe15 Fe5 2.440901 1_565
Fe15 Fe22 2.542436 1_555
Fe15 Fe31 2.542436 1_554
Fe15 Fe30 2.600590 1_565
Fe15 Fe27 2.600590 1_565
Fe15 Fe3 2.749143 1_555
Fe15 Yb0 2.995155 1_565
Fe15 Yb3 3.054684 1_565
Fe16 Fe20 2.405530 1_555
Fe16 Fe4 2.440901 1_555
Fe16 Fe7 2.440901 1_556
Fe16 Fe19 2.532839 1_555
Fe16 Fe26 2.542437 1_555
Fe16 Fe29 2.542437 1_556
Fe16 Fe24 2.600596 1_555
Fe16 Fe33 2.600596 1_555
Fe16 Fe2 2.749151 1_555
Fe16 Yb1 2.995155 1_665
Fe16 Yb2 3.054689 1_555
Fe17 Fe19 2.405530 1_555
Fe17 Fe8 2.440901 1_556
Fe17 Fe5 2.440901 1_555
Fe17 Fe21 2.532839 1_555
Fe17 Fe27 2.542433 1_555
Fe17 Fe30 2.542433 1_556
Fe17 Fe31 2.600593 1_545
Fe17 Fe22 2.600593 1_545
Fe17 Fe2 2.749147 1_555
Fe17 Yb1 2.995155 1_555
Fe17 Yb2 3.054680 1_545
Fe18 Fe21 2.405530 1_555
Fe18 Fe9 2.440901 1_656
Fe18 Fe6 2.440901 1_655
Fe18 Fe20 2.532839 1_555
Fe18 Fe25 2.542436 1_555
Fe18 Fe28 2.542436 1_556
Fe18 Fe32 2.600590 1_655
Fe18 Fe23 2.600590 1_655
Fe18 Fe2 2.749143 1_555
Fe18 Yb1 2.995155 1_655
Fe18 Yb2 3.054684 1_655
Fe19 Fe4 2.440901 1_555
Fe19 Fe7 2.440901 1_556
Fe19 Fe27 2.542437 1_555
Fe19 Fe30 2.542437 1_556
Fe19 Fe23 2.600596 1_555
Fe19 Fe32 2.600596 1_555
Fe19 Fe2 2.749151 1_555
Fe19 Yb1 2.995155 1_555
Fe19 Yb2 3.054689 1_555
Fe20 Fe6 2.440901 1_655
Fe20 Fe9 2.440901 1_656
Fe20 Fe26 2.542433 1_555
Fe20 Fe29 2.542433 1_556
Fe20 Fe22 2.600593 1_655
Fe20 Fe31 2.600593 1_655
Fe20 Yb1 2.995155 1_665
Fe20 Yb2 3.054680 1_655
Fe21 Fe8 2.440901 1_556
Fe21 Fe5 2.440901 1_555
Fe21 Fe25 2.542436 1_555
Fe21 Fe28 2.542436 1_556
Fe21 Fe33 2.600590 1_545
Fe21 Fe24 2.600590 1_545
Fe21 Yb1 2.995155 1_655
Fe21 Yb2 3.054684 1_545
Fe22 Fe5 2.458918 1_565
Fe22 Fe6 2.458918 1_555
Fe22 Fe27 2.462876 1_565
Fe22 Fe26 2.462876 1_455
Fe22 Yb1 3.094984 1_565
Fe22 Yb2 3.107142 1_555
Fe22 Yb0 3.300178 1_565
Fe23 Fe6 2.458911 1_555
Fe23 Fe4 2.458918 1_555
Fe23 Fe25 2.462876 1_455
Fe23 Fe27 2.462890 1_555
Fe23 Yb1 3.094990 1_555
Fe23 Yb2 3.107142 1_555
Fe23 Yb0 3.300184 1_555
Fe24 Fe5 2.458911 1_565
Fe24 Fe4 2.458918 1_555
Fe24 Fe25 2.462876 1_565
Fe24 Fe26 2.462890 1_555
Fe24 Yb1 3.094990 1_665
Fe24 Yb2 3.107142 1_555
Fe24 Yb0 3.300184 1_665
Fe25 Fe5 2.458918 1_555
Fe25 Fe6 2.458918 1_655
Fe25 Yb0 3.094984 1_655
Fe25 Yb3 3.107142 1_555
Fe25 Yb1 3.300178 1_655
Fe26 Fe6 2.458911 1_655
Fe26 Fe4 2.458918 1_555
Fe26 Yb0 3.094990 1_665
Fe26 Yb3 3.107142 1_555
Fe26 Yb1 3.300184 1_665
Fe27 Fe5 2.458911 1_555
Fe27 Fe4 2.458918 1_555
Fe27 Yb0 3.094990 1_555
Fe27 Yb3 3.107142 1_555
Fe27 Yb1 3.300184 1_555
Fe28 Fe8 2.458918 1_555
Fe28 Fe9 2.458918 1_655
Fe28 Fe32 2.462876 1_654
Fe28 Fe33 2.462876 1_544
Fe28 Yb0 3.094984 1_655
Fe28 Yb3 3.107142 1_555
Fe28 Yb1 3.300178 1_654
Fe29 Fe9 2.458911 1_655
Fe29 Fe7 2.458918 1_555
Fe29 Fe31 2.462876 1_654
Fe29 Fe33 2.462890 1_554
Fe29 Yb0 3.094990 1_665
Fe29 Yb3 3.107142 1_555
Fe29 Yb1 3.300184 1_664
Fe30 Fe8 2.458911 1_555
Fe30 Fe7 2.458918 1_555
Fe30 Fe31 2.462876 1_544
Fe30 Fe32 2.462890 1_554
Fe30 Yb0 3.094990 1_555
Fe30 Yb3 3.107142 1_555
Fe30 Yb1 3.300184 1_554
Fe31 Fe8 2.458918 1_566
Fe31 Fe9 2.458918 1_556
Fe31 Yb1 3.094984 1_565
Fe31 Yb2 3.107142 1_555
Fe31 Yb0 3.300178 1_566
Fe32 Fe9 2.458911 1_556
Fe32 Fe7 2.458918 1_556
Fe32 Yb1 3.094990 1_555
Fe32 Yb2 3.107142 1_555
Fe32 Yb0 3.300184 1_556
Fe33 Fe8 2.458911 1_566
Fe33 Fe7 2.458918 1_556
Fe33 Yb1 3.094990 1_665
Fe33 Yb2 3.107142 1_555
Fe33 Yb0 3.300184 1_666
