# generated using pymatgen
data_Nd3Ge13Os4
_symmetry_space_group_name_H-M   'P 1'
_cell_length_a   9.19155100
_cell_length_b   9.19155100
_cell_length_c   9.19155100
_cell_angle_alpha   90.00000000
_cell_angle_beta   90.00000000
_cell_angle_gamma   90.00000000
_symmetry_Int_Tables_number   1
_chemical_formula_structural   Nd3Ge13Os4
_chemical_formula_sum   'Nd6 Ge26 Os8'
_cell_volume   776.54459956
_cell_formula_units_Z   2
loop_
 _symmetry_equiv_pos_site_id
 _symmetry_equiv_pos_as_xyz
  1  'x, y, z'
loop_
 _atom_site_type_symbol
 _atom_site_label
 _atom_site_symmetry_multiplicity
 _atom_site_fract_x
 _atom_site_fract_y
 _atom_site_fract_z
 _atom_site_occupancy
  Nd  Nd0  1  0.00000000  0.50000000  0.75000000  1
  Nd  Nd1  1  0.50000000  0.25000000  0.00000000  1
  Nd  Nd2  1  0.75000000  0.00000000  0.50000000  1
  Nd  Nd3  1  0.00000000  0.50000000  0.25000000  1
  Nd  Nd4  1  0.50000000  0.75000000  0.00000000  1
  Nd  Nd5  1  0.25000000  0.00000000  0.50000000  1
  Ge  Ge0  1  0.50000000  0.50000000  0.50000000  1
  Ge  Ge1  1  0.00000000  0.00000000  0.00000000  1
  Ge  Ge2  1  0.79845700  0.35331000  0.50000000  1
  Ge  Ge3  1  0.64669000  0.50000000  0.79845700  1
  Ge  Ge4  1  0.50000000  0.20154300  0.64669000  1
  Ge  Ge5  1  0.20154300  0.64669000  0.50000000  1
  Ge  Ge6  1  0.35331000  0.50000000  0.20154300  1
  Ge  Ge7  1  0.50000000  0.79845700  0.35331000  1
  Ge  Ge8  1  0.79845700  0.64669000  0.50000000  1
  Ge  Ge9  1  0.64669000  0.50000000  0.20154300  1
  Ge  Ge10  1  0.20154300  0.35331000  0.50000000  1
  Ge  Ge11  1  0.35331000  0.50000000  0.79845700  1
  Ge  Ge12  1  0.50000000  0.79845700  0.64669000  1
  Ge  Ge13  1  0.50000000  0.20154300  0.35331000  1
  Ge  Ge14  1  0.29845700  0.00000000  0.85331000  1
  Ge  Ge15  1  0.14669000  0.29845700  0.00000000  1
  Ge  Ge16  1  0.00000000  0.14669000  0.70154300  1
  Ge  Ge17  1  0.70154300  0.00000000  0.14669000  1
  Ge  Ge18  1  0.85331000  0.70154300  0.00000000  1
  Ge  Ge19  1  0.00000000  0.85331000  0.29845700  1
  Ge  Ge20  1  0.29845700  0.00000000  0.14669000  1
  Ge  Ge21  1  0.14669000  0.70154300  0.00000000  1
  Ge  Ge22  1  0.70154300  0.00000000  0.85331000  1
  Ge  Ge23  1  0.85331000  0.29845700  0.00000000  1
  Ge  Ge24  1  0.00000000  0.14669000  0.29845700  1
  Ge  Ge25  1  0.00000000  0.85331000  0.70154300  1
  Os  Os0  1  0.75000000  0.25000000  0.75000000  1
  Os  Os1  1  0.25000000  0.75000000  0.25000000  1
  Os  Os2  1  0.75000000  0.75000000  0.25000000  1
  Os  Os3  1  0.25000000  0.25000000  0.75000000  1
  Os  Os4  1  0.25000000  0.75000000  0.75000000  1
  Os  Os5  1  0.75000000  0.25000000  0.25000000  1
  Os  Os6  1  0.25000000  0.25000000  0.25000000  1
  Os  Os7  1  0.75000000  0.75000000  0.75000000  1
loop_
_geom_bond_atom_site_label_1
_geom_bond_atom_site_label_2
_geom_bond_distance
_geom_bond_site_symmetry_2
Nd0 Os0 3.249704 1_455
Nd0 Os4 3.249704 1_555
Nd0 Os7 3.249704 1_455
Nd0 Os3 3.249704 1_555
Nd1 Os3 3.249704 1_554
Nd1 Os0 3.249704 1_554
Nd1 Os5 3.249704 1_555
Nd1 Os6 3.249704 1_555
Nd2 Os7 3.249704 1_545
Nd2 Os2 3.249704 1_545
Nd2 Os5 3.249704 1_555
Nd2 Os0 3.249704 1_555
Nd3 Os6 3.249704 1_555
Nd3 Os2 3.249704 1_455
Nd3 Os1 3.249704 1_555
Nd3 Os5 3.249704 1_455
Nd4 Os1 3.249704 1_555
Nd4 Os4 3.249704 1_554
Nd4 Os2 3.249704 1_555
Nd4 Os7 3.249704 1_554
Nd5 Os6 3.249704 1_555
Nd5 Os1 3.249704 1_545
Nd5 Os4 3.249704 1_545
Nd5 Os3 3.249704 1_555
Ge0 Ge6 3.056720 1_555
Ge0 Ge2 3.056720 1_555
Ge0 Ge11 3.056720 1_555
Ge0 Ge4 3.056720 1_555
Ge0 Ge9 3.056720 1_555
Ge0 Ge13 3.056720 1_555
Ge0 Ge10 3.056720 1_555
Ge0 Ge3 3.056720 1_555
Ge0 Ge8 3.056720 1_555
Ge0 Ge7 3.056720 1_555
Ge0 Ge5 3.056720 1_555
Ge0 Ge12 3.056720 1_555
Ge1 Ge17 3.056720 1_455
Ge1 Ge14 3.056720 1_554
Ge1 Ge18 3.056720 1_445
Ge1 Ge20 3.056720 1_555
Ge1 Ge22 3.056720 1_454
Ge1 Ge25 3.056720 1_544
Ge1 Ge24 3.056720 1_555
Ge1 Ge19 3.056720 1_545
Ge1 Ge15 3.056720 1_555
Ge1 Ge16 3.056720 1_554
Ge1 Ge23 3.056720 1_455
Ge1 Ge21 3.056720 1_545
Ge2 Os0 2.525939 1_555
Ge2 Os5 2.525939 1_555
Ge2 Ge8 2.696617 1_555
Ge2 Nd3 3.244989 1_655
Ge2 Nd0 3.244989 1_655
Ge2 Nd2 3.277868 1_555
Ge3 Os0 2.525939 1_555
Ge3 Os7 2.525939 1_555
Ge3 Nd4 3.244989 1_556
Ge3 Nd1 3.244989 1_556
Ge3 Nd0 3.277868 1_655
Ge4 Os3 2.525939 1_555
Ge4 Os0 2.525939 1_555
Ge4 Nd5 3.244989 1_555
Ge4 Nd2 3.244989 1_555
Ge4 Nd1 3.277868 1_556
Ge5 Os4 2.525939 1_555
Ge5 Os1 2.525939 1_555
Ge5 Nd0 3.244989 1_555
Ge5 Nd3 3.244989 1_555
Ge5 Nd5 3.277868 1_565
Ge6 Os1 2.525939 1_555
Ge6 Os6 2.525939 1_555
Ge6 Ge9 2.696617 1_555
Ge6 Nd4 3.244989 1_555
Ge6 Nd1 3.244989 1_555
Ge6 Nd3 3.277868 1_555
Ge7 Os1 2.525939 1_555
Ge7 Os2 2.525939 1_555
Ge7 Nd2 3.244989 1_565
Ge7 Nd5 3.244989 1_565
Ge7 Nd4 3.277868 1_555
Ge8 Os7 2.525939 1_555
Ge8 Os2 2.525939 1_555
Ge8 Nd3 3.244989 1_655
Ge8 Nd0 3.244989 1_655
Ge8 Nd2 3.277868 1_565
Ge9 Os5 2.525939 1_555
Ge9 Os2 2.525939 1_555
Ge9 Nd4 3.244989 1_555
Ge9 Nd1 3.244989 1_555
Ge9 Nd3 3.277868 1_655
Ge10 Os3 2.525939 1_555
Ge10 Os6 2.525939 1_555
Ge10 Ge5 2.696617 1_555
Ge10 Nd0 3.244989 1_555
Ge10 Nd3 3.244989 1_555
Ge10 Nd5 3.277868 1_555
Ge11 Os3 2.525939 1_555
Ge11 Os4 2.525939 1_555
Ge11 Ge3 2.696617 1_555
Ge11 Nd4 3.244989 1_556
Ge11 Nd1 3.244989 1_556
Ge11 Nd0 3.277868 1_555
Ge12 Os4 2.525939 1_555
Ge12 Os7 2.525939 1_555
Ge12 Ge7 2.696617 1_555
Ge12 Nd2 3.244989 1_565
Ge12 Nd5 3.244989 1_565
Ge12 Nd4 3.277868 1_556
Ge13 Os5 2.525939 1_555
Ge13 Os6 2.525939 1_555
Ge13 Ge4 2.696617 1_555
Ge13 Nd5 3.244989 1_555
Ge13 Nd2 3.244989 1_555
Ge13 Nd1 3.277868 1_555
Ge14 Os3 2.525939 1_555
Ge14 Os4 2.525939 1_545
Ge14 Ge20 2.696617 1_556
Ge14 Nd4 3.244989 1_546
Ge14 Nd1 3.244989 1_556
Ge14 Nd5 3.277868 1_555
Ge15 Os3 2.525939 1_554
Ge15 Os6 2.525939 1_555
Ge15 Ge23 2.696617 1_455
Ge15 Nd0 3.244989 1_554
Ge15 Nd3 3.244989 1_555
Ge15 Nd1 3.277868 1_555
Ge16 Os3 2.525939 1_555
Ge16 Os0 2.525939 1_455
Ge16 Ge25 2.696617 1_545
Ge16 Nd5 3.244989 1_555
Ge16 Nd2 3.244989 1_455
Ge16 Nd0 3.277868 1_555
Ge17 Os2 2.525939 1_545
Ge17 Os5 2.525939 1_555
Ge17 Ge22 2.696617 1_554
Ge17 Nd1 3.244989 1_555
Ge17 Nd4 3.244989 1_545
Ge17 Nd2 3.277868 1_555
Ge18 Os7 2.525939 1_554
Ge18 Os2 2.525939 1_555
Ge18 Ge21 2.696617 1_655
Ge18 Nd3 3.244989 1_655
Ge18 Nd0 3.244989 1_654
Ge18 Nd4 3.277868 1_555
Ge19 Os2 2.525939 1_455
Ge19 Os1 2.525939 1_555
Ge19 Ge24 2.696617 1_565
Ge19 Nd2 3.244989 1_465
Ge19 Nd5 3.244989 1_565
Ge19 Nd3 3.277868 1_555
Ge20 Os1 2.525939 1_545
Ge20 Os6 2.525939 1_555
Ge20 Nd4 3.244989 1_545
Ge20 Nd1 3.244989 1_555
Ge20 Nd5 3.277868 1_555
Ge21 Os4 2.525939 1_554
Ge21 Os1 2.525939 1_555
Ge21 Nd0 3.244989 1_554
Ge21 Nd3 3.244989 1_555
Ge21 Nd4 3.277868 1_555
Ge22 Os0 2.525939 1_555
Ge22 Os7 2.525939 1_545
Ge22 Nd4 3.244989 1_546
Ge22 Nd1 3.244989 1_556
Ge22 Nd2 3.277868 1_555
Ge23 Os5 2.525939 1_555
Ge23 Os0 2.525939 1_554
Ge23 Nd3 3.244989 1_655
Ge23 Nd0 3.244989 1_654
Ge23 Nd1 3.277868 1_555
Ge24 Os5 2.525939 1_455
Ge24 Os6 2.525939 1_555
Ge24 Nd5 3.244989 1_555
Ge24 Nd2 3.244989 1_455
Ge24 Nd3 3.277868 1_555
Ge25 Os4 2.525939 1_555
Ge25 Os7 2.525939 1_455
Ge25 Nd2 3.244989 1_465
Ge25 Nd5 3.244989 1_565
Ge25 Nd0 3.277868 1_555
