# generated using pymatgen
data_Ce2(SiPt)3
_symmetry_space_group_name_H-M   'P 1'
_cell_length_a   5.47009000
_cell_length_b   5.47009000
_cell_length_c   42.13901800
_cell_angle_alpha   90.00000000
_cell_angle_beta   90.00000000
_cell_angle_gamma   90.00000000
_symmetry_Int_Tables_number   1
_chemical_formula_structural   Ce2(SiPt)3
_chemical_formula_sum   'Ce16 Si24 Pt24'
_cell_volume   1260.87883409
_cell_formula_units_Z   8
loop_
 _symmetry_equiv_pos_site_id
 _symmetry_equiv_pos_as_xyz
  1  'x, y, z'
loop_
 _atom_site_type_symbol
 _atom_site_label
 _atom_site_symmetry_multiplicity
 _atom_site_fract_x
 _atom_site_fract_y
 _atom_site_fract_z
 _atom_site_occupancy
  Ce  Ce0_0  1  0.25000000  0.25000000  0.37690550  1
  Ce  Ce0_1  1  0.25000000  0.25000000  0.87690550  1
  Ce  Ce0_2  1  0.25000000  0.75000000  0.37690550  1
  Ce  Ce0_3  1  0.25000000  0.75000000  0.87690550  1
  Ce  Ce0_4  1  0.75000000  0.25000000  0.37690550  1
  Ce  Ce0_5  1  0.75000000  0.25000000  0.87690550  1
  Ce  Ce0_6  1  0.75000000  0.75000000  0.37690550  1
  Ce  Ce0_7  1  0.75000000  0.75000000  0.87690550  1
  Ce  Ce1_0  1  0.25000000  0.25000000  0.12309450  1
  Ce  Ce1_1  1  0.25000000  0.25000000  0.62309450  1
  Ce  Ce1_2  1  0.25000000  0.75000000  0.12309450  1
  Ce  Ce1_3  1  0.25000000  0.75000000  0.62309450  1
  Ce  Ce1_4  1  0.75000000  0.25000000  0.12309450  1
  Ce  Ce1_5  1  0.75000000  0.25000000  0.62309450  1
  Ce  Ce1_6  1  0.75000000  0.75000000  0.12309450  1
  Ce  Ce1_7  1  0.75000000  0.75000000  0.62309450  1
  Si  Si0_0  1  0.25000000  0.25000000  0.19385950  1
  Si  Si0_1  1  0.25000000  0.25000000  0.69385950  1
  Si  Si0_2  1  0.25000000  0.75000000  0.19385950  1
  Si  Si0_3  1  0.25000000  0.75000000  0.69385950  1
  Si  Si0_4  1  0.75000000  0.25000000  0.19385950  1
  Si  Si0_5  1  0.75000000  0.25000000  0.69385950  1
  Si  Si0_6  1  0.75000000  0.75000000  0.19385950  1
  Si  Si0_7  1  0.75000000  0.75000000  0.69385950  1
  Si  Si1_0  1  0.25000000  0.25000000  0.30614050  1
  Si  Si1_1  1  0.25000000  0.25000000  0.80614050  1
  Si  Si1_2  1  0.25000000  0.75000000  0.30614050  1
  Si  Si1_3  1  0.25000000  0.75000000  0.80614050  1
  Si  Si1_4  1  0.75000000  0.25000000  0.30614050  1
  Si  Si1_5  1  0.75000000  0.25000000  0.80614050  1
  Si  Si1_6  1  0.75000000  0.75000000  0.30614050  1
  Si  Si1_7  1  0.75000000  0.75000000  0.80614050  1
  Si  Si2_0  1  0.25000000  0.25000000  0.00000000  1
  Si  Si2_1  1  0.25000000  0.25000000  0.50000000  1
  Si  Si2_2  1  0.25000000  0.75000000  0.00000000  1
  Si  Si2_3  1  0.25000000  0.75000000  0.50000000  1
  Si  Si2_4  1  0.75000000  0.25000000  0.00000000  1
  Si  Si2_5  1  0.75000000  0.25000000  0.50000000  1
  Si  Si2_6  1  0.75000000  0.75000000  0.00000000  1
  Si  Si2_7  1  0.75000000  0.75000000  0.50000000  1
  Pt  Pt0_0  1  0.25000000  0.25000000  0.05611700  1
  Pt  Pt0_1  1  0.25000000  0.25000000  0.55611700  1
  Pt  Pt0_2  1  0.25000000  0.75000000  0.05611700  1
  Pt  Pt0_3  1  0.25000000  0.75000000  0.55611700  1
  Pt  Pt0_4  1  0.75000000  0.25000000  0.05611700  1
  Pt  Pt0_5  1  0.75000000  0.25000000  0.55611700  1
  Pt  Pt0_6  1  0.75000000  0.75000000  0.05611700  1
  Pt  Pt0_7  1  0.75000000  0.75000000  0.55611700  1
  Pt  Pt1_0  1  0.25000000  0.25000000  0.44388300  1
  Pt  Pt1_1  1  0.25000000  0.25000000  0.94388300  1
  Pt  Pt1_2  1  0.25000000  0.75000000  0.44388300  1
  Pt  Pt1_3  1  0.25000000  0.75000000  0.94388300  1
  Pt  Pt1_4  1  0.75000000  0.25000000  0.44388300  1
  Pt  Pt1_5  1  0.75000000  0.25000000  0.94388300  1
  Pt  Pt1_6  1  0.75000000  0.75000000  0.44388300  1
  Pt  Pt1_7  1  0.75000000  0.75000000  0.94388300  1
  Pt  Pt2_0  1  0.25000000  0.25000000  0.25000000  1
  Pt  Pt2_1  1  0.25000000  0.25000000  0.75000000  1
  Pt  Pt2_2  1  0.25000000  0.75000000  0.25000000  1
  Pt  Pt2_3  1  0.25000000  0.75000000  0.75000000  1
  Pt  Pt2_4  1  0.75000000  0.25000000  0.25000000  1
  Pt  Pt2_5  1  0.75000000  0.25000000  0.75000000  1
  Pt  Pt2_6  1  0.75000000  0.75000000  0.25000000  1
  Pt  Pt2_7  1  0.75000000  0.75000000  0.75000000  1
loop_
_geom_bond_atom_site_label_1
_geom_bond_atom_site_label_2
_geom_bond_distance
_geom_bond_site_symmetry_2
Ce0_0 Ce0_4 2.735045 1_455
Ce0_0 Ce0_2 2.735045 1_555
Ce0_0 Ce0_4 2.735045 1_555
Ce0_0 Ce0_2 2.735045 1_545
Ce0_0 Pt1_0 2.822366 1_555
Ce0_0 Si1_0 2.981968 1_555
Ce0_1 Ce0_5 2.735045 1_555
Ce0_1 Ce0_3 2.735045 1_545
Ce0_1 Ce0_3 2.735045 1_555
Ce0_1 Ce0_5 2.735045 1_455
Ce0_1 Pt1_1 2.822366 1_555
Ce0_1 Si1_1 2.981968 1_555
Ce0_2 Ce0_6 2.735045 1_455
Ce0_2 Ce0_6 2.735045 1_555
Ce0_2 Pt1_2 2.822366 1_555
Ce0_2 Si1_2 2.981968 1_555
Ce0_3 Ce0_7 2.735045 1_455
Ce0_3 Ce0_7 2.735045 1_555
Ce0_3 Pt1_3 2.822366 1_555
Ce0_3 Si1_3 2.981968 1_555
Ce0_4 Ce0_6 2.735045 1_555
Ce0_4 Ce0_6 2.735045 1_545
Ce0_4 Pt1_4 2.822366 1_555
Ce0_4 Si1_4 2.981968 1_555
Ce0_5 Ce0_7 2.735045 1_545
Ce0_5 Ce0_7 2.735045 1_555
Ce0_5 Pt1_5 2.822366 1_555
Ce0_5 Si1_5 2.981968 1_555
Ce0_6 Pt1_6 2.822366 1_555
Ce0_6 Si1_6 2.981968 1_555
Ce0_7 Pt1_7 2.822366 1_555
Ce0_7 Si1_7 2.981968 1_555
Ce1_0 Ce1_4 2.735045 1_455
Ce1_0 Ce1_4 2.735045 1_555
Ce1_0 Ce1_2 2.735045 1_555
Ce1_0 Ce1_2 2.735045 1_545
Ce1_0 Pt0_0 2.822366 1_555
Ce1_0 Si0_0 2.981968 1_555
Ce1_1 Ce1_5 2.735045 1_455
Ce1_1 Ce1_5 2.735045 1_555
Ce1_1 Ce1_3 2.735045 1_545
Ce1_1 Ce1_3 2.735045 1_555
Ce1_1 Pt0_1 2.822366 1_555
Ce1_1 Si0_1 2.981968 1_555
Ce1_2 Ce1_6 2.735045 1_555
Ce1_2 Ce1_6 2.735045 1_455
Ce1_2 Pt0_2 2.822366 1_555
Ce1_2 Si0_2 2.981968 1_555
Ce1_3 Ce1_7 2.735045 1_555
Ce1_3 Ce1_7 2.735045 1_455
Ce1_3 Pt0_3 2.822366 1_555
Ce1_3 Si0_3 2.981968 1_555
Ce1_4 Ce1_6 2.735045 1_555
Ce1_4 Ce1_6 2.735045 1_545
Ce1_4 Pt0_4 2.822366 1_555
Ce1_4 Si0_4 2.981968 1_555
Ce1_5 Ce1_7 2.735045 1_555
Ce1_5 Ce1_7 2.735045 1_545
Ce1_5 Pt0_5 2.822366 1_555
Ce1_5 Si0_5 2.981968 1_555
Ce1_6 Pt0_6 2.822366 1_555
Ce1_6 Si0_6 2.981968 1_555
Ce1_7 Pt0_7 2.822366 1_555
Ce1_7 Si0_7 2.981968 1_555
Si0_0 Si0_4 2.735045 1_555
Si0_0 Si0_2 2.735045 1_545
Si0_0 Si0_2 2.735045 1_555
Si0_0 Si0_4 2.735045 1_455
Si0_1 Si0_5 2.735045 1_555
Si0_1 Si0_5 2.735045 1_455
Si0_1 Si0_3 2.735045 1_545
Si0_1 Si0_3 2.735045 1_555
Si0_2 Si0_6 2.735045 1_455
Si0_2 Si0_6 2.735045 1_555
Si0_3 Si0_7 2.735045 1_455
Si0_3 Si0_7 2.735045 1_555
Si0_4 Si0_6 2.735045 1_545
Si0_4 Si0_6 2.735045 1_555
Si0_5 Si0_7 2.735045 1_545
Si0_5 Si0_7 2.735045 1_555
Si1_0 Si1_4 2.735045 1_455
Si1_0 Si1_4 2.735045 1_555
Si1_0 Si1_2 2.735045 1_555
Si1_0 Si1_2 2.735045 1_545
Si1_1 Si1_5 2.735045 1_555
Si1_1 Si1_3 2.735045 1_555
Si1_1 Si1_3 2.735045 1_545
Si1_1 Si1_5 2.735045 1_455
Si1_2 Si1_6 2.735045 1_555
Si1_2 Si1_6 2.735045 1_455
Si1_3 Si1_7 2.735045 1_555
Si1_3 Si1_7 2.735045 1_455
Si1_4 Si1_6 2.735045 1_545
Si1_4 Si1_6 2.735045 1_555
Si1_5 Si1_7 2.735045 1_555
Si1_5 Si1_7 2.735045 1_545
Pt0_0 Si2_0 2.364715 1_555
Pt0_1 Si2_1 2.364715 1_555
Pt0_2 Si2_2 2.364715 1_555
Pt0_3 Si2_3 2.364715 1_555
Pt0_4 Si2_4 2.364715 1_555
Pt0_5 Si2_5 2.364715 1_555
Pt0_6 Si2_6 2.364715 1_555
Pt0_7 Si2_7 2.364715 1_555
Pt1_0 Si2_1 2.364715 1_555
Pt1_1 Si2_0 2.364715 1_556
Pt1_2 Si2_3 2.364715 1_555
Pt1_3 Si2_2 2.364715 1_556
Pt1_4 Si2_5 2.364715 1_555
Pt1_5 Si2_4 2.364715 1_556
Pt1_6 Si2_7 2.364715 1_555
Pt1_7 Si2_6 2.364715 1_556
Pt2_0 Si1_0 2.365706 1_555
Pt2_0 Si0_0 2.365706 1_555
Pt2_1 Si1_1 2.365706 1_555
Pt2_1 Si0_1 2.365706 1_555
Pt2_2 Si1_2 2.365706 1_555
Pt2_2 Si0_2 2.365706 1_555
Pt2_3 Si1_3 2.365706 1_555
Pt2_3 Si0_3 2.365706 1_555
Pt2_4 Si1_4 2.365706 1_555
Pt2_4 Si0_4 2.365706 1_555
Pt2_5 Si1_5 2.365706 1_555
Pt2_5 Si0_5 2.365706 1_555
Pt2_6 Si1_6 2.365706 1_555
Pt2_6 Si0_6 2.365706 1_555
Pt2_7 Si1_7 2.365706 1_555
Pt2_7 Si0_7 2.365706 1_555
