# generated using pymatgen
data_Ba2Ca(PdO2)3
_symmetry_space_group_name_H-M   'P 1'
_cell_length_a   9.57608326
_cell_length_b   8.82222610
_cell_length_c   7.31242536
_cell_angle_alpha   72.12539991
_cell_angle_beta   61.25962733
_cell_angle_gamma   46.61497276
_symmetry_Int_Tables_number   1
_chemical_formula_structural   Ba2Ca(PdO2)3
_chemical_formula_sum   'Ba4 Ca2 Pd6 O12'
_cell_volume   393.39379948
_cell_formula_units_Z   2
loop_
 _symmetry_equiv_pos_site_id
 _symmetry_equiv_pos_as_xyz
  1  'x, y, z'
loop_
 _atom_site_type_symbol
 _atom_site_label
 _atom_site_symmetry_multiplicity
 _atom_site_fract_x
 _atom_site_fract_y
 _atom_site_fract_z
 _atom_site_occupancy
  Ba  Ba0  1  0.75000000  0.75000000  0.75000000  1
  Ba  Ba1  1  0.25000000  0.25000000  0.25000000  1
  Ba  Ba2  1  0.23298000  0.76702000  0.23298000  1
  Ba  Ba3  1  0.76702000  0.23298000  0.76702000  1
  Ca  Ca0  1  0.67063000  0.67063000  0.32937000  1
  Ca  Ca1  1  0.32937000  0.32937000  0.67063000  1
  Pd  Pd0  1  0.68993000  0.00646600  0.31007000  1
  Pd  Pd1  1  0.99353400  0.31007000  0.00646600  1
  Pd  Pd2  1  0.00646600  0.68993000  0.99353400  1
  Pd  Pd3  1  0.31007000  0.99353400  0.68993000  1
  Pd  Pd4  1  0.32534000  0.67466000  0.67466000  1
  Pd  Pd5  1  0.67466000  0.32534000  0.32534000  1
  O  O0  1  0.32800000  0.46876000  0.90580400  1
  O  O1  1  0.29743600  0.90580400  0.46876000  1
  O  O2  1  0.90580400  0.29743600  0.32800000  1
  O  O3  1  0.46876000  0.32800000  0.29743600  1
  O  O4  1  0.67200000  0.53124000  0.09419600  1
  O  O5  1  0.70256400  0.09419600  0.53124000  1
  O  O6  1  0.68727800  0.92210900  0.07789100  1
  O  O7  1  0.53124000  0.67200000  0.70256400  1
  O  O8  1  0.92210900  0.68727800  0.31272200  1
  O  O9  1  0.07789100  0.31272200  0.68727800  1
  O  O10  1  0.31272200  0.07789100  0.92210900  1
  O  O11  1  0.09419600  0.70256400  0.67200000  1
loop_
_geom_bond_atom_site_label_1
_geom_bond_atom_site_label_2
_geom_bond_distance
_geom_bond_site_symmetry_2
Ba0 O7 2.794285 1_555
Ba0 O4 2.794285 1_556
Ba0 O11 2.794285 1_655
Ba0 O5 2.794285 1_565
Ba0 O6 2.830572 1_556
Ba0 O9 2.830572 1_655
Ba0 O10 2.830572 1_565
Ba0 O8 2.830572 1_555
Ba1 O3 2.794285 1_555
Ba1 O0 2.794285 1_554
Ba1 O1 2.794285 1_545
Ba1 O2 2.794285 1_455
Ba1 O9 2.830572 1_555
Ba1 O8 2.830572 1_455
Ba1 O6 2.830572 1_545
Ba1 O10 2.830572 1_554
Ba2 O1 2.865346 1_555
Ba2 O3 2.865346 1_555
Ba2 O4 2.865346 1_555
Ba2 O11 2.865346 1_555
Ba2 O10 3.263886 1_564
Ba2 O8 3.263886 1_455
Ba3 O2 2.865346 1_555
Ba3 O7 2.865346 1_555
Ba3 O5 2.865346 1_555
Ba3 O0 2.865346 1_555
Ba3 O9 3.263886 1_655
Ba3 O6 3.263886 1_546
Ca0 O7 2.392504 1_555
Ca0 O4 2.392504 1_555
Ca0 O1 2.392504 1_555
Ca0 O2 2.392504 1_555
Ca0 O8 2.455349 1_555
Ca0 O6 2.455349 1_555
Ca1 O0 2.392504 1_555
Ca1 O11 2.392504 1_555
Ca1 O5 2.392504 1_555
Ca1 O3 2.392504 1_555
Ca1 O10 2.455349 1_555
Ca1 O9 2.455349 1_555
O0 Pd4 2.061613 1_555
O0 Pd2 2.077140 1_555
O1 Pd4 2.061613 1_555
O1 Pd3 2.077140 1_555
O2 Pd5 2.061613 1_555
O2 Pd1 2.077140 1_555
O3 Pd5 2.061613 1_555
O3 Pd0 2.077140 1_555
O4 Pd5 2.061613 1_555
O4 Pd1 2.077140 1_555
O5 Pd5 2.061613 1_555
O5 Pd0 2.077140 1_555
O6 Pd2 2.068833 1_654
O6 Pd0 2.068833 1_565
O7 Pd4 2.061613 1_555
O7 Pd3 2.077140 1_555
O8 Pd0 2.068833 1_565
O8 Pd2 2.068833 1_654
O9 Pd1 2.068833 1_456
O9 Pd3 2.068833 1_545
O10 Pd3 2.068833 1_545
O10 Pd1 2.068833 1_456
O11 Pd4 2.061613 1_555
O11 Pd2 2.077140 1_555
