# generated using pymatgen
data_HfNi3
_symmetry_space_group_name_H-M   'P 1'
_cell_length_a   5.22005629
_cell_length_b   5.22005624
_cell_length_c   21.19139179
_cell_angle_alpha   90.00000000
_cell_angle_beta   90.00000000
_cell_angle_gamma   120.00000026
_symmetry_Int_Tables_number   1
_chemical_formula_structural   HfNi3
_chemical_formula_sum   'Hf10 Ni30'
_cell_volume   500.08114418
_cell_formula_units_Z   10
loop_
 _symmetry_equiv_pos_site_id
 _symmetry_equiv_pos_as_xyz
  1  'x, y, z'
loop_
 _atom_site_type_symbol
 _atom_site_label
 _atom_site_symmetry_multiplicity
 _atom_site_fract_x
 _atom_site_fract_y
 _atom_site_fract_z
 _atom_site_occupancy
  Hf  Hf0  1  0.33333300  0.66666700  0.95387856  1
  Hf  Hf1  1  0.66666700  0.33333300  0.45387856  1
  Hf  Hf2  1  0.66666700  0.33333300  0.04612144  1
  Hf  Hf3  1  0.33333300  0.66666700  0.54612144  1
  Hf  Hf4  1  0.33333300  0.66666700  0.15104011  1
  Hf  Hf5  1  0.66666700  0.33333300  0.65104011  1
  Hf  Hf6  1  0.66666700  0.33333300  0.84895989  1
  Hf  Hf7  1  0.33333300  0.66666700  0.34895989  1
  Hf  Hf8  1  0.00000000  0.00000000  0.75000000  1
  Hf  Hf9  1  0.00000000  0.00000000  0.25000000  1
  Ni  Ni0  1  0.83241195  0.16758905  0.35048797  1
  Ni  Ni1  1  0.83241195  0.66482291  0.35048797  1
  Ni  Ni2  1  0.33517709  0.16758905  0.35048797  1
  Ni  Ni3  1  0.66482291  0.83241195  0.85048797  1
  Ni  Ni4  1  0.16758905  0.33517709  0.64951203  1
  Ni  Ni5  1  0.16758905  0.83241195  0.85048797  1
  Ni  Ni6  1  0.16758905  0.33517709  0.85048797  1
  Ni  Ni7  1  0.83241195  0.16758905  0.14951203  1
  Ni  Ni8  1  0.33517709  0.16758905  0.14951203  1
  Ni  Ni9  1  0.66482291  0.83241195  0.64951203  1
  Ni  Ni10  1  0.51118163  0.02236226  0.25000000  1
  Ni  Ni11  1  0.48881837  0.51118163  0.75000000  1
  Ni  Ni12  1  0.02236226  0.51118163  0.75000000  1
  Ni  Ni13  1  0.97763774  0.48881837  0.25000000  1
  Ni  Ni14  1  0.51118163  0.48881837  0.25000000  1
  Ni  Ni15  1  0.48881837  0.97763774  0.75000000  1
  Ni  Ni16  1  0.15577787  0.31155574  0.05122590  1
  Ni  Ni17  1  0.84422213  0.15577787  0.55122590  1
  Ni  Ni18  1  0.31155574  0.15577787  0.55122590  1
  Ni  Ni19  1  0.68844426  0.84422213  0.05122590  1
  Ni  Ni20  1  0.15577787  0.84422213  0.05122590  1
  Ni  Ni21  1  0.84422213  0.68844426  0.94877410  1
  Ni  Ni22  1  0.84422213  0.15577787  0.94877410  1
  Ni  Ni23  1  0.84422213  0.68844426  0.55122590  1
  Ni  Ni24  1  0.31155574  0.15577787  0.94877410  1
  Ni  Ni25  1  0.68844426  0.84422213  0.44877410  1
  Ni  Ni26  1  0.15577787  0.31155574  0.44877410  1
  Ni  Ni27  1  0.15577787  0.84422213  0.44877410  1
  Ni  Ni28  1  0.83241195  0.66482291  0.14951203  1
  Ni  Ni29  1  0.16758905  0.83241195  0.64951203  1
loop_
_geom_bond_atom_site_label_1
_geom_bond_atom_site_label_2
_geom_bond_distance
_geom_bond_site_symmetry_2
Hf0 Ni20 2.613963 1_556
Hf0 Ni16 2.613966 1_556
Hf0 Ni19 2.613966 1_556
Hf0 Ni24 2.614121 1_565
Hf0 Ni21 2.614121 1_455
Hf0 Ni22 2.614123 1_455
Hf0 Ni22 2.614123 1_565
Hf0 Ni24 2.614126 1_555
Hf0 Ni21 2.614126 1_555
Hf0 Ni5 2.654454 1_555
Hf0 Ni6 2.654457 1_555
Hf0 Ni3 2.654457 1_555
Hf1 Ni17 2.613963 1_555
Hf1 Ni23 2.613966 1_555
Hf1 Ni18 2.613966 1_555
Hf1 Ni25 2.614121 1_545
Hf1 Ni26 2.614121 1_655
Hf1 Ni27 2.614123 1_655
Hf1 Ni27 2.614123 1_545
Hf1 Ni25 2.614126 1_555
Hf1 Ni26 2.614126 1_555
Hf1 Ni0 2.654454 1_555
Hf1 Ni1 2.654457 1_555
Hf1 Ni2 2.654457 1_555
Hf2 Ni22 2.613963 1_554
Hf2 Ni21 2.613966 1_554
Hf2 Ni24 2.613966 1_554
Hf2 Ni19 2.614121 1_545
Hf2 Ni16 2.614121 1_655
Hf2 Ni20 2.614123 1_655
Hf2 Ni20 2.614123 1_545
Hf2 Ni19 2.614126 1_555
Hf2 Ni16 2.614126 1_555
Hf2 Ni7 2.654454 1_555
Hf2 Ni28 2.654457 1_555
Hf2 Ni8 2.654457 1_555
Hf3 Ni27 2.613963 1_555
Hf3 Ni26 2.613966 1_555
Hf3 Ni25 2.613966 1_555
Hf3 Ni18 2.614121 1_565
Hf3 Ni23 2.614121 1_455
Hf3 Ni17 2.614123 1_455
Hf3 Ni17 2.614123 1_565
Hf3 Ni18 2.614126 1_555
Hf3 Ni23 2.614126 1_555
Hf3 Ni29 2.654454 1_555
Hf3 Ni4 2.654457 1_555
Hf3 Ni9 2.654457 1_555
Hf4 Ni28 2.610237 1_455
Hf4 Ni7 2.610240 1_455
Hf4 Ni8 2.610242 1_555
Hf4 Ni8 2.610242 1_565
Hf4 Ni7 2.610245 1_565
Hf4 Ni28 2.610248 1_555
Hf4 Ni10 2.642623 1_565
Hf4 Ni13 2.642623 1_455
Hf4 Ni14 2.642629 1_555
Hf4 Ni20 2.655413 1_555
Hf4 Ni16 2.655416 1_555
Hf4 Ni19 2.655416 1_555
Hf5 Ni9 2.610237 1_545
Hf5 Ni29 2.610240 1_545
Hf5 Ni4 2.610242 1_555
Hf5 Ni4 2.610242 1_655
Hf5 Ni29 2.610245 1_655
Hf5 Ni9 2.610247 1_555
Hf5 Ni15 2.642623 1_545
Hf5 Ni12 2.642623 1_655
Hf5 Ni11 2.642629 1_555
Hf5 Ni17 2.655413 1_555
Hf5 Ni23 2.655416 1_555
Hf5 Ni18 2.655416 1_555
Hf6 Ni3 2.610237 1_545
Hf6 Ni5 2.610240 1_545
Hf6 Ni6 2.610242 1_555
Hf6 Ni6 2.610242 1_655
Hf6 Ni5 2.610245 1_655
Hf6 Ni3 2.610247 1_555
Hf6 Ni15 2.642623 1_545
Hf6 Ni12 2.642623 1_655
Hf6 Ni11 2.642629 1_555
Hf6 Ni22 2.655413 1_555
Hf6 Ni21 2.655416 1_555
Hf6 Ni24 2.655416 1_555
Hf7 Ni1 2.610237 1_455
Hf7 Ni0 2.610240 1_455
Hf7 Ni2 2.610242 1_555
Hf7 Ni2 2.610242 1_565
Hf7 Ni0 2.610245 1_565
Hf7 Ni1 2.610248 1_555
Hf7 Ni10 2.642623 1_565
Hf7 Ni13 2.642623 1_455
Hf7 Ni14 2.642629 1_555
Hf7 Ni27 2.655413 1_555
Hf7 Ni26 2.655416 1_555
Hf7 Ni25 2.655416 1_555
Hf8 Ni12 2.611983 1_545
Hf8 Ni15 2.611983 1_545
Hf8 Ni11 2.611985 1_555
Hf8 Ni11 2.611985 1_445
Hf8 Ni12 2.611988 1_555
Hf8 Ni15 2.611988 1_445
Hf8 Ni6 2.613546 1_555
Hf8 Ni4 2.613546 1_555
Hf8 Ni9 2.613546 1_445
Hf8 Ni3 2.613546 1_445
Hf8 Ni5 2.613546 1_545
Hf8 Ni29 2.613546 1_545
Hf9 Ni13 2.611983 1_455
Hf9 Ni10 2.611983 1_455
Hf9 Ni14 2.611985 1_445
Hf9 Ni14 2.611985 1_555
Hf9 Ni13 2.611988 1_445
Hf9 Ni10 2.611988 1_555
Hf9 Ni1 2.613546 1_445
Hf9 Ni28 2.613546 1_445
Hf9 Ni2 2.613546 1_555
Hf9 Ni8 2.613546 1_555
Hf9 Ni0 2.613546 1_455
Hf9 Ni7 2.613546 1_455
Ni0 Ni26 2.546305 1_655
Ni0 Ni25 2.546308 1_545
Ni0 Ni13 2.578754 1_555
Ni0 Ni10 2.578756 1_555
Ni0 Ni1 2.595589 1_555
Ni0 Ni2 2.595594 1_555
Ni0 Ni2 2.624462 1_655
Ni0 Ni1 2.624468 1_545
Ni1 Ni27 2.546305 1_655
Ni1 Ni25 2.546308 1_555
Ni1 Ni14 2.578756 1_555
Ni1 Ni13 2.578756 1_555
Ni1 Ni2 2.595591 1_555
Ni1 Ni2 2.624465 1_665
Ni2 Ni26 2.546305 1_555
Ni2 Ni27 2.546308 1_545
Ni3 Ni5 2.595589 1_555
Ni3 Ni6 2.595591 1_555
Ni3 Ni6 2.624465 1_665
Ni3 Ni5 2.624468 1_655
Ni4 Ni9 2.595591 1_555
Ni4 Ni9 2.624465 1_445
Ni5 Ni6 2.595594 1_555
Ni5 Ni6 2.624462 1_565
Ni7 Ni8 2.595594 1_555
Ni7 Ni8 2.624462 1_655
Ni10 Ni14 2.434927 1_555
Ni10 Ni13 2.434927 1_555
Ni10 Ni7 2.578756 1_555
Ni10 Ni2 2.578759 1_555
Ni10 Ni8 2.578759 1_555
Ni10 Ni14 2.785129 1_545
Ni10 Ni13 2.785129 1_445
Ni11 Ni15 2.434927 1_555
Ni11 Ni12 2.434927 1_555
Ni11 Ni6 2.578754 1_555
Ni11 Ni4 2.578754 1_555
Ni11 Ni3 2.578756 1_555
Ni11 Ni9 2.578756 1_555
Ni11 Ni15 2.785129 1_545
Ni11 Ni12 2.785129 1_655
Ni12 Ni15 2.434927 1_555
Ni12 Ni29 2.578756 1_555
Ni12 Ni5 2.578756 1_555
Ni12 Ni4 2.578759 1_555
Ni12 Ni6 2.578759 1_555
Ni12 Ni15 2.785129 1_445
Ni13 Ni14 2.434927 1_555
Ni13 Ni7 2.578754 1_555
Ni13 Ni28 2.578756 1_555
Ni13 Ni14 2.785129 1_655
Ni14 Ni2 2.578754 1_555
Ni14 Ni8 2.578754 1_555
Ni14 Ni28 2.578756 1_555
Ni15 Ni5 2.578754 1_555
Ni15 Ni29 2.578754 1_555
Ni15 Ni3 2.578756 1_555
Ni15 Ni9 2.578756 1_555
Ni16 Ni20 2.439508 1_545
Ni16 Ni19 2.439508 1_445
Ni16 Ni8 2.546305 1_555
Ni16 Ni7 2.546305 1_455
Ni16 Ni24 2.587932 1_554
Ni16 Ni22 2.587932 1_454
Ni16 Ni20 2.780549 1_555
Ni16 Ni19 2.780549 1_555
Ni17 Ni23 2.439508 1_545
Ni17 Ni18 2.439508 1_655
Ni17 Ni9 2.546305 1_545
Ni17 Ni4 2.546308 1_655
Ni17 Ni25 2.587932 1_545
Ni17 Ni26 2.587932 1_655
Ni17 Ni23 2.780549 1_555
Ni17 Ni18 2.780549 1_555
Ni18 Ni23 2.439508 1_445
Ni18 Ni4 2.546305 1_555
Ni18 Ni29 2.546305 1_545
Ni18 Ni27 2.587932 1_545
Ni18 Ni26 2.587932 1_555
Ni18 Ni23 2.780549 1_555
Ni19 Ni20 2.439508 1_655
Ni19 Ni28 2.546308 1_555
Ni19 Ni7 2.546308 1_565
Ni19 Ni22 2.587932 1_564
Ni19 Ni21 2.587932 1_554
Ni19 Ni20 2.780549 1_555
Ni20 Ni28 2.546305 1_455
Ni20 Ni8 2.546308 1_565
Ni20 Ni24 2.587932 1_564
Ni20 Ni21 2.587932 1_454
Ni21 Ni22 2.439508 1_565
Ni21 Ni24 2.439508 1_665
Ni21 Ni3 2.546308 1_555
Ni21 Ni5 2.546308 1_655
Ni21 Ni22 2.780549 1_555
Ni21 Ni24 2.780549 1_555
Ni22 Ni24 2.439508 1_655
Ni22 Ni3 2.546305 1_545
Ni22 Ni6 2.546308 1_655
Ni22 Ni24 2.780549 1_555
Ni23 Ni9 2.546308 1_555
Ni23 Ni29 2.546308 1_655
Ni23 Ni25 2.587932 1_555
Ni23 Ni27 2.587932 1_655
Ni24 Ni6 2.546305 1_555
Ni24 Ni5 2.546305 1_545
Ni25 Ni26 2.439508 1_665
Ni25 Ni27 2.439508 1_655
Ni25 Ni26 2.780549 1_555
Ni25 Ni27 2.780549 1_555
Ni26 Ni27 2.439508 1_545
Ni26 Ni27 2.780549 1_555
Ni28 Ni7 2.595589 1_555
Ni28 Ni8 2.595591 1_555
Ni28 Ni8 2.624465 1_665
Ni28 Ni7 2.624468 1_565
Ni29 Ni9 2.595589 1_555
Ni29 Ni4 2.595594 1_555
Ni29 Ni4 2.624462 1_565
Ni29 Ni9 2.624468 1_455
