# generated using pymatgen
data_Li47(CoO4)8
_symmetry_space_group_name_H-M   'P 1'
_cell_length_a   9.27517300
_cell_length_b   9.39689065
_cell_length_c   9.40974201
_cell_angle_alpha   89.88635614
_cell_angle_beta   89.96757006
_cell_angle_gamma   89.93716108
_symmetry_Int_Tables_number   1
_chemical_formula_structural   Li47(CoO4)8
_chemical_formula_sum   'Li47 Co8 O32'
_cell_volume   820.13004743
_cell_formula_units_Z   1
loop_
 _symmetry_equiv_pos_site_id
 _symmetry_equiv_pos_as_xyz
  1  'x, y, z'
loop_
 _atom_site_type_symbol
 _atom_site_label
 _atom_site_symmetry_multiplicity
 _atom_site_fract_x
 _atom_site_fract_y
 _atom_site_fract_z
 _atom_site_occupancy
  Li  Li0  1  0.88818000  0.89425600  0.61414400  1
  Li  Li1  1  0.88620700  0.60571900  0.11440300  1
  Li  Li2  1  0.88845600  0.36583800  0.14875300  1
  Li  Li3  1  0.88702400  0.13315900  0.64889200  1
  Li  Li4  1  0.88011600  0.88973100  0.86083800  1
  Li  Li5  1  0.87890100  0.61144000  0.36078300  1
  Li  Li6  1  0.86749900  0.35233800  0.87849700  1
  Li  Li7  1  0.86766300  0.14611800  0.37922500  1
  Li  Li8  1  0.86588000  0.12652100  0.10640700  1
  Li  Li9  1  0.86528100  0.37233100  0.60563200  1
  Li  Li10  1  0.84242800  0.61964700  0.87470000  1
  Li  Li11  1  0.83639700  0.87877600  0.37571700  1
  Li  Li12  1  0.65802100  0.12029000  0.87589400  1
  Li  Li13  1  0.65852600  0.37890100  0.37237000  1
  Li  Li14  1  0.63412300  0.62405300  0.10480700  1
  Li  Li15  1  0.63772400  0.87895100  0.61081800  1
  Li  Li16  1  0.61713600  0.64023000  0.37564000  1
  Li  Li17  1  0.63287800  0.85226800  0.88020900  1
  Li  Li18  1  0.62117600  0.39121300  0.85933900  1
  Li  Li19  1  0.62080200  0.10890300  0.36361000  1
  Li  Li20  1  0.61306700  0.86246300  0.14903500  1
  Li  Li21  1  0.61572500  0.63556700  0.65032200  1
  Li  Li22  1  0.61336800  0.10351400  0.11576400  1
  Li  Li23  1  0.61233400  0.39522500  0.61334400  1
  Li  Li24  1  0.38715200  0.89395000  0.88464200  1
  Li  Li25  1  0.38811600  0.39417600  0.36208000  1
  Li  Li26  1  0.38781900  0.13363900  0.85184800  1
  Li  Li27  1  0.38074900  0.89346200  0.64238100  1
  Li  Li28  1  0.38155300  0.60891400  0.15458600  1
  Li  Li29  1  0.36480300  0.35126800  0.62272200  1
  Li  Li30  1  0.36467800  0.15303200  0.12041600  1
  Li  Li31  1  0.36798100  0.13188100  0.39047400  1
  Li  Li32  1  0.36621600  0.37271100  0.89479200  1
  Li  Li33  1  0.34278100  0.88432700  0.12002600  1
  Li  Li34  1  0.34647300  0.61641100  0.60860400  1
  Li  Li35  1  0.15889700  0.38007500  0.12621500  1
  Li  Li36  1  0.15676400  0.12060500  0.62433500  1
  Li  Li37  1  0.14725700  0.62487000  0.39552900  1
  Li  Li38  1  0.13467200  0.87300100  0.89307300  1
  Li  Li39  1  0.13302000  0.84872000  0.62211100  1
  Li  Li40  1  0.13143100  0.64759200  0.11720400  1
  Li  Li41  1  0.11876400  0.38878500  0.64097400  1
  Li  Li42  1  0.11949000  0.10994800  0.13828600  1
  Li  Li43  1  0.10242200  0.86702300  0.35085300  1
  Li  Li44  1  0.11301900  0.63378000  0.84834300  1
  Li  Li45  1  0.11314100  0.39425300  0.88677400  1
  Li  Li46  1  0.11459200  0.10656000  0.38244800  1
  Co  Co0  1  0.89165500  0.86830500  0.12148500  1
  Co  Co1  1  0.89263800  0.63074200  0.62057000  1
  Co  Co2  1  0.61059500  0.36591800  0.11856200  1
  Co  Co3  1  0.60767600  0.13387600  0.62213000  1
  Co  Co4  1  0.38470900  0.85254900  0.37831200  1
  Co  Co5  1  0.39089200  0.63122100  0.87864300  1
  Co  Co6  1  0.10687400  0.36795500  0.37975400  1
  Co  Co7  1  0.10766900  0.13099400  0.87850100  1
  O  O0  1  0.99200400  0.75774300  0.48724200  1
  O  O1  1  0.99165100  0.74299800  0.98550900  1
  O  O2  1  0.98090500  0.00556400  0.25537400  1
  O  O3  1  0.98121200  0.49430500  0.75610300  1
  O  O4  1  0.74628200  0.98210500  0.00792900  1
  O  O5  1  0.74432600  0.51914700  0.50857000  1
  O  O6  1  0.76169300  0.73754300  0.23485700  1
  O  O7  1  0.76279300  0.76313000  0.73570400  1
  O  O8  1  0.73796500  0.23342000  0.23548800  1
  O  O9  1  0.73810400  0.26243300  0.73590800  1
  O  O10  1  0.75560100  0.48190800  0.00544100  1
  O  O11  1  0.75383300  0.01841700  0.50929500  1
  O  O12  1  0.51855600  0.99576800  0.75675100  1
  O  O13  1  0.52740500  0.50175000  0.24872700  1
  O  O14  1  0.50883400  0.25945200  0.48705700  1
  O  O15  1  0.50873200  0.23922000  0.98620700  1
  O  O16  1  0.49398400  0.76239500  0.51220000  1
  O  O17  1  0.48971100  0.75859800  0.01393300  1
  O  O18  1  0.47903100  0.99525200  0.25311100  1
  O  O19  1  0.48258500  0.49667200  0.74191900  1
  O  O20  1  0.25115700  0.97687800  0.48747800  1
  O  O21  1  0.24716600  0.51760100  0.99386300  1
  O  O22  1  0.25849100  0.75481900  0.26176200  1
  O  O23  1  0.26400800  0.76295600  0.76202900  1
  O  O24  1  0.23611500  0.23739200  0.26335200  1
  O  O25  1  0.23760200  0.26073400  0.76579200  1
  O  O26  1  0.24403800  0.47594600  0.49962100  1
  O  O27  1  0.25369800  0.01808200  0.99145900  1
  O  O28  1  0.02019100  0.50711600  0.24320700  1
  O  O29  1  0.01992400  0.99378100  0.74351000  1
  O  O30  1  0.00855000  0.23840300  0.51389700  1
  O  O31  1  0.00898100  0.25666200  0.01298900  1
loop_
_geom_bond_atom_site_label_1
_geom_bond_atom_site_label_2
_geom_bond_distance
_geom_bond_site_symmetry_2
Li0 O29 1.964264 1_655
Li0 O11 1.970030 1_565
Li0 O0 2.000222 1_555
Li0 O7 2.043338 1_555
Li1 O28 1.966362 1_655
Li1 O10 1.970163 1_555
Li1 O1 2.021594 1_554
Li1 O6 2.038105 1_555
Li2 O31 1.983750 1_655
Li2 O28 2.013658 1_655
Li2 O8 2.039918 1_555
Li2 O10 2.125958 1_555
Li3 O30 1.964179 1_655
Li3 O29 2.005145 1_645
Li3 O9 2.013198 1_555
Li3 O11 2.103459 1_555
Li4 O29 1.962978 1_655
Li4 O7 1.998936 1_555
Li4 O4 2.051960 1_556
Li4 O1 2.083130 1_555
Li5 O28 1.975421 1_655
Li5 O6 1.995779 1_555
Li5 O5 2.059046 1_555
Li5 O0 2.101809 1_555
Li6 O9 1.990701 1_555
Li6 O10 1.997015 1_556
Li6 O31 2.031431 1_656
Li6 O3 2.052831 1_555
Li7 O8 1.986140 1_555
Li7 O11 2.012005 1_555
Li7 O30 2.018467 1_655
Li7 O2 2.051218 1_555
Li8 O8 1.972961 1_555
Li8 O4 1.985015 1_545
Li8 O31 2.006965 1_655
Li8 O2 2.094689 1_555
Li9 O9 1.989134 1_555
Li9 O5 1.997218 1_555
Li9 O30 2.023395 1_655
Li9 O3 2.117915 1_555
Li10 O10 1.957591 1_556
Li10 O7 2.016439 1_555
Li10 O3 2.071212 1_555
Li10 O1 2.087183 1_555
Li11 O11 1.972669 1_565
Li11 O6 2.002074 1_555
Li11 O0 2.114534 1_555
Li11 O2 2.120076 1_565
Li12 O4 1.972893 1_546
Li12 O9 2.016189 1_555
Li12 O15 2.059944 1_555
Li12 O12 2.075939 1_545
Li13 O5 2.005688 1_555
Li13 O8 2.018533 1_555
Li13 O13 2.039243 1_555
Li13 O14 2.085458 1_555
Li14 O10 1.982012 1_555
Li14 O6 2.011089 1_555
Li14 O17 2.029057 1_555
Li14 O13 2.032086 1_555
Li15 O11 1.945992 1_565
Li15 O16 1.961332 1_555
Li15 O7 1.976075 1_555
Li15 O12 2.077001 1_555
Li16 O13 1.954950 1_555
Li16 O5 2.060093 1_555
Li16 O16 2.067634 1_555
Li16 O6 2.093969 1_555
Li17 O7 2.000744 1_555
Li17 O4 2.012298 1_556
Li17 O17 2.029211 1_556
Li17 O12 2.069853 1_555
Li18 O19 1.962067 1_555
Li18 O9 1.997715 1_555
Li18 O10 2.044462 1_556
Li18 O15 2.132578 1_555
Li19 O18 1.989923 1_545
Li19 O8 1.999793 1_555
Li19 O11 2.029705 1_555
Li19 O14 2.105027 1_555
Li20 O17 1.971503 1_555
Li20 O6 1.981011 1_555
Li20 O18 2.015373 1_555
Li20 O4 2.132815 1_555
Li21 O7 1.987894 1_555
Li21 O19 1.992289 1_555
Li21 O16 2.092163 1_555
Li21 O5 2.097582 1_555
Li22 O4 1.962417 1_545
Li22 O15 2.011649 1_554
Li22 O8 2.026049 1_555
Li22 O18 2.062403 1_545
Li23 O19 1.954789 1_555
Li23 O5 1.955505 1_555
Li23 O14 1.992851 1_555
Li23 O9 2.059274 1_555
Li24 O12 1.960976 1_555
Li24 O27 1.975634 1_565
Li24 O17 1.998800 1_556
Li24 O23 2.039889 1_555
Li25 O13 1.955923 1_555
Li25 O26 2.012708 1_555
Li25 O14 2.057149 1_555
Li25 O24 2.243371 1_555
Li26 O15 1.962014 1_555
Li26 O12 1.987348 1_545
Li26 O25 2.004273 1_555
Li26 O27 2.109010 1_555
Li27 O12 1.929899 1_555
Li27 O23 1.984940 1_555
Li27 O16 2.030323 1_555
Li27 O20 2.044302 1_555
Li28 O13 1.903599 1_555
Li28 O22 2.049500 1_555
Li28 O21 2.141682 1_554
Li28 O17 2.175013 1_555
Li29 O25 1.980900 1_555
Li29 O26 1.990540 1_555
Li29 O14 2.039267 1_555
Li29 O19 2.080649 1_555
Li30 O24 1.964605 1_555
Li30 O15 2.008089 1_554
Li30 O27 2.037285 1_554
Li30 O18 2.207479 1_545
Li31 O24 1.975879 1_555
Li31 O14 1.994714 1_555
Li31 O20 2.031225 1_545
Li31 O18 2.093358 1_545
Li32 O21 1.985606 1_555
Li32 O25 2.003287 1_555
Li32 O15 2.013488 1_555
Li32 O19 2.141372 1_555
Li33 O27 1.928432 1_564
Li33 O22 1.966078 1_555
Li33 O17 2.061384 1_555
Li33 O18 2.064374 1_555
Li34 O26 1.925045 1_555
Li34 O19 2.103943 1_555
Li34 O23 2.137737 1_555
Li34 O16 2.138794 1_555
Li35 O21 1.971337 1_554
Li35 O24 1.991961 1_555
Li35 O28 2.071815 1_555
Li35 O31 2.103244 1_555
Li36 O25 2.019427 1_555
Li36 O30 2.046649 1_555
Li36 O20 2.062046 1_545
Li36 O29 2.070056 1_545
Li37 O26 1.927786 1_555
Li37 O22 2.033498 1_555
Li37 O0 2.091953 1_455
Li37 O28 2.163062 1_555
Li38 O27 1.985938 1_565
Li38 O1 2.001667 1_455
Li38 O23 2.007379 1_555
Li38 O29 2.096239 1_555
Li39 O23 1.963272 1_555
Li39 O0 2.015140 1_455
Li39 O20 2.061835 1_555
Li39 O29 2.065207 1_555
Li40 O21 1.998188 1_554
Li40 O1 2.003780 1_454
Li40 O28 2.051395 1_555
Li40 O22 2.065012 1_555
Li41 O3 1.945363 1_455
Li41 O26 1.945790 1_555
Li41 O25 2.008790 1_555
Li41 O30 2.117315 1_555
Li42 O2 1.955801 1_455
Li42 O24 1.999782 1_555
Li42 O27 2.050366 1_554
Li42 O31 2.081631 1_555
Li43 O0 1.935472 1_455
Li43 O2 1.940523 1_465
Li43 O22 1.977047 1_555
Li43 O20 2.152197 1_555
Li44 O3 1.993719 1_455
Li44 O1 1.996874 1_455
Li44 O23 2.023088 1_555
Li44 O21 2.146625 1_555
Li45 O3 1.971738 1_455
Li45 O21 1.978238 1_555
Li45 O31 2.002718 1_556
Li45 O25 2.050315 1_555
Li46 O2 1.968949 1_455
Li46 O24 2.008469 1_555
Li46 O30 2.008544 1_555
Li46 O20 2.014806 1_545
Co0 O1 1.971312 1_554
Co0 O2 1.986477 1_565
Co0 O4 2.024183 1_555
Co0 O6 2.024238 1_555
Co1 O0 1.960304 1_555
Co1 O3 1.984319 1_555
Co1 O5 2.027773 1_555
Co1 O7 2.042632 1_555
Co2 O13 1.930729 1_555
Co2 O15 1.967450 1_554
Co2 O10 2.031480 1_555
Co2 O8 2.036958 1_555
Co3 O14 1.959944 1_555
Co3 O12 1.991688 1_545
Co3 O9 2.019619 1_555
Co3 O11 2.035163 1_555
Co4 O16 1.824149 1_555
Co4 O22 1.850534 1_555
Co4 O18 1.986614 1_555
Co4 O20 1.988642 1_555
Co5 O17 1.975648 1_556
Co5 O19 1.994967 1_555
Co5 O21 2.022227 1_555
Co5 O23 2.028394 1_555
Co6 O30 1.975357 1_555
Co6 O26 1.982301 1_555
Co6 O28 1.999885 1_555
Co6 O24 2.035323 1_555
Co7 O31 1.958594 1_556
Co7 O29 1.987032 1_545
Co7 O25 2.014984 1_555
Co7 O27 2.020905 1_555
