# generated using pymatgen
data_Nb3(Cl3O4)2
_symmetry_space_group_name_H-M   'P 1'
_cell_length_a   11.25776800
_cell_length_b   11.76131351
_cell_length_c   11.98827124
_cell_angle_alpha   88.35138782
_cell_angle_beta   115.84641859
_cell_angle_gamma   116.57636258
_symmetry_Int_Tables_number   1
_chemical_formula_structural   Nb3(Cl3O4)2
_chemical_formula_sum   'Nb6 Cl12 O16'
_cell_volume   1250.03461939
_cell_formula_units_Z   2
loop_
 _symmetry_equiv_pos_site_id
 _symmetry_equiv_pos_as_xyz
  1  'x, y, z'
loop_
 _atom_site_type_symbol
 _atom_site_label
 _atom_site_symmetry_multiplicity
 _atom_site_fract_x
 _atom_site_fract_y
 _atom_site_fract_z
 _atom_site_occupancy
  Nb  Nb0  1  0.99753300  0.86212800  0.13529100  1
  Nb  Nb1  1  0.28701700  0.12102600  0.11811500  1
  Nb  Nb2  1  0.00436400  0.13095600  0.13026000  1
  Nb  Nb3  1  0.71041500  0.87690100  0.87932000  1
  Nb  Nb4  1  0.99524800  0.87058400  0.87110200  1
  Nb  Nb5  1  0.00119000  0.14012800  0.86690000  1
  Cl  Cl0  1  0.44350100  0.05152200  0.47159300  1
  Cl  Cl1  1  0.44719300  0.42560800  0.42641800  1
  Cl  Cl2  1  0.07436300  0.04221500  0.46866400  1
  Cl  Cl3  1  0.56175900  0.53851800  0.95590700  1
  Cl  Cl4  1  0.55461200  0.56963300  0.57534700  1
  Cl  Cl5  1  0.91029500  0.51581400  0.94566800  1
  Cl  Cl6  1  0.55758700  0.95380800  0.53359300  1
  Cl  Cl7  1  0.56135500  0.92573300  0.93349000  1
  Cl  Cl8  1  0.08095300  0.48208500  0.04925100  1
  Cl  Cl9  1  0.44187500  0.46775100  0.04775800  1
  Cl  Cl10  1  0.43166800  0.06675300  0.06127300  1
  Cl  Cl11  1  0.92627400  0.95764100  0.53312800  1
  O  O0  1  0.99703500  0.75589800  0.23865300  1
  O  O1  1  0.44265400  0.24491800  0.24270600  1
  O  O2  1  0.00997600  0.23528500  0.23382900  1
  O  O3  1  0.55971100  0.75278100  0.75262000  1
  O  O4  1  0.99013700  0.76648300  0.76772000  1
  O  O5  1  0.00099400  0.24655500  0.76369800  1
  O  O6  1  0.51102700  0.25257600  0.74218000  1
  O  O7  1  0.50297400  0.74055000  0.24964400  1
  O  O8  1  0.15740600  0.05700300  0.21413400  1
  O  O9  1  0.84013900  0.78262600  0.94347700  1
  O  O10  1  0.86510400  0.10960100  0.94532200  1
  O  O11  1  0.13564600  0.06013200  0.89233400  1
  O  O12  1  0.84299800  0.94483900  0.78661100  1
  O  O13  1  0.15937100  0.21879800  0.05785700  1
  O  O14  1  0.13341600  0.89120400  0.05601200  1
  O  O15  1  0.86421300  0.94194800  0.11012600  1
loop_
_geom_bond_atom_site_label_1
_geom_bond_atom_site_label_2
_geom_bond_distance
_geom_bond_site_symmetry_2
Nb0 O0 1.734128 1_555
Nb0 O15 2.018577 1_555
Nb0 O14 2.035002 1_655
Nb0 O8 2.082350 1_665
Nb0 O9 2.095308 1_554
Nb1 O1 1.727152 1_555
Nb1 O13 2.105905 1_555
Nb1 O8 2.110118 1_555
Nb1 O14 2.379437 1_545
Nb1 O11 2.396034 1_554
Nb2 O2 1.732379 1_555
Nb2 O15 2.012410 1_445
Nb2 O10 2.021252 1_454
Nb2 O8 2.125097 1_555
Nb2 O13 2.126457 1_555
Nb3 O3 1.726596 1_555
Nb3 O9 2.091467 1_555
Nb3 O12 2.104689 1_555
Nb3 O10 2.409910 1_565
Nb3 O15 2.449202 1_556
Nb4 O4 1.732201 1_555
Nb4 O11 2.015420 1_665
Nb4 O14 2.019707 1_656
Nb4 O12 2.121605 1_555
Nb4 O9 2.127248 1_555
Nb5 O5 1.734500 1_555
Nb5 O10 2.025864 1_455
Nb5 O11 2.030953 1_555
Nb5 O12 2.084735 1_445
Nb5 O13 2.088293 1_556
Cl0 Cl6 1.990478 1_545
Cl1 Cl4 1.994489 1_555
Cl3 Cl9 1.991146 1_556
Cl5 Cl8 1.990963 1_656
Cl7 Nb3 2.324122 1_555
Cl10 Nb1 2.333739 1_555
Cl11 Cl2 1.990321 1_665
