# generated using pymatgen
data_Ca2CuIrO6
_symmetry_space_group_name_H-M   'P 1'
_cell_length_a   5.63420700
_cell_length_b   5.42089700
_cell_length_c   9.40085613
_cell_angle_alpha   54.93416817
_cell_angle_beta   90.00000000
_cell_angle_gamma   90.00000000
_symmetry_Int_Tables_number   1
_chemical_formula_structural   Ca2CuIrO6
_chemical_formula_sum   'Ca4 Cu2 Ir2 O12'
_cell_volume   235.00984261
_cell_formula_units_Z   2
loop_
 _symmetry_equiv_pos_site_id
 _symmetry_equiv_pos_as_xyz
  1  'x, y, z'
loop_
 _atom_site_type_symbol
 _atom_site_label
 _atom_site_symmetry_multiplicity
 _atom_site_fract_x
 _atom_site_fract_y
 _atom_site_fract_z
 _atom_site_occupancy
  Ca  Ca0  1  0.56046700  0.73517700  0.75002000  1
  Ca  Ca1  1  0.06046700  0.26482300  0.74998000  1
  Ca  Ca2  1  0.93953300  0.73517700  0.25002000  1
  Ca  Ca3  1  0.43953300  0.26482300  0.24998000  1
  Cu  Cu0  1  0.00000000  0.00000000  0.50000000  1
  Cu  Cu1  1  0.50000000  0.00000000  0.00000000  1
  Ir  Ir0  1  0.00000000  0.50000000  0.00000000  1
  Ir  Ir1  1  0.50000000  0.50000000  0.50000000  1
  O  O0  1  0.03409900  0.15717100  0.24271800  1
  O  O1  1  0.30832800  0.74185900  0.55071900  1
  O  O2  1  0.29046200  0.36679200  0.94696600  1
  O  O3  1  0.79046200  0.63320800  0.55303400  1
  O  O4  1  0.80832800  0.25814100  0.94928100  1
  O  O5  1  0.53409900  0.84282900  0.25728200  1
  O  O6  1  0.46590100  0.15717100  0.74271800  1
  O  O7  1  0.19167200  0.74185900  0.05071900  1
  O  O8  1  0.20953800  0.36679200  0.44696600  1
  O  O9  1  0.69167200  0.25814100  0.44928100  1
  O  O10  1  0.70953800  0.63320800  0.05303400  1
  O  O11  1  0.96590100  0.84282900  0.75728200  1
loop_
_geom_bond_atom_site_label_1
_geom_bond_atom_site_label_2
_geom_bond_distance
_geom_bond_site_symmetry_2
Ca0 O6 2.311105 1_565
Ca0 O1 2.334914 1_555
Ca0 O2 2.341306 1_555
Ca0 O11 2.368336 1_555
Ca0 O4 2.565222 1_555
Ca0 O3 2.567145 1_555
Ca0 O10 2.704844 1_556
Ca0 O9 2.714215 1_565
Ca1 O11 2.311105 1_445
Ca1 O4 2.334914 1_455
Ca1 O3 2.341306 1_455
Ca1 O6 2.368336 1_555
Ca1 O1 2.565222 1_555
Ca1 O2 2.567145 1_555
Ca1 O8 2.704844 1_555
Ca1 O7 2.714215 1_546
Ca2 O0 2.311105 1_665
Ca2 O7 2.334914 1_655
Ca2 O8 2.341306 1_655
Ca2 O5 2.368336 1_555
Ca2 O9 2.565222 1_555
Ca2 O10 2.567145 1_555
Ca2 O3 2.704844 1_555
Ca2 O4 2.714215 1_564
Ca3 O5 2.311105 1_545
Ca3 O9 2.334914 1_555
Ca3 O10 2.341306 1_555
Ca3 O0 2.368336 1_555
Ca3 O7 2.565222 1_555
Ca3 O8 2.567145 1_555
Ca3 O2 2.704844 1_554
Ca3 O1 2.714215 1_545
Cu0 O0 2.060328 1_555
Cu0 O11 2.060328 1_445
Cu0 O9 2.106345 1_455
Cu0 O1 2.106345 1_545
Cu0 O3 2.111109 1_445
Cu0 O8 2.111109 1_555
Cu1 O6 2.060328 1_554
Cu1 O5 2.060328 1_545
Cu1 O7 2.106345 1_545
Cu1 O4 2.106345 1_554
Cu1 O2 2.111109 1_554
Cu1 O10 2.111109 1_545
Ir0 O11 1.955667 1_454
Ir0 O0 1.955667 1_555
Ir0 O4 1.957250 1_454
Ir0 O7 1.957250 1_555
Ir0 O2 1.965168 1_554
Ir0 O10 1.965168 1_455
Ir1 O5 1.955667 1_555
Ir1 O6 1.955667 1_555
Ir1 O9 1.957250 1_555
Ir1 O1 1.957250 1_555
Ir1 O8 1.965168 1_555
Ir1 O3 1.965168 1_555
