# generated using pymatgen
data_NaV6O14
_symmetry_space_group_name_H-M   'P 1'
_cell_length_a   3.63770300
_cell_length_b   8.26906465
_cell_length_c   10.36423205
_cell_angle_alpha   104.90003944
_cell_angle_beta   90.00000000
_cell_angle_gamma   77.29339779
_symmetry_Int_Tables_number   1
_chemical_formula_structural   NaV6O14
_chemical_formula_sum   'Na1 V6 O14'
_cell_volume   293.36964946
_cell_formula_units_Z   1
loop_
 _symmetry_equiv_pos_site_id
 _symmetry_equiv_pos_as_xyz
  1  'x, y, z'
loop_
 _atom_site_type_symbol
 _atom_site_label
 _atom_site_symmetry_multiplicity
 _atom_site_fract_x
 _atom_site_fract_y
 _atom_site_fract_z
 _atom_site_occupancy
  Na  Na0  1  0.99579500  0.00841000  0.41431100  1
  V  V0  1  0.85664100  0.28671800  0.13627200  1
  V  V1  1  0.14591200  0.70817500  0.86281800  1
  V  V2  1  0.70912400  0.58175200  0.41726400  1
  V  V3  1  0.29498600  0.41002800  0.57805900  1
  V  V4  1  0.65877300  0.68245400  0.10349700  1
  V  V5  1  0.34109800  0.31780400  0.89611500  1
  O  O0  1  0.89849400  0.20301200  0.26503500  1
  O  O1  1  0.10663800  0.78672500  0.73422200  1
  O  O2  1  0.24324100  0.51351800  0.41994300  1
  O  O3  1  0.75203800  0.49592300  0.57505000  1
  O  O4  1  0.60471700  0.79056600  0.46257700  1
  O  O5  1  0.40044800  0.19910300  0.52229300  1
  O  O6  1  0.56832900  0.86334200  0.21957200  1
  O  O7  1  0.43227800  0.13544400  0.78743900  1
  O  O8  1  0.37636900  0.24726100  0.06472700  1
  O  O9  1  0.62144200  0.75711500  0.93740500  1
  O  O10  1  0.73474900  0.53050100  0.22668700  1
  O  O11  1  0.26669000  0.46661900  0.78038200  1
  O  O12  1  0.18298000  0.63403900  0.05869400  1
  O  O13  1  0.81425500  0.37148900  0.95163700  1
loop_
_geom_bond_atom_site_label_1
_geom_bond_atom_site_label_2
_geom_bond_distance
_geom_bond_site_symmetry_2
Na0 O5 2.453433 1_655
Na0 O5 2.453435 1_555
Na0 O0 2.477520 1_555
Na0 O4 2.666421 1_645
Na0 O4 2.666421 1_545
Na0 O6 2.739725 1_645
Na0 O6 2.739725 1_545
O0 V0 1.646794 1_555
O1 V1 1.619579 1_555
O2 V2 1.902630 1_455
O2 V2 1.902631 1_555
O2 V3 2.025737 1_555
O3 V2 1.936627 1_555
O3 V3 1.949527 1_555
O3 V3 1.949530 1_655
O4 V2 1.625042 1_555
O5 V3 1.646366 1_555
O6 V4 1.628180 1_555
O7 V5 1.599710 1_555
O8 V0 1.958299 1_455
O8 V0 1.958302 1_555
O8 V5 1.975326 1_554
O9 V4 1.967874 1_556
O9 V1 1.975037 1_655
O9 V1 1.975038 1_555
O10 V2 1.908346 1_555
O10 V0 1.942610 1_555
O10 V4 1.989370 1_555
O11 V5 1.907578 1_555
O11 V1 1.910256 1_555
O11 V3 2.025053 1_555
O12 V4 1.892288 1_455
O12 V4 1.892292 1_555
O12 V1 2.262515 1_554
O12 V5 2.660918 1_554
O13 V5 1.922372 1_555
O13 V5 1.922375 1_655
O13 V0 2.195289 1_556
O13 V4 2.586123 1_556
