# generated using pymatgen
data_Zn11SbRu3
_symmetry_space_group_name_H-M   'P 1'
_cell_length_a   5.26270736
_cell_length_b   5.26270736
_cell_length_c   16.96519600
_cell_angle_alpha   90.00000000
_cell_angle_beta   90.00000000
_cell_angle_gamma   98.01242496
_symmetry_Int_Tables_number   1
_chemical_formula_structural   Zn11SbRu3
_chemical_formula_sum   'Zn22 Sb2 Ru6'
_cell_volume   465.28264307
_cell_formula_units_Z   2
loop_
 _symmetry_equiv_pos_site_id
 _symmetry_equiv_pos_as_xyz
  1  'x, y, z'
loop_
 _atom_site_type_symbol
 _atom_site_label
 _atom_site_symmetry_multiplicity
 _atom_site_fract_x
 _atom_site_fract_y
 _atom_site_fract_z
 _atom_site_occupancy
  Zn  Zn0  1  0.88081400  0.87234500  0.83520900  1
  Zn  Zn1  1  0.12765500  0.11918600  0.16479100  1
  Zn  Zn2  1  0.88081400  0.87234500  0.66479100  1
  Zn  Zn3  1  0.12765500  0.11918600  0.33520900  1
  Zn  Zn4  1  0.50295200  0.49704800  0.00000000  1
  Zn  Zn5  1  0.50295200  0.49704800  0.50000000  1
  Zn  Zn6  1  0.32867900  0.72576900  0.87699800  1
  Zn  Zn7  1  0.27423100  0.67132100  0.12300200  1
  Zn  Zn8  1  0.32867900  0.72576900  0.62300200  1
  Zn  Zn9  1  0.27423100  0.67132100  0.37699800  1
  Zn  Zn10  1  0.65798700  0.24752800  0.12658100  1
  Zn  Zn11  1  0.75247200  0.34201300  0.87341900  1
  Zn  Zn12  1  0.65798700  0.24752800  0.37341900  1
  Zn  Zn13  1  0.75247200  0.34201300  0.62658100  1
  Zn  Zn14  1  0.00041400  0.99958600  0.00000000  1
  Zn  Zn15  1  0.00041400  0.99958600  0.50000000  1
  Zn  Zn16  1  0.50190000  0.00161500  0.99889700  1
  Zn  Zn17  1  0.99838500  0.49810000  0.00110300  1
  Zn  Zn18  1  0.50190000  0.00161500  0.50110300  1
  Zn  Zn19  1  0.99838500  0.49810000  0.49889700  1
  Zn  Zn20  1  0.56815900  0.95490600  0.25000000  1
  Zn  Zn21  1  0.04509400  0.43184100  0.75000000  1
  Sb  Sb0  1  0.41071000  0.06975800  0.75000000  1
  Sb  Sb1  1  0.93024200  0.58929000  0.25000000  1
  Ru  Ru0  1  0.23667400  0.23052200  0.88863300  1
  Ru  Ru1  1  0.76947800  0.76332600  0.11136700  1
  Ru  Ru2  1  0.23667400  0.23052200  0.61136700  1
  Ru  Ru3  1  0.76947800  0.76332600  0.38863300  1
  Ru  Ru4  1  0.56195100  0.57943700  0.75000000  1
  Ru  Ru5  1  0.42056300  0.43804900  0.25000000  1
loop_
_geom_bond_atom_site_label_1
_geom_bond_atom_site_label_2
_geom_bond_distance
_geom_bond_site_symmetry_2
Zn0 Zn21 2.961448 1_655
Zn1 Zn20 2.961448 1_545
Zn2 Zn21 2.961448 1_655
Zn4 Zn6 2.636727 1_554
Zn4 Zn7 2.636727 1_555
Zn5 Zn8 2.636727 1_555
Zn5 Zn9 2.636727 1_555
Zn10 Zn16 2.597235 1_554
Zn10 Zn20 2.603112 1_545
Zn10 Zn4 2.701921 1_555
Zn10 Zn17 2.970044 1_555
Zn11 Zn17 2.597235 1_556
Zn11 Zn21 2.603112 1_655
Zn11 Zn4 2.701921 1_556
Zn11 Zn16 2.970044 1_555
Zn12 Zn18 2.597235 1_555
Zn12 Zn20 2.603112 1_545
Zn12 Zn5 2.701921 1_555
Zn12 Zn19 2.970044 1_555
Zn13 Zn19 2.597235 1_555
Zn13 Zn21 2.603112 1_655
Zn13 Zn5 2.701921 1_555
Zn13 Zn18 2.970044 1_555
Zn14 Zn16 2.625110 1_464
Zn14 Zn17 2.625110 1_465
Zn14 Zn17 2.637773 1_455
Zn14 Zn16 2.637773 1_564
Zn15 Zn18 2.625110 1_465
Zn15 Zn19 2.625110 1_465
Zn15 Zn19 2.637773 1_455
Zn15 Zn18 2.637773 1_565
Zn16 Zn4 2.606620 1_556
Zn16 Zn6 2.616548 1_545
Zn16 Zn4 2.656232 1_546
Zn16 Zn7 2.882610 1_546
Zn17 Zn4 2.606620 1_555
Zn17 Zn7 2.616548 1_655
Zn17 Zn4 2.656232 1_655
Zn17 Zn6 2.882610 1_654
Zn18 Zn5 2.606620 1_555
Zn18 Zn8 2.616548 1_545
Zn18 Zn5 2.656232 1_545
Zn18 Zn9 2.882610 1_545
Zn19 Zn5 2.606620 1_555
Zn19 Zn9 2.616548 1_655
Zn19 Zn5 2.656232 1_655
Zn19 Zn8 2.882610 1_655
Zn20 Zn7 2.935744 1_555
Zn20 Zn9 2.935744 1_555
Zn20 Zn3 2.961448 1_565
Zn21 Zn6 2.935744 1_555
Zn21 Zn8 2.935744 1_555
Sb0 Zn8 2.808523 1_545
Sb0 Zn6 2.808523 1_545
Sb0 Zn21 2.890584 1_555
Sb0 Zn11 2.992249 1_555
Sb0 Zn13 2.992249 1_555
Sb0 Zn2 3.163291 1_545
Sb0 Zn0 3.163291 1_545
Sb0 Zn0 3.184052 1_445
Sb0 Zn2 3.184052 1_445
Sb1 Zn7 2.808523 1_655
Sb1 Zn9 2.808523 1_655
Sb1 Zn20 2.890584 1_555
Sb1 Zn10 2.992249 1_555
Sb1 Zn12 2.992249 1_555
Sb1 Zn3 3.163291 1_655
Sb1 Zn1 3.163291 1_655
Sb1 Zn3 3.184052 1_665
Sb1 Zn1 3.184052 1_665
Ru0 Zn14 2.484243 1_546
Ru0 Zn6 2.591256 1_555
Ru0 Zn0 2.626371 1_445
Ru0 Zn4 2.636839 1_556
Ru0 Sb0 2.702278 1_555
Ru0 Zn11 2.705752 1_455
Ru0 Zn11 2.708386 1_555
Ru0 Zn16 2.714332 1_555
Ru0 Zn6 2.772771 1_545
Ru0 Zn17 2.772844 1_456
Ru0 Zn21 2.822839 1_555
Ru1 Zn14 2.484243 1_655
Ru1 Zn7 2.591256 1_555
Ru1 Zn1 2.626371 1_665
Ru1 Zn4 2.636839 1_555
Ru1 Sb1 2.702278 1_555
Ru1 Zn10 2.705752 1_565
Ru1 Zn10 2.708386 1_555
Ru1 Zn17 2.714332 1_555
Ru1 Zn7 2.772771 1_655
Ru1 Zn16 2.772844 1_564
Ru1 Zn20 2.822839 1_555
Ru2 Zn15 2.484243 1_545
Ru2 Zn8 2.591256 1_555
Ru2 Zn2 2.626371 1_445
Ru2 Zn5 2.636839 1_555
Ru2 Sb0 2.702278 1_555
Ru2 Zn13 2.705752 1_455
Ru2 Zn13 2.708386 1_555
Ru2 Zn18 2.714332 1_555
Ru2 Zn8 2.772771 1_545
Ru2 Zn19 2.772844 1_455
Ru2 Zn21 2.822839 1_555
Ru3 Zn15 2.484243 1_655
Ru3 Zn9 2.591256 1_555
Ru3 Zn3 2.626371 1_665
Ru3 Zn5 2.636839 1_555
Ru3 Sb1 2.702278 1_555
Ru3 Zn12 2.705752 1_565
Ru3 Zn12 2.708386 1_555
Ru3 Zn19 2.714332 1_555
Ru3 Zn9 2.772771 1_655
Ru3 Zn18 2.772844 1_565
Ru3 Zn20 2.822839 1_555
Ru4 Zn2 2.561396 1_555
Ru4 Zn0 2.561396 1_555
Ru4 Zn8 2.646845 1_555
Ru4 Zn6 2.646845 1_555
Ru4 Sb0 2.689430 1_555
Ru4 Zn11 2.701836 1_555
Ru4 Zn13 2.701836 1_555
Ru4 Zn21 2.722702 1_555
Ru4 Zn21 2.760245 1_655
Ru4 Sb0 2.804394 1_565
Ru5 Zn3 2.561396 1_555
Ru5 Zn1 2.561396 1_555
Ru5 Zn7 2.646845 1_555
Ru5 Zn9 2.646845 1_555
Ru5 Sb1 2.689430 1_555
Ru5 Zn10 2.701836 1_555
Ru5 Zn12 2.701836 1_555
Ru5 Zn20 2.722702 1_555
Ru5 Zn20 2.760245 1_545
Ru5 Sb1 2.804394 1_455
