# generated using pymatgen
data_BaNaEuWO6
_symmetry_space_group_name_H-M   'P 1'
_cell_length_a   6.02595538
_cell_length_b   6.02595538
_cell_length_c   6.02595538
_cell_angle_alpha   60.00000000
_cell_angle_beta   60.00000000
_cell_angle_gamma   60.00000000
_symmetry_Int_Tables_number   1
_chemical_formula_structural   BaNaEuWO6
_chemical_formula_sum   'Ba1 Na1 Eu1 W1 O6'
_cell_volume   154.72579974
_cell_formula_units_Z   1
loop_
 _symmetry_equiv_pos_site_id
 _symmetry_equiv_pos_as_xyz
  1  'x, y, z'
loop_
 _atom_site_type_symbol
 _atom_site_label
 _atom_site_symmetry_multiplicity
 _atom_site_fract_x
 _atom_site_fract_y
 _atom_site_fract_z
 _atom_site_occupancy
  Ba  Ba0  1  0.75000000  0.75000000  0.75000000  1
  Na  Na0  1  0.25000000  0.25000000  0.25000000  1
  Eu  Eu0  1  -0.00000000  -0.00000000  -0.00000000  1
  W  W0  1  0.50000000  0.50000000  0.50000000  1
  O  O0  1  0.72980564  0.27019436  0.27019436  1
  O  O1  1  0.27019436  0.72980564  0.72980564  1
  O  O2  1  0.72980564  0.27019436  0.72980564  1
  O  O3  1  0.27019436  0.72980564  0.27019436  1
  O  O4  1  0.72980564  0.72980564  0.27019436  1
  O  O5  1  0.27019436  0.27019436  0.72980564  1
loop_
_geom_bond_atom_site_label_1
_geom_bond_atom_site_label_2
_geom_bond_distance
_geom_bond_site_symmetry_2
Ba0 O2 3.017889 1_555
Ba0 O4 3.017889 1_555
Ba0 O1 3.017889 1_555
Ba0 O3 3.017889 1_556
Ba0 O0 3.017889 1_556
Ba0 O3 3.017889 1_655
Ba0 O0 3.017889 1_565
Ba0 O5 3.017889 1_565
Ba0 O5 3.017889 1_655
Ba0 O1 3.017889 1_655
Ba0 O2 3.017889 1_565
Ba0 O4 3.017889 1_556
Na0 O3 3.017889 1_545
Na0 O5 3.017889 1_554
Na0 O0 3.017889 1_455
Na0 O4 3.017889 1_455
Na0 O1 3.017889 1_554
Na0 O2 3.017889 1_455
Na0 O2 3.017889 1_554
Na0 O4 3.017889 1_545
Na0 O1 3.017889 1_545
Na0 O3 3.017889 1_555
Na0 O0 3.017889 1_555
Na0 O5 3.017889 1_555
Eu0 O2 2.302593 1_454
Eu0 O4 2.302593 1_445
Eu0 O1 2.302593 1_544
Eu0 O0 2.302593 1_455
Eu0 O3 2.302593 1_545
Eu0 O5 2.302593 1_554
O0 W0 1.958401 1_555
O1 W0 1.958401 1_555
O2 W0 1.958401 1_555
O3 W0 1.958401 1_555
O4 W0 1.958401 1_555
O5 W0 1.958401 1_555
