# generated using pymatgen
data_Mn9Zn2O13
_symmetry_space_group_name_H-M   'P 1'
_cell_length_a   3.15015200
_cell_length_b   5.15123037
_cell_length_c   17.48749381
_cell_angle_alpha   97.91822279
_cell_angle_beta   92.82498617
_cell_angle_gamma   97.14274428
_symmetry_Int_Tables_number   1
_chemical_formula_structural   Mn9Zn2O13
_chemical_formula_sum   'Mn9 Zn2 O13'
_cell_volume   278.24799288
_cell_formula_units_Z   1
loop_
 _symmetry_equiv_pos_site_id
 _symmetry_equiv_pos_as_xyz
  1  'x, y, z'
loop_
 _atom_site_type_symbol
 _atom_site_label
 _atom_site_symmetry_multiplicity
 _atom_site_fract_x
 _atom_site_fract_y
 _atom_site_fract_z
 _atom_site_occupancy
  Mn  Mn0  1  0.50000000  0.00000000  0.50000000  1
  Mn  Mn1  1  0.00598500  0.87307200  0.12885800  1
  Mn  Mn2  1  0.99401500  0.12692800  0.87114200  1
  Mn  Mn3  1  0.01951000  0.97749400  0.32512800  1
  Mn  Mn4  1  0.98049000  0.02250600  0.67487200  1
  Mn  Mn5  1  0.64864000  0.28726500  0.04002900  1
  Mn  Mn6  1  0.35136000  0.71273500  0.95997100  1
  Mn  Mn7  1  0.76567400  0.49860900  0.41725800  1
  Mn  Mn8  1  0.23432600  0.50139100  0.58274200  1
  Zn  Zn0  1  0.49732500  0.44619100  0.22780100  1
  Zn  Zn1  1  0.50267500  0.55380900  0.77219900  1
  O  O0  1  0.00000000  0.00000000  0.00000000  1
  O  O1  1  0.04497800  0.69075500  0.22817000  1
  O  O2  1  0.95502200  0.30924500  0.77183000  1
  O  O3  1  0.33808000  0.59279200  0.06435500  1
  O  O4  1  0.66192000  0.40720800  0.93564500  1
  O  O5  1  0.57596000  0.15837200  0.13978500  1
  O  O6  1  0.42404000  0.84162800  0.86021500  1
  O  O7  1  0.57803600  0.25174000  0.31938400  1
  O  O8  1  0.42196400  0.74826000  0.68061600  1
  O  O9  1  0.41109700  0.78091800  0.39595900  1
  O  O10  1  0.58890300  0.21908200  0.60404100  1
  O  O11  1  0.13026700  0.26641700  0.47079900  1
  O  O12  1  0.86973300  0.73358300  0.52920100  1
loop_
_geom_bond_atom_site_label_1
_geom_bond_atom_site_label_2
_geom_bond_distance
_geom_bond_site_symmetry_2
Mn0 O9 1.991926 1_545
Mn0 O10 1.991926 1_555
Mn0 O11 2.008159 1_555
Mn0 O12 2.008159 1_545
Mn0 O11 2.387794 1_655
Mn0 O12 2.387794 1_445
Mn1 O1 2.090536 1_555
Mn1 O5 2.115341 1_465
Mn1 O3 2.120036 1_555
Mn1 O5 2.157038 1_565
Mn1 O0 2.431152 1_565
Mn1 O3 2.519056 1_455
Mn2 O2 2.090536 1_555
Mn2 O6 2.115341 1_645
Mn2 O4 2.120036 1_555
Mn2 O6 2.157038 1_545
Mn2 O0 2.431152 1_656
Mn2 O4 2.519056 1_655
Mn3 O1 2.101403 1_555
Mn3 O7 2.110404 1_465
Mn3 O7 2.130694 1_565
Mn3 O9 2.141707 1_555
Mn3 O9 2.515934 1_455
Mn3 O11 2.750421 1_565
Mn4 O2 2.101403 1_555
Mn4 O8 2.110404 1_645
Mn4 O8 2.130694 1_545
Mn4 O10 2.141707 1_555
Mn4 O10 2.515934 1_655
Mn4 O12 2.750421 1_545
Mn5 O3 1.963285 1_555
Mn5 O5 1.963967 1_555
Mn5 O4 2.006856 1_554
Mn5 O0 2.025611 1_655
Mn5 O0 2.382550 1_555
Mn5 O3 2.499853 1_655
Mn6 O4 1.963285 1_555
Mn6 O6 1.963967 1_555
Mn6 O3 2.006856 1_556
Mn6 O0 2.025611 1_566
Mn6 O0 2.382550 1_666
Mn6 O4 2.499853 1_455
Mn7 O7 2.002421 1_555
Mn7 O9 2.003333 1_555
Mn7 O11 2.042186 1_655
Mn7 O12 2.142423 1_555
Mn7 O9 2.424037 1_655
Mn7 O11 2.492323 1_555
Mn8 O8 2.002421 1_555
Mn8 O10 2.003333 1_555
Mn8 O12 2.042186 1_455
Mn8 O11 2.142423 1_555
Mn8 O10 2.424037 1_455
Mn8 O12 2.492323 1_555
O1 Zn0 2.004895 1_455
O1 Zn0 2.015630 1_555
O2 Zn1 2.004895 1_655
O2 Zn1 2.015630 1_555
O5 Zn0 2.031939 1_555
O6 Zn1 2.031939 1_555
O7 Zn0 2.024387 1_555
O8 Zn1 2.024387 1_555
