# generated using pymatgen
data_Ba6Na2V2Ru2O17
_symmetry_space_group_name_H-M   'P 1'
_cell_length_a   5.94350448
_cell_length_b   5.94350448
_cell_length_c   30.21098500
_cell_angle_alpha   90.00000000
_cell_angle_beta   90.00000000
_cell_angle_gamma   120.00000529
_symmetry_Int_Tables_number   1
_chemical_formula_structural   Ba6Na2V2Ru2O17
_chemical_formula_sum   'Ba12 Na4 V4 Ru4 O34'
_cell_volume   924.23132051
_cell_formula_units_Z   2
loop_
 _symmetry_equiv_pos_site_id
 _symmetry_equiv_pos_as_xyz
  1  'x, y, z'
loop_
 _atom_site_type_symbol
 _atom_site_label
 _atom_site_symmetry_multiplicity
 _atom_site_fract_x
 _atom_site_fract_y
 _atom_site_fract_z
 _atom_site_occupancy
  Ba  Ba0  1  0.00000000  0.00000000  0.75000000  1
  Ba  Ba1  1  0.00000000  0.00000000  0.25000000  1
  Ba  Ba2  1  0.00000000  0.00000000  0.50000000  1
  Ba  Ba3  1  0.00000000  0.00000000  0.00000000  1
  Ba  Ba4  1  0.33333300  0.66666700  0.90736000  1
  Ba  Ba5  1  0.66666700  0.33333300  0.40736000  1
  Ba  Ba6  1  0.66666700  0.33333300  0.09264000  1
  Ba  Ba7  1  0.33333300  0.66666700  0.59264000  1
  Ba  Ba8  1  0.33333300  0.66666700  0.31913600  1
  Ba  Ba9  1  0.66666700  0.33333300  0.81913600  1
  Ba  Ba10  1  0.66666700  0.33333300  0.68086400  1
  Ba  Ba11  1  0.33333300  0.66666700  0.18086400  1
  Na  Na0  1  0.00000000  0.00000000  0.37594700  1
  Na  Na1  1  0.00000000  0.00000000  0.87594700  1
  Na  Na2  1  0.00000000  0.00000000  0.62405300  1
  Na  Na3  1  0.00000000  0.00000000  0.12405300  1
  V  V0  1  0.33333300  0.66666700  0.44802600  1
  V  V1  1  0.66666700  0.33333300  0.94802600  1
  V  V2  1  0.66666700  0.33333300  0.55197400  1
  V  V3  1  0.33333300  0.66666700  0.05197400  1
  Ru  Ru0  1  0.33333300  0.66666700  0.79616100  1
  Ru  Ru1  1  0.66666700  0.33333300  0.29616100  1
  Ru  Ru2  1  0.66666700  0.33333300  0.20383900  1
  Ru  Ru3  1  0.33333300  0.66666700  0.70383900  1
  O  O0  1  0.33333300  0.66666700  0.99482700  1
  O  O1  1  0.66666700  0.33333300  0.49482700  1
  O  O2  1  0.66666700  0.33333300  0.00517300  1
  O  O3  1  0.33333300  0.66666700  0.50517300  1
  O  O4  1  0.48603000  0.97206000  0.75000000  1
  O  O5  1  0.51397000  0.48603000  0.25000000  1
  O  O6  1  0.97206000  0.48603000  0.25000000  1
  O  O7  1  0.02794000  0.51397000  0.75000000  1
  O  O8  1  0.48603000  0.51397000  0.75000000  1
  O  O9  1  0.51397000  0.02794000  0.25000000  1
  O  O10  1  0.17702600  0.82297400  0.67021800  1
  O  O11  1  0.17702600  0.35405200  0.67021800  1
  O  O12  1  0.64594800  0.82297400  0.67021800  1
  O  O13  1  0.35405200  0.17702600  0.17021800  1
  O  O14  1  0.82297400  0.64594800  0.32978200  1
  O  O15  1  0.82297400  0.17702600  0.17021800  1
  O  O16  1  0.82297400  0.64594800  0.17021800  1
  O  O17  1  0.17702600  0.82297400  0.82978200  1
  O  O18  1  0.64594800  0.82297400  0.82978200  1
  O  O19  1  0.35405200  0.17702600  0.32978200  1
  O  O20  1  0.82297400  0.17702600  0.32978200  1
  O  O21  1  0.17702600  0.35405200  0.82978200  1
  O  O22  1  0.17472700  0.82527300  0.07264200  1
  O  O23  1  0.17472700  0.34945300  0.07264200  1
  O  O24  1  0.17472700  0.34945300  0.42735800  1
  O  O25  1  0.82527300  0.17472700  0.92735800  1
  O  O26  1  0.34945300  0.17472700  0.92735800  1
  O  O27  1  0.65054700  0.82527300  0.42735800  1
  O  O28  1  0.17472700  0.82527300  0.42735800  1
  O  O29  1  0.82527300  0.65054700  0.57264200  1
  O  O30  1  0.82527300  0.17472700  0.57264200  1
  O  O31  1  0.82527300  0.65054700  0.92735800  1
  O  O32  1  0.34945300  0.17472700  0.57264200  1
  O  O33  1  0.65054700  0.82527300  0.07264200  1
loop_
_geom_bond_atom_site_label_1
_geom_bond_atom_site_label_2
_geom_bond_distance
_geom_bond_site_symmetry_2
Ba0 O8 2.975230 1_555
Ba0 O8 2.975230 1_445
Ba0 O7 2.975230 1_555
Ba0 O4 2.975230 1_445
Ba0 O4 2.975230 1_545
Ba0 O7 2.975230 1_545
Ba0 O21 3.021688 1_555
Ba0 O18 3.021688 1_445
Ba0 O11 3.021688 1_555
Ba0 O12 3.021688 1_445
Ba0 O17 3.021688 1_545
Ba0 O10 3.021688 1_545
Ba1 O5 2.975230 1_555
Ba1 O5 2.975230 1_445
Ba1 O6 2.975230 1_445
Ba1 O9 2.975230 1_555
Ba1 O9 2.975230 1_455
Ba1 O6 2.975230 1_455
Ba1 O14 3.021688 1_445
Ba1 O19 3.021688 1_555
Ba1 O13 3.021688 1_555
Ba1 O16 3.021688 1_445
Ba1 O20 3.021688 1_455
Ba1 O15 3.021688 1_455
Ba2 O32 2.837530 1_555
Ba2 O29 2.837530 1_445
Ba2 O24 2.837530 1_555
Ba2 O27 2.837530 1_445
Ba2 O30 2.837534 1_455
Ba2 O28 2.837534 1_545
Ba3 O23 2.837530 1_555
Ba3 O33 2.837530 1_445
Ba3 O26 2.837530 1_554
Ba3 O31 2.837530 1_444
Ba3 O22 2.837534 1_545
Ba3 O25 2.837534 1_454
Ba4 O0 2.642464 1_555
Ba4 O17 2.842913 1_555
Ba4 O21 2.842916 1_555
Ba4 O18 2.842916 1_555
Ba4 O25 3.033678 1_565
Ba4 O25 3.033678 1_455
Ba4 O26 3.033678 1_565
Ba4 O31 3.033678 1_455
Ba4 O31 3.033678 1_555
Ba4 O26 3.033678 1_555
Ba5 O1 2.642464 1_555
Ba5 O20 2.842913 1_555
Ba5 O19 2.842916 1_555
Ba5 O14 2.842916 1_555
Ba5 O28 3.033678 1_655
Ba5 O28 3.033678 1_545
Ba5 O24 3.033678 1_655
Ba5 O27 3.033678 1_545
Ba5 O27 3.033678 1_555
Ba5 O24 3.033678 1_555
Ba6 O2 2.642464 1_555
Ba6 O15 2.842913 1_555
Ba6 O13 2.842916 1_555
Ba6 O16 2.842916 1_555
Ba6 O22 3.033678 1_655
Ba6 O22 3.033678 1_545
Ba6 O23 3.033678 1_655
Ba6 O33 3.033678 1_545
Ba6 O33 3.033678 1_555
Ba6 O23 3.033678 1_555
Ba7 O3 2.642464 1_555
Ba7 O10 2.842913 1_555
Ba7 O12 2.842916 1_555
Ba7 O11 2.842916 1_555
Ba7 O30 3.033678 1_565
Ba7 O30 3.033678 1_455
Ba7 O32 3.033678 1_565
Ba7 O29 3.033678 1_455
Ba7 O29 3.033678 1_555
Ba7 O32 3.033678 1_555
Ba8 O6 2.796510 1_455
Ba8 O9 2.796510 1_565
Ba8 O5 2.796514 1_555
Ba8 O19 2.991005 1_565
Ba8 O14 2.991005 1_455
Ba8 O20 2.991007 1_565
Ba8 O20 2.991007 1_455
Ba8 O19 2.991011 1_555
Ba8 O14 2.991011 1_555
Ba9 O4 2.796510 1_545
Ba9 O7 2.796510 1_655
Ba9 O8 2.796514 1_555
Ba9 O21 2.991005 1_655
Ba9 O18 2.991005 1_545
Ba9 O17 2.991007 1_655
Ba9 O17 2.991007 1_545
Ba9 O21 2.991011 1_555
Ba9 O18 2.991011 1_555
Ba10 O4 2.796510 1_545
Ba10 O7 2.796510 1_655
Ba10 O8 2.796514 1_555
Ba10 O11 2.991005 1_655
Ba10 O12 2.991005 1_545
Ba10 O10 2.991007 1_655
Ba10 O10 2.991007 1_545
Ba10 O11 2.991011 1_555
Ba10 O12 2.991011 1_555
Ba11 O6 2.796510 1_455
Ba11 O9 2.796510 1_565
Ba11 O5 2.796514 1_555
Ba11 O13 2.991005 1_565
Ba11 O16 2.991005 1_455
Ba11 O15 2.991007 1_565
Ba11 O15 2.991007 1_455
Ba11 O13 2.991011 1_555
Ba11 O16 2.991011 1_555
Na0 O19 2.294831 1_555
Na0 O14 2.294831 1_445
Na0 O20 2.294831 1_455
Na0 O24 2.376495 1_555
Na0 O27 2.376495 1_445
Na0 O28 2.376499 1_545
Na1 O21 2.294831 1_555
Na1 O18 2.294831 1_445
Na1 O17 2.294831 1_545
Na1 O26 2.376495 1_555
Na1 O31 2.376495 1_445
Na1 O25 2.376499 1_455
Na2 O11 2.294831 1_555
Na2 O12 2.294831 1_445
Na2 O10 2.294831 1_545
Na2 O32 2.376495 1_555
Na2 O29 2.376495 1_445
Na2 O30 2.376499 1_455
Na3 O13 2.294831 1_555
Na3 O16 2.294831 1_445
Na3 O15 2.294831 1_455
Na3 O23 2.376495 1_555
Na3 O33 2.376495 1_445
Na3 O22 2.376499 1_545
O0 V3 1.726467 1_556
O1 V2 1.726467 1_555
O2 V1 1.726467 1_554
O3 V0 1.726467 1_555
O4 Ru0 2.101375 1_555
O4 Ru3 2.101375 1_555
O5 Ru1 2.101379 1_555
O5 Ru2 2.101379 1_555
O6 Ru2 2.101375 1_555
O6 Ru1 2.101375 1_555
O7 Ru0 2.101375 1_555
O7 Ru3 2.101375 1_555
O8 Ru0 2.101379 1_555
O8 Ru3 2.101379 1_555
O9 Ru1 2.101375 1_555
O9 Ru2 2.101375 1_555
O10 Ru3 1.902861 1_555
O11 Ru3 1.902865 1_555
O12 Ru3 1.902865 1_555
O13 Ru2 1.902865 1_555
O14 Ru1 1.902865 1_555
O15 Ru2 1.902861 1_555
O16 Ru2 1.902865 1_555
O17 Ru0 1.902861 1_555
O18 Ru0 1.902865 1_555
O19 Ru1 1.902865 1_555
O20 Ru1 1.902861 1_555
O21 Ru0 1.902865 1_555
O22 V3 1.748081 1_555
O23 V3 1.748091 1_555
O24 V0 1.748091 1_555
O25 V1 1.748081 1_555
O26 V1 1.748091 1_555
O27 V0 1.748091 1_555
O28 V0 1.748081 1_555
O29 V2 1.748091 1_555
O30 V2 1.748081 1_555
O31 V1 1.748091 1_555
O32 V2 1.748091 1_555
O33 V3 1.748091 1_555
