# generated using pymatgen
data_Sc(CoGe)6
_symmetry_space_group_name_H-M   'P 1'
_cell_length_a   5.04373900
_cell_length_b   5.04373916
_cell_length_c   7.79063700
_cell_angle_alpha   90.00000000
_cell_angle_beta   90.00000000
_cell_angle_gamma   120.00000551
_symmetry_Int_Tables_number   1
_chemical_formula_structural   Sc(CoGe)6
_chemical_formula_sum   'Sc1 Co6 Ge6'
_cell_volume   171.63616425
_cell_formula_units_Z   1
loop_
 _symmetry_equiv_pos_site_id
 _symmetry_equiv_pos_as_xyz
  1  'x, y, z'
loop_
 _atom_site_type_symbol
 _atom_site_label
 _atom_site_symmetry_multiplicity
 _atom_site_fract_x
 _atom_site_fract_y
 _atom_site_fract_z
 _atom_site_occupancy
  Sc  Sc0  1  0.00000000  0.00000000  0.00000000  1
  Co  Co0  1  0.50000000  0.50000000  0.75037400  1
  Co  Co1  1  0.50000000  0.00000000  0.75037400  1
  Co  Co2  1  0.00000000  0.50000000  0.75037400  1
  Co  Co3  1  0.50000000  0.50000000  0.24962600  1
  Co  Co4  1  0.50000000  0.00000000  0.24962600  1
  Co  Co5  1  0.00000000  0.50000000  0.24962600  1
  Ge  Ge0  1  0.66666700  0.33333300  0.50000000  1
  Ge  Ge1  1  0.33333300  0.66666700  0.50000000  1
  Ge  Ge2  1  0.66666700  0.33333300  0.00000000  1
  Ge  Ge3  1  0.33333300  0.66666700  0.00000000  1
  Ge  Ge4  1  0.00000000  0.00000000  0.66015600  1
  Ge  Ge5  1  0.00000000  0.00000000  0.33984400  1
loop_
_geom_bond_atom_site_label_1
_geom_bond_atom_site_label_2
_geom_bond_distance
_geom_bond_site_symmetry_2
Co0 Ge3 2.429400 1_556
Co0 Ge2 2.429400 1_556
Co0 Ge1 2.434068 1_555
Co0 Ge0 2.434068 1_555
Co0 Co2 2.521870 1_555
Co0 Co2 2.521870 1_655
Co0 Co1 2.521870 1_555
Co0 Co1 2.521870 1_565
Co0 Ge4 2.617982 1_665
Co0 Ge4 2.617982 1_555
Co0 Sc0 3.184629 1_666
Co0 Sc0 3.184629 1_556
Co1 Ge3 2.429398 1_546
Co1 Ge2 2.429398 1_556
Co1 Ge1 2.434065 1_545
Co1 Ge0 2.434065 1_555
Co1 Co2 2.521869 1_655
Co1 Co2 2.521869 1_545
Co1 Ge4 2.617982 1_655
Co1 Ge4 2.617982 1_555
Co1 Sc0 3.184629 1_556
Co1 Sc0 3.184629 1_656
Co2 Ge3 2.429398 1_556
Co2 Ge2 2.429398 1_456
Co2 Ge1 2.434065 1_555
Co2 Ge0 2.434065 1_455
Co2 Ge4 2.617982 1_565
Co2 Ge4 2.617982 1_555
Co2 Sc0 3.184629 1_556
Co2 Sc0 3.184629 1_566
Co3 Ge3 2.429400 1_555
Co3 Ge2 2.429400 1_555
Co3 Ge1 2.434068 1_555
Co3 Ge0 2.434068 1_555
Co3 Co5 2.521870 1_655
Co3 Co5 2.521870 1_555
Co3 Co4 2.521870 1_555
Co3 Co4 2.521870 1_565
Co3 Ge5 2.617982 1_555
Co3 Ge5 2.617982 1_665
Co3 Sc0 3.184629 1_665
Co3 Sc0 3.184629 1_555
Co4 Ge2 2.429398 1_555
Co4 Ge3 2.429398 1_545
Co4 Ge1 2.434065 1_545
Co4 Ge0 2.434065 1_555
Co4 Co5 2.521869 1_655
Co4 Co5 2.521869 1_545
Co4 Ge5 2.617982 1_555
Co4 Ge5 2.617982 1_655
Co4 Sc0 3.184629 1_655
Co4 Sc0 3.184629 1_555
Co5 Ge2 2.429398 1_455
Co5 Ge3 2.429398 1_555
Co5 Ge1 2.434065 1_555
Co5 Ge0 2.434065 1_455
Co5 Ge5 2.617982 1_555
Co5 Ge5 2.617982 1_565
Co5 Sc0 3.184629 1_565
Co5 Sc0 3.184629 1_555
Ge2 Sc0 2.912001 1_655
Ge2 Sc0 2.912005 1_555
Ge2 Sc0 2.912005 1_665
Ge3 Sc0 2.912001 1_565
Ge3 Sc0 2.912005 1_665
Ge3 Sc0 2.912005 1_555
Ge4 Ge5 2.495435 1_555
Ge4 Sc0 2.647601 1_556
Ge5 Sc0 2.647601 1_555
