# generated using pymatgen
data_Na6NiO4
_symmetry_space_group_name_H-M   'P 1'
_cell_length_a   7.51597629
_cell_length_b   7.49236829
_cell_length_c   5.78220281
_cell_angle_alpha   89.92662886
_cell_angle_beta   90.03662921
_cell_angle_gamma   119.89387638
_symmetry_Int_Tables_number   1
_chemical_formula_structural   Na6NiO4
_chemical_formula_sum   'Na12 Ni2 O8'
_cell_volume   282.28743296
_cell_formula_units_Z   2
loop_
 _symmetry_equiv_pos_site_id
 _symmetry_equiv_pos_as_xyz
  1  'x, y, z'
loop_
 _atom_site_type_symbol
 _atom_site_label
 _atom_site_symmetry_multiplicity
 _atom_site_fract_x
 _atom_site_fract_y
 _atom_site_fract_z
 _atom_site_occupancy
  Na  Na0  1  0.14272727  0.85898476  0.96601597  1
  Na  Na1  1  0.07374563  0.53404378  0.63799161  1
  Na  Na2  1  0.14316554  0.28283380  0.96490691  1
  Na  Na3  1  0.46965179  0.93657593  0.63794580  1
  Na  Na4  1  0.46188328  0.53620531  0.62949295  1
  Na  Na5  1  0.28824454  0.14337058  0.46664481  1
  Na  Na6  1  0.71185600  0.85516565  0.96663198  1
  Na  Na7  1  0.53041190  0.46698402  0.13795830  1
  Na  Na8  1  0.53813736  0.07440956  0.12943654  1
  Na  Na9  1  0.85718511  0.71621421  0.46602442  1
  Na  Na10  1  0.92616386  0.46029699  0.13793438  1
  Na  Na11  1  0.85688569  0.13975848  0.46483830  1
  Ni  Ni0  1  0.32928468  0.67095133  0.24857474  1
  Ni  Ni1  1  0.67068626  0.34167995  0.74867663  1
  O  O0  1  0.18356686  0.81110316  0.35857578  1
  O  O1  1  0.19077616  0.37733878  0.35267918  1
  O  O2  1  0.33714632  0.66333154  0.90781764  1
  O  O3  1  0.62005957  0.80516772  0.35317455  1
  O  O4  1  0.38002923  0.18514885  0.85311977  1
  O  O5  1  0.81636577  0.62739400  0.85855886  1
  O  O6  1  0.66286342  0.32621154  0.40802217  1
  O  O7  1  0.80916476  0.18663007  0.85257771  1
loop_
_geom_bond_atom_site_label_1
_geom_bond_atom_site_label_2
_geom_bond_distance
_geom_bond_site_symmetry_2
Na0 O5 2.274191 1_455
Na0 O4 2.287339 1_565
Na0 O0 2.341361 1_556
Na0 O2 2.556255 1_555
Na1 O2 2.319518 1_555
Na1 O0 2.426081 1_555
Na1 O1 2.431057 1_555
Na1 O7 2.665458 1_455
Na1 O5 2.685509 1_455
Na2 O1 2.325349 1_556
Na2 O4 2.329004 1_555
Na2 O7 2.332104 1_455
Na2 O2 2.493390 1_555
Na3 O2 2.362107 1_555
Na3 O3 2.464665 1_555
Na3 O0 2.470049 1_555
Na3 O4 2.593790 1_565
Na3 O7 2.607343 1_565
Na4 O2 2.296095 1_555
Na4 O3 2.373423 1_555
Na4 O1 2.390348 1_555
Na4 O4 2.710720 1_555
Na4 O5 2.739135 1_555
Na5 O0 2.293023 1_545
Na5 O1 2.306579 1_555
Na5 O4 2.313489 1_555
Na5 O6 2.464663 1_555
Na6 O5 2.293327 1_555
Na6 O7 2.307226 1_565
Na6 O3 2.313887 1_556
Na6 O2 2.465404 1_555
Na7 O6 2.362698 1_555
Na7 O4 2.465057 1_554
Na7 O5 2.469473 1_554
Na7 O3 2.593829 1_555
Na7 O1 2.608012 1_555
Na8 O6 2.296909 1_555
Na8 O4 2.372810 1_554
Na8 O7 2.390120 1_554
Na8 O3 2.711549 1_545
Na8 O0 2.739814 1_545
Na9 O0 2.274082 1_655
Na9 O3 2.286418 1_555
Na9 O5 2.341387 1_555
Na9 O6 2.555742 1_555
Na10 O6 2.320058 1_555
Na10 O5 2.425057 1_554
Na10 O7 2.430942 1_554
Na10 O1 2.666571 1_655
Na10 O0 2.686188 1_655
Na11 O7 2.325312 1_555
Na11 O3 2.329045 1_545
Na11 O1 2.330925 1_655
Na11 O6 2.492959 1_555
Ni0 O0 1.963581 1_555
Ni0 O2 1.973002 1_554
Ni0 O3 1.990599 1_555
Ni0 O1 2.000023 1_555
Ni1 O5 1.962466 1_555
Ni1 O6 1.972405 1_555
Ni1 O4 1.989611 1_555
Ni1 O7 1.999086 1_555
