# generated using pymatgen
data_CsY2Cl7
_symmetry_space_group_name_H-M   'P 1'
_cell_length_a   7.00521892
_cell_length_b   12.68146100
_cell_length_c   13.61715529
_cell_angle_alpha   90.00000000
_cell_angle_beta   90.00000000
_cell_angle_gamma   90.00000000
_symmetry_Int_Tables_number   1
_chemical_formula_structural   CsY2Cl7
_chemical_formula_sum   'Cs4 Y8 Cl28'
_cell_volume   1209.69919760
_cell_formula_units_Z   4
loop_
 _symmetry_equiv_pos_site_id
 _symmetry_equiv_pos_as_xyz
  1  'x, y, z'
loop_
 _atom_site_type_symbol
 _atom_site_label
 _atom_site_symmetry_multiplicity
 _atom_site_fract_x
 _atom_site_fract_y
 _atom_site_fract_z
 _atom_site_occupancy
  Cs  Cs0  1  0.25000000  0.80226286  0.03942017  1
  Cs  Cs1  1  0.75000000  0.19773714  0.96057983  1
  Cs  Cs2  1  0.75000000  0.30226286  0.46057983  1
  Cs  Cs3  1  0.25000000  0.69773714  0.53942017  1
  Y  Y0  1  0.25000000  0.45803150  0.23983868  1
  Y  Y1  1  0.75000000  0.54196850  0.76016132  1
  Y  Y2  1  0.75000000  0.95803150  0.26016132  1
  Y  Y3  1  0.25000000  0.04196850  0.73983868  1
  Y  Y4  1  0.25000000  0.15483867  0.24897991  1
  Y  Y5  1  0.75000000  0.84516133  0.75102009  1
  Y  Y6  1  0.75000000  0.65483867  0.25102009  1
  Y  Y7  1  0.25000000  0.34516133  0.74897991  1
  Cl  Cl0  1  0.00982915  0.30498667  0.17814867  1
  Cl  Cl1  1  0.99017085  0.69501333  0.82185133  1
  Cl  Cl2  1  0.99017085  0.80498667  0.32185133  1
  Cl  Cl3  1  0.50982915  0.69501333  0.82185133  1
  Cl  Cl4  1  0.00982915  0.19501333  0.67814867  1
  Cl  Cl5  1  0.49017085  0.30498667  0.17814867  1
  Cl  Cl6  1  0.49017085  0.19501333  0.67814867  1
  Cl  Cl7  1  0.50982915  0.80498667  0.32185133  1
  Cl  Cl8  1  0.00891132  0.57352885  0.12656610  1
  Cl  Cl9  1  0.99108868  0.42647115  0.87343390  1
  Cl  Cl10  1  0.99108868  0.07352885  0.37343390  1
  Cl  Cl11  1  0.50891132  0.42647115  0.87343390  1
  Cl  Cl12  1  0.00891132  0.92647115  0.62656610  1
  Cl  Cl13  1  0.49108868  0.57352885  0.12656610  1
  Cl  Cl14  1  0.49108868  0.92647115  0.62656610  1
  Cl  Cl15  1  0.50891132  0.07352885  0.37343390  1
  Cl  Cl16  1  0.00990801  0.03850821  0.13358863  1
  Cl  Cl17  1  0.99009199  0.96149179  0.86641137  1
  Cl  Cl18  1  0.99009199  0.53850821  0.36641137  1
  Cl  Cl19  1  0.50990801  0.96149179  0.86641137  1
  Cl  Cl20  1  0.00990801  0.46149179  0.63358863  1
  Cl  Cl21  1  0.49009199  0.03850821  0.13358863  1
  Cl  Cl22  1  0.49009199  0.46149179  0.63358863  1
  Cl  Cl23  1  0.50990801  0.53850821  0.36641137  1
  Cl  Cl24  1  0.25000000  0.30898777  0.38936309  1
  Cl  Cl25  1  0.75000000  0.69101223  0.61063691  1
  Cl  Cl26  1  0.75000000  0.80898777  0.11063691  1
  Cl  Cl27  1  0.25000000  0.19101223  0.88936309  1
loop_
_geom_bond_atom_site_label_1
_geom_bond_atom_site_label_2
_geom_bond_distance
_geom_bond_site_symmetry_2
Cl0 Y0 2.702432 1_555
Cl0 Y4 2.717815 1_555
Cl0 Cs1 3.733659 1_454
Cl1 Y1 2.702432 1_555
Cl1 Y5 2.717815 1_555
Cl1 Cs0 3.733659 1_656
Cl2 Y2 2.702432 1_555
Cl2 Y6 2.717815 1_555
Cl2 Cs3 3.733659 1_655
Cl3 Y1 2.702432 1_555
Cl3 Y5 2.717815 1_555
Cl3 Cs0 3.733659 1_556
Cl4 Y3 2.702432 1_555
Cl4 Y7 2.717815 1_555
Cl4 Cs2 3.733659 1_455
Cl5 Y0 2.702432 1_555
Cl5 Y4 2.717815 1_555
Cl5 Cs1 3.733659 1_554
Cl6 Y3 2.702432 1_555
Cl6 Y7 2.717815 1_555
Cl6 Cs2 3.733659 1_555
Cl7 Y2 2.702432 1_555
Cl7 Y6 2.717815 1_555
Cl7 Cs3 3.733659 1_555
Cl8 Y6 2.687914 1_455
Cl8 Y0 2.716015 1_555
Cl8 Cs0 3.560123 1_555
Cl9 Y7 2.687914 1_655
Cl9 Y1 2.716015 1_555
Cl9 Cs1 3.560123 1_555
Cl10 Y4 2.687914 1_655
Cl10 Y2 2.716015 1_545
Cl10 Cs2 3.560123 1_555
Cl11 Y7 2.687914 1_555
Cl11 Y1 2.716015 1_555
Cl11 Cs1 3.560123 1_555
Cl12 Y5 2.687914 1_455
Cl12 Y3 2.716015 1_565
Cl12 Cs3 3.560123 1_555
Cl13 Y6 2.687914 1_555
Cl13 Y0 2.716015 1_555
Cl13 Cs0 3.560123 1_555
Cl14 Y5 2.687914 1_555
Cl14 Y3 2.716015 1_565
Cl14 Cs3 3.560123 1_555
Cl15 Y4 2.687914 1_555
Cl15 Y2 2.716015 1_545
Cl15 Cs2 3.560123 1_555
Cl16 Y2 2.706880 1_445
Cl16 Y4 2.733880 1_555
Cl16 Cs1 3.597582 1_454
Cl16 Cs0 3.667250 1_545
Cl17 Y3 2.706880 1_665
Cl17 Y5 2.733880 1_555
Cl17 Cs0 3.597582 1_656
Cl17 Cs1 3.667250 1_565
Cl18 Y0 2.706880 1_655
Cl18 Y6 2.733880 1_555
Cl18 Cs3 3.597582 1_655
Cl18 Cs2 3.667250 1_555
Cl19 Y3 2.706880 1_565
Cl19 Y5 2.733880 1_555
Cl19 Cs0 3.597582 1_556
Cl19 Cs1 3.667250 1_565
Cl20 Y1 2.706880 1_455
Cl20 Y7 2.733880 1_555
Cl20 Cs2 3.597582 1_455
Cl20 Cs3 3.667250 1_555
Cl21 Y2 2.706880 1_545
Cl21 Y4 2.733880 1_555
Cl21 Cs1 3.597582 1_554
Cl21 Cs0 3.667250 1_545
Cl22 Y1 2.706880 1_555
Cl22 Y7 2.733880 1_555
Cl22 Cs2 3.597582 1_555
Cl22 Cs3 3.667250 1_555
Cl23 Y0 2.706880 1_555
Cl23 Y6 2.733880 1_555
Cl23 Cs3 3.597582 1_555
Cl23 Cs2 3.667250 1_555
Cl24 Y4 2.734168 1_555
Cl24 Y0 2.778154 1_555
Cl24 Cs2 3.635382 1_555
Cl24 Cs2 3.635382 1_455
Cl25 Y5 2.734168 1_555
Cl25 Y1 2.778154 1_555
Cl25 Cs3 3.635382 1_555
Cl25 Cs3 3.635382 1_655
Cl26 Y6 2.734168 1_555
Cl26 Y2 2.778154 1_555
Cl26 Cs0 3.635382 1_555
Cl26 Cs0 3.635382 1_655
Cl27 Y7 2.734168 1_555
Cl27 Y3 2.778154 1_555
Cl27 Cs1 3.635382 1_455
Cl27 Cs1 3.635382 1_555
