# generated using pymatgen
data_Mg14CoB
_symmetry_space_group_name_H-M   'P 1'
_cell_length_a   6.21625070
_cell_length_b   6.21625022
_cell_length_c   9.64023891
_cell_angle_alpha   90.00000000
_cell_angle_beta   90.00000000
_cell_angle_gamma   120.00000255
_symmetry_Int_Tables_number   1
_chemical_formula_structural   Mg14CoB
_chemical_formula_sum   'Mg14 Co1 B1'
_cell_volume   322.60821811
_cell_formula_units_Z   1
loop_
 _symmetry_equiv_pos_site_id
 _symmetry_equiv_pos_as_xyz
  1  'x, y, z'
loop_
 _atom_site_type_symbol
 _atom_site_label
 _atom_site_symmetry_multiplicity
 _atom_site_fract_x
 _atom_site_fract_y
 _atom_site_fract_z
 _atom_site_occupancy
  Mg  Mg0  1  0.16806986  0.83403443  0.12500000  1
  Mg  Mg1  1  0.16713785  0.83356843  0.62500000  1
  Mg  Mg2  1  0.66596557  0.33193014  0.12500000  1
  Mg  Mg3  1  0.66643157  0.33286215  0.62500000  1
  Mg  Mg4  1  0.66596557  0.83403443  0.12500000  1
  Mg  Mg5  1  0.66643157  0.83356843  0.62500000  1
  Mg  Mg6  1  0.32263152  0.17736848  0.37351339  1
  Mg  Mg7  1  0.32263152  0.17736848  0.87648661  1
  Mg  Mg8  1  0.32263152  0.64526403  0.37351339  1
  Mg  Mg9  1  0.32263152  0.64526403  0.87648661  1
  Mg  Mg10  1  0.85473597  0.17736848  0.37351339  1
  Mg  Mg11  1  0.85473597  0.17736848  0.87648661  1
  Mg  Mg12  1  0.83333300  0.66666700  0.37278828  1
  Mg  Mg13  1  0.83333300  0.66666700  0.87721172  1
  Co  Co0  1  0.16666700  0.33333300  0.12500000  1
  B  B0  1  0.16666700  0.33333300  0.62500000  1
loop_
_geom_bond_atom_site_label_1
_geom_bond_atom_site_label_2
_geom_bond_distance
_geom_bond_site_symmetry_2
Mg0 Mg13 2.992222 1_454
Mg0 Mg12 2.992222 1_455
Mg0 Mg8 3.027713 1_555
Mg0 Mg9 3.027713 1_554
Mg0 Mg7 3.027720 1_564
Mg0 Mg6 3.027720 1_565
Mg0 Mg2 3.095044 1_565
Mg0 Mg4 3.095045 1_555
Mg0 Mg2 3.121206 1_455
Mg0 Mg4 3.121206 1_455
Mg1 Mg12 3.023389 1_455
Mg1 Mg13 3.023389 1_455
Mg1 Mg8 3.051816 1_555
Mg1 Mg9 3.051816 1_555
Mg1 Mg6 3.051823 1_565
Mg1 Mg7 3.051823 1_565
Mg2 Mg7 3.027720 1_554
Mg2 Mg6 3.027720 1_555
Mg2 Mg4 3.095044 1_545
Mg2 Mg4 3.121206 1_555
Mg3 Mg6 3.051823 1_555
Mg3 Mg7 3.051823 1_555
Mg4 Mg9 3.027720 1_554
Mg4 Mg8 3.027720 1_555
Mg5 Mg8 3.051822 1_555
Mg5 Mg9 3.051822 1_555
Mg6 Mg8 2.908556 1_555
Mg6 Mg8 3.307694 1_545
Mg7 Mg9 2.908556 1_555
Mg7 Mg9 3.307694 1_545
Mg10 Mg8 2.908556 1_655
Mg10 Mg6 2.908556 1_655
Mg10 Mg2 3.027714 1_555
Mg10 Mg4 3.027720 1_545
Mg10 Mg3 3.051816 1_555
Mg10 Mg5 3.051822 1_545
Mg10 Mg12 3.110268 1_545
Mg10 Mg12 3.110268 1_555
Mg10 Mg8 3.307694 1_545
Mg10 Mg6 3.307695 1_555
Mg11 Mg9 2.908556 1_655
Mg11 Mg7 2.908556 1_655
Mg11 Mg2 3.027714 1_556
Mg11 Mg4 3.027720 1_546
Mg11 Mg3 3.051816 1_555
Mg11 Mg5 3.051822 1_545
Mg11 Mg13 3.110268 1_545
Mg11 Mg13 3.110268 1_555
Mg11 Mg9 3.307694 1_545
Mg11 Mg7 3.307695 1_555
Mg12 Mg4 2.992215 1_555
Mg12 Mg2 2.992222 1_555
Mg12 Mg5 3.023382 1_555
Mg12 Mg3 3.023389 1_555
Mg12 Mg6 3.110268 1_665
Mg12 Mg6 3.110268 1_555
Mg12 Mg8 3.110268 1_555
Mg12 Mg8 3.110268 1_655
Mg13 Mg4 2.992215 1_556
Mg13 Mg2 2.992222 1_556
Mg13 Mg5 3.023382 1_555
Mg13 Mg3 3.023389 1_555
Mg13 Mg7 3.110268 1_665
Mg13 Mg7 3.110268 1_555
Mg13 Mg9 3.110268 1_555
Mg13 Mg9 3.110268 1_655
Co0 Mg7 2.925644 1_554
Co0 Mg6 2.925644 1_555
Co0 Mg9 2.925650 1_554
Co0 Mg8 2.925650 1_555
Co0 Mg10 2.925650 1_455
Co0 Mg11 2.925650 1_454
Co0 Mg0 3.108134 1_555
Co0 Mg4 3.108134 1_555
Co0 Mg4 3.108134 1_445
Co0 Mg0 3.108134 1_545
Co0 Mg2 3.108135 1_455
Co0 Mg2 3.108135 1_555
B0 Mg6 2.949160 1_555
B0 Mg7 2.949160 1_555
B0 Mg8 2.949166 1_555
B0 Mg9 2.949166 1_555
B0 Mg10 2.949166 1_455
B0 Mg11 2.949166 1_455
