# generated using pymatgen
data_Mg5(Si4O15)2
_symmetry_space_group_name_H-M   'P 1'
_cell_length_a   11.48391291
_cell_length_b   11.48391291
_cell_length_c   5.34554968
_cell_angle_alpha   80.36384973
_cell_angle_beta   80.36384973
_cell_angle_gamma   105.71978426
_symmetry_Int_Tables_number   1
_chemical_formula_structural   Mg5(Si4O15)2
_chemical_formula_sum   'Mg5 Si8 O30'
_cell_volume   652.00353161
_cell_formula_units_Z   1
loop_
 _symmetry_equiv_pos_site_id
 _symmetry_equiv_pos_as_xyz
  1  'x, y, z'
loop_
 _atom_site_type_symbol
 _atom_site_label
 _atom_site_symmetry_multiplicity
 _atom_site_fract_x
 _atom_site_fract_y
 _atom_site_fract_z
 _atom_site_occupancy
  Mg  Mg0  1  0.00000000  0.00000000  0.00000000  1
  Mg  Mg1  1  0.09563200  0.90436800  0.50000000  1
  Mg  Mg2  1  0.90436800  0.09563200  0.50000000  1
  Mg  Mg3  1  0.17037500  0.82962500  0.00000000  1
  Mg  Mg4  1  0.82962500  0.17037500  0.00000000  1
  Si  Si0  1  0.29462400  0.12504900  0.02421600  1
  Si  Si1  1  0.12504900  0.29462400  0.02421600  1
  Si  Si2  1  0.70537600  0.87495100  0.97578400  1
  Si  Si3  1  0.87495100  0.70537600  0.97578400  1
  Si  Si4  1  0.37764300  0.04445500  0.52926100  1
  Si  Si5  1  0.04445500  0.37764300  0.52926100  1
  Si  Si6  1  0.62235700  0.95554500  0.47073900  1
  Si  Si7  1  0.95554500  0.62235700  0.47073900  1
  O  O0  1  0.05921700  0.05921700  0.60215600  1
  O  O1  1  0.94078300  0.94078300  0.39784400  1
  O  O2  1  0.17504800  0.99817000  0.10272300  1
  O  O3  1  0.99817000  0.17504800  0.10272300  1
  O  O4  1  0.82495200  0.00183000  0.89727700  1
  O  O5  1  0.00183000  0.82495200  0.89727700  1
  O  O6  1  0.25335600  0.92460100  0.63069400  1
  O  O7  1  0.92460100  0.25335600  0.63069400  1
  O  O8  1  0.74664400  0.07539900  0.36930600  1
  O  O9  1  0.07539900  0.74664400  0.36930600  1
  O  O10  1  0.31083800  0.77075500  0.17426000  1
  O  O11  1  0.77075500  0.31083800  0.17426000  1
  O  O12  1  0.68916200  0.22924500  0.82574000  1
  O  O13  1  0.22924500  0.68916200  0.82574000  1
  O  O14  1  0.24802800  0.24802800  0.99922400  1
  O  O15  1  0.75197200  0.75197200  0.00077600  1
  O  O16  1  0.50000000  0.00000000  0.50000000  1
  O  O17  1  0.00000000  0.50000000  0.50000000  1
  O  O18  1  0.37642200  0.12561100  0.24687300  1
  O  O19  1  0.12561100  0.37642200  0.24687300  1
  O  O20  1  0.62357800  0.87438900  0.75312700  1
  O  O21  1  0.87438900  0.62357800  0.75312700  1
  O  O22  1  0.38279000  0.13211800  0.74377700  1
  O  O23  1  0.13211800  0.38279000  0.74377700  1
  O  O24  1  0.61720900  0.86788200  0.25622300  1
  O  O25  1  0.86788200  0.61721000  0.25622300  1
  O  O26  1  0.34115300  0.65884700  0.50000000  1
  O  O27  1  0.65884700  0.34115300  0.50000000  1
  O  O28  1  0.36222100  0.63777900  0.00000000  1
  O  O29  1  0.63777900  0.36222100  0.00000000  1
loop_
_geom_bond_atom_site_label_1
_geom_bond_atom_site_label_2
_geom_bond_distance
_geom_bond_site_symmetry_2
Mg0 O1 2.056406 1_445
Mg0 O0 2.056406 1_554
Mg0 O5 2.175221 1_544
Mg0 O4 2.175221 1_454
Mg0 O3 2.175221 1_455
Mg0 O2 2.175221 1_545
Mg1 O9 2.018112 1_555
Mg1 O6 2.018112 1_555
Mg1 O1 2.070493 1_455
Mg1 O0 2.070493 1_565
Mg1 O5 2.134359 1_555
Mg1 O2 2.134359 1_555
Mg2 O8 2.018112 1_555
Mg2 O7 2.018112 1_555
Mg2 O1 2.070493 1_545
Mg2 O0 2.070493 1_655
Mg2 O4 2.134359 1_555
Mg2 O3 2.134359 1_555
Mg3 O9 2.020175 1_555
Mg3 O6 2.020175 1_554
Mg3 O5 2.088104 1_554
Mg3 O2 2.088104 1_555
Mg3 O13 2.193144 1_554
Mg3 O10 2.193144 1_555
Mg4 O8 2.020175 1_555
Mg4 O7 2.020175 1_554
Mg4 O4 2.088104 1_554
Mg4 O3 2.088104 1_555
Mg4 O12 2.193144 1_554
Mg4 O11 2.193144 1_555
O2 Si0 1.644084 1_565
O3 Si1 1.644084 1_655
O4 Si2 1.644084 1_545
O5 Si3 1.644084 1_455
O6 Si4 1.628557 1_565
O7 Si5 1.628557 1_655
O8 Si6 1.628557 1_545
O9 Si7 1.628557 1_455
O10 O28 2.080477 1_555
O11 O29 2.080477 1_555
O12 O29 2.080477 1_556
O13 O28 2.080477 1_556
O14 Si0 1.633703 1_556
O14 Si1 1.633703 1_556
O15 Si2 1.633703 1_554
O15 Si3 1.633703 1_554
O16 Si4 1.612874 1_555
O16 Si6 1.612874 1_545
O17 Si5 1.612874 1_555
O17 Si7 1.612874 1_455
O18 Si0 1.634828 1_555
O18 Si4 1.640313 1_555
O19 Si1 1.634828 1_555
O19 Si5 1.640313 1_555
O20 Si2 1.634828 1_555
O20 Si6 1.640313 1_555
O21 Si3 1.634828 1_555
O21 Si7 1.640313 1_555
O22 Si0 1.638783 1_556
O22 Si4 1.645850 1_555
O23 Si1 1.638783 1_556
O23 Si5 1.645850 1_555
O24 Si2 1.638788 1_554
O24 Si6 1.645850 1_555
O25 Si3 1.638783 1_554
O25 Si7 1.645850 1_555
