# generated using pymatgen
data_Rb12Mg(ClO)4
_symmetry_space_group_name_H-M   'P 1'
_cell_length_a   7.93543325
_cell_length_b   8.10779645
_cell_length_c   11.03117800
_cell_angle_alpha   90.00000000
_cell_angle_beta   90.00000000
_cell_angle_gamma   91.12320989
_symmetry_Int_Tables_number   1
_chemical_formula_structural   Rb12Mg(ClO)4
_chemical_formula_sum   'Rb12 Mg1 Cl4 O4'
_cell_volume   709.59723779
_cell_formula_units_Z   1
loop_
 _symmetry_equiv_pos_site_id
 _symmetry_equiv_pos_as_xyz
  1  'x, y, z'
loop_
 _atom_site_type_symbol
 _atom_site_label
 _atom_site_symmetry_multiplicity
 _atom_site_fract_x
 _atom_site_fract_y
 _atom_site_fract_z
 _atom_site_occupancy
  Rb  Rb0  1  0.04579500  0.56205000  0.25000000  1
  Rb  Rb1  1  0.18952200  0.20312600  0.46648200  1
  Rb  Rb2  1  0.18952200  0.20312600  0.03351800  1
  Rb  Rb3  1  0.25835200  0.73428000  0.96102000  1
  Rb  Rb4  1  0.25835200  0.73428000  0.53898000  1
  Rb  Rb5  1  0.50008000  0.92366600  0.25000000  1
  Rb  Rb6  1  0.56631800  0.99870800  0.75000000  1
  Rb  Rb7  1  0.69223400  0.28754100  0.05135000  1
  Rb  Rb8  1  0.69223400  0.28754100  0.44865000  1
  Rb  Rb9  1  0.77674000  0.77478900  0.99728500  1
  Rb  Rb10  1  0.77674000  0.77478900  0.50271500  1
  Rb  Rb11  1  0.93487600  0.46625900  0.75000000  1
  Mg  Mg0  1  0.36140800  0.36109400  0.75000000  1
  Cl  Cl0  1  0.95942200  0.97951600  0.25000000  1
  Cl  Cl1  1  0.46320100  0.51004800  0.25000000  1
  Cl  Cl2  1  0.55567300  0.61065200  0.75000000  1
  Cl  Cl3  1  0.99445900  0.90853400  0.75000000  1
  O  O0  1  0.98455600  0.48860100  0.00721300  1
  O  O1  1  0.98455600  0.48860100  0.49278700  1
  O  O2  1  0.49131400  0.00139800  0.00497700  1
  O  O3  1  0.49131400  0.00139800  0.49502300  1
loop_
_geom_bond_atom_site_label_1
_geom_bond_atom_site_label_2
_geom_bond_distance
_geom_bond_site_symmetry_2
Mg0 Rb6 3.385865 1_545
Mg0 Rb11 3.506633 1_455
Cl0 Rb0 3.466573 1_655
Cl0 Rb1 3.491989 1_665
Cl0 Rb2 3.491989 1_665
Cl0 Rb10 3.540327 1_555
Cl0 Rb9 3.540327 1_554
Cl0 Rb5 3.664277 1_555
Cl1 Rb0 3.347212 1_555
Cl1 Rb5 3.360556 1_555
Cl1 Rb8 3.389442 1_555
Cl1 Rb7 3.389442 1_555
Cl2 Mg0 2.519560 1_555
Cl2 Rb6 3.145757 1_555
Cl2 Rb11 3.250169 1_555
Cl2 Rb3 3.476018 1_555
Cl2 Rb4 3.476018 1_555
Cl2 Rb10 3.492570 1_555
Cl2 Rb9 3.492570 1_555
Cl3 Rb10 3.395363 1_555
Cl3 Rb9 3.395363 1_555
Cl3 Rb3 3.451951 1_655
Cl3 Rb4 3.451951 1_655
Cl3 Rb6 3.489242 1_555
Cl3 Rb11 3.607713 1_555
O0 Rb0 2.784302 1_655
O0 Rb7 2.850828 1_555
O0 Rb2 2.869586 1_655
O0 Rb11 2.869853 1_554
O0 Rb9 2.874999 1_554
O0 Rb3 2.962818 1_654
O1 Rb0 2.784302 1_655
O1 Rb8 2.850828 1_555
O1 Rb1 2.869586 1_655
O1 Rb11 2.869853 1_555
O1 Rb10 2.874999 1_555
O1 Rb4 2.962818 1_655
O2 Rb5 2.776577 1_545
O2 Rb7 2.835681 1_555
O2 Rb3 2.861137 1_544
O2 Rb6 2.875152 1_544
O2 Rb2 2.943312 1_555
O2 Rb9 2.945530 1_544
O3 Rb5 2.776577 1_545
O3 Rb8 2.835681 1_555
O3 Rb4 2.861137 1_545
O3 Rb6 2.875152 1_545
O3 Rb1 2.943312 1_555
O3 Rb10 2.945530 1_545
