# generated using pymatgen
data_ZrGeOs
_symmetry_space_group_name_H-M   'P 1'
_cell_length_a   6.73698252
_cell_length_b   6.73698252
_cell_length_c   3.80847738
_cell_angle_alpha   90.00000000
_cell_angle_beta   90.00000000
_cell_angle_gamma   119.99999842
_symmetry_Int_Tables_number   1
_chemical_formula_structural   ZrGeOs
_chemical_formula_sum   'Zr3 Ge3 Os3'
_cell_volume   149.69691833
_cell_formula_units_Z   3
loop_
 _symmetry_equiv_pos_site_id
 _symmetry_equiv_pos_as_xyz
  1  'x, y, z'
loop_
 _atom_site_type_symbol
 _atom_site_label
 _atom_site_symmetry_multiplicity
 _atom_site_fract_x
 _atom_site_fract_y
 _atom_site_fract_z
 _atom_site_occupancy
  Zr  Zr0  1  0.41724458  0.41724458  0.50000000  1
  Zr  Zr1  1  0.58275542  -0.00000000  0.50000000  1
  Zr  Zr2  1  -0.00000000  0.58275542  0.50000000  1
  Ge  Ge0  1  0.66666700  0.33333300  0.00000000  1
  Ge  Ge1  1  0.33333300  0.66666700  -0.00000000  1
  Ge  Ge2  1  0.00000000  0.00000000  0.50000000  1
  Os  Os0  1  0.75514391  0.75514391  0.00000000  1
  Os  Os1  1  0.24485609  0.00000000  -0.00000000  1
  Os  Os2  1  0.00000000  0.24485609  0.00000000  1
loop_
_geom_bond_atom_site_label_1
_geom_bond_atom_site_label_2
_geom_bond_distance
_geom_bond_site_symmetry_2
Ge0 Os2 2.595543 1_655
Ge0 Os1 2.595547 1_555
Ge0 Os0 2.595549 1_555
Ge0 Zr1 2.778343 1_555
Ge0 Zr1 2.778343 1_554
Ge0 Zr2 2.778344 1_655
Ge0 Zr2 2.778344 1_654
Ge0 Zr0 2.778348 1_555
Ge0 Zr0 2.778348 1_554
Ge1 Os1 2.595543 1_565
Ge1 Os2 2.595547 1_555
Ge1 Os0 2.595549 1_555
Ge1 Zr2 2.778343 1_555
Ge1 Zr2 2.778343 1_554
Ge1 Zr1 2.778344 1_565
Ge1 Zr1 2.778344 1_564
Ge1 Zr0 2.778348 1_555
Ge1 Zr0 2.778348 1_554
Ge2 Os1 2.519380 1_555
Ge2 Os1 2.519380 1_556
Ge2 Os2 2.519380 1_555
Ge2 Os2 2.519380 1_556
Ge2 Os0 2.519380 1_446
Ge2 Os0 2.519380 1_445
Ge2 Zr1 2.810969 1_455
Ge2 Zr2 2.810969 1_545
Ge2 Zr0 2.810970 1_555
Os0 Os1 2.857176 1_665
Os0 Os2 2.857176 1_665
Os0 Zr0 2.967865 1_555
Os0 Zr0 2.967865 1_554
Os0 Zr1 3.100302 1_565
Os0 Zr1 3.100302 1_564
Os0 Zr2 3.100302 1_655
Os0 Zr2 3.100302 1_654
Os1 Os2 2.857176 1_555
Os1 Zr1 2.967865 1_555
Os1 Zr1 2.967865 1_554
Os1 Zr0 3.100302 1_555
Os1 Zr0 3.100302 1_554
Os1 Zr2 3.100302 1_544
Os1 Zr2 3.100302 1_545
Os2 Zr2 2.967865 1_554
Os2 Zr2 2.967865 1_555
Os2 Zr0 3.100302 1_555
Os2 Zr0 3.100302 1_554
Os2 Zr1 3.100302 1_455
Os2 Zr1 3.100302 1_454
