# generated using pymatgen
data_Cs2LiNdCl6
_symmetry_space_group_name_H-M   'P 1'
_cell_length_a   7.62293920
_cell_length_b   7.62293920
_cell_length_c   7.62293920
_cell_angle_alpha   60.00000000
_cell_angle_beta   60.00000000
_cell_angle_gamma   60.00000000
_symmetry_Int_Tables_number   1
_chemical_formula_structural   Cs2LiNdCl6
_chemical_formula_sum   'Cs2 Li1 Nd1 Cl6'
_cell_volume   313.22208026
_cell_formula_units_Z   1
loop_
 _symmetry_equiv_pos_site_id
 _symmetry_equiv_pos_as_xyz
  1  'x, y, z'
loop_
 _atom_site_type_symbol
 _atom_site_label
 _atom_site_symmetry_multiplicity
 _atom_site_fract_x
 _atom_site_fract_y
 _atom_site_fract_z
 _atom_site_occupancy
  Cs  Cs0  1  0.75000000  0.75000000  0.75000000  1
  Cs  Cs1  1  0.25000000  0.25000000  0.25000000  1
  Li  Li0  1  0.50000000  0.50000000  0.50000000  1
  Nd  Nd0  1  0.00000000  0.00000000  0.00000000  1
  Cl  Cl0  1  0.74581800  0.25418200  0.25418200  1
  Cl  Cl1  1  0.25418200  0.25418200  0.74581800  1
  Cl  Cl2  1  0.25418200  0.74581800  0.74581800  1
  Cl  Cl3  1  0.25418200  0.74581800  0.25418200  1
  Cl  Cl4  1  0.74581800  0.25418200  0.74581800  1
  Cl  Cl5  1  0.74581800  0.74581800  0.25418200  1
loop_
_geom_bond_atom_site_label_1
_geom_bond_atom_site_label_2
_geom_bond_distance
_geom_bond_site_symmetry_2
Cl0 Li0 2.650032 1_555
Cl0 Nd0 2.740200 1_655
Cl0 Cs1 3.811736 1_555
Cl0 Cs0 3.811736 1_554
Cl0 Cs0 3.811736 1_545
Cl0 Cs1 3.811736 1_655
Cl1 Li0 2.650032 1_555
Cl1 Nd0 2.740200 1_556
Cl1 Cs1 3.811736 1_555
Cl1 Cs0 3.811736 1_455
Cl1 Cs0 3.811736 1_545
Cl1 Cs1 3.811736 1_556
Cl2 Li0 2.650032 1_555
Cl2 Nd0 2.740200 1_566
Cl2 Cs0 3.811736 1_455
Cl2 Cs1 3.811736 1_556
Cl2 Cs1 3.811736 1_565
Cl2 Cs0 3.811736 1_555
Cl3 Li0 2.650032 1_555
Cl3 Nd0 2.740200 1_565
Cl3 Cs1 3.811736 1_555
Cl3 Cs0 3.811736 1_455
Cl3 Cs0 3.811736 1_554
Cl3 Cs1 3.811736 1_565
Cl4 Li0 2.650032 1_555
Cl4 Nd0 2.740200 1_656
Cl4 Cs0 3.811736 1_545
Cl4 Cs1 3.811736 1_556
Cl4 Cs1 3.811736 1_655
Cl4 Cs0 3.811736 1_555
Cl5 Li0 2.650032 1_555
Cl5 Nd0 2.740200 1_665
Cl5 Cs0 3.811736 1_554
Cl5 Cs1 3.811736 1_655
Cl5 Cs1 3.811736 1_565
Cl5 Cs0 3.811736 1_555
