# generated using pymatgen
data_CoAgO2
_symmetry_space_group_name_H-M   'P 1'
_cell_length_a   2.86152150
_cell_length_b   2.86152022
_cell_length_c   12.28569151
_cell_angle_alpha   90.00000000
_cell_angle_beta   90.00000000
_cell_angle_gamma   119.99999122
_symmetry_Int_Tables_number   1
_chemical_formula_structural   CoAgO2
_chemical_formula_sum   'Co2 Ag2 O4'
_cell_volume   87.12125220
_cell_formula_units_Z   2
loop_
 _symmetry_equiv_pos_site_id
 _symmetry_equiv_pos_as_xyz
  1  'x, y, z'
loop_
 _atom_site_type_symbol
 _atom_site_label
 _atom_site_symmetry_multiplicity
 _atom_site_fract_x
 _atom_site_fract_y
 _atom_site_fract_z
 _atom_site_occupancy
  Co  Co0  1  0.00000000  0.00000000  0.00000000  1
  Co  Co1  1  0.00000000  0.00000000  0.50000000  1
  Ag  Ag0  1  0.66666700  0.33333300  0.74999900  1
  Ag  Ag1  1  0.33333300  0.66666700  0.25000100  1
  O  O0  1  0.66666700  0.33333300  0.57804639  1
  O  O1  1  0.33333300  0.66666700  0.42195361  1
  O  O2  1  0.66666700  0.33333300  0.92195261  1
  O  O3  1  0.33333300  0.66666700  0.07804739  1
loop_
_geom_bond_atom_site_label_1
_geom_bond_atom_site_label_2
_geom_bond_distance
_geom_bond_site_symmetry_2
Co0 O3 1.910197 1_545
Co0 O2 1.910197 1_454
Co0 O3 1.910199 1_555
Co0 O2 1.910199 1_444
Co0 O3 1.910200 1_445
Co0 O2 1.910200 1_554
Co1 O1 1.910191 1_545
Co1 O0 1.910191 1_455
Co1 O1 1.910193 1_555
Co1 O0 1.910193 1_445
Co1 O1 1.910193 1_445
Co1 O0 1.910193 1_555
Ag0 O0 2.112557 1_555
Ag0 O2 2.112569 1_555
Ag1 O1 2.112557 1_555
Ag1 O3 2.112569 1_555
