# generated using pymatgen
data_FeO
_symmetry_space_group_name_H-M   'P 1'
_cell_length_a   3.15462894
_cell_length_b   5.35297087
_cell_length_c   5.34965468
_cell_angle_alpha   79.86820917
_cell_angle_beta   90.55375663
_cell_angle_gamma   73.68842863
_symmetry_Int_Tables_number   1
_chemical_formula_structural   FeO
_chemical_formula_sum   'Fe4 O4'
_cell_volume   85.18241988
_cell_formula_units_Z   4
loop_
 _symmetry_equiv_pos_site_id
 _symmetry_equiv_pos_as_xyz
  1  'x, y, z'
loop_
 _atom_site_type_symbol
 _atom_site_label
 _atom_site_symmetry_multiplicity
 _atom_site_fract_x
 _atom_site_fract_y
 _atom_site_fract_z
 _atom_site_occupancy
  Fe  Fe0  1  0.49578400  0.00099200  0.50062600  1
  Fe  Fe1  1  0.75123000  0.50037500  0.25075400  1
  Fe  Fe2  1  0.00268000  0.99870200  0.99984400  1
  Fe  Fe3  1  0.24961100  0.50022500  0.75089600  1
  O  O0  1  0.87226200  0.25192100  0.64360800  1
  O  O1  1  0.39003400  0.25058900  0.14308400  1
  O  O2  1  0.11162700  0.74949900  0.35591800  1
  O  O3  1  0.62677200  0.74769800  0.85527200  1
loop_
_geom_bond_atom_site_label_1
_geom_bond_atom_site_label_2
_geom_bond_distance
_geom_bond_site_symmetry_2
Fe0 O3 2.091347 1_545
Fe0 O1 2.095976 1_555
Fe0 O0 2.244956 1_555
Fe0 O2 2.261093 1_645
Fe0 O2 2.268310 1_545
Fe0 O0 2.272612 1_455
Fe1 O2 2.119127 1_655
Fe1 O1 2.128851 1_555
Fe1 O2 2.222721 1_555
Fe1 O1 2.227203 1_655
Fe1 O0 2.246623 1_555
Fe1 O3 2.256003 1_554
Fe2 O2 2.088530 1_556
Fe2 O0 2.097899 1_465
Fe2 O3 2.247798 1_455
Fe2 O1 2.251396 1_466
Fe2 O1 2.273614 1_566
Fe2 O3 2.277869 1_555
Fe3 O3 2.148265 1_555
Fe3 O0 2.158034 1_455
Fe3 O3 2.178664 1_455
Fe3 O0 2.185856 1_555
Fe3 O1 2.246540 1_556
Fe3 O2 2.258035 1_555
