# generated using pymatgen
data_Lu
_symmetry_space_group_name_H-M   'P 1'
_cell_length_a   6.76922643
_cell_length_b   6.76922564
_cell_length_c   6.76922604
_cell_angle_alpha   109.47123442
_cell_angle_beta   109.47123203
_cell_angle_gamma   109.47121145
_symmetry_Int_Tables_number   1
_chemical_formula_structural   Lu
_chemical_formula_sum   Lu8
_cell_volume   238.77841897
_cell_formula_units_Z   8
loop_
 _symmetry_equiv_pos_site_id
 _symmetry_equiv_pos_as_xyz
  1  'x, y, z'
loop_
 _atom_site_type_symbol
 _atom_site_label
 _atom_site_symmetry_multiplicity
 _atom_site_fract_x
 _atom_site_fract_y
 _atom_site_fract_z
 _atom_site_occupancy
  Lu  Lu0_0  1  0.00000000  0.00000000  0.00000000  1
  Lu  Lu0_1  1  0.00000000  0.00000000  0.50000000  1
  Lu  Lu0_2  1  0.00000000  0.50000000  0.00000000  1
  Lu  Lu0_3  1  0.00000000  0.50000000  0.50000000  1
  Lu  Lu0_4  1  0.50000000  0.00000000  0.00000000  1
  Lu  Lu0_5  1  0.50000000  0.00000000  0.50000000  1
  Lu  Lu0_6  1  0.50000000  0.50000000  0.00000000  1
  Lu  Lu0_7  1  0.50000000  0.50000000  0.50000000  1
loop_
_geom_bond_atom_site_label_1
_geom_bond_atom_site_label_2
_geom_bond_distance
_geom_bond_site_symmetry_2
Lu0_0 Lu0_7 3.384612 1_444
Lu0_0 Lu0_7 3.384612 1_555
Lu0_0 Lu0_2 3.384613 1_545
Lu0_0 Lu0_2 3.384613 1_555
Lu0_0 Lu0_1 3.384613 1_554
Lu0_0 Lu0_1 3.384613 1_555
Lu0_0 Lu0_4 3.384613 1_555
Lu0_0 Lu0_4 3.384613 1_455
Lu0_1 Lu0_6 3.384612 1_556
Lu0_1 Lu0_6 3.384612 1_445
Lu0_1 Lu0_3 3.384613 1_555
Lu0_1 Lu0_3 3.384613 1_545
Lu0_1 Lu0_5 3.384613 1_555
Lu0_1 Lu0_5 3.384613 1_455
Lu0_2 Lu0_5 3.384612 1_454
Lu0_2 Lu0_5 3.384612 1_565
Lu0_2 Lu0_3 3.384613 1_554
Lu0_2 Lu0_3 3.384613 1_555
Lu0_2 Lu0_6 3.384613 1_455
Lu0_2 Lu0_6 3.384613 1_555
Lu0_3 Lu0_4 3.384612 1_566
Lu0_3 Lu0_4 3.384612 1_455
Lu0_3 Lu0_7 3.384613 1_455
Lu0_3 Lu0_7 3.384613 1_555
Lu0_4 Lu0_6 3.384613 1_545
Lu0_4 Lu0_6 3.384613 1_555
Lu0_4 Lu0_5 3.384613 1_554
Lu0_4 Lu0_5 3.384613 1_555
Lu0_5 Lu0_7 3.384613 1_555
Lu0_5 Lu0_7 3.384613 1_545
Lu0_6 Lu0_7 3.384613 1_554
Lu0_6 Lu0_7 3.384613 1_555
