# generated using pymatgen
data_NiC14S2N2O3
_symmetry_space_group_name_H-M   'P 1'
_cell_length_a   11.48154100
_cell_length_b   10.98315000
_cell_length_c   14.66180705
_cell_angle_alpha   50.92397524
_cell_angle_beta   90.00000000
_cell_angle_gamma   90.00000000
_symmetry_Int_Tables_number   1
_chemical_formula_structural   NiC14S2N2O3
_chemical_formula_sum   'Ni4 C56 S8 N8 O12'
_cell_volume   1435.32388691
_cell_formula_units_Z   4
loop_
 _symmetry_equiv_pos_site_id
 _symmetry_equiv_pos_as_xyz
  1  'x, y, z'
loop_
 _atom_site_type_symbol
 _atom_site_label
 _atom_site_symmetry_multiplicity
 _atom_site_fract_x
 _atom_site_fract_y
 _atom_site_fract_z
 _atom_site_occupancy
  Ni  Ni0  1  0.55433400  0.36286800  0.12027300  1
  Ni  Ni1  1  0.94566600  0.36286800  0.62027300  1
  Ni  Ni2  1  0.44566600  0.63713200  0.87972700  1
  Ni  Ni3  1  0.05433400  0.63713200  0.37972700  1
  C  C0  1  0.81559300  0.30959700  0.18141800  1
  C  C1  1  0.68440700  0.30959700  0.68141800  1
  C  C2  1  0.18440700  0.69040300  0.81858200  1
  C  C3  1  0.31559300  0.69040300  0.31858200  1
  C  C4  1  0.92643700  0.22371900  0.25113200  1
  C  C5  1  0.57356300  0.22371900  0.75113200  1
  C  C6  1  0.07356300  0.77628100  0.74886800  1
  C  C7  1  0.42643700  0.77628100  0.24886800  1
  C  C8  1  0.90558200  0.08071400  0.34784900  1
  C  C9  1  0.59441800  0.08071400  0.84784900  1
  C  C10  1  0.09441800  0.91928600  0.65215100  1
  C  C11  1  0.40558200  0.91928600  0.15215100  1
  C  C12  1  0.79976000  0.00990100  0.38784200  1
  C  C13  1  0.70024000  0.00990100  0.88784200  1
  C  C14  1  0.20024000  0.99009900  0.61215800  1
  C  C15  1  0.29976000  0.99009900  0.11215800  1
  C  C16  1  0.75654800  0.86250000  0.48536500  1
  C  C17  1  0.74345200  0.86250000  0.98536500  1
  C  C18  1  0.24345200  0.13750000  0.51463500  1
  C  C19  1  0.25654800  0.13750000  0.01463500  1
  C  C20  1  0.65529800  0.81146600  0.51259000  1
  C  C21  1  0.84470200  0.81146600  0.01259000  1
  C  C22  1  0.34470200  0.18853400  0.48741000  1
  C  C23  1  0.15529800  0.18853400  0.98741000  1
  C  C24  1  0.54916800  0.88511800  0.45549500  1
  C  C25  1  0.95083200  0.88511800  0.95549500  1
  C  C26  1  0.45083200  0.11488200  0.54450500  1
  C  C27  1  0.04916800  0.11488200  0.04450500  1
  C  C28  1  0.43410200  0.84668700  0.47665100  1
  C  C29  1  0.06589800  0.84668700  0.97665100  1
  C  C30  1  0.56589800  0.15331300  0.52334900  1
  C  C31  1  0.93410200  0.15331300  0.02334900  1
  C  C32  1  0.34638900  0.93439000  0.40861100  1
  C  C33  1  0.15361100  0.93439000  0.90861100  1
  C  C34  1  0.65361100  0.06561000  0.59138900  1
  C  C35  1  0.84638900  0.06561000  0.09138900  1
  C  C36  1  0.38582700  0.09689000  0.29937500  1
  C  C37  1  0.11417300  0.09689000  0.79937500  1
  C  C38  1  0.61417300  0.90311000  0.70062500  1
  C  C39  1  0.88582700  0.90311000  0.20062500  1
  C  C40  1  0.58114200  0.04805200  0.34585700  1
  C  C41  1  0.91885800  0.04805200  0.84585700  1
  C  C42  1  0.41885800  0.95194800  0.65414300  1
  C  C43  1  0.08114200  0.95194800  0.15414300  1
  C  C44  1  0.69370700  0.10361100  0.31460300  1
  C  C45  1  0.80629300  0.10361100  0.81460300  1
  C  C46  1  0.30629300  0.89638900  0.68539700  1
  C  C47  1  0.19370700  0.89638900  0.18539700  1
  C  C48  1  0.92639300  0.37374700  0.14726200  1
  C  C49  1  0.57360700  0.37374700  0.64726200  1
  C  C50  1  0.07360700  0.62625300  0.85273800  1
  C  C51  1  0.42639300  0.62625300  0.35273800  1
  C  C52  1  0.27083100  0.04607600  0.32406000  1
  C  C53  1  0.22916900  0.04607600  0.82406000  1
  C  C54  1  0.72916900  0.95392400  0.67594000  1
  C  C55  1  0.77083100  0.95392400  0.17594000  1
  S  S0  1  0.54232300  0.50752900  0.19074900  1
  S  S1  1  0.95767700  0.50752900  0.69074900  1
  S  S2  1  0.45767700  0.49247100  0.80925100  1
  S  S3  1  0.04232300  0.49247100  0.30925100  1
  S  S4  1  0.40343500  0.59124900  0.08208400  1
  S  S5  1  0.09656500  0.59124900  0.58208400  1
  S  S6  1  0.59656500  0.40875100  0.91791600  1
  S  S7  1  0.90343500  0.40875100  0.41791600  1
  N  N0  1  0.71335200  0.25611100  0.20826200  1
  N  N1  1  0.78664800  0.25611100  0.70826200  1
  N  N2  1  0.28664800  0.74388900  0.79173800  1
  N  N3  1  0.21335200  0.74388900  0.29173800  1
  N  N4  1  0.48878400  0.14769200  0.27269600  1
  N  N5  1  0.01121600  0.14769200  0.77269600  1
  N  N6  1  0.51121600  0.85230800  0.72730400  1
  N  N7  1  0.98878400  0.85230800  0.22730400  1
  O  O0  1  0.43629800  0.73824400  0.96232800  1
  O  O1  1  0.06370200  0.73824400  0.46232800  1
  O  O2  1  0.56370200  0.26175600  0.03767200  1
  O  O3  1  0.93629800  0.26175600  0.53767200  1
  O  O4  1  0.38840500  0.47010900  0.05979700  1
  O  O5  1  0.11159500  0.47010900  0.55979700  1
  O  O6  1  0.61159500  0.52989100  0.94020300  1
  O  O7  1  0.88840500  0.52989100  0.44020300  1
  O  O8  1  0.30064700  0.60703000  0.13081300  1
  O  O9  1  0.19935300  0.60703000  0.63081300  1
  O  O10  1  0.69935300  0.39297000  0.86918700  1
  O  O11  1  0.80064700  0.39297000  0.36918700  1
loop_
_geom_bond_atom_site_label_1
_geom_bond_atom_site_label_2
_geom_bond_distance
_geom_bond_site_symmetry_2
Ni0 O2 2.099315 1_555
Ni0 O4 2.118104 1_555
Ni0 O6 2.159160 1_554
Ni0 S0 2.383461 1_555
Ni1 O3 2.099315 1_555
Ni1 O5 2.118104 1_655
Ni1 O7 2.159160 1_555
Ni1 S1 2.383461 1_555
Ni2 O0 2.099315 1_555
Ni2 O6 2.118104 1_555
Ni2 O4 2.159160 1_556
Ni2 S2 2.383461 1_555
Ni3 O1 2.099315 1_555
Ni3 O7 2.118104 1_455
Ni3 O5 2.159160 1_555
Ni3 S3 2.383461 1_555
C0 N0 1.259571 1_555
C0 C48 1.385914 1_555
C0 C4 1.529261 1_555
C1 N1 1.259571 1_555
C1 C49 1.385914 1_555
C1 C5 1.529261 1_555
C2 N2 1.259571 1_555
C2 C50 1.385914 1_555
C2 C6 1.529261 1_555
C3 N3 1.259571 1_555
C3 C51 1.385914 1_555
C3 C7 1.529261 1_555
C4 C8 1.314238 1_555
C4 C48 1.367777 1_555
C5 C9 1.314238 1_555
C10 C6 1.314238 1_555
C10 C14 1.360149 1_555
C11 C7 1.314238 1_555
C11 C15 1.360149 1_555
C12 C8 1.360149 1_555
C12 C16 1.411829 1_545
C12 C44 1.517148 1_555
C13 C9 1.360149 1_555
C13 C17 1.411829 1_545
C13 C45 1.517148 1_555
C14 C18 1.411829 1_565
C14 C46 1.517148 1_555
C15 C19 1.411829 1_565
C15 C47 1.517148 1_555
C16 C20 1.242120 1_555
C17 C21 1.242120 1_556
C18 C22 1.242120 1_555
C19 C23 1.242120 1_554
C20 C24 1.409345 1_555
C21 C25 1.409345 1_554
C22 C26 1.409345 1_555
C23 C27 1.409345 1_556
C24 C28 1.361879 1_555
C24 C40 1.514797 1_565
C25 C29 1.361879 1_655
C25 C41 1.514797 1_565
C26 C30 1.361879 1_555
C26 C42 1.514797 1_545
C27 C31 1.361879 1_455
C27 C43 1.514797 1_545
C28 C32 1.313699 1_555
C29 C33 1.313699 1_555
C30 C34 1.313699 1_555
C31 C35 1.313699 1_555
C32 C52 1.370031 1_565
C32 C36 1.533573 1_565
C33 C53 1.370031 1_565
C33 C37 1.533573 1_565
C34 C54 1.370031 1_545
C34 C38 1.533573 1_545
C35 C55 1.370031 1_545
C35 C39 1.533573 1_545
C36 N4 1.259584 1_555
C36 C52 1.389636 1_555
C37 N5 1.259584 1_555
C37 C53 1.389636 1_555
C38 N6 1.259584 1_555
C38 C54 1.389636 1_555
C39 N7 1.259584 1_555
C39 C55 1.389636 1_555
C40 C44 1.378466 1_555
C40 N4 1.411666 1_555
C41 C45 1.378466 1_555
C41 N5 1.411666 1_655
C42 C46 1.378466 1_555
C42 N6 1.411666 1_555
C43 C47 1.378466 1_555
C43 N7 1.411666 1_455
C44 N0 1.412421 1_555
C45 N1 1.412421 1_555
C46 N2 1.412421 1_555
C47 N3 1.412421 1_555
C49 C5 1.367777 1_555
C50 C6 1.367777 1_555
C51 C7 1.367777 1_555
S0 S4 2.019866 1_555
S1 S5 2.019866 1_655
S2 S6 2.019866 1_555
S3 S7 2.019866 1_455
N0 Ni0 2.113187 1_555
N1 Ni1 2.113187 1_555
N2 Ni2 2.113187 1_555
N3 Ni3 2.113187 1_555
N4 Ni0 2.118386 1_555
N5 Ni1 2.118386 1_455
N6 Ni2 2.118386 1_555
N7 Ni3 2.118386 1_655
O0 S4 1.502690 1_556
O1 S5 1.502690 1_555
O2 S6 1.502690 1_554
O3 S7 1.502690 1_555
O4 S4 1.566809 1_555
O5 S5 1.566809 1_555
O6 S6 1.566809 1_555
O7 S7 1.566809 1_555
O8 S4 1.445473 1_555
O9 S5 1.445473 1_555
O10 S6 1.445473 1_555
O11 S7 1.445473 1_555
