# generated using pymatgen
data_HfTi
_symmetry_space_group_name_H-M   'P 1'
_cell_length_a   6.17229660
_cell_length_b   6.17229660
_cell_length_c   9.65851868
_cell_angle_alpha   90.00000000
_cell_angle_beta   90.00000000
_cell_angle_gamma   119.99998540
_symmetry_Int_Tables_number   1
_chemical_formula_structural   HfTi
_chemical_formula_sum   'Hf8 Ti8'
_cell_volume   318.66531382
_cell_formula_units_Z   8
loop_
 _symmetry_equiv_pos_site_id
 _symmetry_equiv_pos_as_xyz
  1  'x, y, z'
loop_
 _atom_site_type_symbol
 _atom_site_label
 _atom_site_symmetry_multiplicity
 _atom_site_fract_x
 _atom_site_fract_y
 _atom_site_fract_z
 _atom_site_occupancy
  Hf  Hf0_0  1  0.33333350  0.16666650  0.25000000  1
  Hf  Hf0_1  1  0.33333350  0.16666650  0.75000000  1
  Hf  Hf0_2  1  0.33333350  0.66666650  0.25000000  1
  Hf  Hf0_3  1  0.33333350  0.66666650  0.75000000  1
  Hf  Hf0_4  1  0.83333350  0.16666650  0.25000000  1
  Hf  Hf0_5  1  0.83333350  0.16666650  0.75000000  1
  Hf  Hf0_6  1  0.83333350  0.66666650  0.25000000  1
  Hf  Hf0_7  1  0.83333350  0.66666650  0.75000000  1
  Ti  Ti0_0  1  0.16666650  0.33333350  0.00000000  1
  Ti  Ti0_1  1  0.16666650  0.33333350  0.50000000  1
  Ti  Ti0_2  1  0.16666650  0.83333350  0.00000000  1
  Ti  Ti0_3  1  0.16666650  0.83333350  0.50000000  1
  Ti  Ti0_4  1  0.66666650  0.33333350  0.00000000  1
  Ti  Ti0_5  1  0.66666650  0.33333350  0.50000000  1
  Ti  Ti0_6  1  0.66666650  0.83333350  0.00000000  1
  Ti  Ti0_7  1  0.66666650  0.83333350  0.50000000  1
loop_
_geom_bond_atom_site_label_1
_geom_bond_atom_site_label_2
_geom_bond_distance
_geom_bond_site_symmetry_2
Hf0_0 Ti0_3 3.000867 1_545
Hf0_0 Ti0_5 3.000867 1_555
Hf0_0 Ti0_4 3.000867 1_555
Hf0_0 Ti0_2 3.000867 1_545
Hf0_0 Ti0_0 3.000870 1_555
Hf0_0 Ti0_1 3.000870 1_555
Hf0_0 Hf0_2 3.086148 1_555
Hf0_0 Hf0_4 3.086148 1_455
Hf0_0 Hf0_2 3.086148 1_545
Hf0_0 Hf0_4 3.086148 1_555
Hf0_0 Hf0_6 3.086149 1_445
Hf0_0 Hf0_6 3.086149 1_555
Hf0_1 Ti0_4 3.000867 1_556
Hf0_1 Ti0_2 3.000867 1_546
Hf0_1 Ti0_3 3.000867 1_545
Hf0_1 Ti0_5 3.000867 1_555
Hf0_1 Ti0_0 3.000870 1_556
Hf0_1 Ti0_1 3.000870 1_555
Hf0_1 Hf0_3 3.086148 1_555
Hf0_1 Hf0_5 3.086148 1_455
Hf0_1 Hf0_3 3.086148 1_545
Hf0_1 Hf0_5 3.086148 1_555
Hf0_1 Hf0_7 3.086149 1_555
Hf0_1 Hf0_7 3.086149 1_445
Hf0_2 Ti0_0 3.000867 1_555
Hf0_2 Ti0_1 3.000867 1_555
Hf0_2 Ti0_6 3.000867 1_555
Hf0_2 Ti0_7 3.000867 1_555
Hf0_2 Ti0_2 3.000870 1_555
Hf0_2 Ti0_3 3.000870 1_555
Hf0_2 Hf0_6 3.086148 1_455
Hf0_2 Hf0_6 3.086148 1_555
Hf0_2 Hf0_4 3.086149 1_455
Hf0_2 Hf0_4 3.086149 1_565
Hf0_3 Ti0_0 3.000867 1_556
Hf0_3 Ti0_1 3.000867 1_555
Hf0_3 Ti0_6 3.000867 1_556
Hf0_3 Ti0_7 3.000867 1_555
Hf0_3 Ti0_2 3.000870 1_556
Hf0_3 Ti0_3 3.000870 1_555
Hf0_3 Hf0_7 3.086148 1_455
Hf0_3 Hf0_7 3.086148 1_555
Hf0_3 Hf0_5 3.086149 1_455
Hf0_3 Hf0_5 3.086149 1_565
Hf0_4 Ti0_7 3.000867 1_545
Hf0_4 Ti0_0 3.000867 1_655
Hf0_4 Ti0_1 3.000867 1_655
Hf0_4 Ti0_6 3.000867 1_545
Hf0_4 Ti0_5 3.000870 1_555
Hf0_4 Ti0_4 3.000870 1_555
Hf0_4 Hf0_6 3.086148 1_555
Hf0_4 Hf0_6 3.086148 1_545
Hf0_5 Ti0_7 3.000867 1_545
Hf0_5 Ti0_6 3.000867 1_546
Hf0_5 Ti0_0 3.000867 1_656
Hf0_5 Ti0_1 3.000867 1_655
Hf0_5 Ti0_4 3.000870 1_556
Hf0_5 Ti0_5 3.000870 1_555
Hf0_5 Hf0_7 3.086148 1_555
Hf0_5 Hf0_7 3.086148 1_545
Hf0_6 Ti0_5 3.000867 1_555
Hf0_6 Ti0_4 3.000867 1_555
Hf0_6 Ti0_3 3.000867 1_655
Hf0_6 Ti0_2 3.000867 1_655
Hf0_6 Ti0_6 3.000870 1_555
Hf0_6 Ti0_7 3.000870 1_555
Hf0_7 Ti0_4 3.000867 1_556
Hf0_7 Ti0_5 3.000867 1_555
Hf0_7 Ti0_3 3.000867 1_655
Hf0_7 Ti0_2 3.000867 1_656
Hf0_7 Ti0_6 3.000870 1_556
Hf0_7 Ti0_7 3.000870 1_555
Ti0_0 Ti0_4 3.086148 1_555
Ti0_0 Ti0_2 3.086148 1_545
Ti0_0 Ti0_4 3.086148 1_455
Ti0_0 Ti0_2 3.086148 1_555
Ti0_0 Ti0_6 3.086149 1_555
Ti0_0 Ti0_6 3.086149 1_445
Ti0_1 Ti0_5 3.086148 1_555
Ti0_1 Ti0_3 3.086148 1_545
Ti0_1 Ti0_5 3.086148 1_455
Ti0_1 Ti0_3 3.086148 1_555
Ti0_1 Ti0_7 3.086149 1_445
Ti0_1 Ti0_7 3.086149 1_555
Ti0_2 Ti0_6 3.086148 1_455
Ti0_2 Ti0_6 3.086148 1_555
Ti0_2 Ti0_4 3.086149 1_565
Ti0_2 Ti0_4 3.086149 1_455
Ti0_3 Ti0_7 3.086148 1_455
Ti0_3 Ti0_7 3.086148 1_555
Ti0_3 Ti0_5 3.086149 1_565
Ti0_3 Ti0_5 3.086149 1_455
Ti0_4 Ti0_6 3.086148 1_555
Ti0_4 Ti0_6 3.086148 1_545
Ti0_5 Ti0_7 3.086148 1_555
Ti0_5 Ti0_7 3.086148 1_545
