# generated using pymatgen
data_Ca2Ag2O5
_symmetry_space_group_name_H-M   'P 1'
_cell_length_a   4.09242000
_cell_length_b   5.96285400
_cell_length_c   9.84491300
_cell_angle_alpha   90.00000000
_cell_angle_beta   90.00000000
_cell_angle_gamma   90.00000000
_symmetry_Int_Tables_number   1
_chemical_formula_structural   Ca2Ag2O5
_chemical_formula_sum   'Ca4 Ag4 O10'
_cell_volume   240.24051869
_cell_formula_units_Z   2
loop_
 _symmetry_equiv_pos_site_id
 _symmetry_equiv_pos_as_xyz
  1  'x, y, z'
loop_
 _atom_site_type_symbol
 _atom_site_label
 _atom_site_symmetry_multiplicity
 _atom_site_fract_x
 _atom_site_fract_y
 _atom_site_fract_z
 _atom_site_occupancy
  Ca  Ca0  1  0.50000000  0.65611100  0.86095300  1
  Ca  Ca1  1  0.50000000  0.34388900  0.13904700  1
  Ca  Ca2  1  0.50000000  0.15611100  0.63904700  1
  Ca  Ca3  1  0.50000000  0.84388900  0.36095300  1
  Ag  Ag0  1  0.00000000  0.69146500  0.60046500  1
  Ag  Ag1  1  0.00000000  0.30853500  0.39953500  1
  Ag  Ag2  1  0.00000000  0.80853500  0.10046500  1
  Ag  Ag3  1  0.00000000  0.19146500  0.89953500  1
  O  O0  1  0.00000000  0.00000000  0.50000000  1
  O  O1  1  0.00000000  0.62816700  0.31995300  1
  O  O2  1  0.00000000  0.12816700  0.18004700  1
  O  O3  1  0.00000000  0.87183300  0.81995300  1
  O  O4  1  0.50000000  0.75936200  0.11426400  1
  O  O5  1  0.50000000  0.24063800  0.88573600  1
  O  O6  1  0.00000000  0.37183300  0.68004700  1
  O  O7  1  0.50000000  0.74063800  0.61426400  1
  O  O8  1  0.00000000  0.50000000  0.00000000  1
  O  O9  1  0.50000000  0.25936200  0.38573600  1
loop_
_geom_bond_atom_site_label_1
_geom_bond_atom_site_label_2
_geom_bond_distance
_geom_bond_site_symmetry_2
Ca0 O3 2.450412 1_555
Ca0 O3 2.450412 1_655
Ca0 O7 2.480381 1_555
Ca0 O5 2.489390 1_555
Ca0 O4 2.568699 1_556
Ca0 O8 2.631994 1_556
Ca0 O8 2.631994 1_656
Ca1 O2 2.450412 1_655
Ca1 O2 2.450412 1_555
Ca1 O9 2.480381 1_555
Ca1 O4 2.489390 1_555
Ca1 O5 2.568699 1_554
Ca1 O8 2.631994 1_555
Ca1 O8 2.631994 1_655
Ca2 O6 2.450412 1_555
Ca2 O6 2.450412 1_655
Ca2 O5 2.480381 1_555
Ca2 O7 2.489390 1_545
Ca2 O9 2.568699 1_555
Ca2 O0 2.631994 1_555
Ca2 O0 2.631994 1_655
Ca3 O1 2.450412 1_555
Ca3 O1 2.450412 1_655
Ca3 O4 2.480381 1_555
Ca3 O9 2.489390 1_565
Ca3 O7 2.568699 1_555
Ca3 O0 2.631994 1_565
Ca3 O0 2.631994 1_665
Ag0 O6 2.060671 1_555
Ag0 O7 2.071570 1_455
Ag0 O7 2.071570 1_555
Ag0 O0 2.088764 1_565
Ag0 O3 2.413700 1_555
Ag1 O1 2.060671 1_555
Ag1 O9 2.071570 1_555
Ag1 O9 2.071570 1_455
Ag1 O0 2.088764 1_555
Ag1 O2 2.413700 1_555
Ag2 O2 2.060671 1_565
Ag2 O4 2.071570 1_455
Ag2 O4 2.071570 1_555
Ag2 O8 2.088764 1_555
Ag2 O1 2.413700 1_555
Ag3 O3 2.060671 1_545
Ag3 O5 2.071570 1_555
Ag3 O5 2.071570 1_455
Ag3 O8 2.088764 1_556
Ag3 O6 2.413700 1_555
