# generated using pymatgen
data_Ba2LiEu(CuO2)4
_symmetry_space_group_name_H-M   'P 1'
_cell_length_a   3.84604900
_cell_length_b   3.93642911
_cell_length_c   14.65229738
_cell_angle_alpha   98.31441561
_cell_angle_beta   90.00000000
_cell_angle_gamma   90.00000000
_symmetry_Int_Tables_number   1
_chemical_formula_structural   Ba2LiEu(CuO2)4
_chemical_formula_sum   'Ba2 Li1 Eu1 Cu4 O8'
_cell_volume   219.49980294
_cell_formula_units_Z   1
loop_
 _symmetry_equiv_pos_site_id
 _symmetry_equiv_pos_as_xyz
  1  'x, y, z'
loop_
 _atom_site_type_symbol
 _atom_site_label
 _atom_site_symmetry_multiplicity
 _atom_site_fract_x
 _atom_site_fract_y
 _atom_site_fract_z
 _atom_site_occupancy
  Ba  Ba0  1  0.50000000  0.36377500  0.74387000  1
  Ba  Ba1  1  0.50000000  0.63622500  0.25613000  1
  Li  Li0  1  0.50000000  0.00000000  0.50000000  1
  Eu  Eu0  1  0.50000000  0.50000000  0.00000000  1
  Cu  Cu0  1  0.00000000  0.06066900  0.11511000  1
  Cu  Cu1  1  0.00000000  0.93933100  0.88489000  1
  Cu  Cu2  1  0.00000000  0.23290600  0.42192900  1
  Cu  Cu3  1  0.00000000  0.76709400  0.57807100  1
  O  O0  1  0.00000000  0.16338100  0.29494400  1
  O  O1  1  0.00000000  0.83661900  0.70505600  1
  O  O2  1  0.00000000  0.44293200  0.89152500  1
  O  O3  1  0.00000000  0.55706800  0.10847500  1
  O  O4  1  0.00000000  0.26270800  0.55617700  1
  O  O5  1  0.00000000  0.73729200  0.44382300  1
  O  O6  1  0.50000000  0.05616500  0.10681400  1
  O  O7  1  0.50000000  0.94383500  0.89318600  1
loop_
_geom_bond_atom_site_label_1
_geom_bond_atom_site_label_2
_geom_bond_distance
_geom_bond_site_symmetry_2
Ba0 O1 2.791434 1_555
Ba0 O1 2.791434 1_655
Ba0 O1 2.825994 1_545
Ba0 O1 2.825994 1_645
Ba0 O2 2.877641 1_555
Ba0 O2 2.877641 1_655
Ba0 O7 2.924986 1_555
Ba0 O7 2.926628 1_545
Ba0 O4 3.332132 1_555
Ba0 O4 3.332132 1_655
Ba1 O0 2.791434 1_655
Ba1 O0 2.791434 1_555
Ba1 O0 2.825994 1_565
Ba1 O0 2.825994 1_665
Ba1 O3 2.877641 1_655
Ba1 O3 2.877641 1_555
Ba1 O6 2.924986 1_555
Ba1 O6 2.926628 1_565
Ba1 O5 3.332132 1_655
Ba1 O5 3.332132 1_555
Li0 O4 2.280088 1_555
Li0 O4 2.280088 1_655
Li0 O5 2.280088 1_645
Li0 O5 2.280088 1_545
Eu0 O3 2.484239 1_655
Eu0 O2 2.484239 1_554
Eu0 O2 2.484239 1_654
Eu0 O3 2.484239 1_555
Eu0 O6 2.500309 1_565
Eu0 O7 2.500309 1_544
Eu0 O6 2.508526 1_555
Eu0 O7 2.508526 1_554
Cu0 O6 1.926782 1_455
Cu0 O6 1.926782 1_555
Cu0 O3 1.970447 1_555
Cu0 O3 1.970681 1_545
Cu0 O0 2.607390 1_555
Cu1 O7 1.926782 1_455
Cu1 O7 1.926782 1_555
Cu1 O2 1.970447 1_555
Cu1 O2 1.970681 1_565
Cu1 O1 2.607390 1_555
Cu2 O0 1.841072 1_555
Cu2 O4 1.953529 1_555
Cu2 O5 1.964900 1_555
Cu2 O5 2.022404 1_545
Cu2 Li0 2.480009 1_455
Cu2 Li0 2.480009 1_555
Cu3 O1 1.841072 1_555
Cu3 O5 1.953529 1_555
Cu3 O4 1.964900 1_555
Cu3 O4 2.022404 1_565
Cu3 Li0 2.480009 1_565
Cu3 Li0 2.480009 1_465
