# generated using pymatgen
data_CeEuB12
_symmetry_space_group_name_H-M   'P 1'
_cell_length_a   4.13896018
_cell_length_b   5.85861086
_cell_length_c   5.85861086
_cell_angle_alpha   90.00000000
_cell_angle_beta   90.00000000
_cell_angle_gamma   90.00000000
_symmetry_Int_Tables_number   1
_chemical_formula_structural   CeEuB12
_chemical_formula_sum   'Ce1 Eu1 B12'
_cell_volume   142.06285990
_cell_formula_units_Z   1
loop_
 _symmetry_equiv_pos_site_id
 _symmetry_equiv_pos_as_xyz
  1  'x, y, z'
loop_
 _atom_site_type_symbol
 _atom_site_label
 _atom_site_symmetry_multiplicity
 _atom_site_fract_x
 _atom_site_fract_y
 _atom_site_fract_z
 _atom_site_occupancy
  Ce  Ce0  1  -0.00000000  0.50000000  0.50000000  1
  Eu  Eu0  1  -0.00000000  -0.00000000  0.00000000  1
  B  B0  1  0.20034610  0.50000000  0.00000000  1
  B  B1  1  0.20034610  -0.00000000  0.50000000  1
  B  B2  1  0.50000000  0.64983496  0.14973114  1
  B  B3  1  0.50000000  0.14973114  0.64983496  1
  B  B4  1  0.50000000  0.35016504  0.14973114  1
  B  B5  1  0.50000000  0.85026886  0.64983496  1
  B  B6  1  0.50000000  0.35016504  0.85026886  1
  B  B7  1  0.50000000  0.85026886  0.35016504  1
  B  B8  1  0.50000000  0.64983496  0.85026886  1
  B  B9  1  0.50000000  0.14973114  0.35016504  1
  B  B10  1  0.79965390  0.50000000  0.00000000  1
  B  B11  1  0.79965390  -0.00000000  0.50000000  1
loop_
_geom_bond_atom_site_label_1
_geom_bond_atom_site_label_2
_geom_bond_distance
_geom_bond_site_symmetry_2
B0 B10 1.658449 1_455
B0 B6 1.754514 1_554
B0 B8 1.754514 1_554
B0 B2 1.754514 1_555
B0 B4 1.754514 1_555
B0 Eu0 3.044412 1_565
B0 Ce0 3.044412 1_555
B0 Ce0 3.044412 1_554
B0 Eu0 3.044412 1_555
B1 B11 1.658449 1_455
B1 B3 1.754514 1_555
B1 B5 1.754514 1_545
B1 B7 1.754514 1_545
B1 B9 1.754514 1_555
B1 Ce0 3.044412 1_555
B1 Ce0 3.044412 1_545
B1 Eu0 3.044412 1_556
B1 Eu0 3.044412 1_555
B2 B7 1.660660 1_555
B2 B8 1.754433 1_554
B2 B4 1.755649 1_555
B2 Eu0 3.043161 1_665
B2 Eu0 3.043161 1_565
B2 Ce0 3.043747 1_555
B2 Ce0 3.043747 1_655
B3 B6 1.660660 1_555
B3 B5 1.754433 1_545
B3 B9 1.755649 1_555
B3 Eu0 3.043161 1_556
B3 Eu0 3.043161 1_656
B3 Ce0 3.043747 1_555
B3 Ce0 3.043747 1_655
B4 B9 1.660660 1_555
B4 B6 1.754433 1_554
B4 Eu0 3.043161 1_555
B4 Eu0 3.043161 1_655
B4 Ce0 3.043747 1_555
B4 Ce0 3.043747 1_655
B5 B8 1.660660 1_555
B5 B7 1.755649 1_555
B5 Eu0 3.043161 1_566
B5 Eu0 3.043161 1_666
B5 Ce0 3.043747 1_555
B5 Ce0 3.043747 1_655
B6 B8 1.755649 1_555
B6 Eu0 3.043161 1_556
B6 Eu0 3.043161 1_656
B6 Ce0 3.043747 1_555
B6 Ce0 3.043747 1_655
B7 B9 1.754433 1_565
B7 Eu0 3.043161 1_665
B7 Eu0 3.043161 1_565
B7 Ce0 3.043747 1_555
B7 Ce0 3.043747 1_655
B8 Eu0 3.043161 1_566
B8 Eu0 3.043161 1_666
B8 Ce0 3.043747 1_555
B8 Ce0 3.043747 1_655
B9 Eu0 3.043161 1_555
B9 Eu0 3.043161 1_655
B9 Ce0 3.043747 1_555
B9 Ce0 3.043747 1_655
B10 B8 1.754514 1_554
B10 B6 1.754514 1_554
B10 B2 1.754514 1_555
B10 B4 1.754514 1_555
B10 Eu0 3.044412 1_655
B10 Ce0 3.044412 1_655
B10 Ce0 3.044412 1_654
B10 Eu0 3.044412 1_665
B11 B5 1.754514 1_545
B11 B7 1.754514 1_545
B11 B3 1.754514 1_555
B11 B9 1.754514 1_555
B11 Ce0 3.044412 1_645
B11 Eu0 3.044412 1_655
B11 Ce0 3.044412 1_655
B11 Eu0 3.044412 1_656
