# generated using pymatgen
data_Th(Al2Cu)4
_symmetry_space_group_name_H-M   'P 1'
_cell_length_a   6.75866956
_cell_length_b   6.75866956
_cell_length_c   6.75866956
_cell_angle_alpha   98.22011587
_cell_angle_beta   98.22011587
_cell_angle_gamma   135.56516421
_symmetry_Int_Tables_number   1
_chemical_formula_structural   Th(Al2Cu)4
_chemical_formula_sum   'Th1 Al8 Cu4'
_cell_volume   200.09609845
_cell_formula_units_Z   1
loop_
 _symmetry_equiv_pos_site_id
 _symmetry_equiv_pos_as_xyz
  1  'x, y, z'
loop_
 _atom_site_type_symbol
 _atom_site_label
 _atom_site_symmetry_multiplicity
 _atom_site_fract_x
 _atom_site_fract_y
 _atom_site_fract_z
 _atom_site_occupancy
  Th  Th0  1  0.00000000  0.00000000  0.00000000  1
  Al  Al0  1  0.00000000  0.35058894  0.35058894  1
  Al  Al1  1  0.00000000  0.64941106  0.64941106  1
  Al  Al2  1  0.64941106  0.00000000  0.64941106  1
  Al  Al3  1  0.35058894  -0.00000000  0.35058894  1
  Al  Al4  1  0.50000000  0.27826750  0.77826750  1
  Al  Al5  1  0.50000000  0.72173250  0.22173250  1
  Al  Al6  1  0.72173250  0.50000000  0.22173250  1
  Al  Al7  1  0.27826750  0.50000000  0.77826750  1
  Cu  Cu0  1  0.00000000  0.00000000  0.50000000  1
  Cu  Cu1  1  0.50000000  0.50000000  0.50000000  1
  Cu  Cu2  1  0.50000000  0.00000000  0.00000000  1
  Cu  Cu3  1  0.00000000  0.50000000  0.00000000  1
loop_
_geom_bond_atom_site_label_1
_geom_bond_atom_site_label_2
_geom_bond_distance
_geom_bond_site_symmetry_2
Al0 Al1 2.644145 1_555
Al0 Cu3 2.705284 1_555
Al0 Cu0 2.705284 1_555
Al0 Cu2 2.705284 1_455
Al0 Cu1 2.705284 1_555
Al0 Al6 2.794751 1_455
Al0 Al7 2.794751 1_555
Al0 Al5 2.798419 1_445
Al0 Al5 2.798419 1_555
Al0 Th0 3.102207 1_555
Al1 Cu1 2.705284 1_455
Al1 Cu0 2.705284 1_565
Al1 Cu2 2.705284 1_566
Al1 Cu3 2.705284 1_556
Al1 Al7 2.794751 1_555
Al1 Al6 2.794751 1_455
Al1 Al4 2.798419 1_455
Al1 Al4 2.798419 1_565
Al1 Th0 3.102207 1_566
Al2 Al3 2.644145 1_555
Al2 Cu0 2.705284 1_655
Al2 Cu3 2.705284 1_656
Al2 Cu2 2.705284 1_556
Al2 Cu1 2.705284 1_545
Al2 Al4 2.794751 1_555
Al2 Al5 2.794751 1_545
Al2 Al7 2.798419 1_545
Al2 Al7 2.798419 1_655
Al2 Th0 3.102207 1_656
Al3 Cu3 2.705284 1_545
Al3 Cu0 2.705284 1_555
Al3 Cu2 2.705284 1_555
Al3 Cu1 2.705284 1_555
Al3 Al5 2.794751 1_545
Al3 Al4 2.794751 1_555
Al3 Al6 2.798419 1_445
Al3 Al6 2.798419 1_555
Al3 Th0 3.102207 1_555
Al4 Cu3 2.566886 1_656
Al4 Cu0 2.566886 1_555
Al4 Cu2 2.566886 1_556
Al4 Cu1 2.566886 1_555
Al4 Th0 3.221894 1_666
Al4 Th0 3.221894 1_556
Al5 Cu0 2.566886 1_665
Al5 Cu2 2.566886 1_565
Al5 Cu1 2.566886 1_555
Al5 Cu3 2.566886 1_555
Al5 Th0 3.221894 1_665
Al5 Th0 3.221894 1_555
Al6 Cu3 2.566886 1_655
Al6 Cu0 2.566886 1_665
Al6 Cu2 2.566886 1_555
Al6 Cu1 2.566886 1_555
Al6 Th0 3.221894 1_555
Al6 Th0 3.221894 1_665
Al7 Cu2 2.566886 1_566
Al7 Cu0 2.566886 1_555
Al7 Cu3 2.566886 1_556
Al7 Cu1 2.566886 1_555
Al7 Th0 3.221894 1_666
Al7 Th0 3.221894 1_556
Cu0 Cu1 2.555603 1_555
Cu0 Cu1 2.555603 1_445
Cu0 Th0 3.379335 1_555
Cu0 Th0 3.379335 1_556
Cu1 Th0 3.379335 1_666
Cu1 Th0 3.379335 1_555
Cu2 Cu3 2.555603 1_655
Cu2 Cu3 2.555603 1_545
Cu2 Th0 3.379335 1_555
Cu2 Th0 3.379335 1_655
Cu3 Th0 3.379335 1_565
Cu3 Th0 3.379335 1_555
