# generated using pymatgen
data_Mg(ScGa)2
_symmetry_space_group_name_H-M   'P 1'
_cell_length_a   3.79669139
_cell_length_b   7.23658523
_cell_length_c   7.23658523
_cell_angle_alpha   90.00000000
_cell_angle_beta   90.00000000
_cell_angle_gamma   90.00000000
_symmetry_Int_Tables_number   1
_chemical_formula_structural   Mg(ScGa)2
_chemical_formula_sum   'Mg2 Sc4 Ga4'
_cell_volume   198.82576417
_cell_formula_units_Z   2
loop_
 _symmetry_equiv_pos_site_id
 _symmetry_equiv_pos_as_xyz
  1  'x, y, z'
loop_
 _atom_site_type_symbol
 _atom_site_label
 _atom_site_symmetry_multiplicity
 _atom_site_fract_x
 _atom_site_fract_y
 _atom_site_fract_z
 _atom_site_occupancy
  Mg  Mg0  1  0.00000000  0.50000000  0.50000000  1
  Mg  Mg1  1  0.00000000  -0.00000000  0.00000000  1
  Sc  Sc0  1  0.50000000  0.32423827  0.17576173  1
  Sc  Sc1  1  0.50000000  0.82423927  0.32423927  1
  Sc  Sc2  1  0.50000000  0.67576173  0.82423827  1
  Sc  Sc3  1  0.50000000  0.17576073  0.67576073  1
  Ga  Ga0  1  0.00000000  0.87752984  0.62247016  1
  Ga  Ga1  1  -0.00000000  0.62247016  0.12247016  1
  Ga  Ga2  1  0.00000000  0.37752984  0.87752984  1
  Ga  Ga3  1  -0.00000000  0.12247016  0.37752984  1
loop_
_geom_bond_atom_site_label_1
_geom_bond_atom_site_label_2
_geom_bond_distance
_geom_bond_site_symmetry_2
Ga0 Ga3 2.506738 1_565
Ga0 Sc2 2.804919 1_455
Ga0 Sc2 2.804919 1_555
Ga0 Mg0 2.872183 1_555
Ga0 Mg1 2.872183 1_566
Ga0 Sc3 2.900025 1_465
Ga0 Sc3 2.900025 1_565
Ga0 Sc1 2.900025 1_455
Ga0 Sc1 2.900025 1_555
Ga1 Ga2 2.506738 1_554
Ga1 Sc1 2.804927 1_555
Ga1 Sc1 2.804927 1_455
Ga1 Mg0 2.872183 1_555
Ga1 Mg1 2.872183 1_565
Ga1 Sc2 2.900032 1_454
Ga1 Sc0 2.900032 1_555
Ga1 Sc0 2.900032 1_455
Ga1 Sc2 2.900032 1_554
Ga2 Sc3 2.804927 1_455
Ga2 Sc3 2.804927 1_555
Ga2 Mg0 2.872183 1_555
Ga2 Mg1 2.872183 1_556
Ga2 Sc2 2.900032 1_455
Ga2 Sc2 2.900032 1_555
Ga2 Sc0 2.900032 1_556
Ga2 Sc0 2.900032 1_456
Ga3 Sc0 2.804919 1_555
Ga3 Sc0 2.804919 1_455
Ga3 Mg0 2.872183 1_555
Ga3 Mg1 2.872183 1_555
Ga3 Sc1 2.900025 1_445
Ga3 Sc1 2.900025 1_545
Ga3 Sc3 2.900025 1_455
Ga3 Sc3 2.900025 1_555
