# generated using pymatgen
data_NaLi2FePCO7
_symmetry_space_group_name_H-M   'P 1'
_cell_length_a   5.06386532
_cell_length_b   11.22482520
_cell_length_c   10.67264271
_cell_angle_alpha   104.46992120
_cell_angle_beta   92.92328863
_cell_angle_gamma   86.98602994
_symmetry_Int_Tables_number   1
_chemical_formula_structural   NaLi2FePCO7
_chemical_formula_sum   'Na4 Li8 Fe4 P4 C4 O28'
_cell_volume   586.13798518
_cell_formula_units_Z   4
loop_
 _symmetry_equiv_pos_site_id
 _symmetry_equiv_pos_as_xyz
  1  'x, y, z'
loop_
 _atom_site_type_symbol
 _atom_site_label
 _atom_site_symmetry_multiplicity
 _atom_site_fract_x
 _atom_site_fract_y
 _atom_site_fract_z
 _atom_site_occupancy
  Na  Na0  1  0.25840000  0.37770800  0.12163700  1
  Na  Na1  1  0.25836200  0.87863000  0.62272300  1
  Na  Na2  1  0.74003500  0.62052000  0.87723900  1
  Na  Na3  1  0.73950000  0.12233100  0.37796100  1
  Li  Li0  1  0.76250700  0.15255300  0.05679300  1
  Li  Li1  1  0.76737700  0.64781600  0.55717300  1
  Li  Li2  1  0.23891600  0.85218400  0.94451600  1
  Li  Li3  1  0.23603100  0.34818100  0.44401500  1
  Li  Li4  1  0.23965500  0.16365800  0.87665100  1
  Li  Li5  1  0.24411800  0.66108200  0.37558200  1
  Li  Li6  1  0.75582700  0.83836900  0.12339400  1
  Li  Li7  1  0.74684700  0.34337400  0.62740700  1
  Fe  Fe0  1  0.78328700  0.05583700  0.71041200  1
  Fe  Fe1  1  0.21344100  0.44724800  0.78871200  1
  Fe  Fe2  1  0.78451900  0.55465600  0.20997000  1
  Fe  Fe3  1  0.21316300  0.94478700  0.29022000  1
  P  P0  1  0.71631700  0.32940800  0.91744700  1
  P  P1  1  0.71982300  0.82972900  0.41710400  1
  P  P2  1  0.28042400  0.66864300  0.08153800  1
  P  P3  1  0.27940500  0.17202000  0.58418900  1
  C  C0  1  0.71073700  0.40418900  0.36330500  1
  C  C1  1  0.71137100  0.90332500  0.86228000  1
  C  C2  1  0.29990300  0.59530600  0.63571600  1
  C  C3  1  0.28754100  0.09502400  0.13735600  1
  O  O0  1  0.36756200  0.16327300  0.06645600  1
  O  O1  1  0.37014200  0.66541700  0.56434400  1
  O  O2  1  0.63200900  0.83512900  0.93368100  1
  O  O3  1  0.63110400  0.33579300  0.43429000  1
  O  O4  1  0.95903300  0.41421700  0.34532700  1
  O  O5  1  0.95931300  0.91316900  0.84381600  1
  O  O6  1  0.05324400  0.58303700  0.65630000  1
  O  O7  1  0.03925700  0.08512700  0.15548200  1
  O  O8  1  0.53538800  0.46644800  0.30793000  1
  O  O9  1  0.53542200  0.96540200  0.80711700  1
  O  O10  1  0.48173600  0.53433800  0.68853300  1
  O  O11  1  0.46258000  0.03238100  0.19268400  1
  O  O12  1  0.83519200  0.19389200  0.89026900  1
  O  O13  1  0.83871800  0.69461600  0.39038600  1
  O  O14  1  0.15997200  0.80323600  0.10693400  1
  O  O15  1  0.16334400  0.30831600  0.61353200  1
  O  O16  1  0.78939700  0.38662700  0.06189100  1
  O  O17  1  0.79236700  0.88921500  0.56052400  1
  O  O18  1  0.21142700  0.60758900  0.93738300  1
  O  O19  1  0.20456100  0.11570800  0.44002500  1
  O  O20  1  0.40873300  0.32751000  0.89559100  1
  O  O21  1  0.41254900  0.82755300  0.39393000  1
  O  O22  1  0.58715400  0.67205600  0.10436900  1
  O  O23  1  0.58664900  0.17383700  0.60571400  1
  O  O24  1  0.16856200  0.59813900  0.17394100  1
  O  O25  1  0.16807000  0.10006900  0.67536500  1
  O  O26  1  0.82727500  0.40077500  0.82627100  1
  O  O27  1  0.83173200  0.90055300  0.32457400  1
loop_
_geom_bond_atom_site_label_1
_geom_bond_atom_site_label_2
_geom_bond_distance
_geom_bond_site_symmetry_2
Na0 O0 2.372953 1_555
Na0 O8 2.405288 1_555
Na0 O24 2.420333 1_555
Na0 O16 2.430951 1_455
Na0 O20 2.485981 1_554
Na0 O16 2.807468 1_555
Na0 O4 2.824969 1_455
Na1 O1 2.363198 1_555
Na1 O9 2.386242 1_555
Na1 O17 2.423488 1_455
Na1 O25 2.431417 1_565
Na1 O21 2.519644 1_555
Na1 O5 2.803040 1_455
Na1 O17 2.832560 1_555
Na2 O10 2.365068 1_555
Na2 O2 2.373814 1_555
Na2 O26 2.411341 1_555
Na2 O18 2.446430 1_655
Na2 O22 2.500733 1_556
Na2 O18 2.803753 1_555
Na2 O6 2.840465 1_655
Na3 O3 2.362068 1_555
Na3 O11 2.400885 1_555
Na3 O19 2.416077 1_655
Na3 O27 2.436396 1_545
Na3 O23 2.506857 1_555
Na3 O7 2.814585 1_655
Na3 O19 2.830371 1_555
Li0 O7 1.944858 1_655
Li0 O12 2.001556 1_554
Li0 O0 2.003606 1_555
Li0 O16 2.624951 1_555
Li1 O6 1.964952 1_655
Li1 O1 2.014338 1_555
Li1 O13 2.031733 1_555
Li2 O5 1.933619 1_455
Li2 O2 1.996179 1_555
Li2 O14 2.009029 1_556
Li3 O4 1.938156 1_455
Li3 O3 2.004297 1_555
Li3 O15 2.024530 1_555
Li3 O19 2.612287 1_555
Li4 O20 2.029473 1_555
Li4 O12 2.064902 1_455
Li4 O0 2.096029 1_556
Li4 O25 2.106504 1_555
Li4 O9 2.585308 1_545
Li5 O21 2.055529 1_555
Li5 O1 2.071555 1_555
Li5 O13 2.074395 1_455
Li5 O24 2.112214 1_555
Li5 O8 2.539943 1_555
Li6 O22 2.053390 1_555
Li6 O14 2.071682 1_655
Li6 O2 2.080896 1_554
Li6 O27 2.107168 1_555
Li6 O11 2.541988 1_565
Li7 O23 2.063051 1_555
Li7 O26 2.083662 1_555
Li7 O3 2.095984 1_555
Li7 O15 2.130840 1_655
Li7 O10 2.431151 1_555
Fe0 O25 2.109954 1_655
Fe0 O9 2.112061 1_545
Fe0 O23 2.117060 1_555
Fe0 O17 2.135990 1_545
Fe0 O12 2.158697 1_555
Fe0 O5 2.499224 1_545
Fe1 O18 2.080772 1_555
Fe1 O15 2.127916 1_555
Fe1 O26 2.132716 1_455
Fe1 O20 2.144041 1_555
Fe1 O10 2.180540 1_555
Fe1 O6 2.409951 1_555
Fe2 O24 2.106655 1_655
Fe2 O8 2.109061 1_555
Fe2 O22 2.120024 1_555
Fe2 O16 2.136603 1_555
Fe2 O13 2.175031 1_555
Fe2 O4 2.492845 1_555
Fe3 O27 2.091835 1_455
Fe3 O11 2.102792 1_565
Fe3 O21 2.109604 1_555
Fe3 O19 2.168955 1_565
Fe3 O14 2.204910 1_555
Fe3 O7 2.486353 1_565
C0 O3 1.296288 1_555
C0 O4 1.296405 1_555
C0 O8 1.309095 1_555
C1 O5 1.295431 1_555
C1 O2 1.297414 1_555
C1 O9 1.308516 1_555
C2 O1 1.297201 1_555
C2 O6 1.299440 1_555
C2 O10 1.306716 1_555
C3 O0 1.295098 1_555
C3 O7 1.296436 1_555
C3 O11 1.310475 1_555
O12 P0 1.568884 1_555
O13 P1 1.565024 1_555
O14 P2 1.563103 1_555
O15 P3 1.571261 1_555
O16 P0 1.548544 1_554
O17 P1 1.543186 1_555
O18 P2 1.549903 1_556
O19 P3 1.546026 1_555
O20 P0 1.563592 1_555
O21 P1 1.563525 1_555
O22 P2 1.560892 1_555
O23 P3 1.561530 1_555
O24 P2 1.553669 1_555
O25 P3 1.553584 1_555
O26 P0 1.548226 1_555
O27 P1 1.557297 1_555
