# generated using pymatgen
data_Nd2Al3Ge
_symmetry_space_group_name_H-M   'P 1'
_cell_length_a   4.28706392
_cell_length_b   4.32002900
_cell_length_c   7.50080339
_cell_angle_alpha   90.00000000
_cell_angle_beta   90.00000000
_cell_angle_gamma   90.00000000
_symmetry_Int_Tables_number   1
_chemical_formula_structural   Nd2Al3Ge
_chemical_formula_sum   'Nd2 Al3 Ge1'
_cell_volume   138.91668242
_cell_formula_units_Z   1
loop_
 _symmetry_equiv_pos_site_id
 _symmetry_equiv_pos_as_xyz
  1  'x, y, z'
loop_
 _atom_site_type_symbol
 _atom_site_label
 _atom_site_symmetry_multiplicity
 _atom_site_fract_x
 _atom_site_fract_y
 _atom_site_fract_z
 _atom_site_occupancy
  Nd  Nd0  1  0.00000000  0.50000000  0.00493915  1
  Nd  Nd1  1  0.00000000  0.00000000  0.49577213  1
  Al  Al0  1  0.50000000  0.00000000  0.83142185  1
  Al  Al1  1  0.50000000  0.00000000  0.16646189  1
  Al  Al2  1  0.50000000  0.50000000  0.66561733  1
  Ge  Ge0  1  0.50000000  0.50000000  0.33578765  1
loop_
_geom_bond_atom_site_label_1
_geom_bond_atom_site_label_2
_geom_bond_distance
_geom_bond_site_symmetry_2
Al0 Al2 2.492463 1_555
Al0 Al2 2.492463 1_545
Al0 Al1 2.513069 1_556
Al0 Nd1 3.306547 1_655
Al0 Nd1 3.306547 1_555
Al0 Nd0 3.309735 1_546
Al0 Nd0 3.309735 1_646
Al0 Nd0 3.309735 1_656
Al0 Nd0 3.309735 1_556
Al1 Ge0 2.505746 1_545
Al1 Ge0 2.505746 1_555
Al1 Nd1 3.270486 1_655
Al1 Nd1 3.270486 1_555
Al1 Nd0 3.275400 1_655
Al1 Nd0 3.275400 1_645
Al1 Nd0 3.275400 1_555
Al1 Nd0 3.275400 1_545
Al2 Ge0 2.473988 1_555
Al2 Nd1 3.299001 1_665
Al2 Nd1 3.299001 1_565
Al2 Nd1 3.299001 1_655
Al2 Nd1 3.299001 1_555
Al2 Nd0 3.327567 1_556
Al2 Nd0 3.327567 1_656
Ge0 Nd1 3.271150 1_565
Ge0 Nd1 3.271150 1_655
Ge0 Nd1 3.271150 1_555
Ge0 Nd1 3.271150 1_665
Ge0 Nd0 3.279209 1_555
Ge0 Nd0 3.279209 1_655
