# generated using pymatgen
data_Mg14FeSb
_symmetry_space_group_name_H-M   'P 1'
_cell_length_a   6.27465203
_cell_length_b   6.27465154
_cell_length_c   10.25632039
_cell_angle_alpha   90.00000000
_cell_angle_beta   90.00000000
_cell_angle_gamma   120.00000263
_symmetry_Int_Tables_number   1
_chemical_formula_structural   Mg14FeSb
_chemical_formula_sum   'Mg14 Fe1 Sb1'
_cell_volume   349.70469103
_cell_formula_units_Z   1
loop_
 _symmetry_equiv_pos_site_id
 _symmetry_equiv_pos_as_xyz
  1  'x, y, z'
loop_
 _atom_site_type_symbol
 _atom_site_label
 _atom_site_symmetry_multiplicity
 _atom_site_fract_x
 _atom_site_fract_y
 _atom_site_fract_z
 _atom_site_occupancy
  Mg  Mg0  1  0.16450126  0.83225013  0.12500000  1
  Mg  Mg1  1  0.16537028  0.83268464  0.62500000  1
  Mg  Mg2  1  0.66774987  0.33549874  0.12500000  1
  Mg  Mg3  1  0.66731536  0.33462972  0.62500000  1
  Mg  Mg4  1  0.66774987  0.83225013  0.12500000  1
  Mg  Mg5  1  0.66731536  0.83268464  0.62500000  1
  Mg  Mg6  1  0.32936506  0.17063494  0.36186279  1
  Mg  Mg7  1  0.32936506  0.17063494  0.88813721  1
  Mg  Mg8  1  0.32936506  0.65873112  0.36186279  1
  Mg  Mg9  1  0.32936506  0.65873112  0.88813721  1
  Mg  Mg10  1  0.84126888  0.17063494  0.36186279  1
  Mg  Mg11  1  0.84126888  0.17063494  0.88813721  1
  Mg  Mg12  1  0.83333300  0.66666700  0.37395628  1
  Mg  Mg13  1  0.83333300  0.66666700  0.87604372  1
  Fe  Fe0  1  0.16666700  0.33333300  0.12500000  1
  Sb  Sb0  1  0.16666700  0.33333300  0.62500000  1
loop_
_geom_bond_atom_site_label_1
_geom_bond_atom_site_label_2
_geom_bond_distance
_geom_bond_site_symmetry_2
Mg0 Mg8 3.046888 1_555
Mg0 Mg9 3.046888 1_554
Mg0 Mg6 3.046895 1_565
Mg0 Mg7 3.046895 1_564
Mg0 Mg2 3.116942 1_455
Mg0 Mg4 3.116942 1_455
Mg0 Mg12 3.123809 1_455
Mg0 Mg13 3.123809 1_454
Mg0 Mg2 3.157710 1_565
Mg0 Mg4 3.157710 1_555
Mg1 Sb0 3.137334 1_565
Mg1 Sb0 3.137334 1_555
Mg1 Mg13 3.144041 1_455
Mg1 Mg12 3.144041 1_455
Mg1 Mg8 3.264509 1_555
Mg1 Mg9 3.264509 1_555
Mg1 Mg6 3.264515 1_565
Mg1 Mg7 3.264515 1_565
Mg2 Mg6 3.046895 1_555
Mg2 Mg7 3.046895 1_554
Mg2 Mg4 3.116942 1_555
Mg2 Mg4 3.157710 1_545
Mg3 Sb0 3.137334 1_555
Mg3 Sb0 3.137334 1_655
Mg3 Mg6 3.264515 1_555
Mg3 Mg7 3.264515 1_555
Mg4 Mg8 3.046894 1_555
Mg4 Mg9 3.046894 1_554
Mg5 Sb0 3.137334 1_665
Mg5 Sb0 3.137334 1_555
Mg5 Mg8 3.264515 1_555
Mg5 Mg9 3.264515 1_555
Mg6 Mg8 3.062633 1_555
Mg6 Mg8 3.212018 1_545
Mg6 Sb0 3.226480 1_555
Mg7 Mg9 3.062633 1_555
Mg7 Mg9 3.212018 1_545
Mg7 Sb0 3.226480 1_555
Mg8 Sb0 3.226486 1_555
Mg9 Sb0 3.226486 1_555
Mg10 Mg2 3.046888 1_555
Mg10 Mg4 3.046894 1_545
Mg10 Mg8 3.062633 1_655
Mg10 Mg6 3.062634 1_655
Mg10 Mg12 3.140073 1_545
Mg10 Mg12 3.140073 1_555
Mg10 Mg8 3.212018 1_545
Mg10 Mg6 3.212018 1_555
Mg10 Sb0 3.226486 1_655
Mg10 Mg3 3.264509 1_555
Mg10 Mg5 3.264515 1_545
Mg11 Mg2 3.046888 1_556
Mg11 Mg4 3.046894 1_546
Mg11 Mg9 3.062633 1_655
Mg11 Mg7 3.062634 1_655
Mg11 Mg13 3.140073 1_545
Mg11 Mg13 3.140073 1_555
Mg11 Mg9 3.212018 1_545
Mg11 Mg7 3.212018 1_555
Mg11 Sb0 3.226486 1_655
Mg11 Mg3 3.264509 1_555
Mg11 Mg5 3.264515 1_545
Mg12 Mg4 3.123803 1_555
Mg12 Mg2 3.123809 1_555
Mg12 Mg6 3.140073 1_665
Mg12 Mg6 3.140073 1_555
Mg12 Mg8 3.140073 1_555
Mg12 Mg8 3.140073 1_655
Mg12 Mg5 3.144034 1_555
Mg12 Mg3 3.144040 1_555
Mg13 Mg4 3.123803 1_556
Mg13 Mg2 3.123809 1_556
Mg13 Mg7 3.140073 1_665
Mg13 Mg7 3.140073 1_555
Mg13 Mg9 3.140073 1_555
Mg13 Mg9 3.140073 1_655
Mg13 Mg5 3.144034 1_555
Mg13 Mg3 3.144040 1_555
Fe0 Mg7 3.004704 1_554
Fe0 Mg6 3.004704 1_555
Fe0 Mg8 3.004710 1_555
Fe0 Mg9 3.004710 1_554
Fe0 Mg11 3.004710 1_454
Fe0 Mg10 3.004710 1_455
Fe0 Mg4 3.137348 1_445
Fe0 Mg4 3.137348 1_555
Fe0 Mg0 3.137348 1_545
Fe0 Mg0 3.137348 1_555
Fe0 Mg2 3.137348 1_555
Fe0 Mg2 3.137348 1_455
