# generated using pymatgen
data_Sr4N3
_symmetry_space_group_name_H-M   'P 1'
_cell_length_a   7.08070878
_cell_length_b   7.08070878
_cell_length_c   6.56016063
_cell_angle_alpha   64.75485810
_cell_angle_beta   64.75485810
_cell_angle_gamma   32.10136709
_symmetry_Int_Tables_number   1
_chemical_formula_structural   Sr4N3
_chemical_formula_sum   'Sr4 N3'
_cell_volume   156.63028381
_cell_formula_units_Z   1
loop_
 _symmetry_equiv_pos_site_id
 _symmetry_equiv_pos_as_xyz
  1  'x, y, z'
loop_
 _atom_site_type_symbol
 _atom_site_label
 _atom_site_symmetry_multiplicity
 _atom_site_fract_x
 _atom_site_fract_y
 _atom_site_fract_z
 _atom_site_occupancy
  Sr  Sr0  1  0.63149600  0.63149600  0.55457300  1
  Sr  Sr1  1  0.13765200  0.13765200  0.00280400  1
  Sr  Sr2  1  0.36850400  0.36850400  0.44542700  1
  Sr  Sr3  1  0.86234800  0.86234800  0.99719600  1
  N  N0  1  0.77516400  0.77516400  0.71154800  1
  N  N1  1  0.50000000  0.50000000  0.00000000  1
  N  N2  1  0.22483600  0.22483600  0.28845200  1
loop_
_geom_bond_atom_site_label_1
_geom_bond_atom_site_label_2
_geom_bond_distance
_geom_bond_site_symmetry_2
N0 Sr2 2.554561 1_565
N0 Sr2 2.554561 1_655
N0 Sr0 2.582730 1_555
N0 Sr3 2.625411 1_555
N0 Sr1 2.794989 1_656
N0 Sr1 2.794989 1_566
N1 Sr2 2.664521 1_555
N1 Sr0 2.664521 1_554
N1 Sr3 2.715343 1_454
N1 Sr3 2.715343 1_544
N1 Sr1 2.715343 1_655
N1 Sr1 2.715343 1_565
N2 Sr0 2.554561 1_545
N2 Sr0 2.554561 1_455
N2 Sr2 2.582730 1_555
N2 Sr1 2.625411 1_555
N2 Sr3 2.794989 1_454
N2 Sr3 2.794989 1_544
