# generated using pymatgen
data_Nd3Sn5Au6
_symmetry_space_group_name_H-M   'P 1'
_cell_length_a   4.61680500
_cell_length_b   10.36857800
_cell_length_c   13.76921800
_cell_angle_alpha   90.00000000
_cell_angle_beta   90.00000000
_cell_angle_gamma   90.00000000
_symmetry_Int_Tables_number   1
_chemical_formula_structural   Nd3Sn5Au6
_chemical_formula_sum   'Nd6 Sn10 Au12'
_cell_volume   659.12837281
_cell_formula_units_Z   2
loop_
 _symmetry_equiv_pos_site_id
 _symmetry_equiv_pos_as_xyz
  1  'x, y, z'
loop_
 _atom_site_type_symbol
 _atom_site_label
 _atom_site_symmetry_multiplicity
 _atom_site_fract_x
 _atom_site_fract_y
 _atom_site_fract_z
 _atom_site_occupancy
  Nd  Nd0  1  0.50000000  0.75569600  0.50000000  1
  Nd  Nd1  1  0.00000000  0.24430400  0.00000000  1
  Nd  Nd2  1  0.50000000  0.75471900  0.81283500  1
  Nd  Nd3  1  0.50000000  0.75471900  0.18716500  1
  Nd  Nd4  1  0.00000000  0.24528100  0.68716500  1
  Nd  Nd5  1  0.00000000  0.24528100  0.31283500  1
  Sn  Sn0  1  0.50000000  0.47606600  0.64323700  1
  Sn  Sn1  1  0.50000000  0.47606600  0.35676300  1
  Sn  Sn2  1  0.00000000  0.52393400  0.85676300  1
  Sn  Sn3  1  0.00000000  0.52393400  0.14323700  1
  Sn  Sn4  1  0.50000000  0.11989500  0.83685500  1
  Sn  Sn5  1  0.50000000  0.11989500  0.16314500  1
  Sn  Sn6  1  0.00000000  0.88010500  0.66314500  1
  Sn  Sn7  1  0.00000000  0.88010500  0.33685500  1
  Sn  Sn8  1  0.50000000  0.22918900  0.50000000  1
  Sn  Sn9  1  0.00000000  0.77081100  0.00000000  1
  Au  Au0  1  0.50000000  0.02584000  0.64337300  1
  Au  Au1  1  0.50000000  0.02584000  0.35662700  1
  Au  Au2  1  0.00000000  0.97416000  0.85662700  1
  Au  Au3  1  0.00000000  0.97416000  0.14337300  1
  Au  Au4  1  0.00000000  0.03930400  0.50000000  1
  Au  Au5  1  0.50000000  0.96069600  0.00000000  1
  Au  Au6  1  0.50000000  0.37854700  0.84102300  1
  Au  Au7  1  0.50000000  0.37854700  0.15897700  1
  Au  Au8  1  0.00000000  0.62145300  0.65897700  1
  Au  Au9  1  0.00000000  0.62145300  0.34102300  1
  Au  Au10  1  0.00000000  0.43544500  0.50000000  1
  Au  Au11  1  0.50000000  0.56455500  0.00000000  1
loop_
_geom_bond_atom_site_label_1
_geom_bond_atom_site_label_2
_geom_bond_distance
_geom_bond_site_symmetry_2
Nd0 Sn7 3.469711 1_555
Nd0 Sn6 3.469711 1_655
Nd0 Sn7 3.469711 1_655
Nd0 Sn6 3.469711 1_555
Nd0 Sn0 3.506585 1_555
Nd0 Sn1 3.506585 1_555
Nd1 Sn4 3.469711 1_554
Nd1 Sn4 3.469711 1_454
Nd1 Sn5 3.469711 1_455
Nd1 Sn5 3.469711 1_555
Nd1 Sn2 3.506585 1_554
Nd1 Sn3 3.506585 1_555
Nd2 Sn6 3.356651 1_555
Nd2 Sn6 3.356651 1_655
Nd2 Sn2 3.379438 1_655
Nd2 Sn2 3.379438 1_555
Nd2 Sn9 3.463825 1_656
Nd2 Sn9 3.463825 1_556
Nd2 Sn0 3.714968 1_555
Nd3 Sn7 3.356651 1_555
Nd3 Sn7 3.356651 1_655
Nd3 Sn3 3.379438 1_555
Nd3 Sn3 3.379438 1_655
Nd3 Sn9 3.463825 1_655
Nd3 Sn9 3.463825 1_555
Nd3 Sn1 3.714968 1_555
Nd4 Sn4 3.356651 1_455
Nd4 Sn4 3.356651 1_555
Nd4 Sn0 3.379438 1_555
Nd4 Sn0 3.379438 1_455
Nd4 Sn8 3.463825 1_555
Nd4 Sn8 3.463825 1_455
Nd4 Sn2 3.714968 1_555
Nd5 Sn5 3.356651 1_455
Nd5 Sn5 3.356651 1_555
Nd5 Sn1 3.379438 1_455
Nd5 Sn1 3.379438 1_555
Nd5 Sn8 3.463825 1_555
Nd5 Sn8 3.463825 1_455
Nd5 Sn3 3.714968 1_555
Sn0 Sn8 3.231440 1_555
Sn1 Sn8 3.231440 1_555
Sn2 Sn9 3.231440 1_556
Sn3 Sn9 3.231440 1_555
Au0 Sn6 2.772392 1_545
Au0 Sn6 2.772392 1_645
Au0 Sn4 2.836980 1_555
Au0 Sn8 2.888377 1_555
Au0 Au4 3.040628 1_555
Au0 Au4 3.040628 1_655
Au0 Nd4 3.296856 1_655
Au0 Nd4 3.296856 1_555
Au0 Nd0 3.426785 1_545
Au0 Nd2 3.653364 1_545
Au1 Sn7 2.772392 1_645
Au1 Sn7 2.772392 1_545
Au1 Sn5 2.836980 1_555
Au1 Sn8 2.888377 1_555
Au1 Au4 3.040628 1_555
Au1 Au4 3.040628 1_655
Au1 Nd5 3.296856 1_655
Au1 Nd5 3.296856 1_555
Au1 Nd0 3.426785 1_545
Au1 Nd3 3.653364 1_545
Au2 Sn4 2.772392 1_465
Au2 Sn4 2.772392 1_565
Au2 Sn6 2.836980 1_555
Au2 Sn9 2.888377 1_556
Au2 Au5 3.040628 1_456
Au2 Au5 3.040628 1_556
Au2 Nd2 3.296856 1_455
Au2 Nd2 3.296856 1_555
Au2 Nd1 3.426785 1_566
Au2 Nd4 3.653364 1_565
Au3 Sn5 2.772392 1_565
Au3 Sn5 2.772392 1_465
Au3 Sn7 2.836980 1_555
Au3 Sn9 2.888377 1_555
Au3 Au5 3.040628 1_455
Au3 Au5 3.040628 1_555
Au3 Nd3 3.296856 1_455
Au3 Nd3 3.296856 1_555
Au3 Nd1 3.426785 1_565
Au3 Nd5 3.653364 1_565
Au4 Sn7 2.787637 1_545
Au4 Sn6 2.787637 1_545
Au4 Sn8 3.033981 1_555
Au4 Sn8 3.033981 1_455
Au4 Nd4 3.347042 1_555
Au4 Nd5 3.347042 1_555
Au4 Nd0 3.738438 1_445
Au4 Nd0 3.738438 1_545
Au5 Sn4 2.787637 1_564
Au5 Sn5 2.787637 1_565
Au5 Sn9 3.033981 1_655
Au5 Sn9 3.033981 1_555
Au5 Nd3 3.347042 1_555
Au5 Nd2 3.347042 1_554
Au5 Nd1 3.738438 1_665
Au5 Nd1 3.738438 1_565
Au6 Sn4 2.682467 1_555
Au6 Sn2 2.765523 1_655
Au6 Sn2 2.765523 1_555
Au6 Sn0 2.905008 1_555
Au6 Nd4 3.424339 1_655
Au6 Nd4 3.424339 1_555
Au6 Nd1 3.472435 1_656
Au6 Nd1 3.472435 1_556
Au7 Sn5 2.682467 1_555
Au7 Sn3 2.765523 1_555
Au7 Sn3 2.765523 1_655
Au7 Sn1 2.905008 1_555
Au7 Nd5 3.424339 1_655
Au7 Nd5 3.424339 1_555
Au7 Nd1 3.472435 1_655
Au7 Nd1 3.472435 1_555
Au8 Sn6 2.682467 1_555
Au8 Sn0 2.765523 1_455
Au8 Sn0 2.765523 1_555
Au8 Sn2 2.905008 1_555
Au8 Nd2 3.424339 1_555
Au8 Nd2 3.424339 1_455
Au8 Nd0 3.472435 1_455
Au8 Nd0 3.472435 1_555
Au9 Sn7 2.682467 1_555
Au9 Sn1 2.765523 1_455
Au9 Sn1 2.765523 1_555
Au9 Sn3 2.905008 1_555
Au9 Nd3 3.424339 1_555
Au9 Nd3 3.424339 1_455
Au9 Nd0 3.472435 1_455
Au9 Nd0 3.472435 1_555
Au10 Au9 2.917416 1_555
Au10 Au8 2.917416 1_555
Au10 Sn0 3.065278 1_455
Au10 Sn0 3.065278 1_555
Au10 Sn1 3.065278 1_455
Au10 Sn1 3.065278 1_555
Au10 Sn8 3.146784 1_455
Au10 Sn8 3.146784 1_555
Au10 Nd4 3.244880 1_555
Au10 Nd5 3.244880 1_555
Au11 Au7 2.917416 1_555
Au11 Au6 2.917416 1_554
Au11 Sn2 3.065278 1_554
Au11 Sn2 3.065278 1_654
Au11 Sn3 3.065278 1_655
Au11 Sn3 3.065278 1_555
Au11 Sn9 3.146784 1_555
Au11 Sn9 3.146784 1_655
Au11 Nd3 3.244880 1_555
Au11 Nd2 3.244880 1_554
