# generated using pymatgen
data_Rb6Mo27S31
_symmetry_space_group_name_H-M   'P 1'
_cell_length_a   9.39565311
_cell_length_b   9.39565311
_cell_length_c   37.60496282
_cell_angle_alpha   82.82353438
_cell_angle_beta   82.82353438
_cell_angle_gamma   60.00000414
_symmetry_Int_Tables_number   1
_chemical_formula_structural   Rb6Mo27S31
_chemical_formula_sum   'Rb12 Mo54 S62'
_cell_volume   2844.87744462
_cell_formula_units_Z   2
loop_
 _symmetry_equiv_pos_site_id
 _symmetry_equiv_pos_as_xyz
  1  'x, y, z'
loop_
 _atom_site_type_symbol
 _atom_site_label
 _atom_site_symmetry_multiplicity
 _atom_site_fract_x
 _atom_site_fract_y
 _atom_site_fract_z
 _atom_site_occupancy
  Rb  Rb0  1  0.59602637  0.59602637  0.21192089  1
  Rb  Rb1  1  0.09602637  0.09602637  0.71192089  1
  Rb  Rb2  1  0.40397363  0.40397363  0.78807911  1
  Rb  Rb3  1  0.90397363  0.90397363  0.28807911  1
  Rb  Rb4  1  0.63776132  0.63776132  0.08671604  1
  Rb  Rb5  1  0.13776132  0.13776132  0.58671604  1
  Rb  Rb6  1  0.36223868  0.36223868  0.91328396  1
  Rb  Rb7  1  0.86223868  0.86223868  0.41328396  1
  Rb  Rb8  1  0.68165227  0.68165227  0.95504319  1
  Rb  Rb9  1  0.18165227  0.18165227  0.45504319  1
  Rb  Rb10  1  0.31834773  0.31834773  0.04495681  1
  Rb  Rb11  1  0.81834773  0.81834773  0.54495681  1
  Mo  Mo0  1  0.23755330  0.39044375  0.31194694  1
  Mo  Mo1  1  0.39044375  0.06005601  0.31194694  1
  Mo  Mo2  1  0.06005601  0.23755330  0.31194694  1
  Mo  Mo3  1  0.73755330  0.56005601  0.81194694  1
  Mo  Mo4  1  0.56005601  0.89044375  0.81194694  1
  Mo  Mo5  1  0.89044375  0.73755330  0.81194694  1
  Mo  Mo6  1  0.76244670  0.60955625  0.68805306  1
  Mo  Mo7  1  0.60955625  0.93994399  0.68805306  1
  Mo  Mo8  1  0.93994399  0.76244670  0.68805306  1
  Mo  Mo9  1  0.26244670  0.43994399  0.18805306  1
  Mo  Mo10  1  0.43994399  0.10955625  0.18805306  1
  Mo  Mo11  1  0.10955625  0.26244670  0.18805306  1
  Mo  Mo12  1  0.08425396  0.41574604  0.25000000  1
  Mo  Mo13  1  0.41574604  0.25000000  0.25000000  1
  Mo  Mo14  1  0.25000000  0.08425396  0.25000000  1
  Mo  Mo15  1  0.58425396  0.75000000  0.75000000  1
  Mo  Mo16  1  0.75000000  0.91574604  0.75000000  1
  Mo  Mo17  1  0.91574604  0.58425396  0.75000000  1
  Mo  Mo18  1  0.72381760  0.52683334  0.34909607  1
  Mo  Mo19  1  0.52683334  0.40025299  0.34909607  1
  Mo  Mo20  1  0.40025299  0.72381760  0.34909607  1
  Mo  Mo21  1  0.22381760  0.90025299  0.84909607  1
  Mo  Mo22  1  0.90025299  0.02683334  0.84909607  1
  Mo  Mo23  1  0.02683334  0.22381760  0.84909607  1
  Mo  Mo24  1  0.27618240  0.47316666  0.65090393  1
  Mo  Mo25  1  0.47316666  0.59974701  0.65090393  1
  Mo  Mo26  1  0.59974701  0.27618240  0.65090393  1
  Mo  Mo27  1  0.77618240  0.09974701  0.15090393  1
  Mo  Mo28  1  0.09974701  0.97316666  0.15090393  1
  Mo  Mo29  1  0.97316666  0.77618240  0.15090393  1
  Mo  Mo30  1  0.35632506  0.54740018  0.41063237  1
  Mo  Mo31  1  0.54740018  0.68564239  0.41063237  1
  Mo  Mo32  1  0.68564239  0.35632506  0.41063237  1
  Mo  Mo33  1  0.85632506  0.18564239  0.91063237  1
  Mo  Mo34  1  0.18564239  0.04740018  0.91063237  1
  Mo  Mo35  1  0.04740018  0.85632506  0.91063237  1
  Mo  Mo36  1  0.64367494  0.45259982  0.58936763  1
  Mo  Mo37  1  0.45259982  0.31435761  0.58936763  1
  Mo  Mo38  1  0.31435761  0.64367494  0.58936763  1
  Mo  Mo39  1  0.14367494  0.81435761  0.08936763  1
  Mo  Mo40  1  0.81435761  0.95259982  0.08936763  1
  Mo  Mo41  1  0.95259982  0.14367494  0.08936763  1
  Mo  Mo42  1  0.68321602  0.49135957  0.46977237  1
  Mo  Mo43  1  0.49135957  0.35565204  0.46977237  1
  Mo  Mo44  1  0.35565204  0.68321602  0.46977237  1
  Mo  Mo45  1  0.18321602  0.85565204  0.96977237  1
  Mo  Mo46  1  0.85565204  0.99135957  0.96977237  1
  Mo  Mo47  1  0.99135957  0.18321602  0.96977237  1
  Mo  Mo48  1  0.31678398  0.50864043  0.53022763  1
  Mo  Mo49  1  0.50864043  0.64434796  0.53022763  1
  Mo  Mo50  1  0.64434796  0.31678398  0.53022763  1
  Mo  Mo51  1  0.81678398  0.14434796  0.03022763  1
  Mo  Mo52  1  0.14434796  0.00864043  0.03022763  1
  Mo  Mo53  1  0.00864043  0.81678398  0.03022763  1
  S  S0  1  0.46083346  0.78519319  0.69434391  1
  S  S1  1  0.78519319  0.05962944  0.69434391  1
  S  S2  1  0.05962944  0.46083346  0.69434391  1
  S  S3  1  0.96083346  0.55962944  0.19434391  1
  S  S4  1  0.55962944  0.28519319  0.19434391  1
  S  S5  1  0.28519319  0.96083346  0.19434391  1
  S  S6  1  0.53916654  0.21480681  0.30565609  1
  S  S7  1  0.21480681  0.94037056  0.30565609  1
  S  S8  1  0.94037056  0.53916654  0.30565609  1
  S  S9  1  0.03916654  0.44037056  0.80565609  1
  S  S10  1  0.44037056  0.71480681  0.80565609  1
  S  S11  1  0.71480681  0.03916654  0.80565609  1
  S  S12  1  0.05383731  0.75000000  0.75000000  1
  S  S13  1  0.75000000  0.44616269  0.75000000  1
  S  S14  1  0.44616269  0.05383731  0.75000000  1
  S  S15  1  0.55383731  0.94616269  0.25000000  1
  S  S16  1  0.94616269  0.25000000  0.25000000  1
  S  S17  1  0.25000000  0.55383731  0.25000000  1
  S  S18  1  0.22400221  0.58939677  0.35428395  1
  S  S19  1  0.58939677  0.83231708  0.35428395  1
  S  S20  1  0.83231708  0.22400221  0.35428395  1
  S  S21  1  0.72400221  0.33231708  0.85428395  1
  S  S22  1  0.33231708  0.08939677  0.85428395  1
  S  S23  1  0.08939677  0.72400221  0.85428395  1
  S  S24  1  0.77599779  0.41060323  0.64571605  1
  S  S25  1  0.41060323  0.16768292  0.64571605  1
  S  S26  1  0.16768292  0.77599779  0.64571605  1
  S  S27  1  0.27599779  0.66768292  0.14571605  1
  S  S28  1  0.66768292  0.91060323  0.14571605  1
  S  S29  1  0.91060323  0.27599779  0.14571605  1
  S  S30  1  0.34998148  0.74301540  0.90946246  1
  S  S31  1  0.74301540  0.99754066  0.90946246  1
  S  S32  1  0.99754066  0.34998148  0.90946246  1
  S  S33  1  0.84998148  0.49754066  0.40946246  1
  S  S34  1  0.49754066  0.24301540  0.40946246  1
  S  S35  1  0.24301540  0.84998148  0.40946246  1
  S  S36  1  0.65001852  0.25698460  0.09053754  1
  S  S37  1  0.25698460  0.00245934  0.09053754  1
  S  S38  1  0.00245934  0.65001852  0.09053754  1
  S  S39  1  0.15001852  0.50245934  0.59053754  1
  S  S40  1  0.50245934  0.75698460  0.59053754  1
  S  S41  1  0.75698460  0.15001852  0.59053754  1
  S  S42  1  0.29746237  0.04637559  0.97037100  1
  S  S43  1  0.04637559  0.68579104  0.97037100  1
  S  S44  1  0.68579104  0.29746237  0.97037100  1
  S  S45  1  0.79746237  0.18579104  0.47037100  1
  S  S46  1  0.18579104  0.54637559  0.47037100  1
  S  S47  1  0.54637559  0.79746237  0.47037100  1
  S  S48  1  0.70253763  0.95362441  0.02962900  1
  S  S49  1  0.95362441  0.31420896  0.02962900  1
  S  S50  1  0.31420896  0.70253763  0.02962900  1
  S  S51  1  0.20253763  0.81420896  0.52962900  1
  S  S52  1  0.81420896  0.45362441  0.52962900  1
  S  S53  1  0.45362441  0.20253763  0.52962900  1
  S  S54  1  0.71279195  0.71279195  0.86162415  1
  S  S55  1  0.21279195  0.21279195  0.36162415  1
  S  S56  1  0.28720805  0.28720805  0.13837585  1
  S  S57  1  0.78720805  0.78720805  0.63837585  1
  S  S58  1  0.56686761  0.56686761  0.29939716  1
  S  S59  1  0.06686761  0.06686761  0.79939716  1
  S  S60  1  0.43313239  0.43313239  0.70060284  1
  S  S61  1  0.93313239  0.93313239  0.20060284  1
loop_
_geom_bond_atom_site_label_1
_geom_bond_atom_site_label_2
_geom_bond_distance
_geom_bond_site_symmetry_2
Rb0 S58 3.255137 1_555
Rb0 S4 3.258920 1_555
Rb0 S3 3.258920 1_555
Rb0 S5 3.258920 1_555
Rb0 S17 3.572297 1_555
Rb0 S15 3.572297 1_555
Rb0 S16 3.572297 1_555
Rb0 S28 3.888449 1_555
Rb0 S27 3.888450 1_555
Rb0 S29 3.888450 1_555
Rb1 S59 3.255137 1_555
Rb1 S1 3.258920 1_455
Rb1 S2 3.258920 1_555
Rb1 S0 3.258920 1_545
Rb1 S12 3.572297 1_545
Rb1 S14 3.572297 1_555
Rb1 S13 3.572297 1_455
Rb1 S25 3.888449 1_555
Rb1 S26 3.888450 1_545
Rb1 S24 3.888450 1_455
Rb2 S60 3.255137 1_555
Rb2 S10 3.258920 1_555
Rb2 S9 3.258920 1_555
Rb2 S11 3.258920 1_555
Rb2 S13 3.572297 1_555
Rb2 S14 3.572297 1_555
Rb2 S12 3.572297 1_555
Rb2 S22 3.888449 1_555
Rb2 S21 3.888450 1_555
Rb2 S23 3.888450 1_555
Rb3 S61 3.255137 1_555
Rb3 S7 3.258920 1_655
Rb3 S8 3.258920 1_555
Rb3 S6 3.258920 1_565
Rb3 S16 3.572297 1_565
Rb3 S15 3.572297 1_555
Rb3 S17 3.572297 1_655
Rb3 S19 3.888449 1_555
Rb3 S20 3.888450 1_565
Rb3 S18 3.888450 1_655
Rb4 S38 3.506726 1_655
Rb4 S36 3.506726 1_555
Rb4 S37 3.506726 1_565
Rb4 S48 3.697894 1_555
Rb4 S50 3.697894 1_555
Rb4 S49 3.697894 1_555
Rb4 S28 3.724369 1_555
Rb4 S27 3.724369 1_555
Rb4 S29 3.724369 1_555
Rb5 S39 3.506726 1_555
Rb5 S41 3.506726 1_455
Rb5 S40 3.506726 1_545
Rb5 S53 3.697894 1_555
Rb5 S51 3.697894 1_545
Rb5 S52 3.697894 1_455
Rb5 S25 3.724369 1_555
Rb5 S26 3.724369 1_545
Rb5 S24 3.724369 1_455
Rb6 S32 3.506726 1_455
Rb6 S30 3.506726 1_555
Rb6 S31 3.506726 1_545
Rb6 S42 3.697894 1_555
Rb6 S44 3.697894 1_555
Rb6 S43 3.697894 1_555
Rb6 S22 3.724369 1_555
Rb6 S21 3.724369 1_555
Rb6 S23 3.724369 1_555
Rb7 S33 3.506726 1_555
Rb7 S35 3.506726 1_655
Rb7 S34 3.506726 1_565
Rb7 S47 3.697894 1_555
Rb7 S45 3.697894 1_565
Rb7 S46 3.697894 1_655
Rb7 S19 3.724369 1_555
Rb7 S20 3.724369 1_565
Rb7 S18 3.724369 1_655
Rb8 S54 3.476277 1_555
Rb8 S31 3.503213 1_555
Rb8 S30 3.503213 1_555
Rb8 S32 3.503213 1_555
Rb8 S43 3.564993 1_655
Rb8 S44 3.564993 1_555
Rb8 S42 3.564993 1_565
Rb9 S55 3.476277 1_555
Rb9 S34 3.503213 1_555
Rb9 S35 3.503213 1_545
Rb9 S33 3.503213 1_455
Rb9 S46 3.564993 1_555
Rb9 S45 3.564993 1_455
Rb9 S47 3.564993 1_545
Rb10 S56 3.476277 1_555
Rb10 S37 3.503213 1_555
Rb10 S36 3.503213 1_555
Rb10 S38 3.503213 1_555
Rb10 S49 3.564993 1_455
Rb10 S50 3.564993 1_555
Rb10 S48 3.564993 1_545
Rb11 S57 3.476277 1_555
Rb11 S40 3.503213 1_555
Rb11 S41 3.503213 1_565
Rb11 S39 3.503213 1_655
Rb11 S52 3.564993 1_555
Rb11 S51 3.564993 1_655
Rb11 S53 3.564993 1_565
Mo0 S55 2.414684 1_555
Mo0 S8 2.446591 1_455
Mo0 S6 2.462413 1_555
Mo0 S18 2.549533 1_555
Mo0 S17 2.648594 1_555
Mo1 S55 2.414684 1_555
Mo1 S6 2.446591 1_555
Mo1 S7 2.462412 1_545
Mo1 S19 2.549533 1_545
Mo1 S15 2.648594 1_545
Mo2 S55 2.414684 1_555
Mo2 S7 2.446591 1_545
Mo2 S8 2.462412 1_455
Mo2 S20 2.549533 1_455
Mo2 S16 2.648594 1_455
Mo3 S54 2.414684 1_555
Mo3 S10 2.446591 1_555
Mo3 S9 2.462412 1_655
Mo3 S21 2.549533 1_555
Mo3 S13 2.648594 1_555
Mo4 S54 2.414684 1_555
Mo4 S11 2.446591 1_565
Mo4 S10 2.462412 1_555
Mo4 S22 2.549533 1_565
Mo4 S14 2.648594 1_565
Mo5 S54 2.414684 1_555
Mo5 S9 2.446591 1_655
Mo5 S11 2.462413 1_565
Mo5 S23 2.549533 1_655
Mo5 S12 2.648594 1_655
Mo6 S57 2.414684 1_555
Mo6 S2 2.446591 1_655
Mo6 S0 2.462413 1_555
Mo6 S24 2.549533 1_555
Mo6 S13 2.648594 1_555
Mo7 S57 2.414684 1_555
Mo7 S0 2.446591 1_555
Mo7 S1 2.462412 1_565
Mo7 S25 2.549533 1_565
Mo7 S14 2.648594 1_565
Mo8 S57 2.414684 1_555
Mo8 S1 2.446591 1_565
Mo8 S2 2.462412 1_655
Mo8 S26 2.549533 1_655
Mo8 S12 2.648594 1_655
Mo9 S56 2.414684 1_555
Mo9 S4 2.446591 1_555
Mo9 S3 2.462412 1_455
Mo9 S27 2.549533 1_555
Mo9 S17 2.648594 1_555
Mo10 S56 2.414684 1_555
Mo10 S5 2.446591 1_545
Mo10 S4 2.462412 1_555
Mo10 S28 2.549533 1_545
Mo10 S15 2.648594 1_545
Mo11 S56 2.414684 1_555
Mo11 S3 2.446591 1_455
Mo11 S5 2.462413 1_545
Mo11 S29 2.549533 1_455
Mo11 S16 2.648594 1_455
Mo12 S8 2.425800 1_455
Mo12 S3 2.425800 1_455
Mo12 S17 2.475697 1_555
Mo12 S16 2.475697 1_455
Mo13 S4 2.425800 1_555
Mo13 S6 2.425800 1_555
Mo13 S15 2.475697 1_545
Mo13 S17 2.475697 1_555
Mo14 S7 2.425800 1_545
Mo14 S5 2.425800 1_545
Mo14 S15 2.475697 1_545
Mo14 S16 2.475697 1_455
Mo15 S10 2.425800 1_555
Mo15 S0 2.425800 1_555
Mo15 S14 2.475697 1_565
Mo15 S13 2.475697 1_555
Mo16 S1 2.425800 1_565
Mo16 S11 2.425800 1_565
Mo16 S14 2.475697 1_565
Mo16 S12 2.475697 1_655
Mo17 S2 2.425800 1_655
Mo17 S9 2.425800 1_655
Mo17 S12 2.475697 1_655
Mo17 S13 2.475697 1_555
Mo18 S58 2.401503 1_555
Mo18 S8 2.485922 1_555
Mo18 S20 2.486651 1_555
Mo18 S19 2.514886 1_555
Mo18 S33 2.612303 1_555
Mo19 S58 2.401503 1_555
Mo19 S6 2.485922 1_555
Mo19 S18 2.486651 1_555
Mo19 S20 2.514886 1_555
Mo19 S34 2.612303 1_555
Mo20 S58 2.401503 1_555
Mo20 S7 2.485922 1_555
Mo20 S19 2.486651 1_555
Mo20 S18 2.514886 1_555
Mo20 S35 2.612304 1_555
Mo21 S59 2.401503 1_565
Mo21 S10 2.485922 1_555
Mo21 S22 2.486651 1_565
Mo21 S23 2.514886 1_555
Mo21 S30 2.612304 1_555
Mo22 S59 2.401503 1_655
Mo22 S11 2.485922 1_555
Mo22 S23 2.486651 1_645
Mo22 S21 2.514886 1_555
Mo22 S31 2.612303 1_545
Mo23 S59 2.401503 1_555
Mo23 S9 2.485922 1_555
Mo23 S21 2.486651 1_455
Mo23 S22 2.514886 1_555
Mo23 S32 2.612303 1_455
Mo24 S60 2.401503 1_555
Mo24 S2 2.485922 1_555
Mo24 S26 2.486651 1_555
Mo24 S25 2.514886 1_555
Mo24 S39 2.612303 1_555
Mo25 S60 2.401503 1_555
Mo25 S0 2.485922 1_555
Mo25 S24 2.486651 1_555
Mo25 S26 2.514886 1_555
Mo25 S40 2.612303 1_555
Mo26 S60 2.401503 1_555
Mo26 S1 2.485922 1_555
Mo26 S25 2.486651 1_555
Mo26 S24 2.514886 1_555
Mo26 S41 2.612304 1_555
Mo27 S61 2.401503 1_545
Mo27 S4 2.485922 1_555
Mo27 S28 2.486651 1_545
Mo27 S29 2.514886 1_555
Mo27 S36 2.612304 1_555
Mo28 S61 2.401503 1_455
Mo28 S5 2.485922 1_555
Mo28 S29 2.486651 1_465
Mo28 S27 2.514886 1_555
Mo28 S37 2.612303 1_565
Mo29 S61 2.401503 1_555
Mo29 S3 2.485922 1_555
Mo29 S27 2.486651 1_655
Mo29 S28 2.514886 1_555
Mo29 S38 2.612303 1_655
Mo30 S18 2.479962 1_555
Mo30 S34 2.482674 1_555
Mo30 S35 2.484251 1_555
Mo30 S46 2.593203 1_555
Mo31 S19 2.479962 1_555
Mo31 S35 2.482674 1_555
Mo31 S33 2.484251 1_555
Mo31 S47 2.593203 1_555
Mo32 S20 2.479962 1_555
Mo32 S33 2.482674 1_555
Mo32 S34 2.484251 1_555
Mo32 S45 2.593203 1_555
Mo33 S21 2.479962 1_555
Mo33 S32 2.482674 1_555
Mo33 S31 2.484251 1_545
Mo33 S44 2.593203 1_555
Mo34 S22 2.479962 1_555
Mo34 S30 2.482674 1_545
Mo34 S32 2.484251 1_455
Mo34 S42 2.593203 1_555
Mo35 S23 2.479962 1_555
Mo35 S31 2.482674 1_455
Mo35 S30 2.484251 1_555
Mo35 S43 2.593203 1_555
Mo36 S24 2.479962 1_555
Mo36 S40 2.482674 1_555
Mo36 S41 2.484251 1_555
Mo36 S52 2.593203 1_555
Mo37 S25 2.479962 1_555
Mo37 S41 2.482674 1_555
Mo37 S39 2.484251 1_555
Mo37 S53 2.593203 1_555
Mo38 S26 2.479962 1_555
Mo38 S39 2.482674 1_555
Mo38 S40 2.484251 1_555
Mo38 S51 2.593203 1_555
Mo39 S27 2.479962 1_555
Mo39 S38 2.482674 1_555
Mo39 S37 2.484251 1_565
Mo39 S50 2.593203 1_555
Mo40 S28 2.479962 1_555
Mo40 S36 2.482674 1_565
Mo40 S38 2.484251 1_655
Mo40 S48 2.593203 1_555
Mo41 S29 2.479962 1_555
Mo41 S37 2.482674 1_655
Mo41 S36 2.484251 1_555
Mo41 S49 2.593203 1_555
Mo42 S47 2.497266 1_555
Mo42 S45 2.510688 1_555
Mo42 S52 2.600669 1_555
Mo42 S33 2.602361 1_555
Mo43 S45 2.497266 1_555
Mo43 S46 2.510688 1_555
Mo43 S53 2.600669 1_555
Mo43 S34 2.602361 1_555
Mo44 S46 2.497266 1_555
Mo44 S47 2.510688 1_555
Mo44 S51 2.600669 1_555
Mo44 S35 2.602361 1_555
Mo45 S43 2.497266 1_555
Mo45 S42 2.510688 1_565
Mo45 S50 2.600669 1_556
Mo45 S30 2.602361 1_555
Mo46 S44 2.497266 1_565
Mo46 S43 2.510688 1_655
Mo46 S48 2.600669 1_556
Mo46 S31 2.602361 1_555
Mo47 S42 2.497266 1_655
Mo47 S44 2.510688 1_555
Mo47 S49 2.600669 1_556
Mo47 S32 2.602361 1_555
Mo48 S53 2.497266 1_555
Mo48 S51 2.510688 1_555
Mo48 S46 2.600669 1_555
Mo48 S39 2.602361 1_555
Mo49 S51 2.497266 1_555
Mo49 S52 2.510688 1_555
Mo49 S47 2.600669 1_555
Mo49 S40 2.602361 1_555
Mo50 S52 2.497266 1_555
Mo50 S53 2.510688 1_555
Mo50 S45 2.600669 1_555
Mo50 S41 2.602361 1_555
Mo51 S49 2.497266 1_555
Mo51 S48 2.510688 1_545
Mo51 S44 2.600669 1_554
Mo51 S36 2.602361 1_555
Mo52 S50 2.497266 1_545
Mo52 S49 2.510688 1_455
Mo52 S42 2.600669 1_554
Mo52 S37 2.602361 1_555
Mo53 S48 2.497266 1_455
Mo53 S50 2.510688 1_555
Mo53 S43 2.600669 1_554
Mo53 S38 2.602361 1_555
