# generated using pymatgen
data_CaAlSiO5
_symmetry_space_group_name_H-M   'P 1'
_cell_length_a   5.40348661
_cell_length_b   5.40348661
_cell_length_c   7.03025483
_cell_angle_alpha   76.93014101
_cell_angle_beta   76.93014101
_cell_angle_gamma   106.97255978
_symmetry_Int_Tables_number   1
_chemical_formula_structural   CaAlSiO5
_chemical_formula_sum   'Ca2 Al2 Si2 O10'
_cell_volume   181.59493533
_cell_formula_units_Z   2
loop_
 _symmetry_equiv_pos_site_id
 _symmetry_equiv_pos_as_xyz
  1  'x, y, z'
loop_
 _atom_site_type_symbol
 _atom_site_label
 _atom_site_symmetry_multiplicity
 _atom_site_fract_x
 _atom_site_fract_y
 _atom_site_fract_z
 _atom_site_occupancy
  Ca  Ca0  1  0.67278200  0.32721800  0.75000000  1
  Ca  Ca1  1  0.32721800  0.67278200  0.25000000  1
  Al  Al0  1  0.00000000  0.00000000  0.50000000  1
  Al  Al1  1  0.00000000  0.00000000  0.00000000  1
  Si  Si0  1  0.31460100  0.68539900  0.75000000  1
  Si  Si1  1  0.68539900  0.31460100  0.25000000  1
  O  O0  1  0.93875800  0.06124200  0.75000000  1
  O  O1  1  0.06124200  0.93875800  0.25000000  1
  O  O2  1  0.30630900  0.88620100  0.89355000  1
  O  O3  1  0.69369100  0.11379900  0.10645000  1
  O  O4  1  0.11379900  0.69369100  0.60645000  1
  O  O5  1  0.88620100  0.30630900  0.39355000  1
  O  O6  1  0.62993800  0.75952800  0.60455000  1
  O  O7  1  0.37006200  0.24047200  0.39545000  1
  O  O8  1  0.24047200  0.37006200  0.89545000  1
  O  O9  1  0.75952800  0.62993800  0.10455000  1
loop_
_geom_bond_atom_site_label_1
_geom_bond_atom_site_label_2
_geom_bond_distance
_geom_bond_site_symmetry_2
Ca0 O0 2.310193 1_555
Ca0 O4 2.423225 1_655
Ca0 O2 2.423225 1_545
Ca0 O6 2.428678 1_555
Ca0 O8 2.428678 1_555
Ca0 O3 2.553323 1_556
Ca0 O5 2.553323 1_555
Ca1 O1 2.310193 1_555
Ca1 O5 2.423225 1_455
Ca1 O3 2.423225 1_565
Ca1 O7 2.428678 1_555
Ca1 O9 2.428678 1_555
Ca1 O4 2.553323 1_555
Ca1 O2 2.553323 1_554
Al0 O1 1.836295 1_545
Al0 O0 1.836295 1_455
Al0 O6 1.900923 1_445
Al0 O7 1.900923 1_555
Al0 O5 1.979839 1_455
Al0 O4 1.979839 1_545
Al1 O1 1.836295 1_545
Al1 O0 1.836295 1_454
Al1 O8 1.900923 1_554
Al1 O9 1.900923 1_445
Al1 O2 1.979839 1_544
Al1 O3 1.979839 1_455
O2 Si0 1.643457 1_555
O3 Si1 1.643457 1_555
O4 Si0 1.643457 1_555
O5 Si1 1.643457 1_555
O6 Si0 1.654586 1_555
O7 Si1 1.654586 1_555
O8 Si0 1.654586 1_555
O9 Si1 1.654586 1_555
