# generated using pymatgen
data_Ge3NO6
_symmetry_space_group_name_H-M   'P 1'
_cell_length_a   11.99704067
_cell_length_b   11.99704067
_cell_length_c   11.99704067
_cell_angle_alpha   109.47122063
_cell_angle_beta   109.47122063
_cell_angle_gamma   109.47122063
_symmetry_Int_Tables_number   1
_chemical_formula_structural   Ge3NO6
_chemical_formula_sum   'Ge24 N8 O48'
_cell_volume   1329.23112641
_cell_formula_units_Z   8
loop_
 _symmetry_equiv_pos_site_id
 _symmetry_equiv_pos_as_xyz
  1  'x, y, z'
loop_
 _atom_site_type_symbol
 _atom_site_label
 _atom_site_symmetry_multiplicity
 _atom_site_fract_x
 _atom_site_fract_y
 _atom_site_fract_z
 _atom_site_occupancy
  Ge  Ge0  1  0.69998497  0.46658234  0.42639539  1
  Ge  Ge1  1  0.80001503  0.72641042  0.26659738  1
  Ge  Ge2  1  0.45981305  0.03341766  0.23340262  1
  Ge  Ge3  1  0.46658234  0.42639539  0.69998497  1
  Ge  Ge4  1  0.19998497  0.92639539  0.96658234  1
  Ge  Ge5  1  0.04018695  0.77358958  0.07360461  1
  Ge  Ge6  1  0.72641042  0.26659738  0.80001503  1
  Ge  Ge7  1  0.30001503  0.76659738  0.22641042  1
  Ge  Ge8  1  0.03341766  0.23340262  0.45981305  1
  Ge  Ge9  1  0.95981305  0.73340262  0.53341766  1
  Ge  Ge10  1  0.77358958  0.07360461  0.04018695  1
  Ge  Ge11  1  0.54018695  0.57360461  0.27358958  1
  Ge  Ge12  1  0.42639539  0.69998497  0.46658234  1
  Ge  Ge13  1  0.96658234  0.19998497  0.92639539  1
  Ge  Ge14  1  0.23340262  0.45981305  0.03341766  1
  Ge  Ge15  1  0.53341766  0.95981305  0.73340262  1
  Ge  Ge16  1  0.07360461  0.04018695  0.77358958  1
  Ge  Ge17  1  0.27358958  0.54018695  0.57360461  1
  Ge  Ge18  1  0.26659738  0.80001503  0.72641042  1
  Ge  Ge19  1  0.22641042  0.30001503  0.76659738  1
  Ge  Ge20  1  0.92639539  0.96658234  0.19998497  1
  Ge  Ge21  1  0.76659738  0.22641042  0.30001503  1
  Ge  Ge22  1  0.57360461  0.27358958  0.54018695  1
  Ge  Ge23  1  0.73340262  0.53341766  0.95981305  1
  N  N0  1  0.77162534  0.77162534  0.77162534  1
  N  N1  1  0.72837466  -0.00000000  0.50000000  1
  N  N2  1  0.50000000  0.72837466  0.00000000  1
  N  N3  1  0.27162534  0.27162534  0.27162534  1
  N  N4  1  -0.00000000  0.50000000  0.72837466  1
  N  N5  1  0.22837466  0.00000000  0.50000000  1
  N  N6  1  0.00000000  0.50000000  0.22837466  1
  N  N7  1  0.50000000  0.22837466  0.00000000  1
  O  O0  1  0.48464700  0.59485698  0.39443395  1
  O  O1  1  0.01535300  0.90978695  0.61020998  1
  O  O2  1  0.29957697  0.90514302  0.88979002  1
  O  O3  1  0.59485698  0.39443395  0.48464700  1
  O  O4  1  0.98464700  0.89443395  0.09485698  1
  O  O5  1  0.20042303  0.59021305  0.10556605  1
  O  O6  1  0.90978695  0.61020998  0.01535300  1
  O  O7  1  0.51535300  0.11020998  0.40978695  1
  O  O8  1  0.90514302  0.88979002  0.29957697  1
  O  O9  1  0.79957697  0.38979002  0.40514302  1
  O  O10  1  0.59021305  0.10556605  0.20042303  1
  O  O11  1  0.70042303  0.60556605  0.09021305  1
  O  O12  1  0.39443395  0.48464700  0.59485698  1
  O  O13  1  0.09485698  0.98464700  0.89443395  1
  O  O14  1  0.88979002  0.29957697  0.90514302  1
  O  O15  1  0.40514302  0.79957697  0.38979002  1
  O  O16  1  0.10556605  0.20042303  0.59021305  1
  O  O17  1  0.09021305  0.70042303  0.60556605  1
  O  O18  1  0.61020998  0.01535300  0.90978695  1
  O  O19  1  0.40978695  0.51535300  0.11020998  1
  O  O20  1  0.89443395  0.09485698  0.98464700  1
  O  O21  1  0.11020998  0.40978695  0.51535300  1
  O  O22  1  0.60556605  0.09021305  0.70042303  1
  O  O23  1  0.38979002  0.40514302  0.79957697  1
  O  O24  1  0.81930111  0.64203037  0.54822002  1
  O  O25  1  0.68069889  0.72891890  0.32272926  1
  O  O26  1  0.40618965  0.85796963  0.17727074  1
  O  O27  1  0.64203037  0.54822002  0.81930111  1
  O  O28  1  0.31930111  0.04822002  0.14203037  1
  O  O29  1  0.09381035  0.77108110  0.95177998  1
  O  O30  1  0.72891890  0.32272926  0.68069889  1
  O  O31  1  0.18069889  0.82272926  0.22891890  1
  O  O32  1  0.85796963  0.17727074  0.40618965  1
  O  O33  1  0.90618965  0.67727074  0.35796963  1
  O  O34  1  0.77108110  0.95177998  0.09381035  1
  O  O35  1  0.59381035  0.45177998  0.27108110  1
  O  O36  1  0.54822002  0.81930111  0.64203037  1
  O  O37  1  0.14203037  0.31930111  0.04822002  1
  O  O38  1  0.17727074  0.40618965  0.85796963  1
  O  O39  1  0.35796963  0.90618965  0.67727074  1
  O  O40  1  0.95177998  0.09381035  0.77108110  1
  O  O41  1  0.27108110  0.59381035  0.45177998  1
  O  O42  1  0.32272926  0.68069889  0.72891890  1
  O  O43  1  0.22891890  0.18069889  0.82272926  1
  O  O44  1  0.04822002  0.14203037  0.31930111  1
  O  O45  1  0.82272926  0.22891890  0.18069889  1
  O  O46  1  0.45177998  0.27108110  0.59381035  1
  O  O47  1  0.67727074  0.35796963  0.90618965  1
loop_
_geom_bond_atom_site_label_1
_geom_bond_atom_site_label_2
_geom_bond_distance
_geom_bond_site_symmetry_2
Ge0 O3 1.758228 1_555
Ge0 O9 1.766823 1_555
Ge0 O24 1.777994 1_555
Ge0 O35 1.781091 1_555
Ge1 O8 1.758228 1_555
Ge1 O11 1.766823 1_555
Ge1 O25 1.777994 1_555
Ge1 O33 1.781091 1_555
Ge2 O10 1.758228 1_555
Ge2 O7 1.766823 1_555
Ge2 O26 1.777994 1_545
Ge2 O28 1.781091 1_555
Ge3 O12 1.758228 1_555
Ge3 O23 1.766823 1_555
Ge3 O27 1.777994 1_555
Ge3 O46 1.781091 1_555
Ge4 O13 1.758228 1_555
Ge4 O2 1.766823 1_555
Ge4 O28 1.777994 1_566
Ge4 O29 1.781091 1_555
Ge5 O6 1.758228 1_455
Ge5 O4 1.766823 1_455
Ge5 O29 1.777994 1_554
Ge5 O31 1.781091 1_555
Ge6 O14 1.758228 1_555
Ge6 O22 1.766823 1_555
Ge6 O30 1.777994 1_555
Ge6 O47 1.781091 1_555
Ge7 O15 1.758228 1_555
Ge7 O5 1.766823 1_555
Ge7 O31 1.777994 1_555
Ge7 O26 1.781091 1_555
Ge8 O16 1.758228 1_555
Ge8 O21 1.766823 1_555
Ge8 O32 1.777994 1_455
Ge8 O44 1.781091 1_555
Ge9 O17 1.758228 1_655
Ge9 O1 1.766823 1_655
Ge9 O33 1.777994 1_555
Ge9 O24 1.781091 1_555
Ge10 O18 1.758228 1_554
Ge10 O20 1.766823 1_554
Ge10 O34 1.777994 1_545
Ge10 O45 1.781091 1_555
Ge11 O19 1.758228 1_555
Ge11 O0 1.766823 1_555
Ge11 O35 1.777994 1_555
Ge11 O25 1.781091 1_555
Ge12 O0 1.758228 1_555
Ge12 O15 1.766823 1_555
Ge12 O36 1.777994 1_555
Ge12 O41 1.781091 1_555
Ge13 O20 1.758228 1_555
Ge13 O14 1.766823 1_555
Ge13 O37 1.777994 1_656
Ge13 O40 1.781091 1_555
Ge14 O5 1.758228 1_555
Ge14 O19 1.766823 1_555
Ge14 O38 1.777994 1_554
Ge14 O37 1.781091 1_555
Ge15 O22 1.758228 1_565
Ge15 O18 1.766823 1_565
Ge15 O39 1.777994 1_555
Ge15 O36 1.781091 1_555
Ge16 O1 1.758228 1_545
Ge16 O13 1.766823 1_545
Ge16 O40 1.777994 1_455
Ge16 O43 1.781091 1_555
Ge17 O21 1.758228 1_555
Ge17 O12 1.766823 1_555
Ge17 O41 1.777994 1_555
Ge17 O42 1.781091 1_555
Ge18 O2 1.758228 1_555
Ge18 O17 1.766823 1_555
Ge18 O42 1.777994 1_555
Ge18 O39 1.781091 1_555
Ge19 O23 1.758228 1_555
Ge19 O16 1.766823 1_555
Ge19 O43 1.777994 1_555
Ge19 O38 1.781091 1_555
Ge20 O4 1.758228 1_555
Ge20 O8 1.766823 1_555
Ge20 O44 1.777994 1_665
Ge20 O34 1.781091 1_555
Ge21 O9 1.758228 1_555
Ge21 O10 1.766823 1_555
Ge21 O45 1.777994 1_555
Ge21 O32 1.781091 1_555
Ge22 O7 1.758228 1_555
Ge22 O3 1.766823 1_555
Ge22 O46 1.777994 1_555
Ge22 O30 1.781091 1_555
Ge23 O11 1.758228 1_556
Ge23 O6 1.766823 1_556
Ge23 O47 1.777994 1_555
Ge23 O27 1.781091 1_555
