# generated using pymatgen
data_ZnFe
_symmetry_space_group_name_H-M   'P 1'
_cell_length_a   5.08320430
_cell_length_b   5.08320430
_cell_length_c   7.74030268
_cell_angle_alpha   90.00000000
_cell_angle_beta   90.00000000
_cell_angle_gamma   90.00000000
_symmetry_Int_Tables_number   1
_chemical_formula_structural   ZnFe
_chemical_formula_sum   'Zn8 Fe8'
_cell_volume   200.00141743
_cell_formula_units_Z   8
loop_
 _symmetry_equiv_pos_site_id
 _symmetry_equiv_pos_as_xyz
  1  'x, y, z'
loop_
 _atom_site_type_symbol
 _atom_site_label
 _atom_site_symmetry_multiplicity
 _atom_site_fract_x
 _atom_site_fract_y
 _atom_site_fract_z
 _atom_site_occupancy
  Zn  Zn0_0  1  0.25000000  0.25000000  0.25000000  1
  Zn  Zn0_1  1  0.25000000  0.25000000  0.75000000  1
  Zn  Zn0_2  1  0.25000000  0.75000000  0.25000000  1
  Zn  Zn0_3  1  0.25000000  0.75000000  0.75000000  1
  Zn  Zn0_4  1  0.75000000  0.25000000  0.25000000  1
  Zn  Zn0_5  1  0.75000000  0.25000000  0.75000000  1
  Zn  Zn0_6  1  0.75000000  0.75000000  0.25000000  1
  Zn  Zn0_7  1  0.75000000  0.75000000  0.75000000  1
  Fe  Fe0_0  1  0.00000000  0.00000000  0.00000000  1
  Fe  Fe0_1  1  0.00000000  0.00000000  0.50000000  1
  Fe  Fe0_2  1  0.00000000  0.50000000  0.00000000  1
  Fe  Fe0_3  1  0.00000000  0.50000000  0.50000000  1
  Fe  Fe0_4  1  0.50000000  0.00000000  0.00000000  1
  Fe  Fe0_5  1  0.50000000  0.00000000  0.50000000  1
  Fe  Fe0_6  1  0.50000000  0.50000000  0.00000000  1
  Fe  Fe0_7  1  0.50000000  0.50000000  0.50000000  1
loop_
_geom_bond_atom_site_label_1
_geom_bond_atom_site_label_2
_geom_bond_distance
_geom_bond_site_symmetry_2
Zn0_0 Zn0_4 2.541602 1_455
Zn0_0 Zn0_2 2.541602 1_555
Zn0_0 Zn0_4 2.541602 1_555
Zn0_0 Zn0_2 2.541602 1_545
Zn0_1 Zn0_3 2.541602 1_555
Zn0_1 Zn0_3 2.541602 1_545
Zn0_1 Zn0_5 2.541602 1_555
Zn0_1 Zn0_5 2.541602 1_455
Zn0_2 Zn0_6 2.541602 1_455
Zn0_2 Zn0_6 2.541602 1_555
Zn0_3 Zn0_7 2.541602 1_455
Zn0_3 Zn0_7 2.541602 1_555
Zn0_4 Zn0_6 2.541602 1_555
Zn0_4 Zn0_6 2.541602 1_545
Zn0_5 Zn0_7 2.541602 1_545
Zn0_5 Zn0_7 2.541602 1_555
Fe0_0 Fe0_4 2.541602 1_455
Fe0_0 Fe0_4 2.541602 1_555
Fe0_0 Fe0_2 2.541602 1_545
Fe0_0 Fe0_2 2.541602 1_555
Fe0_0 Zn0_2 2.640907 1_545
Fe0_0 Zn0_3 2.640907 1_544
Fe0_0 Zn0_6 2.640907 1_445
Fe0_0 Zn0_7 2.640907 1_444
Fe0_0 Zn0_0 2.640907 1_555
Fe0_0 Zn0_1 2.640907 1_554
Fe0_0 Zn0_4 2.640907 1_455
Fe0_0 Zn0_5 2.640907 1_454
Fe0_1 Fe0_3 2.541602 1_555
Fe0_1 Fe0_5 2.541602 1_455
Fe0_1 Fe0_5 2.541602 1_555
Fe0_1 Fe0_3 2.541602 1_545
Fe0_1 Zn0_2 2.640907 1_545
Fe0_1 Zn0_5 2.640907 1_455
Fe0_1 Zn0_6 2.640907 1_445
Fe0_1 Zn0_0 2.640907 1_555
Fe0_1 Zn0_4 2.640907 1_455
Fe0_1 Zn0_1 2.640907 1_555
Fe0_1 Zn0_3 2.640907 1_545
Fe0_1 Zn0_7 2.640907 1_445
Fe0_2 Fe0_6 2.541602 1_555
Fe0_2 Fe0_6 2.541602 1_455
Fe0_2 Zn0_2 2.640907 1_555
Fe0_2 Zn0_6 2.640907 1_455
Fe0_2 Zn0_7 2.640907 1_454
Fe0_2 Zn0_0 2.640907 1_555
Fe0_2 Zn0_1 2.640907 1_554
Fe0_2 Zn0_4 2.640907 1_455
Fe0_2 Zn0_5 2.640907 1_454
Fe0_2 Zn0_3 2.640907 1_554
Fe0_3 Fe0_7 2.541602 1_455
Fe0_3 Fe0_7 2.541602 1_555
Fe0_3 Zn0_2 2.640907 1_555
Fe0_3 Zn0_5 2.640907 1_455
Fe0_3 Zn0_7 2.640907 1_455
Fe0_3 Zn0_6 2.640907 1_455
Fe0_3 Zn0_3 2.640907 1_555
Fe0_3 Zn0_0 2.640907 1_555
Fe0_3 Zn0_4 2.640907 1_455
Fe0_3 Zn0_1 2.640907 1_555
Fe0_4 Fe0_6 2.541602 1_555
Fe0_4 Fe0_6 2.541602 1_545
Fe0_4 Zn0_2 2.640907 1_545
Fe0_4 Zn0_6 2.640907 1_545
Fe0_4 Zn0_3 2.640907 1_544
Fe0_4 Zn0_7 2.640907 1_544
Fe0_4 Zn0_0 2.640907 1_555
Fe0_4 Zn0_1 2.640907 1_554
Fe0_4 Zn0_5 2.640907 1_554
Fe0_4 Zn0_4 2.640907 1_555
Fe0_5 Fe0_7 2.541602 1_555
Fe0_5 Fe0_7 2.541602 1_545
Fe0_5 Zn0_2 2.640907 1_545
Fe0_5 Zn0_5 2.640907 1_555
Fe0_5 Zn0_6 2.640907 1_545
Fe0_5 Zn0_0 2.640907 1_555
Fe0_5 Zn0_1 2.640907 1_555
Fe0_5 Zn0_3 2.640907 1_545
Fe0_5 Zn0_7 2.640907 1_545
Fe0_5 Zn0_4 2.640907 1_555
Fe0_6 Zn0_2 2.640907 1_555
Fe0_6 Zn0_6 2.640907 1_555
Fe0_6 Zn0_7 2.640907 1_554
Fe0_6 Zn0_0 2.640907 1_555
Fe0_6 Zn0_1 2.640907 1_554
Fe0_6 Zn0_5 2.640907 1_554
Fe0_6 Zn0_4 2.640907 1_555
Fe0_6 Zn0_3 2.640907 1_554
Fe0_7 Zn0_5 2.640907 1_555
Fe0_7 Zn0_2 2.640907 1_555
Fe0_7 Zn0_6 2.640907 1_555
Fe0_7 Zn0_3 2.640907 1_555
Fe0_7 Zn0_0 2.640907 1_555
Fe0_7 Zn0_1 2.640907 1_555
Fe0_7 Zn0_7 2.640907 1_555
Fe0_7 Zn0_4 2.640907 1_555
