# generated using pymatgen
data_Mg2Al3
_symmetry_space_group_name_H-M   'P 1'
_cell_length_a   6.44470100
_cell_length_b   6.44470100
_cell_length_c   10.63373425
_cell_angle_alpha   107.63973694
_cell_angle_beta   107.63973694
_cell_angle_gamma   90.00000000
_symmetry_Int_Tables_number   1
_chemical_formula_structural   Mg2Al3
_chemical_formula_sum   'Mg8 Al12'
_cell_volume   399.05072038
_cell_formula_units_Z   4
loop_
 _symmetry_equiv_pos_site_id
 _symmetry_equiv_pos_as_xyz
  1  'x, y, z'
loop_
 _atom_site_type_symbol
 _atom_site_label
 _atom_site_symmetry_multiplicity
 _atom_site_fract_x
 _atom_site_fract_y
 _atom_site_fract_z
 _atom_site_occupancy
  Mg  Mg0  1  0.29337200  0.51734500  0.58674400  1
  Mg  Mg1  1  0.29337200  0.06939900  0.58674400  1
  Mg  Mg2  1  0.31939900  0.04337200  0.08674400  1
  Mg  Mg3  1  0.95662800  0.68060100  0.91325600  1
  Mg  Mg4  1  0.95662800  0.23265500  0.91325600  1
  Mg  Mg5  1  0.76734500  0.04337200  0.08674400  1
  Mg  Mg6  1  0.93060100  0.70662800  0.41325600  1
  Mg  Mg7  1  0.48265500  0.70662800  0.41325600  1
  Al  Al0  1  0.80318700  0.09071200  0.60637400  1
  Al  Al1  1  0.80318700  0.51566300  0.60637400  1
  Al  Al2  1  0.76566300  0.55318700  0.10637400  1
  Al  Al3  1  0.44681300  0.23433700  0.89362600  1
  Al  Al4  1  0.44681300  0.65928800  0.89362600  1
  Al  Al5  1  0.34071200  0.55318700  0.10637400  1
  Al  Al6  1  0.48433700  0.19681300  0.39362600  1
  Al  Al7  1  0.90928800  0.19681300  0.39362600  1
  Al  Al8  1  0.12500000  0.37500000  0.25000000  1
  Al  Al9  1  0.12500000  0.87500000  0.25000000  1
  Al  Al10  1  0.12500000  0.87500000  0.75000000  1
  Al  Al11  1  0.62500000  0.87500000  0.75000000  1
loop_
_geom_bond_atom_site_label_1
_geom_bond_atom_site_label_2
_geom_bond_distance
_geom_bond_site_symmetry_2
Mg0 Mg1 2.886878 1_555
Mg0 Mg7 3.017844 1_555
Mg0 Mg6 3.017844 1_455
Mg1 Mg7 3.017844 1_545
Mg1 Mg6 3.017844 1_445
Mg2 Mg5 2.886878 1_555
Mg2 Mg4 3.017844 1_454
Mg2 Mg3 3.017844 1_444
Mg3 Mg4 2.886878 1_555
Mg3 Mg5 3.017844 1_566
Mg4 Mg5 3.017844 1_556
Mg6 Mg7 2.886878 1_555
Al0 Al1 2.738682 1_555
Al0 Al7 2.815714 1_555
Al0 Al6 2.815717 1_555
Al0 Al11 2.816689 1_545
Al0 Al10 2.816689 1_645
Al0 Mg4 2.949382 1_555
Al0 Mg6 2.993293 1_545
Al0 Mg7 2.993293 1_545
Al0 Mg1 3.228716 1_655
Al0 Mg1 3.228716 1_555
Al1 Al7 2.815717 1_555
Al1 Al6 2.815720 1_555
Al1 Al11 2.816685 1_555
Al1 Al10 2.816685 1_655
Al1 Mg3 2.949382 1_555
Al1 Mg6 2.993289 1_555
Al1 Mg7 2.993289 1_555
Al1 Mg0 3.228715 1_655
Al1 Mg0 3.228715 1_555
Al2 Al5 2.738682 1_555
Al2 Al4 2.815717 1_554
Al2 Al3 2.815720 1_554
Al2 Al8 2.816685 1_655
Al2 Al9 2.816685 1_655
Al2 Mg6 2.949382 1_555
Al2 Mg3 2.993289 1_554
Al2 Mg4 2.993289 1_554
Al2 Mg5 3.228715 1_565
Al2 Mg5 3.228715 1_555
Al3 Al4 2.738682 1_555
Al3 Al5 2.815717 1_556
Al3 Mg1 2.949382 1_555
Al3 Mg2 2.993289 1_556
Al3 Mg5 2.993289 1_556
Al3 Mg4 3.228715 1_455
Al3 Mg4 3.228715 1_555
Al4 Al5 2.815714 1_556
Al4 Mg0 2.949382 1_555
Al4 Mg2 2.993293 1_566
Al4 Mg5 2.993293 1_566
Al4 Mg3 3.228716 1_455
Al4 Mg3 3.228716 1_555
Al5 Al8 2.816689 1_555
Al5 Al9 2.816689 1_555
Al5 Mg7 2.949382 1_555
Al5 Mg3 2.993293 1_454
Al5 Mg4 2.993293 1_454
Al5 Mg2 3.228716 1_565
Al5 Mg2 3.228716 1_555
Al6 Al7 2.738682 1_555
Al6 Al8 2.816685 1_555
Al6 Al9 2.816685 1_545
Al6 Mg2 2.949382 1_555
Al6 Mg1 2.993289 1_555
Al6 Mg0 2.993289 1_555
Al6 Mg7 3.228715 1_545
Al6 Mg7 3.228715 1_555
Al7 Al8 2.816689 1_655
Al7 Al9 2.816689 1_645
Al7 Mg5 2.949382 1_555
Al7 Mg1 2.993293 1_655
Al7 Mg0 2.993293 1_655
Al7 Mg6 3.228716 1_545
Al7 Mg6 3.228716 1_555
Al8 Mg2 2.867174 1_555
Al8 Mg6 2.867174 1_455
Al8 Mg5 2.867174 1_455
Al8 Mg7 2.867174 1_555
Al8 Mg0 3.239704 1_555
Al8 Mg4 3.239704 1_454
Al9 Mg2 2.867174 1_565
Al9 Mg6 2.867174 1_455
Al9 Mg5 2.867174 1_465
Al9 Mg7 2.867174 1_555
Al9 Mg1 3.239704 1_565
Al9 Mg3 3.239704 1_454
Al10 Al3 2.816685 1_565
Al10 Al4 2.816689 1_555
Al10 Mg3 2.867174 1_455
Al10 Mg1 2.867174 1_565
Al10 Mg4 2.867174 1_465
Al10 Mg0 2.867174 1_555
Al10 Mg2 3.239704 1_566
Al10 Mg6 3.239704 1_455
Al11 Al3 2.816685 1_565
Al11 Al4 2.816689 1_555
Al11 Mg1 2.867174 1_565
Al11 Mg3 2.867174 1_555
Al11 Mg0 2.867174 1_555
Al11 Mg4 2.867174 1_565
Al11 Mg5 3.239704 1_566
Al11 Mg7 3.239704 1_555
