# generated using pymatgen
data_NaCaMg14
_symmetry_space_group_name_H-M   'P 1'
_cell_length_a   6.57203517
_cell_length_b   6.55068295
_cell_length_c   10.53355028
_cell_angle_alpha   90.00000000
_cell_angle_beta   90.00000000
_cell_angle_gamma   119.89258933
_symmetry_Int_Tables_number   1
_chemical_formula_structural   NaCaMg14
_chemical_formula_sum   'Na1 Ca1 Mg14'
_cell_volume   393.15237295
_cell_formula_units_Z   1
loop_
 _symmetry_equiv_pos_site_id
 _symmetry_equiv_pos_as_xyz
  1  'x, y, z'
loop_
 _atom_site_type_symbol
 _atom_site_label
 _atom_site_symmetry_multiplicity
 _atom_site_fract_x
 _atom_site_fract_y
 _atom_site_fract_z
 _atom_site_occupancy
  Na  Na0  1  0.16902682  0.83451291  0.12500000  1
  Ca  Ca0  1  0.16812780  0.33406340  0.12500000  1
  Mg  Mg0  1  0.16671595  0.33335747  0.62500000  1
  Mg  Mg1  1  0.16760110  0.83380005  0.62500000  1
  Mg  Mg2  1  0.66327788  0.32784838  0.12500000  1
  Mg  Mg3  1  0.66621948  0.33274413  0.62500000  1
  Mg  Mg4  1  0.66327788  0.83542850  0.12500000  1
  Mg  Mg5  1  0.66621948  0.83347435  0.62500000  1
  Mg  Mg6  1  0.33869410  0.16885495  0.38665617  1
  Mg  Mg7  1  0.33869410  0.16885495  0.86334383  1
  Mg  Mg8  1  0.33869410  0.66984015  0.38665617  1
  Mg  Mg9  1  0.33869410  0.66984015  0.86334383  1
  Mg  Mg10  1  0.82844411  0.16422256  0.38086308  1
  Mg  Mg11  1  0.82844411  0.16422256  0.86913692  1
  Mg  Mg12  1  0.82893450  0.66446775  0.37561800  1
  Mg  Mg13  1  0.82893450  0.66446775  0.87438200  1
loop_
_geom_bond_atom_site_label_1
_geom_bond_atom_site_label_2
_geom_bond_distance
_geom_bond_site_symmetry_2
Ca0 Mg4 3.274624 1_555
Ca0 Mg2 3.274624 1_555
Ca0 Na0 3.275345 1_555
Ca0 Na0 3.275345 1_545
Ca0 Mg4 3.297790 1_445
Ca0 Mg2 3.297790 1_455
Ca0 Mg10 3.318079 1_455
Ca0 Mg11 3.318079 1_454
Ca0 Mg7 3.351634 1_554
Ca0 Mg6 3.351634 1_555
Ca0 Mg9 3.351641 1_554
Ca0 Mg8 3.351641 1_555
Mg0 Mg6 3.155287 1_555
Mg0 Mg7 3.155287 1_555
Mg0 Mg8 3.155293 1_555
Mg0 Mg9 3.155293 1_555
Mg0 Mg10 3.213726 1_455
Mg0 Mg11 3.213726 1_455
Mg0 Mg1 3.275345 1_545
Mg0 Mg1 3.275345 1_555
Mg0 Mg5 3.284759 1_555
Mg0 Mg3 3.284759 1_555
Mg0 Mg5 3.287280 1_445
Mg0 Mg3 3.287280 1_455
Mg1 Mg9 3.150371 1_555
Mg1 Mg8 3.150371 1_555
Mg1 Mg6 3.150378 1_565
Mg1 Mg7 3.150378 1_565
Mg1 Mg12 3.259436 1_455
Mg1 Mg13 3.259436 1_455
Mg1 Mg3 3.278001 1_565
Mg1 Mg5 3.278001 1_555
Mg1 Mg3 3.294035 1_455
Mg1 Mg5 3.294035 1_455
Mg2 Mg4 3.225687 1_545
Mg2 Na0 3.245250 1_545
Mg2 Mg6 3.319208 1_555
Mg2 Mg7 3.319208 1_554
Mg2 Mg4 3.324996 1_555
Mg2 Na0 3.326793 1_655
Mg3 Mg6 3.128199 1_555
Mg3 Mg7 3.128199 1_555
Mg3 Mg5 3.270558 1_545
Mg3 Mg5 3.280125 1_555
Mg4 Na0 3.245250 1_555
Mg4 Mg9 3.319208 1_554
Mg4 Mg8 3.319208 1_555
Mg4 Na0 3.326793 1_655
Mg5 Mg8 3.128199 1_555
Mg5 Mg9 3.128199 1_555
Mg6 Mg8 3.268888 1_545
Mg6 Mg8 3.281795 1_555
Mg6 Na0 3.347003 1_545
Mg7 Mg9 3.268888 1_545
Mg7 Mg9 3.281795 1_555
Mg7 Na0 3.347003 1_546
Mg8 Na0 3.346996 1_555
Mg9 Na0 3.346996 1_556
Mg10 Mg3 3.184609 1_555
Mg10 Mg5 3.184615 1_545
Mg10 Mg8 3.234460 1_545
Mg10 Mg6 3.234460 1_555
Mg10 Mg12 3.275809 1_555
Mg10 Mg12 3.275809 1_545
Mg10 Mg2 3.278821 1_555
Mg10 Mg4 3.278827 1_545
Mg10 Mg8 3.338919 1_655
Mg10 Mg6 3.338919 1_655
Mg11 Mg3 3.184609 1_555
Mg11 Mg5 3.184615 1_545
Mg11 Mg9 3.234460 1_545
Mg11 Mg7 3.234460 1_555
Mg11 Mg13 3.275809 1_555
Mg11 Mg13 3.275809 1_545
Mg11 Mg2 3.278821 1_556
Mg11 Mg4 3.278827 1_546
Mg11 Mg9 3.338919 1_655
Mg11 Mg7 3.338919 1_655
Mg12 Mg5 3.232613 1_555
Mg12 Mg3 3.232620 1_555
Mg12 Mg6 3.241646 1_555
Mg12 Mg8 3.241646 1_555
Mg12 Mg4 3.259419 1_555
Mg12 Mg2 3.259425 1_555
Mg12 Na0 3.274738 1_655
Mg12 Mg6 3.334786 1_665
Mg12 Mg8 3.334786 1_655
Mg13 Mg5 3.232613 1_555
Mg13 Mg3 3.232620 1_555
Mg13 Mg7 3.241646 1_555
Mg13 Mg9 3.241646 1_555
Mg13 Mg4 3.259419 1_556
Mg13 Mg2 3.259425 1_556
Mg13 Na0 3.274738 1_656
Mg13 Mg7 3.334786 1_665
Mg13 Mg9 3.334786 1_655
