# generated using pymatgen
data_Rb2Ce2Fe4O9
_symmetry_space_group_name_H-M   'P 1'
_cell_length_a   8.84449040
_cell_length_b   8.84449040
_cell_length_c   3.98502300
_cell_angle_alpha   90.00000000
_cell_angle_beta   90.00000000
_cell_angle_gamma   126.30680751
_symmetry_Int_Tables_number   1
_chemical_formula_structural   Rb2Ce2Fe4O9
_chemical_formula_sum   'Rb2 Ce2 Fe4 O9'
_cell_volume   251.20885867
_cell_formula_units_Z   1
loop_
 _symmetry_equiv_pos_site_id
 _symmetry_equiv_pos_as_xyz
  1  'x, y, z'
loop_
 _atom_site_type_symbol
 _atom_site_label
 _atom_site_symmetry_multiplicity
 _atom_site_fract_x
 _atom_site_fract_y
 _atom_site_fract_z
 _atom_site_occupancy
  Rb  Rb0  1  0.00045900  0.50175200  0.50000000  1
  Rb  Rb1  1  0.49824800  0.99954100  0.50000000  1
  Ce  Ce0  1  0.75009500  0.74959100  0.50000000  1
  Ce  Ce1  1  0.25040900  0.24990500  0.50000000  1
  Fe  Fe0  1  0.12200500  0.87799500  0.00000000  1
  Fe  Fe1  1  0.89117300  0.10882700  0.00000000  1
  Fe  Fe2  1  0.37492200  0.62507800  0.00000000  1
  Fe  Fe3  1  0.60846400  0.39153600  0.00000000  1
  O  O0  1  0.83622700  0.66016100  0.00000000  1
  O  O1  1  0.33983900  0.16377300  0.00000000  1
  O  O2  1  0.16041000  0.34128300  0.00000000  1
  O  O3  1  0.65871700  0.83959000  0.00000000  1
  O  O4  1  0.08341000  0.91659000  0.50000000  1
  O  O5  1  0.90347800  0.09652200  0.50000000  1
  O  O6  1  0.41572500  0.58427500  0.50000000  1
  O  O7  1  0.59883100  0.40116900  0.50000000  1
  O  O8  1  0.25458800  0.74541200  0.00000000  1
loop_
_geom_bond_atom_site_label_1
_geom_bond_atom_site_label_2
_geom_bond_distance
_geom_bond_site_symmetry_2
Ce0 O4 2.390797 1_655
Ce0 O6 2.400640 1_555
Ce0 O0 2.426851 1_555
Ce0 O0 2.426851 1_556
Ce0 O3 2.453306 1_555
Ce0 O3 2.453306 1_556
Ce0 O5 2.515186 1_565
Ce0 O7 2.530607 1_555
Ce1 O4 2.390797 1_545
Ce1 O6 2.400640 1_555
Ce1 O1 2.426851 1_555
Ce1 O1 2.426851 1_556
Ce1 O2 2.453306 1_556
Ce1 O2 2.453306 1_555
Ce1 O5 2.515186 1_455
Ce1 O7 2.530607 1_555
Fe0 O1 2.081757 1_565
Fe0 O0 2.081757 1_455
Fe0 O4 2.083539 1_554
Fe0 O4 2.083539 1_555
Fe0 O8 2.092484 1_555
Fe1 O5 2.001953 1_554
Fe1 O5 2.001953 1_555
Fe1 O2 2.024774 1_655
Fe1 O3 2.024774 1_545
Fe2 O8 1.899164 1_555
Fe2 O3 2.064063 1_555
Fe2 O2 2.064063 1_555
Fe2 O6 2.093992 1_555
Fe2 O6 2.093992 1_554
Fe3 O7 1.998303 1_555
Fe3 O7 1.998303 1_554
Fe3 O1 2.008723 1_555
Fe3 O0 2.008723 1_555
O0 Rb0 3.233097 1_654
O0 Rb0 3.233097 1_655
O1 Rb1 3.233097 1_545
O1 Rb1 3.233097 1_544
O2 Rb0 3.219230 1_555
O2 Rb0 3.219230 1_554
O3 Rb1 3.219230 1_555
O3 Rb1 3.219230 1_554
O4 Rb0 3.288213 1_555
O4 Rb1 3.288213 1_555
O5 Rb0 3.152876 1_655
O5 Rb1 3.152876 1_545
O6 Rb0 3.293595 1_555
O6 Rb1 3.293595 1_555
O7 Rb1 3.109228 1_545
O7 Rb0 3.109228 1_655
O8 Rb0 2.816051 1_555
O8 Rb0 2.816051 1_554
O8 Rb1 2.816051 1_554
O8 Rb1 2.816051 1_555
