# generated using pymatgen
data_Al
_symmetry_space_group_name_H-M   'P 1'
_cell_length_a   12.16625753
_cell_length_b   12.17820768
_cell_length_c   11.98844119
_cell_angle_alpha   92.55640954
_cell_angle_beta   84.77638701
_cell_angle_gamma   89.09399117
_symmetry_Int_Tables_number   1
_chemical_formula_structural   Al
_chemical_formula_sum   Al100
_cell_volume   1766.75613267
_cell_formula_units_Z   100
loop_
 _symmetry_equiv_pos_site_id
 _symmetry_equiv_pos_as_xyz
  1  'x, y, z'
loop_
 _atom_site_type_symbol
 _atom_site_label
 _atom_site_symmetry_multiplicity
 _atom_site_fract_x
 _atom_site_fract_y
 _atom_site_fract_z
 _atom_site_occupancy
  Al  Al0  1  0.18825670  0.89271372  0.24933695  1
  Al  Al1  1  0.24521167  0.09910725  0.17353776  1
  Al  Al2  1  0.86023991  0.45864591  0.50782556  1
  Al  Al3  1  0.70484003  0.77707271  0.81243186  1
  Al  Al4  1  0.04033797  0.30076913  0.76616615  1
  Al  Al5  1  0.79777429  0.49067420  0.04427637  1
  Al  Al6  1  0.99066008  0.47192157  0.17409329  1
  Al  Al7  1  0.43554510  0.30428267  0.63252921  1
  Al  Al8  1  0.94221952  0.67784661  0.08950194  1
  Al  Al9  1  0.23466711  0.16515308  0.95166044  1
  Al  Al10  1  0.41750157  0.27173489  0.86973938  1
  Al  Al11  1  0.52007427  0.61909369  0.31510750  1
  Al  Al12  1  0.66022269  0.93537010  0.63812712  1
  Al  Al13  1  0.08138856  0.48343116  0.41626433  1
  Al  Al14  1  0.09111660  0.01652283  0.02418515  1
  Al  Al15  1  0.81670716  0.29586271  0.91099818  1
  Al  Al16  1  0.10577827  0.67251265  0.25632505  1
  Al  Al17  1  0.36885480  0.27930958  0.09540295  1
  Al  Al18  1  0.77088669  0.07528098  0.21768741  1
  Al  Al19  1  0.15196759  0.28209317  0.29872084  1
  Al  Al20  1  0.73423187  0.65537023  0.20216659  1
  Al  Al21  1  0.55650488  0.89375161  0.95825340  1
  Al  Al22  1  0.14856771  0.87870957  0.84237902  1
  Al  Al23  1  0.30709570  0.41079408  0.41359193  1
  Al  Al24  1  0.92625360  0.32378210  0.33204287  1
  Al  Al25  1  0.99945956  0.51289967  0.68362475  1
  Al  Al26  1  0.77441516  0.85773439  0.28167740  1
  Al  Al27  1  0.11219539  0.07008669  0.39634797  1
  Al  Al28  1  0.72160925  0.25629105  0.40886368  1
  Al  Al29  1  0.23191864  0.41976618  0.85149276  1
  Al  Al30  1  0.19161223  0.62513679  0.60284580  1
  Al  Al31  1  0.37741325  0.91162683  0.12089907  1
  Al  Al32  1  0.60373149  0.24053109  0.21866069  1
  Al  Al33  1  0.00616359  0.76621602  0.70378110  1
  Al  Al34  1  0.35015832  0.68182006  0.13885411  1
  Al  Al35  1  0.58003555  0.57223929  0.07959498  1
  Al  Al36  1  0.44579928  0.08529854  0.99879932  1
  Al  Al37  1  0.63105559  0.27750918  0.79608403  1
  Al  Al38  1  0.00368251  0.45840853  0.93440357  1
  Al  Al39  1  0.99556683  0.13357341  0.20905899  1
  Al  Al40  1  0.22018754  0.01767542  0.60520110  1
  Al  Al41  1  0.38869877  0.22142298  0.30165397  1
  Al  Al42  1  0.33494024  0.79988657  0.92539854  1
  Al  Al43  1  0.94060499  0.84604521  0.91877225  1
  Al  Al44  1  0.28507138  0.81906381  0.67312269  1
  Al  Al45  1  0.86641701  0.06389048  0.92471717  1
  Al  Al46  1  0.28838391  0.63149469  0.38116215  1
  Al  Al47  1  0.53358267  0.38443813  0.41908709  1
  Al  Al48  1  0.81694019  0.81636117  0.50574405  1
  Al  Al49  1  0.10564269  0.65065804  0.85239627  1
  Al  Al50  1  0.89196425  0.10305027  0.43597544  1
  Al  Al51  1  0.33157174  0.02402727  0.37835196  1
  Al  Al52  1  0.01505412  0.69255777  0.49251267  1
  Al  Al53  1  0.24140739  0.47921256  0.22068213  1
  Al  Al54  1  0.49274379  0.83026618  0.74230210  1
  Al  Al55  1  0.58791972  0.63161618  0.67290717  1
  Al  Al56  1  0.59858470  0.34617880  0.01721675  1
  Al  Al57  1  0.48608339  0.46171133  0.78814505  1
  Al  Al58  1  0.19738590  0.82939329  0.46888108  1
  Al  Al59  1  0.45047086  0.94377025  0.54271436  1
  Al  Al60  1  0.93612413  0.91468197  0.14089220  1
  Al  Al61  1  0.82413552  0.28040977  0.13668600  1
  Al  Al62  1  0.38644517  0.48300661  0.00557319  1
  Al  Al63  1  0.83460957  0.34711938  0.69486143  1
  Al  Al64  1  0.51361332  0.66252314  0.90235247  1
  Al  Al65  1  0.50546882  0.10621901  0.70850958  1
  Al  Al66  1  0.43757962  0.71504205  0.53285385  1
  Al  Al67  1  0.56295894  0.79488963  0.16857318  1
  Al  Al68  1  0.00962999  0.94645467  0.56655959  1
  Al  Al69  1  0.08023737  0.08110640  0.80089330  1
  Al  Al70  1  0.25763904  0.20534935  0.72910597  1
  Al  Al71  1  0.16091879  0.34904349  0.06602184  1
  Al  Al72  1  0.64857610  0.40854059  0.60443956  1
  Al  Al73  1  0.84951037  0.93369077  0.73617965  1
  Al  Al74  1  0.75073263  0.82812822  0.04245256  1
  Al  Al75  1  0.53662597  0.02359912  0.24189175  1
  Al  Al76  1  0.67770405  0.01912097  0.42411251  1
  Al  Al77  1  0.87361744  0.63527884  0.87059749  1
  Al  Al78  1  0.40711787  0.51230459  0.58392046  1
  Al  Al79  1  0.17415024  0.57433467  0.03857251  1
  Al  Al80  1  0.25471885  0.21205779  0.49930609  1
  Al  Al81  1  0.13483910  0.79503335  0.05481567  1
  Al  Al82  1  0.50283060  0.15428780  0.47198377  1
  Al  Al83  1  0.32494200  0.61947507  0.78438019  1
  Al  Al84  1  0.81627865  0.64175659  0.64622744  1
  Al  Al85  1  0.71164448  0.15803825  0.60983085  1
  Al  Al86  1  0.91724374  0.13584267  0.67186292  1
  Al  Al87  1  0.33971000  0.99936414  0.81356805  1
  Al  Al88  1  0.71668110  0.44204418  0.27056113  1
  Al  Al89  1  0.68200668  0.58926626  0.45887954  1
  Al  Al90  1  0.88851402  0.61673774  0.33886144  1
  Al  Al91  1  0.00712746  0.22451563  0.98834149  1
  Al  Al92  1  0.02829886  0.28186168  0.52660540  1
  Al  Al93  1  0.60998792  0.80339834  0.42483584  1
  Al  Al94  1  0.66398212  0.11261917  0.02114902  1
  Al  Al95  1  0.46895445  0.42925736  0.21542610  1
  Al  Al96  1  0.69622362  0.50622634  0.84182969  1
  Al  Al97  1  0.98489158  0.86804687  0.35379960  1
  Al  Al98  1  0.20055118  0.40112170  0.62455912  1
  Al  Al99  1  0.39848743  0.81883055  0.33126415  1
loop_
_geom_bond_atom_site_label_1
_geom_bond_atom_site_label_2
_geom_bond_distance
_geom_bond_site_symmetry_2
Al0 Al31 2.668937 1_555
Al0 Al97 2.696868 1_455
Al0 Al81 2.707146 1_555
Al0 Al58 2.786742 1_555
Al0 Al1 2.787075 1_565
Al0 Al27 2.815791 1_565
Al0 Al16 2.880111 1_555
Al0 Al51 2.889347 1_565
Al0 Al99 2.963051 1_555
Al1 Al31 2.787219 1_545
Al1 Al19 2.795863 1_555
Al1 Al17 2.826215 1_555
Al1 Al9 2.826396 1_554
Al1 Al41 2.826965 1_555
Al1 Al14 2.870947 1_555
Al1 Al51 2.934040 1_555
Al1 Al27 3.032169 1_555
Al1 Al39 3.048048 1_455
Al1 Al36 3.065440 1_554
Al2 Al24 2.669237 1_555
Al2 Al63 2.669727 1_555
Al2 Al84 2.735403 1_555
Al2 Al89 2.789745 1_555
Al2 Al72 2.813352 1_555
Al2 Al90 2.858338 1_555
Al2 Al25 2.882432 1_555
Al2 Al92 2.975596 1_655
Al3 Al73 2.745948 1_555
Al3 Al84 2.769204 1_555
Al3 Al77 2.817886 1_555
Al3 Al54 2.859337 1_555
Al3 Al55 2.864926 1_555
Al3 Al64 2.881133 1_555
Al3 Al74 2.905343 1_556
Al4 Al69 2.767706 1_555
Al4 Al63 2.775256 1_455
Al4 Al86 2.784941 1_455
Al4 Al98 2.798716 1_555
Al4 Al91 2.855974 1_555
Al4 Al70 2.860073 1_555
Al4 Al92 2.888131 1_555
Al5 Al96 2.834138 1_554
Al5 Al61 2.859872 1_555
Al5 Al77 2.883849 1_554
Al5 Al88 2.890996 1_555
Al5 Al6 2.942956 1_555
Al5 Al8 2.961076 1_555
Al5 Al56 3.049865 1_555
Al6 Al71 2.729288 1_655
Al6 Al90 2.780195 1_555
Al6 Al8 2.820242 1_555
Al6 Al79 2.964301 1_655
Al7 Al78 2.649088 1_555
Al7 Al82 2.657719 1_555
Al7 Al70 2.688415 1_555
Al7 Al72 2.902781 1_555
Al7 Al80 3.034814 1_555
Al7 Al98 3.086578 1_555
Al8 Al81 2.771762 1_655
Al8 Al90 3.126600 1_555
Al9 Al91 2.840108 1_555
Al10 Al57 2.668330 1_555
Al10 Al37 2.669950 1_555
Al10 Al17 2.713337 1_556
Al10 Al9 2.721123 1_555
Al10 Al70 2.793578 1_555
Al10 Al36 2.837794 1_555
Al10 Al65 2.855174 1_555
Al10 Al7 2.877850 1_555
Al10 Al29 2.896904 1_555
Al10 Al62 2.982935 1_556
Al10 Al56 3.070979 1_556
Al11 Al95 2.663450 1_555
Al11 Al89 2.763262 1_555
Al11 Al99 2.816820 1_555
Al11 Al93 2.835697 1_555
Al11 Al67 2.854045 1_555
Al11 Al46 2.857443 1_555
Al11 Al20 2.874797 1_555
Al11 Al35 2.880553 1_555
Al11 Al66 2.898414 1_555
Al11 Al47 3.176081 1_555
Al12 Al54 2.666754 1_555
Al12 Al73 2.679410 1_555
Al12 Al48 2.722333 1_555
Al12 Al76 2.794506 1_565
Al12 Al85 2.820787 1_565
Al12 Al65 2.831267 1_565
Al12 Al59 2.892182 1_555
Al12 Al3 2.985029 1_555
Al12 Al93 3.073106 1_555
Al13 Al52 2.750640 1_555
Al13 Al2 2.837700 1_455
Al13 Al19 2.853057 1_555
Al13 Al23 2.868577 1_555
Al13 Al92 2.894321 1_555
Al13 Al53 2.906103 1_555
Al13 Al24 2.941051 1_455
Al13 Al16 3.062472 1_555
Al13 Al46 3.128720 1_555
Al14 Al60 2.607664 1_445
Al14 Al9 2.654481 1_554
Al14 Al22 2.723055 1_544
Al14 Al39 2.737179 1_455
Al14 Al91 2.782081 1_554
Al14 Al81 2.787835 1_545
Al14 Al69 2.837440 1_554
Al14 Al43 3.093214 1_444
Al15 Al63 2.682708 1_555
Al15 Al91 2.716829 1_655
Al15 Al61 2.730111 1_556
Al15 Al37 2.757644 1_555
Al15 Al5 2.795015 1_556
Al15 Al56 2.881487 1_556
Al15 Al45 2.894650 1_555
Al15 Al38 3.062837 1_655
Al15 Al4 3.094355 1_655
Al16 Al46 2.839363 1_555
Al16 Al90 2.840410 1_455
Al16 Al53 2.847103 1_555
Al16 Al79 2.868968 1_555
Al16 Al81 2.893101 1_555
Al16 Al97 2.920116 1_455
Al16 Al52 2.942134 1_555
Al16 Al8 2.948874 1_455
Al16 Al6 3.007602 1_455
Al16 Al34 3.177811 1_555
Al17 Al41 2.632100 1_555
Al17 Al95 2.653897 1_555
Al17 Al36 2.699726 1_554
Al17 Al71 2.714068 1_555
Al17 Al62 2.751797 1_555
Al17 Al9 2.817426 1_554
Al17 Al56 3.002758 1_555
Al17 Al53 3.117203 1_555
Al18 Al76 2.746246 1_555
Al18 Al61 2.785001 1_555
Al18 Al26 2.791592 1_545
Al18 Al39 2.828992 1_555
Al18 Al32 2.837251 1_555
Al18 Al94 2.843396 1_555
Al18 Al60 2.844681 1_545
Al18 Al75 2.919880 1_555
Al18 Al28 3.119113 1_555
Al18 Al50 3.125915 1_555
Al19 Al24 2.774246 1_455
Al19 Al53 2.814182 1_555
Al19 Al23 2.879118 1_555
Al19 Al39 2.890564 1_455
Al19 Al27 2.911342 1_555
Al19 Al71 2.934185 1_555
Al19 Al80 2.961319 1_555
Al19 Al41 2.965766 1_555
Al19 Al92 2.996642 1_555
Al20 Al90 2.651620 1_555
Al20 Al35 2.670737 1_555
Al20 Al26 2.671038 1_555
Al20 Al67 2.737338 1_555
Al20 Al5 2.747588 1_555
Al20 Al88 2.764566 1_555
Al20 Al8 2.781165 1_555
Al20 Al74 2.904394 1_555
Al21 Al36 2.678079 1_565
Al21 Al3 2.730368 1_555
Al21 Al74 2.772734 1_556
Al21 Al31 2.787545 1_556
Al21 Al54 2.847474 1_555
Al21 Al67 2.849042 1_556
Al21 Al64 2.931347 1_555
Al21 Al42 2.996460 1_555
Al21 Al94 3.081112 1_566
Al22 Al44 2.572892 1_555
Al22 Al43 2.653478 1_455
Al22 Al69 2.670896 1_565
Al22 Al42 2.735086 1_555
Al22 Al87 2.773675 1_555
Al22 Al81 2.777024 1_556
Al22 Al33 2.834689 1_555
Al22 Al49 2.839810 1_555
Al23 Al53 2.677469 1_555
Al23 Al78 2.730123 1_555
Al23 Al80 2.733313 1_555
Al23 Al41 2.741168 1_555
Al23 Al46 2.741695 1_555
Al23 Al98 2.743223 1_555
Al23 Al47 2.776167 1_555
Al23 Al95 2.963464 1_555
Al24 Al28 2.727147 1_555
Al24 Al6 2.744734 1_555
Al24 Al39 2.767277 1_555
Al24 Al61 2.783493 1_555
Al24 Al92 2.802856 1_655
Al24 Al50 3.031848 1_555
Al24 Al88 3.072346 1_555
Al25 Al84 2.786469 1_555
Al25 Al98 2.798785 1_655
Al25 Al30 2.842218 1_655
Al25 Al4 2.859608 1_655
Al25 Al63 2.867004 1_555
Al25 Al77 2.931644 1_555
Al25 Al49 2.969653 1_655
Al25 Al33 3.086574 1_655
Al25 Al38 3.112355 1_655
Al26 Al60 2.596766 1_555
Al26 Al93 2.627402 1_555
Al26 Al76 2.724825 1_565
Al26 Al97 2.779251 1_555
Al26 Al48 2.846544 1_555
Al26 Al74 2.915400 1_555
Al26 Al67 3.106062 1_555
Al27 Al50 2.698734 1_455
Al27 Al51 2.705863 1_555
Al27 Al80 2.795286 1_555
Al27 Al68 2.803168 1_545
Al27 Al39 2.890122 1_455
Al27 Al97 2.977481 1_445
Al27 Al40 3.019570 1_555
Al27 Al92 3.065793 1_555
Al28 Al85 2.731231 1_555
Al28 Al47 2.739071 1_555
Al28 Al32 2.803242 1_555
Al28 Al50 2.817515 1_555
Al28 Al88 2.866765 1_555
Al28 Al76 2.956209 1_555
Al28 Al72 2.984196 1_555
Al28 Al82 3.003685 1_555
Al29 Al98 2.781265 1_555
Al29 Al71 2.814084 1_556
Al29 Al83 2.817638 1_555
Al29 Al62 2.844447 1_556
Al29 Al38 2.886923 1_555
Al29 Al79 2.891700 1_556
Al29 Al70 2.935625 1_555
Al29 Al4 2.997988 1_555
Al29 Al49 3.181900 1_555
Al30 Al98 2.753407 1_555
Al30 Al52 2.756144 1_555
Al30 Al44 2.768052 1_555
Al30 Al46 2.811886 1_555
Al30 Al83 2.832851 1_555
Al30 Al78 2.926413 1_555
Al30 Al33 2.949817 1_555
Al30 Al58 3.018802 1_555
Al30 Al49 3.078630 1_555
Al31 Al36 2.723643 1_564
Al31 Al42 2.751397 1_554
Al31 Al67 2.765773 1_555
Al31 Al34 2.838790 1_555
Al31 Al99 2.840051 1_555
Al31 Al75 2.852052 1_565
Al32 Al41 2.730247 1_555
Al32 Al56 2.791709 1_555
Al32 Al75 2.795690 1_555
Al32 Al95 2.805882 1_555
Al32 Al94 2.808812 1_555
Al32 Al61 2.827715 1_555
Al32 Al88 2.902424 1_555
Al32 Al47 2.962573 1_555
Al33 Al52 2.641155 1_555
Al33 Al49 2.679931 1_555
Al33 Al43 2.757166 1_455
Al33 Al73 2.759456 1_455
Al33 Al68 2.799715 1_555
Al33 Al84 2.901388 1_455
Al33 Al77 2.986834 1_455
Al34 Al62 2.846538 1_555
Al34 Al79 2.856782 1_555
Al34 Al99 2.895731 1_555
Al34 Al53 2.980568 1_555
Al34 Al67 2.993796 1_555
Al34 Al42 3.009355 1_554
Al34 Al46 3.025678 1_555
Al34 Al35 3.089173 1_555
Al35 Al64 2.621058 1_554
Al35 Al95 2.727038 1_555
Al35 Al5 2.803308 1_555
Al35 Al62 2.809125 1_555
Al35 Al56 2.820497 1_555
Al35 Al67 2.866528 1_555
Al35 Al96 3.129764 1_554
Al36 Al94 2.716280 1_556
Al36 Al87 2.837193 1_545
Al36 Al9 2.845628 1_555
Al37 Al85 2.707470 1_555
Al37 Al56 2.735781 1_556
Al37 Al63 2.816945 1_555
Al37 Al65 2.825905 1_555
Al37 Al57 2.841937 1_555
Al37 Al72 2.849387 1_555
Al37 Al96 2.949641 1_555
Al38 Al4 2.723238 1_555
Al38 Al5 2.736233 1_456
Al38 Al77 2.826355 1_455
Al38 Al49 2.839353 1_555
Al38 Al6 2.860649 1_456
Al38 Al79 2.874173 1_556
Al38 Al71 2.929103 1_556
Al38 Al91 2.949358 1_555
Al39 Al60 2.875949 1_545
Al39 Al91 2.906299 1_654
Al39 Al50 2.933944 1_555
Al39 Al61 2.941171 1_555
Al40 Al44 2.714555 1_545
Al40 Al70 2.736984 1_555
Al40 Al80 2.755787 1_555
Al40 Al58 2.788142 1_545
Al40 Al68 2.789208 1_545
Al40 Al69 2.840619 1_555
Al40 Al51 2.930774 1_555
Al40 Al59 2.949344 1_545
Al40 Al87 3.017464 1_545
Al41 Al51 2.690916 1_555
Al41 Al82 2.719480 1_555
Al41 Al80 2.758883 1_555
Al41 Al95 2.925060 1_555
Al41 Al75 3.005060 1_555
Al41 Al47 3.056708 1_555
Al42 Al64 2.708223 1_555
Al42 Al83 2.722984 1_555
Al42 Al81 2.768095 1_556
Al42 Al54 2.822866 1_555
Al42 Al87 2.825419 1_555
Al43 Al74 2.646413 1_556
Al43 Al60 2.750657 1_556
Al43 Al77 2.757829 1_555
Al43 Al45 2.784540 1_565
Al43 Al73 2.787838 1_555
Al43 Al8 2.960662 1_556
Al43 Al81 3.062011 1_656
Al43 Al49 3.117012 1_655
Al44 Al66 2.653825 1_555
Al44 Al54 2.733584 1_555
Al44 Al58 2.765519 1_555
Al44 Al87 2.831646 1_555
Al44 Al83 2.879590 1_555
Al44 Al59 2.921571 1_555
Al45 Al94 2.669932 1_556
Al45 Al73 2.727732 1_545
Al45 Al91 2.747629 1_655
Al45 Al69 2.890791 1_655
Al46 Al53 2.717125 1_555
Al46 Al99 2.725723 1_555
Al46 Al58 2.759974 1_555
Al46 Al66 2.851582 1_555
Al47 Al95 2.707828 1_555
Al47 Al72 2.738980 1_555
Al47 Al78 2.791628 1_555
Al47 Al88 2.839646 1_555
Al47 Al82 2.923428 1_555
Al47 Al7 2.937189 1_555
Al47 Al89 3.147021 1_555
Al48 Al97 2.711971 1_555
Al48 Al84 2.770470 1_555
Al48 Al93 2.783674 1_555
Al48 Al52 2.811054 1_655
Al48 Al68 2.977084 1_655
Al49 Al79 2.653221 1_556
Al49 Al83 2.733459 1_555
Al49 Al77 2.821266 1_455
Al49 Al81 2.983704 1_556
Al50 Al76 2.828223 1_555
Al50 Al86 2.883181 1_555
Al50 Al85 2.932889 1_555
Al50 Al68 2.953819 1_645
Al50 Al92 2.984125 1_655
Al50 Al97 3.143675 1_545
Al51 Al99 2.636709 1_545
Al51 Al59 2.752559 1_545
Al51 Al80 2.758557 1_555
Al51 Al75 2.855831 1_555
Al51 Al82 2.913645 1_555
Al51 Al58 3.080680 1_545
Al52 Al90 2.650548 1_455
Al52 Al58 2.796892 1_555
Al52 Al97 2.805496 1_455
Al52 Al84 2.994101 1_455
Al53 Al71 2.650883 1_555
Al53 Al79 2.701633 1_555
Al53 Al95 2.819513 1_555
Al53 Al62 2.991784 1_555
Al53 Al6 3.152893 1_455
Al54 Al55 2.727990 1_555
Al54 Al87 2.805234 1_555
Al54 Al64 2.888099 1_555
Al54 Al59 2.897769 1_555
Al54 Al66 2.957482 1_555
Al55 Al89 2.736494 1_555
Al55 Al84 2.772891 1_555
Al55 Al57 2.783770 1_555
Al55 Al66 2.801686 1_555
Al55 Al64 2.823000 1_555
Al55 Al72 2.868094 1_555
Al55 Al78 2.911699 1_555
Al55 Al96 2.977788 1_555
Al56 Al95 2.865318 1_555
Al56 Al94 2.944953 1_555
Al56 Al62 3.067200 1_555
Al56 Al96 3.100818 1_554
Al57 Al83 2.727929 1_555
Al57 Al7 2.731524 1_555
Al57 Al96 2.748950 1_555
Al57 Al62 2.772297 1_556
Al57 Al64 2.788929 1_555
Al57 Al78 2.800193 1_555
Al57 Al72 2.866595 1_555
Al58 Al68 2.807596 1_555
Al58 Al99 2.821464 1_555
Al58 Al97 3.078553 1_455
Al59 Al66 2.790233 1_555
Al59 Al82 2.800844 1_565
Al59 Al93 2.804639 1_555
Al59 Al65 2.871488 1_565
Al59 Al99 3.019830 1_555
Al60 Al97 2.753882 1_555
Al60 Al74 2.835500 1_555
Al60 Al81 2.886710 1_655
Al60 Al8 2.920660 1_555
Al61 Al88 2.722935 1_555
Al61 Al91 2.775931 1_654
Al62 Al79 2.783596 1_555
Al62 Al95 2.889879 1_555
Al62 Al64 2.950273 1_554
Al63 Al72 2.706068 1_555
Al63 Al86 2.740688 1_555
Al63 Al96 2.957293 1_555
Al63 Al85 2.959181 1_555
Al63 Al92 3.030778 1_655
Al64 Al83 2.847298 1_555
Al64 Al96 2.921450 1_555
Al65 Al87 2.667083 1_545
Al65 Al7 2.764717 1_555
Al65 Al85 2.768767 1_555
Al65 Al82 2.923740 1_555
Al66 Al78 2.594314 1_555
Al66 Al93 2.633556 1_555
Al66 Al99 2.850830 1_555
Al67 Al99 2.667078 1_555
Al67 Al74 2.669046 1_555
Al67 Al75 2.887055 1_565
Al68 Al73 2.696404 1_455
Al68 Al97 2.727606 1_455
Al68 Al86 2.752543 1_465
Al69 Al86 2.716296 1_455
Al69 Al70 2.751279 1_555
Al69 Al91 2.850979 1_555
Al69 Al9 2.891141 1_555
Al70 Al9 2.724235 1_555
Al70 Al80 2.763232 1_555
Al70 Al98 2.847841 1_555
Al70 Al87 2.940492 1_545
Al71 Al91 2.636099 1_554
Al71 Al9 2.671790 1_554
Al71 Al79 2.783279 1_555
Al72 Al89 2.880329 1_555
Al73 Al86 2.729852 1_565
Al74 Al8 3.048207 1_555
Al75 Al76 2.900277 1_555
Al75 Al82 3.113241 1_555
Al76 Al82 2.673595 1_555
Al76 Al93 2.765812 1_545
Al76 Al85 2.800579 1_555
Al77 Al96 2.727877 1_555
Al77 Al84 2.843766 1_555
Al77 Al8 2.853694 1_556
Al78 Al83 2.778447 1_555
Al78 Al98 2.886191 1_555
Al79 Al81 2.717751 1_555
Al79 Al8 3.070696 1_455
Al80 Al98 2.730166 1_555
Al80 Al92 2.855697 1_555
Al80 Al82 3.073498 1_555
Al82 Al85 3.154129 1_555
Al84 Al89 2.948698 1_555
Al85 Al86 2.686678 1_555
Al86 Al92 2.818514 1_655
Al87 Al9 2.772247 1_565
Al88 Al89 2.816202 1_555
Al89 Al93 2.796860 1_555
Al89 Al90 2.811709 1_555
Al92 Al98 2.876184 1_555
Al93 Al99 2.905859 1_555
