# generated using pymatgen
data_La5Ru2
_symmetry_space_group_name_H-M   'P 1'
_cell_length_a   6.83790242
_cell_length_b   7.29728992
_cell_length_c   9.11865120
_cell_angle_alpha   93.37823759
_cell_angle_beta   112.02063252
_cell_angle_gamma   90.00000000
_symmetry_Int_Tables_number   1
_chemical_formula_structural   La5Ru2
_chemical_formula_sum   'La10 Ru4'
_cell_volume   420.95783922
_cell_formula_units_Z   2
loop_
 _symmetry_equiv_pos_site_id
 _symmetry_equiv_pos_as_xyz
  1  'x, y, z'
loop_
 _atom_site_type_symbol
 _atom_site_label
 _atom_site_symmetry_multiplicity
 _atom_site_fract_x
 _atom_site_fract_y
 _atom_site_fract_z
 _atom_site_occupancy
  La  La0  1  0.97773437  0.89511680  0.18528489  1
  La  La1  1  0.79244949  0.60488320  0.81471511  1
  La  La2  1  0.02226563  0.10488320  0.81471511  1
  La  La3  1  0.20755051  0.39511680  0.18528489  1
  La  La4  1  0.64197891  0.82646595  0.42878968  1
  La  La5  1  0.21318923  0.67353405  0.57121032  1
  La  La6  1  0.35802109  0.17353405  0.57121032  1
  La  La7  1  0.78681077  0.32646595  0.42878968  1
  La  La8  1  0.42557954  0.75000000  -0.00000000  1
  La  La9  1  0.57442046  0.25000000  -0.00000000  1
  Ru  Ru0  1  0.83329664  0.58240424  0.22139273  1
  Ru  Ru1  1  0.61190491  0.91759576  0.77860727  1
  Ru  Ru2  1  0.16670336  0.41759576  0.77860727  1
  Ru  Ru3  1  0.38809509  0.08240424  0.22139273  1
loop_
_geom_bond_atom_site_label_1
_geom_bond_atom_site_label_2
_geom_bond_distance
_geom_bond_site_symmetry_2
La0 Ru0 2.573632 1_555
La0 Ru3 3.017297 1_665
La0 Ru1 3.626535 1_554
La1 Ru1 2.573629 1_555
La1 Ru2 3.017303 1_655
La1 Ru0 3.626537 1_556
La2 Ru2 2.573632 1_555
La2 Ru1 3.017297 1_445
La2 Ru3 3.626535 1_556
La3 Ru3 2.573629 1_555
La3 Ru0 3.017303 1_455
La3 Ru2 3.626537 1_554
La4 Ru3 2.834221 1_565
La4 Ru0 3.149318 1_555
La4 Ru1 3.301765 1_555
La5 Ru2 2.834219 1_555
La5 Ru1 3.149322 1_555
La5 Ru0 3.301768 1_455
La6 Ru1 2.834221 1_545
La6 Ru2 3.149318 1_555
La6 Ru3 3.301765 1_555
La7 Ru0 2.834219 1_555
La7 Ru3 3.149322 1_555
La7 Ru2 3.301768 1_655
La8 Ru0 3.068269 1_555
La8 Ru1 3.068274 1_554
La8 Ru2 3.136229 1_554
La8 Ru3 3.136231 1_565
La9 Ru2 3.068269 1_554
La9 Ru3 3.068274 1_555
La9 Ru0 3.136229 1_555
La9 Ru1 3.136231 1_544
