# generated using pymatgen
data_Nd3(GaSi2)2
_symmetry_space_group_name_H-M   'P 1'
_cell_length_a   4.22869664
_cell_length_b   4.28624754
_cell_length_c   21.13471047
_cell_angle_alpha   84.20191654
_cell_angle_beta   95.69707706
_cell_angle_gamma   89.99389097
_symmetry_Int_Tables_number   1
_chemical_formula_structural   Nd3(GaSi2)2
_chemical_formula_sum   'Nd6 Ga4 Si8'
_cell_volume   379.20962566
_cell_formula_units_Z   2
loop_
 _symmetry_equiv_pos_site_id
 _symmetry_equiv_pos_as_xyz
  1  'x, y, z'
loop_
 _atom_site_type_symbol
 _atom_site_label
 _atom_site_symmetry_multiplicity
 _atom_site_fract_x
 _atom_site_fract_y
 _atom_site_fract_z
 _atom_site_occupancy
  Nd  Nd0  1  0.37469417  0.87483840  0.24991381  1
  Nd  Nd1  1  0.04012685  0.20966883  0.58082930  1
  Nd  Nd2  1  0.70583798  0.54365193  0.91208705  1
  Nd  Nd3  1  0.29370383  0.45674655  0.08663398  1
  Nd  Nd4  1  0.96006457  0.79034823  0.41963637  1
  Nd  Nd5  1  0.62581762  0.12465295  0.75087500  1
  Ga  Ga0  1  0.90275533  0.34729660  0.30651533  1
  Ga  Ga1  1  0.56908696  0.68136991  0.63847094  1
  Ga  Ga2  1  0.23616762  0.01463230  0.97119437  1
  Ga  Ga3  1  0.76422654  0.98569141  0.02781735  1
  Si  Si0  1  0.43132721  0.31797885  0.36343679  1
  Si  Si1  1  0.09718584  0.65195777  0.69502530  1
  Si  Si2  1  0.84702485  0.40346083  0.19301985  1
  Si  Si3  1  0.51285775  0.73763984  0.52508968  1
  Si  Si4  1  0.17886564  0.07118899  0.85744619  1
  Si  Si5  1  0.82056158  0.92899496  0.14172321  1
  Si  Si6  1  0.48693969  0.26293595  0.47443588  1
  Si  Si7  1  0.15275795  0.59694273  0.80585062  1
loop_
_geom_bond_atom_site_label_1
_geom_bond_atom_site_label_2
_geom_bond_distance
_geom_bond_site_symmetry_2
Nd0 Si5 3.096124 1_555
Nd0 Si5 3.098717 1_455
Nd0 Si0 3.198190 1_565
Nd0 Si0 3.199940 1_555
Nd0 Si2 3.235137 1_455
Nd0 Si2 3.236423 1_465
Nd0 Si2 3.237938 1_555
Nd0 Si2 3.239820 1_565
Nd1 Si6 3.068899 1_555
Nd1 Si6 3.071202 1_455
Nd1 Si1 3.207184 1_555
Nd1 Si1 3.211884 1_545
Nd1 Si3 3.227024 1_445
Nd1 Si3 3.227879 1_455
Nd1 Si3 3.228877 1_545
Nd1 Si3 3.230330 1_555
Nd2 Si7 3.066603 1_655
Nd2 Si7 3.068737 1_555
Nd2 Si4 3.219154 1_555
Nd2 Si4 3.219632 1_655
Nd2 Si4 3.220658 1_565
Nd2 Si4 3.221736 1_665
Nd3 Si2 3.068384 1_455
Nd3 Si2 3.071489 1_555
Nd3 Si5 3.221588 1_555
Nd3 Si5 3.223040 1_545
Nd3 Si5 3.223936 1_455
Nd3 Si5 3.225986 1_445
Nd4 Si3 3.054451 1_555
Nd4 Si3 3.057189 1_655
Nd4 Si6 3.220427 1_665
Nd4 Si6 3.220768 1_655
Nd4 Si6 3.221882 1_565
Nd4 Si6 3.222822 1_555
Nd4 Si0 3.228767 1_665
Nd4 Si0 3.230555 1_655
Nd4 Si0 3.233181 1_565
Nd4 Si0 3.235564 1_555
Nd5 Si4 3.072259 1_555
Nd5 Si4 3.073237 1_655
Nd5 Si7 3.221080 1_655
Nd5 Si7 3.222620 1_645
Nd5 Si7 3.222657 1_555
Nd5 Si7 3.224796 1_545
Nd5 Si1 3.225489 1_655
Nd5 Si1 3.228141 1_645
Nd5 Si1 3.230284 1_555
Nd5 Si1 3.233530 1_545
Ga0 Si2 2.374513 1_555
Ga0 Si0 2.425458 1_555
Ga0 Si0 2.427873 1_655
Ga0 Nd4 3.191122 1_555
Ga0 Nd4 3.194539 1_545
Ga0 Nd0 3.233007 1_555
Ga0 Nd0 3.233438 1_655
Ga0 Nd0 3.236864 1_645
Ga0 Nd0 3.237030 1_545
Ga1 Si3 2.372121 1_555
Ga1 Si1 2.422772 1_555
Ga1 Si1 2.423044 1_655
Ga1 Nd5 3.179649 1_565
Ga1 Nd5 3.183804 1_555
Ga1 Nd1 3.241092 1_665
Ga1 Nd1 3.242773 1_565
Ga1 Nd1 3.243157 1_655
Ga1 Nd1 3.245432 1_555
Ga2 Si4 2.379800 1_555
Ga2 Ga3 2.423469 1_546
Ga2 Ga3 2.423742 1_446
Ga2 Nd3 3.227877 1_556
Ga2 Nd3 3.230018 1_546
Ga2 Nd2 3.250836 1_555
Ga2 Nd2 3.252948 1_545
Ga2 Nd2 3.256041 1_455
Ga2 Nd2 3.258743 1_445
Ga3 Si5 2.383097 1_555
Ga3 Nd2 3.232632 1_554
Ga3 Nd2 3.234371 1_564
Ga3 Nd3 3.250671 1_555
Ga3 Nd3 3.251985 1_655
Ga3 Nd3 3.252387 1_565
Ga3 Nd3 3.254294 1_665
Si0 Si6 2.322284 1_555
Si1 Si7 2.318648 1_555
Si2 Si5 2.396746 1_555
Si2 Si5 2.396906 1_545
Si3 Si6 2.390597 1_555
Si3 Si6 2.391069 1_565
Si4 Si7 2.399439 1_545
Si4 Si7 2.399821 1_555
