# generated using pymatgen
data_CaLa2Mn3O9
_symmetry_space_group_name_H-M   'P 1'
_cell_length_a   5.56211038
_cell_length_b   5.56211038
_cell_length_c   13.37979200
_cell_angle_alpha   90.00000000
_cell_angle_beta   90.00000000
_cell_angle_gamma   120.00000455
_symmetry_Int_Tables_number   1
_chemical_formula_structural   CaLa2Mn3O9
_chemical_formula_sum   'Ca2 La4 Mn6 O18'
_cell_volume   358.47525349
_cell_formula_units_Z   2
loop_
 _symmetry_equiv_pos_site_id
 _symmetry_equiv_pos_as_xyz
  1  'x, y, z'
loop_
 _atom_site_type_symbol
 _atom_site_label
 _atom_site_symmetry_multiplicity
 _atom_site_fract_x
 _atom_site_fract_y
 _atom_site_fract_z
 _atom_site_occupancy
  Ca  Ca0  1  0.00000000  0.00000000  0.75000000  1
  Ca  Ca1  1  0.00000000  0.00000000  0.25000000  1
  La  La0  1  0.33333300  0.66666700  0.08564900  1
  La  La1  1  0.66666700  0.33333300  0.41435100  1
  La  La2  1  0.33333300  0.66666700  0.58564900  1
  La  La3  1  0.66666700  0.33333300  0.91435100  1
  Mn  Mn0  1  0.33333300  0.66666700  0.33205600  1
  Mn  Mn1  1  0.00000000  0.00000000  0.00000000  1
  Mn  Mn2  1  0.66666700  0.33333300  0.66794400  1
  Mn  Mn3  1  0.33333300  0.66666700  0.83205600  1
  Mn  Mn4  1  0.00000000  0.00000000  0.50000000  1
  Mn  Mn5  1  0.66666700  0.33333300  0.16794400  1
  O  O0  1  0.76922100  0.10541300  0.08151200  1
  O  O1  1  0.10541300  0.76922100  0.41848800  1
  O  O2  1  0.43156900  0.43156900  0.75000000  1
  O  O3  1  0.33619300  0.23077900  0.08151200  1
  O  O4  1  0.66380700  0.89458700  0.41848800  1
  O  O5  1  0.00000000  0.56843100  0.75000000  1
  O  O6  1  0.89458700  0.66380700  0.08151200  1
  O  O7  1  0.23077900  0.33619300  0.41848800  1
  O  O8  1  0.56843100  0.00000000  0.75000000  1
  O  O9  1  0.66380700  0.76922100  0.91848800  1
  O  O10  1  0.00000000  0.43156900  0.25000000  1
  O  O11  1  0.33619300  0.10541300  0.58151200  1
  O  O12  1  0.10541300  0.33619300  0.91848800  1
  O  O13  1  0.43156900  0.00000000  0.25000000  1
  O  O14  1  0.76922100  0.66380700  0.58151200  1
  O  O15  1  0.23077900  0.89458700  0.91848800  1
  O  O16  1  0.56843100  0.56843100  0.25000000  1
  O  O17  1  0.89458700  0.23077900  0.58151200  1
loop_
_geom_bond_atom_site_label_1
_geom_bond_atom_site_label_2
_geom_bond_distance
_geom_bond_site_symmetry_2
Ca0 O2 2.400434 1_555
Ca0 O5 2.400434 1_545
Ca0 O8 2.400434 1_455
Ca0 O17 2.797513 1_455
Ca0 O15 2.797513 1_545
Ca0 O9 2.797515 1_445
Ca0 O14 2.797515 1_445
Ca0 O12 2.797516 1_555
Ca0 O11 2.797516 1_555
Ca1 O16 2.400434 1_445
Ca1 O10 2.400434 1_555
Ca1 O13 2.400434 1_555
Ca1 O1 2.797513 1_545
Ca1 O0 2.797513 1_455
Ca1 O7 2.797515 1_555
Ca1 O3 2.797515 1_555
Ca1 O4 2.797516 1_445
Ca1 O6 2.797516 1_445
La0 O6 2.433069 1_455
La0 O0 2.433074 1_565
La0 O3 2.433080 1_555
La0 O13 2.749268 1_565
La0 O10 2.749269 1_555
La0 O16 2.749272 1_555
La0 O12 2.767290 1_554
La0 O9 2.767290 1_554
La0 O15 2.767290 1_554
La1 O4 2.433069 1_545
La1 O1 2.433074 1_655
La1 O7 2.433080 1_555
La1 O10 2.749268 1_655
La1 O13 2.749269 1_555
La1 O16 2.749272 1_555
La1 O11 2.767290 1_555
La1 O14 2.767290 1_555
La1 O17 2.767290 1_555
La2 O11 2.433069 1_565
La2 O17 2.433074 1_455
La2 O14 2.433080 1_555
La2 O5 2.749268 1_555
La2 O8 2.749269 1_565
La2 O2 2.749272 1_555
La2 O4 2.767290 1_555
La2 O7 2.767290 1_555
La2 O1 2.767290 1_555
La3 O12 2.433069 1_655
La3 O15 2.433074 1_545
La3 O9 2.433080 1_555
La3 O8 2.749268 1_555
La3 O5 2.749269 1_655
La3 O2 2.749272 1_555
La3 O6 2.767290 1_556
La3 O3 2.767290 1_556
La3 O0 2.767290 1_556
Mn0 O13 1.981999 1_565
Mn0 O10 1.982000 1_555
Mn0 O16 1.982004 1_555
Mn0 O4 1.998240 1_555
Mn0 O7 1.998240 1_555
Mn0 O1 1.998240 1_555
Mn1 O15 1.983304 1_544
Mn1 O0 1.983304 1_455
Mn1 O3 1.983307 1_555
Mn1 O9 1.983307 1_444
Mn1 O12 1.983308 1_554
Mn1 O6 1.983308 1_445
Mn2 O8 1.981999 1_555
Mn2 O5 1.982000 1_655
Mn2 O2 1.982004 1_555
Mn2 O11 1.998240 1_555
Mn2 O14 1.998240 1_555
Mn2 O17 1.998240 1_555
Mn3 O5 1.981999 1_555
Mn3 O8 1.982000 1_565
Mn3 O2 1.982004 1_555
Mn3 O12 1.998240 1_555
Mn3 O9 1.998240 1_555
Mn3 O15 1.998240 1_555
Mn4 O17 1.983304 1_455
Mn4 O1 1.983304 1_545
Mn4 O7 1.983307 1_555
Mn4 O14 1.983307 1_445
Mn4 O11 1.983308 1_555
Mn4 O4 1.983308 1_445
Mn5 O10 1.981999 1_655
Mn5 O13 1.982000 1_555
Mn5 O16 1.982004 1_555
Mn5 O6 1.998240 1_555
Mn5 O3 1.998240 1_555
Mn5 O0 1.998240 1_555
