# generated using pymatgen
data_KSrCeSbO6
_symmetry_space_group_name_H-M   'P 1'
_cell_length_a   8.47630223
_cell_length_b   8.44645010
_cell_length_c   8.43818740
_cell_angle_alpha   90.00000000
_cell_angle_beta   90.00000000
_cell_angle_gamma   90.00000000
_symmetry_Int_Tables_number   1
_chemical_formula_structural   KSrCeSbO6
_chemical_formula_sum   'K4 Sr4 Ce4 Sb4 O24'
_cell_volume   604.12919014
_cell_formula_units_Z   4
loop_
 _symmetry_equiv_pos_site_id
 _symmetry_equiv_pos_as_xyz
  1  'x, y, z'
loop_
 _atom_site_type_symbol
 _atom_site_label
 _atom_site_symmetry_multiplicity
 _atom_site_fract_x
 _atom_site_fract_y
 _atom_site_fract_z
 _atom_site_occupancy
  K  K0  1  0.00000000  0.50000000  0.50000000  1
  K  K1  1  0.50000000  0.00000000  0.50000000  1
  K  K2  1  0.50000000  0.00000000  0.00000000  1
  K  K3  1  0.00000000  0.50000000  0.00000000  1
  Sr  Sr0  1  0.50000000  0.50000000  0.00000000  1
  Sr  Sr1  1  0.00000000  0.00000000  0.50000000  1
  Sr  Sr2  1  0.00000000  0.00000000  0.00000000  1
  Sr  Sr3  1  0.50000000  0.50000000  0.50000000  1
  Ce  Ce0  1  0.75000000  0.75000000  0.75000000  1
  Ce  Ce1  1  0.25000000  0.25000000  0.75000000  1
  Ce  Ce2  1  0.25000000  0.75000000  0.25000000  1
  Ce  Ce3  1  0.75000000  0.25000000  0.25000000  1
  Sb  Sb0  1  0.25000000  0.25000000  0.25000000  1
  Sb  Sb1  1  0.75000000  0.75000000  0.25000000  1
  Sb  Sb2  1  0.75000000  0.25000000  0.75000000  1
  Sb  Sb3  1  0.25000000  0.75000000  0.75000000  1
  O  O0  1  0.01300345  0.22481425  0.26334142  1
  O  O1  1  0.98699655  0.77518575  0.26334142  1
  O  O2  1  0.98699655  0.22481425  0.73665858  1
  O  O3  1  0.01300345  0.77518575  0.73665858  1
  O  O4  1  0.25301812  0.01218053  0.23583257  1
  O  O5  1  0.25301812  0.98781947  0.76416743  1
  O  O6  1  0.74698188  0.98781947  0.23583257  1
  O  O7  1  0.74698188  0.01218053  0.76416743  1
  O  O8  1  0.23694711  0.26207536  0.01269873  1
  O  O9  1  0.76305289  0.26207536  0.98730127  1
  O  O10  1  0.23694711  0.73792464  0.98730127  1
  O  O11  1  0.76305289  0.73792464  0.01269873  1
  O  O12  1  0.48699655  0.27518575  0.23665858  1
  O  O13  1  0.51300345  0.72481425  0.23665858  1
  O  O14  1  0.51300345  0.27518575  0.76334142  1
  O  O15  1  0.48699655  0.72481425  0.76334142  1
  O  O16  1  0.24698188  0.48781947  0.26416743  1
  O  O17  1  0.24698188  0.51218053  0.73583257  1
  O  O18  1  0.75301812  0.51218053  0.26416743  1
  O  O19  1  0.75301812  0.48781947  0.73583257  1
  O  O20  1  0.26305289  0.23792464  0.48730127  1
  O  O21  1  0.73694711  0.23792464  0.51269873  1
  O  O22  1  0.26305289  0.76207536  0.51269873  1
  O  O23  1  0.73694711  0.76207536  0.48730127  1
loop_
_geom_bond_atom_site_label_1
_geom_bond_atom_site_label_2
_geom_bond_distance
_geom_bond_site_symmetry_2
K0 O16 2.890224 1_555
K0 O17 2.890224 1_555
K0 O18 2.890224 1_455
K0 O19 2.890224 1_455
K0 O3 3.066367 1_555
K0 O2 3.066367 1_455
K0 O1 3.066367 1_455
K0 O0 3.066367 1_555
K0 O21 3.143751 1_455
K0 O22 3.143751 1_555
K0 O23 3.143751 1_455
K0 O20 3.143751 1_555
K1 O20 2.843213 1_555
K1 O22 2.843213 1_545
K1 O21 2.843213 1_555
K1 O23 2.843213 1_545
K1 O7 3.059765 1_555
K1 O5 3.059765 1_545
K1 O4 3.059765 1_555
K1 O6 3.059765 1_545
K1 O13 3.217538 1_545
K1 O12 3.217538 1_555
K1 O14 3.217538 1_555
K1 O15 3.217538 1_545
K2 O7 2.890224 1_554
K2 O5 2.890224 1_544
K2 O4 2.890224 1_555
K2 O6 2.890224 1_545
K2 O14 3.066367 1_554
K2 O15 3.066367 1_544
K2 O12 3.066367 1_555
K2 O13 3.066367 1_545
K2 O8 3.143751 1_555
K2 O9 3.143751 1_554
K2 O11 3.143751 1_545
K2 O10 3.143751 1_544
K3 O11 2.843213 1_455
K3 O10 2.843213 1_554
K3 O9 2.843213 1_454
K3 O8 2.843213 1_555
K3 O16 3.059765 1_555
K3 O18 3.059765 1_455
K3 O17 3.059765 1_554
K3 O19 3.059765 1_454
K3 O0 3.217538 1_555
K3 O1 3.217538 1_455
K3 O3 3.217538 1_554
K3 O2 3.217538 1_454
Ce0 O7 2.217867 1_565
Ce0 O19 2.217867 1_555
Ce0 O23 2.221803 1_555
Ce0 O11 2.221803 1_556
Ce0 O15 2.242251 1_555
Ce0 O3 2.242251 1_655
Ce1 O5 2.217867 1_545
Ce1 O17 2.217867 1_555
Ce1 O20 2.221803 1_555
Ce1 O8 2.221803 1_556
Ce1 O14 2.242251 1_555
Ce1 O2 2.242251 1_455
Ce2 O4 2.217867 1_565
Ce2 O16 2.217867 1_555
Ce2 O22 2.221803 1_555
Ce2 O10 2.221803 1_554
Ce2 O1 2.242251 1_455
Ce2 O13 2.242251 1_555
Ce3 O18 2.217867 1_555
Ce3 O6 2.217867 1_545
Ce3 O21 2.221803 1_555
Ce3 O9 2.221803 1_554
Ce3 O12 2.242251 1_555
Ce3 O0 2.242251 1_655
O0 Sb0 2.023221 1_555
O0 Sr1 2.757860 1_555
O0 Sr2 2.925019 1_555
O1 Sb1 2.023221 1_555
O1 Sr1 2.757860 1_665
O1 Sr2 2.925019 1_665
O2 Sb2 2.023221 1_555
O2 Sr1 2.757860 1_655
O2 Sr2 2.925019 1_656
O3 Sb3 2.023221 1_555
O3 Sr1 2.757860 1_565
O3 Sr2 2.925019 1_566
O4 Sb0 2.012447 1_555
O4 Sr2 2.927497 1_555
O4 Sr1 3.094997 1_555
O5 Sb3 2.012447 1_555
O5 Sr2 2.927497 1_566
O5 Sr1 3.094997 1_565
O6 Sb1 2.012447 1_555
O6 Sr2 2.927497 1_665
O6 Sr1 3.094997 1_665
O7 Sb2 2.012447 1_555
O7 Sr2 2.927497 1_656
O7 Sr1 3.094997 1_655
O8 Sb0 2.008039 1_555
O8 Sr2 2.990877 1_555
O8 Sr0 3.003611 1_555
O9 Sb2 2.008039 1_555
O9 Sr2 2.990877 1_656
O9 Sr0 3.003611 1_556
O10 Sb3 2.008039 1_555
O10 Sr2 2.990877 1_566
O10 Sr0 3.003611 1_556
O11 Sb1 2.008039 1_555
O11 Sr2 2.990877 1_665
O11 Sr0 3.003611 1_555
O12 Sb0 2.023221 1_555
O12 Sr0 2.757860 1_555
O12 Sr3 2.925019 1_555
O13 Sb1 2.023221 1_555
O13 Sr0 2.757860 1_555
O13 Sr3 2.925019 1_555
O14 Sb2 2.023221 1_555
O14 Sr0 2.757860 1_556
O14 Sr3 2.925019 1_555
O15 Sb3 2.023221 1_555
O15 Sr0 2.757860 1_556
O15 Sr3 2.925019 1_555
O16 Sb0 2.012447 1_555
O16 Sr3 2.927497 1_555
O16 Sr0 3.094997 1_555
O17 Sb3 2.012447 1_555
O17 Sr3 2.927497 1_555
O17 Sr0 3.094997 1_556
O18 Sb1 2.012447 1_555
O18 Sr3 2.927497 1_555
O18 Sr0 3.094997 1_555
O19 Sb2 2.012447 1_555
O19 Sr3 2.927497 1_555
O19 Sr0 3.094997 1_556
O20 Sb0 2.008039 1_555
O20 Sr3 2.990877 1_555
O20 Sr1 3.003611 1_555
O21 Sb2 2.008039 1_555
O21 Sr3 2.990877 1_555
O21 Sr1 3.003611 1_655
O22 Sb3 2.008039 1_555
O22 Sr3 2.990877 1_555
O22 Sr1 3.003611 1_565
O23 Sb1 2.008039 1_555
O23 Sr3 2.990877 1_555
O23 Sr1 3.003611 1_665
