# generated using pymatgen
data_Mg(SbO2)2
_symmetry_space_group_name_H-M   'P 1'
_cell_length_a   6.04922000
_cell_length_b   6.06045661
_cell_length_c   20.47634569
_cell_angle_alpha   89.70964204
_cell_angle_beta   94.19740856
_cell_angle_gamma   110.95969724
_symmetry_Int_Tables_number   1
_chemical_formula_structural   Mg(SbO2)2
_chemical_formula_sum   'Mg6 Sb12 O24'
_cell_volume   698.95302113
_cell_formula_units_Z   6
loop_
 _symmetry_equiv_pos_site_id
 _symmetry_equiv_pos_as_xyz
  1  'x, y, z'
loop_
 _atom_site_type_symbol
 _atom_site_label
 _atom_site_symmetry_multiplicity
 _atom_site_fract_x
 _atom_site_fract_y
 _atom_site_fract_z
 _atom_site_occupancy
  Mg  Mg0  1  0.87737000  0.14711100  0.94103800  1
  Mg  Mg1  1  0.52757000  0.45161300  0.59089600  1
  Mg  Mg2  1  0.50629200  0.53075000  0.01829800  1
  Mg  Mg3  1  0.24277700  0.81377700  0.31206900  1
  Mg  Mg4  1  0.78553800  0.18361800  0.71546200  1
  Mg  Mg5  1  0.41367300  0.44148200  0.35614700  1
  Sb  Sb0  1  0.79670900  0.61452900  0.82910000  1
  Sb  Sb1  1  0.29903600  0.70628900  0.90392400  1
  Sb  Sb2  1  0.44646700  0.90720700  0.45935400  1
  Sb  Sb3  1  0.32956200  0.15271700  0.81597200  1
  Sb  Sb4  1  0.12250200  0.80449200  0.68515200  1
  Sb  Sb5  1  0.90061900  0.07469200  0.56899000  1
  Sb  Sb6  1  0.25641700  0.21484800  0.20837300  1
  Sb  Sb7  1  0.95834300  0.48761900  0.46092200  1
  Sb  Sb8  1  0.60169500  0.80239400  0.17528600  1
  Sb  Sb9  1  0.87675600  0.20775600  0.32315200  1
  Sb  Sb10  1  0.83038800  0.31828900  0.09929600  1
  Sb  Sb11  1  0.14783600  0.90477600  0.06174200  1
  O  O0  1  0.72242200  0.28811800  0.86659200  1
  O  O1  1  0.45634200  0.49422200  0.79164800  1
  O  O2  1  0.63105100  0.79490100  0.93792100  1
  O  O3  1  0.21642400  0.40863800  0.95143000  1
  O  O4  1  0.46184200  0.01817200  0.74685600  1
  O  O5  1  0.36337600  0.61176800  0.51100300  1
  O  O6  1  0.92183400  0.52917600  0.74580900  1
  O  O7  1  0.21802000  0.91489800  0.96929200  1
  O  O8  1  0.22382500  0.19064800  0.61051100  1
  O  O9  1  0.10645100  0.79738000  0.41735900  1
  O  O10  1  0.02517300  0.02780700  0.74052500  1
  O  O11  1  0.79364200  0.77276900  0.62020300  1
  O  O12  1  0.10289500  0.30578900  0.40659200  1
  O  O13  1  0.22133400  0.13009800  0.30359600  1
  O  O14  1  0.51127400  0.79004900  0.37491500  1
  O  O15  1  0.74195400  0.24894200  0.61854100  1
  O  O16  1  0.90388400  0.10417500  0.03887000  1
  O  O17  1  0.08843200  0.48924500  0.27999100  1
  O  O18  1  0.70559300  0.37561000  0.38160700  1
  O  O19  1  0.39633600  0.94297000  0.21998700  1
  O  O20  1  0.85716500  0.57203000  0.03559600  1
  O  O21  1  0.53504300  0.51217600  0.23165500  1
  O  O22  1  0.48216500  0.23709400  0.07923100  1
  O  O23  1  0.39397400  0.67936600  0.09509800  1
loop_
_geom_bond_atom_site_label_1
_geom_bond_atom_site_label_2
_geom_bond_distance
_geom_bond_site_symmetry_2
Mg0 O16 2.020880 1_556
Mg0 O0 2.069607 1_555
Mg0 O3 2.092345 1_655
Mg0 O2 2.119579 1_545
Mg1 O8 2.015281 1_555
Mg1 O11 2.090030 1_555
Mg1 O15 2.129794 1_555
Mg1 O5 2.245129 1_555
Mg2 O20 2.050376 1_555
Mg2 O3 2.056097 1_554
Mg2 O23 2.086732 1_555
Mg2 O22 2.136267 1_555
Mg2 O2 2.265366 1_554
Mg3 O17 1.944500 1_555
Mg3 O13 1.973130 1_565
Mg3 O14 2.043026 1_555
Mg3 O19 2.179939 1_555
Mg3 O9 2.353201 1_555
Mg4 O4 2.006462 1_555
Mg4 O10 2.030244 1_655
Mg4 O6 2.038293 1_555
Mg4 O15 2.038369 1_555
Mg5 O18 1.979139 1_555
Mg5 O14 2.010359 1_555
Mg5 O13 2.083111 1_555
Mg5 O12 2.108813 1_555
Mg5 O17 2.517962 1_555
Mg5 O21 2.694176 1_555
O0 Sb0 2.025760 1_555
O0 Sb3 2.376621 1_555
O1 Sb3 2.007409 1_555
O1 Sb0 2.014828 1_555
O2 Sb1 1.958131 1_555
O3 Sb1 1.964301 1_555
O4 Sb3 1.988058 1_555
O4 Sb4 2.285224 1_545
O5 Sb2 1.997940 1_555
O5 Sb7 2.437624 1_455
O6 Sb0 2.056022 1_555
O6 Sb4 2.133275 1_655
O7 Sb11 1.966074 1_556
O7 Sb1 2.046112 1_555
O8 Sb5 1.954235 1_455
O8 Sb4 2.695031 1_545
O9 Sb7 2.004829 1_455
O9 Sb2 2.044620 1_555
O10 Sb4 2.036477 1_545
O10 Sb3 2.224495 1_555
O11 Sb5 2.024683 1_565
O11 Sb4 2.259386 1_655
O12 Sb7 2.015138 1_455
O12 Sb9 2.056730 1_455
O13 Sb6 2.020664 1_555
O13 Sb9 2.356403 1_455
O14 Sb2 1.989495 1_555
O15 Sb5 1.986061 1_555
O16 Sb10 1.980395 1_555
O16 Sb11 2.241955 1_645
O17 Sb9 1.979531 1_455
O18 Sb7 2.083568 1_555
O18 Sb9 2.118226 1_555
O19 Sb8 2.009567 1_555
O19 Sb6 2.110020 1_565
O20 Sb10 1.981093 1_555
O20 Sb11 2.186635 1_655
O21 Sb6 2.008318 1_555
O21 Sb8 2.031891 1_555
O22 Sb10 1.995489 1_555
O22 Sb11 2.293885 1_545
O23 Sb8 1.967481 1_555
O23 Sb11 2.417956 1_555
