# generated using pymatgen
data_CsDy2Cu3S5
_symmetry_space_group_name_H-M   'P 1'
_cell_length_a   7.31865959
_cell_length_b   7.31865959
_cell_length_c   16.88658100
_cell_angle_alpha   90.00000000
_cell_angle_beta   90.00000000
_cell_angle_gamma   148.45744413
_symmetry_Int_Tables_number   1
_chemical_formula_structural   CsDy2Cu3S5
_chemical_formula_sum   'Cs2 Dy4 Cu6 S10'
_cell_volume   473.16854730
_cell_formula_units_Z   2
loop_
 _symmetry_equiv_pos_site_id
 _symmetry_equiv_pos_as_xyz
  1  'x, y, z'
loop_
 _atom_site_type_symbol
 _atom_site_label
 _atom_site_symmetry_multiplicity
 _atom_site_fract_x
 _atom_site_fract_y
 _atom_site_fract_z
 _atom_site_occupancy
  Cs  Cs0  1  0.06479700  0.93520300  0.25000000  1
  Cs  Cs1  1  0.93520300  0.06479700  0.75000000  1
  Dy  Dy0  1  0.80782000  0.19218000  0.09098400  1
  Dy  Dy1  1  0.19218000  0.80782000  0.90901600  1
  Dy  Dy2  1  0.80782000  0.19218000  0.40901600  1
  Dy  Dy3  1  0.19218000  0.80782000  0.59098400  1
  Cu  Cu0  1  0.34288300  0.65711700  0.25000000  1
  Cu  Cu1  1  0.65711700  0.34288300  0.75000000  1
  Cu  Cu2  1  0.58371900  0.41628100  0.46398900  1
  Cu  Cu3  1  0.41628100  0.58371900  0.53601100  1
  Cu  Cu4  1  0.58371900  0.41628100  0.03601100  1
  Cu  Cu5  1  0.41628100  0.58371900  0.96398900  1
  S  S0  1  0.77072000  0.22928000  0.25000000  1
  S  S1  1  0.22928000  0.77072000  0.75000000  1
  S  S2  1  0.56200800  0.43799200  0.89287100  1
  S  S3  1  0.43799200  0.56200800  0.10712900  1
  S  S4  1  0.56200800  0.43799200  0.60712900  1
  S  S5  1  0.43799200  0.56200800  0.39287100  1
  S  S6  1  0.83013500  0.16986500  0.93158800  1
  S  S7  1  0.16986500  0.83013500  0.06841200  1
  S  S8  1  0.83013500  0.16986500  0.56841200  1
  S  S9  1  0.16986500  0.83013500  0.43158800  1
loop_
_geom_bond_atom_site_label_1
_geom_bond_atom_site_label_2
_geom_bond_distance
_geom_bond_site_symmetry_2
Cs0 S9 3.404888 1_555
Cs0 S7 3.404888 1_555
Cs0 S0 3.517230 1_455
Cs0 S0 3.517230 1_565
Cs0 S5 3.601126 1_565
Cs0 S5 3.601126 1_455
Cs0 S3 3.601126 1_565
Cs0 S3 3.601126 1_455
Cs0 Cu0 3.705190 1_565
Cs0 Cu0 3.705190 1_455
Cs1 S8 3.404888 1_555
Cs1 S6 3.404888 1_555
Cs1 S1 3.517230 1_545
Cs1 S1 3.517230 1_655
Cs1 S2 3.601126 1_545
Cs1 S2 3.601126 1_655
Cs1 S4 3.601126 1_545
Cs1 S4 3.601126 1_655
Cs1 Cu1 3.705190 1_545
Cs1 Cu1 3.705190 1_655
Dy0 S6 2.709946 1_554
Dy0 S3 2.719093 1_655
Dy0 S3 2.719093 1_545
Dy0 S0 2.735618 1_555
Dy0 S7 2.806867 1_545
Dy0 S7 2.806867 1_655
Dy1 S7 2.709946 1_556
Dy1 S2 2.719093 1_565
Dy1 S2 2.719093 1_455
Dy1 S1 2.735618 1_555
Dy1 S6 2.806867 1_455
Dy1 S6 2.806867 1_565
Dy2 S8 2.709946 1_555
Dy2 S5 2.719093 1_655
Dy2 S5 2.719093 1_545
Dy2 S0 2.735618 1_555
Dy2 S9 2.806867 1_545
Dy2 S9 2.806867 1_655
Dy3 S9 2.709946 1_555
Dy3 S4 2.719093 1_565
Dy3 S4 2.719093 1_455
Dy3 S1 2.735618 1_555
Dy3 S8 2.806867 1_455
Dy3 S8 2.806867 1_565
Cu0 S0 2.233874 1_565
Cu0 S0 2.233874 1_455
Cu0 S5 2.759626 1_555
Cu0 S3 2.759626 1_555
Cu1 S1 2.233874 1_655
Cu1 S1 2.233874 1_545
Cu1 S2 2.759626 1_555
Cu1 S4 2.759626 1_555
Cu2 S5 2.378245 1_555
Cu2 S9 2.393490 1_545
Cu2 S9 2.393490 1_655
Cu2 S4 2.436416 1_555
Cu3 S4 2.378245 1_555
Cu3 S8 2.393490 1_455
Cu3 S8 2.393490 1_565
Cu3 S5 2.436416 1_555
Cu4 S3 2.378245 1_555
Cu4 S7 2.393490 1_545
Cu4 S7 2.393490 1_655
Cu4 S2 2.436416 1_554
Cu5 S2 2.378245 1_555
Cu5 S6 2.393490 1_455
Cu5 S6 2.393490 1_565
Cu5 S3 2.436416 1_556
