# generated using pymatgen
data_Mg9Si5
_symmetry_space_group_name_H-M   'P 1'
_cell_length_a   7.13163400
_cell_length_b   7.15455275
_cell_length_c   12.48224806
_cell_angle_alpha   96.01921726
_cell_angle_beta   90.63454125
_cell_angle_gamma   118.93261311
_symmetry_Int_Tables_number   1
_chemical_formula_structural   Mg9Si5
_chemical_formula_sum   'Mg18 Si10'
_cell_volume   552.92678928
_cell_formula_units_Z   2
loop_
 _symmetry_equiv_pos_site_id
 _symmetry_equiv_pos_as_xyz
  1  'x, y, z'
loop_
 _atom_site_type_symbol
 _atom_site_label
 _atom_site_symmetry_multiplicity
 _atom_site_fract_x
 _atom_site_fract_y
 _atom_site_fract_z
 _atom_site_occupancy
  Mg  Mg0  1  0.56714400  0.44706500  0.35349600  1
  Mg  Mg1  1  0.89266900  0.22912700  0.35633800  1
  Mg  Mg2  1  0.09876500  0.76417200  0.35742400  1
  Mg  Mg3  1  0.52753600  0.09861500  0.50342400  1
  Mg  Mg4  1  0.78663700  0.81069300  0.18110100  1
  Mg  Mg5  1  0.79097300  0.85977900  0.52678900  1
  Mg  Mg6  1  0.80147800  0.77790000  0.85069200  1
  Mg  Mg7  1  0.55623700  0.40505000  0.02052000  1
  Mg  Mg8  1  0.16188900  0.30040100  0.87353300  1
  Mg  Mg9  1  0.15391500  0.88734700  0.66323900  1
  Mg  Mg10  1  0.36796400  0.99050200  0.88430200  1
  Mg  Mg11  1  0.80377500  0.14180500  0.02099600  1
  Mg  Mg12  1  0.98456300  0.31230000  0.65683800  1
  Mg  Mg13  1  0.05333800  0.64751700  0.01142300  1
  Mg  Mg14  1  0.52224200  0.39073700  0.68059900  1
  Mg  Mg15  1  0.24132100  0.48135600  0.17855700  1
  Mg  Mg16  1  0.30059400  0.59674600  0.52292900  1
  Mg  Mg17  1  0.45899300  0.01932300  0.18036700  1
  Si  Si0  1  0.14231900  0.07063200  0.04760500  1
  Si  Si1  1  0.59883900  0.99060900  0.69856300  1
  Si  Si2  1  0.19623600  0.17492400  0.49829700  1
  Si  Si3  1  0.17858100  0.12698900  0.26943600  1
  Si  Si4  1  0.76859200  0.33367100  0.84402000  1
  Si  Si5  1  0.51706300  0.80611100  0.34906700  1
  Si  Si6  1  0.47088900  0.72909300  0.00585900  1
  Si  Si7  1  0.83094500  0.44042300  0.18576900  1
  Si  Si8  1  0.86391600  0.51867900  0.52118200  1
  Si  Si9  1  0.36244500  0.64859400  0.75788700  1
loop_
_geom_bond_atom_site_label_1
_geom_bond_atom_site_label_2
_geom_bond_distance
_geom_bond_site_symmetry_2
Mg0 Si3 2.704756 1_555
Mg0 Si5 2.765227 1_555
Mg0 Si8 2.784018 1_555
Mg0 Si7 2.842138 1_555
Mg0 Si2 3.148896 1_555
Mg1 Si3 2.681916 1_655
Mg1 Si8 2.844968 1_555
Mg1 Si7 2.882745 1_555
Mg1 Si5 2.904515 1_545
Mg1 Si2 2.974666 1_655
Mg2 Si3 2.729561 1_565
Mg2 Si8 2.837388 1_455
Mg2 Si5 2.854378 1_555
Mg2 Si7 2.862180 1_455
Mg2 Si2 3.020609 1_565
Mg3 Si5 2.664080 1_545
Mg3 Si2 2.671448 1_555
Mg3 Si1 2.745213 1_545
Mg3 Si8 2.776504 1_555
Mg4 Si3 2.727287 1_665
Mg4 Si7 2.821872 1_555
Mg4 Si5 2.852281 1_555
Mg4 Si6 2.923578 1_555
Mg4 Si0 2.974689 1_665
Mg5 Si8 2.724787 1_555
Mg5 Si2 2.729322 1_665
Mg5 Si5 2.807868 1_555
Mg5 Si1 2.869859 1_555
Mg6 Si6 2.979621 1_556
Mg6 Si9 2.982174 1_555
Mg6 Si4 3.063676 1_555
Mg6 Si0 3.193524 1_666
Mg6 Si1 3.268567 1_555
Mg7 Si6 2.689003 1_555
Mg7 Si7 2.734615 1_555
Mg7 Si0 2.812606 1_555
Mg7 Si4 2.827419 1_554
Mg8 Si9 2.772687 1_555
Mg8 Si0 2.824324 1_556
Mg8 Si4 2.949753 1_455
Mg8 Si6 3.051026 1_556
Mg9 Si8 2.835219 1_455
Mg9 Si1 2.905323 1_555
Mg9 Si2 2.977333 1_565
Mg9 Si9 3.060635 1_555
Mg10 Si9 2.751596 1_555
Mg10 Si0 2.791680 1_566
Mg10 Si4 2.819135 1_565
Mg10 Si1 2.858301 1_555
Mg10 Si6 2.870132 1_556
Mg11 Si0 2.721407 1_655
Mg11 Si6 2.735149 1_545
Mg11 Si7 2.738853 1_555
Mg11 Si4 2.790017 1_554
Mg12 Si1 2.700525 1_545
Mg12 Si8 2.740266 1_555
Mg12 Si9 2.767132 1_655
Mg12 Si4 2.843823 1_555
Mg12 Si2 2.873133 1_655
Mg13 Si6 2.746700 1_555
Mg13 Si0 2.760223 1_565
Mg13 Si7 2.815271 1_455
Mg13 Si4 2.835860 1_454
Mg14 Si9 2.705218 1_555
Mg14 Si4 2.864205 1_555
Mg14 Si2 2.939410 1_555
Mg14 Si8 3.011029 1_555
Mg14 Si1 3.192011 1_545
Mg15 Si3 2.726123 1_555
Mg15 Si7 2.800220 1_455
Mg15 Si5 2.871375 1_555
Mg15 Si6 2.922433 1_555
Mg15 Si0 2.960578 1_555
Mg16 Si2 2.717267 1_555
Mg16 Si5 2.802721 1_555
Mg16 Si8 2.885102 1_455
Mg16 Si9 2.918626 1_555
Mg16 Si1 3.173762 1_555
Mg17 Si3 2.681179 1_555
Mg17 Si5 2.863262 1_545
Mg17 Si6 2.879173 1_545
Mg17 Si7 2.887684 1_555
Mg17 Si0 2.971226 1_555
Si0 Si3 2.746932 1_555
Si1 Si9 2.407146 1_555
Si1 Si4 2.632137 1_565
Si2 Si3 2.835311 1_555
