# generated using pymatgen
data_ErBiRh
_symmetry_space_group_name_H-M   'P 1'
_cell_length_a   7.57773936
_cell_length_b   7.57773936
_cell_length_c   3.94450648
_cell_angle_alpha   90.00000000
_cell_angle_beta   90.00000000
_cell_angle_gamma   119.99999316
_symmetry_Int_Tables_number   1
_chemical_formula_structural   ErBiRh
_chemical_formula_sum   'Er3 Bi3 Rh3'
_cell_volume   196.15648108
_cell_formula_units_Z   3
loop_
 _symmetry_equiv_pos_site_id
 _symmetry_equiv_pos_as_xyz
  1  'x, y, z'
loop_
 _atom_site_type_symbol
 _atom_site_label
 _atom_site_symmetry_multiplicity
 _atom_site_fract_x
 _atom_site_fract_y
 _atom_site_fract_z
 _atom_site_occupancy
  Er  Er0  1  0.60125609  0.00000000  -0.00000000  1
  Er  Er1  1  0.00000000  0.60125609  0.00000000  1
  Er  Er2  1  0.39874391  0.39874391  -0.00000000  1
  Bi  Bi0  1  0.26698681  0.00000000  0.50000000  1
  Bi  Bi1  1  0.00000000  0.26698681  0.50000000  1
  Bi  Bi2  1  0.73301319  0.73301319  0.50000000  1
  Rh  Rh0  1  0.33333300  0.66666700  0.50000000  1
  Rh  Rh1  1  0.66666700  0.33333300  0.50000000  1
  Rh  Rh2  1  0.00000000  -0.00000000  0.00000000  1
loop_
_geom_bond_atom_site_label_1
_geom_bond_atom_site_label_2
_geom_bond_distance
_geom_bond_site_symmetry_2
Er0 Rh2 3.021577 1_655
Er0 Rh1 3.043630 1_555
Er0 Rh1 3.043630 1_554
Er0 Rh0 3.043632 1_545
Er0 Rh0 3.043632 1_544
Er1 Rh2 3.021577 1_565
Er1 Rh0 3.043630 1_555
Er1 Rh0 3.043630 1_554
Er1 Rh1 3.043632 1_454
Er1 Rh1 3.043632 1_455
Er2 Rh2 3.021578 1_555
Er2 Rh0 3.043635 1_554
Er2 Rh1 3.043635 1_555
Er2 Rh1 3.043635 1_554
Er2 Rh0 3.043635 1_555
Bi0 Rh0 2.811209 1_545
Bi0 Rh1 2.811214 1_555
Bi0 Rh2 2.825411 1_556
Bi0 Rh2 2.825411 1_555
Bi0 Er0 3.210280 1_556
Bi0 Er0 3.210280 1_555
Bi0 Er2 3.316587 1_556
Bi0 Er2 3.316587 1_555
Bi0 Er1 3.316587 1_545
Bi0 Er1 3.316587 1_546
Bi1 Rh1 2.811209 1_455
Bi1 Rh0 2.811214 1_555
Bi1 Rh2 2.825411 1_556
Bi1 Rh2 2.825411 1_555
Bi1 Er1 3.210280 1_555
Bi1 Er1 3.210280 1_556
Bi1 Er2 3.316587 1_556
Bi1 Er2 3.316587 1_555
Bi1 Er0 3.316587 1_455
Bi1 Er0 3.316587 1_456
Bi2 Rh0 2.811217 1_555
Bi2 Rh1 2.811217 1_555
Bi2 Rh2 2.825411 1_665
Bi2 Rh2 2.825411 1_666
Bi2 Er2 3.210281 1_556
Bi2 Er2 3.210281 1_555
Bi2 Er1 3.316587 1_656
Bi2 Er0 3.316587 1_566
Bi2 Er1 3.316587 1_655
Bi2 Er0 3.316587 1_565
