# generated using pymatgen
data_Sm3Si6N11
_symmetry_space_group_name_H-M   'P 1'
_cell_length_a   10.00990917
_cell_length_b   10.00990917
_cell_length_c   4.85467583
_cell_angle_alpha   90.00000000
_cell_angle_beta   90.00000000
_cell_angle_gamma   90.00000000
_symmetry_Int_Tables_number   1
_chemical_formula_structural   Sm3Si6N11
_chemical_formula_sum   'Sm6 Si12 N22'
_cell_volume   486.43017585
_cell_formula_units_Z   2
loop_
 _symmetry_equiv_pos_site_id
 _symmetry_equiv_pos_as_xyz
  1  'x, y, z'
loop_
 _atom_site_type_symbol
 _atom_site_label
 _atom_site_symmetry_multiplicity
 _atom_site_fract_x
 _atom_site_fract_y
 _atom_site_fract_z
 _atom_site_occupancy
  Sm  Sm0  1  0.50000000  0.50000000  0.98313770  1
  Sm  Sm1  1  0.00000000  0.00000000  0.98313770  1
  Sm  Sm2  1  0.81784446  0.31784446  0.99818989  1
  Sm  Sm3  1  0.31784446  0.18215554  0.99818989  1
  Sm  Sm4  1  0.68215554  0.81784446  0.99818989  1
  Sm  Sm5  1  0.18215554  0.68215554  0.99818989  1
  Si  Si0  1  0.38195250  0.88195250  0.04339066  1
  Si  Si1  1  0.88195250  0.61804750  0.04339066  1
  Si  Si2  1  0.11804750  0.38195250  0.04339066  1
  Si  Si3  1  0.61804750  0.11804750  0.04339066  1
  Si  Si4  1  0.70874807  0.57933495  0.53243888  1
  Si  Si5  1  0.29125193  0.42066505  0.53243888  1
  Si  Si6  1  0.42066505  0.70874807  0.53243888  1
  Si  Si7  1  0.57933495  0.29125193  0.53243888  1
  Si  Si8  1  0.92066505  0.79125193  0.53243888  1
  Si  Si9  1  0.79125193  0.07933495  0.53243888  1
  Si  Si10  1  0.20874807  0.92066505  0.53243888  1
  Si  Si11  1  0.07933495  0.20874807  0.53243888  1
  N  N0  1  0.50000000  0.00000000  0.07292122  1
  N  N1  1  0.00000000  0.50000000  0.07292122  1
  N  N2  1  0.34694673  0.84694673  0.69649957  1
  N  N3  1  0.84694673  0.65305327  0.69649957  1
  N  N4  1  0.15305327  0.34694673  0.69649957  1
  N  N5  1  0.65305327  0.15305327  0.69649957  1
  N  N6  1  0.72728290  0.57722227  0.17893665  1
  N  N7  1  0.27271710  0.42277773  0.17893665  1
  N  N8  1  0.42277773  0.72728290  0.17893665  1
  N  N9  1  0.57722227  0.27271710  0.17893665  1
  N  N10  1  0.92277773  0.77271710  0.17893665  1
  N  N11  1  0.77271710  0.07722227  0.17893665  1
  N  N12  1  0.22728290  0.92277773  0.17893665  1
  N  N13  1  0.07722227  0.22728290  0.17893665  1
  N  N14  1  0.57950325  0.68018996  0.64770542  1
  N  N15  1  0.42049675  0.31981004  0.64770542  1
  N  N16  1  0.31981004  0.57950325  0.64770542  1
  N  N17  1  0.68018996  0.42049675  0.64770542  1
  N  N18  1  0.18018996  0.07950325  0.64770542  1
  N  N19  1  0.07950325  0.81981004  0.64770542  1
  N  N20  1  0.92049675  0.18018996  0.64770542  1
  N  N21  1  0.81981004  0.92049675  0.64770542  1
loop_
_geom_bond_atom_site_label_1
_geom_bond_atom_site_label_2
_geom_bond_distance
_geom_bond_site_symmetry_2
N0 Si3 1.677236 1_555
N0 Si0 1.677236 1_545
N0 Sm3 2.604018 1_554
N0 Sm4 2.604018 1_544
N1 Si1 1.677236 1_455
N1 Si2 1.677236 1_555
N1 Sm2 2.604018 1_454
N1 Sm5 2.604018 1_554
N2 Si0 1.755440 1_556
N2 Si10 1.758562 1_555
N2 Si6 1.758562 1_555
N2 Sm5 2.754465 1_555
N3 Si1 1.755440 1_556
N3 Si4 1.758562 1_555
N3 Si8 1.758562 1_555
N3 Sm4 2.754465 1_555
N4 Si2 1.755440 1_556
N4 Si11 1.758562 1_555
N4 Si5 1.758562 1_555
N4 Sm3 2.754465 1_555
N5 Si3 1.755440 1_556
N5 Si7 1.758562 1_555
N5 Si9 1.758562 1_555
N5 Sm2 2.754465 1_555
N6 Si4 1.726268 1_555
N6 Si1 1.731190 1_555
N6 Sm0 2.583995 1_554
N6 Sm4 2.602957 1_554
N6 Sm2 2.886648 1_554
N7 Si5 1.726268 1_555
N7 Si2 1.731190 1_555
N7 Sm0 2.583995 1_554
N7 Sm3 2.602957 1_554
N7 Sm5 2.886648 1_554
N8 Si6 1.726268 1_555
N8 Si0 1.731190 1_555
N8 Sm0 2.583995 1_554
N8 Sm5 2.602957 1_554
N8 Sm4 2.886648 1_554
N9 Si7 1.726268 1_555
N9 Si3 1.731190 1_555
N9 Sm0 2.583995 1_554
N9 Sm2 2.602957 1_554
N9 Sm3 2.886648 1_554
N10 Si8 1.726268 1_555
N10 Si1 1.731190 1_555
N10 Sm1 2.583995 1_664
N10 Sm4 2.602957 1_554
N10 Sm5 2.886648 1_654
N11 Si9 1.726268 1_555
N11 Si3 1.731190 1_555
N11 Sm1 2.583995 1_654
N11 Sm2 2.602957 1_554
N11 Sm4 2.886648 1_544
N12 Si10 1.726268 1_555
N12 Si0 1.731190 1_555
N12 Sm1 2.583995 1_564
N12 Sm5 2.602957 1_554
N12 Sm3 2.886648 1_564
N13 Si11 1.726268 1_555
N13 Si2 1.731190 1_555
N13 Sm1 2.583995 1_554
N13 Sm3 2.602957 1_554
N13 Sm2 2.886648 1_454
N14 Si6 1.709623 1_555
N14 Si4 1.733798 1_555
N14 Sm4 2.418581 1_555
N14 Sm0 2.557019 1_555
N15 Si7 1.709623 1_555
N15 Si5 1.733798 1_555
N15 Sm3 2.418581 1_555
N15 Sm0 2.557019 1_555
N16 Si5 1.709623 1_555
N16 Si6 1.733798 1_555
N16 Sm5 2.418581 1_555
N16 Sm0 2.557019 1_555
N17 Si4 1.709623 1_555
N17 Si7 1.733798 1_555
N17 Sm2 2.418581 1_555
N17 Sm0 2.557019 1_555
N18 Si10 1.709623 1_545
N18 Si11 1.733798 1_555
N18 Sm3 2.418581 1_555
N18 Sm1 2.557019 1_555
N19 Si8 1.709623 1_455
N19 Si10 1.733798 1_555
N19 Sm5 2.418581 1_555
N19 Sm1 2.557019 1_565
N20 Si11 1.709623 1_655
N20 Si9 1.733798 1_555
N20 Sm2 2.418581 1_555
N20 Sm1 2.557019 1_655
N21 Si9 1.709623 1_565
N21 Si8 1.733798 1_555
N21 Sm4 2.418581 1_555
N21 Sm1 2.557019 1_665
