# generated using pymatgen
data_Rb4Ca(Se2O7)2
_symmetry_space_group_name_H-M   'P 1'
_cell_length_a   8.21544379
_cell_length_b   8.68633608
_cell_length_c   7.91020610
_cell_angle_alpha   89.85605741
_cell_angle_beta   82.53012892
_cell_angle_gamma   56.80734748
_symmetry_Int_Tables_number   1
_chemical_formula_structural   Rb4Ca(Se2O7)2
_chemical_formula_sum   'Rb4 Ca1 Se4 O14'
_cell_volume   466.76857001
_cell_formula_units_Z   1
loop_
 _symmetry_equiv_pos_site_id
 _symmetry_equiv_pos_as_xyz
  1  'x, y, z'
loop_
 _atom_site_type_symbol
 _atom_site_label
 _atom_site_symmetry_multiplicity
 _atom_site_fract_x
 _atom_site_fract_y
 _atom_site_fract_z
 _atom_site_occupancy
  Rb  Rb0  1  0.12615400  0.60499800  0.29835100  1
  Rb  Rb1  1  0.53475600  0.79415200  0.14675300  1
  Rb  Rb2  1  0.74678200  0.47453800  0.61601600  1
  Rb  Rb3  1  0.63771700  0.18953200  0.00552500  1
  Ca  Ca0  1  0.30826900  0.22892400  0.67560900  1
  Se  Se0  1  0.67856700  0.10777500  0.44130100  1
  Se  Se1  1  0.99228800  0.29718900  0.08204100  1
  Se  Se2  1  0.25660300  0.89438100  0.62239400  1
  Se  Se3  1  0.08861100  0.68266300  0.83715300  1
  O  O0  1  0.61551900  0.16328600  0.66366300  1
  O  O1  1  0.80667200  0.40308500  0.96539500  1
  O  O2  1  0.36016600  0.72364600  0.47109200  1
  O  O3  1  0.29787800  0.58575400  0.91272600  1
  O  O4  1  0.44132900  0.24320900  0.38821400  1
  O  O5  1  0.92079700  0.43179900  0.26314000  1
  O  O6  1  0.40888000  0.87889200  0.74908300  1
  O  O7  1  0.09265000  0.55690500  0.67666100  1
  O  O8  1  0.72932600  0.89151200  0.41161800  1
  O  O9  1  0.19251900  0.28349300  0.97005300  1
  O  O10  1  0.13601200  0.10597500  0.55836400  1
  O  O11  1  0.88752000  0.78007400  0.97837200  1
  O  O12  1  0.04654600  0.08658200  0.11701100  1
  O  O13  1  0.05277200  0.89163900  0.74113300  1
loop_
_geom_bond_atom_site_label_1
_geom_bond_atom_site_label_2
_geom_bond_distance
_geom_bond_site_symmetry_2
Rb3 Se0 3.539329 1_555
Ca0 O0 2.251231 1_555
Ca0 O9 2.343046 1_555
Ca0 O7 2.392724 1_555
Ca0 O4 2.424758 1_555
Ca0 O10 2.450397 1_555
Ca0 O6 2.762235 1_545
O0 Se0 1.757424 1_555
O0 Rb3 2.752230 1_556
O0 Rb2 3.419958 1_555
O1 Se1 1.687783 1_556
O1 Rb3 2.858336 1_556
O1 Rb2 2.876752 1_555
O1 Rb1 3.077354 1_556
O2 Se2 1.648740 1_555
O2 Rb1 3.001958 1_555
O2 Rb0 3.079750 1_555
O2 Rb2 3.081216 1_555
O3 Se3 1.643718 1_555
O3 Rb0 3.154118 1_556
O3 Rb3 3.190340 1_556
O4 Se0 1.748945 1_555
O4 Rb0 2.940012 1_555
O4 Rb3 3.146055 1_555
O5 Se1 1.673921 1_555
O5 Rb0 2.844409 1_655
O5 Rb2 2.891300 1_555
O5 Rb1 3.260015 1_555
O6 Se2 1.651800 1_555
O6 Rb2 3.119918 1_555
O6 Rb1 3.392210 1_556
O7 Se3 1.662049 1_555
O7 Rb0 3.018418 1_555
O7 Rb2 3.376089 1_455
O8 Se0 1.696160 1_565
O8 Rb0 2.827197 1_655
O8 Rb1 3.165402 1_555
O9 Se1 1.706525 1_456
O9 Rb3 3.334572 1_556
O10 Se2 1.657788 1_545
O10 Rb2 3.016922 1_455
O11 Se3 1.639343 1_655
O11 Rb1 2.966002 1_556
O11 Rb3 2.967344 1_566
O11 Rb0 3.251024 1_656
O12 Se1 1.660900 1_455
O12 Rb3 3.214949 1_455
O12 Rb1 3.417879 1_545
O13 Se2 1.822504 1_555
O13 Se3 1.850593 1_555
O13 Rb3 3.347974 1_466
