# generated using pymatgen
data_VCrO3
_symmetry_space_group_name_H-M   'P 1'
_cell_length_a   5.11809900
_cell_length_b   5.50042667
_cell_length_c   8.82918951
_cell_angle_alpha   105.49564475
_cell_angle_beta   89.93937640
_cell_angle_gamma   117.65709477
_symmetry_Int_Tables_number   1
_chemical_formula_structural   VCrO3
_chemical_formula_sum   'V4 Cr4 O12'
_cell_volume   209.94192075
_cell_formula_units_Z   4
loop_
 _symmetry_equiv_pos_site_id
 _symmetry_equiv_pos_as_xyz
  1  'x, y, z'
loop_
 _atom_site_type_symbol
 _atom_site_label
 _atom_site_symmetry_multiplicity
 _atom_site_fract_x
 _atom_site_fract_y
 _atom_site_fract_z
 _atom_site_occupancy
  V  V0  1  0.27390400  0.12689100  0.42552200  1
  V  V1  1  0.78076000  0.62925200  0.92474600  1
  V  V2  1  0.47768500  0.12274500  0.82643200  1
  V  V3  1  0.72261200  0.87186600  0.57360500  1
  Cr  Cr0  1  0.97586500  0.62909900  0.32452600  1
  Cr  Cr1  1  0.02393100  0.37053400  0.67542700  1
  Cr  Cr2  1  0.52277000  0.87258100  0.17387700  1
  Cr  Cr3  1  0.22695500  0.37630300  0.07572800  1
  O  O0  1  0.52705100  0.47559200  0.27657700  1
  O  O1  1  0.02582200  0.97429800  0.77612500  1
  O  O2  1  0.57275400  0.12563900  0.62618400  1
  O  O3  1  0.93311400  0.37519800  0.87566600  1
  O  O4  1  0.47552600  0.22665400  0.02610500  1
  O  O5  1  0.97092800  0.71970900  0.52687100  1
  O  O6  1  0.02547500  0.27855800  0.47280400  1
  O  O7  1  0.52408800  0.77524700  0.97459200  1
  O  O8  1  0.07302400  0.62551100  0.12523400  1
  O  O9  1  0.42485100  0.87397100  0.37318400  1
  O  O10  1  0.97149100  0.02546000  0.22387300  1
  O  O11  1  0.47139200  0.52489300  0.72292200  1
loop_
_geom_bond_atom_site_label_1
_geom_bond_atom_site_label_2
_geom_bond_distance
_geom_bond_site_symmetry_2
Cr0 O5 1.725281 1_555
Cr0 O8 1.825518 1_655
Cr0 O9 2.024557 1_655
Cr0 O0 2.044304 1_555
Cr0 O10 2.573701 1_565
Cr1 O6 1.725280 1_555
Cr1 O3 1.824128 1_455
Cr1 O2 2.034034 1_455
Cr1 O11 2.036705 1_555
Cr2 O7 1.697818 1_554
Cr2 O9 1.828205 1_555
Cr2 O8 2.028780 1_555
Cr2 O10 2.046286 1_565
Cr2 O0 2.587136 1_555
Cr3 O4 1.807297 1_555
Cr3 O8 1.836403 1_555
Cr3 O0 2.124049 1_555
Cr3 O3 2.318036 1_454
Cr3 O7 2.423095 1_554
Cr3 O10 2.479350 1_455
O0 V0 2.474658 1_555
O0 V3 2.748861 1_555
O1 V2 2.065865 1_565
O1 V3 2.139818 1_455
O1 V1 2.452422 1_455
O2 V2 1.835471 1_555
O2 V3 1.843668 1_545
O2 V0 2.345303 1_555
O3 V1 1.853606 1_555
O3 V2 2.055523 1_555
O4 V2 1.703587 1_554
O5 V3 1.813210 1_555
O6 V0 1.812293 1_555
O7 V1 1.831276 1_555
O8 V1 2.329165 1_454
O9 V0 1.843705 1_565
O9 V3 2.342430 1_555
O10 V0 2.133101 1_655
O10 V1 2.762699 1_544
O11 V1 2.151173 1_555
O11 V3 2.469079 1_555
