# generated using pymatgen
data_TlV4FeS8
_symmetry_space_group_name_H-M   'P 1'
_cell_length_a   3.30393000
_cell_length_b   8.51072500
_cell_length_c   8.89773930
_cell_angle_alpha   105.51806524
_cell_angle_beta   100.69969108
_cell_angle_gamma   90.00000000
_symmetry_Int_Tables_number   1
_chemical_formula_structural   TlV4FeS8
_chemical_formula_sum   'Tl1 V4 Fe1 S8'
_cell_volume   236.55598552
_cell_formula_units_Z   1
loop_
 _symmetry_equiv_pos_site_id
 _symmetry_equiv_pos_as_xyz
  1  'x, y, z'
loop_
 _atom_site_type_symbol
 _atom_site_label
 _atom_site_symmetry_multiplicity
 _atom_site_fract_x
 _atom_site_fract_y
 _atom_site_fract_z
 _atom_site_occupancy
  Tl  Tl0  1  0.50000000  0.00000000  0.00000000  1
  V  V0  1  0.71166600  0.85951800  0.42333200  1
  V  V1  1  0.28833400  0.14048200  0.57666800  1
  V  V2  1  0.64651900  0.50288800  0.29303800  1
  V  V3  1  0.35348100  0.49711200  0.70696200  1
  Fe  Fe0  1  0.00000000  0.50000000  0.00000000  1
  S  S0  1  0.84143200  0.00761100  0.68286400  1
  S  S1  1  0.15856800  0.99238900  0.31713600  1
  S  S2  1  0.75846100  0.33667700  0.51692200  1
  S  S3  1  0.24153900  0.66332300  0.48307800  1
  S  S4  1  0.91865600  0.67384600  0.83731300  1
  S  S5  1  0.08134400  0.32615400  0.16268700  1
  S  S6  1  0.56827600  0.66966700  0.13655300  1
  S  S7  1  0.43172400  0.33033300  0.86344700  1
loop_
_geom_bond_atom_site_label_1
_geom_bond_atom_site_label_2
_geom_bond_distance
_geom_bond_site_symmetry_2
Fe0 S6 2.302318 1_555
Fe0 S7 2.302318 1_454
Fe0 S6 2.302321 1_455
Fe0 S7 2.302321 1_554
Fe0 S4 2.314790 1_454
Fe0 S5 2.314790 1_555
S0 V0 2.275959 1_545
S0 V1 2.332719 1_555
S0 V1 2.332720 1_655
S1 V1 2.275959 1_565
S1 V0 2.332719 1_555
S1 V0 2.332720 1_455
S2 V3 2.473583 1_655
S2 V3 2.473583 1_555
S2 V1 2.502983 1_655
S2 V1 2.502983 1_555
S2 V2 2.709312 1_555
S3 V2 2.473583 1_455
S3 V2 2.473583 1_555
S3 V0 2.502983 1_455
S3 V0 2.502983 1_555
S3 V3 2.709312 1_555
S4 V3 2.314468 1_555
S4 V3 2.314470 1_655
S5 V2 2.314468 1_555
S5 V2 2.314470 1_455
S6 V2 2.223528 1_555
S6 V0 2.586745 1_555
S7 V3 2.223528 1_555
S7 V1 2.586745 1_555
