# generated using pymatgen
data_Ba2LiTbSnO6
_symmetry_space_group_name_H-M   'P 1'
_cell_length_a   6.06011442
_cell_length_b   6.25670040
_cell_length_c   6.02996339
_cell_angle_alpha   61.19170972
_cell_angle_beta   90.00000000
_cell_angle_gamma   118.96596323
_symmetry_Int_Tables_number   1
_chemical_formula_structural   Ba2LiTbSnO6
_chemical_formula_sum   'Ba2 Li1 Tb1 Sn1 O6'
_cell_volume   166.95833393
_cell_formula_units_Z   1
loop_
 _symmetry_equiv_pos_site_id
 _symmetry_equiv_pos_as_xyz
  1  'x, y, z'
loop_
 _atom_site_type_symbol
 _atom_site_label
 _atom_site_symmetry_multiplicity
 _atom_site_fract_x
 _atom_site_fract_y
 _atom_site_fract_z
 _atom_site_occupancy
  Ba  Ba0  1  0.79014300  0.58028700  0.70985700  1
  Ba  Ba1  1  0.20985700  0.41971300  0.29014300  1
  Li  Li0  1  0.50000000  0.00000000  0.00000000  1
  Tb  Tb0  1  0.00000000  0.00000000  0.00000000  1
  Sn  Sn0  1  0.50000000  0.00000000  0.50000000  1
  O  O0  1  0.26649500  0.00000000  0.25011400  1
  O  O1  1  0.73350500  0.00000000  0.74988600  1
  O  O2  1  0.26012300  0.52024600  0.73987700  1
  O  O3  1  0.73987700  0.47975400  0.26012300  1
  O  O4  1  0.26649500  0.00000000  0.74988600  1
  O  O5  1  0.73350500  0.00000000  0.25011400  1
loop_
_geom_bond_atom_site_label_1
_geom_bond_atom_site_label_2
_geom_bond_distance
_geom_bond_site_symmetry_2
Ba0 Li0 2.651279 1_556
Ba0 O1 2.925054 1_565
Ba0 O5 2.925057 1_565
Ba0 O4 2.925057 1_665
Ba0 O0 2.925060 1_665
Ba0 O2 3.042447 1_555
Ba0 O2 3.042453 1_655
Ba0 O3 3.049767 1_556
Ba0 O3 3.049773 1_555
Ba1 Li0 2.651279 1_565
Ba1 O0 2.925054 1_555
Ba1 O4 2.925057 1_555
Ba1 O5 2.925057 1_455
Ba1 O1 2.925060 1_455
Ba1 O3 3.042447 1_555
Ba1 O3 3.042453 1_455
Ba1 O2 3.049767 1_554
Ba1 O2 3.049773 1_555
Li0 O5 2.068095 1_555
Li0 O0 2.068095 1_555
Li0 O1 2.068095 1_554
Li0 O4 2.068095 1_554
O0 Sn0 2.067092 1_555
O0 Tb0 2.209705 1_555
O1 Sn0 2.067092 1_555
O1 Tb0 2.209705 1_656
O2 Sn0 2.191953 1_565
O2 Tb0 2.376957 1_556
O3 Sn0 2.191953 1_555
O3 Tb0 2.376957 1_665
O4 Sn0 2.067092 1_555
O4 Tb0 2.209705 1_556
O5 Sn0 2.067092 1_555
O5 Tb0 2.209705 1_655
