# generated using pymatgen
data_Bi3Te2S
_symmetry_space_group_name_H-M   'P 1'
_cell_length_a   4.37858042
_cell_length_b   4.37858042
_cell_length_c   24.58757500
_cell_angle_alpha   90.00000000
_cell_angle_beta   90.00000000
_cell_angle_gamma   120.00000638
_symmetry_Int_Tables_number   1
_chemical_formula_structural   Bi3Te2S
_chemical_formula_sum   'Bi6 Te4 S2'
_cell_volume   408.23756340
_cell_formula_units_Z   2
loop_
 _symmetry_equiv_pos_site_id
 _symmetry_equiv_pos_as_xyz
  1  'x, y, z'
loop_
 _atom_site_type_symbol
 _atom_site_label
 _atom_site_symmetry_multiplicity
 _atom_site_fract_x
 _atom_site_fract_y
 _atom_site_fract_z
 _atom_site_occupancy
  Bi  Bi0  1  0.00000000  0.00000000  0.88340700  1
  Bi  Bi1  1  0.00000000  0.00000000  0.11659300  1
  Bi  Bi2  1  0.66666700  0.33333300  0.71253100  1
  Bi  Bi3  1  0.33333300  0.66666700  0.28746900  1
  Bi  Bi4  1  0.33333300  0.66666700  0.53519000  1
  Bi  Bi5  1  0.66666700  0.33333300  0.46481000  1
  Te  Te0  1  0.33333300  0.66666700  0.79661300  1
  Te  Te1  1  0.66666700  0.33333300  0.20338700  1
  Te  Te2  1  0.00000000  0.00000000  0.63926100  1
  Te  Te3  1  0.00000000  0.00000000  0.36073900  1
  S  S0  1  0.66666700  0.33333300  0.93330200  1
  S  S1  1  0.33333300  0.66666700  0.06669800  1
loop_
_geom_bond_atom_site_label_1
_geom_bond_atom_site_label_2
_geom_bond_distance
_geom_bond_site_symmetry_2
Bi0 S0 2.809924 1_455
Bi0 S0 2.809927 1_555
Bi0 S0 2.809927 1_445
Bi0 Te0 3.308297 1_545
Bi0 Te0 3.308300 1_445
Bi0 Te0 3.308300 1_555
Bi1 S1 2.809924 1_545
Bi1 S1 2.809927 1_555
Bi1 S1 2.809927 1_445
Bi1 Te1 3.308297 1_455
Bi1 Te1 3.308300 1_445
Bi1 Te1 3.308300 1_555
Bi2 Te2 3.104216 1_655
Bi2 Te2 3.104219 1_555
Bi2 Te2 3.104219 1_665
Bi2 Te0 3.265681 1_545
Bi2 Te0 3.265681 1_655
Bi2 Te0 3.265687 1_555
Bi3 Te3 3.104216 1_565
Bi3 Te3 3.104219 1_665
Bi3 Te3 3.104219 1_555
Bi3 Te1 3.265681 1_455
Bi3 Te1 3.265681 1_565
Bi3 Te1 3.265687 1_555
Bi4 Bi5 3.063524 1_455
Bi4 Bi5 3.063524 1_565
Bi4 Bi5 3.063531 1_555
Bi4 Te2 3.596995 1_565
Bi4 Te2 3.596998 1_665
Bi4 Te2 3.596998 1_555
Bi5 Te3 3.596995 1_655
Bi5 Te3 3.596998 1_555
Bi5 Te3 3.596998 1_665
