# generated using pymatgen
data_BaNa2Pb
_symmetry_space_group_name_H-M   'P 1'
_cell_length_a   13.91566209
_cell_length_b   14.92405555
_cell_length_c   14.92405561
_cell_angle_alpha   62.29337556
_cell_angle_beta   62.21106253
_cell_angle_gamma   62.21106192
_symmetry_Int_Tables_number   1
_chemical_formula_structural   BaNa2Pb
_chemical_formula_sum   'Ba1 Na2 Pb1'
_cell_volume   2301.14579553
_cell_formula_units_Z   1
loop_
 _symmetry_equiv_pos_site_id
 _symmetry_equiv_pos_as_xyz
  1  'x, y, z'
loop_
 _atom_site_type_symbol
 _atom_site_label
 _atom_site_symmetry_multiplicity
 _atom_site_fract_x
 _atom_site_fract_y
 _atom_site_fract_z
 _atom_site_occupancy
  Ba  Ba0  1  -0.00000000  -0.00000000  0.00000000  1
  Na  Na0  1  0.71514252  1.00000000  0.00000000  1
  Na  Na1  1  0.28485748  0.00000000  1.00000000  1
  Pb  Pb0  1  0.50000000  -0.00000000  0.00000000  1
loop_
_geom_bond_atom_site_label_1
_geom_bond_atom_site_label_2
_geom_bond_distance
_geom_bond_site_symmetry_2
Ba0 Na0 3.963980 1_445
Ba0 Na1 3.963980 1_554
Na0 Pb0 2.993851 1_565
Na1 Pb0 2.993851 1_556
