# generated using pymatgen
data_La2Ti2ZnO8
_symmetry_space_group_name_H-M   'P 1'
_cell_length_a   3.72331200
_cell_length_b   3.72331200
_cell_length_c   12.78626200
_cell_angle_alpha   90.00000000
_cell_angle_beta   90.00000000
_cell_angle_gamma   90.00000000
_symmetry_Int_Tables_number   1
_chemical_formula_structural   La2Ti2ZnO8
_chemical_formula_sum   'La2 Ti2 Zn1 O8'
_cell_volume   177.25661818
_cell_formula_units_Z   1
loop_
 _symmetry_equiv_pos_site_id
 _symmetry_equiv_pos_as_xyz
  1  'x, y, z'
loop_
 _atom_site_type_symbol
 _atom_site_label
 _atom_site_symmetry_multiplicity
 _atom_site_fract_x
 _atom_site_fract_y
 _atom_site_fract_z
 _atom_site_occupancy
  La  La0  1  0.00000000  0.50000000  0.38618900  1
  La  La1  1  0.50000000  0.00000000  0.61381100  1
  Ti  Ti0  1  0.00000000  0.50000000  0.79026200  1
  Ti  Ti1  1  0.50000000  0.00000000  0.20973800  1
  Zn  Zn0  1  0.50000000  0.50000000  0.00000000  1
  O  O0  1  0.50000000  0.50000000  0.25001900  1
  O  O1  1  0.00000000  0.00000000  0.74649300  1
  O  O2  1  0.50000000  0.50000000  0.74998100  1
  O  O3  1  0.00000000  0.00000000  0.25350700  1
  O  O4  1  0.00000000  0.50000000  0.93194000  1
  O  O5  1  0.50000000  0.00000000  0.06806000  1
  O  O6  1  0.00000000  0.50000000  0.57284400  1
  O  O7  1  0.50000000  0.00000000  0.42715600  1
loop_
_geom_bond_atom_site_label_1
_geom_bond_atom_site_label_2
_geom_bond_distance
_geom_bond_site_symmetry_2
La0 O6 2.386620 1_555
La0 O3 2.518710 1_565
La0 O3 2.518710 1_555
La0 O0 2.548963 1_455
La0 O0 2.548963 1_555
La0 O7 2.684382 1_555
La0 O7 2.684382 1_565
La0 O7 2.684382 1_465
La0 O7 2.684382 1_455
La1 O7 2.386620 1_555
La1 O1 2.518710 1_655
La1 O1 2.518710 1_555
La1 O2 2.548963 1_555
La1 O2 2.548963 1_545
La1 O6 2.684382 1_655
La1 O6 2.684382 1_545
La1 O6 2.684382 1_555
La1 O6 2.684382 1_645
O0 Ti1 1.931588 1_565
O0 Ti1 1.931588 1_555
O1 Ti0 1.943955 1_545
O1 Ti0 1.943955 1_555
O2 Ti0 1.931588 1_655
O2 Ti0 1.931588 1_555
O3 Ti1 1.943955 1_455
O3 Ti1 1.943955 1_555
O4 Ti0 1.811532 1_555
O4 Zn0 2.055011 1_456
O4 Zn0 2.055011 1_556
O5 Ti1 1.811532 1_555
O5 Zn0 2.055011 1_545
O5 Zn0 2.055011 1_555
O6 Ti0 2.779964 1_555
O7 Ti1 2.779964 1_555
