# generated using pymatgen
data_TbSbPd
_symmetry_space_group_name_H-M   'P 1'
_cell_length_a   4.91358462
_cell_length_b   4.91358462
_cell_length_c   7.99808898
_cell_angle_alpha   89.31248436
_cell_angle_beta   89.31248436
_cell_angle_gamma   59.51040173
_symmetry_Int_Tables_number   1
_chemical_formula_structural   TbSbPd
_chemical_formula_sum   'Tb2 Sb2 Pd2'
_cell_volume   166.38280652
_cell_formula_units_Z   2
loop_
 _symmetry_equiv_pos_site_id
 _symmetry_equiv_pos_as_xyz
  1  'x, y, z'
loop_
 _atom_site_type_symbol
 _atom_site_label
 _atom_site_symmetry_multiplicity
 _atom_site_fract_x
 _atom_site_fract_y
 _atom_site_fract_z
 _atom_site_occupancy
  Tb  Tb0  1  0.33779000  0.33779000  0.35967700  1
  Tb  Tb1  1  0.66221000  0.66221000  0.64032300  1
  Sb  Sb0  1  0.99163100  0.99163100  0.80842200  1
  Sb  Sb1  1  0.00836900  0.00836900  0.19157800  1
  Pd  Pd0  1  0.67084900  0.67084900  0.27992800  1
  Pd  Pd1  1  0.32915100  0.32915100  0.72007200  1
loop_
_geom_bond_atom_site_label_1
_geom_bond_atom_site_label_2
_geom_bond_distance
_geom_bond_site_symmetry_2
Sb0 Sb1 3.069812 1_666
Sb0 Tb1 3.132204 1_555
Sb0 Tb1 3.133387 1_565
Sb0 Tb1 3.133387 1_655
Sb1 Tb0 3.132204 1_555
Sb1 Tb0 3.133387 1_455
Sb1 Tb0 3.133387 1_545
Pd0 Tb1 2.882395 1_555
Pd0 Sb1 2.897355 1_655
Pd0 Sb1 2.897355 1_565
Pd0 Tb0 2.899513 1_565
Pd0 Tb0 2.899513 1_655
Pd0 Tb0 2.903586 1_555
Pd0 Sb1 2.955484 1_665
Pd1 Tb0 2.882395 1_555
Pd1 Sb0 2.897355 1_455
Pd1 Sb0 2.897355 1_545
Pd1 Tb1 2.899513 1_545
Pd1 Tb1 2.899513 1_455
Pd1 Tb1 2.903586 1_555
Pd1 Sb0 2.955484 1_445
