# generated using pymatgen
data_Mo4N2O15
_symmetry_space_group_name_H-M   'P 1'
_cell_length_a   8.08023893
_cell_length_b   9.99391735
_cell_length_c   10.85683465
_cell_angle_alpha   113.06304116
_cell_angle_beta   97.93135717
_cell_angle_gamma   110.25584134
_symmetry_Int_Tables_number   1
_chemical_formula_structural   Mo4N2O15
_chemical_formula_sum   'Mo8 N4 O30'
_cell_volume   717.73923824
_cell_formula_units_Z   2
loop_
 _symmetry_equiv_pos_site_id
 _symmetry_equiv_pos_as_xyz
  1  'x, y, z'
loop_
 _atom_site_type_symbol
 _atom_site_label
 _atom_site_symmetry_multiplicity
 _atom_site_fract_x
 _atom_site_fract_y
 _atom_site_fract_z
 _atom_site_occupancy
  Mo  Mo0  1  0.75865925  0.57659215  0.56325799  1
  Mo  Mo1  1  0.24134075  0.42340785  0.43674201  1
  Mo  Mo2  1  0.61500310  0.37315828  0.77950682  1
  Mo  Mo3  1  0.38499690  0.62684172  0.22049318  1
  Mo  Mo4  1  0.45956970  0.64868609  0.79337356  1
  Mo  Mo5  1  0.54043030  0.35131391  0.20662644  1
  Mo  Mo6  1  0.55680043  0.81373881  0.58443873  1
  Mo  Mo7  1  0.44319957  0.18626119  0.41556127  1
  N  N0  1  0.95384671  0.11558352  0.65400537  1
  N  N1  1  0.04615329  0.88441648  0.34599463  1
  N  N2  1  0.09889126  0.82257606  0.03506933  1
  N  N3  1  0.90110874  0.17742394  0.96493067  1
  O  O0  1  0.72656729  0.76015373  0.68954758  1
  O  O1  1  0.27343271  0.23984627  0.31045242  1
  O  O2  1  0.35567869  0.66139319  0.61018816  1
  O  O3  1  0.64432131  0.33860681  0.38981184  1
  O  O4  1  0.54817368  0.19244257  0.57944671  1
  O  O5  1  0.45182632  0.80755743  0.42055329  1
  O  O6  1  0.62899437  0.58743943  0.87265422  1
  O  O7  1  0.37100563  0.41256057  0.12734578  1
  O  O8  1  0.43417656  0.42379749  0.58062806  1
  O  O9  1  0.56582344  0.57620251  0.41937194  1
  O  O10  1  0.80219427  0.49890206  0.68149222  1
  O  O11  1  0.19780573  0.50109794  0.31850778  1
  O  O12  1  0.54406794  0.84977954  0.91325469  1
  O  O13  1  0.45593206  0.15022046  0.08674531  1
  O  O14  1  0.59450393  -0.00203808  0.71153893  1
  O  O15  1  0.40549607  0.00203808  0.28846107  1
  O  O16  1  0.25077340  0.55026015  0.81056811  1
  O  O17  1  0.74922660  0.44973985  0.18943189  1
  O  O18  1  0.86917292  0.97531043  0.58020549  1
  O  O19  1  0.13082708  0.02468957  0.41979451  1
  O  O20  1  0.41003115  0.26543543  0.79861572  1
  O  O21  1  0.58996885  0.73456457  0.20138428  1
  O  O22  1  0.78876934  0.37210044  0.88912602  1
  O  O23  1  0.21123066  0.62789956  0.11087398  1
  O  O24  1  0.96560338  0.66272148  0.53758311  1
  O  O25  1  0.03439662  0.33727852  0.46241689  1
  O  O26  1  0.01805020  0.18381509  0.91652813  1
  O  O27  1  0.98194980  0.81618491  0.08347187  1
  O  O28  1  0.20860706  0.93199104  0.75437151  1
  O  O29  1  0.79139294  0.06800896  0.24562849  1
loop_
_geom_bond_atom_site_label_1
_geom_bond_atom_site_label_2
_geom_bond_distance
_geom_bond_site_symmetry_2
Mo0 O24 1.713103 1_555
Mo0 O10 1.794357 1_555
Mo0 O0 1.941487 1_555
Mo0 O9 2.046332 1_555
Mo0 O3 2.132064 1_555
Mo0 O8 2.613717 1_555
Mo1 O25 1.713103 1_555
Mo1 O11 1.794357 1_555
Mo1 O1 1.941487 1_555
Mo1 O8 2.046332 1_555
Mo1 O2 2.132064 1_555
Mo1 O9 2.613717 1_555
Mo2 O22 1.716652 1_555
Mo2 O20 1.726358 1_555
Mo2 O6 1.930173 1_555
Mo2 O4 2.049065 1_555
Mo2 O10 2.274901 1_555
Mo2 O8 2.747839 1_555
Mo3 O23 1.716652 1_555
Mo3 O21 1.726358 1_555
Mo3 O7 1.930173 1_555
Mo3 O5 2.049065 1_555
Mo3 O11 2.274901 1_555
Mo3 O9 2.747839 1_555
Mo4 O16 1.711868 1_555
Mo4 O12 1.718825 1_555
Mo4 O6 1.912453 1_555
Mo4 O2 2.118292 1_555
Mo4 O8 2.431258 1_555
Mo4 O0 2.675229 1_555
Mo5 O17 1.711868 1_555
Mo5 O13 1.718825 1_555
Mo5 O7 1.912453 1_555
Mo5 O3 2.118292 1_555
Mo5 O9 2.431258 1_555
Mo5 O1 2.675229 1_555
Mo6 O14 1.700514 1_565
Mo6 O5 1.830358 1_555
Mo6 O2 1.944952 1_555
Mo6 O0 2.006536 1_555
Mo6 O9 2.382256 1_555
Mo6 O18 2.499669 1_555
Mo7 O15 1.700514 1_555
Mo7 O4 1.830358 1_555
Mo7 O3 1.944952 1_555
Mo7 O1 2.006536 1_555
Mo7 O8 2.382256 1_555
Mo7 O19 2.499669 1_555
N0 O18 1.174685 1_545
N1 O19 1.174685 1_565
N2 O27 1.137820 1_455
N3 O26 1.137820 1_655
