# generated using pymatgen
data_Ho2Si3Pd
_symmetry_space_group_name_H-M   'P 1'
_cell_length_a   4.00236900
_cell_length_b   4.11914655
_cell_length_c   7.05896235
_cell_angle_alpha   89.99305637
_cell_angle_beta   90.00000000
_cell_angle_gamma   90.00000000
_symmetry_Int_Tables_number   1
_chemical_formula_structural   Ho2Si3Pd
_chemical_formula_sum   'Ho2 Si3 Pd1'
_cell_volume   116.37648401
_cell_formula_units_Z   1
loop_
 _symmetry_equiv_pos_site_id
 _symmetry_equiv_pos_as_xyz
  1  'x, y, z'
loop_
 _atom_site_type_symbol
 _atom_site_label
 _atom_site_symmetry_multiplicity
 _atom_site_fract_x
 _atom_site_fract_y
 _atom_site_fract_z
 _atom_site_occupancy
  Ho  Ho0  1  0.00000000  0.99995000  0.99171900  1
  Ho  Ho1  1  0.00000000  0.49994800  0.50608800  1
  Si  Si0  1  0.50000000  0.49995800  0.83596100  1
  Si  Si1  1  0.50000000  0.49998700  0.16772500  1
  Si  Si2  1  0.50000000  0.99995000  0.66659100  1
  Pd  Pd0  1  0.50000000  0.00000700  0.33191600  1
loop_
_geom_bond_atom_site_label_1
_geom_bond_atom_site_label_2
_geom_bond_distance
_geom_bond_site_symmetry_2
Ho0 Si2 3.045007 1_455
Ho0 Si2 3.045007 1_555
Ho0 Si0 3.074906 1_465
Ho0 Si0 3.074906 1_565
Ho0 Si0 3.075040 1_455
Ho0 Si0 3.075040 1_555
Ho0 Pd0 3.125963 1_566
Ho0 Pd0 3.125963 1_466
Ho0 Si1 3.128728 1_456
Ho0 Si1 3.128728 1_556
Ho0 Si1 3.129127 1_466
Ho0 Si1 3.129127 1_566
Ho1 Si0 3.070332 1_555
Ho1 Si0 3.070332 1_455
Ho1 Si2 3.087011 1_545
Ho1 Si2 3.087011 1_445
Ho1 Si2 3.087205 1_455
Ho1 Si2 3.087205 1_555
Ho1 Si1 3.116028 1_455
Ho1 Si1 3.116028 1_555
Ho1 Pd0 3.123748 1_555
Ho1 Pd0 3.123748 1_455
Ho1 Pd0 3.123872 1_565
Ho1 Pd0 3.123872 1_465
Si0 Si1 2.341910 1_556
Si0 Si2 2.381284 1_555
Si0 Si2 2.381591 1_545
Pd0 Si2 2.362458 1_545
Pd0 Si1 2.363101 1_555
Pd0 Si1 2.363490 1_545
