# generated using pymatgen
data_Nd3Fe5O12
_symmetry_space_group_name_H-M   'P 1'
_cell_length_a   11.06899978
_cell_length_b   11.06899978
_cell_length_c   11.06899978
_cell_angle_alpha   109.47122063
_cell_angle_beta   109.47122063
_cell_angle_gamma   109.47122063
_symmetry_Int_Tables_number   1
_chemical_formula_structural   Nd3Fe5O12
_chemical_formula_sum   'Nd12 Fe20 O48'
_cell_volume   1044.00660230
_cell_formula_units_Z   4
loop_
 _symmetry_equiv_pos_site_id
 _symmetry_equiv_pos_as_xyz
  1  'x, y, z'
loop_
 _atom_site_type_symbol
 _atom_site_label
 _atom_site_symmetry_multiplicity
 _atom_site_fract_x
 _atom_site_fract_y
 _atom_site_fract_z
 _atom_site_occupancy
  Nd  Nd0  1  0.12500000  0.37500000  0.75000000  1
  Nd  Nd1  1  0.37500000  0.12500000  0.25000000  1
  Nd  Nd2  1  0.37500000  0.75000000  0.12500000  1
  Nd  Nd3  1  0.12500000  0.25000000  0.37500000  1
  Nd  Nd4  1  0.75000000  0.12500000  0.37500000  1
  Nd  Nd5  1  0.25000000  0.37500000  0.12500000  1
  Nd  Nd6  1  0.87500000  0.62500000  0.25000000  1
  Nd  Nd7  1  0.62500000  0.87500000  0.75000000  1
  Nd  Nd8  1  0.62500000  0.25000000  0.87500000  1
  Nd  Nd9  1  0.87500000  0.75000000  0.62500000  1
  Nd  Nd10  1  0.25000000  0.87500000  0.62500000  1
  Nd  Nd11  1  0.75000000  0.62500000  0.87500000  1
  Fe  Fe0  1  0.00000000  0.50000000  0.00000000  1
  Fe  Fe1  1  0.00000000  0.00000000  0.50000000  1
  Fe  Fe2  1  0.50000000  0.00000000  0.00000000  1
  Fe  Fe3  1  0.50000000  0.50000000  0.50000000  1
  Fe  Fe4  1  0.50000000  0.50000000  0.00000000  1
  Fe  Fe5  1  0.50000000  0.00000000  0.50000000  1
  Fe  Fe6  1  0.00000000  0.50000000  0.50000000  1
  Fe  Fe7  1  0.00000000  0.00000000  0.00000000  1
  Fe  Fe8  1  0.37500000  0.62500000  0.75000000  1
  Fe  Fe9  1  0.12500000  0.87500000  0.25000000  1
  Fe  Fe10  1  0.62500000  0.75000000  0.37500000  1
  Fe  Fe11  1  0.87500000  0.25000000  0.12500000  1
  Fe  Fe12  1  0.75000000  0.37500000  0.62500000  1
  Fe  Fe13  1  0.25000000  0.12500000  0.87500000  1
  Fe  Fe14  1  0.62500000  0.37500000  0.25000000  1
  Fe  Fe15  1  0.87500000  0.12500000  0.75000000  1
  Fe  Fe16  1  0.37500000  0.25000000  0.62500000  1
  Fe  Fe17  1  0.12500000  0.75000000  0.87500000  1
  Fe  Fe18  1  0.25000000  0.62500000  0.37500000  1
  Fe  Fe19  1  0.75000000  0.87500000  0.12500000  1
  O  O0  1  0.02596700  0.32203400  0.90479000  1
  O  O1  1  0.91724400  0.12117700  0.59521000  1
  O  O2  1  0.58275600  0.17796600  0.20393300  1
  O  O3  1  0.47403300  0.37882300  0.29606700  1
  O  O4  1  0.32203400  0.90479000  0.02596700  1
  O  O5  1  0.12117700  0.59521000  0.91724400  1
  O  O6  1  0.17796600  0.20393300  0.58275600  1
  O  O7  1  0.37882300  0.29606700  0.47403300  1
  O  O8  1  0.90479000  0.02596700  0.32203400  1
  O  O9  1  0.59521000  0.91724400  0.12117700  1
  O  O10  1  0.20393300  0.58275600  0.17796600  1
  O  O11  1  0.29606700  0.47403300  0.37882300  1
  O  O12  1  0.97403300  0.67796600  0.09521000  1
  O  O13  1  0.08275600  0.87882300  0.40479000  1
  O  O14  1  0.41724400  0.82203400  0.79606700  1
  O  O15  1  0.52596700  0.62117700  0.70393300  1
  O  O16  1  0.67796600  0.09521000  0.97403300  1
  O  O17  1  0.87882300  0.40479000  0.08275600  1
  O  O18  1  0.82203400  0.79606700  0.41724400  1
  O  O19  1  0.62117700  0.70393300  0.52596700  1
  O  O20  1  0.09521000  0.97403300  0.67796600  1
  O  O21  1  0.40479000  0.08275600  0.87882300  1
  O  O22  1  0.79606700  0.41724400  0.82203400  1
  O  O23  1  0.70393300  0.52596700  0.62117700  1
  O  O24  1  0.52596700  0.40479000  0.82203400  1
  O  O25  1  0.41724400  0.09521000  0.62117700  1
  O  O26  1  0.08275600  0.70393300  0.67796600  1
  O  O27  1  0.97403300  0.79606700  0.87882300  1
  O  O28  1  0.82203400  0.52596700  0.40479000  1
  O  O29  1  0.62117700  0.41724400  0.09521000  1
  O  O30  1  0.67796600  0.08275600  0.70393300  1
  O  O31  1  0.87882300  0.97403300  0.79606700  1
  O  O32  1  0.40479000  0.82203400  0.52596700  1
  O  O33  1  0.09521000  0.62117700  0.41724400  1
  O  O34  1  0.70393300  0.67796600  0.08275600  1
  O  O35  1  0.79606700  0.87882300  0.97403300  1
  O  O36  1  0.47403300  0.59521000  0.17796600  1
  O  O37  1  0.58275600  0.90479000  0.37882300  1
  O  O38  1  0.91724400  0.29606700  0.32203400  1
  O  O39  1  0.02596700  0.20393300  0.12117700  1
  O  O40  1  0.17796600  0.47403300  0.59521000  1
  O  O41  1  0.37882300  0.58275600  0.90479000  1
  O  O42  1  0.32203400  0.91724400  0.29606700  1
  O  O43  1  0.12117700  0.02596700  0.20393300  1
  O  O44  1  0.59521000  0.17796600  0.47403300  1
  O  O45  1  0.90479000  0.37882300  0.58275600  1
  O  O46  1  0.29606700  0.32203400  0.91724400  1
  O  O47  1  0.20393300  0.12117700  0.02596700  1
loop_
_geom_bond_atom_site_label_1
_geom_bond_atom_site_label_2
_geom_bond_distance
_geom_bond_site_symmetry_2
Nd0 O41 2.444251 1_555
Nd0 O40 2.444251 1_555
Nd0 O0 2.444251 1_555
Nd0 O1 2.444251 1_455
Nd0 O46 2.546172 1_555
Nd0 O45 2.546172 1_455
Nd0 O6 2.546172 1_555
Nd0 O5 2.546172 1_555
Nd1 O2 2.444251 1_555
Nd1 O3 2.444251 1_555
Nd1 O42 2.444251 1_545
Nd1 O43 2.444251 1_555
Nd1 O47 2.546172 1_555
Nd1 O4 2.546172 1_545
Nd1 O7 2.546172 1_555
Nd1 O44 2.546172 1_555
Nd2 O37 2.444251 1_555
Nd2 O36 2.444251 1_555
Nd2 O4 2.444251 1_555
Nd2 O5 2.444251 1_554
Nd2 O42 2.546172 1_555
Nd2 O10 2.546172 1_555
Nd2 O41 2.546172 1_554
Nd2 O9 2.546172 1_555
Nd3 O6 2.444251 1_555
Nd3 O7 2.444251 1_555
Nd3 O38 2.444251 1_455
Nd3 O39 2.444251 1_555
Nd3 O43 2.546172 1_555
Nd3 O8 2.546172 1_455
Nd3 O11 2.546172 1_555
Nd3 O40 2.546172 1_555
Nd4 O45 2.444251 1_555
Nd4 O44 2.444251 1_555
Nd4 O8 2.444251 1_555
Nd4 O9 2.444251 1_545
Nd4 O38 2.546172 1_555
Nd4 O37 2.546172 1_545
Nd4 O2 2.546172 1_555
Nd4 O1 2.546172 1_555
Nd5 O10 2.444251 1_555
Nd5 O11 2.444251 1_555
Nd5 O46 2.444251 1_554
Nd5 O47 2.444251 1_555
Nd5 O39 2.546172 1_555
Nd5 O0 2.546172 1_554
Nd5 O3 2.546172 1_555
Nd5 O36 2.546172 1_555
Nd6 O12 2.444251 1_555
Nd6 O13 2.444251 1_655
Nd6 O29 2.444251 1_555
Nd6 O28 2.444251 1_555
Nd6 O17 2.546172 1_555
Nd6 O33 2.546172 1_655
Nd6 O34 2.546172 1_555
Nd6 O18 2.546172 1_555
Nd7 O31 2.444251 1_555
Nd7 O15 2.444251 1_555
Nd7 O14 2.444251 1_555
Nd7 O30 2.444251 1_565
Nd7 O16 2.546172 1_565
Nd7 O32 2.546172 1_555
Nd7 O35 2.546172 1_555
Nd7 O19 2.546172 1_555
Nd8 O16 2.444251 1_555
Nd8 O17 2.444251 1_556
Nd8 O25 2.444251 1_555
Nd8 O24 2.444251 1_555
Nd8 O21 2.546172 1_555
Nd8 O29 2.546172 1_556
Nd8 O30 2.546172 1_555
Nd8 O22 2.546172 1_555
Nd9 O27 2.444251 1_555
Nd9 O19 2.444251 1_555
Nd9 O18 2.444251 1_555
Nd9 O26 2.444251 1_655
Nd9 O20 2.546172 1_655
Nd9 O28 2.546172 1_555
Nd9 O31 2.546172 1_555
Nd9 O23 2.546172 1_555
Nd10 O20 2.444251 1_555
Nd10 O21 2.444251 1_565
Nd10 O33 2.444251 1_555
Nd10 O32 2.444251 1_555
Nd10 O13 2.546172 1_555
Nd10 O25 2.546172 1_565
Nd10 O26 2.546172 1_555
Nd10 O14 2.546172 1_555
Nd11 O35 2.444251 1_555
Nd11 O23 2.444251 1_555
Nd11 O22 2.444251 1_555
Nd11 O34 2.444251 1_556
Nd11 O12 2.546172 1_556
Nd11 O24 2.546172 1_555
Nd11 O27 2.546172 1_555
Nd11 O15 2.546172 1_555
Fe0 O5 2.066202 1_554
Fe0 O10 2.066202 1_555
Fe0 O0 2.066202 1_554
Fe0 O22 2.066202 1_454
Fe0 O12 2.066202 1_455
Fe0 O17 2.066202 1_455
Fe1 O1 2.066202 1_455
Fe1 O6 2.066202 1_555
Fe1 O8 2.066202 1_455
Fe1 O18 2.066202 1_445
Fe1 O20 2.066202 1_545
Fe1 O13 2.066202 1_545
Fe2 O9 2.066202 1_545
Fe2 O2 2.066202 1_555
Fe2 O4 2.066202 1_545
Fe2 O14 2.066202 1_544
Fe2 O16 2.066202 1_554
Fe2 O21 2.066202 1_554
Fe3 O23 2.066202 1_555
Fe3 O19 2.066202 1_555
Fe3 O15 2.066202 1_555
Fe3 O3 2.066202 1_555
Fe3 O7 2.066202 1_555
Fe3 O11 2.066202 1_555
Fe4 O36 2.066202 1_555
Fe4 O34 2.066202 1_555
Fe4 O41 2.066202 1_554
Fe4 O29 2.066202 1_555
Fe4 O46 2.066202 1_554
Fe4 O24 2.066202 1_554
Fe5 O44 2.066202 1_555
Fe5 O30 2.066202 1_555
Fe5 O37 2.066202 1_545
Fe5 O25 2.066202 1_555
Fe5 O42 2.066202 1_545
Fe5 O32 2.066202 1_545
Fe6 O40 2.066202 1_555
Fe6 O26 2.066202 1_555
Fe6 O45 2.066202 1_455
Fe6 O33 2.066202 1_555
Fe6 O38 2.066202 1_455
Fe6 O28 2.066202 1_455
Fe7 O47 2.066202 1_555
Fe7 O39 2.066202 1_555
Fe7 O43 2.066202 1_555
Fe7 O27 2.066202 1_444
Fe7 O31 2.066202 1_444
Fe7 O35 2.066202 1_444
Fe8 O14 1.911818 1_555
Fe8 O15 1.911818 1_555
Fe8 O40 1.911818 1_555
Fe8 O41 1.911818 1_555
Fe9 O13 1.911818 1_555
Fe9 O42 1.911818 1_555
Fe9 O12 1.911818 1_455
Fe9 O43 1.911818 1_565
Fe10 O18 1.911818 1_555
Fe10 O19 1.911818 1_555
Fe10 O36 1.911818 1_555
Fe10 O37 1.911818 1_555
Fe11 O38 1.911818 1_555
Fe11 O17 1.911818 1_555
Fe11 O16 1.911818 1_554
Fe11 O39 1.911818 1_655
Fe12 O22 1.911818 1_555
Fe12 O23 1.911818 1_555
Fe12 O44 1.911818 1_555
Fe12 O45 1.911818 1_555
Fe13 O46 1.911818 1_555
Fe13 O20 1.911818 1_545
Fe13 O21 1.911818 1_555
Fe13 O47 1.911818 1_556
Fe14 O3 1.911818 1_555
Fe14 O28 1.911818 1_555
Fe14 O29 1.911818 1_555
Fe14 O2 1.911818 1_555
Fe15 O1 1.911818 1_555
Fe15 O30 1.911818 1_555
Fe15 O0 1.911818 1_655
Fe15 O31 1.911818 1_545
Fe16 O7 1.911818 1_555
Fe16 O24 1.911818 1_555
Fe16 O25 1.911818 1_555
Fe16 O6 1.911818 1_555
Fe17 O5 1.911818 1_555
Fe17 O26 1.911818 1_555
Fe17 O4 1.911818 1_556
Fe17 O27 1.911818 1_455
Fe18 O11 1.911818 1_555
Fe18 O32 1.911818 1_555
Fe18 O33 1.911818 1_555
Fe18 O10 1.911818 1_555
Fe19 O9 1.911818 1_555
Fe19 O34 1.911818 1_555
Fe19 O8 1.911818 1_565
Fe19 O35 1.911818 1_554
