# generated using pymatgen
data_Na2TlHg
_symmetry_space_group_name_H-M   'P 1'
_cell_length_a   12.73933128
_cell_length_b   12.98652687
_cell_length_c   12.98652706
_cell_angle_alpha   60.46405576
_cell_angle_beta   60.62769205
_cell_angle_gamma   60.62768931
_symmetry_Int_Tables_number   1
_chemical_formula_structural   Na2TlHg
_chemical_formula_sum   'Na2 Tl1 Hg1'
_cell_volume   1538.87026038
_cell_formula_units_Z   1
loop_
 _symmetry_equiv_pos_site_id
 _symmetry_equiv_pos_as_xyz
  1  'x, y, z'
loop_
 _atom_site_type_symbol
 _atom_site_label
 _atom_site_symmetry_multiplicity
 _atom_site_fract_x
 _atom_site_fract_y
 _atom_site_fract_z
 _atom_site_occupancy
  Na  Na0  1  0.75034448  0.00000000  -0.00000000  1
  Na  Na1  1  0.24965552  -0.00000000  0.00000000  1
  Tl  Tl0  1  0.50000000  -0.00000000  0.00000000  1
  Hg  Hg0  1  -0.00000000  -0.00000000  0.00000000  1
loop_
_geom_bond_atom_site_label_1
_geom_bond_atom_site_label_2
_geom_bond_distance
_geom_bond_site_symmetry_2
Na0 Tl0 3.189221 1_555
Na1 Tl0 3.189221 1_555
Hg0 Na1 3.180444 1_555
Hg0 Na0 3.180444 1_455
