# generated using pymatgen
data_Ba10MgMn6(O12F)2
_symmetry_space_group_name_H-M   'P 1'
_cell_length_a   7.79154415
_cell_length_b   11.21523058
_cell_length_c   10.86007209
_cell_angle_alpha   123.23448642
_cell_angle_beta   90.00000000
_cell_angle_gamma   90.00000000
_symmetry_Int_Tables_number   1
_chemical_formula_structural   Ba10MgMn6(O12F)2
_chemical_formula_sum   'Ba10 Mg1 Mn6 O24 F2'
_cell_volume   793.77319950
_cell_formula_units_Z   1
loop_
 _symmetry_equiv_pos_site_id
 _symmetry_equiv_pos_as_xyz
  1  'x, y, z'
loop_
 _atom_site_type_symbol
 _atom_site_label
 _atom_site_symmetry_multiplicity
 _atom_site_fract_x
 _atom_site_fract_y
 _atom_site_fract_z
 _atom_site_occupancy
  Ba  Ba0  1  0.49830951  0.65591304  0.34826470  1
  Ba  Ba1  1  0.00158790  0.32589018  0.64551944  1
  Ba  Ba2  1  0.49841210  0.32589018  0.64551944  1
  Ba  Ba3  1  0.00169049  0.65591304  0.34826470  1
  Ba  Ba4  1  0.75000000  0.25376366  0.98622712  1
  Ba  Ba5  1  0.75000000  0.99164733  0.27754097  1
  Ba  Ba6  1  0.75000000  0.75984116  0.76370967  1
  Ba  Ba7  1  0.25000000  0.71182700  0.05504452  1
  Ba  Ba8  1  0.25000000  0.00450391  0.70272698  1
  Ba  Ba9  1  0.25000000  0.23031420  0.24089500  1
  Mg  Mg0  1  0.25000000  0.87445954  0.89603805  1
  Mn  Mn0  1  0.75000000  0.96404045  0.59948138  1
  Mn  Mn1  1  0.75000000  0.39463275  0.36261264  1
  Mn  Mn2  1  0.75000000  0.62114955  0.03226228  1
  Mn  Mn3  1  0.25000000  0.02240065  0.39237989  1
  Mn  Mn4  1  0.25000000  0.61001656  0.65008279  1
  Mn  Mn5  1  0.25000000  0.37058321  0.95333742  1
  O  O0  1  0.75000000  0.13883206  0.65018997  1
  O  O1  1  0.75000000  0.31123073  0.45636059  1
  O  O2  1  0.75000000  0.51331899  0.84360160  1
  O  O3  1  0.25000000  0.85120186  0.37741362  1
  O  O4  1  0.25000000  0.66134367  0.51997033  1
  O  O5  1  0.25000000  0.51549847  0.13398333  1
  O  O6  1  0.75000000  0.85269414  0.41054809  1
  O  O7  1  0.75000000  0.57989988  0.47997464  1
  O  O8  1  0.75000000  0.52958847  0.11881129  1
  O  O9  1  0.25000000  0.14357946  0.58894321  1
  O  O10  1  0.25000000  0.41720716  0.53658158  1
  O  O11  1  0.25000000  0.44889816  0.85221506  1
  O  O12  1  0.57774041  0.91454304  0.66027715  1
  O  O13  1  0.57478054  0.35288957  0.24992266  1
  O  O14  1  0.57895124  0.73651002  0.10034745  1
  O  O15  1  0.07634354  0.07860219  0.32630954  1
  O  O16  1  0.08611057  0.70826211  0.79283037  1
  O  O17  1  0.07191571  0.26604160  0.90095185  1
  O  O18  1  0.42365646  0.07860219  0.32630954  1
  O  O19  1  0.41388943  0.70826211  0.79283037  1
  O  O20  1  0.42808429  0.26604160  0.90095185  1
  O  O21  1  0.92225959  0.91454304  0.66027715  1
  O  O22  1  0.92521946  0.35288957  0.24992266  1
  O  O23  1  0.92104876  0.73651002  0.10034745  1
  F  F0  1  0.42649832  0.01573726  0.97886082  1
  F  F1  1  0.07350168  0.01573726  0.97886082  1
loop_
_geom_bond_atom_site_label_1
_geom_bond_atom_site_label_2
_geom_bond_distance
_geom_bond_site_symmetry_2
Ba0 O4 2.664503 1_555
Ba0 O6 2.745466 1_555
Ba0 O5 2.760709 1_555
Ba0 O3 2.807198 1_555
Ba0 O7 2.820484 1_555
Ba0 O8 2.862278 1_555
Ba0 O13 3.011111 1_555
Ba0 O12 3.082985 1_555
Ba0 O14 3.335944 1_555
Ba1 O9 2.631976 1_555
Ba1 O11 2.700698 1_555
Ba1 O10 2.742782 1_555
Ba1 O1 2.778398 1_455
Ba1 O2 2.816422 1_455
Ba1 O0 2.891887 1_455
Ba1 O15 3.083821 1_555
Ba1 O17 3.238350 1_555
Ba2 O9 2.631976 1_555
Ba2 O11 2.700698 1_555
Ba2 O10 2.742782 1_555
Ba2 O1 2.778398 1_555
Ba2 O2 2.816422 1_555
Ba2 O0 2.891887 1_555
Ba2 O18 3.083821 1_555
Ba2 O20 3.238350 1_555
Ba3 O4 2.664503 1_555
Ba3 O6 2.745466 1_455
Ba3 O5 2.760709 1_555
Ba3 O3 2.807198 1_555
Ba3 O7 2.820484 1_455
Ba3 O8 2.862278 1_455
Ba3 O22 3.011111 1_455
Ba3 O21 3.082985 1_455
Ba3 O23 3.335944 1_455
Ba4 O8 2.600047 1_556
Ba4 O20 2.703251 1_555
Ba4 O17 2.703251 1_655
Ba4 O22 2.794835 1_556
Ba4 O13 2.794835 1_556
Ba4 O0 3.134214 1_555
Ba5 O6 2.642445 1_555
Ba5 O18 2.670361 1_565
Ba5 O15 2.670361 1_665
Ba5 O14 2.762482 1_555
Ba5 O23 2.762482 1_555
Ba5 O1 2.998034 1_565
Ba6 O7 2.598324 1_555
Ba6 O19 2.737407 1_555
Ba6 O16 2.737407 1_655
Ba6 O21 2.865265 1_555
Ba6 O12 2.865265 1_555
Ba6 O2 3.320596 1_555
Ba7 O11 2.535280 1_554
Ba7 O23 2.595875 1_455
Ba7 O14 2.595875 1_555
Ba7 O5 2.766269 1_555
Ba7 O3 2.949833 1_555
Ba7 O16 3.101064 1_554
Ba7 O19 3.101064 1_554
Ba8 O9 2.464246 1_555
Ba8 O12 2.691008 1_545
Ba8 O21 2.691008 1_445
Ba8 O20 2.870857 1_555
Ba8 O17 2.870857 1_555
Ba8 O3 2.963016 1_545
Ba8 Mg0 3.144958 1_545
Ba8 O4 3.221528 1_545
Ba8 F0 3.238195 1_555
Ba8 F1 3.238195 1_555
Ba9 O18 2.704866 1_555
Ba9 O15 2.704866 1_555
Ba9 O10 2.706888 1_555
Ba9 O13 2.855757 1_555
Ba9 O22 2.855757 1_455
Ba9 F0 2.876452 1_554
Ba9 F1 2.876452 1_554
Mg0 O19 2.017709 1_555
Mg0 O16 2.017709 1_555
Mn0 O12 1.716758 1_555
Mn0 O21 1.716758 1_555
Mn0 O6 1.720712 1_555
Mn0 O0 1.721286 1_565
Mn1 O22 1.718355 1_555
Mn1 O13 1.718355 1_555
Mn1 O1 1.719107 1_555
Mn1 O7 1.743251 1_555
Mn2 O2 1.715923 1_554
Mn2 O14 1.717032 1_555
Mn2 O23 1.717032 1_555
Mn2 O8 1.730874 1_555
Mn3 O9 1.795515 1_555
Mn3 O18 1.799622 1_555
Mn3 O15 1.799622 1_555
Mn3 O3 1.835994 1_545
Mn4 O4 1.794331 1_555
Mn4 O10 1.809331 1_555
Mn4 O16 1.837280 1_555
Mn4 O19 1.837280 1_555
Mn5 O20 1.700726 1_555
Mn5 O17 1.700726 1_555
Mn5 O5 1.730675 1_556
Mn5 O11 1.742061 1_555
F0 Mg0 1.910116 1_545
F1 Mg0 1.910116 1_545
