# generated using pymatgen
data_TbGa2Ni3
_symmetry_space_group_name_H-M   'P 1'
_cell_length_a   3.89881100
_cell_length_b   8.90840100
_cell_length_c   8.93567226
_cell_angle_alpha   119.89908972
_cell_angle_beta   90.00000000
_cell_angle_gamma   90.00000000
_symmetry_Int_Tables_number   1
_chemical_formula_structural   TbGa2Ni3
_chemical_formula_sum   'Tb3 Ga6 Ni9'
_cell_volume   269.04846215
_cell_formula_units_Z   3
loop_
 _symmetry_equiv_pos_site_id
 _symmetry_equiv_pos_as_xyz
  1  'x, y, z'
loop_
 _atom_site_type_symbol
 _atom_site_label
 _atom_site_symmetry_multiplicity
 _atom_site_fract_x
 _atom_site_fract_y
 _atom_site_fract_z
 _atom_site_occupancy
  Tb  Tb0  1  0.00000000  0.50000000  0.00000000  1
  Tb  Tb1  1  0.50000000  0.83334000  0.66667900  1
  Tb  Tb2  1  0.50000000  0.16666000  0.33332100  1
  Ga  Ga0  1  0.50000000  0.18473400  0.00000000  1
  Ga  Ga1  1  0.50000000  0.49980500  0.68477000  1
  Ga  Ga2  1  0.50000000  0.81503500  0.31523000  1
  Ga  Ga3  1  0.50000000  0.81526600  0.00000000  1
  Ga  Ga4  1  0.50000000  0.50019500  0.31523000  1
  Ga  Ga5  1  0.50000000  0.18496500  0.68477000  1
  Ni  Ni0  1  0.00000000  0.00000000  0.00000000  1
  Ni  Ni1  1  0.00000000  0.50000000  0.50000000  1
  Ni  Ni2  1  0.00000000  0.00000000  0.50000000  1
  Ni  Ni3  1  0.00000000  0.68120700  0.36241400  1
  Ni  Ni4  1  0.00000000  0.13772600  0.81905500  1
  Ni  Ni5  1  0.00000000  0.68132900  0.81905500  1
  Ni  Ni6  1  0.00000000  0.31879300  0.63758600  1
  Ni  Ni7  1  0.00000000  0.31867100  0.18094500  1
  Ni  Ni8  1  0.00000000  0.86227400  0.18094500  1
loop_
_geom_bond_atom_site_label_1
_geom_bond_atom_site_label_2
_geom_bond_distance
_geom_bond_site_symmetry_2
Ga0 Ni4 2.432032 1_654
Ga0 Ni4 2.432032 1_554
Ga0 Ni7 2.432032 1_555
Ga0 Ni7 2.432032 1_655
Ga0 Ni0 2.551168 1_555
Ga0 Ni0 2.551168 1_655
Ga0 Tb1 3.061885 1_544
Ga0 Tb2 3.061890 1_555
Ga1 Ni6 2.429072 1_555
Ga1 Ni6 2.429072 1_655
Ga1 Ni5 2.433211 1_655
Ga1 Ni5 2.433211 1_555
Ga1 Ni1 2.555189 1_555
Ga1 Ni1 2.555189 1_655
Ga1 Tb1 3.055060 1_555
Ga1 Tb2 3.062417 1_555
Ga2 Ni3 2.429072 1_555
Ga2 Ni3 2.429072 1_655
Ga2 Ni8 2.433211 1_555
Ga2 Ni8 2.433211 1_655
Ga2 Ni2 2.555189 1_565
Ga2 Ni2 2.555189 1_665
Ga2 Tb2 3.055051 1_565
Ga2 Tb1 3.062412 1_555
Ga3 Ni8 2.432032 1_555
Ga3 Ni8 2.432032 1_655
Ga3 Ni5 2.432032 1_654
Ga3 Ni5 2.432032 1_554
Ga3 Ni0 2.551168 1_565
Ga3 Ni0 2.551168 1_665
Ga3 Tb2 3.061885 1_565
Ga3 Tb1 3.061890 1_554
Ga4 Ni3 2.429072 1_655
Ga4 Ni3 2.429072 1_555
Ga4 Ni7 2.433211 1_555
Ga4 Ni7 2.433211 1_655
Ga4 Ni1 2.555189 1_555
Ga4 Ni1 2.555189 1_655
Ga4 Tb2 3.055060 1_555
Ga4 Tb1 3.062417 1_555
Ga5 Ni6 2.429072 1_655
Ga5 Ni6 2.429072 1_555
Ga5 Ni4 2.433211 1_655
Ga5 Ni4 2.433211 1_555
Ga5 Ni2 2.555189 1_655
Ga5 Ni2 2.555189 1_555
Ga5 Tb1 3.055051 1_545
Ga5 Tb2 3.062412 1_555
Ni0 Ni8 2.469269 1_545
Ni0 Ni4 2.469269 1_554
Ni0 Ni7 2.469269 1_555
Ni0 Ni5 2.469269 1_544
Ni0 Tb1 3.235284 1_444
Ni0 Tb2 3.235284 1_555
Ni0 Tb2 3.235284 1_455
Ni0 Tb1 3.235284 1_544
Ni1 Ni6 2.468986 1_555
Ni1 Ni3 2.468986 1_555
Ni1 Ni5 2.479139 1_555
Ni1 Ni7 2.479139 1_555
Ni1 Tb2 3.229128 1_455
Ni1 Tb1 3.229128 1_455
Ni1 Tb1 3.229128 1_555
Ni1 Tb2 3.229128 1_555
Ni2 Ni6 2.468986 1_555
Ni2 Ni3 2.468986 1_545
Ni2 Ni8 2.479139 1_545
Ni2 Ni4 2.479139 1_555
Ni2 Tb1 3.229122 1_445
Ni2 Tb2 3.229122 1_555
Ni2 Tb1 3.229122 1_545
Ni2 Tb2 3.229122 1_455
Ni3 Tb0 2.807395 1_555
Ni3 Tb1 3.058660 1_555
Ni3 Tb1 3.058660 1_455
Ni4 Tb0 2.797758 1_556
Ni4 Tb1 3.053856 1_445
Ni4 Tb1 3.053856 1_545
Ni5 Tb0 2.797758 1_556
Ni5 Tb1 3.053861 1_455
Ni5 Tb1 3.053861 1_555
Ni6 Tb0 2.807395 1_556
Ni6 Tb2 3.058660 1_455
Ni6 Tb2 3.058660 1_555
Ni7 Tb0 2.797758 1_555
Ni7 Tb2 3.053861 1_555
Ni7 Tb2 3.053861 1_455
Ni8 Tb0 2.797758 1_555
Ni8 Tb2 3.053856 1_565
Ni8 Tb2 3.053856 1_465
