# generated using pymatgen
data_KAsW2O9
_symmetry_space_group_name_H-M   'P 1'
_cell_length_a   5.06527300
_cell_length_b   9.37930300
_cell_length_c   17.14962200
_cell_angle_alpha   90.00000000
_cell_angle_beta   90.00000000
_cell_angle_gamma   90.00000000
_symmetry_Int_Tables_number   1
_chemical_formula_structural   KAsW2O9
_chemical_formula_sum   'K4 As4 W8 O36'
_cell_volume   814.75676540
_cell_formula_units_Z   4
loop_
 _symmetry_equiv_pos_site_id
 _symmetry_equiv_pos_as_xyz
  1  'x, y, z'
loop_
 _atom_site_type_symbol
 _atom_site_label
 _atom_site_symmetry_multiplicity
 _atom_site_fract_x
 _atom_site_fract_y
 _atom_site_fract_z
 _atom_site_occupancy
  K  K0  1  0.27744400  0.05000100  0.09192700  1
  K  K1  1  0.22255600  0.94999900  0.59192700  1
  K  K2  1  0.77744400  0.44999900  0.90807300  1
  K  K3  1  0.72255600  0.55000100  0.40807300  1
  As  As0  1  0.35101600  0.26817100  0.27553800  1
  As  As1  1  0.14898400  0.73182900  0.77553800  1
  As  As2  1  0.85101600  0.23182900  0.72446200  1
  As  As3  1  0.64898400  0.76817100  0.22446200  1
  W  W0  1  0.36238700  0.63423300  0.05087000  1
  W  W1  1  0.13761300  0.36576700  0.55087000  1
  W  W2  1  0.86238700  0.86576700  0.94913000  1
  W  W3  1  0.63761300  0.13423300  0.44913000  1
  W  W4  1  0.88296300  0.43416200  0.16640300  1
  W  W5  1  0.61703700  0.56583800  0.66640300  1
  W  W6  1  0.38296300  0.06583800  0.83359700  1
  W  W7  1  0.11703700  0.93416200  0.33359700  1
  O  O0  1  0.12424400  0.78414400  0.02284300  1
  O  O1  1  0.37575600  0.21585600  0.52284300  1
  O  O2  1  0.62424400  0.71585600  0.97715700  1
  O  O3  1  0.87575600  0.28414400  0.47715700  1
  O  O4  1  0.65406500  0.51384400  0.09046600  1
  O  O5  1  0.84593500  0.48615600  0.59046600  1
  O  O6  1  0.15406500  0.98615600  0.90953400  1
  O  O7  1  0.34593500  0.01384400  0.40953400  1
  O  O8  1  0.15022400  0.57309500  0.13959300  1
  O  O9  1  0.34977600  0.42690500  0.63959300  1
  O  O10  1  0.65022400  0.92690500  0.86040700  1
  O  O11  1  0.84977600  0.07309500  0.36040700  1
  O  O12  1  0.08384800  0.38382200  0.26561800  1
  O  O13  1  0.41615200  0.61617800  0.76561800  1
  O  O14  1  0.58384800  0.11617800  0.73438200  1
  O  O15  1  0.91615200  0.88382200  0.23438200  1
  O  O16  1  0.58206400  0.31402200  0.20581300  1
  O  O17  1  0.91793600  0.68597800  0.70581300  1
  O  O18  1  0.08206400  0.18597800  0.79418700  1
  O  O19  1  0.41793600  0.81402200  0.29418700  1
  O  O20  1  0.24957100  0.50279200  0.98550400  1
  O  O21  1  0.25042900  0.49720800  0.48550400  1
  O  O22  1  0.74957100  0.99720800  0.01449600  1
  O  O23  1  0.75042900  0.00279200  0.51449600  1
  O  O24  1  0.47630900  0.29168300  0.36664300  1
  O  O25  1  0.02369100  0.70831700  0.86664300  1
  O  O26  1  0.97630900  0.20831700  0.63335700  1
  O  O27  1  0.52369100  0.79168300  0.13335700  1
  O  O28  1  0.26592900  0.09623500  0.25360300  1
  O  O29  1  0.23407100  0.90376500  0.75360300  1
  O  O30  1  0.76592900  0.40376500  0.74639700  1
  O  O31  1  0.73407100  0.59623500  0.24639700  1
  O  O32  1  0.01282600  0.29359900  0.11040800  1
  O  O33  1  0.48717400  0.70640100  0.61040800  1
  O  O34  1  0.51282600  0.20640100  0.88959200  1
  O  O35  1  0.98717400  0.79359900  0.38959200  1
loop_
_geom_bond_atom_site_label_1
_geom_bond_atom_site_label_2
_geom_bond_distance
_geom_bond_site_symmetry_2
K0 O32 2.667816 1_555
K0 O22 2.779852 1_545
K0 O28 2.806994 1_555
K0 O27 2.816162 1_545
K0 O0 2.867691 1_545
K0 O22 3.026195 1_445
K0 O6 3.245512 1_544
K1 O33 2.667816 1_555
K1 O23 2.779852 1_465
K1 O29 2.806994 1_555
K1 O26 2.816162 1_465
K1 O1 2.867691 1_565
K1 O23 3.026195 1_565
K1 O7 3.245512 1_565
K2 O34 2.667816 1_555
K2 O20 2.779852 1_655
K2 O30 2.806994 1_555
K2 O25 2.816162 1_655
K2 O2 2.867691 1_555
K2 O20 3.026195 1_555
K2 O4 3.245512 1_556
K3 O35 2.667816 1_555
K3 O21 2.779852 1_555
K3 O31 2.806994 1_555
K3 O24 2.816162 1_555
K3 O3 2.867691 1_555
K3 O21 3.026195 1_655
K3 O5 3.245512 1_555
As0 O24 1.700749 1_555
As0 O28 1.711101 1_555
As0 O16 1.727551 1_555
As0 O12 1.742681 1_555
As1 O25 1.700749 1_555
As1 O29 1.711101 1_555
As1 O17 1.727551 1_455
As1 O13 1.742681 1_555
As2 O26 1.700749 1_555
As2 O30 1.711101 1_555
As2 O18 1.727551 1_655
As2 O14 1.742681 1_555
As3 O27 1.700749 1_555
As3 O31 1.711101 1_555
As3 O19 1.727551 1_555
As3 O15 1.742681 1_555
O0 W0 1.913921 1_555
O0 W2 1.985811 1_454
O1 W1 1.913921 1_555
O1 W3 1.985811 1_555
O2 W2 1.913921 1_555
O2 W0 1.985811 1_556
O3 W3 1.913921 1_555
O3 W1 1.985811 1_655
O4 W4 1.897048 1_555
O4 W0 1.979628 1_555
O5 W5 1.897048 1_555
O5 W1 1.979628 1_655
O6 W6 1.897048 1_565
O6 W2 1.979628 1_455
O7 W7 1.897048 1_545
O7 W3 1.979628 1_555
O8 W4 1.934449 1_455
O8 W0 1.949074 1_555
O9 W5 1.934449 1_555
O9 W1 1.949074 1_555
O10 W6 1.934449 1_565
O10 W2 1.949074 1_555
O11 W7 1.934449 1_645
O11 W3 1.949074 1_555
O12 W4 2.037992 1_455
O13 W5 2.037992 1_555
O14 W6 2.037992 1_555
O15 W7 2.037992 1_655
O16 W4 2.012344 1_555
O17 W5 2.012344 1_555
O18 W6 2.012344 1_555
O19 W7 2.012344 1_555
O20 W0 1.761548 1_556
O21 W1 1.761548 1_555
O22 W2 1.761548 1_554
O23 W3 1.761548 1_555
O24 W3 2.202175 1_555
O25 W2 2.202175 1_455
O26 W1 2.202175 1_655
O27 W0 2.202175 1_555
O28 W7 2.182110 1_545
O29 W6 2.182110 1_565
O30 W5 2.182110 1_555
O31 W4 2.182110 1_555
O32 W4 1.758689 1_455
O33 W5 1.758689 1_555
O34 W6 1.758689 1_555
O35 W7 1.758689 1_655
