# generated using pymatgen
data_K2Pd(CN)4
_symmetry_space_group_name_H-M   'P 1'
_cell_length_a   7.85192500
_cell_length_b   4.44266000
_cell_length_c   13.74154413
_cell_angle_alpha   88.92111207
_cell_angle_beta   90.00000000
_cell_angle_gamma   90.00000000
_symmetry_Int_Tables_number   1
_chemical_formula_structural   K2Pd(CN)4
_chemical_formula_sum   'K4 Pd2 C8 N8'
_cell_volume   479.26725505
_cell_formula_units_Z   2
loop_
 _symmetry_equiv_pos_site_id
 _symmetry_equiv_pos_as_xyz
  1  'x, y, z'
loop_
 _atom_site_type_symbol
 _atom_site_label
 _atom_site_symmetry_multiplicity
 _atom_site_fract_x
 _atom_site_fract_y
 _atom_site_fract_z
 _atom_site_occupancy
  K  K0  1  0.95577700  0.28454500  0.34382900  1
  K  K1  1  0.45577700  0.71545500  0.15617100  1
  K  K2  1  0.54422300  0.28454500  0.84382900  1
  K  K3  1  0.04422300  0.71545500  0.65617100  1
  Pd  Pd0  1  0.00000000  0.00000000  0.00000000  1
  Pd  Pd1  1  0.50000000  0.00000000  0.50000000  1
  C  C0  1  0.12288200  0.15804900  0.11529500  1
  C  C1  1  0.62288200  0.84195100  0.38470500  1
  C  C2  1  0.27852400  0.85048800  0.44857000  1
  C  C3  1  0.77852400  0.14951200  0.05143000  1
  C  C4  1  0.37711800  0.15804900  0.61529500  1
  C  C5  1  0.87711800  0.84195100  0.88470500  1
  C  C6  1  0.22147600  0.85048800  0.94857000  1
  C  C7  1  0.72147600  0.14951200  0.55143000  1
  N  N0  1  0.19946700  0.24635700  0.18254600  1
  N  N1  1  0.69946700  0.75364300  0.31745400  1
  N  N2  1  0.35408900  0.76523300  0.92069600  1
  N  N3  1  0.85408900  0.23476700  0.57930400  1
  N  N4  1  0.64591100  0.23476700  0.07930400  1
  N  N5  1  0.14591100  0.76523300  0.42069600  1
  N  N6  1  0.30053300  0.24635700  0.68254600  1
  N  N7  1  0.80053300  0.75364300  0.81745400  1
loop_
_geom_bond_atom_site_label_1
_geom_bond_atom_site_label_2
_geom_bond_distance
_geom_bond_site_symmetry_2
K0 N5 2.826652 1_655
K0 N1 2.914861 1_555
K0 N5 2.928408 1_645
K0 N0 2.935313 1_655
K0 N1 3.126802 1_545
K1 N4 2.826652 1_555
K1 N0 2.914861 1_555
K1 N4 2.928408 1_565
K1 N1 2.935313 1_555
K1 N0 3.126802 1_565
K2 N2 2.826652 1_555
K2 N7 2.914861 1_555
K2 N2 2.928408 1_545
K2 N6 2.935313 1_555
K2 N7 3.126802 1_545
K3 N3 2.826652 1_455
K3 N6 2.914861 1_555
K3 N3 2.928408 1_465
K3 N7 2.935313 1_455
K3 N6 3.126802 1_565
C0 N0 1.176095 1_555
C0 Pd0 1.993986 1_555
C1 N1 1.176095 1_555
C1 Pd1 1.993986 1_565
C2 N5 1.174680 1_555
C2 Pd1 1.995623 1_565
C3 N4 1.174680 1_555
C3 Pd0 1.995623 1_655
C4 N6 1.176095 1_555
C4 Pd1 1.993986 1_555
C5 N7 1.176095 1_555
C5 Pd0 1.993986 1_666
C6 N2 1.174680 1_555
C6 Pd0 1.995623 1_566
C7 N3 1.174680 1_555
C7 Pd1 1.995623 1_555
