# generated using pymatgen
data_Ce4H11
_symmetry_space_group_name_H-M   'P 1'
_cell_length_a   5.51268651
_cell_length_b   6.71653445
_cell_length_c   5.51286046
_cell_angle_alpha   114.22962239
_cell_angle_beta   90.00000000
_cell_angle_gamma   65.77119632
_symmetry_Int_Tables_number   1
_chemical_formula_structural   Ce4H11
_chemical_formula_sum   'Ce4 H11'
_cell_volume   166.22478897
_cell_formula_units_Z   1
loop_
 _symmetry_equiv_pos_site_id
 _symmetry_equiv_pos_as_xyz
  1  'x, y, z'
loop_
 _atom_site_type_symbol
 _atom_site_label
 _atom_site_symmetry_multiplicity
 _atom_site_fract_x
 _atom_site_fract_y
 _atom_site_fract_z
 _atom_site_occupancy
  Ce  Ce0  1  0.75000000  0.50000000  0.75000000  1
  Ce  Ce1  1  0.50710906  0.98578187  0.49289094  1
  Ce  Ce2  1  0.25000000  0.50000000  0.25000000  1
  Ce  Ce3  1  0.99289094  0.01421713  0.00710906  1
  H  H0  1  0.36527876  0.74270623  0.10799730  1
  H  H1  1  0.13472124  0.25729377  0.86529108  1
  H  H2  1  0.89201601  0.74270623  0.63470892  1
  H  H3  1  0.60798399  0.25729377  0.39200270  1
  H  H4  1  0.60798399  0.25729377  0.86529108  1
  H  H5  1  0.36527876  0.74270623  0.63470892  1
  H  H6  1  0.13472124  0.25729377  0.39200270  1
  H  H7  1  0.89201601  0.74270623  0.10799730  1
  H  H8  1  0.00010267  0.99979566  0.49989733  1
  H  H9  1  0.75000000  0.50000000  0.25000000  1
  H  H10  1  0.49989733  0.00020434  0.00010267  1
loop_
_geom_bond_atom_site_label_1
_geom_bond_atom_site_label_2
_geom_bond_distance
_geom_bond_site_symmetry_2
Ce0 H1 2.360536 1_655
Ce0 H5 2.360536 1_555
Ce0 H6 2.360537 1_655
Ce0 H0 2.360537 1_556
Ce0 H2 2.360539 1_555
Ce0 H4 2.360539 1_555
Ce0 H7 2.360540 1_556
Ce0 H3 2.360540 1_555
Ce0 H8 2.735917 1_645
Ce0 H10 2.735917 1_566
Ce0 H9 2.756430 1_556
Ce0 H9 2.756430 1_555
Ce1 H3 2.368332 1_565
Ce1 H4 2.368333 1_565
Ce1 H6 2.368336 1_565
Ce1 H1 2.368336 1_565
Ce1 H5 2.446100 1_555
Ce1 H0 2.446100 1_555
Ce1 H2 2.446103 1_555
Ce1 H7 2.446104 1_555
Ce1 H9 2.657032 1_555
Ce1 H8 2.757406 1_555
Ce1 H8 2.757412 1_655
Ce1 H10 2.757556 1_565
Ce1 H10 2.757562 1_566
Ce2 H3 2.360460 1_555
Ce2 H7 2.360460 1_455
Ce2 H2 2.360460 1_455
Ce2 H4 2.360460 1_554
Ce2 H6 2.360462 1_555
Ce2 H0 2.360462 1_555
Ce2 H5 2.360462 1_555
Ce2 H1 2.360462 1_554
Ce2 H10 2.733682 1_555
Ce2 H8 2.733682 1_555
Ce2 H9 2.756343 1_455
Ce2 H9 2.756343 1_555
Ce3 H7 2.368326 1_545
Ce3 H2 2.368329 1_544
Ce3 H0 2.368332 1_645
Ce3 H5 2.368336 1_644
Ce3 H6 2.446103 1_655
Ce3 H3 2.446103 1_555
Ce3 H1 2.446106 1_654
Ce3 H4 2.446106 1_554
Ce3 H9 2.657038 1_555
Ce3 H10 2.757409 1_655
Ce3 H10 2.757409 1_555
Ce3 H8 2.757553 1_645
Ce3 H8 2.757564 1_644
