# generated using pymatgen
data_CsMg6Ti
_symmetry_space_group_name_H-M   'P 1'
_cell_length_a   6.77797449
_cell_length_b   6.77797449
_cell_length_c   5.44063200
_cell_angle_alpha   90.00000000
_cell_angle_beta   90.00000000
_cell_angle_gamma   120.20854544
_symmetry_Int_Tables_number   1
_chemical_formula_structural   CsMg6Ti
_chemical_formula_sum   'Cs1 Mg6 Ti1'
_cell_volume   216.00477806
_cell_formula_units_Z   1
loop_
 _symmetry_equiv_pos_site_id
 _symmetry_equiv_pos_as_xyz
  1  'x, y, z'
loop_
 _atom_site_type_symbol
 _atom_site_label
 _atom_site_symmetry_multiplicity
 _atom_site_fract_x
 _atom_site_fract_y
 _atom_site_fract_z
 _atom_site_occupancy
  Cs  Cs0  1  0.33970200  0.66029800  0.50000000  1
  Mg  Mg0  1  0.15019000  0.30671800  0.00000000  1
  Mg  Mg1  1  0.69328200  0.84981000  0.00000000  1
  Mg  Mg2  1  0.66717400  0.33282600  0.00000000  1
  Mg  Mg3  1  0.31912200  0.14411100  0.50000000  1
  Mg  Mg4  1  0.85588900  0.68087800  0.50000000  1
  Mg  Mg5  1  0.83060300  0.16939700  0.50000000  1
  Ti  Ti0  1  0.14403900  0.85596100  0.00000000  1
loop_
_geom_bond_atom_site_label_1
_geom_bond_atom_site_label_2
_geom_bond_distance
_geom_bond_site_symmetry_2
Cs0 Mg4 3.351625 1_455
Cs0 Mg3 3.351625 1_565
Cs0 Mg5 3.379991 1_565
Cs0 Mg5 3.379991 1_455
Cs0 Mg1 3.419909 1_556
Cs0 Mg1 3.419909 1_555
Cs0 Mg0 3.419909 1_556
Cs0 Mg0 3.419909 1_555
Cs0 Mg4 3.430636 1_555
Cs0 Mg3 3.430636 1_555
Cs0 Ti0 3.561967 1_556
Cs0 Ti0 3.561967 1_555
Mg0 Ti0 3.034456 1_545
Mg0 Mg5 3.306023 1_455
Mg0 Mg5 3.306023 1_454
Mg0 Mg3 3.346017 1_554
Mg0 Mg3 3.346017 1_555
Mg0 Mg2 3.366382 1_455
Mg0 Mg2 3.418490 1_555
Mg1 Ti0 3.034456 1_655
Mg1 Mg5 3.306023 1_565
Mg1 Mg5 3.306023 1_564
Mg1 Mg4 3.346017 1_555
Mg1 Mg4 3.346017 1_554
Mg1 Mg2 3.366382 1_565
Mg1 Mg2 3.418490 1_555
Mg2 Mg5 3.330009 1_554
Mg2 Mg5 3.330009 1_555
Mg2 Ti0 3.389222 1_655
Mg2 Ti0 3.389222 1_545
Mg2 Mg4 3.400735 1_555
Mg2 Mg4 3.400735 1_554
Mg2 Mg3 3.400735 1_554
Mg2 Mg3 3.400735 1_555
Mg3 Mg4 3.129879 1_445
Mg3 Ti0 3.207891 1_546
Mg3 Ti0 3.207891 1_545
Mg3 Mg5 3.383815 1_555
Mg3 Mg5 3.400630 1_455
Mg4 Ti0 3.207891 1_656
Mg4 Ti0 3.207891 1_655
Mg4 Mg5 3.383815 1_555
Mg4 Mg5 3.400630 1_565
