# generated using pymatgen
data_Ba2AlW3O8
_symmetry_space_group_name_H-M   'P 1'
_cell_length_a   3.96718600
_cell_length_b   3.96718600
_cell_length_c   12.86197600
_cell_angle_alpha   90.00000000
_cell_angle_beta   90.00000000
_cell_angle_gamma   90.00000000
_symmetry_Int_Tables_number   1
_chemical_formula_structural   Ba2AlW3O8
_chemical_formula_sum   'Ba2 Al1 W3 O8'
_cell_volume   202.42904220
_cell_formula_units_Z   1
loop_
 _symmetry_equiv_pos_site_id
 _symmetry_equiv_pos_as_xyz
  1  'x, y, z'
loop_
 _atom_site_type_symbol
 _atom_site_label
 _atom_site_symmetry_multiplicity
 _atom_site_fract_x
 _atom_site_fract_y
 _atom_site_fract_z
 _atom_site_occupancy
  Ba  Ba0  1  0.50000000  0.50000000  0.19278600  1
  Ba  Ba1  1  0.50000000  0.50000000  0.80721400  1
  Al  Al0  1  0.50000000  0.50000000  0.50000000  1
  W  W0  1  0.00000000  0.00000000  0.39994200  1
  W  W1  1  0.00000000  0.00000000  0.00000000  1
  W  W2  1  0.00000000  0.00000000  0.60005800  1
  O  O0  1  0.00000000  0.50000000  0.35038100  1
  O  O1  1  0.50000000  0.00000000  0.35038100  1
  O  O2  1  0.50000000  0.00000000  0.00000000  1
  O  O3  1  0.00000000  0.00000000  0.15115500  1
  O  O4  1  0.00000000  0.50000000  0.64961900  1
  O  O5  1  0.50000000  0.00000000  0.64961900  1
  O  O6  1  0.00000000  0.00000000  0.84884500  1
  O  O7  1  0.00000000  0.50000000  0.00000000  1
loop_
_geom_bond_atom_site_label_1
_geom_bond_atom_site_label_2
_geom_bond_distance
_geom_bond_site_symmetry_2
Ba0 O1 2.836072 1_555
Ba0 O0 2.836072 1_555
Ba0 O1 2.836072 1_565
Ba0 O0 2.836072 1_655
Ba0 O3 2.855871 1_555
Ba0 O3 2.855871 1_655
Ba0 O3 2.855871 1_565
Ba0 O3 2.855871 1_665
Ba0 O2 3.175390 1_555
Ba0 O2 3.175390 1_565
Ba0 O7 3.175390 1_655
Ba0 O7 3.175390 1_555
Ba1 O4 2.836072 1_655
Ba1 O4 2.836072 1_555
Ba1 O5 2.836072 1_555
Ba1 O5 2.836072 1_565
Ba1 O6 2.855871 1_665
Ba1 O6 2.855871 1_555
Ba1 O6 2.855871 1_565
Ba1 O6 2.855871 1_655
Ba1 O7 3.175390 1_656
Ba1 O2 3.175390 1_556
Ba1 O7 3.175390 1_556
Ba1 O2 3.175390 1_566
O0 W0 2.083503 1_565
O0 W0 2.083503 1_555
O1 W0 2.083503 1_655
O1 W0 2.083503 1_555
O2 W1 1.983593 1_555
O2 W1 1.983593 1_655
O3 W1 1.944152 1_555
O4 W2 2.083503 1_555
O4 W2 2.083503 1_565
O5 W2 2.083503 1_555
O5 W2 2.083503 1_655
O6 W1 1.944152 1_556
O7 W1 1.983593 1_555
O7 W1 1.983593 1_565
