# generated using pymatgen
data_CaHfMg30O32
_symmetry_space_group_name_H-M   'P 1'
_cell_length_a   8.65712100
_cell_length_b   8.65712100
_cell_length_c   8.59133000
_cell_angle_alpha   90.00000000
_cell_angle_beta   90.00000000
_cell_angle_gamma   90.00000000
_symmetry_Int_Tables_number   1
_chemical_formula_structural   CaHfMg30O32
_chemical_formula_sum   'Ca1 Hf1 Mg30 O32'
_cell_volume   643.88361887
_cell_formula_units_Z   1
loop_
 _symmetry_equiv_pos_site_id
 _symmetry_equiv_pos_as_xyz
  1  'x, y, z'
loop_
 _atom_site_type_symbol
 _atom_site_label
 _atom_site_symmetry_multiplicity
 _atom_site_fract_x
 _atom_site_fract_y
 _atom_site_fract_z
 _atom_site_occupancy
  Ca  Ca0  1  0.00000000  0.00000000  0.00000000  1
  Hf  Hf0  1  0.00000000  0.00000000  0.50000000  1
  Mg  Mg0  1  0.50000000  0.00000000  0.00000000  1
  Mg  Mg1  1  0.50000000  0.00000000  0.50000000  1
  Mg  Mg2  1  0.00000000  0.50000000  0.00000000  1
  Mg  Mg3  1  0.00000000  0.50000000  0.50000000  1
  Mg  Mg4  1  0.50000000  0.50000000  0.00000000  1
  Mg  Mg5  1  0.50000000  0.50000000  0.50000000  1
  Mg  Mg6  1  0.25966300  0.00000000  0.24860800  1
  Mg  Mg7  1  0.25966300  0.00000000  0.75139200  1
  Mg  Mg8  1  0.74033700  0.00000000  0.24860800  1
  Mg  Mg9  1  0.74033700  0.00000000  0.75139200  1
  Mg  Mg10  1  0.25133000  0.50000000  0.24988800  1
  Mg  Mg11  1  0.25133000  0.50000000  0.75011200  1
  Mg  Mg12  1  0.74867000  0.50000000  0.24988800  1
  Mg  Mg13  1  0.74867000  0.50000000  0.75011200  1
  Mg  Mg14  1  0.00000000  0.25966300  0.24860800  1
  Mg  Mg15  1  0.00000000  0.25966300  0.75139200  1
  Mg  Mg16  1  0.50000000  0.25133000  0.24988800  1
  Mg  Mg17  1  0.50000000  0.25133000  0.75011200  1
  Mg  Mg18  1  0.00000000  0.74033700  0.24860800  1
  Mg  Mg19  1  0.00000000  0.74033700  0.75139200  1
  Mg  Mg20  1  0.50000000  0.74867000  0.24988800  1
  Mg  Mg21  1  0.50000000  0.74867000  0.75011200  1
  Mg  Mg22  1  0.25429900  0.25429900  0.00000000  1
  Mg  Mg23  1  0.25367800  0.25367800  0.50000000  1
  Mg  Mg24  1  0.74570100  0.25429900  0.00000000  1
  Mg  Mg25  1  0.74632200  0.25367800  0.50000000  1
  Mg  Mg26  1  0.25429900  0.74570100  0.00000000  1
  Mg  Mg27  1  0.25367800  0.74632200  0.50000000  1
  Mg  Mg28  1  0.74570100  0.74570100  0.00000000  1
  Mg  Mg29  1  0.74632200  0.74632200  0.50000000  1
  O  O0  1  0.00000000  0.26171000  0.00000000  1
  O  O1  1  0.00000000  0.25775600  0.50000000  1
  O  O2  1  0.50000000  0.25170400  0.00000000  1
  O  O3  1  0.50000000  0.25087600  0.50000000  1
  O  O4  1  0.00000000  0.73829000  0.00000000  1
  O  O5  1  0.00000000  0.74224400  0.50000000  1
  O  O6  1  0.50000000  0.74829600  0.00000000  1
  O  O7  1  0.50000000  0.74912400  0.50000000  1
  O  O8  1  0.24910200  0.24910200  0.24941100  1
  O  O9  1  0.24910200  0.24910200  0.75058900  1
  O  O10  1  0.75089800  0.24910200  0.24941100  1
  O  O11  1  0.75089800  0.24910200  0.75058900  1
  O  O12  1  0.24910200  0.75089800  0.24941100  1
  O  O13  1  0.24910200  0.75089800  0.75058900  1
  O  O14  1  0.75089800  0.75089800  0.24941100  1
  O  O15  1  0.75089800  0.75089800  0.75058900  1
  O  O16  1  0.00000000  0.00000000  0.26056400  1
  O  O17  1  0.00000000  0.00000000  0.73943600  1
  O  O18  1  0.50000000  0.00000000  0.25161100  1
  O  O19  1  0.50000000  0.00000000  0.74838900  1
  O  O20  1  0.00000000  0.50000000  0.25161100  1
  O  O21  1  0.00000000  0.50000000  0.74838900  1
  O  O22  1  0.50000000  0.50000000  0.25032800  1
  O  O23  1  0.50000000  0.50000000  0.74967200  1
  O  O24  1  0.26171000  0.00000000  0.00000000  1
  O  O25  1  0.25775600  0.00000000  0.50000000  1
  O  O26  1  0.73829000  0.00000000  0.00000000  1
  O  O27  1  0.74224400  0.00000000  0.50000000  1
  O  O28  1  0.25170400  0.50000000  0.00000000  1
  O  O29  1  0.25087600  0.50000000  0.50000000  1
  O  O30  1  0.74829600  0.50000000  0.00000000  1
  O  O31  1  0.74912400  0.50000000  0.50000000  1
loop_
_geom_bond_atom_site_label_1
_geom_bond_atom_site_label_2
_geom_bond_distance
_geom_bond_site_symmetry_2
Ca0 O17 2.238591 1_554
Ca0 O16 2.238591 1_555
Ca0 O4 2.265655 1_545
Ca0 O24 2.265655 1_555
Ca0 O0 2.265655 1_555
Ca0 O26 2.265655 1_455
Hf0 O16 2.057074 1_555
Hf0 O17 2.057074 1_555
Hf0 O25 2.231425 1_555
Hf0 O5 2.231425 1_545
Hf0 O1 2.231425 1_555
Hf0 O27 2.231425 1_455
Mg0 O24 2.062905 1_555
Mg0 O26 2.062905 1_555
Mg0 O18 2.161673 1_555
Mg0 O19 2.161673 1_554
Mg0 O2 2.179032 1_555
Mg0 O6 2.179032 1_545
Mg1 O27 2.097136 1_555
Mg1 O25 2.097136 1_555
Mg1 O19 2.133992 1_555
Mg1 O18 2.133992 1_555
Mg1 O7 2.171864 1_545
Mg1 O3 2.171864 1_555
Mg2 O0 2.062905 1_555
Mg2 O4 2.062905 1_555
Mg2 O20 2.161673 1_555
Mg2 O21 2.161673 1_554
Mg2 O28 2.179032 1_555
Mg2 O30 2.179032 1_455
Mg3 O5 2.097136 1_555
Mg3 O1 2.097136 1_555
Mg3 O21 2.133992 1_555
Mg3 O20 2.133992 1_555
Mg3 O29 2.171864 1_555
Mg3 O31 2.171864 1_455
Mg4 O30 2.149529 1_555
Mg4 O6 2.149529 1_555
Mg4 O2 2.149529 1_555
Mg4 O28 2.149529 1_555
Mg4 O23 2.150650 1_554
Mg4 O22 2.150650 1_555
Mg5 O22 2.145015 1_555
Mg5 O23 2.145015 1_555
Mg5 O31 2.156697 1_555
Mg5 O3 2.156697 1_555
Mg5 O29 2.156697 1_555
Mg5 O7 2.156697 1_555
Mg6 O18 2.080786 1_555
Mg6 O24 2.135947 1_555
Mg6 O8 2.158454 1_555
Mg6 O12 2.158454 1_545
Mg6 O25 2.159855 1_555
Mg6 O16 2.250280 1_555
Mg7 O19 2.080786 1_555
Mg7 O24 2.135947 1_556
Mg7 O9 2.158454 1_555
Mg7 O13 2.158454 1_545
Mg7 O25 2.159855 1_555
Mg7 O17 2.250280 1_555
Mg8 O18 2.080786 1_555
Mg8 O26 2.135947 1_555
Mg8 O10 2.158454 1_555
Mg8 O14 2.158454 1_545
Mg8 O27 2.159855 1_555
Mg8 O16 2.250280 1_655
Mg9 O19 2.080786 1_555
Mg9 O26 2.135947 1_556
Mg9 O11 2.158454 1_555
Mg9 O15 2.158454 1_545
Mg9 O27 2.159855 1_555
Mg9 O17 2.250280 1_655
Mg10 O28 2.146873 1_555
Mg10 O29 2.148798 1_555
Mg10 O22 2.152770 1_555
Mg10 O12 2.172144 1_555
Mg10 O8 2.172144 1_555
Mg10 O20 2.175845 1_555
Mg11 O28 2.146873 1_556
Mg11 O29 2.148798 1_555
Mg11 O23 2.152770 1_555
Mg11 O13 2.172144 1_555
Mg11 O9 2.172144 1_555
Mg11 O21 2.175845 1_555
Mg12 O30 2.146873 1_555
Mg12 O31 2.148798 1_555
Mg12 O22 2.152770 1_555
Mg12 O14 2.172144 1_555
Mg12 O10 2.172144 1_555
Mg12 O20 2.175845 1_655
Mg13 O30 2.146873 1_556
Mg13 O31 2.148798 1_555
Mg13 O23 2.152770 1_555
Mg13 O15 2.172144 1_555
Mg13 O11 2.172144 1_555
Mg13 O21 2.175845 1_655
Mg14 O20 2.080786 1_555
Mg14 O0 2.135947 1_555
Mg14 O8 2.158454 1_555
Mg14 O10 2.158454 1_455
Mg14 O1 2.159855 1_555
Mg14 O16 2.250280 1_555
Mg15 O21 2.080786 1_555
Mg15 O0 2.135947 1_556
Mg15 O9 2.158454 1_555
Mg15 O11 2.158454 1_455
Mg15 O1 2.159855 1_555
Mg15 O17 2.250280 1_555
Mg16 O2 2.146873 1_555
Mg16 O3 2.148798 1_555
Mg16 O22 2.152770 1_555
Mg16 O10 2.172144 1_555
Mg16 O8 2.172144 1_555
Mg16 O18 2.175845 1_555
Mg17 O2 2.146873 1_556
Mg17 O3 2.148798 1_555
Mg17 O23 2.152770 1_555
Mg17 O11 2.172144 1_555
Mg17 O9 2.172144 1_555
Mg17 O19 2.175845 1_555
Mg18 O20 2.080786 1_555
Mg18 O4 2.135947 1_555
Mg18 O12 2.158454 1_555
Mg18 O14 2.158454 1_455
Mg18 O5 2.159855 1_555
Mg18 O16 2.250280 1_565
Mg19 O21 2.080786 1_555
Mg19 O4 2.135947 1_556
Mg19 O13 2.158454 1_555
Mg19 O15 2.158454 1_455
Mg19 O5 2.159855 1_555
Mg19 O17 2.250280 1_565
Mg20 O6 2.146873 1_555
Mg20 O7 2.148798 1_555
Mg20 O22 2.152770 1_555
Mg20 O14 2.172144 1_555
Mg20 O12 2.172144 1_555
Mg20 O18 2.175845 1_565
Mg21 O6 2.146873 1_556
Mg21 O7 2.148798 1_555
Mg21 O23 2.152770 1_555
Mg21 O15 2.172144 1_555
Mg21 O13 2.172144 1_555
Mg21 O19 2.175845 1_565
Mg22 O2 2.127182 1_555
Mg22 O28 2.127182 1_555
Mg22 O8 2.143717 1_555
Mg22 O9 2.143717 1_554
Mg22 O24 2.202432 1_555
Mg22 O0 2.202432 1_555
Mg23 O29 2.132577 1_555
Mg23 O3 2.132577 1_555
Mg23 O9 2.153622 1_555
Mg23 O8 2.153622 1_555
Mg23 O1 2.196405 1_555
Mg23 O25 2.196405 1_555
Mg24 O2 2.127182 1_555
Mg24 O30 2.127182 1_555
Mg24 O10 2.143717 1_555
Mg24 O11 2.143717 1_554
Mg24 O26 2.202432 1_555
Mg24 O0 2.202432 1_655
Mg25 O31 2.132577 1_555
Mg25 O3 2.132577 1_555
Mg25 O11 2.153622 1_555
Mg25 O10 2.153622 1_555
Mg25 O27 2.196405 1_555
Mg25 O1 2.196405 1_655
Mg26 O28 2.127182 1_555
Mg26 O6 2.127182 1_555
Mg26 O12 2.143717 1_555
Mg26 O13 2.143717 1_554
Mg26 O4 2.202432 1_555
Mg26 O24 2.202432 1_565
Mg27 O7 2.132577 1_555
Mg27 O29 2.132577 1_555
Mg27 O13 2.153622 1_555
Mg27 O12 2.153622 1_555
Mg27 O25 2.196405 1_565
Mg27 O5 2.196405 1_555
Mg28 O30 2.127182 1_555
Mg28 O6 2.127182 1_555
Mg28 O14 2.143717 1_555
Mg28 O15 2.143717 1_554
Mg28 O26 2.202432 1_565
Mg28 O4 2.202432 1_655
Mg29 O7 2.132577 1_555
Mg29 O31 2.132577 1_555
Mg29 O15 2.153622 1_555
Mg29 O14 2.153622 1_555
Mg29 O27 2.196405 1_565
Mg29 O5 2.196405 1_655
