# generated using pymatgen
data_Y3Ge
_symmetry_space_group_name_H-M   'P 1'
_cell_length_a   6.72544009
_cell_length_b   6.72544009
_cell_length_c   5.31968500
_cell_angle_alpha   90.00000000
_cell_angle_beta   90.00000000
_cell_angle_gamma   120.00000092
_symmetry_Int_Tables_number   1
_chemical_formula_structural   Y3Ge
_chemical_formula_sum   'Y6 Ge2'
_cell_volume   208.38092504
_cell_formula_units_Z   2
loop_
 _symmetry_equiv_pos_site_id
 _symmetry_equiv_pos_as_xyz
  1  'x, y, z'
loop_
 _atom_site_type_symbol
 _atom_site_label
 _atom_site_symmetry_multiplicity
 _atom_site_fract_x
 _atom_site_fract_y
 _atom_site_fract_z
 _atom_site_occupancy
  Y  Y0  1  0.17394200  0.34788400  0.25000000  1
  Y  Y1  1  0.65211600  0.82605800  0.25000000  1
  Y  Y2  1  0.17394200  0.82605800  0.25000000  1
  Y  Y3  1  0.82605800  0.65211600  0.75000000  1
  Y  Y4  1  0.34788400  0.17394200  0.75000000  1
  Y  Y5  1  0.82605800  0.17394200  0.75000000  1
  Ge  Ge0  1  0.33333300  0.66666700  0.75000000  1
  Ge  Ge1  1  0.66666700  0.33333300  0.25000000  1
loop_
_geom_bond_atom_site_label_1
_geom_bond_atom_site_label_2
_geom_bond_distance
_geom_bond_site_symmetry_2
Ge0 Y2 3.243787 1_556
Ge0 Y2 3.243787 1_555
Ge0 Y0 3.243790 1_555
Ge0 Y0 3.243790 1_556
Ge0 Y1 3.243790 1_555
Ge0 Y1 3.243790 1_556
Ge0 Y4 3.363785 1_565
Ge0 Y3 3.363785 1_455
Ge0 Y5 3.363788 1_565
Ge0 Y5 3.363788 1_455
Ge0 Y4 3.363791 1_555
Ge0 Y3 3.363791 1_555
Ge1 Y5 3.243787 1_555
Ge1 Y5 3.243787 1_554
Ge1 Y4 3.243790 1_554
Ge1 Y4 3.243790 1_555
Ge1 Y3 3.243790 1_554
Ge1 Y3 3.243790 1_555
Ge1 Y0 3.363785 1_655
Ge1 Y1 3.363785 1_545
Ge1 Y2 3.363788 1_545
Ge1 Y2 3.363788 1_655
Ge1 Y1 3.363791 1_555
Ge1 Y0 3.363791 1_555
