# generated using pymatgen
data_V16Bi3O32
_symmetry_space_group_name_H-M   'P 1'
_cell_length_a   12.32920223
_cell_length_b   12.88130155
_cell_length_c   10.44930275
_cell_angle_alpha   52.14920927
_cell_angle_beta   42.72518367
_cell_angle_gamma   33.06153854
_symmetry_Int_Tables_number   1
_chemical_formula_structural   V16Bi3O32
_chemical_formula_sum   'V16 Bi3 O32'
_cell_volume   614.24299673
_cell_formula_units_Z   1
loop_
 _symmetry_equiv_pos_site_id
 _symmetry_equiv_pos_as_xyz
  1  'x, y, z'
loop_
 _atom_site_type_symbol
 _atom_site_label
 _atom_site_symmetry_multiplicity
 _atom_site_fract_x
 _atom_site_fract_y
 _atom_site_fract_z
 _atom_site_occupancy
  V  V0  1  0.01482100  0.18825200  0.51763000  1
  V  V1  1  0.08634400  0.48224700  0.18351000  1
  V  V2  1  0.25712400  0.19005500  0.52596100  1
  V  V3  1  0.33996900  0.47855800  0.18453100  1
  V  V4  1  0.51292400  0.18622600  0.52143600  1
  V  V5  1  0.15952300  0.51785500  0.81917700  1
  V  V6  1  0.59125300  0.47815000  0.18331000  1
  V  V7  1  0.23822700  0.81017500  0.48332800  1
  V  V8  1  0.76546100  0.18569900  0.51248900  1
  V  V9  1  0.40564100  0.52470100  0.81164900  1
  V  V10  1  0.84012900  0.47908500  0.18057400  1
  V  V11  1  0.48875100  0.81456200  0.47758500  1
  V  V12  1  0.65348700  0.52337900  0.81750200  1
  V  V13  1  0.73768900  0.81179900  0.47921300  1
  V  V14  1  0.91014700  0.51920400  0.81742700  1
  V  V15  1  0.98597800  0.81116100  0.48052700  1
  Bi  Bi0  1  0.27705200  0.98362500  0.01775100  1
  Bi  Bi1  1  0.73883800  0.01474200  0.97940900  1
  Bi  Bi2  1  0.99373600  0.00771900  0.00259300  1
  O  O0  1  0.16127100  0.36256300  0.03752800  1
  O  O1  1  0.17549600  0.04509800  0.65806500  1
  O  O2  1  0.12532900  0.29513800  0.38745000  1
  O  O3  1  0.01165800  0.62803500  0.29696900  1
  O  O4  1  0.42597700  0.34491600  0.03493600  1
  O  O5  1  0.43545300  0.03959400  0.64940700  1
  O  O6  1  0.38207600  0.28775900  0.38377000  1
  O  O7  1  0.24067500  0.36993600  0.70222300  1
  O  O8  1  0.26491000  0.62492400  0.29699900  1
  O  O9  1  0.67630800  0.33895400  0.04158400  1
  O  O10  1  0.11609800  0.70221800  0.62492600  1
  O  O11  1  0.08348200  0.95185400  0.33379400  1
  O  O12  1  0.69873200  0.03370400  0.63080200  1
  O  O13  1  0.63365200  0.28782200  0.37848600  1
  O  O14  1  0.07741900  0.66057800  0.95139600  1
  O  O15  1  0.47004300  0.38520300  0.70802200  1
  O  O16  1  0.53204900  0.61514500  0.29247400  1
  O  O17  1  0.92731100  0.33755500  0.04535200  1
  O  O18  1  0.36979600  0.70444700  0.62999200  1
  O  O19  1  0.29894100  0.96172200  0.37282500  1
  O  O20  1  0.91748500  0.04707600  0.66184100  1
  O  O21  1  0.89127900  0.29694500  0.36972300  1
  O  O22  1  0.32846900  0.65333100  0.95499800  1
  O  O23  1  0.72674300  0.37345300  0.70472900  1
  O  O24  1  0.75504000  0.63269300  0.29853100  1
  O  O25  1  0.61423000  0.71234100  0.61772200  1
  O  O26  1  0.55763400  0.96203000  0.35554500  1
  O  O27  1  0.56784700  0.66437400  0.96027000  1
  O  O28  1  0.97976900  0.37328500  0.70744300  1
  O  O29  1  0.87080100  0.70617000  0.61398800  1
  O  O30  1  0.81969200  0.95615600  0.34300600  1
  O  O31  1  0.84111900  0.63778600  0.95960200  1
loop_
_geom_bond_atom_site_label_1
_geom_bond_atom_site_label_2
_geom_bond_distance
_geom_bond_site_symmetry_2
Bi0 O11 2.273330 1_555
Bi0 O27 2.297930 1_554
Bi0 O17 2.509343 1_465
Bi0 O5 2.656844 1_564
Bi1 O20 2.267013 1_555
Bi1 O4 2.354991 1_556
Bi1 O14 2.499311 1_645
Bi1 O26 2.695643 1_546
Bi2 O9 2.342815 1_555
Bi2 O30 2.444098 1_545
Bi2 O1 2.458129 1_654
Bi2 O22 2.512088 1_644
O0 V5 1.899103 1_554
O0 V1 1.996379 1_555
O0 V10 2.064158 1_455
O1 V11 2.058829 1_545
O1 V0 2.074934 1_555
O1 V2 2.085781 1_555
O2 V0 1.930093 1_555
O2 V1 1.959920 1_555
O2 V2 1.982875 1_555
O3 V13 1.821652 1_455
O3 V1 2.002493 1_555
O3 V3 2.048796 1_555
O4 V9 2.031017 1_554
O4 V3 2.082939 1_555
O4 V1 2.115821 1_555
O5 V13 1.999604 1_545
O5 V2 2.051951 1_555
O5 V4 2.077466 1_555
O6 V2 1.938276 1_555
O6 V3 1.953008 1_555
O6 V4 1.986600 1_555
O7 V4 1.814162 1_555
O7 V5 1.997684 1_555
O7 V14 2.062097 1_455
O8 V15 1.840431 1_455
O8 V3 1.997238 1_555
O8 V6 2.039020 1_555
O9 V12 2.055859 1_554
O9 V6 2.081615 1_555
O9 V3 2.087430 1_555
O10 V5 1.896395 1_555
O10 V15 2.001012 1_455
O10 V7 2.025277 1_555
O11 V8 2.069493 1_465
O11 V7 2.110994 1_555
O11 V15 2.148048 1_455
O12 V15 1.887429 1_545
O12 V4 1.990212 1_555
O12 V8 2.067292 1_555
O13 V6 1.930119 1_555
O13 V4 1.938791 1_555
O13 V8 1.957443 1_555
O14 V9 2.038174 1_555
O14 V5 2.063096 1_555
O14 V1 2.074272 1_556
O15 V9 1.940353 1_555
O15 V5 1.965479 1_555
O15 V8 1.966144 1_555
O16 V7 1.921258 1_555
O16 V10 1.922925 1_555
O16 V6 2.008969 1_555
O17 V10 2.029957 1_555
O17 V14 2.064853 1_554
O17 V6 2.091884 1_555
O18 V9 1.811935 1_555
O18 V11 1.995554 1_555
O18 V7 2.054963 1_555
O19 V0 1.890172 1_565
O19 V11 2.012403 1_555
O19 V7 2.029184 1_555
O20 V7 2.085761 1_645
O20 V8 2.098818 1_555
O20 V0 2.157792 1_655
O21 V10 1.862582 1_555
O21 V0 1.974222 1_655
O21 V8 2.094701 1_555
O22 V12 2.042838 1_555
O22 V3 2.044294 1_556
O22 V9 2.050304 1_555
O23 V0 1.856760 1_655
O23 V9 1.990335 1_555
O23 V12 2.059005 1_555
O24 V11 1.797151 1_555
O24 V10 2.036847 1_555
O24 V1 2.064459 1_655
O25 V12 1.947016 1_555
O25 V13 1.951769 1_555
O25 V11 1.954263 1_555
O26 V2 2.002497 1_565
O26 V11 2.023849 1_555
O26 V13 2.070753 1_555
O27 V6 2.058195 1_556
O27 V12 2.106043 1_555
O27 V14 2.116065 1_555
O28 V2 1.815834 1_655
O28 V14 2.021831 1_555
O28 V12 2.034275 1_555
O29 V15 1.945579 1_555
O29 V14 1.956638 1_555
O29 V13 1.956869 1_555
O30 V4 2.048519 1_565
O30 V13 2.072384 1_555
O30 V15 2.091174 1_555
O31 V10 1.928310 1_556
O31 V14 2.003219 1_555
O31 V5 2.025809 1_655
