# generated using pymatgen
data_LaFe8Si5
_symmetry_space_group_name_H-M   'P 1'
_cell_length_a   8.02014919
_cell_length_b   8.02014919
_cell_length_c   7.79836867
_cell_angle_alpha   60.89830393
_cell_angle_beta   60.89830393
_cell_angle_gamma   92.95570026
_symmetry_Int_Tables_number   1
_chemical_formula_structural   LaFe8Si5
_chemical_formula_sum   'La2 Fe16 Si10'
_cell_volume   354.64138293
_cell_formula_units_Z   2
loop_
 _symmetry_equiv_pos_site_id
 _symmetry_equiv_pos_as_xyz
  1  'x, y, z'
loop_
 _atom_site_type_symbol
 _atom_site_label
 _atom_site_symmetry_multiplicity
 _atom_site_fract_x
 _atom_site_fract_y
 _atom_site_fract_z
 _atom_site_occupancy
  La  La0  1  0.25220900  0.74779100  0.00000000  1
  La  La1  1  0.74779100  0.25220900  0.00000000  1
  Fe  Fe0  1  0.19973400  0.55476700  0.75005200  1
  Fe  Fe1  1  0.44523300  0.80026600  0.24994800  1
  Fe  Fe2  1  0.95091300  0.30488300  0.49785200  1
  Fe  Fe3  1  0.69511700  0.04908700  0.50214800  1
  Fe  Fe4  1  0.80026600  0.44523300  0.24994800  1
  Fe  Fe5  1  0.55476700  0.19973300  0.75005200  1
  Fe  Fe6  1  0.04908700  0.69511700  0.50214800  1
  Fe  Fe7  1  0.30488300  0.95091300  0.49785200  1
  Fe  Fe8  1  0.00000000  0.00000000  0.50000000  1
  Fe  Fe9  1  0.50000000  0.50000000  0.50000000  1
  Fe  Fe10  1  0.19963300  0.19963300  0.86959900  1
  Fe  Fe11  1  0.80036700  0.80036700  0.13040100  1
  Fe  Fe12  1  0.44013200  0.44013200  0.87043700  1
  Fe  Fe13  1  0.55986800  0.55986800  0.12956300  1
  Fe  Fe14  1  0.93003600  0.93003600  0.26903800  1
  Fe  Fe15  1  0.06996400  0.06996400  0.73096200  1
  Si  Si0  1  0.71017900  0.95970700  0.84217300  1
  Si  Si1  1  0.04029300  0.28982100  0.15782700  1
  Si  Si2  1  0.54652800  0.79603700  0.49111800  1
  Si  Si3  1  0.20396300  0.45347200  0.50888200  1
  Si  Si4  1  0.28982200  0.04029300  0.15782700  1
  Si  Si5  1  0.95970700  0.71017800  0.84217300  1
  Si  Si6  1  0.45347200  0.20396300  0.50888200  1
  Si  Si7  1  0.79603700  0.54652800  0.49111800  1
  Si  Si8  1  0.29043700  0.29043700  0.27681200  1
  Si  Si9  1  0.70956300  0.70956300  0.72318800  1
loop_
_geom_bond_atom_site_label_1
_geom_bond_atom_site_label_2
_geom_bond_distance
_geom_bond_site_symmetry_2
La0 Si4 3.194666 1_565
La0 Si5 3.194666 1_454
La0 Si6 3.225928 1_564
La0 Si7 3.225928 1_455
La0 Si3 3.281828 1_555
La0 Si2 3.281828 1_554
La0 Si1 3.289129 1_555
La0 Si0 3.289129 1_554
La0 Si8 3.356499 1_555
La0 Si9 3.356499 1_554
La1 Si0 3.194664 1_544
La1 Si1 3.194664 1_655
La1 Si3 3.225928 1_654
La1 Si2 3.225928 1_545
La1 Si6 3.281828 1_555
La1 Si7 3.281828 1_554
La1 Si5 3.289122 1_554
La1 Si4 3.289122 1_555
La1 Si8 3.356499 1_555
La1 Si9 3.356499 1_554
Fe0 Si1 2.335416 1_556
Fe0 Si5 2.355567 1_455
Fe0 Si3 2.371777 1_555
Fe0 Si2 2.395571 1_555
Fe0 Fe9 2.483774 1_555
Fe0 Fe10 2.529361 1_555
Fe0 La0 3.168431 1_556
Fe0 La1 3.231928 1_456
Fe1 Si0 2.335416 1_554
Fe1 Si4 2.355567 1_565
Fe1 Si2 2.371777 1_555
Fe1 Si3 2.395571 1_555
Fe1 Fe9 2.483774 1_555
Fe1 Fe11 2.529361 1_555
Fe1 La0 3.168431 1_555
Fe1 La1 3.231928 1_565
Fe2 Si7 2.348256 1_555
Fe2 Si3 2.359348 1_655
Fe2 Si0 2.403491 1_545
Fe2 Si1 2.455851 1_655
Fe2 Si8 2.461840 1_655
Fe2 Fe8 2.490011 1_655
Fe2 La0 3.178773 1_655
Fe2 La1 3.206465 1_556
Fe3 Si6 2.348256 1_555
Fe3 Si2 2.359348 1_545
Fe3 Si1 2.403491 1_655
Fe3 Si0 2.455851 1_545
Fe3 Si9 2.461840 1_545
Fe3 Fe8 2.490011 1_655
Fe3 La0 3.178773 1_546
Fe3 La1 3.206465 1_555
Fe4 Si5 2.335414 1_554
Fe4 Si1 2.355573 1_655
Fe4 Si7 2.371777 1_555
Fe4 Si6 2.395571 1_555
Fe4 Fe9 2.483774 1_555
Fe4 La1 3.168431 1_555
Fe4 La0 3.231928 1_655
Fe5 Si4 2.335415 1_556
Fe5 Si0 2.355567 1_545
Fe5 Si6 2.371774 1_555
Fe5 Si7 2.395576 1_555
Fe5 Fe9 2.483779 1_555
Fe5 La1 3.168435 1_556
Fe5 La0 3.231922 1_546
Fe6 Si3 2.348256 1_555
Fe6 Si7 2.359348 1_455
Fe6 Si4 2.403492 1_565
Fe6 Si5 2.455846 1_455
Fe6 Si9 2.461840 1_455
Fe6 Fe8 2.490011 1_565
Fe6 La1 3.178773 1_456
Fe6 La0 3.206465 1_555
Fe7 Si2 2.348256 1_555
Fe7 Si6 2.359348 1_565
Fe7 Si5 2.403492 1_455
Fe7 Si4 2.455846 1_565
Fe7 Si8 2.461840 1_565
Fe7 Fe8 2.490011 1_565
Fe7 La1 3.178773 1_565
Fe7 La0 3.206465 1_556
Fe8 Si8 2.331142 1_555
Fe8 Si9 2.331142 1_445
Fe8 Si0 2.382881 1_445
Fe8 Si1 2.382881 1_555
Fe8 Si5 2.382884 1_445
Fe8 Si4 2.382884 1_555
Fe9 Si7 2.346206 1_555
Fe9 Si2 2.346206 1_555
Fe9 Si3 2.346206 1_555
Fe9 Si6 2.346206 1_555
Fe10 Fe15 2.325457 1_555
Fe10 Fe14 2.338420 1_446
Fe10 Fe9 2.409884 1_555
Fe10 Si1 2.468040 1_556
Fe10 Si4 2.468046 1_556
Fe10 Si3 2.527033 1_555
Fe10 Si6 2.527033 1_555
Fe10 Fe5 2.529363 1_555
Fe10 Fe12 2.661150 1_555
Fe10 La1 3.366632 1_456
Fe10 La0 3.366632 1_546
Fe11 Fe14 2.325457 1_555
Fe11 Fe15 2.338420 1_664
Fe11 Fe9 2.409884 1_555
Fe11 Si0 2.468040 1_554
Fe11 Si5 2.468046 1_554
Fe11 Si2 2.527033 1_555
Fe11 Si7 2.527033 1_555
Fe11 Fe4 2.529361 1_555
Fe11 Fe13 2.661150 1_555
Fe11 La0 3.366632 1_655
Fe11 La1 3.366632 1_565
Fe12 Si9 2.312687 1_555
Fe12 Si8 2.318456 1_556
Fe12 Fe9 2.466588 1_555
Fe12 Si7 2.589645 1_555
Fe12 Si2 2.589645 1_555
Fe12 Si1 2.596510 1_556
Fe12 Si4 2.596510 1_556
Fe12 La0 3.272334 1_556
Fe12 La1 3.272334 1_556
Fe13 Si8 2.312687 1_555
Fe13 Si9 2.318456 1_554
Fe13 Fe9 2.466588 1_555
Fe13 Si3 2.589645 1_555
Fe13 Si6 2.589645 1_555
Fe13 Si0 2.596510 1_554
Fe13 Si5 2.596510 1_554
Fe13 La0 3.272334 1_555
Fe13 La1 3.272334 1_555
Fe14 Fe8 2.409869 1_665
Fe14 Si7 2.506376 1_555
Fe14 Si2 2.506376 1_555
Fe14 Si9 2.508144 1_555
Fe14 Fe6 2.511653 1_655
Fe14 Fe3 2.511653 1_565
Fe14 Si1 2.533179 1_665
Fe14 Si4 2.533186 1_665
Fe14 La1 3.363599 1_565
Fe14 La0 3.363599 1_655
Fe15 Fe8 2.409869 1_555
Fe15 Si6 2.506376 1_555
Fe15 Si3 2.506376 1_555
Fe15 Si8 2.508144 1_555
Fe15 Fe7 2.511653 1_545
Fe15 Fe2 2.511653 1_455
Fe15 Si0 2.533179 1_445
Fe15 Si5 2.533186 1_445
Fe15 La1 3.363599 1_456
Fe15 La0 3.363599 1_546
Si0 Si9 2.588434 1_555
Si1 Si8 2.588434 1_555
Si2 Si9 2.576904 1_555
Si3 Si8 2.576904 1_555
Si4 Si8 2.588433 1_555
Si5 Si9 2.588433 1_555
Si6 Si8 2.576904 1_555
Si7 Si9 2.576904 1_555
