# generated using pymatgen
data_Li3Mn2O5
_symmetry_space_group_name_H-M   'P 1'
_cell_length_a   2.96564531
_cell_length_b   12.17059035
_cell_length_c   5.09098798
_cell_angle_alpha   83.91050841
_cell_angle_beta   91.20209947
_cell_angle_gamma   86.00640453
_symmetry_Int_Tables_number   1
_chemical_formula_structural   Li3Mn2O5
_chemical_formula_sum   'Li6 Mn4 O10'
_cell_volume   182.19731113
_cell_formula_units_Z   2
loop_
 _symmetry_equiv_pos_site_id
 _symmetry_equiv_pos_as_xyz
  1  'x, y, z'
loop_
 _atom_site_type_symbol
 _atom_site_label
 _atom_site_symmetry_multiplicity
 _atom_site_fract_x
 _atom_site_fract_y
 _atom_site_fract_z
 _atom_site_occupancy
  Li  Li0  1  0.89992100  0.20000200  0.30001700  1
  Li  Li1  1  0.40001000  0.19999400  0.79999700  1
  Li  Li2  1  0.31547200  0.39183800  0.09355100  1
  Li  Li3  1  0.48447700  0.00818200  0.50643200  1
  Li  Li4  1  0.69764500  0.60142900  0.90782200  1
  Li  Li5  1  0.10240000  0.79857500  0.69211200  1
  Mn  Mn0  1  0.81994700  0.39201200  0.60891800  1
  Mn  Mn1  1  0.21594800  0.59820200  0.39664100  1
  Mn  Mn2  1  0.98003200  0.00799500  0.99106100  1
  Mn  Mn3  1  0.58411000  0.80175000  0.20332700  1
  O  O0  1  0.45959300  0.08789000  0.13071700  1
  O  O1  1  0.34033400  0.31210200  0.46931200  1
  O  O2  1  0.84740400  0.30868900  0.92757900  1
  O  O3  1  0.95244600  0.09130300  0.67248900  1
  O  O4  1  0.29094800  0.49019800  0.72014500  1
  O  O5  1  0.50900000  0.90980500  0.87986400  1
  O  O6  1  0.61947500  0.70027300  0.53686100  1
  O  O7  1  0.18065400  0.69975500  0.06313800  1
  O  O8  1  0.99819400  0.89981200  0.32837900  1
  O  O9  1  0.80198900  0.50019500  0.27163900  1
loop_
_geom_bond_atom_site_label_1
_geom_bond_atom_site_label_2
_geom_bond_distance
_geom_bond_site_symmetry_2
Li0 O0 2.181832 1_555
Li0 O1 2.181877 1_655
Li0 O2 2.189957 1_554
Li0 O3 2.190170 1_555
Li0 O1 2.313524 1_555
Li0 O0 2.313793 1_655
Li1 O1 2.047853 1_555
Li1 O0 2.047953 1_556
Li1 O2 2.079169 1_555
Li1 O3 2.079337 1_455
Li1 O3 2.186397 1_555
Li1 O2 2.186927 1_455
Li2 O2 1.998200 1_454
Li2 O1 2.048652 1_555
Li2 O2 2.059515 1_554
Li2 O4 2.133404 1_554
Li2 O9 2.216298 1_455
Li2 O9 2.259813 1_555
Li3 O3 1.997984 1_555
Li3 O0 2.048317 1_555
Li3 O3 2.059776 1_455
Li3 O5 2.133610 1_545
Li3 O8 2.216759 1_545
Li3 O8 2.259374 1_445
Li4 O7 2.098590 1_556
Li4 O9 2.117322 1_556
Li4 O7 2.121591 1_656
Li4 O6 2.127991 1_555
Li4 O4 2.157258 1_555
Li4 O4 2.419638 1_655
Li5 O6 2.098451 1_555
Li5 O8 2.116958 1_455
Li5 O6 2.121086 1_455
Li5 O7 2.128141 1_556
Li5 O5 2.157268 1_555
Li5 O5 2.420011 1_455
Mn0 O2 1.816804 1_555
Mn0 O1 1.941914 1_555
Mn0 O1 1.953544 1_655
Mn0 O4 2.010625 1_655
Mn0 O4 2.032127 1_555
Mn0 O9 2.047320 1_555
Mn1 O9 1.914978 1_455
Mn1 O6 1.960695 1_555
Mn1 O7 1.987607 1_555
Mn1 O4 1.993582 1_555
Mn1 O9 2.183362 1_555
Mn1 O6 2.262070 1_455
Mn2 O3 1.816338 1_555
Mn2 O0 1.941792 1_656
Mn2 O0 1.953684 1_556
Mn2 O5 2.010675 1_545
Mn2 O5 2.032032 1_645
Mn2 O8 2.047451 1_546
Mn3 O8 1.915797 1_555
Mn3 O7 1.959832 1_555
Mn3 O6 1.987242 1_555
Mn3 O5 1.993790 1_554
Mn3 O8 2.183521 1_455
Mn3 O7 2.261678 1_655
