# generated using pymatgen
data_Sm3Bi(Ru2O7)2
_symmetry_space_group_name_H-M   'P 1'
_cell_length_a   7.35365738
_cell_length_b   7.35365738
_cell_length_c   7.32278800
_cell_angle_alpha   90.00000000
_cell_angle_beta   59.86045338
_cell_angle_gamma   120.00000000
_symmetry_Int_Tables_number   1
_chemical_formula_structural   Sm3Bi(Ru2O7)2
_chemical_formula_sum   'Sm3 Bi1 Ru4 O14'
_cell_volume   279.41452895
_cell_formula_units_Z   1
loop_
 _symmetry_equiv_pos_site_id
 _symmetry_equiv_pos_as_xyz
  1  'x, y, z'
loop_
 _atom_site_type_symbol
 _atom_site_label
 _atom_site_symmetry_multiplicity
 _atom_site_fract_x
 _atom_site_fract_y
 _atom_site_fract_z
 _atom_site_occupancy
  Sm  Sm0  1  0.25000000  0.37500000  0.37500000  1
  Sm  Sm1  1  0.25000000  0.87500000  0.37500000  1
  Sm  Sm2  1  0.75000000  0.37500000  0.37500000  1
  Bi  Bi0  1  0.75000000  0.37500000  0.87500000  1
  Ru  Ru0  1  0.75000000  0.87500000  0.37500000  1
  Ru  Ru1  1  0.25000000  0.87500000  0.87500000  1
  Ru  Ru2  1  0.25000000  0.37500000  0.87500000  1
  Ru  Ru3  1  0.75000000  0.87500000  0.87500000  1
  O  O0  1  0.49573200  0.24786600  0.25640100  1
  O  O1  1  0.00426800  0.50213400  0.49359900  1
  O  O2  1  0.91380800  0.95690400  0.54254800  1
  O  O3  1  0.50054800  0.54364400  0.54254800  1
  O  O4  1  0.50054800  0.95690400  0.54254800  1
  O  O5  1  0.09003900  0.54501900  0.95410500  1
  O  O6  1  0.50087600  0.95585600  0.95410500  1
  O  O7  1  0.50087600  0.54501900  0.95410500  1
  O  O8  1  0.58619200  0.79309600  0.20745200  1
  O  O9  1  0.99945200  0.20635600  0.20745200  1
  O  O10  1  0.99945200  0.79309600  0.20745200  1
  O  O11  1  0.40996100  0.20498100  0.79589500  1
  O  O12  1  0.99912400  0.79414400  0.79589500  1
  O  O13  1  0.99912400  0.20498100  0.79589500  1
loop_
_geom_bond_atom_site_label_1
_geom_bond_atom_site_label_2
_geom_bond_distance
_geom_bond_site_symmetry_2
Bi0 O0 2.275587 1_556
Bi0 O1 2.275587 1_655
Bi0 O7 2.545505 1_555
Bi0 O13 2.545505 1_555
Bi0 O11 2.545511 1_555
Bi0 O12 2.545511 1_555
Bi0 O6 2.545511 1_545
Bi0 O5 2.545511 1_655
O0 Sm1 2.237645 1_545
O0 Sm0 2.237645 1_555
O0 Sm2 2.237651 1_555
O1 Sm1 2.237645 1_555
O1 Sm0 2.237645 1_555
O1 Sm2 2.237651 1_455
O2 Ru3 2.017435 1_555
O2 Ru0 2.019348 1_555
O2 Sm1 2.534374 1_655
O2 Sm0 2.534374 1_665
O3 Ru2 2.017435 1_555
O3 Ru0 2.019348 1_555
O3 Sm0 2.534374 1_555
O3 Sm2 2.534374 1_555
O4 Ru1 2.017435 1_555
O4 Ru0 2.019348 1_555
O4 Sm1 2.534374 1_555
O4 Sm2 2.534374 1_565
O5 Ru2 2.017126 1_555
O5 Ru1 2.017133 1_555
O5 Sm2 2.539596 1_456
O6 Ru3 2.017126 1_555
O6 Ru1 2.017133 1_555
O6 Sm1 2.539596 1_556
O7 Ru3 2.017132 1_555
O7 Ru2 2.017132 1_555
O7 Sm0 2.539595 1_556
O8 Ru3 2.017435 1_554
O8 Ru0 2.019348 1_555
O8 Sm1 2.534374 1_555
O8 Sm0 2.534374 1_555
O9 Ru2 2.017435 1_654
O9 Ru0 2.019348 1_545
O9 Sm0 2.534374 1_655
O9 Sm2 2.534374 1_555
O10 Ru1 2.017435 1_654
O10 Ru0 2.019348 1_555
O10 Sm1 2.534374 1_655
O10 Sm2 2.534374 1_555
O11 Ru2 2.017126 1_555
O11 Ru1 2.017133 1_545
O11 Sm2 2.539596 1_555
O12 Ru3 2.017126 1_555
O12 Ru1 2.017133 1_655
O12 Sm1 2.539596 1_655
O13 Ru2 2.017132 1_655
O13 Ru3 2.017132 1_545
O13 Sm0 2.539595 1_655
