# generated using pymatgen
data_Ti4Co5Ni
_symmetry_space_group_name_H-M   'P 1'
_cell_length_a   6.06026000
_cell_length_b   6.06026000
_cell_length_c   27.89162000
_cell_angle_alpha   90.00000000
_cell_angle_beta   90.00000000
_cell_angle_gamma   90.00000000
_symmetry_Int_Tables_number   1
_chemical_formula_structural   Ti4Co5Ni
_chemical_formula_sum   'Ti32 Co40 Ni8'
_cell_volume   1024.36859019
_cell_formula_units_Z   8
loop_
 _symmetry_equiv_pos_site_id
 _symmetry_equiv_pos_as_xyz
  1  'x, y, z'
loop_
 _atom_site_type_symbol
 _atom_site_label
 _atom_site_symmetry_multiplicity
 _atom_site_fract_x
 _atom_site_fract_y
 _atom_site_fract_z
 _atom_site_occupancy
  Ti  Ti0_0  1  0.25000000  0.25000000  0.09184350  1
  Ti  Ti0_1  1  0.25000000  0.25000000  0.59184350  1
  Ti  Ti0_2  1  0.25000000  0.75000000  0.09184350  1
  Ti  Ti0_3  1  0.25000000  0.75000000  0.59184350  1
  Ti  Ti0_4  1  0.75000000  0.25000000  0.09184350  1
  Ti  Ti0_5  1  0.75000000  0.25000000  0.59184350  1
  Ti  Ti0_6  1  0.75000000  0.75000000  0.09184350  1
  Ti  Ti0_7  1  0.75000000  0.75000000  0.59184350  1
  Ti  Ti1_0  1  0.25000000  0.25000000  0.19741550  1
  Ti  Ti1_1  1  0.25000000  0.25000000  0.69741550  1
  Ti  Ti1_2  1  0.25000000  0.75000000  0.19741550  1
  Ti  Ti1_3  1  0.25000000  0.75000000  0.69741550  1
  Ti  Ti1_4  1  0.75000000  0.25000000  0.19741550  1
  Ti  Ti1_5  1  0.75000000  0.25000000  0.69741550  1
  Ti  Ti1_6  1  0.75000000  0.75000000  0.19741550  1
  Ti  Ti1_7  1  0.75000000  0.75000000  0.69741550  1
  Ti  Ti2_0  1  0.25000000  0.25000000  0.30258450  1
  Ti  Ti2_1  1  0.25000000  0.25000000  0.80258450  1
  Ti  Ti2_2  1  0.25000000  0.75000000  0.30258450  1
  Ti  Ti2_3  1  0.25000000  0.75000000  0.80258450  1
  Ti  Ti2_4  1  0.75000000  0.25000000  0.30258450  1
  Ti  Ti2_5  1  0.75000000  0.25000000  0.80258450  1
  Ti  Ti2_6  1  0.75000000  0.75000000  0.30258450  1
  Ti  Ti2_7  1  0.75000000  0.75000000  0.80258450  1
  Ti  Ti3_0  1  0.25000000  0.25000000  0.40815650  1
  Ti  Ti3_1  1  0.25000000  0.25000000  0.90815650  1
  Ti  Ti3_2  1  0.25000000  0.75000000  0.40815650  1
  Ti  Ti3_3  1  0.25000000  0.75000000  0.90815650  1
  Ti  Ti3_4  1  0.75000000  0.25000000  0.40815650  1
  Ti  Ti3_5  1  0.75000000  0.25000000  0.90815650  1
  Ti  Ti3_6  1  0.75000000  0.75000000  0.40815650  1
  Ti  Ti3_7  1  0.75000000  0.75000000  0.90815650  1
  Co  Co0_0  1  0.00000000  0.00000000  0.45326450  1
  Co  Co0_1  1  0.00000000  0.00000000  0.95326450  1
  Co  Co0_2  1  0.00000000  0.50000000  0.45326450  1
  Co  Co0_3  1  0.00000000  0.50000000  0.95326450  1
  Co  Co0_4  1  0.50000000  0.00000000  0.45326450  1
  Co  Co0_5  1  0.50000000  0.00000000  0.95326450  1
  Co  Co0_6  1  0.50000000  0.50000000  0.45326450  1
  Co  Co0_7  1  0.50000000  0.50000000  0.95326450  1
  Co  Co1_0  1  0.00000000  0.00000000  0.04673550  1
  Co  Co1_1  1  0.00000000  0.00000000  0.54673550  1
  Co  Co1_2  1  0.00000000  0.50000000  0.04673550  1
  Co  Co1_3  1  0.00000000  0.50000000  0.54673550  1
  Co  Co1_4  1  0.50000000  0.00000000  0.04673550  1
  Co  Co1_5  1  0.50000000  0.00000000  0.54673550  1
  Co  Co1_6  1  0.50000000  0.50000000  0.04673550  1
  Co  Co1_7  1  0.50000000  0.50000000  0.54673550  1
  Co  Co2_0  1  0.00000000  0.00000000  0.14765900  1
  Co  Co2_1  1  0.00000000  0.00000000  0.64765900  1
  Co  Co2_2  1  0.00000000  0.50000000  0.14765900  1
  Co  Co2_3  1  0.00000000  0.50000000  0.64765900  1
  Co  Co2_4  1  0.50000000  0.00000000  0.14765900  1
  Co  Co2_5  1  0.50000000  0.00000000  0.64765900  1
  Co  Co2_6  1  0.50000000  0.50000000  0.14765900  1
  Co  Co2_7  1  0.50000000  0.50000000  0.64765900  1
  Co  Co3_0  1  0.00000000  0.00000000  0.25000000  1
  Co  Co3_1  1  0.00000000  0.00000000  0.75000000  1
  Co  Co3_2  1  0.00000000  0.50000000  0.25000000  1
  Co  Co3_3  1  0.00000000  0.50000000  0.75000000  1
  Co  Co3_4  1  0.50000000  0.00000000  0.25000000  1
  Co  Co3_5  1  0.50000000  0.00000000  0.75000000  1
  Co  Co3_6  1  0.50000000  0.50000000  0.25000000  1
  Co  Co3_7  1  0.50000000  0.50000000  0.75000000  1
  Co  Co4_0  1  0.00000000  0.00000000  0.35234100  1
  Co  Co4_1  1  0.00000000  0.00000000  0.85234100  1
  Co  Co4_2  1  0.00000000  0.50000000  0.35234100  1
  Co  Co4_3  1  0.00000000  0.50000000  0.85234100  1
  Co  Co4_4  1  0.50000000  0.00000000  0.35234100  1
  Co  Co4_5  1  0.50000000  0.00000000  0.85234100  1
  Co  Co4_6  1  0.50000000  0.50000000  0.35234100  1
  Co  Co4_7  1  0.50000000  0.50000000  0.85234100  1
  Ni  Ni0_0  1  0.25000000  0.25000000  0.00000000  1
  Ni  Ni0_1  1  0.25000000  0.25000000  0.50000000  1
  Ni  Ni0_2  1  0.25000000  0.75000000  0.00000000  1
  Ni  Ni0_3  1  0.25000000  0.75000000  0.50000000  1
  Ni  Ni0_4  1  0.75000000  0.25000000  0.00000000  1
  Ni  Ni0_5  1  0.75000000  0.25000000  0.50000000  1
  Ni  Ni0_6  1  0.75000000  0.75000000  0.00000000  1
  Ni  Ni0_7  1  0.75000000  0.75000000  0.50000000  1
loop_
_geom_bond_atom_site_label_1
_geom_bond_atom_site_label_2
_geom_bond_distance
_geom_bond_site_symmetry_2
Co0_0 Ti3_6 2.484703 1_445
Co0_0 Ti3_4 2.484703 1_455
Co0_0 Ti3_2 2.484703 1_545
Co0_0 Ti3_0 2.484703 1_555
Co0_0 Ni0_7 2.507993 1_445
Co0_0 Ni0_5 2.507993 1_455
Co0_0 Ni0_3 2.507993 1_545
Co0_0 Ni0_1 2.507993 1_555
Co0_0 Co1_1 2.607058 1_555
Co0_0 Co4_0 2.814920 1_555
Co0_1 Ti3_7 2.484703 1_445
Co0_1 Ti3_5 2.484703 1_455
Co0_1 Ti3_3 2.484703 1_545
Co0_1 Ti3_1 2.484703 1_555
Co0_1 Ni0_6 2.507993 1_446
Co0_1 Ni0_4 2.507993 1_456
Co0_1 Ni0_0 2.507993 1_556
Co0_1 Ni0_2 2.507993 1_546
Co0_1 Co1_0 2.607058 1_556
Co0_1 Co4_1 2.814920 1_555
Co0_2 Ti3_4 2.484703 1_455
Co0_2 Ti3_0 2.484703 1_555
Co0_2 Ti3_6 2.484703 1_455
Co0_2 Ti3_2 2.484703 1_555
Co0_2 Ni0_5 2.507993 1_455
Co0_2 Ni0_1 2.507993 1_555
Co0_2 Ni0_7 2.507993 1_455
Co0_2 Ni0_3 2.507993 1_555
Co0_2 Co1_3 2.607058 1_555
Co0_2 Co4_2 2.814920 1_555
Co0_3 Ti3_5 2.484703 1_455
Co0_3 Ti3_7 2.484703 1_455
Co0_3 Ti3_1 2.484703 1_555
Co0_3 Ti3_3 2.484703 1_555
Co0_3 Ni0_4 2.507993 1_456
Co0_3 Ni0_6 2.507993 1_456
Co0_3 Ni0_0 2.507993 1_556
Co0_3 Ni0_2 2.507993 1_556
Co0_3 Co1_2 2.607058 1_556
Co0_3 Co4_3 2.814920 1_555
Co0_4 Ti3_2 2.484703 1_545
Co0_4 Ti3_0 2.484703 1_555
Co0_4 Ti3_6 2.484703 1_545
Co0_4 Ti3_4 2.484703 1_555
Co0_4 Ni0_3 2.507993 1_545
Co0_4 Ni0_1 2.507993 1_555
Co0_4 Ni0_7 2.507993 1_545
Co0_4 Ni0_5 2.507993 1_555
Co0_4 Co1_5 2.607058 1_555
Co0_4 Co4_4 2.814920 1_555
Co0_5 Ti3_1 2.484703 1_555
Co0_5 Ti3_7 2.484703 1_545
Co0_5 Ti3_3 2.484703 1_545
Co0_5 Ti3_5 2.484703 1_555
Co0_5 Ni0_2 2.507993 1_546
Co0_5 Ni0_6 2.507993 1_546
Co0_5 Ni0_0 2.507993 1_556
Co0_5 Ni0_4 2.507993 1_556
Co0_5 Co1_4 2.607058 1_556
Co0_5 Co4_5 2.814920 1_555
Co0_6 Ti3_0 2.484703 1_555
Co0_6 Ti3_4 2.484703 1_555
Co0_6 Ti3_2 2.484703 1_555
Co0_6 Ti3_6 2.484703 1_555
Co0_6 Ni0_1 2.507993 1_555
Co0_6 Ni0_5 2.507993 1_555
Co0_6 Ni0_3 2.507993 1_555
Co0_6 Ni0_7 2.507993 1_555
Co0_6 Co1_7 2.607058 1_555
Co0_6 Co4_6 2.814920 1_555
Co0_7 Ti3_1 2.484703 1_555
Co0_7 Ti3_5 2.484703 1_555
Co0_7 Ti3_3 2.484703 1_555
Co0_7 Ti3_7 2.484703 1_555
Co0_7 Ni0_0 2.507993 1_556
Co0_7 Ni0_4 2.507993 1_556
Co0_7 Ni0_2 2.507993 1_556
Co0_7 Ni0_6 2.507993 1_556
Co0_7 Co1_6 2.607058 1_556
Co0_7 Co4_7 2.814920 1_555
Co1_0 Ti0_4 2.484703 1_455
Co1_0 Ti0_6 2.484703 1_445
Co1_0 Ti0_2 2.484703 1_545
Co1_0 Ti0_0 2.484703 1_555
Co1_0 Ni0_6 2.507993 1_445
Co1_0 Ni0_4 2.507993 1_455
Co1_0 Ni0_2 2.507993 1_545
Co1_0 Ni0_0 2.507993 1_555
Co1_0 Co2_0 2.814920 1_555
Co1_1 Ti0_7 2.484703 1_445
Co1_1 Ti0_3 2.484703 1_545
Co1_1 Ti0_5 2.484703 1_455
Co1_1 Ti0_1 2.484703 1_555
Co1_1 Ni0_5 2.507993 1_455
Co1_1 Ni0_7 2.507993 1_445
Co1_1 Ni0_3 2.507993 1_545
Co1_1 Ni0_1 2.507993 1_555
Co1_1 Co2_1 2.814920 1_555
Co1_2 Ti0_4 2.484703 1_455
Co1_2 Ti0_0 2.484703 1_555
Co1_2 Ti0_2 2.484703 1_555
Co1_2 Ti0_6 2.484703 1_455
Co1_2 Ni0_4 2.507993 1_455
Co1_2 Ni0_6 2.507993 1_455
Co1_2 Ni0_0 2.507993 1_555
Co1_2 Ni0_2 2.507993 1_555
Co1_2 Co2_2 2.814920 1_555
Co1_3 Ti0_5 2.484703 1_455
Co1_3 Ti0_1 2.484703 1_555
Co1_3 Ti0_7 2.484703 1_455
Co1_3 Ti0_3 2.484703 1_555
Co1_3 Ni0_5 2.507993 1_455
Co1_3 Ni0_7 2.507993 1_455
Co1_3 Ni0_1 2.507993 1_555
Co1_3 Ni0_3 2.507993 1_555
Co1_3 Co2_3 2.814920 1_555
Co1_4 Ti0_2 2.484703 1_545
Co1_4 Ti0_0 2.484703 1_555
Co1_4 Ti0_4 2.484703 1_555
Co1_4 Ti0_6 2.484703 1_545
Co1_4 Ni0_2 2.507993 1_545
Co1_4 Ni0_0 2.507993 1_555
Co1_4 Ni0_6 2.507993 1_545
Co1_4 Ni0_4 2.507993 1_555
Co1_4 Co2_4 2.814920 1_555
Co1_5 Ti0_3 2.484703 1_545
Co1_5 Ti0_1 2.484703 1_555
Co1_5 Ti0_7 2.484703 1_545
Co1_5 Ti0_5 2.484703 1_555
Co1_5 Ni0_3 2.507993 1_545
Co1_5 Ni0_1 2.507993 1_555
Co1_5 Ni0_7 2.507993 1_545
Co1_5 Ni0_5 2.507993 1_555
Co1_5 Co2_5 2.814920 1_555
Co1_6 Ti0_0 2.484703 1_555
Co1_6 Ti0_4 2.484703 1_555
Co1_6 Ti0_2 2.484703 1_555
Co1_6 Ti0_6 2.484703 1_555
Co1_6 Ni0_0 2.507993 1_555
Co1_6 Ni0_2 2.507993 1_555
Co1_6 Ni0_4 2.507993 1_555
Co1_6 Ni0_6 2.507993 1_555
Co1_6 Co2_6 2.814920 1_555
Co1_7 Ti0_1 2.484703 1_555
Co1_7 Ti0_3 2.484703 1_555
Co1_7 Ti0_7 2.484703 1_555
Co1_7 Ti0_5 2.484703 1_555
Co1_7 Ni0_1 2.507993 1_555
Co1_7 Ni0_5 2.507993 1_555
Co1_7 Ni0_3 2.507993 1_555
Co1_7 Ni0_7 2.507993 1_555
Co1_7 Co2_7 2.814920 1_555
Co2_0 Ti1_6 2.552803 1_445
Co2_0 Ti1_2 2.552803 1_545
Co2_0 Ti1_4 2.552803 1_455
Co2_0 Ti1_0 2.552803 1_555
Co2_0 Ti0_6 2.648476 1_445
Co2_0 Ti0_2 2.648476 1_545
Co2_0 Ti0_4 2.648476 1_455
Co2_0 Ti0_0 2.648476 1_555
Co2_0 Co3_0 2.854456 1_555
Co2_0 Co2_4 3.030130 1_555
Co2_0 Co2_2 3.030130 1_545
Co2_0 Co2_2 3.030130 1_555
Co2_0 Co2_4 3.030130 1_455
Co2_1 Ti1_7 2.552803 1_445
Co2_1 Ti1_3 2.552803 1_545
Co2_1 Ti1_5 2.552803 1_455
Co2_1 Ti1_1 2.552803 1_555
Co2_1 Ti0_7 2.648476 1_445
Co2_1 Ti0_3 2.648476 1_545
Co2_1 Ti0_5 2.648476 1_455
Co2_1 Ti0_1 2.648476 1_555
Co2_1 Co3_1 2.854456 1_555
Co2_1 Co2_5 3.030130 1_455
Co2_1 Co2_5 3.030130 1_555
Co2_1 Co2_3 3.030130 1_555
Co2_1 Co2_3 3.030130 1_545
Co2_2 Ti1_4 2.552803 1_455
Co2_2 Ti1_6 2.552803 1_455
Co2_2 Ti1_0 2.552803 1_555
Co2_2 Ti1_2 2.552803 1_555
Co2_2 Ti0_4 2.648476 1_455
Co2_2 Ti0_6 2.648476 1_455
Co2_2 Ti0_0 2.648476 1_555
Co2_2 Ti0_2 2.648476 1_555
Co2_2 Co3_2 2.854456 1_555
Co2_2 Co2_6 3.030130 1_555
Co2_2 Co2_6 3.030130 1_455
Co2_3 Ti1_5 2.552803 1_455
Co2_3 Ti1_7 2.552803 1_455
Co2_3 Ti1_1 2.552803 1_555
Co2_3 Ti1_3 2.552803 1_555
Co2_3 Ti0_5 2.648476 1_455
Co2_3 Ti0_7 2.648476 1_455
Co2_3 Ti0_1 2.648476 1_555
Co2_3 Ti0_3 2.648476 1_555
Co2_3 Co3_3 2.854456 1_555
Co2_3 Co2_7 3.030130 1_555
Co2_3 Co2_7 3.030130 1_455
Co2_4 Ti1_2 2.552803 1_545
Co2_4 Ti1_0 2.552803 1_555
Co2_4 Ti1_6 2.552803 1_545
Co2_4 Ti1_4 2.552803 1_555
Co2_4 Ti0_2 2.648476 1_545
Co2_4 Ti0_6 2.648476 1_545
Co2_4 Ti0_0 2.648476 1_555
Co2_4 Ti0_4 2.648476 1_555
Co2_4 Co3_4 2.854456 1_555
Co2_4 Co2_6 3.030130 1_555
Co2_4 Co2_6 3.030130 1_545
Co2_5 Ti1_3 2.552803 1_545
Co2_5 Ti1_1 2.552803 1_555
Co2_5 Ti1_7 2.552803 1_545
Co2_5 Ti1_5 2.552803 1_555
Co2_5 Ti0_3 2.648476 1_545
Co2_5 Ti0_1 2.648476 1_555
Co2_5 Ti0_7 2.648476 1_545
Co2_5 Ti0_5 2.648476 1_555
Co2_5 Co3_5 2.854456 1_555
Co2_5 Co2_7 3.030130 1_545
Co2_5 Co2_7 3.030130 1_555
Co2_6 Ti1_0 2.552803 1_555
Co2_6 Ti1_4 2.552803 1_555
Co2_6 Ti1_2 2.552803 1_555
Co2_6 Ti1_6 2.552803 1_555
Co2_6 Ti0_0 2.648476 1_555
Co2_6 Ti0_4 2.648476 1_555
Co2_6 Ti0_2 2.648476 1_555
Co2_6 Ti0_6 2.648476 1_555
Co2_6 Co3_6 2.854456 1_555
Co2_7 Ti1_1 2.552803 1_555
Co2_7 Ti1_5 2.552803 1_555
Co2_7 Ti1_3 2.552803 1_555
Co2_7 Ti1_7 2.552803 1_555
Co2_7 Ti0_1 2.648476 1_555
Co2_7 Ti0_3 2.648476 1_555
Co2_7 Ti0_5 2.648476 1_555
Co2_7 Ti0_7 2.648476 1_555
Co2_7 Co3_7 2.854456 1_555
Co3_0 Ti2_6 2.596528 1_445
Co3_0 Ti1_6 2.596528 1_445
Co3_0 Ti2_2 2.596528 1_545
Co3_0 Ti2_4 2.596528 1_455
Co3_0 Ti1_2 2.596528 1_545
Co3_0 Ti1_4 2.596528 1_455
Co3_0 Ti1_0 2.596528 1_555
Co3_0 Ti2_0 2.596528 1_555
Co3_0 Co4_0 2.854456 1_555
Co3_1 Ti1_7 2.596528 1_445
Co3_1 Ti1_5 2.596528 1_455
Co3_1 Ti1_3 2.596528 1_545
Co3_1 Ti1_1 2.596528 1_555
Co3_1 Ti2_7 2.596528 1_445
Co3_1 Ti2_3 2.596528 1_545
Co3_1 Ti2_5 2.596528 1_455
Co3_1 Ti2_1 2.596528 1_555
Co3_1 Co4_1 2.854456 1_555
Co3_2 Ti2_4 2.596528 1_455
Co3_2 Ti1_4 2.596528 1_455
Co3_2 Ti1_6 2.596528 1_455
Co3_2 Ti1_0 2.596528 1_555
Co3_2 Ti2_0 2.596528 1_555
Co3_2 Ti2_6 2.596528 1_455
Co3_2 Ti1_2 2.596528 1_555
Co3_2 Ti2_2 2.596528 1_555
Co3_2 Co4_2 2.854456 1_555
Co3_3 Ti1_5 2.596528 1_455
Co3_3 Ti1_7 2.596528 1_455
Co3_3 Ti1_1 2.596528 1_555
Co3_3 Ti1_3 2.596528 1_555
Co3_3 Ti2_5 2.596528 1_455
Co3_3 Ti2_7 2.596528 1_455
Co3_3 Ti2_1 2.596528 1_555
Co3_3 Ti2_3 2.596528 1_555
Co3_3 Co4_3 2.854456 1_555
Co3_4 Ti2_2 2.596528 1_545
Co3_4 Ti1_2 2.596528 1_545
Co3_4 Ti1_0 2.596528 1_555
Co3_4 Ti1_6 2.596528 1_545
Co3_4 Ti2_0 2.596528 1_555
Co3_4 Ti2_6 2.596528 1_545
Co3_4 Ti1_4 2.596528 1_555
Co3_4 Ti2_4 2.596528 1_555
Co3_4 Co4_4 2.854456 1_555
Co3_5 Ti1_3 2.596528 1_545
Co3_5 Ti1_1 2.596528 1_555
Co3_5 Ti1_7 2.596528 1_545
Co3_5 Ti1_5 2.596528 1_555
Co3_5 Ti2_3 2.596528 1_545
Co3_5 Ti2_7 2.596528 1_545
Co3_5 Ti2_1 2.596528 1_555
Co3_5 Ti2_5 2.596528 1_555
Co3_5 Co4_5 2.854456 1_555
Co3_6 Ti1_0 2.596528 1_555
Co3_6 Ti2_0 2.596528 1_555
Co3_6 Ti1_4 2.596528 1_555
Co3_6 Ti1_2 2.596528 1_555
Co3_6 Ti2_4 2.596528 1_555
Co3_6 Ti2_2 2.596528 1_555
Co3_6 Ti1_6 2.596528 1_555
Co3_6 Ti2_6 2.596528 1_555
Co3_6 Co4_6 2.854456 1_555
Co3_7 Ti1_1 2.596528 1_555
Co3_7 Ti1_5 2.596528 1_555
Co3_7 Ti1_3 2.596528 1_555
Co3_7 Ti1_7 2.596528 1_555
Co3_7 Ti2_1 2.596528 1_555
Co3_7 Ti2_5 2.596528 1_555
Co3_7 Ti2_3 2.596528 1_555
Co3_7 Ti2_7 2.596528 1_555
Co3_7 Co4_7 2.854456 1_555
Co4_0 Ti2_6 2.552803 1_445
Co4_0 Ti2_2 2.552803 1_545
Co4_0 Ti2_4 2.552803 1_455
Co4_0 Ti2_0 2.552803 1_555
Co4_0 Ti3_6 2.648476 1_445
Co4_0 Ti3_2 2.648476 1_545
Co4_0 Ti3_4 2.648476 1_455
Co4_0 Ti3_0 2.648476 1_555
Co4_0 Co4_2 3.030130 1_545
Co4_0 Co4_2 3.030130 1_555
Co4_0 Co4_4 3.030130 1_455
Co4_0 Co4_4 3.030130 1_555
Co4_1 Ti2_7 2.552803 1_445
Co4_1 Ti2_5 2.552803 1_455
Co4_1 Ti2_3 2.552803 1_545
Co4_1 Ti2_1 2.552803 1_555
Co4_1 Ti3_7 2.648476 1_445
Co4_1 Ti3_3 2.648476 1_545
Co4_1 Ti3_5 2.648476 1_455
Co4_1 Ti3_1 2.648476 1_555
Co4_1 Co4_5 3.030130 1_455
Co4_1 Co4_5 3.030130 1_555
Co4_1 Co4_3 3.030130 1_555
Co4_1 Co4_3 3.030130 1_545
Co4_2 Ti2_4 2.552803 1_455
Co4_2 Ti2_0 2.552803 1_555
Co4_2 Ti2_6 2.552803 1_455
Co4_2 Ti2_2 2.552803 1_555
Co4_2 Ti3_4 2.648476 1_455
Co4_2 Ti3_6 2.648476 1_455
Co4_2 Ti3_0 2.648476 1_555
Co4_2 Ti3_2 2.648476 1_555
Co4_2 Co4_6 3.030130 1_555
Co4_2 Co4_6 3.030130 1_455
Co4_3 Ti2_5 2.552803 1_455
Co4_3 Ti2_1 2.552803 1_555
Co4_3 Ti2_7 2.552803 1_455
Co4_3 Ti2_3 2.552803 1_555
Co4_3 Ti3_5 2.648476 1_455
Co4_3 Ti3_7 2.648476 1_455
Co4_3 Ti3_1 2.648476 1_555
Co4_3 Ti3_3 2.648476 1_555
Co4_3 Co4_7 3.030130 1_455
Co4_3 Co4_7 3.030130 1_555
Co4_4 Ti2_2 2.552803 1_545
Co4_4 Ti2_0 2.552803 1_555
Co4_4 Ti2_6 2.552803 1_545
Co4_4 Ti2_4 2.552803 1_555
Co4_4 Ti3_2 2.648476 1_545
Co4_4 Ti3_0 2.648476 1_555
Co4_4 Ti3_6 2.648476 1_545
Co4_4 Ti3_4 2.648476 1_555
Co4_4 Co4_6 3.030130 1_545
Co4_4 Co4_6 3.030130 1_555
Co4_5 Ti2_3 2.552803 1_545
Co4_5 Ti2_1 2.552803 1_555
Co4_5 Ti2_7 2.552803 1_545
Co4_5 Ti2_5 2.552803 1_555
Co4_5 Ti3_3 2.648476 1_545
Co4_5 Ti3_1 2.648476 1_555
Co4_5 Ti3_7 2.648476 1_545
Co4_5 Ti3_5 2.648476 1_555
Co4_5 Co4_7 3.030130 1_545
Co4_5 Co4_7 3.030130 1_555
Co4_6 Ti2_0 2.552803 1_555
Co4_6 Ti2_2 2.552803 1_555
Co4_6 Ti2_4 2.552803 1_555
Co4_6 Ti2_6 2.552803 1_555
Co4_6 Ti3_0 2.648476 1_555
Co4_6 Ti3_2 2.648476 1_555
Co4_6 Ti3_6 2.648476 1_555
Co4_6 Ti3_4 2.648476 1_555
Co4_7 Ti2_1 2.552803 1_555
Co4_7 Ti2_5 2.552803 1_555
Co4_7 Ti2_3 2.552803 1_555
Co4_7 Ti2_7 2.552803 1_555
Co4_7 Ti3_1 2.648476 1_555
Co4_7 Ti3_3 2.648476 1_555
Co4_7 Ti3_7 2.648476 1_555
Co4_7 Ti3_5 2.648476 1_555
Ni0_0 Ti0_0 2.561664 1_555
Ni0_0 Ti3_1 2.561664 1_554
Ni0_1 Ti3_0 2.561664 1_555
Ni0_1 Ti0_1 2.561664 1_555
Ni0_2 Ti0_2 2.561664 1_555
Ni0_2 Ti3_3 2.561664 1_554
Ni0_3 Ti3_2 2.561664 1_555
Ni0_3 Ti0_3 2.561664 1_555
Ni0_4 Ti0_4 2.561664 1_555
Ni0_4 Ti3_5 2.561664 1_554
Ni0_5 Ti3_4 2.561664 1_555
Ni0_5 Ti0_5 2.561664 1_555
Ni0_6 Ti0_6 2.561664 1_555
Ni0_6 Ti3_7 2.561664 1_554
Ni0_7 Ti3_6 2.561664 1_555
Ni0_7 Ti0_7 2.561664 1_555
