# generated using pymatgen
data_Na2Mg5Mn11Si12(AsO25)2
_symmetry_space_group_name_H-M   'P 1'
_cell_length_a   9.65639706
_cell_length_b   10.31960642
_cell_length_c   11.13414148
_cell_angle_alpha   68.28628982
_cell_angle_beta   72.26774963
_cell_angle_gamma   81.99136597
_symmetry_Int_Tables_number   1
_chemical_formula_structural   Na2Mg5Mn11Si12(AsO25)2
_chemical_formula_sum   'Na2 Mg5 Mn11 Si12 As2 O50'
_cell_volume   981.37481265
_cell_formula_units_Z   1
loop_
 _symmetry_equiv_pos_site_id
 _symmetry_equiv_pos_as_xyz
  1  'x, y, z'
loop_
 _atom_site_type_symbol
 _atom_site_label
 _atom_site_symmetry_multiplicity
 _atom_site_fract_x
 _atom_site_fract_y
 _atom_site_fract_z
 _atom_site_occupancy
  Na  Na0  1  0.27514600  0.50660200  0.39646700  1
  Na  Na1  1  0.72485400  0.49339800  0.60353300  1
  Mg  Mg0  1  0.07730300  0.02614100  0.23594500  1
  Mg  Mg1  1  0.92269700  0.97385900  0.76405500  1
  Mg  Mg2  1  0.17026300  0.99967500  0.50494200  1
  Mg  Mg3  1  0.82973700  0.00032500  0.49505800  1
  Mg  Mg4  1  0.50000000  0.00000000  0.50000000  1
  Mn  Mn0  1  0.44027000  0.37773400  0.95680600  1
  Mn  Mn1  1  0.55973000  0.62226600  0.04319400  1
  Mn  Mn2  1  0.20467700  0.61142700  0.03453900  1
  Mn  Mn3  1  0.79532300  0.38857300  0.96546100  1
  Mn  Mn4  1  0.10230700  0.35694700  0.97331300  1
  Mn  Mn5  1  0.89769300  0.64305300  0.02668700  1
  Mn  Mn6  1  0.42624300  0.00900700  0.23081600  1
  Mn  Mn7  1  0.57375700  0.99099300  0.76918400  1
  Mn  Mn8  1  0.00000000  0.00000000  0.00000000  1
  Mn  Mn9  1  0.25058300  0.99154100  0.74238400  1
  Mn  Mn10  1  0.74941700  0.00845900  0.25761600  1
  Si  Si0  1  0.04810500  0.28733300  0.72898900  1
  Si  Si1  1  0.95189500  0.71266700  0.27101100  1
  Si  Si2  1  0.35279600  0.27995300  0.72953500  1
  Si  Si3  1  0.64720400  0.72004700  0.27046500  1
  Si  Si4  1  0.37501900  0.71966900  0.49893400  1
  Si  Si5  1  0.62498100  0.28033000  0.50106600  1
  Si  Si6  1  0.05495000  0.72539800  0.50044300  1
  Si  Si7  1  0.94505000  0.27460200  0.49955700  1
  Si  Si8  1  0.78834700  0.70788800  0.73835300  1
  Si  Si9  1  0.21165300  0.29211200  0.26164700  1
  Si  Si10  1  0.47576000  0.70163100  0.73981500  1
  Si  Si11  1  0.52424000  0.29836900  0.26018500  1
  As  As0  1  0.32611200  0.83850200  0.06160300  1
  As  As1  1  0.67388800  0.16149800  0.93839700  1
  O  O0  1  0.21133700  0.86815100  0.95987200  1
  O  O1  1  0.78866300  0.13184900  0.04012800  1
  O  O2  1  0.27431700  0.90968800  0.18449400  1
  O  O3  1  0.72568300  0.09031200  0.81550600  1
  O  O4  1  0.31850400  0.65352700  0.14061900  1
  O  O5  1  0.68149600  0.34647300  0.85938100  1
  O  O6  1  0.49293200  0.14819600  0.02408600  1
  O  O7  1  0.50706800  0.85180400  0.97591400  1
  O  O8  1  0.96716700  0.33947700  0.60761100  1
  O  O9  1  0.03283300  0.66052300  0.39238900  1
  O  O10  1  0.96367100  0.88362500  0.19675300  1
  O  O11  1  0.03632900  0.11637500  0.80324700  1
  O  O12  1  0.97963400  0.37018000  0.83408200  1
  O  O13  1  0.02036600  0.62982000  0.16591800  1
  O  O14  1  0.21955700  0.33169600  0.65471600  1
  O  O15  1  0.78044300  0.66830400  0.34528400  1
  O  O16  1  0.31205500  0.34936900  0.84738000  1
  O  O17  1  0.68794500  0.65063100  0.15262000  1
  O  O18  1  0.36911700  0.11020600  0.78446300  1
  O  O19  1  0.63088300  0.88979400  0.21553700  1
  O  O20  1  0.50754400  0.34252100  0.61286800  1
  O  O21  1  0.49245600  0.65747900  0.38713200  1
  O  O22  1  0.41555700  0.65007900  0.64261400  1
  O  O23  1  0.58444300  0.34992100  0.35738600  1
  O  O24  1  0.36803900  0.88772200  0.44647200  1
  O  O25  1  0.63196100  0.11227800  0.55352800  1
  O  O26  1  0.21685800  0.66025300  0.51759600  1
  O  O27  1  0.78314200  0.33974700  0.48240400  1
  O  O28  1  0.04251600  0.89340900  0.44765100  1
  O  O29  1  0.95748400  0.10659100  0.55234900  1
  O  O30  1  0.93381800  0.65562500  0.64354000  1
  O  O31  1  0.06618200  0.34437500  0.35646000  1
  O  O32  1  0.78704100  0.87446800  0.70731300  1
  O  O33  1  0.21295900  0.12553200  0.29268700  1
  O  O34  1  0.76939700  0.61779600  0.89811600  1
  O  O35  1  0.23060300  0.38220400  0.10188400  1
  O  O36  1  0.65203800  0.65994900  0.70379600  1
  O  O37  1  0.34796200  0.34005100  0.29620400  1
  O  O38  1  0.40994700  0.60610600  0.90066600  1
  O  O39  1  0.59005300  0.39389400  0.09933400  1
  O  O40  1  0.45582500  0.86774500  0.70784800  1
  O  O41  1  0.54417500  0.13225500  0.29215200  1
  O  O42  1  0.08467500  0.13952400  0.03717000  1
  O  O43  1  0.91532500  0.86047600  0.96283000  1
  O  O44  1  0.30316500  0.09301500  0.55724800  1
  O  O45  1  0.69683500  0.90698500  0.44275200  1
  O  O46  1  0.12590700  0.89342900  0.70829700  1
  O  O47  1  0.87409300  0.10657100  0.29170300  1
  O  O48  1  0.09616800  0.58697200  0.93197700  1
  O  O49  1  0.90383200  0.41302800  0.06802300  1
loop_
_geom_bond_atom_site_label_1
_geom_bond_atom_site_label_2
_geom_bond_distance
_geom_bond_site_symmetry_2
Na0 O37 2.302071 1_555
Na0 O26 2.349712 1_555
Na0 O4 2.616000 1_555
Na0 O9 2.641175 1_555
Na0 O14 2.702478 1_555
Na0 O21 2.737926 1_555
Na1 O36 2.302071 1_555
Na1 O27 2.349712 1_555
Na1 O5 2.616000 1_555
Na1 O8 2.641175 1_555
Na1 O15 2.702478 1_555
Na1 O20 2.737926 1_555
Mg0 O47 2.027372 1_455
Mg0 O42 2.069648 1_555
Mg0 O33 2.127226 1_555
Mg0 O2 2.144797 1_545
Mg0 O10 2.184863 1_445
Mg0 O28 2.191370 1_545
Mg1 O46 2.027372 1_655
Mg1 O43 2.069648 1_555
Mg1 O32 2.127226 1_555
Mg1 O3 2.144797 1_565
Mg1 O11 2.184863 1_665
Mg1 O29 2.191370 1_565
Mg2 O44 2.031942 1_565
Mg2 O46 2.053130 1_555
Mg2 O28 2.122511 1_555
Mg2 O24 2.142495 1_555
Mg2 O33 2.174039 1_565
Mg2 O29 2.203693 1_465
Mg3 O45 2.031942 1_545
Mg3 O47 2.053130 1_555
Mg3 O29 2.122511 1_555
Mg3 O25 2.142495 1_555
Mg3 O32 2.174039 1_545
Mg3 O28 2.203693 1_645
Mg4 O44 2.036353 1_555
Mg4 O45 2.036353 1_545
Mg4 O41 2.150367 1_555
Mg4 O40 2.150367 1_545
Mg4 O24 2.169434 1_545
Mg4 O25 2.169434 1_555
Mn0 O16 2.094445 1_555
Mn0 O35 2.178870 1_556
Mn0 O38 2.204478 1_555
Mn0 O6 2.239223 1_556
Mn0 O5 2.284100 1_555
Mn0 O39 2.509838 1_556
Mn1 O17 2.094445 1_555
Mn1 O34 2.178870 1_554
Mn1 O39 2.204478 1_555
Mn1 O7 2.239223 1_554
Mn1 O4 2.284100 1_555
Mn1 O38 2.509838 1_554
Mn2 O48 1.865848 1_554
Mn2 O13 1.966941 1_555
Mn2 O4 2.023728 1_555
Mn2 O38 2.093869 1_554
Mn2 O35 2.203943 1_555
Mn2 O0 2.469660 1_554
Mn3 O49 1.865848 1_556
Mn3 O12 1.966941 1_555
Mn3 O5 2.023728 1_555
Mn3 O39 2.093869 1_556
Mn3 O34 2.203943 1_555
Mn3 O1 2.469660 1_556
Mn4 O49 2.007866 1_456
Mn4 O16 2.093209 1_555
Mn4 O42 2.102638 1_556
Mn4 O12 2.177597 1_455
Mn4 O48 2.240342 1_555
Mn4 O35 2.257959 1_556
Mn5 O48 2.007866 1_654
Mn5 O17 2.093209 1_555
Mn5 O43 2.102638 1_554
Mn5 O13 2.177597 1_655
Mn5 O49 2.240342 1_555
Mn5 O34 2.257959 1_554
Mn6 O6 2.164356 1_555
Mn6 O19 2.172558 1_545
Mn6 O2 2.177102 1_545
Mn6 O24 2.190465 1_545
Mn6 O41 2.213804 1_555
Mn6 O33 2.284935 1_555
Mn7 O7 2.164356 1_555
Mn7 O18 2.172558 1_565
Mn7 O3 2.177102 1_565
Mn7 O25 2.190465 1_565
Mn7 O40 2.213804 1_555
Mn7 O32 2.284935 1_555
Mn8 O43 1.971813 1_444
Mn8 O42 1.971813 1_555
Mn8 O11 2.016673 1_554
Mn8 O10 2.016673 1_445
Mn8 O1 2.310046 1_455
Mn8 O0 2.310046 1_544
Mn9 O44 1.875330 1_565
Mn9 O46 1.876404 1_555
Mn9 O18 2.042297 1_565
Mn9 O40 2.213959 1_555
Mn9 O0 2.218733 1_555
Mn9 O11 2.334198 1_565
Mn10 O45 1.875330 1_545
Mn10 O47 1.876404 1_555
Mn10 O19 2.042297 1_545
Mn10 O41 2.213959 1_555
Mn10 O1 2.218733 1_555
Mn10 O10 2.334198 1_545
As0 O2 1.698977 1_555
As0 O7 1.713728 1_554
As0 O0 1.737447 1_554
As0 O4 1.783327 1_555
As1 O3 1.698977 1_555
As1 O6 1.713728 1_556
As1 O1 1.737447 1_556
As1 O5 1.783327 1_555
O8 Si0 1.647699 1_655
O8 Si7 1.653355 1_555
O9 Si1 1.647699 1_455
O9 Si6 1.653355 1_555
O10 Si1 1.651761 1_555
O11 Si0 1.651761 1_555
O12 Si0 1.627492 1_655
O13 Si1 1.627492 1_455
O14 Si0 1.652748 1_555
O14 Si2 1.663357 1_555
O15 Si1 1.652748 1_555
O15 Si3 1.663357 1_555
O16 Si2 1.640749 1_555
O17 Si3 1.640749 1_555
O18 Si2 1.629870 1_555
O19 Si3 1.629870 1_555
O20 Si5 1.666109 1_555
O20 Si2 1.674238 1_555
O21 Si4 1.666103 1_555
O21 Si3 1.674238 1_555
O22 Si4 1.637443 1_555
O22 Si10 1.639417 1_555
O23 Si5 1.637444 1_555
O23 Si11 1.639417 1_555
O24 Si4 1.610956 1_555
O25 Si5 1.610947 1_555
O26 Si4 1.650765 1_555
O26 Si6 1.651303 1_555
O27 Si5 1.650770 1_555
O27 Si7 1.651303 1_555
O28 Si6 1.611491 1_555
O29 Si7 1.611491 1_555
O30 Si6 1.635767 1_655
O30 Si8 1.638730 1_555
O31 Si7 1.635767 1_455
O31 Si9 1.638730 1_555
O32 Si8 1.622255 1_555
O33 Si9 1.622255 1_555
O34 Si8 1.639356 1_555
O35 Si9 1.639356 1_555
O36 Si10 1.658664 1_555
O36 Si8 1.660147 1_555
O37 Si11 1.658664 1_555
O37 Si9 1.660147 1_555
O38 Si10 1.660730 1_555
O39 Si11 1.660730 1_555
O40 Si10 1.612653 1_555
O41 Si11 1.612653 1_555
