# generated using pymatgen
data_GdPS
_symmetry_space_group_name_H-M   'P 1'
_cell_length_a   5.39310332
_cell_length_b   5.44231239
_cell_length_c   16.82333698
_cell_angle_alpha   90.00000000
_cell_angle_beta   90.00000000
_cell_angle_gamma   90.00000000
_symmetry_Int_Tables_number   1
_chemical_formula_structural   GdPS
_chemical_formula_sum   'Gd8 P8 S8'
_cell_volume   493.78097332
_cell_formula_units_Z   8
loop_
 _symmetry_equiv_pos_site_id
 _symmetry_equiv_pos_as_xyz
  1  'x, y, z'
loop_
 _atom_site_type_symbol
 _atom_site_label
 _atom_site_symmetry_multiplicity
 _atom_site_fract_x
 _atom_site_fract_y
 _atom_site_fract_z
 _atom_site_occupancy
  Gd  Gd0  1  0.25000000  0.01587145  0.86200951  1
  Gd  Gd1  1  0.25000000  0.51587145  0.63799049  1
  Gd  Gd2  1  0.75000000  0.98412855  0.13799049  1
  Gd  Gd3  1  0.75000000  0.48412855  0.36200951  1
  Gd  Gd4  1  0.25000000  0.98550819  0.35245099  1
  Gd  Gd5  1  0.25000000  0.48550819  0.14754901  1
  Gd  Gd6  1  0.75000000  0.01449181  0.64754901  1
  Gd  Gd7  1  0.75000000  0.51449181  0.85245099  1
  P  P0  1  0.45810062  0.70027164  0.00295855  1
  P  P1  1  0.04189938  0.20027164  0.49704145  1
  P  P2  1  0.95810062  0.29972836  0.99704145  1
  P  P3  1  0.54189938  0.79972836  0.50295855  1
  P  P4  1  0.54189938  0.29972836  0.99704145  1
  P  P5  1  0.95810062  0.79972836  0.50295855  1
  P  P6  1  0.04189938  0.70027164  0.00295855  1
  P  P7  1  0.45810062  0.20027164  0.49704145  1
  S  S0  1  0.25000000  0.51444407  0.81121682  1
  S  S1  1  0.25000000  0.01444407  0.68878318  1
  S  S2  1  0.75000000  0.48555593  0.18878318  1
  S  S3  1  0.75000000  0.98555593  0.31121682  1
  S  S4  1  0.25000000  0.48934396  0.31700829  1
  S  S5  1  0.25000000  0.98934396  0.18299171  1
  S  S6  1  0.75000000  0.51065604  0.68299171  1
  S  S7  1  0.75000000  0.01065604  0.81700829  1
loop_
_geom_bond_atom_site_label_1
_geom_bond_atom_site_label_2
_geom_bond_distance
_geom_bond_site_symmetry_2
Gd0 S7 2.800956 1_455
Gd0 S7 2.800956 1_555
Gd0 S0 2.844758 1_555
Gd0 S0 2.859581 1_545
Gd0 S1 2.914255 1_555
Gd0 P6 3.135673 1_546
Gd0 P0 3.135673 1_546
Gd0 P2 3.166281 1_455
Gd0 P4 3.166281 1_555
Gd1 S6 2.800956 1_555
Gd1 S6 2.800956 1_455
Gd1 S1 2.844758 1_565
Gd1 S1 2.859581 1_555
Gd1 S0 2.914255 1_555
Gd1 P1 3.135673 1_555
Gd1 P7 3.135673 1_555
Gd1 P5 3.166281 1_455
Gd1 P3 3.166281 1_555
Gd2 S5 2.800956 1_655
Gd2 S5 2.800956 1_555
Gd2 S2 2.844758 1_555
Gd2 S2 2.859581 1_565
Gd2 S3 2.914255 1_555
Gd2 P2 3.135673 1_564
Gd2 P4 3.135673 1_564
Gd2 P0 3.166281 1_555
Gd2 P6 3.166281 1_655
Gd3 S4 2.800956 1_555
Gd3 S4 2.800956 1_655
Gd3 S3 2.844758 1_545
Gd3 S3 2.859581 1_555
Gd3 S2 2.914255 1_555
Gd3 P3 3.135673 1_555
Gd3 P5 3.135673 1_555
Gd3 P7 3.166281 1_555
Gd3 P1 3.166281 1_655
Gd4 S4 2.765330 1_555
Gd4 S3 2.784350 1_555
Gd4 S3 2.784350 1_455
Gd4 S4 2.806113 1_565
Gd4 S5 2.850947 1_555
Gd4 P7 2.922793 1_565
Gd4 P1 2.922793 1_565
Gd4 P5 3.148290 1_455
Gd4 P3 3.148290 1_555
Gd5 S5 2.765330 1_545
Gd5 S2 2.784350 1_455
Gd5 S2 2.784350 1_555
Gd5 S5 2.806113 1_555
Gd5 S4 2.850947 1_555
Gd5 P6 2.922793 1_555
Gd5 P0 2.922793 1_555
Gd5 P2 3.148290 1_454
Gd5 P4 3.148290 1_554
Gd6 S6 2.765330 1_555
Gd6 S1 2.784350 1_655
Gd6 S1 2.784350 1_555
Gd6 S6 2.806113 1_545
Gd6 S7 2.850947 1_555
Gd6 P3 2.922793 1_545
Gd6 P5 2.922793 1_545
Gd6 P7 3.148290 1_555
Gd6 P1 3.148290 1_655
Gd7 S7 2.765330 1_565
Gd7 S0 2.784350 1_555
Gd7 S0 2.784350 1_655
Gd7 S7 2.806113 1_555
Gd7 S6 2.850947 1_555
Gd7 P2 2.922793 1_555
Gd7 P4 2.922793 1_555
Gd7 P6 3.148290 1_656
Gd7 P0 3.148290 1_556
P0 P4 2.228461 1_554
P0 P6 2.244616 1_555
P1 P5 2.228461 1_445
P1 P7 2.244616 1_555
P2 P6 2.228461 1_656
P2 P4 2.244616 1_555
P3 P7 2.228461 1_565
P3 P5 2.244616 1_555
