# generated using pymatgen
data_CaV2O4
_symmetry_space_group_name_H-M   'P 1'
_cell_length_a   7.04411563
_cell_length_b   7.04411563
_cell_length_c   9.38565597
_cell_angle_alpha   55.53557026
_cell_angle_beta   55.53557026
_cell_angle_gamma   26.05486081
_symmetry_Int_Tables_number   1
_chemical_formula_structural   CaV2O4
_chemical_formula_sum   'Ca2 V4 O8'
_cell_volume   166.51118579
_cell_formula_units_Z   2
loop_
 _symmetry_equiv_pos_site_id
 _symmetry_equiv_pos_as_xyz
  1  'x, y, z'
loop_
 _atom_site_type_symbol
 _atom_site_label
 _atom_site_symmetry_multiplicity
 _atom_site_fract_x
 _atom_site_fract_y
 _atom_site_fract_z
 _atom_site_occupancy
  Ca  Ca0  1  0.65213600  0.65213600  0.82707400  1
  Ca  Ca1  1  0.34786400  0.34786400  0.17292600  1
  V  V0  1  0.36189300  0.36189300  0.82392200  1
  V  V1  1  0.86518900  0.86518900  0.46834100  1
  V  V2  1  0.13481100  0.13481100  0.53165900  1
  V  V3  1  0.63810700  0.63810700  0.17607800  1
  O  O0  1  0.13361800  0.13361800  0.31607700  1
  O  O1  1  0.53856400  0.53856400  0.69895600  1
  O  O2  1  0.46143600  0.46143600  0.30104400  1
  O  O3  1  0.86638200  0.86638200  0.68392300  1
  O  O4  1  0.83437100  0.83437100  0.00265000  1
  O  O5  1  0.23936000  0.23936000  0.61723500  1
  O  O6  1  0.16562900  0.16562900  0.99735000  1
  O  O7  1  0.76064000  0.76064000  0.38276500  1
loop_
_geom_bond_atom_site_label_1
_geom_bond_atom_site_label_2
_geom_bond_distance
_geom_bond_site_symmetry_2
Ca0 O5 2.257067 1_655
Ca0 O5 2.257067 1_565
Ca0 O6 2.335282 1_565
Ca0 O6 2.335282 1_655
Ca0 O3 2.421335 1_555
Ca0 O1 2.460385 1_555
Ca1 O7 2.257067 1_545
Ca1 O7 2.257067 1_455
Ca1 O4 2.335282 1_455
Ca1 O4 2.335282 1_545
Ca1 O0 2.421335 1_555
Ca1 O2 2.460385 1_555
O0 V2 2.032933 1_555
O0 V3 2.039024 1_455
O0 V3 2.039024 1_545
O1 V0 1.987934 1_555
O1 V2 2.079016 1_655
O1 V2 2.079016 1_565
O2 V3 1.987934 1_555
O2 V1 2.079016 1_545
O2 V1 2.079016 1_455
O3 V1 2.032933 1_555
O3 V0 2.039024 1_565
O3 V0 2.039024 1_655
O4 V0 2.177572 1_654
O4 V0 2.177572 1_564
O4 V3 2.193737 1_555
O5 V2 2.010788 1_555
O5 V1 2.157144 1_455
O5 V1 2.157144 1_545
O6 V3 2.177572 1_546
O6 V3 2.177572 1_456
O6 V0 2.193737 1_555
O7 V1 2.010788 1_555
O7 V2 2.157144 1_565
O7 V2 2.157144 1_655
