# generated using pymatgen
data_Hf2ReHg
_symmetry_space_group_name_H-M   'P 1'
_cell_length_a   11.06322051
_cell_length_b   11.06322051
_cell_length_c   11.06322051
_cell_angle_alpha   122.75467650
_cell_angle_beta   122.49292094
_cell_angle_gamma   85.51267724
_symmetry_Int_Tables_number   1
_chemical_formula_structural   Hf2ReHg
_chemical_formula_sum   'Hf2 Re1 Hg1'
_cell_volume   916.43549662
_cell_formula_units_Z   1
loop_
 _symmetry_equiv_pos_site_id
 _symmetry_equiv_pos_as_xyz
  1  'x, y, z'
loop_
 _atom_site_type_symbol
 _atom_site_label
 _atom_site_symmetry_multiplicity
 _atom_site_fract_x
 _atom_site_fract_y
 _atom_site_fract_z
 _atom_site_occupancy
  Hf  Hf0  1  0.00000000  0.21431600  0.21431600  1
  Hf  Hf1  1  0.00000000  0.78568400  0.78568400  1
  Re  Re0  1  0.00000000  0.00000000  0.00000000  1
  Hg  Hg0  1  0.00000000  0.50000000  0.50000000  1
loop_
_geom_bond_atom_site_label_1
_geom_bond_atom_site_label_2
_geom_bond_distance
_geom_bond_site_symmetry_2
Hf0 Re0 2.271627 1_555
Hf0 Hg0 3.028088 1_555
Hf1 Re0 2.271627 1_566
Hf1 Hg0 3.028088 1_555
