# generated using pymatgen
data_CaTlF3
_symmetry_space_group_name_H-M   'P 1'
_cell_length_a   4.46312918
_cell_length_b   4.46559036
_cell_length_c   4.46584683
_cell_angle_alpha   89.80059245
_cell_angle_beta   90.19159157
_cell_angle_gamma   90.09345530
_symmetry_Int_Tables_number   1
_chemical_formula_structural   CaTlF3
_chemical_formula_sum   'Ca1 Tl1 F3'
_cell_volume   89.00543655
_cell_formula_units_Z   1
loop_
 _symmetry_equiv_pos_site_id
 _symmetry_equiv_pos_as_xyz
  1  'x, y, z'
loop_
 _atom_site_type_symbol
 _atom_site_label
 _atom_site_symmetry_multiplicity
 _atom_site_fract_x
 _atom_site_fract_y
 _atom_site_fract_z
 _atom_site_occupancy
  Ca  Ca0  1  0.49157716  0.49521132  0.49160690  1
  Tl  Tl0  1  0.02024052  0.96397638  0.94768746  1
  F  F0  1  0.47035434  0.99796794  0.52709129  1
  F  F1  1  0.98914205  0.51910498  0.52817594  1
  F  F2  1  0.46868693  0.52373738  0.99543941  1
loop_
_geom_bond_atom_site_label_1
_geom_bond_atom_site_label_2
_geom_bond_distance
_geom_bond_site_symmetry_2
Ca0 F2 2.221043 1_554
Ca0 F0 2.227466 1_545
Ca0 F1 2.228558 1_555
Ca0 F1 2.251646 1_455
Ca0 F0 2.253409 1_555
Ca0 F2 2.256748 1_555
F0 Tl0 2.758463 1_555
F1 Tl0 2.738443 1_655
F2 Tl0 2.814837 1_555
