# generated using pymatgen
data_Eu3O4
_symmetry_space_group_name_H-M   'P 1'
_cell_length_a   3.49179300
_cell_length_b   10.13437500
_cell_length_c   12.28156300
_cell_angle_alpha   90.00000000
_cell_angle_beta   90.00000000
_cell_angle_gamma   90.00000000
_symmetry_Int_Tables_number   1
_chemical_formula_structural   Eu3O4
_chemical_formula_sum   'Eu12 O16'
_cell_volume   434.60938542
_cell_formula_units_Z   4
loop_
 _symmetry_equiv_pos_site_id
 _symmetry_equiv_pos_as_xyz
  1  'x, y, z'
loop_
 _atom_site_type_symbol
 _atom_site_label
 _atom_site_symmetry_multiplicity
 _atom_site_fract_x
 _atom_site_fract_y
 _atom_site_fract_z
 _atom_site_occupancy
  Eu  Eu0  1  0.25000000  0.42426800  0.61240100  1
  Eu  Eu1  1  0.25000000  0.92426800  0.88759900  1
  Eu  Eu2  1  0.75000000  0.57573200  0.38759900  1
  Eu  Eu3  1  0.75000000  0.07573200  0.11240100  1
  Eu  Eu4  1  0.25000000  0.41778800  0.11265300  1
  Eu  Eu5  1  0.25000000  0.91778800  0.38734700  1
  Eu  Eu6  1  0.75000000  0.58221200  0.88734700  1
  Eu  Eu7  1  0.75000000  0.08221200  0.61265300  1
  Eu  Eu8  1  0.25000000  0.25711100  0.35113100  1
  Eu  Eu9  1  0.25000000  0.75711100  0.14886900  1
  Eu  Eu10  1  0.75000000  0.74288900  0.64886900  1
  Eu  Eu11  1  0.75000000  0.24288900  0.85113100  1
  O  O0  1  0.25000000  0.22191000  0.69901100  1
  O  O1  1  0.25000000  0.72191000  0.80098900  1
  O  O2  1  0.75000000  0.77809000  0.30098900  1
  O  O3  1  0.75000000  0.27809000  0.19901100  1
  O  O4  1  0.25000000  0.13918000  0.97674900  1
  O  O5  1  0.25000000  0.63918000  0.52325100  1
  O  O6  1  0.75000000  0.86082000  0.02325100  1
  O  O7  1  0.75000000  0.36082000  0.47674900  1
  O  O8  1  0.25000000  0.99226600  0.20814200  1
  O  O9  1  0.25000000  0.49226600  0.29185800  1
  O  O10  1  0.75000000  0.00773400  0.79185800  1
  O  O11  1  0.75000000  0.50773400  0.70814200  1
  O  O12  1  0.25000000  0.42105800  0.91564100  1
  O  O13  1  0.25000000  0.92105800  0.58435900  1
  O  O14  1  0.75000000  0.57894200  0.08435900  1
  O  O15  1  0.75000000  0.07894200  0.41564100  1
loop_
_geom_bond_atom_site_label_1
_geom_bond_atom_site_label_2
_geom_bond_distance
_geom_bond_site_symmetry_2
Eu0 O11 2.268542 1_455
Eu0 O11 2.268542 1_555
Eu0 O0 2.310224 1_555
Eu0 O5 2.437722 1_555
Eu0 O7 2.497444 1_455
Eu0 O7 2.497444 1_555
Eu1 O10 2.268542 1_465
Eu1 O10 2.268542 1_565
Eu1 O1 2.310224 1_555
Eu1 O4 2.437722 1_565
Eu1 O6 2.497444 1_556
Eu1 O6 2.497444 1_456
Eu2 O9 2.268542 1_555
Eu2 O9 2.268542 1_655
Eu2 O2 2.310224 1_555
Eu2 O7 2.437722 1_555
Eu2 O5 2.497444 1_655
Eu2 O5 2.497444 1_555
Eu3 O8 2.268542 1_545
Eu3 O8 2.268542 1_645
Eu3 O3 2.310224 1_555
Eu3 O6 2.437722 1_545
Eu3 O4 2.497444 1_654
Eu3 O4 2.497444 1_554
Eu4 O9 2.326745 1_555
Eu4 O14 2.415830 1_555
Eu4 O14 2.415830 1_455
Eu4 O12 2.419842 1_554
Eu4 O3 2.485438 1_555
Eu4 O3 2.485438 1_455
Eu5 O8 2.326745 1_555
Eu5 O15 2.415830 1_565
Eu5 O15 2.415830 1_465
Eu5 O13 2.419842 1_555
Eu5 O2 2.485438 1_455
Eu5 O2 2.485438 1_555
Eu6 O11 2.326745 1_555
Eu6 O12 2.415830 1_655
Eu6 O12 2.415830 1_555
Eu6 O14 2.419842 1_556
Eu6 O1 2.485438 1_655
Eu6 O1 2.485438 1_555
Eu7 O10 2.326745 1_555
Eu7 O13 2.415830 1_545
Eu7 O13 2.415830 1_645
Eu7 O15 2.419842 1_555
Eu7 O0 2.485438 1_555
Eu7 O0 2.485438 1_655
Eu8 O9 2.491853 1_555
Eu8 O7 2.555973 1_455
Eu8 O7 2.555973 1_555
Eu8 O3 2.565891 1_555
Eu8 O3 2.565891 1_455
Eu8 O15 2.633662 1_455
Eu8 O15 2.633662 1_555
Eu9 O8 2.491853 1_555
Eu9 O6 2.555973 1_555
Eu9 O6 2.555973 1_455
Eu9 O2 2.565891 1_555
Eu9 O2 2.565891 1_455
Eu9 O14 2.633662 1_455
Eu9 O14 2.633662 1_555
Eu10 O11 2.491853 1_555
Eu10 O5 2.555973 1_555
Eu10 O5 2.555973 1_655
Eu10 O1 2.565891 1_555
Eu10 O1 2.565891 1_655
Eu10 O13 2.633662 1_655
Eu10 O13 2.633662 1_555
Eu11 O10 2.491853 1_555
Eu11 O4 2.555973 1_655
Eu11 O4 2.555973 1_555
Eu11 O0 2.565891 1_555
Eu11 O0 2.565891 1_655
Eu11 O12 2.633662 1_555
Eu11 O12 2.633662 1_655
