# generated using pymatgen
data_ScMnGe
_symmetry_space_group_name_H-M   'P 1'
_cell_length_a   6.84706760
_cell_length_b   6.84706760
_cell_length_c   3.89547530
_cell_angle_alpha   90.00000000
_cell_angle_beta   90.00000000
_cell_angle_gamma   119.99975127
_symmetry_Int_Tables_number   1
_chemical_formula_structural   ScMnGe
_chemical_formula_sum   'Sc3 Mn3 Ge3'
_cell_volume   158.16172978
_cell_formula_units_Z   3
loop_
 _symmetry_equiv_pos_site_id
 _symmetry_equiv_pos_as_xyz
  1  'x, y, z'
loop_
 _atom_site_type_symbol
 _atom_site_label
 _atom_site_symmetry_multiplicity
 _atom_site_fract_x
 _atom_site_fract_y
 _atom_site_fract_z
 _atom_site_occupancy
  Sc  Sc0  1  0.40927319  0.40927319  0.50000000  1
  Sc  Sc1  1  0.59070213  0.00003028  0.50000000  1
  Sc  Sc2  1  0.00003028  0.59070213  0.50000000  1
  Mn  Mn0  1  0.74994859  0.74994859  0.00000000  1
  Mn  Mn1  1  0.25003762  0.00000981  0.00000000  1
  Mn  Mn2  1  0.00000981  0.25003762  0.00000000  1
  Ge  Ge0  1  0.66668509  0.33336573  0.00000000  1
  Ge  Ge1  1  0.33336573  0.66668509  0.00000000  1
  Ge  Ge2  1  -0.00005243  -0.00005243  0.50000000  1
loop_
_geom_bond_atom_site_label_1
_geom_bond_atom_site_label_2
_geom_bond_distance
_geom_bond_site_symmetry_2
Mn0 Sc0 3.038894 1_555
Mn0 Sc0 3.038894 1_554
Mn0 Sc1 3.127573 1_565
Mn0 Sc1 3.127573 1_564
Mn0 Sc2 3.127573 1_654
Mn0 Sc2 3.127573 1_655
Mn1 Sc1 3.038776 1_554
Mn1 Sc1 3.038776 1_555
Mn1 Sc0 3.127266 1_555
Mn1 Sc0 3.127266 1_554
Mn1 Sc2 3.127443 1_544
Mn1 Sc2 3.127443 1_545
Mn2 Sc2 3.038776 1_555
Mn2 Sc2 3.038776 1_554
Mn2 Sc0 3.127266 1_554
Mn2 Sc0 3.127266 1_555
Mn2 Sc1 3.127443 1_454
Mn2 Sc1 3.127443 1_455
Ge0 Mn0 2.614363 1_555
Ge0 Mn2 2.614684 1_655
Ge0 Mn1 2.614741 1_555
Ge0 Sc1 2.843616 1_554
Ge0 Sc1 2.843616 1_555
Ge0 Sc2 2.843628 1_655
Ge0 Sc2 2.843628 1_654
Ge0 Sc0 2.843647 1_555
Ge0 Sc0 2.843647 1_554
Ge1 Mn0 2.614363 1_555
Ge1 Mn1 2.614684 1_565
Ge1 Mn2 2.614741 1_555
Ge1 Sc2 2.843616 1_554
Ge1 Sc2 2.843616 1_555
Ge1 Sc1 2.843628 1_565
Ge1 Sc1 2.843628 1_564
Ge1 Sc0 2.843647 1_555
Ge1 Sc0 2.843647 1_554
Ge2 Mn0 2.593034 1_446
Ge2 Mn0 2.593034 1_445
Ge2 Mn1 2.593301 1_555
Ge2 Mn1 2.593301 1_556
Ge2 Mn2 2.593301 1_555
Ge2 Mn2 2.593301 1_556
Ge2 Sc1 2.802414 1_455
Ge2 Sc2 2.802414 1_545
Ge2 Sc0 2.802691 1_555
