# generated using pymatgen
data_CsMg6Sn
_symmetry_space_group_name_H-M   'P 1'
_cell_length_a   4.98179600
_cell_length_b   7.42131500
_cell_length_c   12.87605700
_cell_angle_alpha   90.00000000
_cell_angle_beta   90.00000000
_cell_angle_gamma   90.00000000
_symmetry_Int_Tables_number   1
_chemical_formula_structural   CsMg6Sn
_chemical_formula_sum   'Cs2 Mg12 Sn2'
_cell_volume   476.04685014
_cell_formula_units_Z   2
loop_
 _symmetry_equiv_pos_site_id
 _symmetry_equiv_pos_as_xyz
  1  'x, y, z'
loop_
 _atom_site_type_symbol
 _atom_site_label
 _atom_site_symmetry_multiplicity
 _atom_site_fract_x
 _atom_site_fract_y
 _atom_site_fract_z
 _atom_site_occupancy
  Cs  Cs0  1  0.50000000  0.50000000  0.16894900  1
  Cs  Cs1  1  0.50000000  0.00000000  0.66894900  1
  Mg  Mg0  1  0.00000000  0.80106300  0.06800200  1
  Mg  Mg1  1  0.00000000  0.19893700  0.06800200  1
  Mg  Mg2  1  0.00000000  0.00000000  0.32941100  1
  Mg  Mg3  1  0.50000000  0.25922100  0.41804200  1
  Mg  Mg4  1  0.50000000  0.74077900  0.41804200  1
  Mg  Mg5  1  0.50000000  0.00000000  0.16502000  1
  Mg  Mg6  1  0.00000000  0.30106300  0.56800200  1
  Mg  Mg7  1  0.00000000  0.69893700  0.56800200  1
  Mg  Mg8  1  0.00000000  0.50000000  0.82941100  1
  Mg  Mg9  1  0.50000000  0.75922100  0.91804200  1
  Mg  Mg10  1  0.50000000  0.24077900  0.91804200  1
  Mg  Mg11  1  0.50000000  0.50000000  0.66502000  1
  Sn  Sn0  1  0.00000000  0.50000000  0.36453100  1
  Sn  Sn1  1  0.00000000  0.00000000  0.86453100  1
loop_
_geom_bond_atom_site_label_1
_geom_bond_atom_site_label_2
_geom_bond_distance
_geom_bond_site_symmetry_2
Cs0 Sn0 3.542109 1_555
Cs0 Sn0 3.542109 1_655
Cs0 Mg0 3.589718 1_655
Cs0 Mg1 3.589718 1_555
Cs0 Mg1 3.589718 1_655
Cs0 Mg0 3.589718 1_555
Cs0 Mg4 3.671512 1_555
Cs0 Mg3 3.671512 1_555
Cs0 Mg5 3.711002 1_555
Cs0 Mg5 3.711002 1_565
Cs0 Mg9 3.760084 1_554
Cs0 Mg10 3.760084 1_554
Cs1 Sn1 3.542109 1_555
Cs1 Sn1 3.542109 1_655
Cs1 Mg7 3.589718 1_645
Cs1 Mg7 3.589718 1_545
Cs1 Mg6 3.589718 1_655
Cs1 Mg6 3.589718 1_555
Cs1 Mg9 3.671512 1_545
Cs1 Mg10 3.671512 1_555
Cs1 Mg11 3.711002 1_555
Cs1 Mg11 3.711002 1_545
Cs1 Mg3 3.760084 1_555
Cs1 Mg4 3.760084 1_545
Mg0 Mg1 2.952748 1_565
Mg0 Sn1 3.007254 1_564
Mg0 Mg5 3.153534 1_465
Mg0 Mg5 3.153534 1_565
Mg0 Mg9 3.166914 1_554
Mg0 Mg9 3.166914 1_454
Mg1 Sn1 3.007254 1_554
Mg1 Mg5 3.153534 1_455
Mg1 Mg5 3.153534 1_555
Mg1 Mg10 3.166914 1_454
Mg1 Mg10 3.166914 1_554
Mg2 Mg5 3.268796 1_455
Mg2 Mg5 3.268796 1_555
Mg2 Mg3 3.347806 1_555
Mg2 Mg4 3.347806 1_545
Mg2 Mg3 3.347806 1_455
Mg2 Mg4 3.347806 1_445
Mg3 Sn0 3.142023 1_555
Mg3 Sn0 3.142023 1_655
Mg3 Mg6 3.166914 1_655
Mg3 Mg6 3.166914 1_555
Mg4 Sn0 3.142023 1_555
Mg4 Sn0 3.142023 1_655
Mg4 Mg7 3.166914 1_555
Mg4 Mg7 3.166914 1_655
Mg6 Mg7 2.952748 1_555
Mg6 Sn0 3.007254 1_555
Mg7 Sn0 3.007254 1_555
Mg8 Mg9 3.347806 1_455
Mg8 Mg9 3.347806 1_555
Mg9 Sn1 3.142023 1_565
Mg9 Sn1 3.142023 1_665
Mg10 Sn1 3.142023 1_655
Mg10 Sn1 3.142023 1_555
Mg10 Mg8 3.347806 1_555
Mg10 Mg8 3.347806 1_655
Mg11 Mg6 3.153534 1_555
Mg11 Mg6 3.153534 1_655
Mg11 Mg7 3.153534 1_555
Mg11 Mg7 3.153534 1_655
Mg11 Mg8 3.268796 1_555
Mg11 Mg8 3.268796 1_655
