# generated using pymatgen
data_H6C2(NO)3
_symmetry_space_group_name_H-M   'P 1'
_cell_length_a   3.63686700
_cell_length_b   17.97195900
_cell_length_c   8.68156359
_cell_angle_alpha   90.00000000
_cell_angle_beta   111.76259189
_cell_angle_gamma   90.00000000
_symmetry_Int_Tables_number   1
_chemical_formula_structural   H6C2(NO)3
_chemical_formula_sum   'H24 C8 N12 O12'
_cell_volume   526.99849126
_cell_formula_units_Z   4
loop_
 _symmetry_equiv_pos_site_id
 _symmetry_equiv_pos_as_xyz
  1  'x, y, z'
loop_
 _atom_site_type_symbol
 _atom_site_label
 _atom_site_symmetry_multiplicity
 _atom_site_fract_x
 _atom_site_fract_y
 _atom_site_fract_z
 _atom_site_occupancy
  H  H0  1  0.39156600  0.67036600  0.98479000  1
  H  H1  1  0.60843400  0.17036600  0.51521000  1
  H  H2  1  0.60843400  0.32963400  0.01521000  1
  H  H3  1  0.39156600  0.82963400  0.48479000  1
  H  H4  1  0.99933200  0.65456000  0.79199500  1
  H  H5  1  0.00066800  0.15456000  0.70800500  1
  H  H6  1  0.00066800  0.34544000  0.20800500  1
  H  H7  1  0.99933200  0.84544000  0.29199500  1
  H  H8  1  0.56280300  0.77781000  0.08482700  1
  H  H9  1  0.43719700  0.27781000  0.41517300  1
  H  H10  1  0.43719700  0.22219000  0.91517300  1
  H  H11  1  0.56280300  0.72219000  0.58482700  1
  H  H12  1  0.99193800  0.89891800  0.76584100  1
  H  H13  1  0.00806200  0.39891800  0.73415900  1
  H  H14  1  0.00806200  0.10108200  0.23415900  1
  H  H15  1  0.99193800  0.60108200  0.26584100  1
  H  H16  1  0.23367100  0.98172900  0.86907600  1
  H  H17  1  0.76632900  0.48172900  0.63092400  1
  H  H18  1  0.76632900  0.01827100  0.13092400  1
  H  H19  1  0.23367100  0.51827100  0.36907600  1
  H  H20  1  0.31734700  0.54634100  0.87939400  1
  H  H21  1  0.68265300  0.04634100  0.62060600  1
  H  H22  1  0.68265300  0.45365900  0.12060600  1
  H  H23  1  0.31734700  0.95365900  0.37939400  1
  C  C0  1  0.12587600  0.76426700  0.85467100  1
  C  C1  1  0.87412400  0.26426700  0.64532900  1
  C  C2  1  0.87412400  0.23573300  0.14532900  1
  C  C3  1  0.12587600  0.73573300  0.35467100  1
  C  C4  1  0.41069100  0.88437300  0.99612400  1
  C  C5  1  0.58930900  0.38437300  0.50387600  1
  C  C6  1  0.58930900  0.11562700  0.00387600  1
  C  C7  1  0.41069100  0.61562700  0.49612400  1
  N  N0  1  0.18495500  0.69036500  0.87860000  1
  N  N1  1  0.81504500  0.19036500  0.62140000  1
  N  N2  1  0.81504500  0.30963500  0.12140000  1
  N  N3  1  0.18495500  0.80963500  0.37860000  1
  N  N4  1  0.36761000  0.80726000  0.98558400  1
  N  N5  1  0.63239000  0.30726000  0.51441600  1
  N  N6  1  0.63239000  0.19274000  0.01441600  1
  N  N7  1  0.36761000  0.69274000  0.48558400  1
  N  N8  1  0.18443200  0.92543400  0.86735900  1
  N  N9  1  0.81556800  0.42543400  0.63264100  1
  N  N10  1  0.81556800  0.07456600  0.13264100  1
  N  N11  1  0.18443200  0.57456600  0.36735900  1
  O  O0  1  0.87215700  0.79140000  0.72554900  1
  O  O1  1  0.12784300  0.29140000  0.77445100  1
  O  O2  1  0.12784300  0.20860000  0.27445100  1
  O  O3  1  0.87215700  0.70860000  0.22554900  1
  O  O4  1  0.66238300  0.91130600  0.12725700  1
  O  O5  1  0.33761700  0.41130600  0.37274300  1
  O  O6  1  0.33761700  0.08869400  0.87274300  1
  O  O7  1  0.66238300  0.58869400  0.62725700  1
  O  O8  1  0.57265500  0.53074200  0.96198000  1
  O  O9  1  0.42734500  0.03074200  0.53802000  1
  O  O10  1  0.42734500  0.46925800  0.03802000  1
  O  O11  1  0.57265500  0.96925800  0.46198000  1
loop_
_geom_bond_atom_site_label_1
_geom_bond_atom_site_label_2
_geom_bond_distance
_geom_bond_site_symmetry_2
H0 N0 1.014903 1_555
H1 N1 1.014903 1_555
H2 N2 1.014903 1_555
H3 N3 1.014903 1_555
H4 N0 1.028951 1_655
H5 N1 1.028951 1_455
H6 N2 1.028951 1_455
H7 N3 1.028951 1_655
H8 N4 1.035792 1_554
H9 N5 1.035792 1_555
H10 N6 1.035792 1_556
H11 N7 1.035792 1_555
H12 N8 1.018052 1_655
H13 N9 1.018052 1_455
H14 N10 1.018052 1_455
H15 N11 1.018052 1_655
H16 N8 1.026602 1_555
H17 N9 1.026602 1_555
H18 N10 1.026602 1_555
H19 N11 1.026602 1_555
H20 O8 0.980381 1_555
H21 O9 0.980381 1_555
H22 O10 0.980381 1_555
H23 O11 0.980381 1_555
C0 O0 1.256512 1_455
C0 N0 1.349164 1_555
C0 N4 1.385897 1_555
C1 O1 1.256512 1_655
C1 N1 1.349164 1_555
C1 N5 1.385897 1_555
C2 O2 1.256512 1_655
C2 N2 1.349164 1_555
C2 N6 1.385897 1_555
C3 O3 1.256512 1_455
C3 N3 1.349164 1_555
C3 N7 1.385897 1_555
C4 O4 1.263133 1_556
C4 N8 1.337624 1_555
C4 N4 1.393891 1_555
C5 O5 1.263133 1_555
C5 N9 1.337624 1_555
C5 N5 1.393891 1_555
C6 O6 1.263133 1_554
C6 N10 1.337624 1_555
C6 N6 1.393891 1_555
C7 O7 1.263133 1_555
C7 N11 1.337624 1_555
C7 N7 1.393891 1_555
