# generated using pymatgen
data_Li5Mn3(SnO5)2
_symmetry_space_group_name_H-M   'P 1'
_cell_length_a   5.34053400
_cell_length_b   5.39060220
_cell_length_c   8.13010106
_cell_angle_alpha   107.46528326
_cell_angle_beta   101.11842854
_cell_angle_gamma   101.72516542
_symmetry_Int_Tables_number   1
_chemical_formula_structural   Li5Mn3(SnO5)2
_chemical_formula_sum   'Li5 Mn3 Sn2 O10'
_cell_volume   210.37844671
_cell_formula_units_Z   1
loop_
 _symmetry_equiv_pos_site_id
 _symmetry_equiv_pos_as_xyz
  1  'x, y, z'
loop_
 _atom_site_type_symbol
 _atom_site_label
 _atom_site_symmetry_multiplicity
 _atom_site_fract_x
 _atom_site_fract_y
 _atom_site_fract_z
 _atom_site_occupancy
  Li  Li0  1  0.22802300  0.50586800  0.39930600  1
  Li  Li1  1  0.39969300  0.50095200  0.78337100  1
  Li  Li2  1  0.50000000  0.00000000  0.50000000  1
  Li  Li3  1  0.60030700  0.49904800  0.21662900  1
  Li  Li4  1  0.77197700  0.49413200  0.60069400  1
  Mn  Mn0  1  0.00000000  0.50000000  0.00000000  1
  Mn  Mn1  1  0.69244500  0.99366600  0.89520700  1
  Mn  Mn2  1  0.30755500  0.00633400  0.10479300  1
  Sn  Sn0  1  0.10144500  0.01031900  0.69444900  1
  Sn  Sn1  1  0.89855500  0.98968100  0.30555100  1
  O  O0  1  0.05634200  0.23420700  0.84413600  1
  O  O1  1  0.32358500  0.74912500  0.94057700  1
  O  O2  1  0.14425900  0.77651700  0.54732400  1
  O  O3  1  0.21937400  0.26624100  0.22894000  1
  O  O4  1  0.44783300  0.23919700  0.65641100  1
  O  O5  1  0.55216700  0.76080300  0.34358900  1
  O  O6  1  0.78062600  0.73375900  0.77106000  1
  O  O7  1  0.85574100  0.22348300  0.45267600  1
  O  O8  1  0.67641500  0.25087500  0.05942300  1
  O  O9  1  0.94365800  0.76579300  0.15586400  1
loop_
_geom_bond_atom_site_label_1
_geom_bond_atom_site_label_2
_geom_bond_distance
_geom_bond_site_symmetry_2
Li0 O3 1.570448 1_555
Li0 O2 1.787699 1_555
Li0 O5 2.190818 1_555
Li0 O7 2.440787 1_455
Li1 O4 1.580520 1_555
Li1 O1 1.727274 1_555
Li1 O6 2.199990 1_555
Li1 O0 2.319091 1_555
Li2 O4 1.629629 1_555
Li2 O5 1.629629 1_545
Li2 O2 2.199700 1_545
Li2 O7 2.199700 1_555
Li3 O5 1.580520 1_555
Li3 O8 1.727274 1_555
Li3 O3 2.199990 1_555
Li3 O9 2.319091 1_555
Li4 O6 1.570448 1_555
Li4 O7 1.787699 1_555
Li4 O4 2.190818 1_555
Li4 O2 2.440787 1_655
Mn0 O0 1.726739 1_554
Mn0 O9 1.726739 1_455
Mn0 O1 2.188940 1_554
Mn0 O8 2.188940 1_455
Mn1 O8 1.641156 1_566
Mn1 O6 1.675151 1_555
Mn1 O0 2.289267 1_665
Mn1 O1 2.295867 1_555
Mn2 O1 1.641156 1_544
Mn2 O3 1.675151 1_555
Mn2 O9 2.289267 1_445
Mn2 O8 2.295867 1_555
O0 Sn0 1.531407 1_555
O2 Sn0 1.545695 1_565
O4 Sn0 2.135889 1_555
O5 Sn1 2.135889 1_555
O7 Sn1 1.545695 1_545
O9 Sn1 1.531407 1_555
