# generated using pymatgen
data_La2Ti3AgO9
_symmetry_space_group_name_H-M   'P 1'
_cell_length_a   5.56759054
_cell_length_b   5.56759054
_cell_length_c   6.80394600
_cell_angle_alpha   90.00000000
_cell_angle_beta   90.00000000
_cell_angle_gamma   120.00000640
_symmetry_Int_Tables_number   1
_chemical_formula_structural   La2Ti3AgO9
_chemical_formula_sum   'La2 Ti3 Ag1 O9'
_cell_volume   182.65267549
_cell_formula_units_Z   1
loop_
 _symmetry_equiv_pos_site_id
 _symmetry_equiv_pos_as_xyz
  1  'x, y, z'
loop_
 _atom_site_type_symbol
 _atom_site_label
 _atom_site_symmetry_multiplicity
 _atom_site_fract_x
 _atom_site_fract_y
 _atom_site_fract_z
 _atom_site_occupancy
  La  La0  1  0.66666700  0.33333300  0.32669400  1
  La  La1  1  0.33333300  0.66666700  0.67330600  1
  Ti  Ti0  1  0.00000000  0.00000000  0.50000000  1
  Ti  Ti1  1  0.66666700  0.33333300  0.83736200  1
  Ti  Ti2  1  0.33333300  0.66666700  0.16263800  1
  Ag  Ag0  1  0.00000000  0.00000000  0.00000000  1
  O  O0  1  0.82806000  0.17194000  0.65548600  1
  O  O1  1  0.50000000  0.50000000  0.00000000  1
  O  O2  1  0.17194000  0.82806000  0.34451400  1
  O  O3  1  0.65612100  0.82806000  0.34451400  1
  O  O4  1  0.34387900  0.17194000  0.65548600  1
  O  O5  1  0.00000000  0.50000000  0.00000000  1
  O  O6  1  0.82806000  0.65612100  0.65548600  1
  O  O7  1  0.50000000  0.00000000  0.00000000  1
  O  O8  1  0.17194000  0.34387900  0.34451400  1
loop_
_geom_bond_atom_site_label_1
_geom_bond_atom_site_label_2
_geom_bond_distance
_geom_bond_site_symmetry_2
La0 O0 2.725220 1_555
La0 O6 2.725226 1_555
La0 O4 2.725226 1_555
La0 O5 2.742999 1_655
La0 O7 2.742999 1_555
La0 O1 2.743002 1_555
La0 O2 2.786898 1_545
La0 O2 2.786898 1_655
La0 O8 2.786898 1_655
La0 O3 2.786898 1_545
La0 O8 2.786898 1_555
La0 O3 2.786898 1_555
La1 O2 2.725220 1_555
La1 O3 2.725226 1_555
La1 O8 2.725226 1_555
La1 O7 2.742999 1_566
La1 O5 2.742999 1_556
La1 O1 2.743002 1_556
La1 O0 2.786898 1_565
La1 O0 2.786898 1_455
La1 O6 2.786898 1_455
La1 O4 2.786898 1_565
La1 O4 2.786898 1_555
La1 O6 2.786898 1_555
Ag0 O1 2.783795 1_555
Ag0 O1 2.783795 1_445
Ag0 O5 2.783795 1_545
Ag0 O7 2.783795 1_555
Ag0 O5 2.783795 1_555
Ag0 O7 2.783795 1_455
Ag0 O8 2.871201 1_555
Ag0 O4 2.871201 1_554
Ag0 O6 2.871201 1_444
Ag0 O3 2.871201 1_445
Ag0 O0 2.871204 1_454
Ag0 O2 2.871204 1_545
O0 Ti0 1.966828 1_655
O0 Ti1 1.988373 1_555
O1 Ti1 1.951333 1_554
O1 Ti2 1.951333 1_555
O2 Ti0 1.966828 1_565
O2 Ti2 1.988373 1_555
O3 Ti0 1.966824 1_665
O3 Ti2 1.988381 1_555
O4 Ti0 1.966824 1_555
O4 Ti1 1.988381 1_555
O5 Ti1 1.951329 1_454
O5 Ti2 1.951329 1_555
O6 Ti0 1.966824 1_665
O6 Ti1 1.988381 1_555
O7 Ti1 1.951329 1_554
O7 Ti2 1.951329 1_545
O8 Ti0 1.966824 1_555
O8 Ti2 1.988381 1_555
