# generated using pymatgen
data_Sr2CaTi6N2O11
_symmetry_space_group_name_H-M   'P 1'
_cell_length_a   3.88694798
_cell_length_b   7.54889504
_cell_length_c   9.90764176
_cell_angle_alpha   78.41648759
_cell_angle_beta   90.03802996
_cell_angle_gamma   74.99351552
_symmetry_Int_Tables_number   1
_chemical_formula_structural   Sr2CaTi6N2O11
_chemical_formula_sum   'Sr2 Ca1 Ti6 N2 O11'
_cell_volume   274.65212864
_cell_formula_units_Z   1
loop_
 _symmetry_equiv_pos_site_id
 _symmetry_equiv_pos_as_xyz
  1  'x, y, z'
loop_
 _atom_site_type_symbol
 _atom_site_label
 _atom_site_symmetry_multiplicity
 _atom_site_fract_x
 _atom_site_fract_y
 _atom_site_fract_z
 _atom_site_occupancy
  Sr  Sr0  1  0.52744600  0.94817200  0.54272100  1
  Sr  Sr1  1  0.44884200  0.11572400  0.19780600  1
  Ca  Ca0  1  0.54352500  0.92472900  0.89178700  1
  Ti  Ti0  1  0.13221200  0.74965600  0.14599300  1
  Ti  Ti1  1  0.19554600  0.62000400  0.43654500  1
  Ti  Ti2  1  0.22958400  0.55192800  0.77784900  1
  Ti  Ti3  1  0.77069500  0.47246200  0.24588600  1
  Ti  Ti4  1  0.85332900  0.30776300  0.58569600  1
  Ti  Ti5  1  0.87064000  0.27168200  0.93794700  1
  N  N0  1  0.26058700  0.49164100  0.28245500  1
  N  N1  1  0.83793900  0.33762400  0.10594500  1
  O  O0  1  0.07179000  0.86880500  0.30712000  1
  O  O1  1  0.13340800  0.73989200  0.61292000  1
  O  O2  1  0.15858000  0.69472500  0.90411200  1
  O  O3  1  0.63579900  0.74125000  0.12349100  1
  O  O4  1  0.70588400  0.60000100  0.45223600  1
  O  O5  1  0.76332800  0.48520300  0.76515000  1
  O  O6  1  0.32370200  0.36788700  0.58986400  1
  O  O7  1  0.37178500  0.26942500  0.89944800  1
  O  O8  1  0.90302200  0.21135600  0.42740200  1
  O  O9  1  0.96814000  0.08938800  0.71211500  1
  O  O10  1  0.00154600  0.00903200  0.01735100  1
loop_
_geom_bond_atom_site_label_1
_geom_bond_atom_site_label_2
_geom_bond_distance
_geom_bond_site_symmetry_2
Ca0 O3 2.404527 1_556
Ca0 O10 2.453109 1_566
Ca0 O10 2.454352 1_666
Ca0 O7 2.530224 1_565
Ca0 O2 2.551441 1_655
Ca0 O2 2.555154 1_555
Ca0 O9 2.717035 1_465
Ca0 O9 2.759634 1_565
N0 Ti1 1.949700 1_555
N0 Ti3 1.985212 1_455
N0 Ti3 1.989207 1_555
N0 Ti0 2.075777 1_555
N0 Sr1 3.028686 1_555
N1 Ti5 1.826101 1_554
N1 Ti3 1.859085 1_555
N1 Sr1 2.568622 1_655
N1 Sr1 2.573552 1_555
O0 Ti0 1.969860 1_555
O0 Ti1 1.991819 1_555
O0 Sr1 2.712730 1_465
O0 Sr1 2.720542 1_565
O0 Sr0 3.170202 1_555
O0 Sr0 3.193145 1_455
O1 Ti2 1.901735 1_555
O1 Ti1 2.110330 1_555
O1 Sr0 2.472032 1_555
O1 Sr0 2.478781 1_455
O2 Ti2 1.786345 1_555
O2 Ti0 2.510562 1_556
O3 Ti0 1.956309 1_555
O3 Ti0 1.960953 1_655
O3 Ti3 2.079079 1_555
O3 Sr1 2.972226 1_565
O4 Ti1 1.951738 1_655
O4 Ti1 1.953692 1_555
O4 Ti4 2.261951 1_555
O4 Ti3 2.415720 1_555
O4 Sr0 2.862832 1_555
O5 Ti2 2.012933 1_655
O5 Ti2 2.014521 1_555
O5 Ti5 2.060512 1_555
O5 Ti4 2.406722 1_555
O6 Ti4 1.992348 1_555
O6 Ti4 1.996896 1_455
O6 Ti1 2.127159 1_555
O6 Ti2 2.511915 1_555
O6 Sr0 3.190517 1_545
O7 Ti5 1.980992 1_555
O7 Ti5 1.981565 1_455
O7 Ti2 2.159116 1_555
O7 Sr1 2.935218 1_556
O8 Ti4 1.847310 1_555
O8 Ti3 2.331112 1_555
O8 Sr0 2.780467 1_645
O8 Sr0 2.824234 1_545
O8 Sr1 3.173247 1_655
O8 Sr1 3.182194 1_555
O9 Ti4 1.809575 1_555
O9 Sr0 2.864003 1_645
O9 Sr0 2.923629 1_545
O10 Ti5 1.913006 1_454
O10 Ti0 2.048936 1_545
O10 Sr1 2.854449 1_455
O10 Sr1 2.857849 1_555
