# generated using pymatgen
data_Nd3Co29(Si2B5)2
_symmetry_space_group_name_H-M   'P 1'
_cell_length_a   11.16817895
_cell_length_b   11.16817895
_cell_length_c   7.79710217
_cell_angle_alpha   90.00000000
_cell_angle_beta   90.00000000
_cell_angle_gamma   90.00000000
_symmetry_Int_Tables_number   1
_chemical_formula_structural   Nd3Co29(Si2B5)2
_chemical_formula_sum   'Nd6 Co58 Si8 B20'
_cell_volume   972.51868308
_cell_formula_units_Z   2
loop_
 _symmetry_equiv_pos_site_id
 _symmetry_equiv_pos_as_xyz
  1  'x, y, z'
loop_
 _atom_site_type_symbol
 _atom_site_label
 _atom_site_symmetry_multiplicity
 _atom_site_fract_x
 _atom_site_fract_y
 _atom_site_fract_z
 _atom_site_occupancy
  Nd  Nd0  1  0.25000000  0.75000000  0.00000000  1
  Nd  Nd1  1  0.25000000  0.25000000  0.00000000  1
  Nd  Nd2  1  0.75000000  0.75000000  0.00000000  1
  Nd  Nd3  1  0.75000000  0.25000000  0.00000000  1
  Nd  Nd4  1  -0.00000000  -0.00000000  0.50000000  1
  Nd  Nd5  1  0.50000000  0.50000000  0.50000000  1
  Co  Co0  1  0.33926214  0.67620813  0.33577962  1
  Co  Co1  1  0.27283717  -0.00000000  0.53093324  1
  Co  Co2  1  0.50000000  0.77283717  0.53093324  1
  Co  Co3  1  0.50000000  0.22716283  0.53093324  1
  Co  Co4  1  0.83553131  0.50000000  0.96949775  1
  Co  Co5  1  -0.00000000  0.66446869  0.96949775  1
  Co  Co6  1  -0.00000000  0.33553131  0.96949775  1
  Co  Co7  1  0.16446869  0.50000000  0.96949775  1
  Co  Co8  1  0.66446869  -0.00000000  0.03050225  1
  Co  Co9  1  0.33553131  -0.00000000  0.03050225  1
  Co  Co10  1  0.50000000  0.83553131  0.03050225  1
  Co  Co11  1  0.50000000  0.16446869  0.03050225  1
  Co  Co12  1  0.88518887  0.38518887  0.25104358  1
  Co  Co13  1  0.88518887  0.61481113  0.25104358  1
  Co  Co14  1  0.11481113  0.38518887  0.25104358  1
  Co  Co15  1  0.11481113  0.61481113  0.25104358  1
  Co  Co16  1  0.61481113  0.88518887  0.74895642  1
  Co  Co17  1  0.38518887  0.11481113  0.74895642  1
  Co  Co18  1  0.38518887  0.88518887  0.74895642  1
  Co  Co19  1  0.61481113  0.11481113  0.74895642  1
  Co  Co20  1  0.89097950  0.39097950  0.69502138  1
  Co  Co21  1  0.89097950  0.60902050  0.69502138  1
  Co  Co22  1  0.10902050  0.39097950  0.69502138  1
  Co  Co23  1  0.10902050  0.60902050  0.69502138  1
  Co  Co24  1  0.60902050  0.89097950  0.30497862  1
  Co  Co25  1  0.39097950  0.10902050  0.30497862  1
  Co  Co26  1  0.39097950  0.89097950  0.30497862  1
  Co  Co27  1  0.60902050  0.10902050  0.30497862  1
  Co  Co28  1  0.33926214  0.32379187  0.33577962  1
  Co  Co29  1  0.82379187  0.16073786  0.33577962  1
  Co  Co30  1  0.17620813  0.83926214  0.33577962  1
  Co  Co31  1  0.66073786  0.67620813  0.33577962  1
  Co  Co32  1  0.16073786  0.82379187  0.66422038  1
  Co  Co33  1  0.83926214  0.17620813  0.66422038  1
  Co  Co34  1  0.32379187  0.33926214  0.66422038  1
  Co  Co35  1  0.61050121  0.50000000  0.88756398  1
  Co  Co36  1  0.16073786  0.17620813  0.66422038  1
  Co  Co37  1  0.67620813  0.33926214  0.66422038  1
  Co  Co38  1  0.32379187  0.66073786  0.66422038  1
  Co  Co39  1  0.83926214  0.82379187  0.66422038  1
  Co  Co40  1  0.72716283  -0.00000000  0.53093324  1
  Co  Co41  1  -0.00000000  0.88949879  0.88756398  1
  Co  Co42  1  0.17620813  0.16073786  0.33577962  1
  Co  Co43  1  0.82379187  0.83926214  0.33577962  1
  Co  Co44  1  -0.00000000  0.11050121  0.88756398  1
  Co  Co45  1  0.38949879  0.50000000  0.88756398  1
  Co  Co46  1  0.50000000  -0.00000000  0.53774025  1
  Co  Co47  1  -0.00000000  0.50000000  0.46225975  1
  Co  Co48  1  0.11050121  -0.00000000  0.11243602  1
  Co  Co49  1  0.22716283  0.50000000  0.46906676  1
  Co  Co50  1  -0.00000000  0.27283717  0.46906676  1
  Co  Co51  1  -0.00000000  0.72716283  0.46906676  1
  Co  Co52  1  0.77283717  0.50000000  0.46906676  1
  Co  Co53  1  0.50000000  0.61050121  0.11243602  1
  Co  Co54  1  0.50000000  0.38949879  0.11243602  1
  Co  Co55  1  0.88949879  -0.00000000  0.11243602  1
  Co  Co56  1  0.67620813  0.66073786  0.66422038  1
  Co  Co57  1  0.66073786  0.32379187  0.33577962  1
  Si  Si0  1  0.50000000  0.67894124  0.82654231  1
  Si  Si1  1  0.32105876  0.50000000  0.17345769  1
  Si  Si2  1  -0.00000000  0.17894124  0.17345769  1
  Si  Si3  1  -0.00000000  0.82105876  0.17345769  1
  Si  Si4  1  0.67894124  0.50000000  0.17345769  1
  Si  Si5  1  0.17894124  -0.00000000  0.82654231  1
  Si  Si6  1  0.82105876  -0.00000000  0.82654231  1
  Si  Si7  1  0.50000000  0.32105876  0.82654231  1
  B  B0  1  0.68745628  0.18745628  0.51833237  1
  B  B1  1  0.31254372  0.81254372  0.51833237  1
  B  B2  1  0.31254372  0.18745628  0.51833237  1
  B  B3  1  0.68745628  0.81254372  0.51833237  1
  B  B4  1  0.18745628  0.68745628  0.48166763  1
  B  B5  1  0.18745628  0.31254372  0.48166763  1
  B  B6  1  0.50000000  0.25519499  0.26282041  1
  B  B7  1  0.50000000  0.74480501  0.26282041  1
  B  B8  1  0.24480501  -0.00000000  0.26282041  1
  B  B9  1  0.75519499  -0.00000000  0.26282041  1
  B  B10  1  0.25519499  0.50000000  0.73717959  1
  B  B11  1  -0.00000000  0.24480501  0.73717959  1
  B  B12  1  -0.00000000  0.75519499  0.73717959  1
  B  B13  1  0.74480501  0.50000000  0.73717959  1
  B  B14  1  0.50000000  -0.00000000  0.14734041  1
  B  B15  1  -0.00000000  0.50000000  0.85265959  1
  B  B16  1  0.50000000  -0.00000000  0.89579758  1
  B  B17  1  -0.00000000  0.50000000  0.10420242  1
  B  B18  1  0.81254372  0.68745628  0.48166763  1
  B  B19  1  0.81254372  0.31254372  0.48166763  1
loop_
_geom_bond_atom_site_label_1
_geom_bond_atom_site_label_2
_geom_bond_distance
_geom_bond_site_symmetry_2
Nd0 Si0 3.202261 1_554
Nd0 Si1 3.202261 1_555
Nd0 Si5 3.202261 1_564
Nd0 Si3 3.202261 1_555
Nd1 Si1 3.202261 1_555
Nd1 Si7 3.202261 1_554
Nd1 Si2 3.202261 1_555
Nd1 Si5 3.202261 1_554
Nd2 Si0 3.202261 1_554
Nd2 Si6 3.202261 1_564
Nd2 Si3 3.202261 1_655
Nd2 Si4 3.202261 1_555
Nd3 Si6 3.202261 1_554
Nd3 Si7 3.202261 1_554
Nd3 Si2 3.202261 1_655
Nd3 Si4 3.202261 1_555
Nd4 Si2 3.236717 1_555
Nd4 Si5 3.236717 1_555
Nd4 Si3 3.236717 1_545
Nd4 Si6 3.236717 1_455
Nd5 Si1 3.236717 1_555
Nd5 Si4 3.236717 1_555
Nd5 Si7 3.236717 1_555
Nd5 Si0 3.236717 1_555
Co0 Si1 2.348596 1_555
Co0 Nd0 2.920182 1_555
Co0 Nd5 2.955473 1_555
Co1 Si5 2.532232 1_555
Co1 Co46 2.537550 1_555
Co1 Nd4 3.056625 1_555
Co2 Si0 2.532232 1_555
Co2 Co46 2.537550 1_565
Co2 Nd5 3.056625 1_555
Co3 Si7 2.532232 1_555
Co3 Co46 2.537550 1_555
Co3 Nd5 3.056625 1_555
Co4 Si4 2.363776 1_556
Co4 Nd3 2.960496 1_556
Co4 Nd2 2.960496 1_556
Co5 Si3 2.363776 1_556
Co5 Nd0 2.960496 1_556
Co5 Nd2 2.960496 1_456
Co6 Si2 2.363776 1_556
Co6 Nd1 2.960496 1_556
Co6 Nd3 2.960496 1_456
Co7 Si1 2.363776 1_556
Co7 Nd1 2.960496 1_556
Co7 Nd0 2.960496 1_556
Co8 Si6 2.363776 1_554
Co8 Nd3 2.960496 1_555
Co8 Nd2 2.960496 1_545
Co9 Si5 2.363776 1_554
Co9 Nd1 2.960496 1_555
Co9 Nd0 2.960496 1_545
Co10 Si0 2.363776 1_554
Co10 Nd2 2.960496 1_555
Co10 Nd0 2.960496 1_555
Co11 Si7 2.363776 1_554
Co11 Nd3 2.960496 1_555
Co11 Nd1 2.960496 1_555
Co12 Co47 2.449577 1_655
Co12 Si2 2.704769 1_655
Co12 Si4 2.704769 1_555
Co12 Nd3 2.896642 1_555
Co13 Co47 2.449577 1_655
Co13 Si3 2.704769 1_655
Co13 Si4 2.704769 1_555
Co13 Nd2 2.896642 1_555
Co14 Co47 2.449577 1_555
Co14 Si2 2.704769 1_555
Co14 Si1 2.704769 1_555
Co14 Nd1 2.896642 1_555
Co15 Co47 2.449577 1_555
Co15 Si3 2.704769 1_555
Co15 Si1 2.704769 1_555
Co15 Nd0 2.896642 1_555
Co16 Co46 2.449577 1_565
Co16 Si6 2.704769 1_565
Co16 Si0 2.704769 1_555
Co16 Nd2 2.896642 1_556
Co17 Co46 2.449577 1_555
Co17 Si5 2.704769 1_555
Co17 Si7 2.704769 1_555
Co17 Nd1 2.896642 1_556
Co18 Co46 2.449577 1_565
Co18 Si0 2.704769 1_555
Co18 Si5 2.704769 1_565
Co18 Nd0 2.896642 1_556
Co19 Co46 2.449577 1_555
Co19 Si6 2.704769 1_555
Co19 Si7 2.704769 1_555
Co19 Nd3 2.896642 1_556
Co20 Co47 2.501729 1_655
Co21 Co47 2.501729 1_655
Co22 Co47 2.501729 1_555
Co23 Co47 2.501729 1_555
Co24 Co46 2.501729 1_565
Co25 Co46 2.501729 1_555
Co26 Co46 2.501729 1_565
Co27 Co46 2.501729 1_555
Co28 Si1 2.348596 1_555
Co28 Nd1 2.920182 1_555
Co28 Nd5 2.955473 1_555
Co29 Si2 2.348596 1_655
Co29 Nd3 2.920182 1_555
Co29 Nd4 2.955473 1_655
Co30 Si3 2.348596 1_555
Co30 Nd0 2.920182 1_555
Co30 Nd4 2.955473 1_565
Co31 Si4 2.348596 1_555
Co31 Nd2 2.920182 1_555
Co31 Nd5 2.955473 1_555
Co32 Si5 2.348596 1_565
Co32 Nd0 2.920182 1_556
Co32 Nd4 2.955473 1_565
Co33 Si6 2.348596 1_555
Co33 Nd3 2.920182 1_556
Co33 Nd4 2.955473 1_655
Co34 Si7 2.348596 1_555
Co34 Nd1 2.920182 1_556
Co34 Nd5 2.955473 1_555
Co35 Si4 2.356546 1_556
Co35 Si0 2.396491 1_555
Co35 Si7 2.396491 1_555
Co35 Nd5 3.264158 1_555
Co36 Si5 2.348596 1_555
Co36 Nd1 2.920182 1_556
Co36 Nd4 2.955473 1_555
Co37 Si7 2.348596 1_555
Co37 Nd3 2.920182 1_556
Co37 Nd5 2.955473 1_555
Co38 Si0 2.348596 1_555
Co38 Nd0 2.920182 1_556
Co38 Nd5 2.955473 1_555
Co39 Si6 2.348596 1_565
Co39 Nd2 2.920182 1_556
Co39 Nd4 2.955473 1_665
Co40 Si6 2.532232 1_555
Co40 Co46 2.537550 1_555
Co40 Nd4 3.056625 1_655
Co41 Si3 2.356546 1_556
Co41 Si6 2.396491 1_465
Co41 Si5 2.396491 1_565
Co41 Nd4 3.264158 1_565
Co42 Si2 2.348596 1_555
Co42 Nd1 2.920182 1_555
Co42 Nd4 2.955473 1_555
Co43 Si3 2.348596 1_655
Co43 Nd2 2.920182 1_555
Co43 Nd4 2.955473 1_665
Co44 Si2 2.356546 1_556
Co44 Si5 2.396491 1_555
Co44 Si6 2.396491 1_455
Co44 Nd4 3.264158 1_555
Co45 Si1 2.356546 1_556
Co45 Si0 2.396491 1_555
Co45 Si7 2.396491 1_555
Co45 Nd5 3.264158 1_555
Co47 Co50 2.537550 1_555
Co47 Co49 2.537550 1_555
Co47 Co52 2.537550 1_455
Co47 Co51 2.537550 1_555
Co48 Si5 2.356546 1_554
Co48 Si2 2.396491 1_555
Co48 Si3 2.396491 1_545
Co48 Nd4 3.264158 1_555
Co49 Si1 2.532232 1_555
Co49 Nd5 3.056625 1_555
Co50 Si2 2.532232 1_555
Co50 Nd4 3.056625 1_555
Co51 Si3 2.532232 1_555
Co51 Nd4 3.056625 1_565
Co52 Si4 2.532232 1_555
Co52 Nd5 3.056625 1_555
Co53 Si0 2.356546 1_554
Co53 Si4 2.396491 1_555
Co53 Si1 2.396491 1_555
Co53 Nd5 3.264158 1_555
Co54 Si7 2.356546 1_554
Co54 Si4 2.396491 1_555
Co54 Si1 2.396491 1_555
Co54 Nd5 3.264158 1_555
Co55 Si6 2.356546 1_554
Co55 Si3 2.396491 1_645
Co55 Si2 2.396491 1_655
Co55 Nd4 3.264158 1_655
Co56 Si0 2.348596 1_555
Co56 Nd2 2.920182 1_556
Co56 Nd5 2.955473 1_555
Co57 Si4 2.348596 1_555
Co57 Nd3 2.920182 1_555
Co57 Nd5 2.955473 1_555
B0 B19 1.996231 1_555
B0 Co33 2.045497 1_555
B0 Co37 2.045497 1_555
B0 Co27 2.074143 1_555
B0 Co57 2.105571 1_555
B0 Co29 2.105571 1_555
B0 Co19 2.133069 1_555
B0 Co40 2.142249 1_555
B0 Co3 2.142249 1_555
B1 B4 1.996231 1_555
B1 Co38 2.045497 1_555
B1 Co32 2.045497 1_555
B1 Co26 2.074143 1_555
B1 Co0 2.105571 1_555
B1 Co30 2.105571 1_555
B1 Co18 2.133069 1_555
B1 Co2 2.142249 1_555
B1 Co1 2.142249 1_565
B2 B5 1.996231 1_555
B2 Co34 2.045497 1_555
B2 Co36 2.045497 1_555
B2 Co25 2.074143 1_555
B2 Co28 2.105571 1_555
B2 Co42 2.105571 1_555
B2 Co17 2.133069 1_555
B2 Co3 2.142249 1_555
B2 Co1 2.142249 1_555
B3 Co39 2.045497 1_555
B3 Co56 2.045497 1_555
B3 Co24 2.074143 1_555
B3 Co31 2.105571 1_555
B3 Co43 2.105571 1_555
B3 Co16 2.133069 1_555
B3 Co2 2.142249 1_555
B3 Co40 2.142249 1_565
B4 Co0 2.045497 1_555
B4 Co30 2.045497 1_555
B4 Co23 2.074143 1_555
B4 Co38 2.105571 1_555
B4 Co32 2.105571 1_555
B4 Co15 2.133069 1_555
B4 Co51 2.142249 1_555
B4 Co49 2.142249 1_555
B5 Co28 2.045497 1_555
B5 Co42 2.045497 1_555
B5 Co22 2.074143 1_555
B5 Co34 2.105571 1_555
B5 Co36 2.105571 1_555
B5 Co14 2.133069 1_555
B5 Co49 2.142249 1_555
B5 Co50 2.142249 1_555
B6 Co54 1.903862 1_555
B6 Co57 2.032999 1_555
B6 Co28 2.032999 1_555
B6 Co27 2.062903 1_555
B6 Co25 2.062903 1_555
B6 Co11 2.075541 1_555
B6 Co3 2.113815 1_555
B7 Co53 1.903862 1_555
B7 Co31 2.032999 1_555
B7 Co0 2.032999 1_555
B7 Co24 2.062903 1_555
B7 Co26 2.062903 1_555
B7 Co10 2.075541 1_555
B7 Co2 2.113815 1_555
B8 Co48 1.903862 1_555
B8 Co42 2.032999 1_555
B8 Co30 2.032999 1_545
B8 Co25 2.062903 1_555
B8 Co26 2.062903 1_545
B8 Co9 2.075541 1_555
B8 Co1 2.113815 1_555
B9 Co55 1.903862 1_555
B9 Co43 2.032999 1_545
B9 Co29 2.032999 1_555
B9 Co27 2.062903 1_555
B9 Co24 2.062903 1_545
B9 Co8 2.075541 1_555
B9 Co40 2.113815 1_555
B10 Co45 1.903862 1_555
B10 Co34 2.032999 1_555
B10 Co38 2.032999 1_555
B10 Co23 2.062903 1_555
B10 Co22 2.062903 1_555
B10 Co7 2.075541 1_555
B10 Co49 2.113815 1_555
B11 Co44 1.903862 1_555
B11 Co33 2.032999 1_455
B11 Co36 2.032999 1_555
B11 Co22 2.062903 1_555
B11 Co20 2.062903 1_455
B11 Co6 2.075541 1_555
B11 Co50 2.113815 1_555
B12 Co41 1.903862 1_555
B12 Co32 2.032999 1_555
B12 Co39 2.032999 1_455
B12 Co23 2.062903 1_555
B12 Co21 2.062903 1_455
B12 Co5 2.075541 1_555
B12 Co51 2.113815 1_555
B13 Co35 1.903862 1_555
B13 Co37 2.032999 1_555
B13 Co56 2.032999 1_555
B13 Co21 2.062903 1_555
B13 Co20 2.062903 1_555
B13 Co4 2.075541 1_555
B13 Co52 2.113815 1_555
B14 B16 1.961305 1_554
B14 Co9 2.050320 1_555
B14 Co10 2.050320 1_545
B14 Co8 2.050320 1_555
B14 Co11 2.050320 1_555
B14 Co27 2.115572 1_555
B14 Co25 2.115572 1_555
B14 Co24 2.115572 1_545
B14 Co26 2.115572 1_545
B15 B17 1.961305 1_556
B15 Co6 2.050320 1_555
B15 Co4 2.050320 1_455
B15 Co5 2.050320 1_555
B15 Co7 2.050320 1_555
B15 Co23 2.115572 1_555
B15 Co22 2.115572 1_555
B15 Co21 2.115572 1_455
B15 Co20 2.115572 1_455
B16 Co8 2.115901 1_556
B16 Co10 2.115901 1_546
B16 Co9 2.115901 1_556
B16 Co11 2.115901 1_556
B16 Co18 2.144554 1_545
B16 Co16 2.144554 1_545
B16 Co19 2.144554 1_555
B16 Co17 2.144554 1_555
B17 Co4 2.115901 1_454
B17 Co5 2.115901 1_554
B17 Co6 2.115901 1_554
B17 Co7 2.115901 1_554
B17 Co14 2.144554 1_555
B17 Co12 2.144554 1_455
B17 Co13 2.144554 1_455
B17 Co15 2.144554 1_555
B18 B3 1.996231 1_555
B18 Co43 2.045497 1_555
B18 Co31 2.045497 1_555
B18 Co21 2.074143 1_555
B18 Co39 2.105571 1_555
B18 Co56 2.105571 1_555
B18 Co13 2.133069 1_555
B18 Co51 2.142249 1_655
B18 Co52 2.142249 1_555
B19 Co57 2.045497 1_555
B19 Co29 2.045497 1_555
B19 Co20 2.074143 1_555
B19 Co37 2.105571 1_555
B19 Co33 2.105571 1_555
B19 Co12 2.133069 1_555
B19 Co52 2.142249 1_555
B19 Co50 2.142249 1_655
