# generated using pymatgen
data_KMg30BO32
_symmetry_space_group_name_H-M   'P 1'
_cell_length_a   8.68169000
_cell_length_b   8.68169000
_cell_length_c   8.37378200
_cell_angle_alpha   90.00000000
_cell_angle_beta   90.00000000
_cell_angle_gamma   90.00000000
_symmetry_Int_Tables_number   1
_chemical_formula_structural   KMg30BO32
_chemical_formula_sum   'K1 Mg30 B1 O32'
_cell_volume   631.14653024
_cell_formula_units_Z   1
loop_
 _symmetry_equiv_pos_site_id
 _symmetry_equiv_pos_as_xyz
  1  'x, y, z'
loop_
 _atom_site_type_symbol
 _atom_site_label
 _atom_site_symmetry_multiplicity
 _atom_site_fract_x
 _atom_site_fract_y
 _atom_site_fract_z
 _atom_site_occupancy
  K  K0  1  0.00000000  0.00000000  0.00000000  1
  Mg  Mg0  1  0.50000000  0.00000000  0.00000000  1
  Mg  Mg1  1  0.50000000  0.00000000  0.50000000  1
  Mg  Mg2  1  0.00000000  0.50000000  0.00000000  1
  Mg  Mg3  1  0.00000000  0.50000000  0.50000000  1
  Mg  Mg4  1  0.50000000  0.50000000  0.00000000  1
  Mg  Mg5  1  0.50000000  0.50000000  0.50000000  1
  Mg  Mg6  1  0.26228500  0.00000000  0.25544300  1
  Mg  Mg7  1  0.26228500  0.00000000  0.74455700  1
  Mg  Mg8  1  0.73771500  0.00000000  0.25544300  1
  Mg  Mg9  1  0.73771500  0.00000000  0.74455700  1
  Mg  Mg10  1  0.25094400  0.50000000  0.25054200  1
  Mg  Mg11  1  0.25094400  0.50000000  0.74945800  1
  Mg  Mg12  1  0.74905600  0.50000000  0.25054200  1
  Mg  Mg13  1  0.74905600  0.50000000  0.74945800  1
  Mg  Mg14  1  0.00000000  0.26228500  0.25544300  1
  Mg  Mg15  1  0.00000000  0.26228500  0.74455700  1
  Mg  Mg16  1  0.50000000  0.25094400  0.25054200  1
  Mg  Mg17  1  0.50000000  0.25094400  0.74945800  1
  Mg  Mg18  1  0.00000000  0.73771500  0.25544300  1
  Mg  Mg19  1  0.00000000  0.73771500  0.74455700  1
  Mg  Mg20  1  0.50000000  0.74905600  0.25054200  1
  Mg  Mg21  1  0.50000000  0.74905600  0.74945800  1
  Mg  Mg22  1  0.25134300  0.25134300  0.00000000  1
  Mg  Mg23  1  0.24759600  0.24759600  0.50000000  1
  Mg  Mg24  1  0.74865700  0.25134300  0.00000000  1
  Mg  Mg25  1  0.75240400  0.24759600  0.50000000  1
  Mg  Mg26  1  0.25134300  0.74865700  0.00000000  1
  Mg  Mg27  1  0.24759600  0.75240400  0.50000000  1
  Mg  Mg28  1  0.74865700  0.74865700  0.00000000  1
  Mg  Mg29  1  0.75240400  0.75240400  0.50000000  1
  B  B0  1  0.00000000  0.00000000  0.50000000  1
  O  O0  1  0.00000000  0.27086300  0.00000000  1
  O  O1  1  0.00000000  0.26436000  0.50000000  1
  O  O2  1  0.50000000  0.25419000  0.00000000  1
  O  O3  1  0.50000000  0.25209700  0.50000000  1
  O  O4  1  0.00000000  0.72913700  0.00000000  1
  O  O5  1  0.00000000  0.73564000  0.50000000  1
  O  O6  1  0.50000000  0.74581000  0.00000000  1
  O  O7  1  0.50000000  0.74790300  0.50000000  1
  O  O8  1  0.24641200  0.24641200  0.24988000  1
  O  O9  1  0.24641200  0.24641200  0.75012000  1
  O  O10  1  0.75358800  0.24641200  0.24988000  1
  O  O11  1  0.75358800  0.24641200  0.75012000  1
  O  O12  1  0.24641200  0.75358800  0.24988000  1
  O  O13  1  0.24641200  0.75358800  0.75012000  1
  O  O14  1  0.75358800  0.75358800  0.24988000  1
  O  O15  1  0.75358800  0.75358800  0.75012000  1
  O  O16  1  0.00000000  0.00000000  0.33661700  1
  O  O17  1  0.00000000  0.00000000  0.66338300  1
  O  O18  1  0.50000000  0.00000000  0.25173600  1
  O  O19  1  0.50000000  0.00000000  0.74826400  1
  O  O20  1  0.00000000  0.50000000  0.25173600  1
  O  O21  1  0.00000000  0.50000000  0.74826400  1
  O  O22  1  0.50000000  0.50000000  0.25090200  1
  O  O23  1  0.50000000  0.50000000  0.74909800  1
  O  O24  1  0.27086300  0.00000000  0.00000000  1
  O  O25  1  0.26436000  0.00000000  0.50000000  1
  O  O26  1  0.72913700  0.00000000  0.00000000  1
  O  O27  1  0.73564000  0.00000000  0.50000000  1
  O  O28  1  0.25419000  0.50000000  0.00000000  1
  O  O29  1  0.25209700  0.50000000  0.50000000  1
  O  O30  1  0.74581000  0.50000000  0.00000000  1
  O  O31  1  0.74790300  0.50000000  0.50000000  1
loop_
_geom_bond_atom_site_label_1
_geom_bond_atom_site_label_2
_geom_bond_distance
_geom_bond_site_symmetry_2
K0 O4 2.351549 1_545
K0 O26 2.351549 1_455
K0 O0 2.351549 1_555
K0 O24 2.351549 1_555
K0 O16 2.818757 1_555
K0 O17 2.818757 1_554
Mg0 O24 1.989296 1_555
Mg0 O26 1.989296 1_555
Mg0 O19 2.107982 1_554
Mg0 O18 2.107982 1_555
Mg0 O6 2.206799 1_545
Mg0 O2 2.206799 1_555
Mg1 O27 2.045753 1_555
Mg1 O25 2.045753 1_555
Mg1 O18 2.078909 1_555
Mg1 O19 2.078909 1_555
Mg1 O7 2.188628 1_545
Mg1 O3 2.188628 1_555
Mg2 O0 1.989296 1_555
Mg2 O4 1.989296 1_555
Mg2 O21 2.107982 1_554
Mg2 O20 2.107982 1_555
Mg2 O28 2.206799 1_555
Mg2 O30 2.206799 1_455
Mg3 O5 2.045753 1_555
Mg3 O1 2.045753 1_555
Mg3 O20 2.078909 1_555
Mg3 O21 2.078909 1_555
Mg3 O29 2.188628 1_555
Mg3 O31 2.188628 1_455
Mg4 O23 2.100999 1_554
Mg4 O22 2.100999 1_555
Mg4 O30 2.134046 1_555
Mg4 O2 2.134046 1_555
Mg4 O28 2.134046 1_555
Mg4 O6 2.134046 1_555
Mg5 O22 2.085892 1_555
Mg5 O23 2.085892 1_555
Mg5 O7 2.152217 1_555
Mg5 O29 2.152217 1_555
Mg5 O31 2.152217 1_555
Mg5 O3 2.152217 1_555
Mg6 O25 2.047946 1_555
Mg6 O18 2.064001 1_555
Mg6 O24 2.140320 1_555
Mg6 O8 2.144213 1_555
Mg6 O12 2.144213 1_545
Mg6 O16 2.376366 1_555
Mg7 O25 2.047946 1_555
Mg7 O19 2.064001 1_555
Mg7 O24 2.140320 1_556
Mg7 O13 2.144213 1_545
Mg7 O9 2.144213 1_555
Mg7 O17 2.376366 1_555
Mg8 O27 2.047946 1_555
Mg8 O18 2.064001 1_555
Mg8 O26 2.140320 1_555
Mg8 O14 2.144213 1_545
Mg8 O10 2.144213 1_555
Mg8 O16 2.376366 1_655
Mg9 O27 2.047946 1_555
Mg9 O19 2.064001 1_555
Mg9 O26 2.140320 1_556
Mg9 O11 2.144213 1_555
Mg9 O15 2.144213 1_545
Mg9 O17 2.376366 1_655
Mg10 O29 2.088931 1_555
Mg10 O28 2.098173 1_555
Mg10 O22 2.162229 1_555
Mg10 O20 2.178641 1_555
Mg10 O8 2.201931 1_555
Mg10 O12 2.201931 1_555
Mg11 O29 2.088931 1_555
Mg11 O28 2.098173 1_556
Mg11 O23 2.162229 1_555
Mg11 O21 2.178641 1_555
Mg11 O9 2.201931 1_555
Mg11 O13 2.201931 1_555
Mg12 O31 2.088931 1_555
Mg12 O30 2.098173 1_555
Mg12 O22 2.162229 1_555
Mg12 O20 2.178641 1_655
Mg12 O14 2.201931 1_555
Mg12 O10 2.201931 1_555
Mg13 O31 2.088931 1_555
Mg13 O30 2.098173 1_556
Mg13 O23 2.162229 1_555
Mg13 O21 2.178641 1_655
Mg13 O11 2.201931 1_555
Mg13 O15 2.201931 1_555
Mg14 O1 2.047946 1_555
Mg14 O20 2.064001 1_555
Mg14 O0 2.140320 1_555
Mg14 O8 2.144213 1_555
Mg14 O10 2.144213 1_455
Mg14 O16 2.376366 1_555
Mg15 O1 2.047946 1_555
Mg15 O21 2.064001 1_555
Mg15 O0 2.140320 1_556
Mg15 O11 2.144213 1_455
Mg15 O9 2.144213 1_555
Mg15 O17 2.376366 1_555
Mg16 O3 2.088931 1_555
Mg16 O2 2.098173 1_555
Mg16 O22 2.162229 1_555
Mg16 O18 2.178641 1_555
Mg16 O8 2.201931 1_555
Mg16 O10 2.201931 1_555
Mg17 O3 2.088931 1_555
Mg17 O2 2.098173 1_556
Mg17 O23 2.162229 1_555
Mg17 O19 2.178641 1_555
Mg17 O11 2.201931 1_555
Mg17 O9 2.201931 1_555
Mg18 O5 2.047946 1_555
Mg18 O20 2.064001 1_555
Mg18 O4 2.140320 1_555
Mg18 O12 2.144213 1_555
Mg18 O14 2.144213 1_455
Mg18 O16 2.376366 1_565
Mg19 O5 2.047946 1_555
Mg19 O21 2.064001 1_555
Mg19 O4 2.140320 1_556
Mg19 O15 2.144213 1_455
Mg19 O13 2.144213 1_555
Mg19 O17 2.376366 1_565
Mg20 O7 2.088931 1_555
Mg20 O6 2.098173 1_555
Mg20 O22 2.162229 1_555
Mg20 O18 2.178641 1_565
Mg20 O14 2.201931 1_555
Mg20 O12 2.201931 1_555
Mg21 O7 2.088931 1_555
Mg21 O6 2.098173 1_556
Mg21 O23 2.162229 1_555
Mg21 O19 2.178641 1_565
Mg21 O15 2.201931 1_555
Mg21 O13 2.201931 1_555
Mg22 O9 2.093316 1_554
Mg22 O8 2.093316 1_555
Mg22 O2 2.158904 1_555
Mg22 O28 2.158904 1_555
Mg22 O0 2.188653 1_555
Mg22 O24 2.188653 1_555
Mg23 O8 2.094501 1_555
Mg23 O9 2.094501 1_555
Mg23 O25 2.154473 1_555
Mg23 O1 2.154473 1_555
Mg23 O29 2.191642 1_555
Mg23 O3 2.191642 1_555
Mg24 O10 2.093316 1_555
Mg24 O11 2.093316 1_554
Mg24 O30 2.158904 1_555
Mg24 O2 2.158904 1_555
Mg24 O26 2.188653 1_555
Mg24 O0 2.188653 1_655
Mg25 O10 2.094501 1_555
Mg25 O11 2.094501 1_555
Mg25 O1 2.154473 1_655
Mg25 O27 2.154473 1_555
Mg25 O31 2.191642 1_555
Mg25 O3 2.191642 1_555
Mg26 O13 2.093316 1_554
Mg26 O12 2.093316 1_555
Mg26 O28 2.158904 1_555
Mg26 O6 2.158904 1_555
Mg26 O24 2.188653 1_565
Mg26 O4 2.188653 1_555
Mg27 O13 2.094501 1_555
Mg27 O12 2.094501 1_555
Mg27 O25 2.154473 1_565
Mg27 O5 2.154473 1_555
Mg27 O29 2.191642 1_555
Mg27 O7 2.191642 1_555
Mg28 O14 2.093316 1_555
Mg28 O15 2.093316 1_554
Mg28 O30 2.158904 1_555
Mg28 O6 2.158904 1_555
Mg28 O26 2.188653 1_565
Mg28 O4 2.188653 1_655
Mg29 O14 2.094501 1_555
Mg29 O15 2.094501 1_555
Mg29 O27 2.154473 1_565
Mg29 O5 2.154473 1_655
Mg29 O31 2.191642 1_555
Mg29 O7 2.191642 1_555
B0 O17 1.368134 1_555
B0 O16 1.368134 1_555
