# generated using pymatgen
data_ErGeRh2
_symmetry_space_group_name_H-M   'P 1'
_cell_length_a   5.51531437
_cell_length_b   5.51531396
_cell_length_c   15.40320191
_cell_angle_alpha   90.00001342
_cell_angle_beta   90.00003233
_cell_angle_gamma   119.99983080
_symmetry_Int_Tables_number   1
_chemical_formula_structural   ErGeRh2
_chemical_formula_sum   'Er6 Ge6 Rh12'
_cell_volume   405.77276307
_cell_formula_units_Z   6
loop_
 _symmetry_equiv_pos_site_id
 _symmetry_equiv_pos_as_xyz
  1  'x, y, z'
loop_
 _atom_site_type_symbol
 _atom_site_label
 _atom_site_symmetry_multiplicity
 _atom_site_fract_x
 _atom_site_fract_y
 _atom_site_fract_z
 _atom_site_occupancy
  Er  Er0  1  0.33333289  0.66666647  0.53807209  1
  Er  Er1  1  0.66666704  0.33333331  0.46190127  1
  Er  Er2  1  0.66666703  0.33333355  0.03810689  1
  Er  Er3  1  0.33333329  0.66666715  0.96190944  1
  Er  Er4  1  0.33333330  0.66666706  0.75000575  1
  Er  Er5  1  0.66666705  0.33333472  0.24999635  1
  Ge  Ge0  1  0.00000031  0.00000091  0.25000740  1
  Ge  Ge1  1  0.00000062  0.00000013  0.74999991  1
  Ge  Ge2  1  0.33333282  0.66666648  0.25001113  1
  Ge  Ge3  1  0.66666633  0.33333295  0.74999876  1
  Ge  Ge4  1  -0.00000019  -0.00000049  0.00000087  1
  Ge  Ge5  1  0.99999920  0.99999870  0.49999090  1
  Rh  Rh0  1  0.16798877  0.33598018  0.12728754  1
  Rh  Rh1  1  0.83201220  0.66402350  0.87271876  1
  Rh  Rh2  1  0.66401956  0.83201012  0.12728727  1
  Rh  Rh3  1  0.83201581  0.66403203  0.62727975  1
  Rh  Rh4  1  0.33597722  0.16798829  0.87271889  1
  Rh  Rh5  1  0.16798967  0.33597883  0.37271418  1
  Rh  Rh6  1  0.16798962  0.83201092  0.12728777  1
  Rh  Rh7  1  0.33596683  0.16798284  0.62727998  1
  Rh  Rh8  1  0.83201235  0.16798850  0.87271848  1
  Rh  Rh9  1  0.66402189  0.83201116  0.37271378  1
  Rh  Rh10  1  0.83201630  0.16798322  0.62728004  1
  Rh  Rh11  1  0.16798910  0.83201046  0.37271381  1
loop_
_geom_bond_atom_site_label_1
_geom_bond_atom_site_label_2
_geom_bond_distance
_geom_bond_site_symmetry_2
Er0 Rh5 2.997038 1_555
Er0 Rh11 2.997041 1_555
Er0 Rh9 2.997048 1_555
Er0 Rh7 3.081059 1_565
Er0 Rh3 3.081061 1_555
Er0 Rh3 3.081061 1_455
Er0 Rh7 3.081066 1_555
Er0 Rh10 3.081069 1_565
Er0 Rh10 3.081070 1_455
Er0 Ge5 3.237837 1_455
Er0 Ge5 3.237848 1_555
Er0 Ge5 3.237854 1_445
Er0 Er4 3.264457 1_555
Er1 Rh3 2.997335 1_555
Er1 Rh10 2.997339 1_555
Er1 Rh7 2.997343 1_555
Er1 Rh5 3.080920 1_555
Er1 Rh5 3.080920 1_655
Er1 Rh9 3.080920 1_545
Er1 Rh9 3.080925 1_555
Er1 Rh11 3.080928 1_655
Er1 Rh11 3.080930 1_545
Er1 Ge5 3.237865 1_545
Er1 Ge5 3.237866 1_555
Er1 Ge5 3.237878 1_445
Er1 Er5 3.264014 1_555
Er2 Rh4 2.997437 1_554
Er2 Rh1 2.997441 1_554
Er2 Rh8 2.997443 1_554
Er2 Rh0 3.080867 1_655
Er2 Rh2 3.080873 1_545
Er2 Rh2 3.080875 1_555
Er2 Rh6 3.080882 1_655
Er2 Rh0 3.080884 1_555
Er2 Rh6 3.080885 1_545
Er2 Ge4 3.237911 1_655
Er2 Ge4 3.237915 1_665
Er2 Ge4 3.237920 1_555
Er2 Er5 3.263776 1_555
Er3 Rh2 2.997295 1_556
Er3 Rh0 2.997302 1_556
Er3 Rh6 2.997303 1_556
Er3 Rh4 3.080940 1_565
Er3 Rh1 3.080940 1_455
Er3 Rh4 3.080947 1_555
Er3 Rh1 3.080949 1_555
Er3 Rh8 3.080951 1_455
Er3 Rh8 3.080955 1_565
Er3 Ge4 3.237866 1_566
Er3 Ge4 3.237876 1_666
Er3 Ge4 3.237882 1_556
Er3 Er4 3.263995 1_555
Er4 Ge1 3.184261 1_565
Er4 Ge3 3.184268 1_555
Er4 Ge3 3.184270 1_565
Er4 Ge1 3.184275 1_555
Er4 Ge3 3.184275 1_455
Er4 Ge1 3.184277 1_665
Er4 Rh4 3.343287 1_565
Er4 Rh1 3.343288 1_455
Er4 Rh1 3.343292 1_555
Er4 Rh8 3.343293 1_565
Er4 Rh8 3.343293 1_455
Er4 Rh4 3.343295 1_555
Er4 Rh7 3.343397 1_565
Er4 Rh3 3.343402 1_455
Er4 Rh3 3.343404 1_555
Er4 Rh7 3.343405 1_555
Er4 Rh10 3.343405 1_565
Er4 Rh10 3.343407 1_455
Er5 Ge2 3.184262 1_555
Er5 Ge0 3.184267 1_655
Er5 Ge2 3.184269 1_655
Er5 Ge0 3.184271 1_665
Er5 Ge0 3.184274 1_555
Er5 Ge2 3.184281 1_545
Er5 Rh0 3.343250 1_655
Er5 Rh2 3.343252 1_555
Er5 Rh6 3.343256 1_655
Er5 Rh0 3.343257 1_555
Er5 Rh6 3.343259 1_545
Er5 Rh2 3.343259 1_545
Er5 Rh9 3.343323 1_555
Er5 Rh11 3.343328 1_655
Er5 Rh5 3.343330 1_555
Er5 Rh9 3.343333 1_545
Er5 Rh5 3.343334 1_655
Er5 Rh11 3.343341 1_545
Ge0 Rh11 2.479447 1_545
Ge0 Rh9 2.479448 1_445
Ge0 Rh5 2.479450 1_555
Ge0 Rh6 2.479603 1_545
Ge0 Rh0 2.479609 1_555
Ge0 Rh2 2.479615 1_445
Ge1 Rh10 2.479569 1_455
Ge1 Rh7 2.479570 1_555
Ge1 Rh3 2.479576 1_445
Ge1 Rh8 2.479582 1_455
Ge1 Rh4 2.479589 1_555
Ge1 Rh1 2.479589 1_445
Ge2 Rh11 2.463120 1_555
Ge2 Rh9 2.463126 1_555
Ge2 Rh5 2.463128 1_555
Ge2 Rh6 2.463364 1_555
Ge2 Rh0 2.463365 1_555
Ge2 Rh2 2.463371 1_555
Ge3 Rh8 2.463330 1_555
Ge3 Rh4 2.463334 1_555
Ge3 Rh1 2.463336 1_555
Ge3 Rh10 2.463347 1_555
Ge3 Rh7 2.463348 1_555
Ge3 Rh3 2.463351 1_555
Ge4 Rh1 2.533577 1_444
Ge4 Rh8 2.533580 1_454
Ge4 Rh4 2.533582 1_554
Ge4 Rh6 2.533639 1_545
Ge4 Rh2 2.533643 1_445
Ge4 Rh0 2.533646 1_555
Ge5 Rh9 2.533521 1_555
Ge5 Rh11 2.533522 1_655
Ge5 Rh5 2.533527 1_665
Ge5 Rh3 2.533631 1_555
Ge5 Rh10 2.533633 1_565
Ge5 Rh7 2.533635 1_665
Rh0 Rh6 2.735763 1_555
Rh0 Rh2 2.735770 1_555
Rh0 Rh6 2.779551 1_545
Rh0 Rh2 2.779558 1_445
Rh1 Rh8 2.735789 1_555
Rh1 Rh4 2.735796 1_555
Rh1 Rh8 2.779525 1_565
Rh1 Rh4 2.779532 1_665
Rh2 Rh6 2.735763 1_555
Rh2 Rh6 2.779551 1_655
Rh3 Rh7 2.735874 1_555
Rh3 Rh7 2.779455 1_665
Rh4 Rh8 2.735789 1_555
Rh4 Rh8 2.779525 1_455
Rh5 Rh9 2.735781 1_555
Rh5 Rh9 2.779547 1_445
Rh10 Rh3 2.735866 1_555
Rh10 Rh7 2.735868 1_555
Rh10 Rh7 2.779447 1_655
Rh10 Rh3 2.779448 1_545
Rh11 Rh5 2.735772 1_555
Rh11 Rh9 2.735775 1_555
Rh11 Rh9 2.779540 1_455
Rh11 Rh5 2.779542 1_565
