# generated using pymatgen
data_Sr2FeSnO6
_symmetry_space_group_name_H-M   'P 1'
_cell_length_a   4.02753400
_cell_length_b   8.10111900
_cell_length_c   8.01113400
_cell_angle_alpha   89.99765302
_cell_angle_beta   89.99692590
_cell_angle_gamma   89.99968081
_symmetry_Int_Tables_number   1
_chemical_formula_structural   Sr2FeSnO6
_chemical_formula_sum   'Sr4 Fe2 Sn2 O12'
_cell_volume   261.38353233
_cell_formula_units_Z   2
loop_
 _symmetry_equiv_pos_site_id
 _symmetry_equiv_pos_as_xyz
  1  'x, y, z'
loop_
 _atom_site_type_symbol
 _atom_site_label
 _atom_site_symmetry_multiplicity
 _atom_site_fract_x
 _atom_site_fract_y
 _atom_site_fract_z
 _atom_site_occupancy
  Sr  Sr0  1  0.00000800  0.99945400  0.98427400  1
  Sr  Sr1  1  0.99999900  0.50054900  0.98427900  1
  Sr  Sr2  1  0.00000000  0.99945100  0.51571800  1
  Sr  Sr3  1  0.99999100  0.50054600  0.51572200  1
  Fe  Fe0  1  0.50000000  0.75000000  0.74999800  1
  Fe  Fe1  1  0.50000000  0.25000000  0.74999800  1
  Sn  Sn0  1  0.50000200  0.24999900  0.25000800  1
  Sn  Sn1  1  0.50000100  0.75000100  0.25002400  1
  O  O0  1  0.49999800  0.25000700  0.99086300  1
  O  O1  1  0.49999100  0.74999600  0.99062100  1
  O  O2  1  0.50000000  0.24999300  0.50913300  1
  O  O3  1  0.50001000  0.75000400  0.50937500  1
  O  O4  1  0.49999600  0.99980000  0.24999700  1
  O  O5  1  0.50000300  0.50019900  0.25000000  1
  O  O6  1  0.99999900  0.25000000  0.24999900  1
  O  O7  1  0.00000100  0.75000000  0.24999800  1
  O  O8  1  0.49998900  0.99339400  0.74999200  1
  O  O9  1  0.50001100  0.50660600  0.75000500  1
  O  O10  1  0.00000000  0.25000000  0.74999800  1
  O  O11  1  0.00000000  0.75000000  0.74999800  1
loop_
_geom_bond_atom_site_label_1
_geom_bond_atom_site_label_2
_geom_bond_distance
_geom_bond_site_symmetry_2
Fe0 O3 1.927663 1_555
Fe0 O1 1.927663 1_555
Fe0 O9 1.971764 1_555
Fe0 O8 1.971764 1_555
Fe0 O11 2.013767 1_555
Fe0 O11 2.013767 1_655
Fe1 O0 1.929602 1_555
Fe1 O2 1.929602 1_555
Fe1 O10 2.013767 1_655
Fe1 O10 2.013767 1_555
Fe1 O8 2.078796 1_545
Fe1 O9 2.078796 1_555
O0 Sn0 2.076045 1_556
O0 Sr1 2.859640 1_455
O0 Sr1 2.859658 1_555
O0 Sr0 2.859698 1_545
O0 Sr0 2.859735 1_645
O1 Sn1 2.078112 1_556
O1 Sr1 2.853315 1_455
O1 Sr0 2.853334 1_555
O1 Sr1 2.853341 1_555
O1 Sr0 2.853443 1_655
O2 Sn0 2.075885 1_555
O2 Sr2 2.859643 1_645
O2 Sr2 2.859655 1_545
O2 Sr3 2.859701 1_555
O2 Sr3 2.859732 1_455
O3 Sn1 2.077696 1_555
O3 Sr2 2.853309 1_655
O3 Sr3 2.853329 1_555
O3 Sr2 2.853346 1_555
O3 Sr3 2.853449 1_455
O4 Sn1 2.023651 1_555
O4 Sn0 2.026892 1_565
O4 Sr2 2.930225 1_555
O4 Sr0 2.930281 1_654
O4 Sr0 2.930371 1_554
O4 Sr2 2.930404 1_655
O5 Sn1 2.023676 1_555
O5 Sn0 2.026900 1_555
O5 Sr1 2.930225 1_554
O5 Sr3 2.930275 1_455
O5 Sr3 2.930366 1_555
O5 Sr1 2.930404 1_454
O6 Sn0 2.013755 1_555
O6 Sn0 2.013779 1_655
O6 Sr2 2.941232 1_645
O6 Sr1 2.941238 1_554
O6 Sr3 2.941359 1_555
O6 Sr0 2.941371 1_644
O7 Sn1 2.013767 1_455
O7 Sn1 2.013767 1_555
O7 Sr3 2.935147 1_455
O7 Sr0 2.935147 1_554
O7 Sr1 2.935221 1_454
O7 Sr2 2.935227 1_555
O8 Sr0 2.753104 1_555
O8 Sr2 2.753146 1_655
O8 Sr2 2.753228 1_555
O8 Sr0 2.753363 1_655
O9 Sr3 2.753106 1_555
O9 Sr1 2.753149 1_455
O9 Sr1 2.753225 1_555
O9 Sr3 2.753372 1_455
O10 Sr0 2.764385 1_545
O10 Sr3 2.764385 1_455
O10 Sr2 2.764537 1_545
O10 Sr1 2.764542 1_455
O11 Sr2 2.757900 1_555
O11 Sr1 2.757905 1_455
O11 Sr0 2.758009 1_555
O11 Sr3 2.758009 1_455
