# generated using pymatgen
data_CaMg14Mn
_symmetry_space_group_name_H-M   'P 1'
_cell_length_a   6.42306808
_cell_length_b   6.42306755
_cell_length_c   10.34122344
_cell_angle_alpha   90.00000000
_cell_angle_beta   90.00000000
_cell_angle_gamma   120.00000275
_symmetry_Int_Tables_number   1
_chemical_formula_structural   CaMg14Mn
_chemical_formula_sum   'Ca1 Mg14 Mn1'
_cell_volume   369.47712526
_cell_formula_units_Z   1
loop_
 _symmetry_equiv_pos_site_id
 _symmetry_equiv_pos_as_xyz
  1  'x, y, z'
loop_
 _atom_site_type_symbol
 _atom_site_label
 _atom_site_symmetry_multiplicity
 _atom_site_fract_x
 _atom_site_fract_y
 _atom_site_fract_z
 _atom_site_occupancy
  Ca  Ca0  1  0.16666700  0.33333300  0.12500000  1
  Mg  Mg0  1  0.17472944  0.83736422  0.12500000  1
  Mg  Mg1  1  0.16590844  0.83295372  0.62500000  1
  Mg  Mg2  1  0.66263578  0.32527056  0.12500000  1
  Mg  Mg3  1  0.66704628  0.33409156  0.62500000  1
  Mg  Mg4  1  0.66263578  0.83736422  0.12500000  1
  Mg  Mg5  1  0.66704628  0.83295372  0.62500000  1
  Mg  Mg6  1  0.33264154  0.16735846  0.38630892  1
  Mg  Mg7  1  0.33264154  0.16735846  0.86369108  1
  Mg  Mg8  1  0.33264154  0.66528408  0.38630892  1
  Mg  Mg9  1  0.33264154  0.66528408  0.86369108  1
  Mg  Mg10  1  0.83471592  0.16735846  0.38630892  1
  Mg  Mg11  1  0.83471592  0.16735846  0.86369108  1
  Mg  Mg12  1  0.83333300  0.66666700  0.37079162  1
  Mg  Mg13  1  0.83333300  0.66666700  0.87920838  1
  Mn  Mn0  1  0.16666700  0.33333300  0.62500000  1
loop_
_geom_bond_atom_site_label_1
_geom_bond_atom_site_label_2
_geom_bond_distance
_geom_bond_site_symmetry_2
Ca0 Mg0 3.211847 1_555
Ca0 Mg4 3.211847 1_555
Ca0 Mg4 3.211847 1_445
Ca0 Mg0 3.211847 1_545
Ca0 Mg2 3.211847 1_455
Ca0 Mg2 3.211847 1_555
Ca0 Mg7 3.272868 1_554
Ca0 Mg6 3.272868 1_555
Ca0 Mg9 3.272874 1_554
Ca0 Mg8 3.272874 1_555
Ca0 Mg11 3.272874 1_454
Ca0 Mg10 3.272874 1_455
Mg0 Mg2 3.133855 1_565
Mg0 Mg4 3.133856 1_555
Mg0 Mg12 3.172853 1_455
Mg0 Mg13 3.172853 1_454
Mg0 Mg9 3.267056 1_554
Mg0 Mg8 3.267056 1_555
Mg0 Mg7 3.267062 1_564
Mg0 Mg6 3.267062 1_565
Mg0 Mg2 3.289212 1_455
Mg0 Mg4 3.289212 1_455
Mg1 Mg8 3.090773 1_555
Mg1 Mg9 3.090773 1_555
Mg1 Mg6 3.090780 1_565
Mg1 Mg7 3.090780 1_565
Mg1 Mg3 3.204225 1_455
Mg1 Mg5 3.204226 1_455
Mg1 Mn0 3.211537 1_565
Mg1 Mn0 3.211537 1_555
Mg1 Mg12 3.214513 1_455
Mg1 Mg13 3.214513 1_455
Mg1 Mg3 3.218842 1_565
Mg1 Mg5 3.218842 1_555
Mg2 Mg4 3.133855 1_545
Mg2 Mg7 3.267062 1_554
Mg2 Mg6 3.267062 1_555
Mg2 Mg4 3.289212 1_555
Mg3 Mg6 3.090780 1_555
Mg3 Mg7 3.090780 1_555
Mg3 Mg5 3.204225 1_555
Mg3 Mn0 3.211537 1_655
Mg3 Mn0 3.211537 1_555
Mg3 Mg5 3.218842 1_545
Mg4 Mg9 3.267062 1_554
Mg4 Mg8 3.267062 1_555
Mg5 Mg8 3.090780 1_555
Mg5 Mg9 3.090780 1_555
Mg5 Mn0 3.211537 1_665
Mg5 Mn0 3.211537 1_555
Mg6 Mn0 3.082577 1_555
Mg6 Mg8 3.198210 1_555
Mg6 Mg8 3.224858 1_545
Mg7 Mn0 3.082577 1_555
Mg7 Mg9 3.198210 1_555
Mg7 Mg9 3.224858 1_545
Mg8 Mn0 3.082583 1_555
Mg9 Mn0 3.082583 1_555
Mg10 Mn0 3.082583 1_655
Mg10 Mg3 3.090773 1_555
Mg10 Mg5 3.090780 1_545
Mg10 Mg8 3.198210 1_655
Mg10 Mg6 3.198210 1_655
Mg10 Mg12 3.215549 1_545
Mg10 Mg12 3.215549 1_555
Mg10 Mg8 3.224858 1_545
Mg10 Mg6 3.224858 1_555
Mg10 Mg2 3.267056 1_555
Mg10 Mg4 3.267062 1_545
Mg11 Mn0 3.082583 1_655
Mg11 Mg3 3.090773 1_555
Mg11 Mg5 3.090780 1_545
Mg11 Mg9 3.198210 1_655
Mg11 Mg7 3.198210 1_655
Mg11 Mg13 3.215549 1_545
Mg11 Mg13 3.215549 1_555
Mg11 Mg9 3.224858 1_545
Mg11 Mg7 3.224858 1_555
Mg11 Mg2 3.267056 1_556
Mg11 Mg4 3.267062 1_546
Mg12 Mg4 3.172846 1_555
Mg12 Mg2 3.172853 1_555
Mg12 Mg5 3.214506 1_555
Mg12 Mg3 3.214513 1_555
Mg12 Mg6 3.215549 1_665
Mg12 Mg6 3.215549 1_555
Mg12 Mg8 3.215550 1_655
Mg12 Mg8 3.215550 1_555
Mg13 Mg4 3.172846 1_556
Mg13 Mg2 3.172853 1_556
Mg13 Mg5 3.214506 1_555
Mg13 Mg3 3.214513 1_555
Mg13 Mg7 3.215549 1_665
Mg13 Mg7 3.215549 1_555
Mg13 Mg9 3.215550 1_555
Mg13 Mg9 3.215550 1_655
