# generated using pymatgen
data_Ho2MgAg2(WO4)4
_symmetry_space_group_name_H-M   'P 1'
_cell_length_a   7.46856282
_cell_length_b   8.06841890
_cell_length_c   7.43717596
_cell_angle_alpha   95.01467005
_cell_angle_beta   111.79078316
_cell_angle_gamma   120.03784534
_symmetry_Int_Tables_number   1
_chemical_formula_structural   Ho2MgAg2(WO4)4
_chemical_formula_sum   'Ho2 Mg1 Ag2 W4 O16'
_cell_volume   338.79813758
_cell_formula_units_Z   1
loop_
 _symmetry_equiv_pos_site_id
 _symmetry_equiv_pos_as_xyz
  1  'x, y, z'
loop_
 _atom_site_type_symbol
 _atom_site_label
 _atom_site_symmetry_multiplicity
 _atom_site_fract_x
 _atom_site_fract_y
 _atom_site_fract_z
 _atom_site_occupancy
  Ho  Ho0  1  0.98546621  0.72741345  0.29791145  1
  Ho  Ho1  1  0.02958431  0.27345271  0.73864967  1
  Mg  Mg0  1  0.81699609  0.87942687  0.96713096  1
  Ag  Ag0  1  0.50699464  0.66808924  0.52294091  1
  Ag  Ag1  1  0.46152481  0.26796039  0.35349172  1
  W  W0  1  0.98883599  0.24769825  0.25770526  1
  W  W1  1  0.02370210  0.75294861  0.77264847  1
  W  W2  1  0.48220293  0.83818521  0.15265098  1
  W  W3  1  0.52499516  0.17444022  0.87200320  1
  O  O0  1  0.79257004  0.37254268  0.14093183  1
  O  O1  1  0.18013358  0.61991210  0.86862557  1
  O  O2  1  0.23399992  0.90784666  0.64998666  1
  O  O3  1  0.77280552  0.09385392  0.38759746  1
  O  O4  1  0.63846516  0.71558787  0.14635918  1
  O  O5  1  0.37323298  0.29568349  0.82957757  1
  O  O6  1  0.30410294  0.77134809  0.29438829  1
  O  O7  1  0.67603036  0.22719868  0.71900574  1
  O  O8  1  0.88403300  0.67526457  0.94234872  1
  O  O9  1  0.09645221  0.30569577  0.06378077  1
  O  O10  1  0.07945704  0.04451734  0.27063549  1
  O  O11  1  0.90554556  0.92811877  0.73923049  1
  O  O12  1  0.65680304  0.00269744  0.98947749  1
  O  O13  1  0.33675636  0.99854265  0.02376117  1
  O  O14  1  0.82046413  0.56902600  0.50462243  1
  O  O15  1  0.18347593  0.43272803  0.53025254  1
loop_
_geom_bond_atom_site_label_1
_geom_bond_atom_site_label_2
_geom_bond_distance
_geom_bond_site_symmetry_2
Ho0 O6 2.234494 1_655
Ho0 O2 2.332558 1_655
Ho0 O10 2.340590 1_665
Ho0 O4 2.358144 1_555
Ho0 O0 2.381992 1_555
Ho0 O14 2.385072 1_555
Ho0 O8 2.396405 1_554
Ho1 O9 2.242204 1_556
Ho1 O5 2.303484 1_555
Ho1 O3 2.330920 1_455
Ho1 O15 2.359378 1_555
Ho1 O1 2.363638 1_555
Ho1 O7 2.418793 1_455
Ho1 O11 2.458170 1_445
Mg0 O12 1.938630 1_565
Mg0 O8 1.959398 1_555
Mg0 O11 2.037899 1_555
Mg0 O10 2.070524 1_666
Mg0 O4 2.272681 1_556
Ag0 O15 2.229174 1_555
Ag0 O11 2.335041 1_555
Ag0 O6 2.340669 1_555
Ag1 O14 2.262020 1_555
Ag1 O10 2.263276 1_555
Ag1 O13 2.636441 1_545
Ag1 O7 2.741323 1_555
O0 W3 1.955628 1_554
O0 W0 2.145584 1_555
O1 W1 1.948576 1_555
O1 W2 2.118273 1_556
O2 W3 2.027597 1_565
O2 W1 2.039346 1_555
O3 W2 2.022632 1_545
O3 W0 2.106886 1_555
O4 W2 1.879053 1_555
O5 W3 1.799918 1_555
O6 W2 1.895665 1_555
O7 W3 1.818040 1_555
O8 W1 1.880163 1_655
O9 W0 1.883384 1_455
O10 W0 2.060295 1_455
O11 W1 1.996316 1_655
O12 W3 2.142730 1_555
O12 W2 2.158391 1_546
O12 W0 2.183297 1_556
O13 W1 2.086579 1_554
O13 W2 2.150271 1_555
O13 W3 2.173722 1_564
O14 W1 1.860381 1_655
O15 W0 1.887123 1_455
