# generated using pymatgen
data_SrSmNiO4
_symmetry_space_group_name_H-M   'P 1'
_cell_length_a   6.71814132
_cell_length_b   6.71814132
_cell_length_c   6.71814132
_cell_angle_alpha   147.04038427
_cell_angle_beta   147.04038427
_cell_angle_gamma   47.30399044
_symmetry_Int_Tables_number   1
_chemical_formula_structural   SrSmNiO4
_chemical_formula_sum   'Sr1 Sm1 Ni1 O4'
_cell_volume   89.40297153
_cell_formula_units_Z   1
loop_
 _symmetry_equiv_pos_site_id
 _symmetry_equiv_pos_as_xyz
  1  'x, y, z'
loop_
 _atom_site_type_symbol
 _atom_site_label
 _atom_site_symmetry_multiplicity
 _atom_site_fract_x
 _atom_site_fract_y
 _atom_site_fract_z
 _atom_site_occupancy
  Sr  Sr0  1  0.64189100  0.64189100  0.00000000  1
  Sm  Sm0  1  0.36253600  0.36253600  0.00000000  1
  Ni  Ni0  1  0.00312000  0.00312000  0.00000000  1
  O  O0  1  0.83732000  0.83732000  0.00000000  1
  O  O1  1  0.17485600  0.17485600  0.00000000  1
  O  O2  1  0.99013800  0.49013800  0.50000000  1
  O  O3  1  0.49013800  0.99013800  0.50000000  1
loop_
_geom_bond_atom_site_label_1
_geom_bond_atom_site_label_2
_geom_bond_distance
_geom_bond_site_symmetry_2
Ni0 O2 1.912471 1_455
Ni0 O3 1.912471 1_545
Ni0 O2 1.912471 1_444
Ni0 O3 1.912471 1_444
Ni0 O0 2.040604 1_445
Ni0 O1 2.113662 1_555
O0 Sr0 2.405266 1_555
O0 Sm0 2.712996 1_554
O0 Sm0 2.712996 1_666
O0 Sm0 2.712996 1_565
O0 Sm0 2.712996 1_655
O1 Sm0 2.309894 1_555
O1 Sr0 2.725554 1_455
O1 Sr0 2.725554 1_556
O1 Sr0 2.725554 1_444
O1 Sr0 2.725554 1_545
O2 Sm0 2.469497 1_656
O2 Sm0 2.469497 1_555
O2 Sr0 2.668406 1_656
O2 Sr0 2.668406 1_555
O3 Sm0 2.469497 1_566
O3 Sm0 2.469497 1_555
O3 Sr0 2.668406 1_566
O3 Sr0 2.668406 1_555
