# generated using pymatgen
data_USi2RuRh
_symmetry_space_group_name_H-M   'P 1'
_cell_length_a   5.71829256
_cell_length_b   5.71829256
_cell_length_c   5.71829256
_cell_angle_alpha   137.98666511
_cell_angle_beta   137.98666511
_cell_angle_gamma   60.92342218
_symmetry_Int_Tables_number   1
_chemical_formula_structural   USi2RuRh
_chemical_formula_sum   'U1 Si2 Ru1 Rh1'
_cell_volume   82.84606972
_cell_formula_units_Z   1
loop_
 _symmetry_equiv_pos_site_id
 _symmetry_equiv_pos_as_xyz
  1  'x, y, z'
loop_
 _atom_site_type_symbol
 _atom_site_label
 _atom_site_symmetry_multiplicity
 _atom_site_fract_x
 _atom_site_fract_y
 _atom_site_fract_z
 _atom_site_occupancy
  U  U0  1  0.00000000  0.00000000  0.00000000  1
  Si  Si0  1  0.62171200  0.62171200  0.00000000  1
  Si  Si1  1  0.37828800  0.37828800  0.00000000  1
  Ru  Ru0  1  0.75000000  0.25000000  0.50000000  1
  Rh  Rh0  1  0.25000000  0.75000000  0.50000000  1
loop_
_geom_bond_atom_site_label_1
_geom_bond_atom_site_label_2
_geom_bond_distance
_geom_bond_site_symmetry_2
Si0 Si1 2.399667 1_555
Si0 U0 3.137446 1_554
Si0 U0 3.137446 1_666
Si0 U0 3.137446 1_655
Si0 U0 3.137446 1_565
Si1 U0 3.137446 1_655
Si1 U0 3.137446 1_554
Si1 U0 3.137446 1_565
Si1 U0 3.137446 1_666
Ru0 Si1 2.408599 1_656
Ru0 Si1 2.408599 1_555
Ru0 Si0 2.408599 1_545
Ru0 Si0 2.408599 1_556
Ru0 U0 3.205575 1_655
Ru0 U0 3.205575 1_555
Ru0 U0 3.205575 1_656
Ru0 U0 3.205575 1_666
Rh0 Si1 2.408599 1_555
Rh0 Si1 2.408599 1_566
Rh0 Si0 2.408599 1_455
Rh0 Si0 2.408599 1_556
Rh0 U0 3.205575 1_555
Rh0 U0 3.205575 1_566
Rh0 U0 3.205575 1_565
Rh0 U0 3.205575 1_666
