# generated using pymatgen
data_Li9Mn2Co5O16
_symmetry_space_group_name_H-M   'P 1'
_cell_length_a   6.71069405
_cell_length_b   6.71069405
_cell_length_c   15.29289933
_cell_angle_alpha   86.96854503
_cell_angle_beta   86.96854503
_cell_angle_gamma   24.89261859
_symmetry_Int_Tables_number   1
_chemical_formula_structural   Li9Mn2Co5O16
_chemical_formula_sum   'Li9 Mn2 Co5 O16'
_cell_volume   289.45787428
_cell_formula_units_Z   1
loop_
 _symmetry_equiv_pos_site_id
 _symmetry_equiv_pos_as_xyz
  1  'x, y, z'
loop_
 _atom_site_type_symbol
 _atom_site_label
 _atom_site_symmetry_multiplicity
 _atom_site_fract_x
 _atom_site_fract_y
 _atom_site_fract_z
 _atom_site_occupancy
  Li  Li0  1  0.69276400  0.69276400  0.93360200  1
  Li  Li1  1  0.06394100  0.06394100  0.81215200  1
  Li  Li2  1  0.43308100  0.43308100  0.68990300  1
  Li  Li3  1  0.31533800  0.31533800  0.05920900  1
  Li  Li4  1  0.93477300  0.93477300  0.18601300  1
  Li  Li5  1  0.56439300  0.56439300  0.31323500  1
  Li  Li6  1  0.81249800  0.81249800  0.56451200  1
  Li  Li7  1  0.18614700  0.18614700  0.43942100  1
  Li  Li8  1  0.37248800  0.37248800  0.87572600  1
  Mn  Mn0  1  0.99160000  0.99160000  0.99667700  1
  Mn  Mn1  1  0.87349900  0.87349900  0.37570900  1
  Co  Co0  1  0.75932100  0.75932100  0.75588300  1
  Co  Co1  1  0.12965300  0.12965300  0.62824000  1
  Co  Co2  1  0.50536900  0.50536900  0.50207300  1
  Co  Co3  1  0.24687100  0.24687100  0.24770600  1
  Co  Co4  1  0.62397100  0.62397100  0.12253100  1
  O  O0  1  0.52910400  0.52910400  0.91678500  1
  O  O1  1  0.89212400  0.89212400  0.77542000  1
  O  O2  1  0.27574600  0.27574600  0.66155000  1
  O  O3  1  0.14291700  0.14291700  0.03799200  1
  O  O4  1  0.77798100  0.77798100  0.16281700  1
  O  O5  1  0.40299800  0.40299800  0.28888400  1
  O  O6  1  0.65556000  0.65556000  0.53914200  1
  O  O7  1  0.02913700  0.02913700  0.41790300  1
  O  O8  1  0.85648900  0.85648900  0.97159600  1
  O  O9  1  0.21885500  0.21885500  0.83704900  1
  O  O10  1  0.60268300  0.60268300  0.71523200  1
  O  O11  1  0.47096900  0.47096900  0.08432400  1
  O  O12  1  0.09834200  0.09834200  0.20767400  1
  O  O13  1  0.71708500  0.71708500  0.33541400  1
  O  O14  1  0.97774500  0.97774500  0.58505100  1
  O  O15  1  0.34655500  0.34655500  0.46057500  1
loop_
_geom_bond_atom_site_label_1
_geom_bond_atom_site_label_2
_geom_bond_distance
_geom_bond_site_symmetry_2
Li0 O9 2.081911 1_655
Li0 O9 2.081911 1_565
Li0 O0 2.174070 1_555
Li0 O3 2.225813 1_656
Li0 O3 2.225813 1_566
Li0 O8 2.253219 1_555
Li1 O9 2.085858 1_555
Li1 O10 2.113059 1_545
Li1 O10 2.113059 1_455
Li1 O0 2.186692 1_455
Li1 O0 2.186692 1_545
Li1 O1 2.350168 1_445
Li2 O1 2.003569 1_455
Li2 O1 2.003569 1_545
Li2 O2 2.129978 1_555
Li2 O14 2.214500 1_545
Li2 O14 2.214500 1_455
Li2 O10 2.276869 1_555
Li3 O8 2.024761 1_454
Li3 O8 2.024761 1_544
Li3 O11 2.095883 1_555
Li3 O4 2.181298 1_545
Li3 O4 2.181298 1_455
Li3 O3 2.300247 1_555
Li4 O4 2.104150 1_555
Li4 O11 2.157631 1_655
Li4 O11 2.157631 1_565
Li4 O5 2.160845 1_565
Li4 O5 2.160845 1_655
Li4 O12 2.186830 1_665
Li5 O13 2.047747 1_555
Li5 O5 2.167539 1_555
Li5 O7 2.188013 1_655
Li5 O7 2.188013 1_565
Li5 O12 2.195013 1_655
Li5 O12 2.195013 1_565
Li6 O2 2.109184 1_565
Li6 O2 2.109184 1_655
Li6 O6 2.113643 1_555
Li6 O15 2.177321 1_655
Li6 O15 2.177321 1_565
Li6 O14 2.205151 1_555
Li7 O7 2.101438 1_555
Li7 O6 2.124151 1_545
Li7 O6 2.124151 1_455
Li7 O15 2.144293 1_555
Li7 O13 2.171705 1_455
Li7 O13 2.171705 1_545
Li8 O8 2.062049 1_455
Li8 O8 2.062049 1_545
Li8 O1 2.113853 1_455
Li8 O1 2.113853 1_545
Li8 O9 2.129100 1_555
Li8 O0 2.178774 1_555
Mn0 O8 1.832014 1_555
Mn0 O0 1.939366 1_655
Mn0 O0 1.939366 1_565
Mn0 O11 1.980481 1_566
Mn0 O11 1.980481 1_656
Mn0 O3 2.113723 1_666
Mn1 O15 1.962475 1_655
Mn1 O15 1.962475 1_565
Mn1 O5 1.987153 1_565
Mn1 O5 1.987153 1_655
Mn1 O13 2.172299 1_555
Mn1 O7 2.172478 1_665
Co0 O1 1.781846 1_555
Co0 O9 1.960240 1_565
Co0 O9 1.960240 1_655
Co0 O2 2.045901 1_565
Co0 O2 2.045901 1_655
Co0 O10 2.176941 1_555
Co1 O10 1.983861 1_545
Co1 O10 1.983861 1_455
Co1 O6 2.003398 1_545
Co1 O6 2.003398 1_455
Co1 O2 2.007779 1_555
Co1 O14 2.131280 1_445
Co2 O14 1.945109 1_545
Co2 O14 1.945109 1_455
Co2 O7 1.949958 1_565
Co2 O7 1.949958 1_655
Co2 O6 2.077696 1_555
Co2 O15 2.208640 1_555
Co3 O4 1.971312 1_455
Co3 O4 1.971312 1_545
Co3 O13 1.996655 1_545
Co3 O13 1.996655 1_455
Co3 O12 2.072001 1_555
Co3 O5 2.173256 1_555
Co4 O3 1.946838 1_655
Co4 O3 1.946838 1_565
Co4 O12 1.962833 1_655
Co4 O12 1.962833 1_565
Co4 O11 2.118795 1_555
Co4 O4 2.142055 1_555
