# generated using pymatgen
data_YMg14W
_symmetry_space_group_name_H-M   'P 1'
_cell_length_a   6.43394199
_cell_length_b   6.25549800
_cell_length_c   10.19594223
_cell_angle_alpha   90.00000000
_cell_angle_beta   90.00000000
_cell_angle_gamma   119.08670991
_symmetry_Int_Tables_number   1
_chemical_formula_structural   YMg14W
_chemical_formula_sum   'Y1 Mg14 W1'
_cell_volume   358.60858770
_cell_formula_units_Z   1
loop_
 _symmetry_equiv_pos_site_id
 _symmetry_equiv_pos_as_xyz
  1  'x, y, z'
loop_
 _atom_site_type_symbol
 _atom_site_label
 _atom_site_symmetry_multiplicity
 _atom_site_fract_x
 _atom_site_fract_y
 _atom_site_fract_z
 _atom_site_occupancy
  Y  Y0  1  0.15849979  0.32924939  0.12500000  1
  Mg  Mg0  1  0.16847139  0.33423519  0.62500000  1
  Mg  Mg1  1  0.16213393  0.83106646  0.62500000  1
  Mg  Mg2  1  0.65647424  0.32232749  0.12500000  1
  Mg  Mg3  1  0.66352774  0.33497054  0.62500000  1
  Mg  Mg4  1  0.65647424  0.83414574  0.12500000  1
  Mg  Mg5  1  0.66352774  0.82855620  0.62500000  1
  Mg  Mg6  1  0.33303791  0.15620043  0.37215539  1
  Mg  Mg7  1  0.33303791  0.15620043  0.87784461  1
  Mg  Mg8  1  0.33303791  0.67683848  0.37215539  1
  Mg  Mg9  1  0.33303791  0.67683848  0.87784461  1
  Mg  Mg10  1  0.83395269  0.16697684  0.38369094  1
  Mg  Mg11  1  0.83395269  0.16697684  0.86630906  1
  Mg  Mg12  1  0.85065537  0.67532818  0.35957880  1
  Mg  Mg13  1  0.85065537  0.67532818  0.89042120  1
  W  W0  1  0.16952321  0.83476110  0.12500000  1
loop_
_geom_bond_atom_site_label_1
_geom_bond_atom_site_label_2
_geom_bond_distance
_geom_bond_site_symmetry_2
Mg0 Mg11 3.096933 1_455
Mg0 Mg10 3.096933 1_455
Mg0 Mg1 3.127952 1_545
Mg0 Mg1 3.127952 1_555
Mg0 Mg5 3.182930 1_555
Mg0 Mg3 3.182930 1_555
Mg0 Mg6 3.186521 1_555
Mg0 Mg7 3.186521 1_555
Mg0 Mg8 3.186528 1_555
Mg0 Mg9 3.186528 1_555
Mg0 Mg5 3.251017 1_445
Mg0 Mg3 3.251017 1_455
Mg1 Mg8 3.133262 1_555
Mg1 Mg9 3.133262 1_555
Mg1 Mg6 3.133268 1_565
Mg1 Mg7 3.133268 1_565
Mg1 Mg3 3.200399 1_455
Mg1 Mg5 3.200399 1_455
Mg1 Mg13 3.223455 1_455
Mg1 Mg12 3.223455 1_455
Mg1 Mg3 3.233601 1_565
Mg1 Mg5 3.233602 1_555
Mg2 Mg4 3.053820 1_545
Mg2 Mg7 3.107751 1_554
Mg2 Mg6 3.107751 1_555
Mg2 W0 3.134888 1_545
Mg2 Mg4 3.201678 1_555
Mg2 Y0 3.209177 1_655
Mg2 Y0 3.225210 1_555
Mg2 W0 3.299057 1_655
Mg3 Mg5 3.087624 1_555
Mg3 Mg5 3.167874 1_545
Mg3 Mg6 3.179001 1_555
Mg3 Mg7 3.179001 1_555
Mg4 Mg9 3.107751 1_554
Mg4 Mg8 3.107751 1_555
Mg4 W0 3.134888 1_555
Mg4 Y0 3.209177 1_665
Mg4 Y0 3.225210 1_555
Mg4 W0 3.299058 1_655
Mg5 Mg8 3.179001 1_555
Mg5 Mg9 3.179001 1_555
Mg6 W0 3.073033 1_545
Mg6 Y0 3.156754 1_555
Mg7 W0 3.073033 1_546
Mg7 Y0 3.156754 1_556
Mg8 W0 3.073027 1_555
Mg8 Y0 3.156760 1_555
Mg9 W0 3.073027 1_556
Mg9 Y0 3.156760 1_556
Mg10 Mg3 3.079035 1_555
Mg10 Mg5 3.079041 1_545
Mg10 Mg12 3.138801 1_555
Mg10 Mg12 3.138801 1_545
Mg10 Mg8 3.192796 1_545
Mg10 Mg6 3.192797 1_555
Mg10 Mg2 3.206886 1_555
Mg10 Mg4 3.206892 1_545
Mg10 Y0 3.207292 1_655
Mg10 Mg8 3.246522 1_655
Mg10 Mg6 3.246523 1_655
Mg11 Mg3 3.079035 1_555
Mg11 Mg5 3.079041 1_545
Mg11 Mg13 3.138801 1_555
Mg11 Mg13 3.138801 1_545
Mg11 Mg9 3.192796 1_545
Mg11 Mg7 3.192797 1_555
Mg11 Mg2 3.206886 1_556
Mg11 Mg4 3.206892 1_546
Mg11 Y0 3.207292 1_656
Mg11 Mg9 3.246522 1_655
Mg11 Mg7 3.246523 1_655
Mg12 W0 2.989107 1_655
Mg12 Mg4 3.078172 1_555
Mg12 Mg2 3.078179 1_555
Mg12 Mg5 3.288455 1_555
Mg12 Mg3 3.288461 1_555
Mg13 W0 2.989107 1_656
Mg13 Mg4 3.078172 1_556
Mg13 Mg2 3.078179 1_556
Mg13 Mg5 3.288455 1_555
Mg13 Mg3 3.288461 1_555
W0 Y0 3.128363 1_555
W0 Y0 3.128363 1_565
