# generated using pymatgen
data_LaAl3Ni2
_symmetry_space_group_name_H-M   'P 1'
_cell_length_a   6.40438164
_cell_length_b   6.40438164
_cell_length_c   5.09837818
_cell_angle_alpha   90.00000000
_cell_angle_beta   90.00000000
_cell_angle_gamma   105.30035051
_symmetry_Int_Tables_number   1
_chemical_formula_structural   LaAl3Ni2
_chemical_formula_sum   'La2 Al6 Ni4'
_cell_volume   201.70367626
_cell_formula_units_Z   2
loop_
 _symmetry_equiv_pos_site_id
 _symmetry_equiv_pos_as_xyz
  1  'x, y, z'
loop_
 _atom_site_type_symbol
 _atom_site_label
 _atom_site_symmetry_multiplicity
 _atom_site_fract_x
 _atom_site_fract_y
 _atom_site_fract_z
 _atom_site_occupancy
  La  La0  1  0.64985090  0.64985090  0.25000000  1
  La  La1  1  0.35014910  0.35014910  0.75000000  1
  Al  Al0  1  0.06111797  0.06111797  0.25000000  1
  Al  Al1  1  0.93888203  0.93888203  0.75000000  1
  Al  Al2  1  0.07771358  0.47567908  0.25000000  1
  Al  Al3  1  0.92228642  0.52432092  0.75000000  1
  Al  Al4  1  0.47567908  0.07771358  0.25000000  1
  Al  Al5  1  0.52432092  0.92228642  0.75000000  1
  Ni  Ni0  1  0.80057387  0.19942613  0.00000000  1
  Ni  Ni1  1  0.19942613  0.80057387  0.00000000  1
  Ni  Ni2  1  0.19942613  0.80057387  0.50000000  1
  Ni  Ni3  1  0.80057387  0.19942613  0.50000000  1
loop_
_geom_bond_atom_site_label_1
_geom_bond_atom_site_label_2
_geom_bond_distance
_geom_bond_site_symmetry_2
La0 La1 3.452865 1_554
La0 La1 3.452865 1_555
La0 Ni1 3.513886 1_555
La0 Ni3 3.513886 1_555
La0 Ni0 3.513886 1_555
La0 Ni2 3.513886 1_555
La0 Ni3 3.626503 1_565
La0 Ni0 3.626503 1_565
La0 Ni1 3.626503 1_655
La0 Ni2 3.626503 1_655
La1 Ni3 3.513886 1_555
La1 Ni0 3.513886 1_556
La1 Ni2 3.513886 1_555
La1 Ni1 3.513886 1_556
La1 Ni0 3.626503 1_456
La1 Ni1 3.626503 1_546
La1 Ni2 3.626503 1_545
La1 Ni3 3.626503 1_455
Al0 Ni1 2.444083 1_545
Al0 Ni2 2.444083 1_545
Al0 Ni3 2.444083 1_455
Al0 Ni0 2.444083 1_455
Al0 Al4 2.628961 1_555
Al0 Al2 2.628961 1_555
Al0 Al1 2.720409 1_445
Al0 Al1 2.720409 1_444
Al0 La0 3.195882 1_445
Al0 La1 3.397487 1_555
Al0 La1 3.397487 1_554
Al1 Ni3 2.444083 1_565
Al1 Ni2 2.444083 1_655
Al1 Ni1 2.444083 1_656
Al1 Ni0 2.444083 1_566
Al1 Al3 2.628961 1_555
Al1 Al5 2.628961 1_555
Al1 La1 3.195882 1_665
Al1 La0 3.397487 1_556
Al1 La0 3.397487 1_555
Al2 Ni1 2.388668 1_555
Al2 Ni2 2.388668 1_555
Al2 Ni3 2.499558 1_455
Al2 Ni0 2.499558 1_455
Al2 La0 3.219638 1_455
Al2 La1 3.305939 1_554
Al2 La1 3.305939 1_555
Al2 La0 3.537433 1_555
Al3 Ni0 2.388668 1_556
Al3 Ni3 2.388668 1_555
Al3 Ni2 2.499558 1_655
Al3 Ni1 2.499558 1_656
Al3 La1 3.219638 1_655
Al3 La0 3.305939 1_555
Al3 La0 3.305939 1_556
Al3 La1 3.537433 1_555
Al4 Ni0 2.388668 1_555
Al4 Ni3 2.388668 1_555
Al4 Ni1 2.499558 1_545
Al4 Ni2 2.499558 1_545
Al4 La0 3.219638 1_545
Al4 La1 3.305939 1_554
Al4 La1 3.305939 1_555
Al4 La0 3.537433 1_555
Al5 Ni2 2.388668 1_555
Al5 Ni1 2.388668 1_556
Al5 Ni0 2.499558 1_566
Al5 Ni3 2.499558 1_565
Al5 La1 3.219638 1_565
Al5 La0 3.305939 1_555
Al5 La0 3.305939 1_556
Al5 La1 3.537433 1_555
