# generated using pymatgen
data_PuAl3
_symmetry_space_group_name_H-M   'P 1'
_cell_length_a   4.26078837
_cell_length_b   4.25065826
_cell_length_c   4.25024541
_cell_angle_alpha   90.00000000
_cell_angle_beta   90.00000000
_cell_angle_gamma   90.00000000
_symmetry_Int_Tables_number   1
_chemical_formula_structural   PuAl3
_chemical_formula_sum   'Pu1 Al3'
_cell_volume   76.97685459
_cell_formula_units_Z   1
loop_
 _symmetry_equiv_pos_site_id
 _symmetry_equiv_pos_as_xyz
  1  'x, y, z'
loop_
 _atom_site_type_symbol
 _atom_site_label
 _atom_site_symmetry_multiplicity
 _atom_site_fract_x
 _atom_site_fract_y
 _atom_site_fract_z
 _atom_site_occupancy
  Pu  Pu0  1  0.00000000  -0.00000000  -0.00000000  1
  Al  Al0  1  0.00000000  0.50000000  0.50000000  1
  Al  Al1  1  0.50000000  0.50000000  -0.00000000  1
  Al  Al2  1  0.50000000  -0.00000000  0.50000000  1
loop_
_geom_bond_atom_site_label_1
_geom_bond_atom_site_label_2
_geom_bond_distance
_geom_bond_site_symmetry_2
Al0 Pu0 3.005523 1_555
Al0 Pu0 3.005523 1_565
Al0 Pu0 3.005523 1_556
Al0 Pu0 3.005523 1_566
Al0 Al1 3.009107 1_455
Al0 Al1 3.009107 1_456
Al0 Al1 3.009107 1_556
Al0 Al1 3.009107 1_555
Al0 Al2 3.009253 1_465
Al0 Al2 3.009253 1_555
Al0 Al2 3.009253 1_565
Al0 Al2 3.009253 1_455
Al1 Al2 3.005523 1_555
Al1 Al2 3.005523 1_565
Al1 Al2 3.005523 1_564
Al1 Al2 3.005523 1_554
Al1 Pu0 3.009253 1_565
Al1 Pu0 3.009253 1_655
Al1 Pu0 3.009253 1_555
Al1 Pu0 3.009253 1_665
Al2 Pu0 3.009107 1_556
Al2 Pu0 3.009107 1_655
Al2 Pu0 3.009107 1_555
Al2 Pu0 3.009107 1_656
