# generated using pymatgen
data_Li2SnO4
_symmetry_space_group_name_H-M   'P 1'
_cell_length_a   3.15172032
_cell_length_b   5.04061583
_cell_length_c   6.33671611
_cell_angle_alpha   115.39624488
_cell_angle_beta   117.87059021
_cell_angle_gamma   90.05056138
_symmetry_Int_Tables_number   1
_chemical_formula_structural   Li2SnO4
_chemical_formula_sum   'Li2 Sn1 O4'
_cell_volume   77.79416387
_cell_formula_units_Z   1
loop_
 _symmetry_equiv_pos_site_id
 _symmetry_equiv_pos_as_xyz
  1  'x, y, z'
loop_
 _atom_site_type_symbol
 _atom_site_label
 _atom_site_symmetry_multiplicity
 _atom_site_fract_x
 _atom_site_fract_y
 _atom_site_fract_z
 _atom_site_occupancy
  Li  Li0  1  0.82039600  0.71145200  0.33359500  1
  Li  Li1  1  0.17960400  0.28854800  0.66640500  1
  Sn  Sn0  1  0.00000000  0.00000000  0.00000000  1
  O  O0  1  0.24627800  0.92832700  0.72967900  1
  O  O1  1  0.75372200  0.07167300  0.27032100  1
  O  O2  1  0.12285100  0.48163600  0.12479000  1
  O  O3  1  0.87714900  0.51836400  0.87521000  1
loop_
_geom_bond_atom_site_label_1
_geom_bond_atom_site_label_2
_geom_bond_distance
_geom_bond_site_symmetry_2
Li0 O0 1.946885 1_655
Li0 O2 1.966670 1_655
Li0 O2 1.971550 1_555
Li0 O1 2.012007 1_565
Li1 O1 1.946885 1_455
Li1 O3 1.966670 1_455
Li1 O3 1.971550 1_555
Li1 O0 2.012007 1_545
O0 Sn0 2.090699 1_666
O0 Sn0 2.092839 1_566
O1 Sn0 2.090699 1_555
O1 Sn0 2.092839 1_655
O2 O3 1.497163 1_454
O2 Sn0 2.175903 1_555
O3 Sn0 2.175903 1_666
