# generated using pymatgen
data_Ba4Re2NiO12
_symmetry_space_group_name_H-M   'P 1'
_cell_length_a   5.84614212
_cell_length_b   5.84639900
_cell_length_c   10.11032340
_cell_angle_alpha   89.99835921
_cell_angle_beta   73.19248187
_cell_angle_gamma   119.99712050
_symmetry_Int_Tables_number   1
_chemical_formula_structural   Ba4Re2NiO12
_chemical_formula_sum   'Ba4 Re2 Ni1 O12'
_cell_volume   282.09665295
_cell_formula_units_Z   1
loop_
 _symmetry_equiv_pos_site_id
 _symmetry_equiv_pos_as_xyz
  1  'x, y, z'
loop_
 _atom_site_type_symbol
 _atom_site_label
 _atom_site_symmetry_multiplicity
 _atom_site_fract_x
 _atom_site_fract_y
 _atom_site_fract_z
 _atom_site_occupancy
  Ba  Ba0  1  0.57051700  0.28526400  0.14428800  1
  Ba  Ba1  1  0.42489300  0.71243600  0.86263200  1
  Ba  Ba2  1  0.24815700  0.12407600  0.62781200  1
  Ba  Ba3  1  0.74287200  0.87147300  0.38574000  1
  Re  Re0  1  0.99742800  0.99870400  0.00377900  1
  Re  Re1  1  0.01237700  0.50619400  0.48146700  1
  Ni  Ni0  1  0.81885900  0.40942100  0.77170900  1
  O  O0  1  0.77257500  0.61193200  0.61552400  1
  O  O1  1  0.22381400  0.61190800  0.61553800  1
  O  O2  1  0.77260200  0.16068500  0.61553700  1
  O  O3  1  0.23424600  0.38103900  0.38482200  1
  O  O4  1  0.76200800  0.38099700  0.38482500  1
  O  O5  1  0.23423800  0.85320000  0.38481800  1
  O  O6  1  0.07876200  0.81116600  0.11005200  1
  O  O7  1  0.62230700  0.81116600  0.11007300  1
  O  O8  1  0.07872500  0.26754900  0.11005800  1
  O  O9  1  0.92329700  0.19648400  0.88011300  1
  O  O10  1  0.39303100  0.19651000  0.88009200  1
  O  O11  1  0.92329300  0.72679500  0.88012300  1
loop_
_geom_bond_atom_site_label_1
_geom_bond_atom_site_label_2
_geom_bond_distance
_geom_bond_site_symmetry_2
Ba0 O3 2.903140 1_555
Ba0 O4 2.903220 1_555
Ba0 O5 2.903233 1_545
Ba0 O8 2.944609 1_655
Ba0 O6 2.944830 1_655
Ba0 O7 2.944936 1_545
Ba0 O7 2.945037 1_555
Ba0 O8 2.945216 1_555
Ba0 O6 2.945358 1_545
Ba0 O11 3.088826 1_554
Ba0 O9 3.088920 1_554
Ba0 O10 3.089539 1_554
Ba1 O11 2.929415 1_555
Ba1 O9 2.929595 1_565
Ba1 O10 2.929699 1_555
Ba1 O10 2.929743 1_565
Ba1 O11 2.929794 1_455
Ba1 O9 2.929982 1_455
Ba1 O6 2.987639 1_556
Ba1 O8 2.987823 1_556
Ba1 O7 2.987876 1_556
Ba1 O1 2.995983 1_555
Ba1 O0 2.995994 1_555
Ba1 O2 2.996173 1_565
Ba2 O10 2.879780 1_555
Ba2 O9 2.880139 1_455
Ba2 O11 2.880295 1_445
Ba2 O4 2.921595 1_555
Ba2 O3 2.921721 1_555
Ba2 O5 2.921841 1_545
Ba2 O2 2.930023 1_455
Ba2 O2 2.930057 1_555
Ba2 O1 2.930163 1_545
Ba2 O0 2.930167 1_555
Ba2 O1 2.930178 1_555
Ba2 O0 2.930275 1_445
Ba3 O0 2.868166 1_555
Ba3 O2 2.868258 1_565
Ba3 O1 2.868269 1_555
Ba3 O5 2.924358 1_555
Ba3 O4 2.924467 1_565
Ba3 O3 2.924707 1_555
Ba3 O5 2.924838 1_655
Ba3 O3 2.924844 1_665
Ba3 O4 2.924967 1_555
Ba3 O8 3.045397 1_665
Ba3 O6 3.045708 1_655
Ba3 O7 3.045747 1_555
Ni0 O9 2.066580 1_555
Ni0 O10 2.066731 1_555
Ni0 O11 2.066745 1_555
Ni0 O2 2.129503 1_555
Ni0 O1 2.129544 1_655
Ni0 O0 2.129741 1_555
O0 Re1 1.988036 1_655
O1 Re1 1.988069 1_555
O2 Re1 1.988049 1_655
O3 Re1 1.840826 1_555
O4 Re1 1.840841 1_655
O5 Re1 1.840846 1_555
O6 Re0 1.843737 1_455
O7 Re0 1.843658 1_555
O8 Re0 1.843752 1_445
O9 Re0 1.975465 1_546
O10 Re0 1.975599 1_446
O11 Re0 1.975476 1_556
