# generated using pymatgen
data_Ba2Tl2Zn3(SnO3)4
_symmetry_space_group_name_H-M   'P 1'
_cell_length_a   25.70721155
_cell_length_b   25.70721155
_cell_length_c   25.70721155
_cell_angle_alpha   171.21481724
_cell_angle_beta   171.21481724
_cell_angle_gamma   12.43635634
_symmetry_Int_Tables_number   1
_chemical_formula_structural   Ba2Tl2Zn3(SnO3)4
_chemical_formula_sum   'Ba2 Tl2 Zn3 Sn4 O12'
_cell_volume   396.28494047
_cell_formula_units_Z   1
loop_
 _symmetry_equiv_pos_site_id
 _symmetry_equiv_pos_as_xyz
  1  'x, y, z'
loop_
 _atom_site_type_symbol
 _atom_site_label
 _atom_site_symmetry_multiplicity
 _atom_site_fract_x
 _atom_site_fract_y
 _atom_site_fract_z
 _atom_site_occupancy
  Ba  Ba0  1  0.17070100  0.17070100  0.00000000  1
  Ba  Ba1  1  0.82929900  0.82929900  0.00000000  1
  Tl  Tl0  1  0.72755900  0.72755900  0.00000000  1
  Tl  Tl1  1  0.27244100  0.27244100  0.00000000  1
  Zn  Zn0  1  0.07329400  0.07329400  0.00000000  1
  Zn  Zn1  1  0.92670600  0.92670600  0.00000000  1
  Zn  Zn2  1  0.00000000  0.00000000  0.00000000  1
  Sn  Sn0  1  0.54110900  0.54110900  0.00000000  1
  Sn  Sn1  1  0.38029200  0.38029200  0.00000000  1
  Sn  Sn2  1  0.61970800  0.61970800  0.00000000  1
  Sn  Sn3  1  0.45889100  0.45889100  0.00000000  1
  O  O0  1  0.86589300  0.36589300  0.50000000  1
  O  O1  1  0.06297400  0.56297400  0.50000000  1
  O  O2  1  0.23201600  0.23201600  0.00000000  1
  O  O3  1  0.43702600  0.93702600  0.50000000  1
  O  O4  1  0.76798400  0.76798400  0.00000000  1
  O  O5  1  0.63410700  0.13410700  0.50000000  1
  O  O6  1  0.13410700  0.63410700  0.50000000  1
  O  O7  1  0.31196400  0.31196400  0.00000000  1
  O  O8  1  0.36589300  0.86589300  0.50000000  1
  O  O9  1  0.56297400  0.06297400  0.50000000  1
  O  O10  1  0.93702600  0.43702600  0.50000000  1
  O  O11  1  0.68803600  0.68803600  0.00000000  1
loop_
_geom_bond_atom_site_label_1
_geom_bond_atom_site_label_2
_geom_bond_distance
_geom_bond_site_symmetry_2
Ba0 O6 2.715695 1_544
Ba0 O5 2.715695 1_555
Ba0 O5 2.715695 1_454
Ba0 O6 2.715695 1_555
Ba0 O11 2.922040 1_455
Ba0 O11 2.922040 1_556
Ba0 O11 2.922040 1_444
Ba0 O11 2.922040 1_545
Ba0 O2 3.133928 1_555
Ba1 O0 2.715695 1_565
Ba1 O8 2.715695 1_655
Ba1 O0 2.715695 1_554
Ba1 O8 2.715695 1_554
Ba1 O7 2.922040 1_554
Ba1 O7 2.922040 1_666
Ba1 O7 2.922040 1_565
Ba1 O7 2.922040 1_655
Ba1 O4 3.133928 1_555
O0 Sn1 2.101970 1_656
O0 Sn1 2.101970 1_555
O1 Zn0 2.038349 1_555
O1 Zn0 2.038349 1_566
O1 Sn0 2.263975 1_455
O1 Sn0 2.263975 1_556
O2 Tl1 2.066200 1_555
O3 Zn1 2.038349 1_455
O3 Zn1 2.038349 1_556
O3 Sn3 2.263975 1_566
O3 Sn3 2.263975 1_555
O4 Tl0 2.066200 1_555
O5 Sn2 2.101970 1_556
O5 Sn2 2.101970 1_545
O6 Sn2 2.101970 1_556
O6 Sn2 2.101970 1_455
O7 Tl1 2.020097 1_555
O8 Sn1 2.101970 1_566
O8 Sn1 2.101970 1_555
O9 Zn0 2.038349 1_555
O9 Zn0 2.038349 1_656
O9 Sn0 2.263975 1_556
O9 Sn0 2.263975 1_545
O10 Zn1 2.038349 1_556
O10 Zn1 2.038349 1_545
O10 Sn3 2.263975 1_656
O10 Sn3 2.263975 1_555
O11 Tl0 2.020097 1_555
