# generated using pymatgen
data_Rb5In(MoO4)4
_symmetry_space_group_name_H-M   'P 1'
_cell_length_a   7.99757691
_cell_length_b   11.07458216
_cell_length_c   11.41412336
_cell_angle_alpha   66.22643751
_cell_angle_beta   90.00000000
_cell_angle_gamma   90.00000000
_symmetry_Int_Tables_number   1
_chemical_formula_structural   Rb5In(MoO4)4
_chemical_formula_sum   'Rb10 In2 Mo8 O32'
_cell_volume   925.16376651
_cell_formula_units_Z   2
loop_
 _symmetry_equiv_pos_site_id
 _symmetry_equiv_pos_as_xyz
  1  'x, y, z'
loop_
 _atom_site_type_symbol
 _atom_site_label
 _atom_site_symmetry_multiplicity
 _atom_site_fract_x
 _atom_site_fract_y
 _atom_site_fract_z
 _atom_site_occupancy
  Rb  Rb0  1  0.34530536  0.84460269  0.10427292  1
  Rb  Rb1  1  0.65469464  0.15539731  0.89572708  1
  Rb  Rb2  1  0.34530536  0.65539731  0.89572708  1
  Rb  Rb3  1  0.65469464  0.34460269  0.10427292  1
  Rb  Rb4  1  0.86860510  0.35567802  0.59079227  1
  Rb  Rb5  1  0.13139490  0.64432198  0.40920773  1
  Rb  Rb6  1  0.86860510  0.14432198  0.40920773  1
  Rb  Rb7  1  0.13139490  0.85567802  0.59079227  1
  Rb  Rb8  1  0.61087700  0.75000000  0.50000000  1
  Rb  Rb9  1  0.38912300  0.25000000  0.50000000  1
  In  In0  1  0.91498195  0.75000000  0.00000000  1
  In  In1  1  0.08501805  0.25000000  0.00000000  1
  Mo  Mo0  1  0.65935403  0.55780186  0.28272299  1
  Mo  Mo1  1  0.34064597  0.44219814  0.71727701  1
  Mo  Mo2  1  0.65935403  0.94219814  0.71727701  1
  Mo  Mo3  1  0.34064597  0.05780186  0.28272299  1
  Mo  Mo4  1  0.85249862  0.94328166  0.19624694  1
  Mo  Mo5  1  0.14750138  0.05671834  0.80375306  1
  Mo  Mo6  1  0.85249862  0.55671834  0.80375306  1
  Mo  Mo7  1  0.14750138  0.44328166  0.19624694  1
  O  O0  1  0.88900128  0.11837164  0.11409795  1
  O  O1  1  0.11099872  0.88162836  0.88590205  1
  O  O2  1  0.88900128  0.38162836  0.88590205  1
  O  O3  1  0.11099872  0.61837164  0.11409795  1
  O  O4  1  0.72232971  0.62262330  0.11408395  1
  O  O5  1  0.27767029  0.37737670  0.88591605  1
  O  O6  1  0.72232971  0.87737670  0.88591605  1
  O  O7  1  0.27767029  0.12262330  0.11408395  1
  O  O8  1  0.90792886  0.89398300  0.35632018  1
  O  O9  1  0.09207114  0.10601700  0.64367982  1
  O  O10  1  0.90792886  0.60601700  0.64367982  1
  O  O11  1  0.09207114  0.39398300  0.35632018  1
  O  O12  1  0.45603562  0.60529700  0.30337967  1
  O  O13  1  0.54396438  0.39470300  0.69662033  1
  O  O14  1  0.45603562  0.89470300  0.69662033  1
  O  O15  1  0.54396438  0.10529700  0.30337967  1
  O  O16  1  0.97040726  0.85180855  0.12542649  1
  O  O17  1  0.02959274  0.14819145  0.87457351  1
  O  O18  1  0.97040726  0.64819145  0.87457351  1
  O  O19  1  0.02959274  0.35180855  0.12542649  1
  O  O20  1  0.64178860  0.91669433  0.17986341  1
  O  O21  1  0.35821140  0.08330567  0.82013659  1
  O  O22  1  0.64178860  0.58330567  0.82013659  1
  O  O23  1  0.35821140  0.41669433  0.17986341  1
  O  O24  1  0.32383603  0.88495808  0.34817167  1
  O  O25  1  0.67616397  0.11504192  0.65182833  1
  O  O26  1  0.32383603  0.61504192  0.65182833  1
  O  O27  1  0.67616397  0.38495808  0.34817167  1
  O  O28  1  0.79330394  0.61387888  0.37034069  1
  O  O29  1  0.20669606  0.38612112  0.62965931  1
  O  O30  1  0.79330394  0.88612112  0.62965931  1
  O  O31  1  0.20669606  0.11387888  0.37034069  1
loop_
_geom_bond_atom_site_label_1
_geom_bond_atom_site_label_2
_geom_bond_distance
_geom_bond_site_symmetry_2
In0 O4 2.139739 1_555
In0 O6 2.139739 1_554
In0 O3 2.178985 1_655
In0 O1 2.178985 1_654
In0 O18 2.195151 1_554
In0 O16 2.195151 1_555
In1 O5 2.139739 1_554
In1 O7 2.139739 1_555
In1 O2 2.178985 1_454
In1 O0 2.178985 1_455
In1 O19 2.195151 1_555
In1 O17 2.195151 1_554
Mo0 O28 1.741898 1_555
Mo0 O12 1.753938 1_555
Mo0 O27 1.757071 1_555
Mo0 O4 1.833042 1_555
Mo1 O29 1.741898 1_555
Mo1 O13 1.753938 1_555
Mo1 O26 1.757071 1_555
Mo1 O5 1.833042 1_555
Mo2 O30 1.741898 1_555
Mo2 O14 1.753938 1_555
Mo2 O25 1.757071 1_565
Mo2 O6 1.833042 1_555
Mo3 O31 1.741898 1_555
Mo3 O15 1.753938 1_555
Mo3 O24 1.757071 1_545
Mo3 O7 1.833042 1_555
Mo4 O20 1.733741 1_555
Mo4 O8 1.740294 1_555
Mo4 O16 1.796969 1_555
Mo4 O0 1.805117 1_565
Mo5 O21 1.733741 1_555
Mo5 O9 1.740294 1_555
Mo5 O17 1.796969 1_555
Mo5 O1 1.805117 1_545
Mo6 O22 1.733741 1_555
Mo6 O10 1.740294 1_555
Mo6 O18 1.796969 1_555
Mo6 O2 1.805117 1_555
Mo7 O23 1.733741 1_555
Mo7 O11 1.740294 1_555
Mo7 O19 1.796969 1_555
Mo7 O3 1.805117 1_555
O0 Rb1 3.011342 1_554
O0 Rb3 3.094284 1_555
O0 Rb6 3.497990 1_555
O1 Rb0 3.011342 1_556
O1 Rb2 3.094284 1_555
O1 Rb7 3.497990 1_555
O2 Rb3 3.011342 1_556
O2 Rb1 3.094284 1_555
O2 Rb4 3.497990 1_555
O3 Rb2 3.011342 1_554
O3 Rb0 3.094284 1_555
O3 Rb5 3.497990 1_555
O4 Rb3 3.172244 1_555
O5 Rb2 3.172244 1_555
O6 Rb1 3.172244 1_565
O7 Rb0 3.172244 1_545
O8 Rb8 2.961029 1_555
O8 Rb6 3.082021 1_565
O8 Rb7 3.101805 1_655
O8 Rb5 3.139649 1_655
O9 Rb9 2.961029 1_555
O9 Rb7 3.082021 1_545
O9 Rb6 3.101805 1_455
O9 Rb4 3.139649 1_455
O10 Rb8 2.961029 1_555
O10 Rb4 3.082021 1_555
O10 Rb5 3.101805 1_655
O10 Rb7 3.139649 1_655
O11 Rb9 2.961029 1_555
O11 Rb5 3.082021 1_555
O11 Rb4 3.101805 1_455
O11 Rb6 3.139649 1_455
O12 Rb0 2.848986 1_555
O12 Rb5 2.967789 1_555
O13 Rb1 2.848986 1_555
O13 Rb4 2.967789 1_555
O14 Rb2 2.848986 1_555
O14 Rb7 2.967789 1_555
O15 Rb3 2.848986 1_555
O15 Rb6 2.967789 1_555
O16 Rb0 3.011621 1_655
O16 Rb5 3.380640 1_655
O17 Rb1 3.011621 1_455
O17 Rb4 3.380640 1_455
O18 Rb2 3.011621 1_655
O18 Rb7 3.380640 1_655
O19 Rb3 3.011621 1_455
O19 Rb6 3.380640 1_455
O20 Rb0 2.749465 1_555
O20 Rb1 3.256497 1_564
O21 Rb1 2.749465 1_555
O21 Rb0 3.256497 1_546
O22 Rb2 2.749465 1_555
O22 Rb3 3.256497 1_556
O23 Rb3 2.749465 1_555
O23 Rb2 3.256497 1_554
O24 Rb8 2.901505 1_555
O24 Rb5 2.908457 1_555
O24 Rb0 2.997061 1_555
O24 Rb7 3.069022 1_555
O25 Rb9 2.901505 1_555
O25 Rb4 2.908457 1_555
O25 Rb1 2.997061 1_555
O25 Rb6 3.069022 1_555
O26 Rb8 2.901505 1_555
O26 Rb7 2.908457 1_555
O26 Rb2 2.997061 1_555
O26 Rb5 3.069022 1_555
O27 Rb9 2.901505 1_555
O27 Rb6 2.908457 1_555
O27 Rb3 2.997061 1_555
O27 Rb4 3.069022 1_555
O28 Rb5 2.782479 1_655
O28 Rb8 2.896565 1_555
O28 Rb4 3.011598 1_555
O29 Rb4 2.782479 1_455
O29 Rb9 2.896565 1_555
O29 Rb5 3.011598 1_555
O30 Rb7 2.782479 1_655
O30 Rb8 2.896565 1_555
O30 Rb6 3.011598 1_565
O31 Rb6 2.782479 1_455
O31 Rb9 2.896565 1_555
O31 Rb7 3.011598 1_545
