# generated using pymatgen
data_Na2H5RuN5O12
_symmetry_space_group_name_H-M   'P 1'
_cell_length_a   10.01873053
_cell_length_b   10.01873053
_cell_length_c   7.80224477
_cell_angle_alpha   71.36062229
_cell_angle_beta   71.36062229
_cell_angle_gamma   95.32890714
_symmetry_Int_Tables_number   1
_chemical_formula_structural   Na2H5RuN5O12
_chemical_formula_sum   'Na4 H10 Ru2 N10 O24'
_cell_volume   686.36235291
_cell_formula_units_Z   2
loop_
 _symmetry_equiv_pos_site_id
 _symmetry_equiv_pos_as_xyz
  1  'x, y, z'
loop_
 _atom_site_type_symbol
 _atom_site_label
 _atom_site_symmetry_multiplicity
 _atom_site_fract_x
 _atom_site_fract_y
 _atom_site_fract_z
 _atom_site_occupancy
  Na  Na0  1  0.50000000  0.00000000  0.00000000  1
  Na  Na1  1  0.00000000  0.50000000  0.00000000  1
  Na  Na2  1  0.13040200  0.86959800  0.50000000  1
  Na  Na3  1  0.86959800  0.13040200  0.50000000  1
  H  H0  1  0.07793000  0.07793000  0.70529200  1
  H  H1  1  0.92207000  0.92207000  0.29470800  1
  H  H2  1  0.18773600  0.78569500  0.19227100  1
  H  H3  1  0.78569500  0.18773600  0.19227100  1
  H  H4  1  0.81226400  0.21430500  0.80772900  1
  H  H5  1  0.21430500  0.81226400  0.80772900  1
  H  H6  1  0.77234200  0.24564200  0.23389400  1
  H  H7  1  0.24564200  0.77234200  0.23389400  1
  H  H8  1  0.22765800  0.75435800  0.76610600  1
  H  H9  1  0.75435800  0.22765800  0.76610600  1
  Ru  Ru0  1  0.27046300  0.27046300  0.42126100  1
  Ru  Ru1  1  0.72953700  0.72953700  0.57873900  1
  N  N0  1  0.41993900  0.41993900  0.31059200  1
  N  N1  1  0.58006100  0.58006100  0.68940800  1
  N  N2  1  0.36113500  0.16031700  0.62540800  1
  N  N3  1  0.16031700  0.36113500  0.62540800  1
  N  N4  1  0.63886500  0.83968400  0.37459200  1
  N  N5  1  0.83968300  0.63886500  0.37459200  1
  N  N6  1  0.36195100  0.17142500  0.22531700  1
  N  N7  1  0.17142500  0.36195100  0.22531700  1
  N  N8  1  0.63804900  0.82857500  0.77468300  1
  N  N9  1  0.82857500  0.63804900  0.77468300  1
  O  O0  1  0.10296400  0.10296400  0.56520700  1
  O  O1  1  0.89703600  0.89703600  0.43479300  1
  O  O2  1  0.48391600  0.48391600  0.74192700  1
  O  O3  1  0.51608400  0.51608400  0.25807300  1
  O  O4  1  0.30435800  0.06925800  0.78858500  1
  O  O5  1  0.06925800  0.30435800  0.78858500  1
  O  O6  1  0.69564200  0.93074200  0.21141500  1
  O  O7  1  0.93074200  0.69564200  0.21141500  1
  O  O8  1  0.51369900  0.20701000  0.54841400  1
  O  O9  1  0.20701000  0.51369900  0.54841400  1
  O  O10  1  0.48630100  0.79299000  0.45158600  1
  O  O11  1  0.79299000  0.48630100  0.45158600  1
  O  O12  1  0.28340400  0.07315700  0.21275700  1
  O  O13  1  0.07315700  0.28340400  0.21275700  1
  O  O14  1  0.71659600  0.92684300  0.78724300  1
  O  O15  1  0.92684300  0.71659600  0.78724300  1
  O  O16  1  0.49183800  0.21392900  0.11902300  1
  O  O17  1  0.21392900  0.49183800  0.11902300  1
  O  O18  1  0.50816200  0.78607100  0.88097700  1
  O  O19  1  0.78607100  0.50816200  0.88097700  1
  O  O20  1  0.14098200  0.58107800  0.66521700  1
  O  O21  1  0.58107800  0.14098200  0.66521700  1
  O  O22  1  0.85901800  0.41892200  0.33478300  1
  O  O23  1  0.41892200  0.85901800  0.33478300  1
loop_
_geom_bond_atom_site_label_1
_geom_bond_atom_site_label_2
_geom_bond_distance
_geom_bond_site_symmetry_2
Na0 O23 2.355837 1_545
Na0 O21 2.355837 1_554
Na0 O16 2.592121 1_555
Na0 O18 2.592121 1_544
Na0 O12 2.602358 1_555
Na0 O14 2.602358 1_544
Na0 O6 2.938027 1_545
Na0 O4 2.938027 1_554
Na1 O22 2.355837 1_455
Na1 O20 2.355837 1_554
Na1 O17 2.592121 1_555
Na1 O19 2.592121 1_454
Na1 O13 2.602358 1_555
Na1 O15 2.602358 1_454
Na1 O7 2.938027 1_455
Na1 O5 2.938027 1_554
Na2 O15 2.415230 1_455
Na2 O12 2.415230 1_565
Na2 O1 2.567319 1_455
Na2 O0 2.567319 1_565
Na2 O23 2.791222 1_555
Na2 O20 2.791222 1_555
Na3 O14 2.415230 1_545
Na3 O13 2.415230 1_655
Na3 O1 2.567319 1_545
Na3 O0 2.567319 1_655
Na3 O22 2.791222 1_555
Na3 O21 2.791222 1_555
H0 O0 0.978912 1_555
H1 O1 0.978912 1_555
H2 H7 0.752998 1_555
H3 H6 0.752998 1_555
H4 H9 0.752998 1_555
H5 H8 0.752998 1_555
H6 Na3 2.561829 1_555
H7 Na2 2.561829 1_555
H8 Na2 2.561829 1_555
H9 Na3 2.561829 1_555
N0 O3 1.160456 1_555
N0 Ru0 1.777985 1_555
N1 O2 1.160456 1_555
N1 Ru1 1.777985 1_555
N2 O4 1.214492 1_555
N2 O8 1.420081 1_555
N2 Ru0 2.137188 1_555
N3 O5 1.214492 1_555
N3 O9 1.420081 1_555
N3 Ru0 2.137188 1_555
N4 O6 1.214488 1_555
N4 O10 1.420081 1_555
N4 Ru1 2.137191 1_555
N5 O7 1.214492 1_555
N5 O11 1.420081 1_555
N5 Ru1 2.137188 1_555
N6 O16 1.242572 1_555
N6 O12 1.251087 1_555
N6 Ru0 2.098753 1_555
N7 O17 1.242572 1_555
N7 O13 1.251087 1_555
N7 Ru0 2.098753 1_555
N8 O18 1.242572 1_555
N8 O14 1.251087 1_555
N8 Ru1 2.098753 1_555
N9 O19 1.242572 1_555
N9 O15 1.251087 1_555
N9 Ru1 2.098753 1_555
O0 Ru0 1.990228 1_555
O1 Ru1 1.990228 1_555
O10 O23 1.347088 1_555
O11 O22 1.347088 1_555
O20 O9 1.347088 1_555
O21 O8 1.347088 1_555
