# generated using pymatgen
data_Rb3NaNb2O3F10
_symmetry_space_group_name_H-M   'P 1'
_cell_length_a   6.11326900
_cell_length_b   11.11948893
_cell_length_c   11.56566848
_cell_angle_alpha   74.72494292
_cell_angle_beta   74.67552157
_cell_angle_gamma   105.95544661
_symmetry_Int_Tables_number   1
_chemical_formula_structural   Rb3NaNb2O3F10
_chemical_formula_sum   'Rb6 Na2 Nb4 O6 F20'
_cell_volume   679.45532384
_cell_formula_units_Z   2
loop_
 _symmetry_equiv_pos_site_id
 _symmetry_equiv_pos_as_xyz
  1  'x, y, z'
loop_
 _atom_site_type_symbol
 _atom_site_label
 _atom_site_symmetry_multiplicity
 _atom_site_fract_x
 _atom_site_fract_y
 _atom_site_fract_z
 _atom_site_occupancy
  Rb  Rb0  1  0.88890100  0.67028200  0.88246700  1
  Rb  Rb1  1  0.10108600  0.32971800  0.11753300  1
  Rb  Rb2  1  0.33809400  0.79067400  0.12406400  1
  Rb  Rb3  1  0.67148500  0.20932600  0.87593600  1
  Rb  Rb4  1  0.26620700  0.14073800  0.59316300  1
  Rb  Rb5  1  0.71863200  0.85926200  0.40683700  1
  Na  Na0  1  0.98811900  0.00000000  0.00000000  1
  Na  Na1  1  0.00106800  0.50000000  0.50000000  1
  Nb  Nb0  1  0.64910500  0.55864000  0.26293600  1
  Nb  Nb1  1  0.35340100  0.44136000  0.73706400  1
  Nb  Nb2  1  0.56090700  0.91095800  0.74941300  1
  Nb  Nb3  1  0.39936200  0.08904200  0.25058700  1
  O  O0  1  0.51323200  0.38919800  0.36877400  1
  O  O1  1  0.49280800  0.61080200  0.63122600  1
  O  O2  1  0.98257600  0.34197000  0.38175300  1
  O  O3  1  0.02235800  0.65803000  0.61824700  1
  O  O4  1  0.38215900  0.88107500  0.65417700  1
  O  O5  1  0.15526100  0.11892500  0.34582300  1
  F  F0  1  0.42275900  0.72789800  0.88142800  1
  F  F1  1  0.57628900  0.27210200  0.11857200  1
  F  F2  1  0.40101600  0.62125600  0.35375900  1
  F  F3  1  0.86760900  0.62154700  0.35416500  1
  F  F4  1  0.60022800  0.37845300  0.64583500  1
  F  F5  1  0.13352000  0.37874400  0.64624100  1
  F  F6  1  0.76660700  0.95206900  0.87242900  1
  F  F7  1  0.31446800  0.95273100  0.87344500  1
  F  F8  1  0.23518200  0.04726900  0.12655500  1
  F  F9  1  0.68696700  0.04793100  0.12757100  1
  F  F10  1  0.47739100  0.54826200  0.14004800  1
  F  F11  1  0.93198500  0.54866000  0.13896300  1
  F  F12  1  0.52228900  0.45134000  0.86103700  1
  F  F13  1  0.06917700  0.45173800  0.85995200  1
  F  F14  1  0.72433700  0.10804700  0.65754500  1
  F  F15  1  0.27383500  0.89195300  0.34245500  1
  F  F16  1  0.81769600  0.77191900  0.14083000  1
  F  F17  1  0.18660700  0.22808100  0.85917000  1
  F  F18  1  0.84698900  0.88268700  0.65338600  1
  F  F19  1  0.61768800  0.11731300  0.34661400  1
loop_
_geom_bond_atom_site_label_1
_geom_bond_atom_site_label_2
_geom_bond_distance
_geom_bond_site_symmetry_2
Na1 O3 2.491922 1_555
Na1 O2 2.491922 1_455
Nb0 O0 1.767811 1_555
Nb1 O1 1.767811 1_555
Nb2 O4 1.774015 1_555
Nb3 O5 1.774015 1_555
O0 Rb4 2.916376 1_555
O1 Rb5 2.916376 1_555
O2 Rb1 2.997541 1_655
O3 Rb0 2.997541 1_455
O4 Rb4 3.106942 1_565
O4 Rb5 3.162731 1_555
O4 Rb0 3.194221 1_455
O5 Rb5 3.106942 1_445
O5 Rb4 3.162731 1_555
O5 Rb1 3.194221 1_555
F0 Nb2 1.980808 1_555
F0 Rb2 3.015495 1_556
F0 Rb0 3.090123 1_555
F0 Rb0 3.144437 1_455
F1 Nb3 1.980808 1_555
F1 Rb3 3.015495 1_554
F1 Rb1 3.090123 1_655
F1 Rb1 3.144437 1_555
F2 Nb0 2.003047 1_555
F2 Na1 2.335980 1_555
F2 Rb2 3.009286 1_555
F2 Rb5 3.132392 1_555
F3 Nb0 2.001757 1_555
F3 Na1 2.338729 1_655
F3 Rb2 3.038897 1_655
F3 Rb5 3.172714 1_555
F4 Nb1 2.001761 1_555
F4 Na1 2.338725 1_655
F4 Rb3 3.038897 1_555
F4 Rb4 3.172716 1_555
F5 Nb1 2.003042 1_555
F5 Na1 2.335984 1_555
F5 Rb3 3.009287 1_455
F5 Rb4 3.132389 1_555
F6 Nb2 2.187890 1_555
F6 Na0 2.316975 1_566
F6 Rb2 3.030947 1_556
F6 Rb3 3.079907 1_565
F6 Rb0 3.395913 1_555
F7 Nb2 2.033902 1_555
F7 Na0 2.416048 1_466
F7 Rb2 3.046639 1_556
F7 Rb3 3.091607 1_565
F7 Rb0 3.440181 1_455
F8 Nb3 2.033902 1_555
F8 Na0 2.416048 1_455
F8 Rb3 3.046642 1_554
F8 Rb2 3.091604 1_545
F8 Rb1 3.440180 1_555
F9 Nb3 2.187890 1_555
F9 Na0 2.316975 1_555
F9 Rb3 3.030944 1_554
F9 Rb2 3.079910 1_545
F9 Rb1 3.395914 1_655
F10 Nb0 1.985883 1_555
F10 Rb1 2.973531 1_555
F10 Rb0 3.012785 1_554
F10 Rb2 3.017886 1_555
F11 Nb0 1.984305 1_555
F11 Rb1 2.936518 1_655
F11 Rb0 3.032100 1_554
F11 Rb2 3.048212 1_655
F12 Nb1 1.984309 1_555
F12 Rb0 2.936514 1_555
F12 Rb1 3.032103 1_556
F12 Rb3 3.048211 1_555
F13 Nb1 1.985883 1_555
F13 Rb0 2.973530 1_455
F13 Rb1 3.012785 1_556
F13 Rb3 3.017883 1_455
F14 Nb2 1.984474 1_545
F14 Rb3 3.003330 1_555
F14 Rb4 3.090545 1_655
F14 Rb4 3.170134 1_555
F15 Nb3 1.984474 1_565
F15 Rb2 3.003330 1_555
F15 Rb5 3.090545 1_555
F15 Rb5 3.170135 1_455
F16 Nb0 2.191590 1_555
F16 Na0 2.375761 1_565
F16 Rb2 3.048393 1_555
F16 Rb2 3.080558 1_655
F16 Rb0 3.429000 1_554
F17 Nb1 2.191590 1_555
F17 Na0 2.375761 1_456
F17 Rb3 3.048387 1_455
F17 Rb3 3.080564 1_555
F17 Rb1 3.429000 1_556
F18 Nb2 1.962263 1_555
F18 Rb4 3.040887 1_665
F18 Rb0 3.171430 1_555
F18 Rb5 3.205670 1_555
F19 Nb3 1.962263 1_555
F19 Rb5 3.040887 1_545
F19 Rb1 3.171430 1_655
F19 Rb4 3.205670 1_555
