# generated using pymatgen
data_FeCu2GeSe4
_symmetry_space_group_name_H-M   'P 1'
_cell_length_a   6.85820284
_cell_length_b   6.85820284
_cell_length_c   6.85820284
_cell_angle_alpha   131.40179561
_cell_angle_beta   131.40179561
_cell_angle_gamma   71.17548259
_symmetry_Int_Tables_number   1
_chemical_formula_structural   FeCu2GeSe4
_chemical_formula_sum   'Fe1 Cu2 Ge1 Se4'
_cell_volume   177.68128559
_cell_formula_units_Z   1
loop_
 _symmetry_equiv_pos_site_id
 _symmetry_equiv_pos_as_xyz
  1  'x, y, z'
loop_
 _atom_site_type_symbol
 _atom_site_label
 _atom_site_symmetry_multiplicity
 _atom_site_fract_x
 _atom_site_fract_y
 _atom_site_fract_z
 _atom_site_occupancy
  Fe  Fe0  1  0.00000000  0.00000000  0.00000000  1
  Cu  Cu0  1  0.75000000  0.25000000  0.50000000  1
  Cu  Cu1  1  0.25000000  0.75000000  0.50000000  1
  Ge  Ge0  1  0.50000000  0.50000000  0.00000000  1
  Se  Se0  1  0.37375200  0.88287500  0.00000000  1
  Se  Se1  1  0.88287500  0.37375200  0.00000000  1
  Se  Se2  1  0.62624800  0.62624800  0.50912300  1
  Se  Se3  1  0.11712500  0.11712500  0.49087700  1
loop_
_geom_bond_atom_site_label_1
_geom_bond_atom_site_label_2
_geom_bond_distance
_geom_bond_site_symmetry_2
Fe0 Se0 2.426278 1_545
Fe0 Se2 2.426278 1_444
Fe0 Se1 2.426278 1_455
Fe0 Se3 2.426278 1_555
Cu0 Se3 2.413712 1_655
Cu0 Se0 2.413712 1_545
Cu0 Se2 2.413712 1_555
Cu0 Se1 2.413712 1_556
Cu1 Se3 2.413712 1_565
Cu1 Se2 2.413712 1_555
Cu1 Se0 2.413712 1_556
Cu1 Se1 2.413712 1_455
Ge0 Se3 2.485451 1_554
Ge0 Se1 2.485451 1_555
Ge0 Se0 2.485451 1_555
Ge0 Se2 2.485451 1_555
