# generated using pymatgen
data_Ce(CoP3)16
_symmetry_space_group_name_H-M   'P 1'
_cell_length_a   6.68481354
_cell_length_b   6.68481354
_cell_length_c   21.70241218
_cell_angle_alpha   89.99391577
_cell_angle_beta   89.99391577
_cell_angle_gamma   70.55651785
_symmetry_Int_Tables_number   1
_chemical_formula_structural   Ce(CoP3)16
_chemical_formula_sum   'Ce1 Co16 P48'
_cell_volume   914.50191136
_cell_formula_units_Z   1
loop_
 _symmetry_equiv_pos_site_id
 _symmetry_equiv_pos_as_xyz
  1  'x, y, z'
loop_
 _atom_site_type_symbol
 _atom_site_label
 _atom_site_symmetry_multiplicity
 _atom_site_fract_x
 _atom_site_fract_y
 _atom_site_fract_z
 _atom_site_occupancy
  Ce  Ce0  1  0.00000000  0.00000000  0.00000000  1
  Co  Co0  1  0.24874100  0.75107700  0.87546600  1
  Co  Co1  1  0.74994100  0.24988000  0.62501000  1
  Co  Co2  1  0.25005900  0.75012000  0.37499000  1
  Co  Co3  1  0.75125900  0.24892300  0.12453400  1
  Co  Co4  1  0.00000000  0.50000000  0.00000000  1
  Co  Co5  1  0.50047700  0.00003600  0.74995700  1
  Co  Co6  1  0.00000000  0.50000000  0.50000000  1
  Co  Co7  1  0.49952300  0.99996400  0.25004300  1
  Co  Co8  1  0.50000000  0.00000000  0.00000000  1
  Co  Co9  1  0.00003600  0.50047700  0.74995700  1
  Co  Co10  1  0.50000000  0.00000000  0.50000000  1
  Co  Co11  1  0.99996400  0.49952300  0.25004300  1
  Co  Co12  1  0.75107700  0.24874100  0.87546600  1
  Co  Co13  1  0.24988000  0.74994100  0.62501000  1
  Co  Co14  1  0.75012000  0.25005900  0.37499000  1
  Co  Co15  1  0.24892300  0.75125900  0.12453400  1
  P  P0  1  0.52628400  0.81972100  0.83647900  1
  P  P1  1  0.02806600  0.32040200  0.58721200  1
  P  P2  1  0.52843600  0.82017700  0.33726100  1
  P  P3  1  0.02966500  0.32809900  0.08953300  1
  P  P4  1  0.97033500  0.67190100  0.91046700  1
  P  P5  1  0.47156400  0.17982300  0.66273900  1
  P  P6  1  0.97193400  0.67959800  0.41278800  1
  P  P7  1  0.47371600  0.18027900  0.16352100  1
  P  P8  1  0.81972100  0.52628400  0.83647900  1
  P  P9  1  0.32040200  0.02806600  0.58721200  1
  P  P10  1  0.82017700  0.52843600  0.33726100  1
  P  P11  1  0.32809900  0.02966500  0.08953300  1
  P  P12  1  0.67190100  0.97033500  0.91046700  1
  P  P13  1  0.17982300  0.47156400  0.66273900  1
  P  P14  1  0.67959800  0.97193400  0.41278800  1
  P  P15  1  0.18027900  0.47371600  0.16352100  1
  P  P16  1  0.42969600  0.72135000  0.96233500  1
  P  P17  1  0.92207800  0.22444500  0.71347000  1
  P  P18  1  0.42191900  0.72432100  0.46344200  1
  P  P19  1  0.92293500  0.22308000  0.21350800  1
  P  P20  1  0.07706500  0.77692000  0.78649200  1
  P  P21  1  0.57808100  0.27567900  0.53655800  1
  P  P22  1  0.07792200  0.77555500  0.28653000  1
  P  P23  1  0.57030400  0.27865000  0.03766500  1
  P  P24  1  0.77692000  0.07706500  0.78649200  1
  P  P25  1  0.27567900  0.57808100  0.53655800  1
  P  P26  1  0.77555500  0.07792200  0.28653000  1
  P  P27  1  0.27865000  0.57030400  0.03766500  1
  P  P28  1  0.72135000  0.42969600  0.96233500  1
  P  P29  1  0.22444500  0.92207800  0.71347000  1
  P  P30  1  0.72432100  0.42191900  0.46344200  1
  P  P31  1  0.22308000  0.92293500  0.21350800  1
  P  P32  1  0.25381700  0.25381700  0.79944000  1
  P  P33  1  0.75261800  0.75261800  0.55065600  1
  P  P34  1  0.25228300  0.25228300  0.30081100  1
  P  P35  1  0.74771200  0.74771200  0.05227600  1
  P  P36  1  0.25228800  0.25228800  0.94772400  1
  P  P37  1  0.74771700  0.74771700  0.69918900  1
  P  P38  1  0.24738200  0.24738200  0.44934400  1
  P  P39  1  0.74618300  0.74618300  0.20056000  1
  P  P40  1  0.39980500  0.39980500  0.87332300  1
  P  P41  1  0.89872000  0.89872000  0.62378100  1
  P  P42  1  0.39863500  0.39863500  0.37373500  1
  P  P43  1  0.89615400  0.89615400  0.12707100  1
  P  P44  1  0.10384600  0.10384600  0.87292900  1
  P  P45  1  0.60136500  0.60136500  0.62626500  1
  P  P46  1  0.10128000  0.10128000  0.37621900  1
  P  P47  1  0.60019500  0.60019500  0.12667700  1
loop_
_geom_bond_atom_site_label_1
_geom_bond_atom_site_label_2
_geom_bond_distance
_geom_bond_site_symmetry_2
Ce0 P28 2.970940 1_454
Ce0 P16 2.970940 1_544
Ce0 P27 2.970940 1_545
Ce0 P23 2.970940 1_455
Ce0 P36 2.977995 1_554
Ce0 P35 2.977995 1_445
Ce0 P43 2.981440 1_445
Ce0 P44 2.981440 1_554
Ce0 P11 2.985954 1_555
Ce0 P3 2.985954 1_555
Ce0 P12 2.985954 1_444
Ce0 P4 2.985954 1_444
Co0 P16 2.212995 1_555
Co0 P0 2.221502 1_555
Co0 P20 2.223479 1_555
Co0 P40 2.226486 1_555
Co0 P4 2.230741 1_455
Co0 P44 2.231951 1_565
Co1 P21 2.214281 1_555
Co1 P17 2.215578 1_555
Co1 P5 2.220925 1_555
Co1 P1 2.221472 1_655
Co1 P41 2.223966 1_545
Co1 P45 2.225814 1_555
Co2 P18 2.214281 1_555
Co2 P22 2.215578 1_555
Co2 P2 2.220925 1_555
Co2 P6 2.221472 1_455
Co2 P46 2.223966 1_565
Co2 P42 2.225814 1_555
Co3 P23 2.212995 1_555
Co3 P7 2.221502 1_555
Co3 P19 2.223479 1_555
Co3 P47 2.226486 1_555
Co3 P3 2.230741 1_655
Co3 P43 2.231951 1_545
Co4 P27 2.223063 1_555
Co4 P28 2.223063 1_454
Co4 P3 2.232326 1_555
Co4 P4 2.232326 1_454
Co4 P35 2.239238 1_455
Co4 P36 2.239238 1_554
Co5 P0 2.206745 1_545
Co5 P32 2.210838 1_555
Co5 P5 2.215756 1_555
Co5 P37 2.221393 1_545
Co5 P24 2.223226 1_555
Co5 P29 2.223523 1_545
Co6 P6 2.215531 1_455
Co6 P1 2.215531 1_555
Co6 P33 2.221679 1_455
Co6 P38 2.221679 1_555
Co6 P25 2.222351 1_555
Co6 P30 2.222351 1_455
Co7 P7 2.206745 1_565
Co7 P39 2.210838 1_555
Co7 P2 2.215756 1_555
Co7 P34 2.221393 1_565
Co7 P31 2.223226 1_555
Co7 P26 2.223523 1_565
Co8 P23 2.223063 1_555
Co8 P16 2.223063 1_544
Co8 P11 2.232326 1_555
Co8 P12 2.232326 1_544
Co8 P35 2.239238 1_545
Co8 P36 2.239238 1_554
Co9 P8 2.206745 1_455
Co9 P32 2.210838 1_555
Co9 P13 2.215756 1_555
Co9 P37 2.221393 1_455
Co9 P20 2.223226 1_555
Co9 P17 2.223523 1_455
Co10 P14 2.215531 1_545
Co10 P9 2.215531 1_555
Co10 P33 2.221679 1_545
Co10 P38 2.221679 1_555
Co10 P21 2.222351 1_555
Co10 P18 2.222351 1_545
Co11 P15 2.206745 1_655
Co11 P39 2.210838 1_555
Co11 P10 2.215756 1_555
Co11 P34 2.221393 1_655
Co11 P19 2.223226 1_555
Co11 P22 2.223523 1_655
Co12 P28 2.212995 1_555
Co12 P8 2.221502 1_555
Co12 P24 2.223479 1_555
Co12 P40 2.226486 1_555
Co12 P12 2.230741 1_545
Co12 P44 2.231951 1_655
Co13 P25 2.214281 1_555
Co13 P29 2.215578 1_555
Co13 P13 2.220925 1_555
Co13 P9 2.221472 1_565
Co13 P41 2.223966 1_455
Co13 P45 2.225814 1_555
Co14 P30 2.214281 1_555
Co14 P26 2.215578 1_555
Co14 P10 2.220925 1_555
Co14 P14 2.221472 1_545
Co14 P46 2.223966 1_655
Co14 P42 2.225814 1_555
Co15 P27 2.212995 1_555
Co15 P15 2.221502 1_555
Co15 P31 2.223479 1_555
Co15 P47 2.226486 1_555
Co15 P11 2.230741 1_565
Co15 P43 2.231951 1_455
P0 P8 2.265803 1_555
P0 P12 2.278759 1_555
P1 P9 2.257302 1_555
P1 P13 2.328114 1_555
P4 P8 2.278759 1_555
P5 P9 2.328114 1_555
P10 P2 2.252707 1_555
P10 P6 2.328114 1_555
P11 P7 2.278759 1_555
P11 P3 2.304388 1_555
P12 P4 2.304388 1_555
P13 P5 2.252707 1_555
P14 P6 2.257302 1_555
P14 P2 2.328114 1_555
P15 P7 2.265803 1_555
P15 P3 2.278759 1_555
P16 P28 2.252036 1_555
P16 P27 2.321596 1_556
P17 P24 2.249326 1_555
P17 P29 2.334757 1_645
P18 P25 2.250523 1_555
P18 P30 2.335027 1_555
P19 P26 2.249326 1_555
P19 P31 2.317600 1_645
P20 P29 2.249326 1_555
P20 P24 2.317600 1_465
P21 P30 2.250523 1_555
P21 P25 2.335027 1_555
P22 P31 2.249326 1_555
P22 P26 2.334757 1_465
P23 P27 2.252036 1_555
P23 P28 2.321596 1_554
P32 P40 2.260643 1_555
P32 P44 2.285222 1_555
P33 P41 2.249885 1_555
P33 P45 2.327465 1_555
P34 P42 2.248748 1_555
P34 P46 2.322455 1_555
P35 P47 2.280089 1_555
P35 P43 2.293570 1_555
P36 P40 2.280089 1_555
P36 P44 2.293570 1_555
P37 P45 2.248748 1_555
P37 P41 2.322455 1_555
P38 P46 2.249885 1_555
P38 P42 2.327465 1_555
P39 P47 2.260643 1_555
P39 P43 2.285222 1_555
