# generated using pymatgen
data_KCO3
_symmetry_space_group_name_H-M   'P 1'
_cell_length_a   10.31926500
_cell_length_b   4.49373600
_cell_length_c   7.77697004
_cell_angle_alpha   63.69828552
_cell_angle_beta   90.00000000
_cell_angle_gamma   90.00000000
_symmetry_Int_Tables_number   1
_chemical_formula_structural   KCO3
_chemical_formula_sum   'K4 C4 O12'
_cell_volume   323.29876323
_cell_formula_units_Z   4
loop_
 _symmetry_equiv_pos_site_id
 _symmetry_equiv_pos_as_xyz
  1  'x, y, z'
loop_
 _atom_site_type_symbol
 _atom_site_label
 _atom_site_symmetry_multiplicity
 _atom_site_fract_x
 _atom_site_fract_y
 _atom_site_fract_z
 _atom_site_occupancy
  K  K0  1  0.81447100  0.57214200  0.08527500  1
  K  K1  1  0.18552900  0.42785800  0.91472500  1
  K  K2  1  0.31447100  0.42785800  0.41472500  1
  K  K3  1  0.68552900  0.57214200  0.58527500  1
  C  C0  1  0.54849500  0.17415000  0.21230300  1
  C  C1  1  0.45150500  0.82585000  0.78769700  1
  C  C2  1  0.04849500  0.82585000  0.28769700  1
  C  C3  1  0.95150500  0.17415000  0.71230300  1
  O  O0  1  0.58168600  0.29023100  0.33032500  1
  O  O1  1  0.41831400  0.70976900  0.66967500  1
  O  O2  1  0.08168600  0.70976900  0.16967500  1
  O  O3  1  0.91831400  0.29023100  0.83032500  1
  O  O4  1  0.42878700  0.14613900  0.17887200  1
  O  O5  1  0.57121300  0.85386100  0.82112800  1
  O  O6  1  0.92878700  0.85386100  0.32112800  1
  O  O7  1  0.07121300  0.14613900  0.67887200  1
  O  O8  1  0.63808600  0.07954400  0.13285800  1
  O  O9  1  0.36191400  0.92045600  0.86714200  1
  O  O10  1  0.13808600  0.92045600  0.36714200  1
  O  O11  1  0.86191400  0.07954400  0.63285800  1
loop_
_geom_bond_atom_site_label_1
_geom_bond_atom_site_label_2
_geom_bond_distance
_geom_bond_site_symmetry_2
K0 O8 2.761169 1_555
K0 O6 2.901112 1_555
K0 O2 2.962544 1_655
K0 O0 2.977860 1_555
K0 O3 2.985022 1_554
K0 O8 3.065399 1_565
K0 O5 3.133581 1_554
K0 O3 3.134082 1_564
K0 O6 3.150835 1_545
K0 O11 3.272393 1_564
K1 O9 2.761169 1_555
K1 O7 2.901112 1_555
K1 O3 2.962544 1_455
K1 O1 2.977860 1_555
K1 O2 2.985022 1_556
K1 O9 3.065399 1_545
K1 O4 3.133581 1_556
K1 O2 3.134082 1_546
K1 O7 3.150835 1_565
K1 O10 3.272393 1_546
K2 O10 2.761169 1_555
K2 O4 2.901112 1_555
K2 O0 2.962544 1_555
K2 O2 2.977860 1_555
K2 O1 2.985022 1_555
K2 O10 3.065399 1_545
K2 O7 3.133581 1_555
K2 O1 3.134082 1_545
K2 O4 3.150835 1_565
K2 O9 3.272393 1_545
K3 O11 2.761169 1_555
K3 O5 2.901112 1_555
K3 O1 2.962544 1_555
K3 O3 2.977860 1_555
K3 O0 2.985022 1_555
K3 O11 3.065399 1_565
K3 O6 3.133581 1_555
K3 O0 3.134082 1_565
K3 O5 3.150835 1_545
K3 O8 3.272393 1_565
C0 O4 1.280002 1_555
C0 O8 1.284510 1_555
C0 O0 1.286923 1_555
C1 O5 1.280002 1_555
C1 O9 1.284510 1_555
C1 O1 1.286923 1_555
C2 O6 1.280002 1_455
C2 O10 1.284510 1_555
C2 O2 1.286923 1_555
C3 O7 1.280002 1_655
C3 O11 1.284510 1_555
C3 O3 1.286923 1_555
