# generated using pymatgen
data_BiI3O11
_symmetry_space_group_name_H-M   'P 1'
_cell_length_a   7.14541800
_cell_length_b   7.50148277
_cell_length_c   10.84892940
_cell_angle_alpha   94.66919298
_cell_angle_beta   106.39848864
_cell_angle_gamma   109.75046712
_symmetry_Int_Tables_number   1
_chemical_formula_structural   BiI3O11
_chemical_formula_sum   'Bi2 I6 O22'
_cell_volume   514.87859349
_cell_formula_units_Z   2
loop_
 _symmetry_equiv_pos_site_id
 _symmetry_equiv_pos_as_xyz
  1  'x, y, z'
loop_
 _atom_site_type_symbol
 _atom_site_label
 _atom_site_symmetry_multiplicity
 _atom_site_fract_x
 _atom_site_fract_y
 _atom_site_fract_z
 _atom_site_occupancy
  Bi  Bi0  1  0.39971100  0.58699300  0.21471500  1
  Bi  Bi1  1  0.60028900  0.41300700  0.78528500  1
  I  I0  1  0.76708800  0.72467900  0.54579000  1
  I  I1  1  0.23291200  0.27532100  0.45421000  1
  I  I2  1  0.77863600  0.36188900  0.17429200  1
  I  I3  1  0.22136400  0.63811100  0.82570800  1
  I  I4  1  0.81534300  0.86052900  0.07416600  1
  I  I5  1  0.18465700  0.13947100  0.92583400  1
  O  O0  1  0.59793300  0.80074100  0.41352500  1
  O  O1  1  0.40206700  0.19925900  0.58647500  1
  O  O2  1  0.57000500  0.62717300  0.62814300  1
  O  O3  1  0.42999500  0.37282700  0.37185700  1
  O  O4  1  0.93543700  0.95764900  0.64987400  1
  O  O5  1  0.06456300  0.04235100  0.35012600  1
  O  O6  1  0.73256000  0.55947500  0.26115700  1
  O  O7  1  0.26744000  0.44052500  0.73884300  1
  O  O8  1  0.06249800  0.45240600  0.27124400  1
  O  O9  1  0.93750200  0.54759400  0.72875600  1
  O  O10  1  0.79697900  0.47592800  0.03234000  1
  O  O11  1  0.20302100  0.52407200  0.96766000  1
  O  O12  1  0.88245200  0.10828100  0.04312400  1
  O  O13  1  0.11754800  0.89171900  0.95687600  1
  O  O14  1  0.63697200  0.73118300  0.90741200  1
  O  O15  1  0.36302800  0.26881700  0.09258800  1
  O  O16  1  0.60446200  0.85656800  0.14182300  1
  O  O17  1  0.39553800  0.14343200  0.85817700  1
  O  O18  1  0.29170500  0.87552300  0.22956400  1
  O  O19  1  0.70829500  0.12447700  0.77043600  1
  O  O20  1  0.76102600  0.21793600  0.40039500  1
  O  O21  1  0.23897400  0.78206400  0.59960500  1
loop_
_geom_bond_atom_site_label_1
_geom_bond_atom_site_label_2
_geom_bond_distance
_geom_bond_site_symmetry_2
Bi0 O0 2.325157 1_555
Bi0 O6 2.371736 1_555
Bi0 O16 2.401925 1_555
Bi0 O3 2.450889 1_555
Bi0 O15 2.527291 1_555
Bi0 O18 2.539397 1_555
Bi0 O8 2.547997 1_555
Bi0 O11 2.569182 1_554
Bi1 O1 2.325157 1_555
Bi1 O7 2.371736 1_555
Bi1 O17 2.401925 1_555
Bi1 O2 2.450889 1_555
Bi1 O14 2.527291 1_555
Bi1 O19 2.539397 1_555
Bi1 O9 2.547997 1_555
Bi1 O10 2.569182 1_556
I0 O4 1.807552 1_555
I0 O2 1.853924 1_555
I0 O0 1.861616 1_555
I1 O5 1.807552 1_555
I1 O3 1.853924 1_555
I1 O1 1.861616 1_555
I2 O10 1.836669 1_555
I2 O8 1.851960 1_655
I2 O6 1.863052 1_555
I2 O15 2.665312 1_555
I2 O20 2.777178 1_555
I3 O11 1.836669 1_555
I3 O9 1.851960 1_455
I3 O7 1.863052 1_555
I3 O14 2.665312 1_555
I3 O21 2.777178 1_555
I4 O12 1.840700 1_565
I4 O16 1.846072 1_555
I4 O14 1.848042 1_554
I5 O13 1.840700 1_545
I5 O17 1.846072 1_555
I5 O15 1.848042 1_556
