# generated using pymatgen
data_SmGdS2
_symmetry_space_group_name_H-M   'P 1'
_cell_length_a   6.89954100
_cell_length_b   6.89954100
_cell_length_c   6.89954188
_cell_angle_alpha   33.49687703
_cell_angle_beta   33.49687703
_cell_angle_gamma   33.49687232
_symmetry_Int_Tables_number   1
_chemical_formula_structural   SmGdS2
_chemical_formula_sum   'Sm1 Gd1 S2'
_cell_volume   89.09798564
_cell_formula_units_Z   1
loop_
 _symmetry_equiv_pos_site_id
 _symmetry_equiv_pos_as_xyz
  1  'x, y, z'
loop_
 _atom_site_type_symbol
 _atom_site_label
 _atom_site_symmetry_multiplicity
 _atom_site_fract_x
 _atom_site_fract_y
 _atom_site_fract_z
 _atom_site_occupancy
  Sm  Sm0  1  0.50000000  0.50000000  0.50000000  1
  Gd  Gd0  1  -0.00000000  -0.00000000  0.00000000  1
  S  S0  1  0.25178996  0.25178996  0.25178996  1
  S  S1  1  0.74821004  0.74821004  0.74821004  1
loop_
_geom_bond_atom_site_label_1
_geom_bond_atom_site_label_2
_geom_bond_distance
_geom_bond_site_symmetry_2
Gd0 S1 2.793594 1_454
Gd0 S1 2.793594 1_544
Gd0 S0 2.793594 1_545
Gd0 S0 2.793594 1_455
Gd0 S1 2.793595 1_445
Gd0 S0 2.793595 1_554
S0 Sm0 2.833989 1_455
S0 Sm0 2.833989 1_545
S0 Sm0 2.833990 1_554
S1 Sm0 2.833989 1_565
S1 Sm0 2.833989 1_655
S1 Sm0 2.833990 1_556
