# generated using pymatgen
data_MgMn8O13F3
_symmetry_space_group_name_H-M   'P 1'
_cell_length_a   6.91172333
_cell_length_b   5.67849818
_cell_length_c   6.91166501
_cell_angle_alpha   87.63905114
_cell_angle_beta   94.02681889
_cell_angle_gamma   88.96636799
_symmetry_Int_Tables_number   1
_chemical_formula_structural   MgMn8O13F3
_chemical_formula_sum   'Mg1 Mn8 O13 F3'
_cell_volume   270.31144389
_cell_formula_units_Z   1
loop_
 _symmetry_equiv_pos_site_id
 _symmetry_equiv_pos_as_xyz
  1  'x, y, z'
loop_
 _atom_site_type_symbol
 _atom_site_label
 _atom_site_symmetry_multiplicity
 _atom_site_fract_x
 _atom_site_fract_y
 _atom_site_fract_z
 _atom_site_occupancy
  Mg  Mg0  1  0.62646400  0.09192400  0.88512400  1
  Mn  Mn0  1  0.36262400  0.35969900  0.11747500  1
  Mn  Mn1  1  0.13139400  0.69781700  0.38176200  1
  Mn  Mn2  1  0.89876900  0.17255700  0.15438700  1
  Mn  Mn3  1  0.36345500  0.13541400  0.60947400  1
  Mn  Mn4  1  0.13239000  0.85671600  0.88106400  1
  Mn  Mn5  1  0.63190600  0.85692100  0.37629500  1
  Mn  Mn6  1  0.60612100  0.60722000  0.85686000  1
  Mn  Mn7  1  0.89184900  0.36955600  0.64080200  1
  O  O0  1  0.15588200  0.11640500  0.07725000  1
  O  O1  1  0.16650700  0.62523900  0.10439000  1
  O  O2  1  0.56139300  0.59621100  0.12777300  1
  O  O3  1  0.08219900  0.63309400  0.65810100  1
  O  O4  1  0.35461400  0.89904900  0.41807800  1
  O  O5  1  0.09435700  0.11596100  0.67367500  1
  O  O6  1  0.60819300  0.11848100  0.17175500  1
  O  O7  1  0.41486700  0.87331200  0.81101400  1
  O  O8  1  0.64669200  0.11751900  0.58521800  1
  O  O9  1  0.90436900  0.89892400  0.32864300  1
  O  O10  1  0.42431600  0.35519400  0.83131200  1
  O  O11  1  0.67785700  0.60322300  0.59308100  1
  O  O12  1  0.81726000  0.35668600  0.90475100  1
  F  F0  1  0.32046600  0.39261300  0.41263400  1
  F  F1  1  0.93312400  0.41359300  0.36243500  1
  F  F2  1  0.82293200  0.84381400  0.91664500  1
loop_
_geom_bond_atom_site_label_1
_geom_bond_atom_site_label_2
_geom_bond_distance
_geom_bond_site_symmetry_2
Mg0 O7 1.988718 1_545
Mg0 O6 2.005617 1_556
Mg0 O12 2.020154 1_555
Mg0 O10 2.032555 1_555
Mg0 O8 2.086622 1_555
Mn0 O2 1.938283 1_555
Mn0 O1 2.004258 1_555
Mn0 O0 2.018642 1_555
Mn0 O10 2.053444 1_554
Mn0 O6 2.163833 1_555
Mn1 O9 1.928990 1_455
Mn1 O4 1.944722 1_555
Mn1 O3 1.984070 1_555
Mn1 O1 2.007702 1_555
Mn2 O0 1.915883 1_655
Mn2 O9 1.924459 1_545
Mn2 O12 2.020202 1_554
Mn2 O6 2.048260 1_555
Mn3 O4 1.921742 1_545
Mn3 O5 1.946210 1_555
Mn3 O8 1.977668 1_555
Mn3 O7 2.005596 1_545
Mn3 O10 2.042409 1_555
Mn4 O1 1.984051 1_556
Mn4 O5 2.012500 1_565
Mn4 O0 2.045008 1_566
Mn4 O7 2.047147 1_555
Mn4 O3 2.051752 1_555
Mn5 O9 1.951565 1_555
Mn5 O4 1.969959 1_555
Mn5 O6 2.004281 1_565
Mn5 O11 2.039642 1_555
Mn5 O8 2.108602 1_565
Mn5 O2 2.344717 1_555
Mn6 O2 1.917795 1_556
Mn6 O11 1.923589 1_555
Mn6 O10 1.926878 1_555
Mn6 O7 1.990127 1_555
Mn6 O12 2.020304 1_555
Mn7 O12 1.929185 1_555
Mn7 O11 1.970181 1_555
Mn7 O5 1.984967 1_655
Mn7 O3 2.012068 1_655
Mn7 O8 2.260189 1_555
F0 Mn3 1.958611 1_555
F0 Mn0 2.096315 1_555
F0 Mn1 2.146063 1_555
F1 Mn7 1.971202 1_555
F1 Mn2 2.030624 1_555
F1 Mn1 2.138350 1_655
F2 Mg0 1.934052 1_565
F2 Mn6 2.062221 1_555
F2 Mn4 2.172265 1_655
F2 Mn2 2.574240 1_566
