# generated using pymatgen
data_SrCa4(FeO2)5
_symmetry_space_group_name_H-M   'P 1'
_cell_length_a   4.02390000
_cell_length_b   4.02390000
_cell_length_c   16.41464900
_cell_angle_alpha   90.00000000
_cell_angle_beta   90.00000000
_cell_angle_gamma   90.00000000
_symmetry_Int_Tables_number   1
_chemical_formula_structural   SrCa4(FeO2)5
_chemical_formula_sum   'Sr1 Ca4 Fe5 O10'
_cell_volume   265.78224110
_cell_formula_units_Z   1
loop_
 _symmetry_equiv_pos_site_id
 _symmetry_equiv_pos_as_xyz
  1  'x, y, z'
loop_
 _atom_site_type_symbol
 _atom_site_label
 _atom_site_symmetry_multiplicity
 _atom_site_fract_x
 _atom_site_fract_y
 _atom_site_fract_z
 _atom_site_occupancy
  Sr  Sr0  1  0.50000000  0.50000000  0.00000000  1
  Ca  Ca0  1  0.50000000  0.50000000  0.20276400  1
  Ca  Ca1  1  0.50000000  0.50000000  0.40051300  1
  Ca  Ca2  1  0.50000000  0.50000000  0.59948700  1
  Ca  Ca3  1  0.50000000  0.50000000  0.79723600  1
  Fe  Fe0  1  0.00000000  0.00000000  0.89361500  1
  Fe  Fe1  1  0.00000000  0.00000000  0.10638500  1
  Fe  Fe2  1  0.00000000  0.00000000  0.30080200  1
  Fe  Fe3  1  0.00000000  0.00000000  0.50000000  1
  Fe  Fe4  1  0.00000000  0.00000000  0.69919800  1
  O  O0  1  0.00000000  0.50000000  0.10603700  1
  O  O1  1  0.00000000  0.50000000  0.30112800  1
  O  O2  1  0.00000000  0.50000000  0.50000000  1
  O  O3  1  0.00000000  0.50000000  0.69887200  1
  O  O4  1  0.00000000  0.50000000  0.89396300  1
  O  O5  1  0.50000000  0.00000000  0.10603700  1
  O  O6  1  0.50000000  0.00000000  0.30112800  1
  O  O7  1  0.50000000  0.00000000  0.50000000  1
  O  O8  1  0.50000000  0.00000000  0.69887200  1
  O  O9  1  0.50000000  0.00000000  0.89396300  1
loop_
_geom_bond_atom_site_label_1
_geom_bond_atom_site_label_2
_geom_bond_distance
_geom_bond_site_symmetry_2
Ca0 O5 2.562979 1_555
Ca0 O5 2.562979 1_565
Ca0 O0 2.562979 1_555
Ca0 O0 2.562979 1_655
Ca0 O1 2.579711 1_655
Ca0 O6 2.579711 1_555
Ca0 O6 2.579711 1_565
Ca0 O1 2.579711 1_555
Ca1 O6 2.590234 1_565
Ca1 O1 2.590234 1_655
Ca1 O6 2.590234 1_555
Ca1 O1 2.590234 1_555
Ca1 O7 2.591289 1_555
Ca1 O7 2.591289 1_565
Ca1 O2 2.591289 1_555
Ca1 O2 2.591289 1_655
Ca2 O8 2.590234 1_565
Ca2 O8 2.590234 1_555
Ca2 O3 2.590234 1_655
Ca2 O3 2.590234 1_555
Ca2 O7 2.591289 1_555
Ca2 O7 2.591289 1_565
Ca2 O2 2.591289 1_555
Ca2 O2 2.591289 1_655
Ca3 O4 2.562979 1_655
Ca3 O9 2.562979 1_555
Ca3 O9 2.562979 1_565
Ca3 O4 2.562979 1_555
Ca3 O8 2.579711 1_565
Ca3 O3 2.579711 1_655
Ca3 O3 2.579711 1_555
Ca3 O8 2.579711 1_555
Fe0 O9 2.011958 1_455
Fe0 O4 2.011958 1_545
Fe0 O9 2.011958 1_555
Fe0 O4 2.011958 1_555
Fe1 O0 2.011958 1_555
Fe1 O0 2.011958 1_545
Fe1 O5 2.011958 1_455
Fe1 O5 2.011958 1_555
Fe2 O6 2.011957 1_555
Fe2 O6 2.011957 1_455
Fe2 O1 2.011957 1_555
Fe2 O1 2.011957 1_545
Fe3 O2 2.011950 1_545
Fe3 O7 2.011950 1_555
Fe3 O7 2.011950 1_455
Fe3 O2 2.011950 1_555
Fe4 O8 2.011957 1_455
Fe4 O3 2.011957 1_545
Fe4 O3 2.011957 1_555
Fe4 O8 2.011957 1_555
O0 Sr0 2.660356 1_555
O0 Sr0 2.660356 1_455
O4 Sr0 2.660356 1_556
O4 Sr0 2.660356 1_456
O5 Sr0 2.660356 1_555
O5 Sr0 2.660356 1_545
O9 Sr0 2.660356 1_556
O9 Sr0 2.660356 1_546
