# generated using pymatgen
data_BaU2Te5
_symmetry_space_group_name_H-M   'P 1'
_cell_length_a   9.63514685
_cell_length_b   9.63514685
_cell_length_c   9.63502262
_cell_angle_alpha   128.24334782
_cell_angle_beta   128.24334782
_cell_angle_gamma   76.23208634
_symmetry_Int_Tables_number   1
_chemical_formula_structural   BaU2Te5
_chemical_formula_sum   'Ba2 U4 Te10'
_cell_volume   536.24681593
_cell_formula_units_Z   2
loop_
 _symmetry_equiv_pos_site_id
 _symmetry_equiv_pos_as_xyz
  1  'x, y, z'
loop_
 _atom_site_type_symbol
 _atom_site_label
 _atom_site_symmetry_multiplicity
 _atom_site_fract_x
 _atom_site_fract_y
 _atom_site_fract_z
 _atom_site_occupancy
  Ba  Ba0  1  0.75000000  0.75000000  0.00000000  1
  Ba  Ba1  1  0.25000000  0.25000000  0.00000000  1
  U  U0  1  0.65482870  0.15482870  0.80965840  1
  U  U1  1  0.34517130  0.84517130  0.19034160  1
  U  U2  1  0.15479455  0.34520545  0.50000000  1
  U  U3  1  0.84520545  0.65479455  0.50000000  1
  Te  Te0  1  0.01483266  0.51483266  0.79720028  1
  Te  Te1  1  0.71763237  0.21763237  0.20279972  1
  Te  Te2  1  0.51486809  0.71769459  0.50000000  1
  Te  Te3  1  0.21769459  0.01486809  0.50000000  1
  Te  Te4  1  0.98516734  0.48516734  0.20279972  1
  Te  Te5  1  0.28236763  0.78236763  0.79720028  1
  Te  Te6  1  0.48513191  0.28230541  0.50000000  1
  Te  Te7  1  0.78230541  0.98513191  0.50000000  1
  Te  Te8  1  -0.00000000  -0.00000000  0.00000000  1
  Te  Te9  1  0.50000000  0.50000000  0.00000000  1
loop_
_geom_bond_atom_site_label_1
_geom_bond_atom_site_label_2
_geom_bond_distance
_geom_bond_site_symmetry_2
Ba0 Te1 3.660983 1_565
Ba0 Te5 3.660983 1_554
Ba0 Te0 3.660983 1_654
Ba0 Te4 3.660983 1_555
Ba0 Te6 3.661324 1_554
Ba0 Te7 3.661324 1_555
Ba0 Te2 3.661324 1_554
Ba0 Te3 3.661324 1_665
Ba0 Te9 3.790285 1_555
Ba0 Te8 3.790285 1_665
Ba1 Te5 3.660983 1_544
Ba1 Te1 3.660983 1_555
Ba1 Te0 3.660983 1_554
Ba1 Te4 3.660983 1_455
Ba1 Te2 3.661324 1_555
Ba1 Te3 3.661324 1_554
Ba1 Te6 3.661324 1_555
Ba1 Te7 3.661324 1_444
Ba1 Te8 3.790285 1_555
Ba1 Te9 3.790285 1_555
Te0 U1 3.095104 1_556
Te0 U3 3.259946 1_455
Te0 U2 3.259946 1_555
Te1 U0 3.095094 1_554
Te1 U3 3.259946 1_555
Te1 U2 3.259946 1_655
Te2 U3 3.095105 1_555
Te2 U0 3.259625 1_565
Te2 U1 3.259634 1_555
Te3 U2 3.095105 1_555
Te3 U0 3.259625 1_555
Te3 U1 3.259634 1_545
Te4 U0 3.095104 1_554
Te4 U3 3.259946 1_555
Te4 U2 3.259946 1_655
Te5 U1 3.095094 1_556
Te5 U2 3.259946 1_555
Te5 U3 3.259946 1_455
Te6 U2 3.095105 1_555
Te6 U1 3.259625 1_545
Te6 U0 3.259634 1_555
Te7 U3 3.095105 1_555
Te7 U1 3.259625 1_555
Te7 U0 3.259634 1_565
Te8 U0 3.181848 1_454
Te8 U1 3.181848 1_545
Te8 U2 3.181914 1_555
Te8 U3 3.181914 1_444
Te9 U1 3.181848 1_555
Te9 U0 3.181848 1_554
Te9 U2 3.181914 1_554
Te9 U3 3.181914 1_555
