# generated using pymatgen
data_K(SiO2)2
_symmetry_space_group_name_H-M   'P 1'
_cell_length_a   5.51587759
_cell_length_b   5.51587759
_cell_length_c   8.53516400
_cell_angle_alpha   90.00000000
_cell_angle_beta   90.00000000
_cell_angle_gamma   119.99999510
_symmetry_Int_Tables_number   1
_chemical_formula_structural   K(SiO2)2
_chemical_formula_sum   'K2 Si4 O8'
_cell_volume   224.89083808
_cell_formula_units_Z   2
loop_
 _symmetry_equiv_pos_site_id
 _symmetry_equiv_pos_as_xyz
  1  'x, y, z'
loop_
 _atom_site_type_symbol
 _atom_site_label
 _atom_site_symmetry_multiplicity
 _atom_site_fract_x
 _atom_site_fract_y
 _atom_site_fract_z
 _atom_site_occupancy
  K  K0  1  0.00000000  0.00000000  0.25000000  1
  K  K1  1  0.00000000  0.00000000  0.75000000  1
  Si  Si0  1  0.33333300  0.66666700  0.05470700  1
  Si  Si1  1  0.66666700  0.33333300  0.55470700  1
  Si  Si2  1  0.33333300  0.66666700  0.44529300  1
  Si  Si3  1  0.66666700  0.33333300  0.94529300  1
  O  O0  1  0.33333300  0.66666700  0.25000000  1
  O  O1  1  0.66666700  0.33333300  0.75000000  1
  O  O2  1  0.50000000  0.50000000  0.50000000  1
  O  O3  1  0.50000000  0.00000000  0.50000000  1
  O  O4  1  0.50000000  0.50000000  0.00000000  1
  O  O5  1  0.00000000  0.50000000  0.50000000  1
  O  O6  1  0.50000000  0.00000000  0.00000000  1
  O  O7  1  0.00000000  0.50000000  0.00000000  1
loop_
_geom_bond_atom_site_label_1
_geom_bond_atom_site_label_2
_geom_bond_distance
_geom_bond_site_symmetry_2
K0 O0 3.184590 1_545
K0 O0 3.184595 1_555
K0 O0 3.184595 1_445
K1 O1 3.184590 1_455
K1 O1 3.184595 1_445
K1 O1 3.184595 1_555
O0 Si2 1.666858 1_555
O0 Si0 1.666858 1_555
O1 Si3 1.666858 1_555
O1 Si1 1.666858 1_555
O2 Si1 1.659351 1_555
O2 Si2 1.659351 1_555
O3 Si1 1.659346 1_555
O3 Si2 1.659346 1_545
O4 Si0 1.659351 1_555
O4 Si3 1.659351 1_554
O5 Si1 1.659346 1_455
O5 Si2 1.659346 1_555
O6 Si0 1.659346 1_545
O6 Si3 1.659346 1_554
O7 Si0 1.659346 1_555
O7 Si3 1.659346 1_454
