# generated using pymatgen
data_ZnSi4H35C13ClO
_symmetry_space_group_name_H-M   'P 1'
_cell_length_a   10.14546528
_cell_length_b   13.36608522
_cell_length_c   21.64558110
_cell_angle_alpha   90.00000000
_cell_angle_beta   90.00000000
_cell_angle_gamma   104.82960481
_symmetry_Int_Tables_number   1
_chemical_formula_structural   ZnSi4H35C13ClO
_chemical_formula_sum   'Zn4 Si16 H140 C52 Cl4 O4'
_cell_volume   2837.48282141
_cell_formula_units_Z   4
loop_
 _symmetry_equiv_pos_site_id
 _symmetry_equiv_pos_as_xyz
  1  'x, y, z'
loop_
 _atom_site_type_symbol
 _atom_site_label
 _atom_site_symmetry_multiplicity
 _atom_site_fract_x
 _atom_site_fract_y
 _atom_site_fract_z
 _atom_site_occupancy
  Zn  Zn0  1  0.42310011  0.42308978  0.56216390  1
  Zn  Zn1  1  0.92310011  0.92308978  0.93783610  1
  Zn  Zn2  1  0.57689989  0.57691022  0.43783610  1
  Zn  Zn3  1  0.07689989  0.07691022  0.06216390  1
  Si  Si0  1  0.38974065  0.26889592  0.62270527  1
  Si  Si1  1  0.88974065  0.76889592  0.87729473  1
  Si  Si2  1  0.61025935  0.73110408  0.37729473  1
  Si  Si3  1  0.11025935  0.23110408  0.12270527  1
  Si  Si4  1  0.60968504  0.24575014  0.64051926  1
  Si  Si5  1  0.10968504  0.74575014  0.85948074  1
  Si  Si6  1  0.39031496  0.75424986  0.35948074  1
  Si  Si7  1  0.89031496  0.25424986  0.14051926  1
  Si  Si8  1  0.28857469  0.28087501  0.72014333  1
  Si  Si9  1  0.78857469  0.78087501  0.77985667  1
  Si  Si10  1  0.71142531  0.71912499  0.27985667  1
  Si  Si11  1  0.21142531  0.21912499  0.22014333  1
  Si  Si12  1  0.25729972  0.12938944  0.56466352  1
  Si  Si13  1  0.75729972  0.62938944  0.93533648  1
  Si  Si14  1  0.74270028  0.87061056  0.43533648  1
  Si  Si15  1  0.24270028  0.37061056  0.06466352  1
  H  H0  1  0.56126964  0.05136170  0.63891664  1
  H  H1  1  0.06126964  0.55136170  0.86108336  1
  H  H2  1  0.43873036  0.94863830  0.36108336  1
  H  H3  1  0.93873036  0.44863830  0.13891664  1
  H  H4  1  0.56233338  0.09700027  0.71619669  1
  H  H5  1  0.06233338  0.59700027  0.78380331  1
  H  H6  1  0.43766662  0.90299973  0.28380331  1
  H  H7  1  0.93766662  0.40299973  0.21619669  1
  H  H8  1  0.71854337  0.11053741  0.67552268  1
  H  H9  1  0.21854337  0.61053741  0.82447732  1
  H  H10  1  0.28145663  0.88946259  0.32447732  1
  H  H11  1  0.78145663  0.38946259  0.17552268  1
  H  H12  1  0.67011150  0.20890307  0.53139394  1
  H  H13  1  0.17011150  0.70890307  0.96860606  1
  H  H14  1  0.32988850  0.79109693  0.46860606  1
  H  H15  1  0.82988850  0.29109693  0.03139394  1
  H  H16  1  0.81657082  0.25477714  0.57876992  1
  H  H17  1  0.31657082  0.75477714  0.92123008  1
  H  H18  1  0.18342918  0.74522286  0.42123008  1
  H  H19  1  0.68342918  0.24522286  0.07876992  1
  H  H20  1  0.72764427  0.34342241  0.54873632  1
  H  H21  1  0.22764427  0.84342241  0.95126368  1
  H  H22  1  0.27235573  0.65657759  0.45126368  1
  H  H23  1  0.77235573  0.15657759  0.04873632  1
  H  H24  1  0.65751992  0.33657589  0.74357765  1
  H  H25  1  0.15751992  0.83657589  0.75642235  1
  H  H26  1  0.34248008  0.66342411  0.25642235  1
  H  H27  1  0.84248008  0.16342411  0.24357765  1
  H  H28  1  0.71920870  0.42303224  0.68137659  1
  H  H29  1  0.21920870  0.92303224  0.81862341  1
  H  H30  1  0.28079130  0.57696776  0.31862341  1
  H  H31  1  0.78079130  0.07696776  0.18137659  1
  H  H32  1  0.80915429  0.33073086  0.70411828  1
  H  H33  1  0.30915429  0.83073086  0.79588172  1
  H  H34  1  0.19084571  0.66926914  0.29588172  1
  H  H35  1  0.69084571  0.16926914  0.20411828  1
  H  H36  1  0.42777489  0.19073445  0.78581401  1
  H  H37  1  0.92777489  0.69073445  0.71418599  1
  H  H38  1  0.57222511  0.80926555  0.21418599  1
  H  H39  1  0.07222511  0.30926555  0.28581401  1
  H  H40  1  0.27227357  0.10282891  0.76309848  1
  H  H41  1  0.77227357  0.60282891  0.73690152  1
  H  H42  1  0.72772643  0.89717109  0.23690152  1
  H  H43  1  0.22772643  0.39717109  0.26309848  1
  H  H44  1  0.27222187  0.19525634  0.82214291  1
  H  H45  1  0.77222187  0.69525634  0.67785709  1
  H  H46  1  0.72777813  0.80474366  0.17785709  1
  H  H47  1  0.22777813  0.30474366  0.32214291  1
  H  H48  1  0.46971263  0.43097777  0.76213055  1
  H  H49  1  0.96971263  0.93097777  0.73786945  1
  H  H50  1  0.53028737  0.56902223  0.23786945  1
  H  H51  1  0.03028737  0.06902223  0.26213055  1
  H  H52  1  0.31127445  0.41331573  0.80163426  1
  H  H53  1  0.81127445  0.91331573  0.69836574  1
  H  H54  1  0.68872555  0.58668427  0.19836574  1
  H  H55  1  0.18872555  0.08668427  0.30163426  1
  H  H56  1  0.33437340  0.47351474  0.72749433  1
  H  H57  1  0.83437340  0.97351474  0.77250567  1
  H  H58  1  0.66562660  0.52648526  0.27250567  1
  H  H59  1  0.16562660  0.02648526  0.22749433  1
  H  H60  1  0.04399526  0.18465196  0.69869417  1
  H  H61  1  0.54399526  0.68465196  0.80130583  1
  H  H62  1  0.95600474  0.81534804  0.30130583  1
  H  H63  1  0.45600474  0.31534804  0.19869417  1
  H  H64  1  0.06859111  0.32043765  0.68835383  1
  H  H65  1  0.56859111  0.82043765  0.81164617  1
  H  H66  1  0.93140889  0.67956235  0.31164617  1
  H  H67  1  0.43140889  0.17956235  0.18835383  1
  H  H68  1  0.06164995  0.26757569  0.76417111  1
  H  H69  1  0.56164995  0.76757569  0.73582889  1
  H  H70  1  0.93835005  0.73242431  0.23582889  1
  H  H71  1  0.43835005  0.23242431  0.26417111  1
  H  H72  1  0.02684329  0.16380227  0.58184678  1
  H  H73  1  0.52684329  0.66380227  0.91815322  1
  H  H74  1  0.97315671  0.83619773  0.41815322  1
  H  H75  1  0.47315671  0.33619773  0.08184678  1
  H  H76  1  0.03186090  0.08938613  0.51404933  1
  H  H77  1  0.53186090  0.58938613  0.98595067  1
  H  H78  1  0.96813910  0.91061387  0.48595067  1
  H  H79  1  0.46813910  0.41061387  0.01404933  1
  H  H80  1  0.10548739  0.22514005  0.51309872  1
  H  H81  1  0.60548739  0.72514005  0.98690128  1
  H  H82  1  0.89451261  0.77485995  0.48690128  1
  H  H83  1  0.39451261  0.27485995  0.01309872  1
  H  H84  1  0.16150315  0.00091429  0.64953555  1
  H  H85  1  0.66150315  0.50091429  0.85046445  1
  H  H86  1  0.83849685  0.99908571  0.35046445  1
  H  H87  1  0.33849685  0.49908571  0.14953555  1
  H  H88  1  0.31096329  0.97662180  0.61657529  1
  H  H89  1  0.81096329  0.47662180  0.88342471  1
  H  H90  1  0.68903671  0.02337820  0.38342471  1
  H  H91  1  0.18903671  0.52337820  0.11657529  1
  H  H92  1  0.15389753  0.94170092  0.57551002  1
  H  H93  1  0.65389753  0.44170092  0.92448998  1
  H  H94  1  0.84610247  0.05829908  0.42448998  1
  H  H95  1  0.34610247  0.55829908  0.07551002  1
  H  H96  1  0.36643034  0.17884452  0.46097137  1
  H  H97  1  0.86643034  0.67884452  0.03902863  1
  H  H98  1  0.63356966  0.82115548  0.53902863  1
  H  H99  1  0.13356966  0.32115548  0.96097137  1
  H  H100  1  0.27425027  0.04626927  0.46456966  1
  H  H101  1  0.77425027  0.54626927  0.03543034  1
  H  H102  1  0.72574973  0.95373073  0.53543034  1
  H  H103  1  0.22574973  0.45373073  0.96456966  1
  H  H104  1  0.43931879  0.08668181  0.49843279  1
  H  H105  1  0.93931879  0.58668181  0.00156721  1
  H  H106  1  0.56068121  0.91331819  0.50156721  1
  H  H107  1  0.06068121  0.41331819  0.99843279  1
  H  H108  1  0.09742508  0.41962878  0.59171610  1
  H  H109  1  0.59742508  0.91962878  0.90828390  1
  H  H110  1  0.90257492  0.58037122  0.40828390  1
  H  H111  1  0.40257492  0.08037122  0.09171610  1
  H  H112  1  0.12894146  0.49790960  0.52401324  1
  H  H113  1  0.62894146  0.99790960  0.97598676  1
  H  H114  1  0.87105854  0.50209040  0.47598676  1
  H  H115  1  0.37105854  0.00209040  0.02401324  1
  H  H116  1  0.01077216  0.54312397  0.64574835  1
  H  H117  1  0.51077216  0.04312397  0.85425165  1
  H  H118  1  0.98922784  0.45687603  0.35425165  1
  H  H119  1  0.48922784  0.95687603  0.14574835  1
  H  H120  1  0.00271168  0.60176985  0.57337879  1
  H  H121  1  0.50271168  0.10176985  0.92662121  1
  H  H122  1  0.99728832  0.39823015  0.42662121  1
  H  H123  1  0.49728832  0.89823015  0.07337879  1
  H  H124  1  0.18234652  0.68911231  0.67404843  1
  H  H125  1  0.68234652  0.18911231  0.82595157  1
  H  H126  1  0.81765348  0.31088769  0.32595157  1
  H  H127  1  0.31765348  0.81088769  0.17404843  1
  H  H128  1  0.19263988  0.73899606  0.59818710  1
  H  H129  1  0.69263988  0.23899606  0.90181290  1
  H  H130  1  0.80736012  0.26100394  0.40181290  1
  H  H131  1  0.30736012  0.76100394  0.09818710  1
  H  H132  1  0.39074422  0.68293903  0.58024012  1
  H  H133  1  0.89074422  0.18293903  0.91975988  1
  H  H134  1  0.60925578  0.31706097  0.41975988  1
  H  H135  1  0.10925578  0.81706097  0.08024012  1
  H  H136  1  0.38145668  0.63295474  0.65681821  1
  H  H137  1  0.88145668  0.13295474  0.84318179  1
  H  H138  1  0.61854332  0.36704526  0.34318179  1
  H  H139  1  0.11854332  0.86704526  0.15681821  1
  C  C0  1  0.61144848  0.11340542  0.67078744  1
  C  C1  1  0.11144848  0.61340542  0.82921256  1
  C  C2  1  0.38855152  0.88659458  0.32921256  1
  C  C3  1  0.88855152  0.38659458  0.17078744  1
  C  C4  1  0.71498865  0.26515660  0.56742907  1
  C  C5  1  0.21498865  0.76515660  0.93257093  1
  C  C6  1  0.28501135  0.73484340  0.43257093  1
  C  C7  1  0.78501135  0.23484340  0.06742907  1
  C  C8  1  0.70694269  0.34352270  0.69804490  1
  C  C9  1  0.20694269  0.84352270  0.80195510  1
  C  C10  1  0.29305731  0.65647730  0.30195510  1
  C  C11  1  0.79305731  0.15647730  0.19804490  1
  C  C12  1  0.31882602  0.18271726  0.77770264  1
  C  C13  1  0.81882602  0.68271726  0.72229736  1
  C  C14  1  0.68117398  0.81728274  0.22229736  1
  C  C15  1  0.18117398  0.31728274  0.27770264  1
  C  C16  1  0.35876250  0.41259041  0.75586439  1
  C  C17  1  0.85876250  0.91259041  0.74413561  1
  C  C18  1  0.64123750  0.58740959  0.24413561  1
  C  C19  1  0.14123750  0.08740959  0.25586439  1
  C  C20  1  0.09738725  0.26106392  0.71647912  1
  C  C21  1  0.59738725  0.76106392  0.78352088  1
  C  C22  1  0.90261275  0.73893608  0.28352088  1
  C  C23  1  0.40261275  0.23893608  0.21647912  1
  C  C24  1  0.08940404  0.15522161  0.54177696  1
  C  C25  1  0.58940404  0.65522161  0.95822304  1
  C  C26  1  0.91059596  0.84477839  0.45822304  1
  C  C27  1  0.41059596  0.34477839  0.04177696  1
  C  C28  1  0.21760208  0.00055859  0.60619486  1
  C  C29  1  0.71760208  0.50055859  0.89380514  1
  C  C30  1  0.78239792  0.99944141  0.39380514  1
  C  C31  1  0.28239792  0.49944141  0.10619486  1
  C  C32  1  0.34424641  0.10940350  0.49019498  1
  C  C33  1  0.84424641  0.60940350  0.00980502  1
  C  C34  1  0.65575359  0.89059650  0.50980502  1
  C  C35  1  0.15575359  0.39059650  0.99019498  1
  C  C36  1  0.13869767  0.49912339  0.57484786  1
  C  C37  1  0.63869767  0.99912339  0.92515214  1
  C  C38  1  0.86130233  0.50087661  0.42515214  1
  C  C39  1  0.36130233  0.00087661  0.07484786  1
  C  C40  1  0.07232462  0.57737513  0.60547267  1
  C  C41  1  0.57232462  0.07737513  0.89452733  1
  C  C42  1  0.92767538  0.42262487  0.39452733  1
  C  C43  1  0.42767538  0.92262487  0.10547267  1
  C  C44  1  0.19152101  0.66922799  0.62515088  1
  C  C45  1  0.69152101  0.16922799  0.87484912  1
  C  C46  1  0.80847899  0.33077201  0.37484912  1
  C  C47  1  0.30847899  0.83077201  0.12515088  1
  C  C48  1  0.32259076  0.63417609  0.61432262  1
  C  C49  1  0.82259076  0.13417609  0.88567738  1
  C  C50  1  0.67740924  0.36582391  0.38567738  1
  C  C51  1  0.17740924  0.86582391  0.11432262  1
  Cl  Cl0  1  0.62220562  0.56438871  0.54761764  1
  Cl  Cl1  1  0.12220562  0.06438871  0.95238236  1
  Cl  Cl2  1  0.37779438  0.43561129  0.45238236  1
  Cl  Cl3  1  0.87779438  0.93561129  0.04761764  1
  O  O0  1  0.28194812  0.52814877  0.59158785  1
  O  O1  1  0.78194812  0.02814877  0.90841215  1
  O  O2  1  0.71805188  0.47185123  0.40841215  1
  O  O3  1  0.21805188  0.97185123  0.09158785  1
loop_
_geom_bond_atom_site_label_1
_geom_bond_atom_site_label_2
_geom_bond_distance
_geom_bond_site_symmetry_2
Si0 Si4 2.361585 1_555
Si0 Si12 2.361837 1_555
Si0 Si8 2.368865 1_555
Si0 Zn0 2.392147 1_555
Si1 Si5 2.361585 1_655
Si1 Si13 2.361837 1_555
Si1 Si9 2.368865 1_555
Si1 Zn1 2.392147 1_555
Si2 Si6 2.361585 1_555
Si2 Zn2 2.392147 1_555
Si3 Si7 2.361585 1_455
Si3 Zn3 2.392147 1_555
Si10 Si2 2.368865 1_555
Si11 Si3 2.368865 1_555
Si14 Si2 2.361837 1_555
Si15 Si3 2.361837 1_555
C0 H4 1.098435 1_555
C0 H0 1.098490 1_555
C0 H8 1.101743 1_555
C0 Si4 1.890737 1_555
C1 H5 1.098435 1_555
C1 H1 1.098490 1_555
C1 H9 1.101743 1_555
C1 Si5 1.890737 1_555
C2 H6 1.098435 1_555
C2 H2 1.098490 1_555
C2 H10 1.101743 1_555
C2 Si6 1.890737 1_555
C3 H7 1.098435 1_555
C3 H3 1.098490 1_555
C3 H11 1.101743 1_555
C3 Si7 1.890737 1_555
C4 H20 1.098082 1_555
C4 H12 1.098089 1_555
C4 H16 1.102193 1_555
C4 Si4 1.889387 1_555
C5 H21 1.098082 1_555
C5 H13 1.098089 1_555
C5 H17 1.102193 1_555
C5 Si5 1.889387 1_555
C6 H22 1.098082 1_555
C6 H14 1.098089 1_555
C6 H18 1.102193 1_555
C6 Si6 1.889387 1_555
C7 H23 1.098082 1_555
C7 H15 1.098089 1_555
C7 H19 1.102193 1_555
C7 Si7 1.889387 1_555
C8 H28 1.098799 1_555
C8 H24 1.098900 1_555
C8 H32 1.101186 1_555
C8 Si4 1.889929 1_555
C9 H29 1.098799 1_555
C9 H25 1.098900 1_555
C9 H33 1.101186 1_555
C9 Si5 1.889929 1_555
C10 H30 1.098799 1_555
C10 H26 1.098900 1_555
C10 H34 1.101186 1_555
C10 Si6 1.889929 1_555
C11 H31 1.098799 1_555
C11 H27 1.098900 1_555
C11 H35 1.101186 1_555
C11 Si7 1.889929 1_555
C12 H36 1.097018 1_555
C12 H40 1.097736 1_555
C12 H44 1.103419 1_555
C12 Si8 1.890476 1_555
C13 H37 1.097018 1_555
C13 H41 1.097736 1_555
C13 H45 1.103419 1_555
C13 Si9 1.890476 1_555
C14 H38 1.097018 1_555
C14 H42 1.097736 1_555
C14 H46 1.103419 1_555
C14 Si10 1.890476 1_555
C15 H39 1.097018 1_555
C15 H43 1.097736 1_555
C15 H47 1.103419 1_555
C15 Si11 1.890476 1_555
C16 H48 1.097385 1_555
C16 H56 1.097537 1_555
C16 H52 1.102779 1_555
C16 Si8 1.887488 1_555
C17 H49 1.097385 1_555
C17 H57 1.097537 1_555
C17 H53 1.102779 1_555
C17 Si9 1.887488 1_555
C18 H50 1.097385 1_555
C18 H58 1.097537 1_555
C18 H54 1.102779 1_555
C18 Si10 1.887488 1_555
C19 H51 1.097385 1_555
C19 H59 1.097537 1_555
C19 H55 1.102779 1_555
C19 Si11 1.887488 1_555
C20 H60 1.096146 1_555
C20 H64 1.097473 1_555
C20 H68 1.104932 1_555
C20 Si8 1.890997 1_555
C21 H61 1.096146 1_555
C21 H65 1.097473 1_555
C21 H69 1.104932 1_555
C21 Si9 1.890997 1_555
C22 H62 1.096146 1_555
C22 H66 1.097473 1_555
C22 H70 1.104932 1_555
C22 Si10 1.890997 1_555
C23 H63 1.096146 1_555
C23 H67 1.097473 1_555
C23 H71 1.104932 1_555
C23 Si11 1.890997 1_555
C24 H72 1.097971 1_555
C24 H80 1.098755 1_555
C24 H76 1.101093 1_555
C24 Si12 1.888701 1_555
C25 H73 1.097971 1_555
C25 H81 1.098755 1_555
C25 H77 1.101093 1_555
C25 Si13 1.888701 1_555
C26 H74 1.097971 1_555
C26 H82 1.098755 1_555
C26 H78 1.101093 1_555
C26 Si14 1.888701 1_555
C27 H75 1.097971 1_555
C27 H83 1.098755 1_555
C27 H79 1.101093 1_555
C27 Si15 1.888701 1_555
C28 H88 1.097793 1_545
C28 H84 1.097923 1_555
C28 H92 1.103399 1_545
C28 Si12 1.892223 1_555
C29 H89 1.097793 1_555
C29 H85 1.097923 1_555
C29 H93 1.103399 1_555
C29 Si13 1.892223 1_555
C30 H90 1.097793 1_565
C30 H86 1.097923 1_555
C30 H94 1.103399 1_565
C30 Si14 1.892223 1_555
C31 H91 1.097793 1_555
C31 H87 1.097923 1_555
C31 H95 1.103399 1_555
C31 Si15 1.892223 1_555
C32 H104 1.097426 1_555
C32 H96 1.097875 1_555
C32 H100 1.103317 1_555
C32 Si12 1.889015 1_555
C33 H105 1.097426 1_555
C33 H97 1.097875 1_555
C33 H101 1.103317 1_555
C33 Si13 1.889015 1_554
C34 H106 1.097426 1_555
C34 H98 1.097875 1_555
C34 H102 1.103317 1_555
C34 Si14 1.889015 1_555
C35 H107 1.097426 1_555
C35 H99 1.097875 1_555
C35 H103 1.103317 1_555
C35 Si15 1.889015 1_556
C36 H108 1.099944 1_555
C36 H112 1.104535 1_555
C36 O0 1.450996 1_555
C37 H109 1.099944 1_555
C37 H113 1.104535 1_555
C37 O1 1.450996 1_565
C38 H110 1.099944 1_555
C38 H114 1.104535 1_555
C38 O2 1.450996 1_555
C39 H111 1.099944 1_555
C39 H115 1.104535 1_555
C39 O3 1.450996 1_545
C40 H120 1.097993 1_555
C40 H116 1.101468 1_555
C41 H121 1.097993 1_555
C41 H117 1.101468 1_555
C42 H122 1.097993 1_555
C42 H118 1.101468 1_555
C43 H123 1.097993 1_555
C43 H119 1.101468 1_555
C44 H128 1.097706 1_555
C44 H124 1.101003 1_555
C45 H129 1.097706 1_555
C45 H125 1.101003 1_555
C46 H130 1.097706 1_555
C46 H126 1.101003 1_555
C47 H131 1.097706 1_555
C47 H127 1.101003 1_555
C48 H136 1.099109 1_555
C48 H132 1.102936 1_555
C48 O0 1.456516 1_555
C49 H137 1.099109 1_555
C49 H133 1.102936 1_555
C49 O1 1.456516 1_555
C50 H138 1.099109 1_555
C50 H134 1.102936 1_555
C50 O2 1.456516 1_555
C51 H139 1.099109 1_555
C51 H135 1.102936 1_555
C51 O3 1.456516 1_555
Cl0 Zn0 2.406988 1_555
Cl0 Zn2 2.434214 1_555
Cl1 Zn1 2.406988 1_445
Cl1 Zn3 2.434214 1_556
Cl2 Zn2 2.406988 1_555
Cl2 Zn0 2.434214 1_555
Cl3 Zn3 2.406988 1_665
Cl3 Zn1 2.434214 1_554
O0 Zn0 2.336160 1_555
O1 Zn1 2.336160 1_545
O2 Zn2 2.336160 1_555
O3 Zn3 2.336160 1_565
