# generated using pymatgen
data_Rb2Ni3Se2
_symmetry_space_group_name_H-M   'P 1'
_cell_length_a   10.86511370
_cell_length_b   7.81875139
_cell_length_c   16.84711085
_cell_angle_alpha   77.05295549
_cell_angle_beta   71.18810465
_cell_angle_gamma   45.98781748
_symmetry_Int_Tables_number   1
_chemical_formula_structural   Rb2Ni3Se2
_chemical_formula_sum   'Rb8 Ni12 Se8'
_cell_volume   974.31728021
_cell_formula_units_Z   4
loop_
 _symmetry_equiv_pos_site_id
 _symmetry_equiv_pos_as_xyz
  1  'x, y, z'
loop_
 _atom_site_type_symbol
 _atom_site_label
 _atom_site_symmetry_multiplicity
 _atom_site_fract_x
 _atom_site_fract_y
 _atom_site_fract_z
 _atom_site_occupancy
  Rb  Rb0  1  0.60036940  0.13124820  0.11377657  1
  Rb  Rb1  1  0.28585403  0.86875180  0.11377657  1
  Rb  Rb2  1  0.26838240  0.13124820  0.88622343  1
  Rb  Rb3  1  0.14963060  0.36875180  0.38622343  1
  Rb  Rb4  1  0.84539417  0.86875180  0.88622343  1
  Rb  Rb5  1  0.46414597  0.63124820  0.38622343  1
  Rb  Rb6  1  0.48161760  0.36875180  0.61377657  1
  Rb  Rb7  1  0.90460583  0.63124820  0.61377657  1
  Ni  Ni0  1  0.61415536  0.32789544  0.75962882  1
  Ni  Ni1  1  0.62621583  0.67210456  0.75962882  1
  Ni  Ni2  1  0.05794920  0.32789544  0.24037118  1
  Ni  Ni3  1  0.13584464  0.17210456  0.74037118  1
  Ni  Ni4  1  0.70167962  0.67210456  0.24037118  1
  Ni  Ni5  1  0.12378417  0.82789544  0.74037118  1
  Ni  Ni6  1  0.69205080  0.17210456  0.25962882  1
  Ni  Ni7  1  0.04832038  0.82789544  0.25962882  1
  Ni  Ni8  1  0.87500000  0.25000000  0.25000000  1
  Ni  Ni9  1  0.87500000  0.75000000  0.25000000  1
  Ni  Ni10  1  0.87500000  0.25000000  0.75000000  1
  Ni  Ni11  1  0.37500000  0.75000000  0.75000000  1
  Se  Se0  1  0.65892826  0.48158986  0.17983813  1
  Se  Se1  1  0.16123361  0.51841014  0.17983813  1
  Se  Se2  1  0.85948188  0.48158986  0.82016187  1
  Se  Se3  1  0.09107174  0.01841014  0.32016187  1
  Se  Se4  1  0.32035625  0.51841014  0.82016187  1
  Se  Se5  1  0.58876639  0.98158986  0.32016187  1
  Se  Se6  1  0.89051812  0.01841014  0.67983813  1
  Se  Se7  1  0.42964375  0.98158986  0.67983813  1
loop_
_geom_bond_atom_site_label_1
_geom_bond_atom_site_label_2
_geom_bond_distance
_geom_bond_site_symmetry_2
Rb0 Se1 3.343871 1_555
Rb0 Se5 3.402028 1_545
Rb0 Se0 3.659442 1_555
Rb0 Rb4 3.917548 1_544
Rb1 Se0 3.343871 1_555
Rb1 Se3 3.402028 1_565
Rb1 Se1 3.659442 1_555
Rb1 Rb2 3.917548 1_564
Rb2 Se4 3.343871 1_555
Rb2 Se7 3.402028 1_545
Rb2 Se2 3.659442 1_455
Rb3 Se5 3.343871 1_545
Rb3 Se1 3.402028 1_555
Rb3 Se3 3.659442 1_555
Rb3 Rb7 3.917548 1_455
Rb4 Se2 3.343871 1_555
Rb4 Se6 3.402028 1_565
Rb4 Se4 3.659442 1_655
Rb5 Se3 3.343871 1_565
Rb5 Se0 3.402028 1_555
Rb5 Se5 3.659442 1_555
Rb5 Rb6 3.917548 1_555
Rb6 Se7 3.343871 1_545
Rb6 Se4 3.402028 1_555
Rb6 Se6 3.659442 1_555
Rb7 Se6 3.343871 1_565
Rb7 Se2 3.402028 1_555
Rb7 Se7 3.659442 1_555
Ni0 Se4 2.328591 1_555
Ni0 Se6 2.331559 1_555
Ni0 Ni10 2.403863 1_555
Ni0 Ni11 2.405273 1_555
Ni0 Rb6 3.082951 1_555
Ni0 Rb4 3.352585 1_545
Ni1 Se2 2.328591 1_555
Ni1 Se7 2.331559 1_555
Ni1 Ni11 2.403863 1_555
Ni1 Ni10 2.405273 1_555
Ni1 Rb7 3.082951 1_555
Ni1 Rb2 3.352585 1_565
Ni2 Se1 2.328591 1_555
Ni2 Se3 2.331559 1_555
Ni2 Ni8 2.403863 1_455
Ni2 Ni9 2.405273 1_455
Ni2 Rb3 3.082951 1_555
Ni2 Rb1 3.352585 1_545
Ni3 Se7 2.328591 1_545
Ni3 Se2 2.331559 1_455
Ni3 Rb2 3.082951 1_555
Ni3 Rb7 3.352585 1_455
Ni4 Se0 2.328591 1_555
Ni4 Se5 2.331559 1_555
Ni4 Ni9 2.403863 1_555
Ni4 Ni8 2.405273 1_555
Ni4 Rb5 3.082951 1_555
Ni4 Rb0 3.352585 1_565
Ni5 Se6 2.328591 1_465
Ni5 Se4 2.331559 1_555
Ni5 Rb4 3.082951 1_455
Ni5 Rb6 3.352585 1_555
Ni6 Se5 2.328591 1_545
Ni6 Se0 2.331559 1_555
Ni6 Ni8 2.403863 1_555
Ni6 Ni9 2.405273 1_545
Ni6 Rb0 3.082951 1_555
Ni6 Rb5 3.352585 1_555
Ni7 Se3 2.328591 1_565
Ni7 Se1 2.331559 1_555
Ni7 Ni9 2.403863 1_455
Ni7 Ni8 2.405273 1_465
Ni7 Rb1 3.082951 1_555
Ni7 Rb3 3.352585 1_555
Ni8 Se0 2.260687 1_555
Ni8 Se3 2.260687 1_655
Ni8 Rb1 3.470867 1_645
Ni8 Rb5 3.470867 1_555
Ni9 Se1 2.260687 1_655
Ni9 Se5 2.260687 1_555
Ni9 Rb3 3.470867 1_655
Ni9 Rb0 3.470867 1_565
Ni10 Se6 2.260687 1_555
Ni10 Se2 2.260687 1_555
Ni10 Ni3 2.403863 1_655
Ni10 Ni5 2.405273 1_645
Ni10 Rb7 3.470867 1_555
Ni10 Rb4 3.470867 1_545
Ni11 Se7 2.260687 1_555
Ni11 Se4 2.260687 1_555
Ni11 Ni5 2.403863 1_555
Ni11 Ni3 2.405273 1_565
Ni11 Rb2 3.470867 1_565
Ni11 Rb6 3.470867 1_555
