# generated using pymatgen
data_K30Ga9Sb19
_symmetry_space_group_name_H-M   'P 1'
_cell_length_a   16.48861919
_cell_length_b   18.88958791
_cell_length_c   18.88923641
_cell_angle_alpha   111.90149669
_cell_angle_beta   106.91775311
_cell_angle_gamma   106.91772587
_symmetry_Int_Tables_number   1
_chemical_formula_structural   K30Ga9Sb19
_chemical_formula_sum   'K60 Ga18 Sb38'
_cell_volume   4663.52760137
_cell_formula_units_Z   2
loop_
 _symmetry_equiv_pos_site_id
 _symmetry_equiv_pos_as_xyz
  1  'x, y, z'
loop_
 _atom_site_type_symbol
 _atom_site_label
 _atom_site_symmetry_multiplicity
 _atom_site_fract_x
 _atom_site_fract_y
 _atom_site_fract_z
 _atom_site_occupancy
  K  K0  1  0.74993109  0.33328653  0.66664640  1
  K  K1  1  0.41669649  0.33335238  0.66665970  1
  K  K2  1  0.08331321  0.33332019  0.66659635  1
  K  K3  1  0.91673591  0.66671347  0.33335360  1
  K  K4  1  0.58335379  0.66667981  0.33340365  1
  K  K5  1  0.24996951  0.66664762  0.33334030  1
  K  K6  1  0.58762807  0.12038621  0.39312997  1
  K  K7  1  0.25471980  0.12050926  0.39365571  1
  K  K8  1  0.92152752  0.12039263  0.39311336  1
  K  K9  1  0.80117208  0.27272791  0.87962344  1
  K  K10  1  0.46722279  0.27272866  0.87961383  1
  K  K11  1  0.13420271  0.27311718  0.87951123  1
  K  K12  1  0.86104044  0.60637750  0.72684089  1
  K  K13  1  0.52848394  0.60693865  0.72733204  1
  K  K14  1  0.19451494  0.60687288  0.72726963  1
  K  K15  1  0.07903893  0.87961379  0.60687003  1
  K  K16  1  0.74513948  0.87960737  0.60688664  1
  K  K17  1  0.41194620  0.87949074  0.60634429  1
  K  K18  1  0.86549492  0.72727209  0.12037656  1
  K  K19  1  0.53246329  0.72688282  0.12048877  1
  K  K20  1  0.19944421  0.72727134  0.12038617  1
  K  K21  1  0.80562556  0.39362250  0.27315911  1
  K  K22  1  0.47215206  0.39312712  0.27273037  1
  K  K23  1  0.13818306  0.39306135  0.27266796  1
  K  K24  1  0.69519361  0.00607307  0.81665742  1
  K  K25  1  0.35350220  0.00618820  0.81673999  1
  K  K26  1  0.02287202  0.00636068  0.81248533  1
  K  K27  1  0.01650285  0.80614003  0.99363391  1
  K  K28  1  0.68909755  0.81057516  0.99393841  1
  K  K29  1  0.34725950  0.81054921  0.99380983  1
  K  K30  1  0.53676535  0.18328821  0.18941814  1
  K  K31  1  0.21037412  0.18748951  0.19387502  1
  K  K32  1  0.87851808  0.18329589  0.18937280  1
  K  K33  1  0.97147339  0.99392693  0.18334258  1
  K  K34  1  0.64379398  0.99363932  0.18751467  1
  K  K35  1  0.31316480  0.99381180  0.18326001  1
  K  K36  1  0.65016315  0.19385997  0.00636609  1
  K  K37  1  0.31940750  0.18945079  0.00619017  1
  K  K38  1  0.97756945  0.18942484  0.00606159  1
  K  K39  1  0.12990165  0.81671179  0.81058186  1
  K  K40  1  0.78814892  0.81670411  0.81062720  1
  K  K41  1  0.45629188  0.81251049  0.80612498  1
  K  K42  1  0.97634606  0.06571487  0.61343663  1
  K  K43  1  0.30973973  0.06566871  0.61388336  1
  K  K44  1  0.64324032  0.06557604  0.61381939  1
  K  K45  1  0.24406289  0.54820203  0.93437826  1
  K  K46  1  0.57760949  0.54822106  0.93441843  1
  K  K47  1  0.91065884  0.54770885  0.93427888  1
  K  K48  1  0.02937255  0.38617748  0.45175451  1
  K  K49  1  0.36293958  0.38658284  0.45231902  1
  K  K50  1  0.69582293  0.38611113  0.45177039  1
  K  K51  1  0.35692727  0.93433129  0.38611664  1
  K  K52  1  0.69032094  0.93428513  0.38656337  1
  K  K53  1  0.02342568  0.93442396  0.38618061  1
  K  K54  1  0.08905651  0.45177894  0.06558157  1
  K  K55  1  0.42260411  0.45179797  0.06562174  1
  K  K56  1  0.75600816  0.45229115  0.06572112  1
  K  K57  1  0.30372742  0.61341716  0.54768098  1
  K  K58  1  0.63729345  0.61382252  0.54824549  1
  K  K59  1  0.97084407  0.61388887  0.54822961  1
  Ga  Ga0  1  0.76812856  0.77696649  0.28046162  1
  Ga  Ga1  1  0.43668793  0.77673239  0.28044319  1
  Ga  Ga2  1  0.10224669  0.77699660  0.27967562  1
  Ga  Ga3  1  0.65996528  0.50371134  0.22328076  1
  Ga  Ga4  1  0.32525831  0.50267708  0.22298191  1
  Ga  Ga5  1  0.99117913  0.50347624  0.22303367  1
  Ga  Ga6  1  0.82259132  0.72031569  0.49732622  1
  Ga  Ga7  1  0.48769363  0.71955360  0.49653255  1
  Ga  Ga8  1  0.15625405  0.71955915  0.49629555  1
  Ga  Ga9  1  0.89853844  0.22303351  0.71953838  1
  Ga  Ga10  1  0.56441931  0.22300340  0.72032438  1
  Ga  Ga11  1  0.22997907  0.22326761  0.71955681  1
  Ga  Ga12  1  0.00670172  0.49628866  0.77671924  1
  Ga  Ga13  1  0.67548787  0.49652376  0.77696633  1
  Ga  Ga14  1  0.34140769  0.49732292  0.77701809  1
  Ga  Ga15  1  0.84407468  0.27968431  0.50267378  1
  Ga  Ga16  1  0.51041295  0.28044085  0.50370445  1
  Ga  Ga17  1  0.17897337  0.28044640  0.50346745  1
  Sb  Sb0  1  0.78726762  0.88684331  0.22791569  1
  Sb  Sb1  1  0.45571629  0.88670572  0.22793389  1
  Sb  Sb2  1  0.12159309  0.88762660  0.22721114  1
  Sb  Sb3  1  0.56901030  0.34121104  0.11327956  1
  Sb  Sb4  1  0.23395852  0.33959070  0.11234844  1
  Sb  Sb5  1  0.90044049  0.34107201  0.11312099  1
  Sb  Sb6  1  0.89433976  0.77277293  0.66040938  1
  Sb  Sb7  1  0.55933678  0.77211763  0.65893338  1
  Sb  Sb8  1  0.22776229  0.77205999  0.65876757  1
  Sb  Sb9  1  0.87939938  0.11315669  0.77208431  1
  Sb  Sb10  1  0.54507391  0.11237340  0.77278886  1
  Sb  Sb11  1  0.21094971  0.11329428  0.77206611  1
  Sb  Sb12  1  0.09765570  0.65878896  0.88672044  1
  Sb  Sb13  1  0.76622651  0.65892799  0.88687901  1
  Sb  Sb14  1  0.43270848  0.66040930  0.88765156  1
  Sb  Sb15  1  0.77232724  0.22722707  0.33959062  1
  Sb  Sb16  1  0.43890371  0.22794001  0.34123243  1
  Sb  Sb17  1  0.10733022  0.22788237  0.34106662  1
  Sb  Sb18  1  0.84604837  0.83829082  0.44940892  1
  Sb  Sb19  1  0.51227949  0.83798044  0.44922645  1
  Sb  Sb20  1  0.17912350  0.83827480  0.44888119  1
  Sb  Sb21  1  0.67425717  0.61124595  0.16204006  1
  Sb  Sb22  1  0.34083263  0.61062727  0.16174145  1
  Sb  Sb23  1  0.00775307  0.61112189  0.16170755  1
  Sb  Sb24  1  0.73025586  0.55105931  0.38935569  1
  Sb  Sb25  1  0.39666311  0.55054526  0.38888807  1
  Sb  Sb26  1  0.06303304  0.55074480  0.38876848  1
  Sb  Sb27  1  0.82061863  0.16170918  0.55059108  1
  Sb  Sb28  1  0.48754250  0.16172520  0.55111881  1
  Sb  Sb29  1  0.15438751  0.16201956  0.55077355  1
  Sb  Sb30  1  0.99240983  0.38875405  0.83795994  1
  Sb  Sb31  1  0.65891393  0.38887811  0.83829245  1
  Sb  Sb32  1  0.32583337  0.38937273  0.83825855  1
  Sb  Sb33  1  0.93641014  0.44894069  0.61064431  1
  Sb  Sb34  1  0.60363396  0.44925520  0.61123152  1
  Sb  Sb35  1  0.27000389  0.44945474  0.61111193  1
  Sb  Sb36  1  0.83333300  -0.00000000  -0.00000000  1
  Sb  Sb37  1  0.33333300  -0.00000000  -0.00000000  1
loop_
_geom_bond_atom_site_label_1
_geom_bond_atom_site_label_2
_geom_bond_distance
_geom_bond_site_symmetry_2
K0 Sb34 3.876829 1_555
K0 Sb28 3.879649 1_555
K0 Sb27 3.879891 1_555
K0 Sb33 3.879904 1_555
K0 Sb30 3.880364 1_555
K0 Sb31 3.882823 1_555
K1 Sb29 3.876932 1_555
K1 Sb28 3.879111 1_555
K1 Sb31 3.879556 1_555
K1 Sb34 3.879573 1_555
K1 Sb32 3.880856 1_555
K1 Sb35 3.884337 1_555
K2 Sb30 3.876765 1_455
K2 Sb29 3.879191 1_555
K2 Sb35 3.879350 1_555
K2 Sb32 3.879949 1_555
K2 Sb33 3.881385 1_455
K2 Sb27 3.882850 1_455
K3 Sb26 3.876829 1_655
K3 Sb20 3.879638 1_655
K3 Sb18 3.879891 1_555
K3 Sb24 3.879915 1_555
K3 Sb21 3.880364 1_555
K3 Sb23 3.882823 1_655
K4 Sb21 3.876765 1_555
K4 Sb19 3.879191 1_555
K4 Sb25 3.879350 1_555
K4 Sb22 3.879960 1_555
K4 Sb24 3.881373 1_555
K4 Sb18 3.882850 1_555
K5 Sb19 3.876944 1_555
K5 Sb20 3.879111 1_555
K5 Sb23 3.879544 1_555
K5 Sb26 3.879562 1_555
K5 Sb22 3.880856 1_555
K5 Sb25 3.884349 1_555
K6 Sb27 3.753273 1_555
K6 Sb16 3.753458 1_555
K6 Sb15 3.756134 1_555
K6 Sb28 3.757248 1_555
K6 Sb1 3.760179 1_545
K7 Sb17 3.738103 1_555
K7 Sb16 3.739556 1_555
K7 Sb29 3.746478 1_555
K7 Sb28 3.752042 1_555
K7 Sb2 3.755046 1_545
K8 Sb29 3.751057 1_655
K8 Sb17 3.754576 1_655
K8 Sb15 3.756431 1_555
K8 Sb0 3.758488 1_545
K8 Sb27 3.759024 1_555
K9 Sb30 3.751628 1_555
K9 Sb9 3.754397 1_555
K9 Sb10 3.756974 1_555
K9 Sb5 3.757631 1_556
K9 Sb31 3.759331 1_555
K10 Sb11 3.753108 1_555
K10 Sb31 3.753733 1_555
K10 Sb10 3.755693 1_555
K10 Sb32 3.756828 1_555
K10 Sb3 3.759938 1_556
K11 Sb9 3.738286 1_455
K11 Sb11 3.739240 1_555
K11 Sb30 3.746553 1_455
K11 Sb32 3.752968 1_555
K11 Sb4 3.754112 1_556
K12 Sb13 3.739383 1_555
K12 Sb12 3.739798 1_655
K12 Sb34 3.745763 1_555
K12 Sb33 3.751653 1_555
K12 Sb6 3.754257 1_555
K13 Sb34 3.751431 1_555
K13 Sb13 3.753606 1_555
K13 Sb14 3.756926 1_555
K13 Sb7 3.758937 1_555
K13 Sb35 3.759929 1_555
K14 Sb35 3.752573 1_555
K14 Sb12 3.753862 1_555
K14 Sb14 3.755493 1_555
K14 Sb33 3.757162 1_455
K14 Sb8 3.760400 1_555
K15 Sb18 3.753273 1_455
K15 Sb8 3.753446 1_555
K15 Sb6 3.756134 1_455
K15 Sb20 3.757236 1_555
K15 Sb11 3.760179 1_565
K16 Sb19 3.751057 1_555
K16 Sb7 3.754576 1_555
K16 Sb6 3.756431 1_555
K16 Sb9 3.758488 1_565
K16 Sb18 3.759024 1_555
K17 Sb7 3.738115 1_555
K17 Sb8 3.739556 1_555
K17 Sb19 3.746490 1_555
K17 Sb20 3.752042 1_555
K17 Sb10 3.755046 1_565
K18 Sb21 3.751628 1_555
K18 Sb0 3.754397 1_555
K18 Sb2 3.756974 1_655
K18 Sb13 3.757631 1_554
K18 Sb23 3.759331 1_655
K19 Sb0 3.738298 1_555
K19 Sb1 3.739240 1_555
K19 Sb21 3.746565 1_555
K19 Sb22 3.752968 1_555
K19 Sb14 3.754112 1_554
K20 Sb1 3.753096 1_555
K20 Sb23 3.753733 1_555
K20 Sb2 3.755693 1_555
K20 Sb22 3.756816 1_555
K20 Sb12 3.759938 1_554
K21 Sb5 3.739395 1_555
K21 Sb3 3.739798 1_555
K21 Sb26 3.745776 1_655
K21 Sb24 3.751653 1_555
K21 Sb15 3.754257 1_555
K22 Sb25 3.752573 1_555
K22 Sb3 3.753850 1_555
K22 Sb4 3.755493 1_555
K22 Sb24 3.757150 1_555
K22 Sb16 3.760400 1_555
K23 Sb26 3.751431 1_555
K23 Sb5 3.753606 1_455
K23 Sb4 3.756926 1_555
K23 Sb17 3.758937 1_555
K23 Sb25 3.759929 1_555
K24 Sb36 3.612824 1_556
K24 Sb9 3.634400 1_555
K24 Sb10 3.712919 1_555
K24 Sb7 3.735818 1_545
K25 Sb37 3.613374 1_556
K25 Sb11 3.635544 1_555
K25 Sb10 3.710967 1_555
K25 Sb8 3.738931 1_545
K26 Sb9 3.622663 1_455
K26 Sb11 3.628076 1_555
K26 Sb6 3.710930 1_445
K27 Sb13 3.622660 1_455
K27 Sb12 3.628104 1_555
K27 Sb2 3.710815 1_556
K28 Sb36 3.613254 1_566
K28 Sb13 3.634274 1_555
K28 Sb14 3.712328 1_555
K28 Sb0 3.736044 1_556
K29 Sb37 3.613148 1_566
K29 Sb12 3.634593 1_555
K29 Sb14 3.711694 1_555
K29 Sb1 3.738868 1_556
K30 Sb37 3.613157 1_555
K30 Sb16 3.635835 1_555
K30 Sb15 3.711689 1_555
K30 Sb3 3.737992 1_555
K31 Sb17 3.622211 1_555
K31 Sb16 3.628191 1_555
K31 Sb4 3.711699 1_555
K32 Sb36 3.612027 1_555
K32 Sb17 3.634883 1_655
K32 Sb15 3.713000 1_555
K32 Sb5 3.737117 1_555
K33 Sb36 3.612830 1_565
K33 Sb0 3.634400 1_555
K33 Sb2 3.712919 1_655
K33 Sb17 3.735818 1_665
K34 Sb0 3.622675 1_555
K34 Sb1 3.628076 1_555
K34 Sb15 3.710930 1_565
K35 Sb37 3.613368 1_565
K35 Sb1 3.635532 1_555
K35 Sb2 3.710967 1_555
K35 Sb16 3.738931 1_565
K36 Sb5 3.622673 1_555
K36 Sb3 3.628104 1_555
K36 Sb10 3.710815 1_554
K37 Sb37 3.613142 1_555
K37 Sb3 3.634581 1_555
K37 Sb4 3.711694 1_555
K37 Sb11 3.738868 1_554
K38 Sb36 3.613260 1_555
K38 Sb5 3.634274 1_555
K38 Sb4 3.712328 1_655
K38 Sb9 3.736044 1_554
K39 Sb37 3.613151 1_566
K39 Sb8 3.635823 1_555
K39 Sb6 3.711689 1_455
K39 Sb12 3.737992 1_555
K40 Sb36 3.612033 1_566
K40 Sb7 3.634883 1_555
K40 Sb6 3.713000 1_555
K40 Sb13 3.737117 1_555
K41 Sb7 3.622223 1_555
K41 Sb8 3.628191 1_555
K41 Sb14 3.711699 1_555
K42 Sb18 3.673579 1_545
K42 Sb27 3.719158 1_555
K42 Sb29 3.721434 1_655
K42 Sb9 3.735902 1_555
K42 Sb11 3.737841 1_655
K43 Sb20 3.677589 1_545
K43 Sb28 3.718153 1_555
K43 Sb29 3.721536 1_555
K43 Sb11 3.751093 1_555
K43 Sb10 3.754780 1_555
K44 Sb19 3.678333 1_545
K44 Sb27 3.719938 1_555
K44 Sb28 3.720338 1_555
K44 Sb9 3.753842 1_555
K44 Sb10 3.754930 1_555
K45 Sb22 3.676913 1_556
K45 Sb32 3.718987 1_555
K45 Sb30 3.720492 1_455
K45 Sb12 3.751632 1_555
K45 Sb14 3.755426 1_555
K46 Sb21 3.678698 1_556
K46 Sb32 3.719249 1_555
K46 Sb31 3.720438 1_555
K46 Sb13 3.754065 1_555
K46 Sb14 3.754292 1_555
K47 Sb23 3.673595 1_656
K47 Sb31 3.719221 1_555
K47 Sb30 3.721582 1_555
K47 Sb13 3.736447 1_555
K47 Sb12 3.737588 1_655
K48 Sb26 3.677820 1_555
K48 Sb35 3.719796 1_555
K48 Sb33 3.720688 1_455
K48 Sb15 3.753548 1_455
K48 Sb17 3.755229 1_555
K49 Sb25 3.673038 1_555
K49 Sb35 3.719168 1_555
K49 Sb34 3.720721 1_555
K49 Sb17 3.736087 1_555
K49 Sb16 3.738341 1_555
K50 Sb24 3.677092 1_555
K50 Sb33 3.718270 1_555
K50 Sb34 3.720984 1_555
K50 Sb16 3.750208 1_555
K50 Sb15 3.755469 1_555
K51 Sb28 3.677589 1_565
K51 Sb20 3.718165 1_555
K51 Sb19 3.721536 1_555
K51 Sb1 3.751081 1_555
K51 Sb2 3.754780 1_555
K52 Sb27 3.673579 1_565
K52 Sb18 3.719158 1_555
K52 Sb19 3.721434 1_555
K52 Sb0 3.735902 1_555
K52 Sb1 3.737853 1_555
K53 Sb29 3.678333 1_565
K53 Sb18 3.719926 1_455
K53 Sb20 3.720338 1_555
K53 Sb0 3.753829 1_455
K53 Sb2 3.754942 1_555
K54 Sb30 3.678698 1_454
K54 Sb22 3.719249 1_555
K54 Sb23 3.720426 1_555
K54 Sb5 3.754053 1_455
K54 Sb4 3.754304 1_555
K55 Sb32 3.676913 1_554
K55 Sb22 3.718999 1_555
K55 Sb21 3.720492 1_555
K55 Sb3 3.751620 1_555
K55 Sb4 3.755426 1_555
K56 Sb31 3.673595 1_554
K56 Sb23 3.719221 1_655
K56 Sb21 3.721582 1_555
K56 Sb5 3.736447 1_555
K56 Sb3 3.737600 1_555
K57 Sb35 3.673038 1_555
K57 Sb25 3.719168 1_555
K57 Sb26 3.720721 1_555
K57 Sb7 3.736087 1_555
K57 Sb8 3.738353 1_555
K58 Sb34 3.677820 1_555
K58 Sb25 3.719784 1_555
K58 Sb24 3.720688 1_555
K58 Sb6 3.753560 1_555
K58 Sb7 3.755217 1_555
K59 Sb33 3.677092 1_555
K59 Sb24 3.718282 1_555
K59 Sb26 3.720984 1_655
K59 Sb8 3.750196 1_655
K59 Sb6 3.755469 1_555
Ga0 Sb0 2.594325 1_555
Ga0 Sb21 2.672055 1_555
Ga0 Sb18 2.677040 1_555
Ga0 K52 3.710220 1_555
Ga0 K53 3.734164 1_655
Ga0 K19 3.744257 1_555
Ga0 K18 3.766609 1_555
Ga0 K4 3.775689 1_555
Ga0 K3 3.799627 1_555
Ga1 Sb1 2.595485 1_555
Ga1 Sb19 2.674481 1_555
Ga1 Sb22 2.678284 1_555
Ga1 K52 3.713734 1_555
Ga1 K51 3.734930 1_555
Ga1 K19 3.745589 1_555
Ga1 K20 3.768071 1_555
Ga1 K4 3.773590 1_555
Ga1 K5 3.796776 1_555
Ga2 Sb2 2.606138 1_555
Ga2 Sb23 2.672074 1_555
Ga2 Sb20 2.681461 1_555
Ga2 K51 3.724826 1_555
Ga2 K53 3.726583 1_555
Ga2 K20 3.752088 1_555
Ga2 K18 3.754549 1_455
Ga2 K3 3.794260 1_455
Ga2 K5 3.794676 1_555
Ga3 Sb3 2.595726 1_555
Ga3 Sb21 2.674483 1_555
Ga3 Sb24 2.678003 1_555
Ga3 K56 3.713566 1_555
Ga3 K55 3.735269 1_555
Ga3 K21 3.745923 1_555
Ga3 K22 3.768322 1_555
Ga3 K3 3.773910 1_555
Ga3 K4 3.796658 1_555
Ga4 Sb4 2.605942 1_555
Ga4 Sb25 2.672790 1_555
Ga4 Sb22 2.681427 1_555
Ga4 K55 3.725398 1_555
Ga4 K54 3.725767 1_555
Ga4 K22 3.751643 1_555
Ga4 K23 3.755062 1_555
Ga4 K4 3.794572 1_555
Ga4 K5 3.795678 1_555
Ga5 Sb5 2.594106 1_555
Ga5 Sb26 2.672441 1_655
Ga5 Sb23 2.677555 1_655
Ga5 K56 3.710719 1_555
Ga5 K54 3.734669 1_655
Ga5 K21 3.744318 1_555
Ga5 K23 3.766013 1_655
Ga5 K3 3.775560 1_555
Ga5 K5 3.798629 1_655
Ga6 Sb6 2.605868 1_555
Ga6 Sb18 2.672441 1_555
Ga6 Sb24 2.682311 1_555
Ga6 K59 3.725023 1_555
Ga6 K58 3.726031 1_555
Ga6 K15 3.751483 1_655
Ga6 K16 3.754550 1_555
Ga6 K4 3.794681 1_555
Ga6 K3 3.794951 1_555
Ga7 Sb7 2.593782 1_555
Ga7 Sb19 2.672348 1_555
Ga7 Sb25 2.677978 1_555
Ga7 K57 3.710187 1_555
Ga7 K58 3.734695 1_555
Ga7 K17 3.744139 1_555
Ga7 K16 3.766231 1_555
Ga7 K5 3.775594 1_555
Ga7 K4 3.798670 1_555
Ga8 Sb8 2.595232 1_555
Ga8 Sb26 2.674910 1_555
Ga8 Sb20 2.678775 1_555
Ga8 K57 3.713562 1_555
Ga8 K59 3.734645 1_455
Ga8 K17 3.744895 1_555
Ga8 K15 3.768443 1_555
Ga8 K5 3.772711 1_555
Ga8 K3 3.795502 1_455
Ga9 Sb9 2.594325 1_555
Ga9 Sb30 2.672055 1_555
Ga9 Sb27 2.677040 1_555
Ga9 K42 3.710220 1_555
Ga9 K44 3.734177 1_555
Ga9 K11 3.744245 1_655
Ga9 K9 3.766609 1_555
Ga9 K2 3.775689 1_655
Ga9 K0 3.799627 1_555
Ga10 Sb10 2.606138 1_555
Ga10 Sb31 2.672074 1_555
Ga10 Sb28 2.681461 1_555
Ga10 K43 3.724814 1_555
Ga10 K44 3.726583 1_555
Ga10 K10 3.752076 1_555
Ga10 K9 3.754561 1_555
Ga10 K0 3.794272 1_555
Ga10 K1 3.794676 1_555
Ga11 Sb11 2.595485 1_555
Ga11 Sb29 2.674481 1_555
Ga11 Sb32 2.678284 1_555
Ga11 K42 3.713734 1_455
Ga11 K43 3.734930 1_555
Ga11 K11 3.745601 1_555
Ga11 K10 3.768071 1_555
Ga11 K2 3.773590 1_555
Ga11 K1 3.796764 1_555
Ga12 Sb12 2.595726 1_555
Ga12 Sb30 2.674483 1_455
Ga12 Sb33 2.678003 1_455
Ga12 K47 3.713566 1_455
Ga12 K45 3.735269 1_555
Ga12 K12 3.745935 1_455
Ga12 K14 3.768322 1_555
Ga12 K0 3.773910 1_455
Ga12 K2 3.796658 1_555
Ga13 Sb13 2.594106 1_555
Ga13 Sb34 2.672441 1_555
Ga13 Sb31 2.677555 1_555
Ga13 K47 3.710719 1_555
Ga13 K46 3.734682 1_555
Ga13 K12 3.744306 1_555
Ga13 K13 3.766013 1_555
Ga13 K0 3.775560 1_555
Ga13 K1 3.798641 1_555
Ga14 Sb14 2.605942 1_555
Ga14 Sb35 2.672790 1_555
Ga14 Sb32 2.681427 1_555
Ga14 K45 3.725386 1_555
Ga14 K46 3.725767 1_555
Ga14 K14 3.751631 1_555
Ga14 K13 3.755074 1_555
Ga14 K2 3.794560 1_555
Ga14 K1 3.795678 1_555
Ga15 Sb15 2.605868 1_555
Ga15 Sb27 2.672441 1_555
Ga15 Sb33 2.682311 1_555
Ga15 K50 3.725011 1_555
Ga15 K48 3.726031 1_655
Ga15 K6 3.751471 1_555
Ga15 K8 3.754562 1_555
Ga15 K2 3.794693 1_655
Ga15 K0 3.794939 1_555
Ga16 Sb16 2.595232 1_555
Ga16 Sb34 2.674910 1_555
Ga16 Sb28 2.678775 1_555
Ga16 K49 3.713562 1_555
Ga16 K50 3.734645 1_555
Ga16 K7 3.744907 1_555
Ga16 K6 3.768443 1_555
Ga16 K1 3.772723 1_555
Ga16 K0 3.795502 1_555
Ga17 Sb17 2.593782 1_555
Ga17 Sb29 2.672348 1_555
Ga17 Sb35 2.677978 1_555
Ga17 K49 3.710187 1_555
Ga17 K48 3.734708 1_555
Ga17 K7 3.744127 1_555
Ga17 K8 3.766231 1_455
Ga17 K1 3.775582 1_555
Ga17 K2 3.798670 1_555
