# generated using pymatgen
data_Yb2(Ga3Co)3
_symmetry_space_group_name_H-M   'P 1'
_cell_length_a   7.32068366
_cell_length_b   7.32068366
_cell_length_c   9.56059800
_cell_angle_alpha   90.00000000
_cell_angle_beta   90.00000000
_cell_angle_gamma   119.56203337
_symmetry_Int_Tables_number   1
_chemical_formula_structural   Yb2(Ga3Co)3
_chemical_formula_sum   'Yb4 Ga18 Co6'
_cell_volume   445.67548887
_cell_formula_units_Z   2
loop_
 _symmetry_equiv_pos_site_id
 _symmetry_equiv_pos_as_xyz
  1  'x, y, z'
loop_
 _atom_site_type_symbol
 _atom_site_label
 _atom_site_symmetry_multiplicity
 _atom_site_fract_x
 _atom_site_fract_y
 _atom_site_fract_z
 _atom_site_occupancy
  Yb  Yb0  1  0.33110400  0.00295600  0.25000000  1
  Yb  Yb1  1  0.99704400  0.66889600  0.75000000  1
  Yb  Yb2  1  0.66889600  0.99704400  0.75000000  1
  Yb  Yb3  1  0.00295600  0.33110400  0.25000000  1
  Ga  Ga0  1  0.33406300  0.00132200  0.93168900  1
  Ga  Ga1  1  0.99867800  0.66593700  0.06831100  1
  Ga  Ga2  1  0.33406300  0.00132200  0.56831100  1
  Ga  Ga3  1  0.99867800  0.66593700  0.43168900  1
  Ga  Ga4  1  0.66593700  0.99867800  0.06831100  1
  Ga  Ga5  1  0.00132200  0.33406300  0.93168900  1
  Ga  Ga6  1  0.66593700  0.99867800  0.43168900  1
  Ga  Ga7  1  0.00132200  0.33406300  0.56831100  1
  Ga  Ga8  1  0.66575700  0.66575700  0.94415200  1
  Ga  Ga9  1  0.33424300  0.33424300  0.05584800  1
  Ga  Ga10  1  0.66575700  0.66575700  0.55584800  1
  Ga  Ga11  1  0.33424300  0.33424300  0.44415200  1
  Ga  Ga12  1  0.11841100  0.11841100  0.75000000  1
  Ga  Ga13  1  0.88158900  0.88158900  0.25000000  1
  Ga  Ga14  1  0.44754700  0.66571300  0.25000000  1
  Ga  Ga15  1  0.33428700  0.55245300  0.75000000  1
  Ga  Ga16  1  0.55245300  0.33428700  0.75000000  1
  Ga  Ga17  1  0.66571300  0.44754700  0.25000000  1
  Co  Co0  1  0.00000000  0.00000000  0.00000000  1
  Co  Co1  1  0.00000000  0.00000000  0.50000000  1
  Co  Co2  1  0.32881600  0.67118400  0.00000000  1
  Co  Co3  1  0.32881600  0.67118400  0.50000000  1
  Co  Co4  1  0.67118400  0.32881600  0.00000000  1
  Co  Co5  1  0.67118400  0.32881600  0.50000000  1
loop_
_geom_bond_atom_site_label_1
_geom_bond_atom_site_label_2
_geom_bond_distance
_geom_bond_site_symmetry_2
Ga0 Ga9 2.710327 1_556
Ga0 Ga12 2.753133 1_555
Ga0 Ga4 2.766874 1_546
Ga0 Ga16 2.769411 1_555
Ga0 Ga1 2.795417 1_446
Ga0 Yb1 3.017006 1_445
Ga0 Yb2 3.017036 1_545
Ga0 Yb0 3.043386 1_556
Ga1 Ga8 2.710327 1_554
Ga1 Ga13 2.753133 1_555
Ga1 Ga5 2.766874 1_654
Ga1 Ga17 2.769411 1_555
Ga1 Yb0 3.017006 1_665
Ga1 Yb3 3.017036 1_655
Ga1 Yb1 3.043386 1_554
Ga2 Ga6 2.766874 1_545
Ga2 Ga3 2.795417 1_445
Ga2 Yb1 3.017006 1_445
Ga2 Yb2 3.017036 1_545
Ga2 Yb0 3.043386 1_555
Ga3 Ga7 2.766874 1_655
Ga3 Yb0 3.017006 1_665
Ga3 Yb3 3.017036 1_655
Ga3 Yb1 3.043386 1_555
Ga4 Ga8 2.710327 1_554
Ga4 Ga5 2.795417 1_664
Ga4 Yb3 3.017006 1_665
Ga4 Yb0 3.017036 1_565
Ga4 Yb2 3.043386 1_554
Ga5 Ga9 2.710327 1_556
Ga5 Yb2 3.017006 1_445
Ga5 Yb1 3.017036 1_455
Ga5 Yb3 3.043386 1_556
Ga6 Ga7 2.795417 1_665
Ga6 Yb3 3.017006 1_665
Ga6 Yb0 3.017036 1_565
Ga6 Yb2 3.043386 1_555
Ga7 Yb2 3.017006 1_445
Ga7 Yb1 3.017036 1_455
Ga7 Yb3 3.043386 1_555
Ga8 Ga9 2.666160 1_556
Ga8 Yb1 3.045139 1_555
Ga8 Yb2 3.045139 1_555
Ga9 Yb3 3.045139 1_555
Ga9 Yb0 3.045139 1_555
Ga10 Ga11 2.666160 1_555
Ga10 Ga3 2.710327 1_555
Ga10 Ga6 2.710327 1_555
Ga10 Ga16 2.834747 1_555
Ga10 Ga15 2.834747 1_555
Ga10 Yb1 3.045139 1_555
Ga10 Yb2 3.045139 1_555
Ga11 Ga7 2.710327 1_555
Ga11 Ga2 2.710327 1_555
Ga11 Ga14 2.834747 1_555
Ga11 Ga17 2.834747 1_555
Ga11 Yb3 3.045139 1_555
Ga11 Yb0 3.045139 1_555
Ga12 Ga7 2.753133 1_555
Ga12 Ga2 2.753133 1_555
Ga12 Ga5 2.753133 1_555
Ga12 Ga15 2.763875 1_555
Ga12 Ga16 2.763875 1_555
Ga12 Yb1 2.955248 1_445
Ga12 Yb2 2.955248 1_445
Ga13 Ga4 2.753133 1_555
Ga13 Ga3 2.753133 1_555
Ga13 Ga6 2.753133 1_555
Ga13 Ga14 2.763875 1_555
Ga13 Ga17 2.763875 1_555
Ga13 Yb3 2.955248 1_665
Ga13 Yb0 2.955248 1_665
Ga14 Ga17 2.760176 1_555
Ga14 Ga4 2.769411 1_555
Ga14 Ga6 2.769411 1_555
Ga14 Ga9 2.834747 1_555
Ga14 Yb3 2.954094 1_555
Ga14 Yb0 2.983036 1_565
Ga15 Ga16 2.760176 1_555
Ga15 Ga7 2.769411 1_555
Ga15 Ga5 2.769411 1_555
Ga15 Ga8 2.834747 1_555
Ga15 Yb2 2.954094 1_555
Ga15 Yb1 2.983036 1_455
Ga16 Ga2 2.769411 1_555
Ga16 Ga8 2.834747 1_555
Ga16 Yb1 2.954094 1_555
Ga16 Yb2 2.983036 1_545
Ga17 Ga3 2.769411 1_555
Ga17 Ga9 2.834747 1_555
Ga17 Yb0 2.954094 1_555
Ga17 Yb3 2.983036 1_655
Co0 Ga8 2.520276 1_444
Co0 Ga9 2.520276 1_555
Co0 Ga1 2.526674 1_445
Co0 Ga4 2.526674 1_445
Co0 Ga5 2.526674 1_554
Co0 Ga0 2.526674 1_554
Co0 Ga12 2.544448 1_554
Co0 Ga13 2.544448 1_445
Co1 Ga10 2.520276 1_445
Co1 Ga11 2.520276 1_555
Co1 Ga3 2.526674 1_445
Co1 Ga2 2.526674 1_555
Co1 Ga6 2.526674 1_445
Co1 Ga7 2.526674 1_555
Co1 Ga12 2.544448 1_555
Co1 Ga13 2.544448 1_445
Co2 Ga0 2.485458 1_564
Co2 Ga1 2.485458 1_455
Co2 Ga5 2.535130 1_554
Co2 Ga4 2.535130 1_555
Co2 Ga9 2.543162 1_555
Co2 Ga8 2.543162 1_554
Co2 Ga14 2.550346 1_555
Co2 Ga15 2.550346 1_554
Co3 Ga2 2.485458 1_565
Co3 Ga3 2.485458 1_455
Co3 Ga6 2.535130 1_555
Co3 Ga7 2.535130 1_555
Co3 Ga11 2.543162 1_555
Co3 Ga10 2.543162 1_555
Co3 Ga14 2.550346 1_555
Co3 Ga15 2.550346 1_555
Co4 Ga4 2.485458 1_545
Co4 Ga5 2.485458 1_654
Co4 Ga1 2.535130 1_555
Co4 Ga0 2.535130 1_554
Co4 Ga9 2.543162 1_555
Co4 Ga8 2.543162 1_554
Co4 Ga17 2.550346 1_555
Co4 Ga16 2.550346 1_554
Co5 Ga6 2.485458 1_545
Co5 Ga7 2.485458 1_655
Co5 Ga3 2.535130 1_555
Co5 Ga2 2.535130 1_555
Co5 Ga11 2.543162 1_555
Co5 Ga10 2.543162 1_555
Co5 Ga16 2.550346 1_555
Co5 Ga17 2.550346 1_555
