# generated using pymatgen
data_Li4FeTe(WO6)2
_symmetry_space_group_name_H-M   'P 1'
_cell_length_a   5.18868709
_cell_length_b   15.21156484
_cell_length_c   5.50572922
_cell_angle_alpha   85.42135617
_cell_angle_beta   90.06171478
_cell_angle_gamma   89.86125385
_symmetry_Int_Tables_number   1
_chemical_formula_structural   Li4FeTe(WO6)2
_chemical_formula_sum   'Li8 Fe2 Te2 W4 O24'
_cell_volume   433.16805125
_cell_formula_units_Z   2
loop_
 _symmetry_equiv_pos_site_id
 _symmetry_equiv_pos_as_xyz
  1  'x, y, z'
loop_
 _atom_site_type_symbol
 _atom_site_label
 _atom_site_symmetry_multiplicity
 _atom_site_fract_x
 _atom_site_fract_y
 _atom_site_fract_z
 _atom_site_occupancy
  Li  Li0  1  0.00380900  0.63408000  0.58566600  1
  Li  Li1  1  0.01013000  0.13541600  0.59893300  1
  Li  Li2  1  0.49564500  0.90451200  0.06792300  1
  Li  Li3  1  0.49504700  0.39975300  0.03996500  1
  Li  Li4  1  0.99272500  0.40277200  0.60105500  1
  Li  Li5  1  0.99768500  0.90360100  0.59196300  1
  Li  Li6  1  0.50040400  0.11251600  0.98143700  1
  Li  Li7  1  0.50702100  0.60069300  0.93262300  1
  Fe  Fe0  1  0.00560200  0.49854200  0.01645800  1
  Fe  Fe1  1  0.99723500  0.00427300  0.01342500  1
  Te  Te0  1  0.49510400  0.75167900  0.50280400  1
  Te  Te1  1  0.50335600  0.25451400  0.51771500  1
  W  W0  1  0.99110400  0.25142000  0.01490200  1
  W  W1  1  0.99331300  0.74980600  0.00949700  1
  W  W2  1  0.51283200  0.00255500  0.50126800  1
  W  W3  1  0.49760200  0.50112000  0.49778100  1
  O  O0  1  0.29642300  0.71219800  0.79556000  1
  O  O1  1  0.30908500  0.21248400  0.81603900  1
  O  O2  1  0.12156700  0.86421700  0.98315600  1
  O  O3  1  0.12777700  0.37061500  0.98763900  1
  O  O4  1  0.32262800  0.02018200  0.19172300  1
  O  O5  1  0.32798500  0.52967200  0.19255500  1
  O  O6  1  0.18956300  0.71493800  0.30858000  1
  O  O7  1  0.13632400  0.20981500  0.30611900  1
  O  O8  1  0.79632300  0.96246400  0.30665200  1
  O  O9  1  0.80348700  0.47302200  0.32113500  1
  O  O10  1  0.36564400  0.86884600  0.48470900  1
  O  O11  1  0.36349800  0.38429900  0.50762000  1
  O  O12  1  0.63890500  0.11709100  0.49748900  1
  O  O13  1  0.62689300  0.63224100  0.50734500  1
  O  O14  1  0.20472800  0.02100900  0.68235400  1
  O  O15  1  0.20939200  0.53251100  0.69317100  1
  O  O16  1  0.83262100  0.28308700  0.66840200  1
  O  O17  1  0.80330100  0.78172800  0.68983600  1
  O  O18  1  0.69660400  0.96405300  0.79365600  1
  O  O19  1  0.69764000  0.47786900  0.79782600  1
  O  O20  1  0.87671000  0.12899400  0.96274600  1
  O  O21  1  0.88695300  0.63087800  0.99097200  1
  O  O22  1  0.68182600  0.29023000  0.13438800  1
  O  O23  1  0.68551300  0.78150700  0.19171200  1
loop_
_geom_bond_atom_site_label_1
_geom_bond_atom_site_label_2
_geom_bond_distance
_geom_bond_site_symmetry_2
Li0 O15 1.928718 1_555
Li0 O13 2.002963 1_455
Li0 O6 2.116237 1_555
Li0 O0 2.297148 1_555
Li0 O21 2.309833 1_455
Li0 O17 2.579004 1_455
Li1 O7 2.005780 1_555
Li1 O14 2.030275 1_555
Li1 O12 2.030991 1_455
Li1 O20 2.114969 1_455
Li1 O1 2.331922 1_555
Li1 O16 2.483627 1_455
Li2 O18 1.994341 1_554
Li2 O2 2.100091 1_554
Li2 O4 2.133441 1_565
Li2 O23 2.173039 1_555
Li2 O8 2.264049 1_555
Li2 O10 2.412754 1_555
Li3 O22 1.959060 1_555
Li3 O3 1.983494 1_554
Li3 O19 2.012568 1_554
Li3 O5 2.370906 1_555
Li3 O9 2.545324 1_555
Li4 O16 2.010567 1_555
Li4 O11 2.016753 1_655
Li4 O9 2.051819 1_555
Li4 O19 2.239553 1_555
Li4 O3 2.255975 1_655
Li4 O15 2.363310 1_655
Li5 O8 2.031818 1_555
Li5 O10 2.078635 1_655
Li5 O17 2.143652 1_555
Li5 O18 2.163116 1_555
Li5 O14 2.177487 1_665
Li5 O2 2.280372 1_655
Li6 O20 1.970912 1_555
Li6 O1 1.974030 1_555
Li6 O4 1.978134 1_556
Li7 O5 1.959357 1_556
Li7 O21 2.055922 1_555
Li7 O0 2.103661 1_555
Li7 O19 2.287742 1_555
Li7 O15 2.328155 1_555
Li7 O13 2.434092 1_555
Fe0 O9 1.991530 1_455
Fe0 O5 2.008971 1_555
Fe0 O19 2.039589 1_454
Fe0 O3 2.063341 1_554
Fe0 O21 2.097553 1_454
Fe0 O15 2.100742 1_554
Fe1 O4 1.977151 1_655
Fe1 O8 1.985070 1_545
Fe1 O20 1.994411 1_554
Fe1 O18 2.095317 1_544
Fe1 O14 2.116113 1_654
Fe1 O2 2.243462 1_644
O0 Te0 1.968112 1_555
O0 W1 2.072536 1_456
O1 Te1 1.990391 1_555
O1 W0 2.091517 1_456
O2 W1 1.859648 1_456
O3 W0 1.943173 1_456
O4 W2 1.967883 1_555
O5 W3 1.914596 1_555
O6 W1 1.970804 1_455
O6 Te0 2.016250 1_555
O7 W0 1.836341 1_455
O7 Te1 2.360990 1_555
O8 W2 1.946045 1_565
O9 W3 1.927172 1_555
O10 Te0 1.898268 1_555
O10 W2 2.182977 1_565
O11 W3 1.906736 1_555
O11 Te1 2.098273 1_555
O12 W2 1.861081 1_555
O12 Te1 2.215203 1_555
O13 Te0 1.937994 1_555
O13 W3 2.110506 1_555
O14 W2 1.916891 1_555
O15 W3 1.924478 1_555
O16 Te1 1.963197 1_555
O16 W0 2.096589 1_556
O17 Te0 1.975271 1_555
O17 W1 2.040294 1_556
O18 W2 1.920207 1_565
O19 W3 1.957713 1_555
O20 W0 1.998314 1_556
O21 W1 1.903131 1_556
O22 W0 1.848298 1_555
O22 Te1 2.330336 1_555
O23 W1 1.966372 1_555
O23 Te0 1.999337 1_555
