# generated using pymatgen
data_Ba3TaN3Cl2
_symmetry_space_group_name_H-M   'P 1'
_cell_length_a   15.23975614
_cell_length_b   15.23975614
_cell_length_c   6.46332300
_cell_angle_alpha   90.00000000
_cell_angle_beta   90.00000000
_cell_angle_gamma   120.00000059
_symmetry_Int_Tables_number   1
_chemical_formula_structural   Ba3TaN3Cl2
_chemical_formula_sum   'Ba18 Ta6 N18 Cl12'
_cell_volume   1299.99752125
_cell_formula_units_Z   6
loop_
 _symmetry_equiv_pos_site_id
 _symmetry_equiv_pos_as_xyz
  1  'x, y, z'
loop_
 _atom_site_type_symbol
 _atom_site_label
 _atom_site_symmetry_multiplicity
 _atom_site_fract_x
 _atom_site_fract_y
 _atom_site_fract_z
 _atom_site_occupancy
  Ba  Ba0  1  0.79991700  0.79991700  0.50177200  1
  Ba  Ba1  1  0.00000000  0.20008300  0.50177200  1
  Ba  Ba2  1  0.20008300  0.00000000  0.50177200  1
  Ba  Ba3  1  0.20008300  0.20008300  0.00177200  1
  Ba  Ba4  1  0.00000000  0.79991700  0.00177200  1
  Ba  Ba5  1  0.79991700  0.00000000  0.00177200  1
  Ba  Ba6  1  0.15903700  0.68996400  0.43678400  1
  Ba  Ba7  1  0.53092700  0.84096300  0.43678400  1
  Ba  Ba8  1  0.31003600  0.46907300  0.43678400  1
  Ba  Ba9  1  0.68996400  0.15903700  0.43678400  1
  Ba  Ba10  1  0.84096300  0.53092700  0.43678400  1
  Ba  Ba11  1  0.46907300  0.31003600  0.43678400  1
  Ba  Ba12  1  0.84096300  0.31003600  0.93678400  1
  Ba  Ba13  1  0.46907300  0.15903700  0.93678400  1
  Ba  Ba14  1  0.68996400  0.53092700  0.93678400  1
  Ba  Ba15  1  0.31003600  0.84096300  0.93678400  1
  Ba  Ba16  1  0.15903700  0.46907300  0.93678400  1
  Ba  Ba17  1  0.53092700  0.68996400  0.93678400  1
  Ta  Ta0  1  0.57660500  0.57660500  0.47124700  1
  Ta  Ta1  1  0.00000000  0.42339500  0.47124700  1
  Ta  Ta2  1  0.42339500  0.00000000  0.47124700  1
  Ta  Ta3  1  0.42339500  0.42339500  0.97124700  1
  Ta  Ta4  1  0.00000000  0.57660500  0.97124700  1
  Ta  Ta5  1  0.57660500  0.00000000  0.97124700  1
  N  N0  1  0.51219300  0.51219300  0.19732000  1
  N  N1  1  0.00000000  0.48780700  0.19732000  1
  N  N2  1  0.48780700  0.00000000  0.19732000  1
  N  N3  1  0.48780700  0.48780700  0.69732000  1
  N  N4  1  0.00000000  0.51219300  0.69732000  1
  N  N5  1  0.51219300  0.00000000  0.69732000  1
  N  N6  1  0.11435000  0.71027000  0.01112700  1
  N  N7  1  0.59592000  0.88565000  0.01112700  1
  N  N8  1  0.28973000  0.40408000  0.01112700  1
  N  N9  1  0.71027000  0.11435000  0.01112700  1
  N  N10  1  0.88565000  0.59592000  0.01112700  1
  N  N11  1  0.40408000  0.28973000  0.01112700  1
  N  N12  1  0.88565000  0.28973000  0.51112700  1
  N  N13  1  0.40408000  0.11435000  0.51112700  1
  N  N14  1  0.71027000  0.59592000  0.51112700  1
  N  N15  1  0.28973000  0.88565000  0.51112700  1
  N  N16  1  0.11435000  0.40408000  0.51112700  1
  N  N17  1  0.59592000  0.71027000  0.51112700  1
  Cl  Cl0  1  0.00000000  0.00000000  0.24989300  1
  Cl  Cl1  1  0.00000000  0.00000000  0.74989300  1
  Cl  Cl2  1  0.33333300  0.66666700  0.20047300  1
  Cl  Cl3  1  0.66666700  0.33333300  0.20047300  1
  Cl  Cl4  1  0.66666700  0.33333300  0.70047300  1
  Cl  Cl5  1  0.33333300  0.66666700  0.70047300  1
  Cl  Cl6  1  0.77106700  0.77106700  0.99746500  1
  Cl  Cl7  1  0.00000000  0.22893300  0.99746500  1
  Cl  Cl8  1  0.22893300  0.00000000  0.99746500  1
  Cl  Cl9  1  0.22893300  0.22893300  0.49746500  1
  Cl  Cl10  1  0.00000000  0.77106700  0.49746500  1
  Cl  Cl11  1  0.77106700  0.00000000  0.49746500  1
loop_
_geom_bond_atom_site_label_1
_geom_bond_atom_site_label_2
_geom_bond_distance
_geom_bond_site_symmetry_2
Ba0 N14 2.699605 1_555
Ba0 N17 2.699605 1_555
Ba0 Cl6 3.233851 1_555
Ba0 Cl6 3.289018 1_554
Ba0 Cl11 3.291267 1_565
Ba0 Cl10 3.291267 1_655
Ba0 Cl1 3.445218 1_665
Ba0 Cl0 3.456591 1_665
Ba1 N16 2.699605 1_555
Ba1 N12 2.699605 1_455
Ba1 Cl7 3.233851 1_555
Ba1 Cl7 3.289018 1_554
Ba1 Cl11 3.291267 1_455
Ba1 Cl9 3.291267 1_555
Ba1 Cl1 3.445218 1_555
Ba1 Cl0 3.456591 1_555
Ba2 N13 2.699605 1_555
Ba2 N15 2.699605 1_545
Ba2 Cl8 3.233851 1_555
Ba2 Cl8 3.289018 1_554
Ba2 Cl10 3.291267 1_545
Ba2 Cl9 3.291267 1_555
Ba2 Cl1 3.445218 1_555
Ba2 Cl0 3.456591 1_555
Ba3 N11 2.699605 1_555
Ba3 N8 2.699605 1_555
Ba3 Cl9 3.233851 1_555
Ba3 Cl9 3.289018 1_554
Ba3 Cl8 3.291267 1_554
Ba3 Cl7 3.291267 1_554
Ba3 Cl0 3.445218 1_555
Ba3 Cl1 3.456591 1_554
Ba4 N10 2.699605 1_455
Ba4 N6 2.699605 1_555
Ba4 Cl10 3.233851 1_555
Ba4 Cl10 3.289018 1_554
Ba4 Cl8 3.291267 1_564
Ba4 Cl6 3.291267 1_454
Ba4 Cl0 3.445218 1_565
Ba4 Cl1 3.456591 1_564
Ba5 N7 2.699605 1_545
Ba5 N9 2.699605 1_555
Ba5 Cl11 3.233851 1_555
Ba5 Cl11 3.289018 1_554
Ba5 Cl7 3.291267 1_654
Ba5 Cl6 3.291267 1_544
Ba5 Cl0 3.445218 1_655
Ba5 Cl1 3.456591 1_654
Ba6 N15 2.674262 1_555
Ba6 N6 2.887763 1_555
Ba6 N4 3.079503 1_555
Ba6 N1 3.208466 1_555
Ba6 Cl2 3.233803 1_555
Ba6 Cl10 3.248291 1_555
Ba6 Cl5 3.321044 1_555
Ba7 N17 2.674262 1_555
Ba7 N7 2.887763 1_555
Ba7 N5 3.079503 1_565
Ba7 N2 3.208466 1_565
Ba7 Cl2 3.233811 1_555
Ba7 Cl11 3.248291 1_565
Ba7 Cl5 3.321052 1_555
Ba8 N16 2.674262 1_555
Ba8 N8 2.887763 1_555
Ba8 N3 3.079503 1_555
Ba8 N0 3.208466 1_555
Ba8 Cl2 3.233817 1_555
Ba8 Cl9 3.248291 1_555
Ba8 Cl5 3.321057 1_555
Ba9 N12 2.674262 1_555
Ba9 N9 2.887763 1_555
Ba9 N5 3.079503 1_555
Ba9 N2 3.208466 1_555
Ba9 Cl3 3.233803 1_555
Ba9 Cl11 3.248291 1_555
Ba9 Cl4 3.321044 1_555
Ba10 N14 2.674262 1_555
Ba10 N10 2.887763 1_555
Ba10 N4 3.079503 1_655
Ba10 N1 3.208466 1_655
Ba10 Cl3 3.233811 1_555
Ba10 Cl10 3.248291 1_655
Ba10 Cl4 3.321052 1_555
Ba11 N13 2.674262 1_555
Ba11 N11 2.887763 1_555
Ba11 N3 3.079503 1_555
Ba11 N0 3.208466 1_555
Ba11 Cl3 3.233817 1_555
Ba11 Cl9 3.248291 1_555
Ba11 Cl4 3.321057 1_555
Ba12 N9 2.674262 1_556
Ba12 N12 2.887763 1_555
Ba12 N1 3.079503 1_656
Ba12 N4 3.208466 1_655
Ba12 Cl4 3.233803 1_555
Ba12 Cl7 3.248291 1_655
Ba12 Cl3 3.321044 1_556
Ba13 N11 2.674262 1_556
Ba13 N13 2.887763 1_555
Ba13 N2 3.079503 1_556
Ba13 N5 3.208466 1_555
Ba13 Cl4 3.233811 1_555
Ba13 Cl8 3.248291 1_555
Ba13 Cl3 3.321052 1_556
Ba14 N10 2.674262 1_556
Ba14 N14 2.887763 1_555
Ba14 N0 3.079503 1_556
Ba14 N3 3.208466 1_555
Ba14 Cl4 3.233817 1_555
Ba14 Cl6 3.248291 1_555
Ba14 Cl3 3.321057 1_556
Ba15 N6 2.674262 1_556
Ba15 N15 2.887763 1_555
Ba15 N2 3.079503 1_566
Ba15 N5 3.208466 1_565
Ba15 Cl5 3.233803 1_555
Ba15 Cl8 3.248291 1_565
Ba15 Cl2 3.321044 1_556
Ba16 N8 2.674262 1_556
Ba16 N16 2.887763 1_555
Ba16 N1 3.079503 1_556
Ba16 N4 3.208466 1_555
Ba16 Cl5 3.233811 1_555
Ba16 Cl7 3.248291 1_555
Ba16 Cl2 3.321052 1_556
Ba17 N7 2.674262 1_556
Ba17 N17 2.887763 1_555
Ba17 N0 3.079503 1_556
Ba17 N3 3.208466 1_555
Ba17 Cl5 3.233817 1_555
Ba17 Cl6 3.248291 1_555
Ba17 Cl2 3.321057 1_556
N0 Ta3 1.991574 1_554
N0 Ta0 2.024396 1_555
N1 Ta4 1.991574 1_554
N1 Ta1 2.024396 1_555
N2 Ta5 1.991574 1_554
N2 Ta2 2.024396 1_555
N3 Ta0 1.991574 1_555
N3 Ta3 2.024396 1_555
N4 Ta1 1.991574 1_555
N4 Ta4 2.024396 1_555
N5 Ta2 1.991574 1_555
N5 Ta5 2.024396 1_555
N6 Ta4 1.924301 1_554
N7 Ta5 1.924301 1_564
N8 Ta3 1.924301 1_554
N9 Ta5 1.924301 1_554
N10 Ta4 1.924301 1_654
N11 Ta3 1.924301 1_554
N12 Ta1 1.924301 1_655
N13 Ta2 1.924301 1_555
N14 Ta0 1.924301 1_555
N15 Ta2 1.924301 1_565
N16 Ta1 1.924301 1_555
N17 Ta0 1.924301 1_555
