# generated using pymatgen
data_Nd2FeCo3Si4
_symmetry_space_group_name_H-M   'P 1'
_cell_length_a   3.96350400
_cell_length_b   3.96350400
_cell_length_c   9.97687300
_cell_angle_alpha   90.00000000
_cell_angle_beta   90.00000000
_cell_angle_gamma   90.00000000
_symmetry_Int_Tables_number   1
_chemical_formula_structural   Nd2FeCo3Si4
_chemical_formula_sum   'Nd2 Fe1 Co3 Si4'
_cell_volume   156.73032912
_cell_formula_units_Z   1
loop_
 _symmetry_equiv_pos_site_id
 _symmetry_equiv_pos_as_xyz
  1  'x, y, z'
loop_
 _atom_site_type_symbol
 _atom_site_label
 _atom_site_symmetry_multiplicity
 _atom_site_fract_x
 _atom_site_fract_y
 _atom_site_fract_z
 _atom_site_occupancy
  Nd  Nd0  1  0.50000000  0.00000000  0.75182700  1
  Nd  Nd1  1  0.00000000  0.50000000  0.24817300  1
  Fe  Fe0  1  0.50000000  0.50000000  0.00000000  1
  Co  Co0  1  0.00000000  0.00000000  0.50000000  1
  Co  Co1  1  0.00000000  0.00000000  0.00000000  1
  Co  Co2  1  0.50000000  0.50000000  0.50000000  1
  Si  Si0  1  0.00000000  0.50000000  0.88653200  1
  Si  Si1  1  0.50000000  0.00000000  0.38308100  1
  Si  Si2  1  0.50000000  0.00000000  0.11346800  1
  Si  Si3  1  0.00000000  0.50000000  0.61691900  1
loop_
_geom_bond_atom_site_label_1
_geom_bond_atom_site_label_2
_geom_bond_distance
_geom_bond_site_symmetry_2
Nd0 Si0 3.108190 1_545
Nd0 Si0 3.108190 1_645
Nd0 Si0 3.108190 1_655
Nd0 Si0 3.108190 1_555
Nd0 Si3 3.109066 1_555
Nd0 Si3 3.109066 1_655
Nd0 Si3 3.109066 1_645
Nd0 Si3 3.109066 1_545
Nd1 Si2 3.108190 1_455
Nd1 Si2 3.108190 1_555
Nd1 Si2 3.108190 1_465
Nd1 Si2 3.108190 1_565
Nd1 Si1 3.109066 1_455
Nd1 Si1 3.109066 1_565
Nd1 Si1 3.109066 1_465
Nd1 Si1 3.109066 1_555
Fe0 Si2 2.282300 1_565
Fe0 Si2 2.282300 1_555
Fe0 Si0 2.282300 1_654
Fe0 Si0 2.282300 1_554
Fe0 Nd0 3.171415 1_554
Fe0 Nd1 3.171415 1_655
Fe0 Nd0 3.171415 1_564
Fe0 Nd1 3.171415 1_555
Co0 Si3 2.299572 1_545
Co0 Si3 2.299572 1_555
Co0 Si1 2.299572 1_455
Co0 Si1 2.299572 1_555
Co0 Nd1 3.199957 1_555
Co0 Nd1 3.199957 1_545
Co0 Nd0 3.199957 1_455
Co0 Nd0 3.199957 1_555
Co1 Si2 2.282300 1_555
Co1 Si0 2.282300 1_544
Co1 Si2 2.282300 1_455
Co1 Si0 2.282300 1_554
Co1 Fe0 2.802621 1_545
Co1 Fe0 2.802621 1_555
Co1 Fe0 2.802621 1_455
Co1 Fe0 2.802621 1_445
Co1 Nd0 3.171415 1_554
Co1 Nd0 3.171415 1_454
Co1 Nd1 3.171415 1_555
Co1 Nd1 3.171415 1_545
Co2 Si3 2.299572 1_555
Co2 Si3 2.299572 1_655
Co2 Si1 2.299572 1_565
Co2 Si1 2.299572 1_555
Co2 Nd1 3.199957 1_555
Co2 Nd0 3.199957 1_565
Co2 Nd0 3.199957 1_555
Co2 Nd1 3.199957 1_655
Si0 Si3 2.689895 1_555
Si1 Si2 2.689895 1_555
