# generated using pymatgen
data_MgTi2O4
_symmetry_space_group_name_H-M   'P 1'
_cell_length_a   2.85977200
_cell_length_b   9.27666800
_cell_length_c   10.58261100
_cell_angle_alpha   90.00000000
_cell_angle_beta   90.00000000
_cell_angle_gamma   90.00000000
_symmetry_Int_Tables_number   1
_chemical_formula_structural   MgTi2O4
_chemical_formula_sum   'Mg4 Ti8 O16'
_cell_volume   280.74773175
_cell_formula_units_Z   4
loop_
 _symmetry_equiv_pos_site_id
 _symmetry_equiv_pos_as_xyz
  1  'x, y, z'
loop_
 _atom_site_type_symbol
 _atom_site_label
 _atom_site_symmetry_multiplicity
 _atom_site_fract_x
 _atom_site_fract_y
 _atom_site_fract_z
 _atom_site_occupancy
  Mg  Mg0  1  0.25000000  0.75232800  0.15631100  1
  Mg  Mg1  1  0.75000000  0.24767200  0.84368900  1
  Mg  Mg2  1  0.25000000  0.25232800  0.34368900  1
  Mg  Mg3  1  0.75000000  0.74767200  0.65631100  1
  Ti  Ti0  1  0.25000000  0.93482700  0.38396900  1
  Ti  Ti1  1  0.75000000  0.06517300  0.61603100  1
  Ti  Ti2  1  0.25000000  0.43482700  0.11603100  1
  Ti  Ti3  1  0.75000000  0.56517300  0.88396900  1
  Ti  Ti4  1  0.25000000  0.91444600  0.90213300  1
  Ti  Ti5  1  0.75000000  0.08555400  0.09786700  1
  Ti  Ti6  1  0.25000000  0.41444600  0.59786700  1
  Ti  Ti7  1  0.75000000  0.58555400  0.40213300  1
  O  O0  1  0.25000000  0.71361100  0.81435400  1
  O  O1  1  0.75000000  0.28638900  0.18564600  1
  O  O2  1  0.25000000  0.21361100  0.68564600  1
  O  O3  1  0.75000000  0.78638900  0.31435400  1
  O  O4  1  0.25000000  0.62740700  0.53992900  1
  O  O5  1  0.75000000  0.37259300  0.46007100  1
  O  O6  1  0.25000000  0.12740700  0.96007100  1
  O  O7  1  0.75000000  0.87259300  0.03992900  1
  O  O8  1  0.25000000  0.52579300  0.28129100  1
  O  O9  1  0.75000000  0.47420700  0.71870900  1
  O  O10  1  0.25000000  0.02579300  0.21870900  1
  O  O11  1  0.75000000  0.97420700  0.78129100  1
  O  O12  1  0.25000000  0.90333900  0.57277700  1
  O  O13  1  0.75000000  0.09666100  0.42722300  1
  O  O14  1  0.25000000  0.40333900  0.92722300  1
  O  O15  1  0.75000000  0.59666100  0.07277700  1
loop_
_geom_bond_atom_site_label_1
_geom_bond_atom_site_label_2
_geom_bond_distance
_geom_bond_site_symmetry_2
Mg0 O7 2.192298 1_455
Mg0 O7 2.192298 1_555
Mg0 O15 2.216164 1_455
Mg0 O15 2.216164 1_555
Mg0 O3 2.222992 1_455
Mg0 O3 2.222992 1_555
Mg0 O8 2.483057 1_555
Mg0 O10 2.621377 1_565
Mg1 O6 2.192298 1_655
Mg1 O6 2.192298 1_555
Mg1 O14 2.216164 1_555
Mg1 O14 2.216164 1_655
Mg1 O2 2.222992 1_555
Mg1 O2 2.222992 1_655
Mg1 O9 2.483057 1_555
Mg1 O11 2.621377 1_545
Mg2 O5 2.192298 1_555
Mg2 O5 2.192298 1_455
Mg2 O13 2.216164 1_555
Mg2 O13 2.216164 1_455
Mg2 O1 2.222992 1_455
Mg2 O1 2.222992 1_555
Mg2 O10 2.483057 1_555
Mg2 O8 2.621377 1_555
Mg3 O4 2.192298 1_555
Mg3 O4 2.192298 1_655
Mg3 O12 2.216164 1_655
Mg3 O12 2.216164 1_555
Mg3 O0 2.222992 1_555
Mg3 O0 2.222992 1_655
Mg3 O11 2.483057 1_555
Mg3 O9 2.621377 1_555
O0 Ti4 2.081821 1_555
O0 Ti3 2.117421 1_455
O0 Ti3 2.117421 1_555
O1 Ti5 2.081821 1_555
O1 Ti2 2.117421 1_555
O1 Ti2 2.117421 1_655
O2 Ti6 2.081821 1_555
O2 Ti1 2.117421 1_455
O2 Ti1 2.117421 1_555
O3 Ti7 2.081821 1_555
O3 Ti0 2.117421 1_555
O3 Ti0 2.117421 1_655
O4 Ti6 2.068527 1_555
O4 Ti7 2.078890 1_555
O4 Ti7 2.078890 1_455
O5 Ti7 2.068527 1_555
O5 Ti6 2.078890 1_655
O5 Ti6 2.078890 1_555
O6 Ti4 2.068527 1_545
O6 Ti5 2.078890 1_556
O6 Ti5 2.078890 1_456
O7 Ti5 2.068527 1_565
O7 Ti4 2.078890 1_654
O7 Ti4 2.078890 1_554
O8 Ti2 1.941827 1_555
O8 Ti7 1.996824 1_555
O8 Ti7 1.996824 1_455
O9 Ti3 1.941827 1_555
O9 Ti6 1.996824 1_555
O9 Ti6 1.996824 1_655
O10 Ti0 1.941827 1_545
O10 Ti5 1.996824 1_555
O10 Ti5 1.996824 1_455
O11 Ti1 1.941827 1_565
O11 Ti4 1.996824 1_655
O11 Ti4 1.996824 1_555
O12 Ti0 2.019320 1_555
O12 Ti1 2.123192 1_565
O12 Ti1 2.123192 1_465
O13 Ti1 2.019320 1_555
O13 Ti0 2.123192 1_645
O13 Ti0 2.123192 1_545
O14 Ti2 2.019320 1_556
O14 Ti3 2.123192 1_455
O14 Ti3 2.123192 1_555
O15 Ti3 2.019320 1_554
O15 Ti2 2.123192 1_555
O15 Ti2 2.123192 1_655
