# generated using pymatgen
data_La2GaNiO6
_symmetry_space_group_name_H-M   'P 1'
_cell_length_a   5.48665164
_cell_length_b   5.48887334
_cell_length_c   5.48495424
_cell_angle_alpha   61.32071689
_cell_angle_beta   61.29645303
_cell_angle_gamma   61.27295321
_symmetry_Int_Tables_number   1
_chemical_formula_structural   La2GaNiO6
_chemical_formula_sum   'La2 Ga1 Ni1 O6'
_cell_volume   120.20615480
_cell_formula_units_Z   1
loop_
 _symmetry_equiv_pos_site_id
 _symmetry_equiv_pos_as_xyz
  1  'x, y, z'
loop_
 _atom_site_type_symbol
 _atom_site_label
 _atom_site_symmetry_multiplicity
 _atom_site_fract_x
 _atom_site_fract_y
 _atom_site_fract_z
 _atom_site_occupancy
  La  La0  1  0.24915300  0.24920300  0.24923600  1
  La  La1  1  0.75084600  0.75079800  0.75076400  1
  Ga  Ga0  1  0.49999700  0.50000300  0.50000200  1
  Ni  Ni0  1  0.00000800  0.99999500  0.99999400  1
  O  O0  1  0.81547100  0.68198000  0.25049400  1
  O  O1  1  0.68222500  0.25018600  0.81574300  1
  O  O2  1  0.25002000  0.81590000  0.68239000  1
  O  O3  1  0.31777300  0.74981500  0.18426000  1
  O  O4  1  0.74997900  0.18409900  0.31761200  1
  O  O5  1  0.18452700  0.31802100  0.74950600  1
loop_
_geom_bond_atom_site_label_1
_geom_bond_atom_site_label_2
_geom_bond_distance
_geom_bond_site_symmetry_2
La0 O0 2.423061 1_455
La0 O1 2.423335 1_554
La0 O2 2.424383 1_545
La0 O5 2.755455 1_554
La0 O4 2.755879 1_455
La0 O3 2.756625 1_545
La0 O5 2.780147 1_555
La0 O4 2.781444 1_555
La0 O3 2.782947 1_555
La1 O5 2.423058 1_655
La1 O3 2.423346 1_556
La1 O4 2.424372 1_565
La1 O0 2.755452 1_556
La1 O2 2.755878 1_655
La1 O1 2.756632 1_565
La1 O0 2.780150 1_555
La1 O2 2.781443 1_555
La1 O1 2.782943 1_555
Ga0 O5 1.985234 1_555
Ga0 O0 1.985235 1_555
Ga0 O3 1.986233 1_555
Ga0 O1 1.986242 1_555
Ga0 O2 1.987275 1_555
Ga0 O4 1.987312 1_555
Ni0 O2 1.999797 1_555
Ni0 O4 1.999889 1_466
Ni0 O3 2.001481 1_556
Ni0 O1 2.001511 1_465
Ni0 O5 2.005120 1_565
Ni0 O0 2.005133 1_456
