# generated using pymatgen
data_SrHgPb
_symmetry_space_group_name_H-M   'P 1'
_cell_length_a   5.05572057
_cell_length_b   5.05572057
_cell_length_c   8.30363516
_cell_angle_alpha   90.00000000
_cell_angle_beta   90.00000000
_cell_angle_gamma   119.99999200
_symmetry_Int_Tables_number   1
_chemical_formula_structural   SrHgPb
_chemical_formula_sum   'Sr2 Hg2 Pb2'
_cell_volume   183.80827127
_cell_formula_units_Z   2
loop_
 _symmetry_equiv_pos_site_id
 _symmetry_equiv_pos_as_xyz
  1  'x, y, z'
loop_
 _atom_site_type_symbol
 _atom_site_label
 _atom_site_symmetry_multiplicity
 _atom_site_fract_x
 _atom_site_fract_y
 _atom_site_fract_z
 _atom_site_occupancy
  Sr  Sr0  1  -0.00000000  0.00000000  0.66604556  1
  Sr  Sr1  1  -0.00000000  0.00000000  0.16604556  1
  Hg  Hg0  1  0.66666700  0.33333300  0.47417554  1
  Hg  Hg1  1  0.33333300  0.66666700  0.97417554  1
  Pb  Pb0  1  0.66666700  0.33333300  0.87977990  1
  Pb  Pb1  1  0.33333300  0.66666700  0.37977990  1
loop_
_geom_bond_atom_site_label_1
_geom_bond_atom_site_label_2
_geom_bond_distance
_geom_bond_site_symmetry_2
Hg0 Pb1 3.022329 1_545
Hg0 Pb1 3.022329 1_655
Hg0 Pb1 3.022337 1_555
Hg0 Sr0 3.325422 1_655
Hg0 Sr0 3.325426 1_555
Hg0 Sr0 3.325426 1_665
Hg0 Pb0 3.367991 1_555
Hg0 Sr1 3.881561 1_655
Hg0 Sr1 3.881564 1_555
Hg0 Sr1 3.881564 1_665
Hg1 Pb0 3.022329 1_455
Hg1 Pb0 3.022329 1_565
Hg1 Pb0 3.022337 1_555
Hg1 Sr1 3.325422 1_566
Hg1 Sr1 3.325426 1_666
Hg1 Sr1 3.325426 1_556
Hg1 Pb1 3.367991 1_556
Hg1 Sr0 3.881561 1_565
Hg1 Sr0 3.881564 1_665
Hg1 Sr0 3.881564 1_555
Pb0 Sr0 3.416124 1_655
Pb0 Sr0 3.416128 1_665
Pb0 Sr0 3.416128 1_555
Pb0 Sr1 3.764363 1_656
Pb0 Sr1 3.764367 1_666
Pb0 Sr1 3.764367 1_556
Pb1 Sr1 3.416124 1_565
Pb1 Sr1 3.416128 1_555
Pb1 Sr1 3.416128 1_665
Pb1 Sr0 3.764363 1_565
Pb1 Sr0 3.764367 1_555
Pb1 Sr0 3.764367 1_665
