# generated using pymatgen
data_Mg(BrO3)2
_symmetry_space_group_name_H-M   'P 1'
_cell_length_a   5.70230173
_cell_length_b   5.70230173
_cell_length_c   6.26969239
_cell_angle_alpha   65.92457057
_cell_angle_beta   65.92457057
_cell_angle_gamma   60.14269242
_symmetry_Int_Tables_number   1
_chemical_formula_structural   Mg(BrO3)2
_chemical_formula_sum   'Mg1 Br2 O6'
_cell_volume   155.93097552
_cell_formula_units_Z   1
loop_
 _symmetry_equiv_pos_site_id
 _symmetry_equiv_pos_as_xyz
  1  'x, y, z'
loop_
 _atom_site_type_symbol
 _atom_site_label
 _atom_site_symmetry_multiplicity
 _atom_site_fract_x
 _atom_site_fract_y
 _atom_site_fract_z
 _atom_site_occupancy
  Mg  Mg0  1  0.00000000  0.00000000  0.00000000  1
  Br  Br0  1  0.64309600  0.64309600  0.09732600  1
  Br  Br1  1  0.35690400  0.35690400  0.90267400  1
  O  O0  1  0.75697500  0.75697500  0.23058900  1
  O  O1  1  0.24302500  0.24302500  0.76941100  1
  O  O2  1  0.23830300  0.70634700  0.78233600  1
  O  O3  1  0.70634700  0.23830300  0.78233600  1
  O  O4  1  0.76169700  0.29365300  0.21766400  1
  O  O5  1  0.29365300  0.76169700  0.21766400  1
loop_
_geom_bond_atom_site_label_1
_geom_bond_atom_site_label_2
_geom_bond_distance
_geom_bond_site_symmetry_2
Mg0 O1 2.138683 1_554
Mg0 O0 2.138683 1_445
Mg0 O5 2.144449 1_545
Mg0 O4 2.144449 1_455
Mg0 O3 2.144449 1_454
Mg0 O2 2.144449 1_544
Br0 O4 1.686746 1_555
Br0 O5 1.686746 1_555
Br0 O0 1.687203 1_555
Br1 O2 1.686746 1_555
Br1 O3 1.686746 1_555
Br1 O1 1.687203 1_555
