# generated using pymatgen
data_Be3Co
_symmetry_space_group_name_H-M   'P 1'
_cell_length_a   4.56636129
_cell_length_b   4.56636071
_cell_length_c   3.62609724
_cell_angle_alpha   90.00000000
_cell_angle_beta   90.00000000
_cell_angle_gamma   119.99998964
_symmetry_Int_Tables_number   1
_chemical_formula_structural   Be3Co
_chemical_formula_sum   'Be6 Co2'
_cell_volume   65.48029205
_cell_formula_units_Z   2
loop_
 _symmetry_equiv_pos_site_id
 _symmetry_equiv_pos_as_xyz
  1  'x, y, z'
loop_
 _atom_site_type_symbol
 _atom_site_label
 _atom_site_symmetry_multiplicity
 _atom_site_fract_x
 _atom_site_fract_y
 _atom_site_fract_z
 _atom_site_occupancy
  Be  Be0  1  0.16650451  0.33301002  0.25000000  1
  Be  Be1  1  0.66698798  0.83349349  0.25000000  1
  Be  Be2  1  0.16650451  0.83349349  0.25000000  1
  Be  Be3  1  0.83349449  0.66698698  0.74999900  1
  Be  Be4  1  0.33301302  0.16650551  0.74999900  1
  Be  Be5  1  0.83349549  0.16650551  0.74999900  1
  Co  Co0  1  0.33333300  0.66666600  0.74999900  1
  Co  Co1  1  0.66666700  0.33333300  0.25000000  1
loop_
_geom_bond_atom_site_label_1
_geom_bond_atom_site_label_2
_geom_bond_distance
_geom_bond_site_symmetry_2
Be0 Be5 2.240846 1_455
Be0 Be5 2.240852 1_454
Be0 Be4 2.240855 1_555
Be0 Be4 2.240861 1_554
Be0 Co0 2.242350 1_555
Be0 Co0 2.242356 1_554
Be0 Be2 2.280973 1_545
Be0 Be1 2.280973 1_445
Be0 Co1 2.283176 1_455
Be0 Co1 2.283186 1_555
Be0 Be2 2.285388 1_555
Be0 Be1 2.285389 1_555
Be1 Be5 2.240853 1_565
Be1 Be3 2.240855 1_555
Be1 Be5 2.240859 1_564
Be1 Be3 2.240861 1_554
Be1 Co0 2.242348 1_555
Be1 Co0 2.242354 1_554
Be1 Be2 2.280973 1_655
Be1 Co1 2.283181 1_565
Be1 Co1 2.283181 1_555
Be1 Be2 2.285388 1_555
Be2 Be3 2.240848 1_455
Be2 Be4 2.240853 1_565
Be2 Be3 2.240854 1_454
Be2 Be4 2.240859 1_564
Be2 Co0 2.242350 1_555
Be2 Co0 2.242356 1_554
Be2 Co1 2.283177 1_455
Be2 Co1 2.283186 1_565
Be3 Co1 2.242346 1_555
Be3 Co1 2.242352 1_556
Be3 Be5 2.280980 1_565
Be3 Be4 2.280982 1_665
Be3 Co0 2.283176 1_655
Be3 Co0 2.283186 1_555
Be3 Be4 2.285379 1_555
Be3 Be5 2.285381 1_555
Be4 Co1 2.242346 1_555
Be4 Co1 2.242352 1_556
Be4 Be5 2.280978 1_455
Be4 Co0 2.283178 1_545
Be4 Co0 2.283183 1_555
Be4 Be5 2.285384 1_555
Be5 Co1 2.242350 1_555
Be5 Co1 2.242356 1_556
Be5 Co0 2.283177 1_655
Be5 Co0 2.283186 1_545
