# generated using pymatgen
data_V2Cu3H2O9
_symmetry_space_group_name_H-M   'P 1'
_cell_length_a   6.12154925
_cell_length_b   6.12154925
_cell_length_c   7.42420087
_cell_angle_alpha   82.53361370
_cell_angle_beta   82.53361370
_cell_angle_gamma   55.15937356
_symmetry_Int_Tables_number   1
_chemical_formula_structural   V2Cu3H2O9
_chemical_formula_sum   'V2 Cu3 H2 O9'
_cell_volume   225.87198459
_cell_formula_units_Z   1
loop_
 _symmetry_equiv_pos_site_id
 _symmetry_equiv_pos_as_xyz
  1  'x, y, z'
loop_
 _atom_site_type_symbol
 _atom_site_label
 _atom_site_symmetry_multiplicity
 _atom_site_fract_x
 _atom_site_fract_y
 _atom_site_fract_z
 _atom_site_occupancy
  V  V0  1  0.50408900  0.50408900  0.25700600  1
  V  V1  1  0.49591100  0.49591100  0.74299400  1
  Cu  Cu0  1  0.50000000  0.00000000  0.00000000  1
  Cu  Cu1  1  0.00000000  0.50000000  0.00000000  1
  Cu  Cu2  1  0.00000000  0.00000000  0.00000000  1
  H  H0  1  0.83794000  0.83794000  0.45874900  1
  H  H1  1  0.16206000  0.16206000  0.54125100  1
  O  O0  1  0.15106200  0.15106200  0.09802800  1
  O  O1  1  0.84893800  0.84893800  0.90197200  1
  O  O2  1  0.66621900  0.66621900  0.14114100  1
  O  O3  1  0.33378100  0.33378100  0.85885900  1
  O  O4  1  0.67050300  0.19031700  0.18829600  1
  O  O5  1  0.32949700  0.80968300  0.81170400  1
  O  O6  1  0.80968300  0.32949700  0.81170400  1
  O  O7  1  0.19031700  0.67050300  0.18829600  1
  O  O8  1  0.50000000  0.50000000  0.50000000  1
loop_
_geom_bond_atom_site_label_1
_geom_bond_atom_site_label_2
_geom_bond_distance
_geom_bond_site_symmetry_2
Cu0 O0 1.860493 1_555
Cu0 O1 1.860493 1_544
Cu0 O2 1.911389 1_545
Cu0 O3 1.911389 1_554
Cu0 O5 2.567649 1_544
Cu0 O4 2.567649 1_555
Cu1 O0 1.860493 1_555
Cu1 O1 1.860493 1_454
Cu1 O2 1.911389 1_455
Cu1 O3 1.911389 1_554
Cu1 O6 2.567649 1_454
Cu1 O7 2.567649 1_555
Cu2 O1 1.888599 1_444
Cu2 O0 1.888599 1_555
Cu2 O6 2.094147 1_454
Cu2 O7 2.094147 1_545
Cu2 O5 2.094147 1_544
Cu2 O4 2.094147 1_455
O2 V0 1.841669 1_555
O3 V1 1.841669 1_555
O4 V0 1.694468 1_555
O5 V1 1.694468 1_555
O6 V1 1.694468 1_555
O7 V0 1.694468 1_555
O8 V0 1.798067 1_555
O8 V1 1.798067 1_555
