# generated using pymatgen
data_Sr7SnN6
_symmetry_space_group_name_H-M   'P 1'
_cell_length_a   11.98699600
_cell_length_b   6.72004100
_cell_length_c   14.10507800
_cell_angle_alpha   90.00000000
_cell_angle_beta   90.00000000
_cell_angle_gamma   90.00000000
_symmetry_Int_Tables_number   1
_chemical_formula_structural   Sr7SnN6
_chemical_formula_sum   'Sr28 Sn4 N24'
_cell_volume   1136.20782334
_cell_formula_units_Z   4
loop_
 _symmetry_equiv_pos_site_id
 _symmetry_equiv_pos_as_xyz
  1  'x, y, z'
loop_
 _atom_site_type_symbol
 _atom_site_label
 _atom_site_symmetry_multiplicity
 _atom_site_fract_x
 _atom_site_fract_y
 _atom_site_fract_z
 _atom_site_occupancy
  Sr  Sr0  1  0.03574900  0.72924000  0.98167200  1
  Sr  Sr1  1  0.46425100  0.77076000  0.48167200  1
  Sr  Sr2  1  0.53574900  0.77076000  0.01832800  1
  Sr  Sr3  1  0.96425100  0.72924000  0.51832800  1
  Sr  Sr4  1  0.96425100  0.27076000  0.01832800  1
  Sr  Sr5  1  0.53574900  0.22924000  0.51832800  1
  Sr  Sr6  1  0.46425100  0.22924000  0.98167200  1
  Sr  Sr7  1  0.03574900  0.27076000  0.48167200  1
  Sr  Sr8  1  0.23198700  0.84192500  0.62813600  1
  Sr  Sr9  1  0.26801300  0.65807500  0.12813600  1
  Sr  Sr10  1  0.73198700  0.65807500  0.37186400  1
  Sr  Sr11  1  0.76801300  0.84192500  0.87186400  1
  Sr  Sr12  1  0.76801300  0.15807500  0.37186400  1
  Sr  Sr13  1  0.73198700  0.34192500  0.87186400  1
  Sr  Sr14  1  0.26801300  0.34192500  0.62813600  1
  Sr  Sr15  1  0.23198700  0.15807500  0.12813600  1
  Sr  Sr16  1  0.28771800  0.60363100  0.88372900  1
  Sr  Sr17  1  0.21228200  0.89636900  0.38372900  1
  Sr  Sr18  1  0.78771800  0.89636900  0.11627100  1
  Sr  Sr19  1  0.71228200  0.60363100  0.61627100  1
  Sr  Sr20  1  0.71228200  0.39636900  0.11627100  1
  Sr  Sr21  1  0.78771800  0.10363100  0.61627100  1
  Sr  Sr22  1  0.21228200  0.10363100  0.88372900  1
  Sr  Sr23  1  0.28771800  0.39636900  0.38372900  1
  Sr  Sr24  1  0.00000000  0.44682800  0.75000000  1
  Sr  Sr25  1  0.50000000  0.05317200  0.25000000  1
  Sr  Sr26  1  0.00000000  0.55317200  0.25000000  1
  Sr  Sr27  1  0.50000000  0.94682800  0.75000000  1
  Sn  Sn0  1  0.00000000  0.94434200  0.75000000  1
  Sn  Sn1  1  0.50000000  0.55565800  0.25000000  1
  Sn  Sn2  1  0.00000000  0.05565800  0.25000000  1
  Sn  Sn3  1  0.50000000  0.44434200  0.75000000  1
  N  N0  1  0.13048800  0.75618900  0.80008700  1
  N  N1  1  0.36951200  0.74381100  0.30008700  1
  N  N2  1  0.63048800  0.74381100  0.19991300  1
  N  N3  1  0.86951200  0.75618900  0.69991300  1
  N  N4  1  0.86951200  0.24381100  0.19991300  1
  N  N5  1  0.63048800  0.25618900  0.69991300  1
  N  N6  1  0.36951200  0.25618900  0.80008700  1
  N  N7  1  0.13048800  0.24381100  0.30008700  1
  N  N8  1  0.16302800  0.59325400  0.50518600  1
  N  N9  1  0.33697200  0.90674600  0.00518600  1
  N  N10  1  0.66302800  0.90674600  0.49481400  1
  N  N11  1  0.83697200  0.59325400  0.99481400  1
  N  N12  1  0.83697200  0.40674600  0.49481400  1
  N  N13  1  0.66302800  0.09325400  0.99481400  1
  N  N14  1  0.33697200  0.09325400  0.50518600  1
  N  N15  1  0.16302800  0.40674600  0.00518600  1
  N  N16  1  0.43206800  0.63045400  0.64428200  1
  N  N17  1  0.06793200  0.86954600  0.14428200  1
  N  N18  1  0.93206800  0.86954600  0.35571800  1
  N  N19  1  0.56793200  0.63045400  0.85571800  1
  N  N20  1  0.56793200  0.36954600  0.35571800  1
  N  N21  1  0.93206800  0.13045400  0.85571800  1
  N  N22  1  0.06793200  0.13045400  0.64428200  1
  N  N23  1  0.43206800  0.36954600  0.14428200  1
loop_
_geom_bond_atom_site_label_1
_geom_bond_atom_site_label_2
_geom_bond_distance
_geom_bond_site_symmetry_2
N0 Sn0 2.131761 1_555
N0 Sr16 2.448480 1_555
N0 Sr24 2.695851 1_555
N0 Sr8 2.773934 1_555
N0 Sr22 2.793670 1_565
N0 Sr0 2.807592 1_555
N1 Sn1 2.131761 1_555
N1 Sr17 2.448480 1_555
N1 Sr25 2.695851 1_565
N1 Sr9 2.773934 1_555
N1 Sr23 2.793670 1_555
N1 Sr1 2.807592 1_555
N2 Sn1 2.131761 1_555
N2 Sr18 2.448480 1_555
N2 Sr25 2.695851 1_565
N2 Sr10 2.773934 1_555
N2 Sr20 2.793670 1_555
N2 Sr2 2.807592 1_555
N3 Sn0 2.131761 1_655
N3 Sr19 2.448480 1_555
N3 Sr24 2.695851 1_655
N3 Sr11 2.773934 1_555
N3 Sr21 2.793670 1_565
N3 Sr3 2.807592 1_555
N4 Sn2 2.131761 1_655
N4 Sr20 2.448480 1_555
N4 Sr26 2.695851 1_655
N4 Sr12 2.773934 1_555
N4 Sr18 2.793670 1_545
N4 Sr4 2.807592 1_555
N5 Sn3 2.131761 1_555
N5 Sr21 2.448480 1_555
N5 Sr27 2.695851 1_545
N5 Sr13 2.773934 1_555
N5 Sr19 2.793670 1_555
N5 Sr5 2.807592 1_555
N6 Sn3 2.131761 1_555
N6 Sr22 2.448480 1_555
N6 Sr27 2.695851 1_545
N6 Sr14 2.773934 1_555
N6 Sr16 2.793670 1_555
N6 Sr6 2.807592 1_555
N7 Sn2 2.131761 1_555
N7 Sr23 2.448480 1_555
N7 Sr26 2.695851 1_555
N7 Sr15 2.773934 1_555
N7 Sr17 2.793670 1_545
N7 Sr7 2.807592 1_555
N8 Sr8 2.546234 1_555
N8 Sr3 2.558690 1_455
N8 Sr23 2.630485 1_555
N8 Sr7 2.671026 1_555
N8 Sr17 2.726288 1_555
N8 Sr14 2.728323 1_555
N9 Sr9 2.546234 1_555
N9 Sr2 2.558690 1_555
N9 Sr22 2.630485 1_564
N9 Sr6 2.671026 1_564
N9 Sr16 2.726288 1_554
N9 Sr15 2.728323 1_565
N10 Sr10 2.546234 1_555
N10 Sr1 2.558690 1_555
N10 Sr21 2.630485 1_565
N10 Sr5 2.671026 1_565
N10 Sr19 2.726288 1_555
N10 Sr12 2.728323 1_565
N11 Sr11 2.546234 1_555
N11 Sr0 2.558690 1_655
N11 Sr20 2.630485 1_556
N11 Sr4 2.671026 1_556
N11 Sr18 2.726288 1_556
N11 Sr13 2.728323 1_555
N12 Sr12 2.546234 1_555
N12 Sr7 2.558690 1_655
N12 Sr19 2.630485 1_555
N12 Sr3 2.671026 1_555
N12 Sr21 2.726288 1_555
N12 Sr10 2.728323 1_555
N13 Sr13 2.546234 1_555
N13 Sr6 2.558690 1_555
N13 Sr18 2.630485 1_546
N13 Sr2 2.671026 1_546
N13 Sr20 2.726288 1_556
N13 Sr11 2.728323 1_545
N14 Sr14 2.546234 1_555
N14 Sr5 2.558690 1_555
N14 Sr17 2.630485 1_545
N14 Sr1 2.671026 1_545
N14 Sr23 2.726288 1_555
N14 Sr8 2.728323 1_545
N15 Sr15 2.546234 1_555
N15 Sr4 2.558690 1_455
N15 Sr16 2.630485 1_554
N15 Sr0 2.671026 1_554
N15 Sr22 2.726288 1_554
N15 Sr9 2.728323 1_555
N16 Sn3 2.109703 1_555
N16 Sr1 2.509689 1_555
N16 Sr27 2.721529 1_555
N16 Sr14 2.771016 1_555
N16 Sr8 2.797061 1_555
N17 Sn2 2.109703 1_565
N17 Sr0 2.509689 1_554
N17 Sr26 2.721529 1_555
N17 Sr15 2.771016 1_565
N17 Sr9 2.797061 1_555
N18 Sn2 2.109703 1_665
N18 Sr3 2.509689 1_555
N18 Sr26 2.721529 1_655
N18 Sr12 2.771016 1_565
N18 Sr10 2.797061 1_555
N19 Sn3 2.109703 1_555
N19 Sr2 2.509689 1_556
N19 Sr27 2.721529 1_555
N19 Sr13 2.771016 1_555
N19 Sr11 2.797061 1_555
N20 Sn1 2.109703 1_555
N20 Sr5 2.509689 1_555
N20 Sr25 2.721529 1_555
N20 Sr10 2.771016 1_555
N20 Sr12 2.797061 1_555
N21 Sn0 2.109703 1_645
N21 Sr4 2.509689 1_556
N21 Sr24 2.721529 1_655
N21 Sr11 2.771016 1_545
N21 Sr13 2.797061 1_555
N22 Sn0 2.109703 1_545
N22 Sr7 2.509689 1_555
N22 Sr24 2.721529 1_555
N22 Sr8 2.771016 1_545
N22 Sr14 2.797061 1_555
N23 Sn1 2.109703 1_555
N23 Sr6 2.509689 1_554
N23 Sr25 2.721529 1_555
N23 Sr9 2.771016 1_555
N23 Sr15 2.797061 1_555
