# generated using pymatgen
data_CaFeO2
_symmetry_space_group_name_H-M   'P 1'
_cell_length_a   5.56427000
_cell_length_b   5.56425200
_cell_length_c   6.90401300
_cell_angle_alpha   90.00007239
_cell_angle_beta   90.00010958
_cell_angle_gamma   90.00074139
_symmetry_Int_Tables_number   1
_chemical_formula_structural   CaFeO2
_chemical_formula_sum   'Ca4 Fe4 O8'
_cell_volume   213.75514977
_cell_formula_units_Z   4
loop_
 _symmetry_equiv_pos_site_id
 _symmetry_equiv_pos_as_xyz
  1  'x, y, z'
loop_
 _atom_site_type_symbol
 _atom_site_label
 _atom_site_symmetry_multiplicity
 _atom_site_fract_x
 _atom_site_fract_y
 _atom_site_fract_z
 _atom_site_occupancy
  Ca  Ca0  1  0.49999600  0.99999900  0.20095500  1
  Ca  Ca1  1  0.49999900  0.99999700  0.70095600  1
  Ca  Ca2  1  0.00000100  0.49999800  0.29904200  1
  Ca  Ca3  1  0.99999600  0.50000000  0.79904100  1
  Fe  Fe0  1  0.50000400  0.50001100  0.50000100  1
  Fe  Fe1  1  0.00000700  0.99998100  0.99999500  1
  Fe  Fe2  1  0.49999000  0.50000900  0.00000700  1
  Fe  Fe3  1  0.00001100  0.00000800  0.49998800  1
  O  O0  1  0.78149200  0.28148100  0.06819200  1
  O  O1  1  0.78148300  0.28149600  0.56819800  1
  O  O2  1  0.71851400  0.78147300  0.43181600  1
  O  O3  1  0.71850800  0.78149000  0.93180500  1
  O  O4  1  0.21851200  0.71851100  0.06819900  1
  O  O5  1  0.21850300  0.71851300  0.56819800  1
  O  O6  1  0.28149300  0.21852000  0.43180200  1
  O  O7  1  0.28149000  0.21851500  0.93180700  1
loop_
_geom_bond_atom_site_label_1
_geom_bond_atom_site_label_2
_geom_bond_distance
_geom_bond_site_symmetry_2
Ca0 O6 2.344518 1_565
Ca0 O2 2.344641 1_555
Ca0 O4 2.397153 1_555
Ca0 O0 2.397197 1_565
Ca0 O7 2.531707 1_564
Ca0 O3 2.531716 1_554
Ca1 O3 2.344504 1_555
Ca1 O7 2.344546 1_565
Ca1 O5 2.397187 1_555
Ca1 O1 2.397202 1_565
Ca1 O2 2.531713 1_555
Ca1 O6 2.531756 1_565
Ca2 O4 2.344485 1_555
Ca2 O0 2.344519 1_455
Ca2 O6 2.397184 1_555
Ca2 O2 2.397192 1_455
Ca2 O5 2.531717 1_555
Ca2 O1 2.531731 1_455
Ca3 O1 2.344460 1_555
Ca3 O5 2.344474 1_655
Ca3 O3 2.397224 1_555
Ca3 O7 2.397232 1_655
Ca3 O0 2.531713 1_556
Ca3 O4 2.531754 1_656
Fe0 O2 2.037792 1_555
Fe0 O1 2.037925 1_555
Fe0 O6 2.037940 1_555
Fe0 O5 2.037977 1_555
Fe1 O4 2.037863 1_556
Fe1 O3 2.037895 1_455
Fe1 O7 2.037968 1_565
Fe1 O0 2.038014 1_466
Fe2 O4 2.037870 1_555
Fe2 O7 2.037918 1_554
Fe2 O3 2.037927 1_554
Fe2 O0 2.038048 1_555
Fe3 O6 2.037888 1_555
Fe3 O5 2.037937 1_545
Fe3 O2 2.038004 1_445
Fe3 O1 2.038026 1_455
