# generated using pymatgen
data_KEu(WO3)2
_symmetry_space_group_name_H-M   'P 1'
_cell_length_a   5.73052781
_cell_length_b   5.74434436
_cell_length_c   8.08600362
_cell_angle_alpha   90.00000000
_cell_angle_beta   90.00000000
_cell_angle_gamma   90.00000000
_symmetry_Int_Tables_number   1
_chemical_formula_structural   KEu(WO3)2
_chemical_formula_sum   'K2 Eu2 W4 O12'
_cell_volume   266.17607876
_cell_formula_units_Z   2
loop_
 _symmetry_equiv_pos_site_id
 _symmetry_equiv_pos_as_xyz
  1  'x, y, z'
loop_
 _atom_site_type_symbol
 _atom_site_label
 _atom_site_symmetry_multiplicity
 _atom_site_fract_x
 _atom_site_fract_y
 _atom_site_fract_z
 _atom_site_occupancy
  K  K0  1  0.49678403  0.76087836  0.00000000  1
  K  K1  1  0.99678403  0.23912164  0.50000000  1
  Eu  Eu0  1  0.50963385  0.71232540  0.50000000  1
  Eu  Eu1  1  0.00963385  0.28767460  0.00000000  1
  W  W0  1  -0.00116737  0.75326374  0.25107417  1
  W  W1  1  0.49883263  0.24673626  0.24892583  1
  W  W2  1  -0.00116737  0.75326374  0.74892583  1
  W  W3  1  0.49883263  0.24673626  0.75107417  1
  O  O0  1  0.45872714  0.25989696  0.50000000  1
  O  O1  1  0.95872714  0.74010304  0.00000000  1
  O  O2  1  0.56949559  0.24759724  0.00000000  1
  O  O3  1  0.06949559  0.75240276  0.50000000  1
  O  O4  1  0.21280925  0.02661933  0.22170674  1
  O  O5  1  0.71280925  0.97338067  0.27829326  1
  O  O6  1  0.77103782  0.48761545  0.73030901  1
  O  O7  1  0.27103782  0.51238455  0.76969099  1
  O  O8  1  0.77103782  0.48761545  0.26969099  1
  O  O9  1  0.27103782  0.51238455  0.23030901  1
  O  O10  1  0.21280925  0.02661933  0.77829326  1
  O  O11  1  0.71280925  0.97338067  0.72170674  1
loop_
_geom_bond_atom_site_label_1
_geom_bond_atom_site_label_2
_geom_bond_distance
_geom_bond_site_symmetry_2
K0 O1 2.649867 1_555
K0 O7 2.679397 1_554
K0 O9 2.679397 1_555
K0 O2 2.826759 1_565
K0 O11 2.843647 1_554
K0 O5 2.843647 1_555
K0 O4 2.862213 1_565
K0 O10 2.862213 1_564
K0 O2 2.977760 1_555
K0 O1 3.085659 1_455
K0 O6 3.112803 1_554
K0 O8 3.112803 1_555
K1 O0 2.649867 1_655
K1 O8 2.679397 1_555
K1 O6 2.679397 1_555
K1 O3 2.826759 1_645
K1 O4 2.843647 1_655
K1 O10 2.843647 1_655
K1 O11 2.862213 1_545
K1 O5 2.862213 1_545
K1 O3 2.977760 1_655
K1 O0 3.085659 1_555
K1 O9 3.112803 1_655
K1 O7 3.112803 1_655
Eu0 O3 2.532709 1_555
Eu0 O11 2.611173 1_555
Eu0 O5 2.611173 1_555
Eu0 O0 2.615226 1_555
Eu0 O8 2.716290 1_555
Eu0 O6 2.716290 1_555
Eu0 O9 2.818533 1_555
Eu0 O7 2.818533 1_555
Eu1 O2 2.532709 1_455
Eu1 O4 2.611173 1_555
Eu1 O10 2.611173 1_554
Eu1 O1 2.615226 1_455
Eu1 O9 2.716290 1_555
Eu1 O7 2.716290 1_554
Eu1 O6 2.818533 1_454
Eu1 O8 2.818533 1_455
O0 W3 2.044552 1_555
O0 W1 2.044552 1_555
O1 W2 2.044552 1_654
O1 W0 2.044552 1_655
O2 W3 2.053149 1_554
O2 W1 2.053149 1_555
O3 W2 2.053149 1_555
O3 W0 2.053149 1_555
O4 W0 2.006398 1_545
O4 W1 2.081767 1_555
O5 W1 2.006398 1_565
O5 W0 2.081767 1_655
O6 W2 2.013775 1_655
O6 W3 2.091895 1_555
O7 W3 2.013775 1_555
O7 W2 2.091895 1_555
O8 W0 2.013775 1_655
O8 W1 2.091895 1_555
O9 W1 2.013775 1_555
O9 W0 2.091895 1_555
O10 W2 2.006398 1_545
O10 W3 2.081767 1_555
O11 W3 2.006398 1_565
O11 W2 2.081767 1_655
