# generated using pymatgen
data_Ti4CoS8
_symmetry_space_group_name_H-M   'P 1'
_cell_length_a   6.63771092
_cell_length_b   6.63771092
_cell_length_c   8.17714866
_cell_angle_alpha   53.61931895
_cell_angle_beta   53.61931895
_cell_angle_gamma   61.96366904
_symmetry_Int_Tables_number   1
_chemical_formula_structural   Ti4CoS8
_chemical_formula_sum   'Ti4 Co1 S8'
_cell_volume   229.60785193
_cell_formula_units_Z   1
loop_
 _symmetry_equiv_pos_site_id
 _symmetry_equiv_pos_as_xyz
  1  'x, y, z'
loop_
 _atom_site_type_symbol
 _atom_site_label
 _atom_site_symmetry_multiplicity
 _atom_site_fract_x
 _atom_site_fract_y
 _atom_site_fract_z
 _atom_site_occupancy
  Ti  Ti0  1  0.25689227  0.25689227  0.99487371  1
  Ti  Ti1  1  0.74310773  0.74310773  0.00512629  1
  Ti  Ti2  1  0.25818724  0.74181276  0.50000000  1
  Ti  Ti3  1  0.74181276  0.25818724  0.50000000  1
  Co  Co0  1  0.00000000  0.00000000  -0.00000000  1
  S  S0  1  0.96446329  0.96446329  0.32860678  1
  S  S1  1  0.03553671  0.03553671  0.67139322  1
  S  S2  1  0.45571261  0.45571261  0.33421096  1
  S  S3  1  0.54428739  0.54428739  0.66578904  1
  S  S4  1  0.03936651  0.54725897  0.16702114  1
  S  S5  1  0.54725897  0.03936651  0.16702214  1
  S  S6  1  0.96063349  0.45274103  0.83297886  1
  S  S7  1  0.45274103  0.96063349  0.83297786  1
loop_
_geom_bond_atom_site_label_1
_geom_bond_atom_site_label_2
_geom_bond_distance
_geom_bond_site_symmetry_2
Co0 S7 2.404331 1_544
Co0 S5 2.404331 1_455
Co0 S4 2.404332 1_545
Co0 S6 2.404332 1_454
Co0 S0 2.424890 1_445
Co0 S1 2.424890 1_554
S0 Ti0 2.440649 1_664
S0 Ti3 2.454632 1_565
S0 Ti2 2.454632 1_655
S1 Ti1 2.440649 1_446
S1 Ti3 2.454632 1_455
S1 Ti2 2.454632 1_545
S2 Ti1 2.400218 1_555
S2 Ti3 2.401705 1_555
S2 Ti2 2.401705 1_555
S3 Ti0 2.400218 1_555
S3 Ti2 2.401705 1_555
S3 Ti3 2.401705 1_555
S4 Ti1 2.439895 1_455
S4 Ti0 2.443848 1_554
S4 Ti3 2.445720 1_455
S5 Ti1 2.439900 1_545
S5 Ti0 2.443854 1_554
S5 Ti2 2.445719 1_545
S6 Ti0 2.439895 1_655
S6 Ti1 2.443848 1_556
S6 Ti2 2.445720 1_655
S7 Ti0 2.439900 1_565
S7 Ti1 2.443854 1_556
S7 Ti3 2.445719 1_565
