# generated using pymatgen
data_Nd16(Mo3O8)7
_symmetry_space_group_name_H-M   'P 1'
_cell_length_a   13.59582486
_cell_length_b   13.78060747
_cell_length_c   13.78867552
_cell_angle_alpha   90.00000000
_cell_angle_beta   101.18628674
_cell_angle_gamma   90.00000000
_symmetry_Int_Tables_number   1
_chemical_formula_structural   Nd16(Mo3O8)7
_chemical_formula_sum   'Nd32 Mo42 O112'
_cell_volume   2534.34770215
_cell_formula_units_Z   2
loop_
 _symmetry_equiv_pos_site_id
 _symmetry_equiv_pos_as_xyz
  1  'x, y, z'
loop_
 _atom_site_type_symbol
 _atom_site_label
 _atom_site_symmetry_multiplicity
 _atom_site_fract_x
 _atom_site_fract_y
 _atom_site_fract_z
 _atom_site_occupancy
  Nd  Nd0  1  0.22865848  0.62168793  0.62682051  1
  Nd  Nd1  1  0.27134152  0.12168793  0.37317949  1
  Nd  Nd2  1  0.77134152  0.37831207  0.37317949  1
  Nd  Nd3  1  0.72865848  0.87831207  0.62682051  1
  Nd  Nd4  1  0.22687284  0.80248947  0.86590958  1
  Nd  Nd5  1  0.27312716  0.30248947  0.13409042  1
  Nd  Nd6  1  0.77312716  0.19751053  0.13409042  1
  Nd  Nd7  1  0.72687284  0.69751053  0.86590958  1
  Nd  Nd8  1  0.42879170  0.81113292  0.68469079  1
  Nd  Nd9  1  0.07120830  0.31113292  0.31530921  1
  Nd  Nd10  1  0.57120830  0.18886708  0.31530921  1
  Nd  Nd11  1  0.92879170  0.68886708  0.68469079  1
  Nd  Nd12  1  0.45521429  0.61140463  0.89573657  1
  Nd  Nd13  1  0.04478571  0.11140463  0.10426343  1
  Nd  Nd14  1  0.54478571  0.38859537  0.10426343  1
  Nd  Nd15  1  0.95521429  0.88859537  0.89573657  1
  Nd  Nd16  1  0.85581337  0.66313973  0.35012751  1
  Nd  Nd17  1  0.64418663  0.16313973  0.64987249  1
  Nd  Nd18  1  0.14418663  0.33686027  0.64987249  1
  Nd  Nd19  1  0.35581337  0.83686027  0.35012751  1
  Nd  Nd20  1  0.37459312  0.58625185  0.14991325  1
  Nd  Nd21  1  0.12540688  0.08625185  0.85008675  1
  Nd  Nd22  1  0.62540688  0.41374815  0.85008675  1
  Nd  Nd23  1  0.87459312  0.91374815  0.14991325  1
  Nd  Nd24  1  0.36285712  0.33081116  0.87380990  1
  Nd  Nd25  1  0.13714288  0.83081116  0.12619010  1
  Nd  Nd26  1  0.63714288  0.66918884  0.12619010  1
  Nd  Nd27  1  0.86285712  0.16918884  0.87380990  1
  Nd  Nd28  1  0.13886797  0.62957130  0.30671766  1
  Nd  Nd29  1  0.36113203  0.12957130  0.69328234  1
  Nd  Nd30  1  0.86113203  0.37042870  0.69328234  1
  Nd  Nd31  1  0.63886797  0.87042870  0.30671766  1
  Mo  Mo0  1  0.26934230  0.41841974  0.47240640  1
  Mo  Mo1  1  0.23065770  0.91841974  0.52759360  1
  Mo  Mo2  1  0.73065770  0.58158026  0.52759360  1
  Mo  Mo3  1  0.76934230  0.08158026  0.47240640  1
  Mo  Mo4  1  0.07202576  0.77622720  0.47672700  1
  Mo  Mo5  1  0.42797424  0.27622720  0.52327300  1
  Mo  Mo6  1  0.92797424  0.22377280  0.52327300  1
  Mo  Mo7  1  0.57202576  0.72377280  0.47672700  1
  Mo  Mo8  1  0.42981984  0.44087045  0.65309383  1
  Mo  Mo9  1  0.07018016  0.94087045  0.34690617  1
  Mo  Mo10  1  0.57018016  0.55912955  0.34690617  1
  Mo  Mo11  1  0.92981984  0.05912955  0.65309383  1
  Mo  Mo12  1  0.58304088  0.60072534  0.65037803  1
  Mo  Mo13  1  0.91695912  0.10072534  0.34962197  1
  Mo  Mo14  1  0.41695912  0.39927466  0.34962197  1
  Mo  Mo15  1  0.08304088  0.89927466  0.65037803  1
  Mo  Mo16  1  0.58514532  0.42822439  0.52390219  1
  Mo  Mo17  1  0.91485468  0.92822439  0.47609781  1
  Mo  Mo18  1  0.41485468  0.57177561  0.47609781  1
  Mo  Mo19  1  0.08514532  0.07177561  0.52390219  1
  Mo  Mo20  1  0.22769765  0.49614714  0.95934872  1
  Mo  Mo21  1  0.27230235  0.99614714  0.04065128  1
  Mo  Mo22  1  0.77230235  0.50385286  0.04065128  1
  Mo  Mo23  1  0.72769765  0.00385286  0.95934872  1
  Mo  Mo24  1  0.08189454  0.51202015  0.79388390  1
  Mo  Mo25  1  0.41810546  0.01202015  0.20611610  1
  Mo  Mo26  1  0.91810546  0.48797985  0.20611610  1
  Mo  Mo27  1  0.58189454  0.98797985  0.79388390  1
  Mo  Mo28  1  0.93519294  0.65481070  0.07470042  1
  Mo  Mo29  1  0.56480706  0.15481070  0.92529958  1
  Mo  Mo30  1  0.06480706  0.34518930  0.92529958  1
  Mo  Mo31  1  0.43519294  0.84518930  0.07470042  1
  Mo  Mo32  1  0.08183231  0.64343074  0.95142785  1
  Mo  Mo33  1  0.41816769  0.14343074  0.04857215  1
  Mo  Mo34  1  0.91816769  0.35656926  0.04857215  1
  Mo  Mo35  1  0.58183231  0.85656926  0.95142785  1
  Mo  Mo36  1  0.07965037  0.48954399  0.09252509  1
  Mo  Mo37  1  0.42034963  0.98954399  0.90747491  1
  Mo  Mo38  1  0.92034963  0.51045601  0.90747491  1
  Mo  Mo39  1  0.57965037  0.01045601  0.09252509  1
  Mo  Mo40  1  0.00000000  0.50000000  0.50000000  1
  Mo  Mo41  1  0.50000000  0.00000000  0.50000000  1
  O  O0  1  0.73248854  0.60671993  0.67149830  1
  O  O1  1  0.76751146  0.10671993  0.32850170  1
  O  O2  1  0.26751146  0.39328007  0.32850170  1
  O  O3  1  0.23248854  0.89328007  0.67149830  1
  O  O4  1  0.27490893  0.44160577  0.61928128  1
  O  O5  1  0.22509107  0.94160577  0.38071872  1
  O  O6  1  0.72509107  0.55839423  0.38071872  1
  O  O7  1  0.77490893  0.05839423  0.61928128  1
  O  O8  1  0.24214023  0.06674991  0.54455198  1
  O  O9  1  0.25785977  0.56674991  0.45544802  1
  O  O10  1  0.75785977  0.93325009  0.45544802  1
  O  O11  1  0.74214023  0.43325009  0.54455198  1
  O  O12  1  0.22591147  0.76697869  0.51481827  1
  O  O13  1  0.27408853  0.26697869  0.48518173  1
  O  O14  1  0.77408853  0.23302131  0.48518173  1
  O  O15  1  0.72591147  0.73302131  0.51481827  1
  O  O16  1  0.88900746  0.59051178  0.53763710  1
  O  O17  1  0.61099254  0.09051178  0.46236290  1
  O  O18  1  0.11099254  0.40948822  0.46236290  1
  O  O19  1  0.38900746  0.90948822  0.53763710  1
  O  O20  1  0.07915123  0.75077515  0.62676237  1
  O  O21  1  0.42084877  0.25077515  0.37323763  1
  O  O22  1  0.92084877  0.24922485  0.37323763  1
  O  O23  1  0.57915123  0.74922485  0.62676237  1
  O  O24  1  0.92864908  0.21206766  0.66882065  1
  O  O25  1  0.57135092  0.71206766  0.33117935  1
  O  O26  1  0.07135092  0.78793234  0.33117935  1
  O  O27  1  0.42864908  0.28793234  0.66882065  1
  O  O28  1  0.07641014  0.21929845  0.53697794  1
  O  O29  1  0.42358986  0.71929845  0.46302206  1
  O  O30  1  0.92358986  0.78070155  0.46302206  1
  O  O31  1  0.57641014  0.28070155  0.53697794  1
  O  O32  1  0.94336018  0.37381365  0.55339871  1
  O  O33  1  0.55663982  0.87381365  0.44660129  1
  O  O34  1  0.05663982  0.62618635  0.44660129  1
  O  O35  1  0.44336018  0.12618635  0.55339871  1
  O  O36  1  0.92310174  0.90118045  0.63055891  1
  O  O37  1  0.57689826  0.40118045  0.36944109  1
  O  O38  1  0.07689826  0.09881955  0.36944109  1
  O  O39  1  0.42310174  0.59881955  0.63055891  1
  O  O40  1  0.09234427  0.04965524  0.67743513  1
  O  O41  1  0.40765573  0.54965524  0.32256487  1
  O  O42  1  0.90765573  0.95034476  0.32256487  1
  O  O43  1  0.59234427  0.45034476  0.67743513  1
  O  O44  1  0.95309532  0.04459736  0.80595776  1
  O  O45  1  0.54690468  0.54459736  0.19404224  1
  O  O46  1  0.04690468  0.95540264  0.19404224  1
  O  O47  1  0.45309532  0.45540264  0.80595776  1
  O  O48  1  0.07995936  0.88579651  0.79370925  1
  O  O49  1  0.42004064  0.38579651  0.20629075  1
  O  O50  1  0.92004064  0.11420349  0.20629075  1
  O  O51  1  0.57995936  0.61420349  0.79370925  1
  O  O52  1  0.23592870  0.64193116  0.97038208  1
  O  O53  1  0.26407130  0.14193116  0.02961792  1
  O  O54  1  0.76407130  0.35806884  0.02961792  1
  O  O55  1  0.73592870  0.85806884  0.97038208  1
  O  O56  1  0.21918554  0.34670363  0.95809521  1
  O  O57  1  0.28081446  0.84670363  0.04190479  1
  O  O58  1  0.78081446  0.65329637  0.04190479  1
  O  O59  1  0.71918554  0.15329637  0.95809521  1
  O  O60  1  0.26444330  0.97861076  0.88883343  1
  O  O61  1  0.23555670  0.47861076  0.11116657  1
  O  O62  1  0.73555670  0.02138924  0.11116657  1
  O  O63  1  0.76444330  0.52138924  0.88883343  1
  O  O64  1  0.23113619  0.48199326  0.81313611  1
  O  O65  1  0.26886381  0.98199326  0.18686389  1
  O  O66  1  0.76886381  0.51800674  0.18686389  1
  O  O67  1  0.73113619  0.01800674  0.81313611  1
  O  O68  1  0.88845679  0.00624284  0.99663721  1
  O  O69  1  0.61154321  0.50624284  0.00336279  1
  O  O70  1  0.11154321  0.99375716  0.00336279  1
  O  O71  1  0.38845679  0.49375716  0.99663721  1
  O  O72  1  0.08196261  0.66073575  0.80305912  1
  O  O73  1  0.41803739  0.16073575  0.19694088  1
  O  O74  1  0.91803739  0.33926425  0.19694088  1
  O  O75  1  0.58196261  0.83926425  0.80305912  1
  O  O76  1  0.04942954  0.36475382  0.77182412  1
  O  O77  1  0.45057046  0.86475382  0.22817588  1
  O  O78  1  0.95057046  0.63524618  0.22817588  1
  O  O79  1  0.54942954  0.13524618  0.77182412  1
  O  O80  1  0.92436821  0.52766688  0.75512298  1
  O  O81  1  0.57563179  0.02766688  0.24487702  1
  O  O82  1  0.07563179  0.47233312  0.24487702  1
  O  O83  1  0.42436821  0.97233312  0.75512298  1
  O  O84  1  0.09038900  0.51821577  0.63778463  1
  O  O85  1  0.40961100  0.01821577  0.36221537  1
  O  O86  1  0.90961100  0.48178423  0.36221537  1
  O  O87  1  0.59038900  0.98178423  0.63778463  1
  O  O88  1  0.92401496  0.66591166  0.91623310  1
  O  O89  1  0.57598504  0.16591166  0.08376690  1
  O  O90  1  0.07598504  0.33408834  0.08376690  1
  O  O91  1  0.42401496  0.83408834  0.91623310  1
  O  O92  1  0.90403011  0.35349388  0.88983802  1
  O  O93  1  0.59596989  0.85349388  0.11016198  1
  O  O94  1  0.09596989  0.64650612  0.11016198  1
  O  O95  1  0.40403011  0.14650612  0.88983802  1
  O  O96  1  0.04433950  0.19606954  0.92772056  1
  O  O97  1  0.45566050  0.69606954  0.07227944  1
  O  O98  1  0.95566050  0.80393046  0.07227944  1
  O  O99  1  0.54433950  0.30393046  0.92772056  1
  O  O100  1  0.09490916  0.79037761  0.95859381  1
  O  O101  1  0.40509084  0.29037761  0.04140619  1
  O  O102  1  0.90509084  0.20962239  0.04140619  1
  O  O103  1  0.59490916  0.70962239  0.95859381  1
  O  O104  1  0.74761793  0.26709391  0.75191406  1
  O  O105  1  0.75238207  0.76709391  0.24808594  1
  O  O106  1  0.25238207  0.73290609  0.24808594  1
  O  O107  1  0.24761793  0.23290609  0.75191406  1
  O  O108  1  0.82476968  0.79322865  0.76085537  1
  O  O109  1  0.67523032  0.29322865  0.23914463  1
  O  O110  1  0.17523032  0.20677135  0.23914463  1
  O  O111  1  0.32476968  0.70677135  0.76085537  1
loop_
_geom_bond_atom_site_label_1
_geom_bond_atom_site_label_2
_geom_bond_distance
_geom_bond_site_symmetry_2
Nd0 O111 2.358164 1_555
Nd0 O84 2.387534 1_555
Nd0 O12 2.524452 1_555
Nd0 O4 2.567123 1_555
Nd0 O9 2.584291 1_555
Nd0 O39 2.652886 1_555
Nd0 O20 2.701041 1_555
Nd1 O110 2.358164 1_555
Nd1 O85 2.387534 1_555
Nd1 O13 2.524452 1_555
Nd1 O5 2.567123 1_545
Nd1 O8 2.584291 1_555
Nd1 O38 2.652886 1_555
Nd1 O21 2.701041 1_555
Nd2 O109 2.358164 1_555
Nd2 O86 2.387534 1_555
Nd2 O14 2.524452 1_555
Nd2 O6 2.567123 1_555
Nd2 O11 2.584291 1_555
Nd2 O37 2.652886 1_555
Nd2 O22 2.701041 1_555
Nd3 O108 2.358164 1_555
Nd3 O87 2.387534 1_555
Nd3 O15 2.524452 1_555
Nd3 O7 2.567123 1_565
Nd3 O10 2.584291 1_555
Nd3 O36 2.652886 1_555
Nd3 O23 2.701041 1_555
Nd4 O48 2.350994 1_555
Nd4 O100 2.402034 1_555
Nd4 O57 2.471362 1_556
Nd4 O60 2.487729 1_555
Nd4 O111 2.521472 1_555
Nd4 O52 2.630029 1_555
Nd4 O91 2.670870 1_555
Nd4 O72 2.790364 1_555
Nd4 O3 2.972647 1_555
Nd5 O49 2.350994 1_555
Nd5 O101 2.402034 1_555
Nd5 O56 2.471362 1_554
Nd5 O61 2.487729 1_555
Nd5 O110 2.521472 1_555
Nd5 O53 2.630029 1_555
Nd5 O90 2.670870 1_555
Nd5 O73 2.790364 1_555
Nd5 O2 2.972647 1_555
Nd6 O50 2.350994 1_555
Nd6 O102 2.402034 1_555
Nd6 O59 2.471362 1_554
Nd6 O62 2.487729 1_555
Nd6 O109 2.521472 1_555
Nd6 O54 2.630029 1_555
Nd6 O89 2.670870 1_555
Nd6 O74 2.790364 1_555
Nd6 O1 2.972647 1_555
Nd7 O51 2.350994 1_555
Nd7 O103 2.402034 1_555
Nd7 O58 2.471362 1_556
Nd7 O63 2.487729 1_555
Nd7 O108 2.521472 1_555
Nd7 O55 2.630029 1_555
Nd7 O88 2.670870 1_555
Nd7 O75 2.790364 1_555
Nd7 O0 2.972647 1_555
Nd8 O111 2.397434 1_555
Nd8 O19 2.411554 1_555
Nd8 O75 2.414983 1_555
Nd8 O83 2.429861 1_555
Nd8 O23 2.485639 1_555
Nd8 O39 3.016795 1_555
Nd9 O110 2.397434 1_555
Nd9 O18 2.411554 1_555
Nd9 O74 2.414983 1_455
Nd9 O82 2.429861 1_555
Nd9 O22 2.485639 1_455
Nd9 O38 3.016795 1_555
Nd10 O109 2.397434 1_555
Nd10 O17 2.411554 1_555
Nd10 O73 2.414983 1_555
Nd10 O81 2.429861 1_555
Nd10 O21 2.485639 1_555
Nd10 O37 3.016795 1_555
Nd11 O108 2.397434 1_555
Nd11 O16 2.411554 1_555
Nd11 O72 2.414983 1_655
Nd11 O80 2.429861 1_555
Nd11 O20 2.485639 1_655
Nd11 O36 3.016795 1_555
Nd12 O103 2.356201 1_555
Nd12 O51 2.404756 1_555
Nd12 O71 2.424432 1_555
Nd12 O47 2.478127 1_555
Nd12 O111 2.655496 1_555
Nd12 O97 2.698398 1_556
Nd12 O69 2.756099 1_556
Nd13 O102 2.356201 1_455
Nd13 O50 2.404756 1_455
Nd13 O70 2.424432 1_545
Nd13 O46 2.478127 1_545
Nd13 O110 2.655496 1_555
Nd13 O96 2.698398 1_554
Nd13 O68 2.756099 1_454
Nd14 O101 2.356201 1_555
Nd14 O49 2.404756 1_555
Nd14 O69 2.424432 1_555
Nd14 O45 2.478127 1_555
Nd14 O109 2.655496 1_555
Nd14 O99 2.698398 1_554
Nd14 O71 2.756099 1_554
Nd15 O100 2.356201 1_655
Nd15 O48 2.404756 1_655
Nd15 O68 2.424432 1_565
Nd15 O44 2.478127 1_565
Nd15 O108 2.655496 1_555
Nd15 O98 2.698398 1_556
Nd15 O70 2.756099 1_656
Nd16 O105 2.289477 1_555
Nd16 O30 2.310933 1_555
Nd16 O78 2.340006 1_555
Nd16 O6 2.389787 1_555
Nd16 O86 2.600270 1_555
Nd16 O16 2.727180 1_555
Nd17 O104 2.289477 1_555
Nd17 O31 2.310933 1_555
Nd17 O79 2.340006 1_555
Nd17 O7 2.389787 1_555
Nd17 O87 2.600270 1_545
Nd17 O17 2.727180 1_555
Nd18 O107 2.289477 1_555
Nd18 O28 2.310933 1_555
Nd18 O76 2.340006 1_555
Nd18 O4 2.389787 1_555
Nd18 O84 2.600270 1_555
Nd18 O18 2.727180 1_555
Nd19 O106 2.289477 1_555
Nd19 O29 2.310933 1_555
Nd19 O77 2.340006 1_555
Nd19 O5 2.389787 1_555
Nd19 O85 2.600270 1_565
Nd19 O19 2.727180 1_555
Nd20 O97 2.260247 1_555
Nd20 O45 2.373813 1_555
Nd20 O61 2.380595 1_555
Nd20 O41 2.389274 1_555
Nd20 O71 2.506303 1_554
Nd20 O49 2.903544 1_555
Nd20 O52 2.908651 1_554
Nd20 O106 3.090352 1_555
Nd21 O96 2.260247 1_555
Nd21 O44 2.373813 1_455
Nd21 O60 2.380595 1_545
Nd21 O40 2.389274 1_555
Nd21 O70 2.506303 1_546
Nd21 O48 2.903544 1_545
Nd21 O53 2.908651 1_556
Nd21 O107 3.090352 1_555
Nd22 O99 2.260247 1_555
Nd22 O47 2.373813 1_555
Nd22 O63 2.380595 1_555
Nd22 O43 2.389274 1_555
Nd22 O69 2.506303 1_556
Nd22 O51 2.903544 1_555
Nd22 O54 2.908651 1_556
Nd22 O104 3.090352 1_555
Nd23 O98 2.260247 1_555
Nd23 O46 2.373813 1_655
Nd23 O62 2.380595 1_565
Nd23 O42 2.389274 1_555
Nd23 O68 2.506303 1_564
Nd23 O50 2.903544 1_565
Nd23 O55 2.908651 1_554
Nd23 O105 3.090352 1_555
Nd24 O101 2.337890 1_556
Nd24 O47 2.402871 1_555
Nd24 O99 2.462970 1_555
Nd24 O107 2.465433 1_555
Nd24 O56 2.468796 1_555
Nd24 O95 2.600954 1_555
Nd24 O64 2.768797 1_555
Nd24 O71 2.793393 1_555
Nd24 O27 3.181123 1_555
Nd25 O100 2.337890 1_554
Nd25 O46 2.402871 1_555
Nd25 O98 2.462970 1_455
Nd25 O106 2.465433 1_555
Nd25 O57 2.468796 1_555
Nd25 O94 2.600954 1_555
Nd25 O65 2.768797 1_555
Nd25 O70 2.793393 1_555
Nd25 O26 3.181123 1_555
Nd26 O103 2.337890 1_554
Nd26 O45 2.402871 1_555
Nd26 O97 2.462970 1_555
Nd26 O105 2.465433 1_555
Nd26 O58 2.468796 1_555
Nd26 O93 2.600954 1_555
Nd26 O66 2.768797 1_555
Nd26 O69 2.793393 1_555
Nd26 O25 3.181123 1_555
Nd27 O102 2.337890 1_556
Nd27 O44 2.402871 1_555
Nd27 O96 2.462970 1_655
Nd27 O104 2.465433 1_555
Nd27 O59 2.468796 1_555
Nd27 O92 2.600954 1_555
Nd27 O67 2.768797 1_555
Nd27 O68 2.793393 1_555
Nd27 O24 3.181123 1_555
Nd28 O106 2.355283 1_555
Nd28 O34 2.410181 1_555
Nd28 O26 2.416405 1_555
Nd28 O82 2.424254 1_555
Nd28 O9 2.507028 1_555
Nd28 O78 2.580146 1_455
Nd28 O94 2.669593 1_555
Nd29 O107 2.355283 1_555
Nd29 O35 2.410181 1_555
Nd29 O27 2.416405 1_555
Nd29 O83 2.424254 1_545
Nd29 O8 2.507028 1_555
Nd29 O79 2.580146 1_555
Nd29 O95 2.669593 1_555
Nd30 O104 2.355283 1_555
Nd30 O32 2.410181 1_555
Nd30 O24 2.416405 1_555
Nd30 O80 2.424254 1_555
Nd30 O11 2.507028 1_555
Nd30 O76 2.580146 1_655
Nd30 O92 2.669593 1_555
Nd31 O105 2.355283 1_555
Nd31 O33 2.410181 1_555
Nd31 O25 2.416405 1_555
Nd31 O81 2.424254 1_565
Nd31 O10 2.507028 1_555
Nd31 O77 2.580146 1_555
Nd31 O93 2.669593 1_555
Mo0 O2 2.009663 1_555
Mo0 O4 2.037112 1_555
Mo0 O9 2.059890 1_555
Mo0 O13 2.094312 1_555
Mo0 O18 2.133918 1_555
Mo1 O3 2.009663 1_555
Mo1 O5 2.037112 1_555
Mo1 O8 2.059890 1_565
Mo1 O12 2.094312 1_555
Mo1 O19 2.133918 1_555
Mo2 O0 2.009663 1_555
Mo2 O6 2.037112 1_555
Mo2 O11 2.059890 1_555
Mo2 O15 2.094312 1_555
Mo2 O16 2.133918 1_555
Mo3 O1 2.009663 1_555
Mo3 O7 2.037112 1_555
Mo3 O10 2.059890 1_545
Mo3 O14 2.094312 1_555
Mo3 O17 2.133918 1_555
Mo4 O30 1.991056 1_455
Mo4 O26 2.011627 1_555
Mo4 O12 2.059868 1_555
Mo4 O20 2.081954 1_555
Mo4 O34 2.111348 1_555
Mo5 O31 1.991056 1_555
Mo5 O27 2.011627 1_555
Mo5 O13 2.059868 1_555
Mo5 O21 2.081954 1_555
Mo5 O35 2.111348 1_555
Mo6 O28 1.991056 1_655
Mo6 O24 2.011627 1_555
Mo6 O14 2.059868 1_555
Mo6 O22 2.081954 1_555
Mo6 O32 2.111348 1_555
Mo7 O29 1.991056 1_555
Mo7 O25 2.011627 1_555
Mo7 O15 2.059868 1_555
Mo7 O23 2.081954 1_555
Mo7 O33 2.111348 1_555
Mo8 O4 2.066957 1_555
Mo8 O47 2.079478 1_555
Mo8 O27 2.119083 1_555
Mo8 O43 2.173594 1_555
Mo8 O39 2.198095 1_555
Mo9 O5 2.066957 1_555
Mo9 O46 2.079478 1_555
Mo9 O26 2.119083 1_555
Mo9 O42 2.173594 1_455
Mo9 O38 2.198095 1_565
Mo10 O6 2.066957 1_555
Mo10 O45 2.079478 1_555
Mo10 O25 2.119083 1_555
Mo10 O41 2.173594 1_555
Mo10 O37 2.198095 1_555
Mo11 O7 2.066957 1_555
Mo11 O44 2.079478 1_555
Mo11 O24 2.119083 1_555
Mo11 O40 2.173594 1_655
Mo11 O36 2.198095 1_545
Mo12 O51 1.993572 1_555
Mo12 O0 1.997628 1_555
Mo12 O23 2.071221 1_555
Mo12 O43 2.105102 1_555
Mo12 O39 2.138521 1_555
Mo13 O50 1.993572 1_555
Mo13 O1 1.997628 1_555
Mo13 O22 2.071221 1_555
Mo13 O42 2.105102 1_545
Mo13 O38 2.138521 1_655
Mo14 O49 1.993572 1_555
Mo14 O2 1.997628 1_555
Mo14 O21 2.071221 1_555
Mo14 O41 2.105102 1_555
Mo14 O37 2.138521 1_555
Mo15 O48 1.993572 1_555
Mo15 O3 1.997628 1_555
Mo15 O20 2.071221 1_555
Mo15 O40 2.105102 1_565
Mo15 O36 2.138521 1_455
Mo16 O31 2.046417 1_555
Mo16 O11 2.099058 1_555
Mo16 O43 2.122231 1_555
Mo16 O37 2.143575 1_555
Mo17 O30 2.046417 1_555
Mo17 O10 2.099058 1_555
Mo17 O42 2.122231 1_555
Mo17 O36 2.143575 1_555
Mo18 O29 2.046417 1_555
Mo18 O9 2.099058 1_555
Mo18 O41 2.122231 1_555
Mo18 O39 2.143575 1_555
Mo19 O28 2.046417 1_555
Mo19 O8 2.099058 1_555
Mo19 O40 2.122231 1_555
Mo19 O38 2.143575 1_555
Mo20 O52 2.016213 1_555
Mo20 O64 2.035036 1_555
Mo20 O56 2.062556 1_555
Mo20 O61 2.089310 1_556
Mo20 O71 2.146276 1_555
Mo21 O53 2.016213 1_565
Mo21 O65 2.035036 1_555
Mo21 O57 2.062556 1_555
Mo21 O60 2.089310 1_554
Mo21 O70 2.146276 1_555
Mo22 O54 2.016213 1_555
Mo22 O66 2.035036 1_555
Mo22 O58 2.062556 1_555
Mo22 O63 2.089310 1_554
Mo22 O69 2.146276 1_555
Mo23 O55 2.016213 1_545
Mo23 O67 2.035036 1_555
Mo23 O59 2.062556 1_555
Mo23 O62 2.089310 1_556
Mo23 O68 2.146276 1_555
Mo24 O64 2.037105 1_555
Mo24 O72 2.053282 1_555
Mo24 O76 2.086575 1_555
Mo24 O80 2.115395 1_455
Mo24 O84 2.179429 1_555
Mo25 O65 2.037105 1_545
Mo25 O73 2.053282 1_555
Mo25 O77 2.086575 1_545
Mo25 O81 2.115395 1_555
Mo25 O85 2.179429 1_555
Mo26 O66 2.037105 1_555
Mo26 O74 2.053282 1_555
Mo26 O78 2.086575 1_555
Mo26 O82 2.115395 1_655
Mo26 O86 2.179429 1_555
Mo27 O67 2.037105 1_565
Mo27 O75 2.053282 1_555
Mo27 O79 2.086575 1_565
Mo27 O83 2.115395 1_555
Mo27 O87 2.179429 1_555
Mo28 O58 2.059625 1_555
Mo28 O98 2.074854 1_555
Mo28 O78 2.103125 1_555
Mo28 O94 2.148399 1_655
Mo28 O88 2.166130 1_554
Mo29 O59 2.059625 1_555
Mo29 O99 2.074854 1_555
Mo29 O79 2.103125 1_555
Mo29 O95 2.148399 1_555
Mo29 O89 2.166130 1_556
Mo30 O56 2.059625 1_555
Mo30 O96 2.074854 1_555
Mo30 O76 2.103125 1_555
Mo30 O92 2.148399 1_455
Mo30 O90 2.166130 1_556
Mo31 O57 2.059625 1_555
Mo31 O97 2.074854 1_555
Mo31 O77 2.103125 1_555
Mo31 O93 2.148399 1_555
Mo31 O91 2.166130 1_554
Mo32 O100 2.033532 1_555
Mo32 O72 2.060003 1_555
Mo32 O52 2.060483 1_555
Mo32 O88 2.128689 1_455
Mo32 O94 2.160107 1_556
Mo33 O101 2.033532 1_555
Mo33 O73 2.060003 1_555
Mo33 O53 2.060483 1_555
Mo33 O89 2.128689 1_555
Mo33 O95 2.160107 1_554
Mo34 O102 2.033532 1_555
Mo34 O74 2.060003 1_555
Mo34 O54 2.060483 1_555
Mo34 O90 2.128689 1_655
Mo34 O92 2.160107 1_554
Mo35 O103 2.033532 1_555
Mo35 O75 2.060003 1_555
Mo35 O55 2.060483 1_555
Mo35 O91 2.128689 1_555
Mo35 O93 2.160107 1_556
Mo36 O61 2.090549 1_555
Mo36 O82 2.125286 1_555
Mo36 O90 2.145709 1_555
Mo36 O94 2.183151 1_555
Mo37 O60 2.090549 1_555
Mo37 O83 2.125286 1_555
Mo37 O91 2.145709 1_555
Mo37 O95 2.183151 1_565
Mo38 O63 2.090549 1_555
Mo38 O80 2.125286 1_555
Mo38 O88 2.145709 1_555
Mo38 O92 2.183151 1_555
Mo39 O62 2.090549 1_555
Mo39 O81 2.125286 1_555
Mo39 O89 2.145709 1_555
Mo39 O93 2.183151 1_545
Mo40 O84 2.068054 1_555
Mo40 O86 2.068054 1_455
Mo40 O32 2.092603 1_455
Mo40 O34 2.092603 1_555
Mo40 O18 2.099082 1_555
Mo40 O16 2.099082 1_455
Mo41 O87 2.068054 1_545
Mo41 O85 2.068054 1_555
Mo41 O35 2.092603 1_555
Mo41 O33 2.092603 1_545
Mo41 O17 2.099082 1_555
Mo41 O19 2.099082 1_545
