# generated using pymatgen
data_TiCoNi2
_symmetry_space_group_name_H-M   'P 1'
_cell_length_a   5.08894240
_cell_length_b   5.08894240
_cell_length_c   8.28710500
_cell_angle_alpha   90.00000000
_cell_angle_beta   90.00000000
_cell_angle_gamma   120.16122561
_symmetry_Int_Tables_number   1
_chemical_formula_structural   TiCoNi2
_chemical_formula_sum   'Ti4 Co4 Ni8'
_cell_volume   185.55842896
_cell_formula_units_Z   4
loop_
 _symmetry_equiv_pos_site_id
 _symmetry_equiv_pos_as_xyz
  1  'x, y, z'
loop_
 _atom_site_type_symbol
 _atom_site_label
 _atom_site_symmetry_multiplicity
 _atom_site_fract_x
 _atom_site_fract_y
 _atom_site_fract_z
 _atom_site_occupancy
  Ti  Ti0  1  0.66661600  0.33338400  0.50000000  1
  Ti  Ti1  1  0.33388300  0.66611700  0.00000000  1
  Ti  Ti2  1  0.99937100  0.00062900  0.25318100  1
  Ti  Ti3  1  0.99937100  0.00062900  0.74681900  1
  Co  Co0  1  0.17248200  0.82751800  0.50000000  1
  Co  Co1  1  0.65425300  0.82704500  0.50000000  1
  Co  Co2  1  0.17295500  0.34574700  0.50000000  1
  Co  Co3  1  0.82783900  0.17216100  0.00000000  1
  Ni  Ni0  1  0.34398400  0.17138700  0.00000000  1
  Ni  Ni1  1  0.82861300  0.65601600  0.00000000  1
  Ni  Ni2  1  0.50068900  0.00048000  0.25000000  1
  Ni  Ni3  1  0.50010700  0.49989300  0.24999300  1
  Ni  Ni4  1  0.99952000  0.49931100  0.25000000  1
  Ni  Ni5  1  0.50068900  0.00048000  0.75000000  1
  Ni  Ni6  1  0.50010700  0.49989300  0.75000700  1
  Ni  Ni7  1  0.99952000  0.49931100  0.75000000  1
loop_
_geom_bond_atom_site_label_1
_geom_bond_atom_site_label_2
_geom_bond_distance
_geom_bond_site_symmetry_2
Co0 Co1 2.452915 1_555
Co0 Co2 2.452915 1_555
Co0 Ni4 2.525742 1_455
Co0 Ni7 2.525742 1_455
Co0 Ni2 2.525742 1_565
Co0 Ni5 2.525742 1_565
Co0 Ti0 2.538795 1_455
Co0 Ti0 2.538795 1_565
Co0 Ti2 2.552593 1_465
Co0 Ti3 2.552593 1_465
Co0 Co2 2.636029 1_565
Co0 Co1 2.636029 1_455
Co1 Co2 2.443327 1_555
Co1 Ni3 2.523342 1_555
Co1 Ni6 2.523342 1_555
Co1 Ni5 2.524884 1_565
Co1 Ni2 2.524884 1_565
Co1 Ti0 2.544404 1_555
Co1 Ti0 2.545701 1_565
Co1 Ti2 2.547469 1_565
Co1 Ti3 2.547469 1_565
Co1 Co2 2.633209 1_665
Co2 Ni3 2.523342 1_555
Co2 Ni6 2.523342 1_555
Co2 Ni7 2.524884 1_455
Co2 Ni4 2.524884 1_455
Co2 Ti0 2.544404 1_555
Co2 Ti0 2.545701 1_455
Co2 Ti2 2.547469 1_455
Co2 Ti3 2.547469 1_455
Co3 Ni0 2.460334 1_555
Co3 Ni1 2.460334 1_555
Co3 Ni2 2.523027 1_555
Co3 Ni7 2.523027 1_554
Co3 Ni5 2.523027 1_554
Co3 Ni4 2.523027 1_555
Co3 Ti1 2.538828 1_545
Co3 Ti1 2.538828 1_655
Co3 Ti3 2.586859 1_554
Co3 Ti2 2.586859 1_555
Co3 Ni1 2.628613 1_545
Co3 Ni0 2.628613 1_655
Ni0 Ni1 2.460237 1_555
Ni0 Ni2 2.526184 1_555
Ni0 Ni5 2.526184 1_554
Ni0 Ni6 2.526523 1_554
Ni0 Ni3 2.526523 1_555
Ni0 Ti1 2.543868 1_555
Ni0 Ti1 2.545851 1_545
Ni0 Ti3 2.588718 1_454
Ni0 Ti2 2.588718 1_455
Ni0 Ni1 2.616299 1_445
Ni1 Ni7 2.526184 1_554
Ni1 Ni4 2.526184 1_555
Ni1 Ni6 2.526523 1_554
Ni1 Ni3 2.526523 1_555
Ni1 Ti1 2.543868 1_555
Ni1 Ti1 2.545851 1_655
Ni1 Ti3 2.588718 1_564
Ni1 Ti2 2.588718 1_565
Ni2 Ni4 2.532334 1_555
Ni2 Ti0 2.537292 1_555
Ni2 Ti2 2.537520 1_555
Ni2 Ti1 2.541002 1_545
Ni2 Ni3 2.542973 1_555
Ni2 Ni4 2.544202 1_445
Ni2 Ni3 2.545972 1_545
Ni2 Ti2 2.551696 1_455
Ni3 Ti1 2.538142 1_555
Ni3 Ti2 2.538414 1_455
Ni3 Ti2 2.538414 1_565
Ni3 Ti0 2.539690 1_555
Ni3 Ni4 2.542973 1_555
Ni3 Ni4 2.545972 1_455
Ni4 Ti0 2.537292 1_555
Ni4 Ti2 2.537520 1_555
Ni4 Ti1 2.541002 1_655
Ni4 Ti2 2.551696 1_565
Ni5 Ni7 2.532334 1_555
Ni5 Ti0 2.537292 1_555
Ni5 Ti3 2.537520 1_555
Ni5 Ti1 2.541002 1_546
Ni5 Ni6 2.542973 1_555
Ni5 Ni7 2.544202 1_445
Ni5 Ni6 2.545972 1_545
Ni5 Ti3 2.551696 1_455
Ni6 Ti1 2.538142 1_556
Ni6 Ti3 2.538414 1_455
Ni6 Ti3 2.538414 1_565
Ni6 Ti0 2.539690 1_555
Ni6 Ni7 2.542973 1_555
Ni6 Ni7 2.545972 1_455
Ni7 Ti0 2.537292 1_555
Ni7 Ti3 2.537520 1_555
Ni7 Ti1 2.541002 1_656
Ni7 Ti3 2.551696 1_565
