# generated using pymatgen
data_ScMn3(BiO3)4
_symmetry_space_group_name_H-M   'P 1'
_cell_length_a   5.65357113
_cell_length_b   5.65351671
_cell_length_c   9.94671414
_cell_angle_alpha   73.56356442
_cell_angle_beta   73.56642298
_cell_angle_gamma   61.59757362
_symmetry_Int_Tables_number   1
_chemical_formula_structural   ScMn3(BiO3)4
_chemical_formula_sum   'Sc1 Mn3 Bi4 O12'
_cell_volume   264.04825694
_cell_formula_units_Z   1
loop_
 _symmetry_equiv_pos_site_id
 _symmetry_equiv_pos_as_xyz
  1  'x, y, z'
loop_
 _atom_site_type_symbol
 _atom_site_label
 _atom_site_symmetry_multiplicity
 _atom_site_fract_x
 _atom_site_fract_y
 _atom_site_fract_z
 _atom_site_occupancy
  Sc  Sc0  1  0.77524000  0.22478400  0.74999500  1
  Mn  Mn0  1  0.20981000  0.79017700  0.25002200  1
  Mn  Mn1  1  0.99562500  0.49350600  0.99862800  1
  Mn  Mn2  1  0.50616000  0.00449200  0.50135400  1
  Bi  Bi0  1  0.92939600  0.35481500  0.37211400  1
  Bi  Bi1  1  0.64530900  0.07055400  0.12785600  1
  Bi  Bi2  1  0.08401400  0.65349600  0.61951300  1
  Bi  Bi3  1  0.34659200  0.91593900  0.88049700  1
  O  O0  1  0.57145900  0.71277000  0.12992900  1
  O  O1  1  0.28726500  0.42852500  0.37007600  1
  O  O2  1  0.40808800  0.27508200  0.87921300  1
  O  O3  1  0.72490300  0.59196000  0.62074300  1
  O  O4  1  0.80817500  0.90021100  0.33608400  1
  O  O5  1  0.09991600  0.19170700  0.16398300  1
  O  O6  1  0.21185200  0.10226700  0.66473500  1
  O  O7  1  0.89772500  0.78814300  0.83527400  1
  O  O8  1  0.91278400  0.25686000  0.92089900  1
  O  O9  1  0.74313100  0.08725800  0.57909100  1
  O  O10  1  0.06764000  0.72504800  0.08293100  1
  O  O11  1  0.27491600  0.93240600  0.41706500  1
loop_
_geom_bond_atom_site_label_1
_geom_bond_atom_site_label_2
_geom_bond_distance
_geom_bond_site_symmetry_2
Mn0 O1 1.964837 1_555
Mn0 O0 1.965085 1_555
Mn0 O5 2.032559 1_565
Mn0 O4 2.033102 1_455
Mn0 O11 2.219547 1_555
Mn0 O10 2.219817 1_555
Mn1 O7 1.954797 1_555
Mn1 O10 1.975809 1_656
Mn1 O5 1.991879 1_656
Mn1 O8 1.998341 1_555
Mn1 O2 2.212897 1_655
Mn1 O0 2.304156 1_556
Mn2 O6 1.954096 1_555
Mn2 O11 1.974480 1_545
Mn2 O4 1.991995 1_545
Mn2 O9 1.999740 1_555
Mn2 O3 2.213316 1_545
Mn2 O1 2.303055 1_555
Bi0 O1 2.245363 1_655
Bi0 O11 2.273944 1_645
Bi0 O5 2.273963 1_655
Bi0 O9 2.482305 1_555
Bi0 O4 2.758412 1_555
Bi0 O3 2.834443 1_555
Bi1 O0 2.245252 1_545
Bi1 O10 2.273663 1_645
Bi1 O4 2.274154 1_545
Bi1 O8 2.482064 1_554
Bi1 O5 2.758433 1_555
Bi1 O2 2.834684 1_554
Bi2 O3 2.213280 1_455
Bi2 O7 2.275394 1_455
Bi2 O9 2.296501 1_465
Bi2 O11 2.509700 1_555
Bi2 O6 2.772092 1_555
Bi2 O1 2.806446 1_555
Bi3 O2 2.213147 1_565
Bi3 O6 2.275533 1_565
Bi3 O8 2.296766 1_465
Bi3 O10 2.509766 1_556
Bi3 O7 2.771687 1_555
Bi3 O0 2.806033 1_556
O2 Sc0 2.043830 1_555
O3 Sc0 2.043940 1_555
O6 Sc0 2.193969 1_455
O7 Sc0 2.194081 1_565
O8 Sc0 2.141000 1_555
O9 Sc0 2.141045 1_555
