# generated using pymatgen
data_TiAlFe
_symmetry_space_group_name_H-M   'P 1'
_cell_length_a   4.89819450
_cell_length_b   4.96473139
_cell_length_c   8.00153000
_cell_angle_alpha   90.00000000
_cell_angle_beta   90.00000000
_cell_angle_gamma   120.46316572
_symmetry_Int_Tables_number   1
_chemical_formula_structural   TiAlFe
_chemical_formula_sum   'Ti4 Al4 Fe4'
_cell_volume   167.72181332
_cell_formula_units_Z   4
loop_
 _symmetry_equiv_pos_site_id
 _symmetry_equiv_pos_as_xyz
  1  'x, y, z'
loop_
 _atom_site_type_symbol
 _atom_site_label
 _atom_site_symmetry_multiplicity
 _atom_site_fract_x
 _atom_site_fract_y
 _atom_site_fract_z
 _atom_site_occupancy
  Ti  Ti0  1  0.67145400  0.33655000  0.54781500  1
  Ti  Ti1  1  0.34231300  0.67183200  0.42546800  1
  Ti  Ti2  1  0.34231300  0.67183200  0.07453200  1
  Ti  Ti3  1  0.67145400  0.33655000  0.95218500  1
  Al  Al0  1  0.98309200  0.99058700  0.48963500  1
  Al  Al1  1  0.98309200  0.99058700  0.01036500  1
  Al  Al2  1  0.17939700  0.34530700  0.75000000  1
  Al  Al3  1  0.18228700  0.83524100  0.75000000  1
  Fe  Fe0  1  0.66949800  0.83271800  0.75000000  1
  Fe  Fe1  1  0.81789300  0.64576900  0.25000000  1
  Fe  Fe2  1  0.82003200  0.17432200  0.25000000  1
  Fe  Fe3  1  0.33717500  0.16870400  0.25000000  1
loop_
_geom_bond_atom_site_label_1
_geom_bond_atom_site_label_2
_geom_bond_distance
_geom_bond_site_symmetry_2
Ti0 Ti1 2.996792 1_655
Ti0 Ti1 3.008241 1_555
Ti0 Ti1 3.008938 1_545
Ti0 Ti3 3.235579 1_555
Ti1 Ti2 2.808025 1_555
Ti2 Ti3 2.996792 1_454
Ti2 Ti3 3.008241 1_554
Ti2 Ti3 3.008938 1_564
Al0 Fe1 2.420220 1_555
Al0 Fe2 2.425978 1_565
Al0 Fe3 2.431356 1_665
Al0 Fe0 2.468445 1_555
Al0 Al2 2.578604 1_665
Al0 Al3 2.578768 1_655
Al0 Ti1 2.753688 1_555
Al0 Ti0 2.839848 1_555
Al0 Ti0 2.855784 1_565
Al0 Ti0 2.943341 1_665
Al0 Ti1 2.947440 1_655
Al0 Ti1 2.960510 1_665
Al1 Fe1 2.420220 1_555
Al1 Fe2 2.425978 1_565
Al1 Fe3 2.431356 1_665
Al1 Fe0 2.468445 1_554
Al1 Al2 2.578604 1_664
Al1 Al3 2.578768 1_654
Al1 Ti2 2.753688 1_555
Al1 Ti3 2.839848 1_554
Al1 Ti3 2.855784 1_564
Al1 Ti3 2.943341 1_664
Al1 Ti2 2.947440 1_655
Al1 Ti2 2.960510 1_665
Al2 Fe0 2.393403 1_555
Al2 Al3 2.425245 1_555
Al2 Fe0 2.503891 1_445
Al2 Al3 2.539547 1_545
Al2 Ti3 2.921370 1_555
Al2 Ti0 2.921370 1_555
Al2 Ti2 2.948933 1_556
Al2 Ti1 2.948933 1_555
Al2 Ti3 2.949511 1_455
Al2 Ti0 2.949511 1_455
Al3 Fe0 2.392829 1_555
Al3 Fe0 2.505413 1_455
Al3 Ti3 2.916499 1_565
Al3 Ti0 2.916499 1_565
Al3 Ti2 2.942873 1_556
Al3 Ti1 2.942873 1_555
Al3 Ti3 2.954050 1_455
Al3 Ti0 2.954050 1_455
Fe0 Ti2 2.941349 1_556
Fe0 Ti1 2.941349 1_555
Fe0 Ti3 2.951155 1_555
Fe0 Ti0 2.951155 1_555
Fe0 Ti3 2.974893 1_565
Fe0 Ti0 2.974893 1_565
Fe1 Fe3 2.345054 1_555
Fe1 Fe2 2.345937 1_555
Fe1 Fe3 2.552286 1_665
Fe1 Fe2 2.618827 1_565
Fe1 Ti0 2.726413 1_555
Fe1 Ti3 2.726413 1_554
Fe1 Ti1 2.778511 1_555
Fe1 Ti2 2.778511 1_555
Fe1 Ti1 2.872150 1_655
Fe1 Ti2 2.872150 1_655
Fe2 Fe3 2.351110 1_555
Fe2 Fe3 2.547321 1_655
Fe2 Ti0 2.729699 1_555
Fe2 Ti3 2.729699 1_554
Fe2 Ti1 2.784102 1_545
Fe2 Ti2 2.784102 1_545
Fe2 Ti1 2.865243 1_655
Fe2 Ti2 2.865243 1_655
Fe3 Ti0 2.769557 1_555
Fe3 Ti3 2.769557 1_554
Fe3 Ti1 2.849581 1_545
Fe3 Ti2 2.849581 1_545
Fe3 Ti1 2.854404 1_555
Fe3 Ti2 2.854404 1_555
