# generated using pymatgen
data_Cs2AsH5O6
_symmetry_space_group_name_H-M   'P 1'
_cell_length_a   8.04930050
_cell_length_b   8.56099042
_cell_length_c   14.42185600
_cell_angle_alpha   90.00000000
_cell_angle_beta   90.00000000
_cell_angle_gamma   120.58571817
_symmetry_Int_Tables_number   1
_chemical_formula_structural   Cs2AsH5O6
_chemical_formula_sum   'Cs8 As4 H20 O24'
_cell_volume   855.53999885
_cell_formula_units_Z   4
loop_
 _symmetry_equiv_pos_site_id
 _symmetry_equiv_pos_as_xyz
  1  'x, y, z'
loop_
 _atom_site_type_symbol
 _atom_site_label
 _atom_site_symmetry_multiplicity
 _atom_site_fract_x
 _atom_site_fract_y
 _atom_site_fract_z
 _atom_site_occupancy
  Cs  Cs0  1  0.25891300  0.75536600  0.23347900  1
  Cs  Cs1  1  0.74108700  0.74463400  0.73347900  1
  Cs  Cs2  1  0.74108700  0.24463400  0.76652100  1
  Cs  Cs3  1  0.25891300  0.25536600  0.26652100  1
  Cs  Cs4  1  0.74996000  0.75352400  0.41685200  1
  Cs  Cs5  1  0.25004000  0.74647600  0.91685200  1
  Cs  Cs6  1  0.25004000  0.24647600  0.58314800  1
  Cs  Cs7  1  0.74996000  0.25352400  0.08314800  1
  As  As0  1  0.74541900  0.23644400  0.35898900  1
  As  As1  1  0.25458100  0.26355600  0.85898900  1
  As  As2  1  0.25458100  0.76355600  0.64101100  1
  As  As3  1  0.74541900  0.73644400  0.14101100  1
  H  H0  1  0.14823100  0.94844700  0.08172300  1
  H  H1  1  0.85176900  0.55155300  0.58172300  1
  H  H2  1  0.85176900  0.05155300  0.91827700  1
  H  H3  1  0.14823100  0.44844700  0.41827700  1
  H  H4  1  0.34857300  0.04882400  0.41680100  1
  H  H5  1  0.65142700  0.45117600  0.91680100  1
  H  H6  1  0.65142700  0.95117600  0.58319900  1
  H  H7  1  0.34857300  0.54882400  0.08319900  1
  H  H8  1  0.77577500  0.48283800  0.26563800  1
  H  H9  1  0.22422500  0.01716200  0.76563800  1
  H  H10  1  0.22422500  0.51716200  0.73436200  1
  H  H11  1  0.77577500  0.98283800  0.23436200  1
  H  H12  1  0.17908700  0.87481500  0.46735500  1
  H  H13  1  0.82091300  0.62518500  0.96735500  1
  H  H14  1  0.82091300  0.12518500  0.53264500  1
  H  H15  1  0.17908700  0.37481500  0.03264500  1
  H  H16  1  0.31583000  0.12238700  0.02987200  1
  H  H17  1  0.68417000  0.37761300  0.52987200  1
  H  H18  1  0.68417000  0.87761300  0.97012800  1
  H  H19  1  0.31583000  0.62238700  0.47012800  1
  O  O0  1  0.86608300  0.44239100  0.29211400  1
  O  O1  1  0.13391700  0.05760900  0.79211400  1
  O  O2  1  0.13391700  0.55760900  0.70788600  1
  O  O3  1  0.86608300  0.94239100  0.20788600  1
  O  O4  1  0.57088200  0.24539800  0.42283100  1
  O  O5  1  0.42911800  0.25460200  0.92283100  1
  O  O6  1  0.42911800  0.75460200  0.57716900  1
  O  O7  1  0.57088200  0.74539800  0.07716900  1
  O  O8  1  0.65162100  0.06181000  0.28037200  1
  O  O9  1  0.34837900  0.43819000  0.78037200  1
  O  O10  1  0.34837900  0.93819000  0.71962800  1
  O  O11  1  0.65162100  0.56181000  0.21962800  1
  O  O12  1  0.92579500  0.24165600  0.42379100  1
  O  O13  1  0.07420500  0.25834400  0.92379100  1
  O  O14  1  0.07420500  0.75834400  0.57620900  1
  O  O15  1  0.92579500  0.74165600  0.07620900  1
  O  O16  1  0.21011000  0.94964200  0.41031700  1
  O  O17  1  0.78989000  0.55035800  0.91031700  1
  O  O18  1  0.78989000  0.05035800  0.58968300  1
  O  O19  1  0.21011000  0.44964200  0.08968300  1
  O  O20  1  0.28689600  0.04742500  0.08654200  1
  O  O21  1  0.71310400  0.45257500  0.58654200  1
  O  O22  1  0.71310400  0.95257500  0.91345800  1
  O  O23  1  0.28689600  0.54742500  0.41345800  1
loop_
_geom_bond_atom_site_label_1
_geom_bond_atom_site_label_2
_geom_bond_distance
_geom_bond_site_symmetry_2
Cs0 O8 2.982074 1_565
Cs0 O0 3.044775 1_455
Cs0 H7 3.105366 1_555
Cs0 H0 3.132834 1_555
Cs0 O16 3.176415 1_555
Cs0 O20 3.196840 1_565
Cs0 O19 3.202958 1_555
Cs0 O23 3.219493 1_555
Cs0 O7 3.407773 1_555
Cs0 O15 3.468087 1_455
Cs1 O9 2.982074 1_555
Cs1 O1 3.044775 1_665
Cs1 H6 3.105366 1_555
Cs1 H1 3.132834 1_555
Cs1 O17 3.176415 1_555
Cs1 O21 3.196840 1_555
Cs1 O18 3.202958 1_565
Cs1 O22 3.219493 1_555
Cs1 O6 3.407773 1_555
Cs1 O14 3.468087 1_655
Cs2 O10 2.982074 1_545
Cs2 O2 3.044775 1_655
Cs2 H5 3.105366 1_555
Cs2 H2 3.132834 1_555
Cs2 O18 3.176415 1_555
Cs2 O22 3.196840 1_545
Cs2 O17 3.202958 1_555
Cs2 O21 3.219493 1_555
Cs2 O5 3.407773 1_555
Cs2 O13 3.468087 1_655
Cs3 O11 2.982074 1_555
Cs3 O3 3.044775 1_445
Cs3 H4 3.105366 1_555
Cs3 H3 3.132834 1_555
Cs3 O19 3.176415 1_555
Cs3 O23 3.196840 1_555
Cs3 O16 3.202958 1_545
Cs3 O20 3.219493 1_555
Cs3 O4 3.407773 1_555
Cs3 O12 3.468087 1_455
Cs4 H12 3.144834 1_655
Cs4 H19 3.173249 1_555
Cs4 O11 3.176234 1_555
Cs4 O16 3.196576 1_655
Cs4 O23 3.211846 1_555
Cs4 H11 3.226241 1_555
Cs4 H6 3.257809 1_555
Cs4 H8 3.264828 1_555
Cs4 H1 3.279772 1_555
Cs4 O3 3.321485 1_555
Cs5 H13 3.144834 1_455
Cs5 H18 3.173249 1_555
Cs5 O10 3.176234 1_555
Cs5 O17 3.196576 1_455
Cs5 O22 3.211846 1_555
Cs5 H10 3.226241 1_555
Cs5 H7 3.257809 1_556
Cs5 H9 3.264828 1_565
Cs5 H0 3.279772 1_556
Cs5 O2 3.321485 1_555
Cs6 H14 3.144834 1_455
Cs6 H17 3.173249 1_555
Cs6 O9 3.176234 1_555
Cs6 O18 3.196576 1_455
Cs6 O21 3.211846 1_555
Cs6 H9 3.226241 1_555
Cs6 H4 3.257809 1_555
Cs6 H10 3.264828 1_555
Cs6 H3 3.279772 1_555
Cs6 O1 3.321485 1_555
Cs7 H15 3.144834 1_655
Cs7 H16 3.173249 1_555
Cs7 O8 3.176234 1_555
Cs7 O19 3.196576 1_655
Cs7 O20 3.211846 1_555
Cs7 H8 3.226241 1_555
Cs7 H5 3.257809 1_554
Cs7 H11 3.264828 1_545
Cs7 H2 3.279772 1_554
Cs7 O0 3.321485 1_555
As0 O12 1.708066 1_555
As0 O4 1.713751 1_555
As0 O8 1.715225 1_555
As0 O0 1.799839 1_555
As1 O13 1.708066 1_555
As1 O5 1.713751 1_555
As1 O9 1.715225 1_555
As1 O1 1.799839 1_555
As2 O14 1.708066 1_555
As2 O6 1.713751 1_555
As2 O10 1.715225 1_555
As2 O2 1.799839 1_555
As3 O15 1.708066 1_555
As3 O7 1.713751 1_555
As3 O11 1.715225 1_555
As3 O3 1.799839 1_555
H0 O20 1.003078 1_565
H1 O21 1.003078 1_555
H2 O22 1.003078 1_545
H3 O23 1.003078 1_555
H4 O16 1.004409 1_545
H5 O17 1.004409 1_555
H6 O18 1.004409 1_565
H7 O19 1.004409 1_555
H8 O0 1.024819 1_555
H8 O11 1.607375 1_555
H9 O1 1.024819 1_555
H9 O10 1.607375 1_545
H10 O2 1.024819 1_555
H10 O9 1.607375 1_555
H11 O3 1.024819 1_555
H11 O8 1.607375 1_565
H12 O16 0.993272 1_555
H13 O17 0.993272 1_555
H14 O18 0.993272 1_555
H15 O19 0.993272 1_555
H16 O20 0.990929 1_555
H17 O21 0.990929 1_555
H18 O22 0.990929 1_555
H19 O23 0.990929 1_555
