# generated using pymatgen
data_Eu2Mn2O5
_symmetry_space_group_name_H-M   'P 1'
_cell_length_a   8.88802329
_cell_length_b   8.88802329
_cell_length_c   8.88802329
_cell_angle_alpha   144.05640653
_cell_angle_beta   142.91242343
_cell_angle_gamma   52.60475071
_symmetry_Int_Tables_number   1
_chemical_formula_structural   Eu2Mn2O5
_chemical_formula_sum   'Eu4 Mn4 O10'
_cell_volume   247.05940928
_cell_formula_units_Z   2
loop_
 _symmetry_equiv_pos_site_id
 _symmetry_equiv_pos_as_xyz
  1  'x, y, z'
loop_
 _atom_site_type_symbol
 _atom_site_label
 _atom_site_symmetry_multiplicity
 _atom_site_fract_x
 _atom_site_fract_y
 _atom_site_fract_z
 _atom_site_occupancy
  Eu  Eu0  1  0.87150300  0.38687500  0.47971500  1
  Eu  Eu1  1  0.12849700  0.60821200  0.51537200  1
  Eu  Eu2  1  0.40716000  0.88687500  0.51537200  1
  Eu  Eu3  1  0.59284000  0.10821200  0.47971500  1
  Mn  Mn0  1  0.00000000  0.98899600  0.98899600  1
  Mn  Mn1  1  0.50000000  0.48899600  0.98899600  1
  Mn  Mn2  1  0.80273500  0.77668500  0.07942000  1
  Mn  Mn3  1  0.19726500  0.27668500  0.97395000  1
  O  O0  1  0.75874900  0.75534700  0.48738400  1
  O  O1  1  0.24125100  0.72863600  0.99659800  1
  O  O2  1  0.76796300  0.25534700  0.99659800  1
  O  O3  1  0.23203700  0.22863600  0.48738400  1
  O  O4  1  0.80406100  0.83402400  0.90288600  1
  O  O5  1  0.19593900  0.09882600  0.02996300  1
  O  O6  1  0.43113700  0.33402400  0.02996300  1
  O  O7  1  0.56886300  0.59882600  0.90288600  1
  O  O8  1  0.84565000  0.15840000  0.50405000  1
  O  O9  1  0.15435000  0.65840000  0.31275000  1
loop_
_geom_bond_atom_site_label_1
_geom_bond_atom_site_label_2
_geom_bond_distance
_geom_bond_site_symmetry_2
Eu0 O8 2.362312 1_555
Eu0 O6 2.397949 1_555
Eu0 O1 2.564077 1_655
Eu0 O3 2.565887 1_655
Eu0 O4 2.607756 1_555
Eu0 O0 2.737807 1_555
Eu0 O2 2.743334 1_554
Eu0 O4 2.944942 1_544
Eu1 O9 2.362312 1_555
Eu1 O7 2.397948 1_555
Eu1 O0 2.564073 1_455
Eu1 O2 2.565885 1_454
Eu1 O5 2.607760 1_566
Eu1 O1 2.737801 1_555
Eu1 O3 2.743326 1_555
Eu1 O5 2.944940 1_555
Eu2 O9 2.362312 1_555
Eu2 O4 2.397946 1_555
Eu2 O3 2.564081 1_565
Eu2 O1 2.565890 1_554
Eu2 O6 2.607760 1_566
Eu2 O2 2.737807 1_565
Eu2 O0 2.743334 1_555
Eu2 O6 2.944940 1_555
Eu3 O8 2.362312 1_555
Eu3 O5 2.397949 1_555
Eu3 O2 2.564073 1_555
Eu3 O0 2.565885 1_545
Eu3 O7 2.607758 1_555
Eu3 O3 2.737804 1_555
Eu3 O1 2.743329 1_544
Eu3 O7 2.944944 1_544
Mn0 O3 1.973661 1_566
Mn0 O2 1.973662 1_465
Mn0 O1 1.988080 1_555
Mn0 O0 1.988085 1_455
Mn0 O4 2.143825 1_455
Mn0 O5 2.143832 1_566
Mn1 O0 1.973662 1_556
Mn1 O1 1.973665 1_555
Mn1 O3 1.988085 1_555
Mn1 O2 1.988085 1_555
Mn1 O6 2.143832 1_556
Mn1 O7 2.143840 1_555
Mn2 O7 2.013265 1_554
Mn2 O4 2.013279 1_554
Mn2 O9 2.090979 1_655
Mn2 O8 2.107632 1_565
Mn3 O5 2.013271 1_556
Mn3 O6 2.013271 1_556
Mn3 O8 2.090979 1_455
Mn3 O9 2.107632 1_556
