# generated using pymatgen
data_Na2FeNi2(PO4)3
_symmetry_space_group_name_H-M   'P 1'
_cell_length_a   8.59361192
_cell_length_b   8.59361192
_cell_length_c   6.51936075
_cell_angle_alpha   73.93111193
_cell_angle_beta   73.93111193
_cell_angle_gamma   94.28970781
_symmetry_Int_Tables_number   1
_chemical_formula_structural   Na2FeNi2(PO4)3
_chemical_formula_sum   'Na4 Fe2 Ni4 P6 O24'
_cell_volume   438.55184995
_cell_formula_units_Z   2
loop_
 _symmetry_equiv_pos_site_id
 _symmetry_equiv_pos_as_xyz
  1  'x, y, z'
loop_
 _atom_site_type_symbol
 _atom_site_label
 _atom_site_symmetry_multiplicity
 _atom_site_fract_x
 _atom_site_fract_y
 _atom_site_fract_z
 _atom_site_occupancy
  Na  Na0  1  0.00000000  0.00000000  0.50000000  1
  Na  Na1  1  0.00000000  0.00000000  0.00000000  1
  Na  Na2  1  0.48453500  0.51546500  0.25000000  1
  Na  Na3  1  0.51546500  0.48453500  0.75000000  1
  Fe  Fe0  1  0.23407500  0.76592500  0.75000000  1
  Fe  Fe1  1  0.76592500  0.23407500  0.25000000  1
  Ni  Ni0  1  0.12362300  0.44523400  0.62454100  1
  Ni  Ni1  1  0.55476600  0.87637700  0.87545900  1
  Ni  Ni2  1  0.87637700  0.55476600  0.37545900  1
  Ni  Ni3  1  0.44523400  0.12362300  0.12454100  1
  P  P0  1  0.20410800  0.79589200  0.25000000  1
  P  P1  1  0.79589200  0.20410800  0.75000000  1
  P  P2  1  0.84508400  0.61985800  0.87616700  1
  P  P3  1  0.38014200  0.15491600  0.62383300  1
  P  P4  1  0.15491600  0.38014200  0.12383300  1
  P  P5  1  0.61985800  0.84508400  0.37616700  1
  O  O0  1  0.24211900  0.68703100  0.46530700  1
  O  O1  1  0.31296900  0.75788100  0.03469300  1
  O  O2  1  0.75788100  0.31296900  0.53469300  1
  O  O3  1  0.68703100  0.24211900  0.96530700  1
  O  O4  1  0.67511400  0.67071200  0.89190200  1
  O  O5  1  0.32928800  0.32488600  0.60809800  1
  O  O6  1  0.32488600  0.32928800  0.10809800  1
  O  O7  1  0.67071200  0.67511400  0.39190200  1
  O  O8  1  0.89992000  0.54227800  0.68680200  1
  O  O9  1  0.45772200  0.10008000  0.81319800  1
  O  O10  1  0.10008000  0.45772200  0.31319800  1
  O  O11  1  0.54227800  0.89992000  0.18680200  1
  O  O12  1  0.82276500  0.48722900  0.11147700  1
  O  O13  1  0.51277100  0.17723500  0.38852300  1
  O  O14  1  0.17723500  0.51277100  0.88852300  1
  O  O15  1  0.48722900  0.82276500  0.61147700  1
  O  O16  1  0.02477900  0.76629000  0.25695500  1
  O  O17  1  0.23371000  0.97522100  0.24304500  1
  O  O18  1  0.97522100  0.23371000  0.74304500  1
  O  O19  1  0.76629000  0.02477900  0.75695500  1
  O  O20  1  0.98448300  0.76441100  0.83235300  1
  O  O21  1  0.23558900  0.01551700  0.66764700  1
  O  O22  1  0.01551700  0.23558900  0.16764700  1
  O  O23  1  0.76441100  0.98448300  0.33235300  1
loop_
_geom_bond_atom_site_label_1
_geom_bond_atom_site_label_2
_geom_bond_distance
_geom_bond_site_symmetry_2
Na0 O17 2.298747 1_545
Na0 O19 2.298747 1_455
Na0 O22 2.486485 1_555
Na0 O20 2.486485 1_445
Na0 O21 2.564451 1_555
Na0 O23 2.564451 1_445
Na0 O16 2.868552 1_545
Na0 O18 2.868552 1_455
Na1 O16 2.298747 1_545
Na1 O18 2.298747 1_454
Na1 O21 2.486485 1_554
Na1 O23 2.486485 1_445
Na1 O22 2.564451 1_555
Na1 O20 2.564451 1_444
Na1 O19 2.868552 1_454
Na1 O17 2.868552 1_545
Na2 O5 2.396808 1_555
Na2 O4 2.396808 1_554
Na2 O6 2.547843 1_555
Na2 O7 2.547843 1_555
Na2 O13 2.845446 1_555
Na2 O12 2.845446 1_555
Na2 O0 2.910372 1_555
Na2 O1 2.910372 1_555
Na3 O6 2.396808 1_556
Na3 O7 2.396808 1_555
Na3 O4 2.547843 1_555
Na3 O5 2.547843 1_555
Na3 O14 2.845446 1_555
Na3 O15 2.845446 1_555
Na3 O3 2.910372 1_555
Na3 O2 2.910372 1_555
Fe0 O20 2.059967 1_455
Fe0 O21 2.059967 1_565
Fe0 O14 2.072729 1_555
Fe0 O15 2.072729 1_555
Fe0 O0 2.131157 1_555
Fe0 O1 2.131157 1_556
Fe1 O23 2.059967 1_545
Fe1 O22 2.059967 1_655
Fe1 O12 2.072729 1_555
Fe1 O13 2.072729 1_555
Fe1 O3 2.131157 1_554
Fe1 O2 2.131157 1_555
Ni0 O18 1.964143 1_455
Ni0 O10 2.069387 1_555
Ni0 O0 2.082413 1_555
Ni0 O5 2.105890 1_555
Ni0 O14 2.112537 1_555
Ni0 O8 2.133352 1_455
Ni1 O19 1.964143 1_565
Ni1 O11 2.069387 1_556
Ni1 O1 2.082413 1_556
Ni1 O4 2.105890 1_555
Ni1 O15 2.112537 1_555
Ni1 O9 2.133352 1_565
Ni2 O16 1.964143 1_655
Ni2 O8 2.069387 1_555
Ni2 O2 2.082413 1_555
Ni2 O7 2.105890 1_555
Ni2 O12 2.112537 1_555
Ni2 O10 2.133352 1_655
Ni3 O17 1.964143 1_545
Ni3 O9 2.069387 1_554
Ni3 O3 2.082413 1_554
Ni3 O6 2.105890 1_555
Ni3 O13 2.112537 1_555
Ni3 O11 2.133352 1_545
O0 P0 1.588948 1_555
O1 P0 1.588948 1_555
O2 P1 1.588948 1_555
O3 P1 1.588948 1_555
O4 P2 1.540256 1_555
O5 P3 1.540256 1_555
O6 P4 1.540256 1_555
O7 P5 1.540256 1_555
O8 P2 1.539873 1_555
O9 P3 1.539873 1_555
O10 P4 1.539873 1_555
O11 P5 1.539873 1_555
O12 P2 1.589245 1_554
O13 P3 1.589245 1_555
O14 P4 1.589245 1_556
O15 P5 1.589245 1_555
O16 P0 1.529050 1_555
O17 P0 1.529050 1_555
O18 P1 1.529050 1_555
O19 P1 1.529050 1_555
O20 P2 1.565668 1_555
O21 P3 1.565668 1_555
O22 P4 1.565668 1_555
O23 P5 1.565668 1_555
