# generated using pymatgen
data_Ho2(MoO4)3
_symmetry_space_group_name_H-M   'P 1'
_cell_length_a   10.44493000
_cell_length_b   10.45512400
_cell_length_c   10.65976700
_cell_angle_alpha   90.00000000
_cell_angle_beta   90.00000000
_cell_angle_gamma   90.00000000
_symmetry_Int_Tables_number   1
_chemical_formula_structural   Ho2(MoO4)3
_chemical_formula_sum   'Ho8 Mo12 O48'
_cell_volume   1164.07894420
_cell_formula_units_Z   4
loop_
 _symmetry_equiv_pos_site_id
 _symmetry_equiv_pos_as_xyz
  1  'x, y, z'
loop_
 _atom_site_type_symbol
 _atom_site_label
 _atom_site_symmetry_multiplicity
 _atom_site_fract_x
 _atom_site_fract_y
 _atom_site_fract_z
 _atom_site_occupancy
  Ho  Ho0  1  0.68660900  0.00123200  0.75166100  1
  Ho  Ho1  1  0.31339100  0.99876800  0.75166100  1
  Ho  Ho2  1  0.81339100  0.50123200  0.75166100  1
  Ho  Ho3  1  0.18660900  0.49876800  0.75166100  1
  Ho  Ho4  1  0.00108300  0.18694900  0.27685700  1
  Ho  Ho5  1  0.99891700  0.81305100  0.27685700  1
  Ho  Ho6  1  0.49891700  0.68694900  0.27685700  1
  Ho  Ho7  1  0.50108300  0.31305100  0.27685700  1
  Mo  Mo0  1  0.70514300  0.00833700  0.36940200  1
  Mo  Mo1  1  0.29485700  0.99166300  0.36940200  1
  Mo  Mo2  1  0.79485700  0.50833700  0.36940200  1
  Mo  Mo3  1  0.20514300  0.49166300  0.36940200  1
  Mo  Mo4  1  0.50687600  0.29612500  0.65900600  1
  Mo  Mo5  1  0.49312400  0.70387500  0.65900600  1
  Mo  Mo6  1  0.99312400  0.79612500  0.65900600  1
  Mo  Mo7  1  0.00687600  0.20387500  0.65900600  1
  Mo  Mo8  1  0.75599900  0.25442200  0.01366900  1
  Mo  Mo9  1  0.24400100  0.74557800  0.01366900  1
  Mo  Mo10  1  0.74400100  0.75442200  0.01366900  1
  Mo  Mo11  1  0.25599900  0.24557800  0.01366900  1
  O  O0  1  0.69390600  0.00281800  0.53615000  1
  O  O1  1  0.30609400  0.99718200  0.53615000  1
  O  O2  1  0.80609400  0.50281800  0.53615000  1
  O  O3  1  0.19390600  0.49718200  0.53615000  1
  O  O4  1  0.98614300  0.18988000  0.49337900  1
  O  O5  1  0.01385700  0.81012000  0.49337900  1
  O  O6  1  0.51385700  0.68988000  0.49337900  1
  O  O7  1  0.48614300  0.31012000  0.49337900  1
  O  O8  1  0.62714800  0.49409100  0.32086700  1
  O  O9  1  0.37285200  0.50590900  0.32086700  1
  O  O10  1  0.87285200  0.99409100  0.32086700  1
  O  O11  1  0.12714800  0.00590900  0.32086700  1
  O  O12  1  0.99586200  0.37263000  0.70556500  1
  O  O13  1  0.00413800  0.62737000  0.70556500  1
  O  O14  1  0.50413800  0.87263000  0.70556500  1
  O  O15  1  0.49586200  0.12737000  0.70556500  1
  O  O16  1  0.66406900  0.34699900  0.70264100  1
  O  O17  1  0.33593100  0.65300100  0.70264100  1
  O  O18  1  0.83593100  0.84699900  0.70264100  1
  O  O19  1  0.16406900  0.15300100  0.70264100  1
  O  O20  1  0.65367800  0.16362800  0.32167500  1
  O  O21  1  0.34632200  0.83637200  0.32167500  1
  O  O22  1  0.84632200  0.66362800  0.32167500  1
  O  O23  1  0.15367800  0.33637200  0.32167500  1
  O  O24  1  0.88468900  0.11196300  0.73339600  1
  O  O25  1  0.11531100  0.88803700  0.73339600  1
  O  O26  1  0.61531100  0.61196300  0.73339600  1
  O  O27  1  0.38468900  0.38803700  0.73339600  1
  O  O28  1  0.88715800  0.38212700  0.30172500  1
  O  O29  1  0.11284200  0.61787300  0.30172500  1
  O  O30  1  0.61284200  0.88212700  0.30172500  1
  O  O31  1  0.38715800  0.11787300  0.30172500  1
  O  O32  1  0.63407000  0.32233100  0.11057100  1
  O  O33  1  0.36593000  0.67766900  0.11057100  1
  O  O34  1  0.86593000  0.82233100  0.11057100  1
  O  O35  1  0.13407000  0.17766900  0.11057100  1
  O  O36  1  0.83118600  0.37728600  0.92186600  1
  O  O37  1  0.16881400  0.62271400  0.92186600  1
  O  O38  1  0.66881400  0.87728600  0.92186600  1
  O  O39  1  0.33118600  0.12271400  0.92186600  1
  O  O40  1  0.86978100  0.17557700  0.11289500  1
  O  O41  1  0.13021900  0.82442300  0.11289500  1
  O  O42  1  0.63021900  0.67557700  0.11289500  1
  O  O43  1  0.36978100  0.32442300  0.11289500  1
  O  O44  1  0.68396600  0.14175600  0.90897600  1
  O  O45  1  0.31603400  0.85824400  0.90897600  1
  O  O46  1  0.81603400  0.64175600  0.90897600  1
  O  O47  1  0.18396600  0.35824400  0.90897600  1
loop_
_geom_bond_atom_site_label_1
_geom_bond_atom_site_label_2
_geom_bond_distance
_geom_bond_site_symmetry_2
Ho0 O44 2.229670 1_555
Ho0 O38 2.237337 1_545
Ho0 O0 2.298621 1_555
Ho0 O18 2.303437 1_545
Ho0 O24 2.378796 1_555
Ho0 O14 2.383633 1_545
Ho0 O15 2.439275 1_555
Ho1 O45 2.229670 1_555
Ho1 O39 2.237337 1_565
Ho1 O1 2.298621 1_555
Ho1 O19 2.303437 1_565
Ho1 O25 2.378796 1_555
Ho1 O15 2.383633 1_565
Ho1 O14 2.439275 1_555
Ho2 O46 2.229670 1_555
Ho2 O36 2.237337 1_555
Ho2 O2 2.298621 1_555
Ho2 O16 2.303437 1_555
Ho2 O26 2.378796 1_555
Ho2 O12 2.383633 1_555
Ho2 O13 2.439275 1_655
Ho3 O47 2.229670 1_555
Ho3 O37 2.237337 1_555
Ho3 O3 2.298621 1_555
Ho3 O17 2.303437 1_555
Ho3 O27 2.378796 1_555
Ho3 O13 2.383633 1_555
Ho3 O12 2.439275 1_455
Ho4 O40 2.224810 1_455
Ho4 O35 2.254074 1_555
Ho4 O23 2.282359 1_555
Ho4 O4 2.313546 1_455
Ho4 O11 2.352991 1_555
Ho4 O28 2.377039 1_455
Ho4 O10 2.465698 1_445
Ho5 O41 2.224810 1_655
Ho5 O34 2.254074 1_555
Ho5 O22 2.282359 1_555
Ho5 O5 2.313546 1_655
Ho5 O10 2.352991 1_555
Ho5 O29 2.377039 1_655
Ho5 O11 2.465698 1_665
Ho6 O42 2.224810 1_555
Ho6 O33 2.254074 1_555
Ho6 O21 2.282359 1_555
Ho6 O6 2.313546 1_555
Ho6 O9 2.352991 1_555
Ho6 O30 2.377039 1_555
Ho6 O8 2.465698 1_555
Ho7 O43 2.224810 1_555
Ho7 O32 2.254074 1_555
Ho7 O20 2.282359 1_555
Ho7 O7 2.313546 1_555
Ho7 O8 2.352991 1_555
Ho7 O31 2.377039 1_555
Ho7 O9 2.465698 1_555
Mo0 O0 1.782300 1_555
Mo0 O20 1.784328 1_555
Mo0 O30 1.786360 1_545
Mo0 O10 1.832578 1_545
Mo1 O1 1.782300 1_555
Mo1 O21 1.784328 1_555
Mo1 O31 1.786360 1_565
Mo1 O11 1.832578 1_565
Mo2 O2 1.782300 1_555
Mo2 O22 1.784328 1_555
Mo2 O28 1.786360 1_555
Mo2 O8 1.832578 1_555
Mo3 O3 1.782300 1_555
Mo3 O23 1.784328 1_555
Mo3 O29 1.786360 1_555
Mo3 O9 1.832578 1_555
Mo4 O27 1.783541 1_555
Mo4 O7 1.784784 1_555
Mo4 O16 1.787457 1_555
Mo4 O15 1.836437 1_555
Mo5 O26 1.783541 1_555
Mo5 O6 1.784784 1_555
Mo5 O17 1.787457 1_555
Mo5 O14 1.836437 1_555
Mo6 O25 1.783541 1_655
Mo6 O5 1.784784 1_655
Mo6 O18 1.787457 1_555
Mo6 O13 1.836437 1_655
Mo7 O24 1.783541 1_455
Mo7 O4 1.784784 1_455
Mo7 O19 1.787457 1_555
Mo7 O12 1.836437 1_455
Mo8 O32 1.786894 1_555
Mo8 O44 1.788595 1_554
Mo8 O40 1.791846 1_555
Mo8 O36 1.795683 1_554
Mo9 O33 1.786894 1_555
Mo9 O45 1.788595 1_554
Mo9 O41 1.791846 1_555
Mo9 O37 1.795683 1_554
Mo10 O34 1.786894 1_555
Mo10 O46 1.788595 1_554
Mo10 O42 1.791846 1_555
Mo10 O38 1.795683 1_554
Mo11 O35 1.786894 1_555
Mo11 O47 1.788595 1_554
Mo11 O43 1.791846 1_555
Mo11 O39 1.795683 1_554
