# generated using pymatgen
data_LiNbWO6
_symmetry_space_group_name_H-M   'P 1'
_cell_length_a   5.50751910
_cell_length_b   5.50751910
_cell_length_c   5.50751914
_cell_angle_alpha   57.30722375
_cell_angle_beta   57.30722375
_cell_angle_gamma   57.30722374
_symmetry_Int_Tables_number   1
_chemical_formula_structural   LiNbWO6
_chemical_formula_sum   'Li1 Nb1 W1 O6'
_cell_volume   110.80486367
_cell_formula_units_Z   1
loop_
 _symmetry_equiv_pos_site_id
 _symmetry_equiv_pos_as_xyz
  1  'x, y, z'
loop_
 _atom_site_type_symbol
 _atom_site_label
 _atom_site_symmetry_multiplicity
 _atom_site_fract_x
 _atom_site_fract_y
 _atom_site_fract_z
 _atom_site_occupancy
  Li  Li0  1  0.78459100  0.78459100  0.78459100  1
  Nb  Nb0  1  0.51566000  0.51566000  0.51566000  1
  W  W0  1  0.01412800  0.01412800  0.01412800  1
  O  O0  1  0.67375700  0.84306300  0.24071800  1
  O  O1  1  0.24071800  0.67375700  0.84306300  1
  O  O2  1  0.84306300  0.24071800  0.67375700  1
  O  O3  1  0.75851400  0.36511200  0.13145600  1
  O  O4  1  0.13145600  0.75851400  0.36511200  1
  O  O5  1  0.36511200  0.13145600  0.75851400  1
loop_
_geom_bond_atom_site_label_1
_geom_bond_atom_site_label_2
_geom_bond_distance
_geom_bond_site_symmetry_2
Li0 O5 2.074089 1_565
Li0 O3 2.074089 1_556
Li0 O4 2.074089 1_655
Li0 O2 2.406687 1_565
Li0 O1 2.406687 1_655
Li0 O0 2.406687 1_556
Nb0 O0 1.903864 1_555
Nb0 O2 1.903864 1_555
Nb0 O1 1.903864 1_555
Nb0 O5 2.143328 1_555
Nb0 O4 2.143328 1_555
Nb0 O3 2.143328 1_555
O0 W0 2.017359 1_665
O1 W0 2.017359 1_566
O2 W0 2.017359 1_656
O3 W0 1.887594 1_655
O4 W0 1.887594 1_565
O5 W0 1.887594 1_556
