# generated using pymatgen
data_Cr3P3O13
_symmetry_space_group_name_H-M   'P 1'
_cell_length_a   6.25566900
_cell_length_b   7.44698884
_cell_length_c   10.53036732
_cell_angle_alpha   99.88949478
_cell_angle_beta   90.00000000
_cell_angle_gamma   90.00000000
_symmetry_Int_Tables_number   1
_chemical_formula_structural   Cr3P3O13
_chemical_formula_sum   'Cr6 P6 O26'
_cell_volume   483.27719843
_cell_formula_units_Z   2
loop_
 _symmetry_equiv_pos_site_id
 _symmetry_equiv_pos_as_xyz
  1  'x, y, z'
loop_
 _atom_site_type_symbol
 _atom_site_label
 _atom_site_symmetry_multiplicity
 _atom_site_fract_x
 _atom_site_fract_y
 _atom_site_fract_z
 _atom_site_occupancy
  Cr  Cr0  1  0.25000000  0.36979500  0.19535700  1
  Cr  Cr1  1  0.75000000  0.63020500  0.80464300  1
  Cr  Cr2  1  0.25000000  0.77517900  0.44411500  1
  Cr  Cr3  1  0.50000000  0.00000000  0.00000000  1
  Cr  Cr4  1  0.75000000  0.22482100  0.55588500  1
  Cr  Cr5  1  0.00000000  0.00000000  0.00000000  1
  P  P0  1  0.25000000  0.21350800  0.47597500  1
  P  P1  1  0.75000000  0.78649200  0.52402500  1
  P  P2  1  0.25000000  0.74428700  0.76615000  1
  P  P3  1  0.75000000  0.25571300  0.23385000  1
  P  P4  1  0.75000000  0.30424200  0.88042300  1
  P  P5  1  0.25000000  0.69575800  0.11957700  1
  O  O0  1  0.75000000  0.34682200  0.73891200  1
  O  O1  1  0.55368100  0.74108700  0.43621700  1
  O  O2  1  0.25000000  0.80367600  0.63464900  1
  O  O3  1  0.54604700  0.20675900  0.90931900  1
  O  O4  1  0.75000000  0.65871200  0.62447600  1
  O  O5  1  0.75000000  0.87192300  0.90828100  1
  O  O6  1  0.25000000  0.34128800  0.37552400  1
  O  O7  1  0.04604700  0.79324100  0.09068100  1
  O  O8  1  0.25000000  0.01353500  0.40346500  1
  O  O9  1  0.75000000  0.98646500  0.59653500  1
  O  O10  1  0.05364500  0.63055900  0.78915400  1
  O  O11  1  0.25000000  0.12807700  0.09171900  1
  O  O12  1  0.55364500  0.36944100  0.21084600  1
  O  O13  1  0.75000000  0.51130500  0.94991900  1
  O  O14  1  0.75000000  0.19632400  0.36535100  1
  O  O15  1  0.45395300  0.79324100  0.09068100  1
  O  O16  1  0.94631900  0.74108700  0.43621700  1
  O  O17  1  0.44631900  0.25891300  0.56378300  1
  O  O18  1  0.44635500  0.63055900  0.78915400  1
  O  O19  1  0.25000000  0.65317800  0.26108800  1
  O  O20  1  0.75000000  0.08042000  0.12352400  1
  O  O21  1  0.25000000  0.91958000  0.87647600  1
  O  O22  1  0.94635500  0.36944100  0.21084600  1
  O  O23  1  0.95395300  0.20675900  0.90931900  1
  O  O24  1  0.05368100  0.25891300  0.56378300  1
  O  O25  1  0.25000000  0.48869500  0.05008100  1
loop_
_geom_bond_atom_site_label_1
_geom_bond_atom_site_label_2
_geom_bond_distance
_geom_bond_site_symmetry_2
Cr0 O25 1.894630 1_555
Cr0 O12 1.906533 1_555
Cr0 O22 1.906533 1_455
Cr0 O11 1.938167 1_555
Cr0 O6 1.944962 1_555
Cr0 O19 2.104976 1_555
Cr1 O13 1.894630 1_555
Cr1 O10 1.906533 1_655
Cr1 O18 1.906533 1_555
Cr1 O5 1.938167 1_555
Cr1 O4 1.944962 1_555
Cr1 O0 2.104976 1_555
Cr2 O8 1.896043 1_565
Cr2 O1 1.916530 1_555
Cr2 O16 1.916530 1_455
Cr2 O2 1.981008 1_555
Cr2 O19 1.984592 1_555
Cr3 O15 1.967393 1_545
Cr3 O3 1.967393 1_554
Cr3 O5 1.992977 1_544
Cr3 O11 1.992977 1_555
Cr3 O20 2.056423 1_555
Cr3 O21 2.056423 1_544
Cr4 O9 1.896043 1_545
Cr4 O24 1.916530 1_655
Cr4 O17 1.916530 1_555
Cr4 O14 1.981008 1_555
Cr4 O0 1.984592 1_555
Cr5 O7 1.967393 1_545
Cr5 O23 1.967393 1_454
Cr5 O5 1.992977 1_444
Cr5 O11 1.992977 1_555
Cr5 O20 2.056423 1_455
Cr5 O21 2.056423 1_544
O0 P4 1.575894 1_555
O1 P1 1.539533 1_555
O2 P2 1.524308 1_555
O3 P4 1.524238 1_555
O4 P1 1.539532 1_555
O6 P0 1.539532 1_555
O7 P5 1.524238 1_555
O8 P0 1.552463 1_555
O9 P1 1.552463 1_555
O10 P2 1.534681 1_555
O12 P3 1.534681 1_555
O13 P4 1.589241 1_555
O14 P3 1.524308 1_555
O15 P5 1.524238 1_555
O16 P1 1.539533 1_555
O17 P0 1.539533 1_555
O18 P2 1.534681 1_555
O19 P5 1.575894 1_555
O20 P3 1.591495 1_555
O21 P2 1.591495 1_555
O22 P3 1.534681 1_555
O23 P4 1.524238 1_555
O24 P0 1.539533 1_555
O25 P5 1.589241 1_555
