# generated using pymatgen
data_Pr2InCuS5
_symmetry_space_group_name_H-M   'P 1'
_cell_length_a   3.92997900
_cell_length_b   11.57028500
_cell_length_c   16.79560200
_cell_angle_alpha   90.00000000
_cell_angle_beta   90.00000000
_cell_angle_gamma   90.00000000
_symmetry_Int_Tables_number   1
_chemical_formula_structural   Pr2InCuS5
_chemical_formula_sum   'Pr8 In4 Cu4 S20'
_cell_volume   763.71243349
_cell_formula_units_Z   4
loop_
 _symmetry_equiv_pos_site_id
 _symmetry_equiv_pos_as_xyz
  1  'x, y, z'
loop_
 _atom_site_type_symbol
 _atom_site_label
 _atom_site_symmetry_multiplicity
 _atom_site_fract_x
 _atom_site_fract_y
 _atom_site_fract_z
 _atom_site_occupancy
  Pr  Pr0  1  0.25000000  0.13466700  0.40663300  1
  Pr  Pr1  1  0.25000000  0.63466700  0.09336700  1
  Pr  Pr2  1  0.75000000  0.86533300  0.59336700  1
  Pr  Pr3  1  0.75000000  0.36533300  0.90663300  1
  Pr  Pr4  1  0.25000000  0.47788100  0.32094500  1
  Pr  Pr5  1  0.25000000  0.97788100  0.17905500  1
  Pr  Pr6  1  0.75000000  0.52211900  0.67905500  1
  Pr  Pr7  1  0.75000000  0.02211900  0.82094500  1
  In  In0  1  0.25000000  0.19649500  0.64083200  1
  In  In1  1  0.25000000  0.69649500  0.85916800  1
  In  In2  1  0.75000000  0.80350500  0.35916800  1
  In  In3  1  0.75000000  0.30350500  0.14083200  1
  Cu  Cu0  1  0.25000000  0.58714100  0.49797800  1
  Cu  Cu1  1  0.25000000  0.08714100  0.00202200  1
  Cu  Cu2  1  0.75000000  0.41285900  0.50202200  1
  Cu  Cu3  1  0.75000000  0.91285900  0.99797800  1
  S  S0  1  0.25000000  0.68330600  0.61533600  1
  S  S1  1  0.25000000  0.18330600  0.88466400  1
  S  S2  1  0.75000000  0.31669400  0.38466400  1
  S  S3  1  0.75000000  0.81669400  0.11533600  1
  S  S4  1  0.25000000  0.40133300  0.57584600  1
  S  S5  1  0.25000000  0.90133300  0.92415400  1
  S  S6  1  0.75000000  0.59866700  0.42415400  1
  S  S7  1  0.75000000  0.09866700  0.07584600  1
  S  S8  1  0.25000000  0.48813700  0.80603000  1
  S  S9  1  0.25000000  0.98813700  0.69397000  1
  S  S10  1  0.75000000  0.51186300  0.19397000  1
  S  S11  1  0.75000000  0.01186300  0.30603000  1
  S  S12  1  0.25000000  0.88715100  0.46224700  1
  S  S13  1  0.25000000  0.38715100  0.03775300  1
  S  S14  1  0.75000000  0.11284900  0.53775300  1
  S  S15  1  0.75000000  0.61284900  0.96224700  1
  S  S16  1  0.25000000  0.73645900  0.26968500  1
  S  S17  1  0.25000000  0.23645900  0.23031500  1
  S  S18  1  0.75000000  0.26354100  0.73031500  1
  S  S19  1  0.75000000  0.76354100  0.76968500  1
loop_
_geom_bond_atom_site_label_1
_geom_bond_atom_site_label_2
_geom_bond_distance
_geom_bond_site_symmetry_2
Pr0 S2 2.903964 1_555
Pr0 S2 2.903964 1_455
Pr0 S11 2.955524 1_455
Pr0 S11 2.955524 1_555
Pr0 S14 2.962223 1_455
Pr0 S14 2.962223 1_555
Pr0 S12 3.012310 1_545
Pr0 S17 3.186976 1_555
Pr1 S3 2.903964 1_455
Pr1 S3 2.903964 1_555
Pr1 S10 2.955524 1_455
Pr1 S10 2.955524 1_555
Pr1 S15 2.962223 1_454
Pr1 S15 2.962223 1_554
Pr1 S13 3.012310 1_555
Pr1 S16 3.186976 1_555
Pr2 S0 2.903964 1_555
Pr2 S0 2.903964 1_655
Pr2 S9 2.955524 1_555
Pr2 S9 2.955524 1_655
Pr2 S12 2.962223 1_555
Pr2 S12 2.962223 1_655
Pr2 S14 3.012310 1_565
Pr2 S19 3.186976 1_555
Pr3 S1 2.903964 1_555
Pr3 S1 2.903964 1_655
Pr3 S8 2.955524 1_555
Pr3 S8 2.955524 1_655
Pr3 S13 2.962223 1_656
Pr3 S13 2.962223 1_556
Pr3 S15 3.012310 1_555
Pr3 S18 3.186976 1_555
Pr4 S2 2.912844 1_555
Pr4 S2 2.912844 1_455
Pr4 S10 2.926406 1_455
Pr4 S10 2.926406 1_555
Pr4 S6 2.969704 1_555
Pr4 S6 2.969704 1_455
Pr4 S16 3.113232 1_555
Pr4 S17 3.181146 1_555
Pr5 S3 2.912844 1_455
Pr5 S3 2.912844 1_555
Pr5 S11 2.926406 1_565
Pr5 S11 2.926406 1_465
Pr5 S7 2.969704 1_465
Pr5 S7 2.969704 1_565
Pr5 S17 3.113232 1_565
Pr5 S16 3.181146 1_555
Pr6 S0 2.912844 1_555
Pr6 S0 2.912844 1_655
Pr6 S8 2.926406 1_555
Pr6 S8 2.926406 1_655
Pr6 S4 2.969704 1_655
Pr6 S4 2.969704 1_555
Pr6 S18 3.113232 1_555
Pr6 S19 3.181146 1_555
Pr7 S1 2.912844 1_555
Pr7 S1 2.912844 1_655
Pr7 S9 2.926406 1_645
Pr7 S9 2.926406 1_545
Pr7 S5 2.969704 1_545
Pr7 S5 2.969704 1_645
Pr7 S19 3.113232 1_545
Pr7 S18 3.181146 1_555
In0 S9 2.570661 1_545
In0 S18 2.592630 1_555
In0 S18 2.592630 1_455
In0 S4 2.609289 1_555
In0 S14 2.791979 1_455
In0 S14 2.791979 1_555
In1 S8 2.570661 1_555
In1 S19 2.592630 1_555
In1 S19 2.592630 1_455
In1 S5 2.609289 1_555
In1 S15 2.791979 1_455
In1 S15 2.791979 1_555
In2 S11 2.570661 1_565
In2 S16 2.592630 1_655
In2 S16 2.592630 1_555
In2 S6 2.609289 1_555
In2 S12 2.791979 1_555
In2 S12 2.791979 1_655
In3 S10 2.570661 1_555
In3 S17 2.592630 1_555
In3 S17 2.592630 1_655
In3 S7 2.609289 1_555
In3 S13 2.791979 1_555
In3 S13 2.791979 1_655
Cu0 S0 2.263456 1_555
Cu0 S6 2.327309 1_455
Cu0 S6 2.327309 1_555
Cu0 S4 2.516408 1_555
Cu1 S1 2.263456 1_554
Cu1 S7 2.327309 1_455
Cu1 S7 2.327309 1_555
Cu1 S5 2.516408 1_544
Cu2 S2 2.263456 1_555
Cu2 S4 2.327309 1_555
Cu2 S4 2.327309 1_655
Cu2 S6 2.516408 1_555
Cu3 S3 2.263456 1_556
Cu3 S5 2.327309 1_555
Cu3 S5 2.327309 1_655
Cu3 S7 2.516408 1_566
