# generated using pymatgen
data_BaSrNdMnO6
_symmetry_space_group_name_H-M   'P 1'
_cell_length_a   5.95801550
_cell_length_b   5.94613898
_cell_length_c   8.42162343
_cell_angle_alpha   90.09743122
_cell_angle_beta   89.83008610
_cell_angle_gamma   89.73676370
_symmetry_Int_Tables_number   1
_chemical_formula_structural   BaSrNdMnO6
_chemical_formula_sum   'Ba2 Sr2 Nd2 Mn2 O12'
_cell_volume   298.34953905
_cell_formula_units_Z   2
loop_
 _symmetry_equiv_pos_site_id
 _symmetry_equiv_pos_as_xyz
  1  'x, y, z'
loop_
 _atom_site_type_symbol
 _atom_site_label
 _atom_site_symmetry_multiplicity
 _atom_site_fract_x
 _atom_site_fract_y
 _atom_site_fract_z
 _atom_site_occupancy
  Ba  Ba0  1  0.99790274  0.01059477  0.24958374  1
  Ba  Ba1  1  0.00209726  0.98940523  0.75041626  1
  Sr  Sr0  1  0.50180955  0.51154405  0.25070122  1
  Sr  Sr1  1  0.49819045  0.48845595  0.74929878  1
  Nd  Nd0  1  0.50000000  -0.00000000  0.00000000  1
  Nd  Nd1  1  0.00000000  0.50000000  0.50000000  1
  Mn  Mn0  1  0.00000000  0.50000000  0.00000000  1
  Mn  Mn1  1  0.50000000  -0.00000000  0.50000000  1
  O  O0  1  0.20730824  0.25439198  0.97719163  1
  O  O1  1  0.29861777  0.74664332  0.52306846  1
  O  O2  1  0.79269176  0.74560802  0.02280837  1
  O  O3  1  0.70138223  0.25335668  0.47693154  1
  O  O4  1  0.25227440  0.70273678  0.97641638  1
  O  O5  1  0.25531589  0.20873281  0.52241468  1
  O  O6  1  0.74772560  0.29726322  0.02358362  1
  O  O7  1  0.74468411  0.79126719  0.47758532  1
  O  O8  1  0.45921479  0.99367751  0.27332218  1
  O  O9  1  0.04870606  0.49632771  0.22674508  1
  O  O10  1  0.54078521  0.00632249  0.72667782  1
  O  O11  1  0.95129394  0.50367229  0.77325492  1
loop_
_geom_bond_atom_site_label_1
_geom_bond_atom_site_label_2
_geom_bond_distance
_geom_bond_site_symmetry_2
Ba0 O8 2.757743 1_645
Ba0 O2 2.765187 1_545
Ba0 O7 2.770071 1_545
Ba0 O9 2.912060 1_655
Ba0 O6 2.958774 1_555
Ba0 O3 2.969471 1_555
Ba0 O0 2.988547 1_654
Ba0 O5 3.007961 1_655
Ba0 O9 3.077099 1_645
Ba0 O8 3.217185 1_545
Ba0 O4 3.298444 1_644
Ba0 O1 3.314960 1_645
Ba1 O10 2.757743 1_465
Ba1 O0 2.765187 1_565
Ba1 O5 2.770071 1_565
Ba1 O11 2.912060 1_455
Ba1 O4 2.958774 1_555
Ba1 O1 2.969471 1_555
Ba1 O2 2.988547 1_456
Ba1 O7 3.007961 1_455
Ba1 O11 3.077099 1_465
Ba1 O10 3.217185 1_565
Ba1 O6 3.298444 1_466
Ba1 O3 3.314960 1_465
Nd0 O0 2.311882 1_554
Nd0 O2 2.311882 1_545
Nd0 O8 2.314278 1_545
Nd0 O10 2.314278 1_554
Nd0 O4 2.316614 1_544
Nd0 O6 2.316614 1_555
Nd1 O7 2.308191 1_455
Nd1 O5 2.308191 1_555
Nd1 O9 2.318674 1_555
Nd1 O11 2.318674 1_455
Nd1 O3 2.319286 1_455
Nd1 O1 2.319286 1_555
Mn0 O0 1.917386 1_554
Mn0 O2 1.917386 1_455
Mn0 O11 1.932481 1_454
Mn0 O9 1.932481 1_555
Mn0 O6 1.941017 1_455
Mn0 O4 1.941017 1_554
Mn1 O5 1.918936 1_555
Mn1 O7 1.918936 1_545
Mn1 O8 1.925439 1_545
Mn1 O10 1.925439 1_555
Mn1 O3 1.939871 1_555
Mn1 O1 1.939871 1_545
O0 Sr1 2.938634 1_555
O1 Sr1 2.721626 1_555
O1 Sr0 2.939097 1_555
O2 Sr0 2.938634 1_555
O3 Sr0 2.721626 1_555
O3 Sr1 2.939097 1_555
O4 Sr1 2.717816 1_555
O4 Sr0 2.975289 1_556
O5 Sr1 2.922163 1_555
O6 Sr0 2.717816 1_555
O6 Sr1 2.975289 1_554
O7 Sr0 2.922163 1_555
O8 Sr0 2.882810 1_555
O8 Sr0 3.097049 1_565
O9 Sr0 2.709636 1_555
O10 Sr1 2.882810 1_555
O10 Sr1 3.097049 1_545
O11 Sr1 2.709636 1_555
