# generated using pymatgen
data_Ca2YMn3O9
_symmetry_space_group_name_H-M   'P 1'
_cell_length_a   5.34881100
_cell_length_b   7.62226800
_cell_length_c   16.45852700
_cell_angle_alpha   90.00000000
_cell_angle_beta   90.00000000
_cell_angle_gamma   90.00000000
_symmetry_Int_Tables_number   1
_chemical_formula_structural   Ca2YMn3O9
_chemical_formula_sum   'Ca8 Y4 Mn12 O36'
_cell_volume   671.01531308
_cell_formula_units_Z   4
loop_
 _symmetry_equiv_pos_site_id
 _symmetry_equiv_pos_as_xyz
  1  'x, y, z'
loop_
 _atom_site_type_symbol
 _atom_site_label
 _atom_site_symmetry_multiplicity
 _atom_site_fract_x
 _atom_site_fract_y
 _atom_site_fract_z
 _atom_site_occupancy
  Ca  Ca0  1  0.01151900  0.75000000  0.98205200  1
  Ca  Ca1  1  0.01061400  0.75000000  0.31678800  1
  Ca  Ca2  1  0.48938600  0.75000000  0.81678800  1
  Ca  Ca3  1  0.48848100  0.75000000  0.48205200  1
  Ca  Ca4  1  0.98938600  0.25000000  0.68321200  1
  Ca  Ca5  1  0.98848100  0.25000000  0.01794800  1
  Ca  Ca6  1  0.51151900  0.25000000  0.51794800  1
  Ca  Ca7  1  0.51061400  0.25000000  0.18321200  1
  Y  Y0  1  0.01363600  0.75000000  0.64680000  1
  Y  Y1  1  0.48636400  0.75000000  0.14680000  1
  Y  Y2  1  0.98636400  0.25000000  0.35320000  1
  Y  Y3  1  0.51363600  0.25000000  0.85320000  1
  Mn  Mn0  1  0.00000000  0.50000000  0.50000000  1
  Mn  Mn1  1  0.00055900  0.50130000  0.83255200  1
  Mn  Mn2  1  0.99944100  0.49870000  0.16744800  1
  Mn  Mn3  1  0.50055900  0.00130000  0.66744800  1
  Mn  Mn4  1  0.50000000  0.00000000  0.00000000  1
  Mn  Mn5  1  0.49944100  0.99870000  0.33255200  1
  Mn  Mn6  1  0.00055900  0.99870000  0.83255200  1
  Mn  Mn7  1  0.99944100  0.00130000  0.16744800  1
  Mn  Mn8  1  0.00000000  0.00000000  0.50000000  1
  Mn  Mn9  1  0.50055900  0.49870000  0.66744800  1
  Mn  Mn10  1  0.50000000  0.50000000  0.00000000  1
  Mn  Mn11  1  0.49944100  0.50130000  0.33255200  1
  O  O0  1  0.19965100  0.54779400  0.73350900  1
  O  O1  1  0.20819500  0.55055100  0.07080900  1
  O  O2  1  0.19872100  0.53484100  0.40028900  1
  O  O3  1  0.29180500  0.94944900  0.57080900  1
  O  O4  1  0.30127900  0.96515900  0.90028900  1
  O  O5  1  0.30034900  0.95220600  0.23350900  1
  O  O6  1  0.80127900  0.03484100  0.59971100  1
  O  O7  1  0.79180500  0.05055100  0.92919100  1
  O  O8  1  0.80034900  0.04779400  0.26649100  1
  O  O9  1  0.69965100  0.45220600  0.76649100  1
  O  O10  1  0.69872100  0.46515900  0.09971100  1
  O  O11  1  0.70819500  0.44944900  0.42919100  1
  O  O12  1  0.80127900  0.46515900  0.59971100  1
  O  O13  1  0.79180500  0.44944900  0.92919100  1
  O  O14  1  0.80034900  0.45220600  0.26649100  1
  O  O15  1  0.69965100  0.04779400  0.76649100  1
  O  O16  1  0.69872100  0.03484100  0.09971100  1
  O  O17  1  0.70819500  0.05055100  0.42919100  1
  O  O18  1  0.19965100  0.95220600  0.73350900  1
  O  O19  1  0.20819500  0.94944900  0.07080900  1
  O  O20  1  0.19872100  0.96515900  0.40028900  1
  O  O21  1  0.29180500  0.55055100  0.57080900  1
  O  O22  1  0.30127900  0.53484100  0.90028900  1
  O  O23  1  0.30034900  0.54779400  0.23350900  1
  O  O24  1  0.91928000  0.75000000  0.50797200  1
  O  O25  1  0.92039900  0.75000000  0.84114900  1
  O  O26  1  0.90715000  0.75000000  0.17529100  1
  O  O27  1  0.59285000  0.75000000  0.67529100  1
  O  O28  1  0.58072000  0.75000000  0.00797200  1
  O  O29  1  0.57960100  0.75000000  0.34114900  1
  O  O30  1  0.09285000  0.25000000  0.82470900  1
  O  O31  1  0.07960100  0.25000000  0.15885100  1
  O  O32  1  0.08072000  0.25000000  0.49202800  1
  O  O33  1  0.42039900  0.25000000  0.65885100  1
  O  O34  1  0.41928000  0.25000000  0.99202800  1
  O  O35  1  0.40715000  0.25000000  0.32470900  1
loop_
_geom_bond_atom_site_label_1
_geom_bond_atom_site_label_2
_geom_bond_distance
_geom_bond_site_symmetry_2
Ca0 O28 2.343420 1_456
Ca0 O1 2.356227 1_556
Ca0 O19 2.356227 1_556
Ca0 O25 2.369718 1_455
Ca0 O4 2.627281 1_555
Ca0 O22 2.627281 1_555
Ca0 O13 2.717751 1_455
Ca0 O7 2.717751 1_465
Ca1 O29 2.340013 1_455
Ca1 O2 2.364454 1_555
Ca1 O20 2.364454 1_555
Ca1 O26 2.393684 1_455
Ca1 O23 2.579898 1_555
Ca1 O5 2.579898 1_555
Ca1 O8 2.665041 1_465
Ca1 O14 2.665041 1_455
Ca2 O25 2.340013 1_555
Ca2 O22 2.364454 1_555
Ca2 O4 2.364454 1_555
Ca2 O27 2.393684 1_555
Ca2 O0 2.579898 1_555
Ca2 O18 2.579898 1_555
Ca2 O15 2.665041 1_565
Ca2 O9 2.665041 1_555
Ca3 O24 2.343420 1_555
Ca3 O21 2.356227 1_555
Ca3 O3 2.356227 1_555
Ca3 O29 2.369718 1_555
Ca3 O2 2.627281 1_555
Ca3 O20 2.627281 1_555
Ca3 O11 2.717751 1_555
Ca3 O17 2.717751 1_565
Ca4 O33 2.340013 1_655
Ca4 O12 2.364454 1_555
Ca4 O6 2.364454 1_555
Ca4 O30 2.393684 1_655
Ca4 O9 2.579898 1_555
Ca4 O15 2.579898 1_555
Ca4 O0 2.665041 1_655
Ca4 O18 2.665041 1_645
Ca5 O34 2.343420 1_654
Ca5 O13 2.356227 1_554
Ca5 O7 2.356227 1_554
Ca5 O31 2.369718 1_655
Ca5 O16 2.627281 1_555
Ca5 O10 2.627281 1_555
Ca5 O1 2.717751 1_655
Ca5 O19 2.717751 1_645
Ca6 O32 2.343420 1_555
Ca6 O11 2.356227 1_555
Ca6 O17 2.356227 1_555
Ca6 O33 2.369718 1_555
Ca6 O6 2.627281 1_555
Ca6 O12 2.627281 1_555
Ca6 O3 2.717751 1_545
Ca6 O21 2.717751 1_555
Ca7 O31 2.340013 1_555
Ca7 O16 2.364454 1_555
Ca7 O10 2.364454 1_555
Ca7 O35 2.393684 1_555
Ca7 O14 2.579898 1_555
Ca7 O8 2.579898 1_555
Ca7 O5 2.665041 1_545
Ca7 O23 2.665041 1_555
Mn0 O24 1.958268 1_455
Mn0 O32 1.958268 1_555
Mn0 O2 1.973201 1_555
Mn0 O12 1.973201 1_455
Mn0 O21 1.985643 1_555
Mn0 O11 1.985643 1_455
Mn1 O25 1.948686 1_455
Mn1 O22 1.973704 1_555
Mn1 O9 1.978047 1_455
Mn1 O0 1.979103 1_555
Mn1 O30 1.982271 1_555
Mn1 O13 1.983121 1_455
Mn2 O31 1.948686 1_655
Mn2 O10 1.973704 1_555
Mn2 O23 1.978047 1_655
Mn2 O14 1.979103 1_555
Mn2 O26 1.982271 1_555
Mn2 O1 1.983121 1_655
Mn3 O33 1.948686 1_555
Mn3 O6 1.973704 1_555
Mn3 O18 1.978047 1_545
Mn3 O15 1.979103 1_555
Mn3 O27 1.982271 1_545
Mn3 O3 1.983121 1_545
Mn4 O28 1.958268 1_545
Mn4 O34 1.958268 1_554
Mn4 O16 1.973201 1_555
Mn4 O4 1.973201 1_544
Mn4 O7 1.985643 1_554
Mn4 O19 1.985643 1_545
Mn5 O29 1.948686 1_555
Mn5 O20 1.973704 1_555
Mn5 O8 1.978047 1_565
Mn5 O5 1.979103 1_555
Mn5 O35 1.982271 1_565
Mn5 O17 1.983121 1_565
Mn6 O25 1.948686 1_455
Mn6 O4 1.973704 1_555
Mn6 O15 1.978047 1_465
Mn6 O18 1.979103 1_555
Mn6 O30 1.982271 1_565
Mn6 O7 1.983121 1_465
Mn7 O31 1.948686 1_655
Mn7 O16 1.973704 1_555
Mn7 O5 1.978047 1_645
Mn7 O8 1.979103 1_555
Mn7 O26 1.982271 1_545
Mn7 O19 1.983121 1_645
Mn8 O24 1.958268 1_445
Mn8 O32 1.958268 1_555
Mn8 O20 1.973201 1_545
Mn8 O6 1.973201 1_455
Mn8 O3 1.985643 1_545
Mn8 O17 1.985643 1_455
Mn9 O33 1.948686 1_555
Mn9 O12 1.973704 1_555
Mn9 O0 1.978047 1_555
Mn9 O9 1.979103 1_555
Mn9 O27 1.982271 1_555
Mn9 O21 1.983121 1_555
Mn10 O28 1.958268 1_555
Mn10 O34 1.958268 1_554
Mn10 O10 1.973201 1_555
Mn10 O22 1.973201 1_554
Mn10 O13 1.985643 1_554
Mn10 O1 1.985643 1_555
Mn11 O29 1.948686 1_555
Mn11 O2 1.973704 1_555
Mn11 O14 1.978047 1_555
Mn11 O23 1.979103 1_555
Mn11 O35 1.982271 1_555
Mn11 O11 1.983121 1_555
O0 Y0 2.324236 1_555
O1 Y1 2.467628 1_555
O2 Y2 2.569951 1_455
O3 Y0 2.467628 1_555
O4 Y3 2.569951 1_565
O5 Y1 2.324236 1_555
O6 Y0 2.569951 1_645
O7 Y3 2.467628 1_555
O8 Y2 2.324236 1_555
O9 Y3 2.324236 1_555
O10 Y1 2.569951 1_555
O11 Y2 2.467628 1_555
O12 Y0 2.569951 1_655
O13 Y3 2.467628 1_555
O14 Y2 2.324236 1_555
O15 Y3 2.324236 1_555
O16 Y1 2.569951 1_545
O17 Y2 2.467628 1_555
O18 Y0 2.324236 1_555
O19 Y1 2.467628 1_555
O20 Y2 2.569951 1_465
O21 Y0 2.467628 1_555
O22 Y3 2.569951 1_555
O23 Y1 2.324236 1_555
O24 Y0 2.339979 1_655
O26 Y1 2.299034 1_555
O27 Y0 2.299034 1_655
O28 Y1 2.339979 1_555
O30 Y3 2.299034 1_555
O32 Y2 2.339979 1_455
O34 Y3 2.339979 1_555
O35 Y2 2.299034 1_455
