# generated using pymatgen
data_Na3GdTi2Nb2O12
_symmetry_space_group_name_H-M   'P 1'
_cell_length_a   5.48389784
_cell_length_b   5.60767737
_cell_length_c   15.59572947
_cell_angle_alpha   90.00711497
_cell_angle_beta   90.02068698
_cell_angle_gamma   90.02107075
_symmetry_Int_Tables_number   1
_chemical_formula_structural   Na3GdTi2Nb2O12
_chemical_formula_sum   'Na6 Gd2 Ti4 Nb4 O24'
_cell_volume   479.59871099
_cell_formula_units_Z   2
loop_
 _symmetry_equiv_pos_site_id
 _symmetry_equiv_pos_as_xyz
  1  'x, y, z'
loop_
 _atom_site_type_symbol
 _atom_site_label
 _atom_site_symmetry_multiplicity
 _atom_site_fract_x
 _atom_site_fract_y
 _atom_site_fract_z
 _atom_site_occupancy
  Na  Na0  1  0.00377600  0.97657000  0.37218300  1
  Na  Na1  1  0.00347500  0.97668700  0.87788800  1
  Na  Na2  1  0.49596200  0.47660400  0.87814600  1
  Na  Na3  1  0.49637500  0.47675100  0.37193400  1
  Na  Na4  1  0.50530400  0.52611800  0.62497900  1
  Na  Na5  1  0.99498000  0.02608700  0.62499700  1
  Gd  Gd0  1  0.50855000  0.55434700  0.12507800  1
  Gd  Gd1  1  0.99108000  0.05468800  0.12498700  1
  Ti  Ti0  1  0.00949100  0.52266500  0.99791400  1
  Ti  Ti1  1  0.48974700  0.02238100  0.99774600  1
  Ti  Ti2  1  0.48984800  0.02233900  0.25224300  1
  Ti  Ti3  1  0.00942100  0.52247100  0.25232500  1
  Nb  Nb0  1  0.00116200  0.49727800  0.49795000  1
  Nb  Nb1  1  0.49984400  0.99637300  0.75216000  1
  Nb  Nb2  1  0.50200800  0.99792100  0.49802600  1
  Nb  Nb3  1  0.99831100  0.49677800  0.75215200  1
  O  O0  1  0.08614700  0.46587400  0.12491600  1
  O  O1  1  0.06919200  0.48670200  0.62496000  1
  O  O2  1  0.20899100  0.21250300  0.48025200  1
  O  O3  1  0.20561300  0.19578300  0.26004400  1
  O  O4  1  0.21018700  0.21324000  0.76971300  1
  O  O5  1  0.20557700  0.19577300  0.98985500  1
  O  O6  1  0.28978800  0.71278500  0.48020000  1
  O  O7  1  0.29078200  0.71296300  0.76976300  1
  O  O8  1  0.29460100  0.69578600  0.25993100  1
  O  O9  1  0.29446700  0.69582100  0.99002100  1
  O  O10  1  0.41419000  0.96623600  0.12498700  1
  O  O11  1  0.43085200  0.98664400  0.62499300  1
  O  O12  1  0.56777800  0.01350100  0.87917300  1
  O  O13  1  0.56750600  0.01340300  0.37082500  1
  O  O14  1  0.70968000  0.27383200  0.02959500  1
  O  O15  1  0.70979800  0.27386200  0.22036800  1
  O  O16  1  0.70814000  0.29112600  0.51592500  1
  O  O17  1  0.70899400  0.29129200  0.73395900  1
  O  O18  1  0.79054700  0.77378900  0.02963400  1
  O  O19  1  0.79044800  0.77364500  0.22030700  1
  O  O20  1  0.79076800  0.79087900  0.51597500  1
  O  O21  1  0.79181500  0.79144000  0.73400200  1
  O  O22  1  0.93233600  0.51348400  0.37075300  1
  O  O23  1  0.93247300  0.51358000  0.87914200  1
loop_
_geom_bond_atom_site_label_1
_geom_bond_atom_site_label_2
_geom_bond_distance
_geom_bond_site_symmetry_2
Na0 O13 2.401521 1_465
Na0 O3 2.407445 1_565
Na0 O2 2.419608 1_565
Na0 O22 2.626171 1_455
Na0 O20 2.734841 1_455
Na0 O6 2.736142 1_555
Na0 O8 2.844419 1_555
Na0 O19 2.875794 1_455
Na1 O12 2.398386 1_465
Na1 O5 2.404999 1_565
Na1 O4 2.427280 1_565
Na1 O23 2.625917 1_455
Na1 O21 2.731046 1_455
Na1 O7 2.741544 1_555
Na1 O9 2.843577 1_555
Na1 O18 2.874101 1_456
Na2 O23 2.402714 1_555
Na2 O9 2.403797 1_555
Na2 O7 2.424919 1_555
Na2 O12 2.626818 1_555
Na2 O4 2.737273 1_555
Na2 O17 2.739259 1_555
Na2 O5 2.837594 1_555
Na2 O14 2.871419 1_556
Na3 O22 2.399625 1_555
Na3 O8 2.405070 1_555
Na3 O6 2.426584 1_555
Na3 O13 2.627621 1_555
Na3 O16 2.733979 1_555
Na3 O2 2.744825 1_555
Na3 O3 2.839967 1_555
Na3 O15 2.872983 1_555
Na4 O1 2.401705 1_555
Na4 O16 2.422458 1_555
Na4 O17 2.422962 1_555
Na4 O11 2.614705 1_555
Na4 O20 2.746961 1_555
Na4 O21 2.751190 1_555
Na4 O7 2.753657 1_555
Na4 O6 2.755063 1_555
Na5 O11 2.400570 1_645
Na5 O21 2.421483 1_545
Na5 O20 2.425229 1_545
Na5 O1 2.614697 1_655
Na5 O17 2.749930 1_555
Na5 O2 2.750931 1_655
Na5 O16 2.752688 1_555
Na5 O4 2.754025 1_655
Gd0 O10 2.367182 1_555
Gd0 O0 2.368771 1_555
Gd0 O15 2.429222 1_555
Gd0 O14 2.431128 1_555
Gd0 O19 2.470689 1_555
Gd0 O18 2.474302 1_555
Gd0 O8 2.535915 1_555
Gd0 O9 2.538416 1_554
Gd1 O0 2.363814 1_655
Gd1 O10 2.372894 1_645
Gd1 O18 2.428786 1_545
Gd1 O19 2.429966 1_545
Gd1 O14 2.470831 1_555
Gd1 O15 2.470894 1_555
Gd1 O3 2.538461 1_655
Gd1 O5 2.540190 1_654
Nb0 O2 1.981605 1_555
Nb0 O16 1.999044 1_455
Nb0 O6 2.010304 1_555
Nb0 O1 2.016391 1_555
Nb0 O22 2.021245 1_455
Nb0 O20 2.030381 1_455
Nb1 O7 1.978523 1_555
Nb1 O21 1.991506 1_555
Nb1 O12 2.017725 1_565
Nb1 O4 2.019582 1_565
Nb1 O11 2.019620 1_555
Nb1 O17 2.032273 1_565
Nb2 O20 1.983688 1_555
Nb2 O6 1.996656 1_555
Nb2 O16 2.014305 1_565
Nb2 O13 2.018048 1_565
Nb2 O11 2.019357 1_555
Nb2 O2 2.026824 1_565
Nb3 O17 1.980858 1_555
Nb3 O4 1.988552 1_655
Nb3 O23 2.015469 1_555
Nb3 O1 2.022302 1_655
Nb3 O21 2.023375 1_555
Nb3 O7 2.028719 1_655
O0 Ti0 2.049614 1_554
O0 Ti3 2.055876 1_555
O3 Ti2 1.841631 1_555
O3 Ti3 2.128271 1_555
O5 Ti1 1.841210 1_555
O5 Ti0 2.129287 1_555
O8 Ti3 1.844762 1_555
O8 Ti2 2.124340 1_565
O9 Ti0 1.843728 1_555
O9 Ti1 2.124428 1_565
O10 Ti2 2.051612 1_565
O10 Ti1 2.051675 1_564
O12 Ti1 1.898898 1_555
O13 Ti2 1.898295 1_555
O14 Ti1 1.920358 1_554
O14 Ti0 2.212112 1_654
O15 Ti2 1.921133 1_555
O15 Ti3 2.211176 1_655
O18 Ti0 1.915963 1_654
O18 Ti1 2.216514 1_564
O19 Ti3 1.917340 1_655
O19 Ti2 2.216415 1_565
O22 Ti3 1.895550 1_655
O23 Ti0 1.900402 1_655
