# generated using pymatgen
data_LaPr(CoP)4
_symmetry_space_group_name_H-M   'P 1'
_cell_length_a   3.81659200
_cell_length_b   3.81659200
_cell_length_c   10.85087600
_cell_angle_alpha   90.00000000
_cell_angle_beta   90.00000000
_cell_angle_gamma   90.00000000
_symmetry_Int_Tables_number   1
_chemical_formula_structural   LaPr(CoP)4
_chemical_formula_sum   'La1 Pr1 Co4 P4'
_cell_volume   158.05792341
_cell_formula_units_Z   1
loop_
 _symmetry_equiv_pos_site_id
 _symmetry_equiv_pos_as_xyz
  1  'x, y, z'
loop_
 _atom_site_type_symbol
 _atom_site_label
 _atom_site_symmetry_multiplicity
 _atom_site_fract_x
 _atom_site_fract_y
 _atom_site_fract_z
 _atom_site_occupancy
  La  La0  1  0.50000000  0.50000000  0.50000000  1
  Pr  Pr0  1  0.00000000  0.00000000  0.00000000  1
  Co  Co0  1  0.50000000  0.00000000  0.24738100  1
  Co  Co1  1  0.00000000  0.50000000  0.75261900  1
  Co  Co2  1  0.00000000  0.50000000  0.24738100  1
  Co  Co3  1  0.50000000  0.00000000  0.75261900  1
  P  P0  1  0.50000000  0.50000000  0.14201000  1
  P  P1  1  0.00000000  0.00000000  0.64766400  1
  P  P2  1  0.00000000  0.00000000  0.35233600  1
  P  P3  1  0.50000000  0.50000000  0.85799000  1
loop_
_geom_bond_atom_site_label_1
_geom_bond_atom_site_label_2
_geom_bond_distance
_geom_bond_site_symmetry_2
La0 P2 3.138551 1_665
La0 P2 3.138551 1_565
La0 P1 3.138551 1_655
La0 P2 3.138551 1_555
La0 P1 3.138551 1_665
La0 P2 3.138551 1_655
La0 P1 3.138551 1_555
La0 P1 3.138551 1_565
Co0 P2 2.222292 1_555
Co0 P2 2.222292 1_655
Co0 P0 2.224609 1_545
Co0 P0 2.224609 1_555
Co0 Pr0 3.293488 1_655
Co0 Pr0 3.293488 1_555
Co1 P1 2.222292 1_555
Co1 P1 2.222292 1_565
Co1 P3 2.224609 1_555
Co1 P3 2.224609 1_455
Co1 Pr0 3.293488 1_556
Co1 Pr0 3.293488 1_566
Co2 P2 2.222292 1_565
Co2 P2 2.222292 1_555
Co2 P0 2.224609 1_455
Co2 P0 2.224609 1_555
Co2 Pr0 3.293488 1_565
Co2 Pr0 3.293488 1_555
Co3 P1 2.222292 1_555
Co3 P1 2.222292 1_655
Co3 P3 2.224609 1_545
Co3 P3 2.224609 1_555
Co3 Pr0 3.293488 1_556
Co3 Pr0 3.293488 1_656
P0 Pr0 3.107678 1_555
P0 Pr0 3.107678 1_665
P0 Pr0 3.107678 1_655
P0 Pr0 3.107678 1_565
P3 Pr0 3.107678 1_556
P3 Pr0 3.107678 1_566
P3 Pr0 3.107678 1_656
P3 Pr0 3.107678 1_666
