# generated using pymatgen
data_Ba2YNi3O7
_symmetry_space_group_name_H-M   'P 1'
_cell_length_a   5.57589463
_cell_length_b   12.20731564
_cell_length_c   5.57618364
_cell_angle_alpha   77.18664604
_cell_angle_beta   91.56305381
_cell_angle_gamma   77.16804027
_symmetry_Int_Tables_number   1
_chemical_formula_structural   Ba2YNi3O7
_chemical_formula_sum   'Ba4 Y2 Ni6 O14'
_cell_volume   359.68665788
_cell_formula_units_Z   2
loop_
 _symmetry_equiv_pos_site_id
 _symmetry_equiv_pos_as_xyz
  1  'x, y, z'
loop_
 _atom_site_type_symbol
 _atom_site_label
 _atom_site_symmetry_multiplicity
 _atom_site_fract_x
 _atom_site_fract_y
 _atom_site_fract_z
 _atom_site_occupancy
  Ba  Ba0  1  0.59278700  0.81482000  0.09262500  1
  Ba  Ba1  1  0.09270100  0.81494100  0.59256000  1
  Ba  Ba2  1  0.90723000  0.18511500  0.40741100  1
  Ba  Ba3  1  0.40716800  0.18524100  0.90731800  1
  Y  Y0  1  0.75006300  0.49987900  0.25003300  1
  Y  Y1  1  0.25005100  0.49997600  0.75005700  1
  Ni  Ni0  1  0.99994300  0.00017500  0.99986700  1
  Ni  Ni1  1  0.67059200  0.65877900  0.67055500  1
  Ni  Ni2  1  0.82930500  0.34166900  0.82933800  1
  Ni  Ni3  1  0.50001800  0.99996900  0.50009200  1
  Ni  Ni4  1  0.17024500  0.65918100  0.17017200  1
  Ni  Ni5  1  0.32993200  0.34026700  0.32996600  1
  O  O0  1  0.77052900  0.00027900  0.23051400  1
  O  O1  1  0.22990700  0.00004400  0.76996800  1
  O  O2  1  0.43938000  0.62203800  0.43930700  1
  O  O3  1  0.93818400  0.62192000  0.93816000  1
  O  O4  1  0.06156600  0.37754300  0.06155300  1
  O  O5  1  0.56163800  0.37745600  0.56168500  1
  O  O6  1  0.93753300  0.62360000  0.43869900  1
  O  O7  1  0.43884800  0.62360700  0.93747300  1
  O  O8  1  0.56208900  0.37655800  0.06152900  1
  O  O9  1  0.06146400  0.37655600  0.56224100  1
  O  O10  1  0.58133600  0.83772100  0.58120800  1
  O  O11  1  0.08097800  0.83634700  0.08091200  1
  O  O12  1  0.41856900  0.16220900  0.41868200  1
  O  O13  1  0.91794700  0.16410900  0.91807800  1
loop_
_geom_bond_atom_site_label_1
_geom_bond_atom_site_label_2
_geom_bond_distance
_geom_bond_site_symmetry_2
Ba0 O11 2.793383 1_655
Ba0 O10 2.800582 1_554
Ba0 O10 2.800737 1_555
Ba0 O11 2.804740 1_555
Ba0 O1 2.899740 1_564
Ba0 O0 2.902773 1_565
Ba0 O6 2.945249 1_555
Ba0 O7 2.945997 1_554
Ba0 O3 2.995282 1_554
Ba0 O2 2.995583 1_555
Ba1 O11 2.793886 1_556
Ba1 O10 2.800268 1_455
Ba1 O10 2.800500 1_555
Ba1 O11 2.804277 1_555
Ba1 O1 2.896176 1_565
Ba1 O0 2.896971 1_465
Ba1 O7 2.946561 1_555
Ba1 O6 2.947281 1_455
Ba1 O2 2.995487 1_555
Ba1 O3 2.997724 1_455
Ba2 O13 2.797692 1_554
Ba2 O13 2.799648 1_555
Ba2 O12 2.799933 1_655
Ba2 O12 2.801110 1_555
Ba2 O0 2.890544 1_555
Ba2 O1 2.898032 1_655
Ba2 O8 2.947134 1_555
Ba2 O9 2.948492 1_655
Ba2 O5 2.990469 1_555
Ba2 O4 2.992812 1_655
Ba3 O13 2.797484 1_455
Ba3 O13 2.799822 1_555
Ba3 O12 2.800086 1_556
Ba3 O12 2.801521 1_555
Ba3 O1 2.897200 1_555
Ba3 O0 2.900837 1_556
Ba3 O9 2.945726 1_555
Ba3 O8 2.947271 1_556
Ba3 O4 2.990055 1_556
Ba3 O5 2.990736 1_555
Ni0 O1 1.837736 1_655
Ni0 O0 1.838535 1_556
Ni0 O11 1.895941 1_646
Ni0 O13 1.897157 1_555
Ni1 O3 1.984424 1_555
Ni1 O2 1.987125 1_555
Ni1 O7 2.034028 1_555
Ni1 O6 2.034380 1_555
Ni1 O10 2.070841 1_555
Ni2 O5 1.986335 1_555
Ni2 O4 1.989375 1_656
Ni2 O9 2.035696 1_655
Ni2 O8 2.036101 1_556
Ni2 O13 2.054847 1_555
Ni3 O12 1.877556 1_565
Ni3 O10 1.877646 1_555
Ni3 O1 2.157933 1_565
Ni3 O0 2.158349 1_565
Ni4 O2 1.995724 1_555
Ni4 O3 1.996518 1_454
Ni4 O6 2.045068 1_455
Ni4 O7 2.045104 1_554
Ni4 O11 2.050296 1_555
Ni5 O4 1.989891 1_555
Ni5 O5 1.993604 1_555
Ni5 O8 2.044217 1_555
Ni5 O9 2.044597 1_555
Ni5 O12 2.060611 1_555
O2 Y0 2.447256 1_555
O2 Y1 2.447564 1_555
O3 Y1 2.445873 1_655
O3 Y0 2.447156 1_556
O4 Y0 2.448525 1_455
O4 Y1 2.449727 1_554
O5 Y1 2.449678 1_555
O5 Y0 2.449974 1_555
O6 Y0 2.413811 1_555
O6 Y1 2.415168 1_655
O7 Y1 2.413155 1_555
O7 Y0 2.415243 1_556
O8 Y0 2.410884 1_555
O8 Y1 2.413251 1_554
O9 Y1 2.411639 1_555
O9 Y0 2.413211 1_455
