# generated using pymatgen
data_Eu2BiS4
_symmetry_space_group_name_H-M   'P 1'
_cell_length_a   4.05153899
_cell_length_b   11.62653762
_cell_length_c   14.58078516
_cell_angle_alpha   90.00000000
_cell_angle_beta   90.00000000
_cell_angle_gamma   90.00000000
_symmetry_Int_Tables_number   1
_chemical_formula_structural   Eu2BiS4
_chemical_formula_sum   'Eu8 Bi4 S16'
_cell_volume   686.83328694
_cell_formula_units_Z   4
loop_
 _symmetry_equiv_pos_site_id
 _symmetry_equiv_pos_as_xyz
  1  'x, y, z'
loop_
 _atom_site_type_symbol
 _atom_site_label
 _atom_site_symmetry_multiplicity
 _atom_site_fract_x
 _atom_site_fract_y
 _atom_site_fract_z
 _atom_site_occupancy
  Eu  Eu0  1  0.25000000  0.77009964  0.15428988  1
  Eu  Eu1  1  0.25000000  0.27009964  0.34571012  1
  Eu  Eu2  1  0.75000000  0.22990036  0.84571012  1
  Eu  Eu3  1  0.75000000  0.72990036  0.65428988  1
  Eu  Eu4  1  0.25000000  0.60997917  0.40221265  1
  Eu  Eu5  1  0.25000000  0.10997917  0.09778735  1
  Eu  Eu6  1  0.75000000  0.39002083  0.59778735  1
  Eu  Eu7  1  0.75000000  0.89002083  0.90221265  1
  Bi  Bi0  1  0.25000000  0.56308611  0.89329428  1
  Bi  Bi1  1  0.25000000  0.06308611  0.60670572  1
  Bi  Bi2  1  0.75000000  0.43691389  0.10670572  1
  Bi  Bi3  1  0.75000000  0.93691389  0.39329428  1
  S  S0  1  0.25000000  0.51718537  0.20951592  1
  S  S1  1  0.25000000  0.01718537  0.29048408  1
  S  S2  1  0.75000000  0.48281463  0.79048408  1
  S  S3  1  0.75000000  0.98281463  0.70951592  1
  S  S4  1  0.25000000  0.76026764  0.80148083  1
  S  S5  1  0.25000000  0.26026764  0.69851917  1
  S  S6  1  0.75000000  0.23973236  0.19851917  1
  S  S7  1  0.75000000  0.73973236  0.30148083  1
  S  S8  1  0.25000000  0.56127033  0.59383947  1
  S  S9  1  0.25000000  0.06127033  0.90616053  1
  S  S10  1  0.75000000  0.43872967  0.40616053  1
  S  S11  1  0.75000000  0.93872967  0.09383947  1
  S  S12  1  0.25000000  0.82882062  0.51786551  1
  S  S13  1  0.25000000  0.32882062  0.98213449  1
  S  S14  1  0.75000000  0.17117938  0.48213449  1
  S  S15  1  0.75000000  0.67117938  0.01786551  1
loop_
_geom_bond_atom_site_label_1
_geom_bond_atom_site_label_2
_geom_bond_distance
_geom_bond_site_symmetry_2
Eu0 S11 2.953730 1_455
Eu0 S11 2.953730 1_555
Eu0 S7 2.972272 1_455
Eu0 S7 2.972272 1_555
Eu0 S0 3.048779 1_555
Eu0 S15 3.063215 1_455
Eu0 S15 3.063215 1_555
Eu0 S1 3.492302 1_565
Eu1 S10 2.953730 1_455
Eu1 S10 2.953730 1_555
Eu1 S6 2.972272 1_555
Eu1 S6 2.972272 1_455
Eu1 S1 3.048779 1_555
Eu1 S14 3.063215 1_455
Eu1 S14 3.063215 1_555
Eu1 S0 3.492302 1_555
Eu2 S9 2.953730 1_555
Eu2 S9 2.953730 1_655
Eu2 S5 2.972272 1_655
Eu2 S5 2.972272 1_555
Eu2 S2 3.048779 1_555
Eu2 S13 3.063215 1_555
Eu2 S13 3.063215 1_655
Eu2 S3 3.492302 1_545
Eu3 S8 2.953730 1_655
Eu3 S8 2.953730 1_555
Eu3 S4 2.972272 1_555
Eu3 S4 2.972272 1_655
Eu3 S3 3.048779 1_555
Eu3 S12 3.063215 1_555
Eu3 S12 3.063215 1_655
Eu3 S2 3.492302 1_555
Eu4 S10 2.841002 1_455
Eu4 S10 2.841002 1_555
Eu4 S8 2.850884 1_555
Eu4 S7 2.921777 1_455
Eu4 S7 2.921777 1_555
Eu4 S0 3.009685 1_555
Eu4 S12 3.052450 1_555
Eu5 S11 2.841002 1_545
Eu5 S11 2.841002 1_445
Eu5 S9 2.850884 1_554
Eu5 S6 2.921777 1_555
Eu5 S6 2.921777 1_455
Eu5 S1 3.009685 1_555
Eu5 S13 3.052450 1_554
Eu6 S8 2.841002 1_655
Eu6 S8 2.841002 1_555
Eu6 S10 2.850884 1_555
Eu6 S5 2.921777 1_555
Eu6 S5 2.921777 1_655
Eu6 S2 3.009685 1_555
Eu6 S14 3.052450 1_555
Eu7 S9 2.841002 1_565
Eu7 S9 2.841002 1_665
Eu7 S11 2.850884 1_556
Eu7 S4 2.921777 1_555
Eu7 S4 2.921777 1_655
Eu7 S3 3.009685 1_555
Eu7 S15 3.052450 1_556
Bi0 S4 2.654785 1_555
Bi0 S2 2.687362 1_455
Bi0 S2 2.687362 1_555
Bi0 S15 2.997045 1_456
Bi0 S15 2.997045 1_556
Bi0 S13 3.016037 1_555
Bi1 S5 2.654785 1_555
Bi1 S3 2.687362 1_445
Bi1 S3 2.687362 1_545
Bi1 S14 2.997045 1_455
Bi1 S14 2.997045 1_555
Bi1 S12 3.016037 1_545
Bi2 S6 2.654785 1_555
Bi2 S0 2.687362 1_555
Bi2 S0 2.687362 1_655
Bi2 S13 2.997045 1_554
Bi2 S13 2.997045 1_654
Bi2 S15 3.016037 1_555
Bi3 S7 2.654785 1_555
Bi3 S1 2.687362 1_665
Bi3 S1 2.687362 1_565
Bi3 S12 2.997045 1_555
Bi3 S12 2.997045 1_655
Bi3 S14 3.016037 1_565
