# generated using pymatgen
data_RbSm3F10
_symmetry_space_group_name_H-M   'P 1'
_cell_length_a   8.39149922
_cell_length_b   8.39149922
_cell_length_c   8.39149922
_cell_angle_alpha   60.00000000
_cell_angle_beta   60.00000000
_cell_angle_gamma   60.00000000
_symmetry_Int_Tables_number   1
_chemical_formula_structural   RbSm3F10
_chemical_formula_sum   'Rb2 Sm6 F20'
_cell_volume   417.83390444
_cell_formula_units_Z   2
loop_
 _symmetry_equiv_pos_site_id
 _symmetry_equiv_pos_as_xyz
  1  'x, y, z'
loop_
 _atom_site_type_symbol
 _atom_site_label
 _atom_site_symmetry_multiplicity
 _atom_site_fract_x
 _atom_site_fract_y
 _atom_site_fract_z
 _atom_site_occupancy
  Rb  Rb0  1  0.25000000  0.25000000  0.25000000  1
  Rb  Rb1  1  0.75000000  0.75000000  0.75000000  1
  Sm  Sm0  1  0.76039058  0.23960942  0.23960942  1
  Sm  Sm1  1  0.23960942  0.76039058  0.76039058  1
  Sm  Sm2  1  0.23960942  0.76039058  0.23960942  1
  Sm  Sm3  1  0.76039058  0.23960942  0.76039058  1
  Sm  Sm4  1  0.23960942  0.23960942  0.76039058  1
  Sm  Sm5  1  0.76039058  0.76039058  0.23960942  1
  F  F0  1  0.83245793  0.50000000  0.50000000  1
  F  F1  1  0.16754207  0.50000000  0.50000000  1
  F  F2  1  0.50000000  0.83245793  0.16754207  1
  F  F3  1  0.50000000  0.16754207  0.83245793  1
  F  F4  1  0.50000000  0.83245793  0.50000000  1
  F  F5  1  0.16754207  0.50000000  0.83245793  1
  F  F6  1  0.50000000  0.16754207  0.50000000  1
  F  F7  1  0.83245793  0.50000000  0.16754207  1
  F  F8  1  0.50000000  0.50000000  0.83245793  1
  F  F9  1  0.50000000  0.50000000  0.16754207  1
  F  F10  1  0.16754207  0.83245793  0.50000000  1
  F  F11  1  0.83245793  0.16754207  0.50000000  1
  F  F12  1  0.11092113  0.11092113  0.11092113  1
  F  F13  1  0.88907887  0.88907887  0.88907887  1
  F  F14  1  0.11092113  0.11092113  0.66723661  1
  F  F15  1  0.11092113  0.66723661  0.11092113  1
  F  F16  1  0.88907887  0.88907887  0.33276339  1
  F  F17  1  0.88907887  0.33276339  0.88907887  1
  F  F18  1  0.66723661  0.11092113  0.11092113  1
  F  F19  1  0.33276339  0.88907887  0.88907887  1
loop_
_geom_bond_atom_site_label_1
_geom_bond_atom_site_label_2
_geom_bond_distance
_geom_bond_site_symmetry_2
F0 Sm5 2.267211 1_555
F0 Sm3 2.267211 1_555
F0 Rb1 3.283107 1_555
F0 Rb0 3.283107 1_655
F1 Sm2 2.267211 1_555
F1 Sm4 2.267211 1_555
F1 Rb0 3.283107 1_555
F1 Rb1 3.283107 1_455
F2 Sm5 2.267211 1_555
F2 Sm2 2.267211 1_555
F2 Rb0 3.283107 1_565
F2 Rb1 3.283107 1_554
F3 Sm4 2.267211 1_555
F3 Sm3 2.267211 1_555
F3 Rb0 3.283107 1_556
F3 Rb1 3.283107 1_545
F4 Sm1 2.267211 1_555
F4 Sm5 2.267211 1_555
F4 Rb0 3.283107 1_565
F4 Rb1 3.283107 1_555
F5 Sm4 2.267211 1_555
F5 Sm1 2.267211 1_555
F5 Rb1 3.283107 1_455
F5 Rb0 3.283107 1_556
F6 Sm4 2.267211 1_555
F6 Sm0 2.267211 1_555
F6 Rb0 3.283107 1_555
F6 Rb1 3.283107 1_545
F7 Sm0 2.267211 1_555
F7 Sm5 2.267211 1_555
F7 Rb0 3.283107 1_655
F7 Rb1 3.283107 1_554
F8 Sm3 2.267211 1_555
F8 Sm1 2.267211 1_555
F8 Rb1 3.283107 1_555
F8 Rb0 3.283107 1_556
F9 Sm0 2.267211 1_555
F9 Sm2 2.267211 1_555
F9 Rb0 3.283107 1_555
F9 Rb1 3.283107 1_554
F10 Sm2 2.267211 1_555
F10 Sm1 2.267211 1_555
F10 Rb0 3.283107 1_565
F10 Rb1 3.283107 1_455
F11 Sm3 2.267211 1_555
F11 Sm0 2.267211 1_555
F11 Rb0 3.283107 1_655
F11 Rb1 3.283107 1_545
F12 Sm4 2.407868 1_554
F12 Sm2 2.407868 1_545
F12 Sm0 2.407868 1_455
F12 Rb0 2.858751 1_555
F13 Sm3 2.407868 1_565
F13 Sm5 2.407868 1_556
F13 Sm1 2.407868 1_655
F13 Rb1 2.858751 1_555
F14 Sm4 2.407868 1_555
F14 Sm3 2.407868 1_455
F14 Sm1 2.407868 1_545
F14 Rb0 2.858751 1_555
F15 Sm2 2.407868 1_555
F15 Sm1 2.407868 1_554
F15 Sm5 2.407868 1_455
F15 Rb0 2.858751 1_555
F16 Sm5 2.407868 1_555
F16 Sm0 2.407868 1_565
F16 Sm2 2.407868 1_655
F16 Rb1 2.858751 1_555
F17 Sm3 2.407868 1_555
F17 Sm4 2.407868 1_655
F17 Sm0 2.407868 1_556
F17 Rb1 2.858751 1_555
F18 Sm3 2.407868 1_554
F18 Sm0 2.407868 1_555
F18 Sm5 2.407868 1_545
F18 Rb0 2.858751 1_555
F19 Sm1 2.407868 1_555
F19 Sm4 2.407868 1_565
F19 Sm2 2.407868 1_556
F19 Rb1 2.858751 1_555
