# generated using pymatgen
data_PuZr2
_symmetry_space_group_name_H-M   'P 1'
_cell_length_a   5.89954400
_cell_length_b   10.07339464
_cell_length_c   10.01962385
_cell_angle_alpha   120.20748403
_cell_angle_beta   90.00000000
_cell_angle_gamma   90.00000000
_symmetry_Int_Tables_number   1
_chemical_formula_structural   PuZr2
_chemical_formula_sum   'Pu8 Zr16'
_cell_volume   514.59378999
_cell_formula_units_Z   8
loop_
 _symmetry_equiv_pos_site_id
 _symmetry_equiv_pos_as_xyz
  1  'x, y, z'
loop_
 _atom_site_type_symbol
 _atom_site_label
 _atom_site_symmetry_multiplicity
 _atom_site_fract_x
 _atom_site_fract_y
 _atom_site_fract_z
 _atom_site_occupancy
  Pu  Pu0_0  1  0.25000000  0.16659350  0.33314400  1
  Pu  Pu0_1  1  0.25000000  0.16659350  0.83314400  1
  Pu  Pu0_2  1  0.25000000  0.66659350  0.33314400  1
  Pu  Pu0_3  1  0.25000000  0.66659350  0.83314400  1
  Pu  Pu0_4  1  0.75000000  0.16659350  0.33314400  1
  Pu  Pu0_5  1  0.75000000  0.16659350  0.83314400  1
  Pu  Pu0_6  1  0.75000000  0.66659350  0.33314400  1
  Pu  Pu0_7  1  0.75000000  0.66659350  0.83314400  1
  Zr  Zr0_0  1  0.00000000  0.00026450  0.00064250  1
  Zr  Zr0_1  1  0.00000000  0.00026450  0.50064250  1
  Zr  Zr0_2  1  0.00000000  0.50026450  0.00064250  1
  Zr  Zr0_3  1  0.00000000  0.50026450  0.50064250  1
  Zr  Zr0_4  1  0.50000000  0.00026450  0.00064250  1
  Zr  Zr0_5  1  0.50000000  0.00026450  0.50064250  1
  Zr  Zr0_6  1  0.50000000  0.50026450  0.00064250  1
  Zr  Zr0_7  1  0.50000000  0.50026450  0.50064250  1
  Zr  Zr1_0  1  0.25000000  0.33309250  0.16621350  1
  Zr  Zr1_1  1  0.25000000  0.33309250  0.66621350  1
  Zr  Zr1_2  1  0.25000000  0.83309250  0.16621350  1
  Zr  Zr1_3  1  0.25000000  0.83309250  0.66621350  1
  Zr  Zr1_4  1  0.75000000  0.33309250  0.16621350  1
  Zr  Zr1_5  1  0.75000000  0.33309250  0.66621350  1
  Zr  Zr1_6  1  0.75000000  0.83309250  0.16621350  1
  Zr  Zr1_7  1  0.75000000  0.83309250  0.66621350  1
loop_
_geom_bond_atom_site_label_1
_geom_bond_atom_site_label_2
_geom_bond_distance
_geom_bond_site_symmetry_2
Pu0_0 Zr1_1 2.884066 1_555
Pu0_0 Zr1_2 2.903353 1_545
Pu0_0 Zr1_0 2.904033 1_555
Pu0_0 Pu0_4 2.949772 1_455
Pu0_0 Pu0_4 2.949772 1_555
Pu0_0 Zr0_0 3.234931 1_555
Pu0_0 Zr0_4 3.234931 1_555
Pu0_0 Zr0_7 3.257790 1_555
Pu0_0 Zr0_3 3.257790 1_555
Pu0_0 Zr0_1 3.260174 1_555
Pu0_0 Zr0_5 3.260174 1_555
Pu0_1 Zr1_0 2.884066 1_556
Pu0_1 Zr1_3 2.903353 1_545
Pu0_1 Zr1_1 2.904033 1_555
Pu0_1 Pu0_5 2.949772 1_555
Pu0_1 Pu0_5 2.949772 1_455
Pu0_1 Zr0_5 3.234931 1_555
Pu0_1 Zr0_1 3.234931 1_555
Pu0_1 Zr0_6 3.257790 1_556
Pu0_1 Zr0_2 3.257790 1_556
Pu0_1 Zr0_0 3.260174 1_556
Pu0_1 Zr0_4 3.260174 1_556
Pu0_2 Zr1_3 2.884066 1_555
Pu0_2 Zr1_0 2.903353 1_555
Pu0_2 Zr1_2 2.904033 1_555
Pu0_2 Pu0_6 2.949772 1_555
Pu0_2 Pu0_6 2.949772 1_455
Pu0_2 Zr0_2 3.234931 1_555
Pu0_2 Zr0_6 3.234931 1_555
Pu0_2 Zr0_1 3.257790 1_565
Pu0_2 Zr0_5 3.257790 1_565
Pu0_2 Zr0_3 3.260174 1_555
Pu0_2 Zr0_7 3.260174 1_555
Pu0_3 Zr1_2 2.884066 1_556
Pu0_3 Zr1_1 2.903353 1_555
Pu0_3 Zr1_3 2.904033 1_555
Pu0_3 Pu0_7 2.949772 1_455
Pu0_3 Pu0_7 2.949772 1_555
Pu0_3 Zr0_3 3.234931 1_555
Pu0_3 Zr0_7 3.234931 1_555
Pu0_3 Zr0_4 3.257790 1_566
Pu0_3 Zr0_0 3.257790 1_566
Pu0_3 Zr0_2 3.260174 1_556
Pu0_3 Zr0_6 3.260174 1_556
Pu0_4 Zr1_5 2.884066 1_555
Pu0_4 Zr1_6 2.903353 1_545
Pu0_4 Zr1_4 2.904033 1_555
Pu0_4 Zr0_0 3.234931 1_655
Pu0_4 Zr0_4 3.234931 1_555
Pu0_4 Zr0_3 3.257790 1_655
Pu0_4 Zr0_7 3.257790 1_555
Pu0_4 Zr0_5 3.260174 1_555
Pu0_4 Zr0_1 3.260174 1_655
Pu0_5 Zr1_4 2.884066 1_556
Pu0_5 Zr1_7 2.903353 1_545
Pu0_5 Zr1_5 2.904033 1_555
Pu0_5 Zr0_1 3.234931 1_655
Pu0_5 Zr0_5 3.234931 1_555
Pu0_5 Zr0_6 3.257790 1_556
Pu0_5 Zr0_2 3.257790 1_656
Pu0_5 Zr0_0 3.260174 1_656
Pu0_5 Zr0_4 3.260174 1_556
Pu0_6 Zr1_7 2.884066 1_555
Pu0_6 Zr1_4 2.903353 1_555
Pu0_6 Zr1_6 2.904033 1_555
Pu0_6 Zr0_6 3.234931 1_555
Pu0_6 Zr0_2 3.234931 1_655
Pu0_6 Zr0_5 3.257790 1_565
Pu0_6 Zr0_1 3.257790 1_665
Pu0_6 Zr0_3 3.260174 1_655
Pu0_6 Zr0_7 3.260174 1_555
Pu0_7 Zr1_6 2.884066 1_556
Pu0_7 Zr1_5 2.903353 1_555
Pu0_7 Zr1_7 2.904033 1_555
Pu0_7 Zr0_3 3.234931 1_655
Pu0_7 Zr0_7 3.234931 1_555
Pu0_7 Zr0_0 3.257790 1_666
Pu0_7 Zr0_4 3.257790 1_566
Pu0_7 Zr0_2 3.260174 1_656
Pu0_7 Zr0_6 3.260174 1_556
Zr0_0 Zr0_4 2.949772 1_455
Zr0_0 Zr0_4 2.949772 1_555
Zr0_0 Zr1_7 3.249795 1_444
Zr0_0 Zr1_3 3.249795 1_544
Zr0_0 Zr1_4 3.251343 1_455
Zr0_0 Zr1_0 3.251343 1_555
Zr0_0 Zr1_2 3.251835 1_545
Zr0_0 Zr1_6 3.251835 1_445
Zr0_1 Zr0_5 2.949772 1_555
Zr0_1 Zr0_5 2.949772 1_455
Zr0_1 Zr1_2 3.249795 1_545
Zr0_1 Zr1_6 3.249795 1_445
Zr0_1 Zr1_1 3.251343 1_555
Zr0_1 Zr1_5 3.251343 1_455
Zr0_1 Zr1_3 3.251835 1_545
Zr0_1 Zr1_7 3.251835 1_445
Zr0_2 Zr0_6 2.949772 1_455
Zr0_2 Zr0_6 2.949772 1_555
Zr0_2 Zr1_5 3.249795 1_454
Zr0_2 Zr1_1 3.249795 1_554
Zr0_2 Zr1_6 3.251343 1_455
Zr0_2 Zr1_2 3.251343 1_555
Zr0_2 Zr1_4 3.251835 1_455
Zr0_2 Zr1_0 3.251835 1_555
Zr0_3 Zr0_7 2.949772 1_455
Zr0_3 Zr0_7 2.949772 1_555
Zr0_3 Zr1_4 3.249795 1_455
Zr0_3 Zr1_0 3.249795 1_555
Zr0_3 Zr1_3 3.251343 1_555
Zr0_3 Zr1_7 3.251343 1_455
Zr0_3 Zr1_5 3.251835 1_455
Zr0_3 Zr1_1 3.251835 1_555
Zr0_4 Zr1_7 3.249795 1_544
Zr0_4 Zr1_3 3.249795 1_544
Zr0_4 Zr1_0 3.251343 1_555
Zr0_4 Zr1_4 3.251343 1_555
Zr0_4 Zr1_2 3.251835 1_545
Zr0_4 Zr1_6 3.251835 1_545
Zr0_5 Zr1_6 3.249795 1_545
Zr0_5 Zr1_2 3.249795 1_545
Zr0_5 Zr1_1 3.251343 1_555
Zr0_5 Zr1_5 3.251343 1_555
Zr0_5 Zr1_3 3.251835 1_545
Zr0_5 Zr1_7 3.251835 1_545
Zr0_6 Zr1_1 3.249795 1_554
Zr0_6 Zr1_5 3.249795 1_554
Zr0_6 Zr1_2 3.251343 1_555
Zr0_6 Zr1_6 3.251343 1_555
Zr0_6 Zr1_0 3.251835 1_555
Zr0_6 Zr1_4 3.251835 1_555
Zr0_7 Zr1_0 3.249795 1_555
Zr0_7 Zr1_4 3.249795 1_555
Zr0_7 Zr1_3 3.251343 1_555
Zr0_7 Zr1_7 3.251343 1_555
Zr0_7 Zr1_1 3.251835 1_555
Zr0_7 Zr1_5 3.251835 1_555
Zr1_0 Zr1_4 2.949772 1_555
Zr1_0 Zr1_4 2.949772 1_455
Zr1_1 Zr1_5 2.949772 1_455
Zr1_1 Zr1_5 2.949772 1_555
Zr1_2 Zr1_6 2.949772 1_455
Zr1_2 Zr1_6 2.949772 1_555
Zr1_3 Zr1_7 2.949772 1_455
Zr1_3 Zr1_7 2.949772 1_555
