# generated using pymatgen
data_Ba2NaUO6
_symmetry_space_group_name_H-M   'P 1'
_cell_length_a   6.11176300
_cell_length_b   6.21414800
_cell_length_c   8.71594700
_cell_angle_alpha   90.00000000
_cell_angle_beta   90.00000000
_cell_angle_gamma   90.00000000
_symmetry_Int_Tables_number   1
_chemical_formula_structural   Ba2NaUO6
_chemical_formula_sum   'Ba4 Na2 U2 O12'
_cell_volume   331.02643595
_cell_formula_units_Z   2
loop_
 _symmetry_equiv_pos_site_id
 _symmetry_equiv_pos_as_xyz
  1  'x, y, z'
loop_
 _atom_site_type_symbol
 _atom_site_label
 _atom_site_symmetry_multiplicity
 _atom_site_fract_x
 _atom_site_fract_y
 _atom_site_fract_z
 _atom_site_occupancy
  Ba  Ba0  1  0.00000000  0.48935400  0.25778100  1
  Ba  Ba1  1  0.00000000  0.51064600  0.74221900  1
  Ba  Ba2  1  0.50000000  0.98935400  0.24221900  1
  Ba  Ba3  1  0.50000000  0.01064600  0.75778100  1
  Na  Na0  1  0.00000000  0.00000000  0.00000000  1
  Na  Na1  1  0.50000000  0.50000000  0.50000000  1
  U  U0  1  0.00000000  0.00000000  0.50000000  1
  U  U1  1  0.50000000  0.50000000  0.00000000  1
  O  O0  1  0.50000000  0.52796300  0.23514300  1
  O  O1  1  0.50000000  0.47203700  0.76485700  1
  O  O2  1  0.00000000  0.02796300  0.26485700  1
  O  O3  1  0.00000000  0.97203700  0.73514300  1
  O  O4  1  0.23613400  0.23705000  0.51094800  1
  O  O5  1  0.23613400  0.76295000  0.48905200  1
  O  O6  1  0.73613400  0.73705000  0.98905200  1
  O  O7  1  0.73613400  0.26295000  0.01094800  1
  O  O8  1  0.26386600  0.26295000  0.01094800  1
  O  O9  1  0.26386600  0.73705000  0.98905200  1
  O  O10  1  0.76386600  0.76295000  0.48905200  1
  O  O11  1  0.76386600  0.23705000  0.51094800  1
loop_
_geom_bond_atom_site_label_1
_geom_bond_atom_site_label_2
_geom_bond_distance
_geom_bond_site_symmetry_2
Ba0 O2 2.867815 1_555
Ba0 O10 3.006095 1_455
Ba0 O5 3.006095 1_555
Ba0 O7 3.034567 1_455
Ba0 O8 3.034567 1_555
Ba0 O11 3.067576 1_455
Ba0 O4 3.067576 1_555
Ba0 O0 3.071629 1_455
Ba0 O0 3.071629 1_555
Ba0 O9 3.233572 1_554
Ba0 O6 3.233572 1_454
Ba0 O2 3.347564 1_565
Ba1 O3 2.867815 1_555
Ba1 O11 3.006095 1_455
Ba1 O4 3.006095 1_555
Ba1 O9 3.034567 1_555
Ba1 O6 3.034567 1_455
Ba1 O10 3.067576 1_455
Ba1 O5 3.067576 1_555
Ba1 O1 3.071629 1_555
Ba1 O1 3.071629 1_455
Ba1 O8 3.233572 1_556
Ba1 O7 3.233572 1_456
Ba1 O3 3.347564 1_545
Ba2 O0 2.867815 1_555
Ba2 O7 3.006095 1_565
Ba2 O8 3.006095 1_565
Ba2 O10 3.034567 1_555
Ba2 O5 3.034567 1_555
Ba2 O6 3.067576 1_554
Ba2 O9 3.067576 1_554
Ba2 O2 3.071629 1_665
Ba2 O2 3.071629 1_565
Ba2 O4 3.233572 1_565
Ba2 O11 3.233572 1_565
Ba2 O0 3.347564 1_565
Ba3 O1 2.867815 1_555
Ba3 O9 3.006095 1_545
Ba3 O6 3.006095 1_545
Ba3 O4 3.034567 1_555
Ba3 O11 3.034567 1_555
Ba3 O7 3.067576 1_556
Ba3 O8 3.067576 1_556
Ba3 O3 3.071629 1_545
Ba3 O3 3.071629 1_645
Ba3 O5 3.233572 1_545
Ba3 O10 3.233572 1_545
Ba3 O1 3.347564 1_545
Na0 O7 2.297793 1_455
Na0 O9 2.297793 1_544
Na0 O6 2.297793 1_444
Na0 O8 2.297793 1_555
Na0 O2 2.315010 1_555
Na0 O3 2.315010 1_544
Na1 O4 2.297793 1_555
Na1 O10 2.297793 1_555
Na1 O11 2.297793 1_555
Na1 O5 2.297793 1_555
Na1 O0 2.315010 1_555
Na1 O1 2.315010 1_555
O0 U1 2.056847 1_555
O1 U1 2.056847 1_556
O2 U0 2.056847 1_555
O3 U0 2.056847 1_565
O4 U0 2.064421 1_555
O5 U0 2.064421 1_565
O6 U1 2.064421 1_556
O7 U1 2.064421 1_555
O8 U1 2.064421 1_555
O9 U1 2.064421 1_556
O10 U0 2.064421 1_665
O11 U0 2.064421 1_655
