# generated using pymatgen
data_AgCS(OF)3
_symmetry_space_group_name_H-M   'P 1'
_cell_length_a   5.47290409
_cell_length_b   5.47290400
_cell_length_c   11.55220863
_cell_angle_alpha   76.29771130
_cell_angle_beta   76.29771270
_cell_angle_gamma   60.00000054
_symmetry_Int_Tables_number   1
_chemical_formula_structural   AgCS(OF)3
_chemical_formula_sum   'Ag2 C2 S2 O6 F6'
_cell_volume   288.23438781
_cell_formula_units_Z   2
loop_
 _symmetry_equiv_pos_site_id
 _symmetry_equiv_pos_as_xyz
  1  'x, y, z'
loop_
 _atom_site_type_symbol
 _atom_site_label
 _atom_site_symmetry_multiplicity
 _atom_site_fract_x
 _atom_site_fract_y
 _atom_site_fract_z
 _atom_site_occupancy
  Ag  Ag0  1  0.66533100  0.66533100  0.00400600  1
  Ag  Ag1  1  0.33466900  0.33466900  0.99599400  1
  C  C0  1  0.11198700  0.11198700  0.66404000  1
  C  C1  1  0.88801300  0.88801300  0.33596000  1
  S  S0  1  0.05541600  0.05541600  0.83375100  1
  S  S1  1  0.94458400  0.94458400  0.16624900  1
  O  O0  1  0.30625600  0.78586100  0.86664000  1
  O  O1  1  0.78586100  0.04124200  0.86664000  1
  O  O2  1  0.04124200  0.30625600  0.86664000  1
  O  O3  1  0.69374400  0.21413900  0.13336000  1
  O  O4  1  0.21413900  0.95875800  0.13336000  1
  O  O5  1  0.95875800  0.69374400  0.13336000  1
  F  F0  1  0.88784400  0.35143700  0.62327600  1
  F  F1  1  0.35143700  0.13744300  0.62327600  1
  F  F2  1  0.13744300  0.88784400  0.62327600  1
  F  F3  1  0.11215600  0.64856300  0.37672500  1
  F  F4  1  0.64856300  0.86255700  0.37672500  1
  F  F5  1  0.86255700  0.11215600  0.37672500  1
loop_
_geom_bond_atom_site_label_1
_geom_bond_atom_site_label_2
_geom_bond_distance
_geom_bond_site_symmetry_2
Ag0 O3 2.516493 1_555
Ag0 O4 2.516496 1_555
Ag0 O5 2.516502 1_555
Ag0 O0 2.549594 1_554
Ag0 O1 2.549594 1_564
Ag0 O2 2.549594 1_654
Ag1 O0 2.516493 1_555
Ag1 O1 2.516496 1_555
Ag1 O2 2.516502 1_555
Ag1 O3 2.549594 1_556
Ag1 O4 2.549594 1_546
Ag1 O5 2.549594 1_456
C0 F1 1.348211 1_555
C0 F0 1.348214 1_455
C0 F2 1.348216 1_545
C1 F4 1.348212 1_555
C1 F3 1.348217 1_655
C1 F5 1.348222 1_565
O0 S0 1.470260 1_565
O1 S0 1.470260 1_655
O2 S0 1.470260 1_555
O3 S1 1.470260 1_545
O4 S1 1.470260 1_455
O5 S1 1.470260 1_555
