# generated using pymatgen
data_CeSe2
_symmetry_space_group_name_H-M   'P 1'
_cell_length_a   17.54232660
_cell_length_b   17.54232660
_cell_length_c   17.54232660
_cell_angle_alpha   90.00000000
_cell_angle_beta   90.00000000
_cell_angle_gamma   90.00000000
_symmetry_Int_Tables_number   1
_chemical_formula_structural   CeSe2
_chemical_formula_sum   'Ce24 Se48'
_cell_volume   5398.35669549
_cell_formula_units_Z   24
loop_
 _symmetry_equiv_pos_site_id
 _symmetry_equiv_pos_as_xyz
  1  'x, y, z'
loop_
 _atom_site_type_symbol
 _atom_site_label
 _atom_site_symmetry_multiplicity
 _atom_site_fract_x
 _atom_site_fract_y
 _atom_site_fract_z
 _atom_site_occupancy
  Ce  Ce0  1  0.45049976  0.14742558  0.72069717  1
  Ce  Ce1  1  0.54950024  0.64742558  0.77930283  1
  Ce  Ce2  1  0.04950024  0.85257442  0.22069717  1
  Ce  Ce3  1  0.95049976  0.35257442  0.27930283  1
  Ce  Ce4  1  0.72069717  0.45049976  0.14742558  1
  Ce  Ce5  1  0.77930283  0.54950024  0.64742558  1
  Ce  Ce6  1  0.22069717  0.04950024  0.85257442  1
  Ce  Ce7  1  0.27930283  0.95049976  0.35257442  1
  Ce  Ce8  1  0.14742558  0.72069717  0.45049976  1
  Ce  Ce9  1  0.64742558  0.77930283  0.54950024  1
  Ce  Ce10  1  0.85257442  0.22069717  0.04950024  1
  Ce  Ce11  1  0.35257442  0.27930283  0.95049976  1
  Ce  Ce12  1  0.54950024  0.85257442  0.27930283  1
  Ce  Ce13  1  0.45049976  0.35257442  0.22069717  1
  Ce  Ce14  1  0.95049976  0.14742558  0.77930283  1
  Ce  Ce15  1  0.04950024  0.64742558  0.72069717  1
  Ce  Ce16  1  0.27930283  0.54950024  0.85257442  1
  Ce  Ce17  1  0.22069717  0.45049976  0.35257442  1
  Ce  Ce18  1  0.77930283  0.95049976  0.14742558  1
  Ce  Ce19  1  0.72069717  0.04950024  0.64742558  1
  Ce  Ce20  1  0.85257442  0.27930283  0.54950024  1
  Ce  Ce21  1  0.35257442  0.22069717  0.45049976  1
  Ce  Ce22  1  0.14742558  0.77930283  0.95049976  1
  Ce  Ce23  1  0.64742558  0.72069717  0.04950024  1
  Se  Se0  1  0.33433882  0.04822482  0.74715101  1
  Se  Se1  1  0.66566118  0.54822482  0.75284899  1
  Se  Se2  1  0.16566118  0.95177518  0.24715101  1
  Se  Se3  1  0.83433882  0.45177518  0.25284899  1
  Se  Se4  1  0.74715101  0.33433882  0.04822482  1
  Se  Se5  1  0.75284899  0.66566118  0.54822482  1
  Se  Se6  1  0.24715101  0.16566118  0.95177518  1
  Se  Se7  1  0.25284899  0.83433882  0.45177518  1
  Se  Se8  1  0.04822482  0.74715101  0.33433882  1
  Se  Se9  1  0.54822482  0.75284899  0.66566118  1
  Se  Se10  1  0.95177518  0.24715101  0.16566118  1
  Se  Se11  1  0.45177518  0.25284899  0.83433882  1
  Se  Se12  1  0.66566118  0.95177518  0.25284899  1
  Se  Se13  1  0.33433882  0.45177518  0.24715101  1
  Se  Se14  1  0.83433882  0.04822482  0.75284899  1
  Se  Se15  1  0.16566118  0.54822482  0.74715101  1
  Se  Se16  1  0.25284899  0.66566118  0.95177518  1
  Se  Se17  1  0.24715101  0.33433882  0.45177518  1
  Se  Se18  1  0.75284899  0.83433882  0.04822482  1
  Se  Se19  1  0.74715101  0.16566118  0.54822482  1
  Se  Se20  1  0.95177518  0.25284899  0.66566118  1
  Se  Se21  1  0.45177518  0.24715101  0.33433882  1
  Se  Se22  1  0.04822482  0.75284899  0.83433882  1
  Se  Se23  1  0.54822482  0.74715101  0.16566118  1
  Se  Se24  1  0.42981008  0.21871983  0.58476303  1
  Se  Se25  1  0.57018992  0.71871983  0.91523697  1
  Se  Se26  1  0.07018992  0.78128017  0.08476303  1
  Se  Se27  1  0.92981008  0.28128017  0.41523697  1
  Se  Se28  1  0.58476303  0.42981008  0.21871983  1
  Se  Se29  1  0.91523697  0.57018992  0.71871983  1
  Se  Se30  1  0.08476303  0.07018992  0.78128017  1
  Se  Se31  1  0.41523697  0.92981008  0.28128017  1
  Se  Se32  1  0.21871983  0.58476303  0.42981008  1
  Se  Se33  1  0.71871983  0.91523697  0.57018992  1
  Se  Se34  1  0.78128017  0.08476303  0.07018992  1
  Se  Se35  1  0.28128017  0.41523697  0.92981008  1
  Se  Se36  1  0.57018992  0.78128017  0.41523697  1
  Se  Se37  1  0.42981008  0.28128017  0.08476303  1
  Se  Se38  1  0.92981008  0.21871983  0.91523697  1
  Se  Se39  1  0.07018992  0.71871983  0.58476303  1
  Se  Se40  1  0.41523697  0.57018992  0.78128017  1
  Se  Se41  1  0.08476303  0.42981008  0.28128017  1
  Se  Se42  1  0.91523697  0.92981008  0.21871983  1
  Se  Se43  1  0.58476303  0.07018992  0.71871983  1
  Se  Se44  1  0.78128017  0.41523697  0.57018992  1
  Se  Se45  1  0.28128017  0.08476303  0.42981008  1
  Se  Se46  1  0.21871983  0.91523697  0.92981008  1
  Se  Se47  1  0.71871983  0.58476303  0.07018992  1
loop_
_geom_bond_atom_site_label_1
_geom_bond_atom_site_label_2
_geom_bond_distance
_geom_bond_site_symmetry_2
Ce0 Se24 2.717024 1_555
Ce0 Se43 2.717412 1_555
Ce0 Se11 2.719352 1_555
Ce0 Se0 2.719568 1_555
Ce1 Se25 2.717024 1_555
Ce1 Se40 2.717412 1_555
Ce1 Se9 2.719352 1_555
Ce1 Se1 2.719568 1_555
Ce2 Se26 2.717024 1_555
Ce2 Se42 2.717412 1_455
Ce2 Se8 2.719352 1_555
Ce2 Se2 2.719568 1_555
Ce3 Se27 2.717024 1_555
Ce3 Se41 2.717412 1_655
Ce3 Se10 2.719352 1_555
Ce3 Se3 2.719568 1_555
Ce4 Se28 2.717024 1_555
Ce4 Se47 2.717412 1_555
Ce4 Se3 2.719352 1_555
Ce4 Se4 2.719568 1_555
Ce5 Se29 2.717024 1_555
Ce5 Se44 2.717412 1_555
Ce5 Se1 2.719352 1_555
Ce5 Se5 2.719568 1_555
Ce6 Se30 2.717024 1_555
Ce6 Se46 2.717412 1_545
Ce6 Se0 2.719352 1_555
Ce6 Se6 2.719568 1_555
Ce7 Se31 2.717024 1_555
Ce7 Se45 2.717412 1_565
Ce7 Se2 2.719352 1_555
Ce7 Se7 2.719568 1_555
Ce8 Se32 2.717024 1_555
Ce8 Se39 2.717412 1_555
Ce8 Se7 2.719352 1_555
Ce8 Se8 2.719568 1_555
Ce9 Se33 2.717024 1_555
Ce9 Se36 2.717412 1_555
Ce9 Se5 2.719352 1_555
Ce9 Se9 2.719568 1_555
Ce10 Se34 2.717024 1_555
Ce10 Se38 2.717412 1_554
Ce10 Se4 2.719352 1_555
Ce10 Se10 2.719568 1_555
Ce11 Se35 2.717024 1_555
Ce11 Se37 2.717412 1_556
Ce11 Se6 2.719352 1_555
Ce11 Se11 2.719568 1_555
Ce12 Se36 2.717024 1_555
Ce12 Se31 2.717412 1_555
Ce12 Se23 2.719352 1_555
Ce12 Se12 2.719568 1_555
Ce13 Se37 2.717024 1_555
Ce13 Se28 2.717412 1_555
Ce13 Se21 2.719352 1_555
Ce13 Se13 2.719568 1_555
Ce14 Se38 2.717024 1_555
Ce14 Se30 2.717412 1_655
Ce14 Se20 2.719352 1_555
Ce14 Se14 2.719568 1_555
Ce15 Se39 2.717024 1_555
Ce15 Se29 2.717412 1_455
Ce15 Se22 2.719352 1_555
Ce15 Se15 2.719568 1_555
Ce16 Se40 2.717024 1_555
Ce16 Se35 2.717412 1_555
Ce16 Se15 2.719352 1_555
Ce16 Se16 2.719568 1_555
Ce17 Se41 2.717024 1_555
Ce17 Se32 2.717412 1_555
Ce17 Se13 2.719352 1_555
Ce17 Se17 2.719568 1_555
Ce18 Se42 2.717024 1_555
Ce18 Se34 2.717412 1_565
Ce18 Se12 2.719352 1_555
Ce18 Se18 2.719568 1_555
Ce19 Se43 2.717024 1_555
Ce19 Se33 2.717412 1_545
Ce19 Se14 2.719352 1_555
Ce19 Se19 2.719568 1_555
Ce20 Se44 2.717024 1_555
Ce20 Se27 2.717412 1_555
Ce20 Se19 2.719352 1_555
Ce20 Se20 2.719568 1_555
Ce21 Se45 2.717024 1_555
Ce21 Se24 2.717412 1_555
Ce21 Se17 2.719352 1_555
Ce21 Se21 2.719568 1_555
Ce22 Se46 2.717024 1_555
Ce22 Se26 2.717412 1_556
Ce22 Se16 2.719352 1_555
Ce22 Se22 2.719568 1_555
Ce23 Se47 2.717024 1_555
Ce23 Se25 2.717412 1_554
Ce23 Se18 2.719352 1_555
Ce23 Se23 2.719568 1_555
