# generated using pymatgen
data_Nb2Zn2CoO8
_symmetry_space_group_name_H-M   'P 1'
_cell_length_a   10.13895758
_cell_length_b   10.13895758
_cell_length_c   5.28515240
_cell_angle_alpha   89.71335080
_cell_angle_beta   89.71335080
_cell_angle_gamma   34.19572671
_symmetry_Int_Tables_number   1
_chemical_formula_structural   Nb2Zn2CoO8
_chemical_formula_sum   'Nb4 Zn4 Co2 O16'
_cell_volume   305.34531034
_cell_formula_units_Z   2
loop_
 _symmetry_equiv_pos_site_id
 _symmetry_equiv_pos_as_xyz
  1  'x, y, z'
loop_
 _atom_site_type_symbol
 _atom_site_label
 _atom_site_symmetry_multiplicity
 _atom_site_fract_x
 _atom_site_fract_y
 _atom_site_fract_z
 _atom_site_occupancy
  Nb  Nb0  1  0.72224800  0.04963200  0.76631600  1
  Nb  Nb1  1  0.95036800  0.27775200  0.73368400  1
  Nb  Nb2  1  0.27775200  0.95036800  0.23368400  1
  Nb  Nb3  1  0.04963200  0.72224800  0.26631600  1
  Zn  Zn0  1  0.56747800  0.87356800  0.73687300  1
  Zn  Zn1  1  0.12643200  0.43252200  0.76312700  1
  Zn  Zn2  1  0.43252200  0.12643200  0.26312700  1
  Zn  Zn3  1  0.87356800  0.56747800  0.23687300  1
  Co  Co0  1  0.35420500  0.64579500  0.75000000  1
  Co  Co1  1  0.64579500  0.35420500  0.25000000  1
  O  O0  1  0.81140100  0.04916200  0.42603300  1
  O  O1  1  0.95083800  0.18859900  0.07396700  1
  O  O2  1  0.18859900  0.95083800  0.57396700  1
  O  O3  1  0.04916200  0.81140100  0.92603300  1
  O  O4  1  0.56608400  0.31991900  0.91335000  1
  O  O5  1  0.68008100  0.43391600  0.58665000  1
  O  O6  1  0.43391600  0.68008100  0.08665000  1
  O  O7  1  0.31991900  0.56608400  0.41335000  1
  O  O8  1  0.71534300  0.92686000  0.06282400  1
  O  O9  1  0.07314000  0.28465700  0.43717600  1
  O  O10  1  0.15981600  0.45359400  0.13546400  1
  O  O11  1  0.54640600  0.84018400  0.36453600  1
  O  O12  1  0.84018400  0.54640600  0.86453600  1
  O  O13  1  0.45359400  0.15981600  0.63546400  1
  O  O14  1  0.92686000  0.71534300  0.56282400  1
  O  O15  1  0.28465700  0.07314000  0.93717600  1
loop_
_geom_bond_atom_site_label_1
_geom_bond_atom_site_label_2
_geom_bond_distance
_geom_bond_site_symmetry_2
Nb0 O4 1.857948 1_555
Nb0 O0 2.007037 1_555
Nb0 O13 2.030533 1_555
Nb0 O8 2.033149 1_546
Nb0 O3 2.072862 1_645
Nb0 O14 2.308814 1_545
Nb1 O5 1.857948 1_555
Nb1 O1 2.007037 1_556
Nb1 O12 2.030533 1_555
Nb1 O9 2.033149 1_655
Nb1 O2 2.072862 1_645
Nb1 O15 2.308814 1_655
Nb2 O6 1.857948 1_555
Nb2 O2 2.007037 1_555
Nb2 O11 2.030533 1_555
Nb2 O15 2.033149 1_564
Nb2 O1 2.072862 1_465
Nb2 O9 2.308814 1_565
Nb3 O7 1.857948 1_555
Nb3 O3 2.007037 1_554
Nb3 O10 2.030533 1_555
Nb3 O14 2.033149 1_455
Nb3 O0 2.072862 1_465
Nb3 O8 2.308814 1_455
Co0 O7 2.103582 1_555
Co0 O6 2.103582 1_556
Co0 O4 2.127292 1_555
Co0 O5 2.127292 1_555
Co0 O2 2.155601 1_555
Co0 O3 2.155601 1_555
Co1 O4 2.103582 1_554
Co1 O5 2.103582 1_555
Co1 O7 2.127292 1_555
Co1 O6 2.127292 1_555
Co1 O1 2.155601 1_555
Co1 O0 2.155601 1_555
O8 Zn2 1.957130 1_565
O9 Zn3 1.957130 1_455
O10 Zn2 1.981787 1_555
O10 Zn1 2.040386 1_554
O10 Zn3 2.119111 1_455
O11 Zn3 1.981787 1_555
O11 Zn0 2.040386 1_555
O11 Zn2 2.119111 1_565
O12 Zn0 1.981787 1_555
O12 Zn3 2.040386 1_556
O12 Zn1 2.119111 1_655
O13 Zn1 1.981787 1_555
O13 Zn2 2.040386 1_555
O13 Zn0 2.119111 1_545
O14 Zn1 1.957130 1_655
O15 Zn0 1.957130 1_545
