# generated using pymatgen
data_Er2GeRh3
_symmetry_space_group_name_H-M   'P 1'
_cell_length_a   5.04543172
_cell_length_b   5.04543172
_cell_length_c   5.04543060
_cell_angle_alpha   66.64412461
_cell_angle_beta   66.64412461
_cell_angle_gamma   66.64413285
_symmetry_Int_Tables_number   1
_chemical_formula_structural   Er2GeRh3
_chemical_formula_sum   'Er2 Ge1 Rh3'
_cell_volume   103.79836488
_cell_formula_units_Z   1
loop_
 _symmetry_equiv_pos_site_id
 _symmetry_equiv_pos_as_xyz
  1  'x, y, z'
loop_
 _atom_site_type_symbol
 _atom_site_label
 _atom_site_symmetry_multiplicity
 _atom_site_fract_x
 _atom_site_fract_y
 _atom_site_fract_z
 _atom_site_occupancy
  Er  Er0  1  0.62979562  0.62979562  0.62979562  1
  Er  Er1  1  0.37020438  0.37020438  0.37020438  1
  Ge  Ge0  1  0.00000000  0.00000000  -0.00000000  1
  Rh  Rh0  1  0.00000000  0.00000000  0.50000000  1
  Rh  Rh1  1  0.50000000  0.00000000  -0.00000000  1
  Rh  Rh2  1  0.00000000  0.50000000  -0.00000000  1
loop_
_geom_bond_atom_site_label_1
_geom_bond_atom_site_label_2
_geom_bond_distance
_geom_bond_site_symmetry_2
Er0 Rh1 2.869327 1_566
Er0 Rh2 2.869327 1_656
Er0 Rh0 2.869327 1_665
Er0 Rh2 3.160523 1_655
Er0 Rh1 3.160523 1_565
Er0 Rh2 3.160523 1_556
Er0 Rh1 3.160523 1_556
Er0 Rh0 3.160523 1_655
Er0 Rh0 3.160523 1_565
Er0 Ge0 3.229410 1_665
Er0 Ge0 3.229411 1_566
Er0 Ge0 3.229411 1_656
Er1 Rh1 2.869327 1_555
Er1 Rh2 2.869327 1_555
Er1 Rh0 2.869327 1_555
Er1 Rh2 3.160523 1_556
Er1 Rh1 3.160523 1_556
Er1 Rh2 3.160523 1_655
Er1 Rh1 3.160523 1_565
Er1 Rh0 3.160523 1_655
Er1 Rh0 3.160523 1_565
Er1 Ge0 3.229410 1_556
Er1 Ge0 3.229411 1_565
Er1 Ge0 3.229411 1_655
Ge0 Rh0 2.522715 1_554
Ge0 Rh0 2.522715 1_555
Ge0 Rh2 2.522716 1_545
Ge0 Rh2 2.522716 1_555
Ge0 Rh1 2.522716 1_455
Ge0 Rh1 2.522716 1_555
Rh0 Rh1 2.771680 1_555
Rh0 Rh2 2.771680 1_546
Rh0 Rh1 2.771680 1_456
Rh0 Rh2 2.771680 1_555
Rh1 Rh2 2.771681 1_555
Rh1 Rh2 2.771681 1_645
