# generated using pymatgen
data_ZrAlCu
_symmetry_space_group_name_H-M   'P 1'
_cell_length_a   5.14697708
_cell_length_b   5.14482571
_cell_length_c   5.14595524
_cell_angle_alpha   119.81773557
_cell_angle_beta   118.74870733
_cell_angle_gamma   91.22821558
_symmetry_Int_Tables_number   1
_chemical_formula_structural   ZrAlCu
_chemical_formula_sum   'Zr2 Al2 Cu2'
_cell_volume   97.38109492
_cell_formula_units_Z   2
loop_
 _symmetry_equiv_pos_site_id
 _symmetry_equiv_pos_as_xyz
  1  'x, y, z'
loop_
 _atom_site_type_symbol
 _atom_site_label
 _atom_site_symmetry_multiplicity
 _atom_site_fract_x
 _atom_site_fract_y
 _atom_site_fract_z
 _atom_site_occupancy
  Zr  Zr0  1  0.87502842  0.62495710  0.25005668  1
  Zr  Zr1  1  0.12497158  0.37504290  0.74994332  1
  Al  Al0  1  0.00000000  0.00000000  0.00000000  1
  Al  Al1  1  0.50000000  -0.00000000  0.50000000  1
  Cu  Cu0  1  0.50000000  0.00000000  -0.00000000  1
  Cu  Cu1  1  0.50000000  0.50000000  0.50000000  1
loop_
_geom_bond_atom_site_label_1
_geom_bond_atom_site_label_2
_geom_bond_distance
_geom_bond_site_symmetry_2
Zr0 Zr1 3.145809 1_665
Zr0 Zr1 3.145835 1_654
Zr0 Zr1 3.178399 1_655
Zr0 Zr1 3.181098 1_554
Al0 Cu0 2.573489 1_555
Al0 Cu0 2.573489 1_455
Al0 Cu1 2.573870 1_555
Al0 Cu1 2.573870 1_444
Al0 Al1 2.621747 1_555
Al0 Al1 2.621747 1_454
Al0 Zr0 3.000800 1_445
Al0 Zr1 3.000800 1_554
Al0 Zr0 3.029514 1_455
Al0 Zr1 3.029514 1_544
Al0 Zr1 3.030459 1_555
Al0 Zr0 3.030459 1_444
Al1 Cu1 2.572413 1_555
Al1 Cu1 2.572413 1_545
Al1 Cu0 2.572978 1_555
Al1 Cu0 2.572978 1_556
Al1 Zr0 3.001772 1_445
Al1 Zr1 3.001772 1_655
Al1 Zr0 3.030364 1_545
Al1 Zr1 3.030364 1_555
Al1 Zr1 3.031025 1_544
Al1 Zr0 3.031025 1_556
Cu0 Cu1 2.579780 1_555
Cu0 Cu1 2.579780 1_544
Cu0 Zr1 2.991644 1_544
Cu0 Zr0 2.991644 1_555
Cu0 Zr1 3.056857 1_554
Cu0 Zr0 3.056857 1_545
Cu0 Zr1 3.057907 1_655
Cu0 Zr0 3.057907 1_444
Cu1 Zr1 2.991794 1_555
Cu1 Zr0 2.991794 1_555
Cu1 Zr0 3.057117 1_455
Cu1 Zr1 3.057117 1_655
Cu1 Zr0 3.057661 1_556
Cu1 Zr1 3.057661 1_554
