# generated using pymatgen
data_CaFe2CoO7
_symmetry_space_group_name_H-M   'P 1'
_cell_length_a   7.27592384
_cell_length_b   10.68434375
_cell_length_c   14.03030600
_cell_angle_alpha   90.00000000
_cell_angle_beta   90.00000000
_cell_angle_gamma   107.82550180
_symmetry_Int_Tables_number   1
_chemical_formula_structural   CaFe2CoO7
_chemical_formula_sum   'Ca8 Fe16 Co8 O56'
_cell_volume   1038.33382769
_cell_formula_units_Z   8
loop_
 _symmetry_equiv_pos_site_id
 _symmetry_equiv_pos_as_xyz
  1  'x, y, z'
loop_
 _atom_site_type_symbol
 _atom_site_label
 _atom_site_symmetry_multiplicity
 _atom_site_fract_x
 _atom_site_fract_y
 _atom_site_fract_z
 _atom_site_occupancy
  Ca  Ca0  1  0.08041700  0.76891300  0.50387700  1
  Ca  Ca1  1  0.32176300  0.96177900  0.87623500  1
  Ca  Ca2  1  0.67823700  0.53822100  0.37623500  1
  Ca  Ca3  1  0.67823700  0.03822100  0.12376500  1
  Ca  Ca4  1  0.32176300  0.46177900  0.62376500  1
  Ca  Ca5  1  0.08041700  0.26891300  0.99612300  1
  Ca  Ca6  1  0.91958300  0.23108700  0.49612300  1
  Ca  Ca7  1  0.91958300  0.73108700  0.00387700  1
  Fe  Fe0  1  0.82547800  0.96774500  0.86637500  1
  Fe  Fe1  1  0.41123500  0.68061100  0.01270300  1
  Fe  Fe2  1  0.41123500  0.18061100  0.48729700  1
  Fe  Fe3  1  0.58876500  0.31938900  0.98729700  1
  Fe  Fe4  1  0.47149800  0.77261400  0.71527200  1
  Fe  Fe5  1  0.52850200  0.72738600  0.21527200  1
  Fe  Fe6  1  0.52850200  0.22738600  0.28472800  1
  Fe  Fe7  1  0.47149800  0.27261400  0.78472800  1
  Fe  Fe8  1  0.58876500  0.81938900  0.51270300  1
  Fe  Fe9  1  0.85871000  0.43344400  0.15759600  1
  Fe  Fe10  1  0.14129000  0.06655600  0.65759600  1
  Fe  Fe11  1  0.14129000  0.56655600  0.84240400  1
  Fe  Fe12  1  0.17452200  0.53225500  0.36637500  1
  Fe  Fe13  1  0.82547800  0.46774500  0.63362500  1
  Fe  Fe14  1  0.17452200  0.03225500  0.13362500  1
  Fe  Fe15  1  0.85871000  0.93344400  0.34240400  1
  Co  Co0  1  0.62020600  0.07407800  0.68164300  1
  Co  Co1  1  0.37979400  0.42592200  0.18164300  1
  Co  Co2  1  0.37979400  0.92592200  0.31835700  1
  Co  Co3  1  0.62020600  0.57407800  0.81835700  1
  Co  Co4  1  0.97641500  0.25131700  0.75497100  1
  Co  Co5  1  0.02358500  0.24868300  0.25497100  1
  Co  Co6  1  0.02358500  0.74868300  0.24502900  1
  Co  Co7  1  0.97641500  0.75131700  0.74502900  1
  O  O0  1  0.78948200  0.94220100  0.99282400  1
  O  O1  1  0.21051800  0.55779900  0.49282400  1
  O  O2  1  0.21051800  0.05779900  0.00717600  1
  O  O3  1  0.78948200  0.44220100  0.50717600  1
  O  O4  1  0.99267100  0.86814100  0.84848700  1
  O  O5  1  0.00732900  0.63185900  0.34848700  1
  O  O6  1  0.00732900  0.13185900  0.15151300  1
  O  O7  1  0.99267100  0.36814100  0.65151300  1
  O  O8  1  0.98672700  0.13862200  0.85469600  1
  O  O9  1  0.01327300  0.36137800  0.35469600  1
  O  O10  1  0.01327300  0.86137800  0.14530400  1
  O  O11  1  0.98672700  0.63862200  0.64530400  1
  O  O12  1  0.62179200  0.91888200  0.27285700  1
  O  O13  1  0.37820800  0.58111800  0.77285700  1
  O  O14  1  0.37820800  0.08111800  0.72714300  1
  O  O15  1  0.62179200  0.41888200  0.22714300  1
  O  O16  1  0.96629600  0.12308300  0.34265700  1
  O  O17  1  0.03370400  0.37691700  0.84265700  1
  O  O18  1  0.03370400  0.87691700  0.65734300  1
  O  O19  1  0.96629600  0.62308300  0.15734300  1
  O  O20  1  0.10235300  0.89209500  0.33832600  1
  O  O21  1  0.38605000  0.82919700  0.42346400  1
  O  O22  1  0.89764700  0.60790500  0.83832600  1
  O  O23  1  0.10235300  0.39209500  0.16167400  1
  O  O24  1  0.72297100  0.70732200  0.48384600  1
  O  O25  1  0.27702900  0.79267800  0.98384600  1
  O  O26  1  0.27702900  0.29267800  0.51615400  1
  O  O27  1  0.72297100  0.20732200  0.01615400  1
  O  O28  1  0.79234700  0.95420400  0.47077300  1
  O  O29  1  0.20765200  0.54579600  0.97077300  1
  O  O30  1  0.20765200  0.04579600  0.52922700  1
  O  O31  1  0.79234700  0.45420400  0.02922700  1
  O  O32  1  0.41707300  0.18721500  0.90969100  1
  O  O33  1  0.58292700  0.31278500  0.40969100  1
  O  O34  1  0.58292700  0.81278500  0.09030900  1
  O  O35  1  0.41707300  0.68721500  0.59030900  1
  O  O36  1  0.71117700  0.21547000  0.76362200  1
  O  O37  1  0.28882300  0.28453000  0.26362200  1
  O  O38  1  0.28882300  0.78453000  0.23637800  1
  O  O39  1  0.71117700  0.71547000  0.73637800  1
  O  O40  1  0.60160000  0.44340900  0.70957300  1
  O  O41  1  0.39840000  0.05659100  0.20957300  1
  O  O42  1  0.39840000  0.55659100  0.29042700  1
  O  O43  1  0.60160000  0.94340900  0.79042700  1
  O  O44  1  0.22322300  0.25671000  0.71879600  1
  O  O45  1  0.77677700  0.24329000  0.21879600  1
  O  O46  1  0.77677700  0.74329000  0.28120400  1
  O  O47  1  0.22322300  0.75671000  0.78120400  1
  O  O48  1  0.52604500  0.41516500  0.88024900  1
  O  O49  1  0.47395500  0.08483500  0.38024900  1
  O  O50  1  0.47395500  0.58483500  0.11975100  1
  O  O51  1  0.52604500  0.91516500  0.61975100  1
  O  O52  1  0.38605000  0.32919700  0.07653600  1
  O  O53  1  0.61395000  0.17080300  0.57653600  1
  O  O54  1  0.61395000  0.67080300  0.92346400  1
  O  O55  1  0.89764700  0.10790500  0.66167400  1
loop_
_geom_bond_atom_site_label_1
_geom_bond_atom_site_label_2
_geom_bond_distance
_geom_bond_site_symmetry_2
Ca0 O21 2.399154 1_555
Ca0 O11 2.399766 1_455
Ca0 O24 2.495619 1_455
Ca0 O18 2.514639 1_555
Ca0 O5 2.589101 1_555
Ca0 O20 2.650305 1_555
Ca0 O1 2.704652 1_555
Ca0 O30 2.838735 1_565
Ca1 O25 2.299942 1_555
Ca1 O4 2.327922 1_455
Ca1 O32 2.340968 1_565
Ca1 O2 2.364555 1_566
Ca1 O14 2.418573 1_565
Ca1 O43 2.424497 1_555
Ca1 O47 2.476007 1_555
Ca2 O24 2.299942 1_555
Ca2 O5 2.327922 1_655
Ca2 O33 2.340968 1_555
Ca2 O3 2.364555 1_555
Ca2 O15 2.418573 1_555
Ca2 O42 2.424497 1_555
Ca2 O46 2.476007 1_555
Ca3 O27 2.299942 1_555
Ca3 O6 2.327922 1_655
Ca3 O34 2.340968 1_545
Ca3 O0 2.364555 1_544
Ca3 O12 2.418573 1_545
Ca3 O41 2.424497 1_555
Ca3 O45 2.476007 1_555
Ca4 O26 2.299942 1_555
Ca4 O7 2.327922 1_455
Ca4 O35 2.340968 1_555
Ca4 O1 2.364555 1_555
Ca4 O13 2.418573 1_555
Ca4 O40 2.424497 1_555
Ca4 O44 2.476007 1_555
Ca5 O52 2.399154 1_556
Ca5 O8 2.399766 1_455
Ca5 O27 2.495619 1_456
Ca5 O17 2.514639 1_555
Ca5 O6 2.589101 1_556
Ca5 O23 2.650305 1_556
Ca5 O2 2.704652 1_556
Ca5 O29 2.838735 1_555
Ca6 O53 2.399154 1_555
Ca6 O9 2.399766 1_655
Ca6 O26 2.495619 1_655
Ca6 O16 2.514639 1_555
Ca6 O7 2.589101 1_555
Ca6 O55 2.650305 1_555
Ca6 O3 2.704652 1_555
Ca6 O28 2.838735 1_545
Ca7 O54 2.399154 1_554
Ca7 O10 2.399766 1_655
Ca7 O25 2.495619 1_654
Ca7 O19 2.514639 1_555
Ca7 O4 2.589101 1_554
Ca7 O22 2.650305 1_554
Ca7 O0 2.704652 1_554
Ca7 O31 2.838735 1_555
Fe0 O0 1.801891 1_555
Fe0 O8 1.850713 1_565
Fe0 O4 1.862242 1_555
Fe0 O43 1.896609 1_555
Fe1 O25 1.807463 1_554
Fe1 O29 1.818984 1_554
Fe1 O34 1.913198 1_555
Fe1 O50 1.948604 1_555
Fe1 O54 1.961807 1_554
Fe2 O26 1.807463 1_555
Fe2 O30 1.818984 1_555
Fe2 O33 1.913198 1_555
Fe2 O49 1.948604 1_555
Fe2 O53 1.961807 1_555
Fe3 O27 1.807463 1_556
Fe3 O31 1.818980 1_556
Fe3 O32 1.913198 1_555
Fe3 O48 1.948604 1_555
Fe3 O52 1.961807 1_556
Fe4 O35 1.960123 1_555
Fe4 O51 1.975667 1_555
Fe4 O47 1.989936 1_555
Fe4 O39 2.038004 1_555
Fe4 O43 2.068904 1_555
Fe4 O13 2.109356 1_555
Fe5 O34 1.960123 1_555
Fe5 O50 1.975667 1_555
Fe5 O46 1.989936 1_555
Fe5 O38 2.038004 1_555
Fe5 O42 2.068904 1_555
Fe5 O12 2.109356 1_555
Fe6 O33 1.960123 1_555
Fe6 O49 1.975667 1_555
Fe6 O45 1.989936 1_555
Fe6 O37 2.038004 1_555
Fe6 O41 2.068904 1_555
Fe6 O15 2.109356 1_555
Fe7 O32 1.960123 1_555
Fe7 O48 1.975667 1_555
Fe7 O44 1.989936 1_555
Fe7 O36 2.038004 1_555
Fe7 O40 2.068904 1_555
Fe7 O14 2.109356 1_555
Fe8 O24 1.807463 1_555
Fe8 O28 1.818980 1_555
Fe8 O35 1.913198 1_555
Fe8 O51 1.948604 1_555
Fe8 O21 1.961807 1_555
Fe9 O31 1.895183 1_555
Fe9 O19 1.935738 1_555
Fe9 O15 1.945148 1_555
Fe9 O23 1.954610 1_655
Fe9 O45 2.116327 1_555
Fe10 O30 1.895181 1_555
Fe10 O18 1.935738 1_545
Fe10 O14 1.945148 1_555
Fe10 O55 1.954610 1_455
Fe10 O44 2.116327 1_555
Fe11 O29 1.895181 1_555
Fe11 O17 1.935738 1_555
Fe11 O13 1.945148 1_555
Fe11 O22 1.954610 1_455
Fe11 O47 2.116327 1_555
Fe12 O1 1.801891 1_555
Fe12 O9 1.850713 1_555
Fe12 O5 1.862242 1_555
Fe12 O42 1.896609 1_555
Fe13 O3 1.801891 1_555
Fe13 O11 1.850713 1_555
Fe13 O7 1.862242 1_555
Fe13 O40 1.896609 1_555
Fe14 O2 1.801891 1_555
Fe14 O10 1.850713 1_545
Fe14 O6 1.862242 1_555
Fe14 O41 1.896609 1_555
Fe15 O28 1.895183 1_555
Fe15 O16 1.935738 1_565
Fe15 O12 1.945148 1_555
Fe15 O20 1.954610 1_655
Fe15 O46 2.116327 1_555
Co0 O53 1.809300 1_555
Co0 O51 1.842296 1_545
Co0 O36 1.852300 1_555
Co0 O14 1.895928 1_555
Co0 O55 1.958916 1_555
Co0 O43 2.044811 1_545
Co1 O52 1.809300 1_555
Co1 O50 1.842296 1_555
Co1 O37 1.852300 1_555
Co1 O15 1.895928 1_555
Co1 O23 1.958916 1_555
Co1 O42 2.044811 1_555
Co2 O21 1.809300 1_555
Co2 O49 1.842296 1_565
Co2 O38 1.852300 1_555
Co2 O12 1.895928 1_555
Co2 O20 1.958916 1_555
Co2 O41 2.044811 1_565
Co3 O54 1.809300 1_555
Co3 O48 1.842296 1_555
Co3 O39 1.852300 1_555
Co3 O13 1.895928 1_555
Co3 O22 1.958916 1_555
Co3 O40 2.044811 1_555
Co4 O17 1.773602 1_655
Co4 O44 1.849950 1_655
Co4 O36 1.852896 1_555
Co4 O8 1.862367 1_555
Co4 O7 1.894351 1_555
Co4 O55 1.962674 1_555
Co5 O16 1.773602 1_455
Co5 O45 1.849950 1_455
Co5 O37 1.852896 1_555
Co5 O9 1.862367 1_555
Co5 O6 1.894351 1_555
Co5 O23 1.962674 1_555
Co6 O19 1.773602 1_455
Co6 O46 1.849950 1_455
Co6 O38 1.852896 1_555
Co6 O10 1.862367 1_555
Co6 O5 1.894351 1_555
Co6 O20 1.962674 1_555
Co7 O18 1.773602 1_655
Co7 O47 1.849950 1_655
Co7 O39 1.852896 1_555
Co7 O11 1.862367 1_555
Co7 O4 1.894351 1_555
Co7 O22 1.962674 1_555
