# generated using pymatgen
data_Nd5Mg
_symmetry_space_group_name_H-M   'P 1'
_cell_length_a   6.77681688
_cell_length_b   6.77681688
_cell_length_c   6.77681718
_cell_angle_alpha   55.74834497
_cell_angle_beta   55.74833657
_cell_angle_gamma   55.74834634
_symmetry_Int_Tables_number   1
_chemical_formula_structural   Nd5Mg
_chemical_formula_sum   'Nd5 Mg1'
_cell_volume   198.36974740
_cell_formula_units_Z   1
loop_
 _symmetry_equiv_pos_site_id
 _symmetry_equiv_pos_as_xyz
  1  'x, y, z'
loop_
 _atom_site_type_symbol
 _atom_site_label
 _atom_site_symmetry_multiplicity
 _atom_site_fract_x
 _atom_site_fract_y
 _atom_site_fract_z
 _atom_site_occupancy
  Nd  Nd0  1  0.62114818  0.37885182  0.00000000  1
  Nd  Nd1  1  -0.00000000  0.62114818  0.37885182  1
  Nd  Nd2  1  0.37885182  -0.00000000  0.62114818  1
  Nd  Nd3  1  0.15502896  0.15502896  0.15502896  1
  Nd  Nd4  1  0.84497104  0.84497104  0.84497104  1
  Mg  Mg0  1  0.50000000  0.50000000  0.50000000  1
loop_
_geom_bond_atom_site_label_1
_geom_bond_atom_site_label_2
_geom_bond_distance
_geom_bond_site_symmetry_2
Nd0 Nd1 3.436076 1_654
Nd0 Nd1 3.436076 1_555
Nd0 Nd2 3.436076 1_555
Nd0 Nd2 3.436077 1_564
Nd0 Nd4 3.577988 1_544
Nd0 Nd3 3.577988 1_655
Nd0 Nd3 3.639561 1_555
Nd0 Nd4 3.639561 1_554
Nd1 Nd2 3.436076 1_465
Nd1 Nd2 3.436077 1_555
Nd1 Nd3 3.577988 1_565
Nd1 Nd4 3.577988 1_454
Nd1 Nd3 3.639561 1_555
Nd1 Nd4 3.639561 1_455
Nd2 Nd4 3.577987 1_445
Nd2 Nd3 3.577988 1_556
Nd2 Nd4 3.639561 1_545
Nd2 Nd3 3.639562 1_555
Nd3 Nd4 3.680143 1_544
Nd3 Nd4 3.680143 1_445
Nd3 Nd4 3.680143 1_454
Mg0 Nd1 3.474284 1_655
Mg0 Nd2 3.474284 1_555
Mg0 Nd2 3.474285 1_565
Mg0 Nd0 3.474285 1_555
Mg0 Nd1 3.474285 1_555
Mg0 Nd0 3.474285 1_556
Mg0 Nd4 3.663940 1_554
Mg0 Nd3 3.663940 1_556
Mg0 Nd4 3.663940 1_455
Mg0 Nd3 3.663940 1_655
Mg0 Nd4 3.663941 1_545
Mg0 Nd3 3.663941 1_565
