# generated using pymatgen
data_AlFeO3
_symmetry_space_group_name_H-M   'P 1'
_cell_length_a   4.97475343
_cell_length_b   4.99971735
_cell_length_c   7.94540137
_cell_angle_alpha   88.65856987
_cell_angle_beta   90.34331471
_cell_angle_gamma   90.39421631
_symmetry_Int_Tables_number   1
_chemical_formula_structural   AlFeO3
_chemical_formula_sum   'Al4 Fe4 O12'
_cell_volume   197.55869509
_cell_formula_units_Z   4
loop_
 _symmetry_equiv_pos_site_id
 _symmetry_equiv_pos_as_xyz
  1  'x, y, z'
loop_
 _atom_site_type_symbol
 _atom_site_label
 _atom_site_symmetry_multiplicity
 _atom_site_fract_x
 _atom_site_fract_y
 _atom_site_fract_z
 _atom_site_occupancy
  Al  Al0  1  0.98091320  0.99358397  0.74473136  1
  Al  Al1  1  0.48746293  0.51029751  0.24100701  1
  Al  Al2  1  0.51282705  0.49026249  0.75790742  1
  Al  Al3  1  0.01877682  0.00693810  0.25419340  1
  Fe  Fe0  1  0.99996765  0.50063777  0.49964882  1
  Fe  Fe1  1  0.49959227  0.00040682  0.49969187  1
  Fe  Fe2  1  0.50003676  0.99962461  -0.00009320  1
  Fe  Fe3  1  -0.00011249  0.49962760  0.99968548  1
  O  O0  1  0.66302350  0.33907693  0.41334700  1
  O  O1  1  0.15495447  0.16790236  0.57299481  1
  O  O2  1  0.84098608  0.82910515  0.09305006  1
  O  O3  1  0.34468281  0.66543535  0.92312539  1
  O  O4  1  0.33620018  0.66284071  0.58708138  1
  O  O5  1  0.84624541  0.83486875  0.42767439  1
  O  O6  1  0.15786512  0.16697295  0.90823371  1
  O  O7  1  0.65671704  0.33163088  0.07775649  1
  O  O8  1  0.15054641  0.35376517  0.23962617  1
  O  O9  1  0.64109714  0.14132936  0.74641841  1
  O  O10  1  0.35872198  0.85915604  0.25347974  1
  O  O11  1  0.84949766  0.64653747  0.76044128  1
loop_
_geom_bond_atom_site_label_1
_geom_bond_atom_site_label_2
_geom_bond_distance
_geom_bond_site_symmetry_2
Al0 O6 1.800718 1_665
Al0 O1 1.821871 1_665
Al0 O9 1.849743 1_565
Al0 O11 1.851729 1_555
Al1 O7 1.807497 1_555
Al1 O0 1.819805 1_555
Al1 O8 1.844986 1_555
Al1 O10 1.867201 1_555
Al2 O3 1.807500 1_555
Al2 O4 1.816614 1_555
Al2 O11 1.843459 1_555
Al2 O9 1.866148 1_555
Al3 O2 1.800278 1_445
Al3 O5 1.823516 1_445
Al3 O10 1.850251 1_545
Al3 O8 1.850908 1_555
Fe0 O1 1.915325 1_655
Fe0 O5 1.916217 1_555
Fe0 O0 1.981384 1_555
Fe0 O4 1.982898 1_655
Fe0 O8 2.337906 1_655
Fe0 O11 2.341561 1_555
Fe1 O4 1.980981 1_545
Fe1 O0 1.982962 1_555
Fe1 O1 2.008615 1_555
Fe1 O5 2.009976 1_545
Fe1 O10 2.204139 1_545
Fe1 O9 2.208215 1_555
Fe2 O7 1.941654 1_565
Fe2 O3 1.945640 1_554
Fe2 O6 2.025920 1_564
Fe2 O2 2.031436 1_555
Fe2 O10 2.233954 1_555
Fe2 O9 2.234758 1_564
Fe3 O3 1.992170 1_555
Fe3 O2 1.992716 1_456
Fe3 O7 1.993321 1_456
Fe3 O6 1.998298 1_555
Fe3 O11 2.153548 1_455
Fe3 O8 2.157159 1_556
