# generated using pymatgen
data_Sm2In3Cu
_symmetry_space_group_name_H-M   'P 1'
_cell_length_a   4.75247691
_cell_length_b   4.75247691
_cell_length_c   7.59013300
_cell_angle_alpha   90.00000000
_cell_angle_beta   90.00000000
_cell_angle_gamma   120.00001270
_symmetry_Int_Tables_number   1
_chemical_formula_structural   Sm2In3Cu
_chemical_formula_sum   'Sm2 In3 Cu1'
_cell_volume   148.46360214
_cell_formula_units_Z   1
loop_
 _symmetry_equiv_pos_site_id
 _symmetry_equiv_pos_as_xyz
  1  'x, y, z'
loop_
 _atom_site_type_symbol
 _atom_site_label
 _atom_site_symmetry_multiplicity
 _atom_site_fract_x
 _atom_site_fract_y
 _atom_site_fract_z
 _atom_site_occupancy
  Sm  Sm0  1  0.33333300  0.66666700  0.72417300  1
  Sm  Sm1  1  0.33333300  0.66666700  0.26354200  1
  In  In0  1  0.00000000  0.00000000  0.48415500  1
  In  In1  1  0.00000000  0.00000000  0.05117900  1
  In  In2  1  0.66666700  0.33333300  0.93540700  1
  Cu  Cu0  1  0.66666700  0.33333300  0.54154400  1
loop_
_geom_bond_atom_site_label_1
_geom_bond_atom_site_label_2
_geom_bond_distance
_geom_bond_site_symmetry_2
In0 Sm1 3.214429 1_545
In0 Sm1 3.214432 1_555
In0 Sm1 3.214432 1_445
In0 In1 3.286345 1_555
In0 Sm0 3.293555 1_545
In0 Sm0 3.293558 1_555
In0 Sm0 3.293558 1_445
In1 In2 2.881115 1_454
In1 In2 2.881118 1_444
In1 In2 2.881118 1_554
In1 Sm1 3.182258 1_545
In1 Sm1 3.182261 1_445
In1 Sm1 3.182261 1_555
In1 Sm0 3.699876 1_544
In1 Sm0 3.699879 1_444
In1 Sm0 3.699879 1_554
In2 Sm0 3.177926 1_655
In2 Sm0 3.177926 1_545
In2 Sm0 3.177934 1_555
In2 Sm1 3.705630 1_656
In2 Sm1 3.705630 1_546
In2 Sm1 3.705636 1_556
Cu0 In0 2.778202 1_655
Cu0 In0 2.778205 1_555
Cu0 In0 2.778205 1_665
Cu0 In2 2.989473 1_555
Cu0 Sm0 3.074110 1_655
Cu0 Sm0 3.074110 1_545
Cu0 Sm0 3.074118 1_555
Cu0 Sm1 3.461368 1_545
Cu0 Sm1 3.461368 1_655
Cu0 Sm1 3.461375 1_555
