# generated using pymatgen
data_La2Co7
_symmetry_space_group_name_H-M   'P 1'
_cell_length_a   5.03141370
_cell_length_b   5.03141400
_cell_length_c   12.71403454
_cell_angle_alpha   78.58765742
_cell_angle_beta   78.58765765
_cell_angle_gamma   59.99999806
_symmetry_Int_Tables_number   1
_chemical_formula_structural   La2Co7
_chemical_formula_sum   'La4 Co14'
_cell_volume   271.36376165
_cell_formula_units_Z   2
loop_
 _symmetry_equiv_pos_site_id
 _symmetry_equiv_pos_as_xyz
  1  'x, y, z'
loop_
 _atom_site_type_symbol
 _atom_site_label
 _atom_site_symmetry_multiplicity
 _atom_site_fract_x
 _atom_site_fract_y
 _atom_site_fract_z
 _atom_site_occupancy
  La  La0  1  0.94832200  0.94832200  0.15503500  1
  La  La1  1  0.05167800  0.05167800  0.84496500  1
  La  La2  1  0.85155600  0.85155600  0.44533100  1
  La  La3  1  0.14844400  0.14844400  0.55466900  1
  Co  Co0  1  0.50000000  0.50000000  0.50000000  1
  Co  Co1  1  0.72162800  0.72162800  0.83511600  1
  Co  Co2  1  0.27837200  0.27837200  0.16488400  1
  Co  Co3  1  0.61266400  0.61266400  0.16200700  1
  Co  Co4  1  0.38733600  0.38733600  0.83799300  1
  Co  Co5  1  0.00000000  0.50000000  0.00000000  1
  Co  Co6  1  0.50000000  0.00000000  0.00000000  1
  Co  Co7  1  0.50000000  0.50000000  0.00000000  1
  Co  Co8  1  0.39407200  0.39407200  0.32197600  1
  Co  Co9  1  0.88988000  0.39407200  0.32197600  1
  Co  Co10  1  0.39407200  0.88988000  0.32197600  1
  Co  Co11  1  0.60592800  0.60592800  0.67802400  1
  Co  Co12  1  0.11012000  0.60592800  0.67802400  1
  Co  Co13  1  0.60592800  0.11012000  0.67802400  1
loop_
_geom_bond_atom_site_label_1
_geom_bond_atom_site_label_2
_geom_bond_distance
_geom_bond_site_symmetry_2
La0 La2 3.593207 1_555
La1 La3 3.593207 1_555
La2 La3 3.204673 1_565
La2 La3 3.204674 1_655
La2 La3 3.204681 1_665
Co0 Co12 2.632476 1_555
Co0 Co9 2.632476 1_555
Co0 Co13 2.632476 1_555
Co0 Co11 2.632476 1_555
Co0 Co8 2.632476 1_555
Co0 Co10 2.632476 1_555
Co0 La2 2.982659 1_555
Co0 La3 2.982659 1_555
Co0 La3 2.982663 1_655
Co0 La2 2.982663 1_455
Co0 La3 2.982663 1_565
Co0 La2 2.982663 1_545
Co1 Co12 2.434332 1_655
Co1 Co11 2.434332 1_555
Co1 Co13 2.434332 1_565
Co1 Co5 2.504960 1_656
Co1 Co7 2.504960 1_556
Co1 Co6 2.504960 1_566
Co1 Co4 2.905104 1_555
Co1 Co4 2.905108 1_655
Co1 Co4 2.905108 1_565
Co1 La1 2.907442 1_665
Co1 La1 2.907446 1_565
Co1 La1 2.907447 1_655
Co2 Co9 2.434332 1_455
Co2 Co8 2.434332 1_555
Co2 Co5 2.504960 1_555
Co2 Co6 2.504960 1_555
Co2 Co7 2.504960 1_555
Co2 Co3 2.905104 1_555
Co2 Co3 2.905108 1_455
Co2 Co3 2.905108 1_545
Co2 La0 2.907442 1_445
Co2 La0 2.907446 1_545
Co2 La0 2.907447 1_455
Co3 Co8 2.448463 1_555
Co3 Co9 2.448466 1_555
Co3 Co7 2.476031 1_555
Co3 Co5 2.476034 1_655
Co3 Co6 2.476034 1_565
Co3 La0 2.906167 1_455
Co3 La0 2.906167 1_545
Co3 La0 2.906176 1_555
Co4 Co7 2.476031 1_556
Co4 Co5 2.476034 1_556
Co4 Co6 2.476034 1_556
Co4 La1 2.906167 1_655
Co4 La1 2.906167 1_565
Co4 La1 2.906176 1_555
Co5 Co7 2.515707 1_455
Co5 Co7 2.515707 1_555
Co5 Co6 2.515707 1_465
Co5 Co6 2.515707 1_555
Co6 Co7 2.515707 1_555
Co6 Co7 2.515707 1_545
Co8 Co9 2.494615 1_555
Co8 Co9 2.536799 1_455
Co8 La2 2.942825 1_455
Co8 La2 2.942825 1_545
Co8 La3 3.231212 1_555
Co8 La0 3.255570 1_455
Co8 La0 3.255570 1_545
Co9 La2 2.942823 1_555
Co9 La2 2.942827 1_545
Co9 La3 3.231214 1_655
Co9 La0 3.255568 1_545
Co9 La0 3.255572 1_555
Co10 Co2 2.434332 1_565
Co10 Co3 2.448466 1_555
Co10 Co9 2.494615 1_555
Co10 Co8 2.494615 1_555
Co10 Co9 2.536799 1_465
Co10 Co8 2.536799 1_565
Co10 La2 2.942822 1_555
Co10 La2 2.942827 1_455
Co10 La3 3.231214 1_565
Co10 La0 3.255568 1_455
Co10 La0 3.255572 1_555
Co11 Co4 2.448463 1_555
Co11 Co12 2.494615 1_555
Co11 Co13 2.494615 1_555
Co11 Co12 2.536799 1_655
Co11 Co13 2.536799 1_565
Co11 La3 2.942825 1_655
Co11 La3 2.942825 1_565
Co11 La2 3.231212 1_555
Co11 La1 3.255570 1_655
Co11 La1 3.255570 1_565
Co12 Co4 2.448466 1_555
Co12 Co13 2.494615 1_555
Co12 Co13 2.536799 1_465
Co12 La3 2.942823 1_555
Co12 La3 2.942827 1_565
Co12 La2 3.231214 1_455
Co12 La1 3.255568 1_565
Co12 La1 3.255572 1_555
Co13 Co4 2.448466 1_555
Co13 La3 2.942822 1_555
Co13 La3 2.942827 1_655
Co13 La2 3.231214 1_545
Co13 La1 3.255568 1_655
Co13 La1 3.255572 1_555
