# generated using pymatgen
data_MnFe4Si3
_symmetry_space_group_name_H-M   'P 1'
_cell_length_a   6.71464926
_cell_length_b   6.71464926
_cell_length_c   4.68986900
_cell_angle_alpha   90.00000000
_cell_angle_beta   90.00000000
_cell_angle_gamma   119.43456849
_symmetry_Int_Tables_number   1
_chemical_formula_structural   MnFe4Si3
_chemical_formula_sum   'Mn2 Fe8 Si6'
_cell_volume   184.15536725
_cell_formula_units_Z   2
loop_
 _symmetry_equiv_pos_site_id
 _symmetry_equiv_pos_as_xyz
  1  'x, y, z'
loop_
 _atom_site_type_symbol
 _atom_site_label
 _atom_site_symmetry_multiplicity
 _atom_site_fract_x
 _atom_site_fract_y
 _atom_site_fract_z
 _atom_site_occupancy
  Mn  Mn0  1  0.00100000  0.22976600  0.00000000  1
  Mn  Mn1  1  0.22976600  0.00100000  0.00000000  1
  Fe  Fe0  1  0.33059300  0.66707100  0.24962300  1
  Fe  Fe1  1  0.66707100  0.33059300  0.24962300  1
  Fe  Fe2  1  0.66707100  0.33059300  0.75037700  1
  Fe  Fe3  1  0.33059300  0.66707100  0.75037700  1
  Fe  Fe4  1  0.76283100  0.76283100  0.00000000  1
  Fe  Fe5  1  0.99980200  0.76059300  0.50000000  1
  Fe  Fe6  1  0.76059300  0.99980200  0.50000000  1
  Fe  Fe7  1  0.24682100  0.24682100  0.50000000  1
  Si  Si0  1  0.99581200  0.59811000  0.00000000  1
  Si  Si1  1  0.59811000  0.99581200  0.00000000  1
  Si  Si2  1  0.40744400  0.40744400  0.00000000  1
  Si  Si3  1  0.00012000  0.39482700  0.50000000  1
  Si  Si4  1  0.39482700  0.00012000  0.50000000  1
  Si  Si5  1  0.60625200  0.60625200  0.50000000  1
loop_
_geom_bond_atom_site_label_1
_geom_bond_atom_site_label_2
_geom_bond_distance
_geom_bond_site_symmetry_2
Mn0 Si1 2.368405 1_445
Mn0 Si2 2.381457 1_555
Mn0 Si0 2.490605 1_455
Mn0 Si3 2.594914 1_554
Mn0 Si3 2.594914 1_555
Mn0 Mn1 2.652963 1_555
Mn1 Si0 2.368405 1_445
Mn1 Si2 2.381457 1_555
Mn1 Si1 2.490605 1_545
Mn1 Si4 2.594914 1_555
Mn1 Si4 2.594914 1_554
Fe0 Fe3 2.341398 1_554
Fe0 Fe3 2.348471 1_555
Fe0 Si2 2.357987 1_555
Fe0 Si1 2.360632 1_555
Fe0 Si0 2.369622 1_455
Fe0 Si4 2.370215 1_565
Fe0 Si3 2.378578 1_555
Fe0 Si5 2.390515 1_555
Fe0 Mn1 2.889364 1_565
Fe0 Mn0 2.916069 1_555
Fe1 Fe2 2.341398 1_554
Fe1 Fe2 2.348471 1_555
Fe1 Si2 2.357987 1_555
Fe1 Si0 2.360632 1_555
Fe1 Si1 2.369622 1_545
Fe1 Si3 2.370215 1_655
Fe1 Si4 2.378578 1_555
Fe1 Si5 2.390515 1_555
Fe1 Mn0 2.889364 1_655
Fe1 Mn1 2.916069 1_555
Fe2 Si2 2.357987 1_556
Fe2 Si0 2.360632 1_556
Fe2 Si1 2.369622 1_546
Fe2 Si3 2.370215 1_655
Fe2 Si4 2.378578 1_555
Fe2 Si5 2.390515 1_555
Fe2 Mn0 2.889364 1_656
Fe2 Mn1 2.916069 1_556
Fe3 Si2 2.357987 1_556
Fe3 Si1 2.360632 1_556
Fe3 Si0 2.369622 1_456
Fe3 Si4 2.370215 1_565
Fe3 Si3 2.378578 1_555
Fe3 Si5 2.390515 1_555
Fe3 Mn1 2.889364 1_566
Fe3 Mn0 2.916069 1_556
Fe4 Si1 2.317597 1_555
Fe4 Si0 2.317597 1_555
Fe4 Si2 2.406664 1_555
Fe4 Si5 2.573529 1_554
Fe4 Si5 2.573529 1_555
Fe4 Mn0 2.731217 1_665
Fe4 Mn1 2.731217 1_665
Fe5 Si5 2.316340 1_555
Fe5 Si4 2.330096 1_665
Fe5 Si3 2.457040 1_655
Fe5 Si0 2.580896 1_556
Fe5 Si0 2.580896 1_555
Fe5 Mn1 2.835307 1_666
Fe5 Mn1 2.835307 1_665
Fe6 Si5 2.316340 1_555
Fe6 Si3 2.330096 1_665
Fe6 Si4 2.457040 1_565
Fe6 Si1 2.580896 1_556
Fe6 Si1 2.580896 1_555
Fe6 Mn0 2.835307 1_666
Fe6 Mn0 2.835307 1_665
Fe7 Si4 2.312946 1_555
Fe7 Si3 2.312946 1_555
Fe7 Si5 2.434050 1_555
Fe7 Si2 2.584933 1_555
Fe7 Si2 2.584933 1_556
Fe7 Mn1 2.837346 1_556
Fe7 Mn1 2.837346 1_555
Fe7 Mn0 2.837346 1_555
Fe7 Mn0 2.837346 1_556
