# generated using pymatgen
data_MgCrP2O7
_symmetry_space_group_name_H-M   'P 1'
_cell_length_a   6.37229294
_cell_length_b   6.43040350
_cell_length_c   7.29398895
_cell_angle_alpha   70.12467083
_cell_angle_beta   74.90657639
_cell_angle_gamma   81.44334378
_symmetry_Int_Tables_number   1
_chemical_formula_structural   MgCrP2O7
_chemical_formula_sum   'Mg2 Cr2 P4 O14'
_cell_volume   270.78371305
_cell_formula_units_Z   2
loop_
 _symmetry_equiv_pos_site_id
 _symmetry_equiv_pos_as_xyz
  1  'x, y, z'
loop_
 _atom_site_type_symbol
 _atom_site_label
 _atom_site_symmetry_multiplicity
 _atom_site_fract_x
 _atom_site_fract_y
 _atom_site_fract_z
 _atom_site_occupancy
  Mg  Mg0  1  0.92561700  0.28845800  0.18688700  1
  Mg  Mg1  1  0.07449400  0.71165700  0.81303300  1
  Cr  Cr0  1  0.68641400  0.09308600  0.77990600  1
  Cr  Cr1  1  0.31329600  0.90686100  0.22027800  1
  P  P0  1  0.17535900  0.21339000  0.76481600  1
  P  P1  1  0.82461700  0.78660200  0.23518300  1
  P  P2  1  0.62089500  0.63811500  0.68190500  1
  P  P3  1  0.37920300  0.36189200  0.31805300  1
  O  O0  1  0.74570600  0.62485500  0.45672500  1
  O  O1  1  0.25455400  0.37499900  0.54331200  1
  O  O2  1  0.01736000  0.05524300  0.75981000  1
  O  O3  1  0.98250100  0.94491300  0.24010900  1
  O  O4  1  0.60951200  0.26505300  0.33011100  1
  O  O5  1  0.39061200  0.73496500  0.66970400  1
  O  O6  1  0.35933500  0.60067100  0.18806000  1
  O  O7  1  0.64060600  0.39935300  0.81200800  1
  O  O8  1  0.93744100  0.62757900  0.11684600  1
  O  O9  1  0.06264700  0.37251700  0.88306100  1
  O  O10  1  0.63739600  0.92705000  0.15057500  1
  O  O11  1  0.36241500  0.07273800  0.84959300  1
  O  O12  1  0.23696200  0.21434800  0.27471100  1
  O  O13  1  0.76305900  0.78565800  0.72531400  1
loop_
_geom_bond_atom_site_label_1
_geom_bond_atom_site_label_2
_geom_bond_distance
_geom_bond_site_symmetry_2
Mg0 O4 2.014663 1_555
Mg0 O9 2.069770 1_654
Mg0 O8 2.072052 1_555
Mg0 O3 2.101009 1_545
Mg0 O12 2.178668 1_655
Mg1 O5 2.014885 1_555
Mg1 O8 2.069709 1_456
Mg1 O9 2.072201 1_555
Mg1 O2 2.101365 1_565
Mg1 O13 2.178877 1_455
Cr0 O11 2.006679 1_555
Cr0 O7 2.031142 1_555
Cr0 O2 2.058799 1_655
Cr0 O13 2.109934 1_545
Cr0 O10 2.498785 1_546
Cr1 O10 2.007166 1_555
Cr1 O6 2.030954 1_555
Cr1 O3 2.058136 1_455
Cr1 O12 2.109699 1_565
Cr1 O11 2.498751 1_564
O0 P1 1.592334 1_555
O0 P2 1.652949 1_555
O1 P0 1.592093 1_555
O1 P3 1.652926 1_555
O2 P0 1.548635 1_555
O3 P1 1.548644 1_555
O4 P3 1.519005 1_555
O5 P2 1.519048 1_555
O6 P3 1.512416 1_555
O7 P2 1.512478 1_555
O8 P1 1.538111 1_555
O9 P0 1.538032 1_555
O10 P1 1.517779 1_555
O11 P0 1.517885 1_555
O12 P3 1.559084 1_555
O13 P2 1.558997 1_555
