# generated using pymatgen
data_KAlTe2
_symmetry_space_group_name_H-M   'P 1'
_cell_length_a   6.97851287
_cell_length_b   7.06153427
_cell_length_c   7.06153603
_cell_angle_alpha   75.86803355
_cell_angle_beta   60.38815333
_cell_angle_gamma   60.38816393
_symmetry_Int_Tables_number   1
_chemical_formula_structural   KAlTe2
_chemical_formula_sum   'K2 Al2 Te4'
_cell_volume   263.02270514
_cell_formula_units_Z   2
loop_
 _symmetry_equiv_pos_site_id
 _symmetry_equiv_pos_as_xyz
  1  'x, y, z'
loop_
 _atom_site_type_symbol
 _atom_site_label
 _atom_site_symmetry_multiplicity
 _atom_site_fract_x
 _atom_site_fract_y
 _atom_site_fract_z
 _atom_site_occupancy
  K  K0  1  0.75000000  -0.00000000  0.00000000  1
  K  K1  1  0.25000000  -0.00000000  0.00000000  1
  Al  Al0  1  0.75000000  0.50000000  0.50000000  1
  Al  Al1  1  0.25000000  0.50000000  0.50000000  1
  Te  Te0  1  0.16261408  0.50000000  0.17477283  1
  Te  Te1  1  0.33738592  0.82522717  0.50000000  1
  Te  Te2  1  0.66261408  0.17477283  0.50000000  1
  Te  Te3  1  0.83738592  0.50000000  0.82522717  1
loop_
_geom_bond_atom_site_label_1
_geom_bond_atom_site_label_2
_geom_bond_distance
_geom_bond_site_symmetry_2
K0 K1 3.489256 1_555
K0 K1 3.489256 1_655
K0 Te3 3.690200 1_554
K0 Te0 3.690200 1_555
K0 Te1 3.690200 1_644
K0 Te2 3.690201 1_554
K0 Te3 3.690204 1_544
K0 Te1 3.690204 1_545
K0 Te0 3.690204 1_645
K0 Te2 3.690204 1_555
K1 Te0 3.690200 1_545
K1 Te3 3.690200 1_544
K1 Te2 3.690200 1_455
K1 Te1 3.690201 1_545
K1 Te0 3.690204 1_555
K1 Te2 3.690204 1_554
K1 Te3 3.690204 1_454
K1 Te1 3.690204 1_544
Al0 Te2 2.651476 1_555
Al0 Te3 2.651477 1_555
Al0 Te0 2.651481 1_655
Al0 Te1 2.651481 1_555
Al1 Te1 2.651476 1_555
Al1 Te0 2.651477 1_555
Al1 Te3 2.651481 1_455
Al1 Te2 2.651481 1_555
