# generated using pymatgen
data_Sr5Zn(PbO4)3
_symmetry_space_group_name_H-M   'P 1'
_cell_length_a   10.32339137
_cell_length_b   10.32339137
_cell_length_c   3.58782500
_cell_angle_alpha   90.00000000
_cell_angle_beta   90.00000000
_cell_angle_gamma   119.99999597
_symmetry_Int_Tables_number   1
_chemical_formula_structural   Sr5Zn(PbO4)3
_chemical_formula_sum   'Sr5 Zn1 Pb3 O12'
_cell_volume   331.13621898
_cell_formula_units_Z   1
loop_
 _symmetry_equiv_pos_site_id
 _symmetry_equiv_pos_as_xyz
  1  'x, y, z'
loop_
 _atom_site_type_symbol
 _atom_site_label
 _atom_site_symmetry_multiplicity
 _atom_site_fract_x
 _atom_site_fract_y
 _atom_site_fract_z
 _atom_site_occupancy
  Sr  Sr0  1  0.33333300  0.66666700  0.50211800  1
  Sr  Sr1  1  0.66666700  0.33333300  0.50211800  1
  Sr  Sr2  1  0.00000000  0.30149400  0.50085600  1
  Sr  Sr3  1  0.69850600  0.69850600  0.50085600  1
  Sr  Sr4  1  0.30149400  0.00000000  0.50085600  1
  Zn  Zn0  1  0.00000000  0.00000000  0.58099500  1
  Pb  Pb0  1  0.00000000  0.66090200  0.00135900  1
  Pb  Pb1  1  0.33909800  0.33909800  0.00135900  1
  Pb  Pb2  1  0.66090200  0.00000000  0.00135900  1
  O  O0  1  0.00000000  0.81850700  0.52967300  1
  O  O1  1  0.18149300  0.18149300  0.52967300  1
  O  O2  1  0.81850700  0.00000000  0.52967300  1
  O  O3  1  0.55586100  0.76144100  0.00598800  1
  O  O4  1  0.23855900  0.79441900  0.00598800  1
  O  O5  1  0.20558100  0.44413900  0.00598800  1
  O  O6  1  0.44413900  0.20558100  0.00598800  1
  O  O7  1  0.76144100  0.55586100  0.00598800  1
  O  O8  1  0.79441900  0.23855900  0.00598800  1
  O  O9  1  0.00000000  0.53450400  0.50267600  1
  O  O10  1  0.46549600  0.46549600  0.50267600  1
  O  O11  1  0.53450400  0.00000000  0.50267600  1
loop_
_geom_bond_atom_site_label_1
_geom_bond_atom_site_label_2
_geom_bond_distance
_geom_bond_site_symmetry_2
O0 Zn0 1.882650 1_565
O0 Pb0 2.347586 1_556
O0 Pb0 2.498019 1_555
O0 Sr3 2.716045 1_455
O0 Sr4 2.716045 1_565
O1 Zn0 1.882650 1_555
O1 Pb1 2.347586 1_556
O1 Pb1 2.498020 1_555
O1 Sr4 2.716045 1_555
O1 Sr2 2.716045 1_555
O2 Zn0 1.882650 1_655
O2 Pb2 2.347586 1_556
O2 Pb2 2.498019 1_555
O2 Sr3 2.716045 1_545
O2 Sr2 2.716045 1_655
O3 Pb2 2.137917 1_565
O3 Sr3 2.588386 1_555
O3 Sr3 2.613784 1_554
O3 Sr0 2.674972 1_555
O3 Sr0 2.693531 1_554
O4 Pb0 2.137917 1_555
O4 Sr4 2.588394 1_565
O4 Sr4 2.613791 1_564
O4 Sr0 2.674958 1_555
O4 Sr0 2.693517 1_554
O5 Pb1 2.137908 1_555
O5 Sr2 2.588392 1_555
O5 Sr2 2.613790 1_554
O5 Sr0 2.674970 1_555
O5 Sr0 2.693529 1_554
O6 Pb1 2.137908 1_555
O6 Sr4 2.588392 1_555
O6 Sr4 2.613790 1_554
O6 Sr1 2.674970 1_555
O6 Sr1 2.693529 1_554
O7 Pb0 2.137917 1_655
O7 Sr3 2.588386 1_555
O7 Sr3 2.613784 1_554
O7 Sr1 2.674972 1_555
O7 Sr1 2.693531 1_554
O8 Pb2 2.137917 1_555
O8 Sr2 2.588394 1_655
O8 Sr2 2.613791 1_654
O8 Sr1 2.674958 1_555
O8 Sr1 2.693517 1_554
O9 Pb0 2.214462 1_556
O9 Pb0 2.222104 1_555
O9 Sr2 2.405462 1_555
O9 Sr0 3.001315 1_555
O9 Sr1 3.001317 1_455
O10 Pb1 2.214462 1_556
O10 Pb1 2.222104 1_555
O10 Sr3 2.405462 1_555
O10 Sr0 3.001325 1_555
O10 Sr1 3.001325 1_555
O11 Pb2 2.214462 1_556
O11 Pb2 2.222104 1_555
O11 Sr4 2.405462 1_555
O11 Sr1 3.001315 1_555
O11 Sr0 3.001317 1_545
