# generated using pymatgen
data_CrCu2Si
_symmetry_space_group_name_H-M   'P 1'
_cell_length_a   4.14737643
_cell_length_b   4.14737643
_cell_length_c   4.14737643
_cell_angle_alpha   60.00000000
_cell_angle_beta   60.00000000
_cell_angle_gamma   60.00000000
_symmetry_Int_Tables_number   1
_chemical_formula_structural   CrCu2Si
_chemical_formula_sum   'Cr1 Cu2 Si1'
_cell_volume   50.44351817
_cell_formula_units_Z   1
loop_
 _symmetry_equiv_pos_site_id
 _symmetry_equiv_pos_as_xyz
  1  'x, y, z'
loop_
 _atom_site_type_symbol
 _atom_site_label
 _atom_site_symmetry_multiplicity
 _atom_site_fract_x
 _atom_site_fract_y
 _atom_site_fract_z
 _atom_site_occupancy
  Cr  Cr0  1  0.00000000  0.00000000  0.00000000  1
  Cu  Cu0  1  0.25000000  0.25000000  0.25000000  1
  Cu  Cu1  1  0.75000000  0.75000000  0.75000000  1
  Si  Si0  1  0.50000000  0.50000000  0.50000000  1
loop_
_geom_bond_atom_site_label_1
_geom_bond_atom_site_label_2
_geom_bond_distance
_geom_bond_site_symmetry_2
Cr0 Cu0 2.539739 1_545
Cr0 Cu0 2.539739 1_455
Cr0 Cu0 2.539739 1_555
Cr0 Cu1 2.539739 1_544
Cr0 Cu1 2.539739 1_444
Cr0 Cu1 2.539739 1_445
Cr0 Cu0 2.539739 1_554
Cr0 Cu1 2.539739 1_454
Cr0 Si0 2.932638 1_554
Cr0 Si0 2.932638 1_445
Cr0 Si0 2.932638 1_455
Cr0 Si0 2.932638 1_545
Cr0 Si0 2.932638 1_454
Cr0 Si0 2.932638 1_544
Cu0 Si0 2.539739 1_555
Cu0 Si0 2.539739 1_455
Cu0 Si0 2.539739 1_545
Cu0 Si0 2.539739 1_554
Cu1 Si0 2.539739 1_555
Cu1 Si0 2.539739 1_556
Cu1 Si0 2.539739 1_565
Cu1 Si0 2.539739 1_655
