# generated using pymatgen
data_Ta3Cr3N
_symmetry_space_group_name_H-M   'P 1'
_cell_length_a   8.10536280
_cell_length_b   8.10536280
_cell_length_c   8.10536280
_cell_angle_alpha   60.00000000
_cell_angle_beta   60.00000000
_cell_angle_gamma   60.00000000
_symmetry_Int_Tables_number   1
_chemical_formula_structural   Ta3Cr3N
_chemical_formula_sum   'Ta12 Cr12 N4'
_cell_volume   376.53242279
_cell_formula_units_Z   4
loop_
 _symmetry_equiv_pos_site_id
 _symmetry_equiv_pos_as_xyz
  1  'x, y, z'
loop_
 _atom_site_type_symbol
 _atom_site_label
 _atom_site_symmetry_multiplicity
 _atom_site_fract_x
 _atom_site_fract_y
 _atom_site_fract_z
 _atom_site_occupancy
  Ta  Ta0  1  0.80663600  0.80663600  0.19336400  1
  Ta  Ta1  1  0.19336400  0.19336400  0.80663600  1
  Ta  Ta2  1  0.80663600  0.19336400  0.80663600  1
  Ta  Ta3  1  0.19336400  0.80663600  0.19336400  1
  Ta  Ta4  1  0.19336400  0.80663600  0.80663600  1
  Ta  Ta5  1  0.80663600  0.19336400  0.19336400  1
  Ta  Ta6  1  0.44336400  0.44336400  0.05663600  1
  Ta  Ta7  1  0.05663600  0.05663600  0.44336400  1
  Ta  Ta8  1  0.44336400  0.05663600  0.44336400  1
  Ta  Ta9  1  0.05663600  0.44336400  0.05663600  1
  Ta  Ta10  1  0.05663600  0.44336400  0.44336400  1
  Ta  Ta11  1  0.44336400  0.05663600  0.05663600  1
  Cr  Cr0  1  0.12500000  0.62500000  0.62500000  1
  Cr  Cr1  1  0.62500000  0.12500000  0.62500000  1
  Cr  Cr2  1  0.62500000  0.62500000  0.12500000  1
  Cr  Cr3  1  0.62500000  0.62500000  0.62500000  1
  Cr  Cr4  1  0.73627900  0.42124000  0.42124000  1
  Cr  Cr5  1  0.42124000  0.73627900  0.42124000  1
  Cr  Cr6  1  0.42124000  0.42124000  0.73627900  1
  Cr  Cr7  1  0.42124000  0.42124000  0.42124000  1
  Cr  Cr8  1  0.51372100  0.82876000  0.82876000  1
  Cr  Cr9  1  0.82876000  0.51372100  0.82876000  1
  Cr  Cr10  1  0.82876000  0.82876000  0.51372100  1
  Cr  Cr11  1  0.82876000  0.82876000  0.82876000  1
  N  N0  1  0.62500000  0.12500000  0.12500000  1
  N  N1  1  0.12500000  0.62500000  0.12500000  1
  N  N2  1  0.12500000  0.12500000  0.62500000  1
  N  N3  1  0.12500000  0.12500000  0.12500000  1
loop_
_geom_bond_atom_site_label_1
_geom_bond_atom_site_label_2
_geom_bond_distance
_geom_bond_site_symmetry_2
Cr0 Cr10 2.452974 1_455
Cr0 Cr9 2.452974 1_455
Cr0 Cr6 2.452974 1_555
Cr0 Cr5 2.452974 1_555
Cr0 Cr7 2.452978 1_555
Cr0 Cr11 2.452978 1_455
Cr0 Ta9 2.905332 1_556
Cr0 Ta7 2.905332 1_565
Cr0 Ta4 2.905332 1_555
Cr0 Ta1 2.905332 1_555
Cr0 Ta10 2.905332 1_555
Cr0 Ta3 2.905332 1_555
Cr1 Cr8 2.452974 1_545
Cr1 Cr10 2.452974 1_545
Cr1 Cr6 2.452974 1_555
Cr1 Cr4 2.452974 1_555
Cr1 Cr7 2.452978 1_555
Cr1 Cr11 2.452978 1_545
Cr1 Ta11 2.905332 1_556
Cr1 Ta7 2.905332 1_655
Cr1 Ta1 2.905332 1_555
Cr1 Ta5 2.905332 1_555
Cr1 Ta8 2.905332 1_555
Cr1 Ta2 2.905332 1_555
Cr2 Cr9 2.452974 1_554
Cr2 Cr8 2.452974 1_554
Cr2 Cr4 2.452974 1_555
Cr2 Cr5 2.452974 1_555
Cr2 Cr7 2.452978 1_555
Cr2 Ta11 2.905332 1_565
Cr2 Ta9 2.905332 1_655
Cr2 Ta5 2.905332 1_555
Cr2 Ta6 2.905332 1_555
Cr2 Ta3 2.905332 1_555
Cr2 Ta0 2.905332 1_555
Cr3 Cr6 2.452981 1_555
Cr3 Cr5 2.452981 1_555
Cr3 Cr4 2.452981 1_555
Cr3 Cr8 2.452981 1_555
Cr3 Cr9 2.452981 1_555
Cr3 Ta6 2.905332 1_556
Cr3 Ta10 2.905332 1_655
Cr3 Ta8 2.905332 1_565
Cr3 Ta4 2.905332 1_555
Cr3 Ta0 2.905332 1_555
Cr3 Ta2 2.905332 1_555
Cr4 Cr6 2.553505 1_555
Cr4 Cr7 2.553505 1_555
Cr4 Cr5 2.553505 1_555
Cr4 Ta9 2.787488 1_655
Cr4 Ta7 2.787488 1_655
Cr4 Ta10 2.787493 1_655
Cr4 Ta5 2.907410 1_555
Cr4 Ta2 2.907417 1_555
Cr4 Ta0 2.907417 1_555
Cr5 Cr6 2.553505 1_555
Cr5 Cr7 2.553505 1_555
Cr5 Ta7 2.787488 1_565
Cr5 Ta11 2.787488 1_565
Cr5 Ta8 2.787493 1_565
Cr5 Ta3 2.907410 1_555
Cr5 Ta4 2.907417 1_555
Cr5 Ta0 2.907417 1_555
Cr6 Cr7 2.553505 1_555
Cr6 Ta9 2.787488 1_556
Cr6 Ta11 2.787488 1_556
Cr6 Ta6 2.787493 1_556
Cr6 Ta1 2.907410 1_555
Cr6 Ta4 2.907417 1_555
Cr6 Ta2 2.907417 1_555
Cr7 Ta6 2.787485 1_555
Cr7 Ta8 2.787485 1_555
Cr7 Ta10 2.787485 1_555
Cr7 Ta5 2.907414 1_555
Cr7 Ta3 2.907414 1_555
Cr7 Ta1 2.907414 1_555
Cr8 Cr9 2.553505 1_555
Cr8 Ta1 2.787488 1_565
Cr8 Ta3 2.787488 1_556
Cr8 Ta4 2.787493 1_555
Cr8 Ta11 2.907410 1_566
Cr8 Ta6 2.907417 1_556
Cr8 Ta8 2.907417 1_565
Cr9 Ta1 2.787488 1_655
Cr9 Ta5 2.787488 1_556
Cr9 Ta2 2.787493 1_555
Cr9 Ta9 2.907410 1_656
Cr9 Ta6 2.907417 1_556
Cr9 Ta10 2.907417 1_655
Cr10 Cr3 2.452981 1_555
Cr10 Cr8 2.553505 1_555
Cr10 Cr11 2.553505 1_555
Cr10 Cr9 2.553505 1_555
Cr10 Ta3 2.787488 1_655
Cr10 Ta5 2.787488 1_565
Cr10 Ta0 2.787493 1_555
Cr10 Ta7 2.907410 1_665
Cr10 Ta10 2.907417 1_655
Cr10 Ta8 2.907417 1_565
Cr11 Cr2 2.452978 1_556
Cr11 Cr8 2.553505 1_555
Cr11 Cr9 2.553505 1_555
Cr11 Ta0 2.787485 1_556
Cr11 Ta4 2.787485 1_655
Cr11 Ta2 2.787485 1_565
Cr11 Ta11 2.907414 1_566
Cr11 Ta7 2.907414 1_665
Cr11 Ta9 2.907414 1_656
N0 Ta0 2.172589 1_545
N0 Ta6 2.172589 1_555
N0 Ta2 2.172589 1_554
N0 Ta8 2.172589 1_555
N0 Ta5 2.172589 1_555
N0 Ta11 2.172589 1_555
N1 Ta0 2.172589 1_455
N1 Ta6 2.172589 1_555
N1 Ta10 2.172589 1_555
N1 Ta4 2.172589 1_554
N1 Ta9 2.172589 1_555
N1 Ta3 2.172589 1_555
N2 Ta10 2.172589 1_555
N2 Ta4 2.172589 1_545
N2 Ta2 2.172589 1_455
N2 Ta8 2.172589 1_555
N2 Ta1 2.172589 1_555
N2 Ta7 2.172589 1_555
N3 Ta3 2.172589 1_545
N3 Ta9 2.172589 1_555
N3 Ta1 2.172589 1_554
N3 Ta7 2.172589 1_555
N3 Ta5 2.172589 1_455
N3 Ta11 2.172589 1_555
