# generated using pymatgen
data_Mn12Rh4N
_symmetry_space_group_name_H-M   'P 1'
_cell_length_a   4.11791929
_cell_length_b   5.22473160
_cell_length_c   9.03777477
_cell_angle_alpha   89.99453855
_cell_angle_beta   90.04131232
_cell_angle_gamma   89.98768586
_symmetry_Int_Tables_number   1
_chemical_formula_structural   Mn12Rh4N
_chemical_formula_sum   'Mn12 Rh4 N1'
_cell_volume   194.44787625
_cell_formula_units_Z   1
loop_
 _symmetry_equiv_pos_site_id
 _symmetry_equiv_pos_as_xyz
  1  'x, y, z'
loop_
 _atom_site_type_symbol
 _atom_site_label
 _atom_site_symmetry_multiplicity
 _atom_site_fract_x
 _atom_site_fract_y
 _atom_site_fract_z
 _atom_site_occupancy
  Mn  Mn0  1  0.76331500  0.99995800  0.17038000  1
  Mn  Mn1  1  0.75156900  0.49992600  0.65796400  1
  Mn  Mn2  1  0.75050500  0.73352700  0.42163800  1
  Mn  Mn3  1  0.76443900  0.25812200  0.91350800  1
  Mn  Mn4  1  0.75051500  0.26664700  0.42175100  1
  Mn  Mn5  1  0.76425600  0.74210600  0.91367100  1
  Mn  Mn6  1  0.24843100  0.50007400  0.34203600  1
  Mn  Mn7  1  0.23668500  0.00004200  0.82962000  1
  Mn  Mn8  1  0.23556100  0.74187800  0.08649200  1
  Mn  Mn9  1  0.24949500  0.26647300  0.57836200  1
  Mn  Mn10  1  0.23574400  0.25789400  0.08632900  1
  Mn  Mn11  1  0.24948500  0.73335300  0.57824900  1
  Rh  Rh0  1  0.74431900  0.49996600  0.17182200  1
  Rh  Rh1  1  0.74837600  0.99976700  0.66216400  1
  Rh  Rh2  1  0.25162400  0.00023300  0.33783600  1
  Rh  Rh3  1  0.25568100  0.50003400  0.82817800  1
  N  N0  1  0.50000000  0.00000000  0.00000000  1
loop_
_geom_bond_atom_site_label_1
_geom_bond_atom_site_label_2
_geom_bond_distance
_geom_bond_site_symmetry_2
Mn0 N0 1.882678 1_565
Mn0 Rh2 2.515844 1_665
Mn0 Rh2 2.595178 1_565
Mn0 Rh0 2.613543 1_555
Mn0 Rh0 2.613596 1_565
Mn1 Mn4 2.458367 1_555
Mn1 Mn2 2.459885 1_555
Mn1 Mn9 2.492138 1_655
Mn1 Mn11 2.492697 1_655
Mn1 Mn11 2.505550 1_555
Mn1 Mn9 2.505788 1_555
Mn1 Rh3 2.557527 1_555
Mn1 Rh3 2.582879 1_655
Mn1 Rh1 2.611845 1_555
Mn1 Rh1 2.613505 1_545
Mn1 Mn3 2.632897 1_555
Mn1 Mn5 2.635339 1_555
Mn2 Mn6 2.492138 1_655
Mn2 Mn6 2.505788 1_555
Mn2 Rh0 2.566670 1_555
Mn2 Rh1 2.580918 1_555
Mn2 Rh2 2.594623 1_565
Mn2 Rh2 2.603263 1_665
Mn3 N0 1.901910 1_556
Mn3 Rh3 2.507491 1_655
Mn3 Rh3 2.564707 1_555
Mn3 Rh1 2.643286 1_545
Mn3 Rh0 2.656041 1_556
Mn4 Mn6 2.492697 1_655
Mn4 Mn6 2.505550 1_555
Mn4 Rh0 2.566758 1_555
Mn4 Rh1 2.581641 1_545
Mn4 Rh2 2.594686 1_555
Mn4 Rh2 2.602315 1_655
Mn5 N0 1.899802 1_566
Mn5 Rh3 2.508611 1_655
Mn5 Rh3 2.565462 1_555
Mn5 Rh1 2.642449 1_555
Mn5 Rh0 2.655263 1_556
Mn6 Mn9 2.459885 1_555
Mn6 Rh0 2.557527 1_555
Mn6 Rh0 2.582879 1_455
Mn6 Rh2 2.611845 1_555
Mn6 Rh2 2.613505 1_565
Mn6 Mn8 2.632897 1_555
Mn7 N0 1.882678 1_556
Mn7 Rh1 2.515844 1_445
Mn7 Rh1 2.595178 1_545
Mn7 Rh3 2.613543 1_555
Mn7 Rh3 2.613596 1_545
Mn8 N0 1.901910 1_565
Mn8 Rh0 2.507491 1_455
Mn8 Rh0 2.564707 1_555
Mn8 Rh2 2.643286 1_565
Mn8 Rh3 2.656041 1_554
Mn9 Rh3 2.566670 1_555
Mn9 Rh2 2.580918 1_555
Mn9 Rh1 2.594623 1_545
Mn9 Rh1 2.603263 1_445
Mn10 N0 1.899802 1_555
Mn10 Rh0 2.508611 1_455
Mn10 Rh0 2.565462 1_555
Mn10 Mn6 2.635339 1_555
Mn10 Rh2 2.642449 1_555
Mn10 Rh3 2.655263 1_554
Mn11 Mn6 2.458367 1_555
Mn11 Rh3 2.566758 1_555
Mn11 Rh2 2.581641 1_565
Mn11 Rh1 2.594686 1_555
Mn11 Rh1 2.602315 1_455
