# generated using pymatgen
data_Li2NiGeO4
_symmetry_space_group_name_H-M   'P 1'
_cell_length_a   5.05477500
_cell_length_b   6.47074700
_cell_length_c   11.00424900
_cell_angle_alpha   90.00000000
_cell_angle_beta   90.00000000
_cell_angle_gamma   90.00000000
_symmetry_Int_Tables_number   1
_chemical_formula_structural   Li2NiGeO4
_chemical_formula_sum   'Li8 Ni4 Ge4 O16'
_cell_volume   359.92884885
_cell_formula_units_Z   4
loop_
 _symmetry_equiv_pos_site_id
 _symmetry_equiv_pos_as_xyz
  1  'x, y, z'
loop_
 _atom_site_type_symbol
 _atom_site_label
 _atom_site_symmetry_multiplicity
 _atom_site_fract_x
 _atom_site_fract_y
 _atom_site_fract_z
 _atom_site_occupancy
  Li  Li0  1  0.82173300  0.00157000  0.91165700  1
  Li  Li1  1  0.17826700  0.99843000  0.08834300  1
  Li  Li2  1  0.32173300  0.99843000  0.58834300  1
  Li  Li3  1  0.17826700  0.50157000  0.08834300  1
  Li  Li4  1  0.67826700  0.00157000  0.41165700  1
  Li  Li5  1  0.82173300  0.49843000  0.91165700  1
  Li  Li6  1  0.67826700  0.49843000  0.41165700  1
  Li  Li7  1  0.32173300  0.50157000  0.58834300  1
  Ni  Ni0  1  0.81919500  0.75000000  0.66290900  1
  Ni  Ni1  1  0.18080500  0.25000000  0.33709100  1
  Ni  Ni2  1  0.31919500  0.25000000  0.83709100  1
  Ni  Ni3  1  0.68080500  0.75000000  0.16290900  1
  Ge  Ge0  1  0.32913000  0.75000000  0.83537800  1
  Ge  Ge1  1  0.67087000  0.25000000  0.16462200  1
  Ge  Ge2  1  0.82913000  0.25000000  0.66462200  1
  Ge  Ge3  1  0.17087000  0.75000000  0.33537800  1
  O  O0  1  0.71969200  0.47834000  0.59051500  1
  O  O1  1  0.28030800  0.52166000  0.40948400  1
  O  O2  1  0.21969200  0.52166000  0.90948500  1
  O  O3  1  0.28030800  0.97834000  0.40948400  1
  O  O4  1  0.78030800  0.47834000  0.09051500  1
  O  O5  1  0.71969200  0.02166000  0.59051500  1
  O  O6  1  0.78030800  0.02166000  0.09051500  1
  O  O7  1  0.21969200  0.97834000  0.90948500  1
  O  O8  1  0.21355400  0.75000000  0.68182300  1
  O  O9  1  0.78644600  0.25000000  0.31817700  1
  O  O10  1  0.71355400  0.25000000  0.81817700  1
  O  O11  1  0.28644600  0.75000000  0.18182300  1
  O  O12  1  0.68295600  0.75000000  0.83344200  1
  O  O13  1  0.31704400  0.25000000  0.16655800  1
  O  O14  1  0.18295600  0.25000000  0.66655800  1
  O  O15  1  0.81704400  0.75000000  0.33344200  1
loop_
_geom_bond_atom_site_label_1
_geom_bond_atom_site_label_2
_geom_bond_distance
_geom_bond_site_symmetry_2
Li0 O12 1.970473 1_545
Li0 O6 1.983570 1_556
Li0 O10 1.985279 1_555
Li0 O7 2.017343 1_645
Li1 O13 1.970473 1_565
Li1 O7 1.983570 1_554
Li1 O11 1.985279 1_555
Li1 O6 2.017343 1_465
Li2 O14 1.970473 1_565
Li2 O3 1.983581 1_555
Li2 O8 1.985279 1_555
Li2 O5 2.017343 1_565
Li3 O13 1.970473 1_555
Li3 O2 1.983570 1_554
Li3 O11 1.985279 1_555
Li3 O4 2.017343 1_455
Li4 O15 1.970473 1_545
Li4 O5 1.983570 1_555
Li4 O9 1.985279 1_555
Li4 O3 2.017343 1_545
Li5 O12 1.970473 1_555
Li5 O4 1.983570 1_556
Li5 O10 1.985279 1_555
Li5 O2 2.017343 1_655
Li6 O15 1.970473 1_555
Li6 O0 1.983570 1_555
Li6 O9 1.985279 1_555
Li6 O1 2.017343 1_555
Li7 O14 1.970473 1_555
Li7 O1 1.983581 1_555
Li7 O8 1.985279 1_555
Li7 O0 2.017343 1_555
Ni0 O0 1.994398 1_555
Ni0 O5 1.994398 1_565
Ni0 O12 1.998957 1_555
Ni0 O8 2.004232 1_655
Ni1 O3 1.994394 1_545
Ni1 O1 1.994394 1_555
Ni1 O13 1.998957 1_555
Ni1 O9 2.004232 1_455
Ni2 O7 1.994398 1_545
Ni2 O2 1.994398 1_555
Ni2 O14 1.998957 1_555
Ni2 O10 2.004232 1_555
Ni3 O4 1.994398 1_555
Ni3 O6 1.994398 1_565
Ni3 O15 1.998957 1_555
Ni3 O11 2.004232 1_555
Ge0 O2 1.775989 1_555
Ge0 O7 1.775989 1_555
Ge0 O8 1.787899 1_555
Ge0 O12 1.788638 1_555
Ge1 O6 1.775989 1_555
Ge1 O4 1.775989 1_555
Ge1 O9 1.787899 1_555
Ge1 O13 1.788638 1_555
Ge2 O5 1.775989 1_555
Ge2 O0 1.775989 1_555
Ge2 O10 1.787899 1_555
Ge2 O14 1.788638 1_655
Ge3 O1 1.775984 1_555
Ge3 O3 1.775984 1_555
Ge3 O11 1.787899 1_555
Ge3 O15 1.788638 1_455
