# generated using pymatgen
data_CsAsO4
_symmetry_space_group_name_H-M   'P 1'
_cell_length_a   6.83888342
_cell_length_b   6.83888342
_cell_length_c   6.83888342
_cell_angle_alpha   110.10907924
_cell_angle_beta   110.10907924
_cell_angle_gamma   108.20289976
_symmetry_Int_Tables_number   1
_chemical_formula_structural   CsAsO4
_chemical_formula_sum   'Cs2 As2 O8'
_cell_volume   246.13563917
_cell_formula_units_Z   2
loop_
 _symmetry_equiv_pos_site_id
 _symmetry_equiv_pos_as_xyz
  1  'x, y, z'
loop_
 _atom_site_type_symbol
 _atom_site_label
 _atom_site_symmetry_multiplicity
 _atom_site_fract_x
 _atom_site_fract_y
 _atom_site_fract_z
 _atom_site_occupancy
  Cs  Cs0  1  0.25000000  0.75000000  0.50000000  1
  Cs  Cs1  1  0.50000000  0.50000000  0.00000000  1
  As  As0  1  0.75000000  0.25000000  0.50000000  1
  As  As1  1  0.00000000  0.00000000  0.00000000  1
  O  O0  1  0.72046700  0.25507400  0.74461300  1
  O  O1  1  0.02953300  0.27414700  0.03460700  1
  O  O2  1  0.51046000  0.97585300  0.25538700  1
  O  O3  1  0.23954000  0.99492600  0.96539300  1
  O  O4  1  0.74492600  0.48954000  0.46539300  1
  O  O5  1  0.00507400  0.97046700  0.24461300  1
  O  O6  1  0.02414700  0.27953300  0.53460700  1
  O  O7  1  0.72585300  0.76046000  0.75538700  1
loop_
_geom_bond_atom_site_label_1
_geom_bond_atom_site_label_2
_geom_bond_distance
_geom_bond_site_symmetry_2
Cs0 O3 3.083248 1_555
Cs0 O1 3.083248 1_555
Cs0 O7 3.083249 1_555
Cs0 O5 3.083252 1_555
Cs0 O2 3.234800 1_555
Cs0 O6 3.234806 1_555
Cs0 O4 3.234806 1_455
Cs0 O0 3.234807 1_565
Cs1 O4 3.083248 1_555
Cs1 O6 3.083248 1_554
Cs1 O2 3.083249 1_555
Cs1 O0 3.083252 1_554
Cs1 O7 3.234800 1_554
Cs1 O1 3.234806 1_555
Cs1 O3 3.234806 1_544
Cs1 O5 3.234807 1_655
As0 O0 1.742790 1_555
As0 O2 1.742795 1_545
As0 O6 1.742797 1_655
As0 O4 1.742797 1_555
As1 O5 1.742790 1_545
As1 O7 1.742795 1_444
As1 O1 1.742797 1_555
As1 O3 1.742797 1_544
