# generated using pymatgen
data_Ba2ZrC8O19
_symmetry_space_group_name_H-M   'P 1'
_cell_length_a   15.84813007
_cell_length_b   15.84813007
_cell_length_c   8.86626021
_cell_angle_alpha   81.11769408
_cell_angle_beta   81.11769408
_cell_angle_gamma   144.39386354
_symmetry_Int_Tables_number   1
_chemical_formula_structural   Ba2ZrC8O19
_chemical_formula_sum   'Ba4 Zr2 C16 O38'
_cell_volume   1119.03533759
_cell_formula_units_Z   2
loop_
 _symmetry_equiv_pos_site_id
 _symmetry_equiv_pos_as_xyz
  1  'x, y, z'
loop_
 _atom_site_type_symbol
 _atom_site_label
 _atom_site_symmetry_multiplicity
 _atom_site_fract_x
 _atom_site_fract_y
 _atom_site_fract_z
 _atom_site_occupancy
  Ba  Ba0  1  0.77848700  0.22151300  0.25000000  1
  Ba  Ba1  1  0.22151300  0.77848700  0.75000000  1
  Ba  Ba2  1  0.51115300  0.48884700  0.25000000  1
  Ba  Ba3  1  0.48884700  0.51115300  0.75000000  1
  Zr  Zr0  1  0.86409500  0.13590500  0.75000000  1
  Zr  Zr1  1  0.13590500  0.86409500  0.25000000  1
  C  C0  1  0.09687200  0.49179500  0.62670400  1
  C  C1  1  0.50820600  0.90312800  0.87329600  1
  C  C2  1  0.90312800  0.50820500  0.37329600  1
  C  C3  1  0.49179400  0.09687200  0.12670400  1
  C  C4  1  0.02093500  0.40772700  0.82830300  1
  C  C5  1  0.59227300  0.97906500  0.67169700  1
  C  C6  1  0.97906500  0.59227300  0.17169700  1
  C  C7  1  0.40772700  0.02093500  0.32830300  1
  C  C8  1  0.13944500  0.28329500  0.44590900  1
  C  C9  1  0.71670500  0.86055500  0.05409100  1
  C  C10  1  0.86055500  0.71670500  0.55409100  1
  C  C11  1  0.28329500  0.13944500  0.94590900  1
  C  C12  1  0.19685100  0.32519300  0.58509200  1
  C  C13  1  0.67480700  0.80314900  0.91490800  1
  C  C14  1  0.80314900  0.67480700  0.41490800  1
  C  C15  1  0.32519300  0.19685100  0.08509200  1
  O  O0  1  0.19435800  0.63588100  0.54571600  1
  O  O1  1  0.36411900  0.80564200  0.95428400  1
  O  O2  1  0.80564200  0.36411900  0.45428400  1
  O  O3  1  0.63588100  0.19435800  0.04571600  1
  O  O4  1  0.06631500  0.48732900  0.90724100  1
  O  O5  1  0.51267100  0.93368500  0.59275900  1
  O  O6  1  0.93368500  0.51267100  0.09275900  1
  O  O7  1  0.48732900  0.06631500  0.40724100  1
  O  O8  1  0.90728600  0.25240100  0.90498600  1
  O  O9  1  0.74759900  0.09271400  0.59501400  1
  O  O10  1  0.09271400  0.74759900  0.09501400  1
  O  O11  1  0.25240100  0.90728600  0.40498600  1
  O  O12  1  0.04236500  0.39281700  0.56758000  1
  O  O13  1  0.60718300  0.95763500  0.93242000  1
  O  O14  1  0.95763500  0.60718300  0.43242000  1
  O  O15  1  0.39281700  0.04236500  0.06758000  1
  O  O16  1  0.00063500  0.20273400  0.49147700  1
  O  O17  1  0.79726600  0.99936500  0.00852300  1
  O  O18  1  0.99936500  0.79726600  0.50852300  1
  O  O19  1  0.20273400  0.00063500  0.99147700  1
  O  O20  1  0.09960800  0.27379700  0.72443200  1
  O  O21  1  0.72620300  0.90039200  0.77556800  1
  O  O22  1  0.90039200  0.72620300  0.27556800  1
  O  O23  1  0.27379700  0.09960800  0.22443200  1
  O  O24  1  0.33296600  0.40572300  0.55381400  1
  O  O25  1  0.59427700  0.66703400  0.94618600  1
  O  O26  1  0.66703400  0.59427700  0.44618600  1
  O  O27  1  0.40572300  0.33296600  0.05381400  1
  O  O28  1  0.22864200  0.32887100  0.30731300  1
  O  O29  1  0.67112900  0.77135800  0.19268700  1
  O  O30  1  0.77135800  0.67112900  0.69268700  1
  O  O31  1  0.32887100  0.22864200  0.80731300  1
  O  O32  1  0.10901600  0.47295400  0.24804700  1
  O  O33  1  0.52704600  0.89098400  0.25195300  1
  O  O34  1  0.89098400  0.52704600  0.75195300  1
  O  O35  1  0.47295400  0.10901600  0.74804700  1
  O  O36  1  0.87871300  0.12128700  0.25000000  1
  O  O37  1  0.12128700  0.87871300  0.75000000  1
loop_
_geom_bond_atom_site_label_1
_geom_bond_atom_site_label_2
_geom_bond_distance
_geom_bond_site_symmetry_2
Ba0 O7 2.790107 1_555
Ba0 O6 2.790107 1_555
Ba0 O4 2.882399 1_654
Ba0 O5 2.882399 1_545
Ba0 O3 2.914929 1_555
Ba0 O2 2.914929 1_555
Ba0 O36 3.024663 1_555
Ba0 O33 3.054044 1_545
Ba0 O32 3.054044 1_655
Ba0 O9 3.122203 1_555
Ba0 O8 3.122203 1_554
Ba1 O4 2.790107 1_555
Ba1 O5 2.790107 1_555
Ba1 O7 2.882399 1_565
Ba1 O6 2.882399 1_456
Ba1 O0 2.914929 1_555
Ba1 O1 2.914929 1_555
Ba1 O37 3.024663 1_555
Ba1 O35 3.054044 1_565
Ba1 O34 3.054044 1_455
Ba1 O10 3.122203 1_556
Ba1 O11 3.122203 1_555
Ba2 O28 2.678335 1_555
Ba2 O29 2.678335 1_555
Ba2 O27 2.726336 1_555
Ba2 O26 2.726336 1_555
Ba2 O24 2.733476 1_555
Ba2 O25 2.733476 1_554
Ba3 O31 2.678335 1_555
Ba3 O30 2.678335 1_555
Ba3 O24 2.726336 1_555
Ba3 O25 2.726336 1_555
Ba3 O26 2.733476 1_555
Ba3 O27 2.733476 1_556
C0 O0 1.237441 1_555
C0 O12 1.293041 1_555
C1 O1 1.237453 1_555
C1 O13 1.293030 1_555
C2 O2 1.237441 1_555
C2 O14 1.293041 1_555
C3 O3 1.237453 1_555
C3 O15 1.293030 1_555
C4 O4 1.245529 1_555
C4 O8 1.288945 1_455
C5 O5 1.245529 1_555
C5 O9 1.288945 1_565
C6 O6 1.245529 1_555
C6 O10 1.288945 1_655
C7 O7 1.245529 1_555
C7 O11 1.288945 1_545
C8 O28 1.248679 1_555
C8 O16 1.277452 1_555
C9 O29 1.248679 1_555
C9 O17 1.277452 1_555
C10 O30 1.248679 1_555
C10 O18 1.277452 1_555
C11 O31 1.248679 1_555
C11 O19 1.277452 1_555
C12 O24 1.260290 1_555
C12 O20 1.274707 1_555
C13 O25 1.260290 1_555
C13 O21 1.274707 1_555
C14 O26 1.260290 1_555
C14 O22 1.274707 1_555
C15 O27 1.260290 1_555
C15 O23 1.274707 1_555
O8 Zr0 2.187327 1_555
O9 Zr0 2.187327 1_555
O10 Zr1 2.187327 1_555
O11 Zr1 2.187327 1_555
O12 Zr0 2.241842 1_455
O13 Zr0 2.241842 1_565
O14 Zr1 2.241842 1_655
O15 Zr1 2.241842 1_545
O16 Zr0 2.247227 1_455
O17 Zr0 2.247227 1_564
O18 Zr1 2.247227 1_655
O19 Zr1 2.247227 1_546
O20 Zr0 2.254022 1_455
O21 Zr0 2.254022 1_565
O22 Zr1 2.254022 1_655
O23 Zr1 2.254022 1_545
