# generated using pymatgen
data_ErNiAs
_symmetry_space_group_name_H-M   'P 1'
_cell_length_a   4.01062313
_cell_length_b   4.01062313
_cell_length_c   15.11551989
_cell_angle_alpha   90.00000000
_cell_angle_beta   90.00000000
_cell_angle_gamma   119.99999891
_symmetry_Int_Tables_number   1
_chemical_formula_structural   ErNiAs
_chemical_formula_sum   'Er4 Ni4 As4'
_cell_volume   210.56075768
_cell_formula_units_Z   4
loop_
 _symmetry_equiv_pos_site_id
 _symmetry_equiv_pos_as_xyz
  1  'x, y, z'
loop_
 _atom_site_type_symbol
 _atom_site_label
 _atom_site_symmetry_multiplicity
 _atom_site_fract_x
 _atom_site_fract_y
 _atom_site_fract_z
 _atom_site_occupancy
  Er  Er0  1  0.00000000  -0.00000000  0.24998330  1
  Er  Er1  1  0.00000000  -0.00000000  0.74999766  1
  Er  Er2  1  0.00000000  -0.00000000  0.00002400  1
  Er  Er3  1  0.00000000  -0.00000000  0.49999578  1
  Ni  Ni0  1  0.33333300  0.66666700  0.13560100  1
  Ni  Ni1  1  0.66666700  0.33333300  0.86442709  1
  Ni  Ni2  1  0.66666700  0.33333300  0.63557684  1
  Ni  Ni3  1  0.33333300  0.66666700  0.36438571  1
  As  As0  1  0.33333300  0.66666700  0.62022400  1
  As  As1  1  0.66666700  0.33333300  0.37973115  1
  As  As2  1  0.66666700  0.33333300  0.12024620  1
  As  As3  1  0.33333300  0.66666700  0.87980827  1
loop_
_geom_bond_atom_site_label_1
_geom_bond_atom_site_label_2
_geom_bond_distance
_geom_bond_site_symmetry_2
Er0 Ni0 2.889801 1_545
Er0 Ni0 2.889804 1_445
Er0 Ni0 2.889804 1_555
Er0 Ni3 2.889983 1_545
Er0 Ni3 2.889986 1_555
Er0 Ni3 2.889986 1_445
Er1 Ni2 2.890149 1_455
Er1 Ni2 2.890152 1_445
Er1 Ni2 2.890152 1_555
Er1 Ni1 2.890227 1_455
Er1 Ni1 2.890230 1_555
Er1 Ni1 2.890230 1_445
Er2 Ni0 3.092149 1_545
Er2 Ni0 3.092152 1_555
Er2 Ni0 3.092152 1_445
Er2 Ni1 3.092349 1_454
Er2 Ni1 3.092352 1_554
Er2 Ni1 3.092352 1_444
Er3 Ni2 3.092190 1_455
Er3 Ni2 3.092193 1_445
Er3 Ni2 3.092193 1_555
Er3 Ni3 3.092481 1_545
Er3 Ni3 3.092483 1_445
Er3 Ni3 3.092483 1_555
As0 Ni2 2.327132 1_455
As0 Ni2 2.327132 1_565
As0 Ni2 2.327139 1_555
As0 Er3 2.943520 1_565
As0 Er3 2.943523 1_665
As0 Er3 2.943523 1_555
As0 Er1 3.034724 1_565
As0 Er1 3.034727 1_665
As0 Er1 3.034727 1_555
As1 Ni3 2.327121 1_545
As1 Ni3 2.327121 1_655
As1 Ni3 2.327128 1_555
As1 Er3 2.943860 1_655
As1 Er3 2.943863 1_555
As1 Er3 2.943863 1_665
As1 Er0 3.034472 1_655
As1 Er0 3.034474 1_555
As1 Er0 3.034474 1_665
As2 Ni0 2.327135 1_545
As2 Ni0 2.327135 1_655
As2 Ni0 2.327142 1_555
As2 Er2 2.943464 1_655
As2 Er2 2.943467 1_665
As2 Er2 2.943467 1_555
As2 Er0 3.034367 1_655
As2 Er0 3.034369 1_555
As2 Er0 3.034369 1_665
As3 Ni1 2.327175 1_455
As3 Ni1 2.327175 1_565
As3 Ni1 2.327182 1_555
As3 Er2 2.943404 1_566
As3 Er2 2.943406 1_666
As3 Er2 2.943406 1_556
As3 Er1 3.035085 1_565
As3 Er1 3.035088 1_555
As3 Er1 3.035088 1_665
