# generated using pymatgen
data_Ca3Si4(SbO7)2
_symmetry_space_group_name_H-M   'P 1'
_cell_length_a   9.92325514
_cell_length_b   9.92325514
_cell_length_c   10.73231768
_cell_angle_alpha   58.02192967
_cell_angle_beta   58.02192967
_cell_angle_gamma   47.81904379
_symmetry_Int_Tables_number   1
_chemical_formula_structural   Ca3Si4(SbO7)2
_chemical_formula_sum   'Ca6 Si8 Sb4 O28'
_cell_volume   638.34034971
_cell_formula_units_Z   2
loop_
 _symmetry_equiv_pos_site_id
 _symmetry_equiv_pos_as_xyz
  1  'x, y, z'
loop_
 _atom_site_type_symbol
 _atom_site_label
 _atom_site_symmetry_multiplicity
 _atom_site_fract_x
 _atom_site_fract_y
 _atom_site_fract_z
 _atom_site_occupancy
  Ca  Ca0  1  0.25119100  0.15801800  0.53273200  1
  Ca  Ca1  1  0.84198200  0.74880900  0.96726800  1
  Ca  Ca2  1  0.15801800  0.25119100  0.03273200  1
  Ca  Ca3  1  0.64088000  0.35912000  0.25000000  1
  Ca  Ca4  1  0.74880900  0.84198200  0.46726800  1
  Ca  Ca5  1  0.35912000  0.64088000  0.75000000  1
  Si  Si0  1  0.08689400  0.53408500  0.66568400  1
  Si  Si1  1  0.53408500  0.08689400  0.16568400  1
  Si  Si2  1  0.24958800  0.49235800  0.13646800  1
  Si  Si3  1  0.49235800  0.24958800  0.63646800  1
  Si  Si4  1  0.46591500  0.91310600  0.83431600  1
  Si  Si5  1  0.75041200  0.50764200  0.86353200  1
  Si  Si6  1  0.50764200  0.75041200  0.36353200  1
  Si  Si7  1  0.91310600  0.46591500  0.33431600  1
  Sb  Sb0  1  0.21923500  0.78076500  0.25000000  1
  Sb  Sb1  1  0.78076500  0.21923500  0.75000000  1
  Sb  Sb2  1  0.00000000  0.00000000  0.00000000  1
  Sb  Sb3  1  0.00000000  0.00000000  0.50000000  1
  O  O0  1  0.33016800  0.84887600  0.50198000  1
  O  O1  1  0.89013700  0.95953400  0.74588800  1
  O  O2  1  0.60368100  0.51527700  0.83205800  1
  O  O3  1  0.95953400  0.89013700  0.24588800  1
  O  O4  1  0.94999400  0.27221300  0.47896200  1
  O  O5  1  0.48322100  0.08449000  0.80572200  1
  O  O6  1  0.51527700  0.60368100  0.33205800  1
  O  O7  1  0.72778700  0.05000600  0.02103800  1
  O  O8  1  0.51677900  0.91551000  0.19427800  1
  O  O9  1  0.70954300  0.64895300  0.40163700  1
  O  O10  1  0.10986300  0.04046600  0.25411200  1
  O  O11  1  0.05000600  0.72778700  0.52103800  1
  O  O12  1  0.91551000  0.51677900  0.69427800  1
  O  O13  1  0.84887600  0.33016800  0.00198000  1
  O  O14  1  0.64895300  0.70954300  0.90163700  1
  O  O15  1  0.27221300  0.94999400  0.97896200  1
  O  O16  1  0.47251300  0.92242100  0.67663500  1
  O  O17  1  0.29045700  0.35104700  0.59836300  1
  O  O18  1  0.07757900  0.52748700  0.82336500  1
  O  O19  1  0.35104700  0.29045700  0.09836300  1
  O  O20  1  0.08449000  0.48322100  0.30572200  1
  O  O21  1  0.04046600  0.10986300  0.75411200  1
  O  O22  1  0.92242100  0.47251300  0.17663500  1
  O  O23  1  0.39631900  0.48472300  0.16794200  1
  O  O24  1  0.52748700  0.07757900  0.32336500  1
  O  O25  1  0.48472300  0.39631900  0.66794200  1
  O  O26  1  0.15112400  0.66983200  0.99802000  1
  O  O27  1  0.66983200  0.15112400  0.49802000  1
loop_
_geom_bond_atom_site_label_1
_geom_bond_atom_site_label_2
_geom_bond_distance
_geom_bond_site_symmetry_2
Ca0 O21 2.263409 1_555
Ca0 O16 2.355254 1_545
Ca0 O24 2.374591 1_555
Ca0 O17 2.653131 1_555
Ca0 O4 2.671358 1_455
Ca0 O0 2.775538 1_545
Ca0 O20 2.803272 1_555
Ca1 O1 2.263409 1_555
Ca1 O18 2.355254 1_655
Ca1 O22 2.374591 1_556
Ca1 O14 2.653131 1_555
Ca1 O7 2.671358 1_566
Ca1 O26 2.775538 1_655
Ca1 O8 2.803272 1_556
Ca2 O10 2.263409 1_555
Ca2 O22 2.355254 1_455
Ca2 O18 2.374591 1_554
Ca2 O19 2.653131 1_555
Ca2 O15 2.671358 1_544
Ca2 O13 2.775538 1_455
Ca2 O5 2.803272 1_554
Ca3 O23 2.292949 1_555
Ca3 O6 2.292949 1_555
Ca3 O13 2.371165 1_555
Ca3 O27 2.371165 1_555
Ca4 O3 2.263409 1_555
Ca4 O24 2.355254 1_565
Ca4 O16 2.374591 1_555
Ca4 O9 2.653131 1_555
Ca4 O11 2.671358 1_655
Ca4 O27 2.775538 1_565
Ca4 O12 2.803272 1_555
Ca5 O25 2.292949 1_555
Ca5 O2 2.292949 1_555
Ca5 O0 2.371165 1_555
Ca5 O26 2.371165 1_555
O0 Si6 1.649005 1_555
O0 Sb3 2.534841 1_565
O1 Sb1 2.033411 1_565
O1 Sb3 2.175332 1_665
O2 Si5 1.607984 1_555
O2 Sb1 2.581095 1_555
O3 Sb0 2.033411 1_655
O3 Sb2 2.175332 1_665
O4 Si7 1.653787 1_555
O4 Sb3 2.294879 1_655
O4 Sb1 2.439219 1_555
O5 Si4 1.673204 1_545
O5 Si3 1.692581 1_555
O6 Si6 1.607984 1_555
O6 Sb0 2.581095 1_555
O7 Si1 1.653787 1_555
O7 Sb2 2.294879 1_655
O7 Sb1 2.439219 1_554
O8 Si1 1.673204 1_565
O8 Si6 1.692581 1_555
O9 Si7 1.678798 1_555
O9 Si6 1.708152 1_555
O10 Sb0 2.033411 1_545
O10 Sb3 2.175332 1_555
O11 Si0 1.653787 1_555
O11 Sb3 2.294879 1_565
O11 Sb0 2.439219 1_555
O12 Si0 1.673204 1_655
O12 Si5 1.692581 1_555
O13 Si5 1.649005 1_554
O13 Sb2 2.534841 1_655
O14 Si4 1.678798 1_555
O14 Si5 1.708152 1_555
O15 Si4 1.653787 1_555
O15 Sb2 2.294879 1_566
O15 Sb0 2.439219 1_556
O16 Si4 1.612990 1_555
O17 Si0 1.678798 1_555
O17 Si3 1.708152 1_555
O18 Si0 1.612990 1_555
O19 Si1 1.678798 1_555
O19 Si2 1.708152 1_555
O20 Si7 1.673204 1_455
O20 Si2 1.692581 1_555
O21 Sb1 2.033411 1_455
O21 Sb2 2.175332 1_556
O22 Si7 1.612990 1_555
O23 Si2 1.607984 1_555
O23 Sb0 2.581095 1_555
O24 Si1 1.612990 1_555
O25 Si3 1.607984 1_555
O25 Sb1 2.581095 1_555
O26 Si2 1.649005 1_556
O26 Sb2 2.534841 1_566
O27 Si3 1.649005 1_555
O27 Sb3 2.534841 1_655
