# generated using pymatgen
data_Ba4Pr4Co8O23
_symmetry_space_group_name_H-M   'P 1'
_cell_length_a   7.87965900
_cell_length_b   7.87965900
_cell_length_c   7.82422200
_cell_angle_alpha   90.00000000
_cell_angle_beta   90.00000000
_cell_angle_gamma   90.00000000
_symmetry_Int_Tables_number   1
_chemical_formula_structural   Ba4Pr4Co8O23
_chemical_formula_sum   'Ba4 Pr4 Co8 O23'
_cell_volume   485.79832285
_cell_formula_units_Z   1
loop_
 _symmetry_equiv_pos_site_id
 _symmetry_equiv_pos_as_xyz
  1  'x, y, z'
loop_
 _atom_site_type_symbol
 _atom_site_label
 _atom_site_symmetry_multiplicity
 _atom_site_fract_x
 _atom_site_fract_y
 _atom_site_fract_z
 _atom_site_occupancy
  Ba  Ba0  1  0.24779000  0.24779000  0.00000000  1
  Ba  Ba1  1  0.75221000  0.75221000  0.00000000  1
  Ba  Ba2  1  0.24779000  0.75221000  0.00000000  1
  Ba  Ba3  1  0.75221000  0.24779000  0.00000000  1
  Pr  Pr0  1  0.23732900  0.23732900  0.50000000  1
  Pr  Pr1  1  0.76267100  0.76267100  0.50000000  1
  Pr  Pr2  1  0.23732900  0.76267100  0.50000000  1
  Pr  Pr3  1  0.76267100  0.23732900  0.50000000  1
  Co  Co0  1  0.50000000  0.50000000  0.74011400  1
  Co  Co1  1  0.50000000  0.50000000  0.25988600  1
  Co  Co2  1  0.00000000  0.00000000  0.74796700  1
  Co  Co3  1  0.00000000  0.00000000  0.25203300  1
  Co  Co4  1  0.00000000  0.50000000  0.74530600  1
  Co  Co5  1  0.50000000  0.00000000  0.74530600  1
  Co  Co6  1  0.00000000  0.50000000  0.25469400  1
  Co  Co7  1  0.50000000  0.00000000  0.25469400  1
  O  O0  1  0.24687200  0.00000000  0.72738200  1
  O  O1  1  0.75312800  0.00000000  0.72738200  1
  O  O2  1  0.00000000  0.75312800  0.72738200  1
  O  O3  1  0.00000000  0.24687200  0.72738200  1
  O  O4  1  0.75312800  0.00000000  0.27261800  1
  O  O5  1  0.24687200  0.00000000  0.27261800  1
  O  O6  1  0.00000000  0.24687200  0.27261800  1
  O  O7  1  0.00000000  0.75312800  0.27261800  1
  O  O8  1  0.00000000  0.50000000  0.50000000  1
  O  O9  1  0.50000000  0.00000000  0.50000000  1
  O  O10  1  0.00000000  0.50000000  0.00000000  1
  O  O11  1  0.50000000  0.00000000  0.00000000  1
  O  O12  1  0.00000000  0.00000000  0.00000000  1
  O  O13  1  0.26841500  0.50000000  0.70748800  1
  O  O14  1  0.73158500  0.50000000  0.70748800  1
  O  O15  1  0.50000000  0.73158500  0.70748800  1
  O  O16  1  0.50000000  0.26841500  0.70748800  1
  O  O17  1  0.73158500  0.50000000  0.29251200  1
  O  O18  1  0.26841500  0.50000000  0.29251200  1
  O  O19  1  0.50000000  0.26841500  0.29251200  1
  O  O20  1  0.50000000  0.73158500  0.29251200  1
  O  O21  1  0.50000000  0.50000000  0.00000000  1
  O  O22  1  0.00000000  0.00000000  0.50000000  1
loop_
_geom_bond_atom_site_label_1
_geom_bond_atom_site_label_2
_geom_bond_distance
_geom_bond_site_symmetry_2
Ba0 O12 2.761253 1_555
Ba0 O11 2.785989 1_555
Ba0 O10 2.785989 1_555
Ba0 O21 2.810507 1_555
Ba0 O0 2.891730 1_554
Ba0 O6 2.891730 1_555
Ba0 O3 2.891730 1_554
Ba0 O5 2.891730 1_555
Ba0 O18 3.035447 1_555
Ba0 O19 3.035447 1_555
Ba0 O16 3.035447 1_554
Ba0 O13 3.035447 1_554
Ba1 O12 2.761253 1_665
Ba1 O10 2.785989 1_655
Ba1 O11 2.785989 1_565
Ba1 O21 2.810507 1_555
Ba1 O7 2.891730 1_655
Ba1 O4 2.891730 1_565
Ba1 O1 2.891730 1_564
Ba1 O2 2.891730 1_654
Ba1 O20 3.035447 1_555
Ba1 O17 3.035447 1_555
Ba1 O14 3.035447 1_554
Ba1 O15 3.035447 1_554
Ba2 O12 2.761253 1_565
Ba2 O11 2.785989 1_565
Ba2 O10 2.785989 1_555
Ba2 O21 2.810507 1_555
Ba2 O0 2.891730 1_564
Ba2 O5 2.891730 1_565
Ba2 O2 2.891730 1_554
Ba2 O7 2.891730 1_555
Ba2 O20 3.035447 1_555
Ba2 O15 3.035447 1_554
Ba2 O13 3.035447 1_554
Ba2 O18 3.035447 1_555
Ba3 O12 2.761253 1_655
Ba3 O10 2.785989 1_655
Ba3 O11 2.785989 1_555
Ba3 O21 2.810507 1_555
Ba3 O3 2.891730 1_654
Ba3 O6 2.891730 1_655
Ba3 O1 2.891730 1_554
Ba3 O4 2.891730 1_555
Ba3 O14 3.035447 1_554
Ba3 O17 3.035447 1_555
Ba3 O16 3.035447 1_554
Ba3 O19 3.035447 1_555
Co0 O16 1.842579 1_555
Co0 O13 1.842579 1_555
Co0 O14 1.842579 1_555
Co0 O15 1.842579 1_555
Co0 O21 2.033406 1_556
Co1 O18 1.842579 1_555
Co1 O19 1.842579 1_555
Co1 O20 1.842579 1_555
Co1 O17 1.842579 1_555
Co1 O21 2.033406 1_555
Co2 O22 1.940149 1_555
Co2 O1 1.951923 1_455
Co2 O2 1.951923 1_545
Co2 O0 1.951923 1_555
Co2 O3 1.951923 1_555
Co2 O12 1.971962 1_556
Co3 O22 1.940149 1_555
Co3 O4 1.951923 1_455
Co3 O7 1.951923 1_545
Co3 O6 1.951923 1_555
Co3 O5 1.951923 1_555
Co3 O12 1.971962 1_555
Co4 O8 1.919329 1_555
Co4 O10 1.992782 1_556
Co4 O2 1.999487 1_555
Co4 O3 1.999487 1_555
Co4 O14 2.135617 1_455
Co4 O13 2.135617 1_555
Co5 O9 1.919329 1_555
Co5 O11 1.992782 1_556
Co5 O1 1.999487 1_555
Co5 O0 1.999487 1_555
Co5 O15 2.135617 1_545
Co5 O16 2.135617 1_555
Co6 O8 1.919329 1_555
Co6 O10 1.992782 1_555
Co6 O6 1.999487 1_555
Co6 O7 1.999487 1_555
Co6 O17 2.135617 1_455
Co6 O18 2.135617 1_555
Co7 O9 1.919329 1_555
Co7 O11 1.992782 1_555
Co7 O4 1.999487 1_555
Co7 O5 1.999487 1_555
Co7 O20 2.135617 1_545
Co7 O19 2.135617 1_555
O0 Pr2 2.582242 1_545
O0 Pr0 2.582242 1_555
O1 Pr1 2.582242 1_545
O1 Pr3 2.582242 1_555
O2 Pr1 2.582242 1_455
O2 Pr2 2.582242 1_555
O3 Pr0 2.582242 1_555
O3 Pr3 2.582242 1_455
O4 Pr1 2.582242 1_545
O4 Pr3 2.582242 1_555
O5 Pr2 2.582242 1_545
O5 Pr0 2.582242 1_555
O6 Pr0 2.582242 1_555
O6 Pr3 2.582242 1_455
O7 Pr1 2.582242 1_455
O7 Pr2 2.582242 1_555
O8 Pr1 2.789456 1_455
O8 Pr0 2.789456 1_555
O8 Pr2 2.789456 1_555
O8 Pr3 2.789456 1_455
O9 Pr2 2.789456 1_545
O9 Pr0 2.789456 1_555
O9 Pr3 2.789456 1_555
O9 Pr1 2.789456 1_545
O13 Pr0 2.641861 1_555
O13 Pr2 2.641861 1_555
O14 Pr1 2.641861 1_555
O14 Pr3 2.641861 1_555
O15 Pr1 2.641861 1_555
O15 Pr2 2.641861 1_555
O16 Pr0 2.641861 1_555
O16 Pr3 2.641861 1_555
O17 Pr1 2.641861 1_555
O17 Pr3 2.641861 1_555
O18 Pr0 2.641861 1_555
O18 Pr2 2.641861 1_555
O19 Pr0 2.641861 1_555
O19 Pr3 2.641861 1_555
O20 Pr1 2.641861 1_555
O20 Pr2 2.641861 1_555
O22 Pr3 2.644681 1_455
O22 Pr1 2.644681 1_445
O22 Pr2 2.644681 1_545
O22 Pr0 2.644681 1_555
