# generated using pymatgen
data_Tl3Au
_symmetry_space_group_name_H-M   'P 1'
_cell_length_a   6.08973000
_cell_length_b   6.08973000
_cell_length_c   6.08973000
_cell_angle_alpha   90.00000000
_cell_angle_beta   90.00000000
_cell_angle_gamma   90.00000000
_symmetry_Int_Tables_number   1
_chemical_formula_structural   Tl3Au
_chemical_formula_sum   'Tl6 Au2'
_cell_volume   225.83648897
_cell_formula_units_Z   2
loop_
 _symmetry_equiv_pos_site_id
 _symmetry_equiv_pos_as_xyz
  1  'x, y, z'
loop_
 _atom_site_type_symbol
 _atom_site_label
 _atom_site_symmetry_multiplicity
 _atom_site_fract_x
 _atom_site_fract_y
 _atom_site_fract_z
 _atom_site_occupancy
  Tl  Tl0  1  0.00000000  0.50000000  0.75000000  1
  Tl  Tl1  1  0.50000000  0.25000000  0.00000000  1
  Tl  Tl2  1  0.75000000  0.00000000  0.50000000  1
  Tl  Tl3  1  0.00000000  0.50000000  0.25000000  1
  Tl  Tl4  1  0.50000000  0.75000000  0.00000000  1
  Tl  Tl5  1  0.25000000  0.00000000  0.50000000  1
  Au  Au0  1  0.50000000  0.50000000  0.50000000  1
  Au  Au1  1  0.00000000  0.00000000  0.00000000  1
loop_
_geom_bond_atom_site_label_1
_geom_bond_atom_site_label_2
_geom_bond_distance
_geom_bond_site_symmetry_2
Tl0 Tl3 3.044865 1_555
Tl0 Tl3 3.044865 1_556
Tl1 Tl4 3.044865 1_545
Tl1 Tl4 3.044865 1_555
Tl2 Tl5 3.044865 1_555
Tl2 Tl5 3.044865 1_655
Au0 Tl3 3.404263 1_655
Au0 Tl0 3.404263 1_655
Au0 Tl3 3.404263 1_555
Au0 Tl4 3.404263 1_555
Au0 Tl1 3.404263 1_555
Au0 Tl4 3.404263 1_556
Au0 Tl1 3.404263 1_556
Au0 Tl5 3.404263 1_555
Au0 Tl2 3.404263 1_555
Au0 Tl5 3.404263 1_565
Au0 Tl2 3.404263 1_565
Au0 Tl0 3.404263 1_555
Au1 Tl3 3.404263 1_545
Au1 Tl5 3.404263 1_554
Au1 Tl1 3.404263 1_455
Au1 Tl0 3.404263 1_544
Au1 Tl4 3.404263 1_545
Au1 Tl1 3.404263 1_555
Au1 Tl0 3.404263 1_554
Au1 Tl2 3.404263 1_455
Au1 Tl5 3.404263 1_555
Au1 Tl2 3.404263 1_454
Au1 Tl4 3.404263 1_445
Au1 Tl3 3.404263 1_555
