# generated using pymatgen
data_YCu2
_symmetry_space_group_name_H-M   'P 1'
_cell_length_a   5.27585804
_cell_length_b   5.27585804
_cell_length_c   5.27585804
_cell_angle_alpha   60.00000000
_cell_angle_beta   60.00000000
_cell_angle_gamma   60.00000000
_symmetry_Int_Tables_number   1
_chemical_formula_structural   YCu2
_chemical_formula_sum   'Y2 Cu4'
_cell_volume   103.83991098
_cell_formula_units_Z   2
loop_
 _symmetry_equiv_pos_site_id
 _symmetry_equiv_pos_as_xyz
  1  'x, y, z'
loop_
 _atom_site_type_symbol
 _atom_site_label
 _atom_site_symmetry_multiplicity
 _atom_site_fract_x
 _atom_site_fract_y
 _atom_site_fract_z
 _atom_site_occupancy
  Y  Y0  1  0.50000000  0.50000000  0.50000000  1
  Y  Y1  1  0.75000000  0.75000000  0.75000000  1
  Cu  Cu0  1  0.62500000  0.12500000  0.12500000  1
  Cu  Cu1  1  0.12500000  0.62500000  0.12500000  1
  Cu  Cu2  1  0.12500000  0.12500000  0.62500000  1
  Cu  Cu3  1  0.12500000  0.12500000  0.12500000  1
loop_
_geom_bond_atom_site_label_1
_geom_bond_atom_site_label_2
_geom_bond_distance
_geom_bond_site_symmetry_2
Y0 Y1 3.230790 1_545
Y0 Y1 3.230790 1_555
Y0 Y1 3.230790 1_554
Y0 Y1 3.230790 1_455
Cu0 Cu3 2.637929 1_655
Cu0 Cu1 2.637929 1_555
Cu0 Cu2 2.637929 1_555
Cu0 Cu1 2.637929 1_645
Cu0 Cu2 2.637929 1_654
Cu0 Cu3 2.637929 1_555
Cu0 Y0 3.093246 1_554
Cu0 Y1 3.093246 1_554
Cu0 Y0 3.093246 1_555
Cu0 Y1 3.093246 1_544
Cu0 Y0 3.093246 1_545
Cu0 Y1 3.093246 1_545
Cu1 Cu2 2.637929 1_555
Cu1 Cu3 2.637929 1_565
Cu1 Cu2 2.637929 1_564
Cu1 Cu3 2.637929 1_555
Cu1 Y0 3.093246 1_554
Cu1 Y1 3.093246 1_455
Cu1 Y0 3.093246 1_555
Cu1 Y1 3.093246 1_454
Cu1 Y1 3.093246 1_554
Cu1 Y0 3.093246 1_455
Cu2 Cu3 2.637929 1_556
Cu2 Cu3 2.637929 1_555
Cu2 Y0 3.093246 1_555
Cu2 Y1 3.093246 1_445
Cu2 Y1 3.093246 1_545
Cu2 Y0 3.093246 1_455
Cu2 Y1 3.093246 1_455
Cu2 Y0 3.093246 1_545
Cu3 Y0 3.093246 1_455
Cu3 Y1 3.093246 1_544
Cu3 Y1 3.093246 1_445
Cu3 Y1 3.093246 1_454
Cu3 Y0 3.093246 1_545
Cu3 Y0 3.093246 1_554
