# generated using pymatgen
data_BaZn(SeO3)2
_symmetry_space_group_name_H-M   'P 1'
_cell_length_a   5.75733054
_cell_length_b   7.02897085
_cell_length_c   26.36838700
_cell_angle_alpha   90.00000000
_cell_angle_beta   90.00000000
_cell_angle_gamma   111.81186598
_symmetry_Int_Tables_number   1
_chemical_formula_structural   BaZn(SeO3)2
_chemical_formula_sum   'Ba4 Zn4 Se8 O24'
_cell_volume   990.68540206
_cell_formula_units_Z   4
loop_
 _symmetry_equiv_pos_site_id
 _symmetry_equiv_pos_as_xyz
  1  'x, y, z'
loop_
 _atom_site_type_symbol
 _atom_site_label
 _atom_site_symmetry_multiplicity
 _atom_site_fract_x
 _atom_site_fract_y
 _atom_site_fract_z
 _atom_site_occupancy
  Ba  Ba0  1  0.59440400  0.94269300  0.35997900  1
  Ba  Ba1  1  0.59440400  0.44269300  0.14002000  1
  Ba  Ba2  1  0.40559600  0.05730700  0.64002000  1
  Ba  Ba3  1  0.40559600  0.55730700  0.85998000  1
  Zn  Zn0  1  0.78880600  0.53262600  0.52396100  1
  Zn  Zn1  1  0.21119400  0.46737400  0.47603900  1
  Zn  Zn2  1  0.21119400  0.96737400  0.02396100  1
  Zn  Zn3  1  0.78880600  0.03262600  0.97603900  1
  Se  Se0  1  0.85275300  0.14948500  0.53112100  1
  Se  Se1  1  0.14724700  0.35051500  0.03112100  1
  Se  Se2  1  0.21472100  0.24144400  0.37861700  1
  Se  Se3  1  0.85275300  0.64948500  0.96887900  1
  Se  Se4  1  0.78527900  0.75855600  0.62138300  1
  Se  Se5  1  0.78527900  0.25855600  0.87861700  1
  Se  Se6  1  0.14724700  0.85051500  0.46887900  1
  Se  Se7  1  0.21472100  0.74144400  0.12138300  1
  O  O0  1  0.53375600  0.74170900  0.65727100  1
  O  O1  1  0.17413000  0.71216500  0.52462000  1
  O  O2  1  0.82587000  0.28783500  0.47538000  1
  O  O3  1  0.73326300  0.30038300  0.56955000  1
  O  O4  1  0.26673700  0.69961700  0.43045000  1
  O  O5  1  0.26673700  0.19961700  0.06955000  1
  O  O6  1  0.46624400  0.25829100  0.34272900  1
  O  O7  1  0.99238600  0.26523700  0.33992900  1
  O  O8  1  0.73326300  0.80038300  0.93045000  1
  O  O9  1  0.91812000  0.52756200  0.88959300  1
  O  O10  1  0.00761400  0.73476300  0.66007100  1
  O  O11  1  0.17413000  0.21216500  0.97538000  1
  O  O12  1  0.91812000  0.02756200  0.61040700  1
  O  O13  1  0.18217400  0.26296400  0.52997500  1
  O  O14  1  0.53375600  0.24170900  0.84272900  1
  O  O15  1  0.08188000  0.47243800  0.11040700  1
  O  O16  1  0.82587000  0.78783500  0.02462000  1
  O  O17  1  0.00761400  0.23476300  0.83992900  1
  O  O18  1  0.18217400  0.76296400  0.97002500  1
  O  O19  1  0.81782600  0.73703600  0.47002500  1
  O  O20  1  0.81782600  0.23703600  0.02997500  1
  O  O21  1  0.08188000  0.97243800  0.38959300  1
  O  O22  1  0.99238600  0.76523700  0.16007100  1
  O  O23  1  0.46624400  0.75829100  0.15727100  1
loop_
_geom_bond_atom_site_label_1
_geom_bond_atom_site_label_2
_geom_bond_distance
_geom_bond_site_symmetry_2
Ba0 O7 2.609459 1_565
Ba0 O6 2.624626 1_565
Ba0 O4 2.745135 1_555
Ba0 O21 2.845032 1_655
Ba0 O21 3.133525 1_555
Ba1 O22 2.609465 1_555
Ba1 O23 2.624631 1_555
Ba1 O5 2.745117 1_555
Ba1 O15 2.845024 1_655
Ba1 O15 3.133518 1_555
Ba2 O10 2.609465 1_545
Ba2 O0 2.624631 1_545
Ba2 O3 2.745117 1_555
Ba2 O12 2.845024 1_455
Ba2 O12 3.133518 1_555
Ba3 O17 2.609465 1_555
Ba3 O14 2.624631 1_555
Ba3 O8 2.745117 1_555
Ba3 O9 2.845024 1_455
Ba3 O9 3.133518 1_555
O0 Se4 1.696788 1_555
O1 Se6 1.800497 1_555
O1 Zn0 2.105683 1_455
O1 Zn1 2.218088 1_555
O2 Se0 1.800497 1_555
O2 Zn1 2.105683 1_655
O2 Zn0 2.218088 1_555
O3 Se0 1.779689 1_555
O3 Zn0 1.955563 1_555
O4 Se6 1.779689 1_555
O4 Zn1 1.955563 1_555
O5 Se1 1.779689 1_555
O5 Zn2 1.955563 1_545
O6 Se2 1.696788 1_555
O7 Se2 1.693010 1_655
O8 Se3 1.779689 1_555
O8 Zn3 1.955563 1_565
O9 Se5 1.780255 1_555
O9 Se3 2.342335 1_555
O10 Se4 1.693010 1_455
O11 Se1 1.800497 1_556
O11 Zn3 2.105683 1_455
O11 Zn2 2.218088 1_546
O12 Se4 1.780255 1_545
O12 Se0 2.342335 1_555
O13 Se0 1.763517 1_455
O13 Zn1 1.984078 1_555
O14 Se5 1.696788 1_555
O15 Se7 1.780255 1_555
O15 Se1 2.342335 1_555
O16 Se3 1.800497 1_554
O16 Zn2 2.105683 1_655
O16 Zn3 2.218088 1_564
O17 Se5 1.693010 1_455
O18 Se3 1.763517 1_455
O18 Zn2 1.984078 1_556
O19 Se6 1.763517 1_655
O19 Zn0 1.984078 1_555
O20 Se1 1.763517 1_655
O20 Zn3 1.984078 1_554
O21 Se2 1.780255 1_565
O21 Se6 2.342335 1_555
O22 Se7 1.693010 1_655
O23 Se7 1.696788 1_555
