# generated using pymatgen
data_Mg6MnSnO8
_symmetry_space_group_name_H-M   'P 1'
_cell_length_a   4.47535500
_cell_length_b   4.47535500
_cell_length_c   8.86906300
_cell_angle_alpha   90.00000000
_cell_angle_beta   90.00000000
_cell_angle_gamma   90.00000000
_symmetry_Int_Tables_number   1
_chemical_formula_structural   Mg6MnSnO8
_chemical_formula_sum   'Mg6 Mn1 Sn1 O8'
_cell_volume   177.63671009
_cell_formula_units_Z   1
loop_
 _symmetry_equiv_pos_site_id
 _symmetry_equiv_pos_as_xyz
  1  'x, y, z'
loop_
 _atom_site_type_symbol
 _atom_site_label
 _atom_site_symmetry_multiplicity
 _atom_site_fract_x
 _atom_site_fract_y
 _atom_site_fract_z
 _atom_site_occupancy
  Mg  Mg0  1  0.00000000  0.00000000  0.50000000  1
  Mg  Mg1  1  0.50000000  0.50000000  0.50000000  1
  Mg  Mg2  1  0.00000000  0.50000000  0.26308200  1
  Mg  Mg3  1  0.00000000  0.50000000  0.73691800  1
  Mg  Mg4  1  0.50000000  0.00000000  0.26308200  1
  Mg  Mg5  1  0.50000000  0.00000000  0.73691800  1
  Mn  Mn0  1  0.00000000  0.00000000  0.00000000  1
  Sn  Sn0  1  0.50000000  0.50000000  0.00000000  1
  O  O0  1  0.00000000  0.00000000  0.25897000  1
  O  O1  1  0.00000000  0.00000000  0.74103000  1
  O  O2  1  0.50000000  0.50000000  0.27426100  1
  O  O3  1  0.50000000  0.50000000  0.72573900  1
  O  O4  1  0.00000000  0.50000000  0.00000000  1
  O  O5  1  0.00000000  0.50000000  0.50000000  1
  O  O6  1  0.50000000  0.00000000  0.00000000  1
  O  O7  1  0.50000000  0.00000000  0.50000000  1
loop_
_geom_bond_atom_site_label_1
_geom_bond_atom_site_label_2
_geom_bond_distance
_geom_bond_site_symmetry_2
Mg0 O0 2.137710 1_555
Mg0 O1 2.137710 1_555
Mg0 O5 2.237678 1_555
Mg0 O7 2.237678 1_455
Mg0 O5 2.237678 1_545
Mg0 O7 2.237678 1_555
Mg1 O3 2.002093 1_555
Mg1 O2 2.002093 1_555
Mg1 O7 2.237678 1_565
Mg1 O5 2.237678 1_655
Mg1 O5 2.237678 1_555
Mg1 O7 2.237678 1_555
Mg2 O5 2.101241 1_555
Mg2 O0 2.237975 1_565
Mg2 O0 2.237975 1_555
Mg2 O2 2.239873 1_555
Mg2 O2 2.239873 1_455
Mg2 O4 2.333291 1_555
Mg3 O5 2.101241 1_555
Mg3 O1 2.237975 1_555
Mg3 O1 2.237975 1_565
Mg3 O3 2.239873 1_455
Mg3 O3 2.239873 1_555
Mg3 O4 2.333291 1_556
Mg4 O7 2.101241 1_555
Mg4 O0 2.237975 1_655
Mg4 O0 2.237975 1_555
Mg4 O2 2.239873 1_555
Mg4 O2 2.239873 1_545
Mg4 O6 2.333291 1_555
Mg5 O7 2.101241 1_555
Mg5 O1 2.237975 1_555
Mg5 O1 2.237975 1_655
Mg5 O3 2.239873 1_545
Mg5 O3 2.239873 1_555
Mg5 O6 2.333291 1_556
Mn0 O6 2.237678 1_455
Mn0 O4 2.237678 1_545
Mn0 O6 2.237678 1_555
Mn0 O4 2.237678 1_555
Mn0 O1 2.296821 1_554
Mn0 O0 2.296821 1_555
O2 Sn0 2.432438 1_555
O3 Sn0 2.432438 1_556
O4 Sn0 2.237678 1_455
O4 Sn0 2.237678 1_555
O6 Sn0 2.237678 1_555
O6 Sn0 2.237678 1_545
