# generated using pymatgen
data_Mo
_symmetry_space_group_name_H-M   'P 1'
_cell_length_a   5.11036140
_cell_length_b   5.47102168
_cell_length_c   5.47101991
_cell_angle_alpha   119.99997582
_cell_angle_beta   90.00000000
_cell_angle_gamma   90.00000000
_symmetry_Int_Tables_number   1
_chemical_formula_structural   Mo
_chemical_formula_sum   Mo8
_cell_volume   132.47047164
_cell_formula_units_Z   8
loop_
 _symmetry_equiv_pos_site_id
 _symmetry_equiv_pos_as_xyz
  1  'x, y, z'
loop_
 _atom_site_type_symbol
 _atom_site_label
 _atom_site_symmetry_multiplicity
 _atom_site_fract_x
 _atom_site_fract_y
 _atom_site_fract_z
 _atom_site_occupancy
  Mo  Mo0_0  1  0.25000000  0.00000000  0.00000000  1
  Mo  Mo0_1  1  0.25000000  0.00000000  0.50000000  1
  Mo  Mo0_2  1  0.25000000  0.50000000  0.00000000  1
  Mo  Mo0_3  1  0.25000000  0.50000000  0.50000000  1
  Mo  Mo0_4  1  0.75000000  0.00000000  0.00000000  1
  Mo  Mo0_5  1  0.75000000  0.00000000  0.50000000  1
  Mo  Mo0_6  1  0.75000000  0.50000000  0.00000000  1
  Mo  Mo0_7  1  0.75000000  0.50000000  0.50000000  1
loop_
_geom_bond_atom_site_label_1
_geom_bond_atom_site_label_2
_geom_bond_distance
_geom_bond_site_symmetry_2
Mo0_0 Mo0_4 2.555181 1_455
Mo0_0 Mo0_4 2.555181 1_555
Mo0_0 Mo0_1 2.735510 1_555
Mo0_0 Mo0_1 2.735510 1_554
Mo0_0 Mo0_2 2.735511 1_545
Mo0_0 Mo0_2 2.735511 1_555
Mo0_0 Mo0_3 2.735511 1_544
Mo0_0 Mo0_3 2.735511 1_555
Mo0_1 Mo0_5 2.555181 1_555
Mo0_1 Mo0_5 2.555181 1_455
Mo0_1 Mo0_3 2.735511 1_555
Mo0_1 Mo0_3 2.735511 1_545
Mo0_1 Mo0_2 2.735511 1_556
Mo0_1 Mo0_2 2.735511 1_545
Mo0_2 Mo0_6 2.555181 1_455
Mo0_2 Mo0_6 2.555181 1_555
Mo0_2 Mo0_3 2.735510 1_554
Mo0_2 Mo0_3 2.735510 1_555
Mo0_3 Mo0_7 2.555181 1_555
Mo0_3 Mo0_7 2.555181 1_455
Mo0_4 Mo0_5 2.735510 1_555
Mo0_4 Mo0_5 2.735510 1_554
Mo0_4 Mo0_6 2.735511 1_545
Mo0_4 Mo0_6 2.735511 1_555
Mo0_4 Mo0_7 2.735511 1_555
Mo0_4 Mo0_7 2.735511 1_544
Mo0_5 Mo0_7 2.735511 1_555
Mo0_5 Mo0_7 2.735511 1_545
Mo0_5 Mo0_6 2.735511 1_556
Mo0_5 Mo0_6 2.735511 1_545
Mo0_6 Mo0_7 2.735510 1_555
Mo0_6 Mo0_7 2.735510 1_554
