# generated using pymatgen
data_Rh
_symmetry_space_group_name_H-M   'P 1'
_cell_length_a   10.17343400
_cell_length_b   5.09605600
_cell_length_c   5.09605600
_cell_angle_alpha   90.00000000
_cell_angle_beta   90.00000000
_cell_angle_gamma   90.00000000
_symmetry_Int_Tables_number   1
_chemical_formula_structural   Rh
_chemical_formula_sum   Rh16
_cell_volume   264.20191155
_cell_formula_units_Z   16
loop_
 _symmetry_equiv_pos_site_id
 _symmetry_equiv_pos_as_xyz
  1  'x, y, z'
loop_
 _atom_site_type_symbol
 _atom_site_label
 _atom_site_symmetry_multiplicity
 _atom_site_fract_x
 _atom_site_fract_y
 _atom_site_fract_z
 _atom_site_occupancy
  Rh  Rh0_0  1  0.12500000  0.25000000  0.25000000  1
  Rh  Rh0_1  1  0.12500000  0.25000000  0.75000000  1
  Rh  Rh0_2  1  0.12500000  0.75000000  0.25000000  1
  Rh  Rh0_3  1  0.12500000  0.75000000  0.75000000  1
  Rh  Rh0_4  1  0.62500000  0.25000000  0.25000000  1
  Rh  Rh0_5  1  0.62500000  0.25000000  0.75000000  1
  Rh  Rh0_6  1  0.62500000  0.75000000  0.25000000  1
  Rh  Rh0_7  1  0.62500000  0.75000000  0.75000000  1
  Rh  Rh1_0  1  0.37500000  0.25000000  0.25000000  1
  Rh  Rh1_1  1  0.37500000  0.25000000  0.75000000  1
  Rh  Rh1_2  1  0.37500000  0.75000000  0.25000000  1
  Rh  Rh1_3  1  0.37500000  0.75000000  0.75000000  1
  Rh  Rh1_4  1  0.87500000  0.25000000  0.25000000  1
  Rh  Rh1_5  1  0.87500000  0.25000000  0.75000000  1
  Rh  Rh1_6  1  0.87500000  0.75000000  0.25000000  1
  Rh  Rh1_7  1  0.87500000  0.75000000  0.75000000  1
loop_
_geom_bond_atom_site_label_1
_geom_bond_atom_site_label_2
_geom_bond_distance
_geom_bond_site_symmetry_2
Rh0_0 Rh1_4 2.543359 1_455
Rh0_0 Rh1_0 2.543359 1_555
Rh0_0 Rh0_1 2.548028 1_555
Rh0_0 Rh0_1 2.548028 1_554
Rh0_0 Rh0_2 2.548028 1_545
Rh0_0 Rh0_2 2.548028 1_555
Rh0_1 Rh1_1 2.543359 1_555
Rh0_1 Rh1_5 2.543359 1_455
Rh0_1 Rh0_3 2.548028 1_555
Rh0_1 Rh0_3 2.548028 1_545
Rh0_2 Rh1_2 2.543359 1_555
Rh0_2 Rh1_6 2.543359 1_455
Rh0_2 Rh0_3 2.548028 1_554
Rh0_2 Rh0_3 2.548028 1_555
Rh0_3 Rh1_7 2.543359 1_455
Rh0_3 Rh1_3 2.543359 1_555
Rh0_4 Rh1_0 2.543359 1_555
Rh0_4 Rh1_4 2.543359 1_555
Rh0_4 Rh0_5 2.548028 1_555
Rh0_4 Rh0_6 2.548028 1_555
Rh0_4 Rh0_5 2.548028 1_554
Rh0_4 Rh0_6 2.548028 1_545
Rh0_5 Rh1_1 2.543359 1_555
Rh0_5 Rh1_5 2.543359 1_555
Rh0_5 Rh0_7 2.548028 1_545
Rh0_5 Rh0_7 2.548028 1_555
Rh0_6 Rh1_6 2.543359 1_555
Rh0_6 Rh1_2 2.543359 1_555
Rh0_6 Rh0_7 2.548028 1_555
Rh0_6 Rh0_7 2.548028 1_554
Rh0_7 Rh1_7 2.543359 1_555
Rh0_7 Rh1_3 2.543359 1_555
Rh1_0 Rh1_2 2.548028 1_545
Rh1_0 Rh1_1 2.548028 1_554
Rh1_0 Rh1_2 2.548028 1_555
Rh1_0 Rh1_1 2.548028 1_555
Rh1_1 Rh1_3 2.548028 1_555
Rh1_1 Rh1_3 2.548028 1_545
Rh1_2 Rh1_3 2.548028 1_555
Rh1_2 Rh1_3 2.548028 1_554
Rh1_4 Rh1_5 2.548028 1_555
Rh1_4 Rh1_6 2.548028 1_545
Rh1_4 Rh1_6 2.548028 1_555
Rh1_4 Rh1_5 2.548028 1_554
Rh1_5 Rh1_7 2.548028 1_555
Rh1_5 Rh1_7 2.548028 1_545
Rh1_6 Rh1_7 2.548028 1_555
Rh1_6 Rh1_7 2.548028 1_554
