# generated using pymatgen
data_Li4MnFe3(BO3)4
_symmetry_space_group_name_H-M   'P 1'
_cell_length_a   5.20945900
_cell_length_b   5.21715111
_cell_length_c   10.40281557
_cell_angle_alpha   90.67404248
_cell_angle_beta   91.00879627
_cell_angle_gamma   119.74463066
_symmetry_Int_Tables_number   1
_chemical_formula_structural   Li4MnFe3(BO3)4
_chemical_formula_sum   'Li4 Mn1 Fe3 B4 O12'
_cell_volume   245.37536366
_cell_formula_units_Z   1
loop_
 _symmetry_equiv_pos_site_id
 _symmetry_equiv_pos_as_xyz
  1  'x, y, z'
loop_
 _atom_site_type_symbol
 _atom_site_label
 _atom_site_symmetry_multiplicity
 _atom_site_fract_x
 _atom_site_fract_y
 _atom_site_fract_z
 _atom_site_occupancy
  Li  Li0  1  0.67988300  0.65258100  0.66697800  1
  Li  Li1  1  0.65335600  0.67819200  0.16929600  1
  Li  Li2  1  0.34984800  0.34040200  0.41703200  1
  Li  Li3  1  0.33871200  0.34766200  0.91676300  1
  Mn  Mn0  1  0.67235000  0.00505700  0.88341900  1
  Fe  Fe0  1  0.31763100  0.00535400  0.13201700  1
  Fe  Fe1  1  0.00376600  0.31892900  0.63259300  1
  Fe  Fe2  1  0.00998300  0.66656600  0.38197900  1
  B  B0  1  0.99618100  0.33927100  0.12708400  1
  B  B1  1  0.66422200  0.00462800  0.37571000  1
  B  B2  1  0.33815200  0.99644100  0.62542200  1
  B  B3  1  0.00518100  0.66546500  0.87561300  1
  O  O0  1  0.92788000  0.25380600  0.41693500  1
  O  O1  1  0.74265700  0.06864800  0.09845500  1
  O  O2  1  0.97355500  0.58312600  0.16597200  1
  O  O3  1  0.41522900  0.03270300  0.34549000  1
  O  O4  1  0.72820900  0.63791600  0.86136000  1
  O  O5  1  0.64768100  0.73350800  0.36221100  1
  O  O6  1  0.36288400  0.27310600  0.61197000  1
  O  O7  1  0.27267200  0.36381100  0.11300300  1
  O  O8  1  0.58426200  0.97544600  0.66488400  1
  O  O9  1  0.04136900  0.42364800  0.84396000  1
  O  O10  1  0.24645800  0.93097200  0.91898300  1
  O  O11  1  0.06847800  0.74336300  0.59667700  1
loop_
_geom_bond_atom_site_label_1
_geom_bond_atom_site_label_2
_geom_bond_distance
_geom_bond_site_symmetry_2
Li0 O6 1.915732 1_555
Li0 O8 1.979647 1_555
Li0 O11 1.991516 1_655
Li0 O4 2.040350 1_555
Li1 O7 1.917015 1_555
Li1 O2 1.962695 1_555
Li1 O1 2.004048 1_565
Li1 O5 2.026961 1_555
Li2 O3 1.941722 1_555
Li2 O5 1.959569 1_555
Li2 O0 2.012652 1_455
Li2 O6 2.067809 1_555
Li3 O9 1.924893 1_555
Li3 O4 1.937845 1_555
Li3 O10 1.980496 1_545
Li3 O7 2.083846 1_556
Mn0 O4 2.085975 1_545
Mn0 O10 2.095257 1_545
Mn0 O9 2.125183 1_655
Mn0 O1 2.254198 1_556
Mn0 O8 2.299426 1_545
Fe0 O7 2.008242 1_555
Fe0 O2 2.076718 1_445
Fe0 O1 2.106624 1_555
Fe0 O10 2.237736 1_544
Fe0 O3 2.256383 1_555
Fe1 O6 2.014901 1_555
Fe1 O8 2.062547 1_445
Fe1 O11 2.107063 1_555
Fe1 O9 2.240983 1_555
Fe1 O0 2.263260 1_455
Fe2 O0 2.015542 1_455
Fe2 O3 2.072085 1_565
Fe2 O5 2.090126 1_455
Fe2 O11 2.252905 1_555
Fe2 O2 2.270437 1_455
B0 O2 1.390857 1_555
B0 O7 1.391904 1_655
B0 O1 1.397277 1_555
B1 O5 1.379072 1_545
B1 O0 1.398154 1_555
B1 O3 1.406431 1_555
B2 O6 1.393001 1_565
B2 O11 1.393453 1_555
B2 O8 1.395054 1_555
B3 O4 1.382287 1_455
B3 O10 1.392792 1_555
B3 O9 1.401427 1_555
