# generated using pymatgen
data_Pr2MgSi4
_symmetry_space_group_name_H-M   'P 1'
_cell_length_a   6.10843000
_cell_length_b   6.10843000
_cell_length_c   17.56349154
_cell_angle_alpha   100.01439891
_cell_angle_beta   100.01439891
_cell_angle_gamma   90.00000000
_symmetry_Int_Tables_number   1
_chemical_formula_structural   Pr2MgSi4
_chemical_formula_sum   'Pr8 Mg4 Si16'
_cell_volume   635.21860753
_cell_formula_units_Z   4
loop_
 _symmetry_equiv_pos_site_id
 _symmetry_equiv_pos_as_xyz
  1  'x, y, z'
loop_
 _atom_site_type_symbol
 _atom_site_label
 _atom_site_symmetry_multiplicity
 _atom_site_fract_x
 _atom_site_fract_y
 _atom_site_fract_z
 _atom_site_occupancy
  Pr  Pr0  1  0.80054800  0.05213800  0.60109500  1
  Pr  Pr1  1  0.80054800  0.54895800  0.60109500  1
  Pr  Pr2  1  0.79895800  0.55054800  0.10109500  1
  Pr  Pr3  1  0.44970100  0.20119600  0.89940300  1
  Pr  Pr4  1  0.44970100  0.69820700  0.89940300  1
  Pr  Pr5  1  0.30213800  0.55054800  0.10109500  1
  Pr  Pr6  1  0.45119600  0.19970100  0.39940300  1
  Pr  Pr7  1  0.94820700  0.19970100  0.39940300  1
  Mg  Mg0  1  0.12506100  0.37457700  0.25012200  1
  Mg  Mg1  1  0.12506100  0.87554400  0.25012200  1
  Mg  Mg2  1  0.12554400  0.87506100  0.75012200  1
  Mg  Mg3  1  0.62457700  0.87506100  0.75012200  1
  Si  Si0  1  0.26433600  0.50056600  0.52867200  1
  Si  Si1  1  0.26433600  0.02810600  0.52867200  1
  Si  Si2  1  0.27810600  0.01433600  0.02867200  1
  Si  Si3  1  0.98579100  0.71936800  0.97158100  1
  Si  Si4  1  0.98579100  0.25221400  0.97158100  1
  Si  Si5  1  0.75056600  0.01433600  0.02867200  1
  Si  Si6  1  0.96936800  0.73579100  0.47158100  1
  Si  Si7  1  0.50221400  0.73579100  0.47158100  1
  Si  Si8  1  0.33394300  0.52834200  0.66788500  1
  Si  Si9  1  0.33394300  0.13954300  0.66788500  1
  Si  Si10  1  0.38954300  0.08394300  0.16788500  1
  Si  Si11  1  0.91608100  0.61019800  0.83216200  1
  Si  Si12  1  0.91608100  0.22196400  0.83216200  1
  Si  Si13  1  0.77834200  0.08394300  0.16788500  1
  Si  Si14  1  0.86019800  0.66608100  0.33216200  1
  Si  Si15  1  0.47196400  0.66608100  0.33216200  1
loop_
_geom_bond_atom_site_label_1
_geom_bond_atom_site_label_2
_geom_bond_distance
_geom_bond_site_symmetry_2
Pr0 Pr1 3.034790 1_555
Pr0 Si6 3.042851 1_545
Pr0 Si7 3.042851 1_545
Pr0 Pr1 3.073640 1_545
Pr0 Si9 3.275658 1_555
Pr0 Si9 3.275658 1_655
Pr0 Si1 3.294522 1_655
Pr0 Si1 3.294528 1_555
Pr1 Si7 3.042851 1_555
Pr1 Si6 3.042851 1_555
Pr1 Si8 3.275658 1_555
Pr1 Si8 3.275658 1_655
Pr1 Si0 3.294522 1_655
Pr1 Si0 3.294528 1_555
Pr2 Pr5 3.034790 1_555
Pr2 Si4 3.042851 1_554
Pr2 Si3 3.042851 1_554
Pr2 Pr5 3.073640 1_655
Pr2 Si13 3.275658 1_565
Pr2 Si13 3.275658 1_555
Pr2 Si5 3.294522 1_565
Pr2 Si5 3.294528 1_555
Pr3 Pr4 3.035957 1_555
Pr3 Si2 3.047175 1_556
Pr3 Si5 3.047177 1_556
Pr3 Pr4 3.072473 1_545
Pr3 Si12 3.278561 1_455
Pr3 Si12 3.278567 1_555
Pr3 Si4 3.293383 1_455
Pr3 Si4 3.293394 1_555
Pr4 Si2 3.047175 1_566
Pr4 Si5 3.047177 1_566
Pr4 Si11 3.278561 1_455
Pr4 Si11 3.278567 1_555
Pr4 Si3 3.293383 1_455
Pr4 Si3 3.293394 1_555
Pr5 Si4 3.042851 1_454
Pr5 Si3 3.042851 1_454
Pr5 Si10 3.275658 1_565
Pr5 Si10 3.275658 1_555
Pr5 Si2 3.294522 1_565
Pr5 Si2 3.294528 1_555
Pr6 Pr7 3.035957 1_555
Pr6 Si1 3.047175 1_555
Pr6 Si0 3.047177 1_555
Pr6 Pr7 3.072473 1_455
Pr6 Si15 3.278561 1_545
Pr6 Si15 3.278567 1_555
Pr6 Si7 3.293383 1_545
Pr6 Si7 3.293394 1_555
Pr7 Si1 3.047175 1_655
Pr7 Si0 3.047177 1_655
Pr7 Si14 3.278561 1_545
Pr7 Si14 3.278567 1_555
Pr7 Si6 3.293383 1_545
Pr7 Si6 3.293394 1_555
Mg0 Si13 2.787072 1_455
Mg0 Si10 2.787072 1_555
Mg0 Si15 2.789786 1_555
Mg0 Si14 2.789786 1_455
Mg0 Pr2 3.337594 1_455
Mg0 Pr5 3.337597 1_555
Mg0 Pr6 3.337911 1_555
Mg0 Pr7 3.337911 1_455
Mg1 Si13 2.787079 1_465
Mg1 Si10 2.787079 1_565
Mg1 Si15 2.789783 1_555
Mg1 Si14 2.789783 1_455
Mg1 Pr2 3.337588 1_455
Mg1 Pr5 3.337591 1_555
Mg1 Pr6 3.337911 1_565
Mg1 Pr7 3.337911 1_465
Mg2 Si8 2.787079 1_555
Mg2 Si9 2.787079 1_565
Mg2 Si11 2.789783 1_455
Mg2 Si12 2.789783 1_465
Mg2 Pr1 3.337588 1_455
Mg2 Pr0 3.337591 1_465
Mg2 Pr3 3.337911 1_565
Mg2 Pr4 3.337911 1_555
Mg3 Si8 2.787072 1_555
Mg3 Si9 2.787072 1_565
Mg3 Si11 2.789786 1_555
Mg3 Si12 2.789786 1_565
Mg3 Pr1 3.337594 1_555
Mg3 Pr0 3.337597 1_565
Mg3 Pr3 3.337911 1_565
Mg3 Pr4 3.337911 1_555
Si0 Si8 2.383710 1_555
Si0 Si6 2.487807 1_455
Si0 Si7 2.487811 1_555
Si0 Si1 2.885989 1_555
Si1 Si9 2.383710 1_555
Si1 Si6 2.487803 1_445
Si1 Si7 2.487807 1_545
Si2 Si3 2.487803 1_444
Si2 Si4 2.487807 1_454
Si2 Si5 2.885989 1_555
Si3 Si5 2.487807 1_566
Si3 Si4 2.853578 1_555
Si4 Si5 2.487811 1_556
Si6 Si7 2.853578 1_555
Si8 Si9 2.374951 1_555
Si10 Si13 2.374951 1_555
Si10 Si2 2.383710 1_555
Si11 Si12 2.371500 1_555
Si11 Si3 2.385690 1_555
Si12 Si4 2.385690 1_555
Si13 Si5 2.383710 1_555
Si14 Si15 2.371500 1_555
Si14 Si6 2.385690 1_555
Si15 Si7 2.385690 1_555
