# generated using pymatgen
data_Ca3Ge13Ir4
_symmetry_space_group_name_H-M   'P 1'
_cell_length_a   9.05028657
_cell_length_b   9.05028657
_cell_length_c   9.05028657
_cell_angle_alpha   90.00000000
_cell_angle_beta   90.00000000
_cell_angle_gamma   90.00000000
_symmetry_Int_Tables_number   1
_chemical_formula_structural   Ca3Ge13Ir4
_chemical_formula_sum   'Ca6 Ge26 Ir8'
_cell_volume   741.28803963
_cell_formula_units_Z   2
loop_
 _symmetry_equiv_pos_site_id
 _symmetry_equiv_pos_as_xyz
  1  'x, y, z'
loop_
 _atom_site_type_symbol
 _atom_site_label
 _atom_site_symmetry_multiplicity
 _atom_site_fract_x
 _atom_site_fract_y
 _atom_site_fract_z
 _atom_site_occupancy
  Ca  Ca0  1  0.00000000  0.50000000  0.75000000  1
  Ca  Ca1  1  0.50000000  0.25000000  0.00000000  1
  Ca  Ca2  1  0.75000000  -0.00000000  0.50000000  1
  Ca  Ca3  1  0.00000000  0.50000000  0.25000000  1
  Ca  Ca4  1  0.50000000  0.75000000  0.00000000  1
  Ca  Ca5  1  0.25000000  -0.00000000  0.50000000  1
  Ge  Ge0  1  0.50000000  0.50000000  0.50000000  1
  Ge  Ge1  1  0.00000000  -0.00000000  0.00000000  1
  Ge  Ge2  1  0.79487020  0.35834018  0.50000000  1
  Ge  Ge3  1  0.64165982  0.50000000  0.79487020  1
  Ge  Ge4  1  0.50000000  0.20512980  0.64165982  1
  Ge  Ge5  1  0.20512980  0.64165982  0.50000000  1
  Ge  Ge6  1  0.35834018  0.50000000  0.20512980  1
  Ge  Ge7  1  0.50000000  0.79487020  0.35834018  1
  Ge  Ge8  1  0.79487020  0.64165982  0.50000000  1
  Ge  Ge9  1  0.64165982  0.50000000  0.20512980  1
  Ge  Ge10  1  0.20512980  0.35834018  0.50000000  1
  Ge  Ge11  1  0.35834018  0.50000000  0.79487020  1
  Ge  Ge12  1  0.50000000  0.79487020  0.64165982  1
  Ge  Ge13  1  0.50000000  0.20512980  0.35834018  1
  Ge  Ge14  1  0.29487020  -0.00000000  0.85834018  1
  Ge  Ge15  1  0.14165982  0.29487020  0.00000000  1
  Ge  Ge16  1  -0.00000000  0.14165982  0.70512980  1
  Ge  Ge17  1  0.70512980  -0.00000000  0.14165982  1
  Ge  Ge18  1  0.85834018  0.70512980  0.00000000  1
  Ge  Ge19  1  0.00000000  0.85834018  0.29487020  1
  Ge  Ge20  1  0.29487020  -0.00000000  0.14165982  1
  Ge  Ge21  1  0.14165982  0.70512980  0.00000000  1
  Ge  Ge22  1  0.70512980  -0.00000000  0.85834018  1
  Ge  Ge23  1  0.85834018  0.29487020  0.00000000  1
  Ge  Ge24  1  -0.00000000  0.14165982  0.29487020  1
  Ge  Ge25  1  0.00000000  0.85834018  0.70512980  1
  Ir  Ir0  1  0.75000000  0.25000000  0.75000000  1
  Ir  Ir1  1  0.25000000  0.75000000  0.25000000  1
  Ir  Ir2  1  0.75000000  0.75000000  0.25000000  1
  Ir  Ir3  1  0.25000000  0.25000000  0.75000000  1
  Ir  Ir4  1  0.25000000  0.75000000  0.75000000  1
  Ir  Ir5  1  0.75000000  0.25000000  0.25000000  1
  Ir  Ir6  1  0.25000000  0.25000000  0.25000000  1
  Ir  Ir7  1  0.75000000  0.75000000  0.75000000  1
loop_
_geom_bond_atom_site_label_1
_geom_bond_atom_site_label_2
_geom_bond_distance
_geom_bond_site_symmetry_2
Ca0 Ge21 3.195222 1_556
Ca0 Ge18 3.195222 1_456
Ca0 Ge10 3.195222 1_555
Ca0 Ge5 3.195222 1_555
Ca0 Ge8 3.195222 1_455
Ca0 Ge2 3.195222 1_455
Ca0 Ge23 3.195222 1_456
Ca0 Ge15 3.195222 1_556
Ca0 Ir0 3.199760 1_455
Ca0 Ir7 3.199760 1_455
Ca0 Ir4 3.199760 1_555
Ca0 Ir3 3.199760 1_555
Ca0 Ge3 3.268407 1_455
Ca0 Ge11 3.268407 1_555
Ca0 Ge25 3.268407 1_555
Ca0 Ge16 3.268407 1_555
Ca1 Ge22 3.195222 1_554
Ca1 Ge17 3.195222 1_555
Ca1 Ge11 3.195222 1_554
Ca1 Ge6 3.195222 1_555
Ca1 Ge3 3.195222 1_554
Ca1 Ge9 3.195222 1_555
Ca1 Ge20 3.195222 1_555
Ca1 Ge14 3.195222 1_554
Ca1 Ir6 3.199760 1_555
Ca1 Ir3 3.199760 1_554
Ca1 Ir5 3.199760 1_555
Ca1 Ir0 3.199760 1_554
Ca1 Ge23 3.268407 1_555
Ca1 Ge15 3.268407 1_555
Ca1 Ge4 3.268407 1_554
Ca1 Ge13 3.268407 1_555
Ca2 Ge25 3.195222 1_645
Ca2 Ge16 3.195222 1_655
Ca2 Ge7 3.195222 1_545
Ca2 Ge4 3.195222 1_555
Ca2 Ge13 3.195222 1_555
Ca2 Ge12 3.195222 1_545
Ca2 Ge19 3.195222 1_645
Ca2 Ge24 3.195222 1_655
Ca2 Ir0 3.199760 1_555
Ca2 Ir7 3.199760 1_545
Ca2 Ir5 3.199760 1_555
Ca2 Ir2 3.199760 1_545
Ca2 Ge2 3.268407 1_555
Ca2 Ge8 3.268407 1_545
Ca2 Ge22 3.268407 1_555
Ca2 Ge17 3.268407 1_555
Ca3 Ge21 3.195222 1_555
Ca3 Ge18 3.195222 1_455
Ca3 Ge10 3.195222 1_555
Ca3 Ge5 3.195222 1_555
Ca3 Ge8 3.195222 1_455
Ca3 Ge2 3.195222 1_455
Ca3 Ge23 3.195222 1_455
Ca3 Ge15 3.195222 1_555
Ca3 Ir5 3.199760 1_455
Ca3 Ir6 3.199760 1_555
Ca3 Ir2 3.199760 1_455
Ca3 Ir1 3.199760 1_555
Ca3 Ge24 3.268407 1_555
Ca3 Ge19 3.268407 1_555
Ca3 Ge6 3.268407 1_555
Ca3 Ge9 3.268407 1_455
Ca4 Ge22 3.195222 1_564
Ca4 Ge17 3.195222 1_565
Ca4 Ge11 3.195222 1_554
Ca4 Ge6 3.195222 1_555
Ca4 Ge3 3.195222 1_554
Ca4 Ge9 3.195222 1_555
Ca4 Ge14 3.195222 1_564
Ca4 Ge20 3.195222 1_565
Ca4 Ir1 3.199760 1_555
Ca4 Ir7 3.199760 1_554
Ca4 Ir2 3.199760 1_555
Ca4 Ir4 3.199760 1_554
Ca4 Ge7 3.268407 1_555
Ca4 Ge12 3.268407 1_554
Ca4 Ge21 3.268407 1_555
Ca4 Ge18 3.268407 1_555
Ca5 Ge16 3.195222 1_555
Ca5 Ge25 3.195222 1_545
Ca5 Ge7 3.195222 1_545
Ca5 Ge4 3.195222 1_555
Ca5 Ge13 3.195222 1_555
Ca5 Ge12 3.195222 1_545
Ca5 Ge19 3.195222 1_545
Ca5 Ge24 3.195222 1_555
Ca5 Ir3 3.199760 1_555
Ca5 Ir6 3.199760 1_555
Ca5 Ir4 3.199760 1_545
Ca5 Ir1 3.199760 1_545
Ca5 Ge14 3.268407 1_555
Ca5 Ge20 3.268407 1_555
Ca5 Ge10 3.268407 1_555
Ca5 Ge5 3.268407 1_545
Ge0 Ge6 2.960647 1_555
Ge0 Ge4 2.960647 1_555
Ge0 Ge9 2.960647 1_555
Ge0 Ge13 2.960647 1_555
Ge0 Ge10 2.960647 1_555
Ge0 Ge11 2.960647 1_555
Ge0 Ge3 2.960647 1_555
Ge0 Ge12 2.960647 1_555
Ge0 Ge8 2.960647 1_555
Ge0 Ge7 2.960647 1_555
Ge0 Ge5 2.960647 1_555
Ge0 Ge2 2.960647 1_555
Ge1 Ge24 2.960647 1_555
Ge1 Ge19 2.960647 1_545
Ge1 Ge15 2.960647 1_555
Ge1 Ge23 2.960647 1_455
Ge1 Ge14 2.960647 1_554
Ge1 Ge20 2.960647 1_555
Ge1 Ge21 2.960647 1_545
Ge1 Ge17 2.960647 1_455
Ge1 Ge18 2.960647 1_445
Ge1 Ge22 2.960647 1_454
Ge1 Ge25 2.960647 1_544
Ge1 Ge16 2.960647 1_554
Ge2 Ir5 2.499107 1_555
Ge2 Ir0 2.499107 1_555
Ge2 Ge8 2.564124 1_555
Ge3 Ir7 2.499107 1_555
Ge3 Ir0 2.499107 1_555
Ge4 Ir3 2.499107 1_555
Ge4 Ir0 2.499107 1_555
Ge5 Ir1 2.499107 1_555
Ge5 Ir4 2.499107 1_555
Ge6 Ir1 2.499107 1_555
Ge6 Ir6 2.499107 1_555
Ge6 Ge9 2.564124 1_555
Ge7 Ir1 2.499107 1_555
Ge7 Ir2 2.499107 1_555
Ge8 Ir2 2.499107 1_555
Ge8 Ir7 2.499107 1_555
Ge9 Ir5 2.499107 1_555
Ge9 Ir2 2.499107 1_555
Ge10 Ir6 2.499107 1_555
Ge10 Ir3 2.499107 1_555
Ge10 Ge5 2.564124 1_555
Ge11 Ir4 2.499107 1_555
Ge11 Ir3 2.499107 1_555
Ge11 Ge3 2.564124 1_555
Ge12 Ir4 2.499107 1_555
Ge12 Ir7 2.499107 1_555
Ge12 Ge7 2.564124 1_555
Ge13 Ir5 2.499107 1_555
Ge13 Ir6 2.499107 1_555
Ge13 Ge4 2.564124 1_555
Ge14 Ir3 2.499107 1_555
Ge14 Ir4 2.499107 1_545
Ge14 Ge20 2.564124 1_556
Ge15 Ir6 2.499107 1_555
Ge15 Ir3 2.499107 1_554
Ge15 Ge23 2.564124 1_455
Ge16 Ir3 2.499107 1_555
Ge16 Ir0 2.499107 1_455
Ge16 Ge25 2.564124 1_545
Ge17 Ir5 2.499107 1_555
Ge17 Ir2 2.499107 1_545
Ge17 Ge22 2.564124 1_554
Ge18 Ir7 2.499107 1_554
Ge18 Ir2 2.499107 1_555
Ge18 Ge21 2.564124 1_655
Ge19 Ir2 2.499107 1_455
Ge19 Ir1 2.499107 1_555
Ge19 Ge24 2.564124 1_565
Ge20 Ir6 2.499107 1_555
Ge20 Ir1 2.499107 1_545
Ge21 Ir1 2.499107 1_555
Ge21 Ir4 2.499107 1_554
Ge22 Ir0 2.499107 1_555
Ge22 Ir7 2.499107 1_545
Ge23 Ir5 2.499107 1_555
Ge23 Ir0 2.499107 1_554
Ge24 Ir5 2.499107 1_455
Ge24 Ir6 2.499107 1_555
Ge25 Ir4 2.499107 1_555
Ge25 Ir7 2.499107 1_455
