# generated using pymatgen
data_TeMoWS3
_symmetry_space_group_name_H-M   'P 1'
_cell_length_a   3.26977233
_cell_length_b   3.26977233
_cell_length_c   37.13128400
_cell_angle_alpha   90.00000000
_cell_angle_beta   90.00000000
_cell_angle_gamma   120.00000672
_symmetry_Int_Tables_number   1
_chemical_formula_structural   TeMoWS3
_chemical_formula_sum   'Te2 Mo2 W2 S6'
_cell_volume   343.79978356
_cell_formula_units_Z   2
loop_
 _symmetry_equiv_pos_site_id
 _symmetry_equiv_pos_as_xyz
  1  'x, y, z'
loop_
 _atom_site_type_symbol
 _atom_site_label
 _atom_site_symmetry_multiplicity
 _atom_site_fract_x
 _atom_site_fract_y
 _atom_site_fract_z
 _atom_site_occupancy
  Te  Te0  1  0.33333300  0.66666700  0.41785600  1
  Te  Te1  1  0.33333300  0.66666700  0.52146900  1
  Mo  Mo0  1  0.00000000  0.00000000  0.09392300  1
  Mo  Mo1  1  0.00000000  0.00000000  0.46965500  1
  W  W0  1  0.33333300  0.66666700  0.28175400  1
  W  W1  1  0.33333300  0.66666700  0.65758400  1
  S  S0  1  0.00000000  0.00000000  0.32334700  1
  S  S1  1  0.00000000  0.00000000  0.69915500  1
  S  S2  1  0.33333300  0.66666700  0.05246000  1
  S  S3  1  0.33333300  0.66666700  0.13540300  1
  S  S4  1  0.00000000  0.00000000  0.24017700  1
  S  S5  1  0.00000000  0.00000000  0.61596600  1
loop_
_geom_bond_atom_site_label_1
_geom_bond_atom_site_label_2
_geom_bond_distance
_geom_bond_site_symmetry_2
Mo0 S2 2.435998 1_545
Mo0 S2 2.436000 1_445
Mo0 S2 2.436000 1_555
Mo0 S3 2.436397 1_545
Mo0 S3 2.436399 1_445
Mo0 S3 2.436399 1_555
Mo1 Te0 2.695018 1_545
Mo1 Te0 2.695020 1_445
Mo1 Te0 2.695020 1_555
Mo1 Te1 2.695416 1_545
Mo1 Te1 2.695418 1_445
Mo1 Te1 2.695418 1_555
S0 W0 2.439052 1_545
S0 W0 2.439054 1_555
S0 W0 2.439054 1_445
S1 W1 2.438534 1_545
S1 W1 2.438536 1_555
S1 W1 2.438536 1_445
S4 W0 2.438675 1_545
S4 W0 2.438678 1_555
S4 W0 2.438678 1_445
S5 W1 2.439640 1_545
S5 W1 2.439642 1_555
S5 W1 2.439642 1_445
