# generated using pymatgen
data_Mn4CoSb4Ir3
_symmetry_space_group_name_H-M   'P 1'
_cell_length_a   4.27783622
_cell_length_b   4.27783622
_cell_length_c   14.12612810
_cell_angle_alpha   90.00000000
_cell_angle_beta   81.29102044
_cell_angle_gamma   120.00000000
_symmetry_Int_Tables_number   1
_chemical_formula_structural   Mn4CoSb4Ir3
_chemical_formula_sum   'Mn4 Co1 Sb4 Ir3'
_cell_volume   220.42484156
_cell_formula_units_Z   1
loop_
 _symmetry_equiv_pos_site_id
 _symmetry_equiv_pos_as_xyz
  1  'x, y, z'
loop_
 _atom_site_type_symbol
 _atom_site_label
 _atom_site_symmetry_multiplicity
 _atom_site_fract_x
 _atom_site_fract_y
 _atom_site_fract_z
 _atom_site_occupancy
  Mn  Mn0  1  0.24505900  0.62252900  0.13241200  1
  Mn  Mn1  1  0.75611600  0.87805800  0.36582500  1
  Mn  Mn2  1  0.25255500  0.12627700  0.62116800  1
  Mn  Mn3  1  0.74795400  0.37397700  0.87806900  1
  Co  Co0  1  0.87037600  0.93518800  0.19443600  1
  Sb  Sb0  1  0.00271100  0.50135500  0.49593400  1
  Sb  Sb1  1  0.49872900  0.74936500  0.75190600  1
  Sb  Sb2  1  0.99119700  0.99559900  0.01320400  1
  Sb  Sb3  1  0.50717900  0.25359000  0.23923100  1
  Ir  Ir0  1  0.38043600  0.19021800  0.42934600  1
  Ir  Ir1  1  0.87535900  0.43767900  0.68696200  1
  Ir  Ir2  1  0.37232900  0.68616400  0.94150700  1
loop_
_geom_bond_atom_site_label_1
_geom_bond_atom_site_label_2
_geom_bond_distance
_geom_bond_site_symmetry_2
Mn0 Sb3 2.882227 1_555
Mn0 Sb3 2.882233 1_565
Mn0 Sb3 2.882233 1_455
Mn0 Sb2 2.974717 1_555
Mn0 Sb2 2.974717 1_445
Mn0 Sb2 2.974724 1_455
Mn1 Sb3 3.033174 1_555
Mn1 Sb3 3.033177 1_565
Mn1 Sb3 3.033177 1_665
Mn1 Sb0 3.061812 1_555
Mn1 Sb0 3.061815 1_665
Mn1 Sb0 3.061818 1_655
Mn2 Sb0 3.022235 1_655
Mn2 Sb0 3.022235 1_545
Mn2 Sb0 3.022235 1_555
Mn2 Sb1 3.066989 1_545
Mn2 Sb1 3.066995 1_555
Mn2 Sb1 3.066995 1_445
Mn3 Sb1 3.029699 1_655
Mn3 Sb1 3.029699 1_545
Mn3 Sb1 3.029703 1_555
Mn3 Sb2 3.103641 1_546
Mn3 Sb2 3.103644 1_446
Mn3 Sb2 3.103644 1_556
Co0 Mn1 2.383771 1_555
Co0 Sb2 2.520673 1_555
Co0 Sb3 2.547180 1_665
Co0 Sb3 2.547180 1_555
Co0 Sb3 2.547183 1_565
Co0 Mn0 2.616131 1_555
Co0 Mn0 2.616131 1_665
Co0 Mn0 2.616135 1_655
Ir0 Mn1 2.623071 1_545
Ir0 Mn1 2.623071 1_555
Ir0 Mn1 2.623074 1_445
Ir0 Sb0 2.637743 1_555
Ir0 Sb0 2.637746 1_655
Ir0 Sb0 2.637746 1_545
Ir0 Sb3 2.644222 1_555
Ir0 Mn2 2.667964 1_555
Ir1 Sb1 2.629802 1_655
Ir1 Sb1 2.629802 1_545
Ir1 Sb1 2.629809 1_555
Ir1 Mn2 2.633888 1_665
Ir1 Mn2 2.633888 1_555
Ir1 Mn2 2.633888 1_655
Ir1 Sb0 2.656921 1_655
Ir1 Mn3 2.658020 1_555
Ir2 Mn3 2.622681 1_555
Ir2 Mn3 2.622684 1_565
Ir2 Mn3 2.622684 1_455
Ir2 Sb1 2.637073 1_555
Ir2 Mn0 2.655210 1_556
Ir2 Sb2 2.663524 1_556
Ir2 Sb2 2.663524 1_446
Ir2 Sb2 2.663530 1_456
