# generated using pymatgen
data_V3Br
_symmetry_space_group_name_H-M   'P 1'
_cell_length_a   5.19738266
_cell_length_b   5.19738266
_cell_length_c   5.19738266
_cell_angle_alpha   140.05545116
_cell_angle_beta   140.05545116
_cell_angle_gamma   57.76911363
_symmetry_Int_Tables_number   1
_chemical_formula_structural   V3Br
_chemical_formula_sum   'V3 Br1'
_cell_volume   57.36736756
_cell_formula_units_Z   1
loop_
 _symmetry_equiv_pos_site_id
 _symmetry_equiv_pos_as_xyz
  1  'x, y, z'
loop_
 _atom_site_type_symbol
 _atom_site_label
 _atom_site_symmetry_multiplicity
 _atom_site_fract_x
 _atom_site_fract_y
 _atom_site_fract_z
 _atom_site_occupancy
  V  V0  1  0.75000000  0.25000000  0.50000000  1
  V  V1  1  0.25000000  0.75000000  0.50000000  1
  V  V2  1  0.50000000  0.50000000  0.00000000  1
  Br  Br0  1  0.00000000  0.00000000  0.00000000  1
loop_
_geom_bond_atom_site_label_1
_geom_bond_atom_site_label_2
_geom_bond_distance
_geom_bond_site_symmetry_2
V0 V1 2.510577 1_656
V0 V1 2.510577 1_544
V0 V1 2.510577 1_645
V0 V1 2.510577 1_555
V0 V2 2.885991 1_556
V0 V2 2.885991 1_656
V0 V2 2.885991 1_545
V0 V2 2.885991 1_555
V1 V2 2.885991 1_455
V1 V2 2.885991 1_556
V1 V2 2.885991 1_555
V1 V2 2.885991 1_566
Br0 V2 2.510577 1_455
Br0 V2 2.510577 1_444
Br0 V2 2.510577 1_556
Br0 V2 2.510577 1_545
Br0 V1 2.885991 1_444
Br0 V0 2.885991 1_555
Br0 V0 2.885991 1_455
Br0 V1 2.885991 1_544
Br0 V1 2.885991 1_555
Br0 V1 2.885991 1_545
Br0 V0 2.885991 1_454
Br0 V0 2.885991 1_444
