# generated using pymatgen
data_Ca(Co2O3)2
_symmetry_space_group_name_H-M   'P 1'
_cell_length_a   5.21289296
_cell_length_b   5.21289296
_cell_length_c   15.28212700
_cell_angle_alpha   90.00000000
_cell_angle_beta   90.00000000
_cell_angle_gamma   145.28178509
_symmetry_Int_Tables_number   1
_chemical_formula_structural   Ca(Co2O3)2
_chemical_formula_sum   'Ca2 Co8 O12'
_cell_volume   236.51914881
_cell_formula_units_Z   2
loop_
 _symmetry_equiv_pos_site_id
 _symmetry_equiv_pos_as_xyz
  1  'x, y, z'
loop_
 _atom_site_type_symbol
 _atom_site_label
 _atom_site_symmetry_multiplicity
 _atom_site_fract_x
 _atom_site_fract_y
 _atom_site_fract_z
 _atom_site_occupancy
  Ca  Ca0  1  0.33766900  0.66233100  0.75000000  1
  Ca  Ca1  1  0.66233100  0.33766900  0.25000000  1
  Co  Co0  1  0.13778300  0.86221700  0.04413300  1
  Co  Co1  1  0.59075400  0.40924600  0.63464600  1
  Co  Co2  1  0.86221700  0.13778300  0.95586700  1
  Co  Co3  1  0.40924600  0.59075400  0.36535400  1
  Co  Co4  1  0.13778300  0.86221700  0.45586700  1
  Co  Co5  1  0.86221700  0.13778300  0.54413300  1
  Co  Co6  1  0.40924600  0.59075400  0.13464600  1
  Co  Co7  1  0.59075400  0.40924600  0.86535400  1
  O  O0  1  0.50000000  0.50000000  0.50000000  1
  O  O1  1  0.50000000  0.50000000  0.00000000  1
  O  O2  1  0.94796800  0.05203200  0.84894700  1
  O  O3  1  0.05203200  0.94796800  0.15105300  1
  O  O4  1  0.05203200  0.94796800  0.34894700  1
  O  O5  1  0.94796800  0.05203200  0.65105300  1
  O  O6  1  0.22563100  0.77436900  0.92726200  1
  O  O7  1  0.77436900  0.22563100  0.07273800  1
  O  O8  1  0.77436900  0.22563100  0.42726200  1
  O  O9  1  0.22563100  0.77436900  0.57273800  1
  O  O10  1  0.67272100  0.32727900  0.75000000  1
  O  O11  1  0.32727900  0.67272100  0.25000000  1
loop_
_geom_bond_atom_site_label_1
_geom_bond_atom_site_label_2
_geom_bond_distance
_geom_bond_site_symmetry_2
Ca0 O10 2.261229 1_565
Ca0 O10 2.261229 1_455
Ca0 O5 2.431089 1_565
Ca0 O2 2.431089 1_565
Ca0 O5 2.431089 1_455
Ca0 O2 2.431089 1_455
Ca1 O11 2.261229 1_655
Ca1 O11 2.261229 1_545
Ca1 O4 2.431089 1_655
Ca1 O3 2.431089 1_655
Ca1 O3 2.431089 1_545
Ca1 O4 2.431089 1_545
Co0 O3 1.843357 1_555
Co0 O6 1.988492 1_554
Co0 O7 2.111259 1_455
Co0 O7 2.111259 1_565
Co0 O1 2.180302 1_455
Co0 O1 2.180302 1_565
Co1 O10 1.942405 1_555
Co1 O5 2.121486 1_455
Co1 O5 2.121486 1_565
Co1 O0 2.247132 1_555
Co1 O9 2.261738 1_655
Co1 O9 2.261738 1_545
Co2 O2 1.843357 1_555
Co2 O7 1.988492 1_556
Co2 O6 2.111259 1_545
Co2 O6 2.111259 1_655
Co2 O1 2.180302 1_546
Co2 O1 2.180302 1_656
Co3 O11 1.942405 1_555
Co3 O4 2.121486 1_545
Co3 O4 2.121486 1_655
Co3 O0 2.247132 1_555
Co3 O8 2.261738 1_565
Co3 O8 2.261738 1_455
Co4 O4 1.843357 1_555
Co4 O9 1.988492 1_555
Co4 O8 2.111259 1_455
Co4 O8 2.111259 1_565
Co4 O0 2.180302 1_455
Co4 O0 2.180302 1_565
Co5 O5 1.843357 1_555
Co5 O8 1.988492 1_555
Co5 O9 2.111259 1_655
Co5 O9 2.111259 1_545
Co5 O0 2.180302 1_545
Co5 O0 2.180302 1_655
Co6 O11 1.942405 1_555
Co6 O3 2.121486 1_545
Co6 O3 2.121486 1_655
Co6 O1 2.247132 1_555
Co6 O7 2.261738 1_565
Co6 O7 2.261738 1_455
Co7 O10 1.942405 1_555
Co7 O2 2.121486 1_455
Co7 O2 2.121486 1_565
Co7 O1 2.247132 1_556
Co7 O6 2.261738 1_655
Co7 O6 2.261738 1_545
