# generated using pymatgen
data_Ba3Co3Te(PO7)2
_symmetry_space_group_name_H-M   'P 1'
_cell_length_a   8.60381503
_cell_length_b   10.14187605
_cell_length_c   10.14159773
_cell_angle_alpha   85.43990362
_cell_angle_beta   115.09907177
_cell_angle_gamma   64.91003854
_symmetry_Int_Tables_number   1
_chemical_formula_structural   Ba3Co3Te(PO7)2
_chemical_formula_sum   'Ba6 Co6 Te2 P4 O28'
_cell_volume   688.51505642
_cell_formula_units_Z   2
loop_
 _symmetry_equiv_pos_site_id
 _symmetry_equiv_pos_as_xyz
  1  'x, y, z'
loop_
 _atom_site_type_symbol
 _atom_site_label
 _atom_site_symmetry_multiplicity
 _atom_site_fract_x
 _atom_site_fract_y
 _atom_site_fract_z
 _atom_site_occupancy
  Ba  Ba0  1  0.43428700  0.00000500  0.00000000  1
  Ba  Ba1  1  0.93429100  0.50000700  0.49999600  1
  Ba  Ba2  1  0.78287900  0.21714700  0.21716900  1
  Ba  Ba3  1  0.28286000  0.71715600  0.71717500  1
  Ba  Ba4  1  0.28281700  0.28285400  0.28281000  1
  Ba  Ba5  1  0.78281400  0.78283100  0.78281400  1
  Co  Co0  1  0.51227100  0.25002200  0.75001100  1
  Co  Co1  1  0.86888100  0.13118700  0.63120500  1
  Co  Co2  1  0.86884500  0.36876600  0.86880500  1
  Co  Co3  1  0.01228500  0.75002400  0.25001500  1
  Co  Co4  1  0.36885400  0.63120500  0.13119200  1
  Co  Co5  1  0.36885100  0.86875100  0.36881700  1
  Te  Te0  1  0.99995700  0.99999300  0.99998200  1
  Te  Te1  1  0.49997100  0.49999800  0.50000700  1
  P  P0  1  0.26887600  0.06443300  0.60214200  1
  P  P1  1  0.76885800  0.56445700  0.10214200  1
  P  P2  1  0.73117400  0.93554800  0.39787100  1
  P  P3  1  0.23117100  0.43555700  0.89786700  1
  O  O0  1  0.12534400  0.20804900  0.45863000  1
  O  O1  1  0.62531800  0.70807800  0.95863400  1
  O  O2  1  0.87474700  0.79193100  0.54138000  1
  O  O3  1  0.37473400  0.29193700  0.04137100  1
  O  O4  1  0.56245200  0.65267000  0.44301200  1
  O  O5  1  0.06241800  0.15267900  0.94298200  1
  O  O6  1  0.23975600  0.66458800  0.45483800  1
  O  O7  1  0.73974500  0.16456900  0.95482900  1
  O  O8  1  0.88325600  0.99729800  0.78755900  1
  O  O9  1  0.38325100  0.49732400  0.28756900  1
  O  O10  1  0.09301700  0.00266100  0.21242500  1
  O  O11  1  0.59300800  0.50267600  0.71243900  1
  O  O12  1  0.44931400  0.33550700  0.54514200  1
  O  O13  1  0.94931900  0.83549600  0.04513400  1
  O  O14  1  0.77208000  0.34730600  0.55701500  1
  O  O15  1  0.27205400  0.84731600  0.05695400  1
  O  O16  1  0.51163600  0.96967400  0.32196700  1
  O  O17  1  0.01163300  0.46966100  0.82192600  1
  O  O18  1  0.78976000  0.91885100  0.27100900  1
  O  O19  1  0.28979000  0.41887200  0.77102000  1
  O  O20  1  0.72701800  0.08327300  0.43556300  1
  O  O21  1  0.22696800  0.58328200  0.93556300  1
  O  O22  1  0.37467600  0.91670700  0.56444400  1
  O  O23  1  0.87469300  0.41674500  0.06442800  1
  O  O24  1  0.43766100  0.08112500  0.72898500  1
  O  O25  1  0.93762400  0.58115000  0.22899600  1
  O  O26  1  0.15940000  0.03032200  0.67809300  1
  O  O27  1  0.65938400  0.53031200  0.17807000  1
loop_
_geom_bond_atom_site_label_1
_geom_bond_atom_site_label_2
_geom_bond_distance
_geom_bond_site_symmetry_2
Ba0 O15 2.656098 1_545
Ba0 O5 2.656170 1_554
Ba0 O18 2.821264 1_545
Ba0 O24 2.821430 1_554
Ba0 O3 2.880605 1_555
Ba0 O1 2.880733 1_544
Ba0 O26 3.003224 1_554
Ba0 O16 3.003761 1_545
Ba1 O4 2.656058 1_555
Ba1 O14 2.656290 1_555
Ba1 O25 2.821143 1_555
Ba1 O19 2.821509 1_655
Ba1 O2 2.880582 1_555
Ba1 O0 2.881021 1_655
Ba1 O17 3.003397 1_655
Ba1 O27 3.003455 1_555
Ba2 O7 2.656378 1_554
Ba2 O10 2.656555 1_655
Ba2 O27 2.820283 1_555
Ba2 O20 2.821062 1_555
Ba2 O0 2.880833 1_655
Ba2 O3 2.880962 1_555
Ba2 O18 3.001997 1_545
Ba2 O23 3.002832 1_555
Ba3 O6 2.656366 1_555
Ba3 O11 2.656547 1_555
Ba3 O26 2.820360 1_565
Ba3 O21 2.821201 1_555
Ba3 O2 2.880773 1_455
Ba3 O1 2.880881 1_555
Ba3 O19 3.001678 1_555
Ba3 O22 3.002432 1_555
Ba4 O9 2.656227 1_555
Ba4 O12 2.656447 1_555
Ba4 O16 2.820467 1_545
Ba4 O23 2.821239 1_455
Ba4 O0 2.880424 1_555
Ba4 O3 2.880653 1_555
Ba4 O25 3.002210 1_455
Ba4 O20 3.003533 1_555
Ba5 O8 2.656251 1_555
Ba5 O13 2.656427 1_556
Ba5 O17 2.820496 1_655
Ba5 O22 2.821314 1_555
Ba5 O1 2.880373 1_555
Ba5 O2 2.880707 1_555
Ba5 O24 3.001983 1_565
Ba5 O21 3.003195 1_655
Co0 O12 1.929355 1_555
Co0 O7 1.929388 1_555
Co0 O19 2.065442 1_555
Co0 O24 2.065471 1_555
Co1 O14 1.929235 1_555
Co1 O8 1.929338 1_545
Co1 O20 2.065052 1_555
Co1 O26 2.065477 1_655
Co2 O5 1.929249 1_655
Co2 O11 1.929446 1_555
Co2 O23 2.065156 1_556
Co2 O17 2.065586 1_655
Co3 O13 1.929407 1_455
Co3 O6 1.929421 1_555
Co3 O18 2.065488 1_455
Co3 O25 2.065514 1_455
Co4 O15 1.929219 1_555
Co4 O9 1.929351 1_555
Co4 O21 2.065063 1_554
Co4 O27 2.065585 1_555
Co5 O4 1.929244 1_555
Co5 O10 1.929495 1_565
Co5 O22 2.065176 1_555
Co5 O16 2.065640 1_555
O0 P0 1.541908 1_555
O1 P1 1.541913 1_556
O2 P2 1.541897 1_555
O3 P3 1.541886 1_554
O4 Te1 1.961580 1_555
O5 Te0 1.961596 1_445
O6 Te1 1.961518 1_555
O7 Te0 1.961503 1_545
O8 Te0 1.961504 1_555
O9 Te1 1.961579 1_555
O10 Te0 1.961603 1_444
O11 Te1 1.961538 1_555
O12 Te1 1.961377 1_555
O13 Te0 1.961367 1_554
O14 Te1 1.961650 1_555
O15 Te0 1.961635 1_454
O16 P2 1.565193 1_555
O17 P3 1.565253 1_555
O18 P2 1.565404 1_555
O19 P3 1.565430 1_555
O20 P2 1.565010 1_545
O21 P3 1.564910 1_555
O22 P0 1.564977 1_565
O23 P1 1.565050 1_555
O24 P0 1.565445 1_555
O25 P1 1.565397 1_555
O26 P0 1.565143 1_555
O27 P1 1.565108 1_555
