# generated using pymatgen
data_SrCaDy4Be2O10
_symmetry_space_group_name_H-M   'P 1'
_cell_length_a   7.03700200
_cell_length_b   6.39954800
_cell_length_c   9.35823428
_cell_angle_alpha   89.69883289
_cell_angle_beta   90.00000000
_cell_angle_gamma   90.00000000
_symmetry_Int_Tables_number   1
_chemical_formula_structural   SrCaDy4Be2O10
_chemical_formula_sum   'Sr2 Ca2 Dy8 Be4 O20'
_cell_volume   421.42945749
_cell_formula_units_Z   2
loop_
 _symmetry_equiv_pos_site_id
 _symmetry_equiv_pos_as_xyz
  1  'x, y, z'
loop_
 _atom_site_type_symbol
 _atom_site_label
 _atom_site_symmetry_multiplicity
 _atom_site_fract_x
 _atom_site_fract_y
 _atom_site_fract_z
 _atom_site_occupancy
  Sr  Sr0  1  0.51978600  0.91752200  0.82473100  1
  Sr  Sr1  1  0.01978600  0.08247800  0.17526900  1
  Ca  Ca0  1  0.01637100  0.41623800  0.67679600  1
  Ca  Ca1  1  0.51637100  0.58376200  0.32320400  1
  Dy  Dy0  1  0.25478600  0.90299100  0.51962800  1
  Dy  Dy1  1  0.25162700  0.59469000  0.02225800  1
  Dy  Dy2  1  0.75478600  0.09700900  0.48037200  1
  Dy  Dy3  1  0.75162700  0.40531000  0.97774200  1
  Dy  Dy4  1  0.47769700  0.07191700  0.17864600  1
  Dy  Dy5  1  0.97769700  0.92808300  0.82135400  1
  Dy  Dy6  1  0.96662500  0.56667400  0.32872400  1
  Dy  Dy7  1  0.46662500  0.43332600  0.67127600  1
  Be  Be0  1  0.25391400  0.30959400  0.39971000  1
  Be  Be1  1  0.24930000  0.19651400  0.89619600  1
  Be  Be2  1  0.75391400  0.69040600  0.60029000  1
  Be  Be3  1  0.74930000  0.80348600  0.10380400  1
  O  O0  1  0.94480500  0.67649500  0.07793600  1
  O  O1  1  0.55319300  0.80022100  0.56854800  1
  O  O2  1  0.44480500  0.32350500  0.92206400  1
  O  O3  1  0.05319300  0.19977900  0.43145200  1
  O  O4  1  0.05268500  0.31006600  0.93033100  1
  O  O5  1  0.44684700  0.18029700  0.43114200  1
  O  O6  1  0.55268500  0.68993400  0.06966900  1
  O  O7  1  0.94684700  0.81970300  0.56885800  1
  O  O8  1  0.24933800  0.97695200  0.98890200  1
  O  O9  1  0.25209000  0.52366300  0.49303800  1
  O  O10  1  0.74933800  0.02304800  0.01109800  1
  O  O11  1  0.75209000  0.47633700  0.50696200  1
  O  O12  1  0.25884500  0.37035300  0.22307700  1
  O  O13  1  0.24400400  0.13928900  0.71865600  1
  O  O14  1  0.75884500  0.62964700  0.77692300  1
  O  O15  1  0.74400400  0.86071100  0.28134400  1
  O  O16  1  0.26410500  0.83845200  0.28160200  1
  O  O17  1  0.24398000  0.66042600  0.77735600  1
  O  O18  1  0.76410500  0.16154800  0.71839800  1
  O  O19  1  0.74398000  0.33957400  0.22264400  1
loop_
_geom_bond_atom_site_label_1
_geom_bond_atom_site_label_2
_geom_bond_distance
_geom_bond_site_symmetry_2
Ca0 O13 2.419362 1_555
Ca0 O17 2.430733 1_555
Ca0 O18 2.439836 1_455
Ca0 O14 2.457793 1_455
Ca0 O11 2.475111 1_455
Ca0 O4 2.477787 1_555
Ca0 O9 2.483718 1_555
Ca0 O3 2.700189 1_555
Ca0 O7 2.810507 1_455
Ca1 O15 2.419362 1_555
Ca1 O19 2.430733 1_555
Ca1 O16 2.439836 1_555
Ca1 O12 2.457793 1_555
Ca1 O9 2.475111 1_555
Ca1 O6 2.477787 1_555
Ca1 O11 2.483718 1_555
Ca1 O1 2.700189 1_555
Ca1 O5 2.810507 1_555
Dy0 O1 2.246888 1_555
Dy0 O16 2.268552 1_555
Dy0 O7 2.278050 1_455
Dy0 O5 2.376178 1_565
Dy0 O13 2.406494 1_565
Dy0 O9 2.441622 1_555
Dy0 O3 2.506843 1_565
Dy0 O17 2.862383 1_555
Dy1 O6 2.249321 1_555
Dy1 O0 2.282580 1_455
Dy1 O17 2.328585 1_554
Dy1 O12 2.359477 1_555
Dy1 O2 2.399177 1_554
Dy1 O4 2.456452 1_554
Dy1 O8 2.464564 1_554
Dy1 O16 2.893328 1_555
Dy2 O3 2.246888 1_655
Dy2 O18 2.268552 1_555
Dy2 O5 2.278050 1_555
Dy2 O7 2.376178 1_545
Dy2 O15 2.406494 1_545
Dy2 O11 2.441622 1_555
Dy2 O1 2.506843 1_545
Dy2 O19 2.862383 1_555
Dy3 O4 2.249321 1_655
Dy3 O2 2.282580 1_555
Dy3 O19 2.328585 1_556
Dy3 O14 2.359477 1_555
Dy3 O0 2.399177 1_556
Dy3 O6 2.456452 1_556
Dy3 O10 2.464564 1_556
Dy3 O18 2.893328 1_555
Dy4 O16 2.324773 1_545
Dy4 O8 2.473057 1_544
Dy4 O5 2.475639 1_555
Dy4 O12 2.490095 1_555
Dy4 O10 2.493074 1_555
Dy4 O15 2.499755 1_545
Dy4 O19 2.573358 1_555
Dy4 O6 2.705623 1_545
Dy4 O2 2.893222 1_554
Dy5 O18 2.324773 1_565
Dy5 O10 2.473057 1_566
Dy5 O7 2.475639 1_555
Dy5 O14 2.490095 1_555
Dy5 O8 2.493074 1_655
Dy5 O13 2.499755 1_665
Dy5 O17 2.573358 1_655
Dy5 O4 2.705623 1_665
Dy5 O0 2.893222 1_556
Dy6 O11 2.320652 1_555
Dy6 O19 2.359570 1_555
Dy6 O0 2.451176 1_555
Dy6 O15 2.486528 1_555
Dy6 O9 2.543845 1_655
Dy6 O3 2.604706 1_655
Dy6 O12 2.607214 1_655
Dy6 O16 2.755649 1_655
Dy6 O7 2.780235 1_555
Dy7 O9 2.320652 1_555
Dy7 O17 2.359570 1_555
Dy7 O2 2.451176 1_555
Dy7 O13 2.486528 1_555
Dy7 O11 2.543845 1_555
Dy7 O1 2.604706 1_555
Dy7 O14 2.607214 1_555
Dy7 O18 2.755649 1_555
Dy7 O5 2.780235 1_555
Be0 O3 1.604683 1_555
Be0 O5 1.616135 1_555
Be0 O9 1.628586 1_555
Be0 O12 1.696454 1_555
Be1 O4 1.595884 1_555
Be1 O2 1.616746 1_555
Be1 O8 1.647468 1_545
Be1 O13 1.703629 1_555
Be2 O1 1.604683 1_555
Be2 O7 1.616135 1_555
Be2 O11 1.628586 1_555
Be2 O14 1.696454 1_555
Be3 O6 1.595884 1_555
Be3 O0 1.616746 1_555
Be3 O10 1.647468 1_565
Be3 O15 1.703629 1_555
O0 Sr1 2.807690 1_665
O1 Sr0 2.526919 1_555
O2 Sr0 2.807690 1_545
O3 Sr1 2.526919 1_555
O4 Sr1 2.719173 1_556
O6 Sr0 2.719173 1_554
O8 Sr1 2.473779 1_566
O8 Sr0 2.476513 1_555
O10 Sr0 2.473779 1_544
O10 Sr1 2.476513 1_655
O12 Sr1 2.536293 1_555
O13 Sr0 2.598265 1_545
O14 Sr0 2.536293 1_555
O15 Sr1 2.598265 1_665
O16 Sr1 2.523596 1_565
O17 Sr0 2.584206 1_555
O18 Sr0 2.523596 1_545
O19 Sr1 2.584206 1_655
