# generated using pymatgen
data_Ce2Co16Cu
_symmetry_space_group_name_H-M   'P 1'
_cell_length_a   8.12172605
_cell_length_b   8.35746518
_cell_length_c   8.35746518
_cell_angle_alpha   119.96591920
_cell_angle_beta   90.01015654
_cell_angle_gamma   89.98984346
_symmetry_Int_Tables_number   1
_chemical_formula_structural   Ce2Co16Cu
_chemical_formula_sum   'Ce4 Co32 Cu2'
_cell_volume   491.44752671
_cell_formula_units_Z   2
loop_
 _symmetry_equiv_pos_site_id
 _symmetry_equiv_pos_as_xyz
  1  'x, y, z'
loop_
 _atom_site_type_symbol
 _atom_site_label
 _atom_site_symmetry_multiplicity
 _atom_site_fract_x
 _atom_site_fract_y
 _atom_site_fract_z
 _atom_site_occupancy
  Ce  Ce0  1  0.24732500  0.66608800  0.33391200  1
  Ce  Ce1  1  0.75267500  0.33391200  0.66608800  1
  Ce  Ce2  1  0.74791200  0.00012700  0.99987300  1
  Ce  Ce3  1  0.25208800  0.99987300  0.00012700  1
  Co  Co0  1  0.74875300  0.67060100  0.04671800  1
  Co  Co1  1  0.74868400  0.37622000  0.32943000  1
  Co  Co2  1  0.74875100  0.95319700  0.62391300  1
  Co  Co3  1  0.74875100  0.37608700  0.04680300  1
  Co  Co4  1  0.74875300  0.95328200  0.32939900  1
  Co  Co5  1  0.74868400  0.67057000  0.62378000  1
  Co  Co6  1  0.25124700  0.32939900  0.95328200  1
  Co  Co7  1  0.25131600  0.62378000  0.67057000  1
  Co  Co8  1  0.25124900  0.04680300  0.37608700  1
  Co  Co9  1  0.25124900  0.62391300  0.95319700  1
  Co  Co10  1  0.25124700  0.04671800  0.67060100  1
  Co  Co11  1  0.25131600  0.32943000  0.37622000  1
  Co  Co12  1  0.47765900  0.83344600  0.66734000  1
  Co  Co13  1  0.47750700  0.83364400  0.16635600  1
  Co  Co14  1  0.47765900  0.33266000  0.16655400  1
  Co  Co15  1  0.52234100  0.16655400  0.33266000  1
  Co  Co16  1  0.52249300  0.16635600  0.83364400  1
  Co  Co17  1  0.52234100  0.66734000  0.83344600  1
  Co  Co18  1  0.98186900  0.16419100  0.32821800  1
  Co  Co19  1  0.98167300  0.16405800  0.83594200  1
  Co  Co20  1  0.98186900  0.67178200  0.83580900  1
  Co  Co21  1  0.01813100  0.83580900  0.67178200  1
  Co  Co22  1  0.01832700  0.83594200  0.16405800  1
  Co  Co23  1  0.01813100  0.32821800  0.16419100  1
  Co  Co24  1  0.50000000  0.50000000  0.00000000  1
  Co  Co25  1  0.50000000  0.50000000  0.50000000  1
  Co  Co26  1  0.50000000  0.00000000  0.50000000  1
  Co  Co27  1  0.00000000  0.50000000  0.00000000  1
  Co  Co28  1  0.00000000  0.50000000  0.50000000  1
  Co  Co29  1  0.00000000  0.00000000  0.50000000  1
  Co  Co30  1  0.59230700  0.66645000  0.33354900  1
  Co  Co31  1  0.40769300  0.33354900  0.66645000  1
  Cu  Cu0  1  0.11082000  0.33338200  0.66661800  1
  Cu  Cu1  1  0.88918000  0.66661800  0.33338200  1
loop_
_geom_bond_atom_site_label_1
_geom_bond_atom_site_label_2
_geom_bond_distance
_geom_bond_site_symmetry_2
Ce0 Co30 2.801855 1_555
Ce0 Cu1 2.908764 1_455
Ce0 Co11 3.006037 1_555
Ce0 Co7 3.006037 1_555
Ce0 Co10 3.016007 1_565
Ce0 Co6 3.016007 1_554
Ce0 Co8 3.021400 1_565
Ce0 Co9 3.021400 1_554
Ce0 Co12 3.053946 1_555
Ce0 Co14 3.053946 1_555
Ce0 Co13 3.062296 1_555
Ce0 Co23 3.074120 1_555
Ce0 Co21 3.074120 1_555
Ce0 Co22 3.082286 1_555
Ce0 Co28 3.132913 1_555
Ce0 Co29 3.143052 1_565
Ce0 Co27 3.143052 1_555
Ce0 Co25 3.160316 1_555
Ce0 Co24 3.171316 1_555
Ce0 Co26 3.171316 1_565
Ce1 Co31 2.801855 1_555
Ce1 Cu0 2.908764 1_655
Ce1 Co1 3.006037 1_555
Ce1 Co5 3.006037 1_555
Ce1 Co4 3.016007 1_545
Ce1 Co0 3.016007 1_556
Ce1 Co3 3.021400 1_556
Ce1 Co2 3.021400 1_545
Ce1 Co15 3.053946 1_555
Ce1 Co17 3.053946 1_555
Ce1 Co16 3.062296 1_555
Ce1 Co18 3.074120 1_555
Ce1 Co20 3.074120 1_555
Ce1 Co19 3.082286 1_555
Ce1 Co28 3.132913 1_655
Ce1 Co27 3.143052 1_656
Ce1 Co29 3.143052 1_655
Ce1 Co25 3.160316 1_555
Ce1 Co26 3.171316 1_555
Ce1 Co24 3.171316 1_556
Ce2 Co2 2.965705 1_545
Ce2 Co3 2.965705 1_556
Ce2 Co0 2.968996 1_546
Ce2 Co4 2.968996 1_546
Ce2 Co1 2.969406 1_556
Ce2 Co5 2.969406 1_545
Ce2 Co16 3.022925 1_555
Ce2 Co15 3.027003 1_556
Ce2 Co17 3.027003 1_545
Ce2 Co19 3.038991 1_555
Ce2 Co20 3.043215 1_545
Ce2 Co18 3.043215 1_556
Ce2 Co21 3.234250 1_645
Ce2 Co23 3.234250 1_656
Ce2 Co22 3.235419 1_646
Ce2 Co12 3.257804 1_545
Ce2 Co14 3.257804 1_556
Ce2 Co13 3.260529 1_546
Ce3 Co9 2.965705 1_554
Ce3 Co8 2.965705 1_565
Ce3 Co6 2.968996 1_564
Ce3 Co10 2.968996 1_564
Ce3 Co7 2.969406 1_554
Ce3 Co11 2.969406 1_565
Ce3 Co13 3.022925 1_555
Ce3 Co12 3.027003 1_554
Ce3 Co14 3.027003 1_565
Ce3 Co22 3.038991 1_555
Ce3 Co21 3.043215 1_554
Ce3 Co23 3.043215 1_565
Ce3 Co18 3.234250 1_465
Ce3 Co20 3.234250 1_454
Ce3 Co19 3.235419 1_464
Ce3 Co17 3.257804 1_554
Ce3 Co15 3.257804 1_565
Ce3 Co16 3.260529 1_564
Co0 Co4 2.363714 1_555
Co0 Co24 2.389891 1_555
Co0 Co27 2.406729 1_655
Co0 Co3 2.461745 1_555
Co0 Co22 2.512221 1_655
Co0 Co13 2.519585 1_555
Co0 Co17 2.551364 1_554
Co0 Co20 2.590416 1_554
Co0 Cu1 2.668396 1_555
Co0 Co30 2.728791 1_555
Co1 Co3 2.361490 1_555
Co1 Co25 2.389304 1_555
Co1 Co28 2.407284 1_655
Co1 Co5 2.461287 1_555
Co1 Co23 2.510846 1_655
Co1 Co14 2.516922 1_555
Co1 Co15 2.549303 1_555
Co1 Co18 2.589939 1_555
Co1 Cu1 2.667266 1_555
Co1 Co30 2.722719 1_555
Co2 Co5 2.361490 1_555
Co2 Co26 2.389700 1_565
Co2 Co29 2.407303 1_665
Co2 Co4 2.461745 1_555
Co2 Co21 2.510011 1_655
Co2 Cu1 2.668966 1_555
Co2 Co30 2.727060 1_555
Co3 Cu1 2.668966 1_555
Co3 Co30 2.727052 1_555
Co4 Cu1 2.668396 1_555
Co5 Cu1 2.667266 1_555
Co6 Co9 2.461745 1_555
Co6 Cu0 2.668396 1_555
Co7 Co9 2.361490 1_555
Co7 Cu0 2.667266 1_555
Co8 Cu0 2.668966 1_555
Co9 Cu0 2.668966 1_555
Co10 Co6 2.363714 1_555
Co10 Co26 2.389891 1_555
Co10 Co29 2.406729 1_555
Co10 Co8 2.461745 1_555
Co10 Co19 2.512221 1_455
Co10 Co16 2.519585 1_555
Co10 Co12 2.551364 1_545
Co10 Co21 2.590416 1_545
Co10 Cu0 2.668396 1_555
Co10 Co31 2.728791 1_555
Co11 Co8 2.361490 1_555
Co11 Co25 2.389304 1_555
Co11 Co28 2.407284 1_555
Co11 Co7 2.461287 1_555
Co11 Co18 2.510846 1_455
Co11 Co15 2.516922 1_555
Co11 Co14 2.549303 1_555
Co11 Co23 2.589939 1_555
Co11 Cu0 2.667266 1_555
Co11 Co31 2.722719 1_555
Co12 Co25 2.421036 1_555
Co12 Co26 2.423078 1_565
Co12 Co17 2.431225 1_555
Co12 Co16 2.437741 1_565
Co12 Co5 2.516922 1_555
Co12 Co2 2.518912 1_555
Co12 Co7 2.549303 1_555
Co12 Co30 2.589998 1_555
Co13 Co24 2.422550 1_555
Co13 Co26 2.422550 1_565
Co13 Co17 2.437741 1_554
Co13 Co15 2.437741 1_565
Co13 Co4 2.519585 1_555
Co13 Co8 2.550178 1_565
Co13 Co9 2.550178 1_554
Co13 Co30 2.593038 1_555
Co14 Co25 2.421036 1_555
Co14 Co24 2.423078 1_555
Co14 Co15 2.431225 1_555
Co14 Co16 2.437741 1_554
Co14 Co3 2.518912 1_555
Co14 Co6 2.551364 1_554
Co14 Co30 2.589991 1_555
Co15 Co25 2.421036 1_555
Co15 Co26 2.423078 1_555
Co15 Co8 2.518912 1_555
Co15 Co4 2.551364 1_545
Co15 Co31 2.589991 1_555
Co16 Co24 2.422550 1_556
Co16 Co26 2.422550 1_555
Co16 Co6 2.519585 1_555
Co16 Co3 2.550178 1_556
Co16 Co2 2.550178 1_545
Co16 Co31 2.593038 1_555
Co17 Co25 2.421036 1_555
Co17 Co24 2.423078 1_556
Co17 Co7 2.516922 1_555
Co17 Co9 2.518912 1_555
Co17 Co5 2.549303 1_555
Co17 Co31 2.589998 1_555
Co18 Co23 2.392232 1_655
Co18 Co22 2.394954 1_645
Co18 Co29 2.435912 1_655
Co18 Co28 2.436050 1_655
Co18 Co8 2.510011 1_655
Co18 Co4 2.590416 1_545
Co18 Cu0 2.664458 1_655
Co19 Co21 2.394954 1_645
Co19 Co23 2.394954 1_656
Co19 Co29 2.437074 1_655
Co19 Co27 2.437074 1_656
Co19 Co6 2.512221 1_655
Co19 Co3 2.589347 1_556
Co19 Co2 2.589347 1_545
Co19 Cu0 2.665870 1_655
Co20 Co21 2.392232 1_655
Co20 Co22 2.394954 1_656
Co20 Co27 2.435912 1_656
Co20 Co28 2.436050 1_655
Co20 Co9 2.510011 1_655
Co20 Co7 2.510846 1_655
Co20 Co5 2.589939 1_555
Co20 Cu0 2.664458 1_655
Co21 Co29 2.435912 1_565
Co21 Co28 2.436050 1_555
Co21 Co5 2.510846 1_455
Co21 Co7 2.589939 1_555
Co21 Cu1 2.664458 1_455
Co22 Co27 2.437074 1_555
Co22 Co29 2.437074 1_565
Co22 Co4 2.512221 1_455
Co22 Co8 2.589347 1_565
Co22 Co9 2.589347 1_554
Co22 Cu1 2.665870 1_455
Co23 Co27 2.435912 1_555
Co23 Co28 2.436050 1_555
Co23 Co3 2.510011 1_455
Co23 Co6 2.590416 1_554
Co23 Cu1 2.664458 1_455
Co24 Co3 2.389700 1_555
Co24 Co9 2.389700 1_554
Co24 Co6 2.389891 1_554
Co24 Co30 2.528598 1_555
Co24 Co31 2.528605 1_554
Co25 Co7 2.389304 1_555
Co25 Co5 2.389304 1_555
Co25 Co31 2.523152 1_555
Co25 Co30 2.523152 1_555
Co26 Co8 2.389700 1_555
Co26 Co4 2.389891 1_545
Co26 Co31 2.528598 1_555
Co26 Co30 2.528605 1_545
Co27 Co6 2.406729 1_554
Co27 Co3 2.407303 1_455
Co27 Co9 2.407303 1_554
Co27 Cu0 2.576205 1_554
Co27 Cu1 2.576205 1_455
Co28 Co7 2.407284 1_555
Co28 Co5 2.407284 1_455
Co28 Cu1 2.573792 1_455
Co28 Cu0 2.573792 1_555
Co29 Co4 2.406729 1_445
Co29 Co8 2.407303 1_555
Co29 Cu1 2.576205 1_445
Co29 Cu0 2.576205 1_555
Co30 Cu1 2.411123 1_555
Co30 Co5 2.722723 1_555
Co30 Co4 2.728795 1_555
Co31 Cu0 2.411123 1_555
Co31 Co7 2.722723 1_555
Co31 Co8 2.727052 1_555
Co31 Co9 2.727060 1_555
Co31 Co6 2.728795 1_555
