# generated using pymatgen
data_NdCoP
_symmetry_space_group_name_H-M   'P 1'
_cell_length_a   3.88690900
_cell_length_b   3.88690900
_cell_length_c   7.64057300
_cell_angle_alpha   90.00000000
_cell_angle_beta   90.00000000
_cell_angle_gamma   90.00000000
_symmetry_Int_Tables_number   1
_chemical_formula_structural   NdCoP
_chemical_formula_sum   'Nd2 Co2 P2'
_cell_volume   115.43424735
_cell_formula_units_Z   2
loop_
 _symmetry_equiv_pos_site_id
 _symmetry_equiv_pos_as_xyz
  1  'x, y, z'
loop_
 _atom_site_type_symbol
 _atom_site_label
 _atom_site_symmetry_multiplicity
 _atom_site_fract_x
 _atom_site_fract_y
 _atom_site_fract_z
 _atom_site_occupancy
  Nd  Nd0  1  0.00000000  0.50000000  0.29967000  1
  Nd  Nd1  1  0.50000000  0.00000000  0.70033000  1
  Co  Co0  1  0.00000000  0.00000000  0.00000000  1
  Co  Co1  1  0.50000000  0.50000000  0.00000000  1
  P  P0  1  0.00000000  0.50000000  0.84205100  1
  P  P1  1  0.50000000  0.00000000  0.15794900  1
loop_
_geom_bond_atom_site_label_1
_geom_bond_atom_site_label_2
_geom_bond_distance
_geom_bond_site_symmetry_2
Nd0 P1 2.954074 1_565
Nd0 P1 2.954074 1_555
Nd0 P1 2.954074 1_455
Nd0 P1 2.954074 1_465
Nd1 P0 2.954074 1_545
Nd1 P0 2.954074 1_555
Nd1 P0 2.954074 1_655
Nd1 P0 2.954074 1_645
Co0 P0 2.287670 1_544
Co0 P1 2.287670 1_555
Co0 P0 2.287670 1_554
Co0 P1 2.287670 1_455
Co0 Nd1 3.003251 1_554
Co0 Nd0 3.003251 1_555
Co0 Nd1 3.003251 1_454
Co0 Nd0 3.003251 1_545
Co1 P0 2.287670 1_654
Co1 P1 2.287670 1_565
Co1 P1 2.287670 1_555
Co1 P0 2.287670 1_554
Co1 Nd1 3.003251 1_564
Co1 Nd1 3.003251 1_554
Co1 Nd0 3.003251 1_555
Co1 Nd0 3.003251 1_655
