# generated using pymatgen
data_La2Au
_symmetry_space_group_name_H-M   'P 1'
_cell_length_a   5.17786487
_cell_length_b   7.46244189
_cell_length_c   9.48863973
_cell_angle_alpha   90.00000000
_cell_angle_beta   90.00000000
_cell_angle_gamma   90.00000000
_symmetry_Int_Tables_number   1
_chemical_formula_structural   La2Au
_chemical_formula_sum   'La8 Au4'
_cell_volume   366.63644388
_cell_formula_units_Z   4
loop_
 _symmetry_equiv_pos_site_id
 _symmetry_equiv_pos_as_xyz
  1  'x, y, z'
loop_
 _atom_site_type_symbol
 _atom_site_label
 _atom_site_symmetry_multiplicity
 _atom_site_fract_x
 _atom_site_fract_y
 _atom_site_fract_z
 _atom_site_occupancy
  La  La0  1  0.75000000  0.64917738  0.59280031  1
  La  La1  1  0.75000000  0.14917738  0.90719969  1
  La  La2  1  0.25000000  0.35082262  0.40719969  1
  La  La3  1  0.25000000  0.85082262  0.09280031  1
  La  La4  1  0.75000000  0.00001648  0.32784647  1
  La  La5  1  0.75000000  0.50001648  0.17215353  1
  La  La6  1  0.25000000  0.99998352  0.67215353  1
  La  La7  1  0.25000000  0.49998352  0.82784647  1
  Au  Au0  1  0.75000000  0.24158727  0.59088224  1
  Au  Au1  1  0.75000000  0.74158727  0.90911776  1
  Au  Au2  1  0.25000000  0.75841273  0.40911776  1
  Au  Au3  1  0.25000000  0.25841273  0.09088224  1
loop_
_geom_bond_atom_site_label_1
_geom_bond_atom_site_label_2
_geom_bond_distance
_geom_bond_site_symmetry_2
La0 La7 3.593914 1_555
La0 La7 3.593914 1_655
La0 La4 3.629737 1_565
La0 La6 3.758026 1_555
La0 La6 3.758026 1_655
La0 La2 3.842023 1_655
La0 La2 3.842023 1_555
La0 La5 4.143670 1_555
La1 La6 3.593914 1_645
La1 La6 3.593914 1_545
La1 La5 3.629737 1_556
La1 La7 3.758026 1_655
La1 La7 3.758026 1_555
La1 La3 3.842023 1_546
La1 La3 3.842023 1_646
La1 La4 4.143670 1_556
La2 La5 3.593914 1_455
La2 La5 3.593914 1_555
La2 La6 3.629737 1_545
La2 La4 3.758026 1_555
La2 La4 3.758026 1_455
La2 La7 4.143670 1_555
La3 La4 3.593914 1_465
La3 La4 3.593914 1_565
La3 La7 3.629737 1_554
La3 La5 3.758026 1_555
La3 La5 3.758026 1_455
La3 La6 4.143670 1_554
Au0 La0 3.041672 1_555
Au0 La4 3.078804 1_555
Au0 La1 3.079625 1_555
Au0 La2 3.225640 1_655
Au0 La2 3.225640 1_555
Au0 La6 3.247752 1_545
Au0 La6 3.247752 1_645
Au1 La1 3.041672 1_565
Au1 La5 3.078804 1_556
Au1 La0 3.079625 1_555
Au1 La3 3.225640 1_556
Au1 La3 3.225640 1_656
Au1 La7 3.247752 1_655
Au1 La7 3.247752 1_555
Au2 La2 3.041672 1_555
Au2 La6 3.078804 1_555
Au2 La3 3.079625 1_555
Au2 La0 3.225640 1_555
Au2 La0 3.225640 1_455
Au2 La4 3.247752 1_565
Au2 La4 3.247752 1_465
Au3 La3 3.041672 1_545
Au3 La7 3.078804 1_554
Au3 La2 3.079625 1_555
Au3 La1 3.225640 1_454
Au3 La1 3.225640 1_554
Au3 La5 3.247752 1_555
Au3 La5 3.247752 1_455
