# generated using pymatgen
data_Eu(Mg4Al3)4
_symmetry_space_group_name_H-M   'P 1'
_cell_length_a   9.19422279
_cell_length_b   9.19422279
_cell_length_c   9.19422279
_cell_angle_alpha   109.47122063
_cell_angle_beta   109.47122063
_cell_angle_gamma   109.47122063
_symmetry_Int_Tables_number   1
_chemical_formula_structural   Eu(Mg4Al3)4
_chemical_formula_sum   'Eu1 Mg16 Al12'
_cell_volume   598.30575193
_cell_formula_units_Z   1
loop_
 _symmetry_equiv_pos_site_id
 _symmetry_equiv_pos_as_xyz
  1  'x, y, z'
loop_
 _atom_site_type_symbol
 _atom_site_label
 _atom_site_symmetry_multiplicity
 _atom_site_fract_x
 _atom_site_fract_y
 _atom_site_fract_z
 _atom_site_occupancy
  Eu  Eu0  1  0.00000000  0.00000000  0.00000000  1
  Mg  Mg0  1  0.35813300  0.00000000  0.00000000  1
  Mg  Mg1  1  0.60267000  0.31973400  0.00000000  1
  Mg  Mg2  1  0.31973400  0.60267000  0.00000000  1
  Mg  Mg3  1  0.00000000  0.35813300  0.00000000  1
  Mg  Mg4  1  0.39733000  0.39733000  0.71706400  1
  Mg  Mg5  1  0.28293600  0.68026600  0.68026600  1
  Mg  Mg6  1  0.68026600  0.28293600  0.68026600  1
  Mg  Mg7  1  0.64186700  0.64186700  0.64186700  1
  Mg  Mg8  1  0.31973400  0.00000000  0.60267000  1
  Mg  Mg9  1  0.00000000  0.31973400  0.60267000  1
  Mg  Mg10  1  0.39733000  0.71706400  0.39733000  1
  Mg  Mg11  1  0.71706400  0.39733000  0.39733000  1
  Mg  Mg12  1  0.00000000  0.00000000  0.35813300  1
  Mg  Mg13  1  0.00000000  0.60267000  0.31973400  1
  Mg  Mg14  1  0.60267000  0.00000000  0.31973400  1
  Mg  Mg15  1  0.68026600  0.68026600  0.28293600  1
  Al  Al0  1  0.63257600  0.81224300  0.00000000  1
  Al  Al1  1  0.81224300  0.63257600  0.00000000  1
  Al  Al2  1  0.18775700  0.18775700  0.82033200  1
  Al  Al3  1  0.63257600  0.00000000  0.81224300  1
  Al  Al4  1  0.00000000  0.63257600  0.81224300  1
  Al  Al5  1  0.81224300  0.00000000  0.63257600  1
  Al  Al6  1  0.00000000  0.81224300  0.63257600  1
  Al  Al7  1  0.17966800  0.36742400  0.36742400  1
  Al  Al8  1  0.36742400  0.17966800  0.36742400  1
  Al  Al9  1  0.82033200  0.18775700  0.18775700  1
  Al  Al10  1  0.18775700  0.82033200  0.18775700  1
  Al  Al11  1  0.36742400  0.36742400  0.17966800  1
loop_
_geom_bond_atom_site_label_1
_geom_bond_atom_site_label_2
_geom_bond_distance
_geom_bond_site_symmetry_2
Eu0 Mg3 3.292755 1_555
Eu0 Mg0 3.292755 1_555
Eu0 Mg12 3.292755 1_555
Eu0 Mg7 3.292755 1_444
Mg0 Mg1 3.048043 1_555
Mg0 Mg14 3.048043 1_555
Mg0 Mg5 3.048043 1_544
Mg1 Mg15 3.114728 1_555
Mg1 Mg4 3.114728 1_554
Mg1 Mg8 3.187691 1_554
Mg1 Mg13 3.187691 1_655
Mg1 Mg11 3.187691 1_555
Mg1 Mg6 3.187691 1_554
Mg2 Mg3 3.048043 1_555
Mg2 Mg4 3.114728 1_554
Mg2 Mg9 3.187691 1_554
Mg2 Mg5 3.187691 1_554
Mg3 Mg6 3.048043 1_454
Mg4 Mg7 3.048043 1_555
Mg4 Mg5 3.187691 1_555
Mg4 Mg6 3.187691 1_555
Mg4 Mg8 3.187691 1_555
Mg4 Mg9 3.187691 1_555
Mg5 Mg9 3.114728 1_555
Mg5 Mg8 3.187691 1_565
Mg6 Mg8 3.114728 1_555
Mg6 Mg9 3.187691 1_655
Mg10 Mg7 3.048043 1_555
Mg10 Mg14 3.114728 1_565
Mg10 Mg8 3.114728 1_565
Mg10 Mg5 3.187691 1_555
Mg10 Mg15 3.187691 1_555
Mg10 Mg2 3.187691 1_555
Mg10 Mg13 3.187691 1_555
Mg11 Mg7 3.048043 1_555
Mg11 Mg13 3.114728 1_655
Mg11 Mg9 3.114728 1_655
Mg11 Mg6 3.187691 1_555
Mg11 Mg15 3.187691 1_555
Mg11 Mg14 3.187691 1_555
Mg12 Mg9 3.048043 1_555
Mg12 Mg8 3.048043 1_555
Mg12 Mg15 3.048043 1_445
Mg13 Mg3 3.048043 1_555
Mg13 Mg5 3.114728 1_555
Mg13 Mg8 3.187691 1_565
Mg13 Mg15 3.187691 1_455
Mg14 Mg6 3.114728 1_555
Mg14 Mg2 3.187691 1_545
Mg14 Mg9 3.187691 1_655
Mg14 Mg15 3.187691 1_545
Mg15 Mg2 3.114728 1_555
Al0 Al1 2.697539 1_555
Al0 Al3 2.819003 1_564
Al0 Al9 2.819003 1_565
Al0 Mg2 2.879453 1_555
Al0 Mg14 3.028145 1_565
Al0 Mg5 3.028145 1_554
Al0 Mg15 3.182843 1_555
Al0 Mg4 3.182843 1_554
Al0 Mg12 3.184560 1_665
Al0 Mg7 3.184560 1_554
Al0 Eu0 3.241040 1_665
Al1 Al4 2.819003 1_654
Al1 Al10 2.819003 1_655
Al1 Mg1 2.879453 1_555
Al1 Mg13 3.028145 1_655
Al1 Mg6 3.028145 1_554
Al1 Mg15 3.182843 1_555
Al1 Mg4 3.182843 1_554
Al1 Mg12 3.184560 1_665
Al1 Mg7 3.184560 1_554
Al1 Eu0 3.241040 1_665
Al2 Al6 2.819003 1_545
Al2 Al5 2.819003 1_455
Al2 Mg4 2.879446 1_555
Al2 Mg8 3.028139 1_555
Al2 Mg9 3.028139 1_555
Al2 Mg2 3.182843 1_556
Al2 Mg1 3.182843 1_556
Al2 Mg3 3.184565 1_556
Al2 Mg0 3.184565 1_556
Al2 Eu0 3.241048 1_556
Al3 Al5 2.697539 1_555
Al3 Al9 2.819003 1_556
Al3 Mg8 2.879453 1_555
Al3 Mg1 3.028145 1_556
Al3 Mg5 3.028145 1_545
Al3 Mg6 3.182843 1_555
Al3 Mg10 3.182843 1_545
Al3 Mg7 3.184560 1_545
Al3 Mg3 3.184560 1_656
Al3 Eu0 3.241040 1_656
Al4 Al6 2.697539 1_555
Al4 Mg9 2.879453 1_555
Al4 Mg2 3.028145 1_556
Al4 Mg6 3.028145 1_455
Al4 Mg5 3.182843 1_555
Al4 Mg11 3.182843 1_455
Al4 Mg0 3.184560 1_566
Al4 Mg7 3.184560 1_455
Al4 Eu0 3.241040 1_566
Al5 Al6 2.819003 1_645
Al5 Mg14 2.879453 1_555
Al5 Mg9 3.028145 1_655
Al5 Mg15 3.028145 1_545
Al5 Mg6 3.182843 1_555
Al5 Mg10 3.182843 1_545
Al5 Mg3 3.184560 1_656
Al5 Mg7 3.184560 1_545
Al5 Eu0 3.241040 1_656
Al6 Mg13 2.879453 1_555
Al6 Mg8 3.028145 1_565
Al6 Mg15 3.028145 1_455
Al6 Mg5 3.182843 1_555
Al6 Mg11 3.182843 1_455
Al6 Mg0 3.184560 1_566
Al6 Mg7 3.184560 1_455
Al6 Eu0 3.241040 1_566
Al7 Al9 2.697554 1_455
Al7 Al8 2.818988 1_555
Al7 Mg5 2.879456 1_555
Al7 Mg10 3.028142 1_555
Al7 Mg4 3.028142 1_555
Al7 Mg13 3.182849 1_555
Al7 Mg9 3.182849 1_555
Al7 Mg12 3.184562 1_555
Al7 Mg3 3.184562 1_555
Al7 Eu0 3.241039 1_555
Al8 Mg6 2.879456 1_555
Al8 Mg11 3.028142 1_555
Al8 Mg4 3.028142 1_555
Al8 Mg14 3.182849 1_555
Al8 Mg8 3.182849 1_555
Al8 Mg0 3.184562 1_555
Al8 Mg12 3.184562 1_555
Al8 Eu0 3.241039 1_555
Al9 Mg11 2.879446 1_555
Al9 Mg1 3.028139 1_555
Al9 Mg14 3.028139 1_555
Al9 Mg9 3.182843 1_655
Al9 Mg13 3.182843 1_655
Al9 Mg3 3.184565 1_655
Al9 Mg12 3.184565 1_655
Al9 Eu0 3.241048 1_655
Al10 Al8 2.697554 1_565
Al10 Al4 2.819003 1_554
Al10 Mg10 2.879446 1_555
Al10 Mg13 3.028139 1_555
Al10 Mg2 3.028139 1_555
Al10 Mg8 3.182843 1_565
Al10 Mg14 3.182843 1_565
Al10 Mg0 3.184565 1_565
Al10 Mg12 3.184565 1_565
Al10 Eu0 3.241048 1_565
Al11 Al2 2.697554 1_554
Al11 Al8 2.818988 1_555
Al11 Al7 2.818988 1_555
Al11 Mg15 2.879456 1_555
Al11 Mg11 3.028142 1_555
Al11 Mg10 3.028142 1_555
Al11 Mg2 3.182849 1_555
Al11 Mg1 3.182849 1_555
Al11 Mg0 3.184562 1_555
Al11 Mg3 3.184562 1_555
Al11 Eu0 3.241039 1_555
