# generated using pymatgen
data_Sr7CaTi8O20
_symmetry_space_group_name_H-M   'P 1'
_cell_length_a   11.25748435
_cell_length_b   11.23257187
_cell_length_c   17.62558528
_cell_angle_alpha   108.55023436
_cell_angle_beta   108.79457358
_cell_angle_gamma   90.06439020
_symmetry_Int_Tables_number   1
_chemical_formula_structural   Sr7CaTi8O20
_chemical_formula_sum   'Sr28 Ca4 Ti32 O80'
_cell_volume   1986.92846571
_cell_formula_units_Z   4
loop_
 _symmetry_equiv_pos_site_id
 _symmetry_equiv_pos_as_xyz
  1  'x, y, z'
loop_
 _atom_site_type_symbol
 _atom_site_label
 _atom_site_symmetry_multiplicity
 _atom_site_fract_x
 _atom_site_fract_y
 _atom_site_fract_z
 _atom_site_occupancy
  Sr  Sr0  1  0.30740200  0.05948600  0.61983200  1
  Sr  Sr1  1  0.30586500  0.55878900  0.61905800  1
  Sr  Sr2  1  0.80695600  0.05754200  0.61824500  1
  Sr  Sr3  1  0.80475700  0.56334200  0.11685300  1
  Sr  Sr4  1  0.80640100  0.55938200  0.61913200  1
  Sr  Sr5  1  0.18955800  0.43921500  0.38478100  1
  Sr  Sr6  1  0.18635300  0.44052900  0.88045100  1
  Sr  Sr7  1  0.19235500  0.93998400  0.38789600  1
  Sr  Sr8  1  0.18703400  0.94042300  0.87957900  1
  Sr  Sr9  1  0.69170600  0.44064500  0.38690900  1
  Sr  Sr10  1  0.68864100  0.44068800  0.88236800  1
  Sr  Sr11  1  0.68867000  0.93698600  0.38476900  1
  Sr  Sr12  1  0.68837700  0.93949200  0.88042600  1
  Sr  Sr13  1  0.05904200  0.30396700  0.11645900  1
  Sr  Sr14  1  0.05565900  0.30936600  0.61896000  1
  Sr  Sr15  1  0.05570400  0.80888300  0.61785100  1
  Sr  Sr16  1  0.55816400  0.30328300  0.11327700  1
  Sr  Sr17  1  0.55617400  0.31062700  0.62049800  1
  Sr  Sr18  1  0.55739600  0.80253000  0.11533100  1
  Sr  Sr19  1  0.55681300  0.80893700  0.61894500  1
  Sr  Sr20  1  0.44336200  0.19732300  0.38827700  1
  Sr  Sr21  1  0.43762600  0.18898000  0.88103400  1
  Sr  Sr22  1  0.43933300  0.69855900  0.38545800  1
  Sr  Sr23  1  0.43797900  0.68996700  0.88147800  1
  Sr  Sr24  1  0.93771200  0.19259100  0.38539000  1
  Sr  Sr25  1  0.93799600  0.18934100  0.88218000  1
  Sr  Sr26  1  0.93927100  0.69590600  0.38326300  1
  Sr  Sr27  1  0.93576200  0.68773000  0.87965900  1
  Ca  Ca0  1  0.30475000  0.05973500  0.10274600  1
  Ca  Ca1  1  0.30809500  0.56337900  0.10491100  1
  Ca  Ca2  1  0.80079300  0.05782900  0.10493500  1
  Ca  Ca3  1  0.05933300  0.79113100  0.10433400  1
  Ti  Ti0  1  0.00124400  0.99853100  0.00192000  1
  Ti  Ti1  1  0.99810000  0.00072500  0.50028300  1
  Ti  Ti2  1  0.99958800  0.49933900  0.00134800  1
  Ti  Ti3  1  0.99741500  0.49949600  0.49985800  1
  Ti  Ti4  1  0.49961100  0.99881600  0.99990600  1
  Ti  Ti5  1  0.49857700  0.00228700  0.50175000  1
  Ti  Ti6  1  0.49860800  0.49813400  0.99989900  1
  Ti  Ti7  1  0.49774800  0.50133300  0.50110200  1
  Ti  Ti8  1  0.24891500  0.25104700  0.99967300  1
  Ti  Ti9  1  0.24809200  0.24952400  0.50147100  1
  Ti  Ti10  1  0.24863900  0.75082500  0.99940100  1
  Ti  Ti11  1  0.24777000  0.74938300  0.50048900  1
  Ti  Ti12  1  0.74987300  0.24899600  0.99973800  1
  Ti  Ti13  1  0.74693000  0.24952700  0.50135100  1
  Ti  Ti14  1  0.75085500  0.75169500  0.00166600  1
  Ti  Ti15  1  0.74696500  0.74852300  0.49999000  1
  Ti  Ti16  1  0.10714400  0.09659700  0.24554800  1
  Ti  Ti17  1  0.11669900  0.11765500  0.75077600  1
  Ti  Ti18  1  0.11583500  0.61234800  0.24858700  1
  Ti  Ti19  1  0.12471300  0.61733900  0.75019200  1
  Ti  Ti20  1  0.60751400  0.11313100  0.24815300  1
  Ti  Ti21  1  0.61827800  0.11702300  0.75111400  1
  Ti  Ti22  1  0.61234300  0.61400500  0.24833400  1
  Ti  Ti23  1  0.62553900  0.61713900  0.75122700  1
  Ti  Ti24  1  0.36916800  0.39654000  0.24743500  1
  Ti  Ti25  1  0.37516000  0.38415200  0.75150000  1
  Ti  Ti26  1  0.35881800  0.89234200  0.24590200  1
  Ti  Ti27  1  0.36649800  0.88341600  0.75075700  1
  Ti  Ti28  1  0.86481800  0.38663400  0.24886800  1
  Ti  Ti29  1  0.87545000  0.38281800  0.75122000  1
  Ti  Ti30  1  0.85916200  0.89241200  0.24821200  1
  Ti  Ti31  1  0.86773800  0.88298900  0.75119800  1
  O  O0  1  0.12105600  0.12332500  0.49674700  1
  O  O1  1  0.12145200  0.12064900  0.99292800  1
  O  O2  1  0.11902000  0.62038800  0.49256800  1
  O  O3  1  0.12021300  0.62206900  0.99380200  1
  O  O4  1  0.62004600  0.12275100  0.49585900  1
  O  O5  1  0.62067900  0.11984300  0.99211000  1
  O  O6  1  0.62077300  0.62323800  0.49761500  1
  O  O7  1  0.61990000  0.62095700  0.99250700  1
  O  O8  1  0.13391800  0.38444500  0.01446600  1
  O  O9  1  0.12462600  0.37625000  0.50405800  1
  O  O10  1  0.13243100  0.88148400  0.01374800  1
  O  O11  1  0.12536900  0.87753100  0.50633900  1
  O  O12  1  0.62897100  0.37789300  0.00843800  1
  O  O13  1  0.62531300  0.37878800  0.50741400  1
  O  O14  1  0.63201300  0.88243200  0.01024500  1
  O  O15  1  0.62445300  0.87737200  0.50489500  1
  O  O16  1  0.37105400  0.12399700  0.49685600  1
  O  O17  1  0.37009600  0.12075600  0.99386600  1
  O  O18  1  0.36858400  0.62123000  0.49216500  1
  O  O19  1  0.36845800  0.62003200  0.99265200  1
  O  O20  1  0.86832400  0.12125000  0.49299100  1
  O  O21  1  0.87154700  0.11892900  0.99604300  1
  O  O22  1  0.86891800  0.62074800  0.49216400  1
  O  O23  1  0.87234300  0.62338500  0.99497100  1
  O  O24  1  0.37820300  0.38069000  0.01206500  1
  O  O25  1  0.37259600  0.37605000  0.50163300  1
  O  O26  1  0.37884500  0.88124300  0.01212400  1
  O  O27  1  0.37533100  0.87815400  0.50520500  1
  O  O28  1  0.88125000  0.37957200  0.01281500  1
  O  O29  1  0.87387800  0.37644200  0.50473100  1
  O  O30  1  0.88472000  0.88180500  0.01696300  1
  O  O31  1  0.87260300  0.87475900  0.50026400  1
  O  O32  1  0.07581600  0.09006200  0.13266500  1
  O  O33  1  0.05796500  0.07584400  0.62900500  1
  O  O34  1  0.06533400  0.59464600  0.13170000  1
  O  O35  1  0.05911200  0.57763800  0.62862100  1
  O  O36  1  0.56426800  0.08599800  0.12957200  1
  O  O37  1  0.56272900  0.07738900  0.62978400  1
  O  O38  1  0.56037900  0.58057000  0.12749100  1
  O  O39  1  0.55635900  0.57673000  0.62948000  1
  O  O40  1  0.43783200  0.41955100  0.36602700  1
  O  O41  1  0.42967800  0.41503500  0.87227800  1
  O  O42  1  0.42894400  0.92770100  0.36716400  1
  O  O43  1  0.43239900  0.91622700  0.87246400  1
  O  O44  1  0.93200500  0.41339400  0.36801800  1
  O  O45  1  0.93309200  0.41720500  0.87384000  1
  O  O46  1  0.93953600  0.92585600  0.36792300  1
  O  O47  1  0.93385800  0.91536700  0.87396000  1
  O  O48  1  0.31635700  0.28391900  0.13409000  1
  O  O49  1  0.31137100  0.30398300  0.62928800  1
  O  O50  1  0.31175300  0.78545200  0.13041400  1
  O  O51  1  0.31276700  0.80015200  0.62920800  1
  O  O52  1  0.81196300  0.28386100  0.13217700  1
  O  O53  1  0.81137300  0.29996700  0.62986600  1
  O  O54  1  0.80982700  0.79483600  0.13118100  1
  O  O55  1  0.81546700  0.80257900  0.62943300  1
  O  O56  1  0.18148400  0.18858500  0.36481700  1
  O  O57  1  0.18536800  0.20593400  0.87366400  1
  O  O58  1  0.18144100  0.70260200  0.36891800  1
  O  O59  1  0.18170000  0.70591100  0.87292100  1
  O  O60  1  0.67235600  0.19963700  0.36925200  1
  O  O61  1  0.68905800  0.20356800  0.87328400  1
  O  O62  1  0.67190400  0.69255500  0.36963100  1
  O  O63  1  0.68656300  0.70603300  0.87361800  1
  O  O64  1  0.44585500  0.03379100  0.23946300  1
  O  O65  1  0.49611500  0.00276300  0.75370100  1
  O  O66  1  0.45331700  0.53605300  0.23940300  1
  O  O67  1  0.49603200  0.50618300  0.75518800  1
  O  O68  1  0.94709200  0.03932800  0.23938400  1
  O  O69  1  0.99727100  0.00242600  0.75511800  1
  O  O70  1  0.97739300  0.51156300  0.24711100  1
  O  O71  1  0.99507800  0.50477100  0.75314600  1
  O  O72  1  0.22379100  0.47953400  0.25003400  1
  O  O73  1  0.24569900  0.50017200  0.75233800  1
  O  O74  1  0.19398500  0.95001400  0.24076500  1
  O  O75  1  0.24649600  0.00259700  0.75218100  1
  O  O76  1  0.72939900  0.48997900  0.24807800  1
  O  O77  1  0.74523600  0.49789000  0.75253700  1
  O  O78  1  0.71698400  0.98463300  0.25188500  1
  O  O79  1  0.74637400  0.99977300  0.75251700  1
loop_
_geom_bond_atom_site_label_1
_geom_bond_atom_site_label_2
_geom_bond_distance
_geom_bond_site_symmetry_2
Ca0 O48 2.393952 1_555
Ca0 O26 2.468073 1_545
Ca0 O10 2.502955 1_545
Ca0 O64 2.529101 1_555
Ca0 O17 2.537569 1_554
Ca0 O1 2.597096 1_554
Ca0 O32 2.792775 1_555
Ca0 O36 2.804478 1_555
Ca1 O50 2.387561 1_555
Ca1 O24 2.492202 1_555
Ca1 O66 2.520544 1_555
Ca1 O8 2.522707 1_555
Ca1 O19 2.539337 1_554
Ca1 O3 2.626585 1_554
Ca1 O38 2.735563 1_555
Ca1 O34 2.922845 1_555
Ca2 O52 2.424292 1_555
Ca2 O14 2.476542 1_545
Ca2 O68 2.484075 1_555
Ca2 O30 2.490726 1_545
Ca2 O21 2.571194 1_554
Ca2 O5 2.614858 1_554
Ca2 O36 2.835141 1_555
Ca2 O32 2.977489 1_655
Ca3 O34 2.401018 1_555
Ca3 O10 2.476318 1_555
Ca3 O74 2.485935 1_555
Ca3 O30 2.514909 1_455
Ca3 O3 2.525999 1_554
Ca3 O23 2.600510 1_454
Ca3 O50 2.732680 1_555
Ca3 O54 2.993193 1_455
O0 Ti9 1.976151 1_555
O0 Ti1 1.980449 1_455
O0 Sr7 2.654851 1_545
O0 Sr24 2.661326 1_455
O0 Sr0 2.771667 1_555
O0 Sr14 2.776714 1_555
O1 Ti8 1.998257 1_555
O1 Ti0 2.002570 1_546
O1 Sr8 2.648595 1_545
O1 Sr25 2.652393 1_455
O1 Sr13 2.758733 1_556
O2 Ti3 1.988650 1_455
O2 Ti11 1.988939 1_555
O2 Sr5 2.626210 1_555
O2 Sr26 2.656603 1_455
O2 Sr1 2.799406 1_555
O2 Sr15 2.812437 1_555
O3 Ti2 1.997741 1_456
O3 Ti10 2.001042 1_555
O3 Sr6 2.659668 1_555
O3 Sr27 2.675612 1_455
O4 Ti5 1.971882 1_555
O4 Ti13 1.973865 1_555
O4 Sr20 2.614864 1_555
O4 Sr11 2.676446 1_545
O4 Sr2 2.775109 1_555
O4 Sr17 2.805003 1_555
O5 Ti4 1.989947 1_545
O5 Ti12 1.995771 1_555
O5 Sr12 2.644331 1_545
O5 Sr21 2.655922 1_555
O5 Sr16 2.733808 1_556
O6 Ti7 1.975096 1_555
O6 Ti15 1.979897 1_555
O6 Sr9 2.667004 1_555
O6 Sr22 2.694809 1_555
O6 Sr4 2.750557 1_555
O6 Sr19 2.756792 1_555
O7 Ti6 2.002379 1_555
O7 Ti14 2.011692 1_556
O7 Sr10 2.633995 1_555
O7 Sr23 2.647841 1_555
O7 Sr18 2.741675 1_556
O7 Sr3 2.742183 1_556
O8 Ti8 1.990577 1_554
O8 Ti2 1.993677 1_455
O8 Sr13 2.601540 1_555
O8 Sr6 2.858176 1_554
O8 Sr25 2.920292 1_454
O9 Ti9 1.991022 1_555
O9 Ti3 1.993528 1_455
O9 Sr1 2.675230 1_555
O9 Sr14 2.692330 1_555
O9 Sr5 2.718348 1_555
O9 Sr24 2.732602 1_455
O10 Ti10 1.977537 1_554
O10 Ti0 1.983285 1_555
O10 Sr8 2.887962 1_554
O10 Sr27 2.927250 1_454
O11 Ti1 1.994709 1_465
O11 Ti11 1.995708 1_555
O11 Sr15 2.651198 1_555
O11 Sr0 2.669451 1_565
O11 Sr7 2.713662 1_555
O11 Sr26 2.739168 1_455
O12 Ti12 1.992456 1_554
O12 Ti6 1.998003 1_554
O12 Sr16 2.585576 1_555
O12 Sr3 2.632144 1_555
O12 Sr10 2.800758 1_554
O12 Sr21 2.833095 1_554
O13 Ti7 1.992065 1_555
O13 Ti13 1.998496 1_555
O13 Sr4 2.647792 1_555
O13 Sr17 2.670945 1_555
O13 Sr20 2.693607 1_555
O13 Sr9 2.741054 1_555
O14 Ti4 1.986150 1_554
O14 Ti14 1.990666 1_555
O14 Sr18 2.645808 1_555
O14 Sr12 2.813660 1_554
O14 Sr23 2.875612 1_554
O15 Ti5 1.995789 1_565
O15 Ti15 2.001499 1_555
O15 Sr2 2.661090 1_565
O15 Sr19 2.679512 1_555
O15 Sr22 2.698569 1_555
O15 Sr11 2.709465 1_555
O16 Ti9 1.978581 1_555
O16 Ti5 1.984191 1_555
O16 Sr7 2.642533 1_545
O16 Sr20 2.647395 1_555
O16 Sr17 2.764749 1_555
O16 Sr0 2.781308 1_555
O17 Ti4 2.002615 1_545
O17 Ti8 2.003120 1_555
O17 Sr21 2.657593 1_555
O17 Sr8 2.669699 1_545
O17 Sr16 2.736616 1_556
O18 Ti11 1.985451 1_555
O18 Ti7 1.986113 1_555
O18 Sr5 2.625790 1_555
O18 Sr22 2.632341 1_555
O18 Sr19 2.805365 1_555
O18 Sr1 2.829694 1_555
O19 Ti10 1.997148 1_555
O19 Ti6 2.008233 1_555
O19 Sr6 2.649587 1_555
O19 Sr23 2.652443 1_555
O19 Sr18 2.758282 1_556
O20 Ti13 1.991107 1_555
O20 Ti1 1.994456 1_555
O20 Sr24 2.601788 1_555
O20 Sr11 2.646789 1_545
O20 Sr14 2.798189 1_655
O20 Sr2 2.801790 1_555
O21 Ti0 1.991873 1_646
O21 Ti12 2.004085 1_555
O21 Sr12 2.671475 1_545
O21 Sr25 2.681178 1_555
O21 Sr13 2.752541 1_656
O22 Ti3 1.990331 1_555
O22 Ti15 1.991041 1_555
O22 Sr9 2.594682 1_555
O22 Sr26 2.652037 1_555
O22 Sr15 2.793685 1_655
O22 Sr4 2.823796 1_555
O23 Ti14 1.990428 1_556
O23 Ti2 2.001599 1_556
O23 Sr27 2.651677 1_555
O23 Sr10 2.679811 1_555
O23 Sr3 2.760905 1_556
O24 Ti8 1.968420 1_554
O24 Ti6 1.996693 1_554
O24 Sr16 2.589366 1_555
O24 Sr21 2.872764 1_554
O24 Sr6 2.874841 1_554
O25 Ti9 1.993666 1_555
O25 Ti7 1.994455 1_555
O25 Sr20 2.670937 1_555
O25 Sr5 2.681354 1_555
O25 Sr1 2.713567 1_555
O25 Sr17 2.719086 1_555
O26 Ti10 1.979698 1_554
O26 Ti4 2.001088 1_554
O26 Sr18 2.608130 1_555
O26 Sr23 2.864407 1_554
O26 Sr8 2.881514 1_554
O27 Ti5 1.994237 1_565
O27 Ti11 2.000782 1_555
O27 Sr19 2.674625 1_555
O27 Sr7 2.678254 1_555
O27 Sr0 2.682536 1_565
O27 Sr22 2.705068 1_555
O28 Ti12 1.987986 1_554
O28 Ti2 1.991947 1_555
O28 Sr13 2.588300 1_655
O28 Sr3 2.641610 1_555
O28 Sr25 2.845332 1_554
O28 Sr10 2.873049 1_554
O29 Ti13 1.991162 1_555
O29 Ti3 2.000041 1_555
O29 Sr14 2.668864 1_655
O29 Sr4 2.686911 1_555
O29 Sr9 2.692672 1_555
O29 Sr24 2.723796 1_555
O30 Ti0 1.987847 1_655
O30 Ti14 1.990506 1_555
O30 Sr27 2.912250 1_554
O30 Sr12 2.943605 1_554
O31 Ti1 1.998213 1_565
O31 Ti15 1.999447 1_555
O31 Sr11 2.666937 1_555
O31 Sr26 2.686375 1_555
O31 Sr15 2.705226 1_655
O31 Sr2 2.713454 1_565
O32 Ti16 1.882358 1_555
O32 Ti0 2.077577 1_545
O32 Sr13 2.508620 1_555
O33 Ti17 1.925570 1_555
O33 Ti1 2.027077 1_455
O33 Sr14 2.684233 1_555
O33 Sr2 2.773366 1_455
O33 Sr0 2.867010 1_555
O33 Sr15 2.941557 1_545
O34 Ti18 1.895145 1_555
O34 Ti2 2.076063 1_455
O34 Sr3 2.870836 1_455
O34 Sr13 3.188577 1_555
O35 Ti19 1.925434 1_555
O35 Ti3 2.029535 1_455
O35 Sr15 2.663390 1_555
O35 Sr4 2.798875 1_455
O35 Sr1 2.840743 1_555
O35 Sr14 2.963103 1_555
O36 Ti20 1.907084 1_555
O36 Ti4 2.052925 1_544
O36 Sr16 2.545143 1_555
O36 Sr18 3.112191 1_545
O37 Ti21 1.922083 1_555
O37 Ti5 2.015689 1_555
O37 Sr17 2.676079 1_555
O37 Sr2 2.825420 1_555
O37 Sr0 2.825672 1_555
O37 Sr19 2.959463 1_545
O38 Ti22 1.925498 1_555
O38 Ti6 2.016030 1_554
O38 Sr18 2.568767 1_555
O38 Sr3 2.819848 1_555
O38 Sr16 3.043635 1_555
O39 Ti23 1.928707 1_555
O39 Ti7 2.022379 1_555
O39 Sr19 2.673271 1_555
O39 Sr1 2.769073 1_555
O39 Sr4 2.881668 1_555
O39 Sr17 2.942449 1_555
O40 Ti24 1.910016 1_555
O40 Ti7 2.130551 1_555
O40 Sr20 2.645020 1_555
O40 Sr9 2.761316 1_555
O40 Sr5 2.918899 1_555
O40 Sr22 3.041811 1_555
O41 Ti25 1.927830 1_555
O41 Ti6 2.017653 1_555
O41 Sr21 2.592335 1_555
O41 Sr6 2.799267 1_555
O41 Sr10 2.871394 1_555
O41 Sr23 3.040219 1_555
O42 Ti26 1.929001 1_555
O42 Ti5 2.116446 1_565
O42 Sr22 2.691989 1_555
O42 Sr7 2.800376 1_555
O42 Sr11 2.837296 1_555
O42 Sr20 2.929133 1_565
O43 Ti27 1.938765 1_555
O43 Ti4 2.013980 1_555
O43 Sr23 2.595989 1_555
O43 Sr8 2.814694 1_555
O43 Sr12 2.847173 1_555
O43 Sr21 3.018619 1_565
O44 Ti28 1.909749 1_555
O44 Ti3 2.084062 1_555
O44 Sr24 2.592311 1_555
O44 Sr5 2.823036 1_655
O44 Sr9 2.835465 1_555
O44 Sr26 3.097042 1_555
O45 Ti29 1.950867 1_555
O45 Ti2 2.014326 1_556
O45 Sr25 2.609630 1_555
O45 Sr10 2.812130 1_555
O45 Sr6 2.824131 1_655
O45 Sr27 3.007420 1_555
O46 Ti30 1.917435 1_555
O46 Ti1 2.084179 1_565
O46 Sr26 2.681323 1_555
O46 Sr7 2.750868 1_655
O46 Sr24 2.913632 1_565
O46 Sr11 2.932053 1_555
O47 Ti31 1.956796 1_555
O47 Ti0 2.022434 1_656
O47 Sr27 2.590501 1_555
O47 Sr12 2.812173 1_555
O47 Sr8 2.830338 1_655
O47 Sr25 3.034039 1_565
O48 Ti24 1.889399 1_555
O48 Ti8 2.146977 1_554
O48 Sr13 2.829174 1_555
O48 Sr16 2.878333 1_555
O49 Ti25 1.932404 1_555
O49 Ti9 2.011237 1_555
O49 Sr0 2.697368 1_555
O49 Sr17 2.811828 1_555
O49 Sr14 2.827241 1_555
O49 Sr1 2.923984 1_555
O50 Ti26 1.901138 1_555
O50 Ti10 2.087856 1_554
O50 Sr18 2.873923 1_555
O51 Ti27 1.928523 1_555
O51 Ti11 2.028303 1_555
O51 Sr1 2.658988 1_555
O51 Sr19 2.814486 1_555
O51 Sr15 2.839738 1_555
O51 Sr0 2.969296 1_565
O52 Ti28 1.901602 1_555
O52 Ti12 2.111241 1_554
O52 Sr16 2.784989 1_555
O52 Sr13 2.898164 1_655
O53 Ti29 1.923339 1_555
O53 Ti13 2.025306 1_555
O53 Sr2 2.664153 1_555
O53 Sr14 2.822008 1_655
O53 Sr17 2.828930 1_555
O53 Sr4 2.978933 1_555
O54 Ti30 1.893827 1_555
O54 Ti14 2.050746 1_555
O54 Sr3 2.530022 1_555
O54 Sr18 2.768639 1_555
O55 Ti31 1.928681 1_555
O55 Ti15 2.037765 1_555
O55 Sr4 2.679100 1_555
O55 Sr15 2.779446 1_655
O55 Sr19 2.860043 1_555
O55 Sr2 2.932185 1_565
O56 Ti16 1.915619 1_555
O56 Ti9 2.149017 1_555
O56 Sr5 2.721407 1_555
O56 Sr20 2.838993 1_555
O56 Sr24 2.880202 1_455
O56 Sr7 2.944409 1_545
O57 Ti17 1.955790 1_555
O57 Ti8 1.990133 1_555
O57 Sr6 2.599370 1_555
O57 Sr21 2.810126 1_555
O57 Sr25 2.845746 1_455
O57 Sr8 3.017028 1_545
O58 Ti18 1.921558 1_555
O58 Ti11 2.078346 1_555
O58 Sr7 2.577210 1_555
O58 Sr26 2.820935 1_455
O58 Sr22 2.824725 1_555
O58 Sr5 3.057742 1_555
O59 Ti19 1.953386 1_555
O59 Ti10 1.998295 1_555
O59 Sr8 2.598973 1_555
O59 Sr27 2.819082 1_455
O59 Sr23 2.848920 1_555
O59 Sr6 3.025534 1_555
O60 Ti20 1.925536 1_555
O60 Ti13 2.085466 1_555
O60 Sr9 2.625232 1_555
O60 Sr20 2.705747 1_555
O60 Sr24 2.911723 1_555
O60 Sr11 3.048726 1_545
O61 Ti21 1.943577 1_555
O61 Ti12 1.997275 1_555
O61 Sr10 2.617039 1_555
O61 Sr25 2.763597 1_555
O61 Sr21 2.884359 1_555
O61 Sr12 3.008773 1_545
O62 Ti22 1.916659 1_555
O62 Ti15 2.053576 1_555
O62 Sr11 2.673078 1_555
O62 Sr22 2.719594 1_555
O62 Sr26 2.940498 1_555
O62 Sr9 2.941940 1_555
O63 Ti23 1.948218 1_555
O63 Ti14 2.022546 1_556
O63 Sr12 2.586425 1_555
O63 Sr27 2.783230 1_555
O63 Sr23 2.854392 1_555
O63 Sr10 3.032830 1_555
O64 Ti26 1.918387 1_545
O64 Ti20 1.964566 1_555
O64 Sr20 2.690109 1_555
O65 Ti21 1.901121 1_555
O65 Ti27 1.957431 1_545
O65 Sr21 2.795362 1_555
O65 Sr12 2.842020 1_545
O65 Sr0 2.866389 1_555
O65 Sr19 2.933800 1_545
O66 Ti24 1.896691 1_555
O66 Ti22 1.929659 1_555
O66 Sr22 2.693637 1_555
O67 Ti25 1.901781 1_555
O67 Ti23 1.949511 1_555
O67 Sr23 2.767692 1_555
O67 Sr10 2.861570 1_555
O67 Sr1 2.878256 1_555
O67 Sr17 2.939440 1_555
O68 Ti16 1.870515 1_655
O68 Ti30 1.996576 1_545
O68 Sr24 2.637061 1_555
O69 Ti17 1.901078 1_655
O69 Ti31 1.950057 1_545
O69 Sr8 2.795847 1_645
O69 Sr25 2.800572 1_555
O69 Sr2 2.901087 1_555
O69 Sr15 2.948651 1_645
O70 Ti28 1.903984 1_555
O70 Ti18 1.913737 1_655
O70 Sr3 2.713561 1_555
O70 Sr26 2.781101 1_555
O70 Sr13 3.088258 1_655
O70 Sr5 3.126928 1_655
O71 Ti29 1.904748 1_555
O71 Ti19 1.953953 1_655
O71 Sr27 2.772790 1_555
O71 Sr6 2.848251 1_655
O71 Sr4 2.856440 1_555
O71 Sr14 2.935323 1_655
O72 Ti24 1.890534 1_555
O72 Ti18 1.926537 1_555
O72 Sr13 2.663791 1_555
O72 Sr5 2.695916 1_555
O72 Sr22 3.186849 1_555
O73 Ti19 1.895010 1_555
O73 Ti25 1.956650 1_555
O73 Sr6 2.815603 1_555
O73 Sr23 2.852844 1_555
O73 Sr14 2.870563 1_555
O73 Sr1 2.901567 1_555
O74 Ti16 1.908458 1_565
O74 Ti26 1.950098 1_555
O74 Sr7 2.637164 1_555
O75 Ti27 1.903232 1_545
O75 Ti17 1.951222 1_555
O75 Sr8 2.818365 1_545
O75 Sr21 2.826020 1_555
O75 Sr0 2.880648 1_555
O75 Sr15 2.896265 1_545
O76 Ti28 1.916334 1_555
O76 Ti22 1.918664 1_555
O76 Sr16 2.761934 1_555
O76 Sr9 2.829510 1_555
O76 Sr3 3.037070 1_555
O76 Sr26 3.076251 1_555
O77 Ti23 1.901087 1_555
O77 Ti29 1.956308 1_555
O77 Sr10 2.815906 1_555
O77 Sr27 2.832113 1_555
O77 Sr17 2.837981 1_555
O77 Sr4 2.924987 1_555
O78 Ti20 1.902236 1_565
O78 Ti30 1.914908 1_555
O78 Sr11 2.674318 1_555
O78 Sr18 2.697703 1_555
O78 Sr24 3.144837 1_565
O79 Ti31 1.895536 1_555
O79 Ti21 1.953622 1_565
O79 Sr12 2.808227 1_555
O79 Sr25 2.850823 1_565
O79 Sr19 2.869311 1_555
O79 Sr2 2.916028 1_565
