# generated using pymatgen
data_Sm2CuSe2O
_symmetry_space_group_name_H-M   'P 1'
_cell_length_a   3.48318300
_cell_length_b   3.48318300
_cell_length_c   14.37426200
_cell_angle_alpha   90.00000000
_cell_angle_beta   90.00000000
_cell_angle_gamma   90.00000000
_symmetry_Int_Tables_number   1
_chemical_formula_structural   Sm2CuSe2O
_chemical_formula_sum   'Sm2 Cu1 Se2 O1'
_cell_volume   174.39665096
_cell_formula_units_Z   1
loop_
 _symmetry_equiv_pos_site_id
 _symmetry_equiv_pos_as_xyz
  1  'x, y, z'
loop_
 _atom_site_type_symbol
 _atom_site_label
 _atom_site_symmetry_multiplicity
 _atom_site_fract_x
 _atom_site_fract_y
 _atom_site_fract_z
 _atom_site_occupancy
  Sm  Sm0  1  0.50000000  0.50000000  0.64531200  1
  Sm  Sm1  1  0.50000000  0.50000000  0.35468800  1
  Cu  Cu0  1  0.50000000  0.50000000  0.00000000  1
  Se  Se0  1  0.50000000  0.50000000  0.15580100  1
  Se  Se1  1  0.50000000  0.50000000  0.84419900  1
  O  O0  1  0.50000000  0.50000000  0.50000000  1
loop_
_geom_bond_atom_site_label_1
_geom_bond_atom_site_label_2
_geom_bond_distance
_geom_bond_site_symmetry_2
Cu0 Se0 2.239524 1_555
Cu0 Se1 2.239524 1_554
Se0 Sm1 2.858854 1_555
Se1 Sm0 2.858854 1_555
O0 Sm0 2.088753 1_555
O0 Sm1 2.088753 1_555
