# generated using pymatgen
data_K3U2I7O26
_symmetry_space_group_name_H-M   'P 1'
_cell_length_a   7.15195600
_cell_length_b   14.81535654
_cell_length_c   15.11885499
_cell_angle_alpha   118.99292717
_cell_angle_beta   98.39435298
_cell_angle_gamma   87.22960359
_symmetry_Int_Tables_number   1
_chemical_formula_structural   K3U2I7O26
_chemical_formula_sum   'K6 U4 I14 O52'
_cell_volume   1385.73790874
_cell_formula_units_Z   2
loop_
 _symmetry_equiv_pos_site_id
 _symmetry_equiv_pos_as_xyz
  1  'x, y, z'
loop_
 _atom_site_type_symbol
 _atom_site_label
 _atom_site_symmetry_multiplicity
 _atom_site_fract_x
 _atom_site_fract_y
 _atom_site_fract_z
 _atom_site_occupancy
  K  K0  1  0.22632600  0.76034000  0.83453000  1
  K  K1  1  0.77367400  0.23966000  0.16547000  1
  K  K2  1  0.43134400  0.63257400  0.23000900  1
  K  K3  1  0.56865600  0.36742600  0.76999100  1
  K  K4  1  0.06674800  0.87901100  0.40363000  1
  K  K5  1  0.93325200  0.12098900  0.59637000  1
  U  U0  1  0.71591000  0.30958500  0.46309900  1
  U  U1  1  0.28409000  0.69041500  0.53690100  1
  U  U2  1  0.15040100  0.83081300  0.12149100  1
  U  U3  1  0.84959900  0.16918700  0.87850900  1
  I  I0  1  0.62233300  0.01845500  0.28446800  1
  I  I1  1  0.37766700  0.98154500  0.71553200  1
  I  I2  1  0.74227100  0.59473000  0.69100600  1
  I  I3  1  0.25772900  0.40527000  0.30899400  1
  I  I4  1  0.13017100  0.10749800  0.33827600  1
  I  I5  1  0.86982900  0.89250200  0.66172400  1
  I  I6  1  0.23775000  0.42850800  0.58490100  1
  I  I7  1  0.76225000  0.57149200  0.41509900  1
  I  I8  1  0.15857600  0.53136900  0.93168000  1
  I  I9  1  0.84142400  0.46863100  0.06832000  1
  I  I10  1  0.71113400  0.89446700  0.92159500  1
  I  I11  1  0.28886600  0.10553300  0.07840500  1
  I  I12  1  0.65709400  0.69950600  0.03257900  1
  I  I13  1  0.34290600  0.30049400  0.96742100  1
  O  O0  1  0.22261100  0.37604400  0.66819200  1
  O  O1  1  0.77738900  0.62395600  0.33180800  1
  O  O2  1  0.71068400  0.49101600  0.55436600  1
  O  O3  1  0.28931600  0.50898400  0.44563400  1
  O  O4  1  0.03071000  0.36912300  0.48559800  1
  O  O5  1  0.96929000  0.63087700  0.51440200  1
  O  O6  1  0.15029700  0.09373500  0.45108500  1
  O  O7  1  0.84970300  0.90626500  0.54891500  1
  O  O8  1  0.99192800  0.58096700  0.72837800  1
  O  O9  1  0.00807200  0.41903300  0.27162200  1
  O  O10  1  0.48435500  0.85104300  0.39444200  1
  O  O11  1  0.51564500  0.14895700  0.60555800  1
  O  O12  1  0.63115500  0.76507900  0.89054500  1
  O  O13  1  0.36884500  0.23492100  0.10945500  1
  O  O14  1  0.61616100  0.53101100  0.74121100  1
  O  O15  1  0.38383900  0.46898900  0.25878900  1
  O  O16  1  0.01326900  0.98098000  0.24345000  1
  O  O17  1  0.98673100  0.01902000  0.75655000  1
  O  O18  1  0.54604000  0.14798500  0.37655700  1
  O  O19  1  0.45396000  0.85201500  0.62344300  1
  O  O20  1  0.81607000  0.81654100  0.10117300  1
  O  O21  1  0.18393000  0.18345900  0.89882700  1
  O  O22  1  0.17796200  0.77664700  0.20841900  1
  O  O23  1  0.82203800  0.22335300  0.79158100  1
  O  O24  1  0.86326200  0.85662100  0.82245100  1
  O  O25  1  0.13673800  0.14337900  0.17754900  1
  O  O26  1  0.40702800  0.33849000  0.50290700  1
  O  O27  1  0.59297200  0.66151000  0.49709300  1
  O  O28  1  0.39471400  0.55979300  0.91808000  1
  O  O29  1  0.60528600  0.44020700  0.08192000  1
  O  O30  1  0.49287200  0.93666100  0.87447000  1
  O  O31  1  0.50712800  0.06333900  0.12553000  1
  O  O32  1  0.71821900  0.97032000  0.37057000  1
  O  O33  1  0.28178100  0.02968000  0.62943000  1
  O  O34  1  0.89460800  0.17023300  0.34477900  1
  O  O35  1  0.10539200  0.82976700  0.65522100  1
  O  O36  1  0.78516300  0.29021700  0.57341300  1
  O  O37  1  0.21483700  0.70978300  0.42658700  1
  O  O38  1  0.37482100  0.96618600  0.25168900  1
  O  O39  1  0.62517900  0.03381400  0.74831100  1
  O  O40  1  0.06251500  0.66551000  0.98184800  1
  O  O41  1  0.93748500  0.33449000  0.01815200  1
  O  O42  1  0.69816000  0.65911100  0.12948500  1
  O  O43  1  0.30184000  0.34088900  0.87051500  1
  O  O44  1  0.44284700  0.77617400  0.07075300  1
  O  O45  1  0.55715300  0.22382600  0.92924700  1
  O  O46  1  0.12545900  0.88557600  0.03428400  1
  O  O47  1  0.87454100  0.11442400  0.96571600  1
  O  O48  1  0.19357500  0.52635000  0.05121900  1
  O  O49  1  0.80642500  0.47365000  0.94878100  1
  O  O50  1  0.64290400  0.33188700  0.35367500  1
  O  O51  1  0.35709600  0.66811300  0.64632500  1
loop_
_geom_bond_atom_site_label_1
_geom_bond_atom_site_label_2
_geom_bond_distance
_geom_bond_site_symmetry_2
K0 O51 2.778980 1_555
K0 O8 2.821141 1_455
K0 O46 2.856292 1_556
K0 O12 2.889829 1_555
K0 O24 2.926863 1_455
K0 O30 3.072255 1_555
K1 O50 2.778980 1_555
K1 O9 2.821141 1_655
K1 O47 2.856292 1_554
K1 O13 2.889829 1_555
K1 O25 2.926863 1_655
K1 O31 3.072255 1_555
K2 O15 2.706196 1_555
K2 O48 2.732754 1_555
K2 O1 2.749184 1_555
K2 O42 2.757600 1_555
K2 O22 2.841722 1_555
K2 O10 2.973787 1_555
K2 O29 2.994603 1_555
K2 O37 3.227375 1_555
K3 O14 2.706196 1_555
K3 O49 2.732754 1_555
K3 O0 2.749184 1_555
K3 O43 2.757600 1_555
K3 O23 2.841722 1_555
K3 O11 2.973787 1_555
K3 O28 2.994603 1_555
K3 O36 3.227375 1_555
K4 O7 2.733610 1_455
K4 O22 2.805887 1_555
K4 O37 2.829785 1_555
K4 O32 2.873837 1_455
K4 O6 2.972866 1_565
K4 O10 3.009504 1_555
K4 O33 3.227061 1_565
K5 O6 2.733610 1_655
K5 O23 2.805887 1_555
K5 O36 2.829785 1_555
K5 O33 2.873837 1_655
K5 O7 2.972866 1_545
K5 O11 3.009504 1_555
K5 O32 3.227061 1_545
I0 O32 1.807055 1_545
I0 O18 1.857246 1_555
I0 O38 1.866335 1_545
I1 O33 1.807055 1_565
I1 O19 1.857246 1_555
I1 O39 1.866335 1_565
I2 O14 1.804888 1_555
I2 O8 1.825074 1_555
I2 O2 1.870796 1_555
I3 O15 1.804888 1_555
I3 O9 1.825074 1_555
I3 O3 1.870796 1_555
I4 O6 1.798272 1_555
I4 O16 1.861262 1_545
I4 O34 1.876239 1_455
I4 O38 2.610785 1_545
I5 O7 1.798272 1_555
I5 O17 1.861262 1_565
I5 O35 1.876239 1_655
I5 O39 2.610785 1_565
I6 O0 1.788410 1_555
I6 O4 1.848532 1_555
I6 O26 1.860246 1_555
I7 O1 1.788410 1_555
I7 O5 1.848532 1_555
I7 O27 1.860246 1_555
I8 O28 1.823705 1_555
I8 O48 1.825071 1_556
I8 O40 1.885672 1_555
I9 O29 1.823705 1_555
I9 O49 1.825071 1_554
I9 O41 1.885672 1_555
I10 O24 1.829601 1_555
I10 O30 1.829705 1_555
I10 O12 1.837778 1_555
I11 O25 1.829601 1_555
I11 O31 1.829705 1_555
I11 O13 1.837778 1_555
I12 O42 1.816129 1_555
I12 O44 1.850848 1_555
I12 O20 1.864899 1_555
I12 O28 2.599231 1_554
I13 O43 1.816129 1_555
I13 O45 1.850848 1_555
I13 O21 1.864899 1_555
I13 O29 2.599231 1_556
O2 U0 2.353801 1_555
O3 U1 2.353801 1_555
O4 U0 2.374918 1_455
O5 U1 2.374918 1_655
O16 U2 2.377350 1_555
O17 U3 2.377350 1_555
O18 U0 2.387529 1_555
O19 U1 2.387529 1_555
O20 U2 2.372337 1_655
O21 U3 2.372337 1_455
O22 U2 1.827997 1_555
O23 U3 1.827997 1_555
O26 U0 2.339375 1_555
O27 U1 2.339375 1_555
O34 U0 2.434756 1_555
O35 U1 2.434756 1_555
O36 U0 1.821616 1_555
O37 U1 1.821616 1_555
O38 U2 2.456615 1_555
O39 U3 2.456615 1_555
O40 U2 2.366265 1_556
O41 U3 2.366265 1_554
O44 U2 2.306766 1_555
O45 U3 2.306766 1_555
O46 U2 1.839232 1_555
O47 U3 1.839232 1_555
O50 U0 1.838406 1_555
O51 U1 1.838406 1_555
