# generated using pymatgen
data_Zn10Cu(B4Rh9)2
_symmetry_space_group_name_H-M   'P 1'
_cell_length_a   17.88408300
_cell_length_b   17.88408300
_cell_length_c   2.87856500
_cell_angle_alpha   90.00000000
_cell_angle_beta   90.00000000
_cell_angle_gamma   90.00000000
_symmetry_Int_Tables_number   1
_chemical_formula_structural   Zn10Cu(B4Rh9)2
_chemical_formula_sum   'Zn20 Cu2 B16 Rh36'
_cell_volume   920.68145227
_cell_formula_units_Z   2
loop_
 _symmetry_equiv_pos_site_id
 _symmetry_equiv_pos_as_xyz
  1  'x, y, z'
loop_
 _atom_site_type_symbol
 _atom_site_label
 _atom_site_symmetry_multiplicity
 _atom_site_fract_x
 _atom_site_fract_y
 _atom_site_fract_z
 _atom_site_occupancy
  Zn  Zn0  1  0.55025900  0.05025900  0.00000000  1
  Zn  Zn1  1  0.44974100  0.94974100  0.00000000  1
  Zn  Zn2  1  0.05025900  0.44974100  0.00000000  1
  Zn  Zn3  1  0.94974100  0.55025900  0.00000000  1
  Zn  Zn4  1  0.03180600  0.18709600  0.00000000  1
  Zn  Zn5  1  0.96819400  0.81290400  0.00000000  1
  Zn  Zn6  1  0.18709600  0.96819400  0.00000000  1
  Zn  Zn7  1  0.53180600  0.31290400  0.00000000  1
  Zn  Zn8  1  0.81290400  0.03180600  0.00000000  1
  Zn  Zn9  1  0.46819400  0.68709600  0.00000000  1
  Zn  Zn10  1  0.68709600  0.53180600  0.00000000  1
  Zn  Zn11  1  0.31290400  0.46819400  0.00000000  1
  Zn  Zn12  1  0.20946000  0.70946000  0.00000000  1
  Zn  Zn13  1  0.79054000  0.29054000  0.00000000  1
  Zn  Zn14  1  0.70946000  0.79054000  0.00000000  1
  Zn  Zn15  1  0.29054000  0.20946000  0.00000000  1
  Zn  Zn16  1  0.66892100  0.16892100  0.00000000  1
  Zn  Zn17  1  0.33107900  0.83107900  0.00000000  1
  Zn  Zn18  1  0.16892100  0.33107900  0.00000000  1
  Zn  Zn19  1  0.83107900  0.66892100  0.00000000  1
  Cu  Cu0  1  0.00000000  0.00000000  0.00000000  1
  Cu  Cu1  1  0.50000000  0.50000000  0.00000000  1
  B  B0  1  0.33384600  0.03900300  0.00000000  1
  B  B1  1  0.66615400  0.96099700  0.00000000  1
  B  B2  1  0.03900300  0.66615400  0.00000000  1
  B  B3  1  0.83384600  0.46099700  0.00000000  1
  B  B4  1  0.96099700  0.33384600  0.00000000  1
  B  B5  1  0.16615400  0.53900300  0.00000000  1
  B  B6  1  0.53900300  0.83384600  0.00000000  1
  B  B7  1  0.46099700  0.16615400  0.00000000  1
  B  B8  1  0.16506700  0.12326600  0.00000000  1
  B  B9  1  0.83493300  0.87673400  0.00000000  1
  B  B10  1  0.12326600  0.83493300  0.00000000  1
  B  B11  1  0.66506700  0.37673400  0.00000000  1
  B  B12  1  0.87673400  0.16506700  0.00000000  1
  B  B13  1  0.33493300  0.62326600  0.00000000  1
  B  B14  1  0.62326600  0.66506700  0.00000000  1
  B  B15  1  0.37673400  0.33493300  0.00000000  1
  Rh  Rh0  1  0.25576600  0.08795300  0.50000000  1
  Rh  Rh1  1  0.74423400  0.91204700  0.50000000  1
  Rh  Rh2  1  0.08795300  0.74423400  0.50000000  1
  Rh  Rh3  1  0.75576600  0.41204700  0.50000000  1
  Rh  Rh4  1  0.91204700  0.25576600  0.50000000  1
  Rh  Rh5  1  0.24423400  0.58795300  0.50000000  1
  Rh  Rh6  1  0.58795300  0.75576600  0.50000000  1
  Rh  Rh7  1  0.41204700  0.24423400  0.50000000  1
  Rh  Rh8  1  0.04771900  0.32601900  0.50000000  1
  Rh  Rh9  1  0.95228100  0.67398100  0.50000000  1
  Rh  Rh10  1  0.32601900  0.95228100  0.50000000  1
  Rh  Rh11  1  0.54771900  0.17398100  0.50000000  1
  Rh  Rh12  1  0.67398100  0.04771900  0.50000000  1
  Rh  Rh13  1  0.45228100  0.82601900  0.50000000  1
  Rh  Rh14  1  0.82601900  0.54771900  0.50000000  1
  Rh  Rh15  1  0.17398100  0.45228100  0.50000000  1
  Rh  Rh16  1  0.16053000  0.21110200  0.50000000  1
  Rh  Rh17  1  0.83947000  0.78889800  0.50000000  1
  Rh  Rh18  1  0.21110200  0.83947000  0.50000000  1
  Rh  Rh19  1  0.66053000  0.28889800  0.50000000  1
  Rh  Rh20  1  0.78889800  0.16053000  0.50000000  1
  Rh  Rh21  1  0.33947000  0.71110200  0.50000000  1
  Rh  Rh22  1  0.71110200  0.66053000  0.50000000  1
  Rh  Rh23  1  0.28889800  0.33947000  0.50000000  1
  Rh  Rh24  1  0.09917900  0.06754200  0.50000000  1
  Rh  Rh25  1  0.90082100  0.93245800  0.50000000  1
  Rh  Rh26  1  0.06754200  0.90082100  0.50000000  1
  Rh  Rh27  1  0.59917900  0.43245800  0.50000000  1
  Rh  Rh28  1  0.93245800  0.09917900  0.50000000  1
  Rh  Rh29  1  0.40082100  0.56754200  0.50000000  1
  Rh  Rh30  1  0.56754200  0.59917900  0.50000000  1
  Rh  Rh31  1  0.43245800  0.40082100  0.50000000  1
  Rh  Rh32  1  0.08220300  0.58220300  0.50000000  1
  Rh  Rh33  1  0.91779700  0.41779700  0.50000000  1
  Rh  Rh34  1  0.58220300  0.91779700  0.50000000  1
  Rh  Rh35  1  0.41779700  0.08220300  0.50000000  1
loop_
_geom_bond_atom_site_label_1
_geom_bond_atom_site_label_2
_geom_bond_distance
_geom_bond_site_symmetry_2
Zn0 Zn1 2.542292 1_545
Zn2 Zn3 2.542292 1_455
Cu0 Rh24 2.583936 1_554
Cu0 Rh24 2.583936 1_555
Cu0 Rh28 2.583936 1_454
Cu0 Rh28 2.583936 1_455
Cu0 Rh26 2.583936 1_544
Cu0 Rh26 2.583936 1_545
Cu0 Rh25 2.583936 1_444
Cu0 Rh25 2.583936 1_445
Cu1 Rh29 2.583936 1_554
Cu1 Rh29 2.583936 1_555
Cu1 Rh30 2.583936 1_554
Cu1 Rh30 2.583936 1_555
Cu1 Rh27 2.583936 1_555
Cu1 Rh27 2.583936 1_554
Cu1 Rh31 2.583936 1_554
Cu1 Rh31 2.583936 1_555
B0 Rh10 2.120508 1_545
B0 Rh10 2.120508 1_544
B0 Rh0 2.188106 1_555
B0 Rh0 2.188106 1_554
B0 Rh35 2.218692 1_554
B0 Rh35 2.218692 1_555
B0 Zn1 2.616176 1_545
B1 Rh12 2.120508 1_565
B1 Rh12 2.120508 1_564
B1 Rh1 2.188106 1_554
B1 Rh1 2.188106 1_555
B1 Rh34 2.218692 1_555
B1 Rh34 2.218692 1_554
B1 Zn0 2.616176 1_565
B2 Rh9 2.120508 1_455
B2 Rh9 2.120508 1_454
B2 Rh2 2.188106 1_555
B2 Rh2 2.188106 1_554
B2 Rh32 2.218692 1_555
B2 Rh32 2.218692 1_554
B2 Zn3 2.616176 1_455
B3 Rh14 2.120508 1_555
B3 Rh14 2.120508 1_554
B3 Rh3 2.188106 1_554
B3 Rh3 2.188106 1_555
B3 Rh33 2.218692 1_554
B3 Rh33 2.218692 1_555
B3 Zn3 2.616176 1_555
B4 Rh8 2.120508 1_654
B4 Rh8 2.120508 1_655
B4 Rh4 2.188106 1_555
B4 Rh4 2.188106 1_554
B4 Rh33 2.218692 1_554
B4 Rh33 2.218692 1_555
B4 Zn2 2.616176 1_655
B5 Rh15 2.120508 1_554
B5 Rh15 2.120508 1_555
B5 Rh5 2.188106 1_555
B5 Rh5 2.188106 1_554
B5 Rh32 2.218692 1_555
B5 Rh32 2.218692 1_554
B5 Zn2 2.616176 1_555
B6 Rh13 2.120508 1_555
B6 Rh13 2.120508 1_554
B6 Rh6 2.188106 1_554
B6 Rh6 2.188106 1_555
B6 Rh34 2.218692 1_555
B6 Rh34 2.218692 1_554
B6 Zn1 2.616176 1_555
B7 Rh11 2.120508 1_555
B7 Rh11 2.120508 1_554
B7 Rh7 2.188106 1_554
B7 Rh7 2.188106 1_555
B7 Rh35 2.218692 1_555
B7 Rh35 2.218692 1_554
B7 Zn0 2.616176 1_555
B8 Rh24 2.110259 1_554
B8 Rh24 2.110259 1_555
B8 Rh16 2.132074 1_555
B8 Rh16 2.132074 1_554
B8 Rh0 2.258646 1_554
B8 Rh0 2.258646 1_555
B8 Zn4 2.642537 1_555
B9 Rh25 2.110259 1_555
B9 Rh25 2.110259 1_554
B9 Rh17 2.132074 1_554
B9 Rh17 2.132074 1_555
B9 Rh1 2.258646 1_554
B9 Rh1 2.258646 1_555
B9 Zn5 2.642537 1_555
B10 Rh26 2.110259 1_555
B10 Rh26 2.110259 1_554
B10 Rh18 2.132074 1_555
B10 Rh18 2.132074 1_554
B10 Rh2 2.258646 1_554
B10 Rh2 2.258646 1_555
B10 Zn6 2.642537 1_555
B11 Rh27 2.110259 1_555
B11 Rh27 2.110259 1_554
B11 Rh19 2.132074 1_555
B11 Rh19 2.132074 1_554
B11 Rh3 2.258646 1_554
B11 Rh3 2.258646 1_555
B11 Zn7 2.642537 1_555
B12 Rh28 2.110259 1_555
B12 Rh28 2.110259 1_554
B12 Rh20 2.132074 1_555
B12 Rh20 2.132074 1_554
B12 Rh4 2.258646 1_554
B12 Rh4 2.258646 1_555
B12 Zn8 2.642537 1_555
B13 Rh29 2.110259 1_555
B13 Rh29 2.110259 1_554
B13 Rh21 2.132074 1_554
B13 Rh21 2.132074 1_555
B13 Rh5 2.258646 1_555
B13 Rh5 2.258646 1_554
B13 Zn9 2.642537 1_555
B14 Rh30 2.110259 1_555
B14 Rh30 2.110259 1_554
B14 Rh22 2.132074 1_554
B14 Rh22 2.132074 1_555
B14 Rh6 2.258646 1_555
B14 Rh6 2.258646 1_554
B14 Zn10 2.642537 1_555
B15 Rh31 2.110259 1_554
B15 Rh31 2.110259 1_555
B15 Rh23 2.132074 1_555
B15 Rh23 2.132074 1_554
B15 Rh7 2.258646 1_554
B15 Rh7 2.258646 1_555
B15 Zn11 2.642537 1_555
Rh0 Zn15 2.679627 1_556
Rh0 Zn15 2.679627 1_555
Rh0 Zn6 2.857794 1_546
Rh0 Zn6 2.857794 1_545
Rh1 Zn14 2.679627 1_556
Rh1 Zn14 2.679627 1_555
Rh1 Zn8 2.857794 1_566
Rh1 Zn8 2.857794 1_565
Rh2 Zn12 2.679627 1_555
Rh2 Zn12 2.679627 1_556
Rh2 Zn5 2.857794 1_456
Rh2 Zn5 2.857794 1_455
Rh3 Zn13 2.679627 1_556
Rh3 Zn13 2.679627 1_555
Rh3 Zn10 2.857794 1_555
Rh3 Zn10 2.857794 1_556
Rh4 Zn13 2.679627 1_555
Rh4 Zn13 2.679627 1_556
Rh4 Zn4 2.857794 1_656
Rh4 Zn4 2.857794 1_655
Rh5 Zn12 2.679627 1_556
Rh5 Zn12 2.679627 1_555
Rh5 Zn11 2.857794 1_556
Rh5 Zn11 2.857794 1_555
Rh6 Zn14 2.679627 1_556
Rh6 Zn14 2.679627 1_555
Rh6 Zn9 2.857794 1_556
Rh6 Zn9 2.857794 1_555
Rh7 Zn15 2.679627 1_555
Rh7 Zn15 2.679627 1_556
Rh7 Zn7 2.857794 1_556
Rh7 Zn7 2.857794 1_555
Rh8 Zn18 2.603489 1_556
Rh8 Zn18 2.603489 1_555
Rh8 Zn2 2.639969 1_555
Rh8 Zn2 2.639969 1_556
Rh8 Zn4 2.885363 1_556
Rh8 Zn4 2.885363 1_555
Rh9 Zn19 2.603489 1_555
Rh9 Zn19 2.603489 1_556
Rh9 Zn3 2.639969 1_555
Rh9 Zn3 2.639969 1_556
Rh9 Zn5 2.885363 1_555
Rh9 Zn5 2.885363 1_556
Rh10 Zn17 2.603489 1_556
Rh10 Zn17 2.603489 1_555
Rh10 Zn1 2.639969 1_555
Rh10 Zn1 2.639969 1_556
Rh10 Zn6 2.885363 1_555
Rh10 Zn6 2.885363 1_556
Rh11 Zn16 2.603489 1_555
Rh11 Zn16 2.603489 1_556
Rh11 Zn0 2.639969 1_555
Rh11 Zn0 2.639969 1_556
Rh11 Zn7 2.885363 1_556
Rh11 Zn7 2.885363 1_555
Rh12 Zn16 2.603489 1_555
Rh12 Zn16 2.603489 1_556
Rh12 Zn0 2.639969 1_555
Rh12 Zn0 2.639969 1_556
Rh12 Zn8 2.885363 1_556
Rh12 Zn8 2.885363 1_555
Rh13 Zn17 2.603489 1_556
Rh13 Zn17 2.603489 1_555
Rh13 Zn1 2.639969 1_555
Rh13 Zn1 2.639969 1_556
Rh13 Zn9 2.885363 1_555
Rh13 Zn9 2.885363 1_556
Rh14 Zn19 2.603489 1_555
Rh14 Zn19 2.603489 1_556
Rh14 Zn3 2.639969 1_555
Rh14 Zn3 2.639969 1_556
Rh14 Zn10 2.885363 1_555
Rh14 Zn10 2.885363 1_556
Rh15 Zn18 2.603489 1_555
Rh15 Zn18 2.603489 1_556
Rh15 Zn2 2.639969 1_555
Rh15 Zn2 2.639969 1_556
Rh15 Zn11 2.885363 1_555
Rh15 Zn11 2.885363 1_556
Rh16 Zn18 2.588048 1_555
Rh16 Zn18 2.588048 1_556
Rh16 Zn15 2.734690 1_556
Rh16 Zn15 2.734690 1_555
Rh16 Zn4 2.748739 1_556
Rh16 Zn4 2.748739 1_555
Rh17 Zn19 2.588048 1_555
Rh17 Zn19 2.588048 1_556
Rh17 Zn14 2.734690 1_556
Rh17 Zn14 2.734690 1_555
Rh17 Zn5 2.748739 1_556
Rh17 Zn5 2.748739 1_555
Rh18 Zn17 2.588048 1_556
Rh18 Zn17 2.588048 1_555
Rh18 Zn12 2.734690 1_555
Rh18 Zn12 2.734690 1_556
Rh18 Zn6 2.748739 1_555
Rh18 Zn6 2.748739 1_556
Rh19 Zn16 2.588048 1_555
Rh19 Zn16 2.588048 1_556
Rh19 Zn13 2.734690 1_555
Rh19 Zn13 2.734690 1_556
Rh19 Zn7 2.748739 1_556
Rh19 Zn7 2.748739 1_555
Rh20 Zn16 2.588048 1_555
Rh20 Zn16 2.588048 1_556
Rh20 Zn13 2.734690 1_556
Rh20 Zn13 2.734690 1_555
Rh20 Zn8 2.748739 1_556
Rh20 Zn8 2.748739 1_555
Rh21 Zn17 2.588048 1_556
Rh21 Zn17 2.588048 1_555
Rh21 Zn12 2.734690 1_556
Rh21 Zn12 2.734690 1_555
Rh21 Zn9 2.748739 1_556
Rh21 Zn9 2.748739 1_555
Rh22 Zn19 2.588048 1_555
Rh22 Zn19 2.588048 1_556
Rh22 Zn14 2.734690 1_556
Rh22 Zn14 2.734690 1_555
Rh22 Zn10 2.748739 1_555
Rh22 Zn10 2.748739 1_556
Rh23 Zn18 2.588048 1_555
Rh23 Zn18 2.588048 1_556
Rh23 Zn15 2.734690 1_556
Rh23 Zn15 2.734690 1_555
Rh23 Zn11 2.748739 1_555
Rh23 Zn11 2.748739 1_556
Rh24 Zn6 2.774985 1_546
Rh24 Zn6 2.774985 1_545
Rh24 Zn4 2.845146 1_555
Rh24 Zn4 2.845146 1_556
Rh25 Zn8 2.774985 1_565
Rh25 Zn8 2.774985 1_566
Rh25 Zn5 2.845146 1_555
Rh25 Zn5 2.845146 1_556
Rh26 Zn5 2.774985 1_456
Rh26 Zn5 2.774985 1_455
Rh26 Zn6 2.845146 1_555
Rh26 Zn6 2.845146 1_556
Rh27 Zn10 2.774985 1_555
Rh27 Zn10 2.774985 1_556
Rh27 Zn7 2.845146 1_556
Rh27 Zn7 2.845146 1_555
Rh28 Zn4 2.774985 1_655
Rh28 Zn4 2.774985 1_656
Rh28 Zn8 2.845146 1_556
Rh28 Zn8 2.845146 1_555
Rh29 Zn11 2.774985 1_556
Rh29 Zn11 2.774985 1_555
Rh29 Zn9 2.845146 1_555
Rh29 Zn9 2.845146 1_556
Rh30 Zn9 2.774985 1_555
Rh30 Zn9 2.774985 1_556
Rh30 Zn10 2.845146 1_555
Rh30 Zn10 2.845146 1_556
Rh31 Zn7 2.774985 1_556
Rh31 Zn7 2.774985 1_555
Rh31 Zn11 2.845146 1_555
Rh31 Zn11 2.845146 1_556
Rh32 Zn2 2.830174 1_555
Rh32 Zn2 2.830174 1_556
Rh32 Zn3 2.830174 1_456
Rh32 Zn3 2.830174 1_455
Rh33 Zn3 2.830174 1_555
Rh33 Zn3 2.830174 1_556
Rh33 Zn2 2.830174 1_655
Rh33 Zn2 2.830174 1_656
Rh34 Zn1 2.830174 1_555
Rh34 Zn1 2.830174 1_556
Rh34 Zn0 2.830174 1_566
Rh34 Zn0 2.830174 1_565
Rh35 Zn0 2.830174 1_555
Rh35 Zn0 2.830174 1_556
Rh35 Zn1 2.830174 1_546
Rh35 Zn1 2.830174 1_545
