# generated using pymatgen
data_SrMg7
_symmetry_space_group_name_H-M   'P 1'
_cell_length_a   6.79190811
_cell_length_b   6.79190811
_cell_length_c   5.29968300
_cell_angle_alpha   90.00000000
_cell_angle_beta   90.00000000
_cell_angle_gamma   120.00000111
_symmetry_Int_Tables_number   1
_chemical_formula_structural   SrMg7
_chemical_formula_sum   'Sr1 Mg7'
_cell_volume   211.72109116
_cell_formula_units_Z   1
loop_
 _symmetry_equiv_pos_site_id
 _symmetry_equiv_pos_as_xyz
  1  'x, y, z'
loop_
 _atom_site_type_symbol
 _atom_site_label
 _atom_site_symmetry_multiplicity
 _atom_site_fract_x
 _atom_site_fract_y
 _atom_site_fract_z
 _atom_site_occupancy
  Sr  Sr0  1  0.00000000  0.00000000  0.50000000  1
  Mg  Mg0  1  0.00757100  0.50378500  0.50000000  1
  Mg  Mg1  1  0.49621500  0.50378500  0.50000000  1
  Mg  Mg2  1  0.49621500  0.99242900  0.50000000  1
  Mg  Mg3  1  0.17447000  0.34893900  0.00000000  1
  Mg  Mg4  1  0.17447000  0.82553000  0.00000000  1
  Mg  Mg5  1  0.65106100  0.82553000  0.00000000  1
  Mg  Mg6  1  0.66666700  0.33333300  0.00000000  1
loop_
_geom_bond_atom_site_label_1
_geom_bond_atom_site_label_2
_geom_bond_distance
_geom_bond_site_symmetry_2
Mg0 Mg4 3.256511 1_555
Mg0 Mg4 3.256511 1_556
Mg0 Mg3 3.256511 1_555
Mg0 Mg3 3.256511 1_556
Mg0 Mg2 3.318825 1_555
Mg0 Mg1 3.318825 1_555
Mg0 Mg6 3.323015 1_456
Mg0 Mg6 3.323015 1_455
Mg0 Sr0 3.396243 1_555
Mg0 Sr0 3.396249 1_565
Mg0 Mg2 3.473083 1_445
Mg0 Mg1 3.473083 1_455
Mg1 Mg3 3.256511 1_555
Mg1 Mg3 3.256511 1_556
Mg1 Mg5 3.256511 1_555
Mg1 Mg5 3.256511 1_556
Mg1 Mg2 3.318825 1_555
Mg1 Mg6 3.323015 1_556
Mg1 Mg6 3.323015 1_555
Mg1 Sr0 3.396246 1_555
Mg1 Sr0 3.396246 1_665
Mg1 Mg2 3.473083 1_545
Mg2 Mg4 3.256511 1_556
Mg2 Mg4 3.256511 1_555
Mg2 Mg5 3.256511 1_555
Mg2 Mg5 3.256511 1_556
Mg2 Mg6 3.323015 1_565
Mg2 Mg6 3.323015 1_566
Mg2 Sr0 3.396243 1_665
Mg2 Sr0 3.396249 1_565
Mg3 Sr0 3.351746 1_555
Mg3 Sr0 3.351746 1_554
Mg3 Mg6 3.397194 1_455
Mg3 Mg6 3.397194 1_555
Mg4 Sr0 3.351749 1_565
Mg4 Sr0 3.351749 1_564
Mg4 Mg6 3.397194 1_565
Mg4 Mg6 3.397194 1_455
Mg5 Sr0 3.351746 1_665
Mg5 Sr0 3.351746 1_664
Mg5 Mg6 3.397194 1_565
Mg5 Mg6 3.397194 1_555
