# generated using pymatgen
data_BN
_symmetry_space_group_name_H-M   'P 1'
_cell_length_a   10.25369098
_cell_length_b   10.78007600
_cell_length_c   11.32404897
_cell_angle_alpha   92.21547034
_cell_angle_beta   86.42214410
_cell_angle_gamma   88.74883989
_symmetry_Int_Tables_number   1
_chemical_formula_structural   BN
_chemical_formula_sum   'B50 N50'
_cell_volume   1247.96767660
_cell_formula_units_Z   50
loop_
 _symmetry_equiv_pos_site_id
 _symmetry_equiv_pos_as_xyz
  1  'x, y, z'
loop_
 _atom_site_type_symbol
 _atom_site_label
 _atom_site_symmetry_multiplicity
 _atom_site_fract_x
 _atom_site_fract_y
 _atom_site_fract_z
 _atom_site_occupancy
  B  B0  1  0.73430000  0.01298100  0.44293200  1
  B  B1  1  0.96958100  0.46288400  0.93361700  1
  B  B2  1  0.34095400  0.59753700  0.58576700  1
  B  B3  1  0.32630300  0.50646200  0.14971200  1
  B  B4  1  0.79339100  0.95168500  0.29769000  1
  B  B5  1  0.63624200  0.30501100  0.37207900  1
  B  B6  1  0.87539100  0.19735100  0.54355500  1
  B  B7  1  0.61404100  0.39436900  0.67909800  1
  B  B8  1  0.07201600  0.29055300  0.63469800  1
  B  B9  1  0.69015800  0.04283200  0.75985400  1
  B  B10  1  0.29853500  0.25556600  0.83590300  1
  B  B11  1  0.47342300  0.95887800  0.52826700  1
  B  B12  1  0.00599400  0.77015100  0.76795100  1
  B  B13  1  0.33776800  0.29237400  0.05468400  1
  B  B14  1  0.31985400  0.32518300  0.27614800  1
  B  B15  1  0.06332600  0.44051600  0.69935200  1
  B  B16  1  0.19821800  0.06300800  0.52250400  1
  B  B17  1  0.36027700  0.86335100  0.88002500  1
  B  B18  1  0.35165500  0.72180400  0.23241800  1
  B  B19  1  0.30239700  0.47047800  0.93107900  1
  B  B20  1  0.31992900  0.65011500  0.79875200  1
  B  B21  1  0.99262700  0.74302600  0.22754700  1
  B  B22  1  0.34273100  0.54403100  0.36963200  1
  B  B23  1  0.27843100  0.13040400  0.39802000  1
  B  B24  1  0.37005600  0.81976600  0.66113700  1
  B  B25  1  0.33193400  0.68559000  0.01565000  1
  B  B26  1  0.88351800  0.33286400  0.33723800  1
  B  B27  1  0.82648900  0.97975900  0.15375800  1
  B  B28  1  0.36074500  0.07986000  0.96451300  1
  B  B29  1  0.95321500  0.80502300  0.00313400  1
  B  B30  1  0.97132000  0.64414800  0.57566500  1
  B  B31  1  0.96522400  0.59840400  0.12382000  1
  B  B32  1  0.39212600  0.93471900  0.31513200  1
  B  B33  1  0.91312500  0.57747100  0.37144500  1
  B  B34  1  0.92156800  0.80909500  0.43681200  1
  B  B35  1  0.02528500  0.86149400  0.55980900  1
  B  B36  1  0.93529400  0.42816500  0.52423500  1
  B  B37  1  0.21620300  0.46280300  0.73954300  1
  B  B38  1  0.77148900  0.13392600  0.27883000  1
  B  B39  1  0.17598600  0.16035700  0.65754000  1
  B  B40  1  0.36080800  0.11426400  0.18601600  1
  B  B41  1  0.06928400  0.88784000  0.41094700  1
  B  B42  1  0.83381200  0.40636000  0.78214500  1
  B  B43  1  0.46057000  0.40792300  0.50485900  1
  B  B44  1  0.67808100  0.06401900  0.61424700  1
  B  B45  1  0.38778100  0.76166600  0.44503200  1
  B  B46  1  0.36541200  0.89980800  0.09820900  1
  B  B47  1  0.35656400  0.04191600  0.74334500  1
  B  B48  1  0.11566600  0.27184500  0.33858400  1
  B  B49  1  0.80135200  0.96822200  0.94483400  1
  N  N0  1  0.43033500  0.88699500  0.42447500  1
  N  N1  1  0.98856800  0.01576500  0.72955100  1
  N  N2  1  0.98909800  0.51607500  0.60615300  1
  N  N3  1  0.64552200  0.64375900  0.27389100  1
  N  N4  1  0.35888700  0.06575700  0.30582800  1
  N  N5  1  0.81212400  0.10971500  0.16061400  1
  N  N6  1  0.32386200  0.45904600  0.26862800  1
  N  N7  1  0.29419900  0.56729500  0.70131100  1
  N  N8  1  0.35280000  0.81628300  0.99774200  1
  N  N9  1  0.80954300  0.89694800  0.40476100  1
  N  N10  1  0.34997000  0.77880300  0.77980900  1
  N  N11  1  0.37394900  0.72634000  0.56562700  1
  N  N12  1  0.37023600  0.99510900  0.86145200  1
  N  N13  1  0.64692900  0.71741300  0.20765600  1
  N  N14  1  0.95722300  0.29269500  0.55990700  1
  N  N15  1  0.76155100  0.26233200  0.33434400  1
  N  N16  1  0.98975900  0.73353000  0.09923000  1
  N  N17  1  0.11896600  0.95380300  0.51057300  1
  N  N18  1  0.51723200  0.33670300  0.40199100  1
  N  N19  1  0.72140300  0.39009000  0.74191000  1
  N  N20  1  0.24208600  0.26074100  0.37391500  1
  N  N21  1  0.26914900  0.38796900  0.83295000  1
  N  N22  1  0.07222700  0.08230400  0.71447100  1
  N  N23  1  0.37088200  0.03183600  0.08218900  1
  N  N24  1  0.96684300  0.49775800  0.04330300  1
  N  N25  1  0.29383700  0.16460500  0.73470300  1
  N  N26  1  0.94718800  0.61715400  0.25378300  1
  N  N27  1  0.98415800  0.77821800  0.88039800  1
  N  N28  1  0.34789300  0.24488900  0.17169300  1
  N  N29  1  0.95882100  0.42269200  0.81669000  1
  N  N30  1  0.33257700  0.63844600  0.13332000  1
  N  N31  1  0.32274000  0.42376900  0.04608400  1
  N  N32  1  0.88739100  0.45173000  0.41033500  1
  N  N33  1  0.31133700  0.60322800  0.91624800  1
  N  N34  1  0.33993800  0.21061000  0.94947600  1
  N  N35  1  0.37151000  0.85206800  0.21503500  1
  N  N36  1  0.72937800  0.01083000  0.86053600  1
  N  N37  1  0.86426300  0.91758800  0.03338700  1
  N  N38  1  0.03735000  0.83142600  0.31156500  1
  N  N39  1  0.91684000  0.67500700  0.46535500  1
  N  N40  1  0.62601900  0.26802100  0.07684500  1
  N  N41  1  0.60238400  0.01309400  0.52478600  1
  N  N42  1  0.51550400  0.39539500  0.61584400  1
  N  N43  1  0.39140500  0.95350100  0.64041000  1
  N  N44  1  0.01370200  0.76143800  0.64359900  1
  N  N45  1  0.79522500  0.10212900  0.54203100  1
  N  N46  1  0.00251900  0.27415900  0.29546100  1
  N  N47  1  0.67156400  0.29750600  0.99115400  1
  N  N48  1  0.35272100  0.67669000  0.35027600  1
  N  N49  1  0.36082500  0.50376600  0.48844100  1
loop_
_geom_bond_atom_site_label_1
_geom_bond_atom_site_label_2
_geom_bond_distance
_geom_bond_site_symmetry_2
B0 N9 1.490344 1_545
B0 N41 1.591268 1_555
B0 N45 1.613534 1_555
B1 N24 1.282183 1_556
B1 N29 1.388910 1_555
B2 N7 1.417608 1_555
B2 N11 1.459381 1_555
B2 N49 1.467947 1_555
B3 N30 1.444255 1_555
B3 N31 1.448780 1_555
B3 N6 1.457679 1_555
B4 N9 1.386298 1_555
B5 N18 1.281337 1_555
B5 N15 1.391275 1_555
B6 N45 1.329259 1_555
B6 N14 1.355392 1_555
B7 N42 1.274555 1_555
B7 N19 1.348328 1_555
B8 N14 1.492660 1_455
B9 N36 1.289266 1_555
B10 N21 1.454408 1_555
B10 N34 1.475301 1_555
B10 N25 1.482972 1_555
B11 N41 1.456266 1_565
B11 N0 1.478667 1_555
B11 N43 1.482506 1_555
B12 N27 1.278332 1_455
B12 N44 1.404836 1_555
B13 N31 1.429182 1_555
B13 N28 1.447676 1_555
B13 N34 1.453077 1_554
B14 N28 1.448637 1_555
B14 N6 1.450172 1_555
B14 N20 1.522378 1_555
B15 N2 1.579951 1_455
B15 N29 1.673840 1_455
B16 N17 1.451788 1_545
B17 N10 1.438392 1_555
B17 N8 1.442756 1_555
B17 N12 1.448737 1_555
B18 N30 1.436030 1_555
B18 N48 1.438627 1_555
B18 N35 1.442562 1_555
B19 N31 1.439830 1_556
B19 N33 1.451522 1_555
B19 N21 1.458171 1_555
B20 N7 1.433426 1_555
B20 N33 1.439742 1_555
B20 N10 1.448733 1_555
B21 N38 1.423752 1_655
B21 N16 1.454893 1_555
B21 N26 1.479206 1_555
B22 N49 1.451108 1_555
B22 N48 1.459958 1_555
B22 N6 1.462641 1_555
B23 N4 1.437812 1_555
B23 N20 1.485605 1_555
B24 N10 1.434799 1_555
B24 N11 1.447181 1_555
B24 N43 1.488275 1_555
B25 N33 1.435463 1_554
B25 N30 1.444712 1_555
B25 N8 1.449718 1_554
B26 N46 1.408642 1_655
B26 N15 1.479167 1_555
B26 N32 1.501006 1_555
B27 N5 1.404100 1_565
B27 N37 1.519652 1_555
B28 N34 1.439148 1_555
B28 N12 1.451112 1_545
B28 N23 1.456995 1_556
B29 N16 1.421858 1_555
B29 N27 1.423308 1_554
B29 N37 1.517326 1_555
B30 N2 1.446479 1_555
B30 N39 1.447141 1_555
B30 N44 1.539438 1_655
B31 N24 1.389107 1_555
B31 N26 1.477287 1_555
B31 N16 1.517014 1_555
B32 N0 1.432592 1_555
B32 N35 1.443404 1_555
B32 N4 1.455219 1_565
B33 N26 1.439729 1_555
B33 N32 1.465679 1_555
B33 N39 1.469099 1_555
B34 N39 1.494476 1_555
B34 N9 1.542466 1_555
B34 N38 1.818704 1_655
B35 N44 1.465765 1_555
B35 N17 1.497192 1_555
B36 N32 1.438178 1_555
B36 N2 1.442814 1_555
B36 N14 1.545653 1_555
B37 N7 1.459354 1_555
B37 N21 1.477453 1_555
B38 N5 1.390115 1_555
B38 N15 1.496738 1_555
B39 N22 1.500315 1_555
B39 N25 1.535245 1_555
B40 N28 1.427907 1_555
B40 N23 1.443147 1_555
B40 N4 1.471930 1_555
B41 N38 1.321126 1_555
B41 N17 1.436471 1_555
B42 N19 1.278692 1_555
B42 N29 1.376285 1_555
B43 N42 1.418880 1_555
B43 N18 1.452880 1_555
B43 N49 1.463052 1_555
B44 N41 1.415578 1_555
B44 N45 1.485008 1_555
B45 N11 1.431244 1_555
B45 N48 1.451305 1_555
B45 N0 1.451659 1_555
B46 N8 1.437375 1_554
B46 N35 1.442395 1_555
B46 N23 1.443585 1_565
B47 N12 1.461341 1_545
B47 N25 1.467392 1_555
B47 N43 1.497346 1_545
B48 N46 1.286654 1_555
B48 N20 1.384333 1_555
B49 N36 1.331875 1_565
B49 N37 1.351775 1_556
N1 N22 1.139112 1_655
N13 N3 1.112836 1_555
N40 N47 1.111084 1_554
