# generated using pymatgen
data_Mn2RuN3
_symmetry_space_group_name_H-M   'P 1'
_cell_length_a   5.18786749
_cell_length_b   5.51719391
_cell_length_c   4.92341300
_cell_angle_alpha   90.00000000
_cell_angle_beta   90.00000000
_cell_angle_gamma   122.12310095
_symmetry_Int_Tables_number   1
_chemical_formula_structural   Mn2RuN3
_chemical_formula_sum   'Mn4 Ru2 N6'
_cell_volume   119.34642674
_cell_formula_units_Z   2
loop_
 _symmetry_equiv_pos_site_id
 _symmetry_equiv_pos_as_xyz
  1  'x, y, z'
loop_
 _atom_site_type_symbol
 _atom_site_label
 _atom_site_symmetry_multiplicity
 _atom_site_fract_x
 _atom_site_fract_y
 _atom_site_fract_z
 _atom_site_occupancy
  Mn  Mn0  1  0.35745600  0.38556100  0.52020300  1
  Mn  Mn1  1  0.64254400  0.02810500  0.52020300  1
  Mn  Mn2  1  0.64254400  0.61443900  0.02020300  1
  Mn  Mn3  1  0.35745600  0.97189500  0.02020300  1
  Ru  Ru0  1  0.00000000  0.64214600  0.44293500  1
  Ru  Ru1  1  0.00000000  0.35785400  0.94293500  1
  N  N0  1  0.33135200  0.27458800  0.88142900  1
  N  N1  1  0.66864800  0.94323500  0.88142900  1
  N  N2  1  0.66864800  0.72541200  0.38142900  1
  N  N3  1  0.33135200  0.05676500  0.38142900  1
  N  N4  1  0.00000000  0.71152800  0.84180200  1
  N  N5  1  0.00000000  0.28847200  0.34180200  1
loop_
_geom_bond_atom_site_label_1
_geom_bond_atom_site_label_2
_geom_bond_distance
_geom_bond_site_symmetry_2
Mn0 N2 1.835662 1_555
Mn0 N5 1.854977 1_555
Mn0 N0 1.862246 1_555
Mn0 N3 1.874729 1_555
Mn1 N3 1.835665 1_555
Mn1 N5 1.854977 1_655
Mn1 N1 1.862248 1_545
Mn1 N2 1.874734 1_545
Mn2 N0 1.835662 1_554
Mn2 N4 1.854977 1_654
Mn2 N2 1.862246 1_555
Mn2 N1 1.874729 1_554
Mn3 N1 1.835665 1_554
Mn3 N4 1.854977 1_554
Mn3 N3 1.862248 1_565
Mn3 N0 1.874734 1_564
N0 Ru1 2.024247 1_555
N1 Ru1 2.024250 1_665
N2 Ru0 2.024247 1_655
N3 Ru0 2.024250 1_545
N4 Ru0 2.000747 1_555
N4 Ru1 2.013815 1_555
N5 Ru1 2.000747 1_554
N5 Ru0 2.013815 1_555
