# generated using pymatgen
data_CsGd(MoO4)2
_symmetry_space_group_name_H-M   'P 1'
_cell_length_a   7.67276814
_cell_length_b   7.67276814
_cell_length_c   7.85456254
_cell_angle_alpha   62.07897473
_cell_angle_beta   62.07897473
_cell_angle_gamma   88.96714544
_symmetry_Int_Tables_number   1
_chemical_formula_structural   CsGd(MoO4)2
_chemical_formula_sum   'Cs2 Gd2 Mo4 O16'
_cell_volume   348.82182972
_cell_formula_units_Z   2
loop_
 _symmetry_equiv_pos_site_id
 _symmetry_equiv_pos_as_xyz
  1  'x, y, z'
loop_
 _atom_site_type_symbol
 _atom_site_label
 _atom_site_symmetry_multiplicity
 _atom_site_fract_x
 _atom_site_fract_y
 _atom_site_fract_z
 _atom_site_occupancy
  Cs  Cs0  1  0.19722800  0.80277200  0.75000000  1
  Cs  Cs1  1  0.80277200  0.19722800  0.25000000  1
  Gd  Gd0  1  0.77045700  0.22954300  0.75000000  1
  Gd  Gd1  1  0.22954300  0.77045700  0.25000000  1
  Mo  Mo0  1  0.69431300  0.69247100  0.76626900  1
  Mo  Mo1  1  0.30568700  0.30752900  0.23373100  1
  Mo  Mo2  1  0.30752900  0.30568700  0.73373100  1
  Mo  Mo3  1  0.69247100  0.69431300  0.26626900  1
  O  O0  1  0.61780400  0.75764300  0.56700900  1
  O  O1  1  0.38219600  0.24235700  0.43299100  1
  O  O2  1  0.24235700  0.38219600  0.93299100  1
  O  O3  1  0.75764300  0.61780400  0.06700900  1
  O  O4  1  0.38289900  0.07239100  0.87238600  1
  O  O5  1  0.61710100  0.92760900  0.12761400  1
  O  O6  1  0.92760900  0.61710100  0.62761400  1
  O  O7  1  0.07239100  0.38289900  0.37238600  1
  O  O8  1  0.58271400  0.36955100  0.96935800  1
  O  O9  1  0.41728600  0.63044900  0.03064200  1
  O  O10  1  0.63044900  0.41728600  0.53064200  1
  O  O11  1  0.36955100  0.58271400  0.46935800  1
  O  O12  1  0.78838100  0.94482700  0.69845100  1
  O  O13  1  0.21161900  0.05517300  0.30154900  1
  O  O14  1  0.05517300  0.21161900  0.80154900  1
  O  O15  1  0.94482700  0.78838100  0.19845100  1
loop_
_geom_bond_atom_site_label_1
_geom_bond_atom_site_label_2
_geom_bond_distance
_geom_bond_site_symmetry_2
Cs0 O1 2.930568 1_565
Cs0 O3 2.930568 1_456
Cs0 O2 2.946403 1_555
Cs0 O0 2.946403 1_555
Cs0 O15 3.070007 1_456
Cs0 O13 3.070007 1_565
Cs0 O9 3.183349 1_556
Cs0 O11 3.183349 1_555
Cs0 O6 3.237954 1_455
Cs0 O4 3.237954 1_565
Cs0 O12 3.441741 1_455
Cs0 O14 3.441741 1_565
Cs1 O0 2.930568 1_545
Cs1 O2 2.930568 1_654
Cs1 O1 2.946403 1_555
Cs1 O3 2.946403 1_555
Cs1 O12 3.070007 1_545
Cs1 O14 3.070007 1_654
Cs1 O10 3.183349 1_555
Cs1 O8 3.183349 1_554
Cs1 O5 3.237954 1_545
Cs1 O7 3.237954 1_655
Cs1 O15 3.441741 1_545
Cs1 O13 3.441741 1_655
Gd0 O10 2.356034 1_555
Gd0 O8 2.356034 1_555
Gd0 O14 2.391764 1_655
Gd0 O12 2.391764 1_545
Gd0 O5 2.437936 1_546
Gd0 O7 2.437936 1_655
Gd0 O4 2.754500 1_555
Gd0 O6 2.754500 1_555
Gd1 O9 2.356034 1_555
Gd1 O11 2.356034 1_555
Gd1 O13 2.391764 1_565
Gd1 O15 2.391764 1_455
Gd1 O6 2.437936 1_455
Gd1 O4 2.437936 1_564
Gd1 O7 2.754500 1_555
Gd1 O5 2.754500 1_555
Mo0 O0 1.777952 1_555
Mo0 O12 1.810587 1_555
Mo0 O6 1.857824 1_555
Mo0 O9 2.008467 1_556
Mo0 O8 2.124296 1_555
Mo0 O3 2.437574 1_556
Mo1 O1 1.777952 1_555
Mo1 O13 1.810587 1_555
Mo1 O7 1.857824 1_555
Mo1 O8 2.008467 1_554
Mo1 O9 2.124296 1_555
Mo1 O2 2.437574 1_554
Mo2 O2 1.777952 1_555
Mo2 O14 1.810587 1_555
Mo2 O4 1.857824 1_555
Mo2 O11 2.008467 1_555
Mo2 O10 2.124296 1_555
Mo2 O1 2.437574 1_555
Mo3 O3 1.777952 1_555
Mo3 O15 1.810587 1_555
Mo3 O5 1.857824 1_555
Mo3 O10 2.008467 1_555
Mo3 O11 2.124296 1_555
Mo3 O0 2.437574 1_555
