# generated using pymatgen
data_Si2H2O3
_symmetry_space_group_name_H-M   'P 1'
_cell_length_a   7.98006200
_cell_length_b   9.94130709
_cell_length_c   13.20808102
_cell_angle_alpha   82.71966816
_cell_angle_beta   74.44179493
_cell_angle_gamma   71.80396978
_symmetry_Int_Tables_number   1
_chemical_formula_structural   Si2H2O3
_chemical_formula_sum   'Si20 H20 O30'
_cell_volume   957.89725866
_cell_formula_units_Z   10
loop_
 _symmetry_equiv_pos_site_id
 _symmetry_equiv_pos_as_xyz
  1  'x, y, z'
loop_
 _atom_site_type_symbol
 _atom_site_label
 _atom_site_symmetry_multiplicity
 _atom_site_fract_x
 _atom_site_fract_y
 _atom_site_fract_z
 _atom_site_occupancy
  Si  Si0  1  0.29483200  0.19647100  0.89839100  1
  Si  Si1  1  0.28391200  0.39050600  0.66658700  1
  Si  Si2  1  0.62016400  0.94910200  0.10716300  1
  Si  Si3  1  0.70878800  0.48392400  0.42400200  1
  Si  Si4  1  0.23990000  0.90260200  0.67561200  1
  Si  Si5  1  0.81622500  0.63967100  0.84084200  1
  Si  Si6  1  0.77456800  0.15828100  0.20817900  1
  Si  Si7  1  0.01825500  0.43900400  0.19731500  1
  Si  Si8  1  0.78702300  0.97483900  0.75783500  1
  Si  Si9  1  0.60135300  0.50016100  0.72112100  1
  Si  Si10  1  0.20897300  0.00503900  0.20294100  1
  Si  Si11  1  0.46320500  0.55299000  0.27877900  1
  Si  Si12  1  0.79458100  0.28493000  0.55221600  1
  Si  Si13  1  0.58042700  0.20522600  0.92903800  1
  Si  Si14  1  0.19441700  0.80926100  0.44079800  1
  Si  Si15  1  0.39528500  0.68855800  0.05979500  1
  Si  Si16  1  0.25441700  0.17156500  0.51618600  1
  Si  Si17  1  0.93245700  0.38908700  0.04481200  1
  Si  Si18  1  0.81308900  0.76944800  0.47900400  1
  Si  Si19  1  0.05366300  0.62810600  0.01671000  1
  H  H0  1  0.15390700  0.04066200  0.88553600  1
  H  H1  1  0.15416200  0.63363000  0.66494200  1
  H  H2  1  0.99879100  0.08227700  0.59191600  1
  H  H3  1  0.53636400  0.31081300  0.31134300  1
  H  H4  1  0.01036500  0.34970200  0.63793000  1
  H  H5  1  0.08928600  0.84573300  0.13511200  1
  H  H6  1  0.14827000  0.67763400  0.31454700  1
  H  H7  1  0.70668400  0.25868200  0.03934500  1
  H  H8  1  0.00943000  0.86339100  0.96613800  1
  H  H9  1  0.98759200  0.53686800  0.47760500  1
  H  H10  1  0.07502800  0.36681800  0.83341300  1
  H  H11  1  0.58552100  0.73638700  0.21909000  1
  H  H12  1  0.63583700  0.82338200  0.55253900  1
  H  H13  1  0.76412700  0.40778600  0.90808300  1
  H  H14  1  0.73909000  0.83586900  0.31315900  1
  H  H15  1  0.84069600  0.70341000  0.17973000  1
  H  H16  1  0.55368900  0.20692300  0.61355300  1
  H  H17  1  0.46445600  0.46009400  0.90476400  1
  H  H18  1  0.98602300  0.93727200  0.34126500  1
  H  H19  1  0.28566700  0.48938900  0.17201900  1
  O  O0  1  0.27892700  0.03948500  0.87856200  1
  O  O1  1  0.12431400  0.54926200  0.70163300  1
  O  O2  1  0.73689800  0.03276600  0.14960600  1
  O  O3  1  0.87804900  0.43633700  0.31597700  1
  O  O4  1  0.00798000  0.96332500  0.69603900  1
  O  O5  1  0.71996200  0.59094000  0.76338000  1
  O  O6  1  0.00574700  0.09940600  0.18832800  1
  O  O7  1  0.43632800  0.39962500  0.33618900  1
  O  O8  1  0.74745800  0.10707900  0.83590100  1
  O  O9  1  0.78646100  0.36677400  0.65872300  1
  O  O10  1  0.21488100  0.84226000  0.13288200  1
  O  O11  1  0.23778900  0.65828500  0.35721300  1
  O  O12  1  0.01044700  0.16078200  0.53601700  1
  O  O13  1  0.77768100  0.28557100  0.08615700  1
  O  O14  1  0.98372500  0.79877400  0.50902200  1
  O  O15  1  0.26757300  0.64022800  0.99469500  1
  O  O16  1  0.12577900  0.26704400  0.99532500  1
  O  O17  1  0.14572400  0.32954200  0.60562700  1
  O  O18  1  0.93438800  0.80132200  0.99678500  1
  O  O19  1  0.86047200  0.58944500  0.48062200  1
  O  O20  1  0.20237800  0.31337700  0.79819800  1
  O  O21  1  0.65488100  0.80910900  0.20577500  1
  O  O22  1  0.29709400  0.04312000  0.61177600  1
  O  O23  1  0.85738200  0.44697800  0.92038000  1
  O  O24  1  0.82318400  0.83480100  0.35721300  1
  O  O25  1  0.97137800  0.63295200  0.15946600  1
  O  O26  1  0.68672600  0.16061500  0.59082300  1
  O  O27  1  0.56529200  0.39121700  0.85897900  1
  O  O28  1  0.11245300  0.93611500  0.33886200  1
  O  O29  1  0.36501000  0.55528600  0.16867100  1
loop_
_geom_bond_atom_site_label_1
_geom_bond_atom_site_label_2
_geom_bond_distance
_geom_bond_site_symmetry_2
H0 O0 0.973472 1_555
H1 O1 0.977181 1_555
H2 O12 1.012578 1_655
H2 O4 1.697906 1_645
H3 O7 1.008567 1_555
H4 O17 1.014014 1_555
H4 O9 1.689958 1_455
H5 O10 0.984574 1_555
H6 O11 0.983643 1_555
H7 O13 1.048392 1_555
H8 O18 0.969869 1_455
H9 O19 0.977903 1_555
H10 O20 1.001621 1_555
H11 O21 1.012628 1_555
H12 Si18 1.467292 1_555
H13 O23 0.996970 1_555
H14 O24 0.996231 1_555
H15 O25 1.044693 1_555
H15 O21 1.505360 1_555
H16 O26 0.993966 1_555
H17 O27 0.990887 1_555
H18 O28 0.997359 1_655
H19 O29 1.033778 1_555
O0 Si0 1.662965 1_555
O1 Si1 1.714856 1_555
O2 Si2 1.660122 1_545
O2 Si6 1.688052 1_555
O3 Si7 1.666215 1_655
O3 Si3 1.679934 1_555
O4 Si8 1.707030 1_455
O4 Si4 1.714088 1_555
O5 Si5 1.628261 1_555
O5 Si9 1.722322 1_555
O6 Si10 1.649021 1_555
O6 Si6 1.708728 1_455
O7 Si11 1.664184 1_555
O8 Si8 1.673566 1_545
O8 Si13 1.689483 1_555
O9 Si12 1.689208 1_555
O9 Si9 1.737883 1_555
O10 Si15 1.895710 1_555
O10 Si10 1.945673 1_565
O11 Si14 1.865972 1_555
O11 Si11 1.871884 1_555
O12 Si12 1.754383 1_455
O12 Si16 1.928775 1_555
O13 Si17 1.781101 1_555
O13 Si6 1.918511 1_555
O14 Si18 1.631937 1_555
O14 Si14 1.709586 1_655
O15 Si19 1.693016 1_556
O15 Si15 1.699838 1_556
O16 Si0 1.631375 1_555
O16 Si17 1.664433 1_456
O17 Si1 1.802507 1_555
O17 Si16 1.919422 1_555
O18 Si19 1.713582 1_656
O19 Si18 1.708121 1_555
O19 Si3 2.145305 1_555
O20 Si0 1.801318 1_555
O20 Si1 1.843932 1_555
O21 Si2 1.789807 1_555
O22 Si4 1.662491 1_545
O22 Si16 1.700296 1_555
O23 Si17 1.861286 1_556
O23 Si5 2.040397 1_555
O24 Si18 1.647591 1_555
O25 Si19 1.824234 1_655
O25 Si7 1.874293 1_655
O26 Si12 1.672514 1_555
O27 Si13 1.943314 1_555
O27 Si9 1.996249 1_555
O28 Si14 1.832439 1_555
O28 Si10 1.887266 1_565
O29 Si11 1.822451 1_555
O29 Si15 1.847253 1_555
