# generated using pymatgen
data_Er5(Ge5Ir2)2
_symmetry_space_group_name_H-M   'P 1'
_cell_length_a   4.32721594
_cell_length_b   13.01243738
_cell_length_c   13.01243738
_cell_angle_alpha   90.00000000
_cell_angle_beta   90.00000000
_cell_angle_gamma   90.00000000
_symmetry_Int_Tables_number   1
_chemical_formula_structural   Er5(Ge5Ir2)2
_chemical_formula_sum   'Er10 Ge20 Ir8'
_cell_volume   732.69946318
_cell_formula_units_Z   2
loop_
 _symmetry_equiv_pos_site_id
 _symmetry_equiv_pos_as_xyz
  1  'x, y, z'
loop_
 _atom_site_type_symbol
 _atom_site_label
 _atom_site_symmetry_multiplicity
 _atom_site_fract_x
 _atom_site_fract_y
 _atom_site_fract_z
 _atom_site_occupancy
  Er  Er0  1  -0.00000000  0.50000000  0.50000000  1
  Er  Er1  1  -0.00000000  -0.00000000  0.00000000  1
  Er  Er2  1  0.50000000  0.17396261  0.67396261  1
  Er  Er3  1  0.50000000  0.82603739  0.32603739  1
  Er  Er4  1  0.50000000  0.32603739  0.17396261  1
  Er  Er5  1  0.50000000  0.67396261  0.82603739  1
  Er  Er6  1  0.50000000  0.38429475  0.88429475  1
  Er  Er7  1  0.50000000  0.61570525  0.11570525  1
  Er  Er8  1  0.50000000  0.11570525  0.38429475  1
  Er  Er9  1  0.50000000  0.88429475  0.61570525  1
  Ge  Ge0  1  0.00000000  0.06631666  0.56631666  1
  Ge  Ge1  1  -0.00000000  0.93368334  0.43368334  1
  Ge  Ge2  1  0.00000000  0.43368334  0.06631666  1
  Ge  Ge3  1  -0.00000000  0.56631666  0.93368334  1
  Ge  Ge4  1  0.00000000  0.70008509  0.66323215  1
  Ge  Ge5  1  -0.00000000  0.29991491  0.33676785  1
  Ge  Ge6  1  0.00000000  0.79991491  0.16323215  1
  Ge  Ge7  1  -0.00000000  0.20008509  0.83676785  1
  Ge  Ge8  1  0.00000000  0.66323215  0.29991491  1
  Ge  Ge9  1  -0.00000000  0.33676785  0.70008509  1
  Ge  Ge10  1  -0.00000000  0.16323215  0.20008509  1
  Ge  Ge11  1  0.00000000  0.83676785  0.79991491  1
  Ge  Ge12  1  0.50000000  0.50901166  0.65591344  1
  Ge  Ge13  1  0.50000000  0.49098834  0.34408656  1
  Ge  Ge14  1  0.50000000  0.99098834  0.15591344  1
  Ge  Ge15  1  0.50000000  0.00901166  0.84408656  1
  Ge  Ge16  1  0.50000000  0.65591344  0.49098834  1
  Ge  Ge17  1  0.50000000  0.34408656  0.50901166  1
  Ge  Ge18  1  0.50000000  0.15591344  0.00901166  1
  Ge  Ge19  1  0.50000000  0.84408656  0.99098834  1
  Ir  Ir0  1  -0.00000000  0.52094606  0.74655027  1
  Ir  Ir1  1  0.00000000  0.47905394  0.25344973  1
  Ir  Ir2  1  -0.00000000  0.97905394  0.24655027  1
  Ir  Ir3  1  0.00000000  0.02094606  0.75344973  1
  Ir  Ir4  1  0.00000000  0.74655027  0.47905394  1
  Ir  Ir5  1  -0.00000000  0.25344973  0.52094606  1
  Ir  Ir6  1  -0.00000000  0.24655027  0.02094606  1
  Ir  Ir7  1  0.00000000  0.75344973  0.97905394  1
loop_
_geom_bond_atom_site_label_1
_geom_bond_atom_site_label_2
_geom_bond_distance
_geom_bond_site_symmetry_2
Er0 Ge12 2.968339 1_455
Er0 Ge16 2.968339 1_455
Er0 Ge12 2.968339 1_555
Er0 Ge16 2.968339 1_555
Er0 Ge17 2.968339 1_455
Er0 Ge13 2.968339 1_555
Er0 Ge17 2.968339 1_555
Er0 Ge13 2.968339 1_455
Er0 Ir4 3.219777 1_555
Er0 Ir0 3.219777 1_555
Er0 Ir1 3.219777 1_555
Er0 Ir5 3.219777 1_555
Er0 Ge9 3.360102 1_555
Er0 Ge4 3.360102 1_555
Er0 Ge5 3.360102 1_555
Er0 Ge8 3.360102 1_555
Er1 Ge19 2.968339 1_544
Er1 Ge15 2.968339 1_454
Er1 Ge19 2.968339 1_444
Er1 Ge18 2.968339 1_455
Er1 Ge15 2.968339 1_554
Er1 Ge18 2.968339 1_555
Er1 Ge14 2.968339 1_545
Er1 Ge14 2.968339 1_445
Er1 Ir6 3.219777 1_555
Er1 Ir7 3.219777 1_544
Er1 Ir3 3.219777 1_554
Er1 Ir2 3.219777 1_545
Er1 Ge10 3.360102 1_555
Er1 Ge11 3.360102 1_544
Er1 Ge6 3.360102 1_545
Er1 Ge7 3.360102 1_554
Er2 Ge0 2.933483 1_555
Er2 Ge0 2.933483 1_655
Er2 Ge7 3.047090 1_555
Er2 Ge9 3.047090 1_555
Er2 Ge9 3.047090 1_655
Er2 Ge7 3.047090 1_655
Er2 Ge15 3.083453 1_555
Er2 Ge17 3.083453 1_555
Er2 Ir5 3.116981 1_655
Er2 Ir3 3.116981 1_655
Er2 Ir5 3.116981 1_555
Er2 Ir3 3.116981 1_555
Er3 Ge1 2.933483 1_555
Er3 Ge1 2.933483 1_655
Er3 Ge8 3.047090 1_655
Er3 Ge6 3.047090 1_655
Er3 Ge6 3.047090 1_555
Er3 Ge8 3.047090 1_555
Er3 Ge16 3.083453 1_555
Er3 Ge14 3.083453 1_555
Er3 Ir4 3.116981 1_555
Er3 Ir2 3.116981 1_655
Er3 Ir4 3.116981 1_655
Er3 Ir2 3.116981 1_555
Er4 Ge2 2.933483 1_655
Er4 Ge2 2.933483 1_555
Er4 Ge10 3.047090 1_555
Er4 Ge5 3.047090 1_655
Er4 Ge5 3.047090 1_555
Er4 Ge10 3.047090 1_655
Er4 Ge18 3.083453 1_555
Er4 Ge13 3.083453 1_555
Er4 Ir6 3.116981 1_655
Er4 Ir6 3.116981 1_555
Er4 Ir1 3.116981 1_655
Er4 Ir1 3.116981 1_555
Er5 Ge3 2.933483 1_655
Er5 Ge3 2.933483 1_555
Er5 Ge11 3.047090 1_655
Er5 Ge4 3.047090 1_655
Er5 Ge11 3.047090 1_555
Er5 Ge4 3.047090 1_555
Er5 Ge12 3.083453 1_555
Er5 Ge19 3.083453 1_555
Er5 Ir7 3.116981 1_655
Er5 Ir7 3.116981 1_555
Er5 Ir0 3.116981 1_655
Er5 Ir0 3.116981 1_555
Er6 Ge3 3.271734 1_555
Er6 Ge2 3.271734 1_556
Er6 Ge2 3.271734 1_656
Er6 Ge3 3.271734 1_655
Er6 Ge7 3.287759 1_555
Er6 Ge9 3.287759 1_555
Er6 Ge9 3.287759 1_655
Er6 Ge7 3.287759 1_655
Er6 Ir6 3.325018 1_556
Er6 Ir6 3.325018 1_656
Er6 Ir0 3.325018 1_655
Er6 Ir0 3.325018 1_555
Er6 Ge12 3.386043 1_555
Er6 Ge18 3.386043 1_556
Er7 Ge2 3.271734 1_555
Er7 Ge2 3.271734 1_655
Er7 Ge3 3.271734 1_554
Er7 Ge3 3.271734 1_654
Er7 Ge8 3.287759 1_555
Er7 Ge8 3.287759 1_655
Er7 Ge6 3.287759 1_555
Er7 Ge6 3.287759 1_655
Er7 Ir1 3.325018 1_555
Er7 Ir1 3.325018 1_655
Er7 Ir7 3.325018 1_654
Er7 Ir7 3.325018 1_554
Er7 Ge13 3.386043 1_555
Er7 Ge19 3.386043 1_554
Er8 Ge1 3.271734 1_545
Er8 Ge1 3.271734 1_645
Er8 Ge0 3.271734 1_655
Er8 Ge0 3.271734 1_555
Er8 Ge5 3.287759 1_655
Er8 Ge5 3.287759 1_555
Er8 Ge10 3.287759 1_555
Er8 Ge10 3.287759 1_655
Er8 Ir5 3.325018 1_555
Er8 Ir5 3.325018 1_655
Er8 Ir2 3.325018 1_545
Er8 Ir2 3.325018 1_645
Er8 Ge17 3.386043 1_555
Er8 Ge14 3.386043 1_545
Er9 Ge0 3.271734 1_665
Er9 Ge1 3.271734 1_655
Er9 Ge0 3.271734 1_565
Er9 Ge1 3.271734 1_555
Er9 Ge11 3.287759 1_655
Er9 Ge11 3.287759 1_555
Er9 Ge4 3.287759 1_555
Er9 Ge4 3.287759 1_655
Er9 Ir4 3.325018 1_655
Er9 Ir3 3.325018 1_665
Er9 Ir3 3.325018 1_565
Er9 Ir4 3.325018 1_555
Er9 Ge16 3.386043 1_555
Er9 Ge15 3.386043 1_565
Ge0 Ge1 2.440767 1_545
Ge0 Ir5 2.505605 1_555
Ge0 Ir3 2.505605 1_555
Ge1 Ir2 2.505605 1_555
Ge1 Ir4 2.505605 1_555
Ge2 Ge3 2.440767 1_554
Ge2 Ir6 2.505605 1_555
Ge2 Ir1 2.505605 1_555
Ge3 Ir7 2.505605 1_555
Ge3 Ir0 2.505605 1_555
Ge4 Ir4 2.471700 1_555
Ge4 Ir0 2.570828 1_555
Ge5 Ir5 2.471700 1_555
Ge5 Ir1 2.570828 1_555
Ge6 Ir7 2.471700 1_554
Ge6 Ge8 2.515286 1_555
Ge6 Ir2 2.570828 1_555
Ge7 Ir6 2.471700 1_556
Ge7 Ge9 2.515286 1_555
Ge7 Ir3 2.570828 1_555
Ge8 Ir1 2.471700 1_555
Ge8 Ir4 2.570828 1_555
Ge9 Ir0 2.471700 1_555
Ge9 Ir5 2.570828 1_555
Ge10 Ir2 2.471700 1_545
Ge10 Ge5 2.515286 1_555
Ge10 Ir6 2.570828 1_555
Ge11 Ir3 2.471700 1_565
Ge11 Ge4 2.515286 1_555
Ge11 Ir7 2.570828 1_555
Ge12 Ir0 2.469072 1_655
Ge12 Ir0 2.469072 1_555
Ge12 Ge16 2.873965 1_555
Ge12 Ge17 2.873965 1_555
Ge13 Ir1 2.469072 1_555
Ge13 Ir1 2.469072 1_655
Ge13 Ge16 2.873965 1_555
Ge13 Ge17 2.873965 1_555
Ge14 Ir2 2.469072 1_655
Ge14 Ir2 2.469072 1_555
Ge14 Ge18 2.873965 1_565
Ge14 Ge19 2.873965 1_554
Ge15 Ir3 2.469072 1_555
Ge15 Ir3 2.469072 1_655
Ge15 Ge19 2.873965 1_545
Ge15 Ge18 2.873965 1_556
Ge16 Ir4 2.469072 1_655
Ge16 Ir4 2.469072 1_555
Ge17 Ir5 2.469072 1_555
Ge17 Ir5 2.469072 1_655
Ge18 Ir6 2.469072 1_655
Ge18 Ir6 2.469072 1_555
Ge19 Ir7 2.469072 1_655
Ge19 Ir7 2.469072 1_555
