# generated using pymatgen
data_Li4MnCo2O7
_symmetry_space_group_name_H-M   'P 1'
_cell_length_a   3.02403400
_cell_length_b   6.00469603
_cell_length_c   14.23537337
_cell_angle_alpha   82.76293176
_cell_angle_beta   84.30289905
_cell_angle_gamma   84.87111860
_symmetry_Int_Tables_number   1
_chemical_formula_structural   Li4MnCo2O7
_chemical_formula_sum   'Li8 Mn2 Co4 O14'
_cell_volume   254.39048666
_cell_formula_units_Z   2
loop_
 _symmetry_equiv_pos_site_id
 _symmetry_equiv_pos_as_xyz
  1  'x, y, z'
loop_
 _atom_site_type_symbol
 _atom_site_label
 _atom_site_symmetry_multiplicity
 _atom_site_fract_x
 _atom_site_fract_y
 _atom_site_fract_z
 _atom_site_occupancy
  Li  Li0  1  0.00023100  0.50034800  0.99965300  1
  Li  Li1  1  0.57130000  0.78576100  0.85748400  1
  Li  Li2  1  0.14461200  0.07153800  0.71338000  1
  Li  Li3  1  0.42610800  0.21557500  0.14498000  1
  Li  Li4  1  0.85429900  0.93362300  0.28737900  1
  Li  Li5  1  0.28468500  0.64247700  0.42895200  1
  Li  Li6  1  0.71914300  0.35143300  0.56766700  1
  Li  Li7  1  0.28574100  0.14378200  0.42813000  1
  Mn  Mn0  1  0.99995500  0.99868400  0.00089400  1
  Mn  Mn1  1  0.14440800  0.57202200  0.71254300  1
  Co  Co0  1  0.57111600  0.28608900  0.85712600  1
  Co  Co1  1  0.72249400  0.87153900  0.56491300  1
  Co  Co2  1  0.85181600  0.41685400  0.29138700  1
  Co  Co3  1  0.42723600  0.71176300  0.14529000  1
  O  O0  1  0.47236400  0.75241000  0.00781300  1
  O  O1  1  0.04442500  0.04664400  0.86151100  1
  O  O2  1  0.61813200  0.32748500  0.72066900  1
  O  O3  1  0.89856500  0.47530600  0.15451800  1
  O  O4  1  0.33570000  0.19872200  0.28549700  1
  O  O5  1  0.77446000  0.88616200  0.44184000  1
  O  O6  1  0.18924300  0.61823500  0.57493100  1
  O  O7  1  0.52683200  0.24484600  0.99412200  1
  O  O8  1  0.09909100  0.52616200  0.85190900  1
  O  O9  1  0.67005200  0.81632900  0.70295900  1
  O  O10  1  0.95304600  0.95065400  0.13965900  1
  O  O11  1  0.38418300  0.66559500  0.27943700  1
  O  O12  1  0.79574100  0.40133300  0.41443300  1
  O  O13  1  0.23502400  0.08862900  0.57092400  1
loop_
_geom_bond_atom_site_label_1
_geom_bond_atom_site_label_2
_geom_bond_distance
_geom_bond_site_symmetry_2
Li0 O8 2.082817 1_555
Li0 O0 2.104278 1_456
Li0 O7 2.112972 1_555
Li0 O3 2.183438 1_456
Li0 O0 2.192349 1_556
Li0 O7 2.203387 1_455
Li1 O0 2.117733 1_556
Li1 O8 2.131851 1_655
Li1 O1 2.134031 1_565
Li1 O9 2.176992 1_555
Li1 O8 2.219677 1_555
Li1 O1 2.223500 1_665
Li2 O13 2.010031 1_555
Li2 O1 2.088681 1_555
Li2 O9 2.114307 1_545
Li2 O2 2.115996 1_455
Li2 O2 2.210517 1_555
Li2 O9 2.218701 1_445
Li3 O4 1.982827 1_555
Li3 O7 2.126056 1_554
Li3 O3 2.135724 1_455
Li3 O10 2.151428 1_545
Li3 O3 2.232112 1_555
Li3 O10 2.245334 1_445
Li4 O10 2.085237 1_555
Li4 O4 2.131987 1_565
Li4 O11 2.172433 1_655
Li4 O5 2.173315 1_555
Li4 O4 2.247172 1_665
Li4 O11 2.260742 1_555
Li5 O12 2.034628 1_555
Li5 O5 2.040393 1_455
Li5 O6 2.057928 1_555
Li5 O11 2.108501 1_555
Li5 O12 2.201020 1_455
Li5 O5 2.208504 1_555
Li6 O13 2.117053 1_655
Li6 O12 2.156180 1_555
Li6 O2 2.157475 1_555
Li6 O6 2.166783 1_555
Li6 O13 2.239830 1_555
Li6 O6 2.253080 1_655
Li7 O4 2.008373 1_555
Li7 O13 2.010659 1_555
Li7 O5 2.046392 1_545
Li7 O12 2.048672 1_455
Li7 O12 2.258108 1_555
Li7 O5 2.261251 1_445
Mn0 O10 1.952828 1_555
Mn0 O1 1.961614 1_664
Mn0 O0 1.962376 1_655
Mn0 O7 1.963299 1_564
Mn0 O7 2.255531 1_664
Mn0 O0 2.257424 1_555
Mn1 O6 1.936476 1_555
Mn1 O2 1.958500 1_555
Mn1 O9 1.959734 1_455
Mn1 O8 1.961046 1_555
Mn1 O9 2.240721 1_555
Mn1 O2 2.245164 1_455
Co0 O2 1.919688 1_555
Co0 O7 1.927407 1_555
Co0 O1 1.935707 1_655
Co0 O8 1.935800 1_555
Co0 O1 2.230478 1_555
Co0 O8 2.234682 1_655
Co1 O5 1.735201 1_555
Co1 O13 1.881257 1_565
Co1 O9 1.944274 1_555
Co1 O6 1.981798 1_655
Co1 O13 2.127080 1_665
Co1 O6 2.296176 1_555
Co2 O12 1.734442 1_555
Co2 O4 1.877358 1_655
Co2 O3 1.929055 1_555
Co2 O11 1.966141 1_555
Co2 O4 2.139569 1_555
Co2 O11 2.272249 1_655
Co3 O11 1.887912 1_555
Co3 O3 1.921747 1_555
Co3 O0 1.934107 1_555
Co3 O10 1.935578 1_455
Co3 O3 2.215017 1_455
Co3 O10 2.223954 1_555
