# generated using pymatgen
data_FePH6NO5
_symmetry_space_group_name_H-M   'P 1'
_cell_length_a   4.83224160
_cell_length_b   5.70892781
_cell_length_c   18.04831197
_cell_angle_alpha   89.99241683
_cell_angle_beta   89.95864840
_cell_angle_gamma   90.05465802
_symmetry_Int_Tables_number   1
_chemical_formula_structural   FePH6NO5
_chemical_formula_sum   'Fe4 P4 H24 N4 O20'
_cell_volume   497.89694997
_cell_formula_units_Z   4
loop_
 _symmetry_equiv_pos_site_id
 _symmetry_equiv_pos_as_xyz
  1  'x, y, z'
loop_
 _atom_site_type_symbol
 _atom_site_label
 _atom_site_symmetry_multiplicity
 _atom_site_fract_x
 _atom_site_fract_y
 _atom_site_fract_z
 _atom_site_occupancy
  Fe  Fe0  1  0.50714500  0.50112700  0.51105900  1
  Fe  Fe1  1  0.00639700  0.00049900  0.98852800  1
  Fe  Fe2  1  0.50650700  0.50081300  0.01160500  1
  Fe  Fe3  1  0.00667800  0.00110100  0.48850000  1
  P  P0  1  0.07328500  0.49911000  0.40238200  1
  P  P1  1  0.07860900  0.50312300  0.90191200  1
  P  P2  1  0.57239600  0.99870800  0.09760000  1
  P  P3  1  0.57950200  0.00299700  0.59815200  1
  H  H0  1  0.80929100  0.50138100  0.27181200  1
  H  H1  1  0.81058700  0.49781600  0.77185000  1
  H  H2  1  0.30939500  0.00149200  0.22818900  1
  H  H3  1  0.31054300  0.99796700  0.72818200  1
  H  H4  1  0.45021500  0.50104700  0.27383300  1
  H  H5  1  0.45150000  0.49743100  0.77398100  1
  H  H6  1  0.95039300  0.00111900  0.22618300  1
  H  H7  1  0.95130600  0.99754200  0.72613900  1
  H  H8  1  0.62273100  0.64482100  0.20571800  1
  H  H9  1  0.62471000  0.65305500  0.70824600  1
  H  H10  1  0.62295800  0.34632700  0.20814800  1
  H  H11  1  0.62486100  0.35444400  0.70585400  1
  H  H12  1  0.12283300  0.84714900  0.29205500  1
  H  H13  1  0.12468200  0.85515500  0.79436700  1
  H  H14  1  0.12258900  0.14566100  0.29412200  1
  H  H15  1  0.12450600  0.15365500  0.79168600  1
  H  H16  1  0.06037900  0.62974900  0.09533400  1
  H  H17  1  0.07704300  0.63974200  0.59472700  1
  H  H18  1  0.08160900  0.35623700  0.09697200  1
  H  H19  1  0.07238700  0.36537500  0.59485000  1
  H  H20  1  0.58020100  0.85703900  0.40328700  1
  H  H21  1  0.56967400  0.86647600  0.90491100  1
  H  H22  1  0.56149900  0.13050200  0.40463300  1
  H  H23  1  0.57780100  0.14080200  0.90510700  1
  N  N0  1  0.62669000  0.49859500  0.23953700  1
  N  N1  1  0.62831300  0.50061000  0.73962200  1
  N  N2  1  0.12662900  0.99900000  0.26049400  1
  N  N3  1  0.12811500  0.00090300  0.76044000  1
  O  O0  1  0.76122600  0.50013800  0.41813700  1
  O  O1  1  0.76772500  0.50197300  0.91762400  1
  O  O2  1  0.26040400  0.00072100  0.08203800  1
  O  O3  1  0.26878000  0.00191900  0.58230900  1
  O  O4  1  0.12274000  0.50390700  0.31710600  1
  O  O5  1  0.12833400  0.49035400  0.81671300  1
  O  O6  1  0.62262700  0.00472000  0.18284000  1
  O  O7  1  0.62823900  0.99175700  0.68341500  1
  O  O8  1  0.19261900  0.50003000  0.10285400  1
  O  O9  1  0.19781900  0.50137100  0.60072200  1
  O  O10  1  0.69283000  0.99997500  0.39737300  1
  O  O11  1  0.69661900  0.00137500  0.89891600  1
  O  O12  1  0.22304400  0.71273000  0.43998400  1
  O  O13  1  0.22230400  0.72823900  0.93451200  1
  O  O14  1  0.21661300  0.27595500  0.43672400  1
  O  O15  1  0.22976600  0.29246200  0.94165900  1
  O  O16  1  0.71505400  0.77473300  0.06353500  1
  O  O17  1  0.73052200  0.79107800  0.55897700  1
  O  O18  1  0.72310200  0.21110400  0.05939300  1
  O  O19  1  0.72447800  0.22689200  0.56515200  1
loop_
_geom_bond_atom_site_label_1
_geom_bond_atom_site_label_2
_geom_bond_distance
_geom_bond_site_symmetry_2
Fe0 O0 2.077772 1_555
Fe0 O19 2.123993 1_555
Fe0 O17 2.156720 1_555
Fe0 O9 2.202167 1_555
Fe0 O12 2.234918 1_555
Fe0 O14 2.328768 1_555
Fe1 O2 2.087554 1_556
Fe1 O13 2.111124 1_545
Fe1 O15 2.157241 1_555
Fe1 O11 2.204567 1_455
Fe1 O18 2.226312 1_456
Fe1 O16 2.338630 1_446
Fe2 O16 2.082829 1_555
Fe2 O1 2.113610 1_554
Fe2 O18 2.139872 1_555
Fe2 O15 2.190115 1_554
Fe2 O8 2.238141 1_555
Fe2 O13 2.348076 1_554
Fe3 O14 2.087991 1_555
Fe3 O3 2.115136 1_555
Fe3 O12 2.138336 1_545
Fe3 O17 2.197825 1_445
Fe3 O10 2.238006 1_445
Fe3 O19 2.331556 1_455
H0 N0 1.057766 1_555
H1 N1 1.056003 1_555
H2 N2 1.058003 1_545
H3 N3 1.056237 1_565
H4 N0 1.053479 1_555
H5 N1 1.055504 1_555
H6 N2 1.053400 1_645
H7 N3 1.055618 1_665
H8 N0 1.034272 1_555
H9 N1 1.038418 1_555
H10 N0 1.037807 1_555
H11 N1 1.033511 1_555
H12 N2 1.037380 1_555
H13 N3 1.033138 1_565
H14 N2 1.034372 1_545
H15 N3 1.038723 1_555
H16 O8 0.988022 1_555
H17 O9 0.988578 1_555
H18 O8 0.985988 1_555
H19 O9 0.990258 1_555
H20 O10 0.986165 1_555
H21 O11 0.989990 1_565
H22 O10 0.987928 1_545
H23 O11 0.988194 1_555
O0 P0 1.534335 1_655
O1 P1 1.528603 1_655
O2 P2 1.533813 1_545
O3 P3 1.528678 1_555
O4 P0 1.557594 1_555
O5 P1 1.557914 1_555
O6 P2 1.558019 1_545
O7 P3 1.558261 1_565
O12 P0 1.571876 1_555
O13 P1 1.574511 1_555
O14 P0 1.577646 1_555
O15 P1 1.580097 1_555
O16 P2 1.577801 1_555
O17 P3 1.580292 1_565
O18 P2 1.572739 1_545
O19 P3 1.573785 1_555
