# generated using pymatgen
data_NbSn3
_symmetry_space_group_name_H-M   'P 1'
_cell_length_a   6.26515578
_cell_length_b   6.26515578
_cell_length_c   5.48616000
_cell_angle_alpha   90.00000000
_cell_angle_beta   90.00000000
_cell_angle_gamma   119.99999767
_symmetry_Int_Tables_number   1
_chemical_formula_structural   NbSn3
_chemical_formula_sum   'Nb2 Sn6'
_cell_volume   186.49313908
_cell_formula_units_Z   2
loop_
 _symmetry_equiv_pos_site_id
 _symmetry_equiv_pos_as_xyz
  1  'x, y, z'
loop_
 _atom_site_type_symbol
 _atom_site_label
 _atom_site_symmetry_multiplicity
 _atom_site_fract_x
 _atom_site_fract_y
 _atom_site_fract_z
 _atom_site_occupancy
  Nb  Nb0  1  0.66666700  0.33333300  0.25000000  1
  Nb  Nb1  1  0.33333300  0.66666700  0.75000000  1
  Sn  Sn0  1  0.82687400  0.17312600  0.75000000  1
  Sn  Sn1  1  0.34625200  0.17312600  0.75000000  1
  Sn  Sn2  1  0.82687400  0.65374800  0.75000000  1
  Sn  Sn3  1  0.17312600  0.82687400  0.25000000  1
  Sn  Sn4  1  0.65374800  0.82687400  0.25000000  1
  Sn  Sn5  1  0.17312600  0.34625200  0.25000000  1
loop_
_geom_bond_atom_site_label_1
_geom_bond_atom_site_label_2
_geom_bond_distance
_geom_bond_site_symmetry_2
Nb0 Sn5 3.133359 1_655
Nb0 Sn4 3.133359 1_545
Nb0 Sn3 3.133362 1_545
Nb0 Sn3 3.133362 1_655
Nb0 Sn4 3.133365 1_555
Nb0 Sn5 3.133365 1_555
Nb0 Sn0 3.247593 1_554
Nb0 Sn0 3.247593 1_555
Nb0 Sn2 3.247596 1_554
Nb0 Sn1 3.247596 1_555
Nb0 Sn2 3.247596 1_555
Nb0 Sn1 3.247596 1_554
Nb1 Sn1 3.133359 1_565
Nb1 Sn2 3.133359 1_455
Nb1 Sn0 3.133362 1_565
Nb1 Sn0 3.133362 1_455
Nb1 Sn1 3.133365 1_555
Nb1 Sn2 3.133365 1_555
Nb1 Sn3 3.247593 1_555
Nb1 Sn3 3.247593 1_556
Nb1 Sn4 3.247596 1_555
Nb1 Sn4 3.247596 1_556
Nb1 Sn5 3.247596 1_555
Nb1 Sn5 3.247596 1_556
Sn0 Sn1 3.011172 1_555
Sn0 Sn2 3.011172 1_555
Sn0 Sn2 3.253984 1_545
Sn0 Sn1 3.253984 1_655
Sn0 Sn5 3.324749 1_655
Sn0 Sn4 3.324749 1_546
Sn0 Sn4 3.324749 1_545
Sn0 Sn5 3.324749 1_656
Sn1 Sn2 3.011172 1_555
Sn1 Sn2 3.253984 1_445
Sn1 Sn5 3.324749 1_555
Sn1 Sn5 3.324749 1_556
Sn1 Sn3 3.324749 1_545
Sn1 Sn3 3.324749 1_546
Sn2 Sn4 3.324749 1_555
Sn2 Sn4 3.324749 1_556
Sn2 Sn3 3.324749 1_655
Sn2 Sn3 3.324749 1_656
Sn3 Sn5 3.011172 1_555
Sn3 Sn4 3.011172 1_555
Sn3 Sn4 3.253984 1_455
Sn3 Sn5 3.253984 1_565
Sn4 Sn5 3.011172 1_555
Sn4 Sn5 3.253984 1_665
