# generated using pymatgen
data_Gd2Fe12P7
_symmetry_space_group_name_H-M   'P 1'
_cell_length_a   8.99469939
_cell_length_b   8.99469939
_cell_length_c   3.64515000
_cell_angle_alpha   90.00000000
_cell_angle_beta   90.00000000
_cell_angle_gamma   119.99999554
_symmetry_Int_Tables_number   1
_chemical_formula_structural   Gd2Fe12P7
_chemical_formula_sum   'Gd2 Fe12 P7'
_cell_volume   255.39910029
_cell_formula_units_Z   1
loop_
 _symmetry_equiv_pos_site_id
 _symmetry_equiv_pos_as_xyz
  1  'x, y, z'
loop_
 _atom_site_type_symbol
 _atom_site_label
 _atom_site_symmetry_multiplicity
 _atom_site_fract_x
 _atom_site_fract_y
 _atom_site_fract_z
 _atom_site_occupancy
  Gd  Gd0  1  0.33333300  0.66666700  0.00000000  1
  Gd  Gd1  1  0.00000000  0.00000000  0.50000000  1
  Fe  Fe0  1  0.72197300  0.96113600  0.00000000  1
  Fe  Fe1  1  0.23916300  0.27802700  0.00000000  1
  Fe  Fe2  1  0.03886400  0.76083700  0.00000000  1
  Fe  Fe3  1  0.94033200  0.45341400  0.00000000  1
  Fe  Fe4  1  0.51308300  0.05966800  0.00000000  1
  Fe  Fe5  1  0.54658600  0.48691700  0.00000000  1
  Fe  Fe6  1  0.09849000  0.38268100  0.50000000  1
  Fe  Fe7  1  0.28419100  0.90151000  0.50000000  1
  Fe  Fe8  1  0.61731900  0.71580900  0.50000000  1
  Fe  Fe9  1  0.76446800  0.21237900  0.50000000  1
  Fe  Fe10  1  0.44791000  0.23553200  0.50000000  1
  Fe  Fe11  1  0.78762100  0.55209000  0.50000000  1
  P  P0  1  0.96329000  0.22140900  0.00000000  1
  P  P1  1  0.25811900  0.03671000  0.00000000  1
  P  P2  1  0.77859100  0.74188100  0.00000000  1
  P  P3  1  0.06686900  0.62362700  0.50000000  1
  P  P4  1  0.55675700  0.93313100  0.50000000  1
  P  P5  1  0.37637300  0.44324300  0.50000000  1
  P  P6  1  0.66666700  0.33333300  0.00000000  1
loop_
_geom_bond_atom_site_label_1
_geom_bond_atom_site_label_2
_geom_bond_distance
_geom_bond_site_symmetry_2
Gd0 P5 2.878934 1_555
Gd0 P5 2.878934 1_554
Gd0 P3 2.878934 1_555
Gd0 P3 2.878934 1_554
Gd0 P4 2.878934 1_555
Gd0 P4 2.878934 1_554
Gd1 P0 2.838045 1_455
Gd1 P0 2.838045 1_456
Gd1 P1 2.838045 1_556
Gd1 P1 2.838045 1_555
Gd1 P2 2.838045 1_446
Gd1 P2 2.838045 1_445
Fe0 P0 2.260653 1_565
Fe0 P2 2.270019 1_555
Fe0 P4 2.284578 1_554
Fe0 P4 2.284578 1_555
Fe0 Gd1 2.970460 1_664
Fe0 Gd1 2.970460 1_665
Fe0 Gd0 3.158544 1_555
Fe1 P1 2.260653 1_555
Fe1 P0 2.270019 1_455
Fe1 P5 2.284576 1_555
Fe1 P5 2.284576 1_554
Fe1 Gd1 2.970460 1_555
Fe1 Gd1 2.970460 1_554
Fe1 Gd0 3.158546 1_555
Fe2 P2 2.260653 1_455
Fe2 P1 2.270019 1_565
Fe2 P3 2.284572 1_554
Fe2 P3 2.284572 1_555
Fe2 Gd1 2.970460 1_565
Fe2 Gd1 2.970460 1_564
Fe2 Gd0 3.158537 1_555
Fe3 P6 2.137070 1_555
Fe3 P0 2.197355 1_555
Fe3 P3 2.284438 1_654
Fe3 P3 2.284438 1_655
Fe3 Gd0 3.065042 1_655
Fe4 P6 2.137070 1_555
Fe4 P1 2.197364 1_555
Fe4 P4 2.284430 1_544
Fe4 P4 2.284430 1_545
Fe4 Gd0 3.065041 1_545
Fe5 P6 2.137070 1_555
Fe5 P2 2.197360 1_555
Fe5 P5 2.284441 1_555
Fe5 P5 2.284441 1_554
Fe5 Gd0 3.065057 1_555
Fe6 P0 2.267337 1_456
Fe6 P0 2.267337 1_455
Fe6 P5 2.276522 1_555
Fe6 P3 2.322546 1_555
Fe6 Gd0 2.985443 1_555
Fe6 Gd0 2.985443 1_556
Fe6 Gd1 3.095729 1_555
Fe7 P1 2.267337 1_565
Fe7 P1 2.267337 1_566
Fe7 P3 2.276525 1_555
Fe7 P4 2.322537 1_555
Fe7 Gd0 2.985438 1_555
Fe7 Gd0 2.985438 1_556
Fe7 Gd1 3.095729 1_565
Fe8 P2 2.267337 1_555
Fe8 P2 2.267337 1_556
Fe8 P4 2.276531 1_555
Fe8 P5 2.322541 1_555
Fe8 Gd0 2.985445 1_555
Fe8 Gd0 2.985445 1_556
Fe8 Gd1 3.095729 1_665
Fe9 P4 2.259808 1_545
Fe9 P6 2.497261 1_555
Fe9 P6 2.497261 1_556
Fe9 P0 2.526123 1_556
Fe9 P0 2.526123 1_555
Fe10 P5 2.259808 1_555
Fe10 P6 2.497272 1_555
Fe10 P6 2.497272 1_556
Fe10 P1 2.526120 1_556
Fe10 P1 2.526120 1_555
Fe11 P3 2.259808 1_655
Fe11 P6 2.497272 1_555
Fe11 P6 2.497272 1_556
Fe11 P2 2.526117 1_556
Fe11 P2 2.526117 1_555
