# generated using pymatgen
data_KP2W7O25
_symmetry_space_group_name_H-M   'P 1'
_cell_length_a   14.08375925
_cell_length_b   14.08375925
_cell_length_c   6.81698190
_cell_angle_alpha   83.35077543
_cell_angle_beta   83.35077543
_cell_angle_gamma   22.37855241
_symmetry_Int_Tables_number   1
_chemical_formula_structural   KP2W7O25
_chemical_formula_sum   'K1 P2 W7 O25'
_cell_volume   511.20288708
_cell_formula_units_Z   1
loop_
 _symmetry_equiv_pos_site_id
 _symmetry_equiv_pos_as_xyz
  1  'x, y, z'
loop_
 _atom_site_type_symbol
 _atom_site_label
 _atom_site_symmetry_multiplicity
 _atom_site_fract_x
 _atom_site_fract_y
 _atom_site_fract_z
 _atom_site_occupancy
  K  K0  1  0.25073200  0.25073200  0.63639900  1
  P  P0  1  0.79360500  0.79360500  0.80412100  1
  P  P1  1  0.20705000  0.20705000  0.19638500  1
  W  W0  1  0.99881700  0.99881700  0.99431500  1
  W  W1  1  0.55352100  0.55352100  0.29981600  1
  W  W2  1  0.44281800  0.44281800  0.69471800  1
  W  W3  1  0.11217800  0.11217800  0.59909800  1
  W  W4  1  0.88537400  0.88537400  0.38957100  1
  W  W5  1  0.66849500  0.66849500  0.91154700  1
  W  W6  1  0.33115500  0.33115500  0.08724600  1
  O  O0  1  0.89972300  0.40084900  0.74902400  1
  O  O1  1  0.60223900  0.10054400  0.26205200  1
  O  O2  1  0.10054400  0.60223900  0.26205200  1
  O  O3  1  0.40084900  0.89972300  0.74902400  1
  O  O4  1  0.06207700  0.06207700  0.79669800  1
  O  O5  1  0.93841500  0.93841500  0.20268700  1
  O  O6  1  0.77941700  0.27959100  0.15894100  1
  O  O7  1  0.71450900  0.22827800  0.84254800  1
  O  O8  1  0.22827800  0.71450900  0.84254800  1
  O  O9  1  0.27959100  0.77941700  0.15894100  1
  O  O10  1  0.17704000  0.17704000  0.40161700  1
  O  O11  1  0.82242500  0.82242500  0.59873600  1
  O  O12  1  0.61445900  0.61445900  0.09429200  1
  O  O13  1  0.38587200  0.38587200  0.90537600  1
  O  O14  1  0.83632600  0.34249800  0.45253300  1
  O  O15  1  0.66218400  0.16167700  0.55282000  1
  O  O16  1  0.16167700  0.66218400  0.55282000  1
  O  O17  1  0.34249800  0.83632600  0.45253300  1
  O  O18  1  0.73812000  0.73812000  0.76562200  1
  O  O19  1  0.26130100  0.26130100  0.23748800  1
  O  O20  1  0.96526100  0.42918100  0.07853500  1
  O  O21  1  0.56506000  0.03834100  0.91428600  1
  O  O22  1  0.03834100  0.56506000  0.91428600  1
  O  O23  1  0.42918100  0.96526100  0.07853500  1
  O  O24  1  0.50066700  0.50066700  0.49978600  1
loop_
_geom_bond_atom_site_label_1
_geom_bond_atom_site_label_2
_geom_bond_distance
_geom_bond_site_symmetry_2
K0 O19 2.700514 1_555
K0 O10 2.734474 1_555
K0 O21 2.876465 1_555
K0 O22 2.876465 1_555
K0 O18 2.879943 1_545
K0 O18 2.879943 1_455
K0 O3 3.108969 1_545
K0 O0 3.108969 1_455
O0 W5 1.863092 1_555
O0 W3 2.069575 1_655
O1 W4 1.919568 1_545
O1 W6 1.941640 1_555
O2 W4 1.919568 1_455
O2 W6 1.941640 1_555
O3 W5 1.863092 1_555
O3 W3 2.069575 1_565
O4 W3 1.814064 1_555
O4 W0 2.077124 1_445
O5 W4 1.824920 1_555
O5 W0 2.060032 1_554
O6 W1 1.838233 1_555
O6 W0 2.017841 1_544
O7 W2 1.895450 1_555
O7 W0 1.949667 1_545
O8 W2 1.895450 1_555
O8 W0 1.949667 1_455
O9 W1 1.838233 1_555
O9 W0 2.017841 1_454
O10 P1 1.539850 1_555
O10 W3 2.110682 1_555
O11 P0 1.526849 1_555
O11 W4 2.114990 1_555
O12 W5 1.828186 1_554
O12 W1 2.059457 1_555
O13 W6 1.838635 1_556
O13 W2 2.001206 1_555
O14 W3 1.859039 1_655
O14 W1 2.032873 1_555
O15 W2 1.931346 1_555
O15 W4 1.957861 1_545
O16 W2 1.931346 1_555
O16 W4 1.957861 1_455
O17 W3 1.859039 1_565
O17 W1 2.032873 1_555
O18 P0 1.585707 1_555
O18 W5 2.058908 1_555
O19 P1 1.557201 1_555
O19 W6 2.075575 1_555
O20 P1 1.542143 1_655
O20 W5 2.070191 1_554
O21 P0 1.525361 1_545
O21 W6 2.085982 1_556
O22 P0 1.525361 1_455
O22 W6 2.085982 1_556
O23 P1 1.542143 1_565
O23 W5 2.070191 1_554
O24 W1 1.876504 1_555
O24 W2 1.954369 1_555
