# generated using pymatgen
data_Nb4CoS8
_symmetry_space_group_name_H-M   'P 1'
_cell_length_a   6.71556378
_cell_length_b   6.71556389
_cell_length_c   12.00529236
_cell_angle_alpha   90.00000634
_cell_angle_beta   90.00004694
_cell_angle_gamma   119.99998776
_symmetry_Int_Tables_number   1
_chemical_formula_structural   Nb4CoS8
_chemical_formula_sum   'Nb8 Co2 S16'
_cell_volume   468.88721335
_cell_formula_units_Z   2
loop_
 _symmetry_equiv_pos_site_id
 _symmetry_equiv_pos_as_xyz
  1  'x, y, z'
loop_
 _atom_site_type_symbol
 _atom_site_label
 _atom_site_symmetry_multiplicity
 _atom_site_fract_x
 _atom_site_fract_y
 _atom_site_fract_z
 _atom_site_occupancy
  Nb  Nb0  1  0.01267063  0.50633480  0.24998215  1
  Nb  Nb1  1  0.98732606  0.49366278  0.75001403  1
  Nb  Nb2  1  0.49366532  0.50633550  0.24998211  1
  Nb  Nb3  1  0.50633700  0.49366426  0.75001432  1
  Nb  Nb4  1  0.49366452  0.98732964  0.24998208  1
  Nb  Nb5  1  0.50633628  0.01267312  0.75001450  1
  Nb  Nb6  1  0.00000030  0.00000007  0.24998316  1
  Nb  Nb7  1  -0.00000002  0.00000012  0.75001820  1
  Co  Co0  1  0.00000040  0.00000029  0.99999820  1
  Co  Co1  1  0.00000025  -0.00000006  0.50000519  1
  S  S0  1  0.33339579  0.16669769  0.12048320  1
  S  S1  1  0.66659643  0.83329832  0.87955584  1
  S  S2  1  0.83330238  0.16669789  0.12048317  1
  S  S3  1  0.66659074  0.83329555  0.62046211  1
  S  S4  1  0.16670187  0.83329777  0.87955563  1
  S  S5  1  0.33340498  0.16670229  0.37950168  1
  S  S6  1  0.83330216  0.66660421  0.12048334  1
  S  S7  1  0.16670482  0.83329525  0.62046190  1
  S  S8  1  0.16670185  0.33340449  0.87955544  1
  S  S9  1  0.83329792  0.16670253  0.37950176  1
  S  S10  1  0.16670467  0.33340974  0.62046195  1
  S  S11  1  0.83329769  0.66659512  0.37950164  1
  S  S12  1  0.33333334  0.66666655  0.11659316  1
  S  S13  1  0.66666653  0.33333353  0.88344198  1
  S  S14  1  0.66666561  0.33333283  0.61657473  1
  S  S15  1  0.33333347  0.66666672  0.38338853  1
loop_
_geom_bond_atom_site_label_1
_geom_bond_atom_site_label_2
_geom_bond_distance
_geom_bond_site_symmetry_2
Nb0 S12 2.458120 1_555
Nb0 S15 2.458254 1_555
Nb0 S2 2.514525 1_455
Nb0 S6 2.514528 1_455
Nb0 S9 2.514660 1_455
Nb0 S11 2.514663 1_455
Nb1 S13 2.458411 1_555
Nb1 S14 2.458501 1_555
Nb1 S8 2.514829 1_655
Nb1 S4 2.514834 1_655
Nb1 S10 2.514899 1_655
Nb1 S7 2.514903 1_655
Nb2 S12 2.458119 1_555
Nb2 S15 2.458257 1_555
Nb2 S6 2.514525 1_555
Nb2 S0 2.514529 1_555
Nb2 S11 2.514658 1_555
Nb2 S5 2.514664 1_555
Nb3 S13 2.458410 1_555
Nb3 S14 2.458503 1_555
Nb3 S1 2.514829 1_555
Nb3 S8 2.514833 1_555
Nb3 S3 2.514898 1_555
Nb3 S10 2.514902 1_555
Nb4 S12 2.458119 1_555
Nb4 S15 2.458257 1_555
Nb4 S0 2.514524 1_565
Nb4 S2 2.514531 1_565
Nb4 S5 2.514659 1_565
Nb4 S9 2.514664 1_565
Nb5 S13 2.458409 1_555
Nb5 S14 2.458503 1_555
Nb5 S4 2.514830 1_545
Nb5 S1 2.514832 1_545
Nb5 S7 2.514900 1_545
Nb5 S3 2.514902 1_545
Nb6 S6 2.485293 1_445
Nb6 S2 2.485293 1_455
Nb6 S0 2.485294 1_555
Nb6 S5 2.485473 1_555
Nb6 S9 2.485476 1_455
Nb6 S11 2.485476 1_445
Nb7 S8 2.485612 1_555
Nb7 S4 2.485613 1_545
Nb7 S1 2.485614 1_445
Nb7 S3 2.485776 1_445
Nb7 S10 2.485781 1_555
Nb7 S7 2.485781 1_545
Co0 S1 2.418797 1_445
Co0 S4 2.418800 1_545
Co0 S8 2.418803 1_555
Co0 S0 2.419063 1_556
Co0 S2 2.419066 1_456
Co0 S6 2.419069 1_446
Co1 S7 2.418925 1_545
Co1 S10 2.418928 1_555
Co1 S3 2.418930 1_445
Co1 S9 2.419241 1_455
Co1 S11 2.419241 1_445
Co1 S5 2.419242 1_555
