# generated using pymatgen
data_Eu2O3
_symmetry_space_group_name_H-M   'P 1'
_cell_length_a   9.43467851
_cell_length_b   9.40974275
_cell_length_c   9.42815678
_cell_angle_alpha   109.38926236
_cell_angle_beta   109.52512848
_cell_angle_gamma   109.41905856
_symmetry_Int_Tables_number   1
_chemical_formula_structural   Eu2O3
_chemical_formula_sum   'Eu16 O24'
_cell_volume   644.96839359
_cell_formula_units_Z   8
loop_
 _symmetry_equiv_pos_site_id
 _symmetry_equiv_pos_as_xyz
  1  'x, y, z'
loop_
 _atom_site_type_symbol
 _atom_site_label
 _atom_site_symmetry_multiplicity
 _atom_site_fract_x
 _atom_site_fract_y
 _atom_site_fract_z
 _atom_site_occupancy
  Eu  Eu0  1  0.50000000  0.00000000  0.50000000  1
  Eu  Eu1  1  0.50000000  0.50000000  -0.00000000  1
  Eu  Eu2  1  0.00000000  0.50000000  0.50000000  1
  Eu  Eu3  1  0.00000000  0.00000000  -0.00000000  1
  Eu  Eu4  1  0.78055819  0.24983355  0.02989892  1
  Eu  Eu5  1  0.71890033  0.74918886  0.46975850  1
  Eu  Eu6  1  0.24950821  0.03045343  0.77975678  1
  Eu  Eu7  1  0.75033845  0.46949527  0.71955387  1
  Eu  Eu8  1  0.02991897  0.77999018  0.25031048  1
  Eu  Eu9  1  0.47074403  0.72149734  0.75088141  1
  Eu  Eu10  1  0.21944181  0.75016645  0.97010108  1
  Eu  Eu11  1  0.28109967  0.25081114  0.53024150  1
  Eu  Eu12  1  0.75049179  0.96954657  0.22024322  1
  Eu  Eu13  1  0.24966155  0.53050473  0.28044613  1
  Eu  Eu14  1  0.97008103  0.22000982  0.74968952  1
  Eu  Eu15  1  0.52925597  0.27850266  0.24911859  1
  O  O0  1  0.49400535  0.23210343  0.46187531  1
  O  O1  1  0.23100303  0.26467013  0.76332170  1
  O  O2  1  0.00599476  0.46718956  0.73672689  1
  O  O3  1  0.26774580  0.03063059  0.03582579  1
  O  O4  1  0.23032223  0.46221517  0.49173812  1
  O  O5  1  0.26730435  0.75980313  0.23008147  1
  O  O6  1  0.47006055  0.73933411  0.00770894  1
  O  O7  1  0.03148546  0.03832027  0.27019118  1
  O  O8  1  0.46099986  0.49417729  0.23130418  1
  O  O9  1  0.76305382  0.22659929  0.26790607  1
  O  O10  1  0.73694142  0.00681630  0.46657991  1
  O  O11  1  0.04021499  0.27085929  0.03264927  1
  O  O12  1  0.50599465  0.76789657  0.53812469  1
  O  O13  1  0.76899697  0.73532987  0.23667830  1
  O  O14  1  0.99400524  0.53281044  0.26327311  1
  O  O15  1  0.73225420  0.96936941  0.96417421  1
  O  O16  1  0.76967777  0.53778483  0.50826188  1
  O  O17  1  0.73269565  0.24019687  0.76991853  1
  O  O18  1  0.52993945  0.26066589  0.99229106  1
  O  O19  1  0.96851454  0.96167973  0.72980882  1
  O  O20  1  0.53900014  0.50582271  0.76869582  1
  O  O21  1  0.23694618  0.77340071  0.73209393  1
  O  O22  1  0.26305858  0.99318370  0.53342009  1
  O  O23  1  0.95978501  0.72914071  0.96735073  1
loop_
_geom_bond_atom_site_label_1
_geom_bond_atom_site_label_2
_geom_bond_distance
_geom_bond_site_symmetry_2
Eu0 O22 2.342992 1_545
Eu0 O10 2.342992 1_555
Eu0 O12 2.343543 1_545
Eu0 O0 2.343543 1_555
Eu0 O5 2.356138 1_545
Eu0 O17 2.356138 1_555
Eu1 O18 2.341996 1_554
Eu1 O6 2.341996 1_555
Eu1 O20 2.344453 1_554
Eu1 O8 2.344453 1_555
Eu1 O13 2.349572 1_555
Eu1 O1 2.349572 1_554
Eu2 O4 2.337302 1_555
Eu2 O16 2.337302 1_455
Eu2 O14 2.337657 1_455
Eu2 O2 2.337657 1_555
Eu2 O21 2.360582 1_555
Eu2 O9 2.360582 1_455
Eu3 O3 2.336493 1_555
Eu3 O15 2.336493 1_444
Eu3 O23 2.343642 1_444
Eu3 O11 2.343642 1_555
Eu3 O7 2.349595 1_555
Eu3 O19 2.349595 1_444
Eu4 O17 2.303374 1_554
Eu4 O18 2.313191 1_554
Eu4 O15 2.341401 1_544
Eu4 O14 2.359949 1_555
Eu4 O9 2.379058 1_555
Eu4 O11 2.381821 1_655
Eu5 O19 2.304269 1_555
Eu5 O16 2.305504 1_555
Eu5 O12 2.346607 1_555
Eu5 O8 2.368952 1_555
Eu5 O13 2.369485 1_555
Eu5 O10 2.384098 1_565
Eu6 O21 2.262445 1_545
Eu6 O22 2.284913 1_545
Eu6 O1 2.318680 1_555
Eu6 O18 2.339009 1_555
Eu6 O19 2.343320 1_445
Eu6 O3 2.361718 1_556
Eu7 O23 2.290420 1_555
Eu7 O20 2.296249 1_555
Eu7 O17 2.324409 1_555
Eu7 O16 2.330148 1_555
Eu7 O0 2.370212 1_555
Eu7 O2 2.370798 1_655
Eu8 O14 2.287339 1_455
Eu8 O13 2.306059 1_455
Eu8 O23 2.354960 1_454
Eu8 O22 2.360776 1_555
Eu8 O7 2.369804 1_565
Eu8 O5 2.373368 1_555
Eu9 O12 2.292543 1_555
Eu9 O15 2.305242 1_555
Eu9 O20 2.363176 1_555
Eu9 O6 2.373342 1_556
Eu9 O21 2.376577 1_555
Eu9 O4 2.392658 1_555
Eu10 O5 2.303374 1_556
Eu10 O6 2.313191 1_556
Eu10 O3 2.341401 1_566
Eu10 O2 2.359949 1_555
Eu10 O21 2.379058 1_555
Eu10 O23 2.381821 1_455
Eu11 O7 2.304269 1_555
Eu11 O4 2.305504 1_555
Eu11 O0 2.346607 1_555
Eu11 O20 2.368952 1_555
Eu11 O1 2.369485 1_555
Eu11 O22 2.384098 1_545
Eu12 O9 2.262445 1_565
Eu12 O10 2.284913 1_565
Eu12 O13 2.318680 1_555
Eu12 O6 2.339009 1_555
Eu12 O7 2.343320 1_665
Eu12 O15 2.361718 1_554
Eu13 O11 2.290420 1_555
Eu13 O8 2.296249 1_555
Eu13 O5 2.324409 1_555
Eu13 O4 2.330148 1_555
Eu13 O12 2.370212 1_555
Eu13 O14 2.370798 1_455
Eu14 O2 2.287339 1_655
Eu14 O1 2.306059 1_655
Eu14 O11 2.354960 1_656
Eu14 O10 2.360776 1_555
Eu14 O19 2.369804 1_545
Eu14 O17 2.373368 1_555
Eu15 O0 2.292543 1_555
Eu15 O3 2.305242 1_555
Eu15 O8 2.363176 1_555
Eu15 O18 2.373342 1_554
Eu15 O9 2.376577 1_555
Eu15 O16 2.392658 1_555
