# generated using pymatgen
data_AgBi(IO3)4
_symmetry_space_group_name_H-M   'P 1'
_cell_length_a   16.32565408
_cell_length_b   16.32565408
_cell_length_c   12.88148210
_cell_angle_alpha   89.39971611
_cell_angle_beta   89.39971611
_cell_angle_gamma   20.06705739
_symmetry_Int_Tables_number   1
_chemical_formula_structural   AgBi(IO3)4
_chemical_formula_sum   'Ag4 Bi4 I16 O48'
_cell_volume   1177.95333104
_cell_formula_units_Z   4
loop_
 _symmetry_equiv_pos_site_id
 _symmetry_equiv_pos_as_xyz
  1  'x, y, z'
loop_
 _atom_site_type_symbol
 _atom_site_label
 _atom_site_symmetry_multiplicity
 _atom_site_fract_x
 _atom_site_fract_y
 _atom_site_fract_z
 _atom_site_occupancy
  Ag  Ag0  1  0.57316900  0.15301500  0.28351900  1
  Ag  Ag1  1  0.15301500  0.57316900  0.78351900  1
  Ag  Ag2  1  0.70116800  0.17061900  0.87074300  1
  Ag  Ag3  1  0.17061900  0.70116800  0.37074300  1
  Bi  Bi0  1  0.76495300  0.19523600  0.16467100  1
  Bi  Bi1  1  0.19523600  0.76495300  0.66467100  1
  Bi  Bi2  1  0.95655500  0.58940200  0.16574800  1
  Bi  Bi3  1  0.58940200  0.95655500  0.66574800  1
  I  I0  1  0.31744000  0.79389100  0.25790400  1
  I  I1  1  0.79389100  0.31744000  0.75790400  1
  I  I2  1  0.91037400  0.27917700  0.02641000  1
  I  I3  1  0.27917700  0.91037400  0.52641000  1
  I  I4  1  0.29919100  0.69721600  0.95658600  1
  I  I5  1  0.69721600  0.29919100  0.45658600  1
  I  I6  1  0.14934500  0.63789700  0.12469700  1
  I  I7  1  0.63789700  0.14934500  0.62469700  1
  I  I8  1  0.63521500  0.03543400  0.96305200  1
  I  I9  1  0.03543400  0.63521500  0.46305200  1
  I  I10  1  0.42865500  0.96280900  0.06760500  1
  I  I11  1  0.96280900  0.42865500  0.56760500  1
  I  I12  1  0.83422300  0.47927200  0.29813400  1
  I  I13  1  0.47927200  0.83422300  0.79813400  1
  I  I14  1  0.45325400  0.05565600  0.37124200  1
  I  I15  1  0.05565600  0.45325400  0.87124200  1
  O  O0  1  0.07560200  0.94598200  0.28815800  1
  O  O1  1  0.94598200  0.07560200  0.78815800  1
  O  O2  1  0.50343800  0.60009600  0.37312300  1
  O  O3  1  0.60009600  0.50343800  0.87312300  1
  O  O4  1  0.48365200  0.57604000  0.16203300  1
  O  O5  1  0.57604000  0.48365200  0.66203300  1
  O  O6  1  0.98809200  0.10614700  0.08735100  1
  O  O7  1  0.10614700  0.98809200  0.58735100  1
  O  O8  1  0.10927600  0.15453400  0.10600100  1
  O  O9  1  0.15453400  0.10927600  0.60600100  1
  O  O10  1  0.08489800  0.10624700  0.90705500  1
  O  O11  1  0.10624700  0.08489800  0.40705500  1
  O  O12  1  0.06630700  0.85969000  0.03192400  1
  O  O13  1  0.85969000  0.06630700  0.53192400  1
  O  O14  1  0.56418400  0.39039000  0.00109100  1
  O  O15  1  0.39039000  0.56418400  0.50109100  1
  O  O16  1  0.29253500  0.64028500  0.83970100  1
  O  O17  1  0.64028500  0.29253500  0.33970100  1
  O  O18  1  0.94036200  0.89168000  0.21079500  1
  O  O19  1  0.89168000  0.94036200  0.71079500  1
  O  O20  1  0.42427300  0.41953800  0.18468700  1
  O  O21  1  0.41953800  0.42427300  0.68468700  1
  O  O22  1  0.17321600  0.51803100  0.20043300  1
  O  O23  1  0.51803100  0.17321600  0.70043300  1
  O  O24  1  0.73124100  0.93084000  0.09961500  1
  O  O25  1  0.93084000  0.73124100  0.59961500  1
  O  O26  1  0.42327200  0.31934100  0.97248000  1
  O  O27  1  0.31934100  0.42327200  0.47248000  1
  O  O28  1  0.88485800  0.86468800  0.91714300  1
  O  O29  1  0.86468800  0.88485800  0.41714300  1
  O  O30  1  0.67622800  0.80356500  0.03970900  1
  O  O31  1  0.80356500  0.67622800  0.53970900  1
  O  O32  1  0.25960300  0.14158700  0.94754200  1
  O  O33  1  0.14158700  0.25960300  0.44754200  1
  O  O34  1  0.25966100  0.18346900  0.16054000  1
  O  O35  1  0.18346900  0.25966100  0.66054000  1
  O  O36  1  0.75614600  0.65431600  0.24205300  1
  O  O37  1  0.65431600  0.75614600  0.74205300  1
  O  O38  1  0.63579500  0.60541100  0.21549800  1
  O  O39  1  0.60541100  0.63579500  0.71549800  1
  O  O40  1  0.65912700  0.64888500  0.41732500  1
  O  O41  1  0.64888500  0.65912700  0.91732500  1
  O  O42  1  0.69787700  0.88177800  0.30081700  1
  O  O43  1  0.88177800  0.69787700  0.80081700  1
  O  O44  1  0.20754900  0.34557600  0.31641900  1
  O  O45  1  0.34557600  0.20754900  0.81641900  1
  O  O46  1  0.46269500  0.10906600  0.48930700  1
  O  O47  1  0.10906600  0.46269500  0.98930700  1
loop_
_geom_bond_atom_site_label_1
_geom_bond_atom_site_label_2
_geom_bond_distance
_geom_bond_site_symmetry_2
Ag0 O29 2.377340 1_545
Ag0 O22 2.491570 1_555
Ag0 O20 2.557630 1_555
Ag0 O42 2.618326 1_545
Ag0 O18 2.633570 1_545
Ag0 O24 2.809913 1_545
Ag0 O27 2.868861 1_555
Ag1 O28 2.377340 1_455
Ag1 O23 2.491570 1_555
Ag1 O21 2.557630 1_555
Ag1 O43 2.618326 1_455
Ag1 O19 2.633570 1_455
Ag1 O25 2.809913 1_455
Ag1 O26 2.868861 1_555
Ag2 O14 2.380707 1_556
Ag2 O19 2.472592 1_545
Ag2 O28 2.476589 1_545
Ag2 O16 2.712026 1_555
Ag2 O26 2.728417 1_555
Ag2 O1 2.794744 1_555
Ag3 O15 2.380707 1_555
Ag3 O18 2.472592 1_455
Ag3 O29 2.476589 1_455
Ag3 O17 2.712026 1_555
Ag3 O27 2.728417 1_555
Ag3 O0 2.794744 1_555
Bi0 O17 2.377920 1_555
Bi0 O14 2.391750 1_555
Bi0 O0 2.464562 1_645
Bi0 O4 2.470900 1_555
Bi0 O20 2.477674 1_555
Bi0 O6 2.525663 1_555
Bi0 O18 2.535128 1_545
Bi0 O12 2.554973 1_645
Bi1 O16 2.377920 1_555
Bi1 O15 2.391750 1_555
Bi1 O1 2.464562 1_465
Bi1 O5 2.470900 1_555
Bi1 O21 2.477674 1_555
Bi1 O7 2.525663 1_555
Bi1 O19 2.535128 1_455
Bi1 O13 2.554973 1_465
Bi2 O44 2.401220 1_655
Bi2 O30 2.404640 1_555
Bi2 O42 2.407782 1_555
Bi2 O47 2.438948 1_654
Bi2 O36 2.496940 1_555
Bi2 O22 2.519604 1_655
Bi2 O24 2.602975 1_555
Bi2 O34 2.608956 1_655
Bi3 O45 2.401220 1_565
Bi3 O31 2.404640 1_555
Bi3 O43 2.407782 1_555
Bi3 O46 2.438948 1_565
Bi3 O37 2.496940 1_555
Bi3 O23 2.519604 1_565
Bi3 O25 2.602975 1_555
Bi3 O35 2.608956 1_565
I0 O2 1.838894 1_555
I0 O4 1.851871 1_555
I0 O0 1.864655 1_555
I0 O38 2.590663 1_555
I1 O3 1.838894 1_555
I1 O5 1.851871 1_555
I1 O1 1.864655 1_555
I1 O39 2.590663 1_555
I2 O10 1.827653 1_654
I2 O8 1.830082 1_655
I2 O6 1.856624 1_555
I3 O11 1.827653 1_565
I3 O9 1.830082 1_565
I3 O7 1.856624 1_555
I4 O16 1.834428 1_555
I4 O14 1.848792 1_556
I4 O12 1.861239 1_556
I4 O3 2.462140 1_555
I5 O17 1.834428 1_555
I5 O15 1.848792 1_555
I5 O13 1.861239 1_555
I5 O2 2.462140 1_555
I6 O20 1.846003 1_555
I6 O22 1.862363 1_555
I6 O18 1.870364 1_455
I6 O12 2.664368 1_555
I7 O21 1.846003 1_555
I7 O23 1.862363 1_555
I7 O19 1.870364 1_545
I7 O13 2.664368 1_555
I8 O26 1.829003 1_555
I8 O28 1.836361 1_545
I8 O24 1.853102 1_546
I9 O27 1.829003 1_555
I9 O29 1.836361 1_455
I9 O25 1.853102 1_455
I10 O34 1.836438 1_565
I10 O32 1.841206 1_564
I10 O30 1.863739 1_555
I10 O8 2.558863 1_565
I11 O35 1.836438 1_655
I11 O33 1.841206 1_655
I11 O31 1.863739 1_555
I11 O9 2.558863 1_655
I12 O40 1.823053 1_555
I12 O38 1.833628 1_555
I12 O36 1.856402 1_555
I13 O41 1.823053 1_555
I13 O39 1.833628 1_555
I13 O37 1.856402 1_555
I14 O44 1.820524 1_555
I14 O46 1.839081 1_555
I14 O42 1.873873 1_545
I14 O33 2.465650 1_555
I15 O45 1.820524 1_555
I15 O47 1.839081 1_555
I15 O43 1.873873 1_455
I15 O32 2.465650 1_555
