# generated using pymatgen
data_TeMo
_symmetry_space_group_name_H-M   'P 1'
_cell_length_a   4.38450600
_cell_length_b   4.38450636
_cell_length_c   5.20926400
_cell_angle_alpha   90.00000000
_cell_angle_beta   90.00000000
_cell_angle_gamma   119.99999725
_symmetry_Int_Tables_number   1
_chemical_formula_structural   TeMo
_chemical_formula_sum   'Te2 Mo2'
_cell_volume   86.72581402
_cell_formula_units_Z   2
loop_
 _symmetry_equiv_pos_site_id
 _symmetry_equiv_pos_as_xyz
  1  'x, y, z'
loop_
 _atom_site_type_symbol
 _atom_site_label
 _atom_site_symmetry_multiplicity
 _atom_site_fract_x
 _atom_site_fract_y
 _atom_site_fract_z
 _atom_site_occupancy
  Te  Te0  1  0.33333300  0.66666700  0.25000000  1
  Te  Te1  1  0.66666700  0.33333300  0.75000000  1
  Mo  Mo0  1  0.00000000  0.00000000  0.00000000  1
  Mo  Mo1  1  0.00000000  0.00000000  0.50000000  1
loop_
_geom_bond_atom_site_label_1
_geom_bond_atom_site_label_2
_geom_bond_distance
_geom_bond_site_symmetry_2
Mo0 Mo1 2.604632 1_555
Mo0 Mo1 2.604632 1_554
Mo0 Te1 2.846749 1_454
Mo0 Te0 2.846749 1_545
Mo0 Te0 2.846752 1_445
Mo0 Te1 2.846752 1_554
Mo0 Te0 2.846752 1_555
Mo0 Te1 2.846752 1_444
Mo1 Te0 2.846749 1_545
Mo1 Te1 2.846749 1_455
Mo1 Te0 2.846752 1_445
Mo1 Te1 2.846752 1_555
Mo1 Te0 2.846752 1_555
Mo1 Te1 2.846752 1_445
