# generated using pymatgen
data_GaBi3Sb2O11
_symmetry_space_group_name_H-M   'P 1'
_cell_length_a   9.62048700
_cell_length_b   9.54294000
_cell_length_c   13.55590429
_cell_angle_alpha   45.32881617
_cell_angle_beta   90.00000000
_cell_angle_gamma   90.00000000
_symmetry_Int_Tables_number   1
_chemical_formula_structural   GaBi3Sb2O11
_chemical_formula_sum   'Ga4 Bi12 Sb8 O44'
_cell_volume   885.05626495
_cell_formula_units_Z   4
loop_
 _symmetry_equiv_pos_site_id
 _symmetry_equiv_pos_as_xyz
  1  'x, y, z'
loop_
 _atom_site_type_symbol
 _atom_site_label
 _atom_site_symmetry_multiplicity
 _atom_site_fract_x
 _atom_site_fract_y
 _atom_site_fract_z
 _atom_site_occupancy
  Ga  Ga0  1  0.24890400  0.83956400  0.25308300  1
  Ga  Ga1  1  0.75187400  0.65981100  0.08868400  1
  Ga  Ga2  1  0.75109600  0.83956400  0.75308300  1
  Ga  Ga3  1  0.24812600  0.65981100  0.58868400  1
  Bi  Bi0  1  0.99967800  0.98516800  0.51039800  1
  Bi  Bi1  1  0.51919200  0.51804500  0.99482600  1
  Bi  Bi2  1  0.48080800  0.51804500  0.49482600  1
  Bi  Bi3  1  0.00032200  0.98516800  0.01039800  1
  Bi  Bi4  1  0.38034700  0.00765900  0.87615800  1
  Bi  Bi5  1  0.12361600  0.26604500  0.62411000  1
  Bi  Bi6  1  0.11504100  0.74456700  0.87328800  1
  Bi  Bi7  1  0.38176600  0.98463700  0.62730300  1
  Bi  Bi8  1  0.61823400  0.98463700  0.12730300  1
  Bi  Bi9  1  0.88495900  0.74456700  0.37328800  1
  Bi  Bi10  1  0.87638400  0.26604500  0.12411000  1
  Bi  Bi11  1  0.61965300  0.00765900  0.37615800  1
  Sb  Sb0  1  0.25015700  0.14709800  0.25319500  1
  Sb  Sb1  1  0.74934400  0.34275000  0.40500100  1
  Sb  Sb2  1  0.90955400  0.50331000  0.74828000  1
  Sb  Sb3  1  0.59015800  0.50498600  0.74785400  1
  Sb  Sb4  1  0.74984300  0.14709800  0.75319500  1
  Sb  Sb5  1  0.25065600  0.34275000  0.90500100  1
  Sb  Sb6  1  0.09044600  0.50331000  0.24828000  1
  Sb  Sb7  1  0.40984200  0.50498600  0.24785400  1
  O  O0  1  0.25124200  0.35860500  0.74930300  1
  O  O1  1  0.24821900  0.63739200  0.75095900  1
  O  O2  1  0.25026900  0.64024200  0.11099100  1
  O  O3  1  0.24970000  0.36582300  0.38552800  1
  O  O4  1  0.89159800  0.99779400  0.75062600  1
  O  O5  1  0.60773000  0.99639900  0.75304400  1
  O  O6  1  0.75178100  0.63739200  0.25095900  1
  O  O7  1  0.74875800  0.35860500  0.24930300  1
  O  O8  1  0.75030000  0.36582300  0.88552800  1
  O  O9  1  0.74973100  0.64024200  0.61099100  1
  O  O10  1  0.10840200  0.99779400  0.25062600  1
  O  O11  1  0.39227000  0.99639900  0.25304400  1
  O  O12  1  0.14838700  0.00247400  0.64597500  1
  O  O13  1  0.35116300  0.79511300  0.85337600  1
  O  O14  1  0.35220000  0.20493800  0.64638900  1
  O  O15  1  0.14816900  0.99911400  0.85315800  1
  O  O16  1  0.85183100  0.99911400  0.35315800  1
  O  O17  1  0.64780000  0.20493800  0.14638900  1
  O  O18  1  0.64883700  0.79511300  0.35337600  1
  O  O19  1  0.85161300  0.00247400  0.14597500  1
  O  O20  1  0.24417000  0.04936400  0.03789100  1
  O  O21  1  0.25759300  0.62086700  0.46370000  1
  O  O22  1  0.24999200  0.37124200  0.03956200  1
  O  O23  1  0.24346900  0.95127600  0.46315700  1
  O  O24  1  0.96444400  0.66884300  0.08499300  1
  O  O25  1  0.53645000  0.66039600  0.08540200  1
  O  O26  1  0.96415200  0.33454100  0.41306300  1
  O  O27  1  0.53597700  0.33577000  0.41356600  1
  O  O28  1  0.91276800  0.28668500  0.75170100  1
  O  O29  1  0.91554800  0.71991500  0.74302000  1
  O  O30  1  0.58825900  0.29139200  0.74724700  1
  O  O31  1  0.58418700  0.70817300  0.75517200  1
  O  O32  1  0.75653100  0.95127600  0.96315700  1
  O  O33  1  0.75000800  0.37124200  0.53956200  1
  O  O34  1  0.74240700  0.62086700  0.96370000  1
  O  O35  1  0.75583000  0.04936400  0.53789100  1
  O  O36  1  0.03584800  0.33454100  0.91306300  1
  O  O37  1  0.46402300  0.33577000  0.91356600  1
  O  O38  1  0.03555600  0.66884300  0.58499300  1
  O  O39  1  0.46355000  0.66039600  0.58540200  1
  O  O40  1  0.08445200  0.71991500  0.24302000  1
  O  O41  1  0.08723200  0.28668500  0.25170100  1
  O  O42  1  0.41581300  0.70817300  0.25517200  1
  O  O43  1  0.41174100  0.29139200  0.24724700  1
loop_
_geom_bond_atom_site_label_1
_geom_bond_atom_site_label_2
_geom_bond_distance
_geom_bond_site_symmetry_2
Ga0 O10 2.009358 1_555
Ga0 O40 2.011068 1_555
Ga0 O42 2.025204 1_555
Ga0 O21 2.033701 1_555
Ga0 O11 2.035002 1_555
Ga0 O20 2.075593 1_565
Ga1 O34 1.975428 1_554
Ga1 O32 1.994746 1_554
Ga1 O24 2.045973 1_555
Ga1 O7 2.050336 1_555
Ga1 O6 2.055015 1_555
Ga1 O25 2.072885 1_555
Ga2 O4 2.009358 1_555
Ga2 O29 2.011068 1_555
Ga2 O31 2.025204 1_555
Ga2 O34 2.033701 1_555
Ga2 O5 2.035002 1_555
Ga2 O35 2.075593 1_565
Ga3 O21 1.975428 1_555
Ga3 O23 1.994746 1_555
Ga3 O38 2.045973 1_555
Ga3 O0 2.050336 1_555
Ga3 O1 2.055015 1_555
Ga3 O39 2.072885 1_555
Bi0 O29 2.404771 1_555
Bi0 O12 2.424579 1_665
Bi0 O38 2.441724 1_655
Bi0 O16 2.487041 1_555
Bi0 O23 2.511332 1_655
Bi0 O35 2.517668 1_565
Bi0 O26 2.605402 1_565
Bi0 O41 2.664357 1_665
Bi1 O34 2.273803 1_555
Bi1 O25 2.392865 1_556
Bi1 O31 2.439094 1_555
Bi1 O17 2.459300 1_556
Bi1 O13 2.480359 1_555
Bi1 O43 2.655003 1_556
Bi1 O37 2.686061 1_555
Bi1 O22 2.800545 1_556
Bi2 O21 2.273803 1_555
Bi2 O39 2.392865 1_555
Bi2 O42 2.439094 1_555
Bi2 O14 2.459300 1_555
Bi2 O18 2.480359 1_555
Bi2 O30 2.655003 1_555
Bi2 O27 2.686061 1_555
Bi2 O33 2.800545 1_555
Bi3 O40 2.404771 1_555
Bi3 O19 2.424579 1_465
Bi3 O24 2.441724 1_455
Bi3 O15 2.487041 1_554
Bi3 O32 2.511332 1_454
Bi3 O20 2.517668 1_565
Bi3 O36 2.605402 1_564
Bi3 O28 2.664357 1_464
Bi4 O14 2.252577 1_555
Bi4 O15 2.264701 1_545
Bi4 O13 2.273551 1_545
Bi4 O30 2.780821 1_555
Bi4 O20 2.812188 1_556
Bi5 O14 2.240452 1_555
Bi5 O15 2.250396 1_545
Bi5 O12 2.328698 1_555
Bi5 O21 2.739017 1_555
Bi5 O28 2.761162 1_455
Bi6 O12 2.234266 1_565
Bi6 O15 2.268185 1_555
Bi6 O13 2.298404 1_555
Bi6 O29 2.727871 1_455
Bi6 O24 2.818039 1_456
Bi7 O13 2.226254 1_555
Bi7 O12 2.279174 1_565
Bi7 O14 2.309198 1_565
Bi7 O31 2.706893 1_555
Bi7 O23 2.796228 1_555
Bi8 O18 2.226254 1_555
Bi8 O19 2.279174 1_565
Bi8 O17 2.309198 1_565
Bi8 O42 2.706893 1_555
Bi8 O32 2.796228 1_554
Bi9 O19 2.234266 1_565
Bi9 O16 2.268185 1_555
Bi9 O18 2.298404 1_555
Bi9 O40 2.727871 1_655
Bi9 O38 2.818039 1_655
Bi10 O17 2.240452 1_555
Bi10 O16 2.250396 1_545
Bi10 O19 2.328698 1_555
Bi10 O34 2.739017 1_554
Bi10 O41 2.761162 1_655
Bi11 O17 2.252577 1_555
Bi11 O16 2.264701 1_545
Bi11 O18 2.273551 1_545
Bi11 O43 2.780821 1_555
Bi11 O35 2.812188 1_555
O0 Sb5 2.007149 1_555
O1 Sb5 2.002824 1_555
O2 Sb7 2.024292 1_555
O2 Sb6 2.028748 1_555
O3 Sb6 2.024348 1_555
O3 Sb7 2.033558 1_555
O4 Sb4 1.990189 1_565
O5 Sb4 1.985330 1_565
O6 Sb1 2.002824 1_555
O7 Sb1 2.007149 1_555
O8 Sb2 2.024348 1_555
O8 Sb3 2.033558 1_555
O9 Sb3 2.024292 1_555
O9 Sb2 2.028748 1_555
O10 Sb0 1.990189 1_565
O11 Sb0 1.985330 1_565
O20 Sb5 1.999018 1_554
O22 Sb5 2.024515 1_554
O22 Sb0 2.062066 1_555
O23 Sb0 2.029440 1_565
O24 Sb6 1.986932 1_655
O25 Sb7 1.985064 1_555
O26 Sb6 2.000346 1_655
O26 Sb1 2.068019 1_555
O27 Sb7 2.006454 1_555
O27 Sb1 2.054409 1_555
O28 Sb2 2.035138 1_555
O28 Sb4 2.047849 1_555
O29 Sb2 2.018380 1_555
O30 Sb4 2.040345 1_555
O30 Sb3 2.044190 1_555
O31 Sb3 2.010803 1_555
O32 Sb4 2.029440 1_565
O33 Sb1 2.024515 1_555
O33 Sb4 2.062066 1_555
O35 Sb1 1.999018 1_555
O36 Sb2 2.000346 1_455
O36 Sb5 2.068019 1_555
O37 Sb3 2.006454 1_555
O37 Sb5 2.054409 1_555
O38 Sb2 1.986932 1_455
O39 Sb3 1.985064 1_555
O40 Sb6 2.018380 1_555
O41 Sb6 2.035138 1_555
O41 Sb0 2.047849 1_555
O42 Sb7 2.010803 1_555
O43 Sb0 2.040345 1_555
O43 Sb7 2.044190 1_555
