# generated using pymatgen
data_SrLaCoRuO6
_symmetry_space_group_name_H-M   'P 1'
_cell_length_a   5.65966300
_cell_length_b   5.65065800
_cell_length_c   9.73637965
_cell_angle_alpha   54.65843709
_cell_angle_beta   90.00000000
_cell_angle_gamma   90.00000000
_symmetry_Int_Tables_number   1
_chemical_formula_structural   SrLaCoRuO6
_chemical_formula_sum   'Sr2 La2 Co2 Ru2 O12'
_cell_volume   253.99621378
_cell_formula_units_Z   2
loop_
 _symmetry_equiv_pos_site_id
 _symmetry_equiv_pos_as_xyz
  1  'x, y, z'
loop_
 _atom_site_type_symbol
 _atom_site_label
 _atom_site_symmetry_multiplicity
 _atom_site_fract_x
 _atom_site_fract_y
 _atom_site_fract_z
 _atom_site_occupancy
  Sr  Sr0  1  0.78055700  0.75593200  0.74941200  1
  Sr  Sr1  1  0.21944300  0.75593200  0.24941200  1
  La  La0  1  0.71124400  0.23795000  0.25202400  1
  La  La1  1  0.28875600  0.23795000  0.75202400  1
  Co  Co0  1  0.75274700  0.00016700  0.99998100  1
  Co  Co1  1  0.24725300  0.00016700  0.49998100  1
  Ru  Ru0  1  0.74998600  0.50033700  0.50011500  1
  Ru  Ru1  1  0.25001400  0.50033700  0.00011500  1
  O  O0  1  0.23873900  0.66197800  0.75508100  1
  O  O1  1  0.76126100  0.66197800  0.25508100  1
  O  O2  1  0.26893500  0.31957500  0.24485800  1
  O  O3  1  0.73106500  0.31957500  0.74485800  1
  O  O4  1  0.53330600  0.19156900  0.53637500  1
  O  O5  1  0.46669400  0.19156900  0.03637500  1
  O  O6  1  0.95599600  0.82319400  0.45863700  1
  O  O7  1  0.04400400  0.82319400  0.95863700  1
  O  O8  1  0.03320900  0.25546400  0.54148100  1
  O  O9  1  0.96679100  0.25546400  0.04148100  1
  O  O10  1  0.47824600  0.75383300  0.46203700  1
  O  O11  1  0.52175400  0.75383300  0.96203700  1
loop_
_geom_bond_atom_site_label_1
_geom_bond_atom_site_label_2
_geom_bond_distance
_geom_bond_site_symmetry_2
La0 O1 2.429922 1_555
La0 O6 2.450292 1_545
La0 O9 2.463555 1_555
La0 O2 2.539092 1_555
La0 O10 2.632898 1_545
La0 O5 2.651311 1_555
La0 O4 2.812171 1_555
La0 O11 2.845644 1_554
La1 O0 2.429922 1_555
La1 O7 2.450292 1_545
La1 O8 2.463555 1_555
La1 O3 2.539092 1_555
La1 O11 2.632898 1_545
La1 O4 2.651311 1_555
La1 O5 2.812171 1_556
La1 O10 2.845644 1_555
Co0 O3 2.063025 1_555
Co0 O1 2.081367 1_546
Co0 O7 2.084478 1_645
Co0 O5 2.087994 1_556
Co0 O11 2.092384 1_545
Co0 O9 2.094333 1_556
Co1 O2 2.063025 1_555
Co1 O0 2.081367 1_545
Co1 O6 2.084478 1_445
Co1 O4 2.087994 1_555
Co1 O10 2.092384 1_545
Co1 O8 2.094333 1_555
O0 Ru1 2.002280 1_556
O0 Sr0 2.641109 1_455
O1 Ru0 2.002280 1_555
O1 Sr1 2.641109 1_655
O2 Ru1 1.979189 1_555
O2 Sr1 2.507310 1_555
O3 Ru0 1.979189 1_555
O3 Sr0 2.507310 1_555
O4 Ru0 1.989988 1_555
O4 Sr0 2.532416 1_545
O5 Ru1 1.989988 1_555
O5 Sr1 2.532416 1_545
O6 Ru0 1.999610 1_555
O6 Sr1 2.722697 1_655
O6 Sr0 2.810802 1_555
O7 Ru1 1.999610 1_556
O7 Sr0 2.722697 1_455
O7 Sr1 2.810802 1_556
O8 Ru0 2.000382 1_455
O8 Sr0 2.738558 1_445
O8 Sr1 2.809152 1_555
O9 Ru1 2.000382 1_655
O9 Sr1 2.738558 1_645
O9 Sr0 2.809152 1_554
O10 Ru0 1.984995 1_555
O10 Sr1 2.530397 1_555
O11 Ru1 1.984995 1_556
O11 Sr0 2.530397 1_555
