# generated using pymatgen
data_Na2Ca2(SO4)3
_symmetry_space_group_name_H-M   'P 1'
_cell_length_a   9.33345464
_cell_length_b   9.33345431
_cell_length_c   24.10290368
_cell_angle_alpha   89.83238223
_cell_angle_beta   90.16761778
_cell_angle_gamma   120.55438092
_symmetry_Int_Tables_number   1
_chemical_formula_structural   Na2Ca2(SO4)3
_chemical_formula_sum   'Na12 Ca12 S18 O72'
_cell_volume   1808.12748761
_cell_formula_units_Z   6
loop_
 _symmetry_equiv_pos_site_id
 _symmetry_equiv_pos_as_xyz
  1  'x, y, z'
loop_
 _atom_site_type_symbol
 _atom_site_label
 _atom_site_symmetry_multiplicity
 _atom_site_fract_x
 _atom_site_fract_y
 _atom_site_fract_z
 _atom_site_occupancy
  Na  Na0  1  0.36285872  0.36285872  0.25000000  1
  Na  Na1  1  0.63714128  0.63714128  0.75000000  1
  Na  Na2  1  0.02952572  0.69619172  0.58333300  1
  Na  Na3  1  0.30380828  0.97047428  0.08333300  1
  Na  Na4  1  0.69619172  0.02952572  0.91666700  1
  Na  Na5  1  0.97047428  0.30380828  0.41666700  1
  Na  Na6  1  -0.00000000  -0.00000000  0.50000000  1
  Na  Na7  1  -0.00000000  -0.00000000  0.00000000  1
  Na  Na8  1  0.66666700  0.33333300  0.83333300  1
  Na  Na9  1  0.66666700  0.33333300  0.33333300  1
  Na  Na10  1  0.33333300  0.66666700  0.16666700  1
  Na  Na11  1  0.33333300  0.66666700  0.66666700  1
  Ca  Ca0  1  0.99585295  0.98644658  0.34910083  1
  Ca  Ca1  1  0.01355342  0.00414705  0.84910083  1
  Ca  Ca2  1  0.00414705  0.01355342  0.65089917  1
  Ca  Ca3  1  0.98644658  0.99585295  0.15089917  1
  Ca  Ca4  1  0.66251995  0.31977958  0.68243383  1
  Ca  Ca5  1  0.68022042  0.33748005  0.18243383  1
  Ca  Ca6  1  0.67081405  0.34688642  0.98423217  1
  Ca  Ca7  1  0.65311358  0.32918595  0.48423217  1
  Ca  Ca8  1  0.32918595  0.65311358  0.01576783  1
  Ca  Ca9  1  0.34688642  0.67081405  0.51576783  1
  Ca  Ca10  1  0.33748005  0.68022042  0.31756617  1
  Ca  Ca11  1  0.31977958  0.66251995  0.81756617  1
  S  S0  1  0.29895148  0.00310016  0.24768714  1
  S  S1  1  0.69414452  0.69414452  0.25000000  1
  S  S2  1  0.00310016  0.29895148  0.25231286  1
  S  S3  1  0.30585548  0.30585548  0.75000000  1
  S  S4  1  0.99689984  0.70104852  0.74768714  1
  S  S5  1  0.70104852  0.99689984  0.75231286  1
  S  S6  1  0.96561848  0.33643316  0.58102014  1
  S  S7  1  0.36081152  0.02747752  0.58333300  1
  S  S8  1  0.66976716  0.63228448  0.58564586  1
  S  S9  1  0.97252248  0.63918848  0.08333300  1
  S  S10  1  0.66356684  0.03438152  0.08102014  1
  S  S11  1  0.36771552  0.33023284  0.08564586  1
  S  S12  1  0.63228448  0.66976716  0.91435414  1
  S  S13  1  0.02747752  0.36081152  0.91666700  1
  S  S14  1  0.33643316  0.96561848  0.91897986  1
  S  S15  1  0.63918848  0.97252248  0.41666700  1
  S  S16  1  0.33023284  0.36771552  0.41435414  1
  S  S17  1  0.03438152  0.66356684  0.41897986  1
  O  O0  1  0.21295164  0.02191820  0.29642487  1
  O  O1  1  0.79206651  0.77542517  0.30018319  1
  O  O2  1  0.98489131  0.20433595  0.30413849  1
  O  O3  1  0.22457483  0.20793349  0.80018319  1
  O  O4  1  0.97808180  0.78704836  0.79642487  1
  O  O5  1  0.79566405  0.01510869  0.80413849  1
  O  O6  1  0.78704836  0.97808180  0.70357513  1
  O  O7  1  0.20793349  0.22457483  0.69981681  1
  O  O8  1  0.01510869  0.79566405  0.69586151  1
  O  O9  1  0.77542517  0.79206651  0.19981681  1
  O  O10  1  0.02191820  0.21295164  0.20357513  1
  O  O11  1  0.20433595  0.98489131  0.19586151  1
  O  O12  1  0.87961864  0.35525120  0.62975787  1
  O  O13  1  0.45873351  0.10875817  0.63351619  1
  O  O14  1  0.65155831  0.53766895  0.63747149  1
  O  O15  1  0.89124183  0.54126649  0.13351619  1
  O  O16  1  0.64474880  0.12038136  0.12975787  1
  O  O17  1  0.46233105  0.34844169  0.13747149  1
  O  O18  1  0.45371536  0.31141480  0.03690813  1
  O  O19  1  0.87460049  0.55790783  0.03314981  1
  O  O20  1  0.68177569  0.12899705  0.02919451  1
  O  O21  1  0.44209217  0.12539951  0.53314981  1
  O  O22  1  0.68858520  0.54628464  0.53690813  1
  O  O23  1  0.87100295  0.31822431  0.52919451  1
  O  O24  1  0.54628464  0.68858520  0.96309187  1
  O  O25  1  0.12539951  0.44209217  0.96685019  1
  O  O26  1  0.31822431  0.87100295  0.97080549  1
  O  O27  1  0.55790783  0.87460049  0.46685019  1
  O  O28  1  0.31141480  0.45371536  0.46309187  1
  O  O29  1  0.12899705  0.68177569  0.47080549  1
  O  O30  1  0.12038136  0.64474880  0.37024213  1
  O  O31  1  0.54126649  0.89124183  0.36648381  1
  O  O32  1  0.34844169  0.46233105  0.36252851  1
  O  O33  1  0.10875817  0.45873351  0.86648381  1
  O  O34  1  0.35525120  0.87961864  0.87024213  1
  O  O35  1  0.53766895  0.65155831  0.86252851  1
  O  O36  1  0.01354330  0.80998456  0.41351775  1
  O  O37  1  0.81061914  0.99600750  0.41334606  1
  O  O38  1  0.17228028  0.20134551  0.41179434  1
  O  O39  1  0.00399250  0.18938086  0.91334606  1
  O  O40  1  0.19001544  0.98645670  0.91351775  1
  O  O41  1  0.79865449  0.82771972  0.91179434  1
  O  O42  1  0.98645670  0.19001544  0.58648225  1
  O  O43  1  0.18938086  0.00399250  0.58665394  1
  O  O44  1  0.82771972  0.79865449  0.58820566  1
  O  O45  1  0.99600750  0.81061914  0.08665394  1
  O  O46  1  0.80998456  0.01354330  0.08648225  1
  O  O47  1  0.20134551  0.17228028  0.08820566  1
  O  O48  1  0.68021030  0.14331756  0.74685075  1
  O  O49  1  0.47728614  0.32934050  0.74667906  1
  O  O50  1  0.83894728  0.53467851  0.74512734  1
  O  O51  1  0.67065950  0.52271386  0.24667906  1
  O  O52  1  0.85668244  0.31978970  0.24685075  1
  O  O53  1  0.46532149  0.16105272  0.24512734  1
  O  O54  1  0.65312370  0.52334844  0.91981525  1
  O  O55  1  0.85604786  0.33732550  0.91998694  1
  O  O56  1  0.49438672  0.13198749  0.92153866  1
  O  O57  1  0.66267450  0.14395214  0.41998694  1
  O  O58  1  0.47665156  0.34687630  0.41981525  1
  O  O59  1  0.86801251  0.50561328  0.42153866  1
  O  O60  1  0.34687630  0.47665156  0.08018475  1
  O  O61  1  0.14395214  0.66267450  0.08001306  1
  O  O62  1  0.50561328  0.86801251  0.07846134  1
  O  O63  1  0.33732550  0.85604786  0.58001306  1
  O  O64  1  0.52334844  0.65312370  0.58018475  1
  O  O65  1  0.13198749  0.49438672  0.57846134  1
  O  O66  1  0.31978970  0.85668244  0.25314925  1
  O  O67  1  0.52271386  0.67065950  0.25332094  1
  O  O68  1  0.16105272  0.46532149  0.25487266  1
  O  O69  1  0.32934050  0.47728614  0.75332094  1
  O  O70  1  0.14331756  0.68021030  0.75314925  1
  O  O71  1  0.53467851  0.83894728  0.75487266  1
loop_
_geom_bond_atom_site_label_1
_geom_bond_atom_site_label_2
_geom_bond_distance
_geom_bond_site_symmetry_2
Na0 O67 2.475568 1_555
Na0 O51 2.475568 1_555
Na0 O53 2.511864 1_555
Na0 O68 2.511865 1_555
Na0 O32 2.894880 1_555
Na0 O17 2.894880 1_555
Na0 O0 2.966046 1_555
Na0 O10 2.966046 1_555
Na1 O49 2.475568 1_555
Na1 O69 2.475568 1_555
Na1 O71 2.511864 1_555
Na1 O50 2.511865 1_555
Na1 O14 2.894880 1_555
Na1 O35 2.894880 1_555
Na1 O6 2.966046 1_555
Na1 O4 2.966046 1_555
Na2 O63 2.475560 1_555
Na2 O43 2.475568 1_565
Na2 O65 2.511847 1_555
Na2 O44 2.511865 1_455
Na2 O29 2.894852 1_555
Na2 O8 2.894880 1_555
Na2 O12 2.966046 1_455
Na2 O22 2.966046 1_455
Na3 O61 2.475559 1_555
Na3 O45 2.475568 1_455
Na3 O62 2.511847 1_555
Na3 O47 2.511864 1_565
Na3 O26 2.894852 1_554
Na3 O11 2.894880 1_555
Na3 O18 2.966046 1_565
Na3 O16 2.966046 1_565
Na4 O55 2.475559 1_555
Na4 O39 2.475568 1_655
Na4 O56 2.511847 1_555
Na4 O41 2.511864 1_545
Na4 O20 2.894852 1_556
Na4 O5 2.894880 1_555
Na4 O24 2.966046 1_545
Na4 O34 2.966046 1_545
Na5 O57 2.475560 1_555
Na5 O37 2.475568 1_545
Na5 O59 2.511847 1_555
Na5 O38 2.511865 1_655
Na5 O23 2.894852 1_555
Na5 O2 2.894880 1_555
Na5 O30 2.966046 1_655
Na5 O28 2.966046 1_655
Na6 O37 2.720277 1_445
Na6 O43 2.720277 1_555
Na6 O44 2.749804 1_445
Na6 O38 2.749804 1_555
Na6 O42 2.785213 1_455
Na6 O36 2.785213 1_545
Na7 O45 2.720277 1_445
Na7 O39 2.720277 1_554
Na7 O41 2.749804 1_444
Na7 O47 2.749804 1_555
Na7 O40 2.785213 1_544
Na7 O46 2.785213 1_455
Na8 O55 2.720277 1_555
Na8 O49 2.720277 1_555
Na8 O50 2.749804 1_555
Na8 O56 2.749804 1_555
Na8 O48 2.785213 1_555
Na8 O54 2.785213 1_555
Na9 O51 2.720277 1_555
Na9 O57 2.720277 1_555
Na9 O53 2.749804 1_555
Na9 O59 2.749804 1_555
Na9 O52 2.785213 1_555
Na9 O58 2.785213 1_555
Na10 O67 2.720277 1_555
Na10 O61 2.720277 1_555
Na10 O68 2.749804 1_555
Na10 O62 2.749804 1_555
Na10 O66 2.785213 1_555
Na10 O60 2.785213 1_555
Na11 O69 2.720277 1_555
Na11 O63 2.720277 1_555
Na11 O71 2.749804 1_555
Na11 O65 2.749804 1_555
Na11 O70 2.785213 1_555
Na11 O64 2.785213 1_555
Ca0 O1 2.253610 1_555
Ca0 O0 2.271113 1_665
Ca0 O36 2.326063 1_655
Ca0 O2 2.349190 1_565
Ca0 O37 2.359689 1_555
Ca0 O38 2.379736 1_665
Ca1 O3 2.253610 1_555
Ca1 O4 2.271113 1_445
Ca1 O40 2.326063 1_545
Ca1 O5 2.349190 1_455
Ca1 O39 2.359688 1_555
Ca1 O41 2.379736 1_445
Ca2 O7 2.253610 1_555
Ca2 O6 2.271113 1_445
Ca2 O42 2.326063 1_455
Ca2 O8 2.349190 1_545
Ca2 O43 2.359689 1_555
Ca2 O44 2.379736 1_445
Ca3 O9 2.253610 1_555
Ca3 O10 2.271113 1_665
Ca3 O46 2.326063 1_565
Ca3 O11 2.349190 1_655
Ca3 O45 2.359688 1_555
Ca3 O47 2.379736 1_665
Ca4 O13 2.253610 1_555
Ca4 O12 2.271113 1_555
Ca4 O48 2.326063 1_555
Ca4 O14 2.349190 1_555
Ca4 O49 2.359689 1_555
Ca4 O50 2.379736 1_555
Ca5 O15 2.253610 1_555
Ca5 O16 2.271113 1_555
Ca5 O52 2.326063 1_555
Ca5 O17 2.349190 1_555
Ca5 O51 2.359688 1_555
Ca5 O53 2.379736 1_555
Ca6 O19 2.253610 1_556
Ca6 O18 2.271113 1_556
Ca6 O54 2.326063 1_555
Ca6 O20 2.349190 1_556
Ca6 O55 2.359689 1_555
Ca6 O56 2.379736 1_555
Ca7 O21 2.253610 1_555
Ca7 O22 2.271113 1_555
Ca7 O58 2.326063 1_555
Ca7 O23 2.349190 1_555
Ca7 O57 2.359688 1_555
Ca7 O59 2.379736 1_555
Ca8 O25 2.253610 1_554
Ca8 O24 2.271113 1_554
Ca8 O60 2.326063 1_555
Ca8 O26 2.349190 1_554
Ca8 O61 2.359689 1_555
Ca8 O62 2.379736 1_555
Ca9 O27 2.253610 1_555
Ca9 O28 2.271113 1_555
Ca9 O64 2.326063 1_555
Ca9 O29 2.349190 1_555
Ca9 O63 2.359688 1_555
Ca9 O65 2.379736 1_555
Ca10 O31 2.253610 1_555
Ca10 O30 2.271113 1_555
Ca10 O66 2.326063 1_555
Ca10 O32 2.349190 1_555
Ca10 O67 2.359689 1_555
Ca10 O68 2.379736 1_555
Ca11 O33 2.253610 1_555
Ca11 O34 2.271113 1_555
Ca11 O70 2.326063 1_555
Ca11 O35 2.349190 1_555
Ca11 O69 2.359688 1_555
Ca11 O71 2.379736 1_555
O0 S0 1.484980 1_555
O1 S1 1.472353 1_555
O2 S2 1.487044 1_655
O3 S3 1.472353 1_555
O4 S4 1.484980 1_555
O5 S5 1.487044 1_545
O6 S5 1.484980 1_555
O7 S3 1.472353 1_555
O8 S4 1.487044 1_455
O9 S1 1.472353 1_555
O10 S2 1.484980 1_555
O11 S0 1.487044 1_565
O12 S6 1.484980 1_555
O13 S7 1.472353 1_555
O14 S8 1.487044 1_555
O15 S9 1.472353 1_555
O16 S10 1.484980 1_555
O17 S11 1.487044 1_555
O18 S11 1.484980 1_555
O19 S9 1.472353 1_555
O20 S10 1.487044 1_555
O21 S7 1.472353 1_555
O22 S8 1.484980 1_555
O23 S6 1.487044 1_555
O24 S12 1.484980 1_555
O25 S13 1.472353 1_555
O26 S14 1.487044 1_555
O27 S15 1.472353 1_555
O28 S16 1.484980 1_555
O29 S17 1.487044 1_555
O30 S17 1.484980 1_555
O31 S15 1.472353 1_555
O32 S16 1.487044 1_555
O33 S13 1.472353 1_555
O34 S14 1.484980 1_555
O35 S12 1.487044 1_555
O36 S17 1.480452 1_555
O37 S15 1.502879 1_555
O38 S16 1.503651 1_555
O39 S13 1.502879 1_555
O40 S14 1.480452 1_555
O41 S12 1.503651 1_555
O42 S6 1.480452 1_555
O43 S7 1.502879 1_555
O44 S8 1.503651 1_555
O45 S9 1.502879 1_555
O46 S10 1.480452 1_555
O47 S11 1.503651 1_555
O48 S5 1.480452 1_545
O49 S3 1.502879 1_555
O50 S4 1.503651 1_555
O51 S1 1.502879 1_555
O52 S2 1.480452 1_655
O53 S0 1.503651 1_555
O54 S12 1.480465 1_555
O55 S13 1.502865 1_655
O56 S14 1.503649 1_545
O57 S15 1.502865 1_545
O58 S16 1.480465 1_555
O59 S17 1.503649 1_655
O60 S11 1.480465 1_555
O61 S9 1.502865 1_455
O62 S10 1.503649 1_565
O63 S7 1.502865 1_565
O64 S8 1.480465 1_555
O65 S6 1.503649 1_455
O66 S0 1.480452 1_565
O67 S1 1.502879 1_555
O68 S2 1.503651 1_555
O69 S3 1.502879 1_555
O70 S4 1.480452 1_455
O71 S5 1.503651 1_555
