# generated using pymatgen
data_MgNb4(CoO6)2
_symmetry_space_group_name_H-M   'P 1'
_cell_length_a   5.10764266
_cell_length_b   4.97821038
_cell_length_c   8.80219500
_cell_angle_alpha   90.00000000
_cell_angle_beta   90.00000000
_cell_angle_gamma   89.90906444
_symmetry_Int_Tables_number   1
_chemical_formula_structural   MgNb4(CoO6)2
_chemical_formula_sum   'Mg1 Nb4 Co2 O12'
_cell_volume   223.81242358
_cell_formula_units_Z   1
loop_
 _symmetry_equiv_pos_site_id
 _symmetry_equiv_pos_as_xyz
  1  'x, y, z'
loop_
 _atom_site_type_symbol
 _atom_site_label
 _atom_site_symmetry_multiplicity
 _atom_site_fract_x
 _atom_site_fract_y
 _atom_site_fract_z
 _atom_site_occupancy
  Mg  Mg0  1  0.50000000  0.00000000  0.81981600  1
  Nb  Nb0  1  0.00000000  0.00000000  0.00830300  1
  Nb  Nb1  1  0.00000000  0.00000000  0.63283700  1
  Nb  Nb2  1  0.50000000  0.50000000  0.14608700  1
  Nb  Nb3  1  0.50000000  0.50000000  0.49290600  1
  Co  Co0  1  0.00000000  0.00000000  0.32048100  1
  Co  Co1  1  0.50000000  0.50000000  0.82059100  1
  O  O0  1  0.19366200  0.76377800  0.14481200  1
  O  O1  1  0.16647900  0.80478300  0.82067500  1
  O  O2  1  0.19305900  0.76286100  0.49654300  1
  O  O3  1  0.32010900  0.25163100  0.98953500  1
  O  O4  1  0.32980900  0.30677300  0.31994600  1
  O  O5  1  0.32017200  0.25161100  0.65083600  1
  O  O6  1  0.67989100  0.74836900  0.98953500  1
  O  O7  1  0.67019100  0.69322700  0.31994600  1
  O  O8  1  0.67982800  0.74838900  0.65083600  1
  O  O9  1  0.83352100  0.19521600  0.82067500  1
  O  O10  1  0.80633800  0.23622200  0.14481200  1
  O  O11  1  0.80694100  0.23713900  0.49654300  1
loop_
_geom_bond_atom_site_label_1
_geom_bond_atom_site_label_2
_geom_bond_distance
_geom_bond_site_symmetry_2
Mg0 O9 1.962573 1_555
Mg0 O1 1.962575 1_545
Mg0 O5 2.149713 1_555
Mg0 O8 2.149713 1_545
Mg0 O3 2.154414 1_555
Mg0 O6 2.154414 1_545
Nb0 O10 1.949723 1_455
Nb0 O0 1.949723 1_545
Nb0 O3 2.067900 1_554
Nb0 O6 2.067900 1_444
Nb0 O9 2.095814 1_454
Nb0 O1 2.095817 1_544
Nb1 O2 1.949755 1_545
Nb1 O11 1.949755 1_455
Nb1 O5 2.067565 1_555
Nb1 O8 2.067565 1_445
Nb1 O9 2.097271 1_455
Nb1 O1 2.097274 1_545
Nb2 O7 2.006374 1_555
Nb2 O4 2.006374 1_555
Nb2 O10 2.041108 1_555
Nb2 O0 2.041108 1_555
Nb2 O6 2.067725 1_554
Nb2 O3 2.067725 1_554
Nb3 O7 2.000344 1_555
Nb3 O4 2.000344 1_555
Nb3 O11 2.040763 1_555
Nb3 O2 2.040763 1_555
Nb3 O8 2.075745 1_555
Nb3 O5 2.075745 1_555
Co0 O10 2.179125 1_455
Co0 O0 2.179125 1_545
Co0 O2 2.182651 1_545
Co0 O11 2.182651 1_455
Co0 O4 2.275558 1_555
Co0 O7 2.275558 1_445
Co1 O6 2.141962 1_555
Co1 O3 2.141962 1_555
Co1 O8 2.146844 1_555
Co1 O5 2.146844 1_555
Co1 O1 2.279441 1_555
Co1 O9 2.279444 1_555
