# generated using pymatgen
data_Na3In2Ga2P3(SO8)3
_symmetry_space_group_name_H-M   'P 1'
_cell_length_a   8.76774550
_cell_length_b   8.76040797
_cell_length_c   22.69320411
_cell_angle_alpha   88.67933213
_cell_angle_beta   91.23736340
_cell_angle_gamma   120.00420573
_symmetry_Int_Tables_number   1
_chemical_formula_structural   Na3In2Ga2P3(SO8)3
_chemical_formula_sum   'Na9 In6 Ga6 P9 S9 O72'
_cell_volume   1508.95245615
_cell_formula_units_Z   3
loop_
 _symmetry_equiv_pos_site_id
 _symmetry_equiv_pos_as_xyz
  1  'x, y, z'
loop_
 _atom_site_type_symbol
 _atom_site_label
 _atom_site_symmetry_multiplicity
 _atom_site_fract_x
 _atom_site_fract_y
 _atom_site_fract_z
 _atom_site_occupancy
  Na  Na0  1  0.36362644  0.36352503  0.25138142  1
  Na  Na1  1  0.69063183  0.02262323  0.91763624  1
  Na  Na2  1  0.97403296  0.30539381  0.41649775  1
  Na  Na3  1  0.00618147  0.99557279  0.49767700  1
  Na  Na4  1  0.00425440  0.99057380  0.00263051  1
  Na  Na5  1  0.65953594  0.33664767  0.83476303  1
  Na  Na6  1  0.66668269  0.33378606  0.33293429  1
  Na  Na7  1  0.33309756  0.68467188  0.16800936  1
  Na  Na8  1  0.33301522  0.66696241  0.66654672  1
  In  In0  1  -0.00004260  0.99407935  0.85092588  1
  In  In1  1  0.99364873  0.00717162  0.64639265  1
  In  In2  1  0.67163317  0.32689938  0.68367741  1
  In  In3  1  0.34065769  0.67541927  0.02101799  1
  In  In4  1  0.32347388  0.66073730  0.51400011  1
  In  In5  1  0.34587733  0.67638184  0.81907807  1
  Ga  Ga0  1  0.01979847  0.00552283  0.34722081  1
  Ga  Ga1  1  0.99776835  0.00716895  0.15170799  1
  Ga  Ga2  1  0.67020361  0.31215415  0.18558784  1
  Ga  Ga3  1  0.65865910  0.32851531  0.98554342  1
  Ga  Ga4  1  0.66965509  0.34531508  0.47981952  1
  Ga  Ga5  1  0.31196436  0.66129715  0.31632040  1
  P  P0  1  0.28960478  0.99648101  0.24793728  1
  P  P1  1  0.99816336  0.28899404  0.25118042  1
  P  P2  1  0.70084536  0.99814259  0.75113874  1
  P  P3  1  0.95686208  0.33511232  0.57897798  1
  P  P4  1  0.67682058  0.04749855  0.08496846  1
  P  P5  1  0.63064097  0.65549667  0.92031329  1
  P  P6  1  0.33652404  0.97145761  0.91947116  1
  P  P7  1  0.33735966  0.37130042  0.41330209  1
  P  P8  1  0.03353478  0.67198713  0.41394329  1
  S  S0  1  0.71070561  0.71147559  0.24962295  1
  S  S1  1  0.29891946  0.29977895  0.74963282  1
  S  S2  1  0.00101525  0.70292611  0.74904293  1
  S  S3  1  0.37480630  0.04196323  0.58031601  1
  S  S4  1  0.66657080  0.62418061  0.58119252  1
  S  S5  1  0.94853995  0.62088218  0.08600176  1
  S  S6  1  0.37528636  0.32648669  0.08661907  1
  S  S7  1  0.03512120  0.37410200  0.91880679  1
  S  S8  1  0.62664411  0.95868802  0.41417916  1
  O  O0  1  0.21582386  0.04156323  0.30239030  1
  O  O1  1  0.82069558  0.79152961  0.30288596  1
  O  O2  1  0.96704036  0.17583707  0.30829790  1
  O  O3  1  0.22147533  0.19213798  0.80296615  1
  O  O4  1  0.98082169  0.78163026  0.80243691  1
  O  O5  1  0.80405043  0.02244949  0.80953122  1
  O  O6  1  0.78818395  0.97498736  0.69680115  1
  O  O7  1  0.19669459  0.21873061  0.69502525  1
  O  O8  1  0.02768732  0.81084161  0.69480235  1
  O  O9  1  0.78849023  0.81897919  0.19535235  1
  O  O10  1  0.03834390  0.20825006  0.19779909  1
  O  O11  1  0.17071493  0.96430259  0.19292340  1
  O  O12  1  0.87928400  0.35921450  0.63526790  1
  O  O13  1  0.46967010  0.11487525  0.63648659  1
  O  O14  1  0.63950303  0.52268837  0.63665956  1
  O  O15  1  0.86434292  0.51279669  0.13977857  1
  O  O16  1  0.64543272  0.13339129  0.13814344  1
  O  O17  1  0.48523591  0.35532619  0.14095230  1
  O  O18  1  0.45668427  0.30544759  0.03299392  1
  O  O19  1  0.84373653  0.54095382  0.03126728  1
  O  O20  1  0.70118967  0.15527348  0.02653122  1
  O  O21  1  0.46185869  0.15480825  0.52809473  1
  O  O22  1  0.68395467  0.53686856  0.52884016  1
  O  O23  1  0.84440456  0.31436939  0.52217164  1
  O  O24  1  0.54820204  0.69668891  0.97226855  1
  O  O25  1  0.14437508  0.45208297  0.97160075  1
  O  O26  1  0.29711348  0.85326301  0.97410773  1
  O  O27  1  0.55631437  0.85600922  0.46968940  1
  O  O28  1  0.29271135  0.44420756  0.46741120  1
  O  O29  1  0.14466535  0.71411977  0.47062986  1
  O  O30  1  0.11750621  0.62627613  0.36229380  1
  O  O31  1  0.51179081  0.87330349  0.36229252  1
  O  O32  1  0.36878290  0.48923461  0.35704768  1
  O  O33  1  0.11119723  0.47791534  0.86389939  1
  O  O34  1  0.37602061  0.89621657  0.86424088  1
  O  O35  1  0.52123385  0.61806913  0.86273871  1
  O  O36  1  0.00767766  0.83161088  0.40267613  1
  O  O37  1  0.80707807  0.98380172  0.40809066  1
  O  O38  1  0.16701467  0.18703202  0.40581521  1
  O  O39  1  0.01091321  0.19348202  0.91446865  1
  O  O40  1  0.17887859  0.00024816  0.91259456  1
  O  O41  1  0.81159397  0.82806846  0.91456801  1
  O  O42  1  0.97187134  0.16554432  0.58041599  1
  O  O43  1  0.19551044  0.02133303  0.58331338  1
  O  O44  1  0.83163827  0.79788595  0.58394191  1
  O  O45  1  0.96883060  0.79972015  0.09041192  1
  O  O46  1  0.84635304  0.03224928  0.09248787  1
  O  O47  1  0.19874281  0.16440406  0.09138438  1
  O  O48  1  0.68279696  0.16494700  0.74862950  1
  O  O49  1  0.47831246  0.32288918  0.74558595  1
  O  O50  1  0.83744935  0.52897760  0.74535597  1
  O  O51  1  0.68635104  0.52938820  0.24418101  1
  O  O52  1  0.83542794  0.31312279  0.24347619  1
  O  O53  1  0.47450596  0.16926805  0.24061348  1
  O  O54  1  0.65419584  0.49363146  0.93003555  1
  O  O55  1  0.85630056  0.35366019  0.92389467  1
  O  O56  1  0.51103429  0.15165256  0.92720162  1
  O  O57  1  0.64671087  0.13910849  0.41919857  1
  O  O58  1  0.50195616  0.35088261  0.42318970  1
  O  O59  1  0.85198347  0.49740123  0.42141380  1
  O  O60  1  0.35270961  0.48380516  0.08177375  1
  O  O61  1  0.12551727  0.63518226  0.08254351  1
  O  O62  1  0.51125425  0.86185618  0.08281944  1
  O  O63  1  0.36176875  0.86677814  0.57653017  1
  O  O64  1  0.51213871  0.65011066  0.57622256  1
  O  O65  1  0.14344918  0.49895105  0.57747807  1
  O  O66  1  0.31282081  0.83344653  0.25819077  1
  O  O67  1  0.53032425  0.68925509  0.25507003  1
  O  O68  1  0.17000466  0.47390101  0.25775625  1
  O  O69  1  0.30846285  0.47305965  0.75353191  1
  O  O70  1  0.15653025  0.67848859  0.75380261  1
  O  O71  1  0.51630496  0.83147848  0.75203533  1
loop_
_geom_bond_atom_site_label_1
_geom_bond_atom_site_label_2
_geom_bond_distance
_geom_bond_site_symmetry_2
Na0 O68 2.344482 1_555
Na0 O53 2.363234 1_555
Na0 O51 2.457947 1_555
Na0 O67 2.473940 1_555
Na0 O32 2.651799 1_555
Na0 O0 2.689483 1_555
Na0 O10 2.740301 1_555
Na0 O17 2.760853 1_555
Na1 O56 2.368671 1_555
Na1 O41 2.418894 1_545
Na1 O39 2.435416 1_655
Na1 O55 2.517399 1_555
Na1 O5 2.667277 1_555
Na1 O34 2.676931 1_545
Na1 O20 2.735068 1_556
Na1 O24 2.754436 1_545
Na2 O38 2.404331 1_655
Na2 O59 2.408506 1_555
Na2 O37 2.450393 1_545
Na2 O57 2.486830 1_555
Na2 O28 2.673536 1_655
Na2 O23 2.695272 1_555
Na2 O30 2.714474 1_655
Na2 O2 2.715378 1_555
Na3 O43 2.467668 1_565
Na3 O42 2.536604 1_465
Na3 O44 2.548716 1_455
Na3 O38 2.597640 1_565
Na3 O37 2.620592 1_455
Na3 O36 2.621820 1_555
Na4 O45 2.492784 1_455
Na4 O41 2.540477 1_454
Na4 O40 2.554087 1_564
Na4 O47 2.584451 1_565
Na4 O46 2.621042 1_465
Na4 O39 2.627384 1_564
Na5 O49 2.513055 1_555
Na5 O56 2.563798 1_555
Na5 O48 2.565991 1_555
Na5 O55 2.587615 1_555
Na5 O50 2.596001 1_555
Na5 O54 2.602638 1_555
Na6 O57 2.516688 1_555
Na6 O59 2.527525 1_555
Na6 O51 2.565729 1_555
Na6 O58 2.581023 1_555
Na6 O52 2.599522 1_555
Na6 O53 2.619829 1_555
Na7 O62 2.480699 1_555
Na7 O66 2.507758 1_555
Na7 O61 2.521743 1_555
Na7 O67 2.584929 1_555
Na7 O68 2.629411 1_555
Na7 O60 2.726099 1_555
Na8 O71 2.470057 1_555
Na8 O69 2.515243 1_555
Na8 O65 2.561189 1_555
Na8 O70 2.573565 1_555
Na8 O63 2.591647 1_555
Na8 O64 2.659813 1_555
In0 O5 2.059385 1_465
In0 O40 2.060636 1_565
In0 O4 2.115878 1_455
In0 O41 2.128958 1_455
In0 O3 2.145026 1_565
In0 O39 2.254407 1_565
In1 O6 2.049266 1_545
In1 O42 2.088032 1_555
In1 O7 2.128796 1_655
In1 O8 2.160138 1_645
In1 O44 2.194501 1_545
In1 O43 2.253571 1_655
In2 O12 2.039180 1_555
In2 O48 2.057021 1_555
In2 O13 2.110160 1_555
In2 O14 2.132042 1_555
In2 O50 2.158465 1_555
In2 O49 2.211104 1_555
In3 O26 2.051149 1_554
In3 O24 2.075621 1_554
In3 O62 2.107954 1_555
In3 O25 2.167382 1_554
In3 O60 2.189584 1_555
In3 O61 2.248964 1_555
In4 O29 2.071376 1_555
In4 O65 2.083735 1_555
In4 O28 2.087380 1_555
In4 O27 2.149836 1_555
In4 O64 2.187653 1_555
In4 O63 2.208102 1_555
In5 O35 2.074339 1_555
In5 O71 2.089495 1_555
In5 O34 2.097464 1_555
In5 O33 2.173062 1_555
In5 O70 2.207687 1_555
In5 O69 2.238175 1_555
Ga0 O0 1.899108 1_555
Ga0 O36 1.916155 1_545
Ga0 O2 1.957588 1_455
Ga0 O38 1.983227 1_555
Ga0 O1 2.076565 1_445
Ga0 O37 2.273106 1_445
Ga1 O10 1.940554 1_655
Ga1 O11 1.951206 1_645
Ga1 O46 1.953927 1_555
Ga1 O9 2.010854 1_545
Ga1 O47 2.113309 1_655
Ga1 O45 2.223086 1_545
Ga2 O16 1.840192 1_555
Ga2 O52 1.931426 1_555
Ga2 O53 1.985606 1_555
Ga2 O15 2.016803 1_555
Ga2 O17 2.079411 1_555
Ga2 O51 2.291013 1_555
Ga3 O54 1.910776 1_555
Ga3 O20 1.947690 1_556
Ga3 O56 1.960524 1_555
Ga3 O18 2.012640 1_556
Ga3 O19 2.041890 1_556
Ga3 O55 2.171939 1_555
Ga4 O23 1.919514 1_555
Ga4 O58 1.950134 1_555
Ga4 O22 1.984645 1_555
Ga4 O59 1.991819 1_555
Ga4 O21 2.065361 1_555
Ga4 O57 2.221576 1_555
Ga5 O30 1.904830 1_555
Ga5 O66 1.977869 1_555
Ga5 O68 1.999017 1_555
Ga5 O32 2.010311 1_555
Ga5 O31 2.088873 1_555
Ga5 O67 2.299492 1_555
O0 P0 1.553695 1_545
O1 S0 1.481599 1_555
O2 P1 1.556511 1_555
O3 S1 1.468881 1_555
O4 S2 1.464502 1_655
O5 P2 1.545503 1_545
O6 P2 1.534838 1_555
O7 S1 1.482985 1_555
O8 S2 1.483650 1_555
O9 S0 1.486363 1_555
O10 P1 1.548898 1_455
O11 P0 1.546219 1_555
O12 P3 1.527277 1_555
O13 S3 1.478183 1_555
O14 S4 1.476994 1_555
O15 S5 1.489090 1_555
O16 P4 1.536677 1_555
O17 S6 1.494276 1_555
O18 S6 1.484459 1_555
O19 S5 1.491564 1_555
O20 P4 1.564755 1_555
O21 S3 1.481434 1_555
O22 S4 1.478526 1_555
O23 P3 1.563249 1_555
O24 P5 1.536250 1_555
O25 S7 1.467421 1_555
O26 P6 1.526537 1_555
O27 S8 1.484179 1_555
O28 P7 1.541398 1_555
O29 P8 1.532487 1_555
O30 P8 1.558838 1_555
O31 S8 1.481912 1_555
O32 P7 1.562917 1_555
O33 S7 1.483762 1_555
O34 P6 1.552545 1_555
O35 P5 1.544606 1_555
O36 P8 1.539574 1_555
O37 S8 1.493372 1_555
O38 P7 1.567096 1_555
O39 S7 1.492924 1_555
O40 P6 1.528384 1_545
O41 P5 1.555852 1_555
O42 P3 1.555037 1_555
O43 S3 1.492797 1_555
O44 S4 1.487275 1_555
O45 S5 1.491274 1_555
O46 P4 1.563007 1_555
O47 S6 1.491914 1_555
O48 P2 1.546173 1_545
O49 S1 1.486692 1_555
O50 S2 1.483525 1_655
O51 S0 1.507534 1_555
O52 P1 1.549268 1_555
O53 P0 1.578872 1_545
O54 P5 1.542260 1_555
O55 S7 1.493193 1_655
O56 P6 1.565031 1_545
O57 S8 1.507118 1_545
O58 P7 1.551555 1_555
O59 P8 1.570536 1_655
O60 S6 1.488473 1_555
O61 S5 1.496661 1_455
O62 P4 1.547254 1_565
O63 S3 1.485238 1_565
O64 S4 1.482408 1_555
O65 P3 1.545750 1_455
O66 P0 1.552052 1_555
O67 S0 1.501288 1_555
O68 P1 1.573780 1_455
O69 S1 1.482573 1_555
O70 S2 1.483641 1_555
O71 P2 1.545146 1_555
