# generated using pymatgen
data_Na3AlZn3(SO4)6
_symmetry_space_group_name_H-M   'P 1'
_cell_length_a   8.64551262
_cell_length_b   8.64736923
_cell_length_c   22.29148364
_cell_angle_alpha   90.02608138
_cell_angle_beta   89.96014563
_cell_angle_gamma   120.08873686
_symmetry_Int_Tables_number   1
_chemical_formula_structural   Na3AlZn3(SO4)6
_chemical_formula_sum   'Na9 Al3 Zn9 S18 O72'
_cell_volume   1441.96666652
_cell_formula_units_Z   3
loop_
 _symmetry_equiv_pos_site_id
 _symmetry_equiv_pos_as_xyz
  1  'x, y, z'
loop_
 _atom_site_type_symbol
 _atom_site_label
 _atom_site_symmetry_multiplicity
 _atom_site_fract_x
 _atom_site_fract_y
 _atom_site_fract_z
 _atom_site_occupancy
  Na  Na0  1  0.63507438  0.99925835  0.24922263  1
  Na  Na1  1  0.36496249  0.36378806  0.24908287  1
  Na  Na2  1  0.03359086  0.70010296  0.58514376  1
  Na  Na3  1  0.99921155  0.00698756  0.49928970  1
  Na  Na4  1  0.99996704  0.99946144  0.99854133  1
  Na  Na5  1  0.66607302  0.33265996  0.83187553  1
  Na  Na6  1  0.67495576  0.34084040  0.33595354  1
  Na  Na7  1  0.32453347  0.66574816  0.16115125  1
  Na  Na8  1  0.34144893  0.66581264  0.66896806  1
  Al  Al0  1  0.66768251  0.33440340  0.98122215  1
  Al  Al1  1  0.66513844  0.33146105  0.48314351  1
  Al  Al2  1  0.33438765  0.66670868  0.81659447  1
  Zn  Zn0  1  0.00010684  0.99809551  0.35287766  1
  Zn  Zn1  1  0.00001948  0.00071183  0.84999355  1
  Zn  Zn2  1  0.99920530  0.00762761  0.65481162  1
  Zn  Zn3  1  0.99981603  0.99705981  0.14434631  1
  Zn  Zn4  1  0.66390747  0.33041202  0.68704970  1
  Zn  Zn5  1  0.67276719  0.33890506  0.17759758  1
  Zn  Zn6  1  0.33277946  0.66683745  0.01601944  1
  Zn  Zn7  1  0.33901443  0.66591704  0.51562891  1
  Zn  Zn8  1  0.32657408  0.66590847  0.32254997  1
  S  S0  1  0.29033332  0.99666078  0.24988412  1
  S  S1  1  0.70943522  0.70650353  0.25025019  1
  S  S2  1  0.00012777  0.29427457  0.25002878  1
  S  S3  1  0.29439123  0.29994221  0.75198677  1
  S  S4  1  0.00550246  0.70505692  0.75124704  1
  S  S5  1  0.70025822  0.99437705  0.75193105  1
  S  S6  1  0.95317705  0.33057803  0.58176290  1
  S  S7  1  0.37990286  0.04643911  0.58193030  1
  S  S8  1  0.66345368  0.61955380  0.58216454  1
  S  S9  1  0.95655700  0.62176966  0.08119539  1
  S  S10  1  0.66542308  0.04342780  0.08198432  1
  S  S11  1  0.37788778  0.33453050  0.08195744  1
  S  S12  1  0.62232580  0.66283005  0.91712283  1
  S  S13  1  0.04058569  0.37778049  0.91703977  1
  S  S14  1  0.33722775  0.95955063  0.91703845  1
  S  S15  1  0.62967565  0.96818699  0.41790828  1
  S  S16  1  0.33846237  0.37040374  0.41790710  1
  S  S17  1  0.03183949  0.66139054  0.41920809  1
  O  O0  1  0.21449592  0.03266718  0.30375176  1
  O  O1  1  0.81514451  0.78539955  0.30455591  1
  O  O2  1  0.96612043  0.18191634  0.30396388  1
  O  O3  1  0.21428431  0.18770730  0.80489883  1
  O  O4  1  0.97429017  0.78797727  0.80344575  1
  O  O5  1  0.81226607  0.02664199  0.80487363  1
  O  O6  1  0.77146795  0.95836756  0.69634417  1
  O  O7  1  0.18776057  0.22844933  0.69635668  1
  O  O8  1  0.03964976  0.80964496  0.69433844  1
  O  O9  1  0.78610817  0.81927095  0.19652978  1
  O  O10  1  0.03410345  0.21521435  0.19625754  1
  O  O11  1  0.18400431  0.96993536  0.19572128  1
  O  O12  1  0.87794672  0.36640655  0.63570801  1
  O  O13  1  0.48499277  0.12261587  0.63618106  1
  O  O14  1  0.63734550  0.51491762  0.63657280  1
  O  O15  1  0.88414271  0.52004742  0.13728047  1
  O  O16  1  0.63686291  0.11478626  0.13938771  1
  O  O17  1  0.47711783  0.36195688  0.13939237  1
  O  O18  1  0.47172691  0.30972247  0.02962003  1
  O  O19  1  0.83908578  0.53010806  0.02821789  1
  O  O20  1  0.69046653  0.16203610  0.02964524  1
  O  O21  1  0.46810465  0.15931477  0.52776257  1
  O  O22  1  0.69490409  0.53218902  0.52820865  1
  O  O23  1  0.84008524  0.30753446  0.52754177  1
  O  O24  1  0.54603267  0.69352971  0.97122931  1
  O  O25  1  0.14752773  0.45383052  0.97114606  1
  O  O26  1  0.30634341  0.85267646  0.97114684  1
  O  O27  1  0.54628208  0.85420313  0.47011146  1
  O  O28  1  0.30670495  0.45316557  0.47008018  1
  O  O29  1  0.14166936  0.69263392  0.47335588  1
  O  O30  1  0.10642534  0.62672800  0.36449720  1
  O  O31  1  0.52486473  0.89707873  0.36129514  1
  O  O32  1  0.37314932  0.47574362  0.36135537  1
  O  O33  1  0.12575730  0.49327073  0.86287029  1
  O  O34  1  0.36756998  0.87444730  0.86287612  1
  O  O35  1  0.50697127  0.63240204  0.86295469  1
  O  O36  1  0.01368144  0.82113843  0.41221422  1
  O  O37  1  0.80837511  0.98739656  0.41165224  1
  O  O38  1  0.17850707  0.19172994  0.41158688  1
  O  O39  1  0.01741621  0.19822480  0.90936449  1
  O  O40  1  0.18048042  0.98210277  0.90929023  1
  O  O41  1  0.80208853  0.81949015  0.90931461  1
  O  O42  1  0.97016357  0.16990956  0.58575892  1
  O  O43  1  0.19773801  0.02555415  0.58519399  1
  O  O44  1  0.83089245  0.79815529  0.58537224  1
  O  O45  1  0.96888167  0.79873532  0.08499045  1
  O  O46  1  0.83005494  0.03133177  0.08559071  1
  O  O47  1  0.20063824  0.17003371  0.08545084  1
  O  O48  1  0.68025970  0.15358645  0.74505448  1
  O  O49  1  0.47395363  0.32058440  0.74517517  1
  O  O50  1  0.84590032  0.52568442  0.74477899  1
  O  O51  1  0.68300999  0.52337669  0.24473831  1
  O  O52  1  0.83692095  0.30986240  0.24427940  1
  O  O53  1  0.47431199  0.16080839  0.24498318  1
  O  O54  1  0.63711612  0.49609631  0.92415959  1
  O  O55  1  0.85872457  0.36249983  0.92416613  1
  O  O56  1  0.50414403  0.14151620  0.92423262  1
  O  O57  1  0.64510250  0.14851107  0.42647349  1
  O  O58  1  0.50328165  0.35496558  0.42659034  1
  O  O59  1  0.85060642  0.49629550  0.42698829  1
  O  O60  1  0.36019544  0.49457881  0.07610887  1
  O  O61  1  0.13525909  0.64095607  0.07544592  1
  O  O62  1  0.50539771  0.86520649  0.07612517  1
  O  O63  1  0.35487071  0.86320840  0.57558189  1
  O  O64  1  0.50605773  0.64077542  0.57533414  1
  O  O65  1  0.13256940  0.49505783  0.57505375  1
  O  O66  1  0.31599234  0.83927684  0.25577227  1
  O  O67  1  0.52562711  0.68725037  0.25562003  1
  O  O68  1  0.16436582  0.47330391  0.25632154  1
  O  O69  1  0.31124199  0.48177470  0.76067004  1
  O  O70  1  0.17049777  0.68910522  0.76017116  1
  O  O71  1  0.51808411  0.82934804  0.76064272  1
loop_
_geom_bond_atom_site_label_1
_geom_bond_atom_site_label_2
_geom_bond_distance
_geom_bond_site_symmetry_2
Na0 O52 2.360476 1_565
Na0 O67 2.373920 1_555
Na0 O66 2.391285 1_555
Na0 O53 2.416480 1_565
Na0 O16 2.641880 1_565
Na0 O31 2.661662 1_555
Na0 O9 2.746108 1_555
Na0 O2 2.765072 1_565
Na1 O68 2.361528 1_555
Na1 O53 2.376242 1_555
Na1 O51 2.381082 1_555
Na1 O67 2.424590 1_555
Na1 O17 2.632744 1_555
Na1 O32 2.671182 1_555
Na1 O10 2.745516 1_555
Na1 O0 2.764448 1_555
Na2 O44 2.297784 1_455
Na2 O65 2.333977 1_555
Na2 O63 2.412729 1_555
Na2 O43 2.435084 1_565
Na2 O8 2.602547 1_555
Na2 O29 2.672834 1_555
Na2 O12 2.741414 1_455
Na2 O22 2.834333 1_455
Na3 O42 2.472831 1_555
Na3 O37 2.508218 1_545
Na3 O38 2.508527 1_655
Na3 O43 2.523220 1_655
Na3 O44 2.534810 1_545
Na3 O36 2.562126 1_645
Na4 O45 2.516603 1_556
Na4 O47 2.524885 1_666
Na4 O46 2.529962 1_566
Na4 O41 2.576270 1_555
Na4 O40 2.578113 1_655
Na4 O39 2.582896 1_665
Na5 O49 2.517013 1_555
Na5 O48 2.519122 1_555
Na5 O50 2.523765 1_555
Na5 O56 2.570875 1_555
Na5 O54 2.577467 1_555
Na5 O55 2.578085 1_555
Na6 O59 2.487203 1_555
Na6 O57 2.544838 1_555
Na6 O58 2.545057 1_555
Na6 O51 2.554075 1_555
Na6 O52 2.565201 1_555
Na6 O53 2.615184 1_555
Na7 O61 2.454772 1_555
Na7 O62 2.511365 1_555
Na7 O60 2.516728 1_555
Na7 O66 2.610376 1_555
Na7 O68 2.622233 1_555
Na7 O67 2.678127 1_555
Na8 O71 2.518806 1_555
Na8 O69 2.522901 1_555
Na8 O70 2.579181 1_555
Na8 O64 2.594828 1_555
Na8 O63 2.658006 1_555
Na8 O65 2.674498 1_555
Al0 O19 1.908770 1_556
Al0 O18 1.927360 1_556
Al0 O20 1.929188 1_556
Al0 O55 1.999908 1_555
Al0 O54 2.003854 1_555
Al0 O56 2.007728 1_555
Al1 O21 1.887702 1_555
Al1 O23 1.904216 1_555
Al1 O22 1.907660 1_555
Al1 O57 1.962747 1_555
Al1 O58 1.968900 1_555
Al1 O59 1.968993 1_555
Al2 O71 1.953225 1_555
Al2 O35 1.956666 1_555
Al2 O69 1.956842 1_555
Al2 O33 1.962965 1_555
Al2 O34 1.963593 1_555
Al2 O70 1.976097 1_555
O0 S0 1.473763 1_545
O0 Zn0 2.041065 1_545
O1 S1 1.463468 1_555
O1 Zn0 2.037601 1_655
O2 S2 1.479901 1_655
O2 Zn0 2.066950 1_645
O3 S3 1.462438 1_555
O3 Zn1 2.013001 1_555
O4 S4 1.460724 1_655
O4 Zn1 2.024481 1_665
O5 S5 1.462450 1_545
O5 Zn1 2.015980 1_655
O6 S5 1.483978 1_555
O6 Zn2 2.017937 1_565
O7 S3 1.483000 1_555
O7 Zn2 2.010145 1_455
O8 S4 1.499070 1_555
O8 Zn2 2.105162 1_465
O9 S1 1.475181 1_555
O9 Zn3 2.069040 1_555
O10 S2 1.480046 1_555
O10 Zn3 2.103202 1_445
O11 S0 1.464404 1_555
O11 Zn3 2.068717 1_455
O12 S6 1.471627 1_555
O12 Zn4 2.061759 1_555
O13 S7 1.456909 1_555
O13 Zn4 2.030008 1_555
O14 S8 1.461670 1_555
O14 Zn4 2.057613 1_555
O15 S9 1.475291 1_555
O15 Zn5 1.931244 1_555
O16 S10 1.493567 1_555
O16 Zn5 1.993363 1_555
O17 S11 1.492872 1_555
O17 Zn5 1.991587 1_555
O18 S11 1.496098 1_555
O19 S9 1.499335 1_555
O20 S10 1.496040 1_555
O21 S7 1.498567 1_555
O22 S8 1.515251 1_555
O23 S6 1.504204 1_555
O24 S12 1.460966 1_555
O24 Zn6 2.005063 1_556
O25 S13 1.460541 1_555
O25 Zn6 2.000265 1_556
O26 S14 1.460601 1_555
O26 Zn6 2.001338 1_556
O27 S15 1.460423 1_555
O27 Zn7 1.991250 1_555
O28 S16 1.461504 1_555
O28 Zn7 1.994247 1_555
O29 S17 1.474996 1_555
O29 Zn7 2.061545 1_555
O30 S17 1.478316 1_555
O30 Zn8 1.990707 1_555
O31 S15 1.494665 1_555
O31 Zn8 2.060404 1_555
O32 S16 1.495152 1_555
O32 Zn8 2.068880 1_555
O33 S13 1.503394 1_555
O34 S14 1.503471 1_555
O35 S12 1.503375 1_555
O36 S17 1.474749 1_555
O36 Zn0 2.070504 1_555
O37 S15 1.475231 1_555
O37 Zn0 2.077530 1_655
O38 S16 1.475515 1_555
O38 Zn0 2.075245 1_545
O39 S13 1.472473 1_555
O39 Zn1 2.105228 1_555
O40 S14 1.472980 1_555
O40 Zn1 2.112352 1_565
O41 S12 1.472976 1_555
O41 Zn1 2.107740 1_665
O42 S6 1.471237 1_555
O42 Zn2 2.181175 1_555
O43 S7 1.494292 1_555
O43 Zn2 2.260127 1_455
O44 S8 1.498083 1_555
O44 Zn2 2.269861 1_565
O45 S9 1.482124 1_555
O45 Zn3 2.074104 1_555
O46 S10 1.480779 1_555
O46 Zn3 2.096781 1_545
O47 S11 1.480556 1_555
O47 Zn3 2.090468 1_445
O48 S5 1.479092 1_545
O48 Zn4 2.061249 1_555
O49 S3 1.478763 1_555
O49 Zn4 2.059187 1_555
O50 S4 1.478082 1_655
O50 Zn4 2.078433 1_555
O51 S1 1.487307 1_555
O51 Zn5 2.156123 1_555
O52 S2 1.488794 1_655
O52 Zn5 2.155766 1_555
O53 S0 1.514208 1_545
O53 Zn5 2.218343 1_555
O54 S12 1.518176 1_555
O55 S13 1.518593 1_655
O56 S14 1.519030 1_545
O57 S15 1.508968 1_545
O58 S16 1.508943 1_555
O59 S17 1.510036 1_655
O60 S11 1.472513 1_555
O60 Zn6 2.103694 1_555
O61 S9 1.474319 1_455
O61 Zn6 2.082057 1_555
O62 S10 1.472562 1_565
O62 Zn6 2.097311 1_555
O63 S7 1.494458 1_565
O63 Zn7 2.116401 1_555
O64 S8 1.469439 1_555
O64 Zn7 2.054752 1_555
O65 S6 1.496260 1_455
O65 Zn7 2.116051 1_555
O66 S0 1.490491 1_555
O66 Zn8 2.147441 1_555
O67 S1 1.517171 1_555
O67 Zn8 2.213551 1_555
O68 S2 1.492826 1_555
O68 Zn8 2.139827 1_555
O69 S3 1.516946 1_555
O70 S4 1.513648 1_555
O71 S5 1.516907 1_555
