# generated using pymatgen
data_Pr(MnGe)2
_symmetry_space_group_name_H-M   'P 1'
_cell_length_a   4.19661605
_cell_length_b   4.19661531
_cell_length_c   6.30442798
_cell_angle_alpha   109.44068852
_cell_angle_beta   109.44068821
_cell_angle_gamma   90.00000511
_symmetry_Int_Tables_number   1
_chemical_formula_structural   Pr(MnGe)2
_chemical_formula_sum   'Pr1 Mn2 Ge2'
_cell_volume   97.96223059
_cell_formula_units_Z   1
loop_
 _symmetry_equiv_pos_site_id
 _symmetry_equiv_pos_as_xyz
  1  'x, y, z'
loop_
 _atom_site_type_symbol
 _atom_site_label
 _atom_site_symmetry_multiplicity
 _atom_site_fract_x
 _atom_site_fract_y
 _atom_site_fract_z
 _atom_site_occupancy
  Pr  Pr0  1  -0.00000000  -0.00000000  -0.00000000  1
  Mn  Mn0  1  0.25000000  0.75000000  0.50000000  1
  Mn  Mn1  1  0.75000000  0.25000000  0.50000000  1
  Ge  Ge0  1  0.61564220  0.61564220  0.23128340  1
  Ge  Ge1  1  0.38435780  0.38435780  0.76871660  1
loop_
_geom_bond_atom_site_label_1
_geom_bond_atom_site_label_2
_geom_bond_distance
_geom_bond_site_symmetry_2
Mn0 Pr0 3.483949 1_555
Mn0 Pr0 3.483949 1_666
Mn0 Pr0 3.483949 1_565
Mn0 Pr0 3.483949 1_566
Mn1 Pr0 3.483949 1_666
Mn1 Pr0 3.483949 1_555
Mn1 Pr0 3.483949 1_656
Mn1 Pr0 3.483949 1_655
Ge0 Ge1 2.572970 1_554
Ge0 Mn1 2.576242 1_565
Ge0 Mn0 2.576242 1_655
Ge0 Mn1 2.576245 1_555
Ge0 Mn0 2.576246 1_555
Ge0 Pr0 3.234319 1_665
Ge0 Pr0 3.234322 1_655
Ge0 Pr0 3.234322 1_565
Ge0 Pr0 3.234324 1_555
Ge1 Mn0 2.576242 1_545
Ge1 Mn1 2.576242 1_455
Ge1 Mn0 2.576245 1_555
Ge1 Mn1 2.576246 1_555
Ge1 Pr0 3.234319 1_556
Ge1 Pr0 3.234322 1_566
Ge1 Pr0 3.234322 1_656
Ge1 Pr0 3.234324 1_666
