# generated using pymatgen
data_Na4Mg(MoO4)2
_symmetry_space_group_name_H-M   'P 1'
_cell_length_a   6.49552626
_cell_length_b   6.69618884
_cell_length_c   7.03321891
_cell_angle_alpha   112.64883103
_cell_angle_beta   111.30878530
_cell_angle_gamma   101.56977718
_symmetry_Int_Tables_number   1
_chemical_formula_structural   Na4Mg(MoO4)2
_chemical_formula_sum   'Na4 Mg1 Mo2 O8'
_cell_volume   241.51537463
_cell_formula_units_Z   1
loop_
 _symmetry_equiv_pos_site_id
 _symmetry_equiv_pos_as_xyz
  1  'x, y, z'
loop_
 _atom_site_type_symbol
 _atom_site_label
 _atom_site_symmetry_multiplicity
 _atom_site_fract_x
 _atom_site_fract_y
 _atom_site_fract_z
 _atom_site_occupancy
  Na  Na0  1  0.48164182  0.37809415  0.29389243  1
  Na  Na1  1  0.31466042  0.91707685  0.29539694  1
  Na  Na2  1  0.92646447  0.37609707  0.84196636  1
  Na  Na3  1  0.41270089  0.46707195  0.83958341  1
  Mg  Mg0  1  0.63182081  0.88108387  0.76154978  1
  Mo  Mo0  1  0.88185962  0.13153902  0.26399701  1
  Mo  Mo1  1  0.11410220  0.86382185  0.72644508  1
  O  O0  1  0.21137090  0.18838487  0.89395772  1
  O  O1  1  0.29292272  0.81062472  0.56411071  1
  O  O2  1  0.77370748  0.75334469  0.56344766  1
  O  O3  1  0.18321382  0.70786736  0.89482392  1
  O  O4  1  0.74851105  0.80696770  0.02116265  1
  O  O5  1  0.70798208  0.17848264  0.42117991  1
  O  O6  1  0.77357644  0.21453485  0.02270664  1
  O  O7  1  0.21213328  0.24167840  0.41985180  1
loop_
_geom_bond_atom_site_label_1
_geom_bond_atom_site_label_2
_geom_bond_distance
_geom_bond_site_symmetry_2
Na0 O2 2.304812 1_555
Na0 O0 2.317813 1_554
Na0 O5 2.345803 1_555
Na0 O7 2.406821 1_555
Na1 O1 2.300214 1_555
Na1 O3 2.315401 1_554
Na1 O7 2.339489 1_565
Na1 O5 2.396801 1_565
Na2 O3 2.298294 1_655
Na2 O6 2.306130 1_556
Na2 O5 2.387826 1_555
Na2 O0 2.435912 1_655
Na3 O0 2.296330 1_555
Na3 O4 2.305315 1_556
Na3 O7 2.382126 1_555
Na3 O3 2.423917 1_555
Mg0 O1 1.963125 1_555
Mg0 O2 1.963147 1_555
Mg0 O6 1.998670 1_566
Mg0 O4 1.999433 1_556
Mo0 O5 1.838145 1_555
Mo0 O7 1.838865 1_655
Mo0 O6 1.923331 1_555
Mo0 O4 1.923987 1_545
Mo1 O0 1.856556 1_565
Mo1 O3 1.857057 1_555
Mo1 O1 1.896360 1_555
Mo1 O2 1.897031 1_455
