# generated using pymatgen
data_Na4P2O7
_symmetry_space_group_name_H-M   'P 1'
_cell_length_a   5.34671887
_cell_length_b   9.27681370
_cell_length_c   13.40070011
_cell_angle_alpha   90.00000000
_cell_angle_beta   90.00000000
_cell_angle_gamma   90.00000000
_symmetry_Int_Tables_number   1
_chemical_formula_structural   Na4P2O7
_chemical_formula_sum   'Na16 P8 O28'
_cell_volume   664.68162498
_cell_formula_units_Z   4
loop_
 _symmetry_equiv_pos_site_id
 _symmetry_equiv_pos_as_xyz
  1  'x, y, z'
loop_
 _atom_site_type_symbol
 _atom_site_label
 _atom_site_symmetry_multiplicity
 _atom_site_fract_x
 _atom_site_fract_y
 _atom_site_fract_z
 _atom_site_occupancy
  Na  Na0  1  0.25175576  0.02827112  0.76688256  1
  Na  Na1  1  0.75175576  0.47172888  0.23311744  1
  Na  Na2  1  0.74824424  0.52827112  0.73311744  1
  Na  Na3  1  0.24824424  0.97172888  0.26688256  1
  Na  Na4  1  0.26538450  0.00770500  0.51366283  1
  Na  Na5  1  0.76538450  0.49229500  0.48633717  1
  Na  Na6  1  0.73461550  0.50770500  0.98633717  1
  Na  Na7  1  0.23461550  0.99229500  0.01366283  1
  Na  Na8  1  0.71056320  0.16669060  0.08154392  1
  Na  Na9  1  0.21056320  0.33330940  0.91845608  1
  Na  Na10  1  0.28943680  0.66669060  0.41845608  1
  Na  Na11  1  0.78943680  0.83330940  0.58154392  1
  Na  Na12  1  0.24796026  0.62023707  0.09594484  1
  Na  Na13  1  0.74796026  0.87976293  0.90405516  1
  Na  Na14  1  0.75203974  0.12023707  0.40405516  1
  Na  Na15  1  0.25203974  0.37976293  0.59594484  1
  P  P0  1  0.74020522  0.19307024  0.85678708  1
  P  P1  1  0.24020522  0.30692976  0.14321292  1
  P  P2  1  0.25979478  0.69307024  0.64321292  1
  P  P3  1  0.75979478  0.80692976  0.35678708  1
  P  P4  1  0.77181084  0.18555995  0.63818659  1
  P  P5  1  0.27181084  0.31444005  0.36181341  1
  P  P6  1  0.22818916  0.68555995  0.86181341  1
  P  P7  1  0.72818916  0.81444005  0.13818659  1
  O  O0  1  0.82638924  0.66405313  0.11691657  1
  O  O1  1  0.32638924  0.83594687  0.88308343  1
  O  O2  1  0.17361076  0.16405313  0.38308343  1
  O  O3  1  0.67361076  0.33594687  0.61691657  1
  O  O4  1  0.44619091  0.82125285  0.14882465  1
  O  O5  1  0.94619091  0.67874715  0.85117535  1
  O  O6  1  0.55380909  0.32125285  0.35117535  1
  O  O7  1  0.05380909  0.17874715  0.64882465  1
  O  O8  1  0.83237557  0.92797189  0.06841766  1
  O  O9  1  0.33237557  0.57202811  0.93158234  1
  O  O10  1  0.16762443  0.42797189  0.43158234  1
  O  O11  1  0.66762443  0.07202811  0.56841766  1
  O  O12  1  0.70238101  0.64751509  0.35143265  1
  O  O13  1  0.20238101  0.85248491  0.64856735  1
  O  O14  1  0.29761899  0.14751509  0.14856735  1
  O  O15  1  0.79761899  0.35248491  0.85143265  1
  O  O16  1  0.53263129  0.89627349  0.38454003  1
  O  O17  1  0.03263129  0.60372651  0.61545997  1
  O  O18  1  0.46736871  0.39627349  0.11545997  1
  O  O19  1  0.96736871  0.10372651  0.88454003  1
  O  O20  1  0.98439356  0.84398445  0.42125232  1
  O  O21  1  0.48439356  0.65601555  0.57874768  1
  O  O22  1  0.01560644  0.34398445  0.07874768  1
  O  O23  1  0.51560644  0.15601555  0.92125232  1
  O  O24  1  0.65188485  0.13846079  0.74652748  1
  O  O25  1  0.15188485  0.36153921  0.25347252  1
  O  O26  1  0.34811515  0.63846079  0.75347252  1
  O  O27  1  0.84811515  0.86153921  0.24652748  1
loop_
_geom_bond_atom_site_label_1
_geom_bond_atom_site_label_2
_geom_bond_distance
_geom_bond_site_symmetry_2
Na0 O13 2.289721 1_545
Na0 O19 2.299559 1_455
Na0 O7 2.360443 1_555
Na0 O24 2.386682 1_555
Na0 O1 2.401507 1_545
Na0 O23 2.770182 1_555
Na1 O12 2.289721 1_555
Na1 O18 2.299559 1_555
Na1 O6 2.360443 1_555
Na1 O25 2.386682 1_655
Na1 O0 2.401507 1_555
Na1 O22 2.770182 1_655
Na2 O15 2.289721 1_555
Na2 O17 2.299559 1_655
Na2 O5 2.360443 1_555
Na2 O26 2.386682 1_555
Na2 O3 2.401507 1_555
Na2 O21 2.770182 1_555
Na3 O14 2.289721 1_565
Na3 O16 2.299559 1_555
Na3 O4 2.360443 1_555
Na3 O27 2.386682 1_455
Na3 O2 2.401507 1_565
Na3 O20 2.770182 1_455
Na4 O2 2.325181 1_555
Na4 O13 2.335620 1_545
Na4 O11 2.349429 1_555
Na4 O20 2.469304 1_445
Na4 O16 2.470707 1_545
Na4 O7 2.660463 1_555
Na5 O3 2.325181 1_555
Na5 O12 2.335620 1_555
Na5 O10 2.349429 1_655
Na5 O21 2.469304 1_555
Na5 O17 2.470707 1_655
Na5 O6 2.660463 1_555
Na6 O0 2.325181 1_556
Na6 O15 2.335620 1_555
Na6 O9 2.349429 1_555
Na6 O22 2.469304 1_656
Na6 O18 2.470707 1_556
Na6 O5 2.660463 1_555
Na7 O1 2.325181 1_554
Na7 O14 2.335620 1_565
Na7 O8 2.349429 1_455
Na7 O23 2.469304 1_564
Na7 O19 2.470707 1_464
Na7 O4 2.660463 1_555
Na8 O8 2.315028 1_545
Na8 O22 2.316595 1_655
Na8 O23 2.389634 1_554
Na8 O14 2.390218 1_555
Na8 O18 2.536409 1_555
Na9 O9 2.315028 1_555
Na9 O23 2.316595 1_555
Na9 O22 2.389634 1_556
Na9 O15 2.390218 1_455
Na9 O19 2.536409 1_455
Na10 O10 2.315028 1_555
Na10 O20 2.316595 1_455
Na10 O21 2.389634 1_555
Na10 O12 2.390218 1_555
Na10 O16 2.536409 1_555
Na11 O11 2.315028 1_565
Na11 O21 2.316595 1_555
Na11 O20 2.389634 1_555
Na11 O13 2.390218 1_655
Na11 O17 2.536409 1_655
Na12 O4 2.258967 1_555
Na12 O9 2.292389 1_554
Na12 O0 2.307556 1_455
Na12 O18 2.400270 1_555
Na13 O5 2.258967 1_555
Na13 O8 2.292389 1_556
Na13 O1 2.307556 1_555
Na13 O19 2.400270 1_565
Na14 O6 2.258967 1_555
Na14 O11 2.292389 1_555
Na14 O2 2.307556 1_655
Na14 O16 2.400270 1_545
Na15 O7 2.258967 1_555
Na15 O10 2.292389 1_555
Na15 O3 2.307556 1_555
Na15 O17 2.400270 1_555
O0 P7 1.517648 1_555
O1 P6 1.517648 1_555
O2 P5 1.517648 1_555
O3 P4 1.517648 1_555
O4 P7 1.515808 1_555
O5 P6 1.515808 1_655
O6 P5 1.515808 1_555
O7 P4 1.515808 1_455
O8 P7 1.514499 1_555
O9 P6 1.514499 1_555
O10 P5 1.514499 1_555
O11 P4 1.514499 1_555
O12 P3 1.512088 1_555
O13 P2 1.512088 1_555
O14 P1 1.512088 1_555
O15 P0 1.512088 1_555
O16 P3 1.516730 1_555
O17 P2 1.516730 1_555
O18 P1 1.516730 1_555
O19 P0 1.516730 1_555
O20 P3 1.518727 1_555
O21 P2 1.518727 1_555
O22 P1 1.518727 1_555
O23 P0 1.518727 1_555
O24 P0 1.631813 1_555
O24 P4 1.646180 1_555
O25 P1 1.631813 1_555
O25 P5 1.646180 1_555
O26 P2 1.631813 1_555
O26 P6 1.646180 1_555
O27 P3 1.631813 1_555
O27 P7 1.646180 1_555
