# generated using pymatgen
data_Mg(VS2)2
_symmetry_space_group_name_H-M   'P 1'
_cell_length_a   3.26381400
_cell_length_b   3.26381327
_cell_length_c   12.99208800
_cell_angle_alpha   90.00000000
_cell_angle_beta   90.00000000
_cell_angle_gamma   120.00000735
_symmetry_Int_Tables_number   1
_chemical_formula_structural   Mg(VS2)2
_chemical_formula_sum   'Mg1 V2 S4'
_cell_volume   119.85613214
_cell_formula_units_Z   1
loop_
 _symmetry_equiv_pos_site_id
 _symmetry_equiv_pos_as_xyz
  1  'x, y, z'
loop_
 _atom_site_type_symbol
 _atom_site_label
 _atom_site_symmetry_multiplicity
 _atom_site_fract_x
 _atom_site_fract_y
 _atom_site_fract_z
 _atom_site_occupancy
  Mg  Mg0  1  0.00000000  0.00000000  0.50000000  1
  V  V0  1  0.66666700  0.33333300  0.74636900  1
  V  V1  1  0.33333300  0.66666700  0.25363100  1
  S  S0  1  0.33333300  0.66666700  0.85815300  1
  S  S1  1  0.66666700  0.33333300  0.37067800  1
  S  S2  1  0.33333300  0.66666700  0.62932200  1
  S  S3  1  0.66666700  0.33333300  0.14184700  1
loop_
_geom_bond_atom_site_label_1
_geom_bond_atom_site_label_2
_geom_bond_distance
_geom_bond_site_symmetry_2
Mg0 S2 2.524632 1_545
Mg0 S1 2.524632 1_455
Mg0 S2 2.524634 1_555
Mg0 S1 2.524634 1_445
Mg0 S2 2.524634 1_445
Mg0 S1 2.524634 1_555
S0 V0 2.379079 1_565
S0 V0 2.379079 1_455
S0 V0 2.379083 1_555
S1 V1 2.421425 1_545
S1 V1 2.421426 1_655
S1 V1 2.421430 1_555
S2 V0 2.421425 1_565
S2 V0 2.421426 1_455
S2 V0 2.421430 1_555
S3 V1 2.379079 1_545
S3 V1 2.379079 1_655
S3 V1 2.379083 1_555
