# generated using pymatgen
data_Ba3MgMnNb2O9
_symmetry_space_group_name_H-M   'P 1'
_cell_length_a   6.27967953
_cell_length_b   5.90790247
_cell_length_c   7.45105337
_cell_angle_alpha   89.93528194
_cell_angle_beta   85.44442128
_cell_angle_gamma   118.05092669
_symmetry_Int_Tables_number   1
_chemical_formula_structural   Ba3MgMnNb2O9
_chemical_formula_sum   'Ba3 Mg1 Mn1 Nb2 O9'
_cell_volume   242.95613474
_cell_formula_units_Z   1
loop_
 _symmetry_equiv_pos_site_id
 _symmetry_equiv_pos_as_xyz
  1  'x, y, z'
loop_
 _atom_site_type_symbol
 _atom_site_label
 _atom_site_symmetry_multiplicity
 _atom_site_fract_x
 _atom_site_fract_y
 _atom_site_fract_z
 _atom_site_occupancy
  Ba  Ba0  1  0.36243000  0.68193300  0.65599400  1
  Ba  Ba1  1  0.76588300  0.38466600  0.38483800  1
  Ba  Ba2  1  0.88892600  0.94492100  0.99053100  1
  Mg  Mg0  1  0.33627500  0.16756800  0.16757700  1
  Mn  Mn0  1  0.06608300  0.03358000  0.53523000  1
  Nb  Nb0  1  0.30671100  0.65272900  0.15612300  1
  Nb  Nb1  1  0.68075800  0.34079800  0.83010000  1
  O  O0  1  0.39954900  0.20002600  0.66009800  1
  O  O1  1  0.85151100  0.17829900  0.68166000  1
  O  O2  1  0.85101600  0.67437800  0.68174800  1
  O  O3  1  0.15859300  0.84299000  0.31430700  1
  O  O4  1  0.58773500  0.79104800  0.30361800  1
  O  O5  1  0.15581200  0.31255300  0.31260700  1
  O  O6  1  0.47345300  0.99718800  0.99363600  1
  O  O7  1  0.97584900  0.48853300  0.00537300  1
  O  O8  1  0.47275100  0.47545600  0.99322900  1
loop_
_geom_bond_atom_site_label_1
_geom_bond_atom_site_label_2
_geom_bond_distance
_geom_bond_site_symmetry_2
Ba0 O4 2.803434 1_555
Ba0 O0 2.958774 1_565
Ba0 O0 2.964137 1_555
Ba0 O8 3.057177 1_555
Ba0 O6 3.058120 1_555
Ba0 O2 3.110426 1_555
Ba0 O1 3.113298 1_565
Ba0 O1 3.179049 1_455
Ba0 O2 3.181182 1_455
Ba0 O7 3.218118 1_456
Ba0 O3 3.268534 1_555
Ba0 O5 3.296831 1_555
Ba1 O3 2.683326 1_655
Ba1 O5 2.690589 1_655
Ba1 O2 2.728629 1_555
Ba1 O1 2.732456 1_555
Ba1 O0 2.752063 1_555
Ba1 O7 2.958417 1_555
Ba1 Mg0 2.997976 1_555
Ba1 O4 3.164217 1_555
Ba1 O4 3.215498 1_545
Ba2 O4 2.742812 1_556
Ba2 O1 2.763356 1_565
Ba2 O2 2.764472 1_555
Ba2 O6 2.766063 1_555
Ba2 O8 2.774400 1_555
Ba2 O7 2.995551 1_556
Ba2 O7 2.997703 1_566
Mg0 O5 1.976412 1_555
Mg0 O3 1.976492 1_545
Mg0 O6 2.018945 1_544
Mg0 O8 2.020492 1_554
Mn0 O2 2.141090 1_445
Mn0 O1 2.142218 1_455
Mn0 O0 2.143027 1_555
Mn0 O5 2.181131 1_555
Mn0 O3 2.186892 1_545
Nb0 O4 1.985867 1_555
Nb0 O5 2.079544 1_555
Nb0 O3 2.080858 1_555
Nb0 O8 2.118035 1_554
Nb0 O6 2.119550 1_554
Nb0 O7 2.235431 1_455
Nb1 O2 2.018535 1_555
Nb1 O1 2.019138 1_555
Nb1 O0 2.095478 1_555
Nb1 O8 2.131622 1_555
Nb1 O6 2.134804 1_545
Nb1 O7 2.183365 1_556
