# generated using pymatgen
data_Fe(PO3)5
_symmetry_space_group_name_H-M   'P 1'
_cell_length_a   5.13076006
_cell_length_b   13.56131234
_cell_length_c   8.32003796
_cell_angle_alpha   90.00000000
_cell_angle_beta   95.73738595
_cell_angle_gamma   90.00000000
_symmetry_Int_Tables_number   1
_chemical_formula_structural   Fe(PO3)5
_chemical_formula_sum   'Fe2 P10 O30'
_cell_volume   576.00690283
_cell_formula_units_Z   2
loop_
 _symmetry_equiv_pos_site_id
 _symmetry_equiv_pos_as_xyz
  1  'x, y, z'
loop_
 _atom_site_type_symbol
 _atom_site_label
 _atom_site_symmetry_multiplicity
 _atom_site_fract_x
 _atom_site_fract_y
 _atom_site_fract_z
 _atom_site_occupancy
  Fe  Fe0  1  0.50000000  0.50000000  0.50000000  1
  Fe  Fe1  1  0.50000000  -0.00000000  0.50000000  1
  P  P0  1  0.66971718  0.92616111  0.16546291  1
  P  P1  1  0.99314759  0.63992908  0.45576732  1
  P  P2  1  0.00685241  0.13992908  0.54423268  1
  P  P3  1  0.00685241  0.36007092  0.54423268  1
  P  P4  1  0.33028282  0.07383889  0.83453709  1
  P  P5  1  0.33028282  0.42616111  0.83453709  1
  P  P6  1  0.99314759  0.86007092  0.45576732  1
  P  P7  1  0.54028537  0.25000000  0.00100978  1
  P  P8  1  0.66971718  0.57383889  0.16546291  1
  P  P9  1  0.45971463  0.75000000  0.99899022  1
  O  O0  1  0.54293401  0.99295046  0.28213527  1
  O  O1  1  0.76117255  0.97489730  0.02565237  1
  O  O2  1  0.23882745  0.02510270  0.97434763  1
  O  O3  1  0.23882745  0.47489730  0.97434763  1
  O  O4  1  0.07333085  0.25000000  0.50376638  1
  O  O5  1  0.09647116  0.13195354  0.73192829  1
  O  O6  1  0.09647116  0.36804646  0.73192829  1
  O  O7  1  0.21521844  0.75000000  0.88483435  1
  O  O8  1  0.17965262  0.07693569  0.45151487  1
  O  O9  1  0.17965262  0.42306431  0.45151487  1
  O  O10  1  0.28129595  0.62449082  0.48268575  1
  O  O11  1  0.28129595  0.87550918  0.48268575  1
  O  O12  1  0.45706599  0.00704954  0.71786473  1
  O  O13  1  0.45706599  0.49295046  0.71786473  1
  O  O14  1  0.53262643  0.16165112  0.87644057  1
  O  O15  1  0.53262643  0.33834888  0.87644057  1
  O  O16  1  0.31942903  0.25000000  0.10562986  1
  O  O17  1  0.68057097  0.75000000  0.89437014  1
  O  O18  1  0.46737357  0.66165112  0.12355943  1
  O  O19  1  0.92666915  0.75000000  0.49623362  1
  O  O20  1  0.54293401  0.50704954  0.28213527  1
  O  O21  1  0.46737357  0.83834888  0.12355943  1
  O  O22  1  0.71870405  0.12449082  0.51731425  1
  O  O23  1  0.71870405  0.37550918  0.51731425  1
  O  O24  1  0.82034738  0.57693569  0.54848513  1
  O  O25  1  0.82034738  0.92306431  0.54848513  1
  O  O26  1  0.78478156  0.25000000  0.11516565  1
  O  O27  1  0.90352884  0.63195354  0.26807171  1
  O  O28  1  0.90352884  0.86804646  0.26807171  1
  O  O29  1  0.76117255  0.52510270  0.02565237  1
loop_
_geom_bond_atom_site_label_1
_geom_bond_atom_site_label_2
_geom_bond_distance
_geom_bond_site_symmetry_2
Fe0 O20 1.850182 1_555
Fe0 O13 1.850182 1_555
Fe0 O9 1.954545 1_555
Fe0 O24 1.954545 1_555
Fe0 O10 2.024302 1_555
Fe0 O23 2.024302 1_555
Fe1 O0 1.850182 1_545
Fe1 O12 1.850182 1_555
Fe1 O8 1.954545 1_555
Fe1 O25 1.954545 1_545
Fe1 O22 2.024302 1_555
Fe1 O11 2.024302 1_545
O0 P0 1.520550 1_555
O1 P0 1.455761 1_555
O2 P4 1.455761 1_555
O3 P5 1.455761 1_555
O4 P2 1.575063 1_555
O4 P3 1.575063 1_555
O5 P2 1.586903 1_555
O5 P4 1.607573 1_555
O6 P3 1.586903 1_555
O6 P5 1.607573 1_555
O7 P9 1.495833 1_555
O8 P2 1.499221 1_555
O9 P3 1.499221 1_555
O10 P1 1.487789 1_455
O11 P6 1.487789 1_455
O12 P4 1.520550 1_555
O13 P5 1.520550 1_555
O14 P7 1.582111 1_556
O14 P4 1.595341 1_555
O15 P7 1.582111 1_556
O15 P5 1.595341 1_555
O16 P7 1.496307 1_555
O17 P9 1.496307 1_555
O18 P9 1.582111 1_554
O18 P8 1.595341 1_555
O19 P1 1.575063 1_555
O19 P6 1.575063 1_555
O20 P8 1.520550 1_555
O21 P9 1.582111 1_554
O21 P0 1.595341 1_555
O22 P2 1.487789 1_655
O23 P3 1.487789 1_655
O24 P1 1.499221 1_555
O25 P6 1.499221 1_555
O26 P7 1.495833 1_555
O27 P1 1.586903 1_555
O27 P8 1.607573 1_555
O28 P6 1.586903 1_555
O28 P0 1.607573 1_555
O29 P8 1.455761 1_555
