# generated using pymatgen
data_Gd3CCl3
_symmetry_space_group_name_H-M   'P 1'
_cell_length_a   9.33506779
_cell_length_b   9.33507665
_cell_length_c   9.34021573
_cell_angle_alpha   109.44955450
_cell_angle_beta   109.44957747
_cell_angle_gamma   109.50801729
_symmetry_Int_Tables_number   1
_chemical_formula_structural   Gd3CCl3
_chemical_formula_sum   'Gd12 C4 Cl12'
_cell_volume   626.62132314
_cell_formula_units_Z   4
loop_
 _symmetry_equiv_pos_site_id
 _symmetry_equiv_pos_as_xyz
  1  'x, y, z'
loop_
 _atom_site_type_symbol
 _atom_site_label
 _atom_site_symmetry_multiplicity
 _atom_site_fract_x
 _atom_site_fract_y
 _atom_site_fract_z
 _atom_site_occupancy
  Gd  Gd0  1  0.48301288  0.74878688  0.01670301  1
  Gd  Gd1  1  0.74625097  0.23249412  0.26660855  1
  Gd  Gd2  1  0.23249268  0.26750704  0.74999997  1
  Gd  Gd3  1  0.46465524  0.48201007  0.23305604  1
  Gd  Gd4  1  0.26877758  0.01597471  0.03539286  1
  Gd  Gd5  1  0.23257394  0.46415436  0.48253695  1
  Gd  Gd6  1  0.01799021  0.03534588  0.26694472  1
  Gd  Gd7  1  0.01589545  0.48410422  0.74999998  1
  Gd  Gd8  1  0.48402540  0.23122189  0.46460655  1
  Gd  Gd9  1  0.75121358  0.01698792  0.48329826  1
  Gd  Gd10  1  0.03584481  0.26742504  0.01746340  1
  Gd  Gd11  1  0.26750513  0.75374964  0.23339157  1
  C  C0  1  0.25028281  0.24971724  0.24999996  1
  C  C1  1  -0.00123319  0.25079125  0.50163382  1
  C  C2  1  0.24920887  0.50123441  0.99836834  1
  C  C3  1  0.50267149  -0.00267192  0.24999984  1
  Cl  Cl0  1  0.99348264  0.98442075  0.74338551  1
  Cl  Cl1  1  0.75787136  0.74212646  0.24999952  1
  Cl  Cl2  1  0.98286051  0.74255824  0.99193348  1
  Cl  Cl3  1  0.24946410  0.99316333  0.50807110  1
  Cl  Cl4  1  0.74249971  0.99389196  0.98582456  1
  Cl  Cl5  1  0.50683685  0.25053543  0.99192846  1
  Cl  Cl6  1  0.74307460  0.24971331  0.75786640  1
  Cl  Cl7  1  0.50610806  0.75750020  0.51417541  1
  Cl  Cl8  1  0.75744204  0.51713939  0.50806708  1
  Cl  Cl9  1  0.25028913  0.75692455  0.74213123  1
  Cl  Cl10  1  0.51557951  0.50651731  0.75661510  1
  Cl  Cl11  1  0.99332264  0.50667731  0.25000032  1
loop_
_geom_bond_atom_site_label_1
_geom_bond_atom_site_label_2
_geom_bond_distance
_geom_bond_site_symmetry_2
C0 Gd6 2.504641 1_555
C0 Gd3 2.504643 1_555
C0 Gd10 2.513267 1_555
C0 Gd5 2.513273 1_555
C0 Gd8 2.525513 1_555
C0 Gd4 2.525514 1_555
C1 Gd9 2.500446 1_455
C1 Gd7 2.511240 1_555
C1 Gd2 2.515374 1_555
C1 Gd5 2.520939 1_555
C1 Gd1 2.537715 1_455
C1 Gd6 2.539538 1_555
C2 Gd0 2.500450 1_556
C2 Gd7 2.511245 1_555
C2 Gd2 2.515395 1_555
C2 Gd10 2.520946 1_556
C2 Gd11 2.537708 1_556
C2 Gd3 2.539538 1_556
C3 Gd11 2.493615 1_545
C3 Gd1 2.493616 1_555
C3 Gd0 2.499493 1_545
C3 Gd9 2.499498 1_555
C3 Gd8 2.527269 1_555
C3 Gd4 2.527272 1_555
Cl0 Gd10 2.795241 1_666
Cl0 Gd2 2.797681 1_665
Cl0 Gd9 2.898426 1_565
Cl0 Gd4 2.901988 1_666
Cl1 Gd0 2.794446 1_555
Cl1 Gd9 2.794462 1_565
Cl1 Gd3 2.903453 1_555
Cl1 Gd6 2.903476 1_665
Cl2 Gd11 2.797249 1_656
Cl2 Gd4 2.800333 1_666
Cl2 Gd6 2.888061 1_666
Cl2 Gd7 2.890102 1_655
Cl3 Gd6 2.795442 1_565
Cl3 Gd8 2.800148 1_565
Cl3 Gd11 2.885497 1_555
Cl3 Gd2 2.888859 1_565
Cl4 Gd6 2.796363 1_666
Cl4 Gd1 2.799455 1_566
Cl4 Gd0 2.896406 1_556
Cl4 Gd10 2.897377 1_666
Cl5 Gd3 2.795448 1_556
Cl5 Gd4 2.800148 1_556
Cl5 Gd1 2.885502 1_556
Cl5 Gd2 2.888859 1_555
Cl6 Gd7 2.790894 1_655
Cl6 Gd9 2.798577 1_555
Cl6 Gd8 2.894058 1_555
Cl6 Gd10 2.897244 1_656
Cl7 Gd3 2.796364 1_555
Cl7 Gd11 2.799459 1_555
Cl7 Gd9 2.896406 1_565
Cl7 Gd5 2.897388 1_555
Cl8 Gd1 2.797260 1_555
Cl8 Gd8 2.800331 1_555
Cl8 Gd3 2.888054 1_555
Cl8 Gd7 2.890095 1_655
Cl9 Gd7 2.790917 1_555
Cl9 Gd0 2.798583 1_556
Cl9 Gd4 2.894091 1_566
Cl9 Gd5 2.897216 1_555
Cl10 Gd5 2.795244 1_555
Cl10 Gd2 2.797681 1_555
Cl10 Gd0 2.898431 1_556
Cl10 Gd8 2.901999 1_555
Cl11 Gd5 2.792655 1_655
Cl11 Gd10 2.792659 1_655
Cl11 Gd1 2.907713 1_555
Cl11 Gd11 2.907715 1_655
