# generated using pymatgen
data_In(MoSe)3
_symmetry_space_group_name_H-M   'P 1'
_cell_length_a   9.20762238
_cell_length_b   9.20762238
_cell_length_c   4.51345400
_cell_angle_alpha   90.00000000
_cell_angle_beta   90.00000000
_cell_angle_gamma   120.00000274
_symmetry_Int_Tables_number   1
_chemical_formula_structural   In(MoSe)3
_chemical_formula_sum   'In2 Mo6 Se6'
_cell_volume   331.38636867
_cell_formula_units_Z   2
loop_
 _symmetry_equiv_pos_site_id
 _symmetry_equiv_pos_as_xyz
  1  'x, y, z'
loop_
 _atom_site_type_symbol
 _atom_site_label
 _atom_site_symmetry_multiplicity
 _atom_site_fract_x
 _atom_site_fract_y
 _atom_site_fract_z
 _atom_site_occupancy
  In  In0  1  0.66666700  0.33333300  0.75000000  1
  In  In1  1  0.33333300  0.66666700  0.25000000  1
  Mo  Mo0  1  0.17457200  0.15722400  0.75000000  1
  Mo  Mo1  1  0.84277600  0.01734800  0.75000000  1
  Mo  Mo2  1  0.98265200  0.82542800  0.75000000  1
  Mo  Mo3  1  0.82542800  0.84277600  0.25000000  1
  Mo  Mo4  1  0.15722400  0.98265200  0.25000000  1
  Mo  Mo5  1  0.01734800  0.17457200  0.25000000  1
  Se  Se0  1  0.31435800  0.96571800  0.75000000  1
  Se  Se1  1  0.03428200  0.34864000  0.75000000  1
  Se  Se2  1  0.65136000  0.68564200  0.75000000  1
  Se  Se3  1  0.68564200  0.03428200  0.25000000  1
  Se  Se4  1  0.96571800  0.65136000  0.25000000  1
  Se  Se5  1  0.34864000  0.31435800  0.25000000  1
loop_
_geom_bond_atom_site_label_1
_geom_bond_atom_site_label_2
_geom_bond_distance
_geom_bond_site_symmetry_2
In0 Se1 3.316636 1_655
In0 Se0 3.316640 1_545
In0 Se2 3.316646 1_555
In1 Se4 3.316636 1_455
In1 Se3 3.316640 1_565
In1 Se5 3.316646 1_555
Mo0 Se0 2.652443 1_545
Mo0 Se1 2.655487 1_555
Mo0 Mo2 2.656580 1_445
Mo0 Mo1 2.656580 1_455
Mo0 Se5 2.726910 1_555
Mo0 Se5 2.726910 1_556
Mo0 Mo4 2.728606 1_546
Mo0 Mo4 2.728606 1_545
Mo0 Mo5 2.728606 1_555
Mo0 Mo5 2.728606 1_556
Mo1 Se1 2.652443 1_655
Mo1 Se2 2.655487 1_545
Mo1 Mo2 2.656580 1_545
Mo1 Se3 2.726910 1_556
Mo1 Se3 2.726910 1_555
Mo1 Mo5 2.728606 1_655
Mo1 Mo5 2.728606 1_656
Mo1 Mo3 2.728606 1_545
Mo1 Mo3 2.728606 1_546
Mo2 Se2 2.652443 1_555
Mo2 Se0 2.655487 1_655
Mo2 Se4 2.726910 1_556
Mo2 Se4 2.726910 1_555
Mo2 Mo4 2.728606 1_656
Mo2 Mo4 2.728606 1_655
Mo2 Mo3 2.728606 1_556
Mo2 Mo3 2.728606 1_555
Mo3 Se3 2.652443 1_565
Mo3 Se4 2.655487 1_555
Mo3 Mo5 2.656580 1_665
Mo3 Mo4 2.656580 1_655
Mo3 Se2 2.726910 1_555
Mo3 Se2 2.726910 1_554
Mo4 Se4 2.652443 1_455
Mo4 Se5 2.655487 1_565
Mo4 Mo5 2.656580 1_565
Mo4 Se0 2.726910 1_555
Mo4 Se0 2.726910 1_554
Mo5 Se5 2.652443 1_555
Mo5 Se3 2.655487 1_455
Mo5 Se1 2.726910 1_554
Mo5 Se1 2.726910 1_555
