# generated using pymatgen
data_Na6ZnSn7(PO4)12
_symmetry_space_group_name_H-M   'P 1'
_cell_length_a   17.54574474
_cell_length_b   8.79089149
_cell_length_c   22.80826889
_cell_angle_alpha   90.04540431
_cell_angle_beta   89.94746190
_cell_angle_gamma   120.05702811
_symmetry_Int_Tables_number   1
_chemical_formula_structural   Na6ZnSn7(PO4)12
_chemical_formula_sum   'Na18 Zn3 Sn21 P36 O144'
_cell_volume   3044.93209369
_cell_formula_units_Z   3
loop_
 _symmetry_equiv_pos_site_id
 _symmetry_equiv_pos_as_xyz
  1  'x, y, z'
loop_
 _atom_site_type_symbol
 _atom_site_label
 _atom_site_symmetry_multiplicity
 _atom_site_fract_x
 _atom_site_fract_y
 _atom_site_fract_z
 _atom_site_occupancy
  Na  Na0  1  0.68796598  0.36497958  0.24609121  1
  Na  Na1  1  0.99399019  0.62292032  0.24586211  1
  Na  Na2  1  0.99362499  0.36270942  0.74359739  1
  Na  Na3  1  0.49379976  0.36293207  0.74352776  1
  Na  Na4  1  0.18700951  0.00902919  0.74372666  1
  Na  Na5  1  0.68712622  0.00918134  0.74392409  1
  Na  Na6  1  0.99975055  0.99966457  0.50084679  1
  Na  Na7  1  0.49980540  0.99952582  0.50088341  1
  Na  Na8  1  0.99803121  0.99728034  0.00175667  1
  Na  Na9  1  0.50164106  0.00255347  0.00132041  1
  Na  Na10  1  0.33295706  0.34307659  0.83060275  1
  Na  Na11  1  0.83280618  0.34289978  0.83163640  1
  Na  Na12  1  0.33324793  0.33436026  0.33529988  1
  Na  Na13  1  0.83300278  0.32133969  0.33180771  1
  Na  Na14  1  0.16912555  0.66430739  0.16557532  1
  Na  Na15  1  0.66886489  0.67936857  0.16477817  1
  Na  Na16  1  0.17130055  0.66553819  0.66084045  1
  Na  Na17  1  0.67138420  0.66568446  0.66093340  1
  Zn  Zn0  1  0.33289459  0.34092418  0.67863459  1
  Zn  Zn1  1  0.83289971  0.34094709  0.67867788  1
  Zn  Zn2  1  0.83306117  0.32259371  0.18145805  1
  Sn  Sn0  1  0.00109642  0.00373271  0.35357387  1
  Sn  Sn1  1  0.49849388  0.99733117  0.35336547  1
  Sn  Sn2  1  0.99947396  0.99827293  0.85377499  1
  Sn  Sn3  1  0.49973597  0.99826614  0.85393165  1
  Sn  Sn4  1  0.99908510  0.99789380  0.64551844  1
  Sn  Sn5  1  0.49916188  0.99792081  0.64556634  1
  Sn  Sn6  1  0.99799119  0.00095769  0.14700985  1
  Sn  Sn7  1  0.50097666  0.99968491  0.14708734  1
  Sn  Sn8  1  0.33341185  0.33477849  0.18521674  1
  Sn  Sn9  1  0.33345264  0.33243914  0.98148159  1
  Sn  Sn10  1  0.83341123  0.33315382  0.98368794  1
  Sn  Sn11  1  0.33337442  0.33318166  0.48335498  1
  Sn  Sn12  1  0.83343550  0.33435445  0.48274878  1
  Sn  Sn13  1  0.16573279  0.66663363  0.01967742  1
  Sn  Sn14  1  0.66753346  0.66672063  0.01958737  1
  Sn  Sn15  1  0.16656103  0.66676244  0.51888691  1
  Sn  Sn16  1  0.66656530  0.66643742  0.51900142  1
  Sn  Sn17  1  0.16955397  0.66566673  0.31570888  1
  Sn  Sn18  1  0.66611391  0.67251217  0.31641260  1
  Sn  Sn19  1  0.16865251  0.66564133  0.81681986  1
  Sn  Sn20  1  0.66903067  0.66610914  0.81696759  1
  P  P0  1  0.14630095  0.00149313  0.25013052  1
  P  P1  1  0.64578872  0.99864464  0.25034238  1
  P  P2  1  0.35448517  0.70863378  0.24944121  1
  P  P3  1  0.85340589  0.70990523  0.25090771  1
  P  P4  1  0.00005125  0.29199178  0.25061832  1
  P  P5  1  0.49896425  0.29105849  0.25058593  1
  P  P6  1  0.14619513  0.29163215  0.75072469  1
  P  P7  1  0.64619949  0.29192212  0.75070786  1
  P  P8  1  0.99877802  0.70707425  0.75128480  1
  P  P9  1  0.49873047  0.70692063  0.75133014  1
  P  P10  1  0.35404142  0.99762741  0.75068067  1
  P  P11  1  0.85396393  0.99768304  0.75052963  1
  P  P12  1  0.48026838  0.33375040  0.58496158  1
  P  P13  1  0.98025885  0.33393473  0.58486106  1
  P  P14  1  0.18694137  0.03926958  0.58501492  1
  P  P15  1  0.68704694  0.03951143  0.58491854  1
  P  P16  1  0.33273944  0.62568890  0.58361794  1
  P  P17  1  0.83275941  0.62560006  0.58351883  1
  P  P18  1  0.47927682  0.62538024  0.08300265  1
  P  P19  1  0.98007018  0.62784388  0.08505994  1
  P  P20  1  0.33366803  0.04176712  0.08349197  1
  P  P21  1  0.83317801  0.04037367  0.08323207  1
  P  P22  1  0.18713522  0.33309642  0.08307301  1
  P  P23  1  0.68646990  0.33325261  0.08500419  1
  P  P24  1  0.31338365  0.66602628  0.91803897  1
  P  P25  1  0.81391385  0.66451704  0.91761986  1
  P  P26  1  0.01904851  0.37267667  0.91668564  1
  P  P27  1  0.51970622  0.37339536  0.91666005  1
  P  P28  1  0.16714915  0.96110585  0.91653612  1
  P  P29  1  0.66739887  0.96127436  0.91693904  1
  P  P30  1  0.31282041  0.96082090  0.41691397  1
  P  P31  1  0.81349600  0.96179273  0.41750805  1
  P  P32  1  0.16773154  0.37374061  0.41741311  1
  P  P33  1  0.66702041  0.37386621  0.41586370  1
  P  P34  1  0.01988977  0.66598072  0.41590391  1
  P  P35  1  0.51914926  0.66468524  0.41736390  1
  O  O0  1  0.10711946  0.03356715  0.30574982  1
  O  O1  1  0.60351370  0.03422889  0.30492258  1
  O  O2  1  0.40967020  0.78618172  0.30522814  1
  O  O3  1  0.91325225  0.79327592  0.30507905  1
  O  O4  1  0.48270385  0.17855697  0.30564390  1
  O  O5  1  0.98632254  0.18123580  0.30605709  1
  O  O6  1  0.10481611  0.17584376  0.80611893  1
  O  O7  1  0.60485220  0.17604279  0.80614178  1
  O  O8  1  0.48527619  0.78983502  0.80710934  1
  O  O9  1  0.98561417  0.79013857  0.80703613  1
  O  O10  1  0.41200140  0.03270045  0.80592243  1
  O  O11  1  0.91198651  0.03306785  0.80570743  1
  O  O12  1  0.39414615  0.96216322  0.69627218  1
  O  O13  1  0.89409683  0.96206818  0.69616800  1
  O  O14  1  0.08435289  0.21223299  0.69701206  1
  O  O15  1  0.58432444  0.21247535  0.69700150  1
  O  O16  1  0.02154351  0.82994645  0.69759456  1
  O  O17  1  0.52147466  0.82985582  0.69766035  1
  O  O18  1  0.39397368  0.82161776  0.19411753  1
  O  O19  1  0.89269235  0.82386763  0.19575820  1
  O  O20  1  0.01937699  0.21413368  0.19566436  1
  O  O21  1  0.51911247  0.21377798  0.19561053  1
  O  O22  1  0.08696745  0.96129292  0.19553630  1
  O  O23  1  0.58756845  0.96156400  0.19518226  1
  O  O24  1  0.44421208  0.36283383  0.64203972  1
  O  O25  1  0.94423716  0.36281350  0.64206491  1
  O  O26  1  0.23772976  0.11051110  0.64207808  1
  O  O27  1  0.73773229  0.11089747  0.64207163  1
  O  O28  1  0.31683814  0.51973692  0.63889310  1
  O  O29  1  0.81676293  0.51956062  0.63884451  1
  O  O30  1  0.44000314  0.51250460  0.13850186  1
  O  O31  1  0.94327607  0.52467825  0.14154381  1
  O  O32  1  0.31702175  0.12190415  0.13878676  1
  O  O33  1  0.81711881  0.11604919  0.13823986  1
  O  O34  1  0.24374968  0.36756596  0.13856419  1
  O  O35  1  0.73800869  0.36340271  0.14155707  1
  O  O36  1  0.22692981  0.29974591  0.02761408  1
  O  O37  1  0.72602143  0.30078784  0.02881233  1
  O  O38  1  0.42278044  0.54571171  0.02763622  1
  O  O39  1  0.92478262  0.54813822  0.02876780  1
  O  O40  1  0.35015478  0.15343453  0.02782608  1
  O  O41  1  0.84955357  0.14907771  0.02640031  1
  O  O42  1  0.22740942  0.15242904  0.52947155  1
  O  O43  1  0.72750126  0.15288115  0.52936708  1
  O  O44  1  0.34922746  0.54839184  0.52711980  1
  O  O45  1  0.84920554  0.54842829  0.52697356  1
  O  O46  1  0.42378652  0.30229726  0.52940754  1
  O  O47  1  0.92370030  0.30249783  0.52934605  1
  O  O48  1  0.27197046  0.69906566  0.97229243  1
  O  O49  1  0.77270599  0.69915806  0.97149950  1
  O  O50  1  0.07860529  0.45731487  0.97024470  1
  O  O51  1  0.57792216  0.45889702  0.97030332  1
  O  O52  1  0.15164221  0.84507456  0.97031679  1
  O  O53  1  0.65046470  0.84245699  0.97025928  1
  O  O54  1  0.27247319  0.84554768  0.47122730  1
  O  O55  1  0.77233451  0.84605636  0.47161644  1
  O  O56  1  0.15063437  0.45526630  0.47162017  1
  O  O57  1  0.65073458  0.45789483  0.46967986  1
  O  O58  1  0.07821223  0.69883820  0.46979826  1
  O  O59  1  0.57717930  0.69892009  0.47149722  1
  O  O60  1  0.05851867  0.63519011  0.35823407  1
  O  O61  1  0.55771826  0.63019620  0.36094861  1
  O  O62  1  0.25707757  0.88285818  0.36051055  1
  O  O63  1  0.75795663  0.88463718  0.36098667  1
  O  O64  1  0.18446995  0.48416342  0.36086340  1
  O  O65  1  0.68231949  0.48155340  0.35820335  1
  O  O66  1  0.05730252  0.48105827  0.85897511  1
  O  O67  1  0.55739568  0.48091563  0.85891751  1
  O  O68  1  0.18308430  0.88532745  0.85881671  1
  O  O69  1  0.68279604  0.88524379  0.85889771  1
  O  O70  1  0.25780185  0.63129047  0.86147956  1
  O  O71  1  0.75827438  0.63005827  0.86093566  1
  O  O72  1  0.01152957  0.83290957  0.41090417  1
  O  O73  1  0.51107506  0.83194871  0.41184463  1
  O  O74  1  0.40469540  0.97677982  0.41141680  1
  O  O75  1  0.90528897  0.97779178  0.41213619  1
  O  O76  1  0.08397056  0.19000223  0.41238121  1
  O  O77  1  0.58310370  0.19009182  0.41080377  1
  O  O78  1  0.01124755  0.18984788  0.91160218  1
  O  O79  1  0.51119988  0.19002519  0.91195509  1
  O  O80  1  0.08386140  0.97773472  0.91204671  1
  O  O81  1  0.58345978  0.97699860  0.91227291  1
  O  O82  1  0.40488956  0.83326308  0.91285841  1
  O  O83  1  0.90536413  0.83236118  0.91229939  1
  O  O84  1  0.48982749  0.16656221  0.58737601  1
  O  O85  1  0.98993167  0.16680877  0.58740339  1
  O  O86  1  0.09379364  0.02128407  0.58754060  1
  O  O87  1  0.59382271  0.02144062  0.58754773  1
  O  O88  1  0.41692297  0.81201575  0.58697088  1
  O  O89  1  0.91684782  0.81187160  0.58688121  1
  O  O90  1  0.48741758  0.80846382  0.08819287  1
  O  O91  1  0.99098255  0.81515467  0.08785062  1
  O  O92  1  0.41670816  0.02418418  0.08906908  1
  O  O93  1  0.91705094  0.02160104  0.08647089  1
  O  O94  1  0.09553250  0.16723045  0.08859139  1
  O  O95  1  0.59278405  0.16489979  0.08741548  1
  O  O96  1  0.34331484  0.15979429  0.74645306  1
  O  O97  1  0.84322574  0.15987596  0.74626586  1
  O  O98  1  0.23578718  0.30685975  0.74558218  1
  O  O99  1  0.73583421  0.30710947  0.74548268  1
  O  O100  1  0.42091445  0.52176612  0.74628263  1
  O  O101  1  0.92091821  0.52184960  0.74627090  1
  O  O102  1  0.34504349  0.52411720  0.24401690  1
  O  O103  1  0.84332033  0.52651581  0.24652907  1
  O  O104  1  0.41709628  0.31125641  0.24438778  1
  O  O105  1  0.92070373  0.31879996  0.24622186  1
  O  O106  1  0.23844698  0.16556197  0.24404086  1
  O  O107  1  0.73547296  0.16557514  0.24594751  1
  O  O108  1  0.32213800  0.50035367  0.92293109  1
  O  O109  1  0.82262530  0.49940073  0.92309714  1
  O  O110  1  0.42806395  0.35697279  0.92179289  1
  O  O111  1  0.92811868  0.35725765  0.92227869  1
  O  O112  1  0.25062426  0.14416393  0.92174978  1
  O  O113  1  0.75024867  0.14373119  0.92250426  1
  O  O114  1  0.32216927  0.14427018  0.42254284  1
  O  O115  1  0.82224585  0.14497626  0.42301756  1
  O  O116  1  0.25038068  0.35544896  0.42273784  1
  O  O117  1  0.75014227  0.35697300  0.42156860  1
  O  O118  1  0.42756501  0.49858929  0.42259257  1
  O  O119  1  0.92842619  0.49954520  0.42168143  1
  O  O120  1  0.17892284  0.50033307  0.07773996  1
  O  O121  1  0.67563703  0.49800866  0.07763981  1
  O  O122  1  0.07326929  0.64616517  0.07794719  1
  O  O123  1  0.57123233  0.64318304  0.07763456  1
  O  O124  1  0.25032908  0.85768918  0.07811718  1
  O  O125  1  0.74964775  0.85393434  0.07716509  1
  O  O126  1  0.17690754  0.85389258  0.57752567  1
  O  O127  1  0.67696060  0.85396626  0.57769251  1
  O  O128  1  0.24984130  0.64630585  0.57713712  1
  O  O129  1  0.74973679  0.64573533  0.57704266  1
  O  O130  1  0.07294725  0.50073107  0.57771139  1
  O  O131  1  0.57293974  0.50021262  0.57768123  1
  O  O132  1  0.15191170  0.82995195  0.25576607  1
  O  O133  1  0.65222503  0.82943352  0.25589819  1
  O  O134  1  0.26216670  0.69152059  0.25455222  1
  O  O135  1  0.75950807  0.68740308  0.25646618  1
  O  O136  1  0.08454483  0.48073954  0.25551684  1
  O  O137  1  0.58519338  0.47299533  0.25638384  1
  O  O138  1  0.14927219  0.47254334  0.75667219  1
  O  O139  1  0.64920537  0.47267205  0.75666683  1
  O  O140  1  0.08635031  0.69604120  0.75663837  1
  O  O141  1  0.58624331  0.69589789  0.75673492  1
  O  O142  1  0.26011121  0.83099502  0.75598571  1
  O  O143  1  0.76005705  0.83107486  0.75588212  1
loop_
_geom_bond_atom_site_label_1
_geom_bond_atom_site_label_2
_geom_bond_distance
_geom_bond_site_symmetry_2
Na0 O107 2.287199 1_555
Na0 O103 2.359924 1_555
Na0 O137 2.433609 1_555
Na0 O135 2.469999 1_555
Na0 O35 2.542451 1_555
Na0 O65 2.774125 1_555
Na0 O21 2.815826 1_555
Na0 O1 2.852544 1_555
Na1 O105 2.314607 1_555
Na1 O103 2.337269 1_555
Na1 O132 2.447425 1_655
Na1 O136 2.474988 1_655
Na1 O31 2.535671 1_555
Na1 O60 2.782999 1_655
Na1 O22 2.822779 1_655
Na1 O3 2.862194 1_555
Na2 O101 2.318565 1_555
Na2 O97 2.330914 1_555
Na2 O138 2.416386 1_655
Na2 O25 2.473503 1_555
Na2 O140 2.558488 1_655
Na2 O14 2.741719 1_655
Na2 O66 2.844732 1_655
Na2 O11 2.881119 1_555
Na3 O100 2.318920 1_555
Na3 O96 2.332728 1_555
Na3 O139 2.412764 1_555
Na3 O24 2.473474 1_555
Na3 O141 2.555964 1_555
Na3 O15 2.738134 1_555
Na3 O67 2.844145 1_555
Na3 O10 2.888223 1_555
Na4 O98 2.311812 1_555
Na4 O96 2.375046 1_555
Na4 O140 2.430831 1_545
Na4 O26 2.483376 1_555
Na4 O142 2.486965 1_545
Na4 O16 2.727415 1_545
Na4 O68 2.829683 1_545
Na4 O6 2.892535 1_555
Na5 O99 2.312756 1_555
Na5 O97 2.371679 1_555
Na5 O141 2.433175 1_545
Na5 O143 2.484269 1_545
Na5 O27 2.487736 1_555
Na5 O17 2.731195 1_545
Na5 O69 2.826798 1_545
Na5 O7 2.891958 1_555
Na6 O89 2.507235 1_555
Na6 O85 2.516844 1_565
Na6 O86 2.521886 1_665
Na6 O75 2.562055 1_555
Na6 O76 2.564704 1_665
Na6 O72 2.588046 1_655
Na7 O88 2.507178 1_555
Na7 O84 2.516121 1_565
Na7 O87 2.520424 1_565
Na7 O73 2.572902 1_555
Na7 O74 2.580716 1_555
Na7 O77 2.590568 1_565
Na8 O93 2.469110 1_565
Na8 O91 2.498154 1_555
Na8 O94 2.553923 1_665
Na8 O83 2.559037 1_554
Na8 O80 2.595585 1_654
Na8 O78 2.599833 1_664
Na9 O95 2.483001 1_555
Na9 O90 2.545068 1_545
Na9 O92 2.557392 1_555
Na9 O81 2.559952 1_544
Na9 O79 2.574205 1_554
Na9 O82 2.576496 1_544
Na10 O100 2.473631 1_555
Na10 O98 2.495964 1_555
Na10 O96 2.569156 1_555
Na10 O108 2.576781 1_555
Na10 O110 2.631967 1_555
Na10 O112 2.633671 1_555
Na11 O101 2.493769 1_555
Na11 O99 2.514777 1_555
Na11 O109 2.552898 1_555
Na11 O97 2.588931 1_555
Na11 O111 2.623207 1_555
Na11 O113 2.630378 1_555
Na12 O116 2.527799 1_555
Na12 O118 2.528868 1_555
Na12 O114 2.543413 1_555
Na12 O104 2.607351 1_555
Na12 O102 2.611347 1_555
Na12 O106 2.613449 1_555
Na13 O105 2.491532 1_555
Na13 O107 2.508586 1_555
Na13 O115 2.545273 1_555
Na13 O103 2.597522 1_555
Na13 O119 2.614023 1_555
Na13 O117 2.617810 1_555
Na14 O120 2.522683 1_555
Na14 O134 2.540632 1_555
Na14 O124 2.544200 1_555
Na14 O122 2.566256 1_555
Na14 O136 2.572054 1_555
Na14 O132 2.622584 1_555
Na15 O125 2.485555 1_555
Na15 O123 2.538818 1_555
Na15 O133 2.554445 1_555
Na15 O121 2.586567 1_555
Na15 O135 2.607875 1_555
Na15 O137 2.672909 1_555
Na16 O128 2.408411 1_555
Na16 O130 2.483767 1_555
Na16 O126 2.490751 1_555
Na16 O142 2.642702 1_555
Na16 O138 2.674474 1_555
Na16 O140 2.731513 1_555
Na17 O129 2.412046 1_555
Na17 O131 2.487932 1_555
Na17 O127 2.489210 1_555
Na17 O143 2.638112 1_555
Na17 O139 2.672270 1_555
Na17 O141 2.732624 1_555
O0 P0 1.534084 1_555
O0 Sn0 2.056000 1_555
O1 P1 1.558169 1_545
O1 Sn1 2.029653 1_545
O2 P2 1.536537 1_555
O2 Sn1 2.044954 1_555
O3 P3 1.548024 1_555
O3 Sn0 2.040907 1_665
O4 P5 1.534645 1_555
O4 Sn1 2.060338 1_545
O5 P4 1.539912 1_655
O5 Sn0 2.021144 1_655
O6 P6 1.555497 1_555
O6 Sn2 2.035499 1_445
O7 P7 1.556492 1_555
O7 Sn3 2.035627 1_545
O8 P9 1.541400 1_555
O8 Sn3 2.023336 1_555
O9 P8 1.539621 1_555
O9 Sn2 2.023608 1_555
O10 P10 1.550619 1_545
O10 Sn3 2.032419 1_545
O11 P11 1.549690 1_545
O11 Sn2 2.031207 1_545
O12 P10 1.532930 1_555
O12 Sn5 2.061044 1_555
O13 P11 1.532916 1_555
O13 Sn4 2.059754 1_555
O14 P6 1.551716 1_555
O14 Sn4 2.084201 1_445
O15 P7 1.551918 1_555
O15 Sn5 2.083992 1_545
O16 P8 1.547543 1_455
O16 Sn4 2.081408 1_455
O17 P9 1.547523 1_555
O17 Sn5 2.081081 1_555
O18 P2 1.539422 1_555
O18 Sn7 2.044708 1_555
O19 P3 1.539377 1_555
O19 Sn6 2.047201 1_565
O20 P4 1.544282 1_555
O20 Sn6 2.043835 1_455
O21 P5 1.548282 1_555
O21 Sn7 2.065361 1_545
O22 P0 1.546719 1_565
O22 Sn6 2.081557 1_465
O23 P1 1.549431 1_555
O23 Sn7 2.034114 1_555
O24 P12 1.523287 1_555
O24 Zn0 2.041808 1_555
O25 P13 1.524761 1_555
O25 Zn1 2.042441 1_555
O26 P14 1.523823 1_555
O26 Zn0 2.048893 1_555
O27 P15 1.525041 1_555
O27 Zn1 2.047518 1_555
O28 P16 1.508548 1_555
O28 Zn0 1.954039 1_555
O29 P17 1.509707 1_555
O29 Zn1 1.954251 1_555
O30 P18 1.541835 1_555
O30 Sn8 2.036164 1_555
O31 P19 1.520795 1_555
O31 Zn2 2.069383 1_555
O32 P20 1.541490 1_555
O32 Sn8 2.040700 1_555
O33 P21 1.510584 1_555
O33 Zn2 1.958473 1_555
O34 P22 1.542925 1_555
O34 Sn8 2.036667 1_555
O35 P23 1.520942 1_555
O35 Zn2 2.083510 1_555
O36 P22 1.541543 1_555
O36 Sn9 2.035131 1_554
O37 P23 1.549779 1_555
O37 Sn10 2.037262 1_554
O38 P18 1.540541 1_555
O38 Sn9 2.033742 1_554
O39 P19 1.549330 1_555
O39 Sn10 2.040581 1_554
O40 P20 1.541482 1_555
O40 Sn9 2.035830 1_554
O41 P21 1.549903 1_555
O41 Sn10 2.027298 1_554
O42 P14 1.546427 1_555
O42 Sn11 2.031664 1_555
O43 P15 1.547311 1_555
O43 Sn12 2.039385 1_555
O44 P16 1.549460 1_555
O44 Sn11 2.030613 1_555
O45 P17 1.549471 1_555
O45 Sn12 2.027672 1_555
O46 P12 1.546397 1_555
O46 Sn11 2.031860 1_555
O47 P13 1.546432 1_555
O47 Sn12 2.040621 1_555
O48 P24 1.533871 1_555
O48 Sn13 2.046546 1_556
O49 P25 1.531023 1_555
O49 Sn14 2.039412 1_556
O50 P26 1.536196 1_555
O50 Sn13 2.043568 1_556
O51 P27 1.528737 1_555
O51 Sn14 2.048406 1_556
O52 P28 1.530518 1_555
O52 Sn13 2.044772 1_556
O53 P29 1.532565 1_555
O53 Sn14 2.051586 1_556
O54 P30 1.531149 1_555
O54 Sn15 2.044122 1_555
O55 P31 1.531041 1_555
O55 Sn16 2.041807 1_555
O56 P32 1.531506 1_555
O56 Sn15 2.043043 1_555
O57 P33 1.530788 1_555
O57 Sn16 2.047133 1_555
O58 P34 1.532082 1_555
O58 Sn15 2.043909 1_555
O59 P35 1.531822 1_555
O59 Sn16 2.041424 1_555
O60 P34 1.563445 1_555
O60 Sn17 2.069324 1_555
O61 P35 1.552056 1_555
O61 Sn18 2.018839 1_555
O62 P30 1.552652 1_555
O62 Sn17 2.027455 1_555
O63 P31 1.552546 1_555
O63 Sn18 2.024244 1_555
O64 P32 1.551721 1_555
O64 Sn17 2.023967 1_555
O65 P33 1.563515 1_555
O65 Sn18 2.070892 1_555
O66 P26 1.565449 1_555
O66 Sn19 2.048861 1_555
O67 P27 1.561878 1_555
O67 Sn20 2.051147 1_555
O68 P28 1.561913 1_555
O68 Sn19 2.054013 1_555
O69 P29 1.565578 1_555
O69 Sn20 2.053133 1_555
O70 P24 1.553010 1_555
O70 Sn19 2.012963 1_555
O71 P25 1.556203 1_555
O71 Sn20 2.014567 1_555
O72 P34 1.550439 1_555
O72 Sn0 2.068170 1_565
O73 P35 1.551442 1_555
O73 Sn1 2.065570 1_555
O74 P30 1.551486 1_555
O74 Sn1 2.047640 1_555
O75 P31 1.549678 1_555
O75 Sn0 2.067432 1_665
O76 P32 1.550516 1_555
O76 Sn0 2.051761 1_555
O77 P33 1.551909 1_555
O77 Sn1 2.066810 1_545
O78 P26 1.547491 1_555
O78 Sn2 2.065671 1_445
O79 P27 1.546301 1_555
O79 Sn3 2.071443 1_545
O80 P28 1.543268 1_555
O80 Sn2 2.064732 1_455
O81 P29 1.550400 1_555
O81 Sn3 2.059773 1_555
O82 P24 1.545493 1_555
O82 Sn3 2.064155 1_555
O83 P25 1.547502 1_555
O83 Sn2 2.054791 1_555
O84 P12 1.561523 1_555
O84 Sn5 2.057403 1_545
O85 P13 1.562243 1_555
O85 Sn4 2.056727 1_545
O86 P14 1.562177 1_555
O86 Sn4 2.050959 1_445
O87 P15 1.563283 1_555
O87 Sn5 2.050575 1_545
O88 P16 1.564282 1_555
O88 Sn5 2.043748 1_555
O89 P17 1.563313 1_555
O89 Sn4 2.044821 1_555
O90 P18 1.547335 1_555
O90 Sn7 2.069584 1_555
O91 P19 1.560813 1_555
O91 Sn6 2.073476 1_565
O92 P20 1.545604 1_555
O92 Sn7 2.075245 1_545
O93 P21 1.562636 1_555
O93 Sn6 2.053902 1_555
O94 P22 1.541912 1_555
O94 Sn6 2.081803 1_455
O95 P23 1.567925 1_555
O95 Sn7 2.052336 1_545
O96 P10 1.531682 1_545
O96 Zn0 2.292930 1_555
O97 P11 1.532082 1_545
O97 Zn1 2.288295 1_555
O98 P6 1.513812 1_555
O98 Zn0 2.192975 1_555
O99 P7 1.514855 1_555
O99 Zn1 2.190693 1_555
O100 P9 1.516760 1_555
O100 Zn0 2.198669 1_555
O101 P8 1.517364 1_555
O101 Zn1 2.197978 1_555
O102 P2 1.550609 1_555
O102 Sn8 2.065764 1_555
O103 P3 1.534385 1_555
O103 Zn2 2.263134 1_555
O104 P5 1.539727 1_555
O104 Sn8 2.080453 1_555
O105 P4 1.527352 1_655
O105 Zn2 2.145551 1_555
O106 P0 1.541915 1_555
O106 Sn8 2.074953 1_555
O107 P1 1.525269 1_545
O107 Zn2 2.152141 1_555
O108 P24 1.543229 1_555
O108 Sn9 2.073375 1_555
O109 P25 1.538976 1_555
O109 Sn10 2.088601 1_555
O110 P27 1.545037 1_555
O110 Sn9 2.072023 1_555
O111 P26 1.537229 1_655
O111 Sn10 2.100349 1_555
O112 P28 1.545302 1_545
O112 Sn9 2.073177 1_555
O113 P29 1.538282 1_545
O113 Sn10 2.101306 1_555
O114 P30 1.542354 1_545
O114 Sn11 2.095278 1_555
O115 P31 1.544228 1_545
O115 Sn12 2.082219 1_555
O116 P32 1.541899 1_555
O116 Sn11 2.088053 1_555
O117 P33 1.543812 1_555
O117 Sn12 2.101856 1_555
O118 P35 1.542061 1_555
O118 Sn11 2.087591 1_555
O119 P34 1.543151 1_655
O119 Sn12 2.097882 1_555
O120 P22 1.552239 1_555
O120 Sn13 2.070539 1_555
O121 P23 1.561497 1_555
O121 Sn14 2.046402 1_555
O122 P19 1.569083 1_455
O122 Sn13 2.033396 1_555
O123 P18 1.545756 1_555
O123 Sn14 2.072868 1_555
O124 P20 1.549679 1_565
O124 Sn13 2.074491 1_555
O125 P21 1.564337 1_565
O125 Sn14 2.033168 1_555
O126 P14 1.558231 1_565
O126 Sn15 2.055649 1_555
O127 P15 1.558674 1_565
O127 Sn16 2.058806 1_555
O128 P16 1.560386 1_555
O128 Sn15 2.049340 1_555
O129 P17 1.560074 1_555
O129 Sn16 2.045765 1_555
O130 P13 1.559673 1_455
O130 Sn15 2.055697 1_555
O131 P12 1.558591 1_555
O131 Sn16 2.054166 1_555
O132 P0 1.565030 1_565
O132 Sn17 2.121913 1_555
O133 P1 1.552455 1_555
O133 Sn18 2.051282 1_555
O134 P2 1.554201 1_555
O134 Sn17 2.064999 1_555
O135 P3 1.562907 1_555
O135 Sn18 2.086411 1_555
O136 P4 1.580935 1_555
O136 Sn17 2.079325 1_555
O137 P5 1.562248 1_555
O137 Sn18 2.114694 1_555
O138 P6 1.569795 1_555
O138 Sn19 2.073187 1_555
O139 P7 1.568997 1_555
O139 Sn20 2.075786 1_555
O140 P8 1.592125 1_455
O140 Sn19 2.105144 1_555
O141 P9 1.591128 1_555
O141 Sn20 2.109769 1_555
O142 P10 1.567848 1_555
O142 Sn19 2.067791 1_555
O143 P11 1.567606 1_555
O143 Sn20 2.067370 1_555
