# generated using pymatgen
data_Na3ZrGaSi(PO6)2
_symmetry_space_group_name_H-M   'P 1'
_cell_length_a   9.01276115
_cell_length_b   9.01276085
_cell_length_c   22.41482497
_cell_angle_alpha   89.73347613
_cell_angle_beta   90.26652386
_cell_angle_gamma   120.01797763
_symmetry_Int_Tables_number   1
_chemical_formula_structural   Na3ZrGaSi(PO6)2
_chemical_formula_sum   'Na18 Zr6 Ga6 Si6 P12 O72'
_cell_volume   1576.50998712
_cell_formula_units_Z   6
loop_
 _symmetry_equiv_pos_site_id
 _symmetry_equiv_pos_as_xyz
  1  'x, y, z'
loop_
 _atom_site_type_symbol
 _atom_site_label
 _atom_site_symmetry_multiplicity
 _atom_site_fract_x
 _atom_site_fract_y
 _atom_site_fract_z
 _atom_site_occupancy
  Na  Na0  1  0.00371090  0.99683594  0.49483114  1
  Na  Na1  1  0.00316406  0.99628910  0.99483114  1
  Na  Na2  1  0.66585920  0.32732718  0.82838573  1
  Na  Na3  1  0.67267282  0.33414080  0.32838573  1
  Na  Na4  1  0.34920798  0.67332109  0.16126704  1
  Na  Na5  1  0.32667891  0.65079202  0.66126704  1
  Na  Na6  1  0.36399614  0.36280220  0.24645008  1
  Na  Na7  1  0.99244614  0.62537151  0.24707866  1
  Na  Na8  1  0.63719780  0.63600386  0.74645008  1
  Na  Na9  1  0.37462849  0.00755386  0.74707866  1
  Na  Na10  1  0.03819148  0.69985693  0.57954208  1
  Na  Na11  1  0.65685519  0.96206183  0.58360076  1
  Na  Na12  1  0.30014307  0.96180852  0.07954208  1
  Na  Na13  1  0.03793817  0.34314481  0.08360076  1
  Na  Na14  1  0.97045907  0.67260944  0.91770908  1
  Na  Na15  1  0.70012511  0.03016285  0.91152038  1
  Na  Na16  1  0.96983715  0.29987489  0.41152038  1
  Na  Na17  1  0.32739056  0.02954093  0.41770908  1
  Zr  Zr0  1  0.00608628  0.00779326  0.64715691  1
  Zr  Zr1  1  0.99220674  0.99391372  0.14715691  1
  Zr  Zr2  1  0.66049949  0.33621646  0.98059823  1
  Zr  Zr3  1  0.66378354  0.33950051  0.48059823  1
  Zr  Zr4  1  0.33234872  0.66820597  0.31386319  1
  Zr  Zr5  1  0.33179403  0.66765128  0.81386319  1
  Ga  Ga0  1  0.98885558  0.99067091  0.35055475  1
  Ga  Ga1  1  0.00932909  0.01114442  0.85055475  1
  Ga  Ga2  1  0.67032622  0.32175179  0.68381580  1
  Ga  Ga3  1  0.67824821  0.32967378  0.18381580  1
  Ga  Ga4  1  0.32718897  0.66889810  0.01665628  1
  Ga  Ga5  1  0.33110190  0.67281103  0.51665628  1
  Si  Si0  1  0.98919487  0.28419499  0.25212476  1
  Si  Si1  1  0.71580501  0.01080513  0.75212476  1
  Si  Si2  1  0.37438849  0.03405059  0.58356521  1
  Si  Si3  1  0.96594941  0.62561151  0.08356521  1
  Si  Si4  1  0.32380591  0.96056021  0.91670908  1
  Si  Si5  1  0.03943979  0.67619409  0.41670908  1
  P  P0  1  0.29894149  0.00947734  0.25087879  1
  P  P1  1  0.70887476  0.70272464  0.25160230  1
  P  P2  1  0.29727536  0.29112524  0.75160230  1
  P  P3  1  0.99052266  0.70105851  0.75087879  1
  P  P4  1  0.96228487  0.34124329  0.58322331  1
  P  P5  1  0.65667957  0.61946754  0.58722651  1
  P  P6  1  0.65875671  0.03771513  0.08322331  1
  P  P7  1  0.38053246  0.34332043  0.08722651  1
  P  P8  1  0.62314774  0.67171491  0.91821382  1
  P  P9  1  0.04504721  0.36939956  0.91998392  1
  P  P10  1  0.63060044  0.95495279  0.41998392  1
  P  P11  1  0.32828509  0.37685226  0.41821382  1
  O  O0  1  0.21429896  0.03615414  0.30678621  1
  O  O1  1  0.82593607  0.78690726  0.30609846  1
  O  O2  1  0.97329922  0.17210099  0.31191879  1
  O  O3  1  0.21309274  0.17406393  0.80609846  1
  O  O4  1  0.96384586  0.78570104  0.80678621  1
  O  O5  1  0.82789901  0.02670078  0.81191879  1
  O  O6  1  0.79644828  0.97290483  0.69254896  1
  O  O7  1  0.18744623  0.20707049  0.69528950  1
  O  O8  1  0.02665149  0.81830832  0.69517342  1
  O  O9  1  0.79292951  0.81255377  0.19528950  1
  O  O10  1  0.02709517  0.20355172  0.19254896  1
  O  O11  1  0.18169168  0.97334851  0.19517342  1
  O  O12  1  0.87656536  0.37418682  0.63722781  1
  O  O13  1  0.49506164  0.12477004  0.64235868  1
  O  O14  1  0.63896053  0.51523285  0.64428575  1
  O  O15  1  0.87522996  0.50493836  0.14235868  1
  O  O16  1  0.62581318  0.12343464  0.13722781  1
  O  O17  1  0.48476715  0.36103947  0.14428575  1
  O  O18  1  0.46255129  0.30562986  0.03274404  1
  O  O19  1  0.85243179  0.53937462  0.02344932  1
  O  O20  1  0.68997285  0.14828433  0.02627072  1
  O  O21  1  0.46062538  0.14756821  0.52344932  1
  O  O22  1  0.69437014  0.53744871  0.53274404  1
  O  O23  1  0.85171567  0.31002715  0.52627072  1
  O  O24  1  0.52813010  0.69405998  0.97144052  1
  O  O25  1  0.14824818  0.45099553  0.97774180  1
  O  O26  1  0.29107208  0.83887581  0.97586435  1
  O  O27  1  0.54900447  0.85175182  0.47774180  1
  O  O28  1  0.30594002  0.47186990  0.47144052  1
  O  O29  1  0.16112419  0.70892792  0.47586435  1
  O  O30  1  0.12766233  0.64150681  0.35818352  1
  O  O31  1  0.51293881  0.86827416  0.36579053  1
  O  O32  1  0.35526769  0.47902948  0.35964555  1
  O  O33  1  0.13172584  0.48706119  0.86579053  1
  O  O34  1  0.35849319  0.87233767  0.85818352  1
  O  O35  1  0.52097052  0.64473231  0.85964555  1
  O  O36  1  0.02960772  0.85183477  0.40812842  1
  O  O37  1  0.81287679  0.98283159  0.41338304  1
  O  O38  1  0.16658986  0.19642597  0.41469759  1
  O  O39  1  0.01716841  0.18712321  0.91338304  1
  O  O40  1  0.14816523  0.97039228  0.90812842  1
  O  O41  1  0.80357403  0.83341014  0.91469759  1
  O  O42  1  0.97032028  0.17363286  0.58900179  1
  O  O43  1  0.17819824  0.00242431  0.58678546  1
  O  O44  1  0.82122282  0.80264449  0.58981917  1
  O  O45  1  0.99757569  0.82180176  0.08678546  1
  O  O46  1  0.82636714  0.02967972  0.08900179  1
  O  O47  1  0.19735551  0.17877718  0.08981917  1
  O  O48  1  0.68613395  0.17523887  0.74578491  1
  O  O49  1  0.47860536  0.31302491  0.74549101  1
  O  O50  1  0.82690802  0.52530678  0.74276146  1
  O  O51  1  0.68697509  0.52139464  0.24549101  1
  O  O52  1  0.82476113  0.31386605  0.24578491  1
  O  O53  1  0.47469322  0.17309198  0.24276146  1
  O  O54  1  0.64956861  0.51398993  0.92199508  1
  O  O55  1  0.86360112  0.35465731  0.92216948  1
  O  O56  1  0.50194612  0.14591139  0.92067899  1
  O  O57  1  0.64534269  0.13639888  0.42216948  1
  O  O58  1  0.48601007  0.35043139  0.42199508  1
  O  O59  1  0.85408861  0.49805388  0.42067899  1
  O  O60  1  0.35740140  0.49984401  0.07849224  1
  O  O61  1  0.15723751  0.64211229  0.07887329  1
  O  O62  1  0.49989108  0.85820371  0.07663444  1
  O  O63  1  0.35788771  0.84276249  0.57887329  1
  O  O64  1  0.50015599  0.64259860  0.57849224  1
  O  O65  1  0.14179629  0.50010892  0.57663444  1
  O  O66  1  0.31548644  0.84635726  0.25529228  1
  O  O67  1  0.52874787  0.68279297  0.25552576  1
  O  O68  1  0.16554422  0.47843341  0.25510985  1
  O  O69  1  0.31720703  0.47125213  0.75552576  1
  O  O70  1  0.15364274  0.68451356  0.75529228  1
  O  O71  1  0.52156659  0.83445578  0.75510985  1
loop_
_geom_bond_atom_site_label_1
_geom_bond_atom_site_label_2
_geom_bond_distance
_geom_bond_site_symmetry_2
Na0 O36 2.423284 1_555
Na0 O38 2.443251 1_565
Na0 O37 2.462283 1_455
Na0 O43 2.572062 1_565
Na0 O44 2.723840 1_455
Na0 O42 2.757195 1_465
Na1 O40 2.423284 1_555
Na1 O41 2.443251 1_455
Na1 O39 2.462283 1_565
Na1 O45 2.572062 1_456
Na1 O47 2.723840 1_566
Na1 O46 2.757195 1_466
Na2 O48 2.370162 1_555
Na2 O49 2.464280 1_555
Na2 O50 2.525259 1_555
Na2 O56 2.591466 1_555
Na2 O55 2.680796 1_555
Na2 O54 2.745414 1_555
Na3 O52 2.370162 1_555
Na3 O51 2.464280 1_555
Na3 O53 2.525259 1_555
Na3 O59 2.591466 1_555
Na3 O57 2.680795 1_555
Na3 O58 2.745414 1_555
Na4 O62 2.439262 1_555
Na4 O61 2.443697 1_555
Na4 O60 2.456875 1_555
Na4 O67 2.630827 1_555
Na4 O68 2.709019 1_555
Na4 O66 2.734428 1_555
Na5 O65 2.439262 1_555
Na5 O63 2.443697 1_555
Na5 O64 2.456875 1_555
Na5 O69 2.630827 1_555
Na5 O71 2.709019 1_555
Na5 O70 2.734428 1_555
Na6 O53 2.373719 1_555
Na6 O68 2.488570 1_555
Na6 O67 2.506319 1_555
Na6 O51 2.520778 1_555
Na6 O17 2.543610 1_555
Na6 O32 2.765902 1_555
Na6 O0 2.884834 1_555
Na6 O10 2.891548 1_555
Na7 O51 2.424295 1_555
Na7 O52 2.433535 1_555
Na7 O68 2.506484 1_655
Na7 O15 2.580169 1_555
Na7 O66 2.583403 1_655
Na7 O30 2.739743 1_655
Na7 O1 2.888650 1_555
Na7 O11 2.954843 1_655
Na8 O50 2.373719 1_555
Na8 O71 2.488570 1_555
Na8 O69 2.506319 1_555
Na8 O49 2.520778 1_555
Na8 O14 2.543610 1_555
Na8 O35 2.765902 1_555
Na8 O4 2.884834 1_555
Na8 O6 2.891548 1_555
Na9 O49 2.424295 1_555
Na9 O48 2.433535 1_555
Na9 O71 2.506484 1_545
Na9 O13 2.580169 1_555
Na9 O70 2.583403 1_545
Na9 O34 2.739743 1_545
Na9 O3 2.888650 1_555
Na9 O8 2.954843 1_545
Na10 O43 2.369451 1_565
Na10 O65 2.408483 1_555
Na10 O63 2.499672 1_555
Na10 O44 2.560065 1_455
Na10 O29 2.562502 1_555
Na10 O8 2.829770 1_555
Na10 O12 2.848401 1_455
Na10 O22 2.879423 1_455
Na11 O63 2.351043 1_555
Na11 O64 2.496148 1_555
Na11 O42 2.498246 1_565
Na11 O44 2.530652 1_555
Na11 O27 2.568477 1_555
Na11 O6 2.721519 1_555
Na11 O13 2.861266 1_565
Na12 O45 2.369451 1_455
Na12 O62 2.408483 1_555
Na12 O61 2.499672 1_555
Na12 O47 2.560065 1_565
Na12 O26 2.562502 1_554
Na12 O11 2.829770 1_555
Na12 O16 2.848401 1_565
Na12 O18 2.879423 1_565
Na13 O61 2.351043 1_555
Na13 O60 2.496148 1_555
Na13 O46 2.498245 1_455
Na13 O47 2.530652 1_555
Na13 O25 2.568477 1_554
Na13 O10 2.721519 1_555
Na13 O15 2.861266 1_455
Na14 O40 2.347623 1_655
Na14 O54 2.506348 1_555
Na14 O55 2.527100 1_555
Na14 O41 2.558585 1_555
Na14 O19 2.628696 1_556
Na14 O4 2.694450 1_555
Na14 O26 2.818733 1_655
Na14 O33 2.954526 1_655
Na15 O41 2.381461 1_545
Na15 O39 2.474447 1_655
Na15 O56 2.488067 1_555
Na15 O5 2.524273 1_555
Na15 O55 2.544190 1_555
Na15 O20 2.807600 1_556
Na15 O34 2.921063 1_545
Na15 O24 2.943850 1_545
Na16 O38 2.381461 1_655
Na16 O37 2.474447 1_545
Na16 O59 2.488067 1_555
Na16 O2 2.524273 1_555
Na16 O57 2.544190 1_555
Na16 O23 2.807600 1_555
Na16 O30 2.921063 1_655
Na16 O28 2.943850 1_655
Na17 O36 2.347623 1_545
Na17 O58 2.506348 1_555
Na17 O57 2.527100 1_555
Na17 O38 2.558585 1_555
Na17 O21 2.628696 1_555
Na17 O0 2.694450 1_555
Na17 O29 2.818733 1_545
Na17 O31 2.954526 1_545
Ga0 O2 1.912737 1_565
Ga0 O36 1.951013 1_655
Ga0 O1 1.956278 1_555
Ga0 O37 2.100372 1_555
Ga0 O0 2.107236 1_665
Ga0 O38 2.259031 1_665
Ga1 O5 1.912737 1_455
Ga1 O40 1.951013 1_545
Ga1 O3 1.956278 1_555
Ga1 O39 2.100372 1_555
Ga1 O4 2.107236 1_445
Ga1 O41 2.259031 1_445
Ga2 O13 1.925192 1_555
Ga2 O48 1.965376 1_555
Ga2 O12 1.975716 1_555
Ga2 O14 2.093411 1_555
Ga2 O50 2.125509 1_555
Ga2 O49 2.188221 1_555
Ga3 O15 1.925192 1_555
Ga3 O52 1.965377 1_555
Ga3 O16 1.975716 1_555
Ga3 O17 2.093411 1_555
Ga3 O53 2.125509 1_555
Ga3 O51 2.188221 1_555
Ga4 O26 1.942178 1_554
Ga4 O24 1.990597 1_554
Ga4 O61 1.999026 1_555
Ga4 O25 2.013098 1_554
Ga4 O62 2.117999 1_555
Ga4 O60 2.169954 1_555
Ga5 O29 1.942178 1_555
Ga5 O28 1.990597 1_555
Ga5 O63 1.999026 1_555
Ga5 O27 2.013098 1_555
Ga5 O65 2.117999 1_555
Ga5 O64 2.169954 1_555
O0 P0 1.550928 1_555
O1 P1 1.541624 1_555
O2 Si0 1.637647 1_555
O3 P2 1.541624 1_555
O4 P3 1.550928 1_555
O5 Si1 1.637647 1_555
O6 Si1 1.640082 1_565
O6 Zr0 2.030877 1_665
O7 P2 1.547245 1_555
O7 Zr0 2.031210 1_555
O8 P3 1.558534 1_455
O8 Zr0 2.099288 1_565
O9 P1 1.547245 1_555
O9 Zr1 2.031210 1_555
O10 Si0 1.640082 1_455
O10 Zr1 2.030877 1_445
O11 P0 1.558534 1_565
O11 Zr1 2.099288 1_455
O12 P4 1.546573 1_555
O13 Si2 1.641664 1_555
O14 P5 1.544163 1_555
O15 Si3 1.641664 1_555
O16 P6 1.546573 1_555
O17 P7 1.544163 1_555
O18 P7 1.554575 1_555
O18 Zr2 2.037001 1_554
O19 Si3 1.633357 1_555
O19 Zr2 2.024684 1_554
O20 P6 1.553345 1_555
O20 Zr2 2.102151 1_554
O21 Si2 1.633357 1_555
O21 Zr3 2.024684 1_555
O22 P5 1.554575 1_555
O22 Zr3 2.037001 1_555
O23 P4 1.553345 1_555
O23 Zr3 2.102151 1_555
O24 P8 1.543256 1_555
O25 P9 1.547673 1_555
O26 Si4 1.647529 1_555
O27 P10 1.547673 1_555
O28 P11 1.543256 1_555
O29 Si5 1.647529 1_555
O30 Si5 1.647157 1_555
O30 Zr4 2.004677 1_555
O31 P10 1.542205 1_555
O31 Zr4 2.078641 1_555
O32 P11 1.548639 1_555
O32 Zr4 2.082529 1_555
O33 P9 1.542205 1_555
O33 Zr5 2.078641 1_555
O34 Si4 1.647157 1_555
O34 Zr5 2.004677 1_555
O35 P8 1.548639 1_555
O35 Zr5 2.082529 1_555
O36 Si5 1.639548 1_555
O37 P10 1.540380 1_555
O38 P11 1.550275 1_555
O39 P9 1.540380 1_555
O40 Si4 1.639549 1_555
O41 P8 1.550275 1_555
O42 P4 1.552928 1_555
O42 Zr0 2.120660 1_655
O43 Si2 1.646133 1_555
O43 Zr0 2.082068 1_555
O44 P5 1.574374 1_555
O44 Zr0 2.183190 1_665
O45 Si3 1.646133 1_555
O45 Zr1 2.082068 1_555
O46 P6 1.552928 1_555
O46 Zr1 2.120660 1_545
O47 P7 1.574374 1_555
O47 Zr1 2.183190 1_445
O48 Si1 1.637759 1_555
O49 P2 1.551674 1_555
O50 P3 1.542659 1_555
O51 P1 1.551674 1_555
O52 Si0 1.637759 1_555
O53 P0 1.542659 1_555
O54 P8 1.556289 1_555
O54 Zr2 2.107009 1_555
O55 P9 1.574053 1_655
O55 Zr2 2.193055 1_555
O56 Si4 1.640983 1_545
O56 Zr2 2.083024 1_555
O57 P10 1.574053 1_545
O57 Zr3 2.193055 1_555
O58 P11 1.556289 1_555
O58 Zr3 2.107009 1_555
O59 Si5 1.640983 1_655
O59 Zr3 2.083024 1_555
O60 P7 1.537270 1_555
O61 Si3 1.658457 1_455
O62 P6 1.540117 1_565
O63 Si2 1.658457 1_565
O64 P5 1.537270 1_555
O65 P4 1.540117 1_455
O66 P0 1.552821 1_565
O66 Zr4 2.132472 1_555
O67 P1 1.544329 1_555
O67 Zr4 2.155808 1_555
O68 Si0 1.676751 1_455
O68 Zr4 2.085584 1_555
O69 P2 1.544329 1_555
O69 Zr5 2.155808 1_555
O70 P3 1.552821 1_455
O70 Zr5 2.132472 1_555
O71 Si1 1.676751 1_565
O71 Zr5 2.085584 1_555
