# generated using pymatgen
data_Hg3AsClO4
_symmetry_space_group_name_H-M   'P 1'
_cell_length_a   8.64546900
_cell_length_b   8.64546900
_cell_length_c   8.64546900
_cell_angle_alpha   90.00000000
_cell_angle_beta   90.00000000
_cell_angle_gamma   90.00000000
_symmetry_Int_Tables_number   1
_chemical_formula_structural   Hg3AsClO4
_chemical_formula_sum   'Hg12 As4 Cl4 O16'
_cell_volume   646.19809542
_cell_formula_units_Z   4
loop_
 _symmetry_equiv_pos_site_id
 _symmetry_equiv_pos_as_xyz
  1  'x, y, z'
loop_
 _atom_site_type_symbol
 _atom_site_label
 _atom_site_symmetry_multiplicity
 _atom_site_fract_x
 _atom_site_fract_y
 _atom_site_fract_z
 _atom_site_occupancy
  Hg  Hg0  1  0.55105200  0.89753000  0.85351200  1
  Hg  Hg1  1  0.60247000  0.14648800  0.05105200  1
  Hg  Hg2  1  0.89753000  0.85351200  0.55105200  1
  Hg  Hg3  1  0.14648800  0.05105200  0.60247000  1
  Hg  Hg4  1  0.10247000  0.35351200  0.94894800  1
  Hg  Hg5  1  0.05105200  0.60247000  0.14648800  1
  Hg  Hg6  1  0.35351200  0.94894800  0.10247000  1
  Hg  Hg7  1  0.94894800  0.10247000  0.35351200  1
  Hg  Hg8  1  0.85351200  0.55105200  0.89753000  1
  Hg  Hg9  1  0.64648800  0.44894800  0.39753000  1
  Hg  Hg10  1  0.44894800  0.39753000  0.64648800  1
  Hg  Hg11  1  0.39753000  0.64648800  0.44894800  1
  As  As0  1  0.02027900  0.47972100  0.52027900  1
  As  As1  1  0.52027900  0.02027900  0.47972100  1
  As  As2  1  0.97972100  0.97972100  0.97972100  1
  As  As3  1  0.47972100  0.52027900  0.02027900  1
  Cl  Cl0  1  0.22664400  0.22664400  0.22664400  1
  Cl  Cl1  1  0.27335600  0.77335600  0.72664400  1
  Cl  Cl2  1  0.72664400  0.27335600  0.77335600  1
  Cl  Cl3  1  0.77335600  0.72664400  0.27335600  1
  O  O0  1  0.39950600  0.89899800  0.37219600  1
  O  O1  1  0.89950600  0.60100200  0.62780400  1
  O  O2  1  0.60049400  0.39899800  0.12780400  1
  O  O3  1  0.60100200  0.62780400  0.89950600  1
  O  O4  1  0.12780400  0.60049400  0.39899800  1
  O  O5  1  0.62780400  0.89950600  0.60100200  1
  O  O6  1  0.89899800  0.37219600  0.39950600  1
  O  O7  1  0.37219600  0.39950600  0.89899800  1
  O  O8  1  0.39899800  0.12780400  0.60049400  1
  O  O9  1  0.10049400  0.10100200  0.87219600  1
  O  O10  1  0.87219600  0.10049400  0.10100200  1
  O  O11  1  0.13429600  0.36570400  0.63429600  1
  O  O12  1  0.36570400  0.63429600  0.13429600  1
  O  O13  1  0.63429600  0.13429600  0.36570400  1
  O  O14  1  0.86570400  0.86570400  0.86570400  1
  O  O15  1  0.10100200  0.87219600  0.10049400  1
loop_
_geom_bond_atom_site_label_1
_geom_bond_atom_site_label_2
_geom_bond_distance
_geom_bond_site_symmetry_2
Hg0 O5 2.281750 1_555
Hg0 O3 2.404662 1_555
Hg1 O2 2.281750 1_555
Hg1 O10 2.404662 1_555
Hg2 O1 2.281750 1_555
Hg2 O5 2.404662 1_555
Hg3 O8 2.281750 1_555
Hg3 O9 2.404662 1_555
Hg4 O9 2.281750 1_555
Hg4 O7 2.404662 1_555
Hg5 O4 2.281750 1_555
Hg5 O15 2.404662 1_555
Hg6 O15 2.281750 1_555
Hg6 O0 2.404662 1_555
Hg7 O10 2.281750 1_555
Hg7 O6 2.404662 1_555
Hg8 O3 2.281750 1_555
Hg8 O1 2.404662 1_555
Hg9 O6 2.281750 1_555
Hg9 O2 2.404662 1_555
Hg10 O7 2.281750 1_555
Hg10 O8 2.404662 1_555
Hg11 O0 2.281750 1_555
Hg11 O4 2.404662 1_555
As0 O11 1.707335 1_555
As0 O1 1.747515 1_455
As0 O4 1.747515 1_555
As0 O6 1.747515 1_455
As1 O13 1.707335 1_555
As1 O5 1.747515 1_545
As1 O8 1.747515 1_555
As1 O0 1.747515 1_545
As2 O14 1.707335 1_555
As2 O10 1.747515 1_566
As2 O9 1.747515 1_665
As2 O15 1.747515 1_656
As3 O12 1.707335 1_555
As3 O2 1.747515 1_555
As3 O3 1.747515 1_554
As3 O7 1.747515 1_554
Cl0 Hg6 2.849462 1_545
Cl0 Hg4 2.849462 1_554
Cl0 Hg7 2.849462 1_455
Cl1 Hg3 2.849462 1_565
Cl1 Hg11 2.849462 1_555
Cl1 Hg0 2.849462 1_555
Cl2 Hg10 2.849462 1_555
Cl2 Hg1 2.849462 1_556
Cl2 Hg8 2.849462 1_555
Cl3 Hg9 2.849462 1_555
Cl3 Hg5 2.849462 1_655
Cl3 Hg2 2.849462 1_555
