# generated using pymatgen
data_Ba2YbMgRuO6
_symmetry_space_group_name_H-M   'P 1'
_cell_length_a   5.99730565
_cell_length_b   6.18220144
_cell_length_c   6.18219815
_cell_angle_alpha   56.16999522
_cell_angle_beta   60.98451306
_cell_angle_gamma   60.98445199
_symmetry_Int_Tables_number   1
_chemical_formula_structural   Ba2YbMgRuO6
_chemical_formula_sum   'Ba2 Yb1 Mg1 Ru1 O6'
_cell_volume   159.04832004
_cell_formula_units_Z   1
loop_
 _symmetry_equiv_pos_site_id
 _symmetry_equiv_pos_as_xyz
  1  'x, y, z'
loop_
 _atom_site_type_symbol
 _atom_site_label
 _atom_site_symmetry_multiplicity
 _atom_site_fract_x
 _atom_site_fract_y
 _atom_site_fract_z
 _atom_site_occupancy
  Ba  Ba0  1  0.80765538  0.69234236  0.69234736  1
  Ba  Ba1  1  0.19234510  0.30765264  0.30765764  1
  Yb  Yb0  1  0.50000059  0.50000000  0.50000000  1
  Mg  Mg0  1  0.49999802  0.99999900  0.00000100  1
  Ru  Ru0  1  0.99999936  0.99999900  0.00000100  1
  O  O0  1  0.23846150  0.76154498  0.76153698  1
  O  O1  1  0.25933341  0.76800882  0.23199118  1
  O  O2  1  0.74066339  0.23198952  0.76801048  1
  O  O3  1  0.25934141  0.23199118  0.76800882  1
  O  O4  1  0.76154346  0.23846302  0.23845502  1
  O  O5  1  0.74065939  0.76801048  0.23198952  1
loop_
_geom_bond_atom_site_label_1
_geom_bond_atom_site_label_2
_geom_bond_distance
_geom_bond_site_symmetry_2
Ba0 Mg0 2.803336 1_556
Ba0 O1 2.815053 1_655
Ba0 O2 2.815055 1_555
Ba0 O3 2.815061 1_655
Ba0 O5 2.815082 1_555
Ba0 O4 2.940600 1_556
Ba0 O4 2.940674 1_565
Ba0 O0 3.064210 1_555
Ba0 O0 3.064236 1_655
Ba1 Mg0 2.803336 1_545
Ba1 O1 2.815054 1_555
Ba1 O2 2.815054 1_455
Ba1 O3 2.815062 1_555
Ba1 O5 2.815082 1_455
Ba1 O0 2.940599 1_545
Ba1 O0 2.940674 1_554
Ba1 O4 3.064210 1_455
Ba1 O4 3.064236 1_555
Mg0 O3 1.976534 1_564
Mg0 O5 1.976541 1_555
Mg0 O1 1.976564 1_555
Mg0 O2 1.976569 1_564
O0 Ru0 2.172825 1_456
O0 Yb0 2.383147 1_555
O1 Ru0 2.059743 1_455
O1 Yb0 2.125335 1_555
O2 Ru0 2.059753 1_546
O2 Yb0 2.125325 1_555
O3 Ru0 2.059790 1_446
O3 Yb0 2.125305 1_555
O4 Ru0 2.172825 1_545
O4 Yb0 2.383147 1_555
O5 Ru0 2.059766 1_555
O5 Yb0 2.125311 1_555
