# generated using pymatgen
data_Na14Zr4Si11Sn4SO48
_symmetry_space_group_name_H-M   'P 1'
_cell_length_a   18.31442243
_cell_length_b   9.17616802
_cell_length_c   22.91123371
_cell_angle_alpha   90.14917366
_cell_angle_beta   90.02955298
_cell_angle_gamma   120.00026551
_symmetry_Int_Tables_number   1
_chemical_formula_structural   Na14Zr4Si11Sn4SO48
_chemical_formula_sum   'Na42 Zr12 Si33 Sn12 S3 O144'
_cell_volume   3334.49523332
_cell_formula_units_Z   3
loop_
 _symmetry_equiv_pos_site_id
 _symmetry_equiv_pos_as_xyz
  1  'x, y, z'
loop_
 _atom_site_type_symbol
 _atom_site_label
 _atom_site_symmetry_multiplicity
 _atom_site_fract_x
 _atom_site_fract_y
 _atom_site_fract_z
 _atom_site_occupancy
  Na  Na0  1  0.32007746  0.99989625  0.24996196  1
  Na  Na1  1  0.82004030  0.00005591  0.24999726  1
  Na  Na2  1  0.31985249  0.64076109  0.75057472  1
  Na  Na3  1  0.81753316  0.63366103  0.74975241  1
  Na  Na4  1  0.50090878  0.36514962  0.75108529  1
  Na  Na5  1  0.68432230  0.00173793  0.74972135  1
  Na  Na6  1  0.15021310  0.33446099  0.58146509  1
  Na  Na7  1  0.65076272  0.33323659  0.58322527  1
  Na  Na8  1  0.01593616  0.69523627  0.58369801  1
  Na  Na9  1  0.51769935  0.70170345  0.58262151  1
  Na  Na10  1  0.33317792  0.96658198  0.58352463  1
  Na  Na11  1  0.83217741  0.96775001  0.58307452  1
  Na  Na12  1  0.15042632  0.96642998  0.08146474  1
  Na  Na13  1  0.65056515  0.96736225  0.08131197  1
  Na  Na14  1  0.33204243  0.69665304  0.08315215  1
  Na  Na15  1  0.83216790  0.69680197  0.08320354  1
  Na  Na16  1  0.01725179  0.33730726  0.08312942  1
  Na  Na17  1  0.51749145  0.33727189  0.08331688  1
  Na  Na18  1  0.48349020  0.66721693  0.91666135  1
  Na  Na19  1  0.98346705  0.66349050  0.91700480  1
  Na  Na20  1  0.34955097  0.03285967  0.91635776  1
  Na  Na21  1  0.84920050  0.03535571  0.91683837  1
  Na  Na22  1  0.16678554  0.30199687  0.91859977  1
  Na  Na23  1  0.66698093  0.29904987  0.91702854  1
  Na  Na24  1  0.48440289  0.30350799  0.41637245  1
  Na  Na25  1  0.98320410  0.30294775  0.41694809  1
  Na  Na26  1  0.16673285  0.03188828  0.41801289  1
  Na  Na27  1  0.66717971  0.03386597  0.41879937  1
  Na  Na28  1  0.34888011  0.66341408  0.41615121  1
  Na  Na29  1  0.84855236  0.66258879  0.41672508  1
  Na  Na30  1  0.00036328  0.00078200  0.49994330  1
  Na  Na31  1  0.50105431  0.00001495  0.50064788  1
  Na  Na32  1  0.00091193  0.00095534  0.00012115  1
  Na  Na33  1  0.50063903  0.00023264  0.99929777  1
  Na  Na34  1  0.33346182  0.32806887  0.83419799  1
  Na  Na35  1  0.83676587  0.33413823  0.83150730  1
  Na  Na36  1  0.33676451  0.34485211  0.33160988  1
  Na  Na37  1  0.83652636  0.34458056  0.33217193  1
  Na  Na38  1  0.16425552  0.65526666  0.16778839  1
  Na  Na39  1  0.66428330  0.65521596  0.16788035  1
  Na  Na40  1  0.16384409  0.67261877  0.66803879  1
  Na  Na41  1  0.66731342  0.66772327  0.66688101  1
  Zr  Zr0  1  0.99316556  0.99607713  0.35161261  1
  Zr  Zr1  1  0.49468488  0.99689232  0.35166089  1
  Zr  Zr2  1  0.99418777  0.99036248  0.85277665  1
  Zr  Zr3  1  0.50017941  0.00144406  0.85143323  1
  Zr  Zr4  1  0.99516822  0.98683797  0.64777553  1
  Zr  Zr5  1  0.50021133  -0.00008782  0.64984024  1
  Zr  Zr6  1  0.99529837  0.00304080  0.14809769  1
  Zr  Zr7  1  0.49610164  0.00402516  0.14836986  1
  Zr  Zr8  1  0.33576158  0.32849184  0.68313445  1
  Zr  Zr9  1  0.33344046  0.33493561  0.98151665  1
  Zr  Zr10  1  0.33361672  0.33408930  0.48122428  1
  Zr  Zr11  1  0.16574031  0.66498090  0.51808401  1
  Si  Si0  1  0.34941498  0.69765286  0.24997572  1
  Si  Si1  1  0.84929540  0.69714485  0.24990857  1
  Si  Si2  1  0.00051040  0.30222101  0.24984167  1
  Si  Si3  1  0.50063729  0.30243470  0.25001500  1
  Si  Si4  1  0.64904168  0.29771648  0.75015870  1
  Si  Si5  1  0.00198765  0.70140660  0.74985475  1
  Si  Si6  1  0.50027281  0.70399194  0.75095294  1
  Si  Si7  1  0.34890687  0.99505643  0.75100865  1
  Si  Si8  1  0.85214784  0.00363366  0.75025636  1
  Si  Si9  1  0.48254070  0.33532414  0.58179860  1
  Si  Si10  1  0.97802550  0.33277914  0.58338250  1
  Si  Si11  1  0.18595452  0.03955877  0.58276896  1
  Si  Si12  1  0.68891818  0.04258150  0.58293400  1
  Si  Si13  1  0.33315590  0.62660663  0.58435098  1
  Si  Si14  1  0.83098947  0.61914057  0.58281055  1
  Si  Si15  1  0.48199497  0.62856522  0.08241692  1
  Si  Si16  1  0.98072705  0.62585594  0.08155057  1
  Si  Si17  1  0.33102564  0.04173844  0.08425065  1
  Si  Si18  1  0.83096279  0.04407658  0.08356270  1
  Si  Si19  1  0.18777724  0.33421435  0.08391859  1
  Si  Si20  1  0.68920242  0.33433706  0.08298085  1
  Si  Si21  1  0.31003473  0.66638012  0.91544018  1
  Si  Si22  1  0.81023382  0.66211037  0.91777714  1
  Si  Si23  1  0.02160523  0.37767548  0.91703336  1
  Si  Si24  1  0.52232222  0.37800392  0.91648900  1
  Si  Si25  1  0.16685221  0.95871917  0.91782845  1
  Si  Si26  1  0.66779952  0.95846529  0.91764149  1
  Si  Si27  1  0.31007365  0.95553854  0.41489206  1
  Si  Si28  1  0.80898300  0.95619455  0.41638944  1
  Si  Si29  1  0.16637498  0.37163773  0.41656034  1
  Si  Si30  1  0.66792077  0.37439619  0.41854801  1
  Si  Si31  1  0.02047378  0.66581133  0.41598636  1
  Si  Si32  1  0.52341658  0.66824462  0.41602766  1
  Sn  Sn0  1  0.83592879  0.33471257  0.68598569  1
  Sn  Sn1  1  0.33958406  0.34794357  0.18366605  1
  Sn  Sn2  1  0.83955700  0.34789766  0.18369935  1
  Sn  Sn3  1  0.83356173  0.33363345  0.98161940  1
  Sn  Sn4  1  0.83382322  0.33289079  0.48175919  1
  Sn  Sn5  1  0.16654334  0.66630016  0.01821617  1
  Sn  Sn6  1  0.66692652  0.66659243  0.01865178  1
  Sn  Sn7  1  0.66687047  0.66732539  0.51806315  1
  Sn  Sn8  1  0.16505969  0.65235660  0.31573091  1
  Sn  Sn9  1  0.66614873  0.65211467  0.31608281  1
  Sn  Sn10  1  0.16443367  0.67631989  0.81643896  1
  Sn  Sn11  1  0.66777934  0.66852373  0.81527287  1
  S  S0  1  0.14675818  0.00005208  0.25000833  1
  S  S1  1  0.64702332  -0.00000645  0.24996845  1
  S  S2  1  0.14562530  0.29330954  0.75040288  1
  O  O0  1  0.10714338  0.02447004  0.30264627  1
  O  O1  1  0.60741310  0.02461938  0.30257033  1
  O  O2  1  0.40974483  0.79046661  0.30717725  1
  O  O3  1  0.90938333  0.78970896  0.30703987  1
  O  O4  1  0.48405579  0.17747412  0.30636874  1
  O  O5  1  0.98394154  0.17762550  0.30627101  1
  O  O6  1  0.10677751  0.19032353  0.80286887  1
  O  O7  1  0.60572792  0.17608106  0.80691891  1
  O  O8  1  0.48261085  0.79026668  0.80758623  1
  O  O9  1  0.98534448  0.79321162  0.80646563  1
  O  O10  1  0.41134209  0.03323134  0.80749520  1
  O  O11  1  0.91088801  0.02951193  0.80753331  1
  O  O12  1  0.39361597  0.96419632  0.69343179  1
  O  O13  1  0.89567789  0.96692118  0.69365331  1
  O  O14  1  0.09463909  0.21408164  0.69752084  1
  O  O15  1  0.58764308  0.21244775  0.69323087  1
  O  O16  1  0.01563985  0.82160630  0.69279784  1
  O  O17  1  0.51759929  0.82329170  0.69350832  1
  O  O18  1  0.39553481  0.82281568  0.19367283  1
  O  O19  1  0.89511819  0.82236780  0.19365658  1
  O  O20  1  0.01435797  0.20918205  0.19283588  1
  O  O21  1  0.51453656  0.20988959  0.19288568  1
  O  O22  1  0.09485370  0.97558125  0.19733408  1
  O  O23  1  0.59503894  0.97562601  0.19738884  1
  O  O24  1  0.43981307  0.37069305  0.63945194  1
  O  O25  1  0.93677508  0.37505040  0.63886671  1
  O  O26  1  0.24828052  0.12975836  0.63833765  1
  O  O27  1  0.74804625  0.12280439  0.64100621  1
  O  O28  1  0.31554587  0.50599343  0.64149223  1
  O  O29  1  0.81294512  0.50426001  0.64103658  1
  O  O30  1  0.44168775  0.50335607  0.13798037  1
  O  O31  1  0.94138191  0.50246312  0.13764415  1
  O  O32  1  0.31254938  0.12344293  0.14242762  1
  O  O33  1  0.81241812  0.12412467  0.14209319  1
  O  O34  1  0.25019105  0.37179436  0.13971130  1
  O  O35  1  0.75072082  0.37247508  0.13934641  1
  O  O36  1  0.22775182  0.29767980  0.02546713  1
  O  O37  1  0.72710159  0.29388223  0.02392022  1
  O  O38  1  0.42148974  0.54726633  0.02510595  1
  O  O39  1  0.92021561  0.54858363  0.02364719  1
  O  O40  1  0.35093986  0.16017388  0.02666232  1
  O  O41  1  0.85302997  0.16189342  0.02529852  1
  O  O42  1  0.22776513  0.15787998  0.52528909  1
  O  O43  1  0.72776314  0.16038074  0.52452484  1
  O  O44  1  0.35038212  0.54159070  0.52683769  1
  O  O45  1  0.85337282  0.54532196  0.52451787  1
  O  O46  1  0.42106479  0.29860779  0.52563788  1
  O  O47  1  0.91991627  0.29140500  0.52400166  1
  O  O48  1  0.27138017  0.70537696  0.97450325  1
  O  O49  1  0.77270903  0.70665058  0.97561047  1
  O  O50  1  0.07995896  0.45322220  0.97600645  1
  O  O51  1  0.58118345  0.45650152  0.97496845  1
  O  O52  1  0.14582521  0.84003294  0.97601245  1
  O  O53  1  0.64769142  0.83905685  0.97539367  1
  O  O54  1  0.27093547  0.83888344  0.47298892  1
  O  O55  1  0.77238309  0.83854505  0.47473457  1
  O  O56  1  0.14755261  0.45265699  0.47447364  1
  O  O57  1  0.64593052  0.45177397  0.47633271  1
  O  O58  1  0.07879105  0.70283034  0.47448916  1
  O  O59  1  0.58053782  0.70686544  0.47566113  1
  O  O60  1  0.06400613  0.62819021  0.36028916  1
  O  O61  1  0.56588790  0.62980230  0.36002366  1
  O  O62  1  0.25023474  0.87408651  0.35700523  1
  O  O63  1  0.75044465  0.87610896  0.35784339  1
  O  O64  1  0.18912536  0.49743285  0.36136969  1
  O  O65  1  0.69019138  0.49738557  0.36235571  1
  O  O66  1  0.06359004  0.49980373  0.86075920  1
  O  O67  1  0.56200769  0.49597209  0.85838099  1
  O  O68  1  0.18936785  0.88075388  0.86160976  1
  O  O69  1  0.68717722  0.87932569  0.85916321  1
  O  O70  1  0.24979476  0.62556424  0.85727931  1
  O  O71  1  0.75292084  0.62630314  0.85902002  1
  O  O72  1  0.01237559  0.83570643  0.40968325  1
  O  O73  1  0.51414726  0.83703289  0.40993197  1
  O  O74  1  0.40470800  0.97532288  0.41058844  1
  O  O75  1  0.90364011  0.97600794  0.41106566  1
  O  O76  1  0.08287896  0.18452006  0.40930876  1
  O  O77  1  0.58434546  0.18740936  0.40984507  1
  O  O78  1  0.01307979  0.19104086  0.91015156  1
  O  O79  1  0.51263089  0.19061391  0.91178866  1
  O  O80  1  0.08344798  0.97996052  0.91015162  1
  O  O81  1  0.58338952  0.97672067  0.91193519  1
  O  O82  1  0.40412825  0.83450413  0.91114987  1
  O  O83  1  0.90434510  0.83202355  0.91190737  1
  O  O84  1  0.48950710  0.16566169  0.58841350  1
  O  O85  1  0.98961845  0.16694494  0.59058320  1
  O  O86  1  0.09382463  0.02621329  0.58962450  1
  O  O87  1  0.59488656  0.02283700  0.58858309  1
  O  O88  1  0.41777023  0.81265511  0.58883752  1
  O  O89  1  0.91575244  0.80834646  0.58831249  1
  O  O90  1  0.49172971  0.81497050  0.09070479  1
  O  O91  1  0.99068750  0.81295477  0.09012259  1
  O  O92  1  0.41586396  0.02259640  0.08933548  1
  O  O93  1  0.91554991  0.02358484  0.08887491  1
  O  O94  1  0.09463004  0.16410393  0.09035812  1
  O  O95  1  0.59566674  0.16518289  0.08996604  1
  O  O96  1  0.34569758  0.16994535  0.74499162  1
  O  O97  1  0.83882927  0.16550190  0.74508375  1
  O  O98  1  0.23213023  0.31451503  0.74507285  1
  O  O99  1  0.74139058  0.31211956  0.74421795  1
  O  O100  1  0.41414581  0.51910802  0.74532783  1
  O  O101  1  0.91193724  0.52440603  0.74443981  1
  O  O102  1  0.34123076  0.51229071  0.24503789  1
  O  O103  1  0.84114873  0.51205145  0.24500611  1
  O  O104  1  0.40870922  0.29652520  0.24419755  1
  O  O105  1  0.90864632  0.29642878  0.24413092  1
  O  O106  1  0.23281542  0.15123637  0.24498698  1
  O  O107  1  0.73295041  0.15146963  0.24495150  1
  O  O108  1  0.31998349  0.49861922  0.92081561  1
  O  O109  1  0.82117906  0.49530514  0.92227687  1
  O  O110  1  0.42842873  0.35847425  0.92140489  1
  O  O111  1  0.92708113  0.35805559  0.92226095  1
  O  O112  1  0.25093198  0.14577658  0.92233389  1
  O  O113  1  0.75301669  0.14627596  0.92243432  1
  O  O114  1  0.32134593  0.14321690  0.42072444  1
  O  O115  1  0.82060078  0.14558849  0.42171565  1
  O  O116  1  0.25085291  0.35454692  0.42189597  1
  O  O117  1  0.75304150  0.35686747  0.42322916  1
  O  O118  1  0.42936838  0.50052735  0.42163191  1
  O  O119  1  0.92655742  0.49568906  0.42172586  1
  O  O120  1  0.17872385  0.50381757  0.07822631  1
  O  O121  1  0.67937341  0.50361918  0.07776164  1
  O  O122  1  0.07467556  0.64358189  0.07705495  1
  O  O123  1  0.57542715  0.64452946  0.07748780  1
  O  O124  1  0.24754734  0.85291297  0.07842916  1
  O  O125  1  0.74779807  0.85457038  0.07817724  1
  O  O126  1  0.17768756  0.85440498  0.57838530  1
  O  O127  1  0.67965069  0.85408027  0.57767304  1
  O  O128  1  0.24875360  0.64369102  0.57871982  1
  O  O129  1  0.74772048  0.64239938  0.57761827  1
  O  O130  1  0.07172897  0.50078148  0.57800989  1
  O  O131  1  0.57503666  0.50718487  0.57802463  1
  O  O132  1  0.15691395  0.84865128  0.25497729  1
  O  O133  1  0.65712557  0.84875597  0.25498503  1
  O  O134  1  0.26042616  0.70329341  0.25554940  1
  O  O135  1  0.76048919  0.70347639  0.25570218  1
  O  O136  1  0.08478266  0.48772863  0.25467816  1
  O  O137  1  0.58508232  0.48786789  0.25489312  1
  O  O138  1  0.15644142  0.46511346  0.75525371  1
  O  O139  1  0.65553904  0.48281755  0.75568140  1
  O  O140  1  0.08631191  0.68406498  0.75478961  1
  O  O141  1  0.58561468  0.68823677  0.75557591  1
  O  O142  1  0.25938577  0.81524739  0.75591021  1
  O  O143  1  0.75977065  0.82845264  0.75561065  1
loop_
_geom_bond_atom_site_label_1
_geom_bond_atom_site_label_2
_geom_bond_distance
_geom_bond_site_symmetry_2
Na0 O104 2.375903 1_565
Na0 O134 2.376128 1_555
Na0 O106 2.591464 1_565
Na0 O132 2.592847 1_555
Na0 O62 2.743160 1_555
Na0 O32 2.746777 1_565
Na0 O4 2.904442 1_565
Na0 O18 2.906871 1_555
Na1 O105 2.374100 1_555
Na1 O135 2.376295 1_545
Na1 O133 2.588767 1_545
Na1 O107 2.589319 1_555
Na1 O63 2.755300 1_545
Na1 O33 2.756935 1_555
Na1 O5 2.902026 1_555
Na1 O19 2.906588 1_545
Na2 O142 2.361590 1_555
Na2 O100 2.483987 1_555
Na2 O138 2.596833 1_555
Na2 O98 2.597566 1_555
Na2 O70 2.732859 1_555
Na2 O28 2.769072 1_555
Na2 O12 2.891378 1_555
Na2 O8 2.893238 1_555
Na3 O101 2.396277 1_555
Na3 O143 2.494375 1_555
Na3 O99 2.559220 1_555
Na3 O139 2.575115 1_555
Na3 O29 2.739663 1_555
Na3 O71 2.756116 1_555
Na3 O13 2.949179 1_555
Na3 O9 2.960366 1_555
Na4 O139 2.477547 1_555
Na4 O96 2.492966 1_555
Na4 O141 2.570146 1_555
Na4 O100 2.604586 1_555
Na4 O67 2.715665 1_555
Na4 O24 2.801938 1_555
Na4 O15 2.908958 1_555
Na4 O10 2.943500 1_555
Na5 O97 2.454699 1_555
Na5 O99 2.499050 1_555
Na5 O141 2.522576 1_545
Na5 O143 2.579551 1_545
Na5 O27 2.742471 1_555
Na5 O69 2.761348 1_545
Na5 O7 2.939798 1_555
Na5 O17 2.940833 1_545
Na6 O86 2.486745 1_555
Na6 O128 2.488506 1_555
Na6 O85 2.557015 1_455
Na6 O130 2.568240 1_555
Na6 O56 2.693357 1_555
Na6 O14 2.867068 1_555
Na6 O42 2.931173 1_555
Na6 O28 2.959038 1_555
Na7 O129 2.486435 1_555
Na7 O87 2.502430 1_555
Na7 O84 2.561374 1_555
Na7 O131 2.588428 1_555
Na7 O57 2.701606 1_555
Na7 O15 2.766465 1_555
Na7 O29 2.891964 1_555
Na7 O43 2.922507 1_555
Na8 O130 2.463169 1_555
Na8 O89 2.521704 1_455
Na8 O126 2.568714 1_555
Na8 O86 2.634866 1_565
Na8 O58 2.741207 1_555
Na8 O16 2.753899 1_555
Na8 O25 2.844899 1_455
Na8 O45 2.912958 1_455
Na9 O131 2.484614 1_555
Na9 O88 2.503813 1_555
Na9 O87 2.555878 1_565
Na9 O127 2.572790 1_555
Na9 O59 2.698354 1_555
Na9 O17 2.772458 1_555
Na9 O24 2.940360 1_555
Na9 O44 2.943828 1_555
Na10 O126 2.500122 1_555
Na10 O84 2.513015 1_565
Na10 O128 2.568752 1_555
Na10 O88 2.568861 1_555
Na10 O12 2.754668 1_555
Na10 O54 2.780635 1_555
Na10 O26 2.925242 1_565
Na10 O46 2.958293 1_565
Na11 O127 2.447819 1_555
Na11 O85 2.532227 1_565
Na11 O129 2.588658 1_555
Na11 O89 2.595452 1_555
Na11 O55 2.729420 1_555
Na11 O13 2.788741 1_555
Na11 O27 2.888727 1_565
Na11 O47 2.912914 1_565
Na12 O124 2.471087 1_555
Na12 O94 2.495560 1_565
Na12 O91 2.542312 1_455
Na12 O122 2.568975 1_555
Na12 O52 2.660273 1_554
Na12 O22 2.859634 1_555
Na12 O32 2.924049 1_565
Na12 O36 2.933991 1_565
Na13 O125 2.467863 1_555
Na13 O95 2.483693 1_565
Na13 O90 2.529478 1_555
Na13 O123 2.568838 1_555
Na13 O53 2.683453 1_554
Na13 O23 2.862080 1_555
Na13 O37 2.914377 1_565
Na13 O33 2.918304 1_565
Na14 O120 2.461369 1_555
Na14 O90 2.566148 1_555
Na14 O124 2.584939 1_555
Na14 O92 2.593904 1_565
Na14 O48 2.743056 1_554
Na14 O18 2.782043 1_555
Na14 O34 2.892393 1_555
Na14 O38 2.927413 1_555
Na15 O121 2.454902 1_555
Na15 O91 2.548326 1_555
Na15 O125 2.595072 1_555
Na15 O93 2.599837 1_565
Na15 O49 2.714307 1_554
Na15 O19 2.777444 1_555
Na15 O35 2.884310 1_555
Na15 O39 2.915098 1_555
Na16 O122 2.463817 1_555
Na16 O93 2.532611 1_455
Na16 O120 2.564239 1_555
Na16 O94 2.610591 1_555
Na16 O50 2.696092 1_554
Na16 O20 2.766952 1_555
Na16 O31 2.808066 1_455
Na16 O41 2.921622 1_455
Na17 O123 2.470516 1_555
Na17 O92 2.539472 1_555
Na17 O121 2.571365 1_555
Na17 O95 2.613161 1_555
Na17 O51 2.731459 1_554
Na17 O21 2.761026 1_555
Na17 O30 2.815350 1_555
Na17 O40 2.942445 1_555
Na18 O110 2.489940 1_555
Na18 O81 2.496134 1_555
Na18 O82 2.591699 1_555
Na18 O108 2.595761 1_555
Na18 O38 2.727897 1_556
Na18 O8 2.748317 1_555
Na18 O67 2.927581 1_555
Na18 O53 2.929758 1_555
Na19 O111 2.458400 1_555
Na19 O80 2.548693 1_655
Na19 O109 2.577730 1_555
Na19 O83 2.597467 1_555
Na19 O39 2.686696 1_556
Na19 O9 2.794094 1_555
Na19 O66 2.875053 1_655
Na19 O52 2.908807 1_655
Na20 O82 2.478830 1_545
Na20 O112 2.495092 1_555
Na20 O79 2.589301 1_555
Na20 O110 2.590258 1_555
Na20 O10 2.738739 1_555
Na20 O40 2.776170 1_556
Na20 O68 2.832007 1_545
Na20 O48 2.928344 1_545
Na21 O113 2.438848 1_555
Na21 O83 2.529306 1_545
Na21 O111 2.567595 1_555
Na21 O78 2.605061 1_655
Na21 O41 2.726080 1_556
Na21 O11 2.759284 1_555
Na21 O69 2.887701 1_545
Na21 O49 2.944668 1_545
Na22 O108 2.463151 1_555
Na22 O78 2.476038 1_555
Na22 O80 2.566282 1_545
Na22 O112 2.578159 1_555
Na22 O36 2.699105 1_556
Na22 O6 2.853980 1_555
Na22 O50 2.895429 1_555
Na22 O70 2.934397 1_555
Na23 O109 2.479029 1_555
Na23 O79 2.486303 1_555
Na23 O81 2.564276 1_545
Na23 O113 2.583230 1_555
Na23 O37 2.694875 1_556
Na23 O7 2.759054 1_555
Na23 O71 2.925357 1_555
Na23 O51 2.929364 1_555
Na24 O118 2.473882 1_555
Na24 O77 2.541083 1_555
Na24 O114 2.588424 1_555
Na24 O74 2.611350 1_545
Na24 O46 2.750652 1_555
Na24 O4 2.768939 1_555
Na24 O61 2.900423 1_555
Na24 O57 2.907048 1_555
Na25 O119 2.459739 1_555
Na25 O76 2.554822 1_655
Na25 O115 2.581934 1_555
Na25 O75 2.601519 1_545
Na25 O47 2.692969 1_555
Na25 O5 2.784427 1_555
Na25 O60 2.896160 1_655
Na25 O56 2.921571 1_655
Na26 O114 2.484439 1_555
Na26 O72 2.485433 1_545
Na26 O76 2.551849 1_555
Na26 O116 2.566050 1_555
Na26 O42 2.705002 1_555
Na26 O0 2.846740 1_555
Na26 O58 2.923167 1_545
Na26 O62 2.931779 1_545
Na27 O115 2.463613 1_555
Na27 O73 2.468596 1_545
Na27 O77 2.543094 1_555
Na27 O117 2.570084 1_555
Na27 O43 2.672238 1_555
Na27 O1 2.863490 1_555
Na27 O59 2.912027 1_545
Na27 O63 2.927570 1_545
Na28 O116 2.487387 1_555
Na28 O74 2.515759 1_555
Na28 O118 2.574273 1_555
Na28 O73 2.626646 1_555
Na28 O2 2.748430 1_555
Na28 O44 2.779739 1_555
Na28 O64 2.825853 1_555
Na28 O54 2.935237 1_555
Na29 O117 2.459106 1_555
Na29 O75 2.531099 1_555
Na29 O119 2.566760 1_555
Na29 O72 2.605209 1_655
Na29 O45 2.715430 1_555
Na29 O3 2.763282 1_555
Na29 O65 2.801997 1_555
Na29 O55 2.926176 1_555
Na30 O86 2.607794 1_555
Na30 O89 2.627564 1_445
Na30 O76 2.629068 1_555
Na30 O75 2.631978 1_445
Na30 O72 2.633781 1_545
Na30 O85 2.638201 1_455
Na31 O87 2.586585 1_555
Na31 O84 2.589305 1_555
Na31 O88 2.600727 1_545
Na31 O73 2.637598 1_545
Na31 O77 2.647777 1_555
Na31 O74 2.648849 1_545
Na32 O83 2.618017 1_444
Na32 O80 2.619813 1_544
Na32 O94 2.621485 1_555
Na32 O93 2.635881 1_455
Na32 O91 2.637997 1_445
Na32 O78 2.640379 1_554
Na33 O81 2.584099 1_545
Na33 O79 2.599028 1_555
Na33 O82 2.609193 1_545
Na33 O95 2.642124 1_556
Na33 O92 2.651013 1_556
Na33 O90 2.654051 1_546
Na34 O110 2.569670 1_555
Na34 O96 2.577390 1_555
Na34 O112 2.579270 1_555
Na34 O108 2.611343 1_555
Na34 O100 2.614128 1_555
Na34 O98 2.719035 1_555
Na35 O97 2.521758 1_555
Na35 O101 2.557390 1_555
Na35 O99 2.594788 1_555
Na35 O111 2.595876 1_555
Na35 O109 2.645809 1_555
Na35 O113 2.653696 1_555
Na36 O102 2.488347 1_555
Na36 O104 2.554625 1_555
Na36 O118 2.594084 1_555
Na36 O116 2.627719 1_555
Na36 O114 2.677601 1_555
Na36 O106 2.704624 1_555
Na37 O103 2.498622 1_555
Na37 O119 2.558637 1_555
Na37 O105 2.567170 1_555
Na37 O117 2.622462 1_555
Na37 O115 2.667530 1_555
Na37 O107 2.710709 1_555
Na38 O136 2.495260 1_555
Na38 O134 2.560256 1_555
Na38 O120 2.562444 1_555
Na38 O122 2.616097 1_555
Na38 O124 2.657771 1_555
Na38 O132 2.716225 1_555
Na39 O137 2.495578 1_555
Na39 O135 2.561366 1_555
Na39 O121 2.577726 1_555
Na39 O123 2.604386 1_555
Na39 O125 2.671053 1_555
Na39 O133 2.714507 1_555
Na40 O140 2.475622 1_555
Na40 O142 2.553499 1_555
Na40 O126 2.580989 1_555
Na40 O130 2.627994 1_555
Na40 O128 2.662655 1_555
Na40 O138 2.720062 1_555
Na41 O143 2.580435 1_555
Na41 O131 2.581074 1_555
Na41 O141 2.585828 1_555
Na41 O139 2.591760 1_555
Na41 O129 2.597677 1_555
Na41 O127 2.604798 1_555
O0 S0 1.480906 1_555
O0 Zr0 2.268031 1_445
O1 S1 1.480939 1_555
O1 Zr1 2.251825 1_545
O2 Si0 1.647846 1_555
O2 Zr1 2.021955 1_555
O3 Si1 1.644335 1_555
O3 Zr0 2.016413 1_555
O4 Si3 1.653472 1_555
O4 Zr1 2.047399 1_545
O5 Si2 1.652847 1_655
O5 Zr0 2.042855 1_545
O6 S2 1.476021 1_555
O6 Zr2 2.270669 1_445
O7 Si4 1.639948 1_555
O7 Zr3 2.063411 1_555
O8 Si6 1.632835 1_555
O8 Zr3 2.057624 1_565
O9 Si5 1.654192 1_655
O9 Zr2 2.030190 1_555
O10 Si7 1.643371 1_545
O10 Zr3 2.054272 1_555
O11 Si8 1.636236 1_555
O11 Zr2 2.019737 1_545
O12 Si7 1.649811 1_555
O12 Zr5 2.068814 1_565
O13 Si8 1.642630 1_565
O13 Zr4 2.031819 1_555
O14 S2 1.477776 1_555
O14 Zr4 2.269936 1_445
O15 Si4 1.640475 1_555
O15 Zr5 2.054561 1_555
O16 Si5 1.649247 1_555
O16 Zr4 2.019814 1_455
O17 Si6 1.640682 1_555
O17 Zr5 2.062350 1_565
O18 Si0 1.653869 1_555
O18 Zr7 2.045217 1_565
O19 Si1 1.652318 1_555
O19 Zr6 2.042933 1_565
O20 Si2 1.646230 1_555
O20 Zr6 2.019859 1_455
O21 Si3 1.646181 1_555
O21 Zr7 2.018546 1_555
O22 S0 1.481369 1_565
O22 Zr6 2.262571 1_465
O23 S1 1.480597 1_565
O23 Zr7 2.254800 1_565
O24 Si9 1.647816 1_555
O24 Zr8 2.012238 1_555
O25 Si10 1.621311 1_555
O25 Sn0 2.008515 1_555
O26 Si11 1.630074 1_555
O26 Zr8 2.003171 1_555
O27 Si12 1.637393 1_555
O27 Sn0 2.071657 1_555
O28 Si13 1.641316 1_555
O28 Zr8 2.076306 1_555
O29 Si14 1.630801 1_555
O29 Sn0 2.078711 1_555
O30 Si15 1.626663 1_555
O30 Sn1 1.992275 1_555
O31 Si16 1.626524 1_555
O31 Sn2 1.991880 1_555
O32 Si17 1.643838 1_555
O32 Sn1 2.085919 1_555
O33 Si18 1.642561 1_555
O33 Sn2 2.083459 1_555
O34 Si19 1.631425 1_555
O34 Sn1 2.024892 1_555
O35 Si20 1.631393 1_555
O35 Sn2 2.024099 1_555
O36 Si19 1.638882 1_555
O36 Zr9 2.054158 1_554
O37 Si20 1.645181 1_555
O37 Sn3 2.041192 1_554
O38 Si15 1.635641 1_555
O38 Zr9 2.059181 1_554
O39 Si16 1.642769 1_555
O39 Sn3 2.048047 1_554
O40 Si17 1.632966 1_555
O40 Zr9 2.065552 1_554
O41 Si18 1.638670 1_555
O41 Sn3 2.044960 1_554
O42 Si11 1.636027 1_555
O42 Zr10 2.065869 1_555
O43 Si12 1.644662 1_555
O43 Sn4 2.043057 1_555
O44 Si13 1.638796 1_555
O44 Zr10 2.053427 1_555
O45 Si14 1.638332 1_555
O45 Sn4 2.044373 1_555
O46 Si9 1.629016 1_555
O46 Zr10 2.056196 1_555
O47 Si10 1.649072 1_555
O47 Sn4 2.041645 1_555
O48 Si21 1.646874 1_555
O48 Sn5 2.033098 1_556
O49 Si22 1.635257 1_555
O49 Sn6 2.037792 1_556
O50 Si23 1.643495 1_555
O50 Sn5 2.039808 1_556
O51 Si24 1.641063 1_555
O51 Sn6 2.035958 1_556
O52 Si25 1.643215 1_555
O52 Sn5 2.057421 1_556
O53 Si26 1.640588 1_555
O53 Sn6 2.043574 1_556
O54 Si27 1.634780 1_555
O54 Zr11 2.064438 1_555
O55 Si28 1.639054 1_555
O55 Sn7 2.040132 1_555
O56 Si29 1.638211 1_555
O56 Zr11 2.060528 1_555
O57 Si30 1.643386 1_555
O57 Sn7 2.050524 1_555
O58 Si31 1.638918 1_555
O58 Zr11 2.051173 1_555
O59 Si32 1.646808 1_555
O59 Sn7 2.036991 1_555
O60 Si31 1.630096 1_555
O60 Sn8 2.027147 1_555
O61 Si32 1.627552 1_555
O61 Sn9 2.013497 1_555
O62 Si27 1.640991 1_555
O62 Sn8 2.069276 1_555
O63 Si28 1.641404 1_555
O63 Sn9 2.082923 1_555
O64 Si29 1.622393 1_555
O64 Sn8 1.985555 1_555
O65 Si30 1.626442 1_555
O65 Sn9 1.991553 1_555
O66 Si23 1.629815 1_555
O66 Sn10 2.021055 1_555
O67 Si24 1.641405 1_555
O67 Sn11 2.043999 1_555
O68 Si25 1.622246 1_555
O68 Sn10 1.982780 1_555
O69 Si26 1.643639 1_555
O69 Sn11 2.044854 1_555
O70 Si21 1.647965 1_555
O70 Sn10 2.065276 1_555
O71 Si22 1.635033 1_555
O71 Sn11 2.047121 1_555
O72 Si31 1.644889 1_555
O72 Zr0 2.141717 1_455
O73 Si32 1.646582 1_555
O73 Zr1 2.143316 1_555
O74 Si27 1.652934 1_555
O74 Zr1 2.062758 1_555
O75 Si28 1.654815 1_555
O75 Zr0 2.068651 1_555
O76 Si29 1.639134 1_555
O76 Zr0 2.140509 1_445
O77 Si30 1.642629 1_555
O77 Zr1 2.155143 1_545
O78 Si23 1.647231 1_555
O78 Zr2 2.142068 1_445
O79 Si24 1.641241 1_555
O79 Zr3 2.137452 1_555
O80 Si25 1.643113 1_555
O80 Zr2 2.136348 1_455
O81 Si26 1.641309 1_555
O81 Zr3 2.154193 1_565
O82 Si21 1.643698 1_555
O82 Zr3 2.152135 1_565
O83 Si22 1.653415 1_555
O83 Zr2 2.067763 1_555
O84 Si9 1.631832 1_555
O84 Zr5 2.154393 1_555
O85 Si10 1.646906 1_555
O85 Zr4 2.153567 1_545
O86 Si11 1.637196 1_555
O86 Zr4 2.126595 1_445
O87 Si12 1.644281 1_555
O87 Zr5 2.158652 1_555
O88 Si13 1.637037 1_555
O88 Zr5 2.139290 1_565
O89 Si14 1.656363 1_555
O89 Zr4 2.063545 1_555
O90 Si15 1.639183 1_555
O90 Zr7 2.147206 1_565
O91 Si16 1.644518 1_555
O91 Zr6 2.157414 1_565
O92 Si17 1.652711 1_555
O92 Zr7 2.065783 1_555
O93 Si18 1.655689 1_555
O93 Zr6 2.069891 1_555
O94 Si19 1.645334 1_555
O94 Zr6 2.137241 1_455
O95 Si20 1.646822 1_555
O95 Zr7 2.149114 1_555
O96 Si7 1.641141 1_545
O96 Zr8 2.105573 1_555
O97 Si8 1.625713 1_555
O97 Sn0 2.083366 1_555
O98 S2 1.501594 1_555
O98 Zr8 2.322233 1_555
O99 Si4 1.635036 1_555
O99 Sn0 2.113210 1_555
O100 Si6 1.644835 1_555
O100 Zr8 2.150491 1_555
O101 Si5 1.641152 1_655
O101 Sn0 2.079456 1_555
O102 Si0 1.634749 1_555
O102 Sn1 2.048358 1_555
O103 Si1 1.632538 1_555
O103 Sn2 2.046403 1_555
O104 Si3 1.662432 1_555
O104 Sn1 2.085095 1_555
O105 Si2 1.661582 1_655
O105 Sn2 2.083346 1_555
O106 S0 1.495452 1_555
O106 Sn1 2.354150 1_555
O107 S1 1.495117 1_555
O107 Sn2 2.350973 1_555
O108 Si21 1.643040 1_555
O108 Zr9 2.152105 1_555
O109 Si22 1.643556 1_555
O109 Sn3 2.108897 1_555
O110 Si24 1.641334 1_555
O110 Zr9 2.144316 1_555
O111 Si23 1.652969 1_655
O111 Sn3 2.110317 1_555
O112 Si25 1.638255 1_545
O112 Zr9 2.120748 1_555
O113 Si26 1.651371 1_545
O113 Sn3 2.102425 1_555
O114 Si27 1.633884 1_545
O114 Zr10 2.152427 1_555
O115 Si28 1.646081 1_545
O115 Sn4 2.115712 1_555
O116 Si29 1.635788 1_555
O116 Zr10 2.112867 1_555
O117 Si30 1.648735 1_555
O117 Sn4 2.088182 1_555
O118 Si32 1.643839 1_555
O118 Zr10 2.146382 1_555
O119 Si31 1.651944 1_655
O119 Sn4 2.117518 1_555
O120 Si19 1.650963 1_555
O120 Sn5 2.122753 1_555
O121 Si20 1.655357 1_555
O121 Sn6 2.115089 1_555
O122 Si16 1.648628 1_455
O122 Sn5 2.084377 1_555
O123 Si15 1.646780 1_555
O123 Sn6 2.081047 1_555
O124 Si17 1.645280 1_565
O124 Sn5 2.116958 1_555
O125 Si18 1.645928 1_565
O125 Sn6 2.111834 1_555
O126 Si11 1.631403 1_565
O126 Zr11 2.141210 1_555
O127 Si12 1.655467 1_565
O127 Sn7 2.107875 1_555
O128 Si13 1.634897 1_555
O128 Zr11 2.139122 1_555
O129 Si14 1.646459 1_555
O129 Sn7 2.108289 1_555
O130 Si10 1.640853 1_455
O130 Zr11 2.130426 1_555
O131 Si9 1.641187 1_555
O131 Sn7 2.101614 1_555
O132 S0 1.495613 1_565
O132 Sn8 2.342169 1_555
O133 S1 1.493637 1_565
O133 Sn9 2.356657 1_555
O134 Si0 1.661235 1_555
O134 Sn8 2.087982 1_555
O135 Si1 1.661614 1_555
O135 Sn9 2.076707 1_555
O136 Si2 1.632048 1_555
O136 Sn8 2.041108 1_555
O137 Si3 1.633066 1_555
O137 Sn9 2.047047 1_555
O138 S2 1.491215 1_555
O138 Sn10 2.333368 1_555
O139 Si4 1.646780 1_555
O139 Sn11 2.103272 1_555
O140 Si5 1.633643 1_555
O140 Sn10 2.036488 1_555
O141 Si6 1.643449 1_555
O141 Sn11 2.106940 1_555
O142 Si7 1.648940 1_555
O142 Sn10 2.089789 1_555
O143 Si8 1.656198 1_565
O143 Sn11 2.097846 1_555
