# generated using pymatgen
data_Ga4Bi2O9
_symmetry_space_group_name_H-M   'P 1'
_cell_length_a   5.91941117
_cell_length_b   7.94668159
_cell_length_c   8.33018845
_cell_angle_alpha   90.00000000
_cell_angle_beta   90.00000000
_cell_angle_gamma   90.00000000
_symmetry_Int_Tables_number   1
_chemical_formula_structural   Ga4Bi2O9
_chemical_formula_sum   'Ga8 Bi4 O18'
_cell_volume   391.84936378
_cell_formula_units_Z   2
loop_
 _symmetry_equiv_pos_site_id
 _symmetry_equiv_pos_as_xyz
  1  'x, y, z'
loop_
 _atom_site_type_symbol
 _atom_site_label
 _atom_site_symmetry_multiplicity
 _atom_site_fract_x
 _atom_site_fract_y
 _atom_site_fract_z
 _atom_site_occupancy
  Ga  Ga0  1  0.50000000  0.14879508  0.66409044  1
  Ga  Ga1  1  0.50000000  0.85120492  0.33590956  1
  Ga  Ga2  1  0.50000000  0.64879508  0.83590956  1
  Ga  Ga3  1  0.50000000  0.35120492  0.16409044  1
  Ga  Ga4  1  0.25761514  0.50000000  0.50000000  1
  Ga  Ga5  1  0.74238486  -0.00000000  -0.00000000  1
  Ga  Ga6  1  0.74238486  0.50000000  0.50000000  1
  Ga  Ga7  1  0.25761514  -0.00000000  -0.00000000  1
  Bi  Bi0  1  0.00000000  0.32657310  0.82958812  1
  Bi  Bi1  1  0.00000000  0.67342690  0.17041188  1
  Bi  Bi2  1  0.00000000  0.82657310  0.67041188  1
  Bi  Bi3  1  0.00000000  0.17342690  0.32958812  1
  O  O0  1  0.50000000  0.50000000  -0.00000000  1
  O  O1  1  0.50000000  -0.00000000  0.50000000  1
  O  O2  1  0.24232971  0.87131459  0.20748450  1
  O  O3  1  0.24232971  0.12868541  0.79251550  1
  O  O4  1  0.75767029  0.37131459  0.29251550  1
  O  O5  1  0.75767029  0.62868541  0.70748450  1
  O  O6  1  0.75767029  0.12868541  0.79251550  1
  O  O7  1  0.75767029  0.87131459  0.20748450  1
  O  O8  1  0.24232971  0.62868541  0.70748450  1
  O  O9  1  0.24232971  0.37131459  0.29251550  1
  O  O10  1  0.50000000  0.36787197  0.59264591  1
  O  O11  1  0.50000000  0.63212803  0.40735409  1
  O  O12  1  0.00000000  0.14927597  0.06716873  1
  O  O13  1  0.00000000  0.85072403  0.93283127  1
  O  O14  1  0.00000000  0.64927597  0.43283127  1
  O  O15  1  0.00000000  0.35072403  0.56716873  1
  O  O16  1  0.50000000  0.13212803  0.09264591  1
  O  O17  1  0.50000000  0.86787197  0.90735409  1
loop_
_geom_bond_atom_site_label_1
_geom_bond_atom_site_label_2
_geom_bond_distance
_geom_bond_site_symmetry_2
Ga0 O1 1.807363 1_555
Ga0 O10 1.839851 1_555
Ga0 O6 1.869874 1_555
Ga0 O3 1.869874 1_555
Ga1 O1 1.807363 1_565
Ga1 O11 1.839851 1_555
Ga1 O7 1.869874 1_555
Ga1 O2 1.869874 1_555
Ga2 O0 1.807363 1_556
Ga2 O17 1.839851 1_555
Ga2 O5 1.869874 1_555
Ga2 O8 1.869874 1_555
Ga3 O0 1.807363 1_555
Ga3 O16 1.839851 1_555
Ga3 O9 1.869874 1_555
Ga3 O4 1.869874 1_555
Ga4 O10 1.938207 1_555
Ga4 O11 1.938207 1_555
Ga4 O8 2.010288 1_555
Ga4 O9 2.010288 1_555
Ga4 O15 2.011385 1_555
Ga4 O14 2.011385 1_555
Ga5 O17 1.938207 1_544
Ga5 O16 1.938207 1_555
Ga5 O7 2.010288 1_545
Ga5 O6 2.010288 1_554
Ga5 O12 2.011385 1_655
Ga5 O13 2.011385 1_644
Ga6 O10 1.938207 1_555
Ga6 O11 1.938207 1_555
Ga6 O5 2.010288 1_555
Ga6 O4 2.010288 1_555
Ga6 O15 2.011385 1_655
Ga6 O14 2.011385 1_655
Ga7 O17 1.938207 1_544
Ga7 O16 1.938207 1_555
Ga7 O2 2.010288 1_545
Ga7 O3 2.010288 1_554
Ga7 O12 2.011385 1_555
Ga7 O13 2.011385 1_544
Bi0 O3 2.150798 1_555
Bi0 O6 2.150798 1_455
Bi0 O15 2.194412 1_555
Bi0 O12 2.429376 1_556
Bi1 O2 2.150798 1_555
Bi1 O7 2.150798 1_455
Bi1 O14 2.194412 1_555
Bi1 O13 2.429376 1_554
Bi2 O8 2.150798 1_555
Bi2 O5 2.150798 1_455
Bi2 O13 2.194412 1_555
Bi2 O14 2.429376 1_555
Bi3 O9 2.150798 1_555
Bi3 O4 2.150798 1_455
Bi3 O12 2.194412 1_555
Bi3 O15 2.429376 1_555
