# generated using pymatgen
data_Na15Ca8Ta4P15(SO24)3
_symmetry_space_group_name_H-M   'P 1'
_cell_length_a   9.20414657
_cell_length_b   9.21983640
_cell_length_c   22.76859914
_cell_angle_alpha   90.00228908
_cell_angle_beta   89.99951243
_cell_angle_gamma   119.81714544
_symmetry_Int_Tables_number   1
_chemical_formula_structural   Na15Ca8Ta4P15(SO24)3
_chemical_formula_sum   'Na15 Ca8 Ta4 P15 S3 O72'
_cell_volume   1676.37414306
_cell_formula_units_Z   1
loop_
 _symmetry_equiv_pos_site_id
 _symmetry_equiv_pos_as_xyz
  1  'x, y, z'
loop_
 _atom_site_type_symbol
 _atom_site_label
 _atom_site_symmetry_multiplicity
 _atom_site_fract_x
 _atom_site_fract_y
 _atom_site_fract_z
 _atom_site_occupancy
  Na  Na0  1  0.99718232  0.65301714  0.24585105  1
  Na  Na1  1  0.65927575  0.64564864  0.74989750  1
  Na  Na2  1  0.34779641  0.01198080  0.75022629  1
  Na  Na3  1  0.30594040  0.33775253  0.58446824  1
  Na  Na4  1  0.04411949  0.71549599  0.58115221  1
  Na  Na5  1  0.65695696  0.95097022  0.58272837  1
  Na  Na6  1  0.29647925  0.95223613  0.08346842  1
  Na  Na7  1  0.67091700  0.71373178  0.07654340  1
  Na  Na8  1  0.03175884  0.33899569  0.08493076  1
  Na  Na9  1  -0.00002498  0.99239868  0.48916274  1
  Na  Na10  1  0.99224105  0.99156699  0.98855330  1
  Na  Na11  1  0.68042938  0.33250067  0.82697005  1
  Na  Na12  1  0.65428210  0.30411001  0.32690571  1
  Na  Na13  1  0.34099258  0.67599833  0.16968332  1
  Na  Na14  1  0.32934019  0.66222751  0.66850368  1
  Ca  Ca0  1  0.00132129  0.00764855  0.35117391  1
  Ca  Ca1  1  0.00028749  0.00306002  0.85126643  1
  Ca  Ca2  1  0.00278990  0.00276702  0.65716284  1
  Ca  Ca3  1  0.00452577  0.01088360  0.15692396  1
  Ca  Ca4  1  0.67029400  0.33121497  0.68650399  1
  Ca  Ca5  1  0.66436174  0.32203315  0.18832607  1
  Ca  Ca6  1  0.33099224  0.66825460  0.01129212  1
  Ca  Ca7  1  0.33684147  0.67041949  0.51066711  1
  Ta  Ta0  1  0.67555216  0.33314547  0.97430173  1
  Ta  Ta1  1  0.65805966  0.33331930  0.47453641  1
  Ta  Ta2  1  0.32923777  0.66601755  0.32317866  1
  Ta  Ta3  1  0.33180197  0.66336628  0.82262574  1
  P  P0  1  0.30168233  0.98669899  0.25237398  1
  P  P1  1  0.01245808  0.31871973  0.25145292  1
  P  P2  1  0.30447048  0.31484687  0.75037786  1
  P  P3  1  0.01205322  0.69787347  0.75151828  1
  P  P4  1  0.68254314  0.98628783  0.75201250  1
  P  P5  1  0.37441990  0.04422740  0.58062885  1
  P  P6  1  0.67074682  0.62570021  0.58097564  1
  P  P7  1  0.95298135  0.62520931  0.08180756  1
  P  P8  1  0.66929213  0.04372658  0.07885479  1
  P  P9  1  0.62936889  0.65598057  0.92090263  1
  P  P10  1  0.03285028  0.37045244  0.92114562  1
  P  P11  1  0.34442628  0.97361307  0.91984353  1
  P  P12  1  0.62826949  0.97173913  0.42063183  1
  P  P13  1  0.33820088  0.37164976  0.42080117  1
  P  P14  1  0.02461307  0.65599977  0.42066929  1
  S  S0  1  0.68357872  0.69790456  0.25208136  1
  S  S1  1  0.95405100  0.33004618  0.57844069  1
  S  S2  1  0.37978949  0.33077084  0.07981542  1
  O  O0  1  0.19530625  0.99400282  0.30082085  1
  O  O1  1  0.79939934  0.78746899  0.29960864  1
  O  O2  1  0.98510191  0.19706763  0.29921993  1
  O  O3  1  0.21236967  0.18468327  0.79669289  1
  O  O4  1  0.98285063  0.79455044  0.79869664  1
  O  O5  1  0.79910033  0.00794217  0.80096271  1
  O  O6  1  0.73831920  0.94675860  0.69216392  1
  O  O7  1  0.21695664  0.26389846  0.68966002  1
  O  O8  1  0.06131948  0.79653600  0.69224625  1
  O  O9  1  0.74355630  0.78845053  0.19484286  1
  O  O10  1  0.04514432  0.26612199  0.19034595  1
  O  O11  1  0.20553992  0.94208865  0.19242481  1
  O  O12  1  0.87879107  0.34866882  0.63223825  1
  O  O13  1  0.46945795  0.12149643  0.63721959  1
  O  O14  1  0.65993207  0.53402005  0.63772175  1
  O  O15  1  0.87193288  0.53419629  0.13857224  1
  O  O16  1  0.64479137  0.12515313  0.13245049  1
  O  O17  1  0.47503155  0.35064023  0.13321848  1
  O  O18  1  0.47366629  0.31992706  0.02682977  1
  O  O19  1  0.83519562  0.51100467  0.02799387  1
  O  O20  1  0.67557487  0.15770622  0.02368348  1
  O  O21  1  0.48871116  0.16116369  0.52707621  1
  O  O22  1  0.67595141  0.51221959  0.52734584  1
  O  O23  1  0.84912725  0.32122433  0.52599977  1
  O  O24  1  0.55733568  0.67124301  0.97905758  1
  O  O25  1  0.11394771  0.43754411  0.98042047  1
  O  O26  1  0.32664405  0.88682709  0.97822626  1
  O  O27  1  0.56345381  0.88893620  0.47983700  1
  O  O28  1  0.32336423  0.43883036  0.47982221  1
  O  O29  1  0.11398724  0.67513176  0.47855606  1
  O  O30  1  0.13308251  0.63562013  0.36877831  1
  O  O31  1  0.49699323  0.86019053  0.37078814  1
  O  O32  1  0.36129549  0.50061462  0.37058379  1
  O  O33  1  0.14078954  0.49963457  0.87110605  1
  O  O34  1  0.36449400  0.86534229  0.86836943  1
  O  O35  1  0.50300525  0.63611598  0.86900432  1
  O  O36  1  0.99115040  0.79627215  0.40861737  1
  O  O37  1  0.80125219  0.00215842  0.40915591  1
  O  O38  1  0.19867900  0.19725103  0.41043208  1
  O  O39  1  0.99900164  0.19697362  0.91053222  1
  O  O40  1  0.20232663  0.00576562  0.90926408  1
  O  O41  1  0.80283309  0.79827765  0.91049163  1
  O  O42  1  0.96227191  0.17242397  0.57878020  1
  O  O43  1  0.20590164  0.04264811  0.57672789  1
  O  O44  1  0.83338051  0.79700379  0.57640189  1
  O  O45  1  0.96164155  0.79678918  0.07686347  1
  O  O46  1  0.83684052  0.04230045  0.07756706  1
  O  O47  1  0.21376982  0.17313759  0.08047037  1
  O  O48  1  0.63735481  0.12586535  0.74992722  1
  O  O49  1  0.48833727  0.35296435  0.74902922  1
  O  O50  1  0.86058506  0.52166765  0.74797994  1
  O  O51  1  0.66232157  0.52816564  0.24836122  1
  O  O52  1  0.87430007  0.36743195  0.25130338  1
  O  O53  1  0.47856866  0.13492030  0.25119706  1
  O  O54  1  0.63316339  0.48417467  0.92266563  1
  O  O55  1  0.85693902  0.36929371  0.92081551  1
  O  O56  1  0.51620219  0.14854810  0.92092676  1
  O  O57  1  0.63097055  0.14683054  0.42135972  1
  O  O58  1  0.51168696  0.36736507  0.42151689  1
  O  O59  1  0.85147768  0.48312881  0.42274212  1
  O  O60  1  0.35333822  0.47721501  0.07567334  1
  O  O61  1  0.12904042  0.64326462  0.07796093  1
  O  O62  1  0.51855351  0.86405865  0.07547407  1
  O  O63  1  0.34912973  0.86597703  0.57654875  1
  O  O64  1  0.51273126  0.64344659  0.57720016  1
  O  O65  1  0.12590988  0.47707666  0.57485646  1
  O  O66  1  0.31652503  0.82026761  0.26607096  1
  O  O67  1  0.51397225  0.68263560  0.26353763  1
  O  O68  1  0.18077382  0.49613994  0.26622061  1
  O  O69  1  0.31809638  0.49055691  0.76677705  1
  O  O70  1  0.17502033  0.68508794  0.76776100  1
  O  O71  1  0.50488705  0.81708520  0.76486549  1
loop_
_geom_bond_atom_site_label_1
_geom_bond_atom_site_label_2
_geom_bond_distance
_geom_bond_site_symmetry_2
Na0 O52 2.294783 1_555
Na0 O66 2.592633 1_655
Na0 O11 2.679192 1_655
Na0 O15 2.690587 1_555
Na0 O51 2.701757 1_555
Na1 O49 2.352770 1_555
Na1 O50 2.616866 1_555
Na1 O71 2.620570 1_555
Na1 O69 2.754665 1_555
Na1 O14 2.754742 1_555
Na1 O4 2.814779 1_555
Na1 O6 2.820663 1_555
Na2 O48 2.328647 1_555
Na2 O70 2.646814 1_545
Na2 O3 2.679937 1_555
Na2 O8 2.726204 1_545
Na2 O49 2.741057 1_555
Na2 O13 2.787392 1_555
Na3 O43 2.406302 1_555
Na3 O64 2.501796 1_555
Na3 O7 2.513225 1_555
Na3 O28 2.534311 1_555
Na3 O65 2.561341 1_555
Na3 O42 2.747905 1_455
Na4 O44 2.405899 1_455
Na4 O63 2.437982 1_555
Na4 O29 2.499340 1_555
Na4 O43 2.618947 1_565
Na4 O8 2.619867 1_555
Na4 O65 2.657995 1_555
Na5 O27 2.463009 1_555
Na5 O64 2.464558 1_555
Na5 O42 2.523484 1_565
Na5 O63 2.540360 1_555
Na5 O6 2.607645 1_555
Na5 O44 2.639129 1_555
Na6 O61 2.477864 1_555
Na6 O47 2.504821 1_565
Na6 O26 2.519723 1_554
Na6 O62 2.554320 1_555
Na6 O11 2.604947 1_555
Na6 O45 2.679965 1_455
Na7 O45 2.389346 1_555
Na7 O24 2.401199 1_554
Na7 O62 2.412705 1_555
Na7 O46 2.628500 1_565
Na7 O60 2.638357 1_555
Na7 O9 2.778208 1_555
Na8 O46 2.418496 1_455
Na8 O61 2.489729 1_555
Na8 O10 2.511933 1_555
Na8 O25 2.525212 1_554
Na8 O60 2.584214 1_555
Na8 O47 2.775390 1_555
Na9 O36 2.548189 1_455
Na9 O38 2.586605 1_565
Na9 O44 2.606765 1_455
Na9 O37 2.614525 1_465
Na9 O43 2.628463 1_565
Na9 O42 2.758875 1_465
Na10 O41 2.506846 1_555
Na10 O39 2.574721 1_565
Na10 O40 2.600677 1_665
Na10 O45 2.616199 1_556
Na10 O46 2.652817 1_566
Na10 O47 2.818710 1_666
Na11 O48 2.472332 1_555
Na11 O50 2.479954 1_555
Na11 O49 2.577326 1_555
Na11 O55 2.602310 1_555
Na11 O56 2.681143 1_555
Na11 O54 2.738058 1_555
Na12 O53 2.347620 1_555
Na12 O52 2.495826 1_555
Na12 O57 2.542567 1_555
Na12 O51 2.705419 1_555
Na12 O58 2.732062 1_555
Na12 O59 2.792943 1_555
Na13 O66 2.633241 1_555
Na13 O67 2.647311 1_555
Na13 O68 2.706319 1_555
Na13 O62 2.731409 1_555
Na13 O61 2.769972 1_555
Na13 O60 2.856625 1_555
Na14 O71 2.677420 1_555
Na14 O69 2.712911 1_555
Na14 O70 2.732565 1_555
Na14 O64 2.737041 1_555
Na14 O63 2.757831 1_555
Na14 O65 2.790600 1_555
Ca0 O2 2.175082 1_455
Ca0 O0 2.177487 1_545
Ca0 O38 2.240080 1_555
Ca0 O37 2.245812 1_455
Ca0 O1 2.280658 1_445
Ca0 O36 2.310020 1_445
Ca1 O5 2.196764 1_455
Ca1 O4 2.201620 1_445
Ca1 O3 2.215386 1_555
Ca1 O39 2.244611 1_455
Ca1 O40 2.270775 1_555
Ca1 O41 2.296494 1_445
Ca2 O7 2.347323 1_555
Ca2 O8 2.358487 1_545
Ca2 O6 2.361600 1_445
Ca2 O43 2.510082 1_555
Ca2 O42 2.520160 1_455
Ca2 O44 2.543541 1_445
Ca3 O10 2.319829 1_555
Ca3 O11 2.376102 1_545
Ca3 O9 2.412905 1_445
Ca3 O47 2.472289 1_555
Ca3 O46 2.485025 1_455
Ca3 O45 2.569024 1_445
Ca4 O13 2.204612 1_555
Ca4 O14 2.217326 1_555
Ca4 O12 2.219925 1_555
Ca4 O50 2.247571 1_555
Ca4 O48 2.278410 1_555
Ca4 O49 2.281579 1_555
Ca5 O16 2.149553 1_555
Ca5 O53 2.239637 1_555
Ca5 O15 2.245744 1_555
Ca5 O17 2.266665 1_555
Ca5 O52 2.271729 1_555
Ca5 O51 2.348622 1_555
Ca6 O26 2.170201 1_554
Ca6 O25 2.187142 1_554
Ca6 O24 2.196006 1_554
Ca6 O62 2.296809 1_555
Ca6 O61 2.320876 1_555
Ca6 O60 2.377797 1_555
Ca7 O27 2.173320 1_555
Ca7 O28 2.191854 1_555
Ca7 O29 2.198279 1_555
Ca7 O63 2.304500 1_555
Ca7 O64 2.319050 1_555
Ca7 O65 2.375148 1_555
O0 P0 1.498491 1_555
O1 S0 1.453906 1_555
O2 P1 1.491142 1_655
O3 P2 1.503077 1_555
O4 P3 1.502927 1_655
O5 P4 1.489951 1_545
O6 P4 1.561811 1_555
O7 P2 1.550598 1_555
O8 P3 1.563404 1_555
O9 S0 1.497290 1_555
O10 P1 1.551282 1_555
O11 P0 1.566324 1_555
O12 S1 1.458743 1_555
O13 P5 1.520899 1_555
O14 P6 1.519918 1_555
O15 P7 1.519412 1_555
O16 P8 1.507275 1_555
O17 S2 1.456286 1_555
O18 S2 1.515880 1_555
O18 Ta0 2.161682 1_554
O19 P7 1.627880 1_555
O19 Ta0 1.986527 1_554
O20 P8 1.620285 1_555
O20 Ta0 1.970032 1_554
O21 P5 1.621088 1_555
O21 Ta1 1.979826 1_555
O22 P6 1.624114 1_555
O22 Ta1 1.980713 1_555
O23 S1 1.512219 1_555
O23 Ta1 2.161764 1_555
O24 P9 1.518349 1_555
O25 P10 1.517238 1_555
O26 P11 1.517859 1_555
O27 P12 1.517572 1_555
O28 P13 1.514006 1_555
O29 P14 1.516783 1_555
O30 P14 1.616931 1_555
O30 Ta2 1.978107 1_555
O31 P12 1.603044 1_555
O31 Ta2 2.003761 1_555
O32 P13 1.585894 1_555
O32 Ta2 2.006305 1_555
O33 P10 1.589660 1_555
O33 Ta3 1.987206 1_555
O34 P11 1.608549 1_555
O34 Ta3 2.021301 1_555
O35 P9 1.603354 1_555
O35 Ta3 2.013716 1_555
O36 P14 1.496298 1_655
O37 P12 1.495938 1_545
O38 P13 1.495600 1_555
O39 P10 1.489332 1_655
O40 P11 1.497365 1_545
O41 P9 1.497822 1_555
O42 S1 1.492340 1_555
O43 P5 1.546432 1_555
O44 P6 1.547558 1_555
O45 P7 1.547957 1_555
O46 P8 1.548997 1_555
O47 S2 1.496301 1_555
O48 P4 1.537398 1_545
O49 P2 1.548223 1_555
O50 P3 1.528731 1_655
O51 S0 1.479886 1_555
O52 P1 1.544896 1_655
O53 P0 1.518659 1_545
O54 P9 1.602179 1_555
O54 Ta0 2.003450 1_555
O55 P10 1.613845 1_655
O55 Ta0 1.956542 1_555
O56 P11 1.601799 1_545
O56 Ta0 2.010510 1_555
O57 P12 1.602183 1_545
O57 Ta1 2.014432 1_555
O58 P13 1.616880 1_555
O58 Ta1 1.947170 1_555
O59 P14 1.598804 1_655
O59 Ta1 2.005628 1_555
O60 S2 1.489327 1_555
O61 P7 1.546949 1_455
O62 P8 1.545741 1_565
O63 P5 1.543781 1_565
O64 P6 1.544697 1_555
O65 S1 1.487954 1_455
O66 P0 1.636774 1_555
O66 Ta2 1.972955 1_555
O67 S0 1.518645 1_555
O67 Ta2 2.121199 1_555
O68 P1 1.633616 1_555
O68 Ta2 1.968170 1_555
O69 P2 1.605461 1_555
O69 Ta3 1.992826 1_555
O70 P3 1.605128 1_555
O70 Ta3 1.992589 1_555
O71 P4 1.629826 1_555
O71 Ta3 2.007712 1_555
