# generated using pymatgen
data_Na3CaTaSi(PO6)2
_symmetry_space_group_name_H-M   'P 1'
_cell_length_a   16.06662993
_cell_length_b   9.24103480
_cell_length_c   9.04497251
_cell_angle_alpha   89.99999874
_cell_angle_beta   125.26785132
_cell_angle_gamma   89.99999413
_symmetry_Int_Tables_number   1
_chemical_formula_structural   Na3CaTaSi(PO6)2
_chemical_formula_sum   'Na12 Ca4 Ta4 Si4 P8 O48'
_cell_volume   1096.44906965
_cell_formula_units_Z   4
loop_
 _symmetry_equiv_pos_site_id
 _symmetry_equiv_pos_as_xyz
  1  'x, y, z'
loop_
 _atom_site_type_symbol
 _atom_site_label
 _atom_site_symmetry_multiplicity
 _atom_site_fract_x
 _atom_site_fract_y
 _atom_site_fract_z
 _atom_site_occupancy
  Na  Na0  1  0.25546014  0.71956169  0.98889724  1
  Na  Na1  1  0.75546015  0.78043837  0.48889721  1
  Na  Na2  1  0.75545995  0.21956172  0.98889704  1
  Na  Na3  1  0.25546009  0.28043829  0.48889708  1
  Na  Na4  1  0.51091167  0.09479921  0.75228039  1
  Na  Na5  1  0.51091157  0.90520072  0.25228022  1
  Na  Na6  1  0.01091159  0.59479932  0.75228022  1
  Na  Na7  1  0.01091173  0.40520083  0.25228041  1
  Na  Na8  1  0.17883561  0.93064428  0.30708817  1
  Na  Na9  1  0.17883567  0.06935567  0.80708820  1
  Na  Na10  1  0.67883573  0.43064439  0.30708819  1
  Na  Na11  1  0.67883565  0.56935565  0.80708816  1
  Ca  Ca0  1  0.10532868  0.74624751  0.56765529  1
  Ca  Ca1  1  0.10532894  0.25375275  0.06765572  1
  Ca  Ca2  1  0.60532865  0.24624772  0.56765518  1
  Ca  Ca3  1  0.60532889  0.75375208  0.06765543  1
  Ta  Ta0  1  0.89538893  0.75590940  0.93744052  1
  Ta  Ta1  1  0.89538885  0.24409052  0.43744029  1
  Ta  Ta2  1  0.39538881  0.25590954  0.93744009  1
  Ta  Ta3  1  0.39538875  0.74409036  0.43744031  1
  Si  Si0  1  0.65121729  0.88007588  0.74631945  1
  Si  Si1  1  0.65121724  0.11992420  0.24631943  1
  Si  Si2  1  0.15121720  0.38007595  0.74631943  1
  Si  Si3  1  0.15121713  0.61992403  0.24631937  1
  P  P0  1  0.99136816  0.95798987  0.75898237  1
  P  P1  1  0.99136815  0.04201018  0.25898233  1
  P  P2  1  0.49136821  0.45798974  0.75898247  1
  P  P3  1  0.49136820  0.54201010  0.25898228  1
  P  P4  1  0.35604140  0.91576978  0.75563245  1
  P  P5  1  0.35604137  0.08423037  0.25563235  1
  P  P6  1  0.85604147  0.41576962  0.75563247  1
  P  P7  1  0.85604143  0.58423022  0.25563240  1
  O  O0  1  0.15691767  0.55332822  0.75517663  1
  O  O1  1  0.85756529  0.58780208  0.74562412  1
  O  O2  1  0.85756531  0.41219745  0.24562428  1
  O  O3  1  0.15691769  0.44667173  0.25517654  1
  O  O4  1  0.65691764  0.05332817  0.75517643  1
  O  O5  1  0.35756533  0.08780277  0.74562427  1
  O  O6  1  0.35756528  0.91219741  0.24562430  1
  O  O7  1  0.65691765  0.94667182  0.25517657  1
  O  O8  1  0.43287649  0.57211177  0.59257208  1
  O  O9  1  0.55481156  0.53798512  0.93388473  1
  O  O10  1  0.55481141  0.46201506  0.43388441  1
  O  O11  1  0.43287665  0.42788844  0.09257252  1
  O  O12  1  0.93287660  0.07211155  0.59257250  1
  O  O13  1  0.05481148  0.03798500  0.93388448  1
  O  O14  1  0.05481146  0.96201507  0.43388442  1
  O  O15  1  0.93287661  0.92788844  0.09257234  1
  O  O16  1  0.26072721  0.87365364  0.74316434  1
  O  O17  1  0.74821948  0.80085645  0.75191251  1
  O  O18  1  0.74821980  0.19914360  0.25191290  1
  O  O19  1  0.26072721  0.12634644  0.24316428  1
  O  O20  1  0.76072722  0.37365361  0.74316435  1
  O  O21  1  0.24821975  0.30085640  0.75191276  1
  O  O22  1  0.24821999  0.69914365  0.25191307  1
  O  O23  1  0.76072727  0.62634632  0.24316429  1
  O  O24  1  0.35887444  0.86412935  0.58562685  1
  O  O25  1  0.65548738  0.80302287  0.90545972  1
  O  O26  1  0.65548739  0.19697718  0.40545965  1
  O  O27  1  0.35887435  0.13587040  0.08562715  1
  O  O28  1  0.85887441  0.36412956  0.58562721  1
  O  O29  1  0.15548734  0.30302287  0.90545974  1
  O  O30  1  0.15548736  0.69697720  0.40545973  1
  O  O31  1  0.85887441  0.63587057  0.08562676  1
  O  O32  1  0.45291735  0.86591532  0.92916639  1
  O  O33  1  0.53459021  0.81882222  0.55534432  1
  O  O34  1  0.53459046  0.18117768  0.05534473  1
  O  O35  1  0.45291746  0.13408471  0.42916665  1
  O  O36  1  0.95291723  0.36591531  0.92916624  1
  O  O37  1  0.03459045  0.31882224  0.55534467  1
  O  O38  1  0.03459041  0.68117776  0.05534456  1
  O  O39  1  0.95291737  0.63408472  0.42916650  1
  O  O40  1  0.05688679  0.85438810  0.73580424  1
  O  O41  1  0.90557391  0.86850777  0.75196768  1
  O  O42  1  0.90557394  0.13149231  0.25196771  1
  O  O43  1  0.05688674  0.14561191  0.23580419  1
  O  O44  1  0.55688675  0.35438808  0.73580413  1
  O  O45  1  0.40557379  0.36850757  0.75196778  1
  O  O46  1  0.40557398  0.63149228  0.25196782  1
  O  O47  1  0.55688674  0.64561186  0.23580434  1
loop_
_geom_bond_atom_site_label_1
_geom_bond_atom_site_label_2
_geom_bond_distance
_geom_bond_site_symmetry_2
Na0 O0 2.338884 1_555
Na0 O46 2.348166 1_556
Na0 O22 2.455241 1_556
Na0 O6 2.617862 1_556
Na0 O16 2.681831 1_555
Na0 O40 2.921890 1_555
Na1 O7 2.338884 1_555
Na1 O41 2.348166 1_555
Na1 O17 2.455241 1_555
Na1 O1 2.617864 1_555
Na1 O23 2.681832 1_555
Na1 O47 2.921892 1_555
Na2 O4 2.338884 1_555
Na2 O42 2.348168 1_556
Na2 O18 2.455241 1_556
Na2 O2 2.617863 1_556
Na2 O20 2.681830 1_555
Na2 O44 2.921889 1_555
Na3 O3 2.338883 1_555
Na3 O45 2.348166 1_555
Na3 O21 2.455241 1_555
Na3 O5 2.617861 1_555
Na3 O19 2.681830 1_555
Na3 O43 2.921890 1_555
Na4 O4 2.362093 1_555
Na4 O5 2.430354 1_555
Na4 O35 2.529155 1_555
Na4 O44 2.539593 1_555
Na4 O34 2.663049 1_556
Na4 O24 2.920760 1_545
Na5 O7 2.362094 1_555
Na5 O6 2.430355 1_555
Na5 O32 2.529156 1_554
Na5 O47 2.539593 1_555
Na5 O33 2.663048 1_555
Na5 O27 2.920758 1_565
Na6 O0 2.362093 1_555
Na6 O1 2.430354 1_455
Na6 O39 2.529155 1_455
Na6 O40 2.539592 1_555
Na6 O38 2.663048 1_556
Na6 O28 2.920759 1_455
Na7 O3 2.362093 1_555
Na7 O2 2.430356 1_455
Na7 O36 2.529158 1_454
Na7 O43 2.539593 1_555
Na7 O37 2.663049 1_555
Na7 O31 2.920760 1_455
Na8 O30 2.445514 1_555
Na8 O19 2.492903 1_565
Na8 O24 2.583912 1_555
Na8 O22 2.590533 1_555
Na8 O43 2.596543 1_565
Na8 O14 2.830031 1_555
Na8 O13 2.929457 1_564
Na9 O29 2.445516 1_555
Na9 O16 2.492901 1_545
Na9 O27 2.583911 1_556
Na9 O21 2.590533 1_555
Na9 O40 2.596543 1_545
Na9 O13 2.830032 1_555
Na9 O14 2.929458 1_545
Na10 O26 2.445515 1_555
Na10 O23 2.492901 1_555
Na10 O28 2.583911 1_555
Na10 O18 2.590532 1_555
Na10 O47 2.596543 1_555
Na10 O10 2.830033 1_555
Na10 O9 2.929456 1_554
Na11 O25 2.445516 1_555
Na11 O20 2.492901 1_555
Na11 O31 2.583911 1_556
Na11 O17 2.590532 1_555
Na11 O44 2.596543 1_555
Na11 O9 2.830032 1_555
Na11 O10 2.929457 1_555
Ca0 O30 2.091479 1_555
Ca0 O14 2.228089 1_555
Ca0 O39 2.257773 1_455
Ca0 O0 2.262445 1_555
Ca0 O40 2.298806 1_555
Ca0 O16 2.358577 1_555
Ca1 O29 2.091479 1_554
Ca1 O13 2.228092 1_554
Ca1 O36 2.257776 1_454
Ca1 O3 2.262441 1_555
Ca1 O43 2.298807 1_555
Ca1 O19 2.358574 1_555
Ca2 O26 2.091480 1_555
Ca2 O10 2.228087 1_555
Ca2 O35 2.257773 1_555
Ca2 O4 2.262446 1_555
Ca2 O44 2.298805 1_555
Ca2 O20 2.358576 1_555
Ca3 O25 2.091479 1_554
Ca3 O9 2.228084 1_554
Ca3 O32 2.257777 1_554
Ca3 O7 2.262448 1_555
Ca3 O47 2.298807 1_555
Ca3 O23 2.358573 1_555
O0 Si2 1.603007 1_555
O1 P6 1.593325 1_555
O1 Ta0 2.138971 1_555
O2 P7 1.593328 1_555
O2 Ta1 2.138967 1_555
O3 Si3 1.603007 1_555
O4 Si0 1.603007 1_545
O5 P4 1.593330 1_545
O5 Ta2 2.138965 1_555
O6 P5 1.593329 1_565
O6 Ta3 2.138968 1_555
O7 Si1 1.603008 1_565
O8 P2 1.620935 1_555
O8 Ta3 1.970134 1_555
O9 P2 1.491978 1_555
O10 P3 1.491975 1_555
O11 P3 1.620930 1_555
O11 Ta2 1.970139 1_554
O12 P0 1.620930 1_545
O12 Ta1 1.970139 1_555
O13 P0 1.491976 1_445
O14 P1 1.491975 1_465
O15 P1 1.620932 1_565
O15 Ta0 1.970138 1_554
O16 P4 1.519828 1_555
O17 Si0 1.695982 1_555
O17 Ta0 1.999339 1_555
O18 Si1 1.695985 1_555
O18 Ta1 1.999333 1_555
O19 P5 1.519828 1_555
O20 P6 1.519829 1_555
O21 Si2 1.695986 1_555
O21 Ta2 1.999333 1_555
O22 Si3 1.695989 1_555
O22 Ta3 1.999330 1_555
O23 P7 1.519827 1_555
O24 P4 1.635585 1_555
O24 Ta3 2.068636 1_555
O25 Si0 1.571499 1_555
O26 Si1 1.571498 1_555
O27 P5 1.635580 1_555
O27 Ta2 2.068642 1_554
O28 P6 1.635580 1_555
O28 Ta1 2.068641 1_555
O29 Si2 1.571499 1_555
O30 Si3 1.571500 1_555
O31 P7 1.635584 1_555
O31 Ta0 2.068635 1_554
O32 P4 1.509070 1_555
O33 Si0 1.754295 1_555
O33 Ta3 1.965158 1_555
O34 Si1 1.754291 1_555
O34 Ta2 1.965160 1_554
O35 P5 1.509072 1_555
O36 P6 1.509067 1_555
O37 Si2 1.754292 1_555
O37 Ta1 1.965159 1_455
O38 Si3 1.754291 1_555
O38 Ta0 1.965158 1_454
O39 P7 1.509071 1_555
O40 P0 1.524300 1_455
O41 P0 1.576978 1_555
O41 Ta0 2.059324 1_555
O42 P1 1.576978 1_555
O42 Ta1 2.059322 1_555
O43 P1 1.524300 1_455
O44 P2 1.524299 1_555
O45 P2 1.576981 1_555
O45 Ta2 2.059318 1_555
O46 P3 1.576979 1_555
O46 Ta3 2.059322 1_555
O47 P3 1.524298 1_555
