# generated using pymatgen
data_Th3Si2
_symmetry_space_group_name_H-M   'P 1'
_cell_length_a   18.89327868
_cell_length_b   18.89327868
_cell_length_c   6.71903056
_cell_angle_alpha   90.00000000
_cell_angle_beta   90.00000000
_cell_angle_gamma   90.00000000
_symmetry_Int_Tables_number   1
_chemical_formula_structural   Th3Si2
_chemical_formula_sum   'Th48 Si32'
_cell_volume   2398.39813336
_cell_formula_units_Z   16
loop_
 _symmetry_equiv_pos_site_id
 _symmetry_equiv_pos_as_xyz
  1  'x, y, z'
loop_
 _atom_site_type_symbol
 _atom_site_label
 _atom_site_symmetry_multiplicity
 _atom_site_fract_x
 _atom_site_fract_y
 _atom_site_fract_z
 _atom_site_occupancy
  Th  Th0_0  1  0.39642900  0.35357100  0.25000000  1
  Th  Th0_1  1  0.39642900  0.35357100  0.75000000  1
  Th  Th0_2  1  0.39642900  0.85357100  0.25000000  1
  Th  Th0_3  1  0.39642900  0.85357100  0.75000000  1
  Th  Th0_4  1  0.89642900  0.35357100  0.25000000  1
  Th  Th0_5  1  0.89642900  0.35357100  0.75000000  1
  Th  Th0_6  1  0.89642900  0.85357100  0.25000000  1
  Th  Th0_7  1  0.89642900  0.85357100  0.75000000  1
  Th  Th1_0  1  0.14642900  0.39642900  0.25000000  1
  Th  Th1_1  1  0.14642900  0.39642900  0.75000000  1
  Th  Th1_2  1  0.14642900  0.89642900  0.25000000  1
  Th  Th1_3  1  0.14642900  0.89642900  0.75000000  1
  Th  Th1_4  1  0.64642900  0.39642900  0.25000000  1
  Th  Th1_5  1  0.64642900  0.39642900  0.75000000  1
  Th  Th1_6  1  0.64642900  0.89642900  0.25000000  1
  Th  Th1_7  1  0.64642900  0.89642900  0.75000000  1
  Th  Th2_0  1  0.10357100  0.14642900  0.25000000  1
  Th  Th2_1  1  0.10357100  0.14642900  0.75000000  1
  Th  Th2_2  1  0.10357100  0.64642900  0.25000000  1
  Th  Th2_3  1  0.10357100  0.64642900  0.75000000  1
  Th  Th2_4  1  0.60357100  0.14642900  0.25000000  1
  Th  Th2_5  1  0.60357100  0.14642900  0.75000000  1
  Th  Th2_6  1  0.60357100  0.64642900  0.25000000  1
  Th  Th2_7  1  0.60357100  0.64642900  0.75000000  1
  Th  Th3_0  1  0.35357100  0.10357100  0.25000000  1
  Th  Th3_1  1  0.35357100  0.10357100  0.75000000  1
  Th  Th3_2  1  0.35357100  0.60357100  0.25000000  1
  Th  Th3_3  1  0.35357100  0.60357100  0.75000000  1
  Th  Th3_4  1  0.85357100  0.10357100  0.25000000  1
  Th  Th3_5  1  0.85357100  0.10357100  0.75000000  1
  Th  Th3_6  1  0.85357100  0.60357100  0.25000000  1
  Th  Th3_7  1  0.85357100  0.60357100  0.75000000  1
  Th  Th4_0  1  0.25000000  0.25000000  0.00000000  1
  Th  Th4_1  1  0.25000000  0.25000000  0.50000000  1
  Th  Th4_2  1  0.25000000  0.75000000  0.00000000  1
  Th  Th4_3  1  0.25000000  0.75000000  0.50000000  1
  Th  Th4_4  1  0.75000000  0.25000000  0.00000000  1
  Th  Th4_5  1  0.75000000  0.25000000  0.50000000  1
  Th  Th4_6  1  0.75000000  0.75000000  0.00000000  1
  Th  Th4_7  1  0.75000000  0.75000000  0.50000000  1
  Th  Th5_0  1  0.00000000  0.00000000  0.00000000  1
  Th  Th5_1  1  0.00000000  0.00000000  0.50000000  1
  Th  Th5_2  1  0.00000000  0.50000000  0.00000000  1
  Th  Th5_3  1  0.00000000  0.50000000  0.50000000  1
  Th  Th5_4  1  0.50000000  0.00000000  0.00000000  1
  Th  Th5_5  1  0.50000000  0.00000000  0.50000000  1
  Th  Th5_6  1  0.50000000  0.50000000  0.00000000  1
  Th  Th5_7  1  0.50000000  0.50000000  0.50000000  1
  Si  Si0_0  1  0.04224805  0.29224805  0.25000000  1
  Si  Si0_1  1  0.04224805  0.29224805  0.75000000  1
  Si  Si0_2  1  0.04224805  0.79224805  0.25000000  1
  Si  Si0_3  1  0.04224805  0.79224805  0.75000000  1
  Si  Si0_4  1  0.54224805  0.29224805  0.25000000  1
  Si  Si0_5  1  0.54224805  0.29224805  0.75000000  1
  Si  Si0_6  1  0.54224805  0.79224805  0.25000000  1
  Si  Si0_7  1  0.54224805  0.79224805  0.75000000  1
  Si  Si1_0  1  0.29224805  0.45775195  0.25000000  1
  Si  Si1_1  1  0.29224805  0.45775195  0.75000000  1
  Si  Si1_2  1  0.29224805  0.95775195  0.25000000  1
  Si  Si1_3  1  0.29224805  0.95775195  0.75000000  1
  Si  Si1_4  1  0.79224805  0.45775195  0.25000000  1
  Si  Si1_5  1  0.79224805  0.45775195  0.75000000  1
  Si  Si1_6  1  0.79224805  0.95775195  0.25000000  1
  Si  Si1_7  1  0.79224805  0.95775195  0.75000000  1
  Si  Si2_0  1  0.20775195  0.04224805  0.25000000  1
  Si  Si2_1  1  0.20775195  0.04224805  0.75000000  1
  Si  Si2_2  1  0.20775195  0.54224805  0.25000000  1
  Si  Si2_3  1  0.20775195  0.54224805  0.75000000  1
  Si  Si2_4  1  0.70775195  0.04224805  0.25000000  1
  Si  Si2_5  1  0.70775195  0.04224805  0.75000000  1
  Si  Si2_6  1  0.70775195  0.54224805  0.25000000  1
  Si  Si2_7  1  0.70775195  0.54224805  0.75000000  1
  Si  Si3_0  1  0.45775195  0.20775195  0.25000000  1
  Si  Si3_1  1  0.45775195  0.20775195  0.75000000  1
  Si  Si3_2  1  0.45775195  0.70775195  0.25000000  1
  Si  Si3_3  1  0.45775195  0.70775195  0.75000000  1
  Si  Si3_4  1  0.95775195  0.20775195  0.25000000  1
  Si  Si3_5  1  0.95775195  0.20775195  0.75000000  1
  Si  Si3_6  1  0.95775195  0.70775195  0.25000000  1
  Si  Si3_7  1  0.95775195  0.70775195  0.75000000  1
loop_
_geom_bond_atom_site_label_1
_geom_bond_atom_site_label_2
_geom_bond_distance
_geom_bond_site_symmetry_2
Th0_0 Th4_1 3.782101 1_555
Th0_0 Th5_6 3.782101 1_555
Th0_0 Th5_7 3.782101 1_555
Th0_0 Th4_0 3.782101 1_555
Th0_1 Th4_1 3.782101 1_555
Th0_1 Th4_0 3.782101 1_556
Th0_1 Th5_7 3.782101 1_555
Th0_1 Th5_6 3.782101 1_556
Th0_2 Th4_2 3.782101 1_555
Th0_2 Th4_3 3.782101 1_555
Th0_2 Th5_5 3.782101 1_565
Th0_2 Th5_4 3.782101 1_565
Th0_3 Th4_2 3.782101 1_556
Th0_3 Th4_3 3.782101 1_555
Th0_3 Th5_5 3.782101 1_565
Th0_3 Th5_4 3.782101 1_566
Th0_4 Th5_3 3.782101 1_655
Th0_4 Th5_2 3.782101 1_655
Th0_4 Th4_4 3.782101 1_555
Th0_4 Th4_5 3.782101 1_555
Th0_5 Th5_2 3.782101 1_656
Th0_5 Th5_3 3.782101 1_655
Th0_5 Th4_4 3.782101 1_556
Th0_5 Th4_5 3.782101 1_555
Th0_6 Th5_0 3.782101 1_665
Th0_6 Th4_7 3.782101 1_555
Th0_6 Th5_1 3.782101 1_665
Th0_6 Th4_6 3.782101 1_555
Th0_7 Th4_6 3.782101 1_556
Th0_7 Th4_7 3.782101 1_555
Th0_7 Th5_1 3.782101 1_665
Th0_7 Th5_0 3.782101 1_666
Th1_0 Th4_0 3.782101 1_555
Th1_0 Th4_1 3.782101 1_555
Th1_0 Th5_3 3.782101 1_555
Th1_0 Th5_2 3.782101 1_555
Th1_1 Th4_1 3.782101 1_555
Th1_1 Th4_0 3.782101 1_556
Th1_1 Th5_2 3.782101 1_556
Th1_1 Th5_3 3.782101 1_555
Th1_2 Th5_0 3.782101 1_565
Th1_2 Th5_1 3.782101 1_565
Th1_2 Th4_2 3.782101 1_555
Th1_2 Th4_3 3.782101 1_555
Th1_3 Th5_0 3.782101 1_566
Th1_3 Th5_1 3.782101 1_565
Th1_3 Th4_2 3.782101 1_556
Th1_3 Th4_3 3.782101 1_555
Th1_4 Th4_5 3.782101 1_555
Th1_4 Th4_4 3.782101 1_555
Th1_4 Th5_6 3.782101 1_555
Th1_4 Th5_7 3.782101 1_555
Th1_5 Th4_5 3.782101 1_555
Th1_5 Th4_4 3.782101 1_556
Th1_5 Th5_6 3.782101 1_556
Th1_5 Th5_7 3.782101 1_555
Th1_6 Th5_5 3.782101 1_565
Th1_6 Th5_4 3.782101 1_565
Th1_6 Th4_7 3.782101 1_555
Th1_6 Th4_6 3.782101 1_555
Th1_7 Th4_6 3.782101 1_556
Th1_7 Th5_5 3.782101 1_565
Th1_7 Th4_7 3.782101 1_555
Th1_7 Th5_4 3.782101 1_566
Th2_0 Th4_1 3.782101 1_555
Th2_0 Th5_1 3.782101 1_555
Th2_0 Th5_0 3.782101 1_555
Th2_0 Th4_0 3.782101 1_555
Th2_1 Th4_1 3.782101 1_555
Th2_1 Th5_1 3.782101 1_555
Th2_1 Th4_0 3.782101 1_556
Th2_1 Th5_0 3.782101 1_556
Th2_2 Th4_3 3.782101 1_555
Th2_2 Th4_2 3.782101 1_555
Th2_2 Th5_2 3.782101 1_555
Th2_2 Th5_3 3.782101 1_555
Th2_3 Th4_3 3.782101 1_555
Th2_3 Th4_2 3.782101 1_556
Th2_3 Th5_3 3.782101 1_555
Th2_3 Th5_2 3.782101 1_556
Th2_4 Th5_5 3.782101 1_555
Th2_4 Th5_4 3.782101 1_555
Th2_4 Th4_5 3.782101 1_555
Th2_4 Th4_4 3.782101 1_555
Th2_5 Th5_5 3.782101 1_555
Th2_5 Th5_4 3.782101 1_556
Th2_5 Th4_4 3.782101 1_556
Th2_5 Th4_5 3.782101 1_555
Th2_6 Th5_6 3.782101 1_555
Th2_6 Th5_7 3.782101 1_555
Th2_6 Th4_7 3.782101 1_555
Th2_6 Th4_6 3.782101 1_555
Th2_7 Th4_6 3.782101 1_556
Th2_7 Th5_7 3.782101 1_555
Th2_7 Th4_7 3.782101 1_555
Th2_7 Th5_6 3.782101 1_556
Th3_0 Th5_5 3.782101 1_555
Th3_0 Th5_4 3.782101 1_555
Th3_0 Th4_1 3.782101 1_555
Th3_0 Th4_0 3.782101 1_555
Th3_1 Th5_5 3.782101 1_555
Th3_1 Th5_4 3.782101 1_556
Th3_1 Th4_1 3.782101 1_555
Th3_1 Th4_0 3.782101 1_556
Th3_2 Th5_6 3.782101 1_555
Th3_2 Th5_7 3.782101 1_555
Th3_2 Th4_2 3.782101 1_555
Th3_2 Th4_3 3.782101 1_555
Th3_3 Th5_6 3.782101 1_556
Th3_3 Th5_7 3.782101 1_555
Th3_3 Th4_3 3.782101 1_555
Th3_3 Th4_2 3.782101 1_556
Th3_4 Th4_4 3.782101 1_555
Th3_4 Th4_5 3.782101 1_555
Th3_4 Th5_0 3.782101 1_655
Th3_4 Th5_1 3.782101 1_655
Th3_5 Th4_4 3.782101 1_556
Th3_5 Th4_5 3.782101 1_555
Th3_5 Th5_0 3.782101 1_656
Th3_5 Th5_1 3.782101 1_655
Th3_6 Th5_3 3.782101 1_655
Th3_6 Th4_7 3.782101 1_555
Th3_6 Th4_6 3.782101 1_555
Th3_6 Th5_2 3.782101 1_655
Th3_7 Th4_6 3.782101 1_556
Th3_7 Th5_2 3.782101 1_656
Th3_7 Th5_3 3.782101 1_655
Th3_7 Th4_7 3.782101 1_555
Th4_0 Th4_1 3.359515 1_554
Th4_0 Th4_1 3.359515 1_555
Th4_2 Th4_3 3.359515 1_555
Th4_2 Th4_3 3.359515 1_554
Th4_4 Th4_5 3.359515 1_554
Th4_4 Th4_5 3.359515 1_555
Th4_6 Th4_7 3.359515 1_555
Th4_6 Th4_7 3.359515 1_554
Th5_0 Th5_1 3.359515 1_555
Th5_0 Th5_1 3.359515 1_554
Th5_2 Th5_3 3.359515 1_555
Th5_2 Th5_3 3.359515 1_554
Th5_4 Th5_5 3.359515 1_555
Th5_4 Th5_5 3.359515 1_554
Th5_6 Th5_7 3.359515 1_555
Th5_6 Th5_7 3.359515 1_554
Si0_0 Si3_4 2.257662 1_455
Si0_0 Th1_0 2.783624 1_555
Si0_0 Th2_0 2.988705 1_555
Si0_0 Th0_4 2.988705 1_455
Si0_1 Si3_5 2.257662 1_455
Si0_1 Th1_1 2.783624 1_555
Si0_1 Th2_1 2.988705 1_555
Si0_1 Th0_5 2.988705 1_455
Si0_2 Si3_6 2.257662 1_455
Si0_2 Th1_2 2.783624 1_555
Si0_2 Th2_2 2.988705 1_555
Si0_2 Th0_6 2.988705 1_455
Si0_3 Si3_7 2.257662 1_455
Si0_3 Th1_3 2.783624 1_555
Si0_3 Th2_3 2.988705 1_555
Si0_3 Th0_7 2.988705 1_455
Si0_4 Si3_0 2.257662 1_555
Si0_4 Th1_4 2.783624 1_555
Si0_4 Th2_4 2.988705 1_555
Si0_4 Th0_0 2.988705 1_555
Si0_5 Si3_1 2.257662 1_555
Si0_5 Th1_5 2.783624 1_555
Si0_5 Th2_5 2.988705 1_555
Si0_5 Th0_1 2.988705 1_555
Si0_6 Si3_2 2.257662 1_555
Si0_6 Th1_6 2.783624 1_555
Si0_6 Th2_6 2.988705 1_555
Si0_6 Th0_2 2.988705 1_555
Si0_7 Si3_3 2.257662 1_555
Si0_7 Th1_7 2.783624 1_555
Si0_7 Th2_7 2.988705 1_555
Si0_7 Th0_3 2.988705 1_555
Si1_0 Si2_2 2.257662 1_555
Si1_0 Th0_0 2.783624 1_555
Si1_0 Th1_0 2.988705 1_555
Si1_0 Th3_2 2.988705 1_555
Si1_1 Si2_3 2.257662 1_555
Si1_1 Th0_1 2.783624 1_555
Si1_1 Th1_1 2.988705 1_555
Si1_1 Th3_3 2.988705 1_555
Si1_2 Si2_0 2.257662 1_565
Si1_2 Th0_2 2.783624 1_555
Si1_2 Th1_2 2.988705 1_555
Si1_2 Th3_0 2.988705 1_565
Si1_3 Si2_1 2.257662 1_565
Si1_3 Th0_3 2.783624 1_555
Si1_3 Th1_3 2.988705 1_555
Si1_3 Th3_1 2.988705 1_565
Si1_4 Si2_6 2.257662 1_555
Si1_4 Th0_4 2.783624 1_555
Si1_4 Th1_4 2.988705 1_555
Si1_4 Th3_6 2.988705 1_555
Si1_5 Si2_7 2.257662 1_555
Si1_5 Th0_5 2.783624 1_555
Si1_5 Th1_5 2.988705 1_555
Si1_5 Th3_7 2.988705 1_555
Si1_6 Si2_4 2.257662 1_565
Si1_6 Th0_6 2.783624 1_555
Si1_6 Th1_6 2.988705 1_555
Si1_6 Th3_4 2.988705 1_565
Si1_7 Si2_5 2.257662 1_565
Si1_7 Th0_7 2.783624 1_555
Si1_7 Th1_7 2.988705 1_555
Si1_7 Th3_5 2.988705 1_565
Si2_0 Th2_0 2.783624 1_555
Si2_0 Th1_2 2.988705 1_545
Si2_0 Th3_0 2.988705 1_555
Si2_1 Th2_1 2.783624 1_555
Si2_1 Th1_3 2.988705 1_545
Si2_1 Th3_1 2.988705 1_555
Si2_2 Th2_2 2.783624 1_555
Si2_2 Th1_0 2.988705 1_555
Si2_2 Th3_2 2.988705 1_555
Si2_3 Th2_3 2.783624 1_555
Si2_3 Th1_1 2.988705 1_555
Si2_3 Th3_3 2.988705 1_555
Si2_4 Th2_4 2.783624 1_555
Si2_4 Th3_4 2.988705 1_555
Si2_4 Th1_6 2.988705 1_545
Si2_5 Th2_5 2.783624 1_555
Si2_5 Th3_5 2.988705 1_555
Si2_5 Th1_7 2.988705 1_545
Si2_6 Th2_6 2.783624 1_555
Si2_6 Th3_6 2.988705 1_555
Si2_6 Th1_4 2.988705 1_555
Si2_7 Th2_7 2.783624 1_555
Si2_7 Th3_7 2.988705 1_555
Si2_7 Th1_5 2.988705 1_555
Si3_0 Th3_0 2.783624 1_555
Si3_0 Th2_4 2.988705 1_555
Si3_0 Th0_0 2.988705 1_555
Si3_1 Th3_1 2.783624 1_555
Si3_1 Th2_5 2.988705 1_555
Si3_1 Th0_1 2.988705 1_555
Si3_2 Th3_2 2.783624 1_555
Si3_2 Th0_2 2.988705 1_555
Si3_2 Th2_6 2.988705 1_555
Si3_3 Th3_3 2.783624 1_555
Si3_3 Th0_3 2.988705 1_555
Si3_3 Th2_7 2.988705 1_555
Si3_4 Th3_4 2.783624 1_555
Si3_4 Th0_4 2.988705 1_555
Si3_4 Th2_0 2.988705 1_655
Si3_5 Th3_5 2.783624 1_555
Si3_5 Th0_5 2.988705 1_555
Si3_5 Th2_1 2.988705 1_655
Si3_6 Th3_6 2.783624 1_555
Si3_6 Th0_6 2.988705 1_555
Si3_6 Th2_2 2.988705 1_655
Si3_7 Th3_7 2.783624 1_555
Si3_7 Th0_7 2.988705 1_555
Si3_7 Th2_3 2.988705 1_655
