# generated using pymatgen
data_MgCo5NiO12
_symmetry_space_group_name_H-M   'P 1'
_cell_length_a   4.87896036
_cell_length_b   4.88476500
_cell_length_c   9.99399523
_cell_angle_alpha   90.38404779
_cell_angle_beta   90.01723433
_cell_angle_gamma   60.11758081
_symmetry_Int_Tables_number   1
_chemical_formula_structural   MgCo5NiO12
_chemical_formula_sum   'Mg1 Co5 Ni1 O12'
_cell_volume   206.51026996
_cell_formula_units_Z   1
loop_
 _symmetry_equiv_pos_site_id
 _symmetry_equiv_pos_as_xyz
  1  'x, y, z'
loop_
 _atom_site_type_symbol
 _atom_site_label
 _atom_site_symmetry_multiplicity
 _atom_site_fract_x
 _atom_site_fract_y
 _atom_site_fract_z
 _atom_site_occupancy
  Mg  Mg0  1  0.16962700  0.83733700  0.25108500  1
  Co  Co0  1  0.16672700  0.66326900  0.50856200  1
  Co  Co1  1  0.66640900  0.66631700  0.99815500  1
  Co  Co2  1  0.33423700  0.33328800  0.99551700  1
  Co  Co3  1  0.83388900  0.33295600  0.50352600  1
  Co  Co4  1  0.49983900  0.99996200  0.50337500  1
  Ni  Ni0  1  0.99683700  0.00334500  0.99169700  1
  O  O0  1  0.00778300  0.67608900  0.09786000  1
  O  O1  1  0.33655200  0.66025500  0.90211500  1
  O  O2  1  0.16764900  0.32861900  0.40416700  1
  O  O3  1  0.49241800  0.66976100  0.40183600  1
  O  O4  1  0.50587200  0.32654500  0.59771000  1
  O  O5  1  0.16612900  0.00778700  0.59769700  1
  O  O6  1  0.82555900  0.66676800  0.59781000  1
  O  O7  1  0.66835600  0.32912500  0.09471500  1
  O  O8  1  0.32166000  0.99948100  0.09744000  1
  O  O9  1  0.00211700  0.33529600  0.90231400  1
  O  O10  1  0.66130800  0.00223200  0.90237900  1
  O  O11  1  0.84370000  0.99490000  0.40204100  1
loop_
_geom_bond_atom_site_label_1
_geom_bond_atom_site_label_2
_geom_bond_distance
_geom_bond_site_symmetry_2
Mg0 O8 2.034153 1_555
Mg0 O3 2.037330 1_555
Mg0 O11 2.040448 1_455
Mg0 O0 2.047375 1_555
Co0 O6 1.881198 1_455
Co0 O4 1.882540 1_555
Co0 O5 1.897548 1_565
Co0 O3 1.927536 1_555
Co0 O11 1.928603 1_455
Co0 O2 1.931465 1_555
Co1 O9 1.885713 1_655
Co1 O1 1.886359 1_555
Co1 O10 1.894627 1_565
Co1 O7 1.910502 1_556
Co1 O8 1.927174 1_556
Co1 O0 1.961335 1_656
Co2 O10 1.854006 1_555
Co2 O1 1.860202 1_555
Co2 O9 1.864620 1_555
Co2 O7 1.899190 1_556
Co2 O0 1.925464 1_556
Co2 O8 1.955021 1_546
Co3 O6 1.860580 1_555
Co3 O5 1.868108 1_655
Co3 O4 1.870679 1_555
Co3 O2 1.898550 1_655
Co3 O11 1.912239 1_545
Co3 O3 1.950740 1_555
Co4 O4 1.860441 1_565
Co4 O5 1.865310 1_565
Co4 O6 1.872856 1_555
Co4 O2 1.901279 1_565
Co4 O3 1.915448 1_555
Co4 O11 1.949413 1_555
Ni0 O10 1.866720 1_555
Ni0 O9 1.867876 1_655
Ni0 O1 1.889519 1_645
Ni0 O8 1.896895 1_646
Ni0 O7 1.897000 1_556
Ni0 O0 1.903054 1_646
