# generated using pymatgen
data_Na2CaYP(SO6)2
_symmetry_space_group_name_H-M   'P 1'
_cell_length_a   9.31918261
_cell_length_b   9.28007158
_cell_length_c   24.01678152
_cell_angle_alpha   89.95919486
_cell_angle_beta   90.00000000
_cell_angle_gamma   120.13951331
_symmetry_Int_Tables_number   1
_chemical_formula_structural   Na2CaYP(SO6)2
_chemical_formula_sum   'Na12 Ca6 Y6 P6 S12 O72'
_cell_volume   1796.23096054
_cell_formula_units_Z   6
loop_
 _symmetry_equiv_pos_site_id
 _symmetry_equiv_pos_as_xyz
  1  'x, y, z'
loop_
 _atom_site_type_symbol
 _atom_site_label
 _atom_site_symmetry_multiplicity
 _atom_site_fract_x
 _atom_site_fract_y
 _atom_site_fract_z
 _atom_site_occupancy
  Na  Na0  1  0.00222263  0.64017146  0.24415969  1
  Na  Na1  1  0.63794883  0.64017146  0.74415969  1
  Na  Na2  1  0.65972162  0.95657717  0.57999264  1
  Na  Na3  1  0.29685656  0.95657717  0.07999264  1
  Na  Na4  1  0.69147494  0.02740843  0.91144238  1
  Na  Na5  1  0.33593249  0.02740843  0.41144238  1
  Na  Na6  1  0.98124859  0.99016097  0.49646714  1
  Na  Na7  1  0.00891238  0.99016097  0.99646714  1
  Na  Na8  1  0.65875267  0.31411673  0.82980509  1
  Na  Na9  1  0.65536506  0.31411673  0.32980509  1
  Na  Na10  1  0.33039330  0.66059415  0.16353929  1
  Na  Na11  1  0.33019986  0.66059415  0.66353929  1
  Ca  Ca0  1  0.99240784  0.00400105  0.35037127  1
  Ca  Ca1  1  0.01159321  0.00400105  0.85037127  1
  Ca  Ca2  1  0.66592834  0.32811726  0.68340701  1
  Ca  Ca3  1  0.66218991  0.32811726  0.18340701  1
  Ca  Ca4  1  0.32320555  0.66024442  0.01651427  1
  Ca  Ca5  1  0.33703787  0.66024442  0.51651427  1
  Y  Y0  1  0.99795837  0.99705047  0.65032263  1
  Y  Y1  1  0.99909210  0.99705047  0.15032263  1
  Y  Y2  1  0.67237898  0.34655758  0.98384616  1
  Y  Y3  1  0.67417960  0.34655758  0.48384616  1
  Y  Y4  1  0.34713485  0.67864967  0.31678466  1
  Y  Y5  1  0.33151382  0.67864967  0.81678466  1
  P  P0  1  0.29599199  0.99879732  0.25203020  1
  P  P1  1  0.70280533  0.99879732  0.75203020  1
  P  P2  1  0.66687080  0.63409144  0.58669347  1
  P  P3  1  0.96722163  0.63409144  0.08669347  1
  P  P4  1  0.33710300  0.96907141  0.92032944  1
  P  P5  1  0.63196741  0.96907141  0.42032944  1
  S  S0  1  0.70408648  0.70292022  0.25031137  1
  S  S1  1  0.00148976  0.30098927  0.25018064  1
  S  S2  1  0.29949951  0.30098927  0.75018064  1
  S  S3  1  0.99883373  0.70292022  0.75031137  1
  S  S4  1  0.96255213  0.33265700  0.58395851  1
  S  S5  1  0.36944488  0.03700352  0.58215242  1
  S  S6  1  0.66755964  0.03700352  0.08215242  1
  S  S7  1  0.37010588  0.33265700  0.08395851  1
  S  S8  1  0.62769473  0.66741857  0.91587395  1
  S  S9  1  0.03371153  0.36738833  0.91674837  1
  S  S10  1  0.33367580  0.36738833  0.41674837  1
  S  S11  1  0.03972284  0.66741857  0.41587395  1
  O  O0  1  0.21222751  0.01361266  0.30510503  1
  O  O1  1  0.80518577  0.78352750  0.30005899  1
  O  O2  1  0.98040489  0.20145561  0.30003682  1
  O  O3  1  0.22105071  0.20145561  0.80003682  1
  O  O4  1  0.97834173  0.78352750  0.80005899  1
  O  O5  1  0.80138515  0.01361266  0.80510503  1
  O  O6  1  0.78888107  0.97336453  0.69910101  1
  O  O7  1  0.19976727  0.21926328  0.69948412  1
  O  O8  1  0.02466850  0.80671813  0.69980582  1
  O  O9  1  0.78204963  0.80671813  0.19980582  1
  O  O10  1  0.01949601  0.21926328  0.19948412  1
  O  O11  1  0.18448347  0.97336453  0.19910101  1
  O  O12  1  0.88334314  0.35149329  0.63415903  1
  O  O13  1  0.47552967  0.11874626  0.63089617  1
  O  O14  1  0.65115323  0.53859392  0.64057222  1
  O  O15  1  0.88744169  0.53859392  0.14057222  1
  O  O16  1  0.64321760  0.11874626  0.13089617  1
  O  O17  1  0.46815115  0.35149329  0.13415903  1
  O  O18  1  0.44955352  0.30545021  0.03376218  1
  O  O19  1  0.85788647  0.54397963  0.03487648  1
  O  O20  1  0.68908543  0.13655671  0.03037954  1
  O  O21  1  0.44747228  0.13655671  0.53037954  1
  O  O22  1  0.68609416  0.54397963  0.53487648  1
  O  O23  1  0.85589769  0.30545021  0.53376218  1
  O  O24  1  0.54444368  0.68651072  0.96491670  1
  O  O25  1  0.13189617  0.44467062  0.96669669  1
  O  O26  1  0.31991669  0.87101107  0.97380760  1
  O  O27  1  0.55109338  0.87101107  0.47380760  1
  O  O28  1  0.31277345  0.44467062  0.46669669  1
  O  O29  1  0.14206604  0.68651072  0.46491670  1
  O  O30  1  0.11544979  0.64384177  0.36408368  1
  O  O31  1  0.51590068  0.87873056  0.36880045  1
  O  O32  1  0.35339071  0.46816683  0.36623979  1
  O  O33  1  0.11477512  0.46816683  0.86623979  1
  O  O34  1  0.36282888  0.87873056  0.86880045  1
  O  O35  1  0.52839098  0.64384177  0.86408368  1
  O  O36  1  0.02956208  0.82223603  0.41125701  1
  O  O37  1  0.80513930  0.99087324  0.41329930  1
  O  O38  1  0.18982894  0.19492763  0.41201274  1
  O  O39  1  0.00509869  0.19492763  0.91201274  1
  O  O40  1  0.18573394  0.99087324  0.91329930  1
  O  O41  1  0.79267396  0.82223603  0.91125701  1
  O  O42  1  0.97099511  0.17434085  0.58823178  1
  O  O43  1  0.20307028  0.02111395  0.58819868  1
  O  O44  1  0.82613281  0.81543377  0.58789661  1
  O  O45  1  0.98930095  0.81543377  0.08789661  1
  O  O46  1  0.81804367  0.02111395  0.08819868  1
  O  O47  1  0.20334574  0.17434085  0.08823178  1
  O  O48  1  0.67776467  0.14900976  0.74596365  1
  O  O49  1  0.47072914  0.32746079  0.74554933  1
  O  O50  1  0.84453840  0.53878265  0.74481610  1
  O  O51  1  0.69424526  0.53878265  0.24481610  1
  O  O52  1  0.85673265  0.32746079  0.24554933  1
  O  O53  1  0.47124609  0.14900976  0.24596365  1
  O  O54  1  0.64838417  0.51839529  0.92070109  1
  O  O55  1  0.86325765  0.34953069  0.92098821  1
  O  O56  1  0.50617736  0.14136811  0.92261056  1
  O  O57  1  0.63519175  0.14136811  0.42261056  1
  O  O58  1  0.48627404  0.34953069  0.42098821  1
  O  O59  1  0.87001211  0.51839529  0.42070109  1
  O  O60  1  0.34930937  0.47812084  0.07766776  1
  O  O61  1  0.14569416  0.66199365  0.08146834  1
  O  O62  1  0.51581580  0.86997189  0.07746724  1
  O  O63  1  0.35415508  0.86997189  0.57746724  1
  O  O64  1  0.51629849  0.66199365  0.58146834  1
  O  O65  1  0.12881047  0.47812084  0.57766776  1
  O  O66  1  0.29877455  0.82858870  0.25470762  1
  O  O67  1  0.53484209  0.68143777  0.25491893  1
  O  O68  1  0.15410450  0.47143465  0.25453212  1
  O  O69  1  0.31732915  0.47143465  0.75453212  1
  O  O70  1  0.14659469  0.68143777  0.75491893  1
  O  O71  1  0.52981315  0.82858870  0.75470762  1
loop_
_geom_bond_atom_site_label_1
_geom_bond_atom_site_label_2
_geom_bond_distance
_geom_bond_site_symmetry_2
Na0 O66 2.430457 1_555
Na0 O52 2.511882 1_455
Na0 O51 2.532020 1_455
Na0 O68 2.596659 1_555
Na0 O15 2.685680 1_455
Na0 O11 2.887566 1_555
Na1 O71 2.430464 1_555
Na1 O49 2.511881 1_555
Na1 O50 2.532029 1_555
Na1 O69 2.596666 1_555
Na1 O14 2.685682 1_555
Na1 O6 2.887566 1_555
Na2 O64 2.364678 1_555
Na2 O44 2.489216 1_555
Na2 O63 2.541730 1_555
Na2 O42 2.579047 1_565
Na2 O27 2.711941 1_555
Na3 O61 2.364679 1_555
Na3 O45 2.489224 1_455
Na3 O62 2.541712 1_555
Na3 O47 2.579054 1_565
Na3 O26 2.711936 1_554
Na4 O56 2.450834 1_555
Na4 O41 2.513554 1_545
Na4 O39 2.529124 1_655
Na4 O55 2.597434 1_555
Na4 O5 2.778486 1_555
Na4 O34 2.844499 1_545
Na5 O57 2.450851 1_555
Na5 O36 2.513547 1_545
Na5 O38 2.529116 1_555
Na5 O58 2.597433 1_555
Na5 O0 2.778483 1_555
Na5 O31 2.844499 1_545
Na6 O37 2.587304 1_555
Na6 O44 2.679861 1_555
Na6 O36 2.743789 1_655
Na6 O38 2.790813 1_665
Na6 O42 2.820818 1_565
Na6 O43 2.934970 1_665
Na7 O40 2.587304 1_555
Na7 O45 2.679861 1_456
Na7 O41 2.743789 1_455
Na7 O39 2.790813 1_565
Na7 O47 2.820818 1_566
Na7 O46 2.934970 1_466
Na8 O48 2.590491 1_555
Na8 O56 2.695466 1_555
Na8 O49 2.719915 1_555
Na8 O50 2.807102 1_555
Na8 O55 2.812112 1_555
Na8 O54 2.925500 1_555
Na9 O53 2.590491 1_555
Na9 O57 2.695466 1_555
Na9 O52 2.719915 1_555
Na9 O51 2.807102 1_555
Na9 O58 2.812112 1_555
Na9 O59 2.925500 1_555
Na10 O61 2.621149 1_555
Na10 O60 2.730682 1_555
Na10 O68 2.766719 1_555
Na10 O62 2.767152 1_555
Na10 O66 2.788853 1_555
Na10 O67 2.848604 1_555
Na11 O64 2.621149 1_555
Na11 O65 2.730682 1_555
Na11 O69 2.766719 1_555
Na11 O63 2.767152 1_555
Na11 O71 2.788853 1_555
Na11 O70 2.848604 1_555
Ca0 O2 2.243707 1_555
Ca0 O1 2.260333 1_545
Ca0 O37 2.265143 1_545
Ca0 O0 2.280950 1_655
Ca0 O38 2.333684 1_655
Ca0 O36 2.384620 1_645
Ca1 O3 2.243707 1_555
Ca1 O4 2.260333 1_445
Ca1 O40 2.265143 1_545
Ca1 O5 2.280950 1_455
Ca1 O39 2.333684 1_555
Ca1 O41 2.384620 1_445
Ca2 O13 2.248424 1_555
Ca2 O12 2.260414 1_555
Ca2 O14 2.271486 1_555
Ca2 O48 2.283120 1_555
Ca2 O50 2.346068 1_555
Ca2 O49 2.350626 1_555
Ca3 O16 2.248424 1_555
Ca3 O17 2.260414 1_555
Ca3 O15 2.271486 1_555
Ca3 O53 2.283120 1_555
Ca3 O51 2.346068 1_555
Ca3 O52 2.350626 1_555
Ca4 O26 2.221701 1_554
Ca4 O25 2.243644 1_554
Ca4 O61 2.279782 1_555
Ca4 O24 2.311015 1_554
Ca4 O60 2.341397 1_555
Ca4 O62 2.376708 1_555
Ca5 O27 2.221701 1_555
Ca5 O28 2.243644 1_555
Ca5 O64 2.279782 1_555
Ca5 O29 2.311015 1_555
Ca5 O65 2.341397 1_555
Ca5 O63 2.376708 1_555
O0 P0 1.536593 1_545
O1 S0 1.472500 1_555
O2 S1 1.463450 1_655
O3 S2 1.463450 1_555
O4 S3 1.472500 1_555
O5 P1 1.536593 1_545
O6 P1 1.582917 1_555
O6 Y0 2.187842 1_555
O7 S2 1.488271 1_555
O7 Y0 2.300517 1_445
O8 S3 1.490835 1_455
O8 Y0 2.243357 1_455
O9 S0 1.490835 1_555
O9 Y1 2.243357 1_555
O10 S1 1.488271 1_555
O10 Y1 2.300517 1_445
O11 P0 1.582917 1_555
O11 Y1 2.187842 1_455
O12 S4 1.469327 1_555
O13 S5 1.473580 1_555
O14 P2 1.532736 1_555
O15 P3 1.532736 1_555
O16 S6 1.473580 1_555
O17 S7 1.469327 1_555
O18 S7 1.501145 1_555
O18 Y2 2.258011 1_554
O19 P3 1.559501 1_555
O19 Y2 2.160985 1_554
O20 S6 1.500700 1_555
O20 Y2 2.317915 1_554
O21 S5 1.500700 1_555
O21 Y3 2.317915 1_555
O22 P2 1.559501 1_555
O22 Y3 2.160985 1_555
O23 S4 1.501145 1_555
O23 Y3 2.258011 1_555
O24 S8 1.469344 1_555
O25 S9 1.460428 1_555
O26 P4 1.534715 1_555
O27 P5 1.534715 1_555
O28 S10 1.460428 1_555
O29 S11 1.469344 1_555
O30 S11 1.499491 1_555
O30 Y4 2.314228 1_555
O31 P5 1.579625 1_555
O31 Y4 2.133666 1_555
O32 S10 1.485175 1_555
O32 Y4 2.310968 1_555
O33 S9 1.485175 1_555
O33 Y5 2.310968 1_555
O34 P4 1.579625 1_555
O34 Y5 2.133666 1_555
O35 S8 1.499491 1_555
O35 Y5 2.314228 1_555
O36 S11 1.490573 1_555
O37 P5 1.531640 1_555
O38 S10 1.489014 1_555
O39 S9 1.489018 1_555
O40 P4 1.531631 1_555
O41 S8 1.490578 1_555
O42 S4 1.513638 1_555
O42 Y0 2.324963 1_545
O43 S5 1.489020 1_555
O43 Y0 2.345335 1_445
O44 P2 1.589828 1_555
O44 Y0 2.223946 1_555
O45 P3 1.589831 1_555
O45 Y1 2.223946 1_555
O46 S6 1.489011 1_555
O46 Y1 2.345335 1_545
O47 S7 1.513643 1_555
O47 Y1 2.324963 1_445
O48 P1 1.531421 1_545
O49 S2 1.491761 1_555
O50 S3 1.485255 1_555
O51 S0 1.485259 1_555
O52 S1 1.491752 1_655
O53 P0 1.531427 1_545
O54 S8 1.493552 1_555
O54 Y2 2.290743 1_555
O55 S9 1.515505 1_655
O55 Y2 2.322648 1_555
O56 P4 1.585047 1_545
O56 Y2 2.286922 1_555
O57 P5 1.585038 1_545
O57 Y3 2.286922 1_555
O58 S10 1.515524 1_555
O58 Y3 2.322648 1_555
O59 S11 1.493541 1_655
O59 Y3 2.290743 1_555
O60 S7 1.464613 1_555
O61 P3 1.554530 1_455
O62 S6 1.487999 1_565
O63 S5 1.487991 1_565
O64 P2 1.554548 1_555
O65 S4 1.464602 1_455
O66 P0 1.593978 1_555
O66 Y4 2.233555 1_555
O67 S0 1.491248 1_555
O67 Y4 2.285341 1_555
O68 S1 1.508889 1_555
O68 Y4 2.387353 1_555
O69 S2 1.508893 1_555
O69 Y5 2.387353 1_555
O70 S3 1.491239 1_455
O70 Y5 2.285341 1_555
O71 P1 1.593983 1_555
O71 Y5 2.233555 1_555
