# generated using pymatgen
data_SrCuO3
_symmetry_space_group_name_H-M   'P 1'
_cell_length_a   3.85589300
_cell_length_b   5.40955900
_cell_length_c   8.55260600
_cell_angle_alpha   90.00000000
_cell_angle_beta   90.00000000
_cell_angle_gamma   90.00000000
_symmetry_Int_Tables_number   1
_chemical_formula_structural   SrCuO3
_chemical_formula_sum   'Sr3 Cu3 O9'
_cell_volume   178.39607755
_cell_formula_units_Z   3
loop_
 _symmetry_equiv_pos_site_id
 _symmetry_equiv_pos_as_xyz
  1  'x, y, z'
loop_
 _atom_site_type_symbol
 _atom_site_label
 _atom_site_symmetry_multiplicity
 _atom_site_fract_x
 _atom_site_fract_y
 _atom_site_fract_z
 _atom_site_occupancy
  Sr  Sr0  1  0.50000000  0.50000000  0.69687900  1
  Sr  Sr1  1  0.50000000  0.50000000  0.30312100  1
  Sr  Sr2  1  0.50000000  0.00000000  0.00000000  1
  Cu  Cu0  1  0.00000000  0.50000000  0.00000000  1
  Cu  Cu1  1  0.00000000  0.00000000  0.66582300  1
  Cu  Cu2  1  0.00000000  0.00000000  0.33417700  1
  O  O0  1  0.50000000  0.50000000  0.00000000  1
  O  O1  1  0.50000000  0.00000000  0.69288900  1
  O  O2  1  0.50000000  0.00000000  0.30711100  1
  O  O3  1  0.00000000  0.25024900  0.83066100  1
  O  O4  1  0.00000000  0.74975100  0.83066100  1
  O  O5  1  0.00000000  0.24860900  0.50000000  1
  O  O6  1  0.00000000  0.75139100  0.50000000  1
  O  O7  1  0.00000000  0.25024900  0.16933900  1
  O  O8  1  0.00000000  0.74975100  0.16933900  1
loop_
_geom_bond_atom_site_label_1
_geom_bond_atom_site_label_2
_geom_bond_distance
_geom_bond_site_symmetry_2
Cu0 O0 1.927947 1_555
Cu0 O0 1.927947 1_455
Cu0 O8 1.980621 1_555
Cu0 O4 1.980621 1_554
Cu0 O7 1.980621 1_555
Cu0 O3 1.980621 1_554
Cu1 O1 1.941794 1_555
Cu1 O1 1.941794 1_455
Cu1 O6 1.954484 1_545
Cu1 O5 1.954484 1_555
Cu1 O3 1.954514 1_555
Cu1 O4 1.954514 1_545
Cu2 O2 1.941794 1_455
Cu2 O2 1.941794 1_555
Cu2 O5 1.954484 1_555
Cu2 O6 1.954484 1_545
Cu2 O7 1.954514 1_555
Cu2 O8 1.954514 1_545
O0 Sr1 2.592474 1_555
O0 Sr0 2.592474 1_554
O0 Sr2 2.704779 1_565
O0 Sr2 2.704779 1_555
O1 Sr2 2.626599 1_556
O1 Sr0 2.704995 1_545
O1 Sr0 2.704995 1_555
O2 Sr2 2.626599 1_555
O2 Sr1 2.704995 1_545
O2 Sr1 2.704995 1_555
O3 Sr0 2.617528 1_555
O3 Sr0 2.617528 1_455
O3 Sr2 2.765343 1_456
O3 Sr2 2.765343 1_556
O4 Sr0 2.617528 1_455
O4 Sr0 2.617528 1_555
O4 Sr2 2.765343 1_466
O4 Sr2 2.765343 1_566
O5 Sr0 2.898555 1_455
O5 Sr0 2.898555 1_555
O5 Sr1 2.898555 1_555
O5 Sr1 2.898555 1_455
O6 Sr0 2.898555 1_455
O6 Sr0 2.898555 1_555
O6 Sr1 2.898555 1_455
O6 Sr1 2.898555 1_555
O7 Sr1 2.617528 1_555
O7 Sr1 2.617528 1_455
O7 Sr2 2.765343 1_455
O7 Sr2 2.765343 1_555
O8 Sr1 2.617528 1_455
O8 Sr1 2.617528 1_555
O8 Sr2 2.765343 1_565
O8 Sr2 2.765343 1_465
