# generated using pymatgen
data_MgFe6(OF)6
_symmetry_space_group_name_H-M   'P 1'
_cell_length_a   5.22574641
_cell_length_b   14.89451329
_cell_length_c   3.07157872
_cell_angle_alpha   90.00000000
_cell_angle_beta   90.00000000
_cell_angle_gamma   101.75115508
_symmetry_Int_Tables_number   1
_chemical_formula_structural   MgFe6(OF)6
_chemical_formula_sum   'Mg1 Fe6 O6 F6'
_cell_volume   234.06546434
_cell_formula_units_Z   1
loop_
 _symmetry_equiv_pos_site_id
 _symmetry_equiv_pos_as_xyz
  1  'x, y, z'
loop_
 _atom_site_type_symbol
 _atom_site_label
 _atom_site_symmetry_multiplicity
 _atom_site_fract_x
 _atom_site_fract_y
 _atom_site_fract_z
 _atom_site_occupancy
  Mg  Mg0  1  0.00000000  0.50000000  0.97641158  1
  Fe  Fe0  1  0.00000000  -0.00000000  -0.00409553  1
  Fe  Fe1  1  0.17059172  0.29092159  0.99106100  1
  Fe  Fe2  1  0.82940828  0.70907841  0.99106100  1
  Fe  Fe3  1  0.65027432  0.15394584  0.49577460  1
  Fe  Fe4  1  0.50000000  0.50000000  0.47728165  1
  Fe  Fe5  1  0.34972568  0.84605416  0.49577460  1
  O  O0  1  0.13629551  0.93695129  0.49579862  1
  O  O1  1  0.18503300  0.77564283  0.99577288  1
  O  O2  1  0.29802730  0.42989534  0.97788677  1
  O  O3  1  0.70197270  0.57010466  0.97788677  1
  O  O4  1  0.81496700  0.22435717  0.99577288  1
  O  O5  1  0.86370449  0.06304871  0.49579862  1
  F  F0  1  0.37933235  0.24831705  0.49237638  1
  F  F1  1  0.20048871  0.57023139  0.47677278  1
  F  F2  1  0.38658179  0.09507750  0.99559163  1
  F  F3  1  0.61341821  0.90492250  0.99559163  1
  F  F4  1  0.79951129  0.42976861  0.47677278  1
  F  F5  1  0.62066765  0.75168295  0.49237638  1
loop_
_geom_bond_atom_site_label_1
_geom_bond_atom_site_label_2
_geom_bond_distance
_geom_bond_site_symmetry_2
Mg0 O2 2.044079 1_555
Mg0 O3 2.044079 1_455
Fe0 O5 2.004808 1_455
Fe0 O0 2.004808 1_545
Fe0 O5 2.005306 1_454
Fe0 O0 2.005306 1_544
Fe1 O4 1.919986 1_455
Fe1 O2 2.041645 1_555
Fe2 O1 1.919986 1_655
Fe2 O3 2.041645 1_555
Fe3 O5 1.921455 1_555
Fe3 O4 1.957435 1_555
Fe3 O4 1.957443 1_554
Fe4 O3 2.026902 1_554
Fe4 O2 2.026902 1_554
Fe4 O2 2.029717 1_555
Fe4 O3 2.029717 1_555
Fe5 O0 1.921455 1_555
Fe5 O1 1.957435 1_555
Fe5 O1 1.957443 1_554
F0 Fe1 2.054457 1_555
F0 Fe1 2.060488 1_554
F0 Fe3 2.188881 1_555
F1 Mg0 2.025033 1_555
F1 Mg0 2.026715 1_554
F1 Fe4 2.052048 1_555
F2 Fe3 2.128953 1_555
F2 Fe3 2.129764 1_556
F2 Fe0 2.218393 1_556
F3 Fe5 2.128953 1_555
F3 Fe5 2.129764 1_556
F3 Fe0 2.218393 1_666
F4 Mg0 2.025033 1_655
F4 Mg0 2.026715 1_654
F4 Fe4 2.052048 1_555
F5 Fe2 2.054457 1_555
F5 Fe2 2.060488 1_554
F5 Fe5 2.188881 1_555
