# generated using pymatgen
data_Na2LaNbSi2SO12
_symmetry_space_group_name_H-M   'P 1'
_cell_length_a   9.37053685
_cell_length_b   9.37053651
_cell_length_c   23.23662524
_cell_angle_alpha   91.52266219
_cell_angle_beta   88.47733777
_cell_angle_gamma   118.99377120
_symmetry_Int_Tables_number   1
_chemical_formula_structural   Na2LaNbSi2SO12
_chemical_formula_sum   'Na12 La6 Nb6 Si12 S6 O72'
_cell_volume   1783.77787656
_cell_formula_units_Z   6
loop_
 _symmetry_equiv_pos_site_id
 _symmetry_equiv_pos_as_xyz
  1  'x, y, z'
loop_
 _atom_site_type_symbol
 _atom_site_label
 _atom_site_symmetry_multiplicity
 _atom_site_fract_x
 _atom_site_fract_y
 _atom_site_fract_z
 _atom_site_occupancy
  Na  Na0  1  0.97621623  0.63085065  0.24814870  1
  Na  Na1  1  0.36914935  0.02378377  0.74814870  1
  Na  Na2  1  0.64288323  0.96418365  0.58148170  1
  Na  Na3  1  0.03581635  0.35711677  0.08148170  1
  Na  Na4  1  0.30954923  0.29751765  0.91481570  1
  Na  Na5  1  0.70248235  0.69045077  0.41481570  1
  Na  Na6  1  0.01007262  0.97830266  0.49871723  1
  Na  Na7  1  0.02169734  0.98992738  0.99871723  1
  Na  Na8  1  0.67673962  0.31163566  0.83205023  1
  Na  Na9  1  0.68836434  0.32326038  0.33205023  1
  Na  Na10  1  0.34340562  0.64496966  0.16538423  1
  Na  Na11  1  0.35503034  0.65659438  0.66538423  1
  La  La0  1  0.99624948  0.01186963  0.35200174  1
  La  La1  1  0.98813037  0.00375052  0.85200174  1
  La  La2  1  0.66291648  0.34520263  0.68533474  1
  La  La3  1  0.65479737  0.33708352  0.18533474  1
  La  La4  1  0.32958248  0.67853663  0.01866874  1
  La  La5  1  0.32146337  0.67041752  0.51866874  1
  Nb  Nb0  1  0.99789495  0.00658990  0.64637743  1
  Nb  Nb1  1  0.99341010  0.00210505  0.14637743  1
  Nb  Nb2  1  0.66456195  0.33992290  0.97971043  1
  Nb  Nb3  1  0.66007710  0.33543805  0.47971043  1
  Nb  Nb4  1  0.33122795  0.67325690  0.31304443  1
  Nb  Nb5  1  0.32674310  0.66877205  0.81304443  1
  Si  Si0  1  0.69858756  0.71972392  0.25269118  1
  Si  Si1  1  0.01787306  0.31315830  0.24950468  1
  Si  Si2  1  0.28027608  0.30141244  0.75269118  1
  Si  Si3  1  0.68684170  0.98212694  0.74950468  1
  Si  Si4  1  0.36525456  0.05305692  0.58602418  1
  Si  Si5  1  0.68454006  0.64649130  0.58283768  1
  Si  Si6  1  0.94694308  0.63474544  0.08602418  1
  Si  Si7  1  0.35350870  0.31545994  0.08283768  1
  Si  Si8  1  0.03192056  0.38639092  0.91935818  1
  Si  Si9  1  0.35120606  0.97982530  0.91617168  1
  Si  Si10  1  0.61360908  0.96807944  0.41935818  1
  Si  Si11  1  0.02017470  0.64879394  0.41617168  1
  S  S0  1  0.28579462  0.97583852  0.24806307  1
  S  S1  1  0.02416148  0.71420538  0.74806307  1
  S  S2  1  0.95246162  0.30917152  0.58139607  1
  S  S3  1  0.69082848  0.04753838  0.08139607  1
  S  S4  1  0.61912762  0.64250552  0.91473007  1
  S  S5  1  0.35749448  0.38087238  0.41473007  1
  O  O0  1  0.22149839  -0.00086924  0.30295121  1
  O  O1  1  0.80088114  0.78579391  0.31045686  1
  O  O2  1  0.00308035  0.21365551  0.30530158  1
  O  O3  1  0.21420609  0.19911886  0.81045686  1
  O  O4  1  0.00086924  0.77850161  0.80295121  1
  O  O5  1  0.78634449  0.99691965  0.80530158  1
  O  O6  1  0.80062818  0.97247783  0.69103491  1
  O  O7  1  0.15129926  0.18350629  0.69800221  1
  O  O8  1  0.03654579  0.82098030  0.69878984  1
  O  O9  1  0.81649371  0.84870074  0.19800221  1
  O  O10  1  0.02752217  0.19937182  0.19103491  1
  O  O11  1  0.17901970  0.96345421  0.19878984  1
  O  O12  1  0.88816539  0.33246376  0.63628421  1
  O  O13  1  0.46754814  0.11912691  0.64378986  1
  O  O14  1  0.66974735  0.54698851  0.63863458  1
  O  O15  1  0.88087309  0.53245186  0.14378986  1
  O  O16  1  0.66753624  0.11183461  0.13628421  1
  O  O17  1  0.45301149  0.33025265  0.13863458  1
  O  O18  1  0.46729518  0.30581083  0.02436791  1
  O  O19  1  0.81796626  0.51683929  0.03133521  1
  O  O20  1  0.70321279  0.15431330  0.03212284  1
  O  O21  1  0.48316071  0.18203374  0.53133521  1
  O  O22  1  0.69418917  0.53270482  0.52436791  1
  O  O23  1  0.84568670  0.29678721  0.53212284  1
  O  O24  1  0.55483139  0.66579776  0.96961821  1
  O  O25  1  0.13421414  0.45246091  0.97712386  1
  O  O26  1  0.33641335  0.88032251  0.97196858  1
  O  O27  1  0.54753909  0.86578586  0.47712386  1
  O  O28  1  0.33420224  0.44516861  0.46961821  1
  O  O29  1  0.11967749  0.66358665  0.47196858  1
  O  O30  1  0.13396118  0.63914483  0.35770191  1
  O  O31  1  0.48463226  0.85017329  0.36466921  1
  O  O32  1  0.36987879  0.48764730  0.36545684  1
  O  O33  1  0.14982671  0.51536774  0.86466921  1
  O  O34  1  0.36085517  0.86603882  0.85770191  1
  O  O35  1  0.51235270  0.63012121  0.86545684  1
  O  O36  1  0.97933550  0.79673953  0.41260176  1
  O  O37  1  0.79602791  0.99461316  0.41194201  1
  O  O38  1  0.23312568  0.21116772  0.40788202  1
  O  O39  1  0.00538684  0.20397209  0.91194201  1
  O  O40  1  0.20326047  0.02066450  0.91260176  1
  O  O41  1  0.78883228  0.76687432  0.90788202  1
  O  O42  1  0.94507332  0.14127238  0.58249067  1
  O  O43  1  0.18337017  0.04584450  0.59268631  1
  O  O44  1  0.86084388  0.82758263  0.59035662  1
  O  O45  1  0.95415550  0.81662983  0.09268631  1
  O  O46  1  0.85872762  0.05492668  0.08249067  1
  O  O47  1  0.17241737  0.13915612  0.09035662  1
  O  O48  1  0.64600250  0.13007253  0.74593476  1
  O  O49  1  0.46269491  0.32794616  0.74527501  1
  O  O50  1  0.89979268  0.54450072  0.74121502  1
  O  O51  1  0.67205384  0.53730509  0.24527501  1
  O  O52  1  0.86992747  0.35399750  0.24593476  1
  O  O53  1  0.45549928  0.10020732  0.24121502  1
  O  O54  1  0.61174032  0.47460538  0.91582367  1
  O  O55  1  0.85003717  0.37917750  0.92601931  1
  O  O56  1  0.52751088  0.16091563  0.92368962  1
  O  O57  1  0.62082250  0.14996283  0.42601931  1
  O  O58  1  0.52539462  0.38825968  0.41582367  1
  O  O59  1  0.83908437  0.47248912  0.42368962  1
  O  O60  1  0.31266850  0.46340653  0.07926876  1
  O  O61  1  0.12936091  0.66128016  0.07860901  1
  O  O62  1  0.56645868  0.87783472  0.07454902  1
  O  O63  1  0.33871984  0.87063909  0.57860901  1
  O  O64  1  0.53659347  0.68733150  0.57926876  1
  O  O65  1  0.12216528  0.43354132  0.57454902  1
  O  O66  1  0.27840632  0.80793938  0.24915767  1
  O  O67  1  0.51670317  0.71251150  0.25935331  1
  O  O68  1  0.19417688  0.49424963  0.25702362  1
  O  O69  1  0.28748850  0.48329683  0.75935331  1
  O  O70  1  0.19206062  0.72159368  0.74915767  1
  O  O71  1  0.50575037  0.80582312  0.75702362  1
loop_
_geom_bond_atom_site_label_1
_geom_bond_atom_site_label_2
_geom_bond_distance
_geom_bond_site_symmetry_2
Na0 O52 2.283770 1_555
Na0 O66 2.493755 1_655
Na0 O51 2.545837 1_555
Na0 O15 2.593541 1_555
Na1 O48 2.283770 1_555
Na1 O70 2.493755 1_545
Na1 O49 2.545836 1_555
Na1 O13 2.593541 1_555
Na2 O64 2.283760 1_555
Na2 O42 2.493755 1_565
Na2 O63 2.545846 1_555
Na2 O27 2.593520 1_555
Na3 O60 2.283760 1_555
Na3 O46 2.493755 1_455
Na3 O61 2.545846 1_555
Na3 O25 2.593520 1_554
Na4 O40 2.283770 1_555
Na4 O54 2.493761 1_555
Na4 O39 2.545837 1_555
Na4 O3 2.593541 1_555
Na5 O36 2.283770 1_555
Na5 O58 2.493761 1_555
Na5 O37 2.545836 1_555
Na5 O1 2.593541 1_555
Na6 O36 2.521174 1_455
Na6 O44 2.563472 1_455
Na6 O43 2.631353 1_565
Na6 O42 2.678256 1_465
Na6 O37 2.939465 1_455
Na6 O38 3.028873 1_565
Na7 O40 2.521174 1_565
Na7 O47 2.563472 1_566
Na7 O45 2.631353 1_456
Na7 O46 2.678256 1_466
Na7 O39 2.939465 1_565
Na7 O41 3.028873 1_455
Na8 O48 2.521174 1_555
Na8 O56 2.563472 1_555
Na8 O55 2.631353 1_555
Na8 O54 2.678256 1_555
Na8 O49 2.939465 1_555
Na8 O50 3.028873 1_555
Na9 O52 2.521174 1_555
Na9 O59 2.563472 1_555
Na9 O57 2.631353 1_555
Na9 O58 2.678256 1_555
Na9 O51 2.939465 1_555
Na9 O53 3.028873 1_555
Na10 O60 2.521174 1_555
Na10 O68 2.563472 1_555
Na10 O67 2.631353 1_555
Na10 O66 2.678256 1_555
Na10 O61 2.939465 1_555
Na10 O62 3.028873 1_555
Na11 O64 2.521174 1_555
Na11 O71 2.563472 1_555
Na11 O69 2.631353 1_555
Na11 O70 2.678256 1_555
Na11 O63 2.939465 1_555
Na11 O65 3.028873 1_555
La0 O2 2.178294 1_655
La0 O1 2.235349 1_545
La0 O37 2.250581 1_545
La0 O0 2.424368 1_655
La0 O36 2.429204 1_545
La0 O38 2.471096 1_655
La1 O5 2.178294 1_545
La1 O3 2.235349 1_655
La1 O39 2.250581 1_655
La1 O4 2.424368 1_645
La1 O40 2.429204 1_655
La1 O41 2.471096 1_545
La2 O14 2.178294 1_555
La2 O13 2.235349 1_555
La2 O49 2.250581 1_555
La2 O12 2.424368 1_555
La2 O48 2.429204 1_555
La2 O50 2.471096 1_555
La3 O17 2.178294 1_555
La3 O15 2.235349 1_555
La3 O51 2.250581 1_555
La3 O16 2.424368 1_555
La3 O52 2.429204 1_555
La3 O53 2.471096 1_555
La4 O26 2.178294 1_554
La4 O25 2.235349 1_554
La4 O61 2.250581 1_555
La4 O24 2.424368 1_554
La4 O60 2.429204 1_555
La4 O62 2.471096 1_555
La5 O29 2.178294 1_555
La5 O27 2.235349 1_555
La5 O63 2.250581 1_555
La5 O28 2.424368 1_555
La5 O64 2.429204 1_555
La5 O65 2.471096 1_555
Nb0 O7 1.982274 1_655
Nb0 O6 1.984639 1_545
Nb0 O43 2.000465 1_655
Nb0 O44 2.010452 1_545
Nb0 O42 2.187630 1_555
Nb0 O8 2.320805 1_645
Nb1 O9 1.982274 1_545
Nb1 O10 1.984639 1_655
Nb1 O45 2.000465 1_545
Nb1 O47 2.010452 1_655
Nb1 O46 2.187630 1_555
Nb1 O11 2.320805 1_645
Nb2 O19 1.982274 1_556
Nb2 O18 1.984639 1_556
Nb2 O55 2.000465 1_555
Nb2 O56 2.010452 1_555
Nb2 O54 2.187630 1_555
Nb2 O20 2.320805 1_556
Nb3 O21 1.982274 1_555
Nb3 O22 1.984639 1_555
Nb3 O57 2.000465 1_555
Nb3 O59 2.010452 1_555
Nb3 O58 2.187630 1_555
Nb3 O23 2.320805 1_555
Nb4 O31 1.982274 1_555
Nb4 O30 1.984639 1_555
Nb4 O67 2.000465 1_555
Nb4 O68 2.010452 1_555
Nb4 O66 2.187630 1_555
Nb4 O32 2.320805 1_555
Nb5 O33 1.982274 1_555
Nb5 O34 1.984639 1_555
Nb5 O69 2.000465 1_555
Nb5 O71 2.010452 1_555
Nb5 O70 2.187630 1_555
Nb5 O35 2.320805 1_555
O0 S0 1.452296 1_545
O1 Si0 1.597727 1_555
O2 Si1 1.580813 1_555
O3 Si2 1.597727 1_555
O4 S1 1.452296 1_555
O5 Si3 1.580813 1_555
O6 Si3 1.732308 1_555
O7 Si2 1.734584 1_555
O8 S1 1.505556 1_555
O9 Si0 1.734584 1_555
O10 Si1 1.732308 1_555
O11 S0 1.505556 1_555
O12 S2 1.452296 1_555
O13 Si4 1.597727 1_555
O14 Si5 1.580813 1_555
O15 Si6 1.597727 1_555
O16 S3 1.452296 1_555
O17 Si7 1.580813 1_555
O18 Si7 1.732308 1_555
O19 Si6 1.734584 1_555
O20 S3 1.505556 1_555
O21 Si4 1.734584 1_555
O22 Si5 1.732308 1_555
O23 S2 1.505556 1_555
O24 S4 1.452296 1_555
O25 Si8 1.597727 1_555
O26 Si9 1.580813 1_555
O27 Si10 1.597727 1_555
O28 S5 1.452296 1_555
O29 Si11 1.580813 1_555
O30 Si11 1.732308 1_555
O31 Si10 1.734584 1_555
O32 S5 1.505556 1_555
O33 Si8 1.734584 1_555
O34 Si9 1.732308 1_555
O35 S4 1.505556 1_555
O36 Si11 1.611629 1_655
O37 Si10 1.608740 1_555
O38 S5 1.453309 1_555
O39 Si8 1.608740 1_555
O40 Si9 1.611629 1_545
O41 S4 1.453309 1_555
O42 S2 1.541807 1_555
O43 Si4 1.675776 1_555
O44 Si5 1.709165 1_555
O45 Si6 1.675776 1_555
O46 S3 1.541807 1_555
O47 Si7 1.709165 1_555
O48 Si3 1.611629 1_545
O49 Si2 1.608740 1_555
O50 S1 1.453309 1_655
O51 Si0 1.608740 1_555
O52 Si1 1.611629 1_655
O53 S0 1.453309 1_545
O54 S4 1.541819 1_555
O55 Si8 1.675761 1_655
O56 Si9 1.709162 1_545
O57 Si10 1.675761 1_545
O58 S5 1.541819 1_555
O59 Si11 1.709162 1_655
O60 Si7 1.611642 1_555
O61 Si6 1.608725 1_455
O62 S3 1.453303 1_565
O63 Si4 1.608725 1_565
O64 Si5 1.611642 1_555
O65 S2 1.453303 1_455
O66 S0 1.541807 1_555
O67 Si0 1.675776 1_555
O68 Si1 1.709165 1_555
O69 Si2 1.675776 1_555
O70 S1 1.541807 1_555
O71 Si3 1.709165 1_555
