# generated using pymatgen
data_NaY3Mg(SO4)6
_symmetry_space_group_name_H-M   'P 1'
_cell_length_a   9.05463997
_cell_length_b   9.05463966
_cell_length_c   23.92352200
_cell_angle_alpha   90.00000000
_cell_angle_beta   90.00000000
_cell_angle_gamma   120.00000115
_symmetry_Int_Tables_number   1
_chemical_formula_structural   NaY3Mg(SO4)6
_chemical_formula_sum   'Na3 Y9 Mg3 S18 O72'
_cell_volume   1698.62730766
_cell_formula_units_Z   3
loop_
 _symmetry_equiv_pos_site_id
 _symmetry_equiv_pos_as_xyz
  1  'x, y, z'
loop_
 _atom_site_type_symbol
 _atom_site_label
 _atom_site_symmetry_multiplicity
 _atom_site_fract_x
 _atom_site_fract_y
 _atom_site_fract_z
 _atom_site_occupancy
  Na  Na0  1  0.00000000  0.00000000  0.99421462  1
  Na  Na1  1  0.66666700  0.33333300  0.83929456  1
  Na  Na2  1  0.66666700  0.33333300  0.33324936  1
  Y  Y0  1  0.00000000  0.00000000  0.64729037  1
  Y  Y1  1  0.00000000  0.00000000  0.14743691  1
  Y  Y2  1  0.66666700  0.33333300  0.68742984  1
  Y  Y3  1  0.66666700  0.33333300  0.18536788  1
  Y  Y4  1  0.66666700  0.33333300  0.48019674  1
  Y  Y5  1  0.33333300  0.66666700  0.01806079  1
  Y  Y6  1  0.33333300  0.66666700  0.51740016  1
  Y  Y7  1  0.33333300  0.66666700  0.31210600  1
  Y  Y8  1  0.33333300  0.66666700  0.81510476  1
  Mg  Mg0  1  0.00000000  0.00000000  0.35393551  1
  Mg  Mg1  1  0.00000000  0.00000000  0.85094387  1
  Mg  Mg2  1  0.66666700  0.33333300  0.98213931  1
  S  S0  1  0.28752493  0.00434155  0.25341479  1
  S  S1  1  0.71681662  0.71247507  0.25341479  1
  S  S2  1  0.99565845  0.28318338  0.25341479  1
  S  S3  1  0.28708436  0.28463381  0.75345796  1
  S  S4  1  0.99754944  0.71291564  0.75345796  1
  S  S5  1  0.71536619  0.00245056  0.75345796  1
  S  S6  1  0.95951498  0.33430173  0.58334123  1
  S  S7  1  0.37478776  0.04048502  0.58334123  1
  S  S8  1  0.66569827  0.62521224  0.58334123  1
  S  S9  1  0.95158962  0.62111760  0.07985027  1
  S  S10  1  0.66952898  0.04841038  0.07985027  1
  S  S11  1  0.37888240  0.33047102  0.07985027  1
  S  S12  1  0.63728298  0.66666717  0.91665307  1
  S  S13  1  0.02938319  0.36271702  0.91665307  1
  S  S14  1  0.33333283  0.97061681  0.91665307  1
  S  S15  1  0.63550680  0.96115299  0.41418238  1
  S  S16  1  0.32564519  0.36449320  0.41418238  1
  S  S17  1  0.03884701  0.67435481  0.41418238  1
  O  O0  1  0.20360300  0.02715142  0.30206958  1
  O  O1  1  0.82354842  0.79639700  0.30206958  1
  O  O2  1  0.97284858  0.17645158  0.30206958  1
  O  O3  1  0.20306137  0.17678922  0.80217747  1
  O  O4  1  0.97372785  0.79693863  0.80217747  1
  O  O5  1  0.82321078  0.02627215  0.80217747  1
  O  O6  1  0.78971285  0.98093428  0.70099321  1
  O  O7  1  0.19122143  0.21028715  0.70099321  1
  O  O8  1  0.01906572  0.80877857  0.70099321  1
  O  O9  1  0.79126051  0.80851176  0.20072030  1
  O  O10  1  0.01725125  0.20873949  0.20072030  1
  O  O11  1  0.19148824  0.98274875  0.20072030  1
  O  O12  1  0.87913581  0.36067880  0.63347199  1
  O  O13  1  0.48154399  0.12086419  0.63347199  1
  O  O14  1  0.63932120  0.51845601  0.63347199  1
  O  O15  1  0.87696276  0.52454701  0.13246732  1
  O  O16  1  0.64758525  0.12303724  0.13246732  1
  O  O17  1  0.47545299  0.35241475  0.13246732  1
  O  O18  1  0.46329937  0.30685423  0.03126062  1
  O  O19  1  0.84355586  0.53670063  0.03126062  1
  O  O20  1  0.69314577  0.15644414  0.03126062  1
  O  O21  1  0.45491888  0.14770886  0.53340520  1
  O  O22  1  0.69279097  0.54508112  0.53340520  1
  O  O23  1  0.85229114  0.30720903  0.53340520  1
  O  O24  1  0.55448422  0.69357726  0.96657018  1
  O  O25  1  0.13909204  0.44551578  0.96657018  1
  O  O26  1  0.30642274  0.86090796  0.96657018  1
  O  O27  1  0.55387783  0.85937762  0.46539461  1
  O  O28  1  0.30549878  0.44612217  0.46539461  1
  O  O29  1  0.14062238  0.69450122  0.46539461  1
  O  O30  1  0.11977297  0.64025343  0.36564055  1
  O  O31  1  0.52047945  0.88022703  0.36564055  1
  O  O32  1  0.35974657  0.47952055  0.36564055  1
  O  O33  1  0.11215182  0.47249639  0.86680013  1
  O  O34  1  0.36034357  0.88784818  0.86680013  1
  O  O35  1  0.52750361  0.63965643  0.86680013  1
  O  O36  1  0.02228279  0.82448189  0.40553432  1
  O  O37  1  0.80219910  0.97771721  0.40553432  1
  O  O38  1  0.17551811  0.19780090  0.40553432  1
  O  O39  1  0.01501523  0.19327675  0.90931002  1
  O  O40  1  0.17826152  0.98498477  0.90931002  1
  O  O41  1  0.80672325  0.82173848  0.90931002  1
  O  O42  1  0.97639435  0.18221371  0.59072780  1
  O  O43  1  0.20581935  0.02360565  0.59072780  1
  O  O44  1  0.81778629  0.79418065  0.59072780  1
  O  O45  1  0.97104466  0.79485685  0.08571673  1
  O  O46  1  0.82381218  0.02895534  0.08571673  1
  O  O47  1  0.20514315  0.17618782  0.08571673  1
  O  O48  1  0.69592703  0.15698340  0.74784527  1
  O  O49  1  0.46105737  0.30407297  0.74784527  1
  O  O50  1  0.84301660  0.53894263  0.74784527  1
  O  O51  1  0.69631893  0.53787284  0.24768659  1
  O  O52  1  0.84155491  0.30368107  0.24768659  1
  O  O53  1  0.46212716  0.15844509  0.24768659  1
  O  O54  1  0.65161831  0.51154561  0.92405136  1
  O  O55  1  0.85992830  0.34838169  0.92405136  1
  O  O56  1  0.48845439  0.14007170  0.92405136  1
  O  O57  1  0.65083831  0.13341370  0.42043095  1
  O  O58  1  0.48257639  0.34916169  0.42043095  1
  O  O59  1  0.86658630  0.51742361  0.42043095  1
  O  O60  1  0.35865761  0.48188045  0.07379055  1
  O  O61  1  0.12322184  0.64134239  0.07379055  1
  O  O62  1  0.51811955  0.87677816  0.07379055  1
  O  O63  1  0.35808380  0.87152022  0.57559294  1
  O  O64  1  0.51343542  0.64191620  0.57559294  1
  O  O65  1  0.12847978  0.48656458  0.57559294  1
  O  O66  1  0.30815166  0.85299857  0.25873468  1
  O  O67  1  0.54484590  0.69184834  0.25873468  1
  O  O68  1  0.14700143  0.45515410  0.25873468  1
  O  O69  1  0.30778674  0.45650140  0.75953973  1
  O  O70  1  0.14871366  0.69221326  0.75953973  1
  O  O71  1  0.54349860  0.85128634  0.75953973  1
loop_
_geom_bond_atom_site_label_1
_geom_bond_atom_site_label_2
_geom_bond_distance
_geom_bond_site_symmetry_2
Na0 O39 2.639900 1_555
Na0 O41 2.639900 1_445
Na0 O40 2.639900 1_545
Na0 O45 2.797139 1_446
Na0 O47 2.797139 1_556
Na0 O46 2.797139 1_456
Na1 O56 2.637007 1_555
Na1 O54 2.637007 1_555
Na1 O55 2.637007 1_555
Na1 O50 2.798102 1_555
Na1 O48 2.798102 1_555
Na1 O49 2.798102 1_555
Na2 O51 2.682336 1_555
Na2 O53 2.682336 1_555
Na2 O52 2.682336 1_555
Na2 O57 2.718091 1_555
Na2 O59 2.718091 1_555
Na2 O58 2.718091 1_555
Mg0 O38 2.100212 1_555
Mg0 O36 2.100212 1_545
Mg0 O37 2.100212 1_445
Mg0 O1 2.132022 1_445
Mg0 O2 2.132022 1_455
Mg0 O0 2.132022 1_555
Mg1 O4 2.088285 1_445
Mg1 O3 2.088285 1_555
Mg1 O5 2.088285 1_455
Mg1 O39 2.189281 1_555
Mg1 O41 2.189281 1_445
Mg1 O40 2.189281 1_545
Mg2 O19 2.094710 1_556
Mg2 O20 2.094710 1_556
Mg2 O18 2.094710 1_556
Mg2 O56 2.184832 1_555
Mg2 O54 2.184832 1_555
Mg2 O55 2.184832 1_555
O0 S0 1.460104 1_555
O1 S1 1.460104 1_555
O2 S2 1.460104 1_555
O3 S3 1.465581 1_555
O4 S4 1.465581 1_555
O5 S5 1.465581 1_555
O6 S5 1.482451 1_565
O6 Y0 2.230965 1_665
O7 S3 1.482451 1_555
O7 Y0 2.230965 1_555
O8 S4 1.482451 1_455
O8 Y0 2.230965 1_565
O9 S1 1.487812 1_555
O9 Y1 2.219555 1_665
O10 S2 1.487812 1_455
O10 Y1 2.219555 1_555
O11 S0 1.487812 1_565
O11 Y1 2.219555 1_565
O12 S6 1.482868 1_555
O12 Y2 2.225398 1_555
O13 S7 1.482868 1_555
O13 Y2 2.225398 1_555
O14 S8 1.482868 1_555
O14 Y2 2.225398 1_555
O15 S9 1.488246 1_555
O15 Y3 2.219981 1_555
O16 S10 1.488246 1_555
O16 Y3 2.219981 1_555
O17 S11 1.488246 1_555
O17 Y3 2.219981 1_555
O18 S11 1.464477 1_555
O19 S9 1.464477 1_555
O20 S10 1.464477 1_555
O21 S7 1.480467 1_555
O21 Y4 2.213332 1_555
O22 S8 1.480467 1_555
O22 Y4 2.213332 1_555
O23 S6 1.480467 1_555
O23 Y4 2.213332 1_555
O24 S12 1.493390 1_555
O24 Y5 2.258021 1_556
O25 S13 1.493390 1_555
O25 Y5 2.258020 1_556
O26 S14 1.493390 1_555
O26 Y5 2.258021 1_556
O27 S15 1.488443 1_555
O27 Y6 2.257427 1_555
O28 S16 1.488443 1_555
O28 Y6 2.257427 1_555
O29 S17 1.488443 1_555
O29 Y6 2.257427 1_555
O30 S17 1.485641 1_555
O30 Y7 2.230300 1_555
O31 S15 1.485641 1_555
O31 Y7 2.230300 1_555
O32 S16 1.485641 1_555
O32 Y7 2.230300 1_555
O33 S13 1.492381 1_555
O33 Y8 2.260618 1_555
O34 S14 1.492381 1_555
O34 Y8 2.260618 1_555
O35 S12 1.492381 1_555
O35 Y8 2.260618 1_555
O36 S17 1.454992 1_555
O37 S15 1.455001 1_555
O38 S16 1.454997 1_555
O39 S13 1.483921 1_555
O40 S14 1.483912 1_555
O41 S12 1.483917 1_555
O42 S6 1.470193 1_555
O42 Y0 2.225201 1_655
O43 S7 1.470203 1_555
O43 Y0 2.225201 1_555
O44 S8 1.470199 1_555
O44 Y0 2.225201 1_665
O45 S9 1.499465 1_555
O45 Y1 2.283041 1_665
O46 S10 1.499456 1_555
O46 Y1 2.283041 1_655
O47 S11 1.499461 1_555
O47 Y1 2.283041 1_555
O48 S5 1.501056 1_555
O48 Y2 2.265390 1_555
O49 S3 1.501065 1_555
O49 Y2 2.265390 1_555
O50 S4 1.501061 1_555
O50 Y2 2.265390 1_555
O51 S1 1.503076 1_555
O51 Y3 2.286395 1_555
O52 S2 1.503067 1_555
O52 Y3 2.286395 1_555
O53 S0 1.503072 1_555
O53 Y3 2.286395 1_555
O54 S12 1.484354 1_555
O55 S13 1.484336 1_655
O56 S14 1.484344 1_545
O57 S15 1.502643 1_545
O57 Y4 2.254388 1_555
O58 S16 1.502661 1_555
O58 Y4 2.254388 1_555
O59 S17 1.502651 1_655
O59 Y4 2.254388 1_555
O60 S11 1.478221 1_555
O60 Y5 2.239046 1_555
O61 S9 1.478204 1_455
O61 Y5 2.239046 1_555
O62 S10 1.478211 1_565
O62 Y5 2.239046 1_555
O63 S7 1.471897 1_565
O63 Y6 2.239026 1_555
O64 S8 1.471915 1_555
O64 Y6 2.239026 1_555
O65 S6 1.471905 1_455
O65 Y6 2.239026 1_555
O66 S0 1.478139 1_565
O66 Y7 2.216641 1_555
O67 S1 1.478148 1_555
O67 Y7 2.216641 1_555
O68 S2 1.478144 1_455
O68 Y7 2.216641 1_555
O69 S3 1.478631 1_555
O69 Y8 2.236448 1_555
O70 S4 1.478622 1_455
O70 Y8 2.236449 1_555
O71 S5 1.478628 1_565
O71 Y8 2.236448 1_555
