# generated using pymatgen
data_Yb2Sn2O7
_symmetry_space_group_name_H-M   'P 1'
_cell_length_a   7.45089446
_cell_length_b   7.45089446
_cell_length_c   7.45089446
_cell_angle_alpha   60.00000000
_cell_angle_beta   60.00000000
_cell_angle_gamma   60.00000000
_symmetry_Int_Tables_number   1
_chemical_formula_structural   Yb2Sn2O7
_chemical_formula_sum   'Yb4 Sn4 O14'
_cell_volume   292.48947155
_cell_formula_units_Z   2
loop_
 _symmetry_equiv_pos_site_id
 _symmetry_equiv_pos_as_xyz
  1  'x, y, z'
loop_
 _atom_site_type_symbol
 _atom_site_label
 _atom_site_symmetry_multiplicity
 _atom_site_fract_x
 _atom_site_fract_y
 _atom_site_fract_z
 _atom_site_occupancy
  Yb  Yb0  1  0.62500000  0.62500000  0.12500000  1
  Yb  Yb1  1  0.62500000  0.12500000  0.62500000  1
  Yb  Yb2  1  0.12500000  0.62500000  0.62500000  1
  Yb  Yb3  1  0.62500000  0.62500000  0.62500000  1
  Sn  Sn0  1  0.12500000  0.12500000  0.62500000  1
  Sn  Sn1  1  0.12500000  0.62500000  0.12500000  1
  Sn  Sn2  1  0.62500000  0.12500000  0.12500000  1
  Sn  Sn3  1  0.12500000  0.12500000  0.12500000  1
  O  O0  1  0.75000000  0.75000000  0.75000000  1
  O  O1  1  0.50000000  0.50000000  0.50000000  1
  O  O2  1  0.03886500  0.46113500  0.03886500  1
  O  O3  1  0.78886500  0.21113500  0.78886500  1
  O  O4  1  0.03886500  0.03886500  0.46113500  1
  O  O5  1  0.46113500  0.03886500  0.03886500  1
  O  O6  1  0.03886500  0.46113500  0.46113500  1
  O  O7  1  0.46113500  0.46113500  0.03886500  1
  O  O8  1  0.46113500  0.03886500  0.46113500  1
  O  O9  1  0.21113500  0.78886500  0.78886500  1
  O  O10  1  0.78886500  0.21113500  0.21113500  1
  O  O11  1  0.21113500  0.78886500  0.21113500  1
  O  O12  1  0.78886500  0.78886500  0.21113500  1
  O  O13  1  0.21113500  0.21113500  0.78886500  1
loop_
_geom_bond_atom_site_label_1
_geom_bond_atom_site_label_2
_geom_bond_distance
_geom_bond_site_symmetry_2
O0 Yb3 2.281361 1_555
O0 Yb0 2.281361 1_556
O0 Yb1 2.281361 1_565
O0 Yb2 2.281361 1_655
O1 Yb0 2.281361 1_555
O1 Yb1 2.281361 1_555
O1 Yb2 2.281361 1_555
O1 Yb3 2.281361 1_555
O2 Sn3 2.072079 1_555
O2 Sn1 2.072079 1_555
O2 Yb0 2.539908 1_455
O2 Yb2 2.539908 1_554
O3 Sn2 2.072079 1_556
O3 Sn0 2.072079 1_655
O3 Yb3 2.539908 1_555
O3 Yb1 2.539908 1_555
O4 Sn3 2.072079 1_555
O4 Sn0 2.072079 1_555
O4 Yb2 2.539908 1_545
O4 Yb1 2.539908 1_455
O5 Sn2 2.072079 1_555
O5 Sn3 2.072079 1_555
O5 Yb1 2.539908 1_554
O5 Yb0 2.539908 1_545
O6 Sn0 2.072079 1_555
O6 Sn1 2.072079 1_555
O6 Yb2 2.539908 1_555
O6 Yb3 2.539908 1_455
O7 Sn2 2.072079 1_555
O7 Sn1 2.072079 1_555
O7 Yb3 2.539908 1_554
O7 Yb0 2.539908 1_555
O8 Sn2 2.072079 1_555
O8 Sn0 2.072079 1_555
O8 Yb3 2.539908 1_545
O8 Yb1 2.539908 1_555
O9 Sn0 2.072079 1_565
O9 Sn1 2.072079 1_556
O9 Yb3 2.539908 1_555
O9 Yb2 2.539908 1_555
O10 Sn2 2.072079 1_555
O10 Sn3 2.072079 1_655
O10 Yb0 2.539908 1_555
O10 Yb1 2.539908 1_555
O11 Sn3 2.072079 1_565
O11 Sn1 2.072079 1_555
O11 Yb0 2.539908 1_555
O11 Yb2 2.539908 1_555
O12 Sn2 2.072079 1_565
O12 Sn1 2.072079 1_655
O12 Yb3 2.539908 1_555
O12 Yb0 2.539908 1_555
O13 Sn3 2.072079 1_556
O13 Sn0 2.072079 1_555
O13 Yb1 2.539908 1_555
O13 Yb2 2.539908 1_555
