# generated using pymatgen
data_Na6TaGa3Si2(PO6)4
_symmetry_space_group_name_H-M   'P 1'
_cell_length_a   8.84018569
_cell_length_b   8.85442394
_cell_length_c   22.00733172
_cell_angle_alpha   90.08782922
_cell_angle_beta   89.60448557
_cell_angle_gamma   119.91352636
_symmetry_Int_Tables_number   1
_chemical_formula_structural   Na6TaGa3Si2(PO6)4
_chemical_formula_sum   'Na18 Ta3 Ga9 Si6 P12 O72'
_cell_volume   1493.09035228
_cell_formula_units_Z   3
loop_
 _symmetry_equiv_pos_site_id
 _symmetry_equiv_pos_as_xyz
  1  'x, y, z'
loop_
 _atom_site_type_symbol
 _atom_site_label
 _atom_site_symmetry_multiplicity
 _atom_site_fract_x
 _atom_site_fract_y
 _atom_site_fract_z
 _atom_site_occupancy
  Na  Na0  1  0.99866236  0.99170694  0.50236195  1
  Na  Na1  1  0.98322067  0.99245325  0.99700212  1
  Na  Na2  1  0.66361541  0.33427556  0.82859408  1
  Na  Na3  1  0.66377892  0.33748641  0.32903859  1
  Na  Na4  1  0.33448345  0.66039866  0.16168005  1
  Na  Na5  1  0.33185736  0.66461467  0.66353116  1
  Na  Na6  1  0.63976569  0.00878673  0.24620341  1
  Na  Na7  1  0.99532772  0.35801975  0.74688052  1
  Na  Na8  1  0.36422170  0.00528303  0.74963532  1
  Na  Na9  1  0.29935791  0.33313447  0.58619212  1
  Na  Na10  1  0.66839823  0.96646477  0.58431127  1
  Na  Na11  1  0.29528393  0.96247138  0.08395293  1
  Na  Na12  1  0.03700492  0.33629423  0.08267217  1
  Na  Na13  1  0.97442005  0.67893238  0.91471187  1
  Na  Na14  1  0.32451450  0.29453366  0.91401575  1
  Na  Na15  1  0.96270664  0.29455115  0.41717709  1
  Na  Na16  1  0.33370701  0.03689506  0.41497459  1
  Na  Na17  1  0.70250311  0.67051540  0.41827876  1
  Ta  Ta0  1  0.66736971  0.33132519  0.97875031  1
  Ta  Ta1  1  0.33185525  0.67054823  0.31037652  1
  Ta  Ta2  1  0.33908905  0.66365565  0.81335549  1
  Ga  Ga0  1  0.99824736  -0.00006208  0.34745503  1
  Ga  Ga1  1  0.00157194  0.00383788  0.85333520  1
  Ga  Ga2  1  0.00172474  0.99684983  0.65047155  1
  Ga  Ga3  1  0.99783856  0.99220622  0.14958742  1
  Ga  Ga4  1  0.66440139  0.34133426  0.68399991  1
  Ga  Ga5  1  0.65969130  0.33569195  0.18657269  1
  Ga  Ga6  1  0.66636839  0.32990201  0.48460956  1
  Ga  Ga7  1  0.33864090  0.66710875  0.01493606  1
  Ga  Ga8  1  0.33391195  0.67059018  0.51822301  1
  Si  Si0  1  0.28917908  0.01062984  0.24877323  1
  Si  Si1  1  0.29225830  0.28645540  0.74783386  1
  Si  Si2  1  0.63060189  0.67823777  0.91912321  1
  Si  Si3  1  0.04451869  0.37232714  0.91881349  1
  Si  Si4  1  0.33131590  0.95298122  0.91869191  1
  Si  Si5  1  0.62990051  0.96154777  0.41887118  1
  P  P0  1  0.71530389  0.70723320  0.24992371  1
  P  P1  1  0.99866955  0.28886782  0.24842704  1
  P  P2  1  0.99442092  0.70868090  0.74975653  1
  P  P3  1  0.71457505  0.00124409  0.74809910  1
  P  P4  1  0.95954992  0.33704747  0.58330463  1
  P  P5  1  0.37213072  0.03863071  0.58350450  1
  P  P6  1  0.67028898  0.62578011  0.58210385  1
  P  P7  1  0.95413484  0.62415553  0.08638834  1
  P  P8  1  0.66681964  0.03748724  0.08670844  1
  P  P9  1  0.37499088  0.33758390  0.08606729  1
  P  P10  1  0.33305630  0.37695516  0.41886864  1
  P  P11  1  0.04240819  0.66658625  0.41905360  1
  O  O0  1  0.20535595  0.03227938  0.31218583  1
  O  O1  1  0.81613711  0.78577590  0.30970391  1
  O  O2  1  0.96244210  0.17583456  0.30690274  1
  O  O3  1  0.20921153  0.16893551  0.80862206  1
  O  O4  1  0.96771586  0.78507899  0.80827996  1
  O  O5  1  0.82926859  0.03345343  0.80331677  1
  O  O6  1  0.78631969  0.96537182  0.68875628  1
  O  O7  1  0.16668376  0.20922153  0.68816720  1
  O  O8  1  0.03582881  0.82810270  0.69389000  1
  O  O9  1  0.78849402  0.83358528  0.19574862  1
  O  O10  1  0.03234570  0.20957165  0.19140243  1
  O  O11  1  0.17184894  0.96559048  0.18831729  1
  O  O12  1  0.87386720  0.36238694  0.64096713  1
  O  O13  1  0.49156937  0.12148784  0.63944910  1
  O  O14  1  0.63186156  0.50352308  0.63685536  1
  O  O15  1  0.86563485  0.50040135  0.13984256  1
  O  O16  1  0.63541104  0.12251707  0.14300138  1
  O  O17  1  0.48972710  0.36270015  0.14025488  1
  O  O18  1  0.46346569  0.30691905  0.02783367  1
  O  O19  1  0.84370633  0.53507131  0.02740507  1
  O  O20  1  0.69622685  0.16230141  0.03039775  1
  O  O21  1  0.45242832  0.15619473  0.52557991  1
  O  O22  1  0.69808078  0.54554836  0.52276777  1
  O  O23  1  0.84448089  0.30253618  0.52567130  1
  O  O24  1  0.54136816  0.70401556  0.97812150  1
  O  O25  1  0.16144045  0.45652269  0.97874545  1
  O  O26  1  0.29192884  0.83411595  0.97885360  1
  O  O27  1  0.54383584  0.83397230  0.47720562  1
  O  O28  1  0.29611846  0.45550988  0.47595833  1
  O  O29  1  0.16222330  0.70189103  0.47335538  1
  O  O30  1  0.13038565  0.63295690  0.36211864  1
  O  O31  1  0.49974286  0.86540074  0.35951093  1
  O  O32  1  0.36164085  0.49704354  0.36312300  1
  O  O33  1  0.13064742  0.50257653  0.85853934  1
  O  O34  1  0.36796083  0.86848201  0.85718410  1
  O  O35  1  0.49691190  0.62749910  0.85990328  1
  O  O36  1  0.02378457  0.83019718  0.41162827  1
  O  O37  1  0.82299194  0.98040229  0.40917423  1
  O  O38  1  0.17002916  0.19355476  0.41224776  1
  O  O39  1  0.02599723  0.18461988  0.91008337  1
  O  O40  1  0.16420783  0.97886055  0.91138545  1
  O  O41  1  0.82479788  0.83466663  0.90859389  1
  O  O42  1  0.97483913  0.16797696  0.58678707  1
  O  O43  1  0.19098389  0.02574424  0.58914543  1
  O  O44  1  0.83016708  0.81152621  0.58854909  1
  O  O45  1  0.97229911  0.80738269  0.08828610  1
  O  O46  1  0.83856716  0.03149548  0.08942339  1
  O  O47  1  0.19222275  0.16766049  0.08757139  1
  O  O48  1  0.69137119  0.16435666  0.74285918  1
  O  O49  1  0.48512949  0.30454012  0.74211096  1
  O  O50  1  0.84126249  0.51973313  0.74300897  1
  O  O51  1  0.69315389  0.52646575  0.24319381  1
  O  O52  1  0.83703113  0.31075050  0.24348122  1
  O  O53  1  0.49137340  0.16900744  0.24462907  1
  O  O54  1  0.64090044  0.49477815  0.92488810  1
  O  O55  1  0.85583426  0.36660562  0.92350737  1
  O  O56  1  0.50495956  0.14913650  0.92470444  1
  O  O57  1  0.64338797  0.15335219  0.42295542  1
  O  O58  1  0.50154643  0.36383188  0.42237993  1
  O  O59  1  0.86009467  0.50052918  0.42251148  1
  O  O60  1  0.34950237  0.49707568  0.08010586  1
  O  O61  1  0.13817207  0.64209433  0.08080481  1
  O  O62  1  0.49883704  0.86058629  0.07940801  1
  O  O63  1  0.36040244  0.85839646  0.57734024  1
  O  O64  1  0.50045066  0.64100273  0.57843146  1
  O  O65  1  0.14577360  0.49751346  0.57739013  1
  O  O66  1  0.31280703  0.83084046  0.25686591  1
  O  O67  1  0.52716198  0.68986681  0.25789697  1
  O  O68  1  0.16628500  0.47138394  0.25757823  1
  O  O69  1  0.30537004  0.48109339  0.75409970  1
  O  O70  1  0.16664866  0.69303938  0.75421293  1
  O  O71  1  0.52440957  0.83938759  0.75429024  1
loop_
_geom_bond_atom_site_label_1
_geom_bond_atom_site_label_2
_geom_bond_distance
_geom_bond_site_symmetry_2
Na0 O44 2.441668 1_555
Na0 O43 2.482134 1_665
Na0 O42 2.499192 1_565
Na0 O36 2.526572 1_655
Na0 O37 2.552614 1_555
Na0 O38 2.586723 1_665
Na1 O41 2.403439 1_555
Na1 O39 2.460776 1_665
Na1 O40 2.504854 1_655
Na1 O46 2.508889 1_566
Na1 O45 2.565151 1_556
Na1 O47 2.641163 1_666
Na2 O49 2.409754 1_555
Na2 O50 2.471222 1_555
Na2 O48 2.497385 1_555
Na2 O56 2.608586 1_555
Na2 O54 2.611596 1_555
Na2 O55 2.625727 1_555
Na3 O53 2.400414 1_555
Na3 O51 2.450722 1_555
Na3 O52 2.503498 1_555
Na3 O58 2.573421 1_555
Na3 O57 2.583539 1_555
Na3 O59 2.620862 1_555
Na4 O60 2.347770 1_555
Na4 O62 2.436393 1_555
Na4 O61 2.442758 1_555
Na4 O68 2.636558 1_555
Na4 O66 2.641141 1_555
Na4 O67 2.656671 1_555
Na5 O64 2.458349 1_555
Na5 O65 2.468995 1_555
Na5 O63 2.485404 1_555
Na5 O69 2.508405 1_555
Na5 O70 2.550264 1_555
Na5 O71 2.586875 1_555
Na6 O52 2.354156 1_555
Na6 O53 2.364656 1_555
Na6 O16 2.494154 1_555
Na6 O67 2.495263 1_545
Na6 O66 2.518224 1_545
Na6 O9 2.716067 1_545
Na6 O31 2.785997 1_545
Na6 O2 2.819126 1_555
Na7 O48 2.361279 1_555
Na7 O69 2.398213 1_655
Na7 O50 2.420647 1_555
Na7 O70 2.576887 1_655
Na7 O12 2.581395 1_555
Na7 O33 2.758895 1_655
Na7 O7 2.767395 1_655
Na7 O5 2.781117 1_555
Na8 O49 2.316281 1_555
Na8 O70 2.426249 1_545
Na8 O71 2.500126 1_545
Na8 O48 2.510380 1_555
Na8 O13 2.649693 1_555
Na8 O34 2.668364 1_545
Na8 O3 2.759135 1_555
Na8 O8 2.809766 1_545
Na9 O43 2.393533 1_555
Na9 O64 2.405067 1_555
Na9 O65 2.444338 1_555
Na9 O42 2.486765 1_455
Na9 O7 2.510692 1_555
Na9 O28 2.664609 1_555
Na9 O14 2.788616 1_555
Na9 O21 2.854485 1_555
Na10 O42 2.388733 1_565
Na10 O63 2.399846 1_555
Na10 O44 2.427936 1_555
Na10 O64 2.501969 1_555
Na10 O6 2.532461 1_555
Na10 O27 2.623680 1_555
Na10 O13 2.812289 1_565
Na10 O23 2.882268 1_565
Na11 O62 2.382896 1_555
Na11 O47 2.405575 1_565
Na11 O61 2.460098 1_555
Na11 O45 2.476544 1_455
Na11 O11 2.542031 1_555
Na11 O26 2.569353 1_554
Na11 O18 2.915678 1_565
Na11 O16 2.921671 1_565
Na12 O46 2.378797 1_455
Na12 O61 2.391164 1_555
Na12 O60 2.395217 1_555
Na12 O47 2.483940 1_555
Na12 O25 2.525698 1_554
Na12 O10 2.635768 1_555
Na12 O15 2.855365 1_455
Na12 O20 2.861075 1_455
Na13 O40 2.329780 1_655
Na13 O41 2.343344 1_555
Na13 O55 2.427263 1_555
Na13 O4 2.537198 1_555
Na13 O54 2.568828 1_555
Na13 O19 2.758743 1_556
Na13 O26 2.821530 1_655
Na13 O33 2.827619 1_655
Na14 O39 2.315173 1_555
Na14 O40 2.423671 1_545
Na14 O54 2.466883 1_555
Na14 O56 2.512306 1_555
Na14 O3 2.559227 1_555
Na14 O18 2.775307 1_556
Na14 O35 2.817288 1_555
Na14 O25 2.862250 1_555
Na15 O38 2.408770 1_655
Na15 O59 2.410577 1_555
Na15 O37 2.422551 1_545
Na15 O57 2.454224 1_555
Na15 O23 2.614766 1_555
Na15 O2 2.642789 1_555
Na15 O30 2.863590 1_655
Na15 O28 2.872151 1_655
Na16 O57 2.404022 1_555
Na16 O36 2.421271 1_545
Na16 O38 2.454523 1_555
Na16 O58 2.515167 1_555
Na16 O0 2.528858 1_555
Na16 O21 2.657809 1_555
Na16 O31 2.853531 1_545
Na16 O29 2.871831 1_545
Na17 O58 2.392723 1_555
Na17 O37 2.405674 1_555
Na17 O36 2.465128 1_655
Na17 O59 2.511677 1_555
Na17 O22 2.545019 1_555
Na17 O1 2.590737 1_555
Na17 O27 2.781690 1_555
Na17 O32 2.888088 1_555
Ga0 O0 1.869415 1_655
Ga0 O2 1.955043 1_555
Ga0 O1 1.961294 1_545
Ga0 O37 1.994871 1_545
Ga0 O36 2.157244 1_645
Ga0 O38 2.168912 1_655
Ga1 O3 1.943650 1_555
Ga1 O41 1.951761 1_445
Ga1 O39 1.954862 1_555
Ga1 O5 2.005741 1_455
Ga1 O40 2.022728 1_545
Ga1 O4 2.060253 1_445
Ga2 O7 1.904648 1_565
Ga2 O8 1.921998 1_555
Ga2 O6 1.965410 1_455
Ga2 O43 2.056481 1_565
Ga2 O44 2.095082 1_455
Ga2 O42 2.164946 1_465
Ga3 O11 1.878466 1_655
Ga3 O9 1.953333 1_555
Ga3 O10 2.014205 1_665
Ga3 O45 2.044031 1_555
Ga3 O46 2.090992 1_565
Ga3 O47 2.130863 1_665
Ga4 O14 1.908473 1_555
Ga4 O49 1.926541 1_555
Ga4 O12 1.998133 1_555
Ga4 O13 2.033075 1_555
Ga4 O50 2.045634 1_555
Ga4 O48 2.138564 1_555
Ga5 O17 1.932367 1_555
Ga5 O53 1.952928 1_555
Ga5 O15 1.956943 1_555
Ga5 O51 1.998461 1_555
Ga5 O16 2.030161 1_555
Ga5 O52 2.109098 1_555
Ga6 O23 1.937875 1_555
Ga6 O21 1.958303 1_555
Ga6 O22 1.973355 1_555
Ga6 O57 2.001647 1_555
Ga6 O59 2.115773 1_555
Ga6 O58 2.134065 1_555
Ga7 O24 1.836201 1_554
Ga7 O26 1.898674 1_554
Ga7 O25 1.914272 1_554
Ga7 O60 2.117913 1_555
Ga7 O62 2.134022 1_555
Ga7 O61 2.205683 1_555
Ga8 O27 1.911742 1_555
Ga8 O29 1.948455 1_555
Ga8 O28 1.991937 1_555
Ga8 O63 2.030255 1_555
Ga8 O65 2.060162 1_555
Ga8 O64 2.098686 1_555
O0 Si0 1.630939 1_555
O1 P0 1.550523 1_555
O2 P1 1.561704 1_555
O3 Si1 1.624871 1_555
O4 P2 1.524646 1_555
O5 P3 1.521049 1_555
O6 P3 1.548204 1_565
O7 Si1 1.638425 1_555
O8 P2 1.541244 1_455
O9 P0 1.537274 1_555
O10 P1 1.535299 1_455
O11 Si0 1.615516 1_565
O12 P4 1.545894 1_555
O13 P5 1.552897 1_555
O14 P6 1.539701 1_555
O15 P7 1.527378 1_555
O16 P8 1.542594 1_555
O17 P9 1.513692 1_555
O18 P9 1.588953 1_555
O18 Ta0 2.011969 1_554
O19 P7 1.583190 1_555
O19 Ta0 2.010816 1_554
O20 P8 1.593076 1_555
O20 Ta0 1.996705 1_554
O21 P5 1.570699 1_555
O22 P6 1.561100 1_555
O23 P4 1.563157 1_555
O24 Si2 1.588940 1_555
O25 Si3 1.615858 1_555
O26 Si4 1.616889 1_555
O27 Si5 1.623807 1_555
O28 P10 1.545035 1_555
O29 P11 1.527679 1_555
O30 P11 1.574769 1_555
O30 Ta1 1.990327 1_555
O31 Si5 1.672008 1_555
O31 Ta1 1.952219 1_555
O32 P10 1.559259 1_555
O32 Ta1 2.046980 1_555
O33 Si3 1.668609 1_555
O33 Ta2 1.943249 1_555
O34 Si4 1.652153 1_555
O34 Ta2 1.954756 1_555
O35 Si2 1.669435 1_555
O35 Ta2 1.888026 1_555
O36 P11 1.546435 1_555
O37 Si5 1.642557 1_555
O38 P10 1.550247 1_555
O39 Si3 1.598166 1_555
O40 Si4 1.612978 1_555
O41 Si2 1.594745 1_555
O42 P4 1.570834 1_555
O43 P5 1.551734 1_555
O44 P6 1.551214 1_555
O45 P7 1.549087 1_555
O46 P8 1.546984 1_555
O47 P9 1.565300 1_555
O48 P3 1.561283 1_555
O49 Si1 1.635046 1_555
O50 P2 1.548220 1_555
O51 P0 1.519622 1_555
O52 P1 1.539330 1_555
O53 Si0 1.633373 1_555
O54 Si2 1.676738 1_555
O54 Ta0 1.975176 1_555
O55 Si3 1.645854 1_655
O55 Ta0 1.950769 1_555
O56 Si4 1.653309 1_545
O56 Ta0 1.945769 1_555
O57 Si5 1.644474 1_545
O58 P10 1.553151 1_555
O59 P11 1.549304 1_655
O60 P9 1.542939 1_555
O61 P7 1.557808 1_455
O62 P8 1.538529 1_565
O63 P5 1.552565 1_565
O64 P6 1.575582 1_555
O65 P4 1.552589 1_455
O66 Si0 1.715407 1_565
O66 Ta1 1.917235 1_555
O67 P0 1.600522 1_555
O67 Ta1 2.005646 1_555
O68 P1 1.569270 1_455
O68 Ta1 2.011250 1_555
O69 Si1 1.674167 1_555
O69 Ta2 1.980093 1_555
O70 P2 1.599781 1_455
O70 Ta2 2.123580 1_555
O71 P3 1.578937 1_565
O71 Ta2 2.056464 1_555
