# generated using pymatgen
data_Na8Ca2Nb2Si5SO24
_symmetry_space_group_name_H-M   'P 1'
_cell_length_a   9.40749049
_cell_length_b   9.37544078
_cell_length_c   22.81949050
_cell_angle_alpha   89.60958215
_cell_angle_beta   90.86393082
_cell_angle_gamma   119.96912941
_symmetry_Int_Tables_number   1
_chemical_formula_structural   Na8Ca2Nb2Si5SO24
_chemical_formula_sum   'Na24 Ca6 Nb6 Si15 S3 O72'
_cell_volume   1743.36189651
_cell_formula_units_Z   3
loop_
 _symmetry_equiv_pos_site_id
 _symmetry_equiv_pos_as_xyz
  1  'x, y, z'
loop_
 _atom_site_type_symbol
 _atom_site_label
 _atom_site_symmetry_multiplicity
 _atom_site_fract_x
 _atom_site_fract_y
 _atom_site_fract_z
 _atom_site_occupancy
  Na  Na0  1  0.64900624  0.03201475  0.24437245  1
  Na  Na1  1  0.36760595  0.34243645  0.25172398  1
  Na  Na2  1  0.98358565  0.62247600  0.24449178  1
  Na  Na3  1  0.62466445  0.63984324  0.76007073  1
  Na  Na4  1  0.01153825  0.37328589  0.75899206  1
  Na  Na5  1  0.36047347  0.98713280  0.75127031  1
  Na  Na6  1  0.29317016  0.35193784  0.57978291  1
  Na  Na7  1  0.05104659  0.70248953  0.58682868  1
  Na  Na8  1  0.64719425  0.94376390  0.57889567  1
  Na  Na9  1  0.31614368  0.95990908  0.08547386  1
  Na  Na10  1  0.66268817  0.70582328  0.07108892  1
  Na  Na11  1  0.03049679  0.34963051  0.07580507  1
  Na  Na12  1  0.97887812  0.67642856  0.90223088  1
  Na  Na13  1  0.71621594  0.01422180  0.91079222  1
  Na  Na14  1  0.32507136  0.31482847  0.90624198  1
  Na  Na15  1  0.97667085  0.28364659  0.41096645  1
  Na  Na16  1  0.32596856  0.03449558  0.40572231  1
  Na  Na17  1  0.69945881  0.68485174  0.41190903  1
  Na  Na18  1  0.99937674  0.01541824  0.49778776  1
  Na  Na19  1  0.98304386  0.99706281  0.99234316  1
  Na  Na20  1  0.67075499  0.34378615  0.83067645  1
  Na  Na21  1  0.66542536  0.32994557  0.32329087  1
  Na  Na22  1  0.33074444  0.68191607  0.16002243  1
  Na  Na23  1  0.33294869  0.66548845  0.67014529  1
  Ca  Ca0  1  0.00007952  0.00168205  0.34964906  1
  Ca  Ca1  1  0.99719665  0.99970049  0.84401758  1
  Ca  Ca2  1  0.67053038  0.33348663  0.18197028  1
  Ca  Ca3  1  0.33619584  0.66687893  0.01225691  1
  Ca  Ca4  1  0.33434933  0.66540716  0.52223325  1
  Ca  Ca5  1  0.33113726  0.65477387  0.81449802  1
  Nb  Nb0  1  0.99638226  0.99998336  0.64757787  1
  Nb  Nb1  1  0.98734028  0.99300308  0.15373702  1
  Nb  Nb2  1  0.66778597  0.33493467  0.68490521  1
  Nb  Nb3  1  0.69487830  0.34686653  0.98463881  1
  Nb  Nb4  1  0.65154067  0.32259215  0.48279082  1
  Nb  Nb5  1  0.35403375  0.67248148  0.31074349  1
  Si  Si0  1  0.29269526  0.99110201  0.25352325  1
  Si  Si1  1  0.69936430  0.70065681  0.25428090  1
  Si  Si2  1  0.00938878  0.30496295  0.25351721  1
  Si  Si3  1  0.30158012  0.29165300  0.74759802  1
  Si  Si4  1  0.99485746  0.70004649  0.74735636  1
  Si  Si5  1  0.70466304  0.00664693  0.74718024  1
  Si  Si6  1  0.94625661  0.32349634  0.58396755  1
  Si  Si7  1  0.36641925  0.04684682  0.58575715  1
  Si  Si8  1  0.67761794  0.62693524  0.58309441  1
  Si  Si9  1  0.97345511  0.64743616  0.08869115  1
  Si  Si10  1  0.67074051  0.03340105  0.08784954  1
  Si  Si11  1  0.64070339  0.65990402  0.91991705  1
  Si  Si12  1  0.02970518  0.36058985  0.91948387  1
  Si  Si13  1  0.62806709  0.96845965  0.42084780  1
  Si  Si14  1  0.33998102  0.37356566  0.42026683  1
  S  S0  1  0.36263688  0.32268891  0.08381055  1
  S  S1  1  0.34469238  0.98197091  0.91915904  1
  S  S2  1  0.03374067  0.65560536  0.41676125  1
  O  O0  1  0.22002051  0.01768981  0.31199033  1
  O  O1  1  0.80089454  0.76938514  0.31314683  1
  O  O2  1  0.97939623  0.20079182  0.31169749  1
  O  O3  1  0.24476266  0.18555474  0.80686367  1
  O  O4  1  0.95050967  0.75893925  0.80656755  1
  O  O5  1  0.80953439  0.05301339  0.80704024  1
  O  O6  1  0.81800576  0.99114902  0.69188297  1
  O  O7  1  0.17067862  0.17648859  0.69202245  1
  O  O8  1  0.00577403  0.82730814  0.69149795  1
  O  O9  1  0.80327903  0.83392910  0.19704235  1
  O  O10  1  0.03000912  0.19448945  0.19607980  1
  O  O11  1  0.16050709  0.96920309  0.19552881  1
  O  O12  1  0.84283992  0.33535266  0.63873633  1
  O  O13  1  0.48952540  0.15248273  0.63921893  1
  O  O14  1  0.66570581  0.50829559  0.63791202  1
  O  O15  1  0.88986410  0.54093105  0.14509482  1
  O  O16  1  0.63787572  0.10484421  0.14574808  1
  O  O17  1  0.45541845  0.34330800  0.13814605  1
  O  O18  1  0.45080023  0.30652266  0.03235806  1
  O  O19  1  0.84561224  0.53367077  0.03023618  1
  O  O20  1  0.69083258  0.16483177  0.03179136  1
  O  O21  1  0.46720156  0.16659759  0.52574745  1
  O  O22  1  0.69483205  0.52474716  0.52490121  1
  O  O23  1  0.82491498  0.30235909  0.52483181  1
  O  O24  1  0.56135996  0.69059659  0.97709625  1
  O  O25  1  0.12366796  0.44262176  0.97991327  1
  O  O26  1  0.32419381  0.88277552  0.97198078  1
  O  O27  1  0.54334377  0.86635549  0.47827199  1
  O  O28  1  0.30657711  0.44889893  0.47714013  1
  O  O29  1  0.12794586  0.67648919  0.47104256  1
  O  O30  1  0.12059188  0.64056826  0.36447317  1
  O  O31  1  0.50171409  0.86097979  0.36096466  1
  O  O32  1  0.36366106  0.50494459  0.36135148  1
  O  O33  1  0.09029201  0.47558030  0.86128967  1
  O  O34  1  0.37072531  0.90703168  0.86628236  1
  O  O35  1  0.52835366  0.61532999  0.86041510  1
  O  O36  1  0.00738426  0.79822047  0.41247476  1
  O  O37  1  0.81042433  0.99409266  0.41598787  1
  O  O38  1  0.19418277  0.18544215  0.41410624  1
  O  O39  1  0.00306583  0.17638443  0.91629086  1
  O  O40  1  0.19880779  0.00179538  0.91384541  1
  O  O41  1  0.83036887  0.80830282  0.91709328  1
  O  O42  1  0.95661424  0.15177469  0.58709030  1
  O  O43  1  0.18887264  0.04236501  0.58698209  1
  O  O44  1  0.84936885  0.80825169  0.58605563  1
  O  O45  1  0.97109490  0.82601842  0.08979228  1
  O  O46  1  0.85337850  0.03731622  0.09094402  1
  O  O47  1  0.19794305  0.16607622  0.08579958  1
  O  O48  1  0.68203246  0.17000114  0.73630831  1
  O  O49  1  0.48875832  0.31935599  0.73627819  1
  O  O50  1  0.83310383  0.51224254  0.73692853  1
  O  O51  1  0.65020266  0.51392386  0.24316369  1
  O  O52  1  0.85863669  0.33882357  0.24574607  1
  O  O53  1  0.47432575  0.14442906  0.24456229  1
  O  O54  1  0.64088365  0.47720375  0.93252768  1
  O  O55  1  0.83430153  0.33925272  0.92802264  1
  O  O56  1  0.49580076  0.15007875  0.92618709  1
  O  O57  1  0.63240324  0.15228004  0.42093104  1
  O  O58  1  0.52264184  0.37715304  0.42192630  1
  O  O59  1  0.86915721  0.49849772  0.41834482  1
  O  O60  1  0.33736809  0.46618482  0.07847635  1
  O  O61  1  0.15606610  0.67715182  0.08043077  1
  O  O62  1  0.52155871  0.84731899  0.07961994  1
  O  O63  1  0.34669360  0.86723994  0.58480575  1
  O  O64  1  0.51640614  0.64411583  0.58517289  1
  O  O65  1  0.12338165  0.48684889  0.58429465  1
  O  O66  1  0.29291244  0.81077995  0.25673376  1
  O  O67  1  0.52398061  0.71112599  0.25517388  1
  O  O68  1  0.18932628  0.48412942  0.25666689  1
  O  O69  1  0.30706772  0.46618074  0.74364214  1
  O  O70  1  0.16260365  0.69359549  0.74379884  1
  O  O71  1  0.52747322  0.84139706  0.74448531  1
loop_
_geom_bond_atom_site_label_1
_geom_bond_atom_site_label_2
_geom_bond_distance
_geom_bond_site_symmetry_2
Na0 O53 2.354112 1_555
Na0 O16 2.363384 1_555
Na0 O52 2.548765 1_555
Na0 O67 2.637897 1_545
Na1 O51 2.330647 1_555
Na1 O53 2.520320 1_555
Na1 O68 2.612280 1_555
Na1 O17 2.730826 1_555
Na2 O52 2.309042 1_555
Na2 O15 2.407577 1_555
Na2 O66 2.551948 1_655
Na2 O51 2.771586 1_555
Na2 O68 2.827140 1_655
Na3 O35 2.442193 1_555
Na3 O71 2.498092 1_555
Na3 O69 2.613965 1_555
Na3 O49 2.668514 1_555
Na3 O50 2.817557 1_555
Na3 O4 2.875352 1_555
Na4 O33 2.487265 1_555
Na4 O69 2.493349 1_555
Na4 O70 2.625837 1_555
Na4 O50 2.630380 1_455
Na4 O48 2.751710 1_455
Na4 O5 2.854260 1_455
Na5 O70 2.438570 1_555
Na5 O71 2.552222 1_555
Na5 O48 2.654923 1_565
Na5 O34 2.738472 1_555
Na5 O49 2.741815 1_565
Na5 O3 2.889972 1_565
Na5 O13 2.928215 1_565
Na6 O64 2.485691 1_555
Na6 O65 2.487355 1_555
Na6 O28 2.488733 1_555
Na6 O43 2.562574 1_555
Na6 O42 2.765780 1_455
Na6 O7 2.954908 1_555
Na7 O63 2.415461 1_555
Na7 O65 2.435375 1_555
Na7 O44 2.541942 1_455
Na7 O43 2.776173 1_565
Na7 O29 2.794009 1_555
Na7 O8 2.796867 1_555
Na8 O64 2.444015 1_555
Na8 O27 2.449554 1_555
Na8 O63 2.551173 1_555
Na8 O42 2.574580 1_565
Na8 O44 2.767710 1_555
Na8 O6 2.933372 1_555
Na9 O61 2.306341 1_555
Na9 O62 2.629462 1_555
Na9 O47 2.668416 1_565
Na9 O26 2.705956 1_554
Na9 O45 2.838891 1_455
Na9 O16 2.947896 1_565
Na9 O11 2.949538 1_555
Na10 O62 2.308979 1_555
Na10 O24 2.309992 1_554
Na10 O45 2.563701 1_555
Na10 O46 2.739891 1_565
Na10 O60 2.753787 1_555
Na11 O25 2.363254 1_554
Na11 O60 2.525043 1_555
Na11 O46 2.568776 1_455
Na11 O61 2.685559 1_555
Na11 O47 2.861305 1_555
Na11 O20 2.935461 1_455
Na12 O41 2.311121 1_555
Na12 O4 2.366591 1_555
Na12 O40 2.710214 1_665
Na12 O33 2.746374 1_655
Na12 O55 2.809371 1_555
Na12 O54 2.862212 1_555
Na13 O39 2.345807 1_655
Na13 O5 2.498060 1_555
Na13 O41 2.638925 1_545
Na13 O55 2.701084 1_555
Na14 O3 2.500690 1_555
Na14 O40 2.563336 1_555
Na14 O54 2.635187 1_555
Na14 O39 2.646208 1_555
Na14 O35 2.706570 1_555
Na14 O56 2.760346 1_555
Na15 O37 2.363922 1_545
Na15 O2 2.404400 1_555
Na15 O38 2.629992 1_655
Na15 O59 2.674707 1_555
Na15 O57 2.844470 1_555
Na16 O38 2.310871 1_555
Na16 O0 2.318753 1_555
Na16 O57 2.538688 1_555
Na16 O36 2.699936 1_545
Na16 O58 2.817403 1_555
Na16 O21 3.015517 1_555
Na16 O31 3.030467 1_545
Na17 O1 2.429574 1_555
Na17 O58 2.519852 1_555
Na17 O36 2.538570 1_655
Na17 O37 2.545815 1_555
Na18 O37 2.496797 1_545
Na18 O42 2.554009 1_555
Na18 O38 2.586787 1_655
Na18 O43 2.613837 1_655
Na18 O44 2.667406 1_545
Na18 O36 2.855525 1_645
Na19 O39 2.351079 1_665
Na19 O41 2.360306 1_555
Na19 O46 2.692074 1_566
Na19 O45 2.703347 1_556
Na19 O40 2.710961 1_665
Na19 O47 2.803864 1_666
Na20 O50 2.654449 1_555
Na20 O49 2.669796 1_555
Na20 O55 2.695281 1_555
Na20 O54 2.730560 1_555
Na20 O48 2.744191 1_555
Na20 O56 2.797374 1_555
Na21 O53 2.511167 1_555
Na21 O52 2.527014 1_555
Na21 O51 2.556343 1_555
Na21 O57 2.699775 1_555
Na21 O58 2.786577 1_555
Na21 O59 2.787642 1_555
Na22 O61 2.416378 1_555
Na22 O62 2.504560 1_555
Na22 O66 2.635591 1_555
Na22 O67 2.736041 1_555
Na22 O68 2.764100 1_555
Na22 O60 2.781748 1_555
Na23 O71 2.424013 1_555
Na23 O69 2.424640 1_555
Na23 O70 2.443673 1_555
Na23 O63 2.664574 1_555
Na23 O65 2.675669 1_555
Na23 O64 2.688928 1_555
Ca0 O2 2.146713 1_455
Ca0 O0 2.187185 1_555
Ca0 O1 2.201983 1_445
Ca0 O38 2.297074 1_555
Ca0 O37 2.330912 1_445
Ca0 O36 2.406141 1_545
Ca1 O5 2.215741 1_565
Ca1 O4 2.245634 1_555
Ca1 O3 2.272482 1_665
Ca1 O39 2.325964 1_665
Ca1 O41 2.385030 1_555
Ca1 O40 2.451284 1_665
Ca2 O16 2.175155 1_555
Ca2 O15 2.183795 1_555
Ca2 O52 2.255410 1_555
Ca2 O51 2.282922 1_555
Ca2 O17 2.286409 1_555
Ca2 O53 2.316286 1_555
Ca3 O25 2.177066 1_554
Ca3 O24 2.181363 1_554
Ca3 O26 2.270328 1_554
Ca3 O62 2.296306 1_555
Ca3 O61 2.354913 1_555
Ca3 O60 2.409442 1_555
Ca4 O28 2.176684 1_555
Ca4 O27 2.180458 1_555
Ca4 O29 2.297218 1_555
Ca4 O64 2.302058 1_555
Ca4 O63 2.333512 1_555
Ca4 O65 2.340973 1_555
Ca5 O35 2.301822 1_555
Ca5 O33 2.311224 1_555
Ca5 O69 2.328064 1_555
Ca5 O70 2.395914 1_555
Ca5 O71 2.418178 1_555
Ca5 O34 2.504655 1_555
Nb0 O7 1.928076 1_665
Nb0 O8 1.936816 1_655
Nb0 O6 1.938071 1_555
Nb0 O42 2.135414 1_565
Nb0 O44 2.146403 1_555
Nb0 O43 2.167548 1_665
Nb1 O9 1.910648 1_555
Nb1 O10 1.979590 1_665
Nb1 O11 1.981549 1_655
Nb1 O46 2.067499 1_565
Nb1 O45 2.094973 1_555
Nb1 O47 2.410021 1_665
Nb2 O14 1.949217 1_555
Nb2 O12 1.966675 1_555
Nb2 O13 1.982641 1_555
Nb2 O48 1.990624 1_555
Nb2 O50 1.994927 1_555
Nb2 O49 2.010873 1_555
Nb3 O55 1.881618 1_555
Nb3 O19 1.913094 1_556
Nb3 O54 1.935822 1_555
Nb3 O20 1.995798 1_556
Nb3 O56 2.279613 1_555
Nb3 O18 2.409001 1_556
Nb4 O21 1.898690 1_555
Nb4 O23 1.968756 1_555
Nb4 O22 1.980720 1_555
Nb4 O58 2.054356 1_555
Nb4 O57 2.076178 1_555
Nb4 O59 2.399651 1_555
Nb5 O67 1.942038 1_555
Nb5 O31 1.973156 1_555
Nb5 O32 1.980740 1_555
Nb5 O66 2.057308 1_555
Nb5 O68 2.068909 1_555
Nb5 O30 2.415658 1_555
O0 Si0 1.584907 1_545
O1 Si1 1.578022 1_555
O2 Si2 1.585690 1_655
O3 Si3 1.605135 1_555
O4 Si4 1.600590 1_555
O5 Si5 1.602240 1_555
O6 Si5 1.717027 1_565
O7 Si3 1.712834 1_555
O8 Si4 1.708707 1_455
O9 Si1 1.737483 1_555
O10 Si2 1.747912 1_555
O11 Si0 1.743268 1_555
O12 Si6 1.633238 1_555
O13 Si7 1.624308 1_555
O14 Si8 1.635627 1_555
O15 Si9 1.581332 1_555
O16 Si10 1.587804 1_555
O17 S0 1.462413 1_555
O18 S0 1.498936 1_555
O19 Si9 1.747235 1_555
O20 Si10 1.715697 1_555
O21 Si7 1.728979 1_555
O22 Si8 1.698926 1_555
O23 Si6 1.701333 1_555
O24 Si11 1.609822 1_555
O25 Si12 1.604030 1_555
O26 S1 1.472261 1_555
O27 Si13 1.587731 1_555
O28 Si14 1.590111 1_555
O29 S2 1.467957 1_555
O30 S2 1.502636 1_555
O31 Si13 1.751791 1_555
O32 Si14 1.756868 1_555
O33 Si12 1.624817 1_555
O34 S1 1.483883 1_555
O35 Si11 1.630506 1_555
O36 S2 1.479030 1_555
O37 Si13 1.614484 1_555
O38 Si14 1.610125 1_555
O39 Si12 1.618466 1_555
O40 S1 1.477250 1_545
O41 Si11 1.626534 1_555
O42 Si6 1.661782 1_555
O43 Si7 1.650338 1_555
O44 Si8 1.661062 1_555
O45 Si9 1.685851 1_555
O46 Si10 1.700527 1_555
O47 S0 1.512251 1_555
O48 Si5 1.664753 1_555
O49 Si3 1.670555 1_555
O50 Si4 1.670442 1_555
O51 Si1 1.592736 1_555
O52 Si2 1.607782 1_655
O53 Si0 1.606371 1_545
O54 Si11 1.735798 1_555
O55 Si12 1.760698 1_655
O56 S1 1.512861 1_545
O57 Si13 1.703400 1_545
O58 Si14 1.701678 1_555
O59 S2 1.513498 1_655
O60 S0 1.482452 1_555
O61 Si9 1.610980 1_455
O62 Si10 1.612107 1_565
O63 Si7 1.599561 1_565
O64 Si8 1.604555 1_555
O65 Si6 1.603850 1_455
O66 Si0 1.692706 1_555
O67 Si1 1.701506 1_555
O68 Si2 1.688018 1_555
O69 Si3 1.613054 1_555
O70 Si4 1.612402 1_455
O71 Si5 1.612689 1_565
