# generated using pymatgen
data_TbGeRu
_symmetry_space_group_name_H-M   'P 1'
_cell_length_a   4.44839117
_cell_length_b   7.06216550
_cell_length_c   7.13690079
_cell_angle_alpha   90.00108777
_cell_angle_beta   90.00000186
_cell_angle_gamma   89.99999979
_symmetry_Int_Tables_number   1
_chemical_formula_structural   TbGeRu
_chemical_formula_sum   'Tb4 Ge4 Ru4'
_cell_volume   224.20769846
_cell_formula_units_Z   4
loop_
 _symmetry_equiv_pos_site_id
 _symmetry_equiv_pos_as_xyz
  1  'x, y, z'
loop_
 _atom_site_type_symbol
 _atom_site_label
 _atom_site_symmetry_multiplicity
 _atom_site_fract_x
 _atom_site_fract_y
 _atom_site_fract_z
 _atom_site_occupancy
  Tb  Tb0  1  0.24999999  0.48080610  0.30885340  1
  Tb  Tb1  1  0.74999996  0.51920266  0.69114294  1
  Tb  Tb2  1  0.24999994  0.98080223  0.19111491  1
  Tb  Tb3  1  0.74999997  0.01919846  0.80888746  1
  Ge  Ge0  1  0.25000002  0.29998492  0.89342812  1
  Ge  Ge1  1  0.74999999  0.70001665  0.10658277  1
  Ge  Ge2  1  0.24999999  0.79997249  0.60658539  1
  Ge  Ge3  1  0.75000002  0.20002480  0.39340261  1
  Ru  Ru0  1  0.75000002  0.84719919  0.43512602  1
  Ru  Ru1  1  0.25000007  0.15279846  0.56486127  1
  Ru  Ru2  1  0.75000003  0.34722298  0.06485727  1
  Ru  Ru3  1  0.24999999  0.65277107  0.93515784  1
loop_
_geom_bond_atom_site_label_1
_geom_bond_atom_site_label_2
_geom_bond_distance
_geom_bond_site_symmetry_2
Ge0 Ru3 2.509166 1_555
Ge0 Ru2 2.560314 1_456
Ge0 Ru2 2.560314 1_556
Ge0 Ru1 2.564987 1_555
Ge0 Tb3 3.040259 1_555
Ge0 Tb3 3.040259 1_455
Ge0 Tb1 3.070528 1_555
Ge0 Tb1 3.070528 1_455
Ge0 Tb2 3.097580 1_546
Ge0 Tb0 3.228140 1_556
Ge1 Ru2 2.509215 1_555
Ge1 Ru3 2.560306 1_554
Ge1 Ru3 2.560306 1_654
Ge1 Ru0 2.564822 1_555
Ge1 Tb2 3.040243 1_655
Ge1 Tb2 3.040243 1_555
Ge1 Tb0 3.070454 1_655
Ge1 Tb0 3.070454 1_555
Ge1 Tb3 3.097617 1_564
Ge1 Tb1 3.228215 1_554
Ge2 Ru1 2.509452 1_565
Ge2 Ru0 2.560412 1_455
Ge2 Ru0 2.560413 1_555
Ge2 Ru3 2.565103 1_555
Ge2 Tb1 3.040221 1_555
Ge2 Tb1 3.040221 1_455
Ge2 Tb3 3.070587 1_565
Ge2 Tb3 3.070587 1_465
Ge2 Tb0 3.097659 1_555
Ge2 Tb2 3.228505 1_555
Ge3 Ru0 2.509448 1_545
Ge3 Ru1 2.560410 1_555
Ge3 Ru1 2.560410 1_655
Ge3 Ru2 2.564917 1_555
Ge3 Tb0 3.040262 1_655
Ge3 Tb0 3.040262 1_555
Ge3 Tb2 3.070526 1_645
Ge3 Tb2 3.070527 1_545
Ge3 Tb1 3.097759 1_555
Ge3 Tb3 3.228589 1_555
Ru0 Tb3 2.931022 1_565
Ru0 Tb1 2.950297 1_555
Ru0 Tb2 2.978274 1_655
Ru0 Tb2 2.978274 1_555
Ru1 Tb2 2.930915 1_545
Ru1 Tb0 2.950318 1_555
Ru1 Tb3 2.978330 1_555
Ru1 Tb3 2.978330 1_455
Ru2 Tb1 2.930701 1_554
Ru2 Tb3 2.950189 1_554
Ru2 Tb0 2.978146 1_655
Ru2 Tb0 2.978146 1_555
Ru3 Tb0 2.930536 1_556
Ru3 Tb2 2.950170 1_556
Ru3 Tb1 2.978191 1_555
Ru3 Tb1 2.978191 1_455
