# generated using pymatgen
data_Th2AlH4
_symmetry_space_group_name_H-M   'P 1'
_cell_length_a   6.30588207
_cell_length_b   6.30588207
_cell_length_c   6.30588207
_cell_angle_alpha   105.47396108
_cell_angle_beta   105.47396108
_cell_angle_gamma   117.80081192
_symmetry_Int_Tables_number   1
_chemical_formula_structural   Th2AlH4
_chemical_formula_sum   'Th4 Al2 H8'
_cell_volume   189.92537366
_cell_formula_units_Z   2
loop_
 _symmetry_equiv_pos_site_id
 _symmetry_equiv_pos_as_xyz
  1  'x, y, z'
loop_
 _atom_site_type_symbol
 _atom_site_label
 _atom_site_symmetry_multiplicity
 _atom_site_fract_x
 _atom_site_fract_y
 _atom_site_fract_z
 _atom_site_occupancy
  Th  Th0  1  0.83558900  0.66441100  0.50000000  1
  Th  Th1  1  0.66441100  0.16441100  0.82882300  1
  Th  Th2  1  0.16441100  0.33558900  0.50000000  1
  Th  Th3  1  0.33558900  0.83558900  0.17117700  1
  Al  Al0  1  0.75000000  0.75000000  0.00000000  1
  Al  Al1  1  0.25000000  0.25000000  0.00000000  1
  H  H0  1  0.22139100  0.98098100  0.50000000  1
  H  H1  1  0.48098100  0.72139100  0.50000000  1
  H  H2  1  0.72139100  0.22139100  0.24041100  1
  H  H3  1  0.98098100  0.48098100  0.75958900  1
  H  H4  1  0.27860900  0.77860900  0.75958900  1
  H  H5  1  0.51901900  0.27860900  0.50000000  1
  H  H6  1  0.01901900  0.51901900  0.24041100  1
  H  H7  1  0.77860900  0.01901900  0.50000000  1
loop_
_geom_bond_atom_site_label_1
_geom_bond_atom_site_label_2
_geom_bond_distance
_geom_bond_site_symmetry_2
Al0 Th3 3.285623 1_555
Al0 Th1 3.285623 1_564
Al0 Th2 3.285626 1_554
Al0 Th0 3.285626 1_555
Al0 Th0 3.285626 1_554
Al0 Th2 3.285626 1_665
Al0 Th1 3.285626 1_554
Al0 Th3 3.285626 1_655
Al1 Th3 3.285623 1_545
Al1 Th1 3.285623 1_554
Al1 Th2 3.285626 1_555
Al1 Th2 3.285626 1_554
Al1 Th0 3.285626 1_555
Al1 Th0 3.285626 1_444
Al1 Th1 3.285626 1_454
Al1 Th3 3.285626 1_555
H0 Th0 2.318078 1_455
H0 Th2 2.424620 1_565
H0 Th1 2.461061 1_565
H0 Th3 2.461064 1_555
H1 Th2 2.318078 1_555
H1 Th0 2.424620 1_555
H1 Th1 2.461061 1_565
H1 Th3 2.461064 1_555
H2 Th3 2.318074 1_545
H2 Th1 2.424620 1_554
H2 Th0 2.461057 1_555
H2 Th2 2.461057 1_655
H3 Th1 2.318087 1_555
H3 Th3 2.424620 1_656
H3 Th0 2.461054 1_555
H3 Th2 2.461054 1_655
H4 Th1 2.318074 1_565
H4 Th3 2.424620 1_556
H4 Th0 2.461057 1_455
H4 Th2 2.461057 1_555
H5 Th0 2.318078 1_555
H5 Th2 2.424620 1_555
H5 Th3 2.461061 1_545
H5 Th1 2.461064 1_555
H6 Th3 2.318087 1_555
H6 Th1 2.424620 1_454
H6 Th0 2.461054 1_455
H6 Th2 2.461054 1_555
H7 Th2 2.318078 1_655
H7 Th0 2.424620 1_545
H7 Th3 2.461061 1_545
H7 Th1 2.461064 1_555
