# generated using pymatgen
data_SbPCl8O
_symmetry_space_group_name_H-M   'P 1'
_cell_length_a   8.55364900
_cell_length_b   9.34871200
_cell_length_c   17.35510900
_cell_angle_alpha   90.00000000
_cell_angle_beta   90.00000000
_cell_angle_gamma   90.00000000
_symmetry_Int_Tables_number   1
_chemical_formula_structural   SbPCl8O
_chemical_formula_sum   'Sb4 P4 Cl32 O4'
_cell_volume   1387.81172247
_cell_formula_units_Z   4
loop_
 _symmetry_equiv_pos_site_id
 _symmetry_equiv_pos_as_xyz
  1  'x, y, z'
loop_
 _atom_site_type_symbol
 _atom_site_label
 _atom_site_symmetry_multiplicity
 _atom_site_fract_x
 _atom_site_fract_y
 _atom_site_fract_z
 _atom_site_occupancy
  Sb  Sb0  1  0.25000000  0.42151600  0.35400100  1
  Sb  Sb1  1  0.75000000  0.57848400  0.64599900  1
  Sb  Sb2  1  0.75000000  0.92151600  0.14599900  1
  Sb  Sb3  1  0.25000000  0.07848400  0.85400100  1
  P  P0  1  0.25000000  0.71729300  0.92379700  1
  P  P1  1  0.75000000  0.28270700  0.07620300  1
  P  P2  1  0.75000000  0.21729300  0.57620300  1
  P  P3  1  0.25000000  0.78270700  0.42379700  1
  Cl  Cl0  1  0.56472600  0.13623200  0.62891200  1
  Cl  Cl1  1  0.93527400  0.36376800  0.12891200  1
  Cl  Cl2  1  0.43527400  0.63623200  0.87108800  1
  Cl  Cl3  1  0.06472600  0.86376800  0.37108800  1
  Cl  Cl4  1  0.25000000  0.92279200  0.74397800  1
  Cl  Cl5  1  0.75000000  0.07720800  0.25602200  1
  Cl  Cl6  1  0.75000000  0.42279200  0.75602200  1
  Cl  Cl7  1  0.25000000  0.57720800  0.24397800  1
  Cl  Cl8  1  0.25000000  0.19891400  0.97459100  1
  Cl  Cl9  1  0.75000000  0.80108600  0.02540900  1
  Cl  Cl10  1  0.75000000  0.69891400  0.52540900  1
  Cl  Cl11  1  0.25000000  0.30108600  0.47459100  1
  Cl  Cl12  1  0.25000000  0.28781400  0.77813900  1
  Cl  Cl13  1  0.75000000  0.71218600  0.22186100  1
  Cl  Cl14  1  0.75000000  0.78781400  0.72186100  1
  Cl  Cl15  1  0.25000000  0.21218600  0.27813900  1
  Cl  Cl16  1  0.97395500  0.05688400  0.86068400  1
  Cl  Cl17  1  0.47395500  0.94311600  0.13931600  1
  Cl  Cl18  1  0.02604500  0.55688400  0.63931600  1
  Cl  Cl19  1  0.52604500  0.44311600  0.36068400  1
  Cl  Cl20  1  0.02604500  0.94311600  0.13931600  1
  Cl  Cl21  1  0.52604500  0.05688400  0.86068400  1
  Cl  Cl22  1  0.97395500  0.44311600  0.36068400  1
  Cl  Cl23  1  0.47395500  0.55688400  0.63931600  1
  Cl  Cl24  1  0.25000000  0.86325300  0.52953700  1
  Cl  Cl25  1  0.75000000  0.13674700  0.47046300  1
  Cl  Cl26  1  0.75000000  0.36325300  0.97046300  1
  Cl  Cl27  1  0.25000000  0.63674700  0.02953700  1
  Cl  Cl28  1  0.06472600  0.63623200  0.87108800  1
  Cl  Cl29  1  0.56472600  0.36376800  0.12891200  1
  Cl  Cl30  1  0.93527400  0.13623200  0.62891200  1
  Cl  Cl31  1  0.43527400  0.86376800  0.37108800  1
  O  O0  1  0.25000000  0.87734400  0.92752700  1
  O  O1  1  0.25000000  0.62265600  0.42752700  1
  O  O2  1  0.75000000  0.37734400  0.57247300  1
  O  O3  1  0.75000000  0.12265600  0.07247300  1
loop_
_geom_bond_atom_site_label_1
_geom_bond_atom_site_label_2
_geom_bond_distance
_geom_bond_site_symmetry_2
Cl0 P2 1.980551 1_555
Cl1 P1 1.980551 1_555
Cl2 P0 1.980551 1_555
Cl3 P3 1.980551 1_555
Cl4 Sb3 2.400954 1_565
Cl5 Sb2 2.400954 1_545
Cl6 Sb1 2.400954 1_555
Cl7 Sb0 2.400954 1_555
Cl8 Sb3 2.376469 1_555
Cl9 Sb2 2.376469 1_555
Cl10 Sb1 2.376469 1_555
Cl11 Sb0 2.376469 1_555
Cl12 Sb3 2.358630 1_555
Cl13 Sb2 2.358630 1_555
Cl14 Sb1 2.358630 1_555
Cl15 Sb0 2.358630 1_555
Cl16 Sb3 2.372648 1_655
Cl17 Sb2 2.372648 1_555
Cl18 Sb1 2.372648 1_455
Cl19 Sb0 2.372648 1_555
Cl20 Sb2 2.372648 1_455
Cl21 Sb3 2.372648 1_555
Cl22 Sb0 2.372648 1_655
Cl23 Sb1 2.372648 1_555
Cl24 P3 1.983610 1_555
Cl25 P2 1.983610 1_555
Cl26 P1 1.983610 1_556
Cl27 P0 1.983610 1_554
Cl28 P0 1.980551 1_555
Cl29 P1 1.980551 1_555
Cl30 P2 1.980551 1_555
Cl31 P3 1.980551 1_555
O0 P0 1.497670 1_555
O0 Sb3 2.272490 1_565
O1 P3 1.497670 1_555
O1 Sb0 2.272490 1_555
O2 P2 1.497670 1_555
O2 Sb1 2.272490 1_555
O3 P1 1.497670 1_555
O3 Sb2 2.272490 1_545
