# generated using pymatgen
data_Na6Hf3MgSi4(SO12)2
_symmetry_space_group_name_H-M   'P 1'
_cell_length_a   9.10662572
_cell_length_b   9.09899052
_cell_length_c   22.87527458
_cell_angle_alpha   90.04671333
_cell_angle_beta   90.11480819
_cell_angle_gamma   119.94673395
_symmetry_Int_Tables_number   1
_chemical_formula_structural   Na6Hf3MgSi4(SO12)2
_chemical_formula_sum   'Na18 Hf9 Mg3 Si12 S6 O72'
_cell_volume   1642.39901991
_cell_formula_units_Z   3
loop_
 _symmetry_equiv_pos_site_id
 _symmetry_equiv_pos_as_xyz
  1  'x, y, z'
loop_
 _atom_site_type_symbol
 _atom_site_label
 _atom_site_symmetry_multiplicity
 _atom_site_fract_x
 _atom_site_fract_y
 _atom_site_fract_z
 _atom_site_occupancy
  Na  Na0  1  0.99215556  0.35259443  0.75314919  1
  Na  Na1  1  0.38707174  0.01860267  0.74929256  1
  Na  Na2  1  0.31906552  0.33516861  0.58494757  1
  Na  Na3  1  0.03046903  0.70474440  0.57828534  1
  Na  Na4  1  0.65569062  0.96161343  0.58714251  1
  Na  Na5  1  0.31344586  0.97631613  0.08345241  1
  Na  Na6  1  0.66013015  0.68557122  0.08572767  1
  Na  Na7  1  0.02549554  0.33661610  0.08403486  1
  Na  Na8  1  0.33130117  0.29511072  0.92097724  1
  Na  Na9  1  0.96812878  0.29396821  0.41218564  1
  Na  Na10  1  0.32324545  0.02959971  0.41461020  1
  Na  Na11  1  0.70882816  0.67783453  0.41449937  1
  Na  Na12  1  0.00113560  0.99313452  0.49198021  1
  Na  Na13  1  0.00120708  0.99814706  0.99909552  1
  Na  Na14  1  0.66444844  0.32221883  0.83231355  1
  Na  Na15  1  0.66778981  0.33366953  0.32782574  1
  Na  Na16  1  0.33436378  0.66624170  0.16547033  1
  Na  Na17  1  0.35875720  0.67270340  0.66894680  1
  Hf  Hf0  1  0.00549198  0.01593391  0.85352163  1
  Hf  Hf1  1  0.99633812  0.99858874  0.65018262  1
  Hf  Hf2  1  0.00244301  0.00098268  0.14608679  1
  Hf  Hf3  1  0.67242052  0.32262920  0.98329840  1
  Hf  Hf4  1  0.65573053  0.33684736  0.47880238  1
  Hf  Hf5  1  0.32137504  0.66672958  0.01995969  1
  Hf  Hf6  1  0.34376537  0.67494692  0.51495829  1
  Hf  Hf7  1  0.33291923  0.66745418  0.31645572  1
  Hf  Hf8  1  0.33920760  0.67075159  0.81546599  1
  Mg  Mg0  1  0.00034487  0.99883042  0.35370730  1
  Mg  Mg1  1  0.64123511  0.32384532  0.68649907  1
  Mg  Mg2  1  0.66631678  0.33326439  0.17772521  1
  Si  Si0  1  0.29825545  0.29876664  0.74971432  1
  Si  Si1  1  0.70486093  0.00232518  0.74931196  1
  Si  Si2  1  0.37327384  0.03789743  0.58517409  1
  Si  Si3  1  0.66688574  0.62403444  0.58539147  1
  Si  Si4  1  0.95104862  0.61858069  0.08554912  1
  Si  Si5  1  0.66428682  0.04005883  0.08697571  1
  Si  Si6  1  0.38100808  0.33700498  0.08420606  1
  Si  Si7  1  0.03690153  0.37867959  0.91566464  1
  Si  Si8  1  0.33297708  0.96206282  0.91599384  1
  Si  Si9  1  0.63113676  0.96290392  0.41507441  1
  Si  Si10  1  0.32788113  0.37278251  0.41618779  1
  Si  Si11  1  0.03998778  0.66604173  0.41663730  1
  S  S0  1  0.29485787  0.00276894  0.25157814  1
  S  S1  1  0.70821353  0.70566675  0.25133183  1
  S  S2  1  0.99728729  0.29203423  0.25150887  1
  S  S3  1  0.99702912  0.70606401  0.75048210  1
  S  S4  1  0.95686108  0.33412146  0.58496464  1
  S  S5  1  0.62696908  0.66811279  0.91708674  1
  O  O0  1  0.20841541  0.01876043  0.30372992  1
  O  O1  1  0.81050249  0.79197834  0.30372589  1
  O  O2  1  0.98152123  0.18983235  0.30378487  1
  O  O3  1  0.19877015  0.17280568  0.80582339  1
  O  O4  1  0.97456917  0.78974504  0.80170606  1
  O  O5  1  0.82895291  0.02046841  0.80404550  1
  O  O6  1  0.79247956  0.97043352  0.69043858  1
  O  O7  1  0.17173769  0.20504615  0.69216900  1
  O  O8  1  0.02863119  0.81554987  0.69686429  1
  O  O9  1  0.79141339  0.81377415  0.19793432  1
  O  O10  1  0.02219538  0.20849412  0.19806073  1
  O  O11  1  0.18648902  0.97758919  0.19803974  1
  O  O12  1  0.88202905  0.36134789  0.63681496  1
  O  O13  1  0.49317445  0.11391641  0.64112072  1
  O  O14  1  0.63729497  0.50256032  0.63906321  1
  O  O15  1  0.87907026  0.50066523  0.14108612  1
  O  O16  1  0.61964917  0.11753524  0.14133260  1
  O  O17  1  0.49919178  0.37678325  0.13968227  1
  O  O18  1  0.45496012  0.29589129  0.02408579  1
  O  O19  1  0.83125550  0.54073868  0.02710913  1
  O  O20  1  0.70973106  0.16205650  0.02852300  1
  O  O21  1  0.45961140  0.15772404  0.52648854  1
  O  O22  1  0.70388609  0.54512076  0.52515923  1
  O  O23  1  0.85245127  0.30483883  0.53132485  1
  O  O24  1  0.55044553  0.69494704  0.96998488  1
  O  O25  1  0.16231661  0.46091767  0.97240615  1
  O  O26  1  0.31123457  0.84720932  0.97357779  1
  O  O27  1  0.54443510  0.84449852  0.47388910  1
  O  O28  1  0.29878105  0.45804502  0.47542836  1
  O  O29  1  0.15680112  0.69542921  0.47549258  1
  O  O30  1  0.13367588  0.62968858  0.36166950  1
  O  O31  1  0.49689688  0.86936584  0.36130060  1
  O  O32  1  0.36966888  0.50472577  0.36177380  1
  O  O33  1  0.13428823  0.49073290  0.85746994  1
  O  O34  1  0.35892108  0.86987366  0.85816845  1
  O  O35  1  0.51578503  0.64140096  0.86509098  1
  O  O36  1  0.02094484  0.83190256  0.40958404  1
  O  O37  1  0.81438696  0.97947504  0.40889332  1
  O  O38  1  0.16538653  0.18680700  0.40924991  1
  O  O39  1  0.02580392  0.19086603  0.91039306  1
  O  O40  1  0.16117337  0.97826162  0.90962946  1
  O  O41  1  0.79595644  0.81744845  0.90894804  1
  O  O42  1  0.97565951  0.17844978  0.58910576  1
  O  O43  1  0.18288807  0.02080058  0.59047789  1
  O  O44  1  0.83580832  0.81849957  0.58934295  1
  O  O45  1  0.97935313  0.81430798  0.09324986  1
  O  O46  1  0.83587936  0.01957985  0.09385696  1
  O  O47  1  0.18649128  0.16604315  0.09287936  1
  O  O48  1  0.70055183  0.17783296  0.74479487  1
  O  O49  1  0.47696866  0.30608506  0.74766767  1
  O  O50  1  0.85381416  0.53579301  0.74252694  1
  O  O51  1  0.68941413  0.53748976  0.24549290  1
  O  O52  1  0.84807797  0.31071125  0.24563444  1
  O  O53  1  0.46245764  0.15189372  0.24578794  1
  O  O54  1  0.63585776  0.51091076  0.92121122  1
  O  O55  1  0.85154791  0.36063617  0.92119733  1
  O  O56  1  0.49498679  0.15575495  0.92109384  1
  O  O57  1  0.64579459  0.14851675  0.42418390  1
  O  O58  1  0.50290059  0.36077372  0.42174856  1
  O  O59  1  0.85557096  0.49137118  0.42360109  1
  O  O60  1  0.35149088  0.50035404  0.07445466  1
  O  O61  1  0.14613041  0.65033816  0.07597741  1
  O  O62  1  0.50516710  0.84755210  0.07445289  1
  O  O63  1  0.34236618  0.84299455  0.57689341  1
  O  O64  1  0.49584512  0.64428680  0.57758832  1
  O  O65  1  0.13028970  0.48409750  0.57784949  1
  O  O66  1  0.30610578  0.84258989  0.25494208  1
  O  O67  1  0.53657813  0.69383658  0.25498425  1
  O  O68  1  0.15725660  0.46346422  0.25508659  1
  O  O69  1  0.29840403  0.47921184  0.75583625  1
  O  O70  1  0.15719174  0.69658587  0.75503858  1
  O  O71  1  0.51286154  0.83608691  0.75521309  1
loop_
_geom_bond_atom_site_label_1
_geom_bond_atom_site_label_2
_geom_bond_distance
_geom_bond_site_symmetry_2
Na0 O48 2.323469 1_555
Na0 O69 2.429057 1_655
Na0 O50 2.553606 1_555
Na0 O33 2.703403 1_655
Na0 O70 2.713001 1_655
Na0 O12 2.857163 1_555
Na0 O5 2.868005 1_555
Na0 O7 2.936134 1_655
Na1 O49 2.318679 1_555
Na1 O71 2.446952 1_545
Na1 O48 2.476148 1_555
Na1 O70 2.619655 1_545
Na1 O13 2.642945 1_555
Na1 O34 2.785983 1_545
Na2 O64 2.451984 1_555
Na2 O43 2.489101 1_555
Na2 O65 2.672652 1_555
Na2 O42 2.715042 1_455
Na2 O7 2.765805 1_555
Na2 O28 2.787384 1_555
Na2 O14 2.797563 1_555
Na2 O21 2.846004 1_555
Na3 O63 2.466602 1_555
Na3 O44 2.472056 1_455
Na3 O43 2.507286 1_565
Na3 O65 2.584422 1_555
Na3 O29 2.639650 1_555
Na3 O22 2.846313 1_455
Na3 O8 2.896058 1_555
Na4 O63 2.506711 1_555
Na4 O64 2.510971 1_555
Na4 O44 2.553621 1_555
Na4 O42 2.577746 1_565
Na4 O6 2.651354 1_555
Na4 O13 2.772653 1_565
Na4 O27 2.789420 1_555
Na5 O47 2.521182 1_565
Na5 O62 2.550822 1_555
Na5 O61 2.575748 1_555
Na5 O45 2.646763 1_455
Na5 O16 2.754069 1_565
Na5 O26 2.769301 1_554
Na5 O18 2.869240 1_565
Na5 O11 2.869330 1_555
Na6 O60 2.464500 1_555
Na6 O62 2.511167 1_555
Na6 O45 2.539793 1_555
Na6 O46 2.640858 1_565
Na6 O17 2.732614 1_555
Na6 O9 2.822903 1_555
Na6 O19 2.831805 1_555
Na6 O24 2.844271 1_554
Na7 O61 2.502018 1_555
Na7 O46 2.526493 1_455
Na7 O60 2.582302 1_555
Na7 O47 2.621154 1_555
Na7 O15 2.774949 1_455
Na7 O20 2.797535 1_455
Na7 O25 2.821830 1_554
Na7 O10 2.851991 1_555
Na8 O56 2.390990 1_555
Na8 O39 2.461799 1_555
Na8 O54 2.471963 1_555
Na8 O40 2.513396 1_545
Na8 O18 2.610114 1_556
Na8 O3 2.876714 1_555
Na8 O25 2.889737 1_555
Na9 O38 2.435413 1_655
Na9 O37 2.480672 1_545
Na9 O59 2.486671 1_555
Na9 O57 2.562916 1_555
Na9 O2 2.678497 1_555
Na9 O30 2.890391 1_655
Na9 O23 2.943142 1_555
Na9 O28 2.979850 1_655
Na10 O36 2.425282 1_545
Na10 O38 2.486029 1_555
Na10 O57 2.582742 1_555
Na10 O58 2.619098 1_555
Na10 O0 2.724454 1_555
Na10 O21 2.826304 1_555
Na10 O31 2.901766 1_545
Na10 O29 2.982688 1_545
Na11 O37 2.416698 1_555
Na11 O36 2.465786 1_655
Na11 O58 2.543171 1_555
Na11 O59 2.640217 1_555
Na11 O1 2.722243 1_555
Na11 O22 2.796296 1_555
Na11 O32 2.932582 1_555
Na11 O27 2.942443 1_555
Na12 O36 2.449174 1_555
Na12 O37 2.509124 1_455
Na12 O38 2.511849 1_565
Na12 O44 2.717131 1_455
Na12 O43 2.729062 1_565
Na12 O42 2.867025 1_465
Na13 O40 2.572504 1_555
Na13 O39 2.618739 1_565
Na13 O45 2.674286 1_456
Na13 O47 2.681401 1_566
Na13 O46 2.703557 1_466
Na13 O41 2.712975 1_455
Na14 O48 2.504342 1_555
Na14 O49 2.534119 1_555
Na14 O56 2.546380 1_555
Na14 O55 2.559232 1_555
Na14 O54 2.755657 1_555
Na14 O50 2.764718 1_555
Na15 O52 2.574550 1_555
Na15 O53 2.578174 1_555
Na15 O51 2.582222 1_555
Na15 O59 2.704310 1_555
Na15 O58 2.704342 1_555
Na15 O57 2.721736 1_555
Na16 O60 2.620806 1_555
Na16 O61 2.624509 1_555
Na16 O62 2.632985 1_555
Na16 O67 2.677582 1_555
Na16 O66 2.690517 1_555
Na16 O68 2.693779 1_555
Na17 O71 2.444354 1_555
Na17 O64 2.514895 1_555
Na17 O69 2.529100 1_555
Na17 O63 2.663138 1_555
Na17 O70 2.776156 1_555
Na17 O65 2.833446 1_555
Hf0 O3 1.956491 1_555
Hf0 O5 1.981479 1_455
Hf0 O39 1.990458 1_555
Hf0 O40 2.062377 1_545
Hf0 O41 2.254583 1_445
Hf0 O4 2.266278 1_445
Hf1 O6 1.972939 1_555
Hf1 O7 1.999481 1_665
Hf1 O44 2.087010 1_555
Hf1 O43 2.111674 1_665
Hf1 O8 2.119250 1_655
Hf1 O42 2.230731 1_565
Hf2 O46 2.001554 1_455
Hf2 O45 2.007287 1_445
Hf2 O47 2.011022 1_555
Hf2 O11 2.148350 1_545
Hf2 O10 2.160409 1_555
Hf2 O9 2.178439 1_445
Hf3 O20 1.953723 1_556
Hf3 O19 2.039635 1_556
Hf3 O55 2.060455 1_555
Hf3 O18 2.092412 1_556
Hf3 O56 2.116348 1_555
Hf3 O54 2.373719 1_555
Hf4 O58 1.995856 1_555
Hf4 O22 2.018236 1_555
Hf4 O21 2.034838 1_555
Hf4 O59 2.083456 1_555
Hf4 O57 2.084936 1_555
Hf4 O23 2.291406 1_555
Hf5 O61 1.995498 1_555
Hf5 O26 1.996213 1_554
Hf5 O25 2.017557 1_554
Hf5 O62 2.073934 1_555
Hf5 O60 2.082583 1_555
Hf5 O24 2.280295 1_554
Hf6 O27 1.948508 1_555
Hf6 O29 2.014837 1_555
Hf6 O28 2.017168 1_555
Hf6 O63 2.088412 1_555
Hf6 O64 2.104015 1_555
Hf6 O65 2.347212 1_555
Hf7 O30 1.966112 1_555
Hf7 O32 1.968472 1_555
Hf7 O31 1.977188 1_555
Hf7 O66 2.229320 1_555
Hf7 O68 2.235449 1_555
Hf7 O67 2.245256 1_555
Hf8 O34 1.985133 1_555
Hf8 O33 2.011628 1_555
Hf8 O71 2.073796 1_555
Hf8 O35 2.089890 1_555
Hf8 O69 2.093716 1_555
Hf8 O70 2.256949 1_555
Mg0 O37 2.050268 1_455
Mg0 O38 2.054496 1_565
Mg0 O36 2.064616 1_555
Mg0 O1 2.139728 1_455
Mg0 O0 2.143876 1_565
Mg0 O2 2.157265 1_465
Mg1 O14 1.970789 1_555
Mg1 O13 1.990973 1_555
Mg1 O49 1.997292 1_555
Mg1 O48 2.133468 1_555
Mg1 O50 2.316913 1_555
Mg1 O12 2.340978 1_555
Mg2 O17 1.956368 1_555
Mg2 O15 1.959220 1_555
Mg2 O16 1.972245 1_555
Mg2 O51 2.346106 1_555
Mg2 O52 2.350409 1_555
Mg2 O53 2.356063 1_555
O0 S0 1.477129 1_555
O1 S1 1.478026 1_555
O2 S2 1.478038 1_555
O3 Si0 1.658961 1_555
O4 S3 1.466152 1_555
O5 Si1 1.636961 1_555
O6 Si1 1.664158 1_565
O7 Si0 1.672912 1_555
O8 S3 1.515515 1_455
O9 S1 1.515011 1_555
O10 S2 1.515202 1_455
O11 S0 1.515017 1_565
O12 S4 1.450479 1_555
O13 Si2 1.596076 1_555
O14 Si3 1.583617 1_555
O15 Si4 1.580567 1_555
O16 Si5 1.579563 1_555
O17 Si6 1.582604 1_555
O18 Si6 1.655067 1_555
O19 Si4 1.643183 1_555
O20 Si5 1.654501 1_555
O21 Si2 1.661282 1_555
O22 Si3 1.664127 1_555
O23 S4 1.490806 1_555
O24 S5 1.477249 1_555
O25 Si7 1.639609 1_555
O26 Si8 1.631926 1_555
O27 Si9 1.658789 1_555
O28 Si10 1.647270 1_555
O29 Si11 1.650881 1_555
O30 Si11 1.644317 1_555
O31 Si9 1.638728 1_555
O32 Si10 1.638203 1_555
O33 Si7 1.643892 1_555
O34 Si8 1.645140 1_555
O35 S5 1.499324 1_555
O36 Si11 1.610983 1_555
O37 Si9 1.605414 1_555
O38 Si10 1.605311 1_555
O39 Si7 1.665031 1_555
O40 Si8 1.649272 1_555
O41 S5 1.470747 1_555
O42 S4 1.512241 1_555
O43 Si2 1.666278 1_555
O44 Si3 1.669462 1_555
O45 Si4 1.676349 1_555
O46 Si5 1.670652 1_555
O47 Si6 1.687552 1_555
O48 Si1 1.620267 1_555
O49 Si0 1.596061 1_555
O50 S3 1.454519 1_555
O51 S1 1.458358 1_555
O52 S2 1.457089 1_555
O53 S0 1.456586 1_555
O54 S5 1.475543 1_555
O55 Si7 1.617513 1_655
O56 Si8 1.642969 1_545
O57 Si9 1.639459 1_545
O58 Si10 1.655754 1_555
O59 Si11 1.645726 1_655
O60 Si6 1.652367 1_555
O61 Si4 1.666332 1_455
O62 Si5 1.647236 1_565
O63 Si2 1.661628 1_565
O64 Si3 1.666569 1_555
O65 S4 1.494218 1_455
O66 S0 1.513217 1_565
O67 S1 1.514648 1_555
O68 S2 1.514146 1_455
O69 Si0 1.647044 1_555
O70 S3 1.506862 1_455
O71 Si1 1.650492 1_565
