# generated using pymatgen
data_Na2TiSi2SnSO12
_symmetry_space_group_name_H-M   'P 1'
_cell_length_a   8.90715722
_cell_length_b   8.89103818
_cell_length_c   22.42834614
_cell_angle_alpha   89.87469504
_cell_angle_beta   89.98375928
_cell_angle_gamma   120.00076196
_symmetry_Int_Tables_number   1
_chemical_formula_structural   Na2TiSi2SnSO12
_chemical_formula_sum   'Na12 Ti6 Si12 Sn6 S6 O72'
_cell_volume   1538.20618408
_cell_formula_units_Z   6
loop_
 _symmetry_equiv_pos_site_id
 _symmetry_equiv_pos_as_xyz
  1  'x, y, z'
loop_
 _atom_site_type_symbol
 _atom_site_label
 _atom_site_symmetry_multiplicity
 _atom_site_fract_x
 _atom_site_fract_y
 _atom_site_fract_z
 _atom_site_occupancy
  Na  Na0  1  0.99753518  0.62652376  0.25415104  1
  Na  Na1  1  0.37513923  0.01160703  0.75410348  1
  Na  Na2  1  0.66411939  0.95960048  0.58746084  1
  Na  Na3  1  0.03926749  0.33921366  0.09051944  1
  Na  Na4  1  0.32275949  0.29222744  0.92325925  1
  Na  Na5  1  0.70601241  0.67398355  0.42111967  1
  Na  Na6  1  0.02477963  0.99271968  0.49999285  1
  Na  Na7  1  0.01520606  0.98179166  0.00276463  1
  Na  Na8  1  0.69351575  0.32169263  0.83204416  1
  Na  Na9  1  0.67294370  0.31402284  0.33644184  1
  Na  Na10  1  0.34901139  0.65493760  0.16957045  1
  Na  Na11  1  0.33869667  0.64784135  0.66550802  1
  Ti  Ti0  1  0.97843449  0.99330041  0.35345374  1
  Ti  Ti1  1  0.99878416  0.00258555  0.64471232  1
  Ti  Ti2  1  0.00021023  0.00011322  0.14762645  1
  Ti  Ti3  1  0.64669367  0.32587722  0.68535649  1
  Ti  Ti4  1  0.66544163  0.33457485  0.47874658  1
  Ti  Ti5  1  0.33132489  0.66867225  0.31322685  1
  Si  Si0  1  0.70356716  0.71530811  0.25117773  1
  Si  Si1  1  -0.00010660  0.28784345  0.24893487  1
  Si  Si2  1  0.28874176  0.29441333  0.74812563  1
  Si  Si3  1  0.71113565  0.00411836  0.74658969  1
  Si  Si4  1  0.37181323  0.04802947  0.58290922  1
  Si  Si5  1  0.66706576  0.62060630  0.58119516  1
  Si  Si6  1  0.95726909  0.63137278  0.08562312  1
  Si  Si7  1  0.37272750  0.33275351  0.08295189  1
  Si  Si8  1  0.03564591  0.37378930  0.91658294  1
  Si  Si9  1  0.33366195  0.95984112  0.91364095  1
  Si  Si10  1  0.61990520  0.96172627  0.41665948  1
  Si  Si11  1  0.04283639  0.66912124  0.41513501  1
  Sn  Sn0  1  0.00596257  0.01198727  0.85136997  1
  Sn  Sn1  1  0.66910903  0.34472083  0.18926215  1
  Sn  Sn2  1  0.66530892  0.33278596  0.98087545  1
  Sn  Sn3  1  0.31883325  0.66210332  0.02001054  1
  Sn  Sn4  1  0.33802068  0.67731315  0.51986085  1
  Sn  Sn5  1  0.33208109  0.66791490  0.81029756  1
  S  S0  1  0.28830393  0.00216512  0.25102054  1
  S  S1  1  0.99070517  0.70782760  0.74744428  1
  S  S2  1  0.95418865  0.33589690  0.58306545  1
  S  S3  1  0.66535222  0.03559170  0.08558802  1
  S  S4  1  0.62799850  0.67189946  0.91663991  1
  S  S5  1  0.32833782  0.37385092  0.41592982  1
  O  O0  1  0.20781481  0.02132313  0.30471717  1
  O  O1  1  0.82377669  0.80209442  0.31103926  1
  O  O2  1  0.98752385  0.16458564  0.30513983  1
  O  O3  1  0.22989367  0.17784837  0.80968823  1
  O  O4  1  0.96672933  0.77969668  0.80438852  1
  O  O5  1  0.81899536  0.02205091  0.80721114  1
  O  O6  1  0.80488963  0.97971588  0.68706385  1
  O  O7  1  0.15908258  0.17812571  0.69397619  1
  O  O8  1  0.01153710  0.81991726  0.69612608  1
  O  O9  1  0.81722712  0.83741447  0.19478187  1
  O  O10  1  0.02421535  0.20220865  0.18768547  1
  O  O11  1  0.18632884  0.98298442  0.19612305  1
  O  O12  1  0.87446998  0.35479259  0.63730822  1
  O  O13  1  0.49150783  0.13368543  0.64315548  1
  O  O14  1  0.65404226  0.49769357  0.63758646  1
  O  O15  1  0.88648996  0.50440993  0.14486611  1
  O  O16  1  0.63617481  0.11404676  0.13883100  1
  O  O17  1  0.49011729  0.35418743  0.14096043  1
  O  O18  1  0.44613418  0.29761616  0.02035244  1
  O  O19  1  0.83702494  0.54025349  0.02726035  1
  O  O20  1  0.69750026  0.14513685  0.03110805  1
  O  O21  1  0.48527412  0.17146395  0.52644062  1
  O  O22  1  0.69070132  0.53316386  0.51992641  1
  O  O23  1  0.85104615  0.31626712  0.52870289  1
  O  O24  1  0.55002843  0.69547397  0.97107795  1
  O  O25  1  0.15499089  0.44385155  0.97720518  1
  O  O26  1  0.32199576  0.85092176  0.97311504  1
  O  O27  1  0.56188146  0.83925716  0.47723612  1
  O  O28  1  0.29870919  0.44555526  0.47201255  1
  O  O29  1  0.15876392  0.69766165  0.47483675  1
  O  O30  1  0.13517667  0.64158935  0.35551661  1
  O  O31  1  0.48947032  0.84820045  0.36210171  1
  O  O32  1  0.35426015  0.48811942  0.36435652  1
  O  O33  1  0.13351819  0.49177275  0.85822676  1
  O  O34  1  0.36544003  0.88480558  0.85094172  1
  O  O35  1  0.52170105  0.64660788  0.86246548  1
  O  O36  1  0.02044891  0.84121662  0.40819078  1
  O  O37  1  0.81420237  0.98461536  0.40661524  1
  O  O38  1  0.18157454  0.19748765  0.40902585  1
  O  O39  1  0.01831653  0.18098573  0.91326753  1
  O  O40  1  0.15163423  0.96690518  0.91183329  1
  O  O41  1  0.80416731  0.82155631  0.91130482  1
  O  O42  1  0.96545719  0.17283118  0.58540017  1
  O  O43  1  0.18170230  0.03029210  0.58825827  1
  O  O44  1  0.83354448  0.81855104  0.58910318  1
  O  O45  1  0.97757812  0.82285895  0.09380731  1
  O  O46  1  0.82586718  0.02473972  0.09064203  1
  O  O47  1  0.17381623  0.16796152  0.09061040  1
  O  O48  1  0.69292425  0.17858666  0.74062531  1
  O  O49  1  0.48264622  0.31667566  0.73882738  1
  O  O50  1  0.84471390  0.53137096  0.74173715  1
  O  O51  1  0.69544406  0.52564085  0.25057211  1
  O  O52  1  0.82018644  0.30052279  0.24859403  1
  O  O53  1  0.46657613  0.15337815  0.24674162  1
  O  O54  1  0.63701877  0.50942188  0.91959836  1
  O  O55  1  0.84662980  0.35955671  0.92114236  1
  O  O56  1  0.49562712  0.16245642  0.91794780  1
  O  O57  1  0.63653283  0.15116503  0.42330710  1
  O  O58  1  0.49327761  0.36815292  0.42007264  1
  O  O59  1  0.84433964  0.49964982  0.42170363  1
  O  O60  1  0.35880844  0.51149541  0.08005710  1
  O  O61  1  0.15105127  0.65144029  0.08204821  1
  O  O62  1  0.51641832  0.85978854  0.07906741  1
  O  O63  1  0.36484522  0.85915025  0.58136935  1
  O  O64  1  0.48764186  0.63341396  0.58030893  1
  O  O65  1  0.13246249  0.48774630  0.57889785  1
  O  O66  1  0.29883313  0.83875120  0.25323742  1
  O  O67  1  0.51360539  0.69762383  0.25661268  1
  O  O68  1  0.16653677  0.48581746  0.25723955  1
  O  O69  1  0.30083351  0.48253289  0.75035115  1
  O  O70  1  0.15800631  0.70508689  0.74896485  1
  O  O71  1  0.50985737  0.83590872  0.74843733  1
loop_
_geom_bond_atom_site_label_1
_geom_bond_atom_site_label_2
_geom_bond_distance
_geom_bond_site_symmetry_2
Na0 O51 2.374471 1_555
Na0 O66 2.387241 1_655
Na0 O68 2.391398 1_655
Na0 O52 2.516953 1_555
Na0 O30 2.555058 1_655
Na0 O15 2.665333 1_555
Na1 O71 2.402426 1_545
Na1 O49 2.406181 1_555
Na1 O34 2.426420 1_545
Na1 O70 2.431363 1_545
Na1 O48 2.470365 1_555
Na1 O13 2.702991 1_555
Na1 O3 2.707760 1_555
Na2 O63 2.354169 1_555
Na2 O42 2.389857 1_565
Na2 O44 2.396628 1_555
Na2 O64 2.520068 1_555
Na2 O6 2.524616 1_555
Na2 O27 2.669110 1_555
Na3 O47 2.362078 1_555
Na3 O61 2.442797 1_555
Na3 O10 2.464938 1_555
Na3 O46 2.473026 1_455
Na3 O60 2.477996 1_555
Na3 O25 2.723265 1_554
Na3 O15 2.738699 1_455
Na3 O20 2.963011 1_455
Na4 O56 2.343803 1_555
Na4 O39 2.387696 1_555
Na4 O18 2.429237 1_556
Na4 O54 2.482892 1_555
Na4 O40 2.519887 1_545
Na4 O3 2.716246 1_555
Na4 O25 2.744994 1_555
Na5 O59 2.414644 1_555
Na5 O58 2.415079 1_555
Na5 O36 2.443812 1_655
Na5 O37 2.448791 1_555
Na5 O22 2.512787 1_555
Na5 O1 2.699015 1_555
Na5 O27 2.699111 1_555
Na6 O43 2.349848 1_565
Na6 O36 2.452655 1_555
Na6 O44 2.576928 1_455
Na6 O38 2.620511 1_565
Na6 O42 2.715133 1_465
Na6 O37 2.788742 1_455
Na7 O45 2.406657 1_455
Na7 O40 2.411250 1_554
Na7 O47 2.508960 1_565
Na7 O39 2.664929 1_564
Na7 O41 2.666051 1_454
Na7 O46 2.742267 1_465
Na8 O55 2.347758 1_555
Na8 O48 2.414058 1_555
Na8 O56 2.512758 1_555
Na8 O50 2.619690 1_555
Na8 O54 2.783702 1_555
Na8 O49 2.796368 1_555
Na9 O57 2.348437 1_555
Na9 O52 2.402806 1_555
Na9 O59 2.491415 1_555
Na9 O53 2.618293 1_555
Na9 O51 2.626065 1_555
Na9 O58 2.661453 1_555
Na10 O67 2.356473 1_555
Na10 O60 2.405646 1_555
Na10 O68 2.512005 1_555
Na10 O61 2.628830 1_555
Na10 O62 2.631948 1_555
Na10 O66 2.671211 1_555
Na11 O69 2.320916 1_555
Na11 O64 2.365965 1_555
Na11 O71 2.458787 1_555
Na11 O65 2.563830 1_555
Na11 O63 2.586839 1_555
Na11 O70 2.678546 1_555
O0 S0 1.454625 1_555
O0 Ti0 2.218051 1_445
O1 Si0 1.650317 1_555
O1 Ti0 1.832640 1_555
O2 Si1 1.635641 1_655
O2 Ti0 1.835597 1_545
O3 Si2 1.644805 1_555
O3 Sn0 2.019524 1_555
O4 S1 1.491625 1_555
O4 Sn0 2.187669 1_665
O5 Si3 1.626511 1_555
O5 Sn0 1.977841 1_655
O6 Si3 1.645800 1_565
O6 Ti1 1.890331 1_565
O7 Si2 1.640100 1_555
O7 Ti1 1.864215 1_455
O8 S1 1.470485 1_455
O8 Ti1 2.038801 1_465
O9 Si0 1.642436 1_555
O9 Ti2 1.871396 1_665
O10 Si1 1.638019 1_555
O10 Ti2 1.924717 1_555
O11 S0 1.488878 1_565
O11 Ti2 2.051174 1_565
O12 S2 1.460197 1_555
O12 Ti3 2.195346 1_555
O13 Si4 1.654027 1_555
O13 Ti3 1.836363 1_555
O14 Si5 1.635372 1_555
O14 Ti3 1.838107 1_555
O15 Si6 1.648789 1_555
O15 Sn1 1.999985 1_555
O16 S3 1.471349 1_555
O16 Sn1 2.231684 1_555
O17 Si7 1.620154 1_555
O17 Sn1 1.963994 1_555
O18 Si7 1.643777 1_555
O18 Sn2 2.019960 1_554
O19 Si6 1.629294 1_555
O19 Sn2 2.003033 1_554
O20 S3 1.496442 1_555
O20 Sn2 2.146024 1_554
O21 Si4 1.647373 1_555
O21 Ti4 1.867518 1_555
O22 Si5 1.644764 1_555
O22 Ti4 1.905570 1_555
O23 S2 1.484016 1_555
O23 Ti4 2.069863 1_555
O24 S4 1.470779 1_555
O24 Sn3 2.217985 1_556
O25 Si8 1.645918 1_555
O25 Sn3 1.998484 1_556
O26 Si9 1.619121 1_555
O26 Sn3 1.967324 1_556
O27 Si10 1.651971 1_555
O27 Sn4 2.021094 1_555
O28 S5 1.493260 1_555
O28 Sn4 2.192845 1_555
O29 Si11 1.632120 1_555
O29 Sn4 1.972511 1_555
O30 Si11 1.651214 1_555
O30 Ti5 1.894045 1_555
O31 Si10 1.642984 1_555
O31 Ti5 1.869147 1_555
O32 S5 1.477696 1_555
O32 Ti5 2.062476 1_555
O33 Si8 1.628575 1_555
O33 Sn5 1.989451 1_555
O34 Si9 1.641776 1_555
O34 Sn5 2.018111 1_555
O35 S4 1.487372 1_555
O35 Sn5 2.139542 1_555
O36 Si11 1.646009 1_555
O36 Ti0 1.993649 1_455
O37 Si10 1.653674 1_555
O37 Ti0 1.858266 1_555
O38 S5 1.463883 1_555
O38 Ti0 2.202153 1_445
O39 Si8 1.644347 1_555
O39 Sn0 2.010214 1_555
O40 Si9 1.654153 1_555
O40 Sn0 2.049859 1_565
O41 S4 1.469120 1_555
O41 Sn0 2.202210 1_665
O42 S2 1.503329 1_555
O42 Ti1 2.142351 1_555
O43 Si4 1.624635 1_555
O43 Ti1 1.978517 1_455
O44 Si5 1.649063 1_555
O44 Ti1 2.000196 1_565
O45 Si6 1.630448 1_555
O45 Ti2 1.916277 1_665
O46 S3 1.484684 1_555
O46 Ti2 2.105427 1_655
O47 Si7 1.648650 1_555
O47 Ti2 1.984018 1_555
O48 Si3 1.643526 1_555
O48 Ti3 1.988358 1_555
O49 Si2 1.650278 1_555
O49 Ti3 1.859853 1_555
O50 S1 1.459292 1_555
O50 Ti3 2.199289 1_555
O51 Si0 1.651437 1_555
O51 Sn1 2.041050 1_555
O52 Si1 1.659938 1_655
O52 Sn1 2.064848 1_555
O53 S0 1.484122 1_555
O53 Sn1 2.174983 1_555
O54 S4 1.487738 1_555
O54 Sn2 2.192080 1_555
O55 Si8 1.627194 1_655
O55 Sn2 2.018128 1_555
O56 Si9 1.654609 1_545
O56 Sn2 2.071547 1_555
O57 Si10 1.622562 1_545
O57 Ti4 1.964872 1_555
O58 S5 1.498023 1_555
O58 Ti4 2.151680 1_555
O59 Si11 1.659165 1_655
O59 Ti4 1.995477 1_555
O60 Si7 1.655818 1_555
O60 Sn3 2.050067 1_555
O61 Si6 1.646024 1_455
O61 Sn3 2.008721 1_555
O62 S3 1.466941 1_565
O62 Sn3 2.204348 1_555
O63 Si4 1.649614 1_565
O63 Sn4 2.048813 1_555
O64 Si5 1.658152 1_555
O64 Sn4 2.070115 1_555
O65 S2 1.486084 1_455
O65 Sn4 2.202080 1_555
O66 S0 1.502729 1_565
O66 Ti5 2.147017 1_555
O67 Si0 1.623658 1_555
O67 Ti5 1.973347 1_555
O68 Si1 1.650764 1_555
O68 Ti5 1.999489 1_555
O69 Si2 1.622292 1_555
O69 Sn5 2.037886 1_555
O70 S1 1.502905 1_455
O70 Sn5 2.217485 1_555
O71 Si3 1.664622 1_565
O71 Sn5 2.070700 1_555
