# generated using pymatgen
data_Tl2PdCl4
_symmetry_space_group_name_H-M   'P 1'
_cell_length_a   4.20660064
_cell_length_b   7.16673235
_cell_length_c   7.16673235
_cell_angle_alpha   90.00000000
_cell_angle_beta   90.00000000
_cell_angle_gamma   90.00000000
_symmetry_Int_Tables_number   1
_chemical_formula_structural   Tl2PdCl4
_chemical_formula_sum   'Tl2 Pd1 Cl4'
_cell_volume   216.05964324
_cell_formula_units_Z   1
loop_
 _symmetry_equiv_pos_site_id
 _symmetry_equiv_pos_as_xyz
  1  'x, y, z'
loop_
 _atom_site_type_symbol
 _atom_site_label
 _atom_site_symmetry_multiplicity
 _atom_site_fract_x
 _atom_site_fract_y
 _atom_site_fract_z
 _atom_site_occupancy
  Tl  Tl0  1  0.50000000  0.50000000  -0.00000000  1
  Tl  Tl1  1  0.50000000  -0.00000000  0.50000000  1
  Pd  Pd0  1  -0.00000000  0.00000000  -0.00000000  1
  Cl  Cl0  1  -0.00000000  0.77147643  0.77147643  1
  Cl  Cl1  1  0.00000000  0.22852357  0.77147643  1
  Cl  Cl2  1  -0.00000000  0.77147643  0.22852357  1
  Cl  Cl3  1  0.00000000  0.22852357  0.22852357  1
loop_
_geom_bond_atom_site_label_1
_geom_bond_atom_site_label_2
_geom_bond_distance
_geom_bond_site_symmetry_2
Cl0 Pd0 2.316153 1_566
Cl1 Pd0 2.316153 1_556
Cl2 Pd0 2.316153 1_565
Cl3 Pd0 2.316153 1_555
