# generated using pymatgen
data_MgMn3Zn2O8
_symmetry_space_group_name_H-M   'P 1'
_cell_length_a   5.75631993
_cell_length_b   5.69163908
_cell_length_c   5.74478354
_cell_angle_alpha   119.69446168
_cell_angle_beta   89.82371817
_cell_angle_gamma   90.00000436
_symmetry_Int_Tables_number   1
_chemical_formula_structural   MgMn3Zn2O8
_chemical_formula_sum   'Mg1 Mn3 Zn2 O8'
_cell_volume   163.49811322
_cell_formula_units_Z   1
loop_
 _symmetry_equiv_pos_site_id
 _symmetry_equiv_pos_as_xyz
  1  'x, y, z'
loop_
 _atom_site_type_symbol
 _atom_site_label
 _atom_site_symmetry_multiplicity
 _atom_site_fract_x
 _atom_site_fract_y
 _atom_site_fract_z
 _atom_site_occupancy
  Mg  Mg0  1  0.79786396  0.30426174  0.60852249  1
  Mn  Mn0  1  0.50123764  0.99828840  0.99657981  1
  Mn  Mn1  1  0.04049082  0.78517904  0.07099653  1
  Mn  Mn2  1  0.04049082  0.28581849  0.07099653  1
  Zn  Zn0  1  0.56530426  0.70358861  0.40717621  1
  Zn  Zn1  1  0.36195597  0.29028483  0.58056965  1
  O  O0  1  0.08823966  0.39811054  0.79622309  1
  O  O1  1  0.89843340  0.63190452  0.26381003  1
  O  O2  1  0.18070762  0.93159121  0.86318142  1
  O  O3  1  0.82179410  0.10229713  0.20459427  1
  O  O4  1  0.37312065  0.35471160  0.24925634  1
  O  O5  1  0.37312065  0.89454475  0.24925634  1
  O  O6  1  0.59945223  0.10543289  0.73608514  1
  O  O7  1  0.59945223  0.63065125  0.73608514  1
loop_
_geom_bond_atom_site_label_1
_geom_bond_atom_site_label_2
_geom_bond_distance
_geom_bond_site_symmetry_2
Mg0 O0 1.918955 1_655
Mg0 O7 1.984584 1_555
Mg0 O6 1.984593 1_555
Mg0 O3 2.019968 1_555
Mn0 O7 1.957014 1_555
Mn0 O6 1.957022 1_565
Mn0 O5 1.960151 1_556
Mn0 O4 1.960163 1_566
Mn0 O2 1.963712 1_555
Mn0 O3 2.120381 1_566
Mn1 O1 1.899597 1_455
Mn1 O2 1.936728 1_554
Mn1 O0 1.993150 1_554
Mn1 O3 2.013254 1_465
Mn1 O5 2.117276 1_555
Mn2 O1 1.899589 1_455
Mn2 O2 1.936727 1_544
Mn2 O0 1.993139 1_554
Mn2 O3 2.013258 1_455
Mn2 O4 2.117276 1_555
O0 Zn1 1.904912 1_555
O1 Zn0 2.044342 1_555
O4 Zn0 2.052122 1_555
O4 Zn1 2.109967 1_555
O5 Zn0 2.052118 1_555
O5 Zn1 2.109967 1_565
O6 Zn0 2.135561 1_545
O6 Zn1 2.170912 1_555
O7 Zn0 2.135568 1_555
O7 Zn1 2.170908 1_555
