# generated using pymatgen
data_K4Cu8Te11
_symmetry_space_group_name_H-M   'P 1'
_cell_length_a   12.65838460
_cell_length_b   12.65838460
_cell_length_c   18.60876035
_cell_angle_alpha   57.04783826
_cell_angle_beta   57.04783826
_cell_angle_gamma   31.37159771
_symmetry_Int_Tables_number   1
_chemical_formula_structural   K4Cu8Te11
_chemical_formula_sum   'K8 Cu16 Te22'
_cell_volume   1280.78491338
_cell_formula_units_Z   2
loop_
 _symmetry_equiv_pos_site_id
 _symmetry_equiv_pos_as_xyz
  1  'x, y, z'
loop_
 _atom_site_type_symbol
 _atom_site_label
 _atom_site_symmetry_multiplicity
 _atom_site_fract_x
 _atom_site_fract_y
 _atom_site_fract_z
 _atom_site_occupancy
  K  K0  1  0.24995600  0.24995600  0.08799300  1
  K  K1  1  0.75004400  0.75004400  0.91200700  1
  K  K2  1  0.14587600  0.14587600  0.47281400  1
  K  K3  1  0.85412400  0.85412400  0.52718600  1
  K  K4  1  0.62555900  0.62555900  0.33201600  1
  K  K5  1  0.37444100  0.37444100  0.66798400  1
  K  K6  1  0.43624500  0.43624500  0.22250200  1
  K  K7  1  0.56375500  0.56375500  0.77749800  1
  Cu  Cu0  1  0.93588700  0.32022800  0.88218000  1
  Cu  Cu1  1  0.67977200  0.06411300  0.11782000  1
  Cu  Cu2  1  0.06411300  0.67977200  0.11782000  1
  Cu  Cu3  1  0.32022800  0.93588700  0.88218000  1
  Cu  Cu4  1  0.72864900  0.11388700  0.94242400  1
  Cu  Cu5  1  0.88611300  0.27135100  0.05757600  1
  Cu  Cu6  1  0.27135100  0.88611300  0.05757600  1
  Cu  Cu7  1  0.11388700  0.72864900  0.94242400  1
  Cu  Cu8  1  0.39390200  0.01424400  0.61228900  1
  Cu  Cu9  1  0.98575600  0.60609800  0.38771100  1
  Cu  Cu10  1  0.60609800  0.98575600  0.38771100  1
  Cu  Cu11  1  0.01424400  0.39390200  0.61228900  1
  Cu  Cu12  1  0.80373300  0.21063500  0.66353800  1
  Cu  Cu13  1  0.78936500  0.19626700  0.33646200  1
  Cu  Cu14  1  0.21063500  0.80373300  0.66353800  1
  Cu  Cu15  1  0.19626700  0.78936500  0.33646200  1
  Te  Te0  1  0.18749400  0.18749400  0.94323500  1
  Te  Te1  1  0.81250600  0.81250600  0.05676500  1
  Te  Te2  1  0.04258000  0.04258000  0.40539700  1
  Te  Te3  1  0.95742000  0.95742000  0.59460300  1
  Te  Te4  1  0.51686100  0.93723900  0.72634900  1
  Te  Te5  1  0.06276100  0.48313900  0.27365100  1
  Te  Te6  1  0.48313900  0.06276100  0.27365100  1
  Te  Te7  1  0.93723900  0.51686100  0.72634900  1
  Te  Te8  1  0.30122700  0.30122700  0.46815400  1
  Te  Te9  1  0.69877300  0.69877300  0.53184600  1
  Te  Te10  1  0.43208600  0.43208600  0.43807600  1
  Te  Te11  1  0.56791400  0.56791400  0.56192400  1
  Te  Te12  1  0.61537100  0.19744500  0.81914500  1
  Te  Te13  1  0.80255500  0.38462900  0.18085500  1
  Te  Te14  1  0.38462900  0.80255500  0.18085500  1
  Te  Te15  1  0.19744500  0.61537100  0.81914500  1
  Te  Te16  1  0.56711100  0.56711100  0.98096300  1
  Te  Te17  1  0.43288900  0.43288900  0.01903700  1
  Te  Te18  1  0.90970600  0.90970600  0.31138900  1
  Te  Te19  1  0.09029400  0.09029400  0.68861100  1
  Te  Te20  1  0.96390700  0.96390700  0.12491200  1
  Te  Te21  1  0.03609300  0.03609300  0.87508800  1
loop_
_geom_bond_atom_site_label_1
_geom_bond_atom_site_label_2
_geom_bond_distance
_geom_bond_site_symmetry_2
K0 Te1 3.656967 1_545
K0 Te1 3.656967 1_455
K0 Te13 3.746718 1_455
K0 Te14 3.746718 1_545
K0 Te0 3.769391 1_554
K0 Te17 3.881035 1_555
K0 Te6 4.062995 1_555
K0 Te5 4.062995 1_555
K1 Te0 3.656967 1_565
K1 Te0 3.656967 1_655
K1 Te12 3.746718 1_565
K1 Te15 3.746718 1_655
K1 Te1 3.769391 1_556
K1 Te16 3.881035 1_555
K1 Te4 4.062995 1_555
K1 Te7 4.062995 1_555
K2 Te2 3.388503 1_555
K2 Te19 3.437151 1_555
K2 Te5 3.525315 1_555
K2 Te6 3.525315 1_555
K2 Te8 3.738208 1_555
K2 Te3 3.804290 1_445
K2 Te11 3.809532 1_455
K2 Te11 3.809532 1_545
K2 Te9 4.022669 1_545
K2 Te9 4.022669 1_455
K3 Te3 3.388503 1_555
K3 Te18 3.437151 1_555
K3 Te4 3.525315 1_555
K3 Te7 3.525315 1_555
K3 Te9 3.738208 1_555
K3 Te2 3.804290 1_665
K3 Te10 3.809532 1_565
K3 Te10 3.809532 1_655
K3 Te8 4.022669 1_565
K3 Te8 4.022669 1_655
K4 Te14 3.611354 1_555
K4 Te13 3.611354 1_555
K4 Te11 3.672279 1_555
K4 Te6 3.689405 1_565
K4 Te5 3.689405 1_655
K4 Te2 3.814050 1_655
K4 Te2 3.814050 1_565
K4 Te10 3.951765 1_555
K5 Te15 3.611354 1_555
K5 Te12 3.611354 1_555
K5 Te10 3.672279 1_555
K5 Te4 3.689405 1_545
K5 Te7 3.689405 1_455
K5 Te3 3.814050 1_455
K5 Te3 3.814050 1_545
K5 Te11 3.951765 1_555
K6 Te18 3.695650 1_545
K6 Te18 3.695650 1_455
K6 Te14 3.741167 1_555
K6 Te13 3.741167 1_555
K6 Te20 3.752524 1_545
K6 Te20 3.752524 1_455
K6 Te16 3.765215 1_554
K6 Te6 3.812687 1_555
K6 Te5 3.812687 1_555
K6 Te17 3.833040 1_555
K6 Te8 3.837705 1_555
K6 Te10 3.955177 1_555
K7 Te19 3.695650 1_655
K7 Te19 3.695650 1_565
K7 Te15 3.741167 1_555
K7 Te12 3.741167 1_555
K7 Te21 3.752524 1_655
K7 Te21 3.752524 1_565
K7 Te17 3.765215 1_556
K7 Te4 3.812687 1_555
K7 Te7 3.812687 1_555
K7 Te16 3.833040 1_555
K7 Te9 3.837705 1_555
K7 Te11 3.955177 1_555
Cu0 Te7 2.602174 1_555
Cu0 Te16 2.634326 1_555
Cu0 Te0 2.641891 1_655
Cu0 Te21 2.665767 1_655
Cu0 K7 3.760384 1_555
Cu1 Te6 2.602174 1_555
Cu1 Te17 2.634326 1_555
Cu1 Te1 2.641891 1_545
Cu1 Te20 2.665767 1_545
Cu1 K6 3.760384 1_555
Cu2 Te5 2.602174 1_555
Cu2 Te17 2.634326 1_555
Cu2 Te1 2.641891 1_455
Cu2 Te20 2.665767 1_455
Cu2 K6 3.760384 1_555
Cu3 Te4 2.602174 1_555
Cu3 Te16 2.634326 1_555
Cu3 Te0 2.641891 1_565
Cu3 Te21 2.665767 1_565
Cu3 K7 3.760384 1_555
Cu4 Te12 2.605114 1_555
Cu4 Te1 2.630494 1_546
Cu4 Te17 2.644917 1_556
Cu4 Te21 2.679288 1_655
Cu4 K7 3.723336 1_555
Cu5 Te13 2.605114 1_555
Cu5 Te0 2.630494 1_654
Cu5 Te16 2.644917 1_554
Cu5 Te20 2.679288 1_545
Cu5 K6 3.723336 1_555
Cu6 Te14 2.605114 1_555
Cu6 Te0 2.630494 1_564
Cu6 Te16 2.644917 1_554
Cu6 Te20 2.679288 1_455
Cu6 K6 3.723336 1_555
Cu7 Te15 2.605114 1_555
Cu7 Te1 2.630494 1_456
Cu7 Te17 2.644917 1_556
Cu7 Te21 2.679288 1_565
Cu7 K7 3.723336 1_555
Cu8 Te4 2.574921 1_545
Cu8 Te19 2.635460 1_555
Cu8 Te9 2.642588 1_545
Cu8 Te8 2.704248 1_555
Cu8 K7 3.711452 1_545
Cu8 K3 3.721104 1_545
Cu8 K2 3.820580 1_555
Cu9 Te5 2.574921 1_655
Cu9 Te18 2.635460 1_555
Cu9 Te8 2.642588 1_655
Cu9 Te9 2.704248 1_555
Cu9 K6 3.711452 1_655
Cu9 K2 3.721104 1_655
Cu9 K3 3.820580 1_555
Cu10 Te6 2.574921 1_565
Cu10 Cu9 2.598641 1_555
Cu10 Te18 2.635460 1_555
Cu10 Te8 2.642588 1_565
Cu10 Te9 2.704248 1_555
Cu10 K6 3.711452 1_565
Cu10 K2 3.721104 1_565
Cu10 K3 3.820580 1_555
Cu11 Te7 2.574921 1_455
Cu11 Cu8 2.598641 1_555
Cu11 Te19 2.635460 1_555
Cu11 Te9 2.642588 1_455
Cu11 Te8 2.704248 1_555
Cu11 K7 3.711452 1_455
Cu11 K3 3.721104 1_455
Cu11 K2 3.820580 1_555
Cu12 Te11 2.593052 1_555
Cu12 Te12 2.596285 1_555
Cu12 Te3 2.610400 1_545
Cu12 Te19 2.707108 1_655
Cu12 Cu14 2.785117 1_645
Cu12 K2 3.522246 1_655
Cu12 K7 3.717868 1_555
Cu12 K5 3.780565 1_555
Cu13 Te10 2.593052 1_555
Cu13 Te13 2.596285 1_555
Cu13 Te2 2.610400 1_655
Cu13 Te18 2.707108 1_545
Cu13 Cu15 2.785117 1_645
Cu13 K3 3.522246 1_545
Cu13 K6 3.717868 1_555
Cu13 K4 3.780565 1_555
Cu14 Te11 2.593052 1_555
Cu14 Te15 2.596285 1_555
Cu14 Te3 2.610400 1_455
Cu14 Te19 2.707108 1_565
Cu14 K2 3.522246 1_565
Cu14 K7 3.717868 1_555
Cu14 K5 3.780565 1_555
Cu15 Te10 2.593052 1_555
Cu15 Te14 2.596285 1_555
Cu15 Te2 2.610400 1_565
Cu15 Te18 2.707108 1_455
Cu15 K3 3.522246 1_455
Cu15 K6 3.717868 1_555
Cu15 K4 3.780565 1_555
Te2 Te3 2.906390 1_445
Te4 Te7 2.877356 1_555
Te5 Te6 2.877356 1_555
Te12 Te15 2.860573 1_555
Te13 Te14 2.860573 1_555
Te16 Te17 2.930135 1_556
Te18 Te20 2.933738 1_555
Te19 Te21 2.933738 1_555
