# generated using pymatgen
data_TaBe2
_symmetry_space_group_name_H-M   'P 1'
_cell_length_a   4.60448905
_cell_length_b   4.60448914
_cell_length_c   4.60448960
_cell_angle_alpha   60.00000399
_cell_angle_beta   60.00000335
_cell_angle_gamma   60.00001145
_symmetry_Int_Tables_number   1
_chemical_formula_structural   TaBe2
_chemical_formula_sum   'Ta2 Be4'
_cell_volume   69.02866224
_cell_formula_units_Z   2
loop_
 _symmetry_equiv_pos_site_id
 _symmetry_equiv_pos_as_xyz
  1  'x, y, z'
loop_
 _atom_site_type_symbol
 _atom_site_label
 _atom_site_symmetry_multiplicity
 _atom_site_fract_x
 _atom_site_fract_y
 _atom_site_fract_z
 _atom_site_occupancy
  Ta  Ta0  1  0.87500000  0.87500000  0.87500000  1
  Ta  Ta1  1  0.12500000  0.12500000  0.12500000  1
  Be  Be0  1  0.50000000  0.50000000  0.50000000  1
  Be  Be1  1  0.50000000  0.50000000  -0.00000000  1
  Be  Be2  1  0.00000000  0.50000000  0.50000000  1
  Be  Be3  1  0.50000000  -0.00000000  0.50000000  1
loop_
_geom_bond_atom_site_label_1
_geom_bond_atom_site_label_2
_geom_bond_distance
_geom_bond_site_symmetry_2
Ta0 Ta1 2.819662 1_666
Ta0 Ta1 2.819662 1_566
Ta0 Ta1 2.819663 1_656
Ta0 Ta1 2.819663 1_665
Be0 Be2 2.302245 1_555
Be0 Be2 2.302245 1_655
Be0 Be3 2.302245 1_565
Be0 Be3 2.302245 1_555
Be0 Be1 2.302245 1_555
Be0 Be1 2.302245 1_556
Be0 Ta0 2.699621 1_554
Be0 Ta1 2.699621 1_556
Be0 Ta0 2.699621 1_455
Be0 Ta1 2.699621 1_655
Be0 Ta1 2.699621 1_565
Be0 Ta0 2.699621 1_545
Be1 Be2 2.302245 1_555
Be1 Be2 2.302245 1_654
Be1 Be3 2.302245 1_564
Be1 Be3 2.302245 1_555
Be1 Ta0 2.699621 1_554
Be1 Ta1 2.699621 1_555
Be1 Ta1 2.699621 1_655
Be1 Ta0 2.699621 1_454
Be1 Ta0 2.699621 1_544
Be1 Ta1 2.699621 1_565
Be2 Be3 2.302245 1_555
Be2 Be3 2.302245 1_465
Be2 Ta1 2.699621 1_565
Be2 Ta0 2.699621 1_445
Be2 Ta1 2.699621 1_555
Be2 Ta0 2.699621 1_455
Be2 Ta0 2.699621 1_454
Be2 Ta1 2.699621 1_556
Be3 Ta0 2.699621 1_445
Be3 Ta1 2.699621 1_655
Be3 Ta0 2.699621 1_545
Be3 Ta1 2.699621 1_555
Be3 Ta0 2.699621 1_544
Be3 Ta1 2.699621 1_556
