# generated using pymatgen
data_LaHfP(SO6)2
_symmetry_space_group_name_H-M   'P 1'
_cell_length_a   9.31001948
_cell_length_b   9.31598730
_cell_length_c   23.20430903
_cell_angle_alpha   90.02144852
_cell_angle_beta   90.00000000
_cell_angle_gamma   119.97881138
_symmetry_Int_Tables_number   1
_chemical_formula_structural   LaHfP(SO6)2
_chemical_formula_sum   'La6 Hf6 P6 S12 O72'
_cell_volume   1743.29705413
_cell_formula_units_Z   6
loop_
 _symmetry_equiv_pos_site_id
 _symmetry_equiv_pos_as_xyz
  1  'x, y, z'
loop_
 _atom_site_type_symbol
 _atom_site_label
 _atom_site_symmetry_multiplicity
 _atom_site_fract_x
 _atom_site_fract_y
 _atom_site_fract_z
 _atom_site_occupancy
  La  La0  1  0.00217814  0.00151456  0.36502853  1
  La  La1  1  0.99933642  0.00151456  0.86502853  1
  La  La2  1  0.67862645  0.33852397  0.69819631  1
  La  La3  1  0.65989852  0.33852397  0.19819631  1
  La  La4  1  0.32782030  0.65255909  0.03129180  1
  La  La5  1  0.32473780  0.65255909  0.53129180  1
  Hf  Hf0  1  0.00007569  0.00011723  0.64600569  1
  Hf  Hf1  1  0.00004154  0.00011723  0.14600569  1
  Hf  Hf2  1  0.66440173  0.33134111  0.97979538  1
  Hf  Hf3  1  0.66694038  0.33134111  0.47979538  1
  Hf  Hf4  1  0.34619694  0.66332258  0.31255734  1
  Hf  Hf5  1  0.31712464  0.66332258  0.81255734  1
  P  P0  1  0.70748187  0.73796248  0.24992049  1
  P  P1  1  0.03048061  0.73796248  0.74992049  1
  P  P2  1  0.92985972  0.29598667  0.58267815  1
  P  P3  1  0.36612796  0.29598667  0.08267815  1
  P  P4  1  0.02998142  0.39833480  0.91614459  1
  P  P5  1  0.36835238  0.39833480  0.41614459  1
  S  S0  1  0.26763128  0.96223088  0.24955801  1
  S  S1  1  0.03282160  0.30233762  0.24864928  1
  S  S2  1  0.26951602  0.30233762  0.74864928  1
  S  S3  1  0.69459960  0.96223088  0.74955801  1
  S  S4  1  0.36600405  0.06446112  0.58302205  1
  S  S5  1  0.70006549  0.63547072  0.58264643  1
  S  S6  1  0.93540624  0.63547072  0.08264643  1
  S  S7  1  0.69845807  0.06446112  0.08302205  1
  S  S8  1  0.60140448  0.63345643  0.91600643  1
  S  S9  1  0.36694777  0.96686461  0.91673022  1
  S  S10  1  0.59991584  0.96686461  0.41673022  1
  S  S11  1  0.03205095  0.63345643  0.41600643  1
  O  O0  1  0.20287198  0.00148598  0.30089573  1
  O  O1  1  0.81153576  0.81175084  0.30358996  1
  O  O2  1  0.99665689  0.20134730  0.30042484  1
  O  O3  1  0.20469041  0.20134730  0.80042484  1
  O  O4  1  0.00021508  0.81175084  0.80358996  1
  O  O5  1  0.79861400  0.00148598  0.80089573  1
  O  O6  1  0.78396248  0.94412435  0.69822953  1
  O  O7  1  0.15870190  0.21485585  0.69780653  1
  O  O8  1  0.05202487  0.85160248  0.69669430  1
  O  O9  1  0.79957761  0.85160248  0.19669430  1
  O  O10  1  0.05615396  0.21485585  0.19780653  1
  O  O11  1  0.16016187  0.94412435  0.19822953  1
  O  O12  1  0.85825348  0.33202026  0.63611504  1
  O  O13  1  0.46604090  0.13282392  0.63497460  1
  O  O14  1  0.65960375  0.53228983  0.63420903  1
  O  O15  1  0.87268708  0.53228983  0.13420903  1
  O  O16  1  0.66678402  0.13282392  0.13497460  1
  O  O17  1  0.47376778  0.33202026  0.13611504  1
  O  O18  1  0.46157784  0.27635895  0.02982132  1
  O  O19  1  0.82666218  0.54704010  0.03179938  1
  O  O20  1  0.72143115  0.17433537  0.03193020  1
  O  O21  1  0.45290522  0.17433537  0.53193020  1
  O  O22  1  0.72037892  0.54704010  0.53179938  1
  O  O23  1  0.81478211  0.27635895  0.52982132  1
  O  O24  1  0.53690271  0.67076896  0.96804926  1
  O  O25  1  0.14052933  0.47079553  0.96876437  1
  O  O26  1  0.33577736  0.86646662  0.96842743  1
  O  O27  1  0.53068826  0.86646662  0.46842743  1
  O  O28  1  0.33026519  0.47079553  0.46876437  1
  O  O29  1  0.13386525  0.67076896  0.46804926  1
  O  O30  1  0.11894867  0.61354865  0.36512938  1
  O  O31  1  0.49281539  0.87947335  0.36517738  1
  O  O32  1  0.39095244  0.51575745  0.36298044  1
  O  O33  1  0.12480401  0.51575745  0.86298044  1
  O  O34  1  0.38665696  0.87947335  0.86517738  1
  O  O35  1  0.49459898  0.61354865  0.86512938  1
  O  O36  1  0.99455695  0.76704006  0.40698099  1
  O  O37  1  0.76967793  0.00149711  0.40749139  1
  O  O38  1  0.22895486  0.22356268  0.40356670  1
  O  O39  1  0.99460782  0.22356268  0.90356670  1
  O  O40  1  0.23181918  0.00149711  0.90749139  1
  O  O41  1  0.77248310  0.76704006  0.90698099  1
  O  O42  1  0.93685215  0.13349407  0.59330153  1
  O  O43  1  0.20279821  0.05983803  0.59055491  1
  O  O44  1  0.86028512  0.79491604  0.59104336  1
  O  O45  1  0.93463092  0.79491604  0.09104336  1
  O  O46  1  0.85703982  0.05983803  0.09055491  1
  O  O47  1  0.19664193  0.13349407  0.09330153  1
  O  O48  1  0.65663350  0.09544893  0.73948320  1
  O  O49  1  0.43835884  0.33640842  0.73731367  1
  O  O50  1  0.88910260  0.56214635  0.73974912  1
  O  O51  1  0.67304475  0.56214635  0.23974912  1
  O  O52  1  0.89805058  0.33640842  0.23731367  1
  O  O53  1  0.43881643  0.09544893  0.23948320  1
  O  O54  1  0.60437182  0.47475686  0.92500224  1
  O  O55  1  0.86193391  0.39317485  0.92761504  1
  O  O56  1  0.52607992  0.12922909  0.92348743  1
  O  O57  1  0.60315018  0.12922909  0.42348743  1
  O  O58  1  0.53124193  0.39317485  0.42761504  1
  O  O59  1  0.87038604  0.47475686  0.42500224  1
  O  O60  1  0.33171852  0.43747197  0.07237105  1
  O  O61  1  0.10674450  0.67611548  0.07216037  1
  O  O62  1  0.56249131  0.89639415  0.07233791  1
  O  O63  1  0.33390183  0.89639415  0.57233791  1
  O  O64  1  0.56936998  0.67611548  0.57216037  1
  O  O65  1  0.10575245  0.43747197  0.57237105  1
  O  O66  1  0.26798426  0.80347912  0.25818267  1
  O  O67  1  0.53499744  0.72924970  0.25923698  1
  O  O68  1  0.19087807  0.46444740  0.25687202  1
  O  O69  1  0.27356833  0.46444740  0.75687202  1
  O  O70  1  0.19425127  0.72924970  0.75923698  1
  O  O71  1  0.53549387  0.80347912  0.75818267  1
loop_
_geom_bond_atom_site_label_1
_geom_bond_atom_site_label_2
_geom_bond_distance
_geom_bond_site_symmetry_2
La0 O1 2.273835 1_445
La0 O38 2.273839 1_555
La0 O36 2.360261 1_445
La0 O37 2.378218 1_455
La0 O0 2.388779 1_555
La0 O2 2.411082 1_455
La1 O4 2.273835 1_645
La1 O39 2.273839 1_555
La1 O41 2.360261 1_545
La1 O40 2.378218 1_655
La1 O5 2.388779 1_555
La1 O3 2.411082 1_655
La2 O12 2.230863 1_555
La2 O50 2.242396 1_555
La2 O48 2.371898 1_555
La2 O49 2.404985 1_555
La2 O14 2.411616 1_555
La2 O13 2.439079 1_555
La3 O17 2.230863 1_555
La3 O51 2.242396 1_555
La3 O53 2.371898 1_555
La3 O52 2.404985 1_555
La3 O15 2.411616 1_555
La3 O16 2.439079 1_555
La4 O60 2.235856 1_555
La4 O25 2.249513 1_554
La4 O61 2.373812 1_555
La4 O24 2.375208 1_554
La4 O62 2.424693 1_555
La4 O26 2.441127 1_554
La5 O65 2.235856 1_555
La5 O28 2.249513 1_555
La5 O64 2.373812 1_555
La5 O29 2.375208 1_555
La5 O63 2.424694 1_555
La5 O27 2.441127 1_555
Hf0 O42 2.029297 1_455
Hf0 O8 2.049765 1_545
Hf0 O43 2.116219 1_555
Hf0 O44 2.118156 1_445
Hf0 O7 2.161833 1_555
Hf0 O6 2.177254 1_445
Hf1 O47 2.029297 1_555
Hf1 O9 2.049765 1_445
Hf1 O46 2.116219 1_455
Hf1 O45 2.118156 1_445
Hf1 O10 2.161833 1_555
Hf1 O11 2.177254 1_545
Hf2 O55 2.030210 1_555
Hf2 O18 2.051675 1_556
Hf2 O54 2.112213 1_555
Hf2 O56 2.117957 1_555
Hf2 O20 2.159215 1_556
Hf2 O19 2.177307 1_556
Hf3 O58 2.030210 1_555
Hf3 O23 2.051675 1_555
Hf3 O59 2.112213 1_555
Hf3 O57 2.117957 1_555
Hf3 O21 2.159215 1_555
Hf3 O22 2.177307 1_555
Hf4 O67 1.979739 1_555
Hf4 O32 2.001520 1_555
Hf4 O68 2.124623 1_555
Hf4 O31 2.158751 1_555
Hf4 O66 2.185955 1_555
Hf4 O30 2.280200 1_555
Hf5 O70 1.979739 1_555
Hf5 O33 2.001520 1_555
Hf5 O69 2.124623 1_555
Hf5 O34 2.158751 1_555
Hf5 O71 2.185955 1_555
Hf5 O35 2.280200 1_555
O0 S0 1.461624 1_545
O1 P0 1.515186 1_555
O2 S1 1.458147 1_655
O3 S2 1.458147 1_555
O4 P1 1.515186 1_555
O5 S3 1.461624 1_545
O6 S3 1.509737 1_555
O7 S2 1.509780 1_555
O8 P1 1.573276 1_555
O9 P0 1.573276 1_555
O10 S1 1.509780 1_555
O11 S0 1.509737 1_555
O12 P2 1.522487 1_555
O13 S4 1.460463 1_555
O14 S5 1.461649 1_555
O15 S6 1.461649 1_555
O16 S7 1.460463 1_555
O17 P3 1.522487 1_555
O18 P3 1.577863 1_555
O19 S6 1.503832 1_555
O20 S7 1.510341 1_555
O21 S4 1.510341 1_555
O22 S5 1.503832 1_555
O23 P2 1.577863 1_555
O24 S8 1.465632 1_555
O25 P4 1.520154 1_555
O26 S9 1.458643 1_555
O27 S10 1.458643 1_555
O28 P5 1.520154 1_555
O29 S11 1.465632 1_555
O30 S11 1.494131 1_555
O31 S10 1.508662 1_555
O32 P5 1.591778 1_555
O33 P4 1.591778 1_555
O34 S9 1.508662 1_555
O35 S8 1.494131 1_555
O36 S11 1.465852 1_655
O37 S10 1.462345 1_545
O38 P5 1.519331 1_555
O39 P4 1.519334 1_655
O40 S9 1.462336 1_545
O41 S8 1.465858 1_555
O42 P2 1.566938 1_555
O43 S4 1.508556 1_555
O44 S5 1.501628 1_555
O45 S6 1.501633 1_555
O46 S7 1.508547 1_555
O47 P3 1.566943 1_555
O48 S3 1.469157 1_545
O49 S2 1.463674 1_555
O50 P1 1.521882 1_655
O51 P0 1.521885 1_555
O52 S1 1.463665 1_655
O53 S0 1.469163 1_545
O54 S8 1.507043 1_555
O55 P4 1.563888 1_655
O56 S9 1.505901 1_545
O57 S10 1.505892 1_545
O58 P5 1.563906 1_555
O59 S11 1.507034 1_655
O60 P3 1.522946 1_555
O61 S6 1.464096 1_455
O62 S7 1.460930 1_565
O63 S4 1.460923 1_565
O64 S5 1.464114 1_555
O65 P2 1.522934 1_455
O66 S0 1.494113 1_555
O67 P0 1.581701 1_555
O68 S1 1.503796 1_555
O69 S2 1.503801 1_555
O70 P1 1.581692 1_555
O71 S3 1.494117 1_555
