# generated using pymatgen
data_Ca5(AlBi3)2
_symmetry_space_group_name_H-M   'P 1'
_cell_length_a   4.58792200
_cell_length_b   7.58767300
_cell_length_c   23.58029300
_cell_angle_alpha   90.00000000
_cell_angle_beta   90.00000000
_cell_angle_gamma   90.00000000
_symmetry_Int_Tables_number   1
_chemical_formula_structural   Ca5(AlBi3)2
_chemical_formula_sum   'Ca10 Al4 Bi12'
_cell_volume   820.86895127
_cell_formula_units_Z   2
loop_
 _symmetry_equiv_pos_site_id
 _symmetry_equiv_pos_as_xyz
  1  'x, y, z'
loop_
 _atom_site_type_symbol
 _atom_site_label
 _atom_site_symmetry_multiplicity
 _atom_site_fract_x
 _atom_site_fract_y
 _atom_site_fract_z
 _atom_site_occupancy
  Ca  Ca0  1  0.00000000  0.53473000  0.41137100  1
  Ca  Ca1  1  0.00000000  0.46527000  0.58862900  1
  Ca  Ca2  1  0.00000000  0.03473000  0.08862900  1
  Ca  Ca3  1  0.00000000  0.96527000  0.91137100  1
  Ca  Ca4  1  0.00000000  0.27080100  0.75516700  1
  Ca  Ca5  1  0.00000000  0.72919900  0.24483300  1
  Ca  Ca6  1  0.00000000  0.77080100  0.74483300  1
  Ca  Ca7  1  0.00000000  0.22919900  0.25516700  1
  Ca  Ca8  1  0.00000000  0.50000000  0.00000000  1
  Ca  Ca9  1  0.00000000  0.00000000  0.50000000  1
  Al  Al0  1  0.50000000  0.81765600  0.62081900  1
  Al  Al1  1  0.50000000  0.18234400  0.37918100  1
  Al  Al2  1  0.50000000  0.31765600  0.87918100  1
  Al  Al3  1  0.50000000  0.68234400  0.12081900  1
  Bi  Bi0  1  0.00000000  0.03666800  0.63621500  1
  Bi  Bi1  1  0.00000000  0.96333200  0.36378500  1
  Bi  Bi2  1  0.00000000  0.53666800  0.86378500  1
  Bi  Bi3  1  0.00000000  0.46333200  0.13621500  1
  Bi  Bi4  1  0.50000000  0.98933900  0.18833500  1
  Bi  Bi5  1  0.50000000  0.01066100  0.81166500  1
  Bi  Bi6  1  0.50000000  0.48933900  0.31166500  1
  Bi  Bi7  1  0.50000000  0.51066100  0.68833500  1
  Bi  Bi8  1  0.50000000  0.79328900  0.00252600  1
  Bi  Bi9  1  0.50000000  0.20671100  0.99747400  1
  Bi  Bi10  1  0.50000000  0.29328900  0.49747400  1
  Bi  Bi11  1  0.50000000  0.70671100  0.50252600  1
loop_
_geom_bond_atom_site_label_1
_geom_bond_atom_site_label_2
_geom_bond_distance
_geom_bond_site_symmetry_2
Al0 Bi7 2.821456 1_555
Al0 Bi0 2.855802 1_665
Al0 Bi0 2.855802 1_565
Al0 Bi11 2.913642 1_555
Al0 Ca1 3.603826 1_655
Al0 Ca1 3.603826 1_555
Al1 Bi6 2.821456 1_555
Al1 Bi1 2.855802 1_545
Al1 Bi1 2.855802 1_645
Al1 Bi10 2.913642 1_555
Al1 Ca0 3.603826 1_655
Al1 Ca0 3.603826 1_555
Al2 Bi5 2.821456 1_555
Al2 Bi2 2.855802 1_555
Al2 Bi2 2.855802 1_655
Al2 Bi9 2.913642 1_555
Al2 Ca3 3.603826 1_645
Al2 Ca3 3.603826 1_545
Al3 Bi4 2.821456 1_555
Al3 Bi3 2.855802 1_655
Al3 Bi3 2.855802 1_555
Al3 Bi8 2.913642 1_555
Al3 Ca2 3.603826 1_665
Al3 Ca2 3.603826 1_565
Bi0 Ca9 3.224017 1_555
Bi0 Ca6 3.260294 1_545
Bi0 Ca4 3.320186 1_555
Bi0 Ca1 3.440231 1_555
Bi1 Ca9 3.224017 1_565
Bi1 Ca7 3.260294 1_565
Bi1 Ca5 3.320186 1_555
Bi1 Ca0 3.440231 1_555
Bi2 Ca8 3.224017 1_556
Bi2 Ca4 3.260294 1_555
Bi2 Ca6 3.320186 1_555
Bi2 Ca3 3.440231 1_555
Bi3 Ca8 3.224017 1_555
Bi3 Ca5 3.260294 1_555
Bi3 Ca7 3.320186 1_555
Bi3 Ca2 3.440231 1_555
Bi4 Ca2 3.302807 1_565
Bi4 Ca2 3.302807 1_665
Bi4 Ca5 3.306544 1_555
Bi4 Ca5 3.306544 1_655
Bi4 Ca7 3.325372 1_565
Bi4 Ca7 3.325372 1_665
Bi5 Ca3 3.302807 1_545
Bi5 Ca3 3.302807 1_645
Bi5 Ca4 3.306544 1_555
Bi5 Ca4 3.306544 1_655
Bi5 Ca6 3.325372 1_545
Bi5 Ca6 3.325372 1_645
Bi6 Ca0 3.302807 1_655
Bi6 Ca0 3.302807 1_555
Bi6 Ca7 3.306544 1_555
Bi6 Ca7 3.306544 1_655
Bi6 Ca5 3.325372 1_555
Bi6 Ca5 3.325372 1_655
Bi7 Ca1 3.302807 1_555
Bi7 Ca1 3.302807 1_655
Bi7 Ca6 3.306544 1_555
Bi7 Ca6 3.306544 1_655
Bi7 Ca4 3.325372 1_655
Bi7 Ca4 3.325372 1_555
Bi8 Bi9 3.139172 1_564
Bi8 Ca8 3.196580 1_655
Bi8 Ca8 3.196580 1_555
Bi8 Ca3 3.403718 1_654
Bi8 Ca3 3.403718 1_554
Bi8 Ca2 3.569404 1_665
Bi8 Ca2 3.569404 1_565
Bi9 Ca8 3.196580 1_656
Bi9 Ca8 3.196580 1_556
Bi9 Ca2 3.403718 1_556
Bi9 Ca2 3.403718 1_656
Bi9 Ca3 3.569404 1_545
Bi9 Ca3 3.569404 1_645
Bi10 Bi11 3.139172 1_555
Bi10 Ca9 3.196580 1_555
Bi10 Ca9 3.196580 1_655
Bi10 Ca1 3.403718 1_655
Bi10 Ca1 3.403718 1_555
Bi10 Ca0 3.569404 1_555
Bi10 Ca0 3.569404 1_655
Bi11 Ca9 3.196580 1_665
Bi11 Ca9 3.196580 1_565
Bi11 Ca0 3.403718 1_555
Bi11 Ca0 3.403718 1_655
Bi11 Ca1 3.569404 1_555
Bi11 Ca1 3.569404 1_655
