# generated using pymatgen
data_Na7Y2Sc2SiP5O24
_symmetry_space_group_name_H-M   'P 1'
_cell_length_a   9.25700699
_cell_length_b   9.24083485
_cell_length_c   22.82979558
_cell_angle_alpha   89.97452588
_cell_angle_beta   90.05671909
_cell_angle_gamma   119.99693117
_symmetry_Int_Tables_number   1
_chemical_formula_structural   Na7Y2Sc2SiP5O24
_chemical_formula_sum   'Na21 Y6 Sc6 Si3 P15 O72'
_cell_volume   1691.32734561
_cell_formula_units_Z   3
loop_
 _symmetry_equiv_pos_site_id
 _symmetry_equiv_pos_as_xyz
  1  'x, y, z'
loop_
 _atom_site_type_symbol
 _atom_site_label
 _atom_site_symmetry_multiplicity
 _atom_site_fract_x
 _atom_site_fract_y
 _atom_site_fract_z
 _atom_site_occupancy
  Na  Na0  1  0.36576476  0.36838672  0.25244673  1
  Na  Na1  1  0.00209027  0.63315305  0.24875734  1
  Na  Na2  1  0.63858073  0.64790611  0.74964526  1
  Na  Na3  1  0.99469145  0.35846851  0.75662918  1
  Na  Na4  1  0.36488448  0.99396600  0.74916969  1
  Na  Na5  1  0.30302408  0.32715628  0.57752395  1
  Na  Na6  1  0.03643712  0.69767201  0.57937794  1
  Na  Na7  1  0.65646691  0.96851997  0.58596873  1
  Na  Na8  1  0.30244292  0.96883427  0.08365594  1
  Na  Na9  1  0.67470931  0.69574618  0.08186987  1
  Na  Na10  1  0.02920117  0.34101641  0.08621194  1
  Na  Na11  1  0.96399944  0.66504338  0.92099347  1
  Na  Na12  1  0.70227004  0.03406100  0.91377150  1
  Na  Na13  1  0.96830503  0.29825497  0.41286303  1
  Na  Na14  1  0.33167513  0.03325580  0.41784359  1
  Na  Na15  1  0.99207999  0.98405150  0.49865155  1
  Na  Na16  1  0.01408298  0.00915389  0.00341888  1
  Na  Na17  1  0.65227524  0.32676499  0.83241217  1
  Na  Na18  1  0.66645051  0.33278645  0.33216048  1
  Na  Na19  1  0.34221206  0.68175167  0.16730299  1
  Na  Na20  1  0.34185801  0.68014436  0.66622438  1
  Y  Y0  1  0.00763721  0.00913638  0.85291222  1
  Y  Y1  1  0.99949286  0.00078488  0.65231449  1
  Y  Y2  1  0.66444872  0.32740895  0.67989390  1
  Y  Y3  1  0.67009589  0.32686402  0.18501851  1
  Y  Y4  1  0.66055432  0.33636708  0.98377586  1
  Y  Y5  1  0.66315079  0.33870374  0.47932815  1
  Sc  Sc0  1  0.99051223  0.99261033  0.35144344  1
  Sc  Sc1  1  0.99477247  0.99535000  0.15179023  1
  Sc  Sc2  1  0.33136938  0.66295770  0.01794237  1
  Sc  Sc3  1  0.33933095  0.67132982  0.51383205  1
  Sc  Sc4  1  0.34335396  0.67436910  0.31432013  1
  Sc  Sc5  1  0.33586504  0.66626830  0.81751756  1
  Si  Si0  1  0.69037648  0.99773276  0.75220309  1
  Si  Si1  1  0.35802354  0.02196155  0.58016774  1
  Si  Si2  1  0.97507900  0.64228324  0.08411996  1
  P  P0  1  0.28778620  0.99666863  0.25260692  1
  P  P1  1  0.70336576  0.70675175  0.24957937  1
  P  P2  1  0.00594160  0.29724627  0.25263546  1
  P  P3  1  0.30550200  0.30939046  0.74843048  1
  P  P4  1  0.00254583  0.69505057  0.75251799  1
  P  P5  1  0.97489683  0.33844990  0.57995329  1
  P  P6  1  0.66262493  0.63706383  0.58416029  1
  P  P7  1  0.66798758  0.02776384  0.08055132  1
  P  P8  1  0.36000850  0.33175377  0.08772927  1
  P  P9  1  0.62700112  0.66614336  0.91690845  1
  P  P10  1  0.03802298  0.37388655  0.91823076  1
  P  P11  1  0.33485370  0.95594653  0.91779841  1
  P  P12  1  0.63136183  0.95933207  0.41610771  1
  P  P13  1  0.32596238  0.36834570  0.41316040  1
  P  P14  1  0.04643705  0.67124210  0.41314236  1
  O  O0  1  0.19855697  0.01425328  0.30733063  1
  O  O1  1  0.81771582  0.80278535  0.30171416  1
  O  O2  1  0.99253847  0.19446307  0.30790804  1
  O  O3  1  0.21695656  0.18603514  0.79905225  1
  O  O4  1  0.98090543  0.78285460  0.80665250  1
  O  O5  1  0.81092124  0.02459541  0.80841140  1
  O  O6  1  0.77445043  0.97163844  0.69313245  1
  O  O7  1  0.20746451  0.23510278  0.69106673  1
  O  O8  1  0.03114787  0.80336046  0.69734205  1
  O  O9  1  0.78218750  0.80067530  0.19165429  1
  O  O10  1  0.01783385  0.20829583  0.19690374  1
  O  O11  1  0.18107931  0.97684435  0.19725927  1
  O  O12  1  0.89754836  0.36794385  0.63562555  1
  O  O13  1  0.46915309  0.10520075  0.63934879  1
  O  O14  1  0.64035447  0.54188146  0.64193647  1
  O  O15  1  0.88818016  0.51855036  0.14032269  1
  O  O16  1  0.62702172  0.11114154  0.13149366  1
  O  O17  1  0.46739975  0.36267361  0.14328582  1
  O  O18  1  0.44187876  0.29136853  0.03613843  1
  O  O19  1  0.85349569  0.55865976  0.02706154  1
  O  O20  1  0.69835684  0.13305793  0.02442536  1
  O  O21  1  0.45013804  0.14410189  0.52423908  1
  O  O22  1  0.69405302  0.54526193  0.53380418  1
  O  O23  1  0.86346451  0.31579430  0.52635832  1
  O  O24  1  0.53472007  0.67222827  0.97234059  1
  O  O25  1  0.13601874  0.46677863  0.97383364  1
  O  O26  1  0.32756562  0.85494040  0.97294398  1
  O  O27  1  0.55241245  0.86618739  0.47412641  1
  O  O28  1  0.31420332  0.45601499  0.46941681  1
  O  O29  1  0.15190653  0.69067616  0.46888503  1
  O  O30  1  0.13741896  0.65507661  0.35870118  1
  O  O31  1  0.51622358  0.86272622  0.36421830  1
  O  O32  1  0.33855585  0.47230400  0.35834842  1
  O  O33  1  0.12777286  0.47045876  0.86196933  1
  O  O34  1  0.34301034  0.86466119  0.86200438  1
  O  O35  1  0.53088779  0.66122872  0.86068555  1
  O  O36  1  0.03061174  0.83113081  0.41051584  1
  O  O37  1  0.81037132  0.98562740  0.41128560  1
  O  O38  1  0.16343020  0.19184840  0.41194147  1
  O  O39  1  0.01098217  0.19418869  0.91934358  1
  O  O40  1  0.17354067  0.96748012  0.91810998  1
  O  O41  1  0.80330188  0.82757077  0.91769848  1
  O  O42  1  0.98925285  0.17936666  0.58472822  1
  O  O43  1  0.17053184  0.99757898  0.58375221  1
  O  O44  1  0.81417764  0.81596874  0.58558506  1
  O  O45  1  0.99615787  0.82993256  0.09116251  1
  O  O46  1  0.82876259  0.01790117  0.09067075  1
  O  O47  1  0.18071820  0.18029069  0.09345368  1
  O  O48  1  0.67060891  0.16430570  0.74960485  1
  O  O49  1  0.48493821  0.33921064  0.74590972  1
  O  O50  1  0.84407886  0.52155789  0.74779649  1
  O  O51  1  0.68872774  0.53047805  0.24928279  1
  O  O52  1  0.85404518  0.32588081  0.25149408  1
  O  O53  1  0.46022712  0.15818222  0.24945802  1
  O  O54  1  0.65324665  0.51294427  0.91627483  1
  O  O55  1  0.86284110  0.36086615  0.91802400  1
  O  O56  1  0.49533892  0.12955241  0.91806420  1
  O  O57  1  0.64771384  0.13638764  0.41576896  1
  O  O58  1  0.47753165  0.33938420  0.41349943  1
  O  O59  1  0.87426896  0.50923223  0.41553698  1
  O  O60  1  0.34748516  0.49139943  0.07808876  1
  O  O61  1  0.16315735  0.66457415  0.07803786  1
  O  O62  1  0.51782282  0.84735464  0.07574350  1
  O  O63  1  0.34215748  0.83642580  0.57462346  1
  O  O64  1  0.50061912  0.64569554  0.57531585  1
  O  O65  1  0.15205647  0.49282341  0.57346556  1
  O  O66  1  0.30345751  0.83649981  0.25529787  1
  O  O67  1  0.52394233  0.67984397  0.25457793  1
  O  O68  1  0.16841635  0.47416934  0.25391198  1
  O  O69  1  0.31345568  0.47959646  0.75719158  1
  O  O70  1  0.15681824  0.67143985  0.75761401  1
  O  O71  1  0.50317814  0.83019846  0.75690405  1
loop_
_geom_bond_atom_site_label_1
_geom_bond_atom_site_label_2
_geom_bond_distance
_geom_bond_site_symmetry_2
Na0 O68 2.465733 1_555
Na0 O67 2.493207 1_555
Na0 O53 2.498222 1_555
Na0 O51 2.590284 1_555
Na0 O32 2.660083 1_555
Na0 O17 2.674519 1_555
Na1 O52 2.460400 1_455
Na1 O66 2.468549 1_555
Na1 O51 2.561842 1_455
Na1 O68 2.608474 1_555
Na1 O15 2.691151 1_455
Na1 O30 2.766031 1_555
Na2 O49 2.471974 1_555
Na2 O71 2.558922 1_555
Na2 O69 2.612873 1_555
Na2 O14 2.650478 1_555
Na2 O50 2.684170 1_555
Na2 O35 2.750156 1_555
Na2 O6 2.904032 1_555
Na3 O70 2.505424 1_655
Na3 O50 2.521110 1_555
Na3 O69 2.580238 1_655
Na3 O48 2.619586 1_555
Na3 O33 2.663404 1_655
Na3 O12 2.919120 1_555
Na3 O5 2.926269 1_555
Na4 O71 2.428329 1_555
Na4 O48 2.456183 1_565
Na4 O70 2.624888 1_555
Na4 O13 2.699012 1_565
Na4 O34 2.803722 1_555
Na4 O49 2.806005 1_565
Na4 O8 2.932637 1_555
Na4 O3 2.959287 1_565
Na5 O42 2.522521 1_455
Na5 O65 2.538532 1_555
Na5 O64 2.574731 1_555
Na5 O43 2.657995 1_545
Na5 O28 2.719309 1_555
Na5 O7 2.734149 1_555
Na5 O21 2.916229 1_555
Na6 O43 2.406573 1_555
Na6 O63 2.457063 1_555
Na6 O65 2.602582 1_555
Na6 O29 2.753991 1_555
Na6 O44 2.774500 1_455
Na6 O8 2.873922 1_555
Na6 O22 2.939875 1_455
Na6 O12 2.944258 1_455
Na7 O44 2.485284 1_555
Na7 O63 2.543657 1_555
Na7 O64 2.595449 1_555
Na7 O6 2.672539 1_555
Na7 O42 2.699186 1_565
Na7 O27 2.725449 1_555
Na7 O13 2.877927 1_565
Na8 O61 2.441154 1_555
Na8 O45 2.465273 1_455
Na8 O47 2.709331 1_565
Na8 O62 2.739849 1_555
Na8 O26 2.792575 1_554
Na8 O18 2.807017 1_565
Na8 O16 2.827331 1_565
Na8 O11 2.843096 1_555
Na9 O62 2.474953 1_555
Na9 O46 2.586781 1_565
Na9 O45 2.597428 1_555
Na9 O60 2.651222 1_555
Na9 O9 2.691558 1_555
Na9 O24 2.773384 1_554
Na9 O19 2.830447 1_555
Na10 O47 2.506563 1_555
Na10 O60 2.559954 1_555
Na10 O61 2.608629 1_555
Na10 O46 2.613218 1_455
Na10 O25 2.786366 1_554
Na10 O10 2.787484 1_555
Na10 O15 2.840439 1_455
Na11 O55 2.480023 1_555
Na11 O40 2.481351 1_655
Na11 O54 2.493767 1_555
Na11 O41 2.589955 1_555
Na11 O19 2.621795 1_556
Na11 O4 2.802091 1_555
Na12 O39 2.478641 1_655
Na12 O56 2.479571 1_555
Na12 O41 2.511544 1_545
Na12 O55 2.617338 1_555
Na12 O5 2.626386 1_555
Na12 O20 2.693563 1_556
Na13 O38 2.450701 1_655
Na13 O59 2.501923 1_555
Na13 O37 2.502292 1_545
Na13 O57 2.571139 1_555
Na13 O2 2.632449 1_555
Na13 O23 2.800796 1_555
Na14 O58 2.452807 1_555
Na14 O36 2.465383 1_545
Na14 O57 2.584923 1_555
Na14 O38 2.621686 1_555
Na14 O21 2.650570 1_555
Na14 O0 2.773568 1_555
Na15 O43 2.511269 1_655
Na15 O44 2.551388 1_555
Na15 O36 2.584704 1_655
Na15 O37 2.612593 1_555
Na15 O38 2.660683 1_665
Na15 O42 2.677763 1_565
Na16 O45 2.550685 1_445
Na16 O39 2.579676 1_554
Na16 O47 2.581237 1_555
Na16 O40 2.587473 1_544
Na16 O46 2.657614 1_455
Na16 O41 2.678462 1_444
Na17 O48 2.472731 1_555
Na17 O49 2.546487 1_555
Na17 O56 2.571094 1_555
Na17 O54 2.571581 1_555
Na17 O50 2.632931 1_555
Na17 O55 2.664135 1_555
Na18 O52 2.555084 1_555
Na18 O51 2.565312 1_555
Na18 O58 2.573619 1_555
Na18 O57 2.578780 1_555
Na18 O53 2.593879 1_555
Na18 O59 2.615670 1_555
Na19 O61 2.579945 1_555
Na19 O66 2.593503 1_555
Na19 O67 2.612143 1_555
Na19 O62 2.621108 1_555
Na19 O68 2.663575 1_555
Na19 O60 2.708149 1_555
Na20 O71 2.522784 1_555
Na20 O63 2.540119 1_555
Na20 O64 2.653870 1_555
Na20 O70 2.676340 1_555
Na20 O69 2.706840 1_555
Na20 O65 2.742757 1_555
O0 P0 1.551108 1_545
O0 Sc0 2.093258 1_445
O1 P1 1.543966 1_555
O1 Sc0 2.029073 1_555
O2 P2 1.546358 1_655
O2 Sc0 2.104971 1_545
O3 P3 1.540550 1_555
O3 Y0 2.185054 1_555
O4 P4 1.545891 1_655
O4 Y0 2.243447 1_665
O5 Si0 1.635223 1_545
O5 Y0 2.150562 1_655
O6 Si0 1.634783 1_555
O6 Y1 2.173316 1_565
O7 P3 1.544484 1_555
O7 Y1 2.237785 1_455
O8 P4 1.546980 1_555
O8 Y1 2.236780 1_465
O9 P1 1.549886 1_555
O9 Sc1 2.097472 1_555
O10 P2 1.548648 1_555
O10 Sc1 2.135388 1_445
O11 P0 1.556503 1_555
O11 Sc1 2.091024 1_455
O12 P5 1.549067 1_555
O12 Y2 2.239109 1_555
O13 Si1 1.637786 1_555
O13 Y2 2.151288 1_555
O14 P6 1.540824 1_555
O14 Y2 2.273481 1_555
O15 Si2 1.637632 1_555
O15 Y3 2.163620 1_555
O16 P7 1.543972 1_555
O16 Y3 2.198285 1_555
O17 P8 1.546745 1_555
O17 Y3 2.270460 1_555
O18 P8 1.544618 1_555
O18 Y4 2.205074 1_554
O19 Si2 1.639842 1_555
O19 Y4 2.171624 1_554
O20 P7 1.547161 1_555
O20 Y4 2.273446 1_554
O21 Si1 1.633975 1_555
O21 Y5 2.151753 1_555
O22 P6 1.540855 1_555
O22 Y5 2.174258 1_555
O23 P5 1.544921 1_555
O23 Y5 2.241530 1_555
O24 P9 1.544226 1_555
O24 Sc2 2.115949 1_556
O25 P10 1.546356 1_555
O25 Sc2 2.071396 1_556
O26 P11 1.548191 1_555
O26 Sc2 2.065121 1_556
O27 P12 1.549625 1_555
O27 Sc3 2.098907 1_555
O28 P13 1.551463 1_555
O28 Sc3 2.140023 1_555
O29 P14 1.558009 1_555
O29 Sc3 2.097988 1_555
O30 P14 1.550626 1_555
O30 Sc4 2.087188 1_555
O31 P12 1.543802 1_555
O31 Sc4 2.025134 1_555
O32 P13 1.545822 1_555
O32 Sc4 2.101054 1_555
O33 P10 1.547954 1_555
O33 Sc5 2.128765 1_555
O34 P11 1.550676 1_555
O34 Sc5 2.068136 1_555
O35 P9 1.548733 1_555
O35 Sc5 2.076805 1_555
O36 P14 1.557051 1_555
O36 Sc0 2.175844 1_455
O37 P12 1.553974 1_555
O37 Sc0 2.132659 1_555
O38 P13 1.571895 1_555
O38 Sc0 2.215999 1_445
O39 P10 1.550840 1_555
O39 Y0 2.274769 1_555
O40 P11 1.549336 1_555
O40 Y0 2.303984 1_565
O41 P9 1.566754 1_555
O41 Y0 2.326061 1_665
O42 P5 1.544603 1_555
O42 Y1 2.294982 1_555
O43 Si1 1.636781 1_565
O43 Y1 2.238223 1_465
O44 P6 1.543775 1_555
O44 Y1 2.290860 1_565
O45 Si2 1.653078 1_555
O45 Sc1 2.067382 1_555
O46 P7 1.552943 1_555
O46 Sc1 2.160496 1_545
O47 P8 1.551826 1_555
O47 Sc1 2.172182 1_445
O48 Si0 1.639483 1_545
O48 Y2 2.211649 1_555
O49 P3 1.542985 1_555
O49 Y2 2.287135 1_555
O50 P4 1.543392 1_655
O50 Y2 2.324069 1_555
O51 P1 1.565592 1_555
O51 Y3 2.323788 1_555
O52 P2 1.555565 1_655
O52 Y3 2.283243 1_555
O53 P0 1.548799 1_545
O53 Y3 2.311688 1_555
O54 P9 1.551563 1_555
O54 Y4 2.269318 1_555
O55 P10 1.564981 1_655
O55 Y4 2.322164 1_555
O56 P11 1.548432 1_545
O56 Y4 2.305960 1_555
O57 P12 1.565976 1_545
O57 Y5 2.314326 1_555
O58 P13 1.554271 1_555
O58 Y5 2.284026 1_555
O59 P14 1.548768 1_655
O59 Y5 2.312517 1_555
O60 P8 1.552076 1_555
O60 Sc2 2.157590 1_555
O61 Si2 1.653722 1_455
O61 Sc2 2.081996 1_555
O62 P7 1.551233 1_565
O62 Sc2 2.163477 1_555
O63 Si1 1.650905 1_565
O63 Sc3 2.053352 1_555
O64 P6 1.554090 1_555
O64 Sc3 2.145872 1_555
O65 P5 1.551605 1_455
O65 Sc3 2.173277 1_555
O66 P0 1.558876 1_555
O66 Sc4 2.178814 1_555
O67 P1 1.555930 1_555
O67 Sc4 2.139458 1_555
O68 P2 1.573890 1_555
O68 Sc4 2.224668 1_555
O69 P3 1.550396 1_555
O69 Sc5 2.135222 1_555
O70 P4 1.553003 1_555
O70 Sc5 2.166640 1_555
O71 Si0 1.651942 1_555
O71 Sc5 2.065155 1_555
