# generated using pymatgen
data_KYF4
_symmetry_space_group_name_H-M   'P 1'
_cell_length_a   14.26417532
_cell_length_b   14.26417532
_cell_length_c   10.31399400
_cell_angle_alpha   90.00000000
_cell_angle_beta   90.00000000
_cell_angle_gamma   119.99999687
_symmetry_Int_Tables_number   1
_chemical_formula_structural   KYF4
_chemical_formula_sum   'K18 Y18 F72'
_cell_volume   1817.40139166
_cell_formula_units_Z   18
loop_
 _symmetry_equiv_pos_site_id
 _symmetry_equiv_pos_as_xyz
  1  'x, y, z'
loop_
 _atom_site_type_symbol
 _atom_site_label
 _atom_site_symmetry_multiplicity
 _atom_site_fract_x
 _atom_site_fract_y
 _atom_site_fract_z
 _atom_site_occupancy
  K  K0  1  0.78191700  0.72075900  0.32290900  1
  K  K1  1  0.27924100  0.06115800  0.65624200  1
  K  K2  1  0.93884200  0.21808300  0.98957600  1
  K  K3  1  0.26711500  0.22079600  0.35054200  1
  K  K4  1  0.77920400  0.04631900  0.68387500  1
  K  K5  1  0.95368100  0.73288500  0.01720800  1
  K  K6  1  0.10274500  0.39377800  0.31895400  1
  K  K7  1  0.60622200  0.70896700  0.65228700  1
  K  K8  1  0.29103300  0.89725500  0.98562000  1
  K  K9  1  0.60822000  0.87616600  0.34751600  1
  K  K10  1  0.12383400  0.73205400  0.68084900  1
  K  K11  1  0.26794600  0.39178000  0.01418200  1
  K  K12  1  0.94756900  0.56306900  0.34592100  1
  K  K13  1  0.43693100  0.38450000  0.67925400  1
  K  K14  1  0.61550000  0.05243100  0.01258700  1
  K  K15  1  0.45607200  0.06557800  0.31679900  1
  K  K16  1  0.93442200  0.39049300  0.65013300  1
  K  K17  1  0.60950700  0.54392800  0.98346600  1
  Y  Y0  1  0.13097300  0.89037300  0.33220800  1
  Y  Y1  1  0.10962700  0.24060000  0.66554100  1
  Y  Y2  1  0.75940000  0.86902700  0.99887500  1
  Y  Y3  1  0.28263800  0.73187100  0.32066500  1
  Y  Y4  1  0.26812900  0.55076800  0.65399900  1
  Y  Y5  1  0.44923200  0.71736200  0.98733200  1
  Y  Y6  1  0.77891900  0.20590700  0.34055400  1
  Y  Y7  1  0.79409300  0.57301200  0.67388800  1
  Y  Y8  1  0.42698800  0.22108100  0.00722100  1
  Y  Y9  1  0.94181500  0.05869000  0.32780400  1
  Y  Y10  1  0.94131000  0.88312500  0.66113700  1
  Y  Y11  1  0.11687500  0.05818500  0.99447000  1
  Y  Y12  1  0.45401300  0.54642900  0.32571000  1
  Y  Y13  1  0.45357100  0.90758300  0.65904400  1
  Y  Y14  1  0.09241700  0.54598700  0.99237700  1
  Y  Y15  1  0.60470500  0.38719000  0.34628000  1
  Y  Y16  1  0.61281000  0.21751500  0.67961400  1
  Y  Y17  1  0.78248500  0.39529500  0.01294700  1
  F  F0  1  0.13228700  0.93604900  0.11560500  1
  F  F1  1  0.06395100  0.19623800  0.44893800  1
  F  F2  1  0.80376200  0.86771300  0.78227100  1
  F  F3  1  0.06900000  0.87754600  0.54134600  1
  F  F4  1  0.12245400  0.19145400  0.87468000  1
  F  F5  1  0.80854600  0.93100000  0.20801300  1
  F  F6  1  0.21206000  0.59385800  0.46679900  1
  F  F7  1  0.40614200  0.61820200  0.80013300  1
  F  F8  1  0.38179800  0.78794000  0.13346600  1
  F  F9  1  0.33217500  0.72881900  0.65572500  1
  F  F10  1  0.27118100  0.60335600  0.98905900  1
  F  F11  1  0.39664400  0.66782500  0.32239200  1
  F  F12  1  0.73523500  0.20279800  0.55652700  1
  F  F13  1  0.79720200  0.53243700  0.88986000  1
  F  F14  1  0.46756300  0.26476500  0.22319400  1
  F  F15  1  0.78881700  0.26817800  0.13155900  1
  F  F16  1  0.73182200  0.52063900  0.46489200  1
  F  F17  1  0.47936100  0.21118300  0.79822600  1
  F  F18  1  0.99979600  0.06010900  0.66422000  1
  F  F19  1  0.93989100  0.93968700  0.99755400  1
  F  F20  1  0.06031300  0.00020400  0.33088700  1
  F  F21  1  0.04537300  0.12204800  0.14425200  1
  F  F22  1  0.87795200  0.92332400  0.47758500  1
  F  F23  1  0.07667600  0.95462700  0.81091800  1
  F  F24  1  0.39119200  0.53823600  0.53406300  1
  F  F25  1  0.46176400  0.85295700  0.86739600  1
  F  F26  1  0.14704300  0.60880800  0.20072900  1
  F  F27  1  0.45835600  0.59126800  0.10937100  1
  F  F28  1  0.40873200  0.86708800  0.44270400  1
  F  F29  1  0.13291200  0.54164400  0.77603700  1
  F  F30  1  0.54799900  0.29170300  0.53511100  1
  F  F31  1  0.70829700  0.25629600  0.86844400  1
  F  F32  1  0.74370400  0.45200100  0.20177700  1
  F  F33  1  0.60609000  0.34246600  0.00896200  1
  F  F34  1  0.65753400  0.26362400  0.34229500  1
  F  F35  1  0.73637600  0.39391000  0.67562800  1
  F  F36  1  0.76811500  0.72928000  0.06793600  1
  F  F37  1  0.27072000  0.03883400  0.40127000  1
  F  F38  1  0.96116600  0.23188500  0.73460300  1
  F  F39  1  0.80754000  0.72319300  0.57781800  1
  F  F40  1  0.27680700  0.08434700  0.91115100  1
  F  F41  1  0.91565300  0.19246000  0.24448500  1
  F  F42  1  0.24699100  0.22276800  0.60759100  1
  F  F43  1  0.77723200  0.02422300  0.94092400  1
  F  F44  1  0.97577700  0.75300900  0.27425700  1
  F  F45  1  0.80774500  0.07416000  0.43157500  1
  F  F46  1  0.92584000  0.73358600  0.76490900  1
  F  F47  1  0.26641400  0.19225500  0.09824200  1
  F  F48  1  0.12861100  0.39342200  0.57114400  1
  F  F49  1  0.60657800  0.73518900  0.90447700  1
  F  F50  1  0.26481100  0.87138900  0.23781000  1
  F  F51  1  0.09258500  0.40278100  0.06548300  1
  F  F52  1  0.59721900  0.68980400  0.39881600  1
  F  F53  1  0.31019600  0.90741500  0.73214900  1
  F  F54  1  0.15273400  0.75429700  0.42389200  1
  F  F55  1  0.24570300  0.39843700  0.75722500  1
  F  F56  1  0.60156300  0.84726600  0.09055900  1
  F  F57  1  0.58672100  0.88160800  0.60506100  1
  F  F58  1  0.11839200  0.70511300  0.93839400  1
  F  F59  1  0.29488700  0.41327900  0.27172800  1
  F  F60  1  0.93857000  0.57569800  0.60027300  1
  F  F61  1  0.42430200  0.36287200  0.93360600  1
  F  F62  1  0.63712800  0.06143000  0.26693900  1
  F  F63  1  0.94304300  0.53299300  0.09195500  1
  F  F64  1  0.46700700  0.41005000  0.42528900  1
  F  F65  1  0.58995000  0.05695700  0.75862200  1
  F  F66  1  0.48178300  0.06868500  0.57223700  1
  F  F67  1  0.93131500  0.41309800  0.90557000  1
  F  F68  1  0.58690200  0.51821700  0.23890300  1
  F  F69  1  0.45431800  0.08841100  0.05975500  1
  F  F70  1  0.91158900  0.36590700  0.39308800  1
  F  F71  1  0.63409300  0.54568200  0.72642100  1
loop_
_geom_bond_atom_site_label_1
_geom_bond_atom_site_label_2
_geom_bond_distance
_geom_bond_site_symmetry_2
F0 Y11 2.242197 1_564
F0 Y0 2.324559 1_555
F0 K8 2.912738 1_554
F0 K5 2.921595 1_455
F1 Y9 2.242191 1_455
F1 Y1 2.324559 1_555
F1 K6 2.912733 1_555
F1 K3 2.921592 1_555
F2 Y10 2.242191 1_555
F2 Y2 2.324569 1_555
F2 K7 2.912733 1_555
F2 K4 2.921592 1_565
F3 Y10 2.235010 1_455
F3 Y0 2.303484 1_555
F3 K10 2.934659 1_555
F3 K1 3.066426 1_565
F4 Y11 2.235004 1_555
F4 Y1 2.303493 1_555
F4 K11 2.934654 1_556
F4 K2 3.066426 1_455
F5 Y9 2.235010 1_565
F5 Y2 2.303484 1_554
F5 K9 2.934659 1_555
F5 K0 3.066426 1_555
F6 Y3 2.275718 1_555
F6 Y4 2.288432 1_555
F6 K6 2.907168 1_555
F7 Y4 2.275718 1_555
F7 Y5 2.288430 1_555
F7 K7 2.907173 1_555
F8 Y5 2.275709 1_554
F8 Y3 2.288429 1_555
F8 K8 2.907173 1_554
F9 Y4 2.228234 1_555
F9 Y13 2.255278 1_555
F9 K10 3.006340 1_555
F10 Y5 2.228236 1_555
F10 Y14 2.255275 1_555
F10 K11 3.006339 1_556
F11 Y3 2.228247 1_555
F11 Y12 2.255288 1_555
F11 K9 3.006340 1_555
F12 Y16 2.252082 1_555
F12 Y6 2.307501 1_555
F12 K4 2.915556 1_555
F12 K16 2.926749 1_555
F13 Y17 2.252082 1_556
F13 Y7 2.307491 1_555
F13 K5 2.915556 1_556
F13 K17 2.926741 1_555
F14 Y15 2.252076 1_555
F14 Y8 2.307501 1_555
F14 K3 2.915556 1_555
F14 K15 2.926751 1_555
F15 Y17 2.226277 1_555
F15 Y6 2.308679 1_555
F15 K2 2.960369 1_554
F15 K14 3.078989 1_555
F16 Y15 2.226277 1_555
F16 Y7 2.308689 1_555
F16 K0 2.960369 1_555
F16 K12 3.078985 1_555
F17 Y16 2.226277 1_555
F17 Y8 2.308679 1_556
F17 K1 2.960374 1_555
F17 K13 3.078989 1_555
F18 Y10 2.228036 1_545
F18 Y1 2.247106 1_655
F18 K4 3.059691 1_555
F19 Y11 2.228037 1_665
F19 Y2 2.247106 1_555
F19 K5 3.059690 1_556
F20 Y9 2.228036 1_455
F20 Y0 2.247106 1_545
F20 K3 3.059691 1_555
F21 Y11 2.277219 1_554
F21 Y9 2.290815 1_455
F21 K2 2.968553 1_454
F22 Y9 2.277221 1_565
F22 Y10 2.290809 1_555
F22 K0 2.968543 1_555
F23 Y10 2.277221 1_455
F23 Y11 2.290816 1_565
F23 K1 2.968543 1_565
F24 Y4 2.226514 1_555
F24 Y12 2.308659 1_555
F24 K13 2.984590 1_555
F24 K7 3.058734 1_555
F25 Y5 2.226514 1_555
F25 Y13 2.308639 1_555
F25 K14 2.984582 1_566
F25 K8 3.058725 1_555
F26 Y3 2.226514 1_555
F26 Y14 2.308645 1_554
F26 K12 2.984583 1_455
F26 K6 3.058742 1_555
F27 Y5 2.251762 1_554
F27 Y12 2.313456 1_555
F27 K17 2.871713 1_554
F27 K11 2.951142 1_555
F28 Y3 2.251755 1_555
F28 Y13 2.313464 1_555
F28 K15 2.871700 1_565
F28 K9 2.951139 1_555
F29 Y4 2.251744 1_555
F29 Y14 2.313462 1_555
F29 K16 2.871699 1_455
F29 K10 2.951139 1_555
F30 Y16 2.274668 1_555
F30 Y15 2.280541 1_555
F30 K13 2.927359 1_555
F31 Y17 2.274668 1_556
F31 Y16 2.280532 1_555
F31 K14 2.927359 1_556
F32 Y15 2.274668 1_555
F32 Y17 2.280532 1_555
F32 K12 2.927364 1_555
F33 Y17 2.237050 1_555
F33 Y8 2.258661 1_555
F33 K17 2.861739 1_554
F34 Y15 2.237050 1_555
F34 Y6 2.258661 1_555
F34 K15 2.861746 1_555
F35 Y16 2.237050 1_555
F35 Y7 2.258661 1_555
F35 K16 2.861752 1_555
F36 Y2 2.178110 1_554
F36 K17 2.624145 1_554
F36 K0 2.644477 1_555
F36 K5 2.673313 1_555
F37 Y0 2.178107 1_545
F37 K15 2.624148 1_555
F37 K1 2.644468 1_555
F37 K3 2.673327 1_555
F38 Y1 2.178100 1_655
F38 K16 2.624145 1_555
F38 K2 2.644478 1_555
F38 K4 2.673320 1_555
F39 Y7 2.279641 1_555
F39 Y10 2.287080 1_555
F39 K0 2.652249 1_555
F39 K7 2.880049 1_555
F40 Y8 2.279641 1_556
F40 Y11 2.287080 1_555
F40 K1 2.652249 1_555
F40 K8 2.880049 1_545
F41 Y6 2.279637 1_555
F41 Y9 2.287080 1_555
F41 K2 2.652249 1_554
F41 K6 2.880049 1_655
F42 Y1 2.181631 1_555
F42 K1 2.614949 1_555
F42 K13 2.637913 1_555
F42 K3 2.668358 1_555
F43 Y2 2.181633 1_545
F43 K2 2.614952 1_555
F43 K14 2.637912 1_556
F43 K4 2.668358 1_555
F44 Y0 2.181633 1_655
F44 K0 2.614952 1_555
F44 K12 2.637915 1_555
F44 K5 2.668358 1_555
F45 Y9 2.296408 1_555
F45 Y6 2.314030 1_555
F45 K4 2.633122 1_555
F45 K9 2.964800 1_545
F46 Y10 2.296400 1_555
F46 Y7 2.314039 1_555
F46 K5 2.633112 1_556
F46 K10 2.964810 1_655
F47 Y11 2.296406 1_554
F47 Y8 2.314043 1_555
F47 K3 2.633120 1_555
F47 K11 2.964796 1_555
F48 Y1 2.276583 1_555
F48 Y4 2.293812 1_555
F48 K6 2.627485 1_555
F48 K16 2.867463 1_455
F49 Y2 2.276587 1_555
F49 Y5 2.293818 1_555
F49 K7 2.627485 1_555
F49 K17 2.867476 1_555
F50 Y0 2.276587 1_555
F50 Y3 2.293805 1_555
F50 K8 2.627485 1_554
F50 K15 2.867469 1_565
F51 Y14 2.178560 1_554
F51 K2 2.566233 1_454
F51 K6 2.625007 1_555
F51 K11 2.637046 1_555
F52 Y12 2.178567 1_555
F52 K0 2.566232 1_555
F52 K7 2.625007 1_555
F52 K9 2.637043 1_555
F53 Y13 2.178570 1_555
F53 K1 2.566232 1_565
F53 K8 2.625007 1_555
F53 K10 2.637044 1_555
F54 Y3 2.293934 1_555
F54 Y0 2.315294 1_555
F54 K10 2.676500 1_555
F54 K12 2.944302 1_455
F55 Y4 2.293942 1_555
F55 Y1 2.315294 1_555
F55 K11 2.676500 1_556
F55 K13 2.944302 1_555
F56 Y5 2.293942 1_554
F56 Y2 2.315294 1_554
F56 K9 2.676500 1_555
F56 K14 2.944305 1_565
F57 Y13 2.181337 1_555
F57 K7 2.657808 1_555
F57 K9 2.679533 1_555
F57 K4 2.696004 1_565
F58 Y14 2.181351 1_555
F58 K8 2.657808 1_555
F58 K10 2.679533 1_555
F58 K5 2.696004 1_456
F59 Y12 2.181343 1_555
F59 K6 2.657808 1_555
F59 K11 2.679543 1_555
F59 K3 2.696004 1_555
F60 Y7 2.178549 1_555
F60 K10 2.598950 1_655
F60 K12 2.637082 1_555
F60 K16 2.662844 1_555
F61 Y8 2.178549 1_556
F61 K11 2.598950 1_556
F61 K13 2.637082 1_555
F61 K17 2.662838 1_555
F62 Y6 2.178549 1_555
F62 K9 2.598953 1_545
F62 K14 2.637082 1_555
F62 K15 2.662830 1_555
F63 Y14 2.287821 1_654
F63 Y17 2.295369 1_555
F63 K12 2.649867 1_555
F63 K5 2.883504 1_555
F64 Y12 2.287813 1_555
F64 Y15 2.295372 1_555
F64 K13 2.649857 1_555
F64 K3 2.883504 1_555
F65 Y13 2.287816 1_545
F65 Y16 2.295369 1_555
F65 K14 2.649857 1_556
F65 K4 2.883504 1_555
F66 Y16 2.293200 1_555
F66 Y13 2.306413 1_545
F66 K15 2.657303 1_555
F66 K1 2.966294 1_555
F67 Y17 2.293200 1_556
F67 Y14 2.306408 1_655
F67 K16 2.657294 1_555
F67 K2 2.966297 1_555
F68 Y15 2.293200 1_555
F68 Y12 2.306400 1_555
F68 K17 2.657293 1_554
F68 K0 2.966297 1_555
F69 Y8 2.182794 1_555
F69 K14 2.639325 1_555
F69 K8 2.663362 1_544
F69 K15 2.672723 1_555
F70 Y6 2.182794 1_555
F70 K12 2.639323 1_555
F70 K6 2.663359 1_655
F70 K16 2.672732 1_555
F71 Y7 2.182791 1_555
F71 K13 2.639323 1_555
F71 K7 2.663359 1_555
F71 K17 2.672732 1_555
