# generated using pymatgen
data_ZrCuSiP
_symmetry_space_group_name_H-M   'P 1'
_cell_length_a   3.59348400
_cell_length_b   3.59348400
_cell_length_c   9.52637700
_cell_angle_alpha   90.00000000
_cell_angle_beta   90.00000000
_cell_angle_gamma   90.00000000
_symmetry_Int_Tables_number   1
_chemical_formula_structural   ZrCuSiP
_chemical_formula_sum   'Zr2 Cu2 Si2 P2'
_cell_volume   123.01531851
_cell_formula_units_Z   2
loop_
 _symmetry_equiv_pos_site_id
 _symmetry_equiv_pos_as_xyz
  1  'x, y, z'
loop_
 _atom_site_type_symbol
 _atom_site_label
 _atom_site_symmetry_multiplicity
 _atom_site_fract_x
 _atom_site_fract_y
 _atom_site_fract_z
 _atom_site_occupancy
  Zr  Zr0  1  0.00000000  0.50000000  0.77138300  1
  Zr  Zr1  1  0.50000000  0.00000000  0.22861700  1
  Cu  Cu0  1  0.50000000  0.50000000  0.50000000  1
  Cu  Cu1  1  0.00000000  0.00000000  0.50000000  1
  Si  Si0  1  0.50000000  0.50000000  0.00000000  1
  Si  Si1  1  0.00000000  0.00000000  0.00000000  1
  P  P0  1  0.00000000  0.50000000  0.32818700  1
  P  P1  1  0.50000000  0.00000000  0.67181300  1
loop_
_geom_bond_atom_site_label_1
_geom_bond_atom_site_label_2
_geom_bond_distance
_geom_bond_site_symmetry_2
Cu0 P0 2.430484 1_655
Cu0 P1 2.430484 1_555
Cu0 P1 2.430484 1_565
Cu0 P0 2.430484 1_555
Cu1 P1 2.430484 1_555
Cu1 P0 2.430484 1_545
Cu1 P1 2.430484 1_455
Cu1 P0 2.430484 1_555
Si0 Si1 2.540977 1_655
Si0 Si1 2.540977 1_565
Si0 Si1 2.540977 1_665
Si0 Si1 2.540977 1_555
Si0 Zr0 2.823383 1_654
Si0 Zr1 2.823383 1_565
Si0 Zr0 2.823383 1_554
Si0 Zr1 2.823383 1_555
Si1 Zr1 2.823383 1_455
Si1 Zr0 2.823383 1_544
Si1 Zr0 2.823383 1_554
Si1 Zr1 2.823383 1_555
P0 Zr1 2.712249 1_555
P0 Zr1 2.712249 1_455
P0 Zr1 2.712249 1_465
P0 Zr1 2.712249 1_565
P1 Zr0 2.712249 1_555
P1 Zr0 2.712249 1_655
P1 Zr0 2.712249 1_545
P1 Zr0 2.712249 1_645
