# generated using pymatgen
data_Na10NbIn7Si6(SO8)6
_symmetry_space_group_name_H-M   'P 1'
_cell_length_a   18.25309158
_cell_length_b   9.17931717
_cell_length_c   22.92362835
_cell_angle_alpha   89.86724630
_cell_angle_beta   89.53194444
_cell_angle_gamma   119.94779344
_symmetry_Int_Tables_number   1
_chemical_formula_structural   Na10NbIn7Si6(SO8)6
_chemical_formula_sum   'Na30 Nb3 In21 Si18 S18 O144'
_cell_volume   3327.84206450
_cell_formula_units_Z   3
loop_
 _symmetry_equiv_pos_site_id
 _symmetry_equiv_pos_as_xyz
  1  'x, y, z'
loop_
 _atom_site_type_symbol
 _atom_site_label
 _atom_site_symmetry_multiplicity
 _atom_site_fract_x
 _atom_site_fract_y
 _atom_site_fract_z
 _atom_site_occupancy
  Na  Na0  1  0.31924490  0.00526671  0.24879800  1
  Na  Na1  1  0.82112458  0.00413632  0.25145508  1
  Na  Na2  1  0.18586680  0.36427458  0.25013487  1
  Na  Na3  1  0.68606621  0.37409382  0.23868958  1
  Na  Na4  1  0.99649646  0.62832077  0.24470663  1
  Na  Na5  1  0.49504395  0.61637221  0.25225214  1
  Na  Na6  1  0.31164654  0.62289795  0.74989013  1
  Na  Na7  1  0.80740759  0.61934491  0.74949848  1
  Na  Na8  1  0.99457611  0.35061293  0.74836207  1
  Na  Na9  1  0.68662189  0.01136374  0.75534370  1
  Na  Na10  1  0.16292548  0.34850444  0.58228508  1
  Na  Na11  1  0.01200904  0.69212724  0.58343034  1
  Na  Na12  1  0.32973121  0.96560018  0.58725288  1
  Na  Na13  1  0.83151703  0.96949522  0.57899808  1
  Na  Na14  1  0.83154763  0.68232525  0.07446005  1
  Na  Na15  1  0.16978358  0.30781983  0.90825690  1
  Na  Na16  1  0.67167211  0.30922616  0.91670689  1
  Na  Na17  1  0.35627284  0.66664772  0.41711394  1
  Na  Na18  1  0.99873922  0.99480181  0.49427013  1
  Na  Na19  1  0.50962643  0.98239857  0.49948788  1
  Na  Na20  1  0.99043652  0.97308272  0.99672208  1
  Na  Na21  1  0.49077582  0.96352226  0.99861695  1
  Na  Na22  1  0.33211986  0.33096650  0.83468299  1
  Na  Na23  1  0.83020757  0.33378702  0.83697240  1
  Na  Na24  1  0.34395132  0.33814058  0.33267133  1
  Na  Na25  1  0.83976308  0.34490248  0.33185549  1
  Na  Na26  1  0.15837804  0.66226744  0.16403584  1
  Na  Na27  1  0.65033491  0.63795982  0.15936016  1
  Na  Na28  1  0.16761151  0.67021595  0.66297772  1
  Na  Na29  1  0.66138310  0.62797363  0.66796543  1
  Nb  Nb0  1  0.00000644  0.01065703  0.64606572  1
  Nb  Nb1  1  0.99944139  0.99106216  0.15199845  1
  Nb  Nb2  1  0.49638763  0.00221731  0.14409973  1
  In  In0  1  0.99895193  0.00143370  0.34556741  1
  In  In1  1  0.50011500  0.99091350  0.35115965  1
  In  In2  1  0.99239751  0.99821834  0.85089696  1
  In  In3  1  0.49677072  0.99295989  0.85180722  1
  In  In4  1  0.50243942  0.00142251  0.64959872  1
  In  In5  1  0.32346849  0.32567066  0.68097858  1
  In  In6  1  0.82717396  0.33631573  0.68177905  1
  In  In7  1  0.34072315  0.34385514  0.18461769  1
  In  In8  1  0.84281868  0.35514479  0.17796085  1
  In  In9  1  0.34174480  0.36169617  0.98473726  1
  In  In10  1  0.83536594  0.35511474  0.98764873  1
  In  In11  1  0.33747400  0.34930651  0.48528799  1
  In  In12  1  0.83808340  0.34319980  0.48575621  1
  In  In13  1  0.17031341  0.67380432  0.01700840  1
  In  In14  1  0.66572218  0.66027362  0.01926471  1
  In  In15  1  0.16590008  0.66476295  0.51931994  1
  In  In16  1  0.66320057  0.65927240  0.51437661  1
  In  In17  1  0.16400407  0.66524936  0.30980718  1
  In  In18  1  0.66179066  0.65114884  0.31709118  1
  In  In19  1  0.16781590  0.66284379  0.81838549  1
  In  In20  1  0.67090508  0.65990061  0.81572903  1
  Si  Si0  1  0.14847929  0.00567126  0.25169516  1
  Si  Si1  1  0.35379442  0.70700206  0.25202994  1
  Si  Si2  1  0.85097727  0.70150643  0.25408340  1
  Si  Si3  1  0.99538770  0.28816405  0.24939594  1
  Si  Si4  1  0.50090337  0.28652978  0.25240881  1
  Si  Si5  1  0.14654236  0.29203662  0.75410384  1
  Si  Si6  1  0.64362015  0.28960141  0.75164198  1
  Si  Si7  1  0.85057424  0.00392412  0.74870252  1
  Si  Si8  1  0.97747436  0.33402221  0.58455123  1
  Si  Si9  1  0.18770430  0.04120211  0.58186996  1
  Si  Si10  1  0.33862375  0.64411975  0.58398612  1
  Si  Si11  1  0.83011349  0.63104558  0.58480563  1
  Si  Si12  1  0.48668422  0.63587007  0.08636223  1
  Si  Si13  1  0.99120232  0.64393810  0.08492181  1
  Si  Si14  1  0.68405995  0.33017614  0.08395366  1
  Si  Si15  1  0.31637342  0.66709212  0.91511849  1
  Si  Si16  1  0.81856133  0.66830245  0.91770798  1
  Si  Si17  1  0.51803762  0.66605507  0.41548446  1
  S  S0  1  0.64644834  0.00089235  0.24710914  1
  S  S1  1  0.00343180  0.71071260  0.74938404  1
  S  S2  1  0.49880660  0.69730553  0.74989503  1
  S  S3  1  0.34953032  0.00272872  0.74955001  1
  S  S4  1  0.48116198  0.33403351  0.58537023  1
  S  S5  1  0.68325883  0.03313315  0.58165727  1
  S  S6  1  0.33370536  0.04044368  0.08363102  1
  S  S7  1  0.83753882  0.04179039  0.08460912  1
  S  S8  1  0.18111672  0.32605234  0.08393695  1
  S  S9  1  0.01624107  0.37083200  0.91730580  1
  S  S10  1  0.51668891  0.36971191  0.91568056  1
  S  S11  1  0.16807917  0.96664983  0.91654253  1
  S  S12  1  0.66807047  0.96257596  0.91519310  1
  S  S13  1  0.31264138  0.96357878  0.41662148  1
  S  S14  1  0.81838817  0.97215058  0.41679956  1
  S  S15  1  0.16343582  0.36708659  0.41603718  1
  S  S16  1  0.67068251  0.36379860  0.41692337  1
  S  S17  1  0.01717190  0.66804527  0.41649247  1
  O  O0  1  0.11275750  0.05623605  0.30786407  1
  O  O1  1  0.61296182  0.03265543  0.30131176  1
  O  O2  1  0.40683051  0.77307057  0.31181763  1
  O  O3  1  0.91566657  0.77822736  0.30749165  1
  O  O4  1  0.48837578  0.17449191  0.30991449  1
  O  O5  1  0.97357270  0.17260341  0.30717992  1
  O  O6  1  0.10507013  0.18919607  0.81407711  1
  O  O7  1  0.60408532  0.17161327  0.81076447  1
  O  O8  1  0.47924070  0.77209962  0.80091479  1
  O  O9  1  0.99272650  0.79173575  0.80109022  1
  O  O10  1  0.40011708  0.01619088  0.80105967  1
  O  O11  1  0.91256672  0.04589303  0.80317554  1
  O  O12  1  0.38577350  0.97281198  0.69532606  1
  O  O13  1  0.90260249  0.97723016  0.69178937  1
  O  O14  1  0.08469257  0.18336886  0.69721228  1
  O  O15  1  0.58975166  0.19680190  0.69397046  1
  O  O16  1  0.01128984  0.80669391  0.69485769  1
  O  O17  1  0.51230888  0.80019922  0.69659720  1
  O  O18  1  0.40773846  0.83892073  0.19750913  1
  O  O19  1  0.90070120  0.82499272  0.19424943  1
  O  O20  1  0.00890662  0.18508403  0.19376294  1
  O  O21  1  0.51074425  0.18568300  0.19504251  1
  O  O22  1  0.08146202  0.97449233  0.19594469  1
  O  O23  1  0.59123516  0.97920361  0.19682505  1
  O  O24  1  0.44163879  0.35630406  0.63840870  1
  O  O25  1  0.94091270  0.37490625  0.64322140  1
  O  O26  1  0.25127365  0.10528656  0.63711404  1
  O  O27  1  0.73237816  0.10751299  0.63584131  1
  O  O28  1  0.32027681  0.52783713  0.64272433  1
  O  O29  1  0.81379695  0.53095361  0.64642453  1
  O  O30  1  0.44965984  0.52722509  0.14644987  1
  O  O31  1  0.95701439  0.54777226  0.14739611  1
  O  O32  1  0.32395626  0.11353887  0.13853512  1
  O  O33  1  0.82721635  0.11533364  0.13962577  1
  O  O34  1  0.23218627  0.34491139  0.13619669  1
  O  O35  1  0.74058519  0.35561816  0.14199335  1
  O  O36  1  0.21888617  0.29946693  0.02986956  1
  O  O37  1  0.71821511  0.28789690  0.02412114  1
  O  O38  1  0.42686851  0.56113495  0.02994661  1
  O  O39  1  0.92301511  0.56027839  0.03305823  1
  O  O40  1  0.34345727  0.14334156  0.03184220  1
  O  O41  1  0.84881338  0.14733733  0.03322733  1
  O  O42  1  0.22598922  0.17199799  0.52710748  1
  O  O43  1  0.72517645  0.13906319  0.52983000  1
  O  O44  1  0.35019625  0.56584932  0.52351693  1
  O  O45  1  0.85877945  0.55469743  0.53091267  1
  O  O46  1  0.42926228  0.30758647  0.53264703  1
  O  O47  1  0.91281219  0.27033247  0.53015070  1
  O  O48  1  0.26788985  0.68889778  0.97104568  1
  O  O49  1  0.77316724  0.68834661  0.97685315  1
  O  O50  1  0.07097901  0.46361234  0.96629115  1
  O  O51  1  0.56704059  0.45099994  0.96808696  1
  O  O52  1  0.15501430  0.86325550  0.96878170  1
  O  O53  1  0.65814154  0.85580259  0.96544485  1
  O  O54  1  0.27008648  0.85715044  0.46931719  1
  O  O55  1  0.77724827  0.87443413  0.47089418  1
  O  O56  1  0.15615775  0.44953756  0.47011188  1
  O  O57  1  0.66244639  0.44999562  0.46856748  1
  O  O58  1  0.06443504  0.67715032  0.47009958  1
  O  O59  1  0.57588375  0.68802559  0.47182776  1
  O  O60  1  0.06018905  0.65506131  0.36309883  1
  O  O61  1  0.55879883  0.64920726  0.35297668  1
  O  O62  1  0.26372237  0.88115897  0.36301130  1
  O  O63  1  0.76965549  0.88658630  0.36367442  1
  O  O64  1  0.17169266  0.47069883  0.36336061  1
  O  O65  1  0.68370392  0.46295320  0.36228238  1
  O  O66  1  0.05015751  0.46660574  0.86078319  1
  O  O67  1  0.55401522  0.47389700  0.86264227  1
  O  O68  1  0.17541529  0.88409815  0.86264489  1
  O  O69  1  0.67082608  0.88320448  0.85863692  1
  O  O70  1  0.26218783  0.63337406  0.85390123  1
  O  O71  1  0.76288897  0.63794278  0.85827574  1
  O  O72  1  0.00950618  0.82147390  0.41536467  1
  O  O73  1  0.50499004  0.83329626  0.41544880  1
  O  O74  1  0.39647144  0.97388937  0.41525345  1
  O  O75  1  0.90425095  0.98889858  0.41537941  1
  O  O76  1  0.08706955  0.19850281  0.41443048  1
  O  O77  1  0.59371652  0.19636429  0.41409909  1
  O  O78  1  0.01726269  0.20936434  0.91537875  1
  O  O79  1  0.51581859  0.20636793  0.91152958  1
  O  O80  1  0.09469210  0.99572743  0.91345150  1
  O  O81  1  0.59386165  0.99124975  0.91545855  1
  O  O82  1  0.41106386  0.83393967  0.91189903  1
  O  O83  1  0.91349234  0.83463605  0.91421235  1
  O  O84  1  0.48710503  0.17824900  0.58881380  1
  O  O85  1  0.99199155  0.16746235  0.59356082  1
  O  O86  1  0.09310405  0.02368837  0.59516468  1
  O  O87  1  0.59763579  0.01189105  0.58513487  1
  O  O88  1  0.41787092  0.83863193  0.58955370  1
  O  O89  1  0.91998976  0.82118411  0.59363011  1
  O  O90  1  0.49126514  0.82308650  0.09680318  1
  O  O91  1  0.99285218  0.83093680  0.09145571  1
  O  O92  1  0.41324519  0.02696223  0.08684942  1
  O  O93  1  0.91486411  0.02164570  0.08814520  1
  O  O94  1  0.09554843  0.17419036  0.09004932  1
  O  O95  1  0.58804585  0.16455693  0.09536575  1
  O  O96  1  0.34369837  0.15719158  0.74616088  1
  O  O97  1  0.84193563  0.17121623  0.74065246  1
  O  O98  1  0.24375914  0.32803903  0.74855641  1
  O  O99  1  0.74007435  0.31207299  0.74907732  1
  O  O100  1  0.42488128  0.52575718  0.74432538  1
  O  O101  1  0.92696827  0.53943066  0.74711009  1
  O  O102  1  0.33729311  0.51647546  0.24466141  1
  O  O103  1  0.83420350  0.51093704  0.24637464  1
  O  O104  1  0.41619853  0.30342068  0.24794497  1
  O  O105  1  0.91117967  0.30687704  0.24252810  1
  O  O106  1  0.24149608  0.16348430  0.23838300  1
  O  O107  1  0.73296472  0.14707949  0.23994366  1
  O  O108  1  0.31696188  0.48617070  0.91872708  1
  O  O109  1  0.82079513  0.48897204  0.91880910  1
  O  O110  1  0.42848863  0.33712894  0.92069196  1
  O  O111  1  0.92905208  0.33952314  0.92366876  1
  O  O112  1  0.24661434  0.13508474  0.92079656  1
  O  O113  1  0.74664979  0.13013429  0.91785818  1
  O  O114  1  0.32047131  0.13063194  0.42136841  1
  O  O115  1  0.82486647  0.14097578  0.41875080  1
  O  O116  1  0.24254308  0.35866385  0.41695339  1
  O  O117  1  0.74729244  0.34424129  0.42140778  1
  O  O118  1  0.42112323  0.49709047  0.41845300  1
  O  O119  1  0.93215185  0.51221439  0.41753645  1
  O  O120  1  0.17227956  0.47802530  0.07943422  1
  O  O121  1  0.68023544  0.50427228  0.08137068  1
  O  O122  1  0.08553265  0.67001695  0.07659058  1
  O  O123  1  0.58274485  0.67238706  0.07802669  1
  O  O124  1  0.26115112  0.86789128  0.08018749  1
  O  O125  1  0.76376361  0.86968811  0.08061851  1
  O  O126  1  0.16612388  0.84745957  0.57405634  1
  O  O127  1  0.67887659  0.86739590  0.57753617  1
  O  O128  1  0.25122294  0.65818181  0.58024156  1
  O  O129  1  0.75307926  0.67187920  0.57435992  1
  O  O130  1  0.07280029  0.49153228  0.57633608  1
  O  O131  1  0.56727797  0.48361229  0.58024634  1
  O  O132  1  0.14839392  0.82792219  0.25286722  1
  O  O133  1  0.65265081  0.84497191  0.25039525  1
  O  O134  1  0.26261440  0.70243749  0.25252617  1
  O  O135  1  0.76229821  0.70689629  0.25727690  1
  O  O136  1  0.08265782  0.47115932  0.25140283  1
  O  O137  1  0.58734542  0.47314947  0.25082255  1
  O  O138  1  0.14761860  0.47571811  0.75092473  1
  O  O139  1  0.65516032  0.47840888  0.75354684  1
  O  O140  1  0.07985634  0.69134625  0.75286830  1
  O  O141  1  0.57857135  0.69416848  0.75769125  1
  O  O142  1  0.26319183  0.84834367  0.75378112  1
  O  O143  1  0.75714637  0.83454395  0.75010900  1
loop_
_geom_bond_atom_site_label_1
_geom_bond_atom_site_label_2
_geom_bond_distance
_geom_bond_site_symmetry_2
Na0 O104 2.405411 1_555
Na0 O134 2.435466 1_545
Na0 O106 2.498404 1_555
Na0 O32 2.698801 1_555
Na0 O132 2.703706 1_545
Na0 O62 2.823102 1_545
Na1 O135 2.384565 1_545
Na1 O105 2.428490 1_555
Na1 O107 2.548380 1_555
Na1 O133 2.665974 1_545
Na1 O33 2.737851 1_555
Na1 O5 2.745400 1_555
Na1 O63 2.756822 1_545
Na2 O102 2.396947 1_555
Na2 O136 2.521334 1_555
Na2 O106 2.523311 1_555
Na2 O134 2.694692 1_555
Na2 O34 2.772080 1_555
Na2 O0 2.777367 1_555
Na2 O64 2.830416 1_555
Na3 O103 2.353287 1_555
Na3 O137 2.404169 1_555
Na3 O35 2.463070 1_555
Na3 O107 2.618620 1_555
Na3 O135 2.687337 1_555
Na3 O65 2.956011 1_555
Na3 O21 2.961033 1_555
Na4 O31 2.354574 1_555
Na4 O132 2.453036 1_655
Na4 O105 2.558926 1_555
Na4 O103 2.597892 1_555
Na4 O136 2.616555 1_655
Na4 O3 2.853635 1_555
Na4 O60 2.923570 1_655
Na4 O22 2.964263 1_655
Na5 O104 2.491815 1_555
Na5 O61 2.544283 1_555
Na5 O102 2.556366 1_555
Na5 O30 2.569730 1_555
Na5 O133 2.579058 1_555
Na5 O137 2.603604 1_555
Na6 O98 2.348305 1_555
Na6 O70 2.561594 1_555
Na6 O138 2.598087 1_555
Na6 O142 2.626740 1_555
Na6 O100 2.630534 1_555
Na6 O28 2.638582 1_555
Na6 O8 2.912876 1_555
Na7 O139 2.410551 1_555
Na7 O99 2.450580 1_555
Na7 O29 2.520664 1_555
Na7 O143 2.559942 1_555
Na7 O101 2.626853 1_555
Na7 O71 2.648533 1_555
Na8 O138 2.434322 1_655
Na8 O97 2.436028 1_555
Na8 O101 2.581396 1_555
Na8 O25 2.659408 1_555
Na8 O140 2.712823 1_655
Na8 O11 2.723239 1_555
Na8 O66 2.789500 1_655
Na8 O14 2.989219 1_655
Na9 O99 2.428750 1_555
Na9 O97 2.476351 1_555
Na9 O143 2.527920 1_545
Na9 O141 2.575738 1_545
Na9 O69 2.590580 1_545
Na9 O27 2.862939 1_555
Na9 O7 2.870104 1_555
Na10 O128 2.470672 1_555
Na10 O130 2.570556 1_555
Na10 O86 2.607135 1_555
Na10 O85 2.715020 1_455
Na10 O42 2.719894 1_555
Na10 O56 2.756096 1_555
Na10 O28 2.869439 1_555
Na10 O14 3.006094 1_555
Na11 O126 2.444712 1_555
Na11 O89 2.502152 1_455
Na11 O130 2.585846 1_555
Na11 O86 2.653052 1_565
Na11 O45 2.720806 1_455
Na11 O16 2.767012 1_555
Na11 O58 2.788615 1_555
Na11 O25 2.867283 1_455
Na12 O88 2.413013 1_555
Na12 O128 2.451707 1_555
Na12 O84 2.542984 1_565
Na12 O26 2.610528 1_565
Na12 O126 2.639816 1_555
Na12 O12 2.676380 1_555
Na12 O54 2.909251 1_555
Na12 O46 2.995425 1_565
Na13 O129 2.371317 1_555
Na13 O127 2.456981 1_555
Na13 O85 2.588039 1_565
Na13 O89 2.602996 1_555
Na13 O47 2.636062 1_565
Na13 O55 2.659121 1_555
Na13 O13 2.887483 1_555
Na13 O27 2.972493 1_565
Na14 O121 2.410237 1_555
Na14 O49 2.498444 1_554
Na14 O125 2.575177 1_555
Na14 O91 2.587026 1_555
Na14 O39 2.605724 1_555
Na14 O93 2.719506 1_565
Na15 O108 2.361373 1_555
Na15 O6 2.451604 1_555
Na15 O78 2.464506 1_555
Na15 O80 2.485001 1_545
Na15 O112 2.605387 1_555
Na15 O70 2.871193 1_555
Na15 O36 2.947792 1_556
Na16 O109 2.377437 1_555
Na16 O79 2.514512 1_555
Na16 O81 2.529727 1_545
Na16 O113 2.612074 1_555
Na16 O37 2.649741 1_556
Na16 O7 2.742787 1_555
Na16 O71 2.932547 1_555
Na17 O73 2.358467 1_555
Na17 O118 2.380002 1_555
Na17 O74 2.535143 1_555
Na17 O116 2.538206 1_555
Na17 O2 2.585505 1_555
Na17 O44 2.588529 1_555
Na18 O72 2.482233 1_655
Na18 O75 2.491219 1_555
Na18 O76 2.524171 1_665
Na18 O89 2.726978 1_555
Na18 O85 2.813321 1_565
Na18 O86 2.828150 1_665
Na19 O73 2.343278 1_555
Na19 O87 2.475567 1_565
Na19 O88 2.556060 1_555
Na19 O77 2.639729 1_565
Na19 O74 2.811669 1_555
Na19 O84 2.887062 1_565
Na20 O83 2.331857 1_555
Na20 O91 2.542901 1_556
Na20 O80 2.617671 1_655
Na20 O93 2.657960 1_566
Na20 O78 2.706834 1_665
Na20 O94 2.866196 1_666
Na21 O82 2.411188 1_555
Na21 O81 2.588488 1_555
Na21 O90 2.593507 1_556
Na21 O92 2.685940 1_566
Na21 O79 2.847920 1_565
Na21 O95 2.878983 1_566
Na22 O108 2.493104 1_555
Na22 O98 2.551278 1_555
Na22 O112 2.587873 1_555
Na22 O110 2.634875 1_555
Na22 O96 2.655476 1_555
Na22 O100 2.693917 1_555
Na23 O109 2.414439 1_555
Na23 O113 2.519906 1_555
Na23 O99 2.556321 1_555
Na23 O111 2.678047 1_555
Na23 O97 2.733959 1_555
Na23 O101 2.742262 1_555
Na24 O118 2.446719 1_555
Na24 O104 2.448175 1_555
Na24 O102 2.636699 1_555
Na24 O114 2.664355 1_555
Na24 O116 2.736052 1_555
Na24 O106 2.797871 1_555
Na25 O103 2.513309 1_555
Na25 O105 2.535397 1_555
Na25 O119 2.557846 1_555
Na25 O117 2.645054 1_555
Na25 O115 2.647933 1_555
Na25 O107 2.843831 1_555
Na26 O122 2.434878 1_555
Na26 O136 2.552736 1_555
Na26 O132 2.603279 1_555
Na26 O120 2.668596 1_555
Na26 O124 2.676805 1_555
Na26 O134 2.690157 1_555
Na27 O123 2.349952 1_555
Na27 O121 2.379696 1_555
Na27 O137 2.493159 1_555
Na27 O125 2.755633 1_555
Na27 O133 2.811981 1_555
Na27 O135 2.899250 1_555
Na28 O128 2.461815 1_555
Na28 O138 2.589592 1_555
Na28 O126 2.613907 1_555
Na28 O130 2.620530 1_555
Na28 O140 2.666020 1_555
Na28 O142 2.697604 1_555
Na29 O139 2.361090 1_555
Na29 O131 2.558547 1_555
Na29 O129 2.613812 1_555
Na29 O143 2.637761 1_555
Na29 O141 2.785078 1_555
Na29 O127 2.914893 1_555
Nb0 O85 1.935698 1_455
Nb0 O13 1.943496 1_445
Nb0 O14 1.966973 1_555
Nb0 O86 2.006866 1_555
Nb0 O89 2.026110 1_445
Nb0 O16 2.275473 1_545
Nb1 O22 1.879012 1_655
Nb1 O19 1.931772 1_555
Nb1 O20 1.954932 1_665
Nb1 O91 1.984119 1_555
Nb1 O94 2.218968 1_665
Nb1 O93 2.252201 1_565
Nb2 O95 1.933984 1_555
Nb2 O90 1.935041 1_545
Nb2 O21 1.960118 1_555
Nb2 O18 1.975258 1_545
Nb2 O92 2.110072 1_555
Nb2 O23 2.213796 1_545
In0 O5 2.045647 1_555
In0 O3 2.047182 1_545
In0 O0 2.059266 1_655
In0 O75 2.306017 1_545
In0 O76 2.345430 1_655
In0 O72 2.374122 1_645
In1 O4 2.033703 1_565
In1 O2 2.084514 1_555
In1 O73 2.096167 1_555
In1 O1 2.206100 1_565
In1 O77 2.322325 1_565
In1 O74 2.328191 1_555
In2 O11 2.042559 1_565
In2 O83 2.057230 1_555
In2 O6 2.092940 1_665
In2 O9 2.217507 1_555
In2 O78 2.300744 1_665
In2 O80 2.372644 1_655
In3 O82 2.037445 1_555
In3 O7 2.041327 1_565
In3 O10 2.217945 1_565
In3 O8 2.223273 1_555
In3 O79 2.274385 1_565
In3 O81 2.310827 1_555
In4 O15 1.993041 1_555
In4 O88 2.061941 1_545
In4 O17 2.220612 1_545
In4 O87 2.236737 1_555
In4 O84 2.259211 1_555
In4 O12 2.259751 1_545
In5 O26 2.051711 1_555
In5 O28 2.077844 1_555
In5 O98 2.124157 1_555
In5 O24 2.245588 1_555
In5 O96 2.308513 1_555
In5 O100 2.360167 1_555
In6 O29 2.083418 1_555
In6 O25 2.109777 1_555
In6 O99 2.135930 1_555
In6 O97 2.143573 1_555
In6 O27 2.219380 1_555
In6 O101 2.388263 1_555
In7 O30 2.043446 1_555
In7 O106 2.121511 1_555
In7 O102 2.125313 1_555
In7 O104 2.164212 1_555
In7 O32 2.246962 1_555
In7 O34 2.283004 1_555
In8 O35 2.048241 1_555
In8 O31 2.062231 1_555
In8 O105 2.126775 1_555
In8 O103 2.181800 1_555
In8 O33 2.255266 1_555
In8 O107 2.409264 1_555
In9 O38 2.008691 1_556
In9 O108 2.078250 1_555
In9 O110 2.243512 1_555
In9 O36 2.259667 1_556
In9 O40 2.288549 1_556
In9 O112 2.437209 1_555
In10 O39 2.053755 1_556
In10 O37 2.074469 1_556
In10 O109 2.096399 1_555
In10 O41 2.291702 1_556
In10 O111 2.302221 1_555
In10 O113 2.483026 1_555
In11 O44 2.079293 1_555
In11 O42 2.088805 1_555
In11 O118 2.098337 1_555
In11 O46 2.191052 1_555
In11 O116 2.378253 1_555
In11 O114 2.381511 1_555
In12 O45 2.065612 1_555
In12 O47 2.067389 1_555
In12 O43 2.209266 1_555
In12 O117 2.231158 1_555
In12 O119 2.255218 1_555
In12 O115 2.331402 1_555
In13 O48 2.005952 1_554
In13 O122 2.042804 1_555
In13 O52 2.192127 1_554
In13 O50 2.216735 1_554
In13 O124 2.263329 1_555
In13 O120 2.309128 1_555
In14 O123 2.063098 1_555
In14 O49 2.078714 1_554
In14 O121 2.126766 1_555
In14 O51 2.213886 1_554
In14 O53 2.236772 1_554
In14 O125 2.344107 1_555
In15 O130 2.093033 1_555
In15 O126 2.095199 1_555
In15 O128 2.123341 1_555
In15 O54 2.156624 1_555
In15 O56 2.206805 1_555
In15 O58 2.227085 1_555
In16 O59 2.001355 1_555
In16 O129 2.107987 1_555
In16 O57 2.185501 1_555
In16 O131 2.252190 1_555
In16 O55 2.253861 1_555
In16 O127 2.302539 1_555
In17 O134 2.103895 1_555
In17 O132 2.106296 1_555
In17 O136 2.138613 1_555
In17 O60 2.208320 1_555
In17 O64 2.226860 1_555
In17 O62 2.274691 1_555
In18 O61 2.037730 1_555
In18 O135 2.127426 1_555
In18 O137 2.156933 1_555
In18 O65 2.214908 1_555
In18 O63 2.341811 1_555
In18 O133 2.412207 1_555
In19 O70 2.047054 1_555
In19 O138 2.206179 1_555
In19 O66 2.212920 1_555
In19 O68 2.214501 1_555
In19 O142 2.260517 1_555
In19 O140 2.314918 1_555
In20 O71 2.043188 1_555
In20 O139 2.104662 1_555
In20 O143 2.177450 1_555
In20 O67 2.222797 1_555
In20 O69 2.276255 1_555
In20 O141 2.296411 1_555
O0 Si0 1.609255 1_555
O1 S0 1.472981 1_555
O2 Si1 1.619484 1_555
O3 Si2 1.608262 1_555
O4 Si4 1.612981 1_555
O5 Si3 1.612932 1_555
O6 Si5 1.617956 1_555
O7 Si6 1.651510 1_555
O8 S2 1.486096 1_555
O9 S1 1.463438 1_655
O10 S3 1.471972 1_555
O11 Si7 1.605679 1_555
O12 S3 1.492537 1_565
O13 Si7 1.696357 1_565
O14 Si5 1.695907 1_555
O15 Si6 1.621859 1_555
O16 S1 1.491630 1_555
O17 S2 1.484209 1_555
O18 Si1 1.667433 1_555
O19 Si2 1.713252 1_555
O20 Si3 1.678148 1_455
O21 Si4 1.669232 1_555
O22 Si0 1.699790 1_565
O23 S0 1.484500 1_565
O24 S4 1.474638 1_555
O25 Si8 1.622588 1_555
O26 Si9 1.625468 1_555
O27 S5 1.491226 1_555
O28 Si10 1.641220 1_555
O29 Si11 1.625422 1_555
O30 Si12 1.629146 1_555
O31 Si13 1.627640 1_555
O32 S6 1.478310 1_555
O33 S7 1.486225 1_555
O34 S8 1.480599 1_555
O35 Si14 1.634790 1_555
O36 S8 1.492119 1_555
O37 Si14 1.628062 1_555
O38 Si12 1.616956 1_555
O39 Si13 1.620627 1_555
O40 S6 1.468580 1_555
O41 S7 1.469710 1_555
O42 Si9 1.626880 1_555
O43 S5 1.476282 1_555
O44 Si10 1.622853 1_555
O45 Si11 1.628121 1_555
O46 S4 1.485783 1_555
O47 Si8 1.621266 1_555
O48 Si15 1.620623 1_555
O49 Si16 1.641240 1_555
O50 S9 1.468923 1_555
O51 S10 1.477222 1_555
O52 S11 1.468252 1_555
O53 S12 1.460979 1_555
O54 S13 1.496170 1_555
O55 S14 1.487715 1_555
O56 S15 1.493011 1_555
O57 S16 1.473224 1_555
O58 S17 1.485652 1_555
O59 Si17 1.623154 1_555
O60 S17 1.485686 1_555
O61 Si17 1.652025 1_555
O62 S13 1.492562 1_555
O63 S14 1.488559 1_555
O64 S15 1.494665 1_555
O65 S16 1.492548 1_555
O66 S9 1.507716 1_555
O67 S10 1.479043 1_555
O68 S11 1.490511 1_555
O69 S12 1.501364 1_555
O70 Si15 1.662043 1_555
O71 Si16 1.645626 1_555
O72 S17 1.483373 1_555
O73 Si17 1.666874 1_555
O74 S13 1.485239 1_555
O75 S14 1.496523 1_555
O76 S15 1.478687 1_555
O77 S16 1.478572 1_555
O78 S9 1.492311 1_555
O79 S10 1.494781 1_555
O80 S11 1.493008 1_555
O81 S12 1.503305 1_555
O82 Si15 1.641000 1_555
O83 Si16 1.641903 1_555
O84 S4 1.489088 1_555
O85 Si8 1.689483 1_555
O86 Si9 1.677616 1_555
O87 S5 1.476691 1_555
O88 Si10 1.649869 1_555
O89 Si11 1.710776 1_555
O90 Si12 1.695980 1_555
O91 Si13 1.708636 1_555
O92 S6 1.519773 1_555
O93 S7 1.515014 1_555
O94 S8 1.491318 1_555
O95 Si14 1.667820 1_555
O96 S3 1.475813 1_555
O97 Si7 1.630334 1_555
O98 Si5 1.638558 1_555
O99 Si6 1.667734 1_555
O100 S2 1.482909 1_555
O101 S1 1.494425 1_655
O102 Si1 1.629166 1_555
O103 Si2 1.628675 1_555
O104 Si4 1.633055 1_555
O105 Si3 1.638375 1_555
O106 Si0 1.614971 1_555
O107 S0 1.483404 1_555
O108 Si15 1.667989 1_555
O109 Si16 1.666998 1_555
O110 S10 1.486804 1_555
O111 S9 1.475127 1_655
O112 S11 1.498348 1_545
O113 S12 1.491954 1_545
O114 S13 1.471700 1_545
O115 S14 1.494992 1_545
O116 S15 1.484374 1_555
O117 S16 1.500378 1_555
O118 Si17 1.672632 1_555
O119 S17 1.495962 1_655
O120 S8 1.485595 1_555
O121 Si14 1.635012 1_555
O122 Si13 1.625217 1_455
O123 Si12 1.621946 1_555
O124 S6 1.475414 1_565
O125 S7 1.481940 1_565
O126 Si9 1.628876 1_565
O127 S5 1.486315 1_565
O128 Si10 1.666407 1_555
O129 Si11 1.645079 1_555
O130 Si8 1.623297 1_455
O131 S4 1.487019 1_555
O132 Si0 1.630997 1_565
O133 S0 1.492773 1_565
O134 Si1 1.643746 1_555
O135 Si2 1.644971 1_555
O136 Si3 1.640495 1_455
O137 Si4 1.650921 1_555
O138 Si5 1.677757 1_555
O139 Si6 1.638902 1_555
O140 S1 1.494427 1_555
O141 S2 1.482787 1_555
O142 S3 1.506109 1_565
O143 Si7 1.636528 1_565
