# generated using pymatgen
data_Li2Cu(PO3)4
_symmetry_space_group_name_H-M   'P 1'
_cell_length_a   9.43126300
_cell_length_b   9.43413300
_cell_length_c   10.13378800
_cell_angle_alpha   90.00000000
_cell_angle_beta   90.00000000
_cell_angle_gamma   90.00000000
_symmetry_Int_Tables_number   1
_chemical_formula_structural   Li2Cu(PO3)4
_chemical_formula_sum   'Li8 Cu4 P16 O48'
_cell_volume   901.66178793
_cell_formula_units_Z   4
loop_
 _symmetry_equiv_pos_site_id
 _symmetry_equiv_pos_as_xyz
  1  'x, y, z'
loop_
 _atom_site_type_symbol
 _atom_site_label
 _atom_site_symmetry_multiplicity
 _atom_site_fract_x
 _atom_site_fract_y
 _atom_site_fract_z
 _atom_site_occupancy
  Li  Li0  1  0.09579100  0.00890600  0.17936700  1
  Li  Li1  1  0.90420900  0.99109400  0.82063300  1
  Li  Li2  1  0.59579100  0.99109400  0.82063300  1
  Li  Li3  1  0.40420900  0.50890600  0.32063300  1
  Li  Li4  1  0.09579100  0.50890600  0.32063300  1
  Li  Li5  1  0.40420900  0.00890600  0.17936700  1
  Li  Li6  1  0.59579100  0.49109400  0.67936700  1
  Li  Li7  1  0.90420900  0.49109400  0.67936700  1
  Cu  Cu0  1  0.75000000  0.00237800  0.20648700  1
  Cu  Cu1  1  0.25000000  0.49762200  0.70648700  1
  Cu  Cu2  1  0.75000000  0.50237800  0.29351300  1
  Cu  Cu3  1  0.25000000  0.99762200  0.79351300  1
  P  P0  1  0.75000000  0.77657600  0.46597000  1
  P  P1  1  0.25000000  0.72342400  0.96597000  1
  P  P2  1  0.03435100  0.78705300  0.60462200  1
  P  P3  1  0.46564900  0.78705300  0.60462200  1
  P  P4  1  0.75000000  0.19822000  0.61075000  1
  P  P5  1  0.53435100  0.21294700  0.39537800  1
  P  P6  1  0.96564900  0.21294700  0.39537800  1
  P  P7  1  0.25000000  0.22342400  0.53403000  1
  P  P8  1  0.75000000  0.27657600  0.03403000  1
  P  P9  1  0.03435100  0.28705300  0.89537800  1
  P  P10  1  0.46564900  0.28705300  0.89537800  1
  P  P11  1  0.25000000  0.30178000  0.11075000  1
  P  P12  1  0.75000000  0.69822000  0.88925000  1
  P  P13  1  0.53435100  0.71294700  0.10462200  1
  P  P14  1  0.96564900  0.71294700  0.10462200  1
  P  P15  1  0.25000000  0.80178000  0.38925000  1
  O  O0  1  0.11719400  0.35008800  0.02102400  1
  O  O1  1  0.06239000  0.88199200  0.72177000  1
  O  O2  1  0.25000000  0.88352700  0.95047100  1
  O  O3  1  0.25000000  0.89812200  0.27201700  1
  O  O4  1  0.75000000  0.10187800  0.72798300  1
  O  O5  1  0.75000000  0.11647300  0.04952900  1
  O  O6  1  0.56239000  0.11800800  0.27823000  1
  O  O7  1  0.93761000  0.11800800  0.27823000  1
  O  O8  1  0.05440900  0.12950700  0.88371700  1
  O  O9  1  0.44559100  0.12950700  0.88371700  1
  O  O10  1  0.25000000  0.13551700  0.65588600  1
  O  O11  1  0.61719400  0.14991200  0.52102400  1
  O  O12  1  0.88280600  0.14991200  0.52102400  1
  O  O13  1  0.25000000  0.14458600  0.12922200  1
  O  O14  1  0.12504600  0.17608700  0.43766500  1
  O  O15  1  0.37495400  0.17608700  0.43766500  1
  O  O16  1  0.62504600  0.32391300  0.93766500  1
  O  O17  1  0.87495400  0.32391300  0.93766500  1
  O  O18  1  0.75000000  0.35541400  0.62922200  1
  O  O19  1  0.43761000  0.88199200  0.72177000  1
  O  O20  1  0.38280600  0.35008800  0.02102400  1
  O  O21  1  0.75000000  0.36448300  0.15588600  1
  O  O22  1  0.55440900  0.37049300  0.38371700  1
  O  O23  1  0.94559100  0.37049300  0.38371700  1
  O  O24  1  0.06239000  0.38199200  0.77823000  1
  O  O25  1  0.43761000  0.38199200  0.77823000  1
  O  O26  1  0.25000000  0.38352700  0.54952900  1
  O  O27  1  0.25000000  0.39812200  0.22798300  1
  O  O28  1  0.75000000  0.60187800  0.77201700  1
  O  O29  1  0.75000000  0.61647300  0.45047100  1
  O  O30  1  0.56239000  0.61800800  0.22177000  1
  O  O31  1  0.93761000  0.61800800  0.22177000  1
  O  O32  1  0.05440900  0.62950700  0.61628300  1
  O  O33  1  0.44559100  0.62950700  0.61628300  1
  O  O34  1  0.25000000  0.63551700  0.84411400  1
  O  O35  1  0.61719400  0.64991200  0.97897600  1
  O  O36  1  0.88280600  0.64991200  0.97897600  1
  O  O37  1  0.25000000  0.64458600  0.37077800  1
  O  O38  1  0.12504600  0.67608700  0.06233500  1
  O  O39  1  0.37495400  0.67608700  0.06233500  1
  O  O40  1  0.62504600  0.82391300  0.56233500  1
  O  O41  1  0.87495400  0.82391300  0.56233500  1
  O  O42  1  0.75000000  0.85541400  0.87077800  1
  O  O43  1  0.11719400  0.85008800  0.47897600  1
  O  O44  1  0.94559100  0.87049300  0.11628300  1
  O  O45  1  0.75000000  0.86448300  0.34411400  1
  O  O46  1  0.55440900  0.87049300  0.11628300  1
  O  O47  1  0.38280600  0.85008800  0.47897600  1
loop_
_geom_bond_atom_site_label_1
_geom_bond_atom_site_label_2
_geom_bond_distance
_geom_bond_site_symmetry_2
Li0 O13 2.002978 1_555
Li0 O3 2.022153 1_545
Li0 O44 2.029901 1_445
Li0 O7 2.070929 1_455
Li1 O42 2.002978 1_555
Li1 O4 2.022153 1_565
Li1 O8 2.029901 1_665
Li1 O1 2.070929 1_655
Li2 O42 2.002978 1_555
Li2 O4 2.022153 1_565
Li2 O9 2.029901 1_565
Li2 O19 2.070929 1_555
Li3 O37 2.002978 1_555
Li3 O27 2.022153 1_555
Li3 O22 2.029901 1_555
Li3 O30 2.070929 1_555
Li4 O37 2.002978 1_555
Li4 O27 2.022153 1_555
Li4 O23 2.029901 1_455
Li4 O31 2.070929 1_455
Li5 O13 2.002978 1_555
Li5 O3 2.022153 1_545
Li5 O46 2.029901 1_545
Li5 O6 2.070929 1_555
Li6 O18 2.002978 1_555
Li6 O28 2.022153 1_555
Li6 O33 2.029901 1_555
Li6 O25 2.070929 1_555
Li7 O18 2.002978 1_555
Li7 O28 2.022153 1_555
Li7 O32 2.029901 1_655
Li7 O24 2.070929 1_655
Cu0 O45 1.907232 1_545
Cu0 O5 1.920560 1_555
Cu0 O6 2.202121 1_555
Cu0 O7 2.202121 1_555
Cu0 O44 2.405512 1_545
Cu0 O46 2.405512 1_545
Cu1 O34 1.907232 1_555
Cu1 O26 1.920560 1_555
Cu1 O24 2.202121 1_555
Cu1 O25 2.202121 1_555
Cu1 O33 2.405512 1_555
Cu1 O32 2.405512 1_555
Cu2 O21 1.907232 1_555
Cu2 O29 1.920560 1_555
Cu2 O30 2.202121 1_555
Cu2 O31 2.202121 1_555
Cu2 O23 2.405512 1_555
Cu2 O22 2.405512 1_555
Cu3 O10 1.907232 1_565
Cu3 O2 1.920560 1_555
Cu3 O1 2.202121 1_555
Cu3 O19 2.202121 1_555
Cu3 O9 2.405512 1_565
Cu3 O8 2.405512 1_565
O0 P9 1.607891 1_554
O0 P11 1.613472 1_555
O1 P2 1.510458 1_555
O2 P1 1.518577 1_555
O3 P15 1.495822 1_555
O4 P4 1.495822 1_555
O5 P8 1.518577 1_555
O6 P5 1.510458 1_555
O7 P6 1.510458 1_555
O8 P9 1.502953 1_555
O9 P10 1.502953 1_555
O10 P7 1.487504 1_555
O11 P5 1.607891 1_555
O11 P4 1.613472 1_555
O12 P6 1.607891 1_555
O12 P4 1.613472 1_555
O13 P11 1.494757 1_555
O14 P7 1.594325 1_555
O14 P6 1.601411 1_455
O15 P7 1.594325 1_555
O15 P5 1.601411 1_555
O16 P8 1.594325 1_556
O16 P10 1.601411 1_555
O17 P8 1.594325 1_556
O17 P9 1.601411 1_655
O18 P4 1.494757 1_555
O19 P3 1.510458 1_555
O20 P10 1.607891 1_554
O20 P11 1.613472 1_555
O21 P8 1.487504 1_555
O22 P5 1.502953 1_555
O23 P6 1.502953 1_555
O24 P9 1.510458 1_555
O25 P10 1.510458 1_555
O26 P7 1.518577 1_555
O27 P11 1.495822 1_555
O28 P12 1.495822 1_555
O29 P0 1.518577 1_555
O30 P13 1.510458 1_555
O31 P14 1.510458 1_555
O32 P2 1.502953 1_555
O33 P3 1.502953 1_555
O34 P1 1.487504 1_555
O35 P13 1.607891 1_556
O35 P12 1.613472 1_555
O36 P14 1.607891 1_556
O36 P12 1.613472 1_555
O37 P15 1.494757 1_555
O38 P1 1.594325 1_554
O38 P14 1.601411 1_455
O39 P1 1.594325 1_554
O39 P13 1.601411 1_555
O40 P0 1.594325 1_555
O40 P3 1.601411 1_555
O41 P0 1.594325 1_555
O41 P2 1.601411 1_655
O42 P12 1.494757 1_555
O43 P2 1.607891 1_555
O43 P15 1.613472 1_555
O44 P14 1.502953 1_555
O45 P0 1.487504 1_555
O46 P13 1.502953 1_555
O47 P3 1.607891 1_555
O47 P15 1.613472 1_555
