# generated using pymatgen
data_LiYbPb
_symmetry_space_group_name_H-M   'P 1'
_cell_length_a   4.95719542
_cell_length_b   4.95719542
_cell_length_c   10.91960900
_cell_angle_alpha   90.00000000
_cell_angle_beta   90.00000000
_cell_angle_gamma   119.99999228
_symmetry_Int_Tables_number   1
_chemical_formula_structural   LiYbPb
_chemical_formula_sum   'Li3 Yb3 Pb3'
_cell_volume   232.38593179
_cell_formula_units_Z   3
loop_
 _symmetry_equiv_pos_site_id
 _symmetry_equiv_pos_as_xyz
  1  'x, y, z'
loop_
 _atom_site_type_symbol
 _atom_site_label
 _atom_site_symmetry_multiplicity
 _atom_site_fract_x
 _atom_site_fract_y
 _atom_site_fract_z
 _atom_site_occupancy
  Li  Li0  1  0.00000000  0.00000000  0.19590500  1
  Li  Li1  1  0.33333300  0.66666700  0.50000000  1
  Li  Li2  1  0.00000000  0.00000000  0.80409500  1
  Yb  Yb0  1  0.66666700  0.33333300  0.66653300  1
  Yb  Yb1  1  0.66666700  0.33333300  0.33346700  1
  Yb  Yb2  1  0.66666700  0.33333300  0.00000000  1
  Pb  Pb0  1  0.33333300  0.66666700  0.84513900  1
  Pb  Pb1  1  0.33333300  0.66666700  0.15486100  1
  Pb  Pb2  1  0.00000000  0.00000000  0.50000000  1
loop_
_geom_bond_atom_site_label_1
_geom_bond_atom_site_label_2
_geom_bond_distance
_geom_bond_site_symmetry_2
Li0 Pb1 2.896915 1_545
Li0 Pb1 2.896919 1_555
Li0 Pb1 2.896919 1_445
Li0 Yb1 3.232278 1_455
Li0 Yb1 3.232282 1_555
Li0 Yb1 3.232282 1_445
Li0 Pb2 3.320598 1_555
Li1 Pb2 2.862035 1_565
Li1 Pb2 2.862040 1_555
Li1 Pb2 2.862040 1_665
Li1 Yb1 3.390885 1_455
Li1 Yb0 3.390885 1_455
Li1 Yb1 3.390885 1_565
Li1 Yb0 3.390885 1_565
Li1 Yb1 3.390892 1_555
Li1 Yb0 3.390892 1_555
Li2 Pb0 2.896915 1_545
Li2 Pb0 2.896919 1_445
Li2 Pb0 2.896919 1_555
Li2 Yb0 3.232278 1_455
Li2 Yb0 3.232282 1_445
Li2 Yb0 3.232282 1_555
Li2 Pb2 3.320598 1_555
Pb0 Yb2 3.324275 1_456
Pb0 Yb2 3.324275 1_566
Pb0 Yb2 3.324282 1_556
Pb0 Yb0 3.463372 1_455
Pb0 Yb0 3.463372 1_565
Pb0 Yb0 3.463379 1_555
Pb1 Yb2 3.324275 1_455
Pb1 Yb2 3.324275 1_565
Pb1 Yb2 3.324282 1_555
Pb1 Yb1 3.463372 1_455
Pb1 Yb1 3.463372 1_565
Pb1 Yb1 3.463379 1_555
Pb2 Yb1 3.390884 1_455
Pb2 Yb0 3.390884 1_455
Pb2 Yb1 3.390888 1_555
Pb2 Yb1 3.390888 1_445
Pb2 Yb0 3.390888 1_555
Pb2 Yb0 3.390888 1_445
