# generated using pymatgen
data_MgMo3(Se2S)2
_symmetry_space_group_name_H-M   'P 1'
_cell_length_a   3.28326300
_cell_length_b   3.28321277
_cell_length_c   36.17756637
_cell_angle_alpha   89.98550332
_cell_angle_beta   90.00000000
_cell_angle_gamma   120.00047585
_symmetry_Int_Tables_number   1
_chemical_formula_structural   MgMo3(Se2S)2
_chemical_formula_sum   'Mg1 Mo3 Se4 S2'
_cell_volume   337.73228672
_cell_formula_units_Z   1
loop_
 _symmetry_equiv_pos_site_id
 _symmetry_equiv_pos_as_xyz
  1  'x, y, z'
loop_
 _atom_site_type_symbol
 _atom_site_label
 _atom_site_symmetry_multiplicity
 _atom_site_fract_x
 _atom_site_fract_y
 _atom_site_fract_z
 _atom_site_occupancy
  Mg  Mg0  1  0.66680100  0.33360000  0.45582100  1
  Mo  Mo0  1  0.33332800  0.66665700  0.11552100  1
  Mo  Mo1  1  0.33331600  0.66663200  0.58392100  1
  Mo  Mo2  1  0.66660300  0.33320400  0.33757800  1
  Se  Se0  1  0.66675500  0.33351000  0.06889000  1
  Se  Se1  1  0.66666600  0.33333200  0.53703700  1
  Se  Se2  1  0.66657000  0.33314000  0.16215200  1
  Se  Se3  1  0.66661800  0.33323500  0.63060500  1
  S  S0  1  0.33322600  0.66645400  0.38003800  1
  S  S1  1  0.33338400  0.66677100  0.29547500  1
loop_
_geom_bond_atom_site_label_1
_geom_bond_atom_site_label_2
_geom_bond_distance
_geom_bond_site_symmetry_2
Mg0 Se1 2.938197 1_555
Mo0 Se2 2.537513 1_565
Mo0 Se0 2.537542 1_455
Mo0 Se0 2.537543 1_555
Mo0 Se0 2.537562 1_565
Mo0 Se2 2.537566 1_455
Mo0 Se2 2.537568 1_555
Mo1 Se3 2.538714 1_455
Mo1 Se3 2.538715 1_555
Mo1 Se3 2.539043 1_565
Mo1 Se1 2.543330 1_565
Mo1 Se1 2.543799 1_555
Mo1 Se1 2.543800 1_455
Mo2 S1 2.431540 1_545
Mo2 S1 2.431813 1_655
Mo2 S1 2.431824 1_555
Mo2 S0 2.439657 1_545
Mo2 S0 2.439922 1_655
Mo2 S0 2.439930 1_555
