# generated using pymatgen
data_Na6Mg(CoO3)2
_symmetry_space_group_name_H-M   'P 1'
_cell_length_a   6.00995213
_cell_length_b   6.27041711
_cell_length_c   5.86509156
_cell_angle_alpha   65.66775152
_cell_angle_beta   95.68367018
_cell_angle_gamma   89.28881577
_symmetry_Int_Tables_number   1
_chemical_formula_structural   Na6Mg(CoO3)2
_chemical_formula_sum   'Na6 Mg1 Co2 O6'
_cell_volume   200.05650386
_cell_formula_units_Z   1
loop_
 _symmetry_equiv_pos_site_id
 _symmetry_equiv_pos_as_xyz
  1  'x, y, z'
loop_
 _atom_site_type_symbol
 _atom_site_label
 _atom_site_symmetry_multiplicity
 _atom_site_fract_x
 _atom_site_fract_y
 _atom_site_fract_z
 _atom_site_occupancy
  Na  Na0  1  0.37396332  0.47544495  0.69323489  1
  Na  Na1  1  0.62603298  0.52455846  0.30676824  1
  Na  Na2  1  0.00084479  0.21265795  0.60566585  1
  Na  Na3  1  0.99915928  0.78734937  0.39433099  1
  Na  Na4  1  0.25876755  0.86559260  0.00312144  1
  Na  Na5  1  0.74121917  0.13440298  0.99686883  1
  Mg  Mg0  1  0.99999652  0.49999360  0.00000516  1
  Co  Co0  1  0.64937133  0.83373013  0.68330976  1
  Co  Co1  1  0.35063365  0.16626892  0.31669394  1
  O  O0  1  0.76893069  0.52435032  0.69877011  1
  O  O1  1  0.23107002  0.47564882  0.30123073  1
  O  O2  1  0.83128484  0.78252973  0.00324323  1
  O  O3  1  0.16872095  0.21747001  0.99675704  1
  O  O4  1  0.69297202  0.13111078  0.37876843  1
  O  O5  1  0.30703290  0.86889038  0.62123134  1
loop_
_geom_bond_atom_site_label_1
_geom_bond_atom_site_label_2
_geom_bond_distance
_geom_bond_site_symmetry_2
Na0 O3 2.327815 1_555
Na0 O5 2.347282 1_555
Na0 O1 2.372766 1_555
Na0 O0 2.395980 1_555
Na1 O2 2.327850 1_555
Na1 O4 2.347309 1_555
Na1 O0 2.372750 1_555
Na1 O1 2.395957 1_555
Na2 O4 2.356384 1_455
Na2 O3 2.424809 1_555
Na2 O1 2.437543 1_555
Na2 O0 2.650149 1_455
Na2 O5 2.783368 1_545
Na3 O5 2.356380 1_655
Na3 O2 2.424806 1_555
Na3 O0 2.437587 1_555
Na3 O1 2.650167 1_655
Na3 O4 2.783342 1_565
Na4 O3 2.249674 1_564
Na4 O5 2.278604 1_554
Na4 O1 2.368148 1_555
Na4 O2 2.627753 1_455
Na5 O2 2.249650 1_546
Na5 O4 2.278649 1_556
Na5 O0 2.368158 1_555
Na5 O3 2.627869 1_655
Mg0 O3 2.038139 1_654
Mg0 O2 2.038145 1_555
Mg0 O0 2.087986 1_554
Mg0 O1 2.087992 1_655
Co0 O2 1.976839 1_556
Co0 O0 2.023718 1_555
Co0 O4 2.023942 1_565
Co0 O5 2.046567 1_555
Co1 O3 1.976852 1_554
Co1 O1 2.023721 1_555
Co1 O5 2.023923 1_545
Co1 O4 2.046565 1_555
