# generated using pymatgen
data_MgCrSbO4
_symmetry_space_group_name_H-M   'P 1'
_cell_length_a   5.23797755
_cell_length_b   10.95544684
_cell_length_c   10.49458165
_cell_angle_alpha   16.68201330
_cell_angle_beta   31.21960191
_cell_angle_gamma   34.99545761
_symmetry_Int_Tables_number   1
_chemical_formula_structural   MgCrSbO4
_chemical_formula_sum   'Mg1 Cr1 Sb1 O4'
_cell_volume   89.60431206
_cell_formula_units_Z   1
loop_
 _symmetry_equiv_pos_site_id
 _symmetry_equiv_pos_as_xyz
  1  'x, y, z'
loop_
 _atom_site_type_symbol
 _atom_site_label
 _atom_site_symmetry_multiplicity
 _atom_site_fract_x
 _atom_site_fract_y
 _atom_site_fract_z
 _atom_site_occupancy
  Mg  Mg0  1  0.00001649  0.50000029  0.99998666  1
  Cr  Cr0  1  0.50002325  0.99997855  0.49999007  1
  Sb  Sb0  1  0.49998183  0.50001982  0.50000998  1
  O  O0  1  0.18402201  0.99998993  0.28564482  1
  O  O1  1  0.32292719  0.49996427  0.19228591  1
  O  O2  1  0.81592769  0.99995662  0.71443078  1
  O  O3  1  0.67710154  0.50008952  0.80765177  1
loop_
_geom_bond_atom_site_label_1
_geom_bond_atom_site_label_2
_geom_bond_distance
_geom_bond_site_symmetry_2
Mg0 O1 2.099993 1_456
Mg0 O3 2.100062 1_555
Mg0 O0 2.180214 1_546
Mg0 O2 2.180230 1_455
Mg0 O0 2.180326 1_555
Mg0 O2 2.180587 1_446
Cr0 O0 2.027828 1_655
Cr0 O2 2.027885 1_455
Cr0 O3 2.049580 1_555
Cr0 O1 2.050117 1_565
Cr0 O3 2.050262 1_564
Cr0 O1 2.050333 1_556
O0 Sb0 2.389634 1_555
O0 Sb0 2.389927 1_564
O1 Sb0 2.280376 1_455
O2 Sb0 2.390022 1_556
O2 Sb0 2.390114 1_565
O3 Sb0 2.280288 1_655
