# generated using pymatgen
data_NpBr3
_symmetry_space_group_name_H-M   'P 1'
_cell_length_a   8.00555733
_cell_length_b   8.00580777
_cell_length_c   4.41260259
_cell_angle_alpha   89.99877754
_cell_angle_beta   90.00264408
_cell_angle_gamma   120.00049036
_symmetry_Int_Tables_number   1
_chemical_formula_structural   NpBr3
_chemical_formula_sum   'Np2 Br6'
_cell_volume   244.91762006
_cell_formula_units_Z   2
loop_
 _symmetry_equiv_pos_site_id
 _symmetry_equiv_pos_as_xyz
  1  'x, y, z'
loop_
 _atom_site_type_symbol
 _atom_site_label
 _atom_site_symmetry_multiplicity
 _atom_site_fract_x
 _atom_site_fract_y
 _atom_site_fract_z
 _atom_site_occupancy
  Np  Np0  1  0.66666234  0.33333181  0.74647601  1
  Np  Np1  1  0.33332748  0.66667681  0.24628009  1
  Br  Br0  1  0.61174282  0.69827343  0.75145100  1
  Br  Br1  1  0.91341467  0.61159345  0.25097166  1
  Br  Br2  1  0.38841667  0.30183915  0.25097344  1
  Br  Br3  1  0.08652407  0.38823805  0.75146172  1
  Br  Br4  1  0.30171859  0.91345255  0.75139078  1
  Br  Br5  1  0.69819236  0.08659474  0.25099531  1
loop_
_geom_bond_atom_site_label_1
_geom_bond_atom_site_label_2
_geom_bond_distance
_geom_bond_site_symmetry_2
Br0 Np1 3.039089 1_556
Br0 Np1 3.071900 1_555
Br0 Np0 3.164553 1_555
Br1 Np0 3.040561 1_555
Br1 Np0 3.069152 1_554
Br1 Np1 3.164339 1_655
Br2 Np0 3.040382 1_555
Br2 Np0 3.069189 1_554
Br2 Np1 3.164534 1_555
Br3 Np1 3.039017 1_556
Br3 Np1 3.072099 1_555
Br3 Np0 3.164496 1_455
Br4 Np1 3.039021 1_556
Br4 Np1 3.071668 1_555
Br4 Np0 3.164592 1_565
Br5 Np0 3.040502 1_555
Br5 Np0 3.069230 1_554
Br5 Np1 3.164523 1_545
