# generated using pymatgen
data_Na5HfMg3P3(SO8)3
_symmetry_space_group_name_H-M   'P 1'
_cell_length_a   8.89028865
_cell_length_b   8.89760899
_cell_length_c   22.38975988
_cell_angle_alpha   90.06463893
_cell_angle_beta   89.86025655
_cell_angle_gamma   119.86247700
_symmetry_Int_Tables_number   1
_chemical_formula_structural   Na5HfMg3P3(SO8)3
_chemical_formula_sum   'Na15 Hf3 Mg9 P9 S9 O72'
_cell_volume   1535.91831647
_cell_formula_units_Z   3
loop_
 _symmetry_equiv_pos_site_id
 _symmetry_equiv_pos_as_xyz
  1  'x, y, z'
loop_
 _atom_site_type_symbol
 _atom_site_label
 _atom_site_symmetry_multiplicity
 _atom_site_fract_x
 _atom_site_fract_y
 _atom_site_fract_z
 _atom_site_occupancy
  Na  Na0  1  0.00177128  0.63584858  0.25508216  1
  Na  Na1  1  0.30078000  0.33986876  0.58870768  1
  Na  Na2  1  0.02612887  0.69148758  0.58146239  1
  Na  Na3  1  0.67182697  0.96296178  0.58015676  1
  Na  Na4  1  0.67002542  0.69945267  0.08248188  1
  Na  Na5  1  0.03386537  0.34065157  0.08543544  1
  Na  Na6  1  0.97947117  0.67965596  0.91214461  1
  Na  Na7  1  0.32398146  0.29564250  0.90668575  1
  Na  Na8  1  0.70186513  0.67954955  0.41671106  1
  Na  Na9  1  0.99683297  0.00282201  0.49453408  1
  Na  Na10  1  0.00042017  0.99383286  0.99498541  1
  Na  Na11  1  0.65672018  0.32026811  0.82177862  1
  Na  Na12  1  0.65697362  0.30609604  0.33204206  1
  Na  Na13  1  0.33516109  0.67815029  0.17160268  1
  Na  Na14  1  0.33200249  0.65239047  0.66529850  1
  Hf  Hf0  1  0.66969990  0.33334248  0.97911719  1
  Hf  Hf1  1  0.68024855  0.33411857  0.47910454  1
  Hf  Hf2  1  0.33549291  0.66385158  0.81252357  1
  Mg  Mg0  1  0.00223420  0.00521341  0.35297109  1
  Mg  Mg1  1  0.00042507  0.00685576  0.84826089  1
  Mg  Mg2  1  0.99907232  0.00664748  0.65265709  1
  Mg  Mg3  1  0.00493665  0.99407757  0.15330368  1
  Mg  Mg4  1  0.66608715  0.34185494  0.68574846  1
  Mg  Mg5  1  0.66615888  0.33056717  0.18663108  1
  Mg  Mg6  1  0.32745342  0.67252318  0.01469959  1
  Mg  Mg7  1  0.33261445  0.66731511  0.51265015  1
  Mg  Mg8  1  0.33596564  0.67408725  0.32006033  1
  P  P0  1  0.29813562  0.28999018  0.74996253  1
  P  P1  1  0.96315202  0.33438455  0.58690958  1
  P  P2  1  0.66501799  0.62775850  0.58419292  1
  P  P3  1  0.96481214  0.63076253  0.08613591  1
  P  P4  1  0.62919986  0.67449070  0.92039121  1
  P  P5  1  0.04354908  0.37053515  0.91913192  1
  P  P6  1  0.33008412  0.95730259  0.91720662  1
  P  P7  1  0.62740740  0.95722937  0.41658422  1
  P  P8  1  0.04392709  0.67393597  0.41548891  1
  S  S0  1  0.29513754  0.00183491  0.25010329  1
  S  S1  1  0.70115825  0.70401289  0.24911177  1
  S  S2  1  0.00193835  0.29383133  0.24851422  1
  S  S3  1  0.99751436  0.70615072  0.75025567  1
  S  S4  1  0.70825379  0.00395031  0.74935862  1
  S  S5  1  0.37451947  0.04032721  0.58492112  1
  S  S6  1  0.66416798  0.03730919  0.08564753  1
  S  S7  1  0.37104085  0.33120756  0.08482338  1
  S  S8  1  0.32977467  0.37140845  0.41682693  1
  O  O0  1  0.21155504  0.02429982  0.30316598  1
  O  O1  1  0.81338544  0.78776992  0.30164030  1
  O  O2  1  0.98233766  0.18607246  0.30018130  1
  O  O3  1  0.21173192  0.19027385  0.80762357  1
  O  O4  1  0.97936069  0.78857652  0.80509591  1
  O  O5  1  0.81065393  0.01960200  0.80246142  1
  O  O6  1  0.77984529  0.97290124  0.69401275  1
  O  O7  1  0.19023289  0.21280306  0.69309738  1
  O  O8  1  0.02196877  0.80973287  0.69594850  1
  O  O9  1  0.78161754  0.80711422  0.19358959  1
  O  O10  1  0.02023317  0.21493122  0.19182046  1
  O  O11  1  0.18725151  0.97390075  0.19590438  1
  O  O12  1  0.87306996  0.36340068  0.63957843  1
  O  O13  1  0.48435843  0.12089150  0.63703861  1
  O  O14  1  0.63188444  0.50673663  0.63646921  1
  O  O15  1  0.87361031  0.51278181  0.14004464  1
  O  O16  1  0.64048115  0.12247537  0.13798784  1
  O  O17  1  0.48418474  0.35487846  0.13582285  1
  O  O18  1  0.45185258  0.30725461  0.02873133  1
  O  O19  1  0.84503944  0.53625966  0.02908770  1
  O  O20  1  0.68913321  0.14800939  0.03115261  1
  O  O21  1  0.45589971  0.15124667  0.53063671  1
  O  O22  1  0.69166272  0.54135147  0.52609134  1
  O  O23  1  0.84452753  0.30389725  0.53009610  1
  O  O24  1  0.54865350  0.69243505  0.97819662  1
  O  O25  1  0.14861392  0.44878625  0.97620117  1
  O  O26  1  0.30055079  0.84695744  0.97223264  1
  O  O27  1  0.55130263  0.85249682  0.47482289  1
  O  O28  1  0.30859003  0.44767475  0.47280614  1
  O  O29  1  0.14244829  0.68930118  0.47326687  1
  O  O30  1  0.11770580  0.63934884  0.35861724  1
  O  O31  1  0.51589199  0.87265630  0.36206283  1
  O  O32  1  0.36390483  0.48497509  0.36479189  1
  O  O33  1  0.12974797  0.49609734  0.86537461  1
  O  O34  1  0.36111409  0.87351689  0.86151811  1
  O  O35  1  0.50603736  0.63684359  0.86629563  1
  O  O36  1  0.01075175  0.82808860  0.41034495  1
  O  O37  1  0.81102170  0.98002240  0.41022735  1
  O  O38  1  0.17964577  0.19770351  0.40969274  1
  O  O39  1  0.02169657  0.19153069  0.91012658  1
  O  O40  1  0.17116194  0.98217031  0.91012887  1
  O  O41  1  0.81388900  0.82221227  0.91062920  1
  O  O42  1  0.98021922  0.16918010  0.58878107  1
  O  O43  1  0.19869703  0.02145424  0.58954618  1
  O  O44  1  0.83309857  0.80755542  0.58894056  1
  O  O45  1  0.97046804  0.80699374  0.08869451  1
  O  O46  1  0.82716192  0.02760508  0.08880695  1
  O  O47  1  0.19447690  0.18012354  0.08923542  1
  O  O48  1  0.68636890  0.15662017  0.74431329  1
  O  O49  1  0.48124091  0.31480018  0.74566111  1
  O  O50  1  0.84680846  0.53042833  0.74611452  1
  O  O51  1  0.69109400  0.53064319  0.24350534  1
  O  O52  1  0.84501800  0.31668584  0.24502667  1
  O  O53  1  0.47036200  0.15647637  0.24308845  1
  O  O54  1  0.64041551  0.50004253  0.92396206  1
  O  O55  1  0.86155203  0.36085607  0.92375199  1
  O  O56  1  0.49292547  0.14456841  0.92376983  1
  O  O57  1  0.64352692  0.14161313  0.42307846  1
  O  O58  1  0.49314372  0.35739045  0.42270386  1
  O  O59  1  0.85153445  0.50747530  0.42122026  1
  O  O60  1  0.35894456  0.49199837  0.07936508  1
  O  O61  1  0.14163160  0.64113493  0.07848656  1
  O  O62  1  0.51522263  0.86166795  0.07891964  1
  O  O63  1  0.35481868  0.86508952  0.57747061  1
  O  O64  1  0.50396729  0.65090536  0.57729679  1
  O  O65  1  0.14398782  0.49717836  0.57788765  1
  O  O66  1  0.30847690  0.84035363  0.25434453  1
  O  O67  1  0.52613001  0.68225526  0.25500468  1
  O  O68  1  0.15690041  0.47211051  0.25289767  1
  O  O69  1  0.31534951  0.47818066  0.75659339  1
  O  O70  1  0.16009648  0.69093934  0.75542743  1
  O  O71  1  0.52938412  0.84350595  0.75575311  1
loop_
_geom_bond_atom_site_label_1
_geom_bond_atom_site_label_2
_geom_bond_distance
_geom_bond_site_symmetry_2
Na0 O66 2.409379 1_555
Na0 O51 2.449566 1_455
Na0 O68 2.455058 1_555
Na0 O52 2.473099 1_455
Na0 O30 2.533086 1_555
Na0 O15 2.810121 1_455
Na0 O1 2.821630 1_455
Na0 O11 2.929329 1_555
Na1 O65 2.430262 1_555
Na1 O64 2.451177 1_555
Na1 O42 2.473487 1_455
Na1 O43 2.508016 1_555
Na1 O7 2.568100 1_555
Na1 O28 2.756337 1_555
Na1 O14 2.769895 1_555
Na1 O21 2.949595 1_555
Na2 O44 2.408865 1_455
Na2 O65 2.428294 1_555
Na2 O63 2.537123 1_555
Na2 O43 2.553573 1_565
Na2 O29 2.635497 1_555
Na2 O8 2.776883 1_555
Na2 O12 2.847914 1_455
Na2 O22 2.867366 1_455
Na3 O64 2.411260 1_555
Na3 O42 2.431660 1_565
Na3 O44 2.445927 1_555
Na3 O63 2.502282 1_555
Na3 O27 2.575758 1_555
Na3 O6 2.712074 1_555
Na3 O23 2.859534 1_565
Na3 O13 2.948240 1_565
Na4 O45 2.350668 1_555
Na4 O62 2.441823 1_555
Na4 O60 2.444908 1_555
Na4 O46 2.536693 1_565
Na4 O24 2.562213 1_554
Na4 O9 2.674071 1_555
Na4 O19 2.862748 1_555
Na4 O17 2.917191 1_555
Na5 O61 2.353622 1_555
Na5 O46 2.458350 1_455
Na5 O47 2.473464 1_555
Na5 O60 2.511399 1_555
Na5 O10 2.609443 1_555
Na5 O25 2.638883 1_554
Na5 O15 2.833836 1_455
Na5 O20 2.930884 1_455
Na6 O40 2.362878 1_655
Na6 O41 2.374191 1_555
Na6 O55 2.500329 1_555
Na6 O4 2.586512 1_555
Na6 O54 2.628670 1_555
Na6 O33 2.776898 1_655
Na6 O26 2.820767 1_655
Na6 O19 2.895796 1_556
Na7 O39 2.367745 1_555
Na7 O40 2.420229 1_545
Na7 O3 2.422532 1_555
Na7 O56 2.494707 1_555
Na7 O54 2.505986 1_555
Na7 O35 2.785645 1_555
Na7 O18 2.944063 1_556
Na7 O25 2.967969 1_555
Na8 O37 2.350936 1_555
Na8 O36 2.385862 1_655
Na8 O59 2.480838 1_555
Na8 O58 2.525978 1_555
Na8 O22 2.722583 1_555
Na8 O1 2.755079 1_555
Na8 O27 2.809046 1_555
Na8 O32 2.865035 1_555
Na9 O37 2.452279 1_545
Na9 O36 2.483827 1_645
Na9 O38 2.538203 1_655
Na9 O42 2.621971 1_555
Na9 O44 2.660850 1_545
Na9 O43 2.737722 1_655
Na10 O40 2.463119 1_555
Na10 O41 2.477107 1_455
Na10 O39 2.532651 1_565
Na10 O45 2.607871 1_456
Na10 O46 2.705417 1_466
Na10 O47 2.709070 1_566
Na11 O49 2.297354 1_555
Na11 O48 2.360542 1_555
Na11 O50 2.463485 1_555
Na11 O56 2.739321 1_555
Na11 O55 2.832464 1_555
Na11 O54 2.834599 1_555
Na12 O57 2.478316 1_555
Na12 O53 2.510384 1_555
Na12 O52 2.535161 1_555
Na12 O58 2.663760 1_555
Na12 O59 2.666743 1_555
Na12 O51 2.723196 1_555
Na13 O66 2.429806 1_555
Na13 O68 2.507121 1_555
Na13 O67 2.514818 1_555
Na13 O61 2.620486 1_555
Na13 O62 2.631253 1_555
Na13 O60 2.718810 1_555
Na14 O64 2.495005 1_555
Na14 O65 2.498498 1_555
Na14 O69 2.525855 1_555
Na14 O70 2.651588 1_555
Na14 O71 2.666561 1_555
Na14 O63 2.667175 1_555
Hf0 O55 2.019970 1_555
Hf0 O19 2.035359 1_556
Hf0 O54 2.045241 1_555
Hf0 O56 2.050071 1_555
Hf0 O20 2.096548 1_556
Hf0 O18 2.140368 1_556
Hf1 O23 1.977042 1_555
Hf1 O59 2.008364 1_555
Hf1 O57 2.013513 1_555
Hf1 O22 2.080084 1_555
Hf1 O21 2.172113 1_555
Hf1 O58 2.181358 1_555
Hf2 O69 2.007794 1_555
Hf2 O35 2.044125 1_555
Hf2 O33 2.061181 1_555
Hf2 O34 2.075776 1_555
Hf2 O71 2.095731 1_555
Hf2 O70 2.123320 1_555
Mg0 O37 2.047926 1_445
Mg0 O36 2.064829 1_545
Mg0 O2 2.075244 1_455
Mg0 O38 2.085342 1_555
Mg0 O0 2.100230 1_555
Mg0 O1 2.156954 1_445
Mg1 O3 1.990535 1_555
Mg1 O5 2.027315 1_455
Mg1 O39 2.083534 1_555
Mg1 O4 2.091783 1_445
Mg1 O40 2.148026 1_545
Mg1 O41 2.163311 1_445
Mg2 O7 1.993005 1_655
Mg2 O6 2.038418 1_545
Mg2 O8 2.100154 1_645
Mg2 O42 2.100487 1_555
Mg2 O44 2.179916 1_545
Mg2 O43 2.217886 1_655
Mg3 O11 1.966417 1_555
Mg3 O9 2.056279 1_455
Mg3 O10 2.086701 1_565
Mg3 O45 2.108591 1_455
Mg3 O47 2.202990 1_565
Mg3 O46 2.270203 1_465
Mg4 O14 1.977779 1_555
Mg4 O12 2.032569 1_555
Mg4 O49 2.038129 1_555
Mg4 O13 2.122632 1_555
Mg4 O50 2.131731 1_555
Mg4 O48 2.184091 1_555
Mg5 O15 2.033398 1_555
Mg5 O16 2.059648 1_555
Mg5 O17 2.077547 1_555
Mg5 O53 2.082266 1_555
Mg5 O51 2.107858 1_555
Mg5 O52 2.111693 1_555
Mg6 O26 1.935000 1_554
Mg6 O25 2.021071 1_554
Mg6 O24 2.052349 1_554
Mg6 O61 2.092069 1_555
Mg6 O62 2.212455 1_555
Mg6 O60 2.282473 1_555
Mg7 O29 2.002762 1_555
Mg7 O27 2.004269 1_555
Mg7 O28 2.059605 1_555
Mg7 O64 2.160962 1_555
Mg7 O65 2.168478 1_555
Mg7 O63 2.211697 1_555
Mg8 O31 1.937486 1_555
Mg8 O30 2.000271 1_555
Mg8 O32 2.077806 1_555
Mg8 O66 2.186290 1_555
Mg8 O67 2.202490 1_555
Mg8 O68 2.276346 1_555
O0 S0 1.465151 1_555
O1 S1 1.482348 1_555
O2 S2 1.457056 1_655
O3 P0 1.537212 1_555
O4 S3 1.478656 1_555
O5 S4 1.463024 1_555
O6 S4 1.479008 1_565
O7 P0 1.536501 1_555
O8 S3 1.475415 1_455
O9 S1 1.497781 1_555
O10 S2 1.497081 1_555
O11 S0 1.490605 1_565
O12 P1 1.516326 1_555
O13 S5 1.461385 1_555
O14 P2 1.517080 1_555
O15 P3 1.538415 1_555
O16 S6 1.465466 1_555
O17 S7 1.467686 1_555
O18 S7 1.512053 1_555
O19 P3 1.607771 1_555
O20 S6 1.513877 1_555
O21 S5 1.504009 1_555
O22 P2 1.586530 1_555
O23 P1 1.588944 1_555
O24 P4 1.523881 1_555
O25 P5 1.531697 1_555
O26 P6 1.514991 1_555
O27 P7 1.548228 1_555
O28 S8 1.480226 1_555
O29 P8 1.531415 1_555
O30 P8 1.530486 1_555
O31 P7 1.516641 1_555
O32 S8 1.471757 1_555
O33 P5 1.558859 1_555
O34 P6 1.545162 1_555
O35 P4 1.555120 1_555
O36 P8 1.544307 1_555
O37 P7 1.547682 1_555
O38 S8 1.463518 1_555
O39 P5 1.518702 1_555
O40 P6 1.543613 1_555
O41 P4 1.523504 1_555
O42 P1 1.551687 1_555
O43 S5 1.490000 1_555
O44 P2 1.556683 1_555
O45 P3 1.544617 1_555
O46 S6 1.495779 1_555
O47 S7 1.476152 1_555
O48 S4 1.469525 1_555
O49 P0 1.532762 1_555
O50 S3 1.470526 1_555
O51 S1 1.505149 1_555
O52 S2 1.508886 1_655
O53 S0 1.486400 1_555
O54 P4 1.606242 1_555
O55 P5 1.580032 1_655
O56 P6 1.578625 1_545
O57 P7 1.580696 1_545
O58 S8 1.524368 1_555
O59 P8 1.616252 1_655
O60 S7 1.492294 1_555
O61 P3 1.537273 1_455
O62 S6 1.469038 1_565
O63 S5 1.489027 1_565
O64 P2 1.552763 1_555
O65 P1 1.550356 1_455
O66 S0 1.502502 1_565
O67 S1 1.474874 1_555
O68 S2 1.499289 1_555
O69 P0 1.610464 1_555
O70 S3 1.522031 1_455
O71 S4 1.525080 1_565
