# generated using pymatgen
data_MgZn4(Co3O8)2
_symmetry_space_group_name_H-M   'P 1'
_cell_length_a   5.80368934
_cell_length_b   5.91374385
_cell_length_c   9.81817894
_cell_angle_alpha   91.84003787
_cell_angle_beta   83.99458882
_cell_angle_gamma   119.89778902
_symmetry_Int_Tables_number   1
_chemical_formula_structural   MgZn4(Co3O8)2
_chemical_formula_sum   'Mg1 Zn4 Co6 O16'
_cell_volume   290.44727128
_cell_formula_units_Z   1
loop_
 _symmetry_equiv_pos_site_id
 _symmetry_equiv_pos_as_xyz
  1  'x, y, z'
loop_
 _atom_site_type_symbol
 _atom_site_label
 _atom_site_symmetry_multiplicity
 _atom_site_fract_x
 _atom_site_fract_y
 _atom_site_fract_z
 _atom_site_occupancy
  Mg  Mg0  1  0.60947900  0.50640400  0.02970800  1
  Zn  Zn0  1  0.81750700  0.15735700  0.98993100  1
  Zn  Zn1  1  0.31278500  0.66692600  0.52860500  1
  Zn  Zn2  1  0.66568700  0.33673400  0.42592900  1
  Zn  Zn3  1  0.25510300  0.67490200  0.85318400  1
  Co  Co0  1  0.70671800  0.85380200  0.26552300  1
  Co  Co1  1  0.78496800  0.15824500  0.71985500  1
  Co  Co2  1  0.20284600  0.34726400  0.26148700  1
  Co  Co3  1  0.77673200  0.67602400  0.73076400  1
  Co  Co4  1  0.28896000  0.16647500  0.74730000  1
  Co  Co5  1  0.19996300  0.85768100  0.25570600  1
  O  O0  1  0.88851300  0.17153900  0.17389400  1
  O  O1  1  0.63988200  0.82846600  0.62883000  1
  O  O2  1  0.13958700  0.32149100  0.64989300  1
  O  O3  1  0.89569600  0.72236000  0.16484100  1
  O  O4  1  0.36909400  0.19773300  0.16124300  1
  O  O5  1  0.14820300  0.84631200  0.65895100  1
  O  O6  1  0.43404500  0.47221800  0.85631000  1
  O  O7  1  0.05254200  0.52633500  0.37214400  1
  O  O8  1  0.48870700  0.97144700  0.36852400  1
  O  O9  1  0.46998200  0.04181700  0.85698100  1
  O  O10  1  0.01433100  0.03005500  0.36539100  1
  O  O11  1  0.93787500  0.98702100  0.85097200  1
  O  O12  1  0.41403400  0.67841400  0.14872000  1
  O  O13  1  0.88291900  0.47551100  0.89417500  1
  O  O14  1  0.49713600  0.53239000  0.36814200  1
  O  O15  1  0.62753800  0.33675100  0.63142400  1
loop_
_geom_bond_atom_site_label_1
_geom_bond_atom_site_label_2
_geom_bond_distance
_geom_bond_site_symmetry_2
Mg0 O6 2.027627 1_554
Mg0 O13 2.038160 1_554
Mg0 O4 2.044960 1_555
Mg0 O3 2.094774 1_555
Mg0 O12 2.117389 1_555
Co0 O3 1.832479 1_555
Co0 O0 1.840323 1_565
Co0 O14 1.915514 1_555
Co0 O8 1.916314 1_555
Co0 O10 1.918509 1_665
Co0 O12 1.962435 1_555
Co1 O2 1.845434 1_655
Co1 O1 1.928617 1_545
Co1 O15 1.972151 1_555
Co1 O9 1.979468 1_555
Co1 O11 2.165319 1_545
Co1 O13 2.388875 1_555
Co2 O4 1.810402 1_555
Co2 O0 1.878438 1_455
Co2 O10 1.897368 1_555
Co2 O14 1.910180 1_555
Co2 O7 1.926517 1_555
Co2 O12 2.006390 1_555
Co3 O1 1.839344 1_555
Co3 O5 1.929335 1_655
Co3 O11 2.006721 1_555
Co3 O15 2.011393 1_555
Co3 O6 2.029858 1_555
Co3 O13 2.327562 1_555
Co4 O5 1.872290 1_545
Co4 O2 1.878456 1_555
Co4 O6 1.915785 1_555
Co4 O11 1.947759 1_445
Co4 O15 1.950069 1_555
Co4 O9 1.966383 1_555
Co5 O3 1.851923 1_455
Co5 O8 1.924681 1_555
Co5 O4 1.956824 1_565
Co5 O10 2.034970 1_565
Co5 O7 2.036279 1_555
Co5 O12 2.176988 1_555
O0 Zn0 1.884333 1_554
O1 Zn1 2.001829 1_555
O2 Zn1 2.111931 1_555
O5 Zn1 2.083926 1_555
O5 Zn3 2.459230 1_555
O6 Zn3 1.940656 1_555
O7 Zn2 1.963983 1_455
O7 Zn1 2.117514 1_555
O8 Zn2 1.967273 1_565
O8 Zn1 2.183754 1_555
O9 Zn3 1.889906 1_545
O9 Zn0 2.314843 1_555
O11 Zn0 1.943689 1_565
O13 Zn3 1.878184 1_655
O13 Zn0 1.973531 1_555
O14 Zn2 1.975916 1_555
O14 Zn1 2.162217 1_555
O15 Zn2 2.006543 1_555
