# generated using pymatgen
data_CaSn2O5
_symmetry_space_group_name_H-M   'P 1'
_cell_length_a   4.00113745
_cell_length_b   5.81423166
_cell_length_c   10.86370047
_cell_angle_alpha   90.00000000
_cell_angle_beta   90.00000000
_cell_angle_gamma   110.12742837
_symmetry_Int_Tables_number   1
_chemical_formula_structural   CaSn2O5
_chemical_formula_sum   'Ca2 Sn4 O10'
_cell_volume   237.29393027
_cell_formula_units_Z   2
loop_
 _symmetry_equiv_pos_site_id
 _symmetry_equiv_pos_as_xyz
  1  'x, y, z'
loop_
 _atom_site_type_symbol
 _atom_site_label
 _atom_site_symmetry_multiplicity
 _atom_site_fract_x
 _atom_site_fract_y
 _atom_site_fract_z
 _atom_site_occupancy
  Ca  Ca0  1  0.80728127  0.61465875  0.75000000  1
  Ca  Ca1  1  0.19271973  0.38534225  0.25000000  1
  Sn  Sn0  1  0.13172057  0.26350694  0.56287914  1
  Sn  Sn1  1  0.86828043  0.73649406  0.43711986  1
  Sn  Sn2  1  0.86828043  0.73649406  0.06288014  1
  Sn  Sn3  1  0.13172057  0.26350694  0.93712086  1
  O  O0  1  0.80150885  0.60291574  0.25000000  1
  O  O1  1  0.19849215  0.39708526  0.75000000  1
  O  O2  1  0.30565695  0.61127719  0.05318249  1
  O  O3  1  0.69434505  0.38872381  0.94681751  1
  O  O4  1  0.69434505  0.38872381  0.55318249  1
  O  O5  1  0.30565695  0.61127719  0.44681651  1
  O  O6  1  0.95263356  0.90502915  0.60922149  1
  O  O7  1  0.04736644  0.09496985  0.39077851  1
  O  O8  1  0.95263356  0.90502915  0.89077851  1
  O  O9  1  0.04736644  0.09496985  0.10922249  1
loop_
_geom_bond_atom_site_label_1
_geom_bond_atom_site_label_2
_geom_bond_distance
_geom_bond_site_symmetry_2
Ca0 O6 2.202675 1_555
Ca0 O8 2.202675 1_555
Ca0 O1 2.326578 1_555
Ca0 O1 2.326622 1_655
Ca0 O3 2.468414 1_555
Ca0 O4 2.468414 1_555
Ca1 O9 2.202675 1_555
Ca1 O7 2.202683 1_555
Ca1 O0 2.326578 1_555
Ca1 O0 2.326622 1_455
Ca1 O5 2.468404 1_555
Ca1 O2 2.468414 1_555
O0 Sn2 2.159653 1_555
O0 Sn1 2.159653 1_555
O1 Sn3 2.159663 1_555
O1 Sn0 2.159663 1_555
O2 Sn2 2.116718 1_455
O2 Sn2 2.116793 1_555
O2 Sn3 2.279076 1_554
O3 Sn3 2.116713 1_655
O3 Sn3 2.116796 1_555
O3 Sn2 2.279082 1_556
O4 Sn0 2.116713 1_655
O4 Sn0 2.116796 1_555
O4 Sn1 2.279082 1_555
O5 Sn1 2.116717 1_455
O5 Sn1 2.116793 1_555
O5 Sn0 2.279082 1_555
O6 Sn0 2.020706 1_665
O6 Sn1 2.083780 1_555
O7 Sn1 2.020693 1_445
O7 Sn0 2.083775 1_555
O8 Sn3 2.020706 1_665
O8 Sn2 2.083780 1_556
O9 Sn2 2.020696 1_445
O9 Sn3 2.083785 1_554
