# generated using pymatgen
data_Na14Y4Ga4Si7S5O48
_symmetry_space_group_name_H-M   'P 1'
_cell_length_a   18.39680096
_cell_length_b   9.19341839
_cell_length_c   22.60756012
_cell_angle_alpha   89.91559266
_cell_angle_beta   90.26603695
_cell_angle_gamma   119.99967425
_symmetry_Int_Tables_number   1
_chemical_formula_structural   Na14Y4Ga4Si7S5O48
_chemical_formula_sum   'Na42 Y12 Ga12 Si21 S15 O144'
_cell_volume   3311.31271117
_cell_formula_units_Z   3
loop_
 _symmetry_equiv_pos_site_id
 _symmetry_equiv_pos_as_xyz
  1  'x, y, z'
loop_
 _atom_site_type_symbol
 _atom_site_label
 _atom_site_symmetry_multiplicity
 _atom_site_fract_x
 _atom_site_fract_y
 _atom_site_fract_z
 _atom_site_occupancy
  Na  Na0  1  0.81192339  0.99233694  0.23904930  1
  Na  Na1  1  0.18676266  0.36473107  0.26305873  1
  Na  Na2  1  0.68946960  0.36572924  0.25670008  1
  Na  Na3  1  0.99490764  0.64217561  0.23862725  1
  Na  Na4  1  0.50587884  0.65524615  0.24662209  1
  Na  Na5  1  0.31291625  0.63611226  0.75236465  1
  Na  Na6  1  0.00437494  0.35284299  0.75192953  1
  Na  Na7  1  0.49694549  0.34893756  0.74652271  1
  Na  Na8  1  0.18494130  0.00637654  0.76343116  1
  Na  Na9  1  0.68870439  0.01079766  0.76641204  1
  Na  Na10  1  0.14155048  0.33369617  0.58319156  1
  Na  Na11  1  0.63744944  0.33216986  0.58545016  1
  Na  Na12  1  0.33636877  0.97355127  0.57767003  1
  Na  Na13  1  0.83856853  0.97949609  0.58056605  1
  Na  Na14  1  0.13480593  0.94250662  0.08718180  1
  Na  Na15  1  0.64970905  0.95560573  0.08615092  1
  Na  Na16  1  0.33814391  0.69728246  0.08069104  1
  Na  Na17  1  0.83725429  0.71788278  0.07710767  1
  Na  Na18  1  0.49012710  0.68829158  0.92584218  1
  Na  Na19  1  0.98743496  0.67763020  0.92715956  1
  Na  Na20  1  0.34352070  0.01794445  0.91305395  1
  Na  Na21  1  0.84335600  0.02466852  0.92112091  1
  Na  Na22  1  0.16806140  0.30030622  0.90500412  1
  Na  Na23  1  0.67589499  0.31495416  0.90771988  1
  Na  Na24  1  0.48950897  0.29701147  0.41841211  1
  Na  Na25  1  0.98736673  0.28786809  0.42083821  1
  Na  Na26  1  0.17113173  0.03164834  0.40039784  1
  Na  Na27  1  0.66948046  0.03635406  0.40151246  1
  Na  Na28  1  0.34488890  0.66850955  0.40628541  1
  Na  Na29  1  0.84302576  0.66804358  0.40840868  1
  Na  Na30  1  0.99760278  0.01199990  0.49218076  1
  Na  Na31  1  0.49826759  0.01304463  0.49104224  1
  Na  Na32  1  0.98669801  0.98379279  0.99885686  1
  Na  Na33  1  0.50127319  0.98603787  0.99395830  1
  Na  Na34  1  0.32607631  0.32615813  0.83466519  1
  Na  Na35  1  0.82279707  0.33240587  0.83919989  1
  Na  Na36  1  0.32465569  0.31578610  0.33465373  1
  Na  Na37  1  0.82600862  0.32580999  0.32867679  1
  Na  Na38  1  0.16474787  0.68336146  0.17276822  1
  Na  Na39  1  0.66440977  0.68080748  0.16573245  1
  Na  Na40  1  0.15459869  0.64566211  0.67327012  1
  Na  Na41  1  0.66781790  0.65009001  0.67497917  1
  Y  Y0  1  0.99959517  0.01318996  0.65002452  1
  Y  Y1  1  0.49429166  0.00271620  0.64869196  1
  Y  Y2  1  0.99144662  0.99164058  0.14613886  1
  Y  Y3  1  0.50070058  0.98559318  0.14971584  1
  Y  Y4  1  0.83559293  0.33586602  0.69126785  1
  Y  Y5  1  0.33530496  0.33318416  0.19077817  1
  Y  Y6  1  0.16107719  0.66765837  0.01453373  1
  Y  Y7  1  0.67120186  0.68702816  0.01626278  1
  Y  Y8  1  0.16768434  0.65990117  0.51336157  1
  Y  Y9  1  0.66200298  0.65520598  0.51435582  1
  Y  Y10  1  0.17764151  0.68272946  0.31764479  1
  Y  Y11  1  0.67920151  0.67118074  0.81969611  1
  Ga  Ga0  1  0.99688677  0.99245728  0.34842537  1
  Ga  Ga1  1  0.50292455  0.00478561  0.34731575  1
  Ga  Ga2  1  0.00306065  0.99931945  0.84834152  1
  Ga  Ga3  1  0.49854042  0.00375242  0.85004127  1
  Ga  Ga4  1  0.33329521  0.31931089  0.69090452  1
  Ga  Ga5  1  0.83376411  0.33509041  0.18381708  1
  Ga  Ga6  1  0.33184884  0.34779889  0.97659944  1
  Ga  Ga7  1  0.83337106  0.33660434  0.98498242  1
  Ga  Ga8  1  0.33286517  0.31915038  0.48025360  1
  Ga  Ga9  1  0.83233090  0.31645371  0.47613441  1
  Ga  Ga10  1  0.68825353  0.68723391  0.31788156  1
  Ga  Ga11  1  0.18558599  0.68561238  0.81914381  1
  Si  Si0  1  0.14223534  0.99743392  0.25142360  1
  Si  Si1  1  0.65206020  0.99429379  0.25378793  1
  Si  Si2  1  0.35379804  0.70634151  0.25218942  1
  Si  Si3  1  0.84954475  0.69545553  0.25272215  1
  Si  Si4  1  0.15378925  0.30913472  0.75020376  1
  Si  Si5  1  0.64352708  0.29082013  0.75171365  1
  Si  Si6  1  0.34867403  0.99798595  0.75288605  1
  Si  Si7  1  0.85410774  0.99969013  0.75192415  1
  Si  Si8  1  0.47308921  0.34128417  0.58571724  1
  Si  Si9  1  0.97987777  0.33843181  0.57966489  1
  Si  Si10  1  0.47825980  0.62117617  0.07961101  1
  Si  Si11  1  0.97612961  0.61112745  0.08553703  1
  Si  Si12  1  0.83499429  0.05987354  0.08222929  1
  Si  Si13  1  0.32047620  0.67091966  0.91590598  1
  Si  Si14  1  0.82742836  0.66703862  0.92079375  1
  Si  Si15  1  0.16701313  0.97277973  0.91466291  1
  Si  Si16  1  0.66435608  0.98390649  0.91528930  1
  Si  Si17  1  0.32673152  0.98099234  0.42175001  1
  Si  Si18  1  0.82058630  0.96956168  0.41675185  1
  Si  Si19  1  0.16698632  0.34751353  0.41848643  1
  Si  Si20  1  0.66722116  0.36153028  0.41591076  1
  S  S0  1  0.99698966  0.29302584  0.25418455  1
  S  S1  1  0.50591591  0.30014275  0.25588135  1
  S  S2  1  0.00638716  0.71075752  0.75504502  1
  S  S3  1  0.49498396  0.69663477  0.75143501  1
  S  S4  1  0.19145586  0.04719310  0.58451024  1
  S  S5  1  0.68654791  0.04317437  0.57924943  1
  S  S6  1  0.33327522  0.61254943  0.58324275  1
  S  S7  1  0.83418145  0.62517090  0.57810984  1
  S  S8  1  0.33403225  0.04335259  0.07787602  1
  S  S9  1  0.18844724  0.33179703  0.07899567  1
  S  S10  1  0.68997628  0.33614654  0.08420790  1
  S  S11  1  0.01907574  0.36628820  0.90937907  1
  S  S12  1  0.51210384  0.36115237  0.91663781  1
  S  S13  1  0.01114364  0.66247574  0.41652449  1
  S  S14  1  0.51471228  0.66736516  0.41308172  1
  O  O0  1  0.09203433  0.01820863  0.30898391  1
  O  O1  1  0.60421398  0.03038412  0.30886344  1
  O  O2  1  0.41295662  0.81570841  0.30902680  1
  O  O3  1  0.90957171  0.78656188  0.31122984  1
  O  O4  1  0.49696196  0.20237428  0.31071426  1
  O  O5  1  0.98732013  0.19212513  0.30876222  1
  O  O6  1  0.10884019  0.17556182  0.80495474  1
  O  O7  1  0.59119752  0.16583020  0.80716562  1
  O  O8  1  0.48404150  0.77731407  0.80514978  1
  O  O9  1  0.99896277  0.79279166  0.80919418  1
  O  O10  1  0.41144152  0.02877827  0.80913868  1
  O  O11  1  0.91749266  0.01403806  0.80635474  1
  O  O12  1  0.38234460  0.95591714  0.69216227  1
  O  O13  1  0.88968036  0.98014261  0.68800951  1
  O  O14  1  0.09963706  0.23883047  0.68873669  1
  O  O15  1  0.59750096  0.21085568  0.68779100  1
  O  O16  1  0.01562189  0.81164253  0.70145250  1
  O  O17  1  0.50705662  0.79861262  0.69816846  1
  O  O18  1  0.39099901  0.80178900  0.18955359  1
  O  O19  1  0.88450819  0.81329206  0.19435388  1
  O  O20  1  0.01015569  0.21685430  0.20175533  1
  O  O21  1  0.51461199  0.21584215  0.20300944  1
  O  O22  1  0.09759631  0.99185481  0.18835986  1
  O  O23  1  0.59610062  0.95430303  0.19303386  1
  O  O24  1  0.42502586  0.34407203  0.64716228  1
  O  O25  1  0.93613296  0.34259684  0.64125222  1
  O  O26  1  0.23872009  0.13073459  0.63934761  1
  O  O27  1  0.73382687  0.12632908  0.63372316  1
  O  O28  1  0.32665935  0.51797991  0.63790144  1
  O  O29  1  0.82614783  0.52636616  0.63152004  1
  O  O30  1  0.43372837  0.53025245  0.14136559  1
  O  O31  1  0.92921395  0.51515240  0.14739804  1
  O  O32  1  0.32560605  0.12541940  0.13105549  1
  O  O33  1  0.82295020  0.14519996  0.14353446  1
  O  O34  1  0.23673208  0.34578830  0.13320778  1
  O  O35  1  0.73735086  0.35033234  0.13964850  1
  O  O36  1  0.22955361  0.31148645  0.02494149  1
  O  O37  1  0.73026433  0.31693636  0.03018904  1
  O  O38  1  0.41737455  0.51937267  0.02150315  1
  O  O39  1  0.92376303  0.51848968  0.02534890  1
  O  O40  1  0.33549822  0.13309274  0.02278821  1
  O  O41  1  0.83426012  0.15352057  0.02036576  1
  O  O42  1  0.23139989  0.14752612  0.53045367  1
  O  O43  1  0.72804154  0.14656966  0.52554565  1
  O  O44  1  0.33416959  0.52638256  0.52836985  1
  O  O45  1  0.83564239  0.53907924  0.52322857  1
  O  O46  1  0.41859956  0.33089866  0.52652707  1
  O  O47  1  0.91967558  0.32096301  0.52146561  1
  O  O48  1  0.28138684  0.70666182  0.97503228  1
  O  O49  1  0.78935320  0.71128428  0.97906906  1
  O  O50  1  0.07015440  0.44358901  0.96313317  1
  O  O51  1  0.56757004  0.44751811  0.96707528  1
  O  O52  1  0.14260594  0.85671283  0.97399163  1
  O  O53  1  0.64044996  0.85553367  0.97150122  1
  O  O54  1  0.29119065  0.87061679  0.48293727  1
  O  O55  1  0.78309848  0.85860807  0.47698659  1
  O  O56  1  0.14540776  0.42840871  0.47588256  1
  O  O57  1  0.64239528  0.42526684  0.47627178  1
  O  O58  1  0.06603043  0.68775501  0.46847663  1
  O  O59  1  0.56691116  0.69235448  0.46657322  1
  O  O60  1  0.04800680  0.63317392  0.36331287  1
  O  O61  1  0.55376392  0.63833395  0.36082444  1
  O  O62  1  0.25334638  0.89045686  0.37196541  1
  O  O63  1  0.75418736  0.88081071  0.36184637  1
  O  O64  1  0.18830021  0.47290128  0.36188805  1
  O  O65  1  0.68624298  0.49949756  0.36222647  1
  O  O66  1  0.06117028  0.47372415  0.85708276  1
  O  O67  1  0.54728269  0.45994654  0.86155100  1
  O  O68  1  0.18683903  0.87632606  0.85997710  1
  O  O69  1  0.68159197  0.89636939  0.85817981  1
  O  O70  1  0.25607333  0.62749198  0.85921799  1
  O  O71  1  0.75733612  0.60785313  0.86800880  1
  O  O72  1  0.00325020  0.81562792  0.41351598  1
  O  O73  1  0.50782688  0.82222149  0.40941377  1
  O  O74  1  0.41789746  0.99339793  0.40843046  1
  O  O75  1  0.91422608  0.98913216  0.40586063  1
  O  O76  1  0.08333036  0.15954771  0.41004147  1
  O  O77  1  0.58585392  0.17192946  0.40537744  1
  O  O78  1  0.01140344  0.19674551  0.90600101  1
  O  O79  1  0.50271484  0.19055730  0.91368989  1
  O  O80  1  0.08677309  0.00200853  0.90376268  1
  O  O81  1  0.57993241  0.00454268  0.90811144  1
  O  O82  1  0.41371041  0.83884713  0.90549087  1
  O  O83  1  0.91901097  0.83897498  0.90803280  1
  O  O84  1  0.47963747  0.16535752  0.58231851  1
  O  O85  1  0.98814280  0.16446229  0.57569068  1
  O  O86  1  0.10588107  0.02544010  0.58621616  1
  O  O87  1  0.60083749  0.02188700  0.58037186  1
  O  O88  1  0.40880684  0.78361940  0.58303058  1
  O  O89  1  0.91054473  0.79508473  0.58017603  1
  O  O90  1  0.48670318  0.81176270  0.07584201  1
  O  O91  1  0.98495455  0.80110044  0.08261195  1
  O  O92  1  0.41062073  0.02728250  0.08006885  1
  O  O93  1  0.91667980  0.03439877  0.07982970  1
  O  O94  1  0.10376763  0.18214042  0.08061183  1
  O  O95  1  0.60531015  0.18273195  0.08644443  1
  O  O96  1  0.34044059  0.17081909  0.74926846  1
  O  O97  1  0.85175712  0.17719986  0.75609876  1
  O  O98  1  0.24982593  0.33091181  0.74236496  1
  O  O99  1  0.73593536  0.30546335  0.75390279  1
  O  O100  1  0.41601455  0.52871888  0.74707672  1
  O  O101  1  0.93067258  0.54138696  0.75213815  1
  O  O102  1  0.35236785  0.52515426  0.25663910  1
  O  O103  1  0.84099984  0.50653659  0.24640108  1
  O  O104  1  0.43016276  0.31818469  0.25272051  1
  O  O105  1  0.91890120  0.30485025  0.25029213  1
  O  O106  1  0.23575813  0.16613587  0.25524874  1
  O  O107  1  0.74578963  0.16524049  0.24743145  1
  O  O108  1  0.32974682  0.49982656  0.91867338  1
  O  O109  1  0.83974969  0.50111789  0.92750913  1
  O  O110  1  0.42602951  0.33960694  0.92247356  1
  O  O111  1  0.93398505  0.34644417  0.91397219  1
  O  O112  1  0.25475606  0.16048293  0.92259426  1
  O  O113  1  0.74948682  0.16999995  0.92393162  1
  O  O114  1  0.34064550  0.17341080  0.42398900  1
  O  O115  1  0.83054146  0.15982680  0.41924707  1
  O  O116  1  0.25388209  0.33509649  0.42875214  1
  O  O117  1  0.75483583  0.34905088  0.42323010  1
  O  O118  1  0.42855827  0.51955708  0.41980787  1
  O  O119  1  0.92546139  0.51318772  0.42268678  1
  O  O120  1  0.18471528  0.48884850  0.07593077  1
  O  O121  1  0.68313050  0.48920239  0.08068090  1
  O  O122  1  0.07381946  0.64542503  0.08646749  1
  O  O123  1  0.57261450  0.64818089  0.07949180  1
  O  O124  1  0.25829448  0.86957579  0.07856467  1
  O  O125  1  0.75092700  0.86744324  0.08447653  1
  O  O126  1  0.18702057  0.88130825  0.58159003  1
  O  O127  1  0.68275269  0.87867166  0.57658288  1
  O  O128  1  0.25678528  0.63392710  0.58343975  1
  O  O129  1  0.75804772  0.64676782  0.57923168  1
  O  O130  1  0.07623383  0.50022925  0.57994485  1
  O  O131  1  0.57062017  0.49871135  0.58562854  1
  O  O132  1  0.14094104  0.81796719  0.25494897  1
  O  O133  1  0.65814645  0.82000006  0.26338568  1
  O  O134  1  0.25539602  0.66114226  0.25184916  1
  O  O135  1  0.75371138  0.66823420  0.25841350  1
  O  O136  1  0.07055573  0.46442089  0.25959788  1
  O  O137  1  0.58138099  0.47012572  0.25920513  1
  O  O138  1  0.16053182  0.49489001  0.76051330  1
  O  O139  1  0.64253929  0.46738373  0.75461349  1
  O  O140  1  0.08180967  0.69066356  0.75795092  1
  O  O141  1  0.56796222  0.67070923  0.75664461  1
  O  O142  1  0.25328091  0.83425312  0.75849013  1
  O  O143  1  0.75614104  0.84728190  0.75255379  1
loop_
_geom_bond_atom_site_label_1
_geom_bond_atom_site_label_2
_geom_bond_distance
_geom_bond_site_symmetry_2
Na0 O107 2.445375 1_565
Na0 O133 2.519114 1_555
Na0 O33 2.527644 1_565
Na0 O105 2.556473 1_565
Na0 O135 2.650703 1_555
Na0 O19 2.780100 1_555
Na0 O63 2.969237 1_555
Na1 O134 2.375820 1_555
Na1 O106 2.413533 1_555
Na1 O64 2.441233 1_555
Na1 O102 2.643537 1_555
Na1 O136 2.715500 1_555
Na2 O135 2.417783 1_555
Na2 O103 2.428495 1_555
Na2 O107 2.535270 1_555
Na2 O137 2.605393 1_555
Na2 O65 2.700074 1_555
Na2 O35 2.818871 1_555
Na2 O1 2.920012 1_555
Na3 O132 2.369884 1_655
Na3 O31 2.377126 1_555
Na3 O103 2.464961 1_555
Na3 O136 2.664186 1_655
Na3 O105 2.703101 1_555
Na4 O133 2.456360 1_555
Na4 O102 2.466748 1_555
Na4 O30 2.682952 1_555
Na4 O23 2.688334 1_555
Na4 O104 2.691788 1_555
Na4 O137 2.695454 1_555
Na4 O61 2.753318 1_555
Na5 O138 2.437823 1_555
Na5 O98 2.452304 1_555
Na5 O100 2.541951 1_555
Na5 O142 2.557656 1_555
Na5 O70 2.622103 1_555
Na5 O28 2.868573 1_555
Na5 O12 2.894322 1_555
Na5 O8 2.983807 1_555
Na6 O97 2.442893 1_455
Na6 O138 2.497994 1_555
Na6 O66 2.607999 1_555
Na6 O101 2.682035 1_455
Na6 O140 2.696040 1_555
Na6 O25 2.774703 1_455
Na6 O14 2.841750 1_555
Na6 O11 2.966312 1_455
Na7 O139 2.339399 1_555
Na7 O96 2.502345 1_555
Na7 O141 2.577701 1_555
Na7 O24 2.590740 1_555
Na7 O100 2.722072 1_555
Na7 O67 2.775269 1_555
Na7 O10 2.918928 1_555
Na8 O142 2.467459 1_545
Na8 O68 2.495613 1_545
Na8 O96 2.500786 1_555
Na8 O140 2.555688 1_545
Na8 O98 2.644461 1_555
Na8 O6 2.730310 1_555
Na9 O69 2.299216 1_545
Na9 O143 2.401473 1_545
Na9 O99 2.412421 1_555
Na9 O97 2.609439 1_555
Na9 O141 2.794790 1_545
Na9 O7 2.945154 1_555
Na10 O130 2.373136 1_555
Na10 O85 2.453515 1_455
Na10 O128 2.502251 1_555
Na10 O14 2.527295 1_555
Na10 O56 2.565589 1_555
Na10 O86 2.570341 1_555
Na11 O131 2.395455 1_555
Na11 O15 2.515081 1_555
Na11 O84 2.516300 1_555
Na11 O87 2.585128 1_555
Na11 O57 2.598286 1_555
Na11 O129 2.625270 1_555
Na12 O54 2.318623 1_555
Na12 O84 2.327590 1_565
Na12 O126 2.438853 1_555
Na12 O88 2.676625 1_555
Na12 O128 2.708996 1_555
Na12 O12 2.748998 1_555
Na13 O85 2.408045 1_565
Na13 O127 2.534765 1_555
Na13 O55 2.571252 1_555
Na13 O13 2.599546 1_555
Na13 O89 2.621585 1_555
Na13 O129 2.649684 1_555
Na14 O122 2.377853 1_555
Na14 O91 2.390503 1_455
Na14 O22 2.496942 1_555
Na14 O94 2.541210 1_565
Na14 O124 2.678849 1_555
Na14 O52 2.704344 1_554
Na15 O125 2.373965 1_555
Na15 O123 2.452125 1_555
Na15 O95 2.594769 1_565
Na15 O23 2.611862 1_555
Na15 O90 2.612401 1_555
Na15 O53 2.727608 1_554
Na16 O90 2.390636 1_555
Na16 O120 2.497930 1_555
Na16 O48 2.621025 1_554
Na16 O92 2.633832 1_565
Na16 O18 2.641250 1_555
Na16 O124 2.644814 1_555
Na17 O49 2.370977 1_554
Na17 O91 2.429482 1_555
Na17 O93 2.520722 1_565
Na17 O121 2.550790 1_555
Na17 O125 2.574349 1_555
Na17 O19 2.788186 1_555
Na18 O82 2.457995 1_555
Na18 O81 2.557864 1_565
Na18 O108 2.572542 1_555
Na18 O53 2.608355 1_555
Na18 O38 2.611247 1_556
Na18 O110 2.809286 1_555
Na18 O8 2.865240 1_555
Na19 O109 2.367788 1_555
Na19 O83 2.414937 1_555
Na19 O39 2.596350 1_556
Na19 O80 2.658430 1_665
Na19 O52 2.694038 1_655
Na19 O111 2.707812 1_555
Na19 O9 2.837374 1_555
Na20 O79 2.539242 1_555
Na20 O82 2.556672 1_545
Na20 O112 2.564044 1_555
Na20 O110 2.569916 1_555
Na20 O10 2.644320 1_555
Na20 O40 2.732085 1_556
Na20 O68 2.768234 1_545
Na20 O48 2.862070 1_545
Na21 O111 2.574095 1_555
Na21 O41 2.583585 1_556
Na21 O113 2.660803 1_555
Na21 O78 2.700855 1_655
Na21 O83 2.705624 1_545
Na21 O49 2.853517 1_545
Na21 O69 2.954275 1_545
Na21 O11 2.961161 1_555
Na22 O80 2.378355 1_555
Na22 O6 2.520629 1_555
Na22 O112 2.529232 1_555
Na22 O78 2.543539 1_555
Na22 O108 2.616262 1_555
Na22 O70 2.806600 1_555
Na22 O36 2.915229 1_556
Na23 O113 2.353987 1_555
Na23 O81 2.494532 1_555
Na23 O71 2.504519 1_555
Na23 O109 2.654550 1_555
Na23 O7 2.704693 1_555
Na23 O79 2.799368 1_555
Na23 O37 2.936467 1_556
Na24 O114 2.387047 1_555
Na24 O74 2.428881 1_545
Na24 O77 2.568021 1_555
Na24 O4 2.613921 1_555
Na24 O57 2.768788 1_555
Na24 O118 2.781880 1_555
Na24 O46 2.865526 1_555
Na25 O75 2.402294 1_545
Na25 O115 2.512709 1_555
Na25 O76 2.579826 1_655
Na25 O5 2.683379 1_555
Na25 O47 2.688109 1_555
Na25 O56 2.808173 1_655
Na25 O119 2.819479 1_555
Na26 O76 2.437720 1_555
Na26 O0 2.489329 1_555
Na26 O116 2.502066 1_555
Na26 O62 2.521984 1_545
Na26 O72 2.728360 1_545
Na26 O114 2.762327 1_555
Na27 O1 2.396452 1_555
Na27 O77 2.418078 1_555
Na27 O117 2.540457 1_555
Na27 O115 2.618324 1_555
Na27 O73 2.626967 1_545
Na27 O63 2.742722 1_545
Na28 O118 2.537745 1_555
Na28 O2 2.560518 1_555
Na28 O74 2.591464 1_555
Na28 O73 2.598004 1_555
Na28 O116 2.707031 1_555
Na28 O64 2.708883 1_555
Na29 O3 2.489313 1_555
Na29 O72 2.557479 1_655
Na29 O75 2.562506 1_555
Na29 O119 2.565939 1_555
Na29 O117 2.566923 1_555
Na29 O65 2.705152 1_555
Na29 O45 2.827628 1_555
Na29 O55 2.940021 1_555
Na30 O76 2.378260 1_655
Na30 O85 2.411238 1_555
Na30 O75 2.419956 1_545
Na30 O72 2.575174 1_645
Na30 O89 2.706195 1_545
Na30 O86 2.866713 1_655
Na31 O74 2.327049 1_545
Na31 O77 2.479452 1_555
Na31 O84 2.613697 1_555
Na31 O73 2.614421 1_545
Na31 O87 2.730824 1_555
Na31 O88 2.833694 1_545
Na32 O93 2.418771 1_566
Na32 O83 2.421918 1_555
Na32 O91 2.518856 1_556
Na32 O94 2.724968 1_666
Na32 O78 2.748307 1_665
Na32 O80 2.786894 1_665
Na33 O90 2.373219 1_556
Na33 O81 2.380875 1_565
Na33 O82 2.494880 1_555
Na33 O79 2.601835 1_565
Na33 O92 2.716536 1_566
Na33 O95 2.796060 1_566
Na34 O112 2.451508 1_555
Na34 O108 2.461845 1_555
Na34 O96 2.495355 1_555
Na34 O98 2.521458 1_555
Na34 O100 2.657996 1_555
Na34 O110 2.660220 1_555
Na35 O113 2.391554 1_555
Na35 O99 2.431140 1_555
Na35 O109 2.451213 1_555
Na35 O97 2.574250 1_555
Na35 O111 2.600538 1_555
Na35 O101 2.777777 1_555
Na36 O106 2.349477 1_555
Na36 O102 2.468314 1_555
Na36 O114 2.500102 1_555
Na36 O116 2.551524 1_555
Na36 O104 2.681316 1_555
Na36 O118 2.695352 1_555
Na37 O107 2.352665 1_555
Na37 O103 2.415339 1_555
Na37 O105 2.540919 1_555
Na37 O117 2.576153 1_555
Na37 O115 2.577692 1_555
Na37 O119 2.766762 1_555
Na38 O132 2.394016 1_555
Na38 O122 2.472803 1_555
Na38 O134 2.516137 1_555
Na38 O136 2.727569 1_555
Na38 O124 2.739574 1_555
Na38 O120 2.966727 1_555
Na39 O125 2.477669 1_555
Na39 O123 2.491530 1_555
Na39 O133 2.585125 1_555
Na39 O135 2.694408 1_555
Na39 O121 2.746178 1_555
Na39 O137 2.758562 1_555
Na40 O138 2.442262 1_555
Na40 O140 2.491882 1_555
Na40 O130 2.523899 1_555
Na40 O142 2.616010 1_555
Na40 O128 2.812282 1_555
Na40 O126 2.837438 1_555
Na41 O139 2.344482 1_555
Na41 O143 2.457572 1_555
Na41 O131 2.588599 1_555
Na41 O141 2.683283 1_555
Na41 O129 2.743385 1_555
Na41 O127 2.975651 1_555
Ga0 O0 1.874713 1_665
Ga0 O3 1.954988 1_555
Ga0 O75 1.992787 1_555
Ga0 O76 2.090932 1_665
Ga0 O5 2.126336 1_565
Ga0 O72 2.236870 1_655
Ga1 O2 1.903788 1_545
Ga1 O1 1.964502 1_555
Ga1 O77 2.013659 1_555
Ga1 O4 2.047059 1_555
Ga1 O74 2.054901 1_545
Ga1 O73 2.222445 1_545
Ga2 O11 1.896342 1_465
Ga2 O80 1.971367 1_565
Ga2 O83 2.029572 1_455
Ga2 O6 2.057750 1_565
Ga2 O9 2.062813 1_455
Ga2 O78 2.177985 1_565
Ga3 O7 1.880596 1_555
Ga3 O10 1.956983 1_555
Ga3 O81 1.984067 1_555
Ga3 O82 1.987958 1_545
Ga3 O8 2.209805 1_545
Ga3 O79 2.213638 1_555
Ga4 O24 1.873036 1_555
Ga4 O96 1.947930 1_555
Ga4 O98 1.975742 1_555
Ga4 O26 2.088568 1_555
Ga4 O100 2.166653 1_555
Ga4 O28 2.236476 1_555
Ga5 O33 1.890042 1_555
Ga5 O31 1.898490 1_555
Ga5 O103 2.073385 1_555
Ga5 O35 2.096282 1_555
Ga5 O107 2.147975 1_555
Ga5 O105 2.280634 1_555
Ga6 O38 1.871439 1_556
Ga6 O108 1.928233 1_555
Ga6 O112 2.003859 1_555
Ga6 O36 2.058450 1_556
Ga6 O110 2.157645 1_555
Ga6 O40 2.262058 1_556
Ga7 O41 1.869932 1_556
Ga7 O39 1.898417 1_556
Ga7 O109 1.951322 1_555
Ga7 O113 2.062826 1_555
Ga7 O37 2.085585 1_556
Ga7 O111 2.423061 1_555
Ga8 O46 1.846184 1_555
Ga8 O114 1.905822 1_555
Ga8 O116 1.919700 1_555
Ga8 O42 2.081117 1_555
Ga8 O44 2.184878 1_555
Ga8 O118 2.265517 1_555
Ga9 O47 1.884733 1_555
Ga9 O115 1.919941 1_555
Ga9 O117 1.990771 1_555
Ga9 O43 2.094374 1_555
Ga9 O119 2.140263 1_555
Ga9 O45 2.281959 1_555
Ga10 O63 1.860563 1_555
Ga10 O135 1.874619 1_555
Ga10 O65 1.979067 1_555
Ga10 O133 1.994924 1_555
Ga10 O137 2.380859 1_555
Ga10 O61 2.484940 1_555
Ga11 O70 1.862359 1_555
Ga11 O142 1.899243 1_555
Ga11 O68 1.972555 1_555
Ga11 O138 2.058341 1_555
Ga11 O66 2.307344 1_555
Ga11 O140 2.371669 1_555
O0 Si0 1.664649 1_545
O1 Si1 1.654885 1_545
O2 Si2 1.656222 1_555
O3 Si3 1.653896 1_555
O4 S1 1.490732 1_555
O5 S0 1.499404 1_555
O6 Si4 1.647258 1_555
O7 Si5 1.649100 1_555
O8 S3 1.489824 1_555
O9 S2 1.480990 1_655
O10 Si6 1.640539 1_545
O11 Si7 1.650672 1_545
O12 Si6 1.633073 1_555
O12 Y1 2.126926 1_565
O13 Si7 1.635728 1_555
O13 Y0 2.078361 1_565
O14 Si4 1.639257 1_555
O14 Y0 2.151503 1_455
O15 Si5 1.647760 1_555
O15 Y1 2.098623 1_555
O16 S2 1.482591 1_555
O16 Y0 2.325675 1_465
O17 S3 1.472881 1_555
O17 Y1 2.293298 1_565
O18 Si2 1.627375 1_555
O18 Y3 2.083665 1_555
O19 Si3 1.623400 1_555
O19 Y2 2.129766 1_555
O20 S0 1.459010 1_455
O20 Y2 2.297244 1_445
O21 S1 1.477660 1_555
O21 Y3 2.336833 1_545
O22 Si0 1.630005 1_555
O22 Y2 2.168741 1_455
O23 Si1 1.640539 1_555
O23 Y3 2.147114 1_555
O24 Si8 1.657203 1_555
O25 Si9 1.621449 1_555
O25 Y4 2.146677 1_555
O26 S4 1.485888 1_555
O27 S5 1.478339 1_555
O27 Y4 2.299276 1_555
O28 S6 1.479888 1_555
O29 S7 1.472794 1_555
O29 Y4 2.284098 1_555
O30 Si10 1.625244 1_555
O30 Y5 2.131014 1_555
O31 Si11 1.650870 1_555
O32 S8 1.469708 1_555
O32 Y5 2.273268 1_555
O33 Si12 1.662887 1_555
O34 S9 1.477768 1_555
O34 Y5 2.276769 1_555
O35 S10 1.491382 1_555
O36 S9 1.500189 1_555
O37 S10 1.487237 1_555
O38 Si10 1.672709 1_555
O39 Si11 1.635763 1_555
O40 S8 1.485746 1_555
O41 Si12 1.644790 1_555
O42 S4 1.487119 1_555
O43 S5 1.496641 1_555
O44 S6 1.477452 1_555
O45 S7 1.480219 1_555
O46 Si8 1.642204 1_555
O47 Si9 1.671172 1_555
O48 Si13 1.630458 1_555
O48 Y6 2.246912 1_556
O49 Si14 1.639172 1_555
O49 Y7 2.238985 1_556
O50 S11 1.479535 1_555
O50 Y6 2.221494 1_556
O51 S12 1.467493 1_555
O51 Y7 2.347200 1_556
O52 Si15 1.631410 1_555
O52 Y6 2.135278 1_556
O53 Si16 1.637975 1_555
O53 Y7 2.147185 1_556
O54 Si17 1.646659 1_555
O54 Y8 2.235497 1_555
O55 Si18 1.634522 1_555
O55 Y9 2.240640 1_555
O56 Si19 1.642337 1_555
O56 Y8 2.131917 1_555
O57 Si20 1.640082 1_555
O57 Y9 2.140107 1_555
O58 S13 1.485999 1_555
O58 Y8 2.247900 1_555
O59 S14 1.485530 1_555
O59 Y9 2.218723 1_555
O60 S13 1.473385 1_555
O60 Y10 2.428180 1_555
O61 S14 1.477718 1_555
O62 Si17 1.627008 1_555
O62 Y10 2.103851 1_555
O63 Si18 1.640389 1_555
O64 Si19 1.633442 1_555
O64 Y10 2.265138 1_555
O65 Si20 1.661271 1_555
O66 S11 1.487704 1_555
O67 S12 1.486974 1_555
O67 Y11 2.420618 1_555
O68 Si15 1.666926 1_555
O69 Si16 1.636211 1_555
O69 Y11 2.226821 1_555
O70 Si13 1.649238 1_555
O71 Si14 1.633667 1_555
O71 Y11 2.102029 1_555
O72 S13 1.487360 1_555
O73 S14 1.493189 1_555
O74 Si17 1.652230 1_555
O75 Si18 1.659659 1_555
O76 Si19 1.652250 1_555
O77 Si20 1.650594 1_555
O78 S11 1.495152 1_555
O79 S12 1.491077 1_555
O80 Si15 1.644709 1_545
O81 Si16 1.663353 1_545
O82 Si13 1.653938 1_555
O83 Si14 1.661460 1_555
O84 Si8 1.682731 1_555
O84 Y1 2.225476 1_555
O85 Si9 1.683129 1_555
O85 Y0 2.255082 1_555
O86 S4 1.485132 1_555
O86 Y0 2.392159 1_455
O87 S5 1.488962 1_555
O87 Y1 2.437326 1_555
O88 S6 1.489628 1_555
O88 Y1 2.356576 1_565
O89 S7 1.490309 1_555
O89 Y0 2.428664 1_565
O90 Si10 1.681937 1_555
O90 Y3 2.236478 1_555
O91 Si11 1.672487 1_555
O91 Y2 2.223065 1_555
O92 S8 1.488962 1_555
O92 Y3 2.445705 1_545
O93 Si12 1.633644 1_555
O93 Y2 2.193970 1_545
O94 S9 1.475875 1_555
O94 Y2 2.435877 1_445
O95 S10 1.490499 1_555
O95 Y3 2.358918 1_545
O96 Si6 1.671674 1_545
O97 Si7 1.656806 1_545
O97 Y4 2.188102 1_555
O98 Si4 1.685837 1_555
O99 Si5 1.637379 1_555
O99 Y4 2.225991 1_555
O100 S3 1.503267 1_555
O101 S2 1.483117 1_655
O101 Y4 2.281159 1_555
O102 Si2 1.655649 1_555
O102 Y5 2.208998 1_555
O103 Si3 1.670073 1_555
O104 S1 1.484916 1_555
O104 Y5 2.289698 1_555
O105 S0 1.496088 1_555
O106 Si0 1.644296 1_545
O106 Y5 2.245539 1_555
O107 Si1 1.659988 1_545
O108 Si13 1.665828 1_555
O109 Si14 1.657096 1_555
O110 S12 1.500767 1_555
O111 S11 1.486743 1_655
O112 Si15 1.681762 1_545
O113 Si16 1.654291 1_545
O114 Si17 1.656721 1_545
O115 Si18 1.666201 1_545
O116 Si19 1.673736 1_555
O117 Si20 1.679561 1_555
O118 S14 1.493195 1_555
O119 S13 1.491924 1_655
O120 S9 1.480870 1_555
O120 Y6 2.349597 1_555
O121 S10 1.476128 1_555
O121 Y7 2.421789 1_555
O122 Si11 1.662144 1_455
O122 Y6 2.226764 1_555
O123 Si10 1.625986 1_555
O123 Y7 2.198910 1_555
O124 S8 1.506025 1_565
O124 Y6 2.324649 1_555
O125 Si12 1.669914 1_565
O125 Y7 2.198706 1_555
O126 S4 1.487482 1_565
O126 Y8 2.434971 1_555
O127 S5 1.479975 1_565
O127 Y9 2.358968 1_555
O128 S6 1.515054 1_555
O128 Y8 2.370672 1_555
O129 S7 1.510042 1_555
O129 Y9 2.322034 1_555
O130 Si9 1.648657 1_455
O130 Y8 2.190560 1_555
O131 Si8 1.648410 1_555
O131 Y9 2.256573 1_555
O132 Si0 1.639962 1_555
O132 Y10 2.199094 1_555
O133 Si1 1.674909 1_555
O134 Si2 1.642407 1_555
O134 Y10 2.145374 1_555
O135 Si3 1.657786 1_555
O136 S0 1.481886 1_455
O136 Y10 2.379318 1_555
O137 S1 1.484931 1_555
O138 Si4 1.665868 1_555
O139 Si5 1.633800 1_555
O139 Y11 2.205763 1_555
O140 S2 1.489673 1_555
O141 S3 1.480406 1_555
O141 Y11 2.486746 1_555
O142 Si6 1.649710 1_555
O143 Si7 1.639075 1_555
O143 Y11 2.156342 1_555
