# generated using pymatgen
data_Pr2MgTi4O12
_symmetry_space_group_name_H-M   'P 1'
_cell_length_a   5.72435987
_cell_length_b   5.80451216
_cell_length_c   9.34429625
_cell_angle_alpha   106.74250759
_cell_angle_beta   97.31032334
_cell_angle_gamma   75.57480072
_symmetry_Int_Tables_number   1
_chemical_formula_structural   Pr2MgTi4O12
_chemical_formula_sum   'Pr2 Mg1 Ti4 O12'
_cell_volume   287.43312699
_cell_formula_units_Z   1
loop_
 _symmetry_equiv_pos_site_id
 _symmetry_equiv_pos_as_xyz
  1  'x, y, z'
loop_
 _atom_site_type_symbol
 _atom_site_label
 _atom_site_symmetry_multiplicity
 _atom_site_fract_x
 _atom_site_fract_y
 _atom_site_fract_z
 _atom_site_occupancy
  Pr  Pr0  1  0.02518705  0.95709834  0.72976398  1
  Pr  Pr1  1  0.40267661  0.40569974  0.33117640  1
  Mg  Mg0  1  0.52664697  0.68368057  0.10998901  1
  Ti  Ti0  1  0.06886959  0.61813910  0.97845821  1
  Ti  Ti1  1  0.91975086  0.40262602  0.55736429  1
  Ti  Ti2  1  0.49065337  0.96525939  0.49659525  1
  Ti  Ti3  1  0.50462944  0.06211968  0.94452493  1
  O  O0  1  0.18483483  0.62595473  0.16748394  1
  O  O1  1  0.17480451  0.26138068  0.91406384  1
  O  O2  1  0.23604663  0.26454607  0.50569152  1
  O  O3  1  0.27868938  0.78854309  0.52202269  1
  O  O4  1  0.27783209  0.81150664  0.94899946  1
  O  O5  1  0.50156634  0.94998190  0.30165810  1
  O  O6  1  0.59613212  0.02348028  0.76019899  1
  O  O7  1  0.60374078  0.31131371  0.08870008  1
  O  O8  1  0.76063747  0.16505650  0.55078348  1
  O  O9  1  0.74811805  0.78977951  0.00637430  1
  O  O10  1  0.73821221  0.60823835  0.44960298  1
  O  O11  1  0.96934470  0.57940872  0.74487954  1
loop_
_geom_bond_atom_site_label_1
_geom_bond_atom_site_label_2
_geom_bond_distance
_geom_bond_site_symmetry_2
Mg0 O9 1.992205 1_555
Mg0 O5 1.994373 1_555
Mg0 O7 2.050705 1_555
Mg0 O4 2.100823 1_554
Mg0 O0 2.219751 1_555
O0 Ti0 1.798063 1_554
O0 Pr1 2.318644 1_555
O1 Ti0 1.940966 1_555
O1 Ti3 1.987049 1_555
O1 Pr0 2.333391 1_545
O2 Ti1 1.852097 1_455
O2 Ti2 1.958136 1_545
O2 Pr1 2.407360 1_555
O3 Ti2 1.847903 1_555
O3 Pr0 2.397197 1_555
O3 Pr1 2.423905 1_555
O4 Ti0 1.922792 1_555
O4 Ti3 2.189331 1_565
O4 Pr0 2.576249 1_555
O5 Ti2 1.806362 1_555
O5 Pr1 2.503403 1_565
O6 Ti3 1.799947 1_555
O6 Ti2 2.406174 1_545
O6 Pr0 2.429963 1_645
O7 Ti3 1.822287 1_554
O7 Pr1 2.528416 1_555
O8 Ti1 1.815936 1_555
O8 Ti2 2.084563 1_545
O8 Pr0 2.480989 1_645
O9 Ti0 1.868860 1_654
O9 Ti3 1.999816 1_564
O10 Ti1 1.823851 1_555
O10 Ti2 2.160209 1_555
O10 Pr1 2.475984 1_555
O11 Ti1 1.785049 1_555
O11 Ti0 2.145611 1_655
O11 Pr0 2.338243 1_655
