# generated using pymatgen
data_Na7Ca3Ta(PO4)6
_symmetry_space_group_name_H-M   'P 1'
_cell_length_a   9.33065166
_cell_length_b   9.35277709
_cell_length_c   22.66716628
_cell_angle_alpha   89.96527567
_cell_angle_beta   90.02166912
_cell_angle_gamma   119.93188803
_symmetry_Int_Tables_number   1
_chemical_formula_structural   Na7Ca3Ta(PO4)6
_chemical_formula_sum   'Na21 Ca9 Ta3 P18 O72'
_cell_volume   1714.26518929
_cell_formula_units_Z   3
loop_
 _symmetry_equiv_pos_site_id
 _symmetry_equiv_pos_as_xyz
  1  'x, y, z'
loop_
 _atom_site_type_symbol
 _atom_site_label
 _atom_site_symmetry_multiplicity
 _atom_site_fract_x
 _atom_site_fract_y
 _atom_site_fract_z
 _atom_site_occupancy
  Na  Na0  1  0.63680946  -0.00000559  0.24788478  1
  Na  Na1  1  0.36298148  0.36345534  0.24813641  1
  Na  Na2  1  0.99993082  0.63664503  0.24797565  1
  Na  Na3  1  0.66724447  0.65401576  0.74928435  1
  Na  Na4  1  0.98572129  0.33852383  0.74863574  1
  Na  Na5  1  0.29424658  0.33911996  0.58490756  1
  Na  Na6  1  0.04238928  0.70432978  0.58599714  1
  Na  Na7  1  0.66256843  0.95749582  0.58607319  1
  Na  Na8  1  0.29519354  0.95721789  0.08502901  1
  Na  Na9  1  0.65839203  0.70273655  0.08534410  1
  Na  Na10  1  0.04622714  0.33947506  0.08572025  1
  Na  Na11  1  0.31530298  0.29939034  0.90862797  1
  Na  Na12  1  0.98904891  0.30899358  0.40259567  1
  Na  Na13  1  0.32028976  0.01063831  0.40308945  1
  Na  Na14  1  0.69058849  0.67996090  0.40267032  1
  Na  Na15  1  0.99967073  0.99973092  0.49885993  1
  Na  Na16  1  0.98096662  0.98224206  0.99578593  1
  Na  Na17  1  0.66333385  0.31719644  0.82827299  1
  Na  Na18  1  0.66652197  0.33333765  0.32006009  1
  Na  Na19  1  0.33316548  0.66663324  0.17537293  1
  Na  Na20  1  0.33497318  0.68666769  0.66666123  1
  Ca  Ca0  1  0.99993721  0.99990036  0.34452757  1
  Ca  Ca1  1  0.99803661  0.99155672  0.85063476  1
  Ca  Ca2  1  0.00511471  0.99782046  0.65633673  1
  Ca  Ca3  1  0.00018935  0.00038652  0.14867865  1
  Ca  Ca4  1  0.65729033  0.32673280  0.68727298  1
  Ca  Ca5  1  0.66664138  0.33324111  0.18138150  1
  Ca  Ca6  1  0.33494023  0.67165164  0.01189919  1
  Ca  Ca7  1  0.33324889  0.66595896  0.51260315  1
  Ca  Ca8  1  0.33337876  0.66711122  0.32179582  1
  Ta  Ta0  1  0.67137786  0.33371627  0.97801955  1
  Ta  Ta1  1  0.66614604  0.33284995  0.48550497  1
  Ta  Ta2  1  0.33221066  0.67497240  0.82220663  1
  P  P0  1  0.30781987  0.99578021  0.24994289  1
  P  P1  1  0.68790660  0.69230055  0.24993619  1
  P  P2  1  0.00448246  0.31218368  0.24999244  1
  P  P3  1  0.30637554  0.32516063  0.75559518  1
  P  P4  1  0.01070991  0.69246220  0.74971031  1
  P  P5  1  0.68535451  0.98666961  0.75146001  1
  P  P6  1  0.95960874  0.32986278  0.58502765  1
  P  P7  1  0.36963532  0.03909030  0.58169650  1
  P  P8  1  0.66972855  0.63005921  0.58455927  1
  P  P9  1  0.95699097  0.62734683  0.07953663  1
  P  P10  1  0.67086700  0.04354733  0.07958355  1
  P  P11  1  0.37291799  0.32941533  0.07795517  1
  P  P12  1  0.62663018  0.65163220  0.91976880  1
  P  P13  1  0.03014568  0.37412763  0.91967355  1
  P  P14  1  0.34803756  0.97792186  0.92130978  1
  P  P15  1  0.64574016  0.98686438  0.42169634  1
  P  P16  1  0.34136478  0.35505458  0.42148065  1
  P  P17  1  0.01351986  0.65864886  0.42162287  1
  O  O0  1  0.22059693  0.00345713  0.30691407  1
  O  O1  1  0.78290441  0.77913895  0.30691690  1
  O  O2  1  0.99650517  0.21700502  0.30691410  1
  O  O3  1  0.21983682  0.21890547  0.80886815  1
  O  O4  1  0.97512039  0.78720136  0.79569028  1
  O  O5  1  0.81005655  0.00986604  0.79841645  1
  O  O6  1  0.73078058  0.93664461  0.69167209  1
  O  O7  1  0.20402676  0.25783631  0.69786726  1
  O  O8  1  0.04554204  0.77661377  0.68848771  1
  O  O9  1  0.77830120  0.79365541  0.19436060  1
  O  O10  1  0.01572143  0.22214496  0.19435983  1
  O  O11  1  0.20651735  0.98484459  0.19428986  1
  O  O12  1  0.88155462  0.34230988  0.64193184  1
  O  O13  1  0.47040819  0.12240992  0.63560464  1
  O  O14  1  0.65847846  0.54106900  0.64172846  1
  O  O15  1  0.88167534  0.53736039  0.13697933  1
  O  O16  1  0.65681470  0.11838800  0.13720418  1
  O  O17  1  0.46474645  0.34374291  0.13503021  1
  O  O18  1  0.48814295  0.32878872  0.02404440  1
  O  O19  1  0.83909391  0.50911226  0.02658418  1
  O  O20  1  0.67058143  0.16222618  0.02700721  1
  O  O21  1  0.47969680  0.14827621  0.52633001  1
  O  O22  1  0.66565571  0.51053451  0.53183832  1
  O  O23  1  0.84315306  0.33063688  0.53191977  1
  O  O24  1  0.55650310  0.66597709  0.97845556  1
  O  O25  1  0.12024225  0.44240782  0.97746005  1
  O  O26  1  0.32630919  0.89340907  0.97997462  1
  O  O27  1  0.56599686  0.88236041  0.47674617  1
  O  O28  1  0.31566740  0.43343441  0.47674149  1
  O  O29  1  0.11829204  0.68365430  0.47661486  1
  O  O30  1  0.08441177  0.61760466  0.36699531  1
  O  O31  1  0.53315481  0.91588696  0.36720135  1
  O  O32  1  0.38090832  0.46714266  0.36700963  1
  O  O33  1  0.13549813  0.50243368  0.86823225  1
  O  O34  1  0.35987117  0.86297161  0.87121440  1
  O  O35  1  0.49584023  0.63239666  0.86908099  1
  O  O36  1  0.98399803  0.80561997  0.41512097  1
  O  O37  1  0.82213568  0.01524336  0.41521605  1
  O  O38  1  0.19489794  0.17845779  0.41506349  1
  O  O39  1  0.01231321  0.20668214  0.90724203  1
  O  O40  1  0.21078556  0.01626582  0.90876179  1
  O  O41  1  0.79876522  0.79132076  0.90869126  1
  O  O42  1  0.96187034  0.16626062  0.57864998  1
  O  O43  1  0.20437654  0.04000792  0.57766401  1
  O  O44  1  0.83386319  0.79471990  0.57730494  1
  O  O45  1  0.95465097  0.79024624  0.07274910  1
  O  O46  1  0.83546727  0.04401821  0.07247475  1
  O  O47  1  0.20815936  0.16517978  0.07178010  1
  O  O48  1  0.66384623  0.13826625  0.74964101  1
  O  O49  1  0.48814969  0.36793034  0.75220650  1
  O  O50  1  0.86918869  0.51075450  0.75018551  1
  O  O51  1  0.67019770  0.51814831  0.25010141  1
  O  O52  1  0.84769840  0.32985075  0.25024199  1
  O  O53  1  0.48198811  0.15235288  0.25013288  1
  O  O54  1  0.62409830  0.47830494  0.91852256  1
  O  O55  1  0.85457893  0.36302677  0.92096470  1
  O  O56  1  0.51765487  0.14930563  0.91963294  1
  O  O57  1  0.66746064  0.16726692  0.42927661  1
  O  O58  1  0.50304023  0.33795678  0.42890291  1
  O  O59  1  0.83403508  0.49901598  0.42984734  1
  O  O60  1  0.34830346  0.48008159  0.07435525  1
  O  O61  1  0.13181558  0.65144337  0.07497754  1
  O  O62  1  0.52029557  0.86908992  0.07514356  1
  O  O63  1  0.34357972  0.86301156  0.57706827  1
  O  O64  1  0.51733250  0.65229125  0.57842164  1
  O  O65  1  0.13385927  0.48195949  0.57846047  1
  O  O66  1  0.32577121  0.83933127  0.25068874  1
  O  O67  1  0.51327621  0.67455866  0.25068417  1
  O  O68  1  0.16113201  0.48636559  0.25075152  1
  O  O69  1  0.31269893  0.50019492  0.76533235  1
  O  O70  1  0.17508561  0.68601995  0.76663596  1
  O  O71  1  0.51114301  0.82714089  0.76869125  1
loop_
_geom_bond_atom_site_label_1
_geom_bond_atom_site_label_2
_geom_bond_distance
_geom_bond_site_symmetry_2
Na0 O53 2.484829 1_555
Na0 O66 2.516492 1_545
Na0 O67 2.663758 1_545
Na0 O52 2.708233 1_555
Na0 O16 2.710323 1_555
Na0 O31 2.847641 1_545
Na1 O51 2.484638 1_555
Na1 O67 2.522760 1_555
Na1 O68 2.651960 1_555
Na1 O53 2.705737 1_555
Na1 O17 2.772323 1_555
Na1 O32 2.840740 1_555
Na2 O52 2.487190 1_555
Na2 O68 2.520192 1_655
Na2 O66 2.662566 1_655
Na2 O51 2.700656 1_555
Na2 O15 2.718110 1_555
Na2 O30 2.840651 1_655
Na3 O49 2.343929 1_555
Na3 O14 2.642561 1_555
Na3 O71 2.700315 1_555
Na3 O4 2.709011 1_555
Na3 O6 2.734369 1_555
Na3 O50 2.804578 1_555
Na3 O69 2.897698 1_555
Na4 O50 2.350806 1_555
Na4 O12 2.613117 1_555
Na4 O48 2.629611 1_555
Na4 O69 2.670917 1_655
Na4 O7 2.753129 1_655
Na4 O70 2.849847 1_655
Na4 O5 2.894432 1_555
Na5 O65 2.457727 1_555
Na5 O43 2.493133 1_555
Na5 O28 2.579006 1_555
Na5 O64 2.617055 1_555
Na5 O7 2.683887 1_555
Na5 O42 2.692256 1_455
Na6 O8 2.415998 1_555
Na6 O63 2.445242 1_555
Na6 O44 2.486002 1_455
Na6 O29 2.612452 1_555
Na6 O65 2.618208 1_555
Na6 O43 2.727784 1_565
Na7 O64 2.480896 1_555
Na7 O42 2.489609 1_565
Na7 O6 2.508928 1_555
Na7 O27 2.610637 1_555
Na7 O63 2.656379 1_555
Na7 O44 2.709355 1_555
Na8 O47 2.471469 1_565
Na8 O61 2.490856 1_555
Na8 O26 2.507214 1_554
Na8 O62 2.620927 1_555
Na8 O11 2.664724 1_555
Na8 O45 2.767778 1_455
Na9 O62 2.476788 1_555
Na9 O45 2.476932 1_555
Na9 O24 2.562295 1_554
Na9 O60 2.599474 1_555
Na9 O9 2.670618 1_555
Na9 O46 2.782028 1_565
Na10 O60 2.457898 1_555
Na10 O46 2.484149 1_455
Na10 O25 2.600108 1_554
Na10 O61 2.623814 1_555
Na10 O10 2.652344 1_555
Na10 O47 2.738447 1_555
Na11 O40 2.320755 1_555
Na11 O3 2.409325 1_555
Na11 O39 2.509774 1_555
Na11 O54 2.518056 1_555
Na11 O35 2.846676 1_555
Na11 O56 2.870805 1_555
Na11 O18 3.012626 1_556
Na12 O2 2.347546 1_555
Na12 O37 2.405173 1_555
Na12 O57 2.675393 1_555
Na12 O30 2.684918 1_655
Na12 O38 2.756589 1_655
Na12 O59 2.863466 1_555
Na13 O0 2.357664 1_555
Na13 O38 2.395720 1_555
Na13 O31 2.674050 1_545
Na13 O58 2.722834 1_555
Na13 O36 2.755491 1_445
Na13 O57 2.873259 1_555
Na14 O1 2.348381 1_555
Na14 O36 2.396838 1_555
Na14 O32 2.687969 1_555
Na14 O59 2.700648 1_555
Na14 O37 2.753286 1_565
Na14 O58 2.839008 1_555
Na15 O43 2.502218 1_665
Na15 O44 2.503870 1_555
Na15 O42 2.524568 1_565
Na15 O37 2.568449 1_565
Na15 O36 2.580551 1_555
Na15 O38 2.584635 1_665
Na16 O45 2.425847 1_556
Na16 O46 2.446313 1_566
Na16 O47 2.601873 1_666
Na16 O41 2.635988 1_555
Na16 O39 2.811187 1_665
Na16 O40 2.812851 1_665
Na17 O48 2.447250 1_555
Na17 O56 2.543620 1_555
Na17 O50 2.574527 1_555
Na17 O49 2.576977 1_555
Na17 O55 2.649029 1_555
Na17 O54 2.672864 1_555
Na18 O52 2.328195 1_555
Na18 O53 2.331303 1_555
Na18 O51 2.332611 1_555
Na18 O58 2.912781 1_555
Na18 O57 2.924075 1_555
Na18 O59 2.936294 1_555
Na19 O67 2.370143 1_555
Na19 O68 2.374113 1_555
Na19 O66 2.375460 1_555
Na19 O61 2.908489 1_555
Na19 O62 2.914471 1_555
Na19 O60 2.925463 1_555
Na20 O63 2.591287 1_555
Na20 O70 2.711936 1_555
Na20 O64 2.747443 1_555
Na20 O65 2.756895 1_555
Na20 O71 2.760884 1_555
Na20 O69 2.778690 1_555
Ca0 O0 2.213601 1_665
Ca0 O2 2.216702 1_565
Ca0 O1 2.217886 1_555
Ca0 O37 2.362232 1_565
Ca0 O36 2.368816 1_555
Ca0 O38 2.371450 1_665
Ca1 O5 2.191959 1_565
Ca1 O4 2.201070 1_555
Ca1 O41 2.284753 1_555
Ca1 O40 2.295771 1_665
Ca1 O3 2.303949 1_665
Ca1 O39 2.334077 1_665
Ca2 O8 2.393847 1_555
Ca2 O7 2.396267 1_565
Ca2 O6 2.461804 1_455
Ca2 O43 2.462143 1_565
Ca2 O44 2.518670 1_455
Ca2 O42 2.525075 1_465
Ca3 O11 2.252534 1_545
Ca3 O10 2.257748 1_555
Ca3 O9 2.258639 1_445
Ca3 O46 2.476992 1_455
Ca3 O45 2.485095 1_445
Ca3 O47 2.488770 1_555
Ca4 O13 2.177132 1_555
Ca4 O14 2.249400 1_555
Ca4 O12 2.270112 1_555
Ca4 O48 2.283393 1_555
Ca4 O49 2.326975 1_555
Ca4 O50 2.347322 1_555
Ca5 O17 2.201202 1_555
Ca5 O15 2.204527 1_555
Ca5 O16 2.206273 1_555
Ca5 O52 2.311436 1_555
Ca5 O53 2.312853 1_555
Ca5 O51 2.316086 1_555
Ca6 O25 2.221274 1_554
Ca6 O24 2.227567 1_554
Ca6 O26 2.235316 1_554
Ca6 O62 2.295738 1_555
Ca6 O61 2.305737 1_555
Ca6 O60 2.334465 1_555
Ca7 O29 2.246215 1_555
Ca7 O28 2.250165 1_555
Ca7 O27 2.255267 1_555
Ca7 O63 2.316678 1_555
Ca7 O64 2.325795 1_555
Ca7 O65 2.335622 1_555
Ca8 O67 2.303447 1_555
Ca8 O66 2.303966 1_555
Ca8 O68 2.307393 1_555
Ca8 O32 2.360077 1_555
Ca8 O30 2.363969 1_555
Ca8 O31 2.370845 1_555
O0 P0 1.547376 1_545
O1 P1 1.547745 1_555
O2 P2 1.547669 1_655
O3 P3 1.515342 1_555
O4 P4 1.508865 1_655
O5 P5 1.510374 1_545
O6 P5 1.560221 1_555
O7 P3 1.555856 1_555
O8 P4 1.547468 1_555
O9 P1 1.548681 1_555
O10 P2 1.549152 1_555
O11 P0 1.548564 1_555
O12 P6 1.514332 1_555
O13 P7 1.501198 1_555
O14 P8 1.514801 1_555
O15 P9 1.518777 1_555
O16 P10 1.518506 1_555
O17 P11 1.520074 1_555
O18 P11 1.629881 1_555
O18 Ta0 1.983995 1_554
O19 P9 1.631040 1_555
O19 Ta0 1.947001 1_554
O20 P10 1.629014 1_555
O20 Ta0 1.947189 1_554
O21 P7 1.620293 1_555
O21 Ta1 1.966007 1_555
O22 P8 1.624320 1_555
O22 Ta1 1.968367 1_555
O23 P6 1.623812 1_555
O23 Ta1 1.966686 1_555
O24 P12 1.517969 1_555
O25 P13 1.514823 1_555
O26 P14 1.507703 1_555
O27 P15 1.529535 1_555
O28 P16 1.529919 1_555
O29 P17 1.528218 1_555
O30 P17 1.540378 1_555
O31 P15 1.540826 1_555
O32 P16 1.540262 1_555
O33 P13 1.608708 1_555
O33 Ta2 2.026079 1_555
O34 P14 1.605455 1_555
O34 Ta2 1.985343 1_555
O35 P12 1.619201 1_555
O35 Ta2 2.055113 1_555
O36 P17 1.537750 1_655
O37 P15 1.537903 1_545
O38 P16 1.537667 1_555
O39 P13 1.516626 1_555
O40 P14 1.519046 1_545
O41 P12 1.501814 1_555
O42 P6 1.547627 1_555
O43 P7 1.548937 1_555
O44 P8 1.546089 1_555
O45 P9 1.542173 1_555
O46 P10 1.542137 1_555
O47 P11 1.544651 1_555
O48 P5 1.528448 1_545
O49 P3 1.538042 1_555
O50 P4 1.546766 1_655
O51 P1 1.552978 1_555
O52 P2 1.551978 1_655
O53 P0 1.552590 1_545
O54 P12 1.609699 1_555
O54 Ta0 2.105901 1_555
O55 P13 1.589177 1_655
O55 Ta0 2.050197 1_555
O56 P14 1.594957 1_545
O56 Ta0 2.077543 1_555
O57 P15 1.605159 1_545
O57 Ta1 2.011047 1_555
O58 P16 1.603145 1_555
O58 Ta1 2.008858 1_555
O59 P17 1.604113 1_655
O59 Ta1 2.007602 1_555
O60 P11 1.538806 1_555
O61 P9 1.534797 1_455
O62 P10 1.535812 1_565
O63 P7 1.543629 1_565
O64 P8 1.542537 1_555
O65 P6 1.543063 1_455
O66 P0 1.553686 1_555
O67 P1 1.553387 1_555
O68 P2 1.553831 1_555
O69 P3 1.623634 1_555
O69 Ta2 2.018071 1_555
O70 P4 1.610871 1_555
O70 Ta2 1.973917 1_555
O71 P5 1.612593 1_555
O71 Ta2 1.978030 1_555
