# generated using pymatgen
data_Na2Ti2Si2SO12
_symmetry_space_group_name_H-M   'P 1'
_cell_length_a   8.83469027
_cell_length_b   8.83468999
_cell_length_c   22.20954347
_cell_angle_alpha   89.71824903
_cell_angle_beta   90.28175095
_cell_angle_gamma   120.01283978
_symmetry_Int_Tables_number   1
_chemical_formula_structural   Na2Ti2Si2SO12
_chemical_formula_sum   'Na12 Ti12 Si12 S6 O72'
_cell_volume   1501.03113722
_cell_formula_units_Z   6
loop_
 _symmetry_equiv_pos_site_id
 _symmetry_equiv_pos_as_xyz
  1  'x, y, z'
loop_
 _atom_site_type_symbol
 _atom_site_label
 _atom_site_symmetry_multiplicity
 _atom_site_fract_x
 _atom_site_fract_y
 _atom_site_fract_z
 _atom_site_occupancy
  Na  Na0  1  0.99717957  0.62919025  0.25377710  1
  Na  Na1  1  0.37080975  0.00282043  0.75377710  1
  Na  Na2  1  0.66384657  0.96252325  0.58711010  1
  Na  Na3  1  0.03747675  0.33615343  0.08711010  1
  Na  Na4  1  0.33051257  0.29585725  0.92044410  1
  Na  Na5  1  0.70414275  0.66948743  0.42044410  1
  Na  Na6  1  0.02215780  0.99926257  0.50062547  1
  Na  Na7  1  0.00073743  0.97784220  0.00062547  1
  Na  Na8  1  0.68882480  0.33259557  0.83395847  1
  Na  Na9  1  0.66740443  0.31117520  0.33395847  1
  Na  Na10  1  0.35549080  0.66592957  0.16729247  1
  Na  Na11  1  0.33407043  0.64450920  0.66729247  1
  Ti  Ti0  1  0.97867109  0.99129112  0.35487344  1
  Ti  Ti1  1  0.00870888  0.02132891  0.85487344  1
  Ti  Ti2  1  0.99804359  0.00013459  0.64575325  1
  Ti  Ti3  1  0.99986541  0.00195641  0.14575325  1
  Ti  Ti4  1  0.64533809  0.32462412  0.68820644  1
  Ti  Ti5  1  0.67537588  0.35466191  0.18820644  1
  Ti  Ti6  1  0.66471059  0.33346759  0.97908625  1
  Ti  Ti7  1  0.66653241  0.33528941  0.47908625  1
  Ti  Ti8  1  0.31200409  0.65795812  0.02154044  1
  Ti  Ti9  1  0.34204188  0.68799591  0.52154044  1
  Ti  Ti10  1  0.33137659  0.66680159  0.31242025  1
  Ti  Ti11  1  0.33319841  0.66862341  0.81242025  1
  Si  Si0  1  0.70490354  0.71563857  0.24990931  1
  Si  Si1  1  0.99823418  0.28670963  0.24863063  1
  Si  Si2  1  0.28436143  0.29509646  0.74990931  1
  Si  Si3  1  0.71329037  0.00176582  0.74863063  1
  Si  Si4  1  0.37157054  0.04897157  0.58324231  1
  Si  Si5  1  0.66490118  0.62004263  0.58196363  1
  Si  Si6  1  0.95102843  0.62842946  0.08324231  1
  Si  Si7  1  0.37995737  0.33509882  0.08196363  1
  Si  Si8  1  0.03823654  0.38230557  0.91657631  1
  Si  Si9  1  0.33156718  0.95337663  0.91529763  1
  Si  Si10  1  0.61769443  0.96176346  0.41657631  1
  Si  Si11  1  0.04662337  0.66843282  0.41529763  1
  S  S0  1  0.29036738  0.00486426  0.25026001  1
  S  S1  1  0.99513574  0.70963262  0.75026001  1
  S  S2  1  0.95703438  0.33819726  0.58359301  1
  S  S3  1  0.66180274  0.04296562  0.08359301  1
  S  S4  1  0.62370038  0.67153126  0.91692701  1
  S  S5  1  0.32846874  0.37629962  0.41692701  1
  O  O0  1  0.20867713  0.02373137  0.30509256  1
  O  O1  1  0.82759712  0.79415100  0.31092287  1
  O  O2  1  0.98008043  0.16078649  0.30613729  1
  O  O3  1  0.20584900  0.17240288  0.81092287  1
  O  O4  1  0.97626863  0.79132287  0.80509256  1
  O  O5  1  0.83921351  0.01991957  0.80613729  1
  O  O6  1  0.79954794  0.97378704  0.68748202  1
  O  O7  1  0.16034070  0.18396106  0.69319438  1
  O  O8  1  0.02152979  0.81823807  0.69570278  1
  O  O9  1  0.81603894  0.83965930  0.19319438  1
  O  O10  1  0.02621296  0.20045206  0.18748202  1
  O  O11  1  0.18176193  0.97847021  0.19570278  1
  O  O12  1  0.87534413  0.35706437  0.63842556  1
  O  O13  1  0.49426412  0.12748400  0.64425587  1
  O  O14  1  0.64674743  0.49411949  0.63947029  1
  O  O15  1  0.87251600  0.50573588  0.14425587  1
  O  O16  1  0.64293563  0.12465587  0.13842556  1
  O  O17  1  0.50588051  0.35325257  0.13947029  1
  O  O18  1  0.46621494  0.30712004  0.02081502  1
  O  O19  1  0.82700770  0.51729406  0.02652738  1
  O  O20  1  0.68819679  0.15157107  0.02903578  1
  O  O21  1  0.48270594  0.17299230  0.52652738  1
  O  O22  1  0.69287996  0.53378506  0.52081502  1
  O  O23  1  0.84842893  0.31180321  0.52903578  1
  O  O24  1  0.54201013  0.69039837  0.97175956  1
  O  O25  1  0.16093012  0.46081800  0.97758987  1
  O  O26  1  0.31341343  0.82745349  0.97280429  1
  O  O27  1  0.53918200  0.83906988  0.47758987  1
  O  O28  1  0.30960163  0.45798987  0.47175956  1
  O  O29  1  0.17254651  0.68658657  0.47280429  1
  O  O30  1  0.13288094  0.64045404  0.35414902  1
  O  O31  1  0.49367370  0.85062806  0.35986138  1
  O  O32  1  0.35486279  0.48490507  0.36236978  1
  O  O33  1  0.14937194  0.50632630  0.85986138  1
  O  O34  1  0.35954596  0.86711906  0.85414902  1
  O  O35  1  0.51509493  0.64513721  0.86236978  1
  O  O36  1  0.02847541  0.84473378  0.41102480  1
  O  O37  1  0.81034692  0.97348853  0.41028881  1
  O  O38  1  0.17730685  0.19966338  0.41126931  1
  O  O39  1  0.02651147  0.18965308  0.91028881  1
  O  O40  1  0.15526622  0.97152459  0.91102480  1
  O  O41  1  0.80033662  0.82269315  0.91126931  1
  O  O42  1  0.96783664  0.17363549  0.58625540  1
  O  O43  1  0.17927552  0.02641314  0.58961096  1
  O  O44  1  0.83303330  0.81862456  0.58918961  1
  O  O45  1  0.97358686  0.82072448  0.08961096  1
  O  O46  1  0.82636451  0.03216336  0.08625540  1
  O  O47  1  0.18137544  0.16696670  0.08918961  1
  O  O48  1  0.69514241  0.17806678  0.74435780  1
  O  O49  1  0.47701392  0.30682153  0.74362181  1
  O  O50  1  0.84397385  0.53299638  0.74460231  1
  O  O51  1  0.69317847  0.52298608  0.24362181  1
  O  O52  1  0.82193322  0.30485759  0.24435780  1
  O  O53  1  0.46700362  0.15602615  0.24460231  1
  O  O54  1  0.63450364  0.50696849  0.91958840  1
  O  O55  1  0.84594252  0.35974614  0.92294396  1
  O  O56  1  0.49970030  0.15195756  0.92252261  1
  O  O57  1  0.64025386  0.15405748  0.42294396  1
  O  O58  1  0.49303151  0.36549636  0.41958840  1
  O  O59  1  0.84804244  0.50029970  0.42252261  1
  O  O60  1  0.36180841  0.51140078  0.07769180  1
  O  O61  1  0.14367992  0.64015553  0.07695581  1
  O  O62  1  0.51063985  0.86633038  0.07793631  1
  O  O63  1  0.35984447  0.85632008  0.57695581  1
  O  O64  1  0.48859922  0.63819159  0.57769180  1
  O  O65  1  0.13366962  0.48936015  0.57793631  1
  O  O66  1  0.30116964  0.84030249  0.25292240  1
  O  O67  1  0.51260852  0.69308014  0.25627796  1
  O  O68  1  0.16636630  0.48529156  0.25585661  1
  O  O69  1  0.30691986  0.48739148  0.75627796  1
  O  O70  1  0.15969751  0.69883036  0.75292240  1
  O  O71  1  0.51470844  0.83363370  0.75585661  1
loop_
_geom_bond_atom_site_label_1
_geom_bond_atom_site_label_2
_geom_bond_distance
_geom_bond_site_symmetry_2
Na0 O51 2.370586 1_555
Na0 O66 2.383468 1_655
Na0 O68 2.398377 1_655
Na0 O52 2.493171 1_555
Na0 O30 2.504628 1_655
Na0 O15 2.667823 1_555
Na0 O1 2.863668 1_555
Na0 O11 2.965203 1_655
Na1 O49 2.370586 1_555
Na1 O70 2.383468 1_545
Na1 O71 2.398377 1_545
Na1 O48 2.493171 1_555
Na1 O34 2.504628 1_545
Na1 O13 2.667823 1_555
Na1 O3 2.863668 1_555
Na1 O8 2.965203 1_545
Na2 O63 2.370593 1_555
Na2 O42 2.383468 1_565
Na2 O44 2.398377 1_555
Na2 O64 2.493162 1_555
Na2 O6 2.504628 1_555
Na2 O27 2.667803 1_555
Na2 O13 2.863668 1_565
Na2 O23 2.965203 1_565
Na3 O61 2.370593 1_555
Na3 O46 2.383468 1_455
Na3 O47 2.398377 1_555
Na3 O60 2.493162 1_555
Na3 O10 2.504628 1_555
Na3 O25 2.667803 1_554
Na3 O15 2.863668 1_455
Na3 O20 2.965203 1_455
Na4 O39 2.370586 1_555
Na4 O54 2.383472 1_555
Na4 O56 2.398392 1_555
Na4 O40 2.493171 1_545
Na4 O18 2.504614 1_556
Na4 O3 2.667823 1_555
Na4 O25 2.863668 1_555
Na4 O35 2.965203 1_555
Na5 O37 2.370586 1_555
Na5 O58 2.383472 1_555
Na5 O59 2.398392 1_555
Na5 O36 2.493171 1_655
Na5 O22 2.504614 1_555
Na5 O1 2.667823 1_555
Na5 O27 2.863668 1_555
Na5 O32 2.965203 1_555
Na6 O43 2.352613 1_565
Na6 O36 2.435369 1_555
Na6 O38 2.552713 1_565
Na6 O44 2.557634 1_455
Na6 O42 2.645334 1_465
Na6 O37 2.668377 1_455
Na7 O45 2.352612 1_455
Na7 O40 2.435369 1_554
Na7 O41 2.552713 1_454
Na7 O47 2.557634 1_565
Na7 O46 2.645334 1_465
Na7 O39 2.668377 1_564
Na8 O55 2.352613 1_555
Na8 O48 2.435369 1_555
Na8 O50 2.552713 1_555
Na8 O56 2.557634 1_555
Na8 O54 2.645334 1_555
Na8 O49 2.668377 1_555
Na9 O57 2.352612 1_555
Na9 O52 2.435369 1_555
Na9 O53 2.552713 1_555
Na9 O59 2.557634 1_555
Na9 O58 2.645334 1_555
Na9 O51 2.668377 1_555
Na10 O67 2.352613 1_555
Na10 O60 2.435369 1_555
Na10 O62 2.552713 1_555
Na10 O68 2.557634 1_555
Na10 O66 2.645334 1_555
Na10 O61 2.668377 1_555
Na11 O69 2.352612 1_555
Na11 O64 2.435369 1_555
Na11 O65 2.552713 1_555
Na11 O71 2.557634 1_555
Na11 O70 2.645334 1_555
Na11 O63 2.668377 1_555
O0 S0 1.470606 1_555
O0 Ti0 2.206817 1_445
O1 Si0 1.653778 1_555
O1 Ti0 1.856353 1_555
O2 Si1 1.644427 1_555
O2 Ti0 1.838376 1_545
O3 Si2 1.653778 1_555
O3 Ti1 1.856353 1_555
O4 S1 1.470606 1_555
O4 Ti1 2.206817 1_665
O5 Si3 1.644427 1_555
O5 Ti1 1.838376 1_655
O6 Si3 1.639556 1_565
O6 Ti2 1.895754 1_565
O7 Si2 1.635099 1_555
O7 Ti2 1.864417 1_455
O8 S1 1.486849 1_455
O8 Ti2 2.042045 1_465
O9 Si0 1.635099 1_555
O9 Ti3 1.864417 1_565
O10 Si1 1.639556 1_455
O10 Ti3 1.895754 1_455
O11 S0 1.486849 1_565
O11 Ti3 2.042045 1_465
O12 S2 1.470606 1_555
O12 Ti4 2.206817 1_555
O13 Si4 1.653778 1_555
O13 Ti4 1.856353 1_555
O14 Si5 1.644427 1_555
O14 Ti4 1.838376 1_555
O15 Si6 1.653778 1_555
O15 Ti5 1.856353 1_555
O16 S3 1.470606 1_555
O16 Ti5 2.206817 1_555
O17 Si7 1.644427 1_555
O17 Ti5 1.838376 1_555
O18 Si7 1.639556 1_555
O18 Ti6 1.895754 1_554
O19 Si6 1.635099 1_555
O19 Ti6 1.864417 1_554
O20 S3 1.486849 1_555
O20 Ti6 2.042045 1_554
O21 Si4 1.635099 1_555
O21 Ti7 1.864417 1_555
O22 Si5 1.639556 1_555
O22 Ti7 1.895754 1_555
O23 S2 1.486849 1_555
O23 Ti7 2.042045 1_555
O24 S4 1.470606 1_555
O24 Ti8 2.206817 1_556
O25 Si8 1.653778 1_555
O25 Ti8 1.856353 1_556
O26 Si9 1.644427 1_555
O26 Ti8 1.838376 1_556
O27 Si10 1.653778 1_555
O27 Ti9 1.856353 1_555
O28 S5 1.470606 1_555
O28 Ti9 2.206817 1_555
O29 Si11 1.644427 1_555
O29 Ti9 1.838376 1_555
O30 Si11 1.639556 1_555
O30 Ti10 1.895754 1_555
O31 Si10 1.635099 1_555
O31 Ti10 1.864417 1_555
O32 S5 1.486849 1_555
O32 Ti10 2.042045 1_555
O33 Si8 1.635099 1_555
O33 Ti11 1.864417 1_555
O34 Si9 1.639556 1_555
O34 Ti11 1.895754 1_555
O35 S4 1.486849 1_555
O35 Ti11 2.042045 1_555
O36 Si11 1.645885 1_555
O36 Ti0 1.993487 1_455
O37 Si10 1.659198 1_555
O37 Ti0 1.879638 1_555
O38 S5 1.466269 1_555
O38 Ti0 2.192397 1_445
O39 Si8 1.659198 1_555
O39 Ti1 1.879638 1_555
O40 Si9 1.645885 1_555
O40 Ti1 1.993487 1_565
O41 S4 1.466269 1_555
O41 Ti1 2.192397 1_665
O42 S2 1.504723 1_555
O42 Ti2 2.133720 1_555
O43 Si4 1.615318 1_555
O43 Ti2 1.953760 1_455
O44 Si5 1.644241 1_555
O44 Ti2 1.984450 1_565
O45 Si6 1.615317 1_555
O45 Ti3 1.953760 1_565
O46 S3 1.504723 1_555
O46 Ti3 2.133720 1_555
O47 Si7 1.644241 1_555
O47 Ti3 1.984450 1_455
O48 Si3 1.645885 1_555
O48 Ti4 1.993487 1_555
O49 Si2 1.659198 1_555
O49 Ti4 1.879638 1_555
O50 S1 1.466269 1_555
O50 Ti4 2.192397 1_555
O51 Si0 1.659198 1_555
O51 Ti5 1.879638 1_555
O52 Si1 1.645885 1_555
O52 Ti5 1.993487 1_555
O53 S0 1.466269 1_555
O53 Ti5 2.192397 1_555
O54 S4 1.504736 1_555
O54 Ti6 2.133720 1_555
O55 Si8 1.615303 1_655
O55 Ti6 1.953760 1_555
O56 Si9 1.644237 1_545
O56 Ti6 1.984450 1_555
O57 Si10 1.615303 1_545
O57 Ti7 1.953760 1_555
O58 S5 1.504736 1_555
O58 Ti7 2.133720 1_555
O59 Si11 1.644237 1_655
O59 Ti7 1.984450 1_555
O60 Si7 1.645898 1_555
O60 Ti8 1.993487 1_555
O61 Si6 1.659183 1_455
O61 Ti8 1.879638 1_555
O62 S3 1.466265 1_565
O62 Ti8 2.192397 1_555
O63 Si4 1.659183 1_565
O63 Ti9 1.879638 1_555
O64 Si5 1.645898 1_555
O64 Ti9 1.993487 1_555
O65 S2 1.466265 1_455
O65 Ti9 2.192397 1_555
O66 S0 1.504723 1_565
O66 Ti10 2.133720 1_555
O67 Si0 1.615318 1_555
O67 Ti10 1.953760 1_555
O68 Si1 1.644241 1_455
O68 Ti10 1.984450 1_555
O69 Si2 1.615317 1_555
O69 Ti11 1.953760 1_555
O70 S1 1.504723 1_455
O70 Ti11 2.133720 1_555
O71 Si3 1.644241 1_565
O71 Ti11 1.984450 1_555
