# generated using pymatgen
data_Na2HgS2
_symmetry_space_group_name_H-M   'P 1'
_cell_length_a   7.30193054
_cell_length_b   7.46616374
_cell_length_c   18.11506440
_cell_angle_alpha   90.00000000
_cell_angle_beta   90.00000000
_cell_angle_gamma   90.00000000
_symmetry_Int_Tables_number   1
_chemical_formula_structural   Na2HgS2
_chemical_formula_sum   'Na16 Hg8 S16'
_cell_volume   987.58637550
_cell_formula_units_Z   8
loop_
 _symmetry_equiv_pos_site_id
 _symmetry_equiv_pos_as_xyz
  1  'x, y, z'
loop_
 _atom_site_type_symbol
 _atom_site_label
 _atom_site_symmetry_multiplicity
 _atom_site_fract_x
 _atom_site_fract_y
 _atom_site_fract_z
 _atom_site_occupancy
  Na  Na0  1  0.50019084  0.72838233  0.55527139  1
  Na  Na1  1  0.00019084  0.27161767  0.94472861  1
  Na  Na2  1  0.99980916  0.22838233  0.44472861  1
  Na  Na3  1  0.49980916  0.77161767  0.05527139  1
  Na  Na4  1  0.49980916  0.27161767  0.44472861  1
  Na  Na5  1  0.99980916  0.72838233  0.05527139  1
  Na  Na6  1  0.00019084  0.77161767  0.55527139  1
  Na  Na7  1  0.50019084  0.22838233  0.94472861  1
  Na  Na8  1  0.82932901  0.54402994  0.69633407  1
  Na  Na9  1  0.32932901  0.45597006  0.80366593  1
  Na  Na10  1  0.67067099  0.04402994  0.30366593  1
  Na  Na11  1  0.17067099  0.95597006  0.19633407  1
  Na  Na12  1  0.17067099  0.45597006  0.30366593  1
  Na  Na13  1  0.67067099  0.54402994  0.19633407  1
  Na  Na14  1  0.32932901  0.95597006  0.69633407  1
  Na  Na15  1  0.82932901  0.04402994  0.80366593  1
  Hg  Hg0  1  0.27362377  0.34861757  0.11130280  1
  Hg  Hg1  1  0.77362377  0.65138243  0.38869720  1
  Hg  Hg2  1  0.22637623  0.84861757  0.88869720  1
  Hg  Hg3  1  0.72637623  0.65138243  0.88869720  1
  Hg  Hg4  1  0.22637623  0.34861757  0.61130280  1
  Hg  Hg5  1  0.77362377  0.15138243  0.11130280  1
  Hg  Hg6  1  0.27362377  0.84861757  0.38869720  1
  Hg  Hg7  1  0.72637623  0.15138243  0.61130280  1
  S  S0  1  0.69841743  0.88611392  0.67873294  1
  S  S1  1  0.30158257  0.61388608  0.17873294  1
  S  S2  1  0.80158257  0.38611392  0.32126706  1
  S  S3  1  0.80158257  0.88611392  0.17873294  1
  S  S4  1  0.19841743  0.11388608  0.82126706  1
  S  S5  1  0.30158257  0.11388608  0.32126706  1
  S  S6  1  0.69841743  0.38611392  0.82126706  1
  S  S7  1  0.19841743  0.61388608  0.67873294  1
  S  S8  1  0.25641242  0.07576009  0.54903285  1
  S  S9  1  0.75641242  0.92423991  0.95096715  1
  S  S10  1  0.24358758  0.57576009  0.45096715  1
  S  S11  1  0.74358758  0.42423991  0.04903285  1
  S  S12  1  0.74358758  0.92423991  0.45096715  1
  S  S13  1  0.24358758  0.07576009  0.04903285  1
  S  S14  1  0.75641242  0.42423991  0.54903285  1
  S  S15  1  0.25641242  0.57576009  0.95096715  1
loop_
_geom_bond_atom_site_label_1
_geom_bond_atom_site_label_2
_geom_bond_distance
_geom_bond_site_symmetry_2
Na0 S10 2.894709 1_555
Na0 S0 2.912718 1_555
Na0 S14 2.944404 1_555
Na0 S12 2.977774 1_555
Na0 S8 3.147700 1_565
Na0 S7 3.253966 1_555
Na1 S11 2.894709 1_456
Na1 S4 2.912718 1_555
Na1 S15 2.944404 1_555
Na1 S13 2.977774 1_556
Na1 S9 3.147700 1_445
Na1 S6 3.253966 1_455
Na2 S8 2.894709 1_655
Na2 S2 2.912718 1_555
Na2 S12 2.944404 1_545
Na2 S14 2.977774 1_555
Na2 S10 3.147700 1_655
Na2 S5 3.253966 1_655
Na3 S9 2.894709 1_554
Na3 S1 2.912718 1_555
Na3 S13 2.944404 1_565
Na3 S15 2.977774 1_554
Na3 S11 3.147700 1_555
Na3 S3 3.253966 1_555
Na4 S14 2.894709 1_555
Na4 S5 2.912718 1_555
Na4 S10 2.944404 1_555
Na4 S8 2.977774 1_555
Na4 S12 3.147700 1_545
Na4 S2 3.253966 1_555
Na5 S15 2.894709 1_654
Na5 S3 2.912718 1_555
Na5 S11 2.944404 1_555
Na5 S9 2.977774 1_554
Na5 S13 3.147700 1_665
Na5 S1 3.253966 1_655
Na6 S12 2.894709 1_455
Na6 S7 2.912718 1_555
Na6 S8 2.944404 1_565
Na6 S10 2.977774 1_555
Na6 S14 3.147700 1_455
Na6 S0 3.253966 1_455
Na7 S13 2.894709 1_556
Na7 S6 2.912718 1_555
Na7 S9 2.944404 1_545
Na7 S11 2.977774 1_556
Na7 S15 3.147700 1_555
Na7 S4 3.253966 1_555
Na8 S6 2.725032 1_555
Na8 S0 2.745654 1_555
Na8 S7 2.763516 1_655
Na8 S14 2.864191 1_555
Na9 S7 2.725032 1_555
Na9 S4 2.745654 1_555
Na9 S6 2.763516 1_555
Na9 S15 2.864191 1_555
Na10 S3 2.725032 1_545
Na10 S2 2.745654 1_555
Na10 S5 2.763516 1_555
Na10 S12 2.864191 1_545
Na11 S5 2.725032 1_565
Na11 S1 2.745654 1_555
Na11 S3 2.763516 1_455
Na11 S13 2.864191 1_565
Na12 S1 2.725032 1_555
Na12 S5 2.745654 1_555
Na12 S2 2.763516 1_455
Na12 S10 2.864191 1_555
Na13 S2 2.725032 1_555
Na13 S3 2.745654 1_555
Na13 S1 2.763516 1_555
Na13 S11 2.864191 1_555
Na14 S4 2.725032 1_565
Na14 S7 2.745654 1_555
Na14 S0 2.763516 1_555
Na14 S8 2.864191 1_565
Na15 S0 2.725032 1_545
Na15 S6 2.745654 1_555
Na15 S4 2.763516 1_655
Na15 S9 2.864191 1_545
Hg0 S1 2.335867 1_555
Hg0 S13 2.338957 1_555
Hg1 S2 2.335867 1_555
Hg1 S12 2.338957 1_555
Hg2 S4 2.335867 1_565
Hg2 S15 2.338957 1_555
Hg3 S6 2.335867 1_555
Hg3 S9 2.338957 1_555
Hg4 S7 2.335867 1_555
Hg4 S8 2.338957 1_555
Hg5 S3 2.335867 1_545
Hg5 S11 2.338957 1_555
Hg6 S5 2.335867 1_565
Hg6 S10 2.338957 1_555
Hg7 S0 2.335867 1_545
Hg7 S14 2.338957 1_555
