# generated using pymatgen
data_LaMgTa2CuClO7
_symmetry_space_group_name_H-M   'P 1'
_cell_length_a   4.05939502
_cell_length_b   4.01454102
_cell_length_c   11.80174200
_cell_angle_alpha   89.99995204
_cell_angle_beta   90.00009574
_cell_angle_gamma   89.98750918
_symmetry_Int_Tables_number   1
_chemical_formula_structural   LaMgTa2CuClO7
_chemical_formula_sum   'La1 Mg1 Ta2 Cu1 Cl1 O7'
_cell_volume   192.32835683
_cell_formula_units_Z   1
loop_
 _symmetry_equiv_pos_site_id
 _symmetry_equiv_pos_as_xyz
  1  'x, y, z'
loop_
 _atom_site_type_symbol
 _atom_site_label
 _atom_site_symmetry_multiplicity
 _atom_site_fract_x
 _atom_site_fract_y
 _atom_site_fract_z
 _atom_site_occupancy
  La  La0  1  0.99999700  0.00000300  0.01013000  1
  Mg  Mg0  1  0.99999900  0.49999600  0.64106400  1
  Ta  Ta0  1  0.50000100  0.50000000  0.82862800  1
  Ta  Ta1  1  0.50000100  0.50000000  0.18420300  1
  Cu  Cu0  1  0.49999100  0.50000800  0.49184200  1
  Cl  Cl0  1  0.00000000  0.99999600  0.52367800  1
  O  O0  1  0.50000100  0.00000000  0.85376100  1
  O  O1  1  0.00000000  0.50000000  0.82135200  1
  O  O2  1  0.50000100  0.00000000  0.14771100  1
  O  O3  1  0.00000200  0.50000100  0.14673600  1
  O  O4  1  0.50000000  0.49999900  0.65927700  1
  O  O5  1  0.50000100  0.49999900  0.33680500  1
  O  O6  1  0.50000500  0.49999800  0.99740300  1
loop_
_geom_bond_atom_site_label_1
_geom_bond_atom_site_label_2
_geom_bond_distance
_geom_bond_site_symmetry_2
La0 O3 2.574541 1_655
La0 O3 2.574551 1_645
La0 O2 2.599231 1_555
La0 O2 2.599253 1_655
La0 O0 2.743209 1_554
La0 O0 2.743237 1_654
La0 O6 2.858212 1_554
La0 O6 2.858287 1_644
La0 O6 2.858862 1_544
La0 O6 2.858880 1_654
La0 O1 2.998776 1_654
La0 O1 2.998795 1_644
Mg0 O4 2.041043 1_555
Mg0 O4 2.041051 1_655
Mg0 O1 2.127712 1_655
Cu0 O5 1.829707 1_555
Cu0 O4 1.976025 1_555
Cl0 Mg0 2.438924 1_455
Cl0 Mg0 2.438926 1_465
Cl0 Cu0 2.878864 1_555
Cl0 Cu0 2.878981 1_465
Cl0 Cu0 2.879532 1_455
Cl0 Cu0 2.879548 1_565
O0 Ta0 2.029067 1_555
O0 Ta0 2.029068 1_545
O1 Ta0 2.031509 1_455
O1 Ta0 2.031517 1_555
O2 Ta1 2.052951 1_545
O2 Ta1 2.052952 1_555
O3 Ta1 2.077299 1_555
O3 Ta1 2.077309 1_455
O4 Ta0 1.998637 1_555
O5 Ta1 1.800969 1_555
O6 Ta0 1.991839 1_555
O6 Ta1 2.204565 1_556
