# generated using pymatgen
data_MgFe4O7F
_symmetry_space_group_name_H-M   'P 1'
_cell_length_a   5.15464615
_cell_length_b   5.24677921
_cell_length_c   5.87718177
_cell_angle_alpha   90.22279774
_cell_angle_beta   89.34524039
_cell_angle_gamma   101.44922920
_symmetry_Int_Tables_number   1
_chemical_formula_structural   MgFe4O7F
_chemical_formula_sum   'Mg1 Fe4 O7 F1'
_cell_volume   155.77675146
_cell_formula_units_Z   1
loop_
 _symmetry_equiv_pos_site_id
 _symmetry_equiv_pos_as_xyz
  1  'x, y, z'
loop_
 _atom_site_type_symbol
 _atom_site_label
 _atom_site_symmetry_multiplicity
 _atom_site_fract_x
 _atom_site_fract_y
 _atom_site_fract_z
 _atom_site_occupancy
  Mg  Mg0  1  0.53909478  0.04598956  0.48648481  1
  Fe  Fe0  1  0.01677454  0.97506166  0.00158075  1
  Fe  Fe1  1  0.01900295  0.95097604  0.48848490  1
  Fe  Fe2  1  0.43341826  0.54987788  0.23111569  1
  Fe  Fe3  1  0.43610521  0.54810760  0.75029034  1
  O  O0  1  0.23731877  0.83518863  0.24891227  1
  O  O1  1  0.22240091  0.83448357  0.73403925  1
  O  O2  1  0.26743285  0.32729484  0.98363422  1
  O  O3  1  0.31275688  0.30756628  0.49685433  1
  O  O4  1  0.68872340  0.67980736  0.98291302  1
  O  O5  1  0.66746099  0.69870334  0.50233728  1
  O  O6  1  0.84124447  0.10926030  0.25841246  1
  F  F0  1  0.81826300  0.13768493  0.73077268  1
loop_
_geom_bond_atom_site_label_1
_geom_bond_atom_site_label_2
_geom_bond_distance
_geom_bond_site_symmetry_2
Mg0 O3 1.970245 1_555
Mg0 O6 2.020680 1_555
Mg0 O5 2.061082 1_545
Mg0 O0 2.224221 1_545
Mg0 O1 2.291779 1_545
Fe0 O6 1.950973 1_465
Fe0 O2 2.036271 1_564
Fe0 O4 2.057728 1_454
Fe0 O0 2.078757 1_555
Fe0 O1 2.098368 1_554
Fe1 O6 1.922708 1_465
Fe1 O0 1.961251 1_555
Fe1 O1 1.962497 1_555
Fe1 O5 2.021750 1_455
Fe1 O3 2.161472 1_565
Fe2 O2 1.957040 1_554
Fe2 O0 1.967407 1_555
Fe2 O4 1.982978 1_554
Fe2 O3 2.030199 1_555
Fe2 O5 2.065511 1_555
Fe3 O2 1.887895 1_555
Fe3 O4 1.928305 1_555
Fe3 O5 1.940435 1_555
Fe3 O3 1.975882 1_555
Fe3 O1 2.034910 1_555
F0 Mg0 2.032369 1_555
F0 Fe1 2.101413 1_645
F0 Fe0 2.168557 1_646
