# generated using pymatgen
data_Ba2MgCoMoO6
_symmetry_space_group_name_H-M   'P 1'
_cell_length_a   5.97750979
_cell_length_b   5.89009530
_cell_length_c   6.46627951
_cell_angle_alpha   65.47905892
_cell_angle_beta   60.79878928
_cell_angle_gamma   60.78748856
_symmetry_Int_Tables_number   1
_chemical_formula_structural   Ba2MgCoMoO6
_chemical_formula_sum   'Ba2 Mg1 Co1 Mo1 O6'
_cell_volume   168.71502569
_cell_formula_units_Z   1
loop_
 _symmetry_equiv_pos_site_id
 _symmetry_equiv_pos_as_xyz
  1  'x, y, z'
loop_
 _atom_site_type_symbol
 _atom_site_label
 _atom_site_symmetry_multiplicity
 _atom_site_fract_x
 _atom_site_fract_y
 _atom_site_fract_z
 _atom_site_occupancy
  Ba  Ba0  1  0.74789839  0.72681844  0.78627722  1
  Ba  Ba1  1  0.26380319  0.30233136  0.14393065  1
  Mg  Mg0  1  0.09942012  0.07879736  0.75362351  1
  Co  Co0  1  0.89707391  0.93345900  0.23733885  1
  Mo  Mo0  1  0.51485259  0.50950924  0.46675697  1
  O  O0  1  0.83870765  0.30129299  0.59957651  1
  O  O1  1  0.72976328  0.30584995  0.18121455  1
  O  O2  1  0.34697693  0.22731609  0.70883806  1
  O  O3  1  0.30404787  0.71251538  0.73336485  1
  O  O4  1  0.68528945  0.79876993  0.21221070  1
  O  O5  1  0.19716663  0.72834026  0.31228513  1
loop_
_geom_bond_atom_site_label_1
_geom_bond_atom_site_label_2
_geom_bond_distance
_geom_bond_site_symmetry_2
Ba0 O1 2.723573 1_556
Ba0 O4 2.777337 1_556
Ba0 O2 2.781045 1_565
Ba0 O3 2.879420 1_555
Ba0 O5 2.928360 1_655
Ba0 O0 2.928872 1_555
Ba0 Co0 3.043186 1_555
Ba0 O3 3.133117 1_655
Ba0 O2 3.304483 1_655
Ba0 O0 3.311229 1_565
Ba0 O5 3.387792 1_556
Ba1 O3 2.750137 1_554
Ba1 O2 2.794704 1_554
Ba1 O0 2.798698 1_455
Ba1 O4 2.836212 1_545
Ba1 O5 2.916968 1_555
Ba1 O1 2.920968 1_555
Ba1 O1 3.072051 1_455
Ba1 O4 3.227265 1_455
Ba1 O5 3.257356 1_545
Mg0 O0 1.891025 1_455
Mg0 O3 1.915785 1_545
Mg0 O2 1.916762 1_555
Co0 O5 1.777384 1_655
Co0 O1 1.869543 1_565
Co0 O4 1.883191 1_555
Mo0 O3 2.027386 1_555
Mo0 O2 2.038557 1_555
Mo0 O4 2.092912 1_555
Mo0 O0 2.102332 1_555
Mo0 O1 2.125627 1_555
Mo0 O5 2.158278 1_555
