# generated using pymatgen
data_Na10Mg6Zr2Si3(S3O16)3
_symmetry_space_group_name_H-M   'P 1'
_cell_length_a   17.95311304
_cell_length_b   9.00039474
_cell_length_c   22.57958054
_cell_angle_alpha   90.06516883
_cell_angle_beta   89.94228834
_cell_angle_gamma   119.92616017
_symmetry_Int_Tables_number   1
_chemical_formula_structural   Na10Mg6Zr2Si3(S3O16)3
_chemical_formula_sum   'Na30 Mg18 Zr6 Si9 S27 O144'
_cell_volume   3162.06029902
_cell_formula_units_Z   3
loop_
 _symmetry_equiv_pos_site_id
 _symmetry_equiv_pos_as_xyz
  1  'x, y, z'
loop_
 _atom_site_type_symbol
 _atom_site_label
 _atom_site_symmetry_multiplicity
 _atom_site_fract_x
 _atom_site_fract_y
 _atom_site_fract_z
 _atom_site_occupancy
  Na  Na0  1  0.31754950  0.00204538  0.24510692  1
  Na  Na1  1  0.18940436  0.35986678  0.24917519  1
  Na  Na2  1  0.49787888  0.63618815  0.25497029  1
  Na  Na3  1  0.30962521  0.61942525  0.73952385  1
  Na  Na4  1  0.81718072  0.63390763  0.74385474  1
  Na  Na5  1  0.00198797  0.35385778  0.75398326  1
  Na  Na6  1  0.18229353  0.01600927  0.75608898  1
  Na  Na7  1  0.68999332  0.02033329  0.74902088  1
  Na  Na8  1  0.16260408  0.34919323  0.58807648  1
  Na  Na9  1  0.82884092  0.69976311  0.08034282  1
  Na  Na10  1  0.48239935  0.65310974  0.91874027  1
  Na  Na11  1  0.35149401  0.03992000  0.91718331  1
  Na  Na12  1  0.85406770  0.03936012  0.92220527  1
  Na  Na13  1  0.65994056  0.30406193  0.91739280  1
  Na  Na14  1  0.98045360  0.30797145  0.41737587  1
  Na  Na15  1  0.15854456  0.01474882  0.41594562  1
  Na  Na16  1  0.35425054  0.66772880  0.42318337  1
  Na  Na17  1  0.85047009  0.66208929  0.41593863  1
  Na  Na18  1  0.99364534  0.97176708  0.49745614  1
  Na  Na19  1  0.50379388  0.00024651  0.49805292  1
  Na  Na20  1  0.00913683  0.02162188  0.99742210  1
  Na  Na21  1  0.50072716  0.01652827  0.99725475  1
  Na  Na22  1  0.32758760  0.32852811  0.83469928  1
  Na  Na23  1  0.83513941  0.33309665  0.82869774  1
  Na  Na24  1  0.33469295  0.33481429  0.32875417  1
  Na  Na25  1  0.82886542  0.33246456  0.33347578  1
  Na  Na26  1  0.16346441  0.67255172  0.16100771  1
  Na  Na27  1  0.67839012  0.69732839  0.16182476  1
  Na  Na28  1  0.17546011  0.66674860  0.66084045  1
  Na  Na29  1  0.66476436  0.65464454  0.66028584  1
  Mg  Mg0  1  0.00099968  0.98516792  0.34896425  1
  Mg  Mg1  1  0.50343296  0.00055813  0.35103810  1
  Mg  Mg2  1  0.00512834  0.01375544  0.84956036  1
  Mg  Mg3  1  0.50404308  0.01855201  0.85046517  1
  Mg  Mg4  1  0.33210636  0.34323422  0.68007826  1
  Mg  Mg5  1  0.83103679  0.32541020  0.68358297  1
  Mg  Mg6  1  0.33116402  0.33618709  0.18401229  1
  Mg  Mg7  1  0.83123261  0.31721831  0.18038846  1
  Mg  Mg8  1  0.32994622  0.32942850  0.98196143  1
  Mg  Mg9  1  0.83919861  0.32583606  0.98828761  1
  Mg  Mg10  1  0.34136379  0.34914182  0.48682604  1
  Mg  Mg11  1  0.82920447  0.33065937  0.48147502  1
  Mg  Mg12  1  0.16445669  0.66325807  0.01608152  1
  Mg  Mg13  1  0.66303614  0.66342217  0.02056777  1
  Mg  Mg14  1  0.16849104  0.67946051  0.51970834  1
  Mg  Mg15  1  0.66441469  0.66363950  0.51630867  1
  Mg  Mg16  1  0.67049765  0.66827985  0.31750285  1
  Mg  Mg17  1  0.16545191  0.65521513  0.81773511  1
  Zr  Zr0  1  0.99688479  0.00515287  0.65029088  1
  Zr  Zr1  1  0.50114168  0.00817898  0.64287275  1
  Zr  Zr2  1  0.00000153  -0.00027108  0.14598217  1
  Zr  Zr3  1  0.49763050  0.99492271  0.14777481  1
  Zr  Zr4  1  0.16031576  0.67058617  0.31333975  1
  Zr  Zr5  1  0.66097162  0.65008803  0.81420701  1
  Si  Si0  1  0.14988061  0.00873198  0.25222794  1
  Si  Si1  1  0.35453501  0.70229273  0.25509152  1
  Si  Si2  1  0.15215106  0.29889655  0.75187191  1
  Si  Si3  1  0.64975617  0.29115539  0.75242265  1
  Si  Si4  1  0.85263354  0.00560075  0.75613186  1
  Si  Si5  1  0.33024559  0.63109585  0.58045101  1
  Si  Si6  1  0.82797694  0.03150314  0.08015470  1
  Si  Si7  1  0.51530923  0.36636177  0.92191269  1
  Si  Si8  1  0.01516732  0.66460382  0.42180430  1
  S  S0  1  0.64875523  0.00270336  0.25202533  1
  S  S1  1  0.84881665  0.69668918  0.25052422  1
  S  S2  1  0.99400992  0.28641417  0.25304646  1
  S  S3  1  0.50486425  0.29660372  0.25065494  1
  S  S4  1  0.00192746  0.71074106  0.75164384  1
  S  S5  1  0.49720105  0.70781983  0.75214236  1
  S  S6  1  0.35242777  0.00208024  0.75179031  1
  S  S7  1  0.48177239  0.34414776  0.58275433  1
  S  S8  1  0.97784600  0.33373523  0.58208531  1
  S  S9  1  0.18782887  0.03885101  0.58324732  1
  S  S10  1  0.68941777  0.03548037  0.58245349  1
  S  S11  1  0.83128955  0.62498540  0.58236333  1
  S  S12  1  0.47830948  0.62194647  0.08336929  1
  S  S13  1  0.98140895  0.62064353  0.08320302  1
  S  S14  1  0.33129103  0.03722225  0.08253589  1
  S  S15  1  0.18911366  0.34311639  0.08259906  1
  S  S16  1  0.68751985  0.33190341  0.08237674  1
  S  S17  1  0.31226030  0.66501589  0.91658413  1
  S  S18  1  0.81799080  0.66562009  0.91861204  1
  S  S19  1  0.01899391  0.37395925  0.91662161  1
  S  S20  1  0.16366022  0.95435465  0.91675508  1
  S  S21  1  0.66582683  0.96174918  0.91773661  1
  S  S22  1  0.31714574  0.96753419  0.41788622  1
  S  S23  1  0.81085393  0.95765968  0.41682252  1
  S  S24  1  0.16566985  0.36865990  0.41780595  1
  S  S25  1  0.66353049  0.37118873  0.41702639  1
  S  S26  1  0.52102151  0.66654793  0.41507322  1
  O  O0  1  0.11022246  0.04327371  0.31150889  1
  O  O1  1  0.60720594  0.02417710  0.30473403  1
  O  O2  1  0.41118375  0.79311555  0.31303056  1
  O  O3  1  0.90092894  0.78148494  0.30390851  1
  O  O4  1  0.49119488  0.18806145  0.30284160  1
  O  O5  1  0.98515501  0.18905963  0.30768202  1
  O  O6  1  0.10456967  0.16321142  0.80378271  1
  O  O7  1  0.61134999  0.17861282  0.81181905  1
  O  O8  1  0.48436015  0.78476596  0.80647058  1
  O  O9  1  0.98311863  0.78447790  0.80299597  1
  O  O10  1  0.40169882  0.01962335  0.80639617  1
  O  O11  1  0.90691509  0.02607975  0.81486845  1
  O  O12  1  0.39366275  0.96794232  0.69963941  1
  O  O13  1  0.89727041  0.95838596  0.69874561  1
  O  O14  1  0.09045674  0.20852322  0.68989557  1
  O  O15  1  0.58762008  0.19175272  0.69564661  1
  O  O16  1  0.01760651  0.81996713  0.69753745  1
  O  O17  1  0.50858543  0.81808429  0.69956122  1
  O  O18  1  0.40138299  0.83804817  0.19806788  1
  O  O19  1  0.89162564  0.80575866  0.19626382  1
  O  O20  1  0.00607139  0.20069387  0.20066169  1
  O  O21  1  0.51830875  0.21830313  0.19669509  1
  O  O22  1  0.08875275  0.98453349  0.19501228  1
  O  O23  1  0.59289815  0.97841307  0.19848781  1
  O  O24  1  0.43869870  0.35518350  0.63701152  1
  O  O25  1  0.93613059  0.34581016  0.63659747  1
  O  O26  1  0.23627388  0.12281704  0.63770271  1
  O  O27  1  0.73608698  0.11185936  0.63826831  1
  O  O28  1  0.31681360  0.51649801  0.63976191  1
  O  O29  1  0.82495763  0.52842052  0.63727424  1
  O  O30  1  0.43568491  0.52275699  0.13744095  1
  O  O31  1  0.94036423  0.52446028  0.13790058  1
  O  O32  1  0.32449442  0.12098455  0.13743480  1
  O  O33  1  0.82032935  0.12737080  0.13751717  1
  O  O34  1  0.23635744  0.36075312  0.13852843  1
  O  O35  1  0.74276064  0.35644441  0.13459375  1
  O  O36  1  0.23130899  0.31620122  0.03112848  1
  O  O37  1  0.72664136  0.31154163  0.02684434  1
  O  O38  1  0.42656835  0.54719144  0.02952434  1
  O  O39  1  0.92662709  0.54489967  0.03085757  1
  O  O40  1  0.34173552  0.13971991  0.02908371  1
  O  O41  1  0.84526953  0.13241881  0.01743141  1
  O  O42  1  0.22912251  0.14413136  0.52950110  1
  O  O43  1  0.73167649  0.14572060  0.53086883  1
  O  O44  1  0.34426585  0.54949658  0.51963565  1
  O  O45  1  0.84053532  0.54102608  0.52873070  1
  O  O46  1  0.43026942  0.31551043  0.52929004  1
  O  O47  1  0.92689792  0.31110149  0.52835016  1
  O  O48  1  0.27077455  0.69618773  0.96767437  1
  O  O49  1  0.77603317  0.69276995  0.97072413  1
  O  O50  1  0.07176341  0.46549198  0.96844958  1
  O  O51  1  0.58314332  0.46476617  0.97389077  1
  O  O52  1  0.15664066  0.84823752  0.96878217  1
  O  O53  1  0.65822275  0.85501837  0.96832496  1
  O  O54  1  0.27510683  0.85271266  0.46808724  1
  O  O55  1  0.77153619  0.84612521  0.46918723  1
  O  O56  1  0.15823937  0.45749965  0.47025842  1
  O  O57  1  0.65298100  0.45423228  0.47060823  1
  O  O58  1  0.08325484  0.70341667  0.47379856  1
  O  O59  1  0.57307395  0.67959025  0.46709800  1
  O  O60  1  0.06203871  0.63278686  0.36183989  1
  O  O61  1  0.56147054  0.65269023  0.35890577  1
  O  O62  1  0.26332411  0.88593399  0.36210794  1
  O  O63  1  0.76044107  0.87738161  0.36264723  1
  O  O64  1  0.18101703  0.47670925  0.36326856  1
  O  O65  1  0.67898545  0.48263438  0.36402707  1
  O  O66  1  0.05863574  0.46754121  0.86036742  1
  O  O67  1  0.56107969  0.49167156  0.86183507  1
  O  O68  1  0.17790101  0.87698626  0.86147069  1
  O  O69  1  0.68056156  0.88717777  0.86176512  1
  O  O70  1  0.26453458  0.64722209  0.86085479  1
  O  O71  1  0.76219471  0.64131779  0.86403023  1
  O  O72  1  0.00323130  0.83305182  0.41283209  1
  O  O73  1  0.51038403  0.82174796  0.41407183  1
  O  O74  1  0.40351051  0.98774471  0.41055124  1
  O  O75  1  0.90027519  0.98150093  0.41112265  1
  O  O76  1  0.08432773  0.20168438  0.41257852  1
  O  O77  1  0.58689645  0.19873195  0.41023299  1
  O  O78  1  0.00889341  0.19844693  0.91552397  1
  O  O79  1  0.50395155  0.17417764  0.91351443  1
  O  O80  1  0.08572986  0.97010439  0.91279983  1
  O  O81  1  0.58395952  0.96643018  0.91294289  1
  O  O82  1  0.40181401  0.81928723  0.91200750  1
  O  O83  1  0.90338819  0.81827820  0.91136213  1
  O  O84  1  0.49270463  0.18667964  0.58759267  1
  O  O85  1  0.98792084  0.17331339  0.58530337  1
  O  O86  1  0.09986696  0.02812342  0.58628951  1
  O  O87  1  0.60032405  0.01734704  0.58629257  1
  O  O88  1  0.41731461  0.82609873  0.58878368  1
  O  O89  1  0.91162542  0.80008032  0.58556963  1
  O  O90  1  0.48847346  0.80115578  0.08928416  1
  O  O91  1  0.98903041  0.79817157  0.08818890  1
  O  O92  1  0.41262475  0.02330741  0.08662198  1
  O  O93  1  0.91614283  0.00321386  0.08830250  1
  O  O94  1  0.10000130  0.18465071  0.08683760  1
  O  O95  1  0.60063248  0.17488752  0.08861462  1
  O  O96  1  0.34437765  0.15593781  0.74334956  1
  O  O97  1  0.84762356  0.17774817  0.74376002  1
  O  O98  1  0.24782679  0.31994880  0.74486924  1
  O  O99  1  0.74771306  0.32865179  0.74278582  1
  O  O100  1  0.42473959  0.53466241  0.74474742  1
  O  O101  1  0.92703354  0.53563821  0.74134304  1
  O  O102  1  0.34781648  0.51802621  0.24415838  1
  O  O103  1  0.84112942  0.52621795  0.24335304  1
  O  O104  1  0.42556179  0.31052229  0.24306054  1
  O  O105  1  0.92277678  0.31932634  0.24654957  1
  O  O106  1  0.24755793  0.16751866  0.24304637  1
  O  O107  1  0.73510577  0.15539891  0.24495642  1
  O  O108  1  0.32204302  0.51123415  0.92336712  1
  O  O109  1  0.82113933  0.50391859  0.92275269  1
  O  O110  1  0.42006720  0.35074595  0.92466384  1
  O  O111  1  0.93100407  0.35515105  0.91974263  1
  O  O112  1  0.24281717  0.12782256  0.92227936  1
  O  O113  1  0.74022702  0.14095325  0.92096146  1
  O  O114  1  0.32026754  0.13591605  0.42331055  1
  O  O115  1  0.82108217  0.13131984  0.42363566  1
  O  O116  1  0.24065594  0.33850405  0.42072049  1
  O  O117  1  0.74289550  0.35609565  0.42253363  1
  O  O118  1  0.43252409  0.51007800  0.41770535  1
  O  O119  1  0.92036008  0.48971246  0.42420768  1
  O  O120  1  0.17819906  0.49427842  0.07604607  1
  O  O121  1  0.67731893  0.48542010  0.07916435  1
  O  O122  1  0.06855301  0.64578742  0.07709779  1
  O  O123  1  0.56504012  0.64450688  0.07935633  1
  O  O124  1  0.25614708  0.86220888  0.07832738  1
  O  O125  1  0.74787481  0.83136660  0.07727899  1
  O  O126  1  0.17512457  0.86536576  0.58009126  1
  O  O127  1  0.67790775  0.86218735  0.57588702  1
  O  O128  1  0.24298875  0.64701661  0.57676203  1
  O  O129  1  0.75492925  0.64802607  0.57840502  1
  O  O130  1  0.06591774  0.48154288  0.57859686  1
  O  O131  1  0.56870129  0.49594083  0.57839751  1
  O  O132  1  0.15903911  0.83281764  0.25446831  1
  O  O133  1  0.65266765  0.84024838  0.25507905  1
  O  O134  1  0.25659015  0.67625995  0.25682678  1
  O  O135  1  0.76261115  0.68233493  0.25465414  1
  O  O136  1  0.07931372  0.45566526  0.25514559  1
  O  O137  1  0.57972960  0.47516115  0.25660490  1
  O  O138  1  0.15759473  0.48731477  0.75527478  1
  O  O139  1  0.65849465  0.48484501  0.75468863  1
  O  O140  1  0.08130338  0.69683382  0.75809626  1
  O  O141  1  0.58075762  0.70695722  0.75529802  1
  O  O142  1  0.26404759  0.84742355  0.75580499  1
  O  O143  1  0.75425511  0.83714114  0.75733490  1
loop_
_geom_bond_atom_site_label_1
_geom_bond_atom_site_label_2
_geom_bond_distance
_geom_bond_site_symmetry_2
Na0 O106 2.380493 1_555
Na0 O104 2.469650 1_555
Na0 O132 2.477432 1_545
Na0 O134 2.581640 1_545
Na0 O32 2.635212 1_555
Na0 O18 2.789594 1_545
Na0 O62 2.829336 1_545
Na1 O106 2.430808 1_555
Na1 O102 2.467348 1_555
Na1 O134 2.483159 1_555
Na1 O136 2.523408 1_555
Na1 O34 2.634676 1_555
Na1 O64 2.813602 1_555
Na1 O0 2.843360 1_555
Na2 O102 2.364467 1_555
Na2 O133 2.450150 1_555
Na2 O137 2.527134 1_555
Na2 O104 2.559551 1_555
Na2 O61 2.582333 1_555
Na2 O30 2.862499 1_555
Na2 O2 2.884648 1_555
Na2 O23 2.964091 1_555
Na3 O98 2.351038 1_555
Na3 O138 2.398103 1_555
Na3 O28 2.462302 1_555
Na3 O100 2.537882 1_555
Na3 O142 2.586265 1_555
Na3 O12 2.865038 1_555
Na3 O70 2.901616 1_555
Na4 O99 2.384410 1_555
Na4 O139 2.482296 1_555
Na4 O101 2.532819 1_555
Na4 O143 2.602820 1_555
Na4 O29 2.615098 1_555
Na4 O13 2.729070 1_555
Na4 O71 2.898618 1_555
Na4 O9 2.910413 1_555
Na5 O97 2.421462 1_455
Na5 O138 2.428984 1_555
Na5 O101 2.601469 1_455
Na5 O66 2.610061 1_555
Na5 O140 2.679392 1_555
Na5 O25 2.889443 1_455
Na5 O14 2.896851 1_555
Na5 O11 2.913228 1_455
Na6 O98 2.391956 1_555
Na6 O140 2.518942 1_545
Na6 O96 2.545389 1_555
Na6 O142 2.584310 1_545
Na6 O6 2.588520 1_555
Na6 O68 2.672399 1_545
Na6 O26 2.842520 1_555
Na6 O16 2.898321 1_545
Na7 O99 2.434262 1_555
Na7 O143 2.446206 1_545
Na7 O97 2.455453 1_555
Na7 O141 2.510517 1_545
Na7 O27 2.633909 1_555
Na7 O69 2.783744 1_545
Na7 O7 2.834025 1_555
Na8 O128 2.339707 1_555
Na8 O86 2.524522 1_555
Na8 O130 2.557785 1_555
Na8 O14 2.632605 1_555
Na8 O28 2.671550 1_555
Na8 O85 2.718783 1_455
Na8 O56 2.848862 1_555
Na8 O42 2.961797 1_555
Na9 O125 2.288891 1_555
Na9 O93 2.382543 1_565
Na9 O121 2.426156 1_555
Na9 O91 2.558478 1_555
Na9 O49 2.640825 1_554
Na9 O19 2.821174 1_555
Na9 O35 2.945690 1_555
Na9 O39 2.950809 1_555
Na10 O110 2.374467 1_555
Na10 O81 2.482769 1_555
Na10 O108 2.502251 1_555
Na10 O82 2.552101 1_555
Na10 O38 2.686585 1_556
Na10 O8 2.792246 1_555
Na10 O67 2.792396 1_555
Na10 O53 2.966294 1_555
Na11 O79 2.378741 1_555
Na11 O110 2.435861 1_555
Na11 O112 2.446513 1_555
Na11 O82 2.561705 1_545
Na11 O10 2.694831 1_555
Na11 O40 2.715238 1_556
Na11 O48 2.915881 1_545
Na11 O68 2.981511 1_545
Na12 O41 2.340278 1_556
Na12 O78 2.414064 1_655
Na12 O111 2.464226 1_555
Na12 O83 2.561211 1_545
Na12 O113 2.622742 1_555
Na12 O11 2.626073 1_555
Na12 O49 2.921996 1_545
Na13 O79 2.439418 1_555
Na13 O113 2.520130 1_555
Na13 O109 2.536088 1_555
Na13 O7 2.594938 1_555
Na13 O81 2.639862 1_545
Na13 O37 2.733372 1_556
Na13 O51 2.757258 1_555
Na13 O71 2.911987 1_555
Na14 O119 2.371348 1_555
Na14 O76 2.486752 1_655
Na14 O115 2.489001 1_555
Na14 O75 2.550532 1_545
Na14 O47 2.688135 1_555
Na14 O5 2.714957 1_555
Na14 O60 2.827838 1_655
Na15 O72 2.429942 1_545
Na15 O116 2.527714 1_555
Na15 O114 2.547186 1_555
Na15 O0 2.570421 1_555
Na15 O76 2.617098 1_555
Na15 O58 2.758794 1_545
Na15 O42 2.839608 1_555
Na15 O62 2.920411 1_545
Na16 O44 2.392011 1_555
Na16 O73 2.437966 1_555
Na16 O118 2.447879 1_555
Na16 O74 2.572789 1_555
Na16 O116 2.629218 1_555
Na16 O2 2.711982 1_555
Na16 O54 2.858762 1_555
Na17 O72 2.383985 1_655
Na17 O119 2.441257 1_555
Na17 O117 2.455660 1_555
Na17 O75 2.551803 1_555
Na17 O3 2.721126 1_555
Na17 O45 2.741668 1_555
Na17 O65 2.915896 1_555
Na17 O55 2.920879 1_555
Na18 O72 2.334032 1_655
Na18 O89 2.499046 1_555
Na18 O75 2.602146 1_555
Na18 O86 2.637715 1_665
Na18 O76 2.692017 1_665
Na18 O85 2.722691 1_565
Na19 O73 2.524498 1_545
Na19 O88 2.576251 1_545
Na19 O77 2.586911 1_555
Na19 O87 2.595549 1_555
Na19 O74 2.638602 1_545
Na19 O84 2.695842 1_555
Na20 O78 2.442573 1_555
Na20 O80 2.526979 1_545
Na20 O94 2.549900 1_556
Na20 O93 2.596833 1_456
Na20 O83 2.694885 1_445
Na20 O91 2.767469 1_446
Na21 O79 2.348570 1_555
Na21 O92 2.582041 1_556
Na21 O81 2.593250 1_545
Na21 O82 2.619861 1_545
Na21 O95 2.637040 1_556
Na21 O90 2.776097 1_546
Na22 O98 2.462870 1_555
Na22 O110 2.568581 1_555
Na22 O112 2.597873 1_555
Na22 O108 2.622559 1_555
Na22 O96 2.686445 1_555
Na22 O100 2.717027 1_555
Na23 O97 2.447260 1_555
Na23 O99 2.484252 1_555
Na23 O111 2.625442 1_555
Na23 O101 2.633686 1_555
Na23 O113 2.700945 1_555
Na23 O109 2.704484 1_555
Na24 O102 2.458024 1_555
Na24 O106 2.471603 1_555
Na24 O104 2.608007 1_555
Na24 O118 2.615851 1_555
Na24 O116 2.685543 1_555
Na24 O114 2.715725 1_555
Na25 O119 2.564947 1_555
Na25 O107 2.586706 1_555
Na25 O117 2.606030 1_555
Na25 O103 2.618118 1_555
Na25 O105 2.626924 1_555
Na25 O115 2.682682 1_555
Na26 O122 2.479337 1_555
Na26 O124 2.516900 1_555
Na26 O132 2.578264 1_555
Na26 O120 2.596194 1_555
Na26 O134 2.725577 1_555
Na26 O136 2.769758 1_555
Na27 O125 2.270405 1_555
Na27 O123 2.622009 1_555
Na27 O133 2.624163 1_555
Na27 O135 2.628399 1_555
Na27 O121 2.660257 1_555
Na27 O137 2.860762 1_555
Na28 O128 2.305404 1_555
Na28 O126 2.556992 1_555
Na28 O138 2.597556 1_555
Na28 O130 2.612321 1_555
Na28 O142 2.681435 1_555
Na28 O140 2.863750 1_555
Na29 O131 2.444575 1_555
Na29 O129 2.476286 1_555
Na29 O139 2.593677 1_555
Na29 O127 2.596928 1_555
Na29 O143 2.728914 1_555
Na29 O141 2.792573 1_555
Mg0 O0 1.951487 1_565
Mg0 O72 2.003764 1_555
Mg0 O3 2.082465 1_455
Mg0 O5 2.200610 1_465
Mg0 O75 2.275168 1_455
Mg0 O76 2.277705 1_565
Mg1 O2 1.969584 1_545
Mg1 O1 2.051995 1_555
Mg1 O4 2.110735 1_555
Mg1 O77 2.131919 1_555
Mg1 O74 2.196877 1_545
Mg1 O73 2.199384 1_545
Mg2 O6 1.915312 1_555
Mg2 O11 1.983186 1_455
Mg2 O9 2.168478 1_445
Mg2 O80 2.204527 1_545
Mg2 O78 2.206504 1_555
Mg2 O83 2.274429 1_445
Mg3 O7 1.943845 1_555
Mg3 O79 1.996599 1_555
Mg3 O10 2.094672 1_555
Mg3 O8 2.189350 1_545
Mg3 O81 2.223927 1_545
Mg3 O82 2.287404 1_545
Mg4 O28 1.940840 1_555
Mg4 O98 2.037991 1_555
Mg4 O26 2.098729 1_555
Mg4 O24 2.100103 1_555
Mg4 O100 2.237559 1_555
Mg4 O96 2.303896 1_555
Mg5 O99 2.016191 1_555
Mg5 O97 2.025098 1_555
Mg5 O25 2.090425 1_555
Mg5 O27 2.092110 1_555
Mg5 O29 2.155775 1_555
Mg5 O101 2.235301 1_555
Mg6 O106 2.015285 1_555
Mg6 O102 2.029740 1_555
Mg6 O30 2.074309 1_555
Mg6 O34 2.092896 1_555
Mg6 O32 2.153192 1_555
Mg6 O104 2.258092 1_555
Mg7 O33 1.886247 1_555
Mg7 O35 2.068902 1_555
Mg7 O31 2.142933 1_555
Mg7 O107 2.171849 1_555
Mg7 O105 2.215161 1_555
Mg7 O103 2.291777 1_555
Mg8 O110 2.003746 1_555
Mg8 O36 2.041700 1_556
Mg8 O40 2.111270 1_556
Mg8 O38 2.147218 1_556
Mg8 O108 2.164501 1_555
Mg8 O112 2.173027 1_555
Mg9 O41 1.915065 1_556
Mg9 O39 2.045959 1_556
Mg9 O37 2.143651 1_556
Mg9 O111 2.177952 1_555
Mg9 O113 2.299288 1_555
Mg9 O109 2.321348 1_555
Mg10 O44 1.925260 1_555
Mg10 O46 2.011071 1_555
Mg10 O42 2.164249 1_555
Mg10 O118 2.201620 1_555
Mg10 O114 2.269989 1_555
Mg10 O116 2.310509 1_555
Mg11 O119 2.015438 1_555
Mg11 O43 2.042695 1_555
Mg11 O45 2.091971 1_555
Mg11 O47 2.130639 1_555
Mg11 O117 2.140893 1_555
Mg11 O115 2.163285 1_555
Mg12 O50 2.034236 1_554
Mg12 O52 2.041963 1_554
Mg12 O48 2.087554 1_554
Mg12 O120 2.141717 1_555
Mg12 O122 2.147770 1_555
Mg12 O124 2.224726 1_555
Mg13 O51 1.950618 1_554
Mg13 O125 1.986659 1_555
Mg13 O53 2.127484 1_554
Mg13 O123 2.140851 1_555
Mg13 O121 2.190524 1_555
Mg13 O49 2.216584 1_554
Mg14 O58 1.948248 1_555
Mg14 O128 1.981836 1_555
Mg14 O126 2.114020 1_555
Mg14 O54 2.115523 1_555
Mg14 O56 2.213595 1_555
Mg14 O130 2.249399 1_555
Mg15 O59 2.045316 1_555
Mg15 O57 2.066205 1_555
Mg15 O55 2.091999 1_555
Mg15 O131 2.146735 1_555
Mg15 O127 2.150594 1_555
Mg15 O129 2.204366 1_555
Mg16 O63 2.038429 1_555
Mg16 O65 2.043765 1_555
Mg16 O61 2.108922 1_555
Mg16 O135 2.133446 1_555
Mg16 O137 2.177241 1_555
Mg16 O133 2.232716 1_555
Mg17 O138 2.018767 1_555
Mg17 O66 2.055557 1_555
Mg17 O70 2.061246 1_555
Mg17 O68 2.135449 1_555
Mg17 O140 2.192231 1_555
Mg17 O142 2.241997 1_555
O0 Si0 1.616556 1_555
O1 S0 1.466884 1_555
O2 Si1 1.607725 1_555
O3 S1 1.482732 1_555
O4 S3 1.471716 1_555
O5 S2 1.475810 1_555
O6 Si2 1.598540 1_555
O7 Si3 1.613841 1_555
O8 S5 1.481342 1_555
O9 S4 1.456021 1_655
O10 S6 1.479873 1_555
O11 Si4 1.601695 1_555
O12 S6 1.501143 1_565
O12 Zr1 2.190024 1_565
O13 Si4 1.684697 1_565
O13 Zr0 1.954111 1_565
O14 Si2 1.717075 1_555
O14 Zr0 1.975713 1_455
O15 Si3 1.640971 1_555
O15 Zr1 2.000010 1_555
O16 S4 1.504713 1_555
O16 Zr0 2.162877 1_465
O17 S5 1.495350 1_555
O17 Zr1 2.194766 1_565
O18 Si1 1.683504 1_555
O18 Zr3 1.958143 1_555
O19 S1 1.517717 1_555
O19 Zr2 2.175634 1_665
O20 S2 1.485027 1_455
O20 Zr2 2.146244 1_555
O21 S3 1.485451 1_555
O21 Zr3 2.156659 1_545
O22 Si0 1.638460 1_565
O22 Zr2 2.001113 1_565
O23 S0 1.515864 1_565
O23 Zr3 2.125205 1_555
O24 S7 1.477567 1_555
O25 S8 1.471993 1_555
O26 S9 1.477721 1_555
O27 S10 1.479304 1_555
O28 Si5 1.633956 1_555
O29 S11 1.486321 1_555
O30 S12 1.480601 1_555
O31 S13 1.477114 1_555
O32 S14 1.486336 1_555
O33 Si6 1.598829 1_555
O34 S15 1.485524 1_555
O35 S16 1.485151 1_555
O36 S15 1.471022 1_555
O37 S16 1.491737 1_555
O38 S12 1.473278 1_555
O39 S13 1.469876 1_555
O40 S14 1.473892 1_555
O41 Si6 1.627223 1_555
O42 S9 1.490006 1_555
O43 S10 1.471901 1_555
O44 Si5 1.633962 1_555
O45 S11 1.479114 1_555
O46 S7 1.463720 1_555
O47 S8 1.471744 1_555
O48 S17 1.473176 1_555
O49 S18 1.480843 1_555
O50 S19 1.472080 1_555
O51 Si7 1.602903 1_555
O52 S20 1.479962 1_555
O53 S21 1.455172 1_555
O54 S22 1.464647 1_555
O55 S23 1.482564 1_555
O56 S24 1.470985 1_555
O57 S25 1.482225 1_555
O58 Si8 1.603260 1_555
O59 S26 1.469502 1_555
O60 Si8 1.691331 1_555
O60 Zr4 1.956038 1_555
O61 S26 1.496491 1_555
O62 S22 1.533477 1_555
O62 Zr4 2.193650 1_555
O63 S23 1.478274 1_555
O64 S24 1.507568 1_555
O64 Zr4 2.259735 1_555
O65 S25 1.496520 1_555
O66 S19 1.493935 1_555
O67 Si7 1.692320 1_555
O67 Zr5 1.963149 1_555
O68 S20 1.511134 1_555
O69 S21 1.514008 1_555
O69 Zr5 2.253241 1_555
O70 S17 1.485944 1_555
O71 S18 1.534088 1_555
O71 Zr5 2.172957 1_555
O72 Si8 1.646347 1_555
O73 S26 1.501485 1_555
O74 S22 1.477416 1_555
O75 S23 1.515195 1_555
O76 S24 1.488373 1_555
O77 S25 1.481487 1_555
O78 S19 1.497663 1_555
O79 Si7 1.648311 1_555
O80 S20 1.477733 1_555
O81 S21 1.495272 1_555
O82 S17 1.515296 1_555
O83 S18 1.470837 1_555
O84 S7 1.528746 1_555
O84 Zr1 2.099949 1_555
O85 S8 1.543880 1_555
O85 Zr0 2.172189 1_555
O86 S9 1.534778 1_555
O86 Zr0 2.272287 1_455
O87 S10 1.527045 1_555
O87 Zr1 2.158394 1_555
O88 Si5 1.679796 1_555
O88 Zr1 1.995114 1_565
O89 S11 1.516921 1_555
O89 Zr0 2.250507 1_565
O90 S12 1.535789 1_555
O90 Zr3 2.126465 1_555
O91 S13 1.538153 1_555
O91 Zr2 2.161306 1_665
O92 S14 1.529420 1_555
O92 Zr3 2.166791 1_545
O93 Si6 1.734043 1_555
O93 Zr2 2.003734 1_655
O94 S15 1.525180 1_555
O94 Zr2 2.189874 1_555
O95 S16 1.500249 1_555
O95 Zr3 2.199758 1_545
O96 S6 1.474845 1_555
O97 Si4 1.620751 1_555
O98 Si2 1.638933 1_555
O99 Si3 1.631331 1_555
O100 S5 1.458097 1_555
O101 S4 1.493729 1_655
O102 Si1 1.620355 1_555
O103 S1 1.479044 1_555
O104 S3 1.500197 1_555
O105 S2 1.457120 1_555
O106 Si0 1.630938 1_555
O107 S0 1.480454 1_555
O108 S17 1.487652 1_555
O109 S18 1.487435 1_555
O110 Si7 1.645406 1_555
O111 S19 1.504007 1_655
O112 S20 1.502940 1_545
O113 S21 1.497084 1_545
O114 S22 1.493230 1_545
O115 S23 1.487791 1_545
O116 S24 1.501710 1_555
O117 S25 1.502542 1_555
O118 S26 1.509507 1_555
O119 Si8 1.644553 1_655
O120 S15 1.475742 1_555
O121 S16 1.483462 1_555
O122 S13 1.471146 1_455
O123 S12 1.469098 1_555
O124 S14 1.479818 1_565
O125 Si6 1.652962 1_565
O126 S9 1.462744 1_565
O127 S10 1.474897 1_565
O128 Si5 1.644918 1_555
O129 S11 1.488059 1_555
O130 S8 1.475557 1_455
O131 S7 1.477969 1_555
O132 Si0 1.672237 1_565
O132 Zr4 1.984299 1_555
O133 S0 1.500103 1_565
O134 Si1 1.654465 1_555
O134 Zr4 2.127434 1_555
O135 S1 1.490257 1_555
O136 S2 1.529847 1_455
O136 Zr4 2.185066 1_555
O137 S3 1.500652 1_555
O138 Si2 1.650962 1_555
O139 Si3 1.671286 1_555
O139 Zr5 1.987347 1_555
O140 S4 1.498694 1_555
O141 S5 1.505748 1_555
O141 Zr5 2.201360 1_555
O142 S6 1.503232 1_565
O143 Si4 1.657447 1_565
O143 Zr5 2.115535 1_555
