# generated using pymatgen
data_CoP2O7
_symmetry_space_group_name_H-M   'P 1'
_cell_length_a   7.85793400
_cell_length_b   7.08986700
_cell_length_c   9.09617546
_cell_angle_alpha   69.78996570
_cell_angle_beta   90.00000000
_cell_angle_gamma   90.00000000
_symmetry_Int_Tables_number   1
_chemical_formula_structural   CoP2O7
_chemical_formula_sum   'Co4 P8 O28'
_cell_volume   475.56332019
_cell_formula_units_Z   4
loop_
 _symmetry_equiv_pos_site_id
 _symmetry_equiv_pos_as_xyz
  1  'x, y, z'
loop_
 _atom_site_type_symbol
 _atom_site_label
 _atom_site_symmetry_multiplicity
 _atom_site_fract_x
 _atom_site_fract_y
 _atom_site_fract_z
 _atom_site_occupancy
  Co  Co0  1  0.49322500  0.26816100  0.25273700  1
  Co  Co1  1  0.99322500  0.73183900  0.24726300  1
  Co  Co2  1  0.00677500  0.26816100  0.75273700  1
  Co  Co3  1  0.50677500  0.73183900  0.74726300  1
  P  P0  1  0.26270000  0.07531500  0.55747700  1
  P  P1  1  0.69909200  0.32765800  0.94382400  1
  P  P2  1  0.19909200  0.67234200  0.55617600  1
  P  P3  1  0.76270000  0.92468500  0.94252300  1
  P  P4  1  0.80090800  0.32765800  0.44382400  1
  P  P5  1  0.30090800  0.67234200  0.05617600  1
  P  P6  1  0.73730000  0.92468500  0.44252300  1
  P  P7  1  0.23730000  0.07531500  0.05747700  1
  O  O0  1  0.31897500  0.67199300  0.88735200  1
  O  O1  1  0.91685500  0.00201900  0.83317200  1
  O  O2  1  0.30564800  0.18216000  0.38279900  1
  O  O3  1  0.19435200  0.18216000  0.88279900  1
  O  O4  1  0.68102500  0.32800700  0.11264800  1
  O  O5  1  0.35623300  0.88834700  0.06314000  1
  O  O6  1  0.14848700  0.22483600  0.59654300  1
  O  O7  1  0.69435200  0.81784000  0.61720100  1
  O  O8  1  0.57759900  0.46487500  0.82083700  1
  O  O9  1  0.61014900  0.35132700  0.40572300  1
  O  O10  1  0.07759900  0.53512500  0.67916300  1
  O  O11  1  0.85623300  0.11165300  0.43686000  1
  O  O12  1  0.92240100  0.46487500  0.32083700  1
  O  O13  1  0.80564800  0.81784000  0.11720100  1
  O  O14  1  0.11014900  0.64867300  0.09427700  1
  O  O15  1  0.64848700  0.77516400  0.90345700  1
  O  O16  1  0.81897500  0.32800700  0.61264800  1
  O  O17  1  0.64376700  0.11165300  0.93686000  1
  O  O18  1  0.18102500  0.67199300  0.38735200  1
  O  O19  1  0.38985100  0.64867300  0.59427700  1
  O  O20  1  0.08314500  0.99798100  0.16682800  1
  O  O21  1  0.41685500  0.99798100  0.66682800  1
  O  O22  1  0.88985100  0.35132700  0.90572300  1
  O  O23  1  0.14376700  0.88834700  0.56314000  1
  O  O24  1  0.35151300  0.22483600  0.09654300  1
  O  O25  1  0.42240100  0.53512500  0.17916300  1
  O  O26  1  0.85151300  0.77516400  0.40345700  1
  O  O27  1  0.58314500  0.00201900  0.33317200  1
loop_
_geom_bond_atom_site_label_1
_geom_bond_atom_site_label_2
_geom_bond_distance
_geom_bond_site_symmetry_2
Co0 O2 1.856233 1_555
Co0 O25 1.861418 1_555
Co0 O4 1.899471 1_555
Co0 O27 1.908179 1_555
Co0 O24 1.911672 1_555
Co0 O9 1.922308 1_555
Co1 O13 1.856233 1_555
Co1 O12 1.861418 1_555
Co1 O18 1.899471 1_655
Co1 O20 1.908179 1_655
Co1 O26 1.911672 1_555
Co1 O14 1.922308 1_655
Co2 O3 1.856233 1_555
Co2 O10 1.861418 1_555
Co2 O16 1.899471 1_455
Co2 O1 1.908179 1_455
Co2 O6 1.911672 1_555
Co2 O22 1.922308 1_455
Co3 O7 1.856233 1_555
Co3 O8 1.861418 1_555
Co3 O0 1.899471 1_555
Co3 O21 1.908179 1_555
Co3 O15 1.911672 1_555
Co3 O19 1.922308 1_555
O0 P5 1.543054 1_556
O1 P3 1.542898 1_545
O2 P0 1.542959 1_555
O3 P7 1.542959 1_556
O4 P1 1.543054 1_554
O5 P7 1.608120 1_565
O5 P5 1.614115 1_555
O6 P0 1.521773 1_555
O7 P6 1.542959 1_555
O8 P1 1.535387 1_555
O9 P4 1.534603 1_555
O10 P2 1.535387 1_555
O11 P6 1.608120 1_545
O11 P4 1.614115 1_555
O12 P4 1.535387 1_555
O13 P3 1.542959 1_554
O14 P5 1.534603 1_555
O15 P3 1.521773 1_555
O16 P4 1.543054 1_555
O17 P3 1.608120 1_545
O17 P1 1.614115 1_555
O18 P2 1.543054 1_555
O19 P2 1.534603 1_555
O20 P7 1.542898 1_565
O21 P0 1.542898 1_565
O22 P1 1.534603 1_555
O23 P0 1.608120 1_565
O23 P2 1.614115 1_555
O24 P7 1.521773 1_555
O25 P5 1.535387 1_555
O26 P6 1.521773 1_555
O27 P6 1.542898 1_545
