# generated using pymatgen
data_La2MgMnZnO6
_symmetry_space_group_name_H-M   'P 1'
_cell_length_a   6.43965170
_cell_length_b   5.92671497
_cell_length_c   5.63181561
_cell_angle_alpha   59.49188954
_cell_angle_beta   64.98112930
_cell_angle_gamma   63.58760368
_symmetry_Int_Tables_number   1
_chemical_formula_structural   La2MgMnZnO6
_chemical_formula_sum   'La2 Mg1 Mn1 Zn1 O6'
_cell_volume   160.35401719
_cell_formula_units_Z   1
loop_
 _symmetry_equiv_pos_site_id
 _symmetry_equiv_pos_as_xyz
  1  'x, y, z'
loop_
 _atom_site_type_symbol
 _atom_site_label
 _atom_site_symmetry_multiplicity
 _atom_site_fract_x
 _atom_site_fract_y
 _atom_site_fract_z
 _atom_site_occupancy
  La  La0  1  0.79435165  0.66452654  0.81260875  1
  La  La1  1  0.36378812  0.25816445  0.26912503  1
  Mg  Mg0  1  0.83302657  0.27628569  0.48085543  1
  Mn  Mn0  1  0.06983206  0.93727596  0.03208162  1
  Zn  Zn0  1  0.33204083  0.60370342  0.58161297  1
  O  O0  1  0.40864314  0.69928480  0.16230636  1
  O  O1  1  0.75109138  0.07444817  0.35504852  1
  O  O2  1  0.15354249  0.33041257  0.72880579  1
  O  O3  1  0.59469300  0.41318803  0.77168963  1
  O  O4  1  0.97563563  0.56506122  0.17501416  1
  O  O5  1  0.10430712  0.95145915  0.61894675  1
loop_
_geom_bond_atom_site_label_1
_geom_bond_atom_site_label_2
_geom_bond_distance
_geom_bond_site_symmetry_2
La0 O2 2.333408 1_655
La0 O0 2.430971 1_556
La0 O4 2.461203 1_556
La0 O3 2.495641 1_555
La0 O1 2.503803 1_565
La0 O5 2.713078 1_655
La1 O1 2.389586 1_555
La1 O4 2.436000 1_455
La1 O3 2.445815 1_554
La1 O0 2.491664 1_555
La1 O5 2.501889 1_545
La1 O2 2.522608 1_555
Mg0 O4 1.951062 1_555
Mg0 O3 1.952395 1_555
Mg0 O1 1.987373 1_555
Mg0 O5 1.999963 1_645
Mn0 O5 2.202498 1_554
Mn0 O0 2.202955 1_555
Mn0 O4 2.203842 1_455
Mn0 O2 2.221446 1_564
Mn0 O1 2.245291 1_465
O0 Zn0 2.011419 1_555
O2 Zn0 2.029554 1_555
O3 Zn0 1.971501 1_555
O5 Zn0 1.983165 1_555
