# generated using pymatgen
data_Na3NbSi3GeO12
_symmetry_space_group_name_H-M   'P 1'
_cell_length_a   8.91616478
_cell_length_b   8.88767561
_cell_length_c   22.08752502
_cell_angle_alpha   90.00000000
_cell_angle_beta   90.16227025
_cell_angle_gamma   119.89436107
_symmetry_Int_Tables_number   1
_chemical_formula_structural   Na3NbSi3GeO12
_chemical_formula_sum   'Na18 Nb6 Si18 Ge6 O72'
_cell_volume   1517.41008895
_cell_formula_units_Z   6
loop_
 _symmetry_equiv_pos_site_id
 _symmetry_equiv_pos_as_xyz
  1  'x, y, z'
loop_
 _atom_site_type_symbol
 _atom_site_label
 _atom_site_symmetry_multiplicity
 _atom_site_fract_x
 _atom_site_fract_y
 _atom_site_fract_z
 _atom_site_occupancy
  Na  Na0  1  0.99259682  0.98250198  0.49636903  1
  Na  Na1  1  0.99259682  0.01009484  0.99636903  1
  Na  Na2  1  0.66635185  0.33424682  0.82966981  1
  Na  Na3  1  0.66635185  0.33210403  0.32966981  1
  Na  Na4  1  0.33204276  0.66548938  0.16301493  1
  Na  Na5  1  0.33204276  0.66655438  0.66301493  1
  Na  Na6  1  0.36844317  0.36752307  0.24873463  1
  Na  Na7  1  0.99421227  0.62991408  0.24819156  1
  Na  Na8  1  0.99421227  0.36429820  0.74819156  1
  Na  Na9  1  0.36844317  0.00092010  0.74873463  1
  Na  Na10  1  0.30075120  0.33875637  0.58187343  1
  Na  Na11  1  0.66543547  0.96639986  0.58162445  1
  Na  Na12  1  0.30075120  0.96199383  0.08187343  1
  Na  Na13  1  0.66543547  0.69903461  0.08162445  1
  Na  Na14  1  0.96790259  0.67277953  0.91483685  1
  Na  Na15  1  0.33224778  0.29898787  0.91545584  1
  Na  Na16  1  0.96790259  0.29512406  0.41483685  1
  Na  Na17  1  0.33224778  0.03326090  0.41545584  1
  Nb  Nb0  1  -0.00014495  0.99716599  0.64444498  1
  Nb  Nb1  1  -0.00014495  0.00268906  0.14444498  1
  Nb  Nb2  1  0.66790957  0.32836841  0.97771295  1
  Nb  Nb3  1  0.66790957  0.33954016  0.47771295  1
  Nb  Nb4  1  0.33716744  0.67084956  0.31114543  1
  Nb  Nb5  1  0.33716744  0.66631888  0.81114543  1
  Si  Si0  1  0.29393297  0.00883957  0.25097677  1
  Si  Si1  1  0.71576080  0.71137966  0.25080502  1
  Si  Si2  1  0.98675596  0.28081718  0.25246861  1
  Si  Si3  1  0.29393297  0.28509340  0.75097677  1
  Si  Si4  1  0.98675596  0.70593878  0.75246861  1
  Si  Si5  1  0.71576080  0.00438114  0.75080502  1
  Si  Si6  1  0.95979538  0.34711346  0.58469415  1
  Si  Si7  1  0.38116096  0.03994385  0.58429979  1
  Si  Si8  1  0.66119923  0.61823187  0.58544422  1
  Si  Si9  1  0.95979538  0.61268092  0.08469415  1
  Si  Si10  1  0.66119923  0.04296636  0.08544422  1
  Si  Si11  1  0.38116096  0.34121611  0.08429979  1
  Si  Si12  1  0.62757046  0.68059307  0.91953060  1
  Si  Si13  1  0.04842519  0.37370026  0.91692844  1
  Si  Si14  1  0.32843539  0.95119156  0.91779515  1
  Si  Si15  1  0.62757046  0.94697839  0.41953060  1
  Si  Si16  1  0.32843539  0.37724483  0.41779515  1
  Si  Si17  1  0.04842519  0.67472593  0.41692844  1
  Ge  Ge0  1  0.99714466  0.99668186  0.35359435  1
  Ge  Ge1  1  0.99714466  0.00046280  0.85359435  1
  Ge  Ge2  1  0.66632348  0.33580992  0.68699858  1
  Ge  Ge3  1  0.66632348  0.33051256  0.18699858  1
  Ge  Ge4  1  0.32977685  0.66073780  0.02025751  1
  Ge  Ge5  1  0.32977685  0.66904005  0.52025751  1
  O  O0  1  0.20599936  0.04424629  0.31068428  1
  O  O1  1  0.84717489  0.80200354  0.30786651  1
  O  O2  1  0.96526695  0.16768724  0.31326079  1
  O  O3  1  0.20599936  0.16175307  0.81068428  1
  O  O4  1  0.96526695  0.79757971  0.81326079  1
  O  O5  1  0.84717489  0.04517135  0.80786651  1
  O  O6  1  0.79906600  0.97120431  0.68963051  1
  O  O7  1  0.16865277  0.20193220  0.69113323  1
  O  O8  1  0.03136500  0.83767632  0.69449046  1
  O  O9  1  0.79906600  0.82786169  0.18963051  1
  O  O10  1  0.03136500  0.19368869  0.19449046  1
  O  O11  1  0.16865277  0.96672057  0.19113323  1
  O  O12  1  0.86748180  0.36786266  0.64536223  1
  O  O13  1  0.50446630  0.12730936  0.64421716  1
  O  O14  1  0.62080662  0.48691466  0.64229350  1
  O  O15  1  0.86748180  0.49961813  0.14536223  1
  O  O16  1  0.62080662  0.13389096  0.14229350  1
  O  O17  1  0.50446630  0.37715594  0.14421716  1
  O  O18  1  0.46622077  0.30120635  0.02462610  1
  O  O19  1  0.83416031  0.53324461  0.02493300  1
  O  O20  1  0.69605682  0.16601185  0.02566126  1
  O  O21  1  0.46622077  0.16501341  0.52462610  1
  O  O22  1  0.69605682  0.53004398  0.52566126  1
  O  O23  1  0.83416031  0.30091471  0.52493300  1
  O  O24  1  0.53640943  0.70368806  0.97993653  1
  O  O25  1  0.17804547  0.46550625  0.97456090  1
  O  O26  1  0.29253413  0.82750449  0.97723878  1
  O  O27  1  0.53640943  0.83272237  0.47993653  1
  O  O28  1  0.29253413  0.46503064  0.47723878  1
  O  O29  1  0.17804547  0.71254022  0.47456090  1
  O  O30  1  0.12993421  0.63285966  0.35662323  1
  O  O31  1  0.49562813  0.86077591  0.36129590  1
  O  O32  1  0.36119974  0.49529178  0.35721423  1
  O  O33  1  0.12993421  0.49707555  0.85662323  1
  O  O34  1  0.36119974  0.86590895  0.85721423  1
  O  O35  1  0.49562813  0.63485322  0.86129590  1
  O  O36  1  0.03643635  0.85105731  0.40967544  1
  O  O37  1  0.82206075  0.97717496  0.41108216  1
  O  O38  1  0.15590802  0.18364569  0.41182526  1
  O  O39  1  0.03643635  0.18537904  0.90967544  1
  O  O40  1  0.15590802  0.97226233  0.91182526  1
  O  O41  1  0.82206075  0.84488579  0.91108216  1
  O  O42  1  0.97781811  0.16970752  0.58868303  1
  O  O43  1  0.19309156  0.03119210  0.58840341  1
  O  O44  1  0.83080667  0.81374033  0.58780589  1
  O  O45  1  0.97781811  0.80811059  0.08868303  1
  O  O46  1  0.83080667  0.01706634  0.08780589  1
  O  O47  1  0.19309156  0.16189946  0.08840341  1
  O  O48  1  0.69423691  0.17715181  0.74463412  1
  O  O49  1  0.48128811  0.29665708  0.74351911  1
  O  O50  1  0.82219164  0.51098682  0.74438744  1
  O  O51  1  0.69423691  0.51708409  0.24463412  1
  O  O52  1  0.82219164  0.31120381  0.24438744  1
  O  O53  1  0.48128811  0.18463004  0.24351911  1
  O  O54  1  0.64342797  0.50243352  0.92250375  1
  O  O55  1  0.86047002  0.36518777  0.92159871  1
  O  O56  1  0.49700566  0.14817759  0.92064219  1
  O  O57  1  0.64342797  0.14099346  0.42250375  1
  O  O58  1  0.49700566  0.34882707  0.42064219  1
  O  O59  1  0.86047002  0.49528125  0.42159871  1
  O  O60  1  0.36808506  0.51703400  0.07748765  1
  O  O61  1  0.15549766  0.64429329  0.07726709  1
  O  O62  1  0.48856274  0.85117418  0.07784795  1
  O  O63  1  0.36808506  0.85105206  0.57748765  1
  O  O64  1  0.48856274  0.63738956  0.57784795  1
  O  O65  1  0.15549766  0.51120538  0.57726709  1
  O  O66  1  0.30252033  0.82883095  0.25493086  1
  O  O67  1  0.51949128  0.68398958  0.25461555  1
  O  O68  1  0.16413513  0.47465245  0.25519469  1
  O  O69  1  0.30252033  0.47369038  0.75493086  1
  O  O70  1  0.16413513  0.68948368  0.75519469  1
  O  O71  1  0.51949128  0.83550270  0.75461555  1
loop_
_geom_bond_atom_site_label_1
_geom_bond_atom_site_label_2
_geom_bond_distance
_geom_bond_site_symmetry_2
Na0 O36 2.375632 1_655
Na0 O37 2.403097 1_555
Na0 O38 2.494755 1_665
Na0 O44 2.503841 1_555
Na0 O43 2.592983 1_665
Na0 O42 2.676416 1_565
Na1 O39 2.375632 1_655
Na1 O41 2.403097 1_545
Na1 O40 2.494755 1_645
Na1 O46 2.503841 1_556
Na1 O47 2.592983 1_656
Na1 O45 2.676416 1_546
Na2 O50 2.405315 1_555
Na2 O48 2.426444 1_555
Na2 O49 2.426496 1_555
Na2 O56 2.565217 1_555
Na2 O55 2.588391 1_555
Na2 O54 2.605288 1_555
Na3 O52 2.405315 1_555
Na3 O51 2.426444 1_555
Na3 O53 2.426496 1_555
Na3 O58 2.565217 1_555
Na3 O59 2.588391 1_555
Na3 O57 2.605288 1_555
Na4 O61 2.405805 1_555
Na4 O60 2.416379 1_555
Na4 O62 2.434926 1_555
Na4 O67 2.573079 1_555
Na4 O66 2.585040 1_555
Na4 O68 2.597996 1_555
Na5 O65 2.405804 1_555
Na5 O63 2.416379 1_555
Na5 O64 2.434926 1_555
Na5 O71 2.573079 1_555
Na5 O69 2.585040 1_555
Na5 O70 2.597996 1_555
Na6 O53 2.301899 1_555
Na6 O67 2.442292 1_555
Na6 O68 2.444519 1_555
Na6 O51 2.523040 1_555
Na6 O17 2.592278 1_555
Na6 O32 2.666215 1_555
Na6 O0 2.843996 1_555
Na6 O10 2.864653 1_555
Na7 O51 2.343222 1_555
Na7 O66 2.420250 1_655
Na7 O52 2.460020 1_555
Na7 O68 2.511204 1_655
Na7 O15 2.541162 1_555
Na7 O30 2.674517 1_655
Na7 O1 2.793545 1_555
Na7 O11 2.887589 1_655
Na8 O48 2.343223 1_555
Na8 O69 2.420249 1_655
Na8 O50 2.460013 1_555
Na8 O70 2.511212 1_655
Na8 O12 2.541159 1_555
Na8 O33 2.674519 1_655
Na8 O5 2.793545 1_555
Na8 O7 2.887589 1_655
Na9 O49 2.301891 1_555
Na9 O71 2.442284 1_545
Na9 O70 2.444513 1_545
Na9 O48 2.523040 1_555
Na9 O13 2.592276 1_555
Na9 O34 2.666211 1_545
Na9 O3 2.843996 1_555
Na9 O8 2.864653 1_545
Na10 O64 2.329613 1_555
Na10 O43 2.408246 1_555
Na10 O65 2.452470 1_555
Na10 O42 2.502144 1_455
Na10 O28 2.585956 1_555
Na10 O7 2.697838 1_555
Na10 O14 2.809106 1_555
Na10 O21 2.905419 1_555
Na11 O63 2.318981 1_555
Na11 O44 2.454917 1_555
Na11 O42 2.455160 1_565
Na11 O27 2.530338 1_555
Na11 O64 2.539113 1_555
Na11 O6 2.654362 1_555
Na11 O13 2.841420 1_565
Na11 O23 2.867496 1_565
Na12 O62 2.329599 1_555
Na12 O47 2.408254 1_565
Na12 O61 2.452454 1_555
Na12 O45 2.502144 1_455
Na12 O26 2.585948 1_554
Na12 O11 2.697840 1_555
Na12 O16 2.809106 1_565
Na12 O18 2.905419 1_565
Na13 O60 2.318978 1_555
Na13 O46 2.454925 1_565
Na13 O45 2.455159 1_555
Na13 O24 2.530342 1_554
Na13 O62 2.539128 1_555
Na13 O9 2.654364 1_555
Na13 O17 2.841420 1_555
Na13 O19 2.867496 1_555
Na14 O40 2.334983 1_655
Na14 O55 2.409131 1_555
Na14 O41 2.453491 1_555
Na14 O4 2.508008 1_555
Na14 O54 2.515429 1_555
Na14 O19 2.723172 1_556
Na14 O26 2.859808 1_655
Na14 O33 2.904889 1_655
Na15 O39 2.309918 1_555
Na15 O56 2.435036 1_555
Na15 O54 2.447140 1_555
Na15 O40 2.521699 1_545
Na15 O3 2.593588 1_555
Na15 O18 2.683628 1_556
Na15 O25 2.797027 1_555
Na15 O35 2.852899 1_555
Na16 O38 2.334990 1_655
Na16 O59 2.409115 1_555
Na16 O37 2.453499 1_545
Na16 O2 2.508012 1_555
Na16 O57 2.515428 1_555
Na16 O23 2.723168 1_555
Na16 O28 2.859808 1_655
Na16 O30 2.904889 1_655
Na17 O36 2.309919 1_545
Na17 O58 2.435021 1_555
Na17 O57 2.447143 1_555
Na17 O38 2.521691 1_555
Na17 O0 2.593585 1_555
Na17 O21 2.683624 1_555
Na17 O29 2.797027 1_545
Na17 O31 2.852899 1_545
Nb0 O8 1.924914 1_555
Nb0 O6 1.962838 1_455
Nb0 O7 1.975228 1_565
Nb0 O44 2.008611 1_455
Nb0 O43 2.021099 1_565
Nb0 O42 2.050885 1_465
Nb1 O10 1.924914 1_555
Nb1 O9 1.962838 1_445
Nb1 O11 1.975228 1_545
Nb1 O46 2.008611 1_455
Nb1 O47 2.021099 1_555
Nb1 O45 2.050885 1_445
Nb2 O20 1.904267 1_556
Nb2 O19 1.975195 1_556
Nb2 O18 1.985862 1_556
Nb2 O56 2.008055 1_555
Nb2 O55 2.010726 1_555
Nb2 O54 2.064724 1_555
Nb3 O22 1.904267 1_555
Nb3 O23 1.975195 1_555
Nb3 O21 1.985862 1_555
Nb3 O58 2.008055 1_555
Nb3 O59 2.010726 1_555
Nb3 O57 2.064724 1_555
Nb4 O31 1.919993 1_555
Nb4 O32 1.961602 1_555
Nb4 O30 1.981346 1_555
Nb4 O67 2.009373 1_555
Nb4 O66 2.009665 1_555
Nb4 O68 2.062916 1_555
Nb5 O35 1.919993 1_555
Nb5 O34 1.961602 1_555
Nb5 O33 1.981346 1_555
Nb5 O71 2.009373 1_555
Nb5 O69 2.009665 1_555
Nb5 O70 2.062916 1_555
Ge0 O1 1.867614 1_555
Ge0 O2 1.900924 1_565
Ge0 O0 1.941652 1_665
Ge0 O36 1.944665 1_655
Ge0 O37 1.954678 1_555
Ge0 O38 2.015992 1_665
Ge1 O5 1.867614 1_555
Ge1 O4 1.900924 1_545
Ge1 O3 1.941652 1_655
Ge1 O39 1.944665 1_655
Ge1 O41 1.954678 1_545
Ge1 O40 2.015992 1_645
Ge2 O14 1.866626 1_555
Ge2 O12 1.908873 1_555
Ge2 O13 1.932885 1_555
Ge2 O50 1.948166 1_555
Ge2 O49 1.959809 1_555
Ge2 O48 2.004733 1_555
Ge3 O16 1.866626 1_555
Ge3 O15 1.908872 1_555
Ge3 O17 1.932885 1_555
Ge3 O52 1.948166 1_555
Ge3 O53 1.959809 1_555
Ge3 O51 2.004733 1_555
Ge4 O25 1.874053 1_554
Ge4 O24 1.908259 1_554
Ge4 O26 1.923210 1_554
Ge4 O60 1.943750 1_555
Ge4 O61 1.950964 1_555
Ge4 O62 2.021967 1_555
Ge5 O29 1.874053 1_555
Ge5 O27 1.908259 1_555
Ge5 O28 1.923210 1_555
Ge5 O63 1.943750 1_555
Ge5 O65 1.950963 1_555
Ge5 O64 2.021967 1_555
O0 Si0 1.644606 1_555
O1 Si1 1.631263 1_555
O2 Si2 1.630971 1_555
O3 Si3 1.644606 1_555
O4 Si4 1.630971 1_555
O5 Si5 1.631263 1_555
O6 Si5 1.639624 1_565
O7 Si3 1.646157 1_555
O8 Si4 1.645499 1_455
O9 Si1 1.639624 1_555
O10 Si2 1.645499 1_455
O11 Si0 1.646157 1_565
O12 Si6 1.632374 1_555
O13 Si7 1.644353 1_555
O14 Si8 1.628526 1_555
O15 Si9 1.632374 1_555
O16 Si10 1.628526 1_555
O17 Si11 1.644353 1_555
O18 Si11 1.647226 1_555
O19 Si9 1.642829 1_555
O20 Si10 1.643066 1_555
O21 Si7 1.647226 1_555
O22 Si8 1.643066 1_555
O23 Si6 1.642829 1_555
O24 Si12 1.629531 1_555
O25 Si13 1.635098 1_555
O26 Si14 1.639023 1_555
O27 Si15 1.629531 1_555
O28 Si16 1.639023 1_555
O29 Si17 1.635098 1_555
O30 Si17 1.647986 1_555
O31 Si15 1.648759 1_555
O32 Si16 1.635007 1_555
O33 Si13 1.647986 1_555
O34 Si14 1.635007 1_555
O35 Si12 1.648759 1_555
O36 Si17 1.630957 1_555
O37 Si15 1.628466 1_555
O38 Si16 1.644625 1_555
O39 Si13 1.630966 1_555
O40 Si14 1.644620 1_555
O41 Si12 1.628463 1_555
O42 Si6 1.664972 1_555
O43 Si7 1.642244 1_555
O44 Si8 1.639868 1_555
O45 Si9 1.664981 1_555
O46 Si10 1.639863 1_555
O47 Si11 1.642240 1_555
O48 Si5 1.645252 1_555
O49 Si3 1.630538 1_555
O50 Si4 1.628265 1_555
O51 Si1 1.645261 1_555
O52 Si2 1.628259 1_555
O53 Si0 1.630534 1_555
O54 Si12 1.659712 1_555
O55 Si13 1.642985 1_655
O56 Si14 1.644561 1_545
O57 Si15 1.659695 1_545
O58 Si16 1.644572 1_555
O59 Si17 1.642993 1_655
O60 Si11 1.630794 1_555
O61 Si9 1.632026 1_455
O62 Si10 1.638963 1_565
O63 Si7 1.630776 1_565
O64 Si8 1.638973 1_555
O65 Si6 1.632033 1_455
O66 Si0 1.641677 1_565
O67 Si1 1.644669 1_555
O68 Si2 1.660218 1_455
O69 Si3 1.641686 1_555
O70 Si4 1.660213 1_455
O71 Si5 1.644666 1_565
