# generated using pymatgen
data_MgH20S2(NO7)2
_symmetry_space_group_name_H-M   'P 1'
_cell_length_a   12.66619800
_cell_length_b   6.27176700
_cell_length_c   9.38378629
_cell_angle_alpha   72.59934022
_cell_angle_beta   90.00000000
_cell_angle_gamma   90.00000000
_symmetry_Int_Tables_number   1
_chemical_formula_structural   MgH20S2(NO7)2
_chemical_formula_sum   'Mg2 H40 S4 N4 O28'
_cell_volume   711.32897033
_cell_formula_units_Z   2
loop_
 _symmetry_equiv_pos_site_id
 _symmetry_equiv_pos_as_xyz
  1  'x, y, z'
loop_
 _atom_site_type_symbol
 _atom_site_label
 _atom_site_symmetry_multiplicity
 _atom_site_fract_x
 _atom_site_fract_y
 _atom_site_fract_z
 _atom_site_occupancy
  Mg  Mg0  1  0.00000000  0.00000000  0.00000000  1
  Mg  Mg1  1  0.50000000  0.00000000  0.50000000  1
  H  H0  1  0.64422000  0.67065600  0.52889500  1
  H  H1  1  0.14422000  0.32934400  0.97110500  1
  H  H2  1  0.35578000  0.32934400  0.47110500  1
  H  H3  1  0.85578000  0.67065600  0.02889500  1
  H  H4  1  0.56220500  0.66068800  0.40392600  1
  H  H5  1  0.06220500  0.33931200  0.09607400  1
  H  H6  1  0.43779500  0.33931200  0.59607400  1
  H  H7  1  0.93779500  0.66068800  0.90392600  1
  H  H8  1  0.31436800  0.99537600  0.35829900  1
  H  H9  1  0.81436800  0.00462400  0.14170100  1
  H  H10  1  0.68563200  0.00462400  0.64170100  1
  H  H11  1  0.18563200  0.99537600  0.85829900  1
  H  H12  1  0.40130400  0.05522100  0.23232000  1
  H  H13  1  0.90130400  0.94477900  0.26768000  1
  H  H14  1  0.59869600  0.94477900  0.76768000  1
  H  H15  1  0.09869600  0.05522100  0.73232000  1
  H  H16  1  0.37474400  0.90161600  0.74724500  1
  H  H17  1  0.87474400  0.09838400  0.75275500  1
  H  H18  1  0.62525600  0.09838400  0.25275500  1
  H  H19  1  0.12525600  0.90161600  0.24724500  1
  H  H20  1  0.40889400  0.67122100  0.71932500  1
  H  H21  1  0.90889400  0.32877900  0.78067500  1
  H  H22  1  0.59110600  0.32877900  0.28067500  1
  H  H23  1  0.09110600  0.67122100  0.21932500  1
  H  H24  1  0.07081300  0.63752700  0.66828700  1
  H  H25  1  0.57081300  0.36247300  0.83171300  1
  H  H26  1  0.92918700  0.36247300  0.33171300  1
  H  H27  1  0.42918700  0.63752700  0.16828700  1
  H  H28  1  0.15675200  0.52156300  0.57504600  1
  H  H29  1  0.65675200  0.47843700  0.92495400  1
  H  H30  1  0.84324800  0.47843700  0.42495400  1
  H  H31  1  0.34324800  0.52156300  0.07504600  1
  H  H32  1  0.19982000  0.59696400  0.72212300  1
  H  H33  1  0.69982000  0.40303600  0.77787700  1
  H  H34  1  0.80018000  0.40303600  0.27787700  1
  H  H35  1  0.30018000  0.59696400  0.22212300  1
  H  H36  1  0.16596000  0.79486400  0.55753800  1
  H  H37  1  0.66596000  0.20513600  0.94246200  1
  H  H38  1  0.33404000  0.79486400  0.05753800  1
  H  H39  1  0.83404000  0.20513600  0.44246200  1
  S  S0  1  0.13952500  0.25732000  0.40484900  1
  S  S1  1  0.63952500  0.74268000  0.09515100  1
  S  S2  1  0.86047500  0.74268000  0.59515100  1
  S  S3  1  0.36047500  0.25732000  0.90484900  1
  N  N0  1  0.14884800  0.63890000  0.63157700  1
  N  N1  1  0.64884800  0.36110000  0.86842300  1
  N  N2  1  0.85115200  0.36110000  0.36842300  1
  N  N3  1  0.35115200  0.63890000  0.13157700  1
  O  O0  1  0.10559200  0.83156200  0.16982600  1
  O  O1  1  0.06970900  0.29728300  0.00311600  1
  O  O2  1  0.43029100  0.29728300  0.50311600  1
  O  O3  1  0.93029100  0.70271700  0.99688400  1
  O  O4  1  0.38948500  0.97019400  0.33869200  1
  O  O5  1  0.88948500  0.02980600  0.16130800  1
  O  O6  1  0.61051500  0.02980600  0.66130800  1
  O  O7  1  0.11051500  0.97019400  0.83869200  1
  O  O8  1  0.39440800  0.83156200  0.66982600  1
  O  O9  1  0.89440800  0.16843800  0.83017400  1
  O  O10  1  0.60559200  0.16843800  0.33017400  1
  O  O11  1  0.56970900  0.70271700  0.49688400  1
  O  O12  1  0.32182200  0.04290700  0.88255300  1
  O  O13  1  0.82182200  0.95709300  0.61744700  1
  O  O14  1  0.67817800  0.95709300  0.11744700  1
  O  O15  1  0.23101700  0.41009100  0.40239300  1
  O  O16  1  0.43351000  0.37385100  0.77918500  1
  O  O17  1  0.93351000  0.62614900  0.72081500  1
  O  O18  1  0.56649000  0.62614900  0.22081500  1
  O  O19  1  0.06649000  0.37385100  0.27918500  1
  O  O20  1  0.41766800  0.21278700  0.04809400  1
  O  O21  1  0.91766800  0.78721300  0.45190600  1
  O  O22  1  0.58233200  0.78721300  0.95190600  1
  O  O23  1  0.08233200  0.21278700  0.54809400  1
  O  O24  1  0.26898300  0.41009100  0.90239300  1
  O  O25  1  0.76898300  0.58990900  0.59760700  1
  O  O26  1  0.73101700  0.58990900  0.09760700  1
  O  O27  1  0.17817800  0.04290700  0.38255300  1
loop_
_geom_bond_atom_site_label_1
_geom_bond_atom_site_label_2
_geom_bond_distance
_geom_bond_site_symmetry_2
Mg0 O1 2.071082 1_555
Mg0 O3 2.071082 1_444
Mg0 O0 2.106526 1_545
Mg0 O9 2.106526 1_454
Mg0 O7 2.110655 1_544
Mg0 O5 2.110655 1_455
Mg1 O2 2.071082 1_555
Mg1 O11 2.071082 1_545
Mg1 O8 2.106526 1_545
Mg1 O10 2.106526 1_555
Mg1 O6 2.110655 1_555
Mg1 O4 2.110655 1_545
H0 O11 0.992593 1_555
H0 O25 1.724578 1_555
H1 O1 0.992593 1_556
H1 O24 1.724578 1_555
H2 O2 0.992593 1_555
H2 O15 1.724578 1_555
H3 O3 0.992593 1_554
H3 O26 1.724578 1_555
H4 O11 0.988405 1_555
H5 O1 0.988405 1_555
H6 O2 0.988405 1_555
H7 O3 0.988405 1_555
H8 O4 0.990669 1_555
H9 O5 0.990669 1_555
H10 O6 0.990669 1_555
H11 O7 0.990669 1_555
H12 O4 0.992354 1_545
H12 O20 1.728087 1_555
H13 O5 0.992354 1_565
H13 O21 1.728087 1_555
H14 O6 0.992354 1_565
H14 O22 1.728087 1_555
H15 O7 0.992354 1_545
H15 O23 1.728087 1_555
H16 O8 0.986793 1_555
H17 O9 0.986793 1_555
H18 O10 0.986793 1_555
H19 O0 0.986793 1_555
H20 O8 0.990614 1_555
H21 O9 0.990614 1_555
H22 O10 0.990614 1_555
H23 O0 0.990614 1_555
H24 N0 1.045903 1_555
H25 N1 1.045903 1_555
H26 N2 1.045903 1_555
H27 N3 1.045903 1_555
H28 N0 1.032705 1_555
H29 N1 1.032705 1_555
H30 N2 1.032705 1_555
H31 N3 1.032705 1_555
H32 N0 1.036471 1_555
H33 N1 1.036471 1_555
H34 N2 1.036471 1_555
H35 N3 1.036471 1_555
H36 N0 1.039242 1_555
H37 N1 1.039242 1_555
H38 N3 1.039242 1_555
H39 N2 1.039242 1_555
O12 S3 1.503360 1_555
O13 S2 1.503360 1_555
O14 S1 1.503360 1_555
O15 S0 1.499437 1_555
O16 S3 1.504983 1_555
O17 S2 1.504983 1_555
O18 S1 1.504983 1_555
O19 S0 1.504983 1_555
O20 S3 1.478197 1_554
O21 S2 1.478197 1_555
O22 S1 1.478197 1_556
O23 S0 1.478197 1_555
O24 S3 1.499437 1_555
O25 S2 1.499437 1_555
O26 S1 1.499437 1_555
O27 S0 1.503360 1_555
