# generated using pymatgen
data_La2MgTiZnO6
_symmetry_space_group_name_H-M   'P 1'
_cell_length_a   6.51154387
_cell_length_b   6.51154307
_cell_length_c   6.51154334
_cell_angle_alpha   54.65673400
_cell_angle_beta   54.65673393
_cell_angle_gamma   54.65673793
_symmetry_Int_Tables_number   1
_chemical_formula_structural   La2MgTiZnO6
_chemical_formula_sum   'La2 Mg1 Ti1 Zn1 O6'
_cell_volume   170.92132414
_cell_formula_units_Z   1
loop_
 _symmetry_equiv_pos_site_id
 _symmetry_equiv_pos_as_xyz
  1  'x, y, z'
loop_
 _atom_site_type_symbol
 _atom_site_label
 _atom_site_symmetry_multiplicity
 _atom_site_fract_x
 _atom_site_fract_y
 _atom_site_fract_z
 _atom_site_occupancy
  La  La0  1  0.78492987  0.78492987  0.78492987  1
  La  La1  1  0.18242377  0.18242377  0.18242377  1
  Mg  Mg0  1  0.39586151  0.39586151  0.39586151  1
  Ti  Ti0  1  0.98182950  0.98182950  0.98182950  1
  Zn  Zn0  1  0.56651374  0.56651374  0.56651374  1
  O  O0  1  0.35077345  0.77081178  0.09420730  1
  O  O1  1  0.77081178  0.09420730  0.35077345  1
  O  O2  1  0.09420730  0.35077345  0.77081178  1
  O  O3  1  0.63201976  0.12507915  0.99650217  1
  O  O4  1  0.99650217  0.63201976  0.12507915  1
  O  O5  1  0.12507915  0.99650217  0.63201976  1
loop_
_geom_bond_atom_site_label_1
_geom_bond_atom_site_label_2
_geom_bond_distance
_geom_bond_site_symmetry_2
La0 O1 2.357094 1_565
La0 O2 2.357094 1_655
La0 O0 2.357094 1_556
La0 O3 2.680846 1_565
La0 O5 2.680846 1_655
La0 O4 2.680847 1_556
La1 O4 2.309438 1_455
La1 O5 2.309438 1_545
La1 O3 2.309438 1_554
La1 O0 2.523638 1_545
La1 O2 2.523638 1_554
La1 O1 2.523638 1_455
Mg0 O0 2.048142 1_555
Mg0 O2 2.048142 1_555
Mg0 O1 2.048142 1_555
O0 Ti0 2.290519 1_454
O1 Ti0 2.290518 1_544
O2 Ti0 2.290518 1_445
O3 Ti0 1.860312 1_545
O4 Ti0 1.860312 1_554
O5 Ti0 1.860312 1_455
