# generated using pymatgen
data_Na2Sc2P2SO12
_symmetry_space_group_name_H-M   'P 1'
_cell_length_a   8.92079844
_cell_length_b   8.92079814
_cell_length_c   22.91106932
_cell_angle_alpha   90.14491371
_cell_angle_beta   89.85508629
_cell_angle_gamma   119.74521821
_symmetry_Int_Tables_number   1
_chemical_formula_structural   Na2Sc2P2SO12
_chemical_formula_sum   'Na12 Sc12 P12 S6 O72'
_cell_volume   1583.03619039
_cell_formula_units_Z   6
loop_
 _symmetry_equiv_pos_site_id
 _symmetry_equiv_pos_as_xyz
  1  'x, y, z'
loop_
 _atom_site_type_symbol
 _atom_site_label
 _atom_site_symmetry_multiplicity
 _atom_site_fract_x
 _atom_site_fract_y
 _atom_site_fract_z
 _atom_site_occupancy
  Na  Na0  1  0.99641035  0.63051880  0.25137146  1
  Na  Na1  1  0.36948120  0.00358965  0.75137146  1
  Na  Na2  1  0.66307735  0.96385180  0.58470446  1
  Na  Na3  1  0.03614820  0.33692265  0.08470446  1
  Na  Na4  1  0.32974335  0.29718580  0.91803846  1
  Na  Na5  1  0.70281420  0.67025665  0.41803846  1
  Na  Na6  1  0.01286383  0.99805408  0.50024451  1
  Na  Na7  1  0.00194592  0.98713617  0.00024451  1
  Na  Na8  1  0.67953083  0.33138708  0.83357751  1
  Na  Na9  1  0.66861292  0.32046917  0.33357751  1
  Na  Na10  1  0.34619683  0.66472108  0.16691151  1
  Na  Na11  1  0.33527892  0.65380317  0.66691151  1
  Sc  Sc0  1  0.99158586  0.00154559  0.35110135  1
  Sc  Sc1  1  0.99845441  0.00841414  0.85110135  1
  Sc  Sc2  1  0.00289128  0.00086808  0.64874838  1
  Sc  Sc3  1  0.99913192  0.99710872  0.14874838  1
  Sc  Sc4  1  0.65825286  0.33487859  0.68443435  1
  Sc  Sc5  1  0.66512141  0.34174714  0.18443435  1
  Sc  Sc6  1  0.66955828  0.33420108  0.98208138  1
  Sc  Sc7  1  0.66579892  0.33044172  0.48208138  1
  Sc  Sc8  1  0.32491886  0.66821259  0.01776835  1
  Sc  Sc9  1  0.33178741  0.67508114  0.51776835  1
  Sc  Sc10  1  0.33622428  0.66753508  0.31541538  1
  Sc  Sc11  1  0.33246492  0.66377572  0.81541538  1
  P  P0  1  0.70565508  0.70911038  0.25022043  1
  P  P1  1  0.99959032  0.29293828  0.24903354  1
  P  P2  1  0.29088962  0.29434492  0.75022043  1
  P  P3  1  0.70706172  0.00040968  0.74903354  1
  P  P4  1  0.37232208  0.04244338  0.58355343  1
  P  P5  1  0.66625732  0.62627128  0.58236654  1
  P  P6  1  0.95755662  0.62767792  0.08355343  1
  P  P7  1  0.37372872  0.33374268  0.08236654  1
  P  P8  1  0.03898808  0.37577738  0.91688743  1
  P  P9  1  0.33292332  0.95960528  0.91570054  1
  P  P10  1  0.62422262  0.96101192  0.41688743  1
  P  P11  1  0.04039472  0.66707668  0.41570054  1
  S  S0  1  0.29370426  0.00293583  0.25057968  1
  S  S1  1  0.99706417  0.70629574  0.75057968  1
  S  S2  1  0.96037126  0.33626883  0.58391268  1
  S  S3  1  0.66373117  0.03962874  0.08391268  1
  S  S4  1  0.62703726  0.66960283  0.91724668  1
  S  S5  1  0.33039717  0.37296274  0.41724668  1
  O  O0  1  0.21213592  0.02677683  0.30292418  1
  O  O1  1  0.81939961  0.78702314  0.30550876  1
  O  O2  1  0.97747652  0.18044417  0.30277317  1
  O  O3  1  0.21297686  0.18060039  0.80550876  1
  O  O4  1  0.97322317  0.78786408  0.80292418  1
  O  O5  1  0.81955583  0.02252348  0.80277317  1
  O  O6  1  0.78846436  0.97371580  0.69304116  1
  O  O7  1  0.17815173  0.20240155  0.69677126  1
  O  O8  1  0.02873147  0.81631848  0.69813668  1
  O  O9  1  0.79759845  0.82184827  0.19677126  1
  O  O10  1  0.02628420  0.21153564  0.19304116  1
  O  O11  1  0.18368152  0.97126853  0.19813668  1
  O  O12  1  0.87880292  0.36010983  0.63625718  1
  O  O13  1  0.48606661  0.12035614  0.63884176  1
  O  O14  1  0.64414352  0.51377717  0.63610617  1
  O  O15  1  0.87964386  0.51393339  0.13884176  1
  O  O16  1  0.63989017  0.12119708  0.13625718  1
  O  O17  1  0.48622283  0.35585648  0.13610617  1
  O  O18  1  0.45513136  0.30704880  0.02637416  1
  O  O19  1  0.84481873  0.53573455  0.03010426  1
  O  O20  1  0.69539847  0.14965148  0.03146968  1
  O  O21  1  0.46426545  0.15518127  0.53010426  1
  O  O22  1  0.69295120  0.54486864  0.52637416  1
  O  O23  1  0.85034852  0.30460153  0.53146968  1
  O  O24  1  0.54546892  0.69344383  0.96959118  1
  O  O25  1  0.15273261  0.45369014  0.97217576  1
  O  O26  1  0.31080952  0.84711117  0.96944017  1
  O  O27  1  0.54630986  0.84726739  0.47217576  1
  O  O28  1  0.30655617  0.45453108  0.46959118  1
  O  O29  1  0.15288883  0.68919048  0.46944017  1
  O  O30  1  0.12179736  0.64038280  0.35970816  1
  O  O31  1  0.51148473  0.86906855  0.36343826  1
  O  O32  1  0.36206447  0.48298548  0.36480368  1
  O  O33  1  0.13093145  0.48851527  0.86343826  1
  O  O34  1  0.35961720  0.87820264  0.85970816  1
  O  O35  1  0.51701452  0.63793553  0.86480368  1
  O  O36  1  0.01794433  0.82876144  0.41041271  1
  O  O37  1  0.80387165  0.97248736  0.41075064  1
  O  O38  1  0.17962575  0.19984489  0.41026939  1
  O  O39  1  0.02751264  0.19612835  0.91075064  1
  O  O40  1  0.17123856  0.98205567  0.91041271  1
  O  O41  1  0.80015511  0.82037425  0.91026939  1
  O  O42  1  0.97197226  0.17470671  0.58905591  1
  O  O43  1  0.19159325  0.02176383  0.59012368  1
  O  O44  1  0.82497072  0.81152334  0.58893311  1
  O  O45  1  0.97823617  0.80840675  0.09012368  1
  O  O46  1  0.82529329  0.02802774  0.08905591  1
  O  O47  1  0.18847666  0.17502928  0.08893311  1
  O  O48  1  0.68461133  0.16209444  0.74374571  1
  O  O49  1  0.47053865  0.30582036  0.74408364  1
  O  O50  1  0.84629275  0.53317789  0.74360239  1
  O  O51  1  0.69417964  0.52946135  0.24408364  1
  O  O52  1  0.83790556  0.31538867  0.24374571  1
  O  O53  1  0.46682211  0.15370725  0.24360239  1
  O  O54  1  0.63863926  0.50803971  0.92238891  1
  O  O55  1  0.85826025  0.35509683  0.92345668  1
  O  O56  1  0.49163772  0.14485634  0.92226611  1
  O  O57  1  0.64490317  0.14173975  0.42345668  1
  O  O58  1  0.49196029  0.36136074  0.42238891  1
  O  O59  1  0.85514366  0.50836228  0.42226611  1
  O  O60  1  0.35127733  0.49542844  0.07707971  1
  O  O61  1  0.13720465  0.63915436  0.07741764  1
  O  O62  1  0.51295875  0.86651189  0.07693639  1
  O  O63  1  0.36084564  0.86279535  0.57741764  1
  O  O64  1  0.50457156  0.64872267  0.57707971  1
  O  O65  1  0.13348811  0.48704125  0.57693639  1
  O  O66  1  0.30530526  0.84137371  0.25572291  1
  O  O67  1  0.52492625  0.68843083  0.25679068  1
  O  O68  1  0.15830372  0.47819034  0.25560011  1
  O  O69  1  0.31156917  0.47507375  0.75679068  1
  O  O70  1  0.15862629  0.69469474  0.75572291  1
  O  O71  1  0.52180966  0.84169628  0.75560011  1
loop_
_geom_bond_atom_site_label_1
_geom_bond_atom_site_label_2
_geom_bond_distance
_geom_bond_site_symmetry_2
Na0 O51 2.387347 1_555
Na0 O68 2.427038 1_655
Na0 O52 2.446876 1_555
Na0 O66 2.449187 1_655
Na0 O30 2.708328 1_655
Na0 O15 2.781856 1_555
Na0 O1 2.854839 1_555
Na0 O11 2.913420 1_655
Na1 O49 2.387347 1_555
Na1 O71 2.427038 1_545
Na1 O48 2.446876 1_555
Na1 O70 2.449187 1_545
Na1 O34 2.708328 1_545
Na1 O13 2.781856 1_555
Na1 O3 2.854839 1_555
Na1 O8 2.913420 1_545
Na2 O63 2.387356 1_555
Na2 O44 2.427038 1_555
Na2 O64 2.446867 1_555
Na2 O42 2.449187 1_565
Na2 O6 2.708328 1_555
Na2 O27 2.781835 1_555
Na2 O13 2.854839 1_565
Na2 O23 2.913420 1_565
Na3 O61 2.387356 1_555
Na3 O47 2.427038 1_555
Na3 O60 2.446867 1_555
Na3 O46 2.449187 1_455
Na3 O10 2.708328 1_555
Na3 O25 2.781835 1_554
Na3 O15 2.854839 1_455
Na3 O20 2.913420 1_455
Na4 O39 2.387347 1_555
Na4 O56 2.427052 1_555
Na4 O40 2.446876 1_545
Na4 O54 2.449191 1_555
Na4 O18 2.708312 1_556
Na4 O3 2.781856 1_555
Na4 O25 2.854839 1_555
Na4 O35 2.913420 1_555
Na5 O37 2.387347 1_555
Na5 O59 2.427052 1_555
Na5 O36 2.446876 1_655
Na5 O58 2.449191 1_555
Na5 O22 2.708312 1_555
Na5 O1 2.781856 1_555
Na5 O27 2.854839 1_555
Na5 O32 2.913420 1_555
Na6 O43 2.550896 1_565
Na6 O36 2.563301 1_555
Na6 O44 2.634290 1_455
Na6 O38 2.654996 1_565
Na6 O42 2.703181 1_465
Na6 O37 2.706860 1_455
Na7 O45 2.550896 1_455
Na7 O40 2.563301 1_554
Na7 O47 2.634290 1_565
Na7 O41 2.654996 1_454
Na7 O46 2.703181 1_465
Na7 O39 2.706860 1_564
Na8 O55 2.550896 1_555
Na8 O48 2.563301 1_555
Na8 O56 2.634290 1_555
Na8 O50 2.654996 1_555
Na8 O54 2.703181 1_555
Na8 O49 2.706860 1_555
Na9 O57 2.550896 1_555
Na9 O52 2.563301 1_555
Na9 O59 2.634290 1_555
Na9 O53 2.654996 1_555
Na9 O58 2.703181 1_555
Na9 O51 2.706860 1_555
Na10 O67 2.550896 1_555
Na10 O60 2.563301 1_555
Na10 O68 2.634290 1_555
Na10 O62 2.654996 1_555
Na10 O66 2.703181 1_555
Na10 O61 2.706860 1_555
Na11 O69 2.550896 1_555
Na11 O64 2.563301 1_555
Na11 O71 2.634290 1_555
Na11 O65 2.654996 1_555
Na11 O70 2.703181 1_555
Na11 O63 2.706860 1_555
O0 S0 1.469973 1_555
O0 Sc0 2.165836 1_455
O1 P0 1.555469 1_555
O1 Sc0 2.047922 1_565
O2 P1 1.539647 1_555
O2 Sc0 1.999442 1_555
O3 P2 1.555469 1_555
O3 Sc1 2.047922 1_455
O4 S1 1.469973 1_555
O4 Sc1 2.165836 1_565
O5 P3 1.539648 1_555
O5 Sc1 1.999442 1_555
O6 P3 1.547600 1_565
O6 Sc2 2.068617 1_665
O7 P2 1.538313 1_555
O7 Sc2 2.024036 1_555
O8 S1 1.488593 1_455
O8 Sc2 2.105051 1_565
O9 P0 1.538313 1_555
O9 Sc3 2.024036 1_555
O10 P1 1.547600 1_455
O10 Sc3 2.068617 1_445
O11 S0 1.488593 1_565
O11 Sc3 2.105051 1_455
O12 S2 1.469973 1_555
O12 Sc4 2.165836 1_555
O13 P4 1.555469 1_555
O13 Sc4 2.047922 1_555
O14 P5 1.539647 1_555
O14 Sc4 1.999442 1_555
O15 P6 1.555469 1_555
O15 Sc5 2.047922 1_555
O16 S3 1.469973 1_555
O16 Sc5 2.165836 1_555
O17 P7 1.539648 1_555
O17 Sc5 1.999442 1_555
O18 P7 1.547600 1_555
O18 Sc6 2.068617 1_554
O19 P6 1.538313 1_555
O19 Sc6 2.024036 1_554
O20 S3 1.488593 1_555
O20 Sc6 2.105051 1_554
O21 P4 1.538313 1_555
O21 Sc7 2.024036 1_555
O22 P5 1.547600 1_555
O22 Sc7 2.068617 1_555
O23 S2 1.488593 1_555
O23 Sc7 2.105051 1_555
O24 S4 1.469973 1_555
O24 Sc8 2.165836 1_556
O25 P8 1.555469 1_555
O25 Sc8 2.047922 1_556
O26 P9 1.539647 1_555
O26 Sc8 1.999442 1_556
O27 P10 1.555469 1_555
O27 Sc9 2.047922 1_555
O28 S5 1.469973 1_555
O28 Sc9 2.165836 1_555
O29 P11 1.539648 1_555
O29 Sc9 1.999442 1_555
O30 P11 1.547600 1_555
O30 Sc10 2.068617 1_555
O31 P10 1.538313 1_555
O31 Sc10 2.024036 1_555
O32 S5 1.488593 1_555
O32 Sc10 2.105051 1_555
O33 P8 1.538313 1_555
O33 Sc11 2.024036 1_555
O34 P9 1.547600 1_555
O34 Sc11 2.068617 1_555
O35 S4 1.488593 1_555
O35 Sc11 2.105051 1_555
O36 P11 1.556544 1_555
O36 Sc0 2.156280 1_465
O37 P10 1.560370 1_555
O37 Sc0 2.073283 1_565
O38 S5 1.469117 1_555
O38 Sc0 2.199025 1_455
O39 P8 1.560370 1_555
O39 Sc1 2.073283 1_455
O40 P9 1.556544 1_555
O40 Sc1 2.156280 1_465
O41 S4 1.469117 1_555
O41 Sc1 2.199025 1_565
O42 S2 1.500254 1_555
O42 Sc2 2.188253 1_655
O43 P4 1.536167 1_555
O43 Sc2 2.085908 1_555
O44 P5 1.560890 1_555
O44 Sc2 2.142283 1_665
O45 P6 1.536167 1_555
O45 Sc3 2.085908 1_555
O46 S3 1.500254 1_555
O46 Sc3 2.188253 1_545
O47 P7 1.560890 1_555
O47 Sc3 2.142283 1_445
O48 P3 1.556544 1_555
O48 Sc4 2.156280 1_555
O49 P2 1.560370 1_555
O49 Sc4 2.073283 1_555
O50 S1 1.469117 1_555
O50 Sc4 2.199025 1_555
O51 P0 1.560370 1_555
O51 Sc5 2.073283 1_555
O52 P1 1.556544 1_555
O52 Sc5 2.156280 1_555
O53 S0 1.469117 1_555
O53 Sc5 2.199025 1_555
O54 S4 1.500266 1_555
O54 Sc6 2.188253 1_555
O55 P8 1.536153 1_655
O55 Sc6 2.085908 1_555
O56 P9 1.560885 1_545
O56 Sc6 2.142283 1_555
O57 P10 1.536153 1_545
O57 Sc7 2.085908 1_555
O58 S5 1.500266 1_555
O58 Sc7 2.188253 1_555
O59 P11 1.560885 1_655
O59 Sc7 2.142283 1_555
O60 P7 1.556556 1_555
O60 Sc8 2.156280 1_555
O61 P6 1.560355 1_455
O61 Sc8 2.073283 1_555
O62 S3 1.469112 1_565
O62 Sc8 2.199025 1_555
O63 P4 1.560355 1_565
O63 Sc9 2.073283 1_555
O64 P5 1.556556 1_555
O64 Sc9 2.156280 1_555
O65 S2 1.469112 1_455
O65 Sc9 2.199025 1_555
O66 S0 1.500254 1_565
O66 Sc10 2.188253 1_555
O67 P0 1.536167 1_555
O67 Sc10 2.085908 1_555
O68 P1 1.560890 1_455
O68 Sc10 2.142283 1_555
O69 P2 1.536167 1_555
O69 Sc11 2.085908 1_555
O70 S1 1.500254 1_455
O70 Sc11 2.188253 1_555
O71 P3 1.560890 1_565
O71 Sc11 2.142283 1_555
