# generated using pymatgen
data_Na14Ca4Ga4Si5S7O48
_symmetry_space_group_name_H-M   'P 1'
_cell_length_a   18.46008857
_cell_length_b   9.12571551
_cell_length_c   22.43778136
_cell_angle_alpha   89.81201316
_cell_angle_beta   89.65703350
_cell_angle_gamma   119.47440791
_symmetry_Int_Tables_number   1
_chemical_formula_structural   Na14Ca4Ga4Si5S7O48
_chemical_formula_sum   'Na42 Ca12 Ga12 Si15 S21 O144'
_cell_volume   3290.54776707
_cell_formula_units_Z   3
loop_
 _symmetry_equiv_pos_site_id
 _symmetry_equiv_pos_as_xyz
  1  'x, y, z'
loop_
 _atom_site_type_symbol
 _atom_site_label
 _atom_site_symmetry_multiplicity
 _atom_site_fract_x
 _atom_site_fract_y
 _atom_site_fract_z
 _atom_site_occupancy
  Na  Na0  1  0.80862814  0.00029075  0.24489895  1
  Na  Na1  1  0.18581322  0.35911187  0.25327556  1
  Na  Na2  1  0.67841235  0.35033286  0.25121553  1
  Na  Na3  1  0.00909847  0.64867329  0.24544414  1
  Na  Na4  1  0.50235265  0.64364150  0.23509936  1
  Na  Na5  1  0.32001087  0.61925115  0.74842113  1
  Na  Na6  1  0.00252706  0.36086207  0.73556777  1
  Na  Na7  1  0.50600121  0.37390356  0.74425229  1
  Na  Na8  1  0.18333686  0.01261159  0.75049475  1
  Na  Na9  1  0.67840337  0.00156037  0.75322355  1
  Na  Na10  1  0.14989961  0.32505498  0.58318041  1
  Na  Na11  1  0.65415802  0.32526886  0.58066396  1
  Na  Na12  1  0.32518000  0.97044783  0.59196809  1
  Na  Na13  1  0.83419013  0.98119985  0.58868281  1
  Na  Na14  1  0.15840619  0.98689734  0.07193915  1
  Na  Na15  1  0.64901660  0.97018801  0.07534142  1
  Na  Na16  1  0.33618677  0.68810885  0.08441481  1
  Na  Na17  1  0.82129293  0.67710453  0.08249171  1
  Na  Na18  1  0.48290183  0.67519521  0.91763082  1
  Na  Na19  1  0.98767018  0.67638608  0.91628842  1
  Na  Na20  1  0.34263703  0.03474180  0.91197128  1
  Na  Na21  1  0.84270216  0.02193443  0.91208794  1
  Na  Na22  1  0.16841336  0.27494730  0.91503968  1
  Na  Na23  1  0.66760119  0.27373529  0.91626313  1
  Na  Na24  1  0.48948597  0.30265082  0.42065129  1
  Na  Na25  1  0.98520426  0.29667376  0.43236378  1
  Na  Na26  1  0.16768847  0.06380553  0.42129783  1
  Na  Na27  1  0.66671391  0.05774316  0.42016684  1
  Na  Na28  1  0.34702305  0.66280952  0.41819682  1
  Na  Na29  1  0.84075592  0.65271755  0.41857836  1
  Na  Na30  1  0.00928824  0.01317411  0.50915320  1
  Na  Na31  1  0.51314865  0.00343219  0.50905057  1
  Na  Na32  1  0.01210664  0.02420930  0.00433292  1
  Na  Na33  1  0.51094962  0.00546917  0.00435244  1
  Na  Na34  1  0.32776082  0.33341800  0.82622536  1
  Na  Na35  1  0.81687147  0.32905854  0.82510562  1
  Na  Na36  1  0.32060486  0.30975949  0.32657387  1
  Na  Na37  1  0.81198059  0.31569442  0.33509524  1
  Na  Na38  1  0.17208200  0.67224439  0.16497196  1
  Na  Na39  1  0.65560658  0.65015606  0.16085918  1
  Na  Na40  1  0.15738169  0.66069479  0.66309831  1
  Na  Na41  1  0.66475038  0.67073246  0.66913923  1
  Ca  Ca0  1  0.01369705  0.01934618  0.34993204  1
  Ca  Ca1  1  0.50656217  0.01315448  0.34936199  1
  Ca  Ca2  1  0.00522227  0.99843470  0.84900467  1
  Ca  Ca3  1  0.51277680  0.00279625  0.84723852  1
  Ca  Ca4  1  0.33029250  0.32643448  0.67708738  1
  Ca  Ca5  1  0.82504114  0.33421421  0.17445867  1
  Ca  Ca6  1  0.33064816  0.33299556  0.99092934  1
  Ca  Ca7  1  0.82471585  0.31794107  0.98652681  1
  Ca  Ca8  1  0.32380813  0.32982122  0.48804225  1
  Ca  Ca9  1  0.83053300  0.32872581  0.49238660  1
  Ca  Ca10  1  0.66388289  0.66416088  0.31335863  1
  Ca  Ca11  1  0.16466618  0.66423915  0.81240096  1
  Ga  Ga0  1  0.01525010  0.01904277  0.64864876  1
  Ga  Ga1  1  0.53243486  0.01502566  0.66335971  1
  Ga  Ga2  1  0.01938126  0.01168720  0.15466751  1
  Ga  Ga3  1  0.51654162  0.01285479  0.14698204  1
  Ga  Ga4  1  0.82296437  0.30838619  0.67320699  1
  Ga  Ga5  1  0.32323961  0.33217673  0.17259606  1
  Ga  Ga6  1  0.16394776  0.65390336  0.01504250  1
  Ga  Ga7  1  0.64020772  0.64550627  0.02333277  1
  Ga  Ga8  1  0.14432004  0.63504032  0.52603527  1
  Ga  Ga9  1  0.66161502  0.66432309  0.51819336  1
  Ga  Ga10  1  0.17778686  0.69153873  0.31665142  1
  Ga  Ga11  1  0.66400059  0.66757510  0.80987869  1
  Si  Si0  1  0.16032366  0.00362026  0.24880607  1
  Si  Si1  1  0.65179773  0.00112149  0.25013698  1
  Si  Si2  1  0.15018335  0.30285002  0.75014200  1
  Si  Si3  1  0.66268274  0.31849165  0.74887735  1
  Si  Si4  1  0.50043474  0.69244217  0.75546179  1
  Si  Si5  1  0.97882816  0.32108700  0.58705374  1
  Si  Si6  1  0.17313377  0.00566706  0.58086982  1
  Si  Si7  1  0.67800981  0.01459405  0.58108476  1
  Si  Si8  1  0.47804658  0.63485272  0.08727337  1
  Si  Si9  1  0.17708009  0.33871699  0.08333924  1
  Si  Si10  1  0.67242399  0.34136616  0.08173427  1
  Si  Si11  1  0.16728151  0.95644305  0.92077337  1
  Si  Si12  1  0.66794286  0.94061184  0.91803543  1
  Si  Si13  1  0.16750985  0.39821120  0.41612775  1
  Si  Si14  1  0.66774973  0.37731682  0.41973293  1
  S  S0  1  0.34724912  0.69737990  0.25048607  1
  S  S1  1  0.86007415  0.71707383  0.24729504  1
  S  S2  1  0.00108927  0.29807597  0.24798047  1
  S  S3  1  0.49203003  0.28976066  0.24613215  1
  S  S4  1  0.99255442  0.69565974  0.74581905  1
  S  S5  1  0.35740965  0.99947423  0.74764592  1
  S  S6  1  0.84900224  0.00069964  0.74931894  1
  S  S7  1  0.49044823  0.33315153  0.58089260  1
  S  S8  1  0.33489206  0.65425625  0.58151670  1
  S  S9  1  0.83347361  0.63819099  0.58418553  1
  S  S10  1  0.98998316  0.64919654  0.08501403  1
  S  S11  1  0.33457623  0.03035934  0.08571018  1
  S  S12  1  0.83966272  0.02101769  0.08551741  1
  S  S13  1  0.31403076  0.67112606  0.91933772  1
  S  S14  1  0.80908834  0.66419100  0.91633934  1
  S  S15  1  0.01872392  0.37193517  0.92015629  1
  S  S16  1  0.52201549  0.37785609  0.91514745  1
  S  S17  1  0.31034585  0.95739682  0.41652354  1
  S  S18  1  0.81494937  0.96069510  0.41715661  1
  S  S19  1  0.02319996  0.66478593  0.41432985  1
  S  S20  1  0.51764244  0.66436915  0.41964608  1
  O  O0  1  0.12929530  0.05506143  0.30888733  1
  O  O1  1  0.61539432  0.02066414  0.31380403  1
  O  O2  1  0.39282703  0.77366121  0.30626143  1
  O  O3  1  0.90336963  0.79691286  0.30321508  1
  O  O4  1  0.48467191  0.21091998  0.30558047  1
  O  O5  1  0.98621957  0.20671785  0.30481243  1
  O  O6  1  0.11251679  0.21114213  0.81394365  1
  O  O7  1  0.63184827  0.20222689  0.80859577  1
  O  O8  1  0.47763959  0.75321074  0.81669670  1
  O  O9  1  0.98464336  0.75878820  0.80521961  1
  O  O10  1  0.40046965  0.01080435  0.80451520  1
  O  O11  1  0.89508610  0.01864179  0.80521481  1
  O  O12  1  0.40562598  0.99136019  0.69508224  1
  O  O13  1  0.89247024  0.98437290  0.69658359  1
  O  O14  1  0.08672866  0.19327047  0.69520581  1
  O  O15  1  0.59418861  0.23036991  0.69295522  1
  O  O16  1  0.99742972  0.81157380  0.69742897  1
  O  O17  1  0.51711235  0.83002537  0.70123598  1
  O  O18  1  0.38950989  0.79844560  0.19740927  1
  O  O19  1  0.90642200  0.82485107  0.19404921  1
  O  O20  1  0.00943098  0.19743980  0.19835079  1
  O  O21  1  0.49808637  0.18576512  0.19791250  1
  O  O22  1  0.08903924  0.94997751  0.19497057  1
  O  O23  1  0.58876530  0.98653675  0.19545817  1
  O  O24  1  0.45041092  0.35260149  0.63477622  1
  O  O25  1  0.92564394  0.34470641  0.64244359  1
  O  O26  1  0.23584860  0.08030601  0.63746297  1
  O  O27  1  0.74376469  0.10307051  0.63717299  1
  O  O28  1  0.32515938  0.54686172  0.63405698  1
  O  O29  1  0.81929885  0.51053370  0.63109356  1
  O  O30  1  0.42625268  0.50739310  0.14430409  1
  O  O31  1  0.95119432  0.55238196  0.13982865  1
  O  O32  1  0.31957182  0.12752789  0.13313271  1
  O  O33  1  0.83074643  0.10755423  0.13886116  1
  O  O34  1  0.24218784  0.38212105  0.14010877  1
  O  O35  1  0.73157140  0.39301112  0.14078193  1
  O  O36  1  0.20821537  0.28495304  0.02448131  1
  O  O37  1  0.71221000  0.29048032  0.02583746  1
  O  O38  1  0.42938362  0.57473588  0.02524150  1
  O  O39  1  0.93894439  0.56673176  0.03191236  1
  O  O40  1  0.34801282  0.11521811  0.02753299  1
  O  O41  1  0.85312783  0.12431921  0.03120876  1
  O  O42  1  0.20777131  0.12822663  0.52199840  1
  O  O43  1  0.70904504  0.12485399  0.52079063  1
  O  O44  1  0.34773017  0.57893721  0.52647827  1
  O  O45  1  0.84820600  0.58328783  0.52554376  1
  O  O46  1  0.44160609  0.31995929  0.52662560  1
  O  O47  1  0.93235171  0.28955489  0.52402748  1
  O  O48  1  0.26785574  0.67499047  0.97444910  1
  O  O49  1  0.77010058  0.67564797  0.97232449  1
  O  O50  1  0.07560795  0.45640804  0.97151196  1
  O  O51  1  0.57359750  0.45905077  0.96845430  1
  O  O52  1  0.16114267  0.83287116  0.97981780  1
  O  O53  1  0.66237391  0.83295283  0.97971388  1
  O  O54  1  0.26855451  0.86106056  0.46994824  1
  O  O55  1  0.76925313  0.86087712  0.47112975  1
  O  O56  1  0.16030100  0.49435965  0.47611062  1
  O  O57  1  0.66255883  0.49192437  0.47686169  1
  O  O58  1  0.07448780  0.68387616  0.46687857  1
  O  O59  1  0.57457378  0.69029378  0.47034735  1
  O  O60  1  0.06459193  0.65594110  0.35766261  1
  O  O61  1  0.55409488  0.65091044  0.36261295  1
  O  O62  1  0.25884175  0.88494964  0.36128042  1
  O  O63  1  0.76854416  0.88422936  0.36199639  1
  O  O64  1  0.17431310  0.50962313  0.35466656  1
  O  O65  1  0.67568013  0.46827805  0.35589529  1
  O  O66  1  0.05565018  0.45981316  0.86373240  1
  O  O67  1  0.56353414  0.47121964  0.85950032  1
  O  O68  1  0.17385527  0.87609458  0.85836045  1
  O  O69  1  0.67768461  0.84407365  0.85876333  1
  O  O70  1  0.26608098  0.65454977  0.86521780  1
  O  O71  1  0.75692400  0.64082523  0.86323870  1
  O  O72  1  0.01073776  0.81448134  0.41329941  1
  O  O73  1  0.50266052  0.81040530  0.41980150  1
  O  O74  1  0.39207962  0.96332524  0.41049538  1
  O  O75  1  0.89738014  0.96648177  0.41650820  1
  O  O76  1  0.08402227  0.21135265  0.41883245  1
  O  O77  1  0.58109458  0.19442875  0.42620968  1
  O  O78  1  0.00309142  0.19560645  0.92022348  1
  O  O79  1  0.51004479  0.20429171  0.91420832  1
  O  O80  1  0.08053259  0.96683954  0.92684583  1
  O  O81  1  0.58550165  0.96409928  0.92173696  1
  O  O82  1  0.39473713  0.83129516  0.91988464  1
  O  O83  1  0.89225513  0.82123515  0.91175461  1
  O  O84  1  0.49712938  0.17710024  0.58439164  1
  O  O85  1  0.98567930  0.14620101  0.59576430  1
  O  O86  1  0.08097978  0.99206955  0.59117285  1
  O  O87  1  0.58841171  0.01151383  0.59457745  1
  O  O88  1  0.40539212  0.82770685  0.58733767  1
  O  O89  1  0.90307041  0.80796721  0.59631340  1
  O  O90  1  0.48649957  0.82492195  0.09667966  1
  O  O91  1  0.99521002  0.82056412  0.08836808  1
  O  O92  1  0.40490424  0.00126553  0.09806711  1
  O  O93  1  0.91142208  0.98925159  0.09156686  1
  O  O94  1  0.08568895  0.16660937  0.09721763  1
  O  O95  1  0.58042193  0.17083122  0.08995283  1
  O  O96  1  0.34699019  0.15038518  0.74493266  1
  O  O97  1  0.84169951  0.15918055  0.74545030  1
  O  O98  1  0.24172608  0.31665612  0.74590558  1
  O  O99  1  0.75108601  0.32076584  0.73150158  1
  O  O100  1  0.42441409  0.50492592  0.74309154  1
  O  O101  1  0.92208343  0.52242619  0.73995396  1
  O  O102  1  0.33929682  0.52429082  0.24775102  1
  O  O103  1  0.85542719  0.54993872  0.24466860  1
  O  O104  1  0.42049907  0.32037296  0.24053614  1
  O  O105  1  0.92993356  0.32764282  0.23884740  1
  O  O106  1  0.24912868  0.17557945  0.23188294  1
  O  O107  1  0.74496474  0.16953076  0.24656619  1
  O  O108  1  0.32702984  0.52326277  0.92103356  1
  O  O109  1  0.82563101  0.51792594  0.91752023  1
  O  O110  1  0.43946669  0.36816893  0.91897884  1
  O  O111  1  0.93856464  0.37040509  0.92736121  1
  O  O112  1  0.25140890  0.14222407  0.92237119  1
  O  O113  1  0.75254553  0.12761446  0.91572501  1
  O  O114  1  0.32581093  0.13495757  0.41768553  1
  O  O115  1  0.82802090  0.13497006  0.41885657  1
  O  O116  1  0.25152880  0.37882527  0.41375254  1
  O  O117  1  0.75229277  0.36012450  0.42191709  1
  O  O118  1  0.43657223  0.50698766  0.42594547  1
  O  O119  1  0.94022384  0.51039938  0.41701961  1
  O  O120  1  0.17344204  0.51814950  0.07524186  1
  O  O121  1  0.67000349  0.51840745  0.06994114  1
  O  O122  1  0.07594029  0.67443139  0.08058067  1
  O  O123  1  0.57462298  0.66727197  0.08523054  1
  O  O124  1  0.25575375  0.86073120  0.08496585  1
  O  O125  1  0.76134521  0.85651207  0.08179370  1
  O  O126  1  0.16991796  0.82280901  0.56997063  1
  O  O127  1  0.67397496  0.82792817  0.57434042  1
  O  O128  1  0.25530929  0.66022571  0.57810863  1
  O  O129  1  0.75392097  0.64872292  0.58297580  1
  O  O130  1  0.07566180  0.48017025  0.58600214  1
  O  O131  1  0.57686293  0.48319047  0.57788874  1
  O  O132  1  0.16069411  0.81996321  0.25727163  1
  O  O133  1  0.65956994  0.83061327  0.24232017  1
  O  O134  1  0.25999076  0.67295417  0.25273206  1
  O  O135  1  0.77534120  0.69683041  0.24575868  1
  O  O136  1  0.08013141  0.46443503  0.24821577  1
  O  O137  1  0.57125785  0.45730330  0.24404131  1
  O  O138  1  0.15725298  0.48775401  0.74201281  1
  O  O139  1  0.66440734  0.50058802  0.75709214  1
  O  O140  1  0.07248135  0.68934142  0.74363487  1
  O  O141  1  0.59074307  0.69046963  0.75475296  1
  O  O142  1  0.27362547  0.84552558  0.74630057  1
  O  O143  1  0.76292681  0.85348496  0.75147203  1
loop_
_geom_bond_atom_site_label_1
_geom_bond_atom_site_label_2
_geom_bond_distance
_geom_bond_site_symmetry_2
Na0 O107 2.356663 1_555
Na0 O133 2.404601 1_545
Na0 O33 2.522994 1_555
Na0 O135 2.524259 1_545
Na0 O105 2.714362 1_555
Na0 O63 2.785644 1_545
Na1 O102 2.471231 1_555
Na1 O134 2.493622 1_555
Na1 O106 2.515285 1_555
Na1 O136 2.567072 1_555
Na1 O34 2.706387 1_555
Na1 O64 2.721925 1_555
Na1 O0 2.730806 1_555
Na2 O107 2.497388 1_555
Na2 O65 2.597385 1_555
Na2 O137 2.606652 1_555
Na2 O35 2.615921 1_555
Na2 O135 2.764455 1_555
Na2 O103 2.855271 1_555
Na2 O1 2.980775 1_555
Na3 O132 2.460115 1_555
Na3 O103 2.518908 1_455
Na3 O105 2.555899 1_455
Na3 O31 2.578809 1_455
Na3 O136 2.592281 1_555
Na3 O22 2.643343 1_555
Na3 O60 2.712734 1_555
Na4 O30 2.449864 1_555
Na4 O133 2.548517 1_555
Na4 O104 2.570943 1_555
Na4 O137 2.584410 1_555
Na4 O102 2.662456 1_555
Na4 O23 2.860087 1_555
Na4 O61 3.012370 1_555
Na5 O98 2.406635 1_555
Na5 O142 2.595992 1_555
Na5 O100 2.606531 1_555
Na5 O138 2.635556 1_555
Na5 O28 2.664616 1_555
Na5 O70 2.872738 1_555
Na5 O8 2.978860 1_555
Na6 O25 2.496735 1_455
Na6 O138 2.504250 1_555
Na6 O101 2.557832 1_455
Na6 O97 2.619763 1_455
Na6 O140 2.623560 1_555
Na6 O14 2.811918 1_555
Na7 O100 2.339028 1_555
Na7 O141 2.531804 1_555
Na7 O139 2.579911 1_555
Na7 O96 2.623814 1_555
Na7 O24 2.638519 1_555
Na7 O67 2.779095 1_555
Na7 O15 2.788646 1_555
Na8 O98 2.434071 1_555
Na8 O96 2.641922 1_555
Na8 O140 2.642019 1_545
Na8 O26 2.669179 1_555
Na8 O68 2.683458 1_545
Na8 O142 2.758949 1_545
Na9 O141 2.481368 1_545
Na9 O143 2.517255 1_545
Na9 O99 2.580682 1_555
Na9 O97 2.628978 1_555
Na9 O7 2.680757 1_555
Na9 O69 2.762604 1_545
Na9 O27 2.817976 1_555
Na9 O17 2.853641 1_545
Na10 O130 2.407157 1_555
Na10 O85 2.655451 1_455
Na10 O86 2.659682 1_545
Na10 O128 2.700545 1_555
Na10 O14 2.772972 1_555
Na10 O56 2.806016 1_555
Na10 O42 2.852919 1_555
Na11 O131 2.478065 1_555
Na11 O87 2.517642 1_555
Na11 O84 2.525344 1_555
Na11 O129 2.599969 1_555
Na11 O15 2.707876 1_555
Na11 O57 2.738986 1_555
Na11 O43 2.828391 1_555
Na11 O29 2.900705 1_555
Na12 O88 2.407751 1_555
Na12 O128 2.488406 1_555
Na12 O26 2.525867 1_565
Na12 O126 2.548510 1_555
Na12 O12 2.712912 1_555
Na12 O84 2.785967 1_565
Na12 O54 2.934340 1_555
Na13 O85 2.444606 1_565
Na13 O89 2.474716 1_555
Na13 O127 2.598213 1_555
Na13 O129 2.645441 1_555
Na13 O27 2.649566 1_565
Na13 O13 2.649678 1_555
Na13 O47 2.868875 1_565
Na13 O55 2.891594 1_555
Na14 O122 2.491405 1_555
Na14 O52 2.517624 1_554
Na14 O124 2.584682 1_555
Na14 O36 2.624070 1_565
Na14 O94 2.641337 1_565
Na14 O91 2.645523 1_455
Na14 O32 2.947340 1_565
Na14 O22 2.983440 1_555
Na15 O123 2.415210 1_555
Na15 O53 2.558967 1_554
Na15 O90 2.655559 1_555
Na15 O95 2.709999 1_565
Na15 O125 2.741595 1_555
Na15 O37 2.783117 1_565
Na15 O23 2.941640 1_555
Na16 O90 2.436430 1_555
Na16 O92 2.512543 1_565
Na16 O120 2.626359 1_555
Na16 O124 2.643486 1_555
Na16 O18 2.735333 1_555
Na16 O38 2.743425 1_555
Na16 O34 2.748246 1_555
Na16 O48 2.753915 1_554
Na17 O125 2.385034 1_555
Na17 O121 2.451200 1_555
Na17 O93 2.503584 1_555
Na17 O35 2.627058 1_555
Na17 O49 2.649411 1_554
Na17 O91 2.812262 1_555
Na17 O19 2.921842 1_555
Na17 O39 3.024921 1_555
Na18 O81 2.374113 1_555
Na18 O8 2.388609 1_555
Na18 O108 2.505675 1_555
Na18 O110 2.506489 1_555
Na18 O38 2.590783 1_556
Na18 O82 2.638499 1_555
Na19 O80 2.357542 1_655
Na19 O111 2.486413 1_555
Na19 O109 2.604149 1_555
Na19 O9 2.609609 1_555
Na19 O83 2.674417 1_555
Na19 O39 2.758681 1_556
Na20 O112 2.339864 1_555
Na20 O82 2.482044 1_545
Na20 O110 2.670670 1_555
Na20 O10 2.683823 1_555
Na20 O40 2.686342 1_556
Na20 O79 2.691434 1_555
Na21 O113 2.298915 1_555
Na21 O83 2.416613 1_545
Na21 O11 2.586060 1_555
Na21 O78 2.588844 1_655
Na21 O111 2.799691 1_555
Na21 O41 2.810606 1_556
Na21 O69 2.921711 1_545
Na22 O112 2.381013 1_555
Na22 O6 2.448410 1_555
Na22 O80 2.471621 1_545
Na22 O36 2.556433 1_556
Na22 O108 2.684018 1_555
Na22 O78 2.769896 1_555
Na23 O81 2.465275 1_545
Na23 O113 2.508917 1_555
Na23 O7 2.510620 1_555
Na23 O37 2.578582 1_556
Na23 O79 2.655392 1_555
Na23 O109 2.661028 1_555
Na24 O77 2.344354 1_555
Na24 O118 2.497580 1_555
Na24 O46 2.564162 1_555
Na24 O114 2.632194 1_555
Na24 O4 2.705320 1_555
Na24 O74 2.721071 1_545
Na25 O47 2.258097 1_555
Na25 O76 2.327816 1_655
Na25 O119 2.490939 1_555
Na25 O115 2.547290 1_555
Na25 O75 2.653521 1_545
Na26 O42 2.366243 1_555
Na26 O76 2.499700 1_555
Na26 O116 2.510707 1_555
Na26 O0 2.614853 1_555
Na26 O114 2.660859 1_555
Na26 O72 2.669318 1_545
Na27 O43 2.375396 1_555
Na27 O117 2.413168 1_555
Na27 O77 2.451737 1_555
Na27 O1 2.534661 1_555
Na27 O115 2.701511 1_555
Na27 O73 2.745886 1_545
Na28 O116 2.311233 1_555
Na28 O74 2.448069 1_555
Na28 O73 2.502695 1_555
Na28 O44 2.546948 1_555
Na28 O118 2.664583 1_555
Na28 O2 2.676285 1_555
Na29 O117 2.346966 1_555
Na29 O45 2.502079 1_555
Na29 O75 2.519252 1_555
Na29 O119 2.721372 1_555
Na29 O72 2.734144 1_655
Na29 O3 2.865825 1_555
Na30 O86 2.335181 1_545
Na30 O85 2.442600 1_455
Na30 O76 2.601601 1_555
Na30 O89 2.737317 1_445
Na30 O75 2.821598 1_445
Na30 O72 2.826096 1_545
Na31 O87 2.355944 1_555
Na31 O77 2.421918 1_555
Na31 O84 2.435102 1_555
Na31 O88 2.532723 1_545
Na31 O73 2.615871 1_545
Na32 O80 2.350098 1_544
Na32 O94 2.488371 1_555
Na32 O78 2.505265 1_554
Na32 O91 2.550657 1_445
Na32 O93 2.599300 1_445
Na32 O83 2.947607 1_444
Na33 O95 2.398958 1_555
Na33 O81 2.440929 1_544
Na33 O90 2.538617 1_545
Na33 O79 2.718366 1_554
Na33 O82 2.726467 1_544
Na33 O92 2.851586 1_555
Na34 O98 2.364472 1_555
Na34 O100 2.511081 1_555
Na34 O96 2.615094 1_555
Na34 O112 2.683963 1_555
Na34 O108 2.752058 1_555
Na34 O110 2.845404 1_555
Na35 O99 2.415112 1_555
Na35 O97 2.552518 1_555
Na35 O113 2.592720 1_555
Na35 O109 2.655128 1_555
Na35 O101 2.664080 1_555
Na36 O106 2.493032 1_555
Na36 O102 2.526863 1_555
Na36 O116 2.572681 1_555
Na36 O114 2.620121 1_555
Na36 O104 2.630044 1_555
Na37 O117 2.364873 1_555
Na37 O107 2.382928 1_555
Na37 O115 2.608979 1_555
Na37 O103 2.755800 1_555
Na37 O119 2.841602 1_555
Na38 O124 2.428800 1_555
Na38 O120 2.466652 1_555
Na38 O132 2.538193 1_555
Na38 O134 2.557156 1_555
Na38 O136 2.595645 1_555
Na38 O122 2.609721 1_555
Na39 O123 2.323216 1_555
Na39 O133 2.441508 1_555
Na39 O121 2.449858 1_555
Na39 O137 2.500465 1_555
Na39 O125 2.612083 1_555
Na39 O135 2.797326 1_555
Na40 O130 2.363572 1_555
Na40 O138 2.367262 1_555
Na40 O140 2.482443 1_555
Na40 O126 2.499111 1_555
Na40 O128 2.621251 1_555
Na40 O142 2.727965 1_555
Na41 O141 2.408748 1_555
Na41 O139 2.505101 1_555
Na41 O127 2.519237 1_555
Na41 O143 2.562158 1_555
Na41 O129 2.603362 1_555
Na41 O131 2.661521 1_555
Ca0 O0 2.190482 1_555
Ca0 O76 2.224611 1_555
Ca0 O5 2.248170 1_455
Ca0 O3 2.310483 1_445
Ca0 O72 2.323976 1_545
Ca0 O75 2.451997 1_445
Ca1 O1 2.126616 1_555
Ca1 O4 2.257487 1_555
Ca1 O77 2.325964 1_555
Ca1 O74 2.360111 1_545
Ca1 O2 2.375417 1_545
Ca1 O73 2.403092 1_545
Ca2 O6 2.120780 1_565
Ca2 O9 2.256821 1_455
Ca2 O80 2.342363 1_555
Ca2 O11 2.350461 1_465
Ca2 O83 2.361681 1_455
Ca2 O78 2.424973 1_565
Ca3 O8 2.154010 1_545
Ca3 O7 2.219390 1_555
Ca3 O81 2.282705 1_545
Ca3 O10 2.322686 1_555
Ca3 O79 2.397946 1_555
Ca3 O82 2.537575 1_545
Ca4 O98 2.211479 1_555
Ca4 O26 2.247915 1_555
Ca4 O100 2.264284 1_555
Ca4 O28 2.272326 1_555
Ca4 O24 2.308120 1_555
Ca4 O96 2.338884 1_555
Ca5 O35 2.181768 1_555
Ca5 O107 2.197877 1_555
Ca5 O33 2.269734 1_555
Ca5 O31 2.323026 1_555
Ca5 O103 2.369849 1_555
Ca5 O105 2.446918 1_555
Ca6 O38 2.202864 1_556
Ca6 O36 2.206689 1_556
Ca6 O112 2.252857 1_555
Ca6 O40 2.312208 1_556
Ca6 O108 2.361437 1_555
Ca6 O110 2.463307 1_555
Ca7 O37 2.149100 1_556
Ca7 O113 2.254272 1_555
Ca7 O41 2.304113 1_556
Ca7 O111 2.319657 1_555
Ca7 O109 2.383093 1_555
Ca7 O39 2.442918 1_556
Ca8 O42 2.155614 1_555
Ca8 O44 2.266373 1_555
Ca8 O116 2.316842 1_555
Ca8 O118 2.350970 1_555
Ca8 O46 2.387657 1_555
Ca8 O114 2.395447 1_555
Ca9 O43 2.183183 1_555
Ca9 O47 2.200029 1_555
Ca9 O117 2.258300 1_555
Ca9 O45 2.307591 1_555
Ca9 O115 2.406224 1_555
Ca9 O119 2.519043 1_555
Ca10 O65 2.127946 1_555
Ca10 O133 2.226881 1_555
Ca10 O61 2.252696 1_555
Ca10 O63 2.275598 1_555
Ca10 O137 2.404361 1_555
Ca10 O135 2.445199 1_555
Ca11 O68 2.126600 1_555
Ca11 O138 2.215707 1_555
Ca11 O70 2.259623 1_555
Ca11 O66 2.262827 1_555
Ca11 O142 2.378231 1_555
Ca11 O140 2.396216 1_555
Ga0 O14 1.822958 1_555
Ga0 O86 1.863675 1_545
Ga0 O85 1.916938 1_455
Ga0 O16 2.063969 1_445
Ga0 O89 2.344413 1_445
Ga0 O13 2.378437 1_445
Ga1 O17 1.780526 1_545
Ga1 O15 1.848102 1_555
Ga1 O87 1.861310 1_555
Ga1 O12 2.348329 1_545
Ga2 O94 1.850645 1_555
Ga2 O22 1.873931 1_545
Ga2 O20 2.045250 1_555
Ga2 O19 2.122602 1_445
Ga2 O91 2.170996 1_445
Ga2 O93 2.377490 1_445
Ga3 O23 1.830052 1_545
Ga3 O95 1.844780 1_555
Ga3 O90 1.899209 1_545
Ga3 O21 2.109036 1_555
Ga3 O92 2.296995 1_555
Ga3 O18 2.458907 1_545
Ga4 O25 1.882481 1_555
Ga4 O99 1.900513 1_555
Ga4 O27 1.905312 1_555
Ga4 O29 2.100645 1_555
Ga4 O97 2.248735 1_555
Ga4 O101 2.437447 1_555
Ga5 O30 1.887477 1_555
Ga5 O34 1.913043 1_555
Ga5 O106 1.930104 1_555
Ga5 O32 2.040486 1_555
Ga5 O102 2.349283 1_555
Ga5 O104 2.404372 1_555
Ga6 O52 1.835749 1_554
Ga6 O120 1.896178 1_555
Ga6 O50 1.999990 1_554
Ga6 O48 2.039763 1_554
Ga6 O122 2.260458 1_555
Ga6 O124 2.408243 1_555
Ga7 O53 1.829433 1_554
Ga7 O121 1.835274 1_555
Ga7 O123 1.911145 1_555
Ga7 O51 1.973929 1_554
Ga7 O125 2.498684 1_555
Ga8 O126 1.830610 1_555
Ga8 O56 1.835274 1_555
Ga8 O130 1.902267 1_555
Ga8 O58 2.050420 1_555
Ga8 O128 2.276599 1_555
Ga8 O54 2.528061 1_555
Ga9 O57 1.836264 1_555
Ga9 O127 1.883836 1_555
Ga9 O59 2.045530 1_555
Ga9 O131 2.095136 1_555
Ga9 O55 2.176196 1_555
Ga9 O129 2.302975 1_555
Ga10 O64 1.836556 1_555
Ga10 O132 1.899187 1_555
Ga10 O62 1.946158 1_555
Ga10 O134 2.148791 1_555
Ga10 O60 2.150744 1_555
Ga10 O136 2.506059 1_555
Ga11 O69 1.864327 1_555
Ga11 O141 1.923218 1_555
Ga11 O139 1.935998 1_555
Ga11 O67 2.140557 1_555
Ga11 O143 2.199683 1_555
Ga11 O71 2.206880 1_555
O0 Si0 1.620282 1_555
O1 Si1 1.622426 1_555
O2 S0 1.483455 1_555
O3 S1 1.479498 1_555
O4 S3 1.486849 1_555
O5 S2 1.469741 1_655
O6 Si2 1.625066 1_555
O7 Si3 1.622471 1_555
O8 Si4 1.612493 1_555
O9 S4 1.488325 1_555
O10 S5 1.484217 1_545
O11 S6 1.483420 1_555
O12 S5 1.497197 1_555
O13 S6 1.474326 1_565
O14 Si2 1.662587 1_555
O15 Si3 1.686676 1_555
O16 S4 1.484431 1_555
O17 Si4 1.660318 1_555
O18 S0 1.466685 1_555
O19 S1 1.509533 1_555
O20 S2 1.500338 1_555
O21 S3 1.481035 1_555
O22 Si0 1.679110 1_565
O23 Si1 1.656085 1_565
O24 S7 1.469462 1_555
O25 Si5 1.658425 1_555
O26 Si6 1.632174 1_555
O27 Si7 1.664222 1_555
O28 S8 1.482957 1_555
O29 S9 1.490662 1_555
O30 Si8 1.669064 1_555
O31 S10 1.471657 1_555
O32 S11 1.496526 1_555
O33 S12 1.488319 1_555
O34 Si9 1.666470 1_555
O35 Si10 1.638496 1_555
O36 Si9 1.608675 1_555
O37 Si10 1.629877 1_555
O38 Si8 1.606308 1_555
O39 S10 1.481637 1_555
O40 S11 1.471620 1_555
O41 S12 1.481086 1_555
O42 Si6 1.637406 1_555
O43 Si7 1.607925 1_555
O44 S8 1.488639 1_555
O45 S9 1.480011 1_555
O46 S7 1.489075 1_555
O47 Si5 1.610285 1_555
O48 S13 1.508043 1_555
O49 S14 1.473434 1_555
O50 S15 1.499488 1_555
O51 S16 1.487108 1_555
O52 Si11 1.703618 1_555
O53 Si12 1.667647 1_555
O54 S17 1.455884 1_555
O55 S18 1.494097 1_555
O56 Si13 1.649088 1_555
O57 Si14 1.688819 1_555
O58 S19 1.472875 1_555
O59 S20 1.492004 1_555
O60 S19 1.502257 1_555
O61 S20 1.475662 1_555
O62 S17 1.509443 1_555
O63 S18 1.477402 1_555
O64 Si13 1.677599 1_555
O65 Si14 1.622429 1_555
O66 S15 1.468219 1_555
O67 S16 1.487043 1_555
O68 Si11 1.614240 1_555
O69 Si12 1.654667 1_555
O70 S13 1.470814 1_555
O71 S14 1.485152 1_555
O72 S19 1.492899 1_555
O73 S20 1.488380 1_555
O74 S17 1.488260 1_555
O75 S18 1.496383 1_555
O76 Si13 1.642778 1_555
O77 Si14 1.653449 1_555
O78 S15 1.488484 1_555
O79 S16 1.487902 1_555
O80 Si11 1.654995 1_555
O81 Si12 1.639676 1_555
O82 S13 1.487823 1_555
O83 S14 1.501152 1_555
O84 S7 1.490504 1_555
O85 Si5 1.672770 1_555
O86 Si6 1.658371 1_565
O87 Si7 1.666230 1_555
O88 S8 1.480696 1_555
O89 S9 1.474188 1_555
O90 Si8 1.677467 1_555
O91 S10 1.520847 1_555
O92 S11 1.475084 1_555
O93 S12 1.495672 1_565
O94 Si9 1.671228 1_555
O95 Si10 1.653409 1_555
O96 S5 1.482418 1_545
O97 S6 1.519385 1_555
O98 Si2 1.633740 1_555
O99 Si3 1.665724 1_555
O100 Si4 1.618425 1_555
O101 S4 1.479342 1_555
O102 S0 1.514229 1_555
O103 S1 1.486286 1_555
O104 S3 1.483983 1_555
O105 S2 1.480479 1_655
O106 Si0 1.658695 1_555
O107 Si1 1.650078 1_555
O108 S13 1.482636 1_555
O109 S14 1.508828 1_555
O110 S16 1.484306 1_555
O111 S15 1.480801 1_655
O112 Si11 1.642407 1_545
O113 Si12 1.652201 1_545
O114 S17 1.500973 1_545
O115 S18 1.487233 1_545
O116 Si13 1.645849 1_555
O117 Si14 1.644547 1_555
O118 S20 1.484381 1_555
O119 S19 1.486442 1_655
O120 Si9 1.680825 1_555
O121 Si10 1.658508 1_555
O122 S10 1.489683 1_455
O123 Si8 1.657688 1_555
O124 S11 1.515807 1_565
O125 S12 1.489062 1_565
O126 Si6 1.659305 1_565
O127 Si7 1.675467 1_565
O128 S8 1.499052 1_555
O129 S9 1.518541 1_555
O130 Si5 1.658017 1_455
O131 S7 1.507556 1_555
O132 Si0 1.689472 1_565
O133 Si1 1.641248 1_565
O134 S0 1.514106 1_555
O135 S1 1.482666 1_555
O136 S2 1.501369 1_555
O137 S3 1.509008 1_555
O138 Si2 1.636627 1_555
O139 Si3 1.657242 1_555
O140 S4 1.505183 1_455
O141 Si4 1.676011 1_555
O142 S5 1.493103 1_555
O143 S6 1.493301 1_565
