# generated using pymatgen
data_Na21Ca4Nb8Si15(PO24)3
_symmetry_space_group_name_H-M   'P 1'
_cell_length_a   9.24526156
_cell_length_b   9.26828705
_cell_length_c   22.45695767
_cell_angle_alpha   90.09511682
_cell_angle_beta   90.11803858
_cell_angle_gamma   120.02062841
_symmetry_Int_Tables_number   1
_chemical_formula_structural   Na21Ca4Nb8Si15(PO24)3
_chemical_formula_sum   'Na21 Ca4 Nb8 Si15 P3 O72'
_cell_volume   1666.12238434
_cell_formula_units_Z   1
loop_
 _symmetry_equiv_pos_site_id
 _symmetry_equiv_pos_as_xyz
  1  'x, y, z'
loop_
 _atom_site_type_symbol
 _atom_site_label
 _atom_site_symmetry_multiplicity
 _atom_site_fract_x
 _atom_site_fract_y
 _atom_site_fract_z
 _atom_site_occupancy
  Na  Na0  1  0.64290097  0.01741016  0.23816836  1
  Na  Na1  1  0.37322964  0.35085589  0.24179905  1
  Na  Na2  1  0.98710928  0.63108661  0.23911791  1
  Na  Na3  1  0.64151009  0.62592833  0.74124382  1
  Na  Na4  1  0.97741576  0.35187606  0.74451244  1
  Na  Na5  1  0.37880565  0.02635539  0.74481228  1
  Na  Na6  1  0.31761010  0.33957577  0.58823732  1
  Na  Na7  1  0.66081034  0.97587995  0.58790079  1
  Na  Na8  1  0.32151143  0.97671033  0.08541097  1
  Na  Na9  1  0.96705553  0.68359629  0.91386254  1
  Na  Na10  1  0.71832485  0.03476027  0.90943603  1
  Na  Na11  1  0.31622589  0.27784136  0.91010590  1
  Na  Na12  1  0.96392774  0.28000351  0.41284459  1
  Na  Na13  1  0.31630145  0.03746245  0.40906873  1
  Na  Na14  1  0.71621568  0.68346078  0.41227700  1
  Na  Na15  1  0.00174016  0.99072561  0.49810466  1
  Na  Na16  1  0.99135566  0.00221578  0.99580055  1
  Na  Na17  1  0.65708352  0.32421253  0.82518173  1
  Na  Na18  1  0.65776754  0.32455968  0.32542676  1
  Na  Na19  1  0.33389692  0.65009349  0.16086865  1
  Na  Na20  1  0.31663001  0.66683111  0.66747723  1
  Ca  Ca0  1  0.00076324  0.00106200  0.35311976  1
  Ca  Ca1  1  0.00122722  0.00078562  0.85400160  1
  Ca  Ca2  1  0.66813213  0.33453362  0.67717890  1
  Ca  Ca3  1  0.66789784  0.33523952  0.17529595  1
  Nb  Nb0  1  0.99819887  0.00210934  0.64805516  1
  Nb  Nb1  1  0.00286108  0.99813325  0.14365134  1
  Nb  Nb2  1  0.66808428  0.33210155  0.98379042  1
  Nb  Nb3  1  0.66606835  0.33424611  0.48252599  1
  Nb  Nb4  1  0.33324503  0.66360436  0.02025171  1
  Nb  Nb5  1  0.33048255  0.66614856  0.51973126  1
  Nb  Nb6  1  0.33186684  0.66961980  0.31273826  1
  Nb  Nb7  1  0.33708662  0.66522239  0.81333291  1
  Si  Si0  1  0.29807071  0.99643780  0.25307526  1
  Si  Si1  1  0.29657903  0.30287273  0.75342147  1
  Si  Si2  1  0.69680188  0.99498155  0.75356659  1
  Si  Si3  1  0.96916462  0.33281179  0.58532807  1
  Si  Si4  1  0.36169994  0.03041346  0.58419053  1
  Si  Si5  1  0.67003572  0.63780357  0.58363642  1
  Si  Si6  1  0.96877540  0.63458485  0.08546605  1
  Si  Si7  1  0.66838690  0.03093877  0.08488513  1
  Si  Si8  1  0.36447858  0.33424107  0.08565528  1
  Si  Si9  1  0.61770874  0.65253136  0.91858741  1
  Si  Si10  1  0.03616602  0.38407618  0.91717146  1
  Si  Si11  1  0.34586520  0.96172397  0.91843645  1
  Si  Si12  1  0.61687553  0.96306286  0.41816664  1
  Si  Si13  1  0.34625275  0.38389651  0.41704372  1
  Si  Si14  1  0.03472037  0.65217168  0.41692028  1
  P  P0  1  0.70068756  0.70939015  0.25221535  1
  P  P1  1  0.00920098  0.29891839  0.25203235  1
  P  P2  1  0.00998639  0.71207425  0.75191946  1
  O  O0  1  0.22077633  0.01418540  0.31416429  1
  O  O1  1  0.78544764  0.77916282  0.31198336  1
  O  O2  1  0.98597257  0.21167986  0.31167992  1
  O  O3  1  0.22455643  0.20089173  0.81336997  1
  O  O4  1  0.98747632  0.77754867  0.81065366  1
  O  O5  1  0.79368065  0.01172571  0.81390677  1
  O  O6  1  0.80663413  0.97760927  0.69447586  1
  O  O7  1  0.16866476  0.19098465  0.69461918  1
  O  O8  1  0.02158934  0.83217221  0.69871772  1
  O  O9  1  0.80469248  0.82960423  0.19990427  1
  O  O10  1  0.02404891  0.19307898  0.19998779  1
  O  O11  1  0.16979419  0.97687937  0.19538469  1
  O  O12  1  0.91278142  0.36825694  0.64721093  1
  O  O13  1  0.47332001  0.08485248  0.64294175  1
  O  O14  1  0.60934373  0.52493208  0.64150300  1
  O  O15  1  0.91224228  0.54282556  0.14730399  1
  O  O16  1  0.61205652  0.08583469  0.14350729  1
  O  O17  1  0.45534145  0.36670456  0.14811305  1
  O  O18  1  0.47253162  0.30166576  0.03144064  1
  O  O19  1  0.83531605  0.52502692  0.02986087  1
  O  O20  1  0.69376541  0.16464609  0.02900410  1
  O  O21  1  0.47150644  0.16793197  0.52865608  1
  O  O22  1  0.69136949  0.52833482  0.52694946  1
  O  O23  1  0.83237781  0.30548178  0.52971726  1
  O  O24  1  0.50518649  0.66314233  0.97165655  1
  O  O25  1  0.15380027  0.49939493  0.97152567  1
  O  O26  1  0.34006312  0.84946061  0.97458683  1
  O  O27  1  0.51097252  0.84784623  0.47398635  1
  O  O28  1  0.34427338  0.49345755  0.47360772  1
  O  O29  1  0.15515400  0.65814141  0.47105428  1
  O  O30  1  0.13358409  0.63505076  0.35615763  1
  O  O31  1  0.49794713  0.86117394  0.35792767  1
  O  O32  1  0.36282096  0.49983580  0.35701951  1
  O  O33  1  0.13262418  0.49811140  0.85601280  1
  O  O34  1  0.36249621  0.86129774  0.85780893  1
  O  O35  1  0.50103869  0.63445333  0.85685424  1
  O  O36  1  0.01337805  0.81311137  0.42004678  1
  O  O37  1  0.79967656  0.98402239  0.41985389  1
  O  O38  1  0.18222940  0.20263868  0.42087200  1
  O  O39  1  0.01807875  0.20312743  0.92113199  1
  O  O40  1  0.18249996  0.98009626  0.92124088  1
  O  O41  1  0.80049338  0.81278342  0.92067128  1
  O  O42  1  0.97265581  0.15409679  0.58715660  1
  O  O43  1  0.18516979  0.03242558  0.58850451  1
  O  O44  1  0.84044838  0.82156239  0.58852537  1
  O  O45  1  0.97865226  0.82077771  0.08946661  1
  O  O46  1  0.84199047  0.02317411  0.09210758  1
  O  O47  1  0.18252713  0.15309087  0.08909074  1
  O  O48  1  0.66977221  0.15278488  0.74723676  1
  O  O49  1  0.48454579  0.33909565  0.74544603  1
  O  O50  1  0.86154776  0.53561365  0.74263230  1
  O  O51  1  0.67452778  0.53286279  0.24574497  1
  O  O52  1  0.86379567  0.33248161  0.24424164  1
  O  O53  1  0.48641011  0.15102681  0.24792934  1
  O  O54  1  0.62014733  0.47590803  0.92332139  1
  O  O55  1  0.85315738  0.37643341  0.92176933  1
  O  O56  1  0.52116098  0.14488303  0.92174477  1
  O  O57  1  0.62213490  0.14398457  0.42154401  1
  O  O58  1  0.52108609  0.37466624  0.42045980  1
  O  O59  1  0.85454432  0.47564984  0.42140002  1
  O  O60  1  0.32657623  0.48488618  0.07132347  1
  O  O61  1  0.16284412  0.68192106  0.07282009  1
  O  O62  1  0.51125010  0.84343316  0.07087587  1
  O  O63  1  0.33023486  0.84280021  0.56967815  1
  O  O64  1  0.51599572  0.67692526  0.57086662  1
  O  O65  1  0.16330711  0.48004720  0.57197032  1
  O  O66  1  0.29755654  0.81160595  0.25280914  1
  O  O67  1  0.52504838  0.70350940  0.25123613  1
  O  O68  1  0.18255667  0.47076593  0.25180734  1
  O  O69  1  0.28718376  0.48011522  0.75238350  1
  O  O70  1  0.18169694  0.71436802  0.74996220  1
  O  O71  1  0.51447272  0.81216488  0.75182707  1
loop_
_geom_bond_atom_site_label_1
_geom_bond_atom_site_label_2
_geom_bond_distance
_geom_bond_site_symmetry_2
Na0 O16 2.277161 1_555
Na0 O53 2.338405 1_555
Na0 O67 2.563142 1_545
Na0 O52 2.597472 1_555
Na0 O66 2.802310 1_545
Na0 O9 2.934494 1_545
Na0 O31 3.035098 1_545
Na1 O17 2.218177 1_555
Na1 O51 2.430946 1_555
Na1 O68 2.520780 1_555
Na1 O53 2.546269 1_555
Na1 O67 2.846755 1_555
Na2 O15 2.195789 1_555
Na2 O52 2.411803 1_555
Na2 O66 2.514208 1_655
Na2 O51 2.563619 1_555
Na2 O68 2.870563 1_655
Na2 O30 2.945961 1_655
Na2 O11 2.947798 1_655
Na3 O49 2.307223 1_555
Na3 O14 2.386093 1_555
Na3 O71 2.538436 1_555
Na3 O50 2.558080 1_555
Na3 O69 2.862645 1_555
Na4 O12 2.289383 1_555
Na4 O50 2.423782 1_555
Na4 O69 2.497390 1_655
Na4 O48 2.499577 1_555
Na5 O48 2.336134 1_555
Na5 O13 2.414411 1_555
Na5 O70 2.534720 1_545
Na5 O49 2.553820 1_555
Na5 O71 2.833850 1_545
Na6 O65 2.391958 1_555
Na6 O43 2.472962 1_555
Na6 O14 2.645800 1_555
Na6 O64 2.749708 1_555
Na6 O7 2.761723 1_555
Na6 O42 2.764131 1_455
Na6 O28 2.895609 1_555
Na6 O21 2.934471 1_555
Na7 O64 2.428693 1_555
Na7 O42 2.505187 1_565
Na7 O44 2.679725 1_555
Na7 O63 2.692706 1_555
Na7 O13 2.703526 1_565
Na7 O6 2.740608 1_555
Na7 O27 2.863888 1_555
Na7 O23 2.954412 1_565
Na8 O61 2.383694 1_555
Na8 O47 2.536172 1_565
Na8 O62 2.622743 1_555
Na8 O16 2.683891 1_565
Na8 O45 2.749983 1_455
Na8 O26 2.794420 1_554
Na8 O11 2.843102 1_555
Na8 O18 2.881073 1_565
Na9 O41 2.381942 1_555
Na9 O4 2.451510 1_555
Na9 O40 2.463065 1_655
Na9 O55 2.499567 1_555
Na9 O54 2.804199 1_555
Na9 O19 2.943449 1_556
Na10 O5 2.299285 1_555
Na10 O39 2.419212 1_655
Na10 O56 2.510701 1_555
Na10 O41 2.537368 1_545
Na10 O55 2.775691 1_555
Na11 O3 2.308391 1_555
Na11 O40 2.407496 1_545
Na11 O54 2.487287 1_555
Na11 O39 2.496451 1_555
Na11 O56 2.740797 1_555
Na12 O37 2.385414 1_545
Na12 O2 2.393766 1_555
Na12 O38 2.463128 1_655
Na12 O59 2.486407 1_555
Na12 O57 2.762253 1_555
Na12 O23 2.953296 1_555
Na13 O0 2.273514 1_555
Na13 O38 2.418500 1_555
Na13 O57 2.500112 1_555
Na13 O36 2.530878 1_545
Na13 O58 2.737161 1_555
Na14 O1 2.390343 1_555
Na14 O36 2.390865 1_655
Na14 O37 2.496293 1_555
Na14 O58 2.513181 1_555
Na14 O59 2.802170 1_555
Na14 O22 2.904442 1_555
Na15 O36 2.441868 1_555
Na15 O38 2.528640 1_565
Na15 O37 2.540032 1_455
Na15 O43 2.544406 1_565
Na15 O44 2.547284 1_455
Na15 O42 2.600755 1_465
Na16 O39 2.427338 1_655
Na16 O41 2.433246 1_545
Na16 O40 2.518348 1_645
Na16 O46 2.627077 1_556
Na16 O47 2.640127 1_656
Na16 O45 2.661071 1_546
Na17 O48 2.404208 1_555
Na17 O49 2.445220 1_555
Na17 O56 2.641467 1_555
Na17 O50 2.677559 1_555
Na17 O55 2.706948 1_555
Na17 O54 2.724667 1_555
Na18 O53 2.356948 1_555
Na18 O51 2.581964 1_555
Na18 O52 2.613878 1_555
Na18 O58 2.638586 1_555
Na18 O57 2.651772 1_555
Na18 O59 2.709332 1_555
Na19 O60 2.505675 1_555
Na19 O68 2.566481 1_555
Na19 O67 2.567695 1_555
Na19 O61 2.636949 1_555
Na19 O62 2.658854 1_555
Na19 O66 2.666940 1_555
Na20 O70 2.395491 1_555
Na20 O69 2.499239 1_555
Na20 O71 2.502018 1_555
Na20 O65 2.669473 1_555
Na20 O63 2.703169 1_555
Na20 O64 2.820953 1_555
Ca0 O0 2.162800 1_555
Ca0 O1 2.221562 1_445
Ca0 O2 2.228881 1_455
Ca0 O37 2.333583 1_445
Ca0 O38 2.337477 1_555
Ca0 O36 2.349106 1_545
Ca1 O5 2.165816 1_455
Ca1 O3 2.171881 1_555
Ca1 O4 2.230304 1_445
Ca1 O40 2.331872 1_545
Ca1 O41 2.346544 1_445
Ca1 O39 2.347602 1_555
Ca2 O12 2.228482 1_555
Ca2 O13 2.237870 1_555
Ca2 O14 2.239186 1_555
Ca2 O49 2.305484 1_555
Ca2 O48 2.312414 1_555
Ca2 O50 2.340262 1_555
Ca3 O15 2.204739 1_555
Ca3 O17 2.211008 1_555
Ca3 O16 2.217728 1_555
Ca3 O53 2.354764 1_555
Ca3 O52 2.390188 1_555
Ca3 O51 2.395665 1_555
Nb0 O7 1.966776 1_655
Nb0 O6 1.970014 1_545
Nb0 O8 2.041481 1_645
Nb0 O42 2.061153 1_555
Nb0 O44 2.063226 1_545
Nb0 O43 2.092893 1_655
Nb1 O45 1.963893 1_455
Nb1 O46 1.986186 1_465
Nb1 O47 1.987506 1_565
Nb1 O11 2.016929 1_555
Nb1 O10 2.130909 1_565
Nb1 O9 2.131868 1_455
Nb2 O20 1.966997 1_556
Nb2 O19 1.969535 1_556
Nb2 O18 1.997982 1_556
Nb2 O55 2.084385 1_555
Nb2 O54 2.100359 1_555
Nb2 O56 2.103130 1_555
Nb3 O22 1.964159 1_555
Nb3 O21 1.980748 1_555
Nb3 O23 1.990657 1_555
Nb3 O59 2.090209 1_555
Nb3 O58 2.091946 1_555
Nb3 O57 2.103092 1_555
Nb4 O25 1.930410 1_554
Nb4 O24 1.931803 1_554
Nb4 O26 1.979984 1_554
Nb4 O60 1.991815 1_555
Nb4 O62 2.005017 1_555
Nb4 O61 2.044251 1_555
Nb5 O29 1.923544 1_555
Nb5 O28 1.962173 1_555
Nb5 O27 1.968937 1_555
Nb5 O63 1.984035 1_555
Nb5 O65 2.021578 1_555
Nb5 O64 2.022471 1_555
Nb6 O31 1.949187 1_555
Nb6 O30 1.958223 1_555
Nb6 O32 2.000412 1_555
Nb6 O66 2.016298 1_555
Nb6 O68 2.147727 1_555
Nb6 O67 2.155540 1_555
Nb7 O35 1.939458 1_555
Nb7 O34 1.980183 1_555
Nb7 O33 1.993387 1_555
Nb7 O69 2.056029 1_555
Nb7 O71 2.057381 1_555
Nb7 O70 2.223760 1_555
O0 Si0 1.593947 1_545
O1 P0 1.522990 1_555
O2 P1 1.524853 1_655
O3 Si1 1.589760 1_555
O4 P2 1.508688 1_655
O5 Si2 1.586727 1_545
O6 Si2 1.728115 1_555
O7 Si1 1.726150 1_555
O8 P2 1.601060 1_555
O9 P0 1.575754 1_555
O10 P1 1.574392 1_555
O11 Si0 1.701639 1_555
O12 Si3 1.575990 1_555
O13 Si4 1.591048 1_555
O14 Si5 1.586853 1_555
O15 Si6 1.577037 1_555
O16 Si7 1.590263 1_555
O17 Si8 1.582519 1_555
O18 Si8 1.696171 1_555
O19 Si6 1.687773 1_555
O20 Si7 1.697355 1_555
O21 Si4 1.710622 1_555
O22 Si5 1.698778 1_555
O23 Si3 1.701466 1_555
O24 Si9 1.618426 1_555
O25 Si10 1.625471 1_555
O26 Si11 1.619975 1_555
O27 Si12 1.622848 1_555
O28 Si13 1.630771 1_555
O29 Si14 1.628882 1_555
O30 Si14 1.694740 1_555
O31 Si12 1.697472 1_555
O32 Si13 1.684072 1_555
O33 Si10 1.692752 1_555
O34 Si11 1.698104 1_555
O35 Si9 1.710471 1_555
O36 Si14 1.600954 1_555
O37 Si12 1.602067 1_555
O38 Si13 1.606579 1_555
O39 Si10 1.602630 1_555
O40 Si11 1.603693 1_555
O41 Si9 1.597459 1_555
O42 Si3 1.673334 1_555
O43 Si4 1.644530 1_555
O44 Si5 1.645792 1_555
O45 Si6 1.684098 1_555
O46 Si7 1.649875 1_555
O47 Si8 1.682106 1_555
O48 Si2 1.608732 1_545
O49 Si1 1.606997 1_555
O50 P2 1.534110 1_655
O51 P0 1.536089 1_555
O52 P1 1.533688 1_655
O53 Si0 1.613427 1_545
O54 Si9 1.651988 1_555
O55 Si10 1.661095 1_655
O56 Si11 1.661319 1_545
O57 Si12 1.654650 1_545
O58 Si13 1.662457 1_555
O59 Si14 1.654038 1_655
O60 Si8 1.632914 1_555
O61 Si6 1.645356 1_455
O62 Si7 1.643071 1_565
O63 Si4 1.645000 1_565
O64 Si5 1.660497 1_555
O65 Si3 1.651220 1_455
O66 Si0 1.710702 1_555
O67 P0 1.597362 1_555
O68 P1 1.597278 1_555
O69 Si1 1.688065 1_555
O70 P2 1.577685 1_555
O71 Si2 1.689835 1_555
