# generated using pymatgen
data_EuNi5
_symmetry_space_group_name_H-M   'P 1'
_cell_length_a   4.93733917
_cell_length_b   4.93728068
_cell_length_c   3.89552188
_cell_angle_alpha   90.00000000
_cell_angle_beta   90.00000000
_cell_angle_gamma   119.99652190
_symmetry_Int_Tables_number   1
_chemical_formula_structural   EuNi5
_chemical_formula_sum   'Eu1 Ni5'
_cell_volume   82.24173788
_cell_formula_units_Z   1
loop_
 _symmetry_equiv_pos_site_id
 _symmetry_equiv_pos_as_xyz
  1  'x, y, z'
loop_
 _atom_site_type_symbol
 _atom_site_label
 _atom_site_symmetry_multiplicity
 _atom_site_fract_x
 _atom_site_fract_y
 _atom_site_fract_z
 _atom_site_occupancy
  Eu  Eu0  1  -0.00000000  -0.00000000  0.00000000  1
  Ni  Ni0  1  -0.00000000  0.50000000  0.50000000  1
  Ni  Ni1  1  0.33334096  0.66668826  -0.00000000  1
  Ni  Ni2  1  0.66665904  0.33331174  -0.00000000  1
  Ni  Ni3  1  0.50000000  -0.00000000  0.50000000  1
  Ni  Ni4  1  0.50000000  0.50000000  0.50000000  1
loop_
_geom_bond_atom_site_label_1
_geom_bond_atom_site_label_2
_geom_bond_distance
_geom_bond_site_symmetry_2
Eu0 Ni2 2.850448 1_455
Eu0 Ni1 2.850448 1_545
Eu0 Ni1 2.850641 1_445
Eu0 Ni2 2.850641 1_555
Eu0 Ni2 2.850733 1_445
Eu0 Ni1 2.850733 1_555
Eu0 Ni0 3.144512 1_555
Eu0 Ni0 3.144512 1_545
Eu0 Ni0 3.144512 1_554
Eu0 Ni0 3.144512 1_544
Eu0 Ni3 3.144535 1_554
Eu0 Ni3 3.144535 1_455
Eu0 Ni3 3.144535 1_454
Eu0 Ni3 3.144535 1_555
Eu0 Ni4 3.144626 1_445
Eu0 Ni4 3.144626 1_444
Eu0 Ni4 3.144626 1_555
Eu0 Ni4 3.144626 1_554
Ni0 Ni1 2.413597 1_556
Ni0 Ni1 2.413597 1_555
Ni0 Ni2 2.413597 1_456
Ni0 Ni2 2.413597 1_455
Ni0 Ni4 2.468670 1_555
Ni0 Ni4 2.468670 1_455
Ni0 Ni3 2.468785 1_565
Ni0 Ni3 2.468785 1_455
Ni1 Ni3 2.413513 1_565
Ni1 Ni3 2.413513 1_564
Ni1 Ni4 2.413564 1_554
Ni1 Ni4 2.413564 1_555
Ni1 Ni2 2.850456 1_565
Ni1 Ni2 2.850627 1_555
Ni1 Ni2 2.850739 1_455
Ni2 Ni3 2.413513 1_555
Ni2 Ni3 2.413513 1_554
Ni2 Ni4 2.413564 1_554
Ni2 Ni4 2.413564 1_555
Ni3 Ni4 2.468640 1_555
Ni3 Ni4 2.468640 1_545
