# generated using pymatgen
data_Na3ScNbSi2PO12
_symmetry_space_group_name_H-M   'P 1'
_cell_length_a   9.10148336
_cell_length_b   9.10148305
_cell_length_c   22.66119637
_cell_angle_alpha   89.87401999
_cell_angle_beta   90.12598001
_cell_angle_gamma   119.90071690
_symmetry_Int_Tables_number   1
_chemical_formula_structural   Na3ScNbSi2PO12
_chemical_formula_sum   'Na18 Sc6 Nb6 Si12 P6 O72'
_cell_volume   1627.30900059
_cell_formula_units_Z   6
loop_
 _symmetry_equiv_pos_site_id
 _symmetry_equiv_pos_as_xyz
  1  'x, y, z'
loop_
 _atom_site_type_symbol
 _atom_site_label
 _atom_site_symmetry_multiplicity
 _atom_site_fract_x
 _atom_site_fract_y
 _atom_site_fract_z
 _atom_site_occupancy
  Na  Na0  1  0.99643833  0.99471772  0.49578185  1
  Na  Na1  1  0.00528228  0.00356167  0.99578185  1
  Na  Na2  1  0.66310533  0.32805072  0.82911485  1
  Na  Na3  1  0.67194928  0.33689467  0.32911485  1
  Na  Na4  1  0.32977133  0.66138472  0.16244885  1
  Na  Na5  1  0.33861528  0.67022867  0.66244885  1
  Na  Na6  1  0.64496942  0.01085300  0.24969021  1
  Na  Na7  1  0.98826402  0.62593472  0.24853677  1
  Na  Na8  1  0.98914700  0.35503058  0.74969021  1
  Na  Na9  1  0.37406528  0.01173598  0.74853677  1
  Na  Na10  1  0.31163642  0.34418600  0.58302321  1
  Na  Na11  1  0.65493102  0.95926772  0.58186977  1
  Na  Na12  1  0.65581400  0.68836358  0.08302321  1
  Na  Na13  1  0.04073228  0.34506898  0.08186977  1
  Na  Na14  1  0.97830242  0.67752000  0.91635721  1
  Na  Na15  1  0.32159702  0.29260172  0.91520377  1
  Na  Na16  1  0.32248000  0.02169758  0.41635721  1
  Na  Na17  1  0.70739828  0.67840298  0.41520377  1
  Sc  Sc0  1  0.99283470  0.00163949  0.35219798  1
  Sc  Sc1  1  0.99836051  0.00716530  0.85219798  1
  Sc  Sc2  1  0.65950170  0.33497249  0.68553098  1
  Sc  Sc3  1  0.66502751  0.34049830  0.18553098  1
  Sc  Sc4  1  0.32616770  0.66830649  0.01886498  1
  Sc  Sc5  1  0.33169351  0.67383230  0.51886498  1
  Nb  Nb0  1  0.99710602  0.99393214  0.64732130  1
  Nb  Nb1  1  0.00606786  0.00289398  0.14732130  1
  Nb  Nb2  1  0.66377302  0.32726514  0.98065430  1
  Nb  Nb3  1  0.67273486  0.33622698  0.48065430  1
  Nb  Nb4  1  0.33043902  0.66059914  0.31398830  1
  Nb  Nb5  1  0.33940086  0.66956098  0.81398830  1
  Si  Si0  1  0.70579970  0.70672247  0.25149123  1
  Si  Si1  1  0.00149472  0.29321123  0.25024704  1
  Si  Si2  1  0.29327753  0.29420030  0.75149123  1
  Si  Si3  1  0.70678877  0.99850528  0.75024704  1
  Si  Si4  1  0.37246670  0.04005547  0.58482423  1
  Si  Si5  1  0.66816172  0.62654423  0.58358004  1
  Si  Si6  1  0.95994453  0.62753330  0.08482423  1
  Si  Si7  1  0.37345577  0.33183828  0.08358004  1
  Si  Si8  1  0.03913270  0.37338947  0.91815823  1
  Si  Si9  1  0.33482772  0.95987823  0.91691404  1
  Si  Si10  1  0.62661053  0.96086730  0.41815823  1
  Si  Si11  1  0.04012177  0.66517228  0.41691404  1
  P  P0  1  0.29179631  0.99938464  0.25243819  1
  P  P1  1  0.00061536  0.70820369  0.75243819  1
  P  P2  1  0.95846331  0.33271764  0.58577119  1
  P  P3  1  0.66728236  0.04153669  0.08577119  1
  P  P4  1  0.62512931  0.66605164  0.91910519  1
  P  P5  1  0.33394836  0.37487069  0.41910519  1
  O  O0  1  0.21328691  0.02108730  0.30822792  1
  O  O1  1  0.82164252  0.79174614  0.30902289  1
  O  O2  1  0.97125581  0.17099100  0.30490771  1
  O  O3  1  0.20825386  0.17835748  0.80902289  1
  O  O4  1  0.97891270  0.78671309  0.80822792  1
  O  O5  1  0.82900900  0.02874419  0.80490771  1
  O  O6  1  0.80015457  0.97066374  0.69021995  1
  O  O7  1  0.16432415  0.19664184  0.69278830  1
  O  O8  1  0.02723938  0.82949702  0.69761950  1
  O  O9  1  0.80335816  0.83567585  0.19278830  1
  O  O10  1  0.02933626  0.19984543  0.19021995  1
  O  O11  1  0.17050298  0.97276062  0.19761950  1
  O  O12  1  0.87995391  0.35442030  0.64156092  1
  O  O13  1  0.48830952  0.12507914  0.64235589  1
  O  O14  1  0.63792281  0.50432400  0.63824071  1
  O  O15  1  0.87492086  0.51169048  0.14235589  1
  O  O16  1  0.64557970  0.12004609  0.14156092  1
  O  O17  1  0.49567600  0.36207719  0.13824071  1
  O  O18  1  0.46682157  0.30399674  0.02355295  1
  O  O19  1  0.83099115  0.52997484  0.02612130  1
  O  O20  1  0.69390638  0.16283002  0.03095250  1
  O  O21  1  0.47002516  0.16900885  0.52612130  1
  O  O22  1  0.69600326  0.53317843  0.52355295  1
  O  O23  1  0.83716998  0.30609362  0.53095250  1
  O  O24  1  0.54661991  0.68775430  0.97489492  1
  O  O25  1  0.15497552  0.45841314  0.97568989  1
  O  O26  1  0.30458881  0.83765800  0.97157471  1
  O  O27  1  0.54158686  0.84502448  0.47568989  1
  O  O28  1  0.31224570  0.45338009  0.47489492  1
  O  O29  1  0.16234200  0.69541119  0.47157471  1
  O  O30  1  0.13348757  0.63733074  0.35688695  1
  O  O31  1  0.49765715  0.86330884  0.35945530  1
  O  O32  1  0.36057238  0.49616402  0.36428650  1
  O  O33  1  0.13669116  0.50234285  0.85945530  1
  O  O34  1  0.36266926  0.86651243  0.85688695  1
  O  O35  1  0.50383598  0.63942762  0.86428650  1
  O  O36  1  0.01945378  0.83156468  0.41122222  1
  O  O37  1  0.81062797  0.97737800  0.41176841  1
  O  O38  1  0.18872420  0.19426945  0.41048968  1
  O  O39  1  0.02262200  0.18937203  0.91176841  1
  O  O40  1  0.16843532  0.98054622  0.91122222  1
  O  O41  1  0.80573055  0.81127580  0.91048968  1
  O  O42  1  0.96399597  0.16148132  0.58721890  1
  O  O43  1  0.18787821  0.03677126  0.58977141  1
  O  O44  1  0.83968836  0.81848788  0.58903854  1
  O  O45  1  0.96322874  0.81212179  0.08977141  1
  O  O46  1  0.83851868  0.03600403  0.08721890  1
  O  O47  1  0.18151212  0.16031164  0.08903854  1
  O  O48  1  0.68612078  0.16489768  0.74455522  1
  O  O49  1  0.47729497  0.31071100  0.74510141  1
  O  O50  1  0.85539120  0.52760245  0.74382268  1
  O  O51  1  0.68928900  0.52270503  0.24510141  1
  O  O52  1  0.83510232  0.31387922  0.24455522  1
  O  O53  1  0.47239755  0.14460880  0.24382268  1
  O  O54  1  0.63066297  0.49481432  0.92055190  1
  O  O55  1  0.85454521  0.37010426  0.92310441  1
  O  O56  1  0.50635536  0.15182088  0.92237154  1
  O  O57  1  0.62989574  0.14545479  0.42310441  1
  O  O58  1  0.50518568  0.36933703  0.42055190  1
  O  O59  1  0.84817912  0.49364464  0.42237154  1
  O  O60  1  0.35278678  0.49823168  0.07788922  1
  O  O61  1  0.14396097  0.64404500  0.07843541  1
  O  O62  1  0.52205720  0.86093645  0.07715668  1
  O  O63  1  0.35595500  0.85603903  0.57843541  1
  O  O64  1  0.50176832  0.64721322  0.57788922  1
  O  O65  1  0.13906355  0.47794280  0.57715668  1
  O  O66  1  0.29732897  0.82814832  0.25388590  1
  O  O67  1  0.52121121  0.70343826  0.25643841  1
  O  O68  1  0.17302136  0.48515488  0.25570554  1
  O  O69  1  0.29656174  0.47878879  0.75643841  1
  O  O70  1  0.17185168  0.70267103  0.75388590  1
  O  O71  1  0.51484512  0.82697864  0.75570554  1
loop_
_geom_bond_atom_site_label_1
_geom_bond_atom_site_label_2
_geom_bond_distance
_geom_bond_site_symmetry_2
Na0 O37 2.496115 1_555
Na0 O36 2.499044 1_655
Na0 O44 2.605959 1_555
Na0 O38 2.632052 1_665
Na0 O43 2.653549 1_665
Na0 O42 2.673522 1_565
Na1 O39 2.496115 1_555
Na1 O40 2.499044 1_545
Na1 O47 2.605959 1_556
Na1 O41 2.632052 1_445
Na1 O45 2.653549 1_446
Na1 O46 2.673522 1_456
Na2 O49 2.496115 1_555
Na2 O48 2.499044 1_555
Na2 O56 2.605959 1_555
Na2 O50 2.632052 1_555
Na2 O55 2.653549 1_555
Na2 O54 2.673522 1_555
Na3 O51 2.496115 1_555
Na3 O52 2.499044 1_555
Na3 O59 2.605959 1_555
Na3 O53 2.632052 1_555
Na3 O57 2.653549 1_555
Na3 O58 2.673522 1_555
Na4 O61 2.496115 1_555
Na4 O60 2.499044 1_555
Na4 O68 2.605959 1_555
Na4 O62 2.632052 1_555
Na4 O67 2.653549 1_555
Na4 O66 2.673522 1_555
Na5 O63 2.496115 1_555
Na5 O64 2.499044 1_555
Na5 O71 2.605959 1_555
Na5 O65 2.632052 1_555
Na5 O69 2.653549 1_555
Na5 O70 2.673522 1_555
Na6 O52 2.419870 1_555
Na6 O53 2.423091 1_555
Na6 O67 2.444859 1_545
Na6 O16 2.641158 1_555
Na6 O66 2.745976 1_545
Na6 O31 2.827199 1_545
Na6 O2 2.861024 1_555
Na6 O9 2.931141 1_545
Na7 O51 2.396609 1_555
Na7 O52 2.463980 1_555
Na7 O66 2.480436 1_655
Na7 O68 2.577171 1_655
Na7 O15 2.620257 1_555
Na7 O30 2.763452 1_655
Na7 O1 2.959055 1_555
Na7 O11 2.969709 1_655
Na8 O48 2.419870 1_555
Na8 O50 2.423091 1_555
Na8 O69 2.444859 1_655
Na8 O12 2.641158 1_555
Na8 O70 2.745976 1_655
Na8 O33 2.827199 1_655
Na8 O5 2.861024 1_555
Na8 O7 2.931141 1_655
Na9 O49 2.396609 1_555
Na9 O48 2.463980 1_555
Na9 O70 2.480436 1_545
Na9 O71 2.577171 1_545
Na9 O13 2.620257 1_555
Na9 O34 2.763452 1_545
Na9 O3 2.959055 1_555
Na9 O8 2.969709 1_545
Na10 O64 2.419875 1_555
Na10 O65 2.423105 1_555
Na10 O43 2.444859 1_555
Na10 O28 2.641142 1_555
Na10 O42 2.745976 1_455
Na10 O7 2.827199 1_555
Na10 O14 2.861024 1_555
Na10 O21 2.931141 1_555
Na11 O63 2.396619 1_555
Na11 O64 2.463971 1_555
Na11 O42 2.480436 1_565
Na11 O44 2.577171 1_555
Na11 O27 2.620236 1_555
Na11 O6 2.763452 1_555
Na11 O13 2.959055 1_565
Na11 O23 2.969709 1_565
Na12 O60 2.419875 1_555
Na12 O62 2.423105 1_555
Na12 O45 2.444859 1_555
Na12 O24 2.641142 1_554
Na12 O46 2.745976 1_565
Na12 O9 2.827199 1_555
Na12 O17 2.861024 1_555
Na12 O19 2.931141 1_555
Na13 O61 2.396619 1_555
Na13 O60 2.463972 1_555
Na13 O46 2.480436 1_455
Na13 O47 2.577171 1_555
Na13 O25 2.620236 1_554
Na13 O10 2.763452 1_555
Na13 O15 2.959055 1_455
Na13 O20 2.969709 1_455
Na14 O40 2.419870 1_655
Na14 O41 2.423091 1_555
Na14 O55 2.444867 1_555
Na14 O4 2.641158 1_555
Na14 O54 2.745968 1_555
Na14 O19 2.827179 1_556
Na14 O26 2.861024 1_655
Na14 O33 2.931141 1_655
Na15 O39 2.396609 1_555
Na15 O40 2.463980 1_545
Na15 O54 2.480440 1_555
Na15 O56 2.577185 1_555
Na15 O3 2.620257 1_555
Na15 O18 2.763438 1_556
Na15 O25 2.959055 1_555
Na15 O35 2.969709 1_555
Na16 O36 2.419870 1_545
Na16 O38 2.423091 1_555
Na16 O57 2.444867 1_555
Na16 O0 2.641158 1_555
Na16 O58 2.745968 1_555
Na16 O21 2.827179 1_555
Na16 O29 2.861024 1_545
Na16 O31 2.931141 1_545
Na17 O37 2.396609 1_555
Na17 O36 2.463980 1_655
Na17 O58 2.480440 1_555
Na17 O59 2.577185 1_555
Na17 O1 2.620257 1_555
Na17 O22 2.763438 1_555
Na17 O27 2.959055 1_555
Na17 O32 2.969709 1_555
Nb0 O6 1.957399 1_555
Nb0 O7 1.995930 1_665
Nb0 O8 2.003639 1_655
Nb0 O44 2.016664 1_555
Nb0 O43 2.049480 1_665
Nb0 O42 2.172216 1_565
Nb1 O10 1.957398 1_555
Nb1 O9 1.995930 1_445
Nb1 O11 2.003639 1_545
Nb1 O47 2.016664 1_555
Nb1 O45 2.049480 1_445
Nb1 O46 2.172216 1_455
Nb2 O18 1.957399 1_556
Nb2 O19 1.995930 1_556
Nb2 O20 2.003639 1_556
Nb2 O56 2.016664 1_555
Nb2 O55 2.049480 1_555
Nb2 O54 2.172216 1_555
Nb3 O22 1.957398 1_555
Nb3 O21 1.995930 1_555
Nb3 O23 2.003639 1_555
Nb3 O59 2.016664 1_555
Nb3 O57 2.049480 1_555
Nb3 O58 2.172216 1_555
Nb4 O30 1.957399 1_555
Nb4 O31 1.995930 1_555
Nb4 O32 2.003639 1_555
Nb4 O68 2.016664 1_555
Nb4 O67 2.049480 1_555
Nb4 O66 2.172216 1_555
Nb5 O34 1.957398 1_555
Nb5 O33 1.995930 1_555
Nb5 O35 2.003639 1_555
Nb5 O71 2.016664 1_555
Nb5 O69 2.049480 1_555
Nb5 O70 2.172216 1_555
O0 P0 1.514513 1_545
O0 Sc0 2.168851 1_455
O1 Si0 1.610945 1_555
O1 Sc0 2.017002 1_565
O2 Si1 1.593008 1_655
O2 Sc0 1.963771 1_555
O3 Si2 1.610945 1_555
O3 Sc1 2.017002 1_455
O4 P1 1.514513 1_655
O4 Sc1 2.168851 1_565
O5 Si3 1.593008 1_545
O5 Sc1 1.963771 1_555
O6 Si3 1.690555 1_555
O7 Si2 1.701434 1_555
O8 P1 1.596626 1_555
O9 Si0 1.701434 1_555
O10 Si1 1.690555 1_555
O11 P0 1.596626 1_555
O12 P2 1.514513 1_555
O12 Sc2 2.168851 1_555
O13 Si4 1.610945 1_555
O13 Sc2 2.017002 1_555
O14 Si5 1.593008 1_555
O14 Sc2 1.963771 1_555
O15 Si6 1.610945 1_555
O15 Sc3 2.017002 1_555
O16 P3 1.514513 1_555
O16 Sc3 2.168851 1_555
O17 Si7 1.593008 1_555
O17 Sc3 1.963771 1_555
O18 Si7 1.690555 1_555
O19 Si6 1.701434 1_555
O20 P3 1.596626 1_555
O21 Si4 1.701434 1_555
O22 Si5 1.690555 1_555
O23 P2 1.596626 1_555
O24 P4 1.514513 1_555
O24 Sc4 2.168851 1_556
O25 Si8 1.610945 1_555
O25 Sc4 2.017002 1_556
O26 Si9 1.593008 1_555
O26 Sc4 1.963771 1_556
O27 Si10 1.610945 1_555
O27 Sc5 2.017002 1_555
O28 P5 1.514513 1_555
O28 Sc5 2.168851 1_555
O29 Si11 1.593008 1_555
O29 Sc5 1.963771 1_555
O30 Si11 1.690555 1_555
O31 Si10 1.701434 1_555
O32 P5 1.596626 1_555
O33 Si8 1.701434 1_555
O34 Si9 1.690555 1_555
O35 P4 1.596626 1_555
O36 Si11 1.621277 1_555
O36 Sc0 2.146445 1_465
O37 Si10 1.612035 1_555
O37 Sc0 2.065106 1_565
O38 P5 1.523553 1_555
O38 Sc0 2.209257 1_455
O39 Si8 1.612035 1_555
O39 Sc1 2.065106 1_455
O40 Si9 1.621277 1_555
O40 Sc1 2.146445 1_465
O41 P4 1.523553 1_555
O41 Sc1 2.209257 1_565
O42 P2 1.584475 1_555
O43 Si4 1.669343 1_555
O44 Si5 1.668952 1_555
O45 Si6 1.669343 1_555
O46 P3 1.584475 1_555
O47 Si7 1.668952 1_555
O48 Si3 1.621277 1_545
O48 Sc2 2.146445 1_555
O49 Si2 1.612035 1_555
O49 Sc2 2.065106 1_555
O50 P1 1.523553 1_655
O50 Sc2 2.209257 1_555
O51 Si0 1.612035 1_555
O51 Sc3 2.065106 1_555
O52 Si1 1.621277 1_655
O52 Sc3 2.146445 1_555
O53 P0 1.523553 1_545
O53 Sc3 2.209257 1_555
O54 P4 1.584488 1_555
O55 Si8 1.669328 1_655
O56 Si9 1.668949 1_545
O57 Si10 1.669328 1_545
O58 P5 1.584488 1_555
O59 Si11 1.668949 1_655
O60 Si7 1.621289 1_555
O60 Sc4 2.146445 1_555
O61 Si6 1.612020 1_455
O61 Sc4 2.065106 1_555
O62 P3 1.523547 1_565
O62 Sc4 2.209257 1_555
O63 Si4 1.612020 1_565
O63 Sc5 2.065106 1_555
O64 Si5 1.621289 1_555
O64 Sc5 2.146445 1_555
O65 P2 1.523547 1_455
O65 Sc5 2.209257 1_555
O66 P0 1.584475 1_555
O67 Si0 1.669343 1_555
O68 Si1 1.668952 1_555
O69 Si2 1.669343 1_555
O70 P1 1.584475 1_555
O71 Si3 1.668952 1_555
