# generated using pymatgen
data_Na2HfZn3(SO4)6
_symmetry_space_group_name_H-M   'P 1'
_cell_length_a   8.70306335
_cell_length_b   8.70306307
_cell_length_c   22.93240810
_cell_angle_alpha   90.00000000
_cell_angle_beta   90.00000000
_cell_angle_gamma   120.00000109
_symmetry_Int_Tables_number   1
_chemical_formula_structural   Na2HfZn3(SO4)6
_chemical_formula_sum   'Na6 Hf3 Zn9 S18 O72'
_cell_volume   1504.26574012
_cell_formula_units_Z   3
loop_
 _symmetry_equiv_pos_site_id
 _symmetry_equiv_pos_as_xyz
  1  'x, y, z'
loop_
 _atom_site_type_symbol
 _atom_site_label
 _atom_site_symmetry_multiplicity
 _atom_site_fract_x
 _atom_site_fract_y
 _atom_site_fract_z
 _atom_site_occupancy
  Na  Na0  1  -0.00000000  -0.00000000  0.51075257  1
  Na  Na1  1  -0.00000000  -0.00000000  0.00870786  1
  Na  Na2  1  0.66666700  0.33333300  0.82584197  1
  Na  Na3  1  0.66666700  0.33333300  0.33821835  1
  Na  Na4  1  0.33333300  0.66666700  0.18036647  1
  Na  Na5  1  0.33333300  0.66666700  0.65796213  1
  Hf  Hf0  1  -0.00000000  -0.00000000  0.35282942  1
  Hf  Hf1  1  -0.00000000  -0.00000000  0.84974076  1
  Hf  Hf2  1  0.33333300  0.66666700  0.02019034  1
  Zn  Zn0  1  -0.00000000  -0.00000000  0.64619731  1
  Zn  Zn1  1  -0.00000000  -0.00000000  0.15486584  1
  Zn  Zn2  1  0.66666700  0.33333300  0.67370725  1
  Zn  Zn3  1  0.66666700  0.33333300  0.18679215  1
  Zn  Zn4  1  0.66666700  0.33333300  0.98687162  1
  Zn  Zn5  1  0.66666700  0.33333300  0.48940915  1
  Zn  Zn6  1  0.33333300  0.66666700  0.51843312  1
  Zn  Zn7  1  0.33333300  0.66666700  0.32147582  1
  Zn  Zn8  1  0.33333300  0.66666700  0.81221216  1
  S  S0  1  0.29727510  0.99831623  0.24812292  1
  S  S1  1  0.70104113  0.70272490  0.24812292  1
  S  S2  1  0.00168377  0.29895887  0.24812292  1
  S  S3  1  0.29809682  0.29738035  0.74845306  1
  S  S4  1  0.99928353  0.70190318  0.74845306  1
  S  S5  1  0.70261965  0.00071647  0.74845306  1
  S  S6  1  0.96590520  0.33486986  0.58342661  1
  S  S7  1  0.36896566  0.03409480  0.58342661  1
  S  S8  1  0.66513014  0.63103434  0.58342661  1
  S  S9  1  0.95649216  0.62956953  0.08315880  1
  S  S10  1  0.67307837  0.04350784  0.08315880  1
  S  S11  1  0.37043047  0.32692163  0.08315880  1
  S  S12  1  0.62546669  0.66192373  0.91544788  1
  S  S13  1  0.03645604  0.37453331  0.91544788  1
  S  S14  1  0.33807627  0.96354396  0.91544788  1
  S  S15  1  0.62352722  0.96356828  0.41627423  1
  S  S16  1  0.34004006  0.37647278  0.41627423  1
  S  S17  1  0.03643172  0.65995994  0.41627423  1
  O  O0  1  0.19935142  0.01436129  0.30005275  1
  O  O1  1  0.81500987  0.80064858  0.30005275  1
  O  O2  1  0.98563871  0.18499013  0.30005275  1
  O  O3  1  0.20261865  0.18571686  0.80376104  1
  O  O4  1  0.98309821  0.79738135  0.80376104  1
  O  O5  1  0.81428314  0.01690179  0.80376104  1
  O  O6  1  0.79012163  0.98011257  0.69743078  1
  O  O7  1  0.18999094  0.20987837  0.69743078  1
  O  O8  1  0.01988743  0.81000906  0.69743078  1
  O  O9  1  0.78114785  0.80538905  0.19426763  1
  O  O10  1  0.02424120  0.21885215  0.19426763  1
  O  O11  1  0.19461095  0.97575880  0.19426763  1
  O  O12  1  0.88621436  0.35800885  0.63789775  1
  O  O13  1  0.47179550  0.11378564  0.63789775  1
  O  O14  1  0.64199115  0.52820450  0.63789775  1
  O  O15  1  0.88059950  0.52058451  0.13506881  1
  O  O16  1  0.63998601  0.11940050  0.13506881  1
  O  O17  1  0.47941549  0.36001399  0.13506881  1
  O  O18  1  0.44946930  0.30542337  0.02894788  1
  O  O19  1  0.85595507  0.55053070  0.02894788  1
  O  O20  1  0.69457663  0.14404493  0.02894788  1
  O  O21  1  0.45320158  0.14117963  0.53077736  1
  O  O22  1  0.68797905  0.54679842  0.53077736  1
  O  O23  1  0.85882037  0.31202095  0.53077736  1
  O  O24  1  0.53899385  0.68730735  0.96879827  1
  O  O25  1  0.14831250  0.46100615  0.96879827  1
  O  O26  1  0.31269265  0.85168750  0.96879827  1
  O  O27  1  0.54806137  0.85392025  0.46808135  1
  O  O28  1  0.30585788  0.45193863  0.46808135  1
  O  O29  1  0.14607975  0.69414212  0.46808135  1
  O  O30  1  0.11534306  0.63821958  0.36207548  1
  O  O31  1  0.52287552  0.88465694  0.36207548  1
  O  O32  1  0.36178042  0.47712448  0.36207548  1
  O  O33  1  0.12168876  0.47779681  0.86337130  1
  O  O34  1  0.35610705  0.87831124  0.86337130  1
  O  O35  1  0.52220319  0.64389295  0.86337130  1
  O  O36  1  0.01842947  0.82603472  0.40824649  1
  O  O37  1  0.80760525  0.98157053  0.40824649  1
  O  O38  1  0.17396528  0.19239475  0.40824649  1
  O  O39  1  0.02496549  0.19557174  0.91292553  1
  O  O40  1  0.17060625  0.97503451  0.91292553  1
  O  O41  1  0.80442826  0.82939375  0.91292553  1
  O  O42  1  0.98240048  0.17266519  0.58729341  1
  O  O43  1  0.19026471  0.01759952  0.58729341  1
  O  O44  1  0.82733481  0.80973529  0.58729341  1
  O  O45  1  0.98364180  0.81032168  0.08837263  1
  O  O46  1  0.82667987  0.01635820  0.08837263  1
  O  O47  1  0.18967832  0.17332013  0.08837263  1
  O  O48  1  0.69156641  0.16363619  0.74797591  1
  O  O49  1  0.47207078  0.30843359  0.74797591  1
  O  O50  1  0.83636381  0.52792922  0.74797591  1
  O  O51  1  0.69297232  0.52895175  0.24737016  1
  O  O52  1  0.83598043  0.30702768  0.24737016  1
  O  O53  1  0.47104825  0.16401957  0.24737016  1
  O  O54  1  0.64944213  0.50784454  0.92317540  1
  O  O55  1  0.85840341  0.35055787  0.92317540  1
  O  O56  1  0.49215546  0.14159659  0.92317540  1
  O  O57  1  0.65059730  0.14402459  0.42191412  1
  O  O58  1  0.49342829  0.34940270  0.42191412  1
  O  O59  1  0.85597541  0.50657171  0.42191412  1
  O  O60  1  0.35191585  0.49269528  0.07549995  1
  O  O61  1  0.14077843  0.64808415  0.07549995  1
  O  O62  1  0.50730472  0.85922157  0.07549995  1
  O  O63  1  0.35127829  0.85580819  0.57898947  1
  O  O64  1  0.50452890  0.64872171  0.57898947  1
  O  O65  1  0.14419181  0.49547110  0.57898947  1
  O  O66  1  0.31468634  0.83947341  0.25538341  1
  O  O67  1  0.52478608  0.68531366  0.25538341  1
  O  O68  1  0.16052659  0.47521392  0.25538341  1
  O  O69  1  0.31353488  0.47311594  0.75591485  1
  O  O70  1  0.15958005  0.68646512  0.75591485  1
  O  O71  1  0.52688406  0.84041995  0.75591485  1
loop_
_geom_bond_atom_site_label_1
_geom_bond_atom_site_label_2
_geom_bond_distance
_geom_bond_site_symmetry_2
Na0 O44 2.364899 1_445
Na0 O42 2.364899 1_455
Na0 O43 2.364899 1_555
Na0 O38 2.843712 1_555
Na0 O36 2.843712 1_545
Na0 O37 2.843712 1_445
Na1 O45 2.418247 1_445
Na1 O47 2.418247 1_555
Na1 O46 2.418247 1_455
Na1 O39 2.720136 1_554
Na1 O41 2.720136 1_444
Na1 O40 2.720136 1_544
Na2 O50 2.395151 1_555
Na2 O48 2.395151 1_555
Na2 O49 2.395151 1_555
Na2 O56 2.745740 1_555
Na2 O54 2.745740 1_555
Na2 O55 2.745740 1_555
Na3 O57 2.487467 1_555
Na3 O59 2.487467 1_555
Na3 O58 2.487467 1_555
Na3 O51 2.627074 1_555
Na3 O53 2.627074 1_555
Na3 O52 2.627074 1_555
Na4 O66 2.343448 1_555
Na4 O68 2.343448 1_555
Na4 O67 2.343448 1_555
Na4 O62 2.889074 1_555
Na4 O60 2.889074 1_555
Na4 O61 2.889074 1_555
Na5 O63 2.399337 1_555
Na5 O65 2.399337 1_555
Na5 O64 2.399337 1_555
Na5 O69 2.760936 1_555
Na5 O71 2.760936 1_555
Na5 O70 2.760936 1_555
Hf0 O38 2.043504 1_555
Hf0 O36 2.043504 1_545
Hf0 O37 2.043504 1_445
Hf0 O1 2.067294 1_445
Hf0 O2 2.067294 1_455
Hf0 O0 2.067294 1_555
Hf1 O4 1.995908 1_445
Hf1 O3 1.995908 1_555
Hf1 O5 1.995908 1_455
Hf1 O39 2.161939 1_555
Hf1 O41 2.161939 1_445
Hf1 O40 2.161939 1_545
Hf2 O62 2.042616 1_555
Hf2 O60 2.042616 1_555
Hf2 O61 2.042616 1_555
Hf2 O25 2.074459 1_554
Hf2 O26 2.074459 1_554
Hf2 O24 2.074459 1_554
O0 S0 1.510960 1_545
O1 S1 1.510960 1_555
O2 S2 1.510960 1_655
O3 S3 1.560792 1_555
O4 S4 1.560792 1_555
O5 S5 1.560792 1_555
O6 S5 1.455231 1_565
O6 Zn0 2.104905 1_665
O7 S3 1.455231 1_555
O7 Zn0 2.104905 1_555
O8 S4 1.455231 1_455
O8 Zn0 2.104905 1_565
O9 S1 1.478771 1_555
O9 Zn1 2.021620 1_665
O10 S2 1.478771 1_555
O10 Zn1 2.021620 1_555
O11 S0 1.478771 1_555
O11 Zn1 2.021620 1_565
O12 S6 1.490512 1_555
O12 Zn2 1.990239 1_555
O13 S7 1.490512 1_555
O13 Zn2 1.990239 1_555
O14 S8 1.490512 1_555
O14 Zn2 1.990239 1_555
O15 S9 1.458265 1_555
O15 Zn3 2.120157 1_555
O16 S10 1.458265 1_555
O16 Zn3 2.120157 1_555
O17 S11 1.458265 1_555
O17 Zn3 2.120157 1_555
O18 S11 1.477296 1_555
O18 Zn4 2.025853 1_554
O19 S9 1.477296 1_555
O19 Zn4 2.025853 1_554
O20 S10 1.477296 1_555
O20 Zn4 2.025853 1_554
O21 S7 1.476662 1_555
O21 Zn5 2.010281 1_555
O22 S8 1.476662 1_555
O22 Zn5 2.010281 1_555
O23 S6 1.476662 1_555
O23 Zn5 2.010281 1_555
O24 S12 1.509394 1_555
O25 S13 1.509394 1_555
O26 S14 1.509394 1_555
O27 S15 1.458336 1_555
O27 Zn6 2.106184 1_555
O28 S16 1.458336 1_555
O28 Zn6 2.106184 1_555
O29 S17 1.458336 1_555
O29 Zn6 2.106184 1_555
O30 S17 1.477232 1_555
O30 Zn7 2.014382 1_555
O31 S15 1.477232 1_555
O31 Zn7 2.014382 1_555
O32 S16 1.477232 1_555
O32 Zn7 2.014382 1_555
O33 S13 1.455159 1_555
O33 Zn8 2.107937 1_555
O34 S14 1.455159 1_555
O34 Zn8 2.107937 1_555
O35 S12 1.455159 1_555
O35 Zn8 2.107937 1_555
O36 S17 1.540764 1_555
O37 S15 1.540772 1_555
O38 S16 1.540769 1_555
O39 S13 1.511105 1_555
O40 S14 1.511097 1_555
O41 S12 1.511102 1_555
O42 S6 1.491297 1_555
O42 Zn0 2.082419 1_655
O43 S7 1.491305 1_555
O43 Zn0 2.082419 1_555
O44 S8 1.491302 1_555
O44 Zn0 2.082419 1_665
O45 S9 1.474131 1_555
O45 Zn1 2.198977 1_665
O46 S10 1.474122 1_555
O46 Zn1 2.198977 1_655
O47 S11 1.474128 1_555
O47 Zn1 2.198977 1_555
O48 S5 1.468405 1_555
O48 Zn2 2.334295 1_555
O49 S3 1.468414 1_555
O49 Zn2 2.334295 1_555
O50 S4 1.468410 1_555
O50 Zn2 2.334295 1_555
O51 S1 1.478599 1_555
O51 Zn3 2.119192 1_555
O52 S2 1.478590 1_655
O52 Zn3 2.119192 1_555
O53 S0 1.478595 1_545
O53 Zn3 2.119192 1_555
O54 S12 1.467284 1_555
O54 Zn4 2.165762 1_555
O55 S13 1.467267 1_655
O55 Zn4 2.165763 1_555
O56 S14 1.467274 1_545
O56 Zn4 2.165762 1_555
O57 S15 1.472674 1_545
O57 Zn5 2.213450 1_555
O58 S16 1.472692 1_555
O58 Zn5 2.213450 1_555
O59 S17 1.472681 1_655
O59 Zn5 2.213450 1_555
O60 S11 1.539734 1_555
O61 S9 1.539717 1_455
O62 S10 1.539724 1_565
O63 S7 1.484178 1_565
O63 Zn6 2.098921 1_555
O64 S8 1.484195 1_555
O64 Zn6 2.098921 1_555
O65 S6 1.484185 1_455
O65 Zn6 2.098921 1_555
O66 S0 1.473515 1_555
O66 Zn7 2.197606 1_555
O67 S1 1.473523 1_555
O67 Zn7 2.197606 1_555
O68 S2 1.473520 1_555
O68 Zn7 2.197606 1_555
O69 S3 1.476828 1_555
O69 Zn8 2.060026 1_555
O70 S4 1.476819 1_455
O70 Zn8 2.060026 1_555
O71 S5 1.476824 1_565
O71 Zn8 2.060026 1_555
