# generated using pymatgen
data_Li2CoP2O7
_symmetry_space_group_name_H-M   'P 1'
_cell_length_a   6.53104600
_cell_length_b   9.21860492
_cell_length_c   10.40544254
_cell_angle_alpha   113.84540159
_cell_angle_beta   87.76001134
_cell_angle_gamma   106.60050465
_symmetry_Int_Tables_number   1
_chemical_formula_structural   Li2CoP2O7
_chemical_formula_sum   'Li8 Co4 P8 O28'
_cell_volume   547.03163342
_cell_formula_units_Z   4
loop_
 _symmetry_equiv_pos_site_id
 _symmetry_equiv_pos_as_xyz
  1  'x, y, z'
loop_
 _atom_site_type_symbol
 _atom_site_label
 _atom_site_symmetry_multiplicity
 _atom_site_fract_x
 _atom_site_fract_y
 _atom_site_fract_z
 _atom_site_occupancy
  Li  Li0  1  0.35413700  0.92601600  0.37910500  1
  Li  Li1  1  0.04750000  0.20582500  0.51187600  1
  Li  Li2  1  0.16664000  0.48492500  0.03533000  1
  Li  Li3  1  0.59205800  0.50950800  0.97041200  1
  Li  Li4  1  0.17262200  0.11250700  0.13276800  1
  Li  Li5  1  0.64087900  0.07461600  0.62061900  1
  Li  Li6  1  0.93545400  0.82678100  0.50308600  1
  Li  Li7  1  0.87034300  0.89247100  0.89422600  1
  Co  Co0  1  0.62589600  0.48888700  0.25120400  1
  Co  Co1  1  0.36348800  0.50374000  0.73918400  1
  Co  Co2  1  0.28686100  0.89465100  0.77887400  1
  Co  Co3  1  0.71962400  0.09763300  0.21644700  1
  P  P0  1  0.87413000  0.54502000  0.69781100  1
  P  P1  1  0.31283100  0.80200700  0.05246500  1
  P  P2  1  0.56155500  0.29078800  0.46191700  1
  P  P3  1  0.08042900  0.18019300  0.79422200  1
  P  P4  1  0.69394500  0.18921100  0.94590500  1
  P  P5  1  0.92399300  0.80847600  0.19956600  1
  P  P6  1  0.43320600  0.70504100  0.53206700  1
  P  P7  1  0.11462100  0.44217500  0.29806800  1
  O  O0  1  0.69326000  0.52857400  0.79454600  1
  O  O1  1  0.61341900  0.33239700  0.03956400  1
  O  O2  1  0.28401900  0.32226600  0.81900600  1
  O  O3  1  0.02406100  0.26300600  0.28726300  1
  O  O4  1  0.44892000  0.91009100  0.19348000  1
  O  O5  1  0.08476700  0.70924000  0.09632000  1
  O  O6  1  0.96210300  0.09151000  0.64544200  1
  O  O7  1  0.73831200  0.08036200  0.01393900  1
  O  O8  1  0.90731300  0.93203100  0.13861100  1
  O  O9  1  0.97489500  0.72733300  0.72133100  1
  O  O10  1  0.23784500  0.54101800  0.45497800  1
  O  O11  1  0.54431200  0.27522100  0.30773500  1
  O  O12  1  0.36058600  0.31000500  0.53792100  1
  O  O13  1  0.56161400  0.08220700  0.80346800  1
  O  O14  1  0.10647000  0.05679300  0.85164900  1
  O  O15  1  0.38445400  0.65203800  0.95878200  1
  O  O16  1  0.92737700  0.28003000  0.90507100  1
  O  O17  1  0.75509300  0.45676400  0.53819800  1
  O  O18  1  0.36926600  0.85689900  0.53852400  1
  O  O19  1  0.28732500  0.45154800  0.19361000  1
  O  O20  1  0.71546300  0.67072900  0.17357800  1
  O  O21  1  0.95032100  0.52610400  0.29107200  1
  O  O22  1  0.63271500  0.68534800  0.45427700  1
  O  O23  1  0.03585800  0.89723700  0.34950700  1
  O  O24  1  0.44673400  0.71384700  0.68414200  1
  O  O25  1  0.26871900  0.90885900  0.98301700  1
  O  O26  1  0.03424500  0.45180200  0.69422400  1
  O  O27  1  0.62917700  0.14207500  0.46035300  1
loop_
_geom_bond_atom_site_label_1
_geom_bond_atom_site_label_2
_geom_bond_distance
_geom_bond_site_symmetry_2
Li0 O4 1.965878 1_555
Li0 O18 2.017624 1_555
Li0 O23 2.038400 1_555
Li0 O27 2.149754 1_565
Li1 O12 1.971725 1_555
Li1 O6 2.034936 1_455
Li1 O26 2.317346 1_555
Li1 O3 2.614191 1_555
Li1 O23 2.636903 1_545
Li1 O27 2.653189 1_455
Li2 O19 2.019464 1_555
Li2 O16 2.062949 1_454
Li2 O5 2.123434 1_555
Li2 O15 2.163962 1_554
Li2 O2 2.386590 1_554
Li3 O0 1.978800 1_555
Li3 O20 2.058143 1_556
Li3 O1 2.071446 1_556
Li3 O15 2.176872 1_555
Li3 O2 2.360865 1_555
Li4 O8 2.049498 1_445
Li4 O3 2.072319 1_555
Li4 O25 2.139616 1_544
Li5 O13 1.931043 1_555
Li5 O27 2.012268 1_555
Li5 O6 2.077359 1_555
Li5 O18 2.145368 1_545
Li6 O23 1.979795 1_655
Li6 O22 1.984264 1_555
Li6 O6 2.243836 1_565
Li7 O14 2.005889 1_665
Li7 O9 2.074584 1_555
Li7 O7 2.078542 1_566
Li7 O8 2.430159 1_556
Co0 O20 2.074185 1_555
Co0 O1 2.077421 1_555
Co0 O21 2.077865 1_555
Co0 O22 2.148048 1_555
Co0 O11 2.195966 1_555
Co0 O19 2.206588 1_555
Co1 O2 2.086052 1_555
Co1 O26 2.093120 1_555
Co1 O15 2.121496 1_555
Co1 O12 2.129665 1_555
Co1 O24 2.155472 1_555
Co1 O0 2.175212 1_555
Co2 O13 2.044568 1_565
Co2 O14 2.053523 1_565
Co2 O25 2.075488 1_555
Co2 O24 2.103692 1_555
Co2 O9 2.107565 1_455
Co2 O18 2.442044 1_555
Co3 O4 2.030840 1_545
Co3 O7 2.049442 1_555
Co3 O3 2.072357 1_655
Co3 O8 2.116858 1_545
Co3 O11 2.149902 1_555
Co3 O27 2.477573 1_555
O0 P0 1.536124 1_555
O1 P4 1.511684 1_554
O2 P3 1.519372 1_555
O3 P7 1.545118 1_555
O4 P1 1.532846 1_555
O5 P1 1.640956 1_555
O5 P5 1.661220 1_455
O6 P3 1.539952 1_655
O7 P4 1.532490 1_554
O8 P5 1.540098 1_555
O9 P0 1.538076 1_555
O10 P6 1.598339 1_555
O10 P7 1.620042 1_555
O11 P2 1.557528 1_555
O12 P2 1.522508 1_555
O13 P4 1.532180 1_555
O14 P3 1.532378 1_555
O15 P1 1.524667 1_556
O16 P4 1.647244 1_555
O16 P3 1.659478 1_655
O17 P2 1.600072 1_555
O17 P0 1.634539 1_555
O18 P6 1.547406 1_555
O19 P7 1.544520 1_555
O20 P5 1.517697 1_555
O21 P7 1.510429 1_655
O22 P6 1.523112 1_555
O23 P5 1.533898 1_455
O24 P6 1.556077 1_555
O25 P1 1.526251 1_556
O26 P0 1.522456 1_455
O27 P2 1.549873 1_555
