# generated using pymatgen
data_YbEuSi4N7
_symmetry_space_group_name_H-M   'P 1'
_cell_length_a   6.03530796
_cell_length_b   6.03530796
_cell_length_c   9.90045800
_cell_angle_alpha   90.00000000
_cell_angle_beta   90.00000000
_cell_angle_gamma   119.99999955
_symmetry_Int_Tables_number   1
_chemical_formula_structural   YbEuSi4N7
_chemical_formula_sum   'Yb2 Eu2 Si8 N14'
_cell_volume   312.30920887
_cell_formula_units_Z   2
loop_
 _symmetry_equiv_pos_site_id
 _symmetry_equiv_pos_as_xyz
  1  'x, y, z'
loop_
 _atom_site_type_symbol
 _atom_site_label
 _atom_site_symmetry_multiplicity
 _atom_site_fract_x
 _atom_site_fract_y
 _atom_site_fract_z
 _atom_site_occupancy
  Yb  Yb0  1  0.66666700  0.33333300  0.23661100  1
  Yb  Yb1  1  0.33333300  0.66666700  0.73661100  1
  Eu  Eu0  1  0.33333300  0.66666700  0.38127700  1
  Eu  Eu1  1  0.66666700  0.33333300  0.88127700  1
  Si  Si0  1  0.82637700  0.65275300  0.54610200  1
  Si  Si1  1  0.17362300  0.82637700  0.04610200  1
  Si  Si2  1  0.65275300  0.82637700  0.04610200  1
  Si  Si3  1  0.34724700  0.17362300  0.54610200  1
  Si  Si4  1  0.82637700  0.17362300  0.54610200  1
  Si  Si5  1  0.17362300  0.34724700  0.04610200  1
  Si  Si6  1  0.00000000  0.00000000  0.81186900  1
  Si  Si7  1  0.00000000  0.00000000  0.31186900  1
  N  N0  1  0.15158900  0.30317800  0.87409800  1
  N  N1  1  0.84841100  0.15158900  0.37409800  1
  N  N2  1  0.30317800  0.15158900  0.37409800  1
  N  N3  1  0.69682200  0.84841100  0.87409800  1
  N  N4  1  0.15158900  0.84841100  0.87409800  1
  N  N5  1  0.84841100  0.69682200  0.37409800  1
  N  N6  1  0.98081400  0.49040700  0.59289600  1
  N  N7  1  0.49040700  0.98081400  0.09289600  1
  N  N8  1  0.49040700  0.50959300  0.09289600  1
  N  N9  1  0.50959300  0.49040700  0.59289600  1
  N  N10  1  0.50959300  0.01918600  0.59289600  1
  N  N11  1  0.01918600  0.50959300  0.09289600  1
  N  N12  1  0.00000000  0.00000000  0.12346000  1
  N  N13  1  0.00000000  0.00000000  0.62346000  1
loop_
_geom_bond_atom_site_label_1
_geom_bond_atom_site_label_2
_geom_bond_distance
_geom_bond_site_symmetry_2
Eu0 N10 2.790060 1_565
Eu0 N6 2.790060 1_455
Eu0 N9 2.790063 1_555
Eu0 N2 3.022600 1_565
Eu0 N5 3.022600 1_455
Eu0 N1 3.022603 1_455
Eu0 N1 3.022603 1_565
Eu0 N5 3.022606 1_555
Eu0 N2 3.022606 1_555
Eu0 N7 3.293578 1_555
Eu0 N11 3.293578 1_555
Eu0 N8 3.293581 1_555
Eu1 N11 2.790060 1_656
Eu1 N7 2.790060 1_546
Eu1 N8 2.790063 1_556
Eu1 N0 3.022600 1_655
Eu1 N3 3.022600 1_545
Eu1 N4 3.022603 1_655
Eu1 N4 3.022603 1_545
Eu1 N3 3.022606 1_555
Eu1 N0 3.022606 1_555
Eu1 N10 3.293578 1_555
Eu1 N6 3.293578 1_555
Eu1 N9 3.293581 1_555
N0 Si6 1.700184 1_555
N0 Si5 1.718425 1_556
N0 Yb1 2.337153 1_555
N1 Si7 1.700184 1_655
N1 Si4 1.718425 1_555
N1 Yb0 2.337149 1_555
N2 Si7 1.700184 1_555
N2 Si3 1.718425 1_555
N2 Yb0 2.337153 1_555
N3 Si6 1.700184 1_665
N3 Si2 1.718425 1_556
N3 Yb1 2.337153 1_555
N4 Si6 1.700184 1_565
N4 Si1 1.718425 1_556
N4 Yb1 2.337149 1_555
N5 Si7 1.700184 1_665
N5 Si0 1.718425 1_555
N5 Yb0 2.337153 1_555
N6 Si0 1.719498 1_555
N6 Si4 1.719503 1_555
N6 Yb1 2.327954 1_655
N7 Si2 1.719498 1_555
N7 Si1 1.719503 1_555
N7 Yb0 2.327954 1_565
N8 Si5 1.719503 1_555
N8 Si2 1.719503 1_555
N8 Yb0 2.327959 1_555
N9 Si3 1.719503 1_555
N9 Si0 1.719503 1_555
N9 Yb1 2.327959 1_555
N10 Si3 1.719498 1_555
N10 Si4 1.719503 1_555
N10 Yb1 2.327954 1_545
N11 Si5 1.719498 1_555
N11 Si1 1.719503 1_555
N11 Yb0 2.327954 1_455
N12 Si7 1.865335 1_555
N12 Si1 1.969938 1_545
N12 Si5 1.969943 1_555
N12 Si2 1.969943 1_445
N13 Si6 1.865335 1_555
N13 Si4 1.969938 1_455
N13 Si3 1.969943 1_555
N13 Si0 1.969943 1_445
