# generated using pymatgen
data_MgV2H2O5
_symmetry_space_group_name_H-M   'P 1'
_cell_length_a   3.08567311
_cell_length_b   5.18458825
_cell_length_c   6.51517495
_cell_angle_alpha   101.57425296
_cell_angle_beta   103.70241191
_cell_angle_gamma   89.99272988
_symmetry_Int_Tables_number   1
_chemical_formula_structural   MgV2H2O5
_chemical_formula_sum   'Mg1 V2 H2 O5'
_cell_volume   99.08072219
_cell_formula_units_Z   1
loop_
 _symmetry_equiv_pos_site_id
 _symmetry_equiv_pos_as_xyz
  1  'x, y, z'
loop_
 _atom_site_type_symbol
 _atom_site_label
 _atom_site_symmetry_multiplicity
 _atom_site_fract_x
 _atom_site_fract_y
 _atom_site_fract_z
 _atom_site_occupancy
  Mg  Mg0  1  0.22585967  0.95077374  0.45293895  1
  V  V0  1  0.86008734  0.56919979  0.72099676  1
  V  V1  1  0.13350287  0.41064019  0.26723148  1
  H  H0  1  0.55131991  0.97444769  0.10231063  1
  H  H1  1  0.42112788  0.04722995  0.84131200  1
  O  O0  1  0.99472332  0.47719666  0.99044947  1
  O  O1  1  0.69970675  0.66830065  0.40118322  1
  O  O2  1  0.29030919  0.33465046  0.58294967  1
  O  O3  1  0.38275216  0.86261725  0.76510777  1
  O  O4  1  0.61769391  0.11119363  0.23489504  1
loop_
_geom_bond_atom_site_label_1
_geom_bond_atom_site_label_2
_geom_bond_distance
_geom_bond_site_symmetry_2
Mg0 O2 1.990456 1_565
Mg0 O1 2.105041 1_555
Mg0 O1 2.106522 1_455
Mg0 O3 2.118075 1_555
Mg0 O4 2.332851 1_465
Mg0 O4 2.336619 1_565
H0 O4 0.980423 1_565
H1 O3 0.978839 1_545
O0 V1 1.854210 1_656
O0 V0 1.863454 1_555
O1 V1 2.099764 1_555
O1 V1 2.103106 1_655
O1 V0 2.188942 1_555
O2 V0 2.043616 1_455
O2 V0 2.047263 1_555
O2 V1 2.115192 1_555
O3 V0 2.142607 1_555
O3 V0 2.145561 1_455
O4 V1 2.167586 1_655
O4 V1 2.168905 1_555
