# generated using pymatgen
data_OsS2
_symmetry_space_group_name_H-M   'P 1'
_cell_length_a   5.64011013
_cell_length_b   5.64011013
_cell_length_c   5.64011013
_cell_angle_alpha   90.00000000
_cell_angle_beta   90.00000000
_cell_angle_gamma   90.00000000
_symmetry_Int_Tables_number   1
_chemical_formula_structural   OsS2
_chemical_formula_sum   'Os4 S8'
_cell_volume   179.41665378
_cell_formula_units_Z   4
loop_
 _symmetry_equiv_pos_site_id
 _symmetry_equiv_pos_as_xyz
  1  'x, y, z'
loop_
 _atom_site_type_symbol
 _atom_site_label
 _atom_site_symmetry_multiplicity
 _atom_site_fract_x
 _atom_site_fract_y
 _atom_site_fract_z
 _atom_site_occupancy
  Os  Os0  1  0.00000000  0.50000000  0.50000000  1
  Os  Os1  1  0.50000000  0.50000000  0.00000000  1
  Os  Os2  1  0.50000000  -0.00000000  0.50000000  1
  Os  Os3  1  0.00000000  -0.00000000  -0.00000000  1
  S  S0  1  0.38529796  0.11470204  0.88529796  1
  S  S1  1  0.11470204  0.88529796  0.38529796  1
  S  S2  1  0.88529796  0.38529796  0.11470204  1
  S  S3  1  0.61470204  0.61470204  0.61470204  1
  S  S4  1  0.38529796  0.38529796  0.38529796  1
  S  S5  1  0.11470204  0.61470204  0.88529796  1
  S  S6  1  0.88529796  0.11470204  0.61470204  1
  S  S7  1  0.61470204  0.88529796  0.11470204  1
loop_
_geom_bond_atom_site_label_1
_geom_bond_atom_site_label_2
_geom_bond_distance
_geom_bond_site_symmetry_2
Os0 S5 2.357860 1_555
Os0 S6 2.357860 1_455
Os0 S4 2.357860 1_555
Os0 S1 2.357860 1_555
Os0 S2 2.357860 1_455
Os0 S3 2.357860 1_455
Os1 S2 2.357860 1_555
Os1 S3 2.357860 1_554
Os1 S0 2.357860 1_554
Os1 S7 2.357860 1_555
Os1 S4 2.357860 1_555
Os1 S5 2.357860 1_554
Os2 S7 2.357860 1_545
Os2 S6 2.357860 1_555
Os2 S4 2.357860 1_555
Os2 S3 2.357860 1_545
Os2 S1 2.357860 1_545
Os2 S0 2.357860 1_555
Os3 S6 2.357860 1_454
Os3 S5 2.357860 1_544
Os3 S0 2.357860 1_554
Os3 S1 2.357860 1_545
Os3 S7 2.357860 1_445
Os3 S2 2.357860 1_455
S0 S7 2.241039 1_546
S1 S6 2.241039 1_465
S2 S5 2.241039 1_654
S3 S4 2.241039 1_555
