# generated using pymatgen
data_Tb3Mn3Ga2Si
_symmetry_space_group_name_H-M   'P 1'
_cell_length_a   7.15713995
_cell_length_b   7.15713995
_cell_length_c   3.93285000
_cell_angle_alpha   90.00000000
_cell_angle_beta   90.00000000
_cell_angle_gamma   119.99999953
_symmetry_Int_Tables_number   1
_chemical_formula_structural   Tb3Mn3Ga2Si
_chemical_formula_sum   'Tb3 Mn3 Ga2 Si1'
_cell_volume   174.46850320
_cell_formula_units_Z   1
loop_
 _symmetry_equiv_pos_site_id
 _symmetry_equiv_pos_as_xyz
  1  'x, y, z'
loop_
 _atom_site_type_symbol
 _atom_site_label
 _atom_site_symmetry_multiplicity
 _atom_site_fract_x
 _atom_site_fract_y
 _atom_site_fract_z
 _atom_site_occupancy
  Tb  Tb0  1  0.00000000  0.59616700  0.50000000  1
  Tb  Tb1  1  0.40383300  0.40383300  0.50000000  1
  Tb  Tb2  1  0.59616700  0.00000000  0.50000000  1
  Mn  Mn0  1  0.78026400  0.78026400  0.00000000  1
  Mn  Mn1  1  0.21973600  0.00000000  0.00000000  1
  Mn  Mn2  1  0.00000000  0.21973600  0.00000000  1
  Ga  Ga0  1  0.66666700  0.33333300  0.00000000  1
  Ga  Ga1  1  0.33333300  0.66666700  0.00000000  1
  Si  Si0  1  0.00000000  0.00000000  0.50000000  1
loop_
_geom_bond_atom_site_label_1
_geom_bond_atom_site_label_2
_geom_bond_distance
_geom_bond_site_symmetry_2
Mn0 Si0 2.517966 1_664
Mn0 Si0 2.517966 1_665
Mn0 Mn1 2.723964 1_665
Mn0 Mn2 2.723964 1_665
Mn0 Tb2 3.185659 1_564
Mn0 Tb2 3.185659 1_565
Mn0 Tb0 3.185659 1_655
Mn0 Tb0 3.185659 1_654
Mn0 Tb1 3.335472 1_554
Mn0 Tb1 3.335472 1_555
Mn1 Si0 2.517966 1_554
Mn1 Si0 2.517966 1_555
Mn1 Mn2 2.723964 1_555
Mn1 Tb1 3.185659 1_554
Mn1 Tb1 3.185659 1_555
Mn1 Tb0 3.185659 1_545
Mn1 Tb0 3.185659 1_544
Mn1 Tb2 3.335472 1_554
Mn1 Tb2 3.335472 1_555
Mn2 Si0 2.517966 1_554
Mn2 Si0 2.517966 1_555
Mn2 Tb1 3.185659 1_554
Mn2 Tb1 3.185659 1_555
Mn2 Tb2 3.185659 1_455
Mn2 Tb2 3.185659 1_454
Mn2 Tb0 3.335472 1_554
Mn2 Tb0 3.335472 1_555
Ga0 Mn2 2.879633 1_655
Ga0 Mn1 2.879638 1_555
Ga0 Mn0 2.879640 1_555
Ga0 Tb2 2.934155 1_555
Ga0 Tb2 2.934155 1_554
Ga0 Tb0 2.934157 1_655
Ga0 Tb0 2.934157 1_654
Ga0 Tb1 2.934160 1_554
Ga0 Tb1 2.934160 1_555
Ga1 Mn1 2.879633 1_565
Ga1 Mn2 2.879638 1_555
Ga1 Mn0 2.879640 1_555
Ga1 Tb0 2.934155 1_555
Ga1 Tb0 2.934155 1_554
Ga1 Tb2 2.934157 1_564
Ga1 Tb2 2.934157 1_565
Ga1 Tb1 2.934160 1_554
Ga1 Tb1 2.934160 1_555
Si0 Tb0 2.890289 1_545
Si0 Tb2 2.890289 1_455
Si0 Tb1 2.890289 1_555
