# generated using pymatgen
data_MgCr4(CuO4)2
_symmetry_space_group_name_H-M   'P 1'
_cell_length_a   6.38714523
_cell_length_b   6.40861909
_cell_length_c   6.40807094
_cell_angle_alpha   95.25380100
_cell_angle_beta   117.10436737
_cell_angle_gamma   117.13797996
_symmetry_Int_Tables_number   1
_chemical_formula_structural   MgCr4(CuO4)2
_chemical_formula_sum   'Mg1 Cr4 Cu2 O8'
_cell_volume   192.37780723
_cell_formula_units_Z   1
loop_
 _symmetry_equiv_pos_site_id
 _symmetry_equiv_pos_as_xyz
  1  'x, y, z'
loop_
 _atom_site_type_symbol
 _atom_site_label
 _atom_site_symmetry_multiplicity
 _atom_site_fract_x
 _atom_site_fract_y
 _atom_site_fract_z
 _atom_site_occupancy
  Mg  Mg0  1  0.49996900  0.25021200  0.75011600  1
  Cr  Cr0  1  0.21063700  0.82880600  0.62003300  1
  Cr  Cr1  1  0.78950700  0.40941400  0.61829900  1
  Cr  Cr2  1  0.78952300  0.37994300  0.17130200  1
  Cr  Cr3  1  0.21035900  0.38169600  0.59038100  1
  Cu  Cu0  1  0.49990000  0.75009700  0.24977400  1
  Cu  Cu1  1  0.00009800  0.99994600  0.00004300  1
  O  O0  1  0.20964000  0.59738400  0.38823700  1
  O  O1  1  0.79023000  0.17846800  0.38769900  1
  O  O2  1  0.73653200  0.59834400  0.86016800  1
  O  O3  1  0.26366700  0.12373100  0.86191200  1
  O  O4  1  0.79055100  0.61165700  0.40274600  1
  O  O5  1  0.20962800  0.61223600  0.82133100  1
  O  O6  1  0.26370900  0.13989300  0.40194500  1
  O  O7  1  0.73605000  0.13817000  0.87601300  1
loop_
_geom_bond_atom_site_label_1
_geom_bond_atom_site_label_2
_geom_bond_distance
_geom_bond_site_symmetry_2
Mg0 O2 1.850274 1_555
Mg0 O3 1.850343 1_555
Mg0 O6 1.850613 1_555
Mg0 O7 1.850798 1_555
Cr0 O4 1.977149 1_455
Cr0 O5 1.979282 1_555
Cr0 O0 1.996310 1_555
Cr0 O3 2.119098 1_565
Cr0 Mg0 2.243762 1_565
Cr0 O7 2.490387 1_565
Cr0 O6 2.523485 1_565
Cr1 O5 1.977340 1_655
Cr1 O4 1.978944 1_555
Cr1 O1 1.996517 1_555
Cr1 O2 2.119114 1_555
Cr1 Mg0 2.243753 1_555
Cr1 O6 2.492179 1_555
Cr1 O7 2.522625 1_555
Cr2 O0 1.977282 1_655
Cr2 O1 1.979285 1_555
Cr2 O4 1.995917 1_555
Cr2 O7 2.118805 1_554
Cr2 Mg0 2.243664 1_554
Cr2 O3 2.492518 1_554
Cr2 O2 2.525272 1_554
Cr3 O1 1.977370 1_455
Cr3 O0 1.979113 1_555
Cr3 O5 1.996310 1_555
Cr3 O6 2.118844 1_555
Cr3 Mg0 2.243662 1_555
Cr3 O2 2.494083 1_555
Cr3 O3 2.525277 1_555
Cu0 O1 2.274732 1_565
Cu0 O5 2.275704 1_554
Cu0 O0 2.277032 1_555
Cu0 O4 2.279905 1_555
Cu1 O2 2.123996 1_454
Cu1 O3 2.124839 1_564
Cu1 O6 2.126058 1_565
Cu1 O7 2.128638 1_464
