# generated using pymatgen
data_Sr4As3
_symmetry_space_group_name_H-M   'P 1'
_cell_length_a   10.99894385
_cell_length_b   12.23233350
_cell_length_c   12.87201675
_cell_angle_alpha   90.00000000
_cell_angle_beta   90.00000000
_cell_angle_gamma   90.00000000
_symmetry_Int_Tables_number   1
_chemical_formula_structural   Sr4As3
_chemical_formula_sum   'Sr32 As24'
_cell_volume   1731.83652285
_cell_formula_units_Z   8
loop_
 _symmetry_equiv_pos_site_id
 _symmetry_equiv_pos_as_xyz
  1  'x, y, z'
loop_
 _atom_site_type_symbol
 _atom_site_label
 _atom_site_symmetry_multiplicity
 _atom_site_fract_x
 _atom_site_fract_y
 _atom_site_fract_z
 _atom_site_occupancy
  Sr  Sr0  1  -0.00000000  0.60287826  0.79346515  1
  Sr  Sr1  1  -0.00000000  0.39712174  0.20653485  1
  Sr  Sr2  1  -0.00000000  0.10287826  0.70653485  1
  Sr  Sr3  1  -0.00000000  0.89712174  0.29346515  1
  Sr  Sr4  1  0.72336214  0.40395796  0.76411636  1
  Sr  Sr5  1  0.72336214  0.59604204  0.23588364  1
  Sr  Sr6  1  0.27663786  0.90395796  0.73588364  1
  Sr  Sr7  1  0.27663786  0.09604204  0.26411636  1
  Sr  Sr8  1  0.27663786  0.59604204  0.23588364  1
  Sr  Sr9  1  0.27663786  0.40395796  0.76411636  1
  Sr  Sr10  1  0.72336214  0.09604204  0.26411636  1
  Sr  Sr11  1  0.72336214  0.90395796  0.73588364  1
  Sr  Sr12  1  -0.00000000  0.77416258  0.57745493  1
  Sr  Sr13  1  -0.00000000  0.22583742  0.42254507  1
  Sr  Sr14  1  -0.00000000  0.27416258  0.92254507  1
  Sr  Sr15  1  -0.00000000  0.72583742  0.07745493  1
  Sr  Sr16  1  0.67737467  0.67358920  0.93297952  1
  Sr  Sr17  1  0.67737467  0.32641080  0.06702048  1
  Sr  Sr18  1  0.32262533  0.17358920  0.56702048  1
  Sr  Sr19  1  0.32262533  0.82641080  0.43297952  1
  Sr  Sr20  1  0.32262533  0.32641080  0.06702048  1
  Sr  Sr21  1  0.32262533  0.67358920  0.93297952  1
  Sr  Sr22  1  0.67737467  0.82641080  0.43297952  1
  Sr  Sr23  1  0.67737467  0.17358920  0.56702048  1
  Sr  Sr24  1  0.50000000  0.12293895  0.86802781  1
  Sr  Sr25  1  0.50000000  0.87706105  0.13197219  1
  Sr  Sr26  1  0.50000000  0.62293895  0.63197219  1
  Sr  Sr27  1  0.50000000  0.37706105  0.36802781  1
  Sr  Sr28  1  0.81686303  0.00000000  0.00000000  1
  Sr  Sr29  1  0.18313697  0.50000000  0.50000000  1
  Sr  Sr30  1  0.18313697  0.00000000  0.00000000  1
  Sr  Sr31  1  0.81686303  0.50000000  0.50000000  1
  As  As0  1  0.88420563  0.50000000  0.00000000  1
  As  As1  1  0.11579437  0.00000000  0.50000000  1
  As  As2  1  0.11579437  0.50000000  0.00000000  1
  As  As3  1  0.88420563  0.00000000  0.50000000  1
  As  As4  1  0.50000000  0.86346774  0.88648761  1
  As  As5  1  0.50000000  0.13653226  0.11351239  1
  As  As6  1  0.50000000  0.36346774  0.61351239  1
  As  As7  1  0.50000000  0.63653226  0.38648761  1
  As  As8  1  0.23403255  0.83763483  0.17666624  1
  As  As9  1  0.23403255  0.16236517  0.82333376  1
  As  As10  1  0.76596745  0.33763483  0.32333376  1
  As  As11  1  0.76596745  0.66236517  0.67666624  1
  As  As12  1  0.76596745  0.16236517  0.82333376  1
  As  As13  1  0.76596745  0.83763483  0.17666624  1
  As  As14  1  0.23403255  0.66236517  0.67666624  1
  As  As15  1  0.23403255  0.33763483  0.32333376  1
  As  As16  1  0.50000000  0.46243696  0.90857837  1
  As  As17  1  0.50000000  0.53756304  0.09142163  1
  As  As18  1  0.50000000  0.96243696  0.59142163  1
  As  As19  1  0.50000000  0.03756304  0.40857837  1
  As  As20  1  -0.00000000  0.86084530  0.85887413  1
  As  As21  1  -0.00000000  0.13915470  0.14112587  1
  As  As22  1  -0.00000000  0.36084530  0.64112587  1
  As  As23  1  -0.00000000  0.63915470  0.35887413  1
loop_
_geom_bond_atom_site_label_1
_geom_bond_atom_site_label_2
_geom_bond_distance
_geom_bond_site_symmetry_2
As0 As2 2.547232 1_655
As0 Sr15 3.201190 1_655
As0 Sr14 3.201190 1_654
As0 Sr1 3.205230 1_655
As0 Sr0 3.205230 1_654
As0 Sr17 3.229293 1_555
As0 Sr16 3.229293 1_554
As0 Sr4 3.705273 1_554
As0 Sr5 3.705273 1_555
As1 As3 2.547232 1_455
As1 Sr12 3.201190 1_545
As1 Sr13 3.201190 1_555
As1 Sr3 3.205230 1_545
As1 Sr2 3.205230 1_555
As1 Sr18 3.229293 1_555
As1 Sr19 3.229293 1_545
As1 Sr6 3.705273 1_545
As1 Sr7 3.705273 1_555
As2 Sr15 3.201190 1_555
As2 Sr14 3.201190 1_554
As2 Sr1 3.205230 1_555
As2 Sr0 3.205230 1_554
As2 Sr21 3.229293 1_554
As2 Sr20 3.229293 1_555
As2 Sr9 3.705273 1_554
As2 Sr8 3.705273 1_555
As3 Sr13 3.201190 1_655
As3 Sr12 3.201190 1_645
As3 Sr3 3.205230 1_645
As3 Sr2 3.205230 1_655
As3 Sr22 3.229293 1_545
As3 Sr23 3.229293 1_555
As3 Sr11 3.705273 1_545
As3 Sr10 3.705273 1_555
As4 Sr16 3.091766 1_555
As4 Sr21 3.091766 1_555
As4 Sr25 3.164254 1_556
As4 Sr6 3.168438 1_555
As4 Sr11 3.168438 1_555
As4 Sr24 3.182820 1_565
As5 Sr17 3.091766 1_555
As5 Sr20 3.091766 1_555
As5 Sr24 3.164254 1_554
As5 Sr10 3.168438 1_555
As5 Sr7 3.168438 1_555
As5 Sr25 3.182820 1_545
As6 Sr23 3.091766 1_555
As6 Sr18 3.091766 1_555
As6 Sr27 3.164254 1_555
As6 Sr4 3.168438 1_555
As6 Sr9 3.168438 1_555
As6 Sr26 3.182820 1_555
As7 Sr22 3.091766 1_555
As7 Sr19 3.091766 1_555
As7 Sr26 3.164254 1_555
As7 Sr5 3.168438 1_555
As7 Sr8 3.168438 1_555
As7 Sr27 3.182820 1_555
As8 Sr25 3.020149 1_555
As8 Sr3 3.068528 1_555
As8 Sr30 3.070715 1_565
As8 Sr8 3.087731 1_555
As8 Sr15 3.182307 1_555
As8 Sr7 3.387941 1_565
As8 Sr19 3.442896 1_555
As9 Sr24 3.020149 1_555
As9 Sr2 3.068528 1_555
As9 Sr30 3.070715 1_556
As9 Sr9 3.087731 1_555
As9 Sr14 3.182307 1_555
As9 Sr6 3.387941 1_545
As9 Sr18 3.442896 1_555
As10 Sr27 3.020149 1_555
As10 Sr1 3.068528 1_655
As10 Sr31 3.070715 1_555
As10 Sr10 3.087731 1_555
As10 Sr13 3.182307 1_655
As10 Sr5 3.387941 1_555
As10 Sr17 3.442896 1_555
As11 Sr26 3.020149 1_555
As11 Sr0 3.068528 1_655
As11 Sr31 3.070715 1_555
As11 Sr11 3.087731 1_555
As11 Sr12 3.182307 1_655
As11 Sr4 3.387941 1_555
As11 Sr16 3.442896 1_555
As12 Sr24 3.020149 1_555
As12 Sr2 3.068528 1_655
As12 Sr28 3.070715 1_556
As12 Sr4 3.087731 1_555
As12 Sr14 3.182307 1_655
As12 Sr11 3.387941 1_545
As12 Sr23 3.442896 1_555
As13 Sr25 3.020149 1_555
As13 Sr3 3.068528 1_655
As13 Sr28 3.070715 1_565
As13 Sr5 3.087731 1_555
As13 Sr15 3.182307 1_655
As13 Sr10 3.387941 1_565
As13 Sr22 3.442896 1_555
As14 Sr26 3.020149 1_555
As14 Sr0 3.068528 1_555
As14 Sr29 3.070715 1_555
As14 Sr6 3.087731 1_555
As14 Sr12 3.182307 1_555
As14 Sr9 3.387941 1_555
As14 Sr21 3.442896 1_555
As15 Sr27 3.020149 1_555
As15 Sr1 3.068528 1_555
As15 Sr29 3.070715 1_555
As15 Sr7 3.087731 1_555
As15 Sr13 3.182307 1_555
As15 Sr8 3.387941 1_555
As15 Sr20 3.442896 1_555
As16 As17 2.526609 1_556
As16 Sr9 3.163087 1_555
As16 Sr4 3.163087 1_555
As16 Sr16 3.252090 1_555
As16 Sr21 3.252090 1_555
As16 Sr17 3.276309 1_556
As16 Sr20 3.276309 1_556
As17 Sr8 3.163087 1_555
As17 Sr5 3.163087 1_555
As17 Sr20 3.252090 1_555
As17 Sr17 3.252090 1_555
As17 Sr16 3.276309 1_554
As17 Sr21 3.276309 1_554
As18 As19 2.526609 1_565
As18 Sr11 3.163087 1_555
As18 Sr6 3.163087 1_555
As18 Sr23 3.252090 1_565
As18 Sr18 3.252090 1_565
As18 Sr19 3.276309 1_555
As18 Sr22 3.276309 1_555
As19 Sr10 3.163087 1_555
As19 Sr7 3.163087 1_555
As19 Sr22 3.252090 1_545
As19 Sr19 3.252090 1_545
As19 Sr23 3.276309 1_555
As19 Sr18 3.276309 1_555
As20 Sr28 3.202318 1_466
As20 Sr30 3.202318 1_566
As20 Sr15 3.262443 1_556
As20 Sr0 3.265930 1_555
As20 Sr11 3.470246 1_455
As20 Sr6 3.470246 1_555
As20 Sr2 3.551127 1_565
As20 Sr12 3.774430 1_555
As21 Sr28 3.202318 1_455
As21 Sr30 3.202318 1_555
As21 Sr14 3.262443 1_554
As21 Sr1 3.265930 1_555
As21 Sr10 3.470246 1_455
As21 Sr7 3.470246 1_555
As21 Sr3 3.551127 1_545
As21 Sr13 3.774430 1_555
As22 Sr31 3.202318 1_455
As22 Sr29 3.202318 1_555
As22 Sr13 3.262443 1_555
As22 Sr2 3.265930 1_555
As22 Sr4 3.470246 1_455
As22 Sr9 3.470246 1_555
As22 Sr0 3.551127 1_555
As22 Sr14 3.774430 1_555
As23 Sr31 3.202318 1_455
As23 Sr29 3.202318 1_555
As23 Sr12 3.262443 1_555
As23 Sr3 3.265930 1_555
As23 Sr5 3.470246 1_455
As23 Sr8 3.470246 1_555
As23 Sr1 3.551127 1_555
As23 Sr15 3.774430 1_555
