# generated using pymatgen
data_Sn15Os3O14
_symmetry_space_group_name_H-M   'P 1'
_cell_length_a   7.18387218
_cell_length_b   7.18387218
_cell_length_c   13.01650792
_cell_angle_alpha   74.02225514
_cell_angle_beta   74.02225514
_cell_angle_gamma   59.54681296
_symmetry_Int_Tables_number   1
_chemical_formula_structural   Sn15Os3O14
_chemical_formula_sum   'Sn15 Os3 O14'
_cell_volume   549.19283738
_cell_formula_units_Z   1
loop_
 _symmetry_equiv_pos_site_id
 _symmetry_equiv_pos_as_xyz
  1  'x, y, z'
loop_
 _atom_site_type_symbol
 _atom_site_label
 _atom_site_symmetry_multiplicity
 _atom_site_fract_x
 _atom_site_fract_y
 _atom_site_fract_z
 _atom_site_occupancy
  Sn  Sn0  1  0.32807915  0.85317250  0.08894169  1
  Sn  Sn1  1  0.42355344  0.90509488  0.34671365  1
  Sn  Sn2  1  0.90509488  0.42355344  0.34671365  1
  Sn  Sn3  1  0.98596036  0.98596036  0.61821560  1
  Sn  Sn4  1  0.09082215  0.57103642  0.83797467  1
  Sn  Sn5  1  0.57103642  0.09082215  0.83797467  1
  Sn  Sn6  1  0.84965063  0.84965063  0.08060628  1
  Sn  Sn7  1  0.55704487  0.55704487  0.87323944  1
  Sn  Sn8  1  0.90478472  0.90478472  0.34138672  1
  Sn  Sn9  1  0.99575630  0.51091931  0.57433806  1
  Sn  Sn10  1  0.51091931  0.99575630  0.57433806  1
  Sn  Sn11  1  0.51298172  0.51298172  0.57904736  1
  Sn  Sn12  1  0.09683112  0.09683112  0.82217968  1
  Sn  Sn13  1  0.85317250  0.32807915  0.08894169  1
  Sn  Sn14  1  0.32093371  0.32093371  0.11101026  1
  Os  Os0  1  0.71118107  0.71118107  0.96545891  1
  Os  Os1  1  0.11582969  0.11582969  0.23180220  1
  Os  Os2  1  0.30213236  0.30213236  0.69390583  1
  O  O0  1  0.77603428  0.77603428  0.25197696  1
  O  O1  1  0.76309058  0.25697168  0.81681833  1
  O  O2  1  0.25697168  0.76309058  0.81681833  1
  O  O3  1  0.02063612  0.57627355  0.40737907  1
  O  O4  1  0.57627355  0.02063612  0.40737907  1
  O  O5  1  0.65632967  0.65632967  0.63030804  1
  O  O6  1  0.57764177  0.57764177  0.41111019  1
  O  O7  1  0.37622258  0.37622258  0.94284211  1
  O  O8  1  0.87746084  0.87746084  0.52604051  1
  O  O9  1  0.04131946  0.04131946  0.98976610  1
  O  O10  1  0.30486277  0.87701231  0.53266522  1
  O  O11  1  0.87701231  0.30486277  0.53266522  1
  O  O12  1  0.18205493  0.64703105  0.11395522  1
  O  O13  1  0.64703105  0.18205493  0.11395522  1
loop_
_geom_bond_atom_site_label_1
_geom_bond_atom_site_label_2
_geom_bond_distance
_geom_bond_site_symmetry_2
Os0 Sn7 2.568940 1_555
Os0 Sn13 2.611498 1_556
Os0 Sn0 2.611498 1_556
Os0 Sn4 2.617300 1_655
Os0 Sn5 2.617300 1_565
Os0 Sn6 2.621099 1_556
Os1 Sn14 2.542452 1_555
Os1 Sn8 2.565301 1_445
Os1 Sn1 2.568542 1_545
Os1 Sn2 2.568542 1_455
Os1 Sn0 2.607205 1_545
Os1 Sn13 2.607205 1_455
Os2 Sn12 2.575224 1_555
Os2 Sn11 2.579962 1_555
Os2 Sn10 2.602024 1_545
Os2 Sn9 2.602024 1_455
Os2 Sn4 2.647146 1_555
Os2 Sn5 2.647146 1_555
O0 Sn6 2.125975 1_555
O0 Sn8 2.262258 1_555
O0 Sn2 2.307108 1_555
O0 Sn1 2.307108 1_555
O1 Sn12 2.080529 1_655
O1 Sn7 2.101423 1_555
O1 Sn5 2.164080 1_555
O2 Sn12 2.080529 1_565
O2 Sn7 2.101423 1_555
O2 Sn4 2.164080 1_555
O3 Sn2 2.068105 1_455
O3 Sn9 2.069970 1_455
O3 Sn8 2.070414 1_455
O4 Sn1 2.068105 1_545
O4 Sn10 2.069970 1_545
O4 Sn8 2.070414 1_545
O5 Sn11 2.097063 1_555
O5 Sn10 2.103983 1_555
O5 Sn9 2.103983 1_555
O6 Sn1 2.060914 1_555
O6 Sn2 2.060914 1_555
O6 Sn11 2.076210 1_555
O7 Sn14 2.075981 1_556
O7 Sn7 2.147161 1_555
O7 Sn4 2.367689 1_555
O7 Sn5 2.367689 1_555
O8 Sn3 2.073672 1_555
O8 Sn10 2.272785 1_555
O8 Sn9 2.272785 1_555
O8 Sn8 2.318121 1_555
O9 Sn12 2.068794 1_555
O9 Sn6 2.306331 1_446
O9 Sn0 2.327692 1_546
O9 Sn13 2.327692 1_456
O10 Sn3 2.087787 1_455
O10 Sn11 2.259026 1_555
O10 Sn10 2.278146 1_555
O10 Sn1 2.322846 1_555
O11 Sn3 2.087787 1_545
O11 Sn11 2.259026 1_555
O11 Sn9 2.278146 1_555
O11 Sn2 2.322846 1_555
O12 Sn14 2.035690 1_555
O12 Sn0 2.126203 1_555
O12 Sn6 2.170001 1_455
O13 Sn14 2.035690 1_555
O13 Sn13 2.126203 1_555
O13 Sn6 2.170001 1_545
