# generated using pymatgen
data_BiOF
_symmetry_space_group_name_H-M   'P 1'
_cell_length_a   5.36318193
_cell_length_b   5.31881180
_cell_length_c   6.17485370
_cell_angle_alpha   89.29951580
_cell_angle_beta   90.00000000
_cell_angle_gamma   90.00000000
_symmetry_Int_Tables_number   1
_chemical_formula_structural   BiOF
_chemical_formula_sum   'Bi4 O4 F4'
_cell_volume   176.12920235
_cell_formula_units_Z   4
loop_
 _symmetry_equiv_pos_site_id
 _symmetry_equiv_pos_as_xyz
  1  'x, y, z'
loop_
 _atom_site_type_symbol
 _atom_site_label
 _atom_site_symmetry_multiplicity
 _atom_site_fract_x
 _atom_site_fract_y
 _atom_site_fract_z
 _atom_site_occupancy
  Bi  Bi0  1  0.51586918  0.25742676  0.29218276  1
  Bi  Bi1  1  0.98413082  0.75742676  0.29218276  1
  Bi  Bi2  1  0.01586918  0.24257324  0.70781724  1
  Bi  Bi3  1  0.48413082  0.74257324  0.70781724  1
  O  O0  1  0.25061004  0.00078095  0.49421850  1
  O  O1  1  0.24938996  0.50078095  0.49421850  1
  O  O2  1  0.75061004  0.49921905  0.50578150  1
  O  O3  1  0.74938996  0.99921905  0.50578150  1
  F  F0  1  0.95080247  0.23906245  0.14647398  1
  F  F1  1  0.54919753  0.73906245  0.14647398  1
  F  F2  1  0.45080247  0.26093755  0.85352602  1
  F  F3  1  0.04919753  0.76093755  0.85352602  1
loop_
_geom_bond_atom_site_label_1
_geom_bond_atom_site_label_2
_geom_bond_distance
_geom_bond_site_symmetry_2
Bi0 O2 2.240530 1_555
Bi0 O3 2.269355 1_545
Bi0 O1 2.305156 1_555
Bi0 O0 2.324213 1_555
Bi0 F0 2.502469 1_555
Bi0 F1 2.710640 1_555
Bi0 F2 2.730865 1_554
Bi1 O3 2.240530 1_555
Bi1 O2 2.269355 1_555
Bi1 O0 2.305156 1_665
Bi1 O1 2.324213 1_655
Bi1 F1 2.502469 1_555
Bi1 F0 2.710640 1_565
Bi1 F3 2.730865 1_654
Bi2 O0 2.240530 1_555
Bi2 O1 2.269355 1_555
Bi2 O3 2.305156 1_445
Bi2 O2 2.324213 1_455
Bi2 F2 2.502469 1_555
Bi2 F3 2.710640 1_545
Bi2 F0 2.730865 1_456
Bi3 O1 2.240530 1_555
Bi3 O0 2.269355 1_565
Bi3 O2 2.305156 1_555
Bi3 O3 2.324213 1_555
Bi3 F3 2.502469 1_555
Bi3 F2 2.710640 1_555
Bi3 F1 2.730865 1_556
