# generated using pymatgen
data_Sr2YMgTlFe2O7
_symmetry_space_group_name_H-M   'P 1'
_cell_length_a   3.91839900
_cell_length_b   3.91840202
_cell_length_c   14.35678909
_cell_angle_alpha   89.98772750
_cell_angle_beta   89.99513427
_cell_angle_gamma   89.99812808
_symmetry_Int_Tables_number   1
_chemical_formula_structural   Sr2YMgTlFe2O7
_chemical_formula_sum   'Sr2 Y1 Mg1 Tl1 Fe2 O7'
_cell_volume   220.43216096
_cell_formula_units_Z   1
loop_
 _symmetry_equiv_pos_site_id
 _symmetry_equiv_pos_as_xyz
  1  'x, y, z'
loop_
 _atom_site_type_symbol
 _atom_site_label
 _atom_site_symmetry_multiplicity
 _atom_site_fract_x
 _atom_site_fract_y
 _atom_site_fract_z
 _atom_site_occupancy
  Sr  Sr0  1  0.49998900  0.50013200  0.83552100  1
  Sr  Sr1  1  0.50000900  0.49999800  0.16453100  1
  Y  Y0  1  0.49999300  0.49994500  0.49996600  1
  Mg  Mg0  1  0.99998500  0.99991500  0.50003000  1
  Tl  Tl0  1  0.99999200  0.99999700  0.00001300  1
  Fe  Fe0  1  0.00016600  0.00033600  0.67341100  1
  Fe  Fe1  1  0.99995500  0.99972300  0.32658400  1
  O  O0  1  0.49995600  0.99991500  0.59141300  1
  O  O1  1  0.99999800  0.49991200  0.59142800  1
  O  O2  1  0.50000900  0.00000500  0.40853200  1
  O  O3  1  0.00000100  0.50009900  0.40854700  1
  O  O4  1  0.99993500  0.99994500  0.80719400  1
  O  O5  1  0.00000900  0.00007600  0.19279600  1
  O  O6  1  0.50000400  0.50000100  0.00003500  1
loop_
_geom_bond_atom_site_label_1
_geom_bond_atom_site_label_2
_geom_bond_distance
_geom_bond_site_symmetry_2
Mg0 O1 2.357803 1_555
Mg0 O0 2.357904 1_655
Mg0 O0 2.357907 1_555
Mg0 O1 2.358250 1_565
Mg0 O3 2.358341 1_655
Mg0 O2 2.358810 1_665
Mg0 O2 2.358839 1_565
Mg0 O3 2.359071 1_665
Fe0 O4 1.920695 1_445
Fe0 O1 2.283929 1_455
Fe0 O0 2.284889 1_545
Fe0 O0 2.286471 1_445
Fe0 O1 2.287210 1_445
Fe1 O5 1.920766 1_665
Fe1 O3 2.283943 1_655
Fe1 O2 2.285043 1_565
Fe1 O2 2.285577 1_665
Fe1 O3 2.286901 1_665
O0 Y0 2.358282 1_565
O0 Y0 2.358554 1_555
O1 Y0 2.358428 1_655
O1 Y0 2.358646 1_555
O2 Y0 2.358276 1_545
O2 Y0 2.358353 1_555
O3 Y0 2.358127 1_455
O3 Y0 2.358260 1_555
O4 Tl0 2.768262 1_556
O4 Sr0 2.799714 1_555
O4 Sr0 2.799969 1_655
O4 Sr0 2.800772 1_565
O4 Sr0 2.801206 1_665
O5 Tl0 2.767745 1_445
O5 Sr1 2.799991 1_455
O5 Sr1 2.800032 1_555
O5 Sr1 2.800492 1_545
O5 Sr1 2.800629 1_445
O6 Sr1 2.361634 1_555
O6 Sr0 2.361893 1_554
O6 Tl0 2.770660 1_545
O6 Tl0 2.770704 1_455
O6 Tl0 2.770728 1_555
O6 Tl0 2.770817 1_445
