# generated using pymatgen
data_YCo(WO4)2
_symmetry_space_group_name_H-M   'P 1'
_cell_length_a   5.09180987
_cell_length_b   6.06633583
_cell_length_c   6.20629237
_cell_angle_alpha   108.52239775
_cell_angle_beta   117.18666585
_cell_angle_gamma   89.85008671
_symmetry_Int_Tables_number   1
_chemical_formula_structural   YCo(WO4)2
_chemical_formula_sum   'Y1 Co1 W2 O8'
_cell_volume   159.36642233
_cell_formula_units_Z   1
loop_
 _symmetry_equiv_pos_site_id
 _symmetry_equiv_pos_as_xyz
  1  'x, y, z'
loop_
 _atom_site_type_symbol
 _atom_site_label
 _atom_site_symmetry_multiplicity
 _atom_site_fract_x
 _atom_site_fract_y
 _atom_site_fract_z
 _atom_site_occupancy
  Y  Y0  1  0.62358600  0.72249100  0.09886500  1
  Co  Co0  1  0.13539600  0.22868200  0.10590600  1
  W  W0  1  0.86276800  0.38821200  0.58032500  1
  W  W1  1  0.38545100  0.05700300  0.61836100  1
  O  O0  1  0.13019700  0.65523800  0.82639200  1
  O  O1  1  0.59752200  0.49785200  0.33189000  1
  O  O2  1  0.16441800  0.19061700  0.79658000  1
  O  O3  1  0.57337600  0.05384600  0.39414600  1
  O  O4  1  0.64772400  0.94641700  0.86533300  1
  O  O5  1  0.11665000  0.79126400  0.37159400  1
  O  O6  1  0.08426200  0.25572300  0.40243300  1
  O  O7  1  0.67464900  0.39115400  0.80427000  1
loop_
_geom_bond_atom_site_label_1
_geom_bond_atom_site_label_2
_geom_bond_distance
_geom_bond_site_symmetry_2
Co0 O6 1.930633 1_555
Co0 O2 1.933408 1_554
Co0 O1 2.391572 1_555
Co0 O4 2.517400 1_444
Co0 O3 2.616500 1_555
Co0 O7 2.669610 1_454
O0 W0 1.830299 1_455
O0 Y0 2.241080 1_556
O1 W0 1.840590 1_555
O1 Y0 2.322651 1_555
O2 W1 1.926185 1_555
O2 W0 2.173958 1_455
O3 W1 2.012979 1_555
O3 W0 2.142764 1_555
O3 Y0 2.355697 1_545
O4 W1 1.833312 1_565
O4 Y0 2.318535 1_556
O5 W1 1.828953 1_565
O5 Y0 2.239602 1_455
O6 W0 1.925128 1_455
O6 W1 2.177108 1_555
O7 W0 2.012520 1_555
O7 W1 2.141439 1_555
O7 Y0 2.355271 1_556
