# generated using pymatgen
data_Na10Ca4Ti4Si5S7O48
_symmetry_space_group_name_H-M   'P 1'
_cell_length_a   18.39789307
_cell_length_b   9.19587953
_cell_length_c   22.73448025
_cell_angle_alpha   89.65124084
_cell_angle_beta   91.49498543
_cell_angle_gamma   119.97202163
_symmetry_Int_Tables_number   1
_chemical_formula_structural   Na10Ca4Ti4Si5S7O48
_chemical_formula_sum   'Na30 Ca12 Ti12 Si15 S21 O144'
_cell_volume   3330.71573486
_cell_formula_units_Z   3
loop_
 _symmetry_equiv_pos_site_id
 _symmetry_equiv_pos_as_xyz
  1  'x, y, z'
loop_
 _atom_site_type_symbol
 _atom_site_label
 _atom_site_symmetry_multiplicity
 _atom_site_fract_x
 _atom_site_fract_y
 _atom_site_fract_z
 _atom_site_occupancy
  Na  Na0  1  0.33147979  0.02554873  0.24999200  1
  Na  Na1  1  0.67857593  0.34873339  0.25582343  1
  Na  Na2  1  0.99653853  0.63119128  0.24399157  1
  Na  Na3  1  0.49699713  0.62676748  0.24174351  1
  Na  Na4  1  0.32705601  0.62986325  0.75273244  1
  Na  Na5  1  0.82740298  0.63011616  0.75128376  1
  Na  Na6  1  0.99575041  0.36527332  0.74156544  1
  Na  Na7  1  0.49567457  0.36501114  0.74202731  1
  Na  Na8  1  0.17741383  0.00835970  0.75514067  1
  Na  Na9  1  0.67852117  0.00898160  0.75439101  1
  Na  Na10  1  0.33401136  0.96461342  0.57650347  1
  Na  Na11  1  0.83429450  0.96614390  0.57520332  1
  Na  Na12  1  0.33498491  0.70427446  0.07638729  1
  Na  Na13  1  0.83221399  0.69946994  0.07568121  1
  Na  Na14  1  0.48738415  0.68131110  0.90885664  1
  Na  Na15  1  0.98794196  0.68164623  0.90779530  1
  Na  Na16  1  0.49087021  0.29710489  0.40586888  1
  Na  Na17  1  0.16374969  0.03019144  0.41035945  1
  Na  Na18  1  0.98659036  0.99834332  0.49807538  1
  Na  Na19  1  0.49866451  0.99164841  0.49837277  1
  Na  Na20  1  0.99587895  0.00804574  0.99525125  1
  Na  Na21  1  0.49439932  0.00006558  0.99931735  1
  Na  Na22  1  0.32687779  0.33273265  0.83239008  1
  Na  Na23  1  0.82813928  0.33356275  0.83095113  1
  Na  Na24  1  0.32789367  0.33461919  0.32556565  1
  Na  Na25  1  0.82248885  0.30166516  0.33509839  1
  Na  Na26  1  0.15340846  0.65239879  0.16137666  1
  Na  Na27  1  0.65344435  0.67023362  0.16297877  1
  Na  Na28  1  0.14878191  0.63935678  0.66123696  1
  Na  Na29  1  0.65182892  0.64254885  0.65985870  1
  Ca  Ca0  1  0.99534688  0.00389571  0.35216573  1
  Ca  Ca1  1  0.49948461  0.99649136  0.35322235  1
  Ca  Ca2  1  0.99874938  0.00151679  0.85251473  1
  Ca  Ca3  1  0.49876385  0.00125758  0.85307287  1
  Ca  Ca4  1  0.33618090  0.34091761  0.68088868  1
  Ca  Ca5  1  0.83621870  0.34149385  0.68021025  1
  Ca  Ca6  1  0.33299002  0.32998538  0.18321720  1
  Ca  Ca7  1  0.83444536  0.32128191  0.18331518  1
  Ca  Ca8  1  0.16549242  0.67060707  0.01853163  1
  Ca  Ca9  1  0.66422327  0.67026705  0.01923705  1
  Ca  Ca10  1  0.16197129  0.65156753  0.51868555  1
  Ca  Ca11  1  0.66552261  0.65948569  0.51827721  1
  Ti  Ti0  1  0.01523093  0.01586426  0.64792497  1
  Ti  Ti1  1  0.51697186  0.01794178  0.64816737  1
  Ti  Ti2  1  0.01041092  0.99557471  0.14565956  1
  Ti  Ti3  1  0.51458375  0.01312433  0.14926774  1
  Ti  Ti4  1  0.33374278  0.35666550  0.98401180  1
  Ti  Ti5  1  0.83324892  0.35494302  0.98284773  1
  Ti  Ti6  1  0.34297736  0.32913297  0.48195897  1
  Ti  Ti7  1  0.83900267  0.31510373  0.48109515  1
  Ti  Ti8  1  0.17184168  0.68483376  0.31723048  1
  Ti  Ti9  1  0.67360608  0.68780033  0.31043459  1
  Ti  Ti10  1  0.16599007  0.65031617  0.81367800  1
  Ti  Ti11  1  0.66608253  0.65018514  0.81352699  1
  Si  Si0  1  0.14778984  0.99387769  0.25610355  1
  Si  Si1  1  0.64976109  0.00123184  0.25342213  1
  Si  Si2  1  0.50569643  0.30118347  0.25256622  1
  Si  Si3  1  0.14821413  0.29837921  0.75225311  1
  Si  Si4  1  0.64878495  0.29891960  0.75259575  1
  Si  Si5  1  0.00474464  0.71034344  0.75284609  1
  Si  Si6  1  0.50514614  0.71102028  0.75280347  1
  Si  Si7  1  0.48535272  0.32054880  0.58906922  1
  Si  Si8  1  0.98353129  0.31979182  0.58916927  1
  Si  Si9  1  0.48347524  0.64695430  0.08916382  1
  Si  Si10  1  0.98227536  0.63407249  0.08856589  1
  Si  Si11  1  0.31267835  0.66321169  0.92193561  1
  Si  Si12  1  0.81251282  0.66494503  0.92200296  1
  Si  Si13  1  0.31544026  0.96805729  0.42379836  1
  Si  Si14  1  0.81265439  0.96125426  0.42192880  1
  S  S0  1  0.34634272  0.70730837  0.24962331  1
  S  S1  1  0.84999432  0.71028048  0.24707443  1
  S  S2  1  0.00840035  0.30246484  0.24846543  1
  S  S3  1  0.34721353  0.98685826  0.74800778  1
  S  S4  1  0.84734488  0.98725687  0.74819148  1
  S  S5  1  0.18315130  0.04215456  0.58204996  1
  S  S6  1  0.68385041  0.04287807  0.58328327  1
  S  S7  1  0.33997573  0.63461552  0.58196614  1
  S  S8  1  0.83998403  0.63768457  0.58333401  1
  S  S9  1  0.33949016  0.04547164  0.08301268  1
  S  S10  1  0.84096219  0.04458224  0.08184969  1
  S  S11  1  0.18204675  0.32100348  0.08281989  1
  S  S12  1  0.68474234  0.32389051  0.08315203  1
  S  S13  1  0.01557779  0.37778754  0.91550704  1
  S  S14  1  0.51594995  0.37809064  0.91520913  1
  S  S15  1  0.17415921  0.97053953  0.91502868  1
  S  S16  1  0.67485433  0.97175908  0.91525386  1
  S  S17  1  0.17387686  0.38026878  0.41492828  1
  S  S18  1  0.67477649  0.37784879  0.41526232  1
  S  S19  1  0.01601104  0.65391792  0.41439092  1
  S  S20  1  0.51492664  0.65301679  0.41614139  1
  O  O0  1  0.10582510  0.00654279  0.31387226  1
  O  O1  1  0.60404595  0.02098863  0.30736938  1
  O  O2  1  0.39815683  0.78155713  0.30240207  1
  O  O3  1  0.90268646  0.78557767  0.29938973  1
  O  O4  1  0.48407983  0.19028446  0.31063942  1
  O  O5  1  0.99729943  0.20853639  0.30213058  1
  O  O6  1  0.10589728  0.18351280  0.80642754  1
  O  O7  1  0.60529822  0.18307960  0.80622532  1
  O  O8  1  0.48377084  0.77782371  0.81058453  1
  O  O9  1  0.98391431  0.77750373  0.81087070  1
  O  O10  1  0.39990834  0.02114200  0.80095257  1
  O  O11  1  0.89955072  0.02113374  0.80136959  1
  O  O12  1  0.38730713  0.96404449  0.69518070  1
  O  O13  1  0.88774873  0.96450421  0.69562587  1
  O  O14  1  0.08455423  0.20165817  0.69137760  1
  O  O15  1  0.58548767  0.20303546  0.69122195  1
  O  O16  1  0.01886923  0.84897022  0.69635792  1
  O  O17  1  0.51931265  0.84989070  0.69605359  1
  O  O18  1  0.38498002  0.81370145  0.19638462  1
  O  O19  1  0.88955296  0.81212688  0.19317231  1
  O  O20  1  0.01400025  0.21078181  0.19585196  1
  O  O21  1  0.51788432  0.18671924  0.19638568  1
  O  O22  1  0.08010873  0.96927391  0.19621012  1
  O  O23  1  0.58473742  0.96805285  0.19200452  1
  O  O24  1  0.44097801  0.33067445  0.64637527  1
  O  O25  1  0.94164024  0.33049815  0.64782526  1
  O  O26  1  0.23036566  0.11508876  0.63711597  1
  O  O27  1  0.72841496  0.11107663  0.63952538  1
  O  O28  1  0.32887950  0.54853902  0.63825401  1
  O  O29  1  0.82946830  0.55176622  0.63986613  1
  O  O30  1  0.43921384  0.54762611  0.14665782  1
  O  O31  1  0.93978631  0.54518160  0.14780489  1
  O  O32  1  0.32927540  0.11170812  0.13875445  1
  O  O33  1  0.82924616  0.11338275  0.13592404  1
  O  O34  1  0.23020521  0.34407597  0.13685275  1
  O  O35  1  0.73187583  0.34593657  0.13815236  1
  O  O36  1  0.22505067  0.29848567  0.03065526  1
  O  O37  1  0.73040480  0.30374092  0.03188529  1
  O  O38  1  0.41147963  0.52630400  0.02928701  1
  O  O39  1  0.91225707  0.52567194  0.02980849  1
  O  O40  1  0.34194959  0.15207212  0.03210774  1
  O  O41  1  0.84649300  0.14990312  0.02986569  1
  O  O42  1  0.22671090  0.15067146  0.52992970  1
  O  O43  1  0.72900450  0.15428897  0.53282625  1
  O  O44  1  0.34309949  0.53079004  0.53190928  1
  O  O45  1  0.84350534  0.53847916  0.53320402  1
  O  O46  1  0.41469406  0.30214588  0.52858130  1
  O  O47  1  0.91223550  0.29779108  0.53033186  1
  O  O48  1  0.27384637  0.67474849  0.98154050  1
  O  O49  1  0.77339216  0.67536909  0.98150733  1
  O  O50  1  0.06533013  0.45713206  0.96815666  1
  O  O51  1  0.56606633  0.45764796  0.96775739  1
  O  O52  1  0.16136413  0.86447787  0.96620307  1
  O  O53  1  0.66241259  0.86569886  0.96625605  1
  O  O54  1  0.26994839  0.87081922  0.48069813  1
  O  O55  1  0.77462536  0.87486046  0.48237455  1
  O  O56  1  0.16264171  0.45047303  0.46855117  1
  O  O57  1  0.66149825  0.45813979  0.46577299  1
  O  O58  1  0.06816043  0.68034193  0.46684998  1
  O  O59  1  0.56439706  0.67271792  0.46892380  1
  O  O60  1  0.05881671  0.63304203  0.36066226  1
  O  O61  1  0.55361365  0.62674787  0.36223474  1
  O  O62  1  0.24806369  0.85944828  0.36292818  1
  O  O63  1  0.74544758  0.84813675  0.36316519  1
  O  O64  1  0.17876311  0.48788106  0.36265694  1
  O  O65  1  0.68173575  0.47636417  0.36004863  1
  O  O66  1  0.05891323  0.48428634  0.86129590  1
  O  O67  1  0.55943670  0.48525837  0.86092926  1
  O  O68  1  0.18080907  0.88477589  0.86038368  1
  O  O69  1  0.68272574  0.88850804  0.86051565  1
  O  O70  1  0.24759352  0.64206975  0.86198917  1
  O  O71  1  0.74770555  0.64254299  0.86215048  1
  O  O72  1  0.00696217  0.80323960  0.40817317  1
  O  O73  1  0.49757630  0.78994685  0.41132742  1
  O  O74  1  0.41010140  0.01100757  0.41807401  1
  O  O75  1  0.90592356  0.99898751  0.41373440  1
  O  O76  1  0.10309756  0.20668736  0.40874866  1
  O  O77  1  0.60007927  0.20799435  0.41137495  1
  O  O78  1  0.00062322  0.20788291  0.91054118  1
  O  O79  1  0.50112208  0.20860335  0.91003632  1
  O  O80  1  0.09958069  0.99103071  0.91101459  1
  O  O81  1  0.60047207  0.99221982  0.91104527  1
  O  O82  1  0.40845716  0.80844350  0.91610889  1
  O  O83  1  0.90865093  0.80895340  0.91644807  1
  O  O84  1  0.48164426  0.13299765  0.58985857  1
  O  O85  1  0.98146335  0.13347757  0.59034026  1
  O  O86  1  0.09807634  0.02965363  0.58459645  1
  O  O87  1  0.59835947  0.03081126  0.58496429  1
  O  O88  1  0.41950522  0.80135746  0.58305047  1
  O  O89  1  0.91921477  0.80665433  0.58538425  1
  O  O90  1  0.48143872  0.82966532  0.09061908  1
  O  O91  1  0.98334447  0.82526897  0.09240757  1
  O  O92  1  0.41890118  0.03624540  0.08451289  1
  O  O93  1  0.92084193  0.03417736  0.08607567  1
  O  O94  1  0.09656315  0.16246737  0.08628111  1
  O  O95  1  0.60015317  0.16655333  0.08465617  1
  O  O96  1  0.32915798  0.12633778  0.74240989  1
  O  O97  1  0.82926824  0.12659568  0.74258136  1
  O  O98  1  0.24235463  0.33405925  0.74519793  1
  O  O99  1  0.74267952  0.33387419  0.74561364  1
  O  O100  1  0.42888642  0.52100112  0.74420275  1
  O  O101  1  0.92832644  0.52017803  0.74470647  1
  O  O102  1  0.33206884  0.53657875  0.24359070  1
  O  O103  1  0.83592745  0.53722810  0.24243783  1
  O  O104  1  0.42890886  0.33783918  0.24447013  1
  O  O105  1  0.93706708  0.33455431  0.24347522  1
  O  O106  1  0.24268633  0.13574932  0.24712130  1
  O  O107  1  0.73978068  0.16495326  0.24709160  1
  O  O108  1  0.31683537  0.47658741  0.92656658  1
  O  O109  1  0.81705303  0.47762776  0.92711556  1
  O  O110  1  0.43329606  0.37823067  0.91714480  1
  O  O111  1  0.93279165  0.37787335  0.91730746  1
  O  O112  1  0.25278215  0.13764118  0.92104855  1
  O  O113  1  0.75349122  0.14018868  0.92202923  1
  O  O114  1  0.31546366  0.15750136  0.42638343  1
  O  O115  1  0.81659175  0.15547192  0.42665605  1
  O  O116  1  0.25342866  0.37054915  0.41800271  1
  O  O117  1  0.75304961  0.36694694  0.42206863  1
  O  O118  1  0.42995824  0.48589717  0.42088666  1
  O  O119  1  0.93157570  0.49782754  0.41854695  1
  O  O120  1  0.17081396  0.46709762  0.07611160  1
  O  O121  1  0.67534044  0.47202374  0.07629605  1
  O  O122  1  0.07427760  0.66711700  0.08064123  1
  O  O123  1  0.57424678  0.67161997  0.08045481  1
  O  O124  1  0.26818262  0.87074075  0.07801394  1
  O  O125  1  0.77034207  0.87021628  0.07679720  1
  O  O126  1  0.17339668  0.87432071  0.57661327  1
  O  O127  1  0.67287304  0.87415214  0.57728203  1
  O  O128  1  0.26901081  0.66603532  0.57549196  1
  O  O129  1  0.76843562  0.66927242  0.57833428  1
  O  O130  1  0.07422738  0.47729135  0.58126108  1
  O  O131  1  0.57549769  0.47785544  0.58025372  1
  O  O132  1  0.14713049  0.80426928  0.26063676  1
  O  O133  1  0.65115003  0.81751653  0.25850279  1
  O  O134  1  0.26233911  0.70328547  0.25589743  1
  O  O135  1  0.76442778  0.69495271  0.25245336  1
  O  O136  1  0.08724500  0.47346453  0.25237024  1
  O  O137  1  0.59620419  0.48652307  0.25854831  1
  O  O138  1  0.14974641  0.48490615  0.75869594  1
  O  O139  1  0.64993452  0.48494115  0.75872261  1
  O  O140  1  0.09542334  0.70502903  0.76004802  1
  O  O141  1  0.59575919  0.70583575  0.76030669  1
  O  O142  1  0.26392037  0.82461713  0.75370127  1
  O  O143  1  0.76400010  0.82462360  0.75368625  1
loop_
_geom_bond_atom_site_label_1
_geom_bond_atom_site_label_2
_geom_bond_distance
_geom_bond_site_symmetry_2
Na0 O106 2.312495 1_555
Na0 O104 2.517934 1_555
Na0 O134 2.579919 1_545
Na0 O32 2.650894 1_555
Na0 O4 2.766238 1_555
Na0 O18 2.873451 1_545
Na0 O132 2.973818 1_545
Na0 O62 3.016010 1_545
Na1 O137 2.414640 1_555
Na1 O107 2.465908 1_555
Na1 O103 2.550222 1_555
Na1 O65 2.637035 1_555
Na1 O135 2.759713 1_555
Na1 O21 2.863750 1_555
Na1 O1 2.872064 1_555
Na1 O35 2.877814 1_555
Na2 O31 2.361027 1_555
Na2 O105 2.378231 1_555
Na2 O132 2.428824 1_655
Na2 O103 2.631191 1_555
Na2 O136 2.706191 1_655
Na2 O60 2.858511 1_655
Na2 O22 2.911982 1_655
Na2 O3 3.027838 1_555
Na3 O104 2.304124 1_555
Na3 O30 2.336466 1_555
Na3 O133 2.499323 1_555
Na3 O102 2.718193 1_555
Na3 O137 2.729488 1_555
Na3 O61 2.905181 1_555
Na3 O23 2.953692 1_555
Na4 O98 2.369282 1_555
Na4 O100 2.538675 1_555
Na4 O142 2.576333 1_555
Na4 O28 2.717956 1_555
Na4 O8 2.792557 1_555
Na4 O138 2.848308 1_555
Na4 O70 2.945581 1_555
Na4 O12 3.001281 1_555
Na5 O99 2.370366 1_555
Na5 O101 2.526651 1_555
Na5 O143 2.579182 1_555
Na5 O29 2.644117 1_555
Na5 O9 2.807657 1_555
Na5 O139 2.853464 1_555
Na5 O71 2.979876 1_555
Na5 O13 2.983987 1_555
Na6 O25 2.283540 1_555
Na6 O101 2.311791 1_555
Na6 O138 2.494470 1_655
Na6 O97 2.735963 1_555
Na6 O140 2.748114 1_655
Na7 O100 2.309794 1_555
Na7 O24 2.327644 1_555
Na7 O139 2.497297 1_555
Na7 O96 2.735975 1_555
Na7 O141 2.756093 1_555
Na8 O140 2.422699 1_545
Na8 O96 2.463102 1_555
Na8 O98 2.622896 1_555
Na8 O68 2.655226 1_545
Na8 O6 2.811657 1_555
Na8 O16 2.826878 1_545
Na8 O142 2.842422 1_545
Na8 O26 2.874208 1_555
Na9 O141 2.423388 1_545
Na9 O97 2.443765 1_555
Na9 O99 2.615480 1_555
Na9 O69 2.664161 1_545
Na9 O27 2.788848 1_555
Na9 O143 2.830744 1_545
Na9 O17 2.831654 1_545
Na9 O7 2.833264 1_555
Na10 O84 2.372281 1_565
Na10 O128 2.384966 1_555
Na10 O54 2.397987 1_555
Na10 O126 2.640106 1_555
Na10 O88 2.663547 1_555
Na10 O12 2.847443 1_555
Na10 O46 2.909354 1_565
Na11 O55 2.311616 1_555
Na11 O85 2.369031 1_565
Na11 O129 2.371321 1_555
Na11 O89 2.629079 1_555
Na11 O127 2.652229 1_555
Na11 O47 2.840245 1_565
Na11 O13 2.887293 1_555
Na12 O90 2.355646 1_555
Na12 O48 2.358805 1_554
Na12 O124 2.395429 1_555
Na12 O92 2.649515 1_565
Na12 O120 2.701285 1_555
Na12 O38 2.864775 1_555
Na12 O18 2.877278 1_555
Na13 O49 2.334387 1_554
Na13 O125 2.355765 1_555
Na13 O91 2.439324 1_555
Na13 O121 2.583595 1_555
Na13 O93 2.676278 1_565
Na13 O19 2.848786 1_555
Na13 O39 2.874472 1_555
Na14 O82 2.283323 1_555
Na14 O8 2.410532 1_555
Na14 O110 2.454771 1_555
Na14 O81 2.560945 1_555
Na15 O83 2.293783 1_555
Na15 O9 2.381421 1_555
Na15 O111 2.460041 1_555
Na15 O80 2.544489 1_655
Na16 O74 2.305059 1_555
Na16 O4 2.357306 1_555
Na16 O77 2.520874 1_555
Na16 O118 2.521432 1_555
Na16 O61 2.834179 1_555
Na16 O114 2.865607 1_555
Na17 O0 2.376358 1_555
Na17 O76 2.384840 1_555
Na17 O114 2.445681 1_555
Na17 O72 2.580223 1_545
Na17 O116 2.716725 1_555
Na17 O42 2.923846 1_555
Na17 O62 2.928438 1_545
Na18 O75 2.395695 1_555
Na18 O85 2.472291 1_565
Na18 O89 2.546825 1_555
Na18 O86 2.713924 1_665
Na18 O72 2.879824 1_655
Na18 O76 2.909620 1_665
Na19 O74 2.479889 1_565
Na19 O88 2.539311 1_555
Na19 O87 2.555302 1_565
Na19 O84 2.566535 1_565
Na19 O73 2.713384 1_555
Na19 O77 2.790521 1_565
Na20 O83 2.468049 1_545
Na20 O93 2.591027 1_556
Na20 O78 2.626587 1_655
Na20 O94 2.634054 1_656
Na20 O91 2.711299 1_546
Na20 O80 2.797254 1_645
Na21 O82 2.506862 1_545
Na21 O92 2.530116 1_556
Na21 O90 2.536475 1_546
Na21 O95 2.599337 1_556
Na21 O79 2.746173 1_555
Na21 O81 2.861422 1_545
Na22 O98 2.491090 1_555
Na22 O108 2.582162 1_555
Na22 O110 2.591444 1_555
Na22 O112 2.606786 1_555
Na22 O100 2.728877 1_555
Na22 O96 2.814266 1_555
Na23 O99 2.466037 1_555
Na23 O111 2.599263 1_555
Na23 O109 2.627718 1_555
Na23 O113 2.645595 1_555
Na23 O101 2.678445 1_555
Na23 O97 2.783386 1_555
Na24 O106 2.451898 1_555
Na24 O102 2.598286 1_555
Na24 O104 2.641403 1_555
Na24 O116 2.648275 1_555
Na24 O118 2.715113 1_555
Na24 O114 2.751060 1_555
Na25 O107 2.420637 1_555
Na25 O115 2.446182 1_555
Na25 O117 2.610447 1_555
Na25 O119 2.665868 1_555
Na25 O105 2.908345 1_555
Na25 O103 2.937313 1_555
Na26 O122 2.358218 1_555
Na26 O136 2.560751 1_555
Na26 O132 2.696161 1_555
Na26 O120 2.716911 1_555
Na26 O134 2.775530 1_555
Na26 O124 2.829917 1_555
Na27 O123 2.349200 1_555
Na27 O133 2.578782 1_555
Na27 O137 2.642135 1_555
Na27 O135 2.771971 1_555
Na27 O125 2.840851 1_555
Na27 O121 2.861288 1_555
Na28 O130 2.295381 1_555
Na28 O138 2.629001 1_555
Na28 O140 2.664348 1_555
Na28 O126 2.755393 1_555
Na28 O142 2.830902 1_555
Na28 O128 2.903437 1_555
Na29 O131 2.305829 1_555
Na29 O139 2.658488 1_555
Na29 O141 2.712332 1_555
Na29 O127 2.715821 1_555
Na29 O129 2.788027 1_555
Na29 O143 2.823805 1_555
Ca0 O75 2.170983 1_545
Ca0 O5 2.178334 1_555
Ca0 O3 2.208923 1_545
Ca0 O0 2.220917 1_655
Ca0 O76 2.294496 1_655
Ca0 O72 2.328720 1_645
Ca1 O1 2.122940 1_565
Ca1 O4 2.159339 1_565
Ca1 O2 2.225010 1_555
Ca1 O74 2.289995 1_565
Ca1 O73 2.293263 1_555
Ca1 O77 2.294125 1_565
Ca2 O6 2.138887 1_655
Ca2 O9 2.159379 1_545
Ca2 O11 2.220588 1_555
Ca2 O83 2.271037 1_545
Ca2 O80 2.295185 1_645
Ca2 O78 2.303378 1_655
Ca3 O7 2.141135 1_555
Ca3 O8 2.162128 1_545
Ca3 O10 2.227662 1_555
Ca3 O82 2.260072 1_545
Ca3 O79 2.293268 1_555
Ca3 O81 2.295818 1_545
Ca4 O24 2.145506 1_555
Ca4 O100 2.191385 1_555
Ca4 O28 2.197670 1_555
Ca4 O26 2.231044 1_555
Ca4 O98 2.267841 1_555
Ca4 O96 2.363838 1_555
Ca5 O25 2.141368 1_555
Ca5 O29 2.192727 1_555
Ca5 O101 2.199808 1_555
Ca5 O27 2.237882 1_555
Ca5 O99 2.277974 1_555
Ca5 O97 2.378054 1_555
Ca6 O30 2.161522 1_555
Ca6 O104 2.191862 1_555
Ca6 O34 2.200678 1_555
Ca6 O32 2.222511 1_555
Ca6 O106 2.278306 1_555
Ca6 O102 2.357670 1_555
Ca7 O33 2.159164 1_555
Ca7 O31 2.172902 1_555
Ca7 O107 2.192479 1_555
Ca7 O35 2.233870 1_555
Ca7 O105 2.255483 1_555
Ca7 O103 2.393188 1_555
Ca8 O48 2.166541 1_554
Ca8 O52 2.168927 1_554
Ca8 O50 2.205428 1_554
Ca8 O122 2.209153 1_555
Ca8 O124 2.282121 1_555
Ca8 O120 2.317774 1_555
Ca9 O53 2.170968 1_554
Ca9 O49 2.183391 1_554
Ca9 O123 2.195088 1_555
Ca9 O51 2.200797 1_554
Ca9 O125 2.283461 1_555
Ca9 O121 2.319031 1_555
Ca10 O130 2.169187 1_555
Ca10 O56 2.183603 1_555
Ca10 O58 2.187226 1_555
Ca10 O54 2.196303 1_555
Ca10 O128 2.274057 1_555
Ca10 O126 2.358544 1_555
Ca11 O55 2.170625 1_555
Ca11 O57 2.178042 1_555
Ca11 O131 2.201665 1_555
Ca11 O59 2.202454 1_555
Ca11 O129 2.270148 1_555
Ca11 O127 2.338945 1_555
O0 Si0 1.574524 1_545
O1 Si1 1.566466 1_555
O2 S0 1.454179 1_555
O3 S1 1.453614 1_555
O4 Si2 1.595949 1_555
O5 S2 1.449213 1_655
O6 Si3 1.565668 1_555
O7 Si4 1.563633 1_555
O8 Si6 1.592421 1_555
O9 Si5 1.594133 1_655
O10 S3 1.458233 1_545
O11 S4 1.458158 1_545
O12 S3 1.494800 1_555
O12 Ti1 2.454415 1_565
O13 S4 1.493079 1_555
O13 Ti0 2.433046 1_665
O14 Si3 1.722725 1_555
O14 Ti0 1.816376 1_555
O15 Si4 1.727634 1_555
O15 Ti1 1.804538 1_555
O16 Si5 1.734465 1_555
O16 Ti0 1.910639 1_565
O17 Si6 1.740185 1_555
O17 Ti1 1.902318 1_565
O18 S0 1.504351 1_555
O18 Ti3 2.436462 1_565
O19 S1 1.503347 1_555
O19 Ti2 2.304782 1_655
O20 S2 1.502561 1_555
O20 Ti2 2.261850 1_545
O21 Si2 1.748346 1_555
O21 Ti3 1.902653 1_555
O22 Si0 1.757714 1_555
O22 Ti2 1.803640 1_555
O23 Si1 1.739886 1_565
O23 Ti3 1.801612 1_565
O24 Si7 1.582864 1_555
O25 Si8 1.585238 1_555
O26 S5 1.463898 1_555
O27 S6 1.463471 1_555
O28 S7 1.464800 1_555
O29 S8 1.470162 1_555
O30 Si9 1.582327 1_555
O31 Si10 1.579912 1_555
O32 S9 1.465765 1_555
O33 S10 1.455201 1_555
O34 S11 1.448303 1_555
O35 S12 1.458570 1_555
O36 S11 1.513582 1_555
O36 Ti4 2.108155 1_554
O37 S12 1.519140 1_555
O37 Ti5 2.063542 1_554
O38 Ti4 1.803333 1_554
O38 Si9 1.815061 1_555
O39 Si10 1.755256 1_555
O39 Ti5 1.837627 1_554
O40 S9 1.498982 1_555
O40 Ti4 2.237923 1_554
O41 S10 1.496320 1_555
O41 Ti5 2.275542 1_554
O42 S5 1.509379 1_555
O42 Ti6 2.247370 1_555
O43 S6 1.496887 1_555
O43 Ti7 2.185954 1_555
O44 S7 1.510440 1_555
O44 Ti6 2.179397 1_555
O45 S8 1.486904 1_555
O45 Ti7 2.341848 1_555
O46 Ti6 1.782401 1_555
O46 Si7 1.816419 1_555
O47 Si8 1.788109 1_555
O47 Ti7 1.796411 1_555
O48 Si11 1.576678 1_555
O49 Si12 1.574357 1_555
O50 S13 1.445371 1_555
O51 S14 1.446295 1_555
O52 S15 1.459901 1_555
O53 S16 1.457778 1_555
O54 Si13 1.571013 1_555
O55 Si14 1.578170 1_555
O56 S17 1.449742 1_555
O57 S18 1.459001 1_555
O58 S19 1.453553 1_555
O59 S20 1.442934 1_555
O60 S19 1.534019 1_555
O60 Ti8 2.153524 1_555
O61 S20 1.512552 1_555
O61 Ti9 2.337698 1_555
O62 Si13 1.771851 1_555
O62 Ti8 1.821722 1_555
O63 Si14 1.743934 1_555
O63 Ti9 1.830230 1_555
O64 S17 1.517216 1_555
O64 Ti8 2.136320 1_555
O65 S18 1.513745 1_555
O65 Ti9 2.308716 1_555
O66 S13 1.539535 1_555
O66 Ti10 2.114199 1_555
O67 S14 1.543712 1_555
O67 Ti11 2.104389 1_555
O68 S15 1.515457 1_555
O68 Ti10 2.296924 1_555
O69 S16 1.512442 1_555
O69 Ti11 2.319255 1_555
O70 Si11 1.736219 1_555
O70 Ti10 1.868896 1_555
O71 Si12 1.728856 1_555
O71 Ti11 1.870794 1_555
O72 S19 1.469027 1_555
O73 S20 1.448290 1_555
O74 Si13 1.590569 1_545
O75 Si14 1.587637 1_555
O76 S17 1.476395 1_555
O77 S18 1.478768 1_555
O78 S13 1.449353 1_555
O79 S14 1.446779 1_555
O80 S15 1.475821 1_555
O81 S16 1.472244 1_555
O82 Si11 1.601540 1_555
O83 Si12 1.602311 1_555
O84 Si7 1.691648 1_555
O84 Ti1 1.980965 1_555
O85 Si8 1.694698 1_555
O85 Ti0 1.970100 1_655
O86 S5 1.513700 1_555
O86 Ti0 2.081161 1_555
O87 S6 1.521953 1_555
O87 Ti1 2.062494 1_555
O88 S7 1.499850 1_555
O88 Ti1 2.388060 1_565
O89 S8 1.508525 1_555
O89 Ti0 2.313006 1_665
O90 Si9 1.699757 1_555
O90 Ti3 1.988195 1_565
O91 Si10 1.751165 1_555
O91 Ti2 1.838145 1_655
O92 S9 1.504688 1_555
O92 Ti3 2.355054 1_555
O93 S10 1.520258 1_555
O93 Ti2 2.266857 1_645
O94 S11 1.522896 1_555
O94 Ti2 2.084685 1_545
O95 S12 1.506288 1_555
O95 Ti3 2.122004 1_555
O96 S3 1.480952 1_545
O97 S4 1.479962 1_545
O98 Si3 1.605994 1_555
O99 Si4 1.603599 1_555
O100 Si6 1.612566 1_555
O101 Si5 1.613323 1_655
O102 S0 1.463384 1_555
O103 S1 1.483126 1_555
O104 Si2 1.613935 1_555
O105 S2 1.483598 1_655
O106 Si0 1.591054 1_545
O107 Si1 1.596488 1_555
O108 Si11 1.758042 1_555
O108 Ti4 1.822777 1_555
O109 Si12 1.768749 1_555
O109 Ti5 1.807148 1_555
O110 S14 1.523084 1_555
O110 Ti4 2.341718 1_555
O111 S13 1.525102 1_655
O111 Ti5 2.317604 1_555
O112 S15 1.497906 1_545
O112 Ti4 2.291432 1_555
O113 S16 1.506034 1_545
O113 Ti5 2.235399 1_555
O114 Si13 1.743238 1_545
O114 Ti6 1.880508 1_555
O115 Si14 1.754783 1_545
O115 Ti7 1.802055 1_555
O116 S17 1.510049 1_555
O116 Ti6 2.338522 1_555
O117 S18 1.496730 1_555
O117 Ti7 2.272336 1_555
O118 S20 1.556777 1_555
O118 Ti6 2.086481 1_555
O119 S19 1.503507 1_655
O119 Ti7 2.232515 1_555
O120 S11 1.464285 1_555
O121 S12 1.463313 1_555
O122 Si10 1.578348 1_455
O123 Si9 1.586758 1_555
O124 S9 1.484616 1_565
O125 S10 1.478256 1_565
O126 S5 1.467625 1_565
O127 S6 1.467944 1_565
O128 S7 1.475167 1_555
O129 S8 1.484548 1_555
O130 Si8 1.584963 1_455
O131 Si7 1.581146 1_555
O132 Si0 1.740032 1_555
O132 Ti8 1.876056 1_555
O133 Si1 1.705506 1_565
O133 Ti9 1.853999 1_555
O134 S0 1.537714 1_555
O134 Ti8 2.140364 1_555
O135 S1 1.516969 1_555
O135 Ti9 2.130251 1_555
O136 S2 1.516797 1_555
O136 Ti8 2.295055 1_555
O137 Si2 1.688626 1_555
O137 Ti9 2.037312 1_555
O138 Si3 1.708497 1_555
O138 Ti10 1.874823 1_555
O139 Si4 1.706666 1_555
O139 Ti11 1.871469 1_555
O140 Si5 1.696916 1_555
O140 Ti10 1.996956 1_555
O141 Si6 1.695592 1_555
O141 Ti11 1.993011 1_555
O142 S3 1.521386 1_555
O142 Ti10 2.211489 1_555
O143 S4 1.523133 1_555
O143 Ti11 2.209820 1_555
