# generated using pymatgen
data_MgNi2(BiO3)4
_symmetry_space_group_name_H-M   'P 1'
_cell_length_a   5.14708903
_cell_length_b   5.14681103
_cell_length_c   9.98281500
_cell_angle_alpha   90.00000000
_cell_angle_beta   90.00000000
_cell_angle_gamma   90.01184443
_symmetry_Int_Tables_number   1
_chemical_formula_structural   MgNi2(BiO3)4
_chemical_formula_sum   'Mg1 Ni2 Bi4 O12'
_cell_volume   264.45569055
_cell_formula_units_Z   1
loop_
 _symmetry_equiv_pos_site_id
 _symmetry_equiv_pos_as_xyz
  1  'x, y, z'
loop_
 _atom_site_type_symbol
 _atom_site_label
 _atom_site_symmetry_multiplicity
 _atom_site_fract_x
 _atom_site_fract_y
 _atom_site_fract_z
 _atom_site_occupancy
  Mg  Mg0  1  0.00000000  0.50000000  0.24997800  1
  Ni  Ni0  1  0.00000000  0.00000000  0.99864200  1
  Ni  Ni1  1  0.50000000  0.50000000  0.50139800  1
  Bi  Bi0  1  0.00000000  0.00000000  0.35461600  1
  Bi  Bi1  1  0.00000000  0.00000000  0.67921600  1
  Bi  Bi2  1  0.50000000  0.50000000  0.14527800  1
  Bi  Bi3  1  0.50000000  0.50000000  0.82084500  1
  O  O0  1  0.17317300  0.79348600  0.16499000  1
  O  O1  1  0.19255400  0.80769800  0.84018300  1
  O  O2  1  0.19833500  0.79750000  0.51287800  1
  O  O3  1  0.29739400  0.30168100  0.98697500  1
  O  O4  1  0.29309300  0.32651000  0.33523700  1
  O  O5  1  0.30771000  0.30747100  0.65975200  1
  O  O6  1  0.70690700  0.67349000  0.33523700  1
  O  O7  1  0.69229000  0.69252900  0.65975200  1
  O  O8  1  0.70260600  0.69831900  0.98697500  1
  O  O9  1  0.80166500  0.20250000  0.51287800  1
  O  O10  1  0.82682700  0.20651400  0.16499000  1
  O  O11  1  0.80744600  0.19230200  0.84018300  1
loop_
_geom_bond_atom_site_label_1
_geom_bond_atom_site_label_2
_geom_bond_distance
_geom_bond_site_symmetry_2
Mg0 O0 1.948179 1_555
Mg0 O10 1.948179 1_455
Mg0 O4 1.948866 1_555
Mg0 O6 1.948866 1_455
Ni0 O11 2.112951 1_455
Ni0 O1 2.112951 1_545
Ni0 O10 2.163855 1_456
Ni0 O0 2.163855 1_546
Ni0 O8 2.183238 1_445
Ni0 O3 2.183238 1_555
Ni1 O7 2.111885 1_555
Ni1 O5 2.111885 1_555
Ni1 O6 2.163917 1_555
Ni1 O4 2.163917 1_555
Ni1 O9 2.183915 1_555
Ni1 O2 2.183915 1_555
Bi0 O2 2.150557 1_545
Bi0 O9 2.150557 1_455
Bi0 O6 2.266321 1_445
Bi0 O4 2.266321 1_555
Bi0 O10 2.346925 1_455
Bi0 O0 2.346925 1_545
Bi1 O11 2.131760 1_455
Bi1 O1 2.131760 1_545
Bi1 O2 2.210462 1_545
Bi1 O9 2.210462 1_455
Bi1 O7 2.247102 1_445
Bi1 O5 2.247102 1_555
Bi2 O8 2.150880 1_554
Bi2 O3 2.150880 1_554
Bi2 O0 2.269638 1_555
Bi2 O10 2.269638 1_555
Bi2 O6 2.350983 1_555
Bi2 O4 2.350983 1_555
Bi3 O5 2.132429 1_555
Bi3 O7 2.132429 1_555
Bi3 O3 2.208924 1_555
Bi3 O8 2.208924 1_555
Bi3 O1 2.247320 1_555
Bi3 O11 2.247320 1_555
