# generated using pymatgen
data_MgNb4O10
_symmetry_space_group_name_H-M   'P 1'
_cell_length_a   7.75377323
_cell_length_b   4.06490000
_cell_length_c   6.63943216
_cell_angle_alpha   90.00000000
_cell_angle_beta   87.52879840
_cell_angle_gamma   90.00000000
_symmetry_Int_Tables_number   1
_chemical_formula_structural   MgNb4O10
_chemical_formula_sum   'Mg1 Nb4 O10'
_cell_volume   209.06908864
_cell_formula_units_Z   1
loop_
 _symmetry_equiv_pos_site_id
 _symmetry_equiv_pos_as_xyz
  1  'x, y, z'
loop_
 _atom_site_type_symbol
 _atom_site_label
 _atom_site_symmetry_multiplicity
 _atom_site_fract_x
 _atom_site_fract_y
 _atom_site_fract_z
 _atom_site_occupancy
  Mg  Mg0  1  0.25110100  0.75000000  0.59998800  1
  Nb  Nb0  1  0.05046100  0.25000000  0.84799400  1
  Nb  Nb1  1  0.28358100  0.25000000  0.26132800  1
  Nb  Nb2  1  0.71989800  0.75000000  0.70838900  1
  Nb  Nb3  1  0.92154200  0.75000000  0.16854400  1
  O  O0  1  0.04334300  0.75000000  0.81854500  1
  O  O1  1  0.18767800  0.25000000  0.57169200  1
  O  O2  1  0.20769000  0.75000000  0.28166300  1
  O  O3  1  0.27487700  0.25000000  0.96863000  1
  O  O4  1  0.50348200  0.25000000  0.30580700  1
  O  O5  1  0.49433300  0.75000000  0.66902400  1
  O  O6  1  0.72705700  0.75000000  0.01858600  1
  O  O7  1  0.79358100  0.25000000  0.74781400  1
  O  O8  1  0.82973900  0.75000000  0.44328500  1
  O  O9  1  0.96997200  0.25000000  0.17204500  1
loop_
_geom_bond_atom_site_label_1
_geom_bond_atom_site_label_2
_geom_bond_distance
_geom_bond_site_symmetry_2
Mg0 O5 1.959976 1_555
Mg0 O1 2.101416 1_555
Mg0 O1 2.101416 1_565
Mg0 O0 2.121113 1_555
Mg0 O2 2.154418 1_555
Nb0 O3 1.946679 1_555
Nb0 O0 2.042807 1_545
Nb0 O0 2.042807 1_555
Nb0 O1 2.080631 1_555
Nb0 O7 2.126941 1_455
Nb0 O9 2.214208 1_456
Nb1 O4 1.742949 1_555
Nb1 O3 1.947426 1_554
Nb1 O2 2.118607 1_545
Nb1 O2 2.118607 1_555
Nb1 O1 2.160337 1_555
Nb1 O9 2.527576 1_455
Nb2 O5 1.779511 1_555
Nb2 O8 1.922026 1_555
Nb2 O6 2.062671 1_556
Nb2 O7 2.130417 1_565
Nb2 O7 2.130417 1_555
Nb2 O0 2.642487 1_655
Nb3 O6 1.842500 1_555
Nb3 O8 1.929286 1_555
Nb3 O9 2.067162 1_565
Nb3 O9 2.067162 1_555
Nb3 O2 2.372871 1_655
Nb3 O0 2.470363 1_654
