# generated using pymatgen
data_K2MgCr2Cd(H2O5)2
_symmetry_space_group_name_H-M   'P 1'
_cell_length_a   6.08428493
_cell_length_b   6.20343782
_cell_length_c   7.92884678
_cell_angle_alpha   103.76551789
_cell_angle_beta   96.02697273
_cell_angle_gamma   108.37643978
_symmetry_Int_Tables_number   1
_chemical_formula_structural   K2MgCr2Cd(H2O5)2
_chemical_formula_sum   'K2 Mg1 Cr2 Cd1 H4 O10'
_cell_volume   270.53296920
_cell_formula_units_Z   1
loop_
 _symmetry_equiv_pos_site_id
 _symmetry_equiv_pos_as_xyz
  1  'x, y, z'
loop_
 _atom_site_type_symbol
 _atom_site_label
 _atom_site_symmetry_multiplicity
 _atom_site_fract_x
 _atom_site_fract_y
 _atom_site_fract_z
 _atom_site_occupancy
  K  K0  1  0.34600218  0.65624777  0.18747184  1
  K  K1  1  0.71197551  0.35394488  0.83176220  1
  Mg  Mg0  1  0.32753557  0.08907614  0.48742956  1
  Cr  Cr0  1  0.67155220  0.31408007  0.24349246  1
  Cr  Cr1  1  0.35962919  0.68079605  0.75076576  1
  Cd  Cd0  1  0.02797817  0.99100548  0.99763044  1
  H  H0  1  0.96259267  0.06026015  0.31209021  1
  H  H1  1  0.87997972  0.93822700  0.62998454  1
  H  H2  1  0.86593649  0.73515704  0.33191277  1
  H  H3  1  0.09046031  0.20233011  0.69415544  1
  O  O0  1  0.05060927  0.95140991  0.28943667  1
  O  O1  1  0.61636548  0.14190539  0.38607207  1
  O  O2  1  0.35892896  0.85550880  0.61182767  1
  O  O3  1  0.73859685  0.61570769  0.37175232  1
  O  O4  1  0.29876467  0.37523428  0.64025862  1
  O  O5  1  0.43585232  0.25586397  0.08412478  1
  O  O6  1  0.61186856  0.76266546  0.90220730  1
  O  O7  1  0.91389617  0.29662853  0.15512527  1
  O  O8  1  0.13527339  0.68503162  0.86984710  1
  O  O9  1  0.96078532  0.07891966  0.73098597  1
loop_
_geom_bond_atom_site_label_1
_geom_bond_atom_site_label_2
_geom_bond_distance
_geom_bond_site_symmetry_2
K0 O5 2.668514 1_555
K0 O8 2.774595 1_554
K0 O3 2.779311 1_555
K0 O7 2.800463 1_455
K0 O1 2.887169 1_565
K0 O0 2.985286 1_555
K0 O6 2.995641 1_554
K0 O2 3.280071 1_555
K1 O9 2.659820 1_555
K1 O8 2.673743 1_655
K1 O6 2.735465 1_555
K1 O5 2.799502 1_556
K1 O4 2.854261 1_555
K1 O7 2.873519 1_556
K1 O2 3.110499 1_545
Mg0 O4 1.966467 1_555
Mg0 O1 1.974897 1_555
Mg0 O2 1.980848 1_545
Mg0 O0 1.982910 1_545
Cr0 O5 1.690980 1_555
Cr0 O7 1.719955 1_555
Cr0 O1 1.720392 1_555
Cr0 O3 1.796603 1_555
Cr1 O6 1.698943 1_555
Cr1 O2 1.719993 1_555
Cr1 O8 1.742689 1_555
Cr1 O4 1.787952 1_555
Cd0 O8 2.249534 1_555
Cd0 O9 2.332837 1_465
Cd0 O7 2.349619 1_466
Cd0 O0 2.378513 1_556
Cd0 O6 2.411458 1_455
Cd0 O5 2.421537 1_566
H0 O0 0.982587 1_645
H1 O9 0.979244 1_565
H2 O3 1.024661 1_555
H2 O0 1.587337 1_655
H3 O9 1.033342 1_455
H3 O4 1.553736 1_555
