# generated using pymatgen
data_Na15Mg8Ta4P15(SO24)3
_symmetry_space_group_name_H-M   'P 1'
_cell_length_a   8.89620324
_cell_length_b   8.87999652
_cell_length_c   22.27052417
_cell_angle_alpha   90.15542977
_cell_angle_beta   89.99679659
_cell_angle_gamma   120.09078591
_symmetry_Int_Tables_number   1
_chemical_formula_structural   Na15Mg8Ta4P15(SO24)3
_chemical_formula_sum   'Na15 Mg8 Ta4 P15 S3 O72'
_cell_volume   1522.22357123
_cell_formula_units_Z   1
loop_
 _symmetry_equiv_pos_site_id
 _symmetry_equiv_pos_as_xyz
  1  'x, y, z'
loop_
 _atom_site_type_symbol
 _atom_site_label
 _atom_site_symmetry_multiplicity
 _atom_site_fract_x
 _atom_site_fract_y
 _atom_site_fract_z
 _atom_site_occupancy
  Na  Na0  1  0.99443896  0.63836879  0.24605869  1
  Na  Na1  1  0.64872687  0.63835795  0.74817965  1
  Na  Na2  1  0.36362218  0.01300118  0.74798495  1
  Na  Na3  1  0.30263146  0.33325955  0.58553178  1
  Na  Na4  1  0.03788668  0.71090769  0.58364595  1
  Na  Na5  1  0.66118074  0.95747341  0.58488597  1
  Na  Na6  1  0.29792438  0.95792221  0.08543636  1
  Na  Na7  1  0.67166262  0.70975710  0.08056408  1
  Na  Na8  1  0.03011402  0.33331539  0.08600341  1
  Na  Na9  1  0.99961366  0.99530776  0.49070745  1
  Na  Na10  1  0.99523095  0.99489358  0.99025213  1
  Na  Na11  1  0.67712410  0.33395430  0.82659475  1
  Na  Na12  1  0.65539642  0.31278556  0.32594820  1
  Na  Na13  1  0.33760433  0.67282155  0.16603268  1
  Na  Na14  1  0.33039320  0.66360439  0.66526452  1
  Mg  Mg0  1  0.00683224  0.00991559  0.35263135  1
  Mg  Mg1  1  0.99905442  -0.00003192  0.85186575  1
  Mg  Mg2  1  0.00030665  0.99642311  0.65478619  1
  Mg  Mg3  1  0.00259583  0.00328932  0.15411741  1
  Mg  Mg4  1  0.66665970  0.33211383  0.68679809  1
  Mg  Mg5  1  0.66672040  0.31876480  0.18746155  1
  Mg  Mg6  1  0.33321522  0.67183051  0.01407996  1
  Mg  Mg7  1  0.33904007  0.67258803  0.51389659  1
  Ta  Ta0  1  0.67616875  0.33458456  0.97486985  1
  Ta  Ta1  1  0.65865623  0.33460817  0.47463377  1
  Ta  Ta2  1  0.33097014  0.66831609  0.31582157  1
  Ta  Ta3  1  0.33136503  0.66435637  0.81582709  1
  P  P0  1  0.29416714  0.00567530  0.25043165  1
  P  P1  1  0.99829044  0.29081786  0.25029472  1
  P  P2  1  0.29019035  0.29125255  0.74959153  1
  P  P3  1  0.99851172  0.70475729  0.75003496  1
  P  P4  1  0.70997613  0.00420779  0.75042509  1
  P  P5  1  0.37498502  0.04010059  0.58432891  1
  P  P6  1  0.66564220  0.62551927  0.58467993  1
  P  P7  1  0.95835995  0.62556061  0.08548471  1
  P  P8  1  0.66459533  0.03903645  0.08353356  1
  P  P9  1  0.62843133  0.67070324  0.91991408  1
  P  P10  1  0.04726587  0.37038075  0.92000626  1
  P  P11  1  0.32708434  0.95891448  0.91920439  1
  P  P12  1  0.63179750  0.95786744  0.41938700  1
  P  P13  1  0.32482385  0.37352981  0.41956332  1
  P  P14  1  0.04142183  0.67120800  0.41972468  1
  S  S0  1  0.70496532  0.70682277  0.25015183  1
  S  S1  1  0.95582735  0.33382887  0.58303339  1
  S  S2  1  0.37942175  0.33453454  0.08361251  1
  O  O0  1  0.19943050  0.01570774  0.30462758  1
  O  O1  1  0.81474179  0.79013780  0.30200919  1
  O  O2  1  0.97435216  0.17896862  0.30361923  1
  O  O3  1  0.20484868  0.17420395  0.80264241  1
  O  O4  1  0.96991487  0.79243306  0.80340180  1
  O  O5  1  0.81786737  0.02273118  0.80461816  1
  O  O6  1  0.77080206  0.95701559  0.69165831  1
  O  O7  1  0.18949016  0.22759470  0.69002427  1
  O  O8  1  0.04772444  0.81425820  0.69154979  1
  O  O9  1  0.77318614  0.80786159  0.19371529  1
  O  O10  1  0.03446547  0.22764209  0.19035594  1
  O  O11  1  0.18406656  0.95395749  0.19170961  1
  O  O12  1  0.87642570  0.36227752  0.63602991  1
  O  O13  1  0.48782794  0.12178944  0.63970985  1
  O  O14  1  0.63917847  0.51443894  0.63995809  1
  O  O15  1  0.87260216  0.51535804  0.14089472  1
  O  O16  1  0.62962660  0.12346306  0.13650010  1
  O  O17  1  0.48814863  0.36422460  0.13648279  1
  O  O18  1  0.46434176  0.30800270  0.02885731  1
  O  O19  1  0.83442065  0.52509563  0.02923286  1
  O  O20  1  0.68904906  0.16234323  0.02702299  1
  O  O21  1  0.47824829  0.16416765  0.52868832  1
  O  O22  1  0.69030751  0.52500691  0.52873084  1
  O  O23  1  0.84457682  0.30832663  0.52843418  1
  O  O24  1  0.54245953  0.68538105  0.97661240  1
  O  O25  1  0.14395484  0.45407185  0.97754949  1
  O  O26  1  0.31049819  0.85812043  0.97594470  1
  O  O27  1  0.55039215  0.86004833  0.47687181  1
  O  O28  1  0.31090642  0.45578648  0.47725079  1
  O  O29  1  0.14363410  0.68826229  0.47616788  1
  O  O30  1  0.13124517  0.63809528  0.36284437  1
  O  O31  1  0.50435285  0.86489915  0.36435926  1
  O  O32  1  0.35986417  0.49807274  0.36450180  1
  O  O33  1  0.13795169  0.49616506  0.86492061  1
  O  O34  1  0.36163932  0.86994424  0.86266194  1
  O  O35  1  0.50663930  0.63810979  0.86316893  1
  O  O36  1  0.01200331  0.82091161  0.40901978  1
  O  O37  1  0.80908866  0.98293953  0.40888340  1
  O  O38  1  0.17636312  0.19226587  0.41122155  1
  O  O39  1  0.01636833  0.19069417  0.91051169  1
  O  O40  1  0.17567914  0.98579315  0.90975598  1
  O  O41  1  0.80742587  0.82233278  0.91067406  1
  O  O42  1  0.97038695  0.17457073  0.58616910  1
  O  O43  1  0.19773164  0.03215498  0.58401893  1
  O  O44  1  0.83198707  0.80633863  0.58466338  1
  O  O45  1  0.97269473  0.80637150  0.08545050  1
  O  O46  1  0.83336050  0.02971910  0.08522362  1
  O  O47  1  0.20513512  0.17479357  0.08669351  1
  O  O48  1  0.66949568  0.15232223  0.74498074  1
  O  O49  1  0.47856845  0.32417182  0.74523062  1
  O  O50  1  0.83987606  0.52253862  0.74316563  1
  O  O51  1  0.68300696  0.53085566  0.24367081  1
  O  O52  1  0.85233091  0.33694972  0.24658036  1
  O  O53  1  0.47662547  0.16134546  0.24488741  1
  O  O54  1  0.63617192  0.49451882  0.92433797  1
  O  O55  1  0.86275064  0.36445858  0.92238755  1
  O  O56  1  0.50338916  0.14290013  0.92403320  1
  O  O57  1  0.63979276  0.14216506  0.42394281  1
  O  O58  1  0.50225405  0.36474274  0.42251482  1
  O  O59  1  0.85876780  0.49432465  0.42411988  1
  O  O60  1  0.35765869  0.48920724  0.07705161  1
  O  O61  1  0.13851190  0.64155409  0.07810675  1
  O  O62  1  0.50494770  0.85460451  0.07670351  1
  O  O63  1  0.35140634  0.85638788  0.57724204  1
  O  O64  1  0.50151411  0.64149071  0.57751767  1
  O  O65  1  0.13194142  0.48956200  0.57687961  1
  O  O66  1  0.31217474  0.83096704  0.26010225  1
  O  O67  1  0.52583838  0.68785464  0.25794714  1
  O  O68  1  0.17147099  0.48404749  0.26004462  1
  O  O69  1  0.31610673  0.48304570  0.75954443  1
  O  O70  1  0.16966652  0.68962477  0.76056719  1
  O  O71  1  0.51743595  0.82970332  0.75954410  1
loop_
_geom_bond_atom_site_label_1
_geom_bond_atom_site_label_2
_geom_bond_distance
_geom_bond_site_symmetry_2
Na0 O52 2.317250 1_555
Na0 O51 2.436742 1_555
Na0 O66 2.482410 1_655
Na0 O68 2.573285 1_655
Na0 O15 2.579229 1_555
Na0 O11 2.728018 1_655
Na0 O1 2.841760 1_555
Na0 O30 2.872134 1_655
Na1 O50 2.390610 1_555
Na1 O49 2.417397 1_555
Na1 O71 2.510582 1_555
Na1 O69 2.575220 1_555
Na1 O14 2.630367 1_555
Na1 O4 2.760439 1_555
Na1 O6 2.776448 1_555
Na1 O35 2.855300 1_555
Na2 O48 2.358863 1_555
Na2 O49 2.419141 1_555
Na2 O70 2.517466 1_545
Na2 O71 2.612223 1_545
Na2 O13 2.628825 1_555
Na2 O3 2.746594 1_555
Na2 O8 2.758094 1_545
Na2 O34 2.851615 1_545
Na3 O43 2.349193 1_555
Na3 O64 2.408432 1_555
Na3 O7 2.524576 1_555
Na3 O65 2.526713 1_555
Na3 O42 2.558473 1_455
Na3 O28 2.634076 1_555
Na3 O14 2.860298 1_555
Na3 O21 2.939360 1_555
Na4 O44 2.372817 1_455
Na4 O63 2.420003 1_555
Na4 O43 2.468228 1_565
Na4 O65 2.496744 1_555
Na4 O8 2.555820 1_555
Na4 O29 2.615639 1_555
Na4 O12 2.927250 1_455
Na4 O22 2.941617 1_455
Na5 O64 2.432846 1_555
Na5 O63 2.438845 1_555
Na5 O42 2.442578 1_565
Na5 O44 2.480935 1_555
Na5 O6 2.570922 1_555
Na5 O27 2.576898 1_555
Na5 O13 2.871348 1_565
Na5 O23 2.978792 1_565
Na6 O61 2.435726 1_555
Na6 O62 2.442300 1_555
Na6 O47 2.446371 1_565
Na6 O45 2.505579 1_455
Na6 O11 2.567721 1_555
Na6 O26 2.613725 1_554
Na6 O16 2.793477 1_565
Na6 O18 2.974839 1_565
Na7 O45 2.369693 1_555
Na7 O62 2.403124 1_555
Na7 O46 2.460258 1_565
Na7 O60 2.481607 1_555
Na7 O24 2.544721 1_554
Na7 O9 2.669102 1_555
Na7 O19 2.909076 1_555
Na7 O17 2.937395 1_555
Na8 O46 2.366447 1_455
Na8 O61 2.410130 1_555
Na8 O10 2.516193 1_555
Na8 O60 2.530517 1_555
Na8 O47 2.569828 1_555
Na8 O25 2.633275 1_554
Na8 O15 2.886453 1_455
Na8 O20 2.933776 1_455
Na9 O36 2.424019 1_655
Na9 O38 2.433889 1_665
Na9 O37 2.453193 1_555
Na9 O44 2.632003 1_555
Na9 O43 2.636358 1_665
Na9 O42 2.741898 1_565
Na10 O41 2.387204 1_555
Na10 O39 2.429201 1_665
Na10 O40 2.434389 1_655
Na10 O45 2.649581 1_556
Na10 O46 2.661859 1_566
Na10 O47 2.764529 1_666
Na11 O48 2.404995 1_555
Na11 O50 2.436842 1_555
Na11 O49 2.501349 1_555
Na11 O55 2.626846 1_555
Na11 O56 2.714092 1_555
Na11 O54 2.721772 1_555
Na12 O53 2.332233 1_555
Na12 O52 2.421666 1_555
Na12 O51 2.590368 1_555
Na12 O57 2.623865 1_555
Na12 O58 2.705289 1_555
Na12 O59 2.776483 1_555
Na13 O62 2.527278 1_555
Na13 O61 2.559847 1_555
Na13 O66 2.591296 1_555
Na13 O67 2.605165 1_555
Na13 O60 2.625151 1_555
Na13 O68 2.629129 1_555
Na14 O64 2.544043 1_555
Na14 O63 2.550622 1_555
Na14 O65 2.574456 1_555
Na14 O69 2.609483 1_555
Na14 O71 2.622103 1_555
Na14 O70 2.632665 1_555
Mg0 O2 1.993082 1_455
Mg0 O0 1.998248 1_555
Mg0 O38 2.034488 1_555
Mg0 O37 2.073714 1_445
Mg0 O36 2.117755 1_545
Mg0 O1 2.155025 1_445
Mg1 O5 2.018476 1_555
Mg1 O3 2.028783 1_655
Mg1 O4 2.034363 1_545
Mg1 O39 2.079528 1_655
Mg1 O40 2.084798 1_645
Mg1 O41 2.103378 1_545
Mg2 O8 2.038742 1_555
Mg2 O7 2.046811 1_565
Mg2 O6 2.061630 1_455
Mg2 O44 2.231971 1_455
Mg2 O43 2.261156 1_565
Mg2 O42 2.311711 1_465
Mg3 O10 2.031180 1_555
Mg3 O11 2.051923 1_545
Mg3 O9 2.100267 1_445
Mg3 O45 2.232975 1_445
Mg3 O46 2.243296 1_455
Mg3 O47 2.254142 1_555
Mg4 O13 2.032011 1_555
Mg4 O14 2.043366 1_555
Mg4 O50 2.045886 1_555
Mg4 O48 2.068867 1_555
Mg4 O12 2.081508 1_555
Mg4 O49 2.092908 1_555
Mg5 O16 1.954532 1_555
Mg5 O53 2.022016 1_555
Mg5 O52 2.053729 1_555
Mg5 O15 2.069098 1_555
Mg5 O17 2.149732 1_555
Mg5 O51 2.201974 1_555
Mg6 O26 1.959993 1_554
Mg6 O24 1.987867 1_554
Mg6 O25 1.990682 1_554
Mg6 O62 2.101171 1_555
Mg6 O61 2.154201 1_555
Mg6 O60 2.238285 1_555
Mg7 O27 1.963412 1_555
Mg7 O28 1.985803 1_555
Mg7 O29 1.997681 1_555
Mg7 O63 2.115099 1_555
Mg7 O64 2.139057 1_555
Mg7 O65 2.238942 1_555
O0 P0 1.499872 1_555
O1 S0 1.451156 1_555
O2 P1 1.495468 1_555
O3 P2 1.505952 1_555
O4 P3 1.508968 1_555
O5 P4 1.498560 1_555
O6 P4 1.551010 1_565
O7 P2 1.539548 1_555
O8 P3 1.553576 1_455
O9 S0 1.487643 1_555
O10 P1 1.541781 1_455
O11 P0 1.557683 1_565
O12 S1 1.460487 1_555
O13 P5 1.523229 1_555
O14 P6 1.522378 1_555
O15 P7 1.523249 1_555
O16 P8 1.509736 1_555
O17 S2 1.460893 1_555
O18 S2 1.513293 1_555
O18 Ta0 2.146563 1_554
O19 P7 1.608956 1_555
O19 Ta0 1.977528 1_554
O20 P8 1.612058 1_555
O20 Ta0 1.971530 1_554
O21 P5 1.607976 1_555
O21 Ta1 1.972222 1_555
O22 P6 1.608624 1_555
O22 Ta1 1.975086 1_555
O23 S1 1.511040 1_555
O23 Ta1 2.148148 1_555
O24 P9 1.515030 1_555
O25 P10 1.512756 1_555
O26 P11 1.514381 1_555
O27 P12 1.514293 1_555
O28 P13 1.511615 1_555
O29 P14 1.513563 1_555
O30 P14 1.600981 1_555
O30 Ta2 1.961855 1_555
O31 P12 1.589004 1_555
O31 Ta2 1.971019 1_555
O32 P13 1.576573 1_555
O32 Ta2 1.981268 1_555
O33 P10 1.583416 1_555
O33 Ta3 1.954076 1_555
O34 P11 1.594504 1_555
O34 Ta3 1.997502 1_555
O35 P9 1.593260 1_555
O35 Ta3 1.990779 1_555
O36 P14 1.497712 1_555
O37 P12 1.496673 1_555
O38 P13 1.495470 1_555
O39 P10 1.491523 1_555
O40 P11 1.496043 1_555
O41 P9 1.497491 1_555
O42 S1 1.485215 1_555
O43 P5 1.542730 1_555
O44 P6 1.544493 1_555
O45 P7 1.545608 1_555
O46 P8 1.544978 1_555
O47 S2 1.488617 1_555
O48 P4 1.533007 1_555
O49 P2 1.553145 1_555
O50 P3 1.530412 1_555
O51 S0 1.481003 1_555
O52 P1 1.547353 1_555
O53 P0 1.520463 1_555
O54 P9 1.603443 1_555
O54 Ta0 1.981294 1_555
O55 P10 1.616631 1_655
O55 Ta0 1.936900 1_555
O56 P11 1.603241 1_545
O56 Ta0 1.976854 1_555
O57 P12 1.605013 1_545
O57 Ta1 1.981141 1_555
O58 P13 1.620331 1_555
O58 Ta1 1.931331 1_555
O59 P14 1.599577 1_655
O59 Ta1 1.980643 1_555
O60 S2 1.487635 1_555
O61 P7 1.545177 1_455
O62 P8 1.545564 1_565
O63 P5 1.544585 1_565
O64 P6 1.544441 1_555
O65 S1 1.488055 1_455
O66 P0 1.652256 1_565
O66 Ta2 1.976315 1_555
O67 S0 1.526070 1_555
O67 Ta2 2.096672 1_555
O68 P1 1.646871 1_455
O68 Ta2 1.973544 1_555
O69 P2 1.614660 1_555
O69 Ta3 1.987887 1_555
O70 P3 1.611474 1_455
O70 Ta3 1.989859 1_555
O71 P4 1.648200 1_565
O71 Ta3 2.009899 1_555
