# generated using pymatgen
data_Na3Y3NbP5SO24
_symmetry_space_group_name_H-M   'P 1'
_cell_length_a   9.14308380
_cell_length_b   9.15636362
_cell_length_c   23.69675789
_cell_angle_alpha   89.93813368
_cell_angle_beta   90.18145431
_cell_angle_gamma   120.23233926
_symmetry_Int_Tables_number   1
_chemical_formula_structural   Na3Y3NbP5SO24
_chemical_formula_sum   'Na9 Y9 Nb3 P15 S3 O72'
_cell_volume   1714.00268862
_cell_formula_units_Z   3
loop_
 _symmetry_equiv_pos_site_id
 _symmetry_equiv_pos_as_xyz
  1  'x, y, z'
loop_
 _atom_site_type_symbol
 _atom_site_label
 _atom_site_symmetry_multiplicity
 _atom_site_fract_x
 _atom_site_fract_y
 _atom_site_fract_z
 _atom_site_occupancy
  Na  Na0  1  0.64947611  0.64605507  0.75014458  1
  Na  Na1  1  0.30138377  0.96048822  0.08329395  1
  Na  Na2  1  0.33321748  0.02106785  0.41508393  1
  Na  Na3  1  0.97865607  0.99944301  0.50115746  1
  Na  Na4  1  0.98526599  0.99900846  0.99798985  1
  Na  Na5  1  0.66497750  0.31843625  0.83285802  1
  Na  Na6  1  0.66417872  0.33303492  0.32892686  1
  Na  Na7  1  0.33093359  0.66116664  0.16849426  1
  Na  Na8  1  0.31649634  0.65625211  0.66288515  1
  Y  Y0  1  0.99977980  0.00233409  0.35201060  1
  Y  Y1  1  0.00525386  0.00400402  0.85306163  1
  Y  Y2  1  0.99673552  0.00213574  0.64905478  1
  Y  Y3  1  0.99874611  0.99972890  0.14419200  1
  Y  Y4  1  0.67012084  0.32961655  0.68687717  1
  Y  Y5  1  0.66349450  0.33040904  0.18527775  1
  Y  Y6  1  0.33463139  0.65935023  0.01790258  1
  Y  Y7  1  0.33558025  0.65861240  0.51808316  1
  Y  Y8  1  0.33403008  0.67118310  0.31866915  1
  Nb  Nb0  1  0.66971712  0.33738642  0.97839826  1
  Nb  Nb1  1  0.68041666  0.34729414  0.48234753  1
  Nb  Nb2  1  0.32698293  0.66521958  0.81814162  1
  P  P0  1  0.29737196  0.99627167  0.24993281  1
  P  P1  1  0.29615548  0.30567226  0.75227965  1
  P  P2  1  0.00820960  0.70777173  0.75199976  1
  P  P3  1  0.69404025  0.98968542  0.75373045  1
  P  P4  1  0.95718486  0.32924970  0.58256886  1
  P  P5  1  0.67137764  0.62687486  0.58479309  1
  P  P6  1  0.95469597  0.62376215  0.08069155  1
  P  P7  1  0.67061808  0.04954562  0.07926544  1
  P  P8  1  0.37917555  0.33052495  0.08020893  1
  P  P9  1  0.62353397  0.65793141  0.91608910  1
  P  P10  1  0.03253098  0.37612265  0.91729934  1
  P  P11  1  0.34366258  0.96460559  0.91915424  1
  P  P12  1  0.63285019  0.97486960  0.42050961  1
  P  P13  1  0.34249605  0.36824711  0.41835467  1
  P  P14  1  0.03482686  0.66484271  0.41858231  1
  S  S0  1  0.70025692  0.70336646  0.25001457  1
  S  S1  1  0.00322759  0.30021113  0.24963015  1
  S  S2  1  0.37440710  0.04426029  0.57990197  1
  O  O0  1  0.20666556  0.00726109  0.30361629  1
  O  O1  1  0.79682886  0.78961601  0.30126169  1
  O  O2  1  0.98631804  0.20072773  0.30066373  1
  O  O3  1  0.21749512  0.19586041  0.80378822  1
  O  O4  1  0.97330308  0.78866750  0.80236877  1
  O  O5  1  0.80511337  0.01613852  0.80471676  1
  O  O6  1  0.76384210  0.94616853  0.70055347  1
  O  O7  1  0.19121932  0.23202521  0.69810203  1
  O  O8  1  0.04367067  0.81325376  0.69795125  1
  O  O9  1  0.78464548  0.80318118  0.19860080  1
  O  O10  1  0.01212730  0.21284239  0.19810157  1
  O  O11  1  0.19533415  0.98533002  0.19537437  1
  O  O12  1  0.86965296  0.34046977  0.63544789  1
  O  O13  1  0.47255592  0.12692717  0.63108907  1
  O  O14  1  0.65610035  0.53106715  0.63943009  1
  O  O15  1  0.87183799  0.52410097  0.13385052  1
  O  O16  1  0.64849640  0.13043137  0.13255171  1
  O  O17  1  0.47736000  0.34633511  0.13392270  1
  O  O18  1  0.48306698  0.32073679  0.02695132  1
  O  O19  1  0.84306385  0.52178023  0.02648355  1
  O  O20  1  0.68254441  0.16394213  0.02597037  1
  O  O21  1  0.46475160  0.14463084  0.52798398  1
  O  O22  1  0.67643716  0.51465890  0.53240664  1
  O  O23  1  0.84196798  0.32163496  0.52920115  1
  O  O24  1  0.54378277  0.68311770  0.96861634  1
  O  O25  1  0.13515688  0.45534362  0.97038561  1
  O  O26  1  0.31958234  0.86701674  0.97391271  1
  O  O27  1  0.54885416  0.86460819  0.47205001  1
  O  O28  1  0.31150680  0.44692091  0.47014592  1
  O  O29  1  0.15009296  0.69772625  0.46938032  1
  O  O30  1  0.10204074  0.62457366  0.36511585  1
  O  O31  1  0.51605658  0.90276570  0.36790051  1
  O  O32  1  0.37461002  0.47450710  0.36481198  1
  O  O33  1  0.13172327  0.49590643  0.86499182  1
  O  O34  1  0.36343544  0.86188748  0.86767551  1
  O  O35  1  0.50613506  0.63264680  0.86281854  1
  O  O36  1  0.01191493  0.81941648  0.41189093  1
  O  O37  1  0.81137566  0.00418125  0.41253034  1
  O  O38  1  0.19506147  0.18329033  0.41264590  1
  O  O39  1  0.00355211  0.19942717  0.90958823  1
  O  O40  1  0.19492682  0.99186635  0.90997892  1
  O  O41  1  0.80220190  0.80585385  0.90893007  1
  O  O42  1  0.96639681  0.16606598  0.58083727  1
  O  O43  1  0.20670542  0.03303248  0.58145757  1
  O  O44  1  0.83732359  0.79763825  0.58201479  1
  O  O45  1  0.96836064  0.79996001  0.07999426  1
  O  O46  1  0.83114057  0.03614694  0.07983369  1
  O  O47  1  0.20921375  0.15911791  0.07936528  1
  O  O48  1  0.66141797  0.13704714  0.74670935  1
  O  O49  1  0.48218699  0.34679436  0.74644518  1
  O  O50  1  0.85158142  0.52826556  0.74623236  1
  O  O51  1  0.68725730  0.53519435  0.24816919  1
  O  O52  1  0.85303981  0.32204325  0.24784823  1
  O  O53  1  0.47585446  0.15717868  0.24921765  1
  O  O54  1  0.63239823  0.48946059  0.92311052  1
  O  O55  1  0.85660979  0.36947872  0.92171975  1
  O  O56  1  0.51242079  0.14252703  0.92272391  1
  O  O57  1  0.64479168  0.15360093  0.43033696  1
  O  O58  1  0.50446693  0.34806991  0.42895726  1
  O  O59  1  0.85183775  0.50562943  0.42987748  1
  O  O60  1  0.35227665  0.48142684  0.07666926  1
  O  O61  1  0.13605631  0.65345076  0.07669260  1
  O  O62  1  0.50721648  0.87618929  0.07483636  1
  O  O63  1  0.35411025  0.87339071  0.57701529  1
  O  O64  1  0.51459077  0.64527774  0.57857076  1
  O  O65  1  0.13120906  0.48961491  0.57783811  1
  O  O66  1  0.31372820  0.83527607  0.25224386  1
  O  O67  1  0.52834770  0.68278550  0.25228846  1
  O  O68  1  0.16037107  0.46821919  0.25209436  1
  O  O69  1  0.31220165  0.48709685  0.76339488  1
  O  O70  1  0.16878882  0.68790136  0.76509911  1
  O  O71  1  0.51439433  0.82193342  0.76479208  1
loop_
_geom_bond_atom_site_label_1
_geom_bond_atom_site_label_2
_geom_bond_distance
_geom_bond_site_symmetry_2
Na0 O49 2.373743 1_555
Na0 O71 2.499220 1_555
Na0 O50 2.568008 1_555
Na0 O6 2.670736 1_555
Na0 O69 2.685470 1_555
Na0 O14 2.840165 1_555
Na0 O4 2.844258 1_555
Na0 O35 2.953144 1_555
Na1 O47 2.359908 1_565
Na1 O62 2.375544 1_555
Na1 O61 2.435792 1_555
Na1 O45 2.632412 1_455
Na1 O26 2.762150 1_554
Na1 O11 2.878480 1_555
Na2 O38 2.386221 1_555
Na2 O57 2.496358 1_555
Na2 O36 2.565473 1_545
Na2 O58 2.608155 1_555
Na2 O31 2.656333 1_545
Na2 O0 2.857616 1_555
Na2 O29 2.870149 1_545
Na2 O21 2.915459 1_555
Na3 O42 2.466798 1_565
Na3 O44 2.521702 1_555
Na3 O37 2.607325 1_565
Na3 O43 2.719067 1_665
Na3 O36 2.792963 1_655
Na3 O38 2.795075 1_665
Na4 O46 2.522722 1_566
Na4 O45 2.613879 1_556
Na4 O47 2.649244 1_666
Na4 O41 2.718094 1_555
Na4 O39 2.732918 1_665
Na4 O40 2.860146 1_655
Na5 O56 2.612238 1_555
Na5 O55 2.622323 1_555
Na5 O48 2.622879 1_555
Na5 O49 2.732733 1_555
Na5 O50 2.743844 1_555
Na5 O54 2.756078 1_555
Na6 O53 2.513820 1_555
Na6 O51 2.595130 1_555
Na6 O52 2.622920 1_555
Na6 O58 2.827570 1_555
Na6 O57 2.864698 1_555
Na6 O59 2.900972 1_555
Na7 O68 2.591389 1_555
Na7 O66 2.601195 1_555
Na7 O67 2.618830 1_555
Na7 O61 2.785878 1_555
Na7 O60 2.795573 1_555
Na7 O62 2.866605 1_555
Na8 O65 2.577138 1_555
Na8 O64 2.736616 1_555
Na8 O63 2.742064 1_555
Na8 O69 2.829241 1_555
Na8 O70 2.861982 1_555
Na8 O71 2.936485 1_555
Nb0 O19 1.989717 1_556
Nb0 O20 1.997386 1_556
Nb0 O18 2.002352 1_556
Nb0 O54 2.059970 1_555
Nb0 O55 2.078030 1_555
Nb0 O56 2.097940 1_555
Nb1 O23 1.951459 1_555
Nb1 O22 1.953777 1_555
Nb1 O59 1.955647 1_555
Nb1 O58 2.046291 1_555
Nb1 O57 2.047180 1_555
Nb1 O21 2.196719 1_555
Nb2 O70 2.001364 1_555
Nb2 O33 2.011188 1_555
Nb2 O71 2.031544 1_555
Nb2 O34 2.032073 1_555
Nb2 O69 2.035391 1_555
Nb2 O35 2.091205 1_555
O0 P0 1.551521 1_545
O0 Y0 2.196111 1_455
O1 S0 1.473476 1_555
O1 Y0 2.243760 1_565
O2 S1 1.474150 1_655
O2 Y0 2.239415 1_555
O3 P1 1.514186 1_555
O3 Y1 2.189086 1_555
O4 P2 1.522344 1_655
O4 Y1 2.199731 1_665
O5 P3 1.514905 1_545
O5 Y1 2.205564 1_655
O6 P3 1.554425 1_555
O6 Y2 2.280857 1_565
O7 P1 1.538190 1_555
O7 Y2 2.273005 1_455
O8 P2 1.537190 1_555
O8 Y2 2.292965 1_465
O9 S0 1.486066 1_555
O9 Y3 2.279566 1_555
O10 S1 1.485216 1_555
O10 Y3 2.284438 1_445
O11 P0 1.565380 1_555
O11 Y3 2.223423 1_455
O12 P4 1.520080 1_555
O12 Y4 2.157450 1_555
O13 S2 1.469897 1_555
O13 Y4 2.251486 1_555
O14 P5 1.529927 1_555
O14 Y4 2.217134 1_555
O15 P6 1.516862 1_555
O15 Y5 2.206150 1_555
O16 P7 1.529168 1_555
O16 Y5 2.164188 1_555
O17 P8 1.519624 1_555
O17 Y5 2.152884 1_555
O18 P8 1.611401 1_555
O19 P6 1.611925 1_555
O20 P7 1.608421 1_555
O21 S2 1.509990 1_555
O22 P5 1.627853 1_555
O23 P4 1.622251 1_555
O24 P9 1.519843 1_555
O24 Y6 2.159346 1_556
O25 P10 1.515978 1_555
O25 Y6 2.155055 1_556
O26 P11 1.527048 1_555
O26 Y6 2.231464 1_556
O27 P12 1.524217 1_555
O27 Y7 2.203457 1_555
O28 P13 1.521540 1_555
O28 Y7 2.160900 1_555
O29 P14 1.524319 1_555
O29 Y7 2.221424 1_555
O30 P14 1.533943 1_555
O30 Y8 2.234902 1_555
O31 P12 1.553626 1_555
O31 Y8 2.250872 1_555
O32 P13 1.534499 1_555
O32 Y8 2.289606 1_555
O33 P10 1.601361 1_555
O34 P11 1.606385 1_555
O35 P9 1.594071 1_555
O36 P14 1.539504 1_555
O36 Y0 2.238738 1_465
O37 P12 1.527347 1_545
O37 Y0 2.251525 1_555
O38 P13 1.550453 1_555
O38 Y0 2.237766 1_455
O39 P10 1.513211 1_555
O39 Y1 2.242692 1_555
O40 P11 1.516164 1_555
O40 Y1 2.240061 1_565
O41 P9 1.518224 1_555
O41 Y1 2.260441 1_665
O42 P4 1.538897 1_555
O42 Y2 2.313946 1_555
O43 S2 1.484783 1_555
O43 Y2 2.408945 1_455
O44 P5 1.537071 1_555
O44 Y2 2.323287 1_565
O45 P6 1.554251 1_555
O45 Y3 2.286675 1_555
O46 P7 1.533128 1_555
O46 Y3 2.298718 1_545
O47 P8 1.556377 1_555
O47 Y3 2.319175 1_445
O48 P3 1.530270 1_545
O48 Y4 2.231501 1_555
O49 P1 1.552547 1_555
O49 Y4 2.292990 1_555
O50 P2 1.549175 1_655
O50 Y4 2.234095 1_555
O51 S0 1.484240 1_555
O51 Y5 2.319043 1_555
O52 S1 1.484388 1_655
O52 Y5 2.307568 1_555
O53 P0 1.553373 1_545
O53 Y5 2.241853 1_555
O54 P9 1.593444 1_555
O55 P10 1.582511 1_655
O56 P11 1.584325 1_545
O57 P12 1.601596 1_545
O58 P13 1.601069 1_555
O59 P14 1.594338 1_655
O60 P8 1.522653 1_555
O60 Y6 2.208558 1_555
O61 P6 1.542561 1_455
O61 Y6 2.270946 1_555
O62 P7 1.540744 1_565
O62 Y6 2.256001 1_555
O63 S2 1.481448 1_565
O63 Y7 2.348467 1_555
O64 P5 1.531978 1_555
O64 Y7 2.221316 1_555
O65 P4 1.532435 1_455
O65 Y7 2.234144 1_555
O66 P0 1.555701 1_555
O66 Y8 2.245778 1_555
O67 S0 1.486993 1_555
O67 Y8 2.338683 1_555
O68 S1 1.485980 1_555
O68 Y8 2.341494 1_555
O69 P1 1.614226 1_555
O70 P2 1.597193 1_555
O71 P3 1.608452 1_555
