# generated using pymatgen
data_Ba4MgTi3O10
_symmetry_space_group_name_H-M   'P 1'
_cell_length_a   4.04856725
_cell_length_b   17.15737449
_cell_length_c   5.75015709
_cell_angle_alpha   95.90809099
_cell_angle_beta   134.71256929
_cell_angle_gamma   90.03716421
_symmetry_Int_Tables_number   1
_chemical_formula_structural   Ba4MgTi3O10
_chemical_formula_sum   'Ba4 Mg1 Ti3 O10'
_cell_volume   280.82711923
_cell_formula_units_Z   1
loop_
 _symmetry_equiv_pos_site_id
 _symmetry_equiv_pos_as_xyz
  1  'x, y, z'
loop_
 _atom_site_type_symbol
 _atom_site_label
 _atom_site_symmetry_multiplicity
 _atom_site_fract_x
 _atom_site_fract_y
 _atom_site_fract_z
 _atom_site_occupancy
  Ba  Ba0  1  0.73474988  0.92669745  0.92431744  1
  Ba  Ba1  1  0.13824384  0.57669164  0.83233911  1
  Ba  Ba2  1  0.90269339  0.17038467  0.08439455  1
  Ba  Ba3  1  0.03382741  0.40376217  0.22082517  1
  Mg  Mg0  1  0.65891362  0.80255149  0.35147170  1
  Ti  Ti0  1  0.85467902  0.05343125  0.52665310  1
  Ti  Ti1  1  0.97472911  0.29384142  0.65905449  1
  Ti  Ti2  1  0.22941043  0.68302145  0.42355585  1
  O  O0  1  0.11048626  0.56623496  0.30476069  1
  O  O1  1  0.87284422  0.16388569  0.56384933  1
  O  O2  1  0.28524472  0.04158418  0.97899537  1
  O  O3  1  0.28860397  0.03910554  0.48934297  1
  O  O4  1  0.45409013  0.28810115  0.14094090  1
  O  O5  1  0.45854662  0.28735140  0.64730374  1
  O  O6  1  0.66746904  0.68062126  0.86173101  1
  O  O7  1  0.68431815  0.68735004  0.37782275  1
  O  O8  1  0.02581095  0.40502690  0.71474291  1
  O  O9  1  0.22245622  0.80094834  0.41536793  1
loop_
_geom_bond_atom_site_label_1
_geom_bond_atom_site_label_2
_geom_bond_distance
_geom_bond_site_symmetry_2
Ba0 O9 2.770336 1_555
Ba0 O3 2.785107 1_666
Ba0 O2 2.798607 1_665
Ba0 O3 2.806896 1_565
Ba0 O2 2.824595 1_565
Ba0 O9 3.152955 1_656
Ba1 O6 2.687460 1_555
Ba1 O6 2.690083 1_455
Ba1 O7 2.709584 1_556
Ba1 O0 2.820291 1_556
Ba1 O0 2.821478 1_656
Ba1 O7 2.842591 1_455
Ba1 O8 2.914529 1_555
Ba1 O0 2.942129 1_555
Ba1 O0 2.945173 1_455
Ba2 O1 2.804855 1_655
Ba2 O5 2.824193 1_655
Ba2 O4 2.829488 1_655
Ba2 O1 2.856541 1_555
Ba2 O4 2.860774 1_555
Ba2 O5 2.874280 1_554
Ba2 O1 2.899773 1_554
Ba2 O2 2.949426 1_654
Ba2 O1 2.953965 1_454
Ba2 O3 2.983548 1_655
Ba2 O2 3.014151 1_554
Ba2 O3 3.065654 1_554
Ba3 O0 2.758830 1_555
Ba3 O4 2.819070 1_455
Ba3 O4 2.821424 1_555
Ba3 O5 2.835339 1_555
Ba3 O5 2.849508 1_454
Ba3 O8 2.851907 1_655
Ba3 O8 2.860897 1_555
Ba3 O8 2.889643 1_554
Ba3 O8 2.902760 1_454
Mg0 O7 1.995068 1_555
Mg0 O9 2.040541 1_655
Mg0 O9 2.042959 1_555
O0 Ti2 1.991891 1_555
O1 Ti0 1.880647 1_555
O1 Ti1 2.207074 1_555
O2 Ti0 1.890712 1_455
O2 Ti0 2.219284 1_556
O3 Ti0 1.926845 1_455
O3 Ti0 2.157621 1_555
O4 Ti1 1.985882 1_454
O4 Ti1 2.105139 1_555
O5 Ti1 2.009652 1_455
O5 Ti1 2.045406 1_555
O6 Ti2 1.796978 1_555
O6 Ti2 2.290169 1_656
O7 Ti2 2.032846 1_655
O7 Ti2 2.037634 1_555
O8 Ti1 1.888118 1_455
O9 Ti2 2.028457 1_555
