# generated using pymatgen
data_MgFe6(OF)6
_symmetry_space_group_name_H-M   'P 1'
_cell_length_a   8.37819716
_cell_length_b   6.00195152
_cell_length_c   5.88481121
_cell_angle_alpha   66.99263002
_cell_angle_beta   64.83004791
_cell_angle_gamma   63.74248709
_symmetry_Int_Tables_number   1
_chemical_formula_structural   MgFe6(OF)6
_chemical_formula_sum   'Mg1 Fe6 O6 F6'
_cell_volume   232.57794297
_cell_formula_units_Z   1
loop_
 _symmetry_equiv_pos_site_id
 _symmetry_equiv_pos_as_xyz
  1  'x, y, z'
loop_
 _atom_site_type_symbol
 _atom_site_label
 _atom_site_symmetry_multiplicity
 _atom_site_fract_x
 _atom_site_fract_y
 _atom_site_fract_z
 _atom_site_occupancy
  Mg  Mg0  1  0.83963165  0.16247264  0.66068797  1
  Fe  Fe0  1  0.84326882  0.65730566  0.66489015  1
  Fe  Fe1  1  0.63654448  0.32249505  0.30101426  1
  Fe  Fe2  1  0.34793310  0.67614037  0.62565622  1
  Fe  Fe3  1  0.20704990  0.34595918  0.37102360  1
  Fe  Fe4  1  0.48385972  0.96598546  0.98891453  1
  Fe  Fe5  1  0.02976794  0.98215295  0.03094227  1
  O  O0  1  0.66600306  0.03276257  0.63420812  1
  O  O1  1  0.37607936  0.43478372  0.42979772  1
  O  O2  1  0.33966516  0.99211079  0.33757042  1
  O  O3  1  0.66799833  0.62653362  0.02519639  1
  O  O4  1  0.00673319  0.28333922  0.70937831  1
  O  O5  1  0.01150579  0.67440177  0.31301163  1
  F  F0  1  0.33629779  0.37705871  0.95532149  1
  F  F1  1  0.32133780  0.89182729  0.88335059  1
  F  F2  1  0.92183037  0.22701305  0.27428611  1
  F  F3  1  0.65814603  0.52685310  0.58978613  1
  F  F4  1  0.01147834  0.79446806  0.73799371  1
  F  F5  1  0.71153616  0.10966878  0.06220940  1
loop_
_geom_bond_atom_site_label_1
_geom_bond_atom_site_label_2
_geom_bond_distance
_geom_bond_site_symmetry_2
Mg0 O4 1.992667 1_655
Mg0 O0 2.009030 1_555
Fe0 O5 1.940206 1_655
Fe0 O3 1.992903 1_556
Fe0 O4 2.026780 1_655
Fe0 O0 2.065243 1_565
Fe1 O1 1.865979 1_555
Fe1 O3 1.944303 1_555
Fe1 O0 2.072699 1_555
Fe2 O2 1.986416 1_555
Fe2 O1 2.062587 1_555
Fe3 O1 1.907397 1_555
Fe3 O5 1.943889 1_555
Fe3 O2 1.958721 1_545
Fe3 O4 2.013263 1_555
Fe4 O2 1.915541 1_556
Fe4 O3 1.932769 1_556
Fe4 O0 2.006047 1_565
Fe5 O5 1.956491 1_555
Fe5 O4 2.052787 1_564
F0 Fe2 2.065716 1_555
F0 Fe3 2.181870 1_556
F0 Fe4 2.186898 1_545
F1 Fe4 1.977372 1_555
F1 Fe5 2.099342 1_556
F1 Fe2 2.239900 1_555
F2 Mg0 2.002601 1_555
F2 Fe5 2.096664 1_645
F2 Fe1 2.145884 1_555
F3 Mg0 2.037899 1_555
F3 Fe0 2.267613 1_555
F3 Fe2 2.285387 1_555
F3 Fe1 2.551937 1_555
F4 Mg0 2.028878 1_465
F4 Fe0 2.160557 1_455
F4 Fe2 2.428588 1_555
F4 Fe5 2.481915 1_556
F5 Fe1 1.985809 1_555
F5 Mg0 2.096175 1_554
F5 Fe5 2.369714 1_645
F5 Fe4 2.648491 1_544
