# generated using pymatgen
data_Rb4Au6S5
_symmetry_space_group_name_H-M   'P 1'
_cell_length_a   10.03528706
_cell_length_b   10.03502342
_cell_length_c   10.03860252
_cell_angle_alpha   89.99952519
_cell_angle_beta   90.00140404
_cell_angle_gamma   119.99918945
_symmetry_Int_Tables_number   1
_chemical_formula_structural   Rb4Au6S5
_chemical_formula_sum   'Rb8 Au12 S10'
_cell_volume   875.49894702
_cell_formula_units_Z   2
loop_
 _symmetry_equiv_pos_site_id
 _symmetry_equiv_pos_as_xyz
  1  'x, y, z'
loop_
 _atom_site_type_symbol
 _atom_site_label
 _atom_site_symmetry_multiplicity
 _atom_site_fract_x
 _atom_site_fract_y
 _atom_site_fract_z
 _atom_site_occupancy
  Rb  Rb0  1  0.42107403  0.07197700  0.24999779  1
  Rb  Rb1  1  0.92801101  0.34909641  0.25000497  1
  Rb  Rb2  1  0.65089694  0.57891583  0.24999946  1
  Rb  Rb3  1  0.57891411  0.65090199  0.75000069  1
  Rb  Rb4  1  0.34908583  0.92800431  0.75000096  1
  Rb  Rb5  1  -0.00000312  -0.00000321  0.00000068  1
  Rb  Rb6  1  -0.00000304  -0.00000336  0.50000071  1
  Rb  Rb7  1  0.07199632  0.42109098  0.75000005  1
  Au  Au0  1  0.82997268  0.54662126  0.59126795  1
  Au  Au1  1  0.71662799  0.17000485  0.59127160  1
  Au  Au2  1  0.45332642  0.28333195  0.59127481  1
  Au  Au3  1  0.28335236  0.45335833  0.40874350  1
  Au  Au4  1  0.71663954  0.17001118  0.90873058  1
  Au  Au5  1  0.82998743  0.54663142  0.90873102  1
  Au  Au6  1  0.17001053  0.71666381  0.09124742  1
  Au  Au7  1  0.54668304  0.83000739  0.09125896  1
  Au  Au8  1  0.54668549  0.83000695  0.40874180  1
  Au  Au9  1  0.17001750  0.71664328  0.40872417  1
  Au  Au10  1  0.28335085  0.45336059  0.09125720  1
  Au  Au11  1  0.45336446  0.28335567  0.90873401  1
  S  S0  1  0.73425679  0.96368427  0.25000221  1
  S  S1  1  0.33335934  0.66668471  0.53780100  1
  S  S2  1  0.33335211  0.66668703  0.96219649  1
  S  S3  1  0.66666246  0.33333330  0.03781435  1
  S  S4  1  0.66663156  0.33332024  0.46219666  1
  S  S5  1  0.96364761  0.73421778  0.74999279  1
  S  S6  1  0.77057616  0.03635180  0.74999842  1
  S  S7  1  0.26575236  0.22940899  0.75002066  1
  S  S8  1  0.03633244  0.77053989  0.24999032  1
  S  S9  1  0.22943682  0.26579536  0.24999977  1
loop_
_geom_bond_atom_site_label_1
_geom_bond_atom_site_label_2
_geom_bond_distance
_geom_bond_site_symmetry_2
Rb0 S4 3.320454 1_555
Rb0 S3 3.320567 1_555
Rb0 S9 3.349882 1_555
Rb0 S8 3.518311 1_545
Rb0 S0 3.804470 1_545
Rb1 S3 3.320513 1_555
Rb1 S4 3.320793 1_555
Rb1 S0 3.349501 1_545
Rb1 S9 3.518138 1_655
Rb1 S8 3.804019 1_655
Rb2 S3 3.320467 1_555
Rb2 S4 3.320484 1_555
Rb2 S8 3.349793 1_655
Rb2 S0 3.518298 1_555
Rb2 S9 3.804245 1_555
Rb3 S1 3.320413 1_555
Rb3 S2 3.320532 1_555
Rb3 S6 3.349828 1_565
Rb3 S5 3.518199 1_555
Rb3 S7 3.804532 1_555
Rb4 S2 3.320381 1_555
Rb4 S1 3.320476 1_555
Rb4 S5 3.349816 1_455
Rb4 S7 3.518085 1_565
Rb4 S6 3.804520 1_565
Rb5 S7 3.545487 1_554
Rb5 S0 3.545629 1_445
Rb5 S6 3.545669 1_454
Rb5 S8 3.545734 1_545
Rb5 S5 3.545761 1_444
Rb5 S9 3.545813 1_555
Rb6 S0 3.545520 1_445
Rb6 S5 3.545628 1_445
Rb6 S7 3.545706 1_555
Rb6 S6 3.545722 1_455
Rb6 S9 3.545875 1_555
Rb6 S8 3.545920 1_545
Rb7 S2 3.320628 1_555
Rb7 S1 3.320724 1_555
Rb7 S7 3.349729 1_555
Rb7 S6 3.518199 1_455
Rb7 S5 3.804259 1_455
Au0 S5 2.314512 1_555
Au0 S4 2.332120 1_555
Au0 Rb3 3.552244 1_555
Au0 Rb7 3.617196 1_655
Au0 Rb2 3.956397 1_555
Au1 S6 2.314492 1_555
Au1 S4 2.332111 1_555
Au1 Rb7 3.552454 1_655
Au1 Rb4 3.617181 1_545
Au1 Rb1 3.956529 1_555
Au2 S7 2.314559 1_555
Au2 S4 2.332184 1_555
Au2 Rb4 3.552124 1_545
Au2 Rb3 3.617210 1_555
Au2 Rb0 3.956501 1_555
Au3 S9 2.314416 1_555
Au3 S1 2.332123 1_555
Au3 Rb1 3.552305 1_455
Au3 Rb2 3.617246 1_555
Au3 Rb7 3.956364 1_555
Au4 S6 2.314546 1_555
Au4 S3 2.332134 1_556
Au4 Rb7 3.552434 1_655
Au4 Rb4 3.617209 1_545
Au4 Rb1 3.956485 1_556
Au5 S5 2.314549 1_555
Au5 S3 2.332156 1_556
Au5 Rb3 3.552230 1_555
Au5 Rb7 3.617197 1_655
Au5 Rb2 3.956519 1_556
Au6 S8 2.314459 1_555
Au6 S2 2.332145 1_554
Au6 Rb0 3.552114 1_565
Au6 Rb1 3.617403 1_455
Au6 Rb4 3.956174 1_554
Au7 S0 2.314531 1_555
Au7 S2 2.332202 1_554
Au7 Rb2 3.552036 1_555
Au7 Rb0 3.617330 1_565
Au7 Rb3 3.956298 1_554
Au8 S0 2.314541 1_555
Au8 S1 2.332205 1_555
Au8 Rb2 3.552066 1_555
Au8 Rb0 3.617328 1_565
Au8 Rb3 3.956254 1_555
Au9 S8 2.314501 1_555
Au9 S1 2.332139 1_555
Au9 Rb0 3.552154 1_565
Au9 Rb1 3.617078 1_455
Au9 Rb4 3.956443 1_555
Au10 S9 2.314423 1_555
Au10 S2 2.332150 1_554
Au10 Rb1 3.552400 1_455
Au10 Rb2 3.617184 1_555
Au10 Rb7 3.956272 1_554
Au11 S7 2.314502 1_555
Au11 S3 2.332111 1_556
Au11 Rb4 3.552283 1_545
Au11 Rb3 3.617103 1_555
Au11 Rb0 3.956416 1_556
