# generated using pymatgen
data_Fe2WO6
_symmetry_space_group_name_H-M   'P 1'
_cell_length_a   4.62486800
_cell_length_b   5.07373500
_cell_length_c   16.96556300
_cell_angle_alpha   90.00000000
_cell_angle_beta   90.00000000
_cell_angle_gamma   90.00000000
_symmetry_Int_Tables_number   1
_chemical_formula_structural   Fe2WO6
_chemical_formula_sum   'Fe8 W4 O24'
_cell_volume   398.10295250
_cell_formula_units_Z   4
loop_
 _symmetry_equiv_pos_site_id
 _symmetry_equiv_pos_as_xyz
  1  'x, y, z'
loop_
 _atom_site_type_symbol
 _atom_site_label
 _atom_site_symmetry_multiplicity
 _atom_site_fract_x
 _atom_site_fract_y
 _atom_site_fract_z
 _atom_site_occupancy
  Fe  Fe0  1  0.00000000  0.25000000  0.55280000  1
  Fe  Fe1  1  0.50000000  0.75000000  0.94720000  1
  Fe  Fe2  1  0.00000000  0.75000000  0.44720000  1
  Fe  Fe3  1  0.50000000  0.25000000  0.05280000  1
  Fe  Fe4  1  0.50000000  0.25000000  0.72231900  1
  Fe  Fe5  1  0.00000000  0.75000000  0.77768100  1
  Fe  Fe6  1  0.00000000  0.25000000  0.22231900  1
  Fe  Fe7  1  0.50000000  0.75000000  0.27768100  1
  W  W0  1  0.00000000  0.25000000  0.88434300  1
  W  W1  1  0.50000000  0.75000000  0.61565700  1
  W  W2  1  0.00000000  0.75000000  0.11565700  1
  W  W3  1  0.50000000  0.25000000  0.38434300  1
  O  O0  1  0.72489200  0.41604700  0.29725600  1
  O  O1  1  0.22489200  0.58395300  0.20274400  1
  O  O2  1  0.77510800  0.91604700  0.20274400  1
  O  O3  1  0.27510800  0.08395300  0.29725600  1
  O  O4  1  0.27510800  0.58395300  0.70274400  1
  O  O5  1  0.77510800  0.41604700  0.79725600  1
  O  O6  1  0.22489200  0.08395300  0.79725600  1
  O  O7  1  0.72489200  0.91604700  0.70274400  1
  O  O8  1  0.72654700  0.93002600  0.37410500  1
  O  O9  1  0.22654700  0.06997400  0.12589500  1
  O  O10  1  0.77345300  0.43002600  0.12589500  1
  O  O11  1  0.27345300  0.56997400  0.37410500  1
  O  O12  1  0.76375900  0.90660100  0.54090200  1
  O  O13  1  0.26375900  0.09339900  0.95909800  1
  O  O14  1  0.73624100  0.40660100  0.95909800  1
  O  O15  1  0.23624100  0.59339900  0.54090200  1
  O  O16  1  0.23624100  0.09339900  0.45909800  1
  O  O17  1  0.73624100  0.90660100  0.04090200  1
  O  O18  1  0.27345300  0.06997400  0.62589500  1
  O  O19  1  0.76375900  0.40660100  0.45909800  1
  O  O20  1  0.72654700  0.43002600  0.62589500  1
  O  O21  1  0.22654700  0.56997400  0.87410500  1
  O  O22  1  0.77345300  0.93002600  0.87410500  1
  O  O23  1  0.26375900  0.59339900  0.04090200  1
loop_
_geom_bond_atom_site_label_1
_geom_bond_atom_site_label_2
_geom_bond_distance
_geom_bond_site_symmetry_2
Fe0 O20 1.992881 1_455
Fe0 O18 1.992881 1_555
Fe0 O12 2.066434 1_445
Fe0 O15 2.066434 1_555
Fe0 O19 2.086198 1_455
Fe0 O16 2.086198 1_555
Fe1 O21 1.992881 1_555
Fe1 O22 1.992881 1_555
Fe1 O14 2.066434 1_555
Fe1 O13 2.066434 1_565
Fe1 O23 2.086198 1_556
Fe1 O17 2.086198 1_556
Fe2 O8 1.992881 1_455
Fe2 O11 1.992881 1_555
Fe2 O16 2.066434 1_565
Fe2 O19 2.066434 1_455
Fe2 O12 2.086198 1_455
Fe2 O15 2.086198 1_555
Fe3 O10 1.992881 1_555
Fe3 O9 1.992881 1_555
Fe3 O17 2.066434 1_545
Fe3 O23 2.066434 1_555
Fe3 O14 2.086198 1_554
Fe3 O13 2.086198 1_554
Fe4 O6 1.986188 1_555
Fe4 O5 1.986188 1_555
Fe4 O4 2.015699 1_555
Fe4 O7 2.015699 1_545
Fe4 O18 2.146675 1_555
Fe4 O20 2.146675 1_555
Fe5 O7 1.986188 1_455
Fe5 O4 1.986188 1_555
Fe5 O6 2.015699 1_565
Fe5 O5 2.015699 1_455
Fe5 O22 2.146675 1_455
Fe5 O21 2.146675 1_555
Fe6 O0 1.986188 1_455
Fe6 O3 1.986188 1_555
Fe6 O1 2.015699 1_555
Fe6 O2 2.015699 1_445
Fe6 O10 2.146675 1_455
Fe6 O9 2.146675 1_555
Fe7 O2 1.986188 1_555
Fe7 O1 1.986188 1_555
Fe7 O0 2.015699 1_555
Fe7 O3 2.015699 1_565
Fe7 O11 2.146675 1_555
Fe7 O8 2.146675 1_555
O0 W3 1.993619 1_555
O1 W2 1.993619 1_555
O2 W2 1.993619 1_655
O3 W3 1.993619 1_555
O4 W1 1.993619 1_555
O5 W0 1.993619 1_655
O6 W0 1.993619 1_555
O7 W1 1.993619 1_555
O8 W3 1.939995 1_565
O9 W2 1.939995 1_545
O10 W2 1.939995 1_655
O11 W3 1.939995 1_555
O12 W1 1.930760 1_555
O13 W0 1.930760 1_555
O14 W0 1.930760 1_655
O15 W1 1.930760 1_555
O16 W3 1.930760 1_555
O17 W2 1.930760 1_655
O18 W1 1.939995 1_545
O19 W3 1.930760 1_555
O20 W1 1.939995 1_555
O21 W0 1.939995 1_555
O22 W0 1.939995 1_665
O23 W2 1.930760 1_555
