# generated using pymatgen
data_Na3Ca3Y(SO4)6
_symmetry_space_group_name_H-M   'P 1'
_cell_length_a   9.19234525
_cell_length_b   9.19194561
_cell_length_c   24.12612577
_cell_angle_alpha   89.85723305
_cell_angle_beta   90.23071865
_cell_angle_gamma   120.08635732
_symmetry_Int_Tables_number   1
_chemical_formula_structural   Na3Ca3Y(SO4)6
_chemical_formula_sum   'Na9 Ca9 Y3 S18 O72'
_cell_volume   1763.88321618
_cell_formula_units_Z   3
loop_
 _symmetry_equiv_pos_site_id
 _symmetry_equiv_pos_as_xyz
  1  'x, y, z'
loop_
 _atom_site_type_symbol
 _atom_site_label
 _atom_site_symmetry_multiplicity
 _atom_site_fract_x
 _atom_site_fract_y
 _atom_site_fract_z
 _atom_site_occupancy
  Na  Na0  1  0.63917138  0.99850244  0.24723586  1
  Na  Na1  1  0.35873305  0.36007711  0.24674319  1
  Na  Na2  1  0.03329084  0.69791282  0.58993045  1
  Na  Na3  1  0.99982766  0.02275788  0.49915624  1
  Na  Na4  1  0.99983042  0.99885714  0.99624738  1
  Na  Na5  1  0.66576758  0.33210713  0.82656618  1
  Na  Na6  1  0.69282631  0.35897967  0.33850065  1
  Na  Na7  1  0.30956272  0.66594863  0.15042017  1
  Na  Na8  1  0.36146427  0.66592933  0.67308996  1
  Ca  Ca0  1  0.00037677  0.98946925  0.35211204  1
  Ca  Ca1  1  0.99993451  0.99861661  0.84846038  1
  Ca  Ca2  1  0.99925554  0.01126970  0.65472478  1
  Ca  Ca3  1  0.99950395  0.99136615  0.14538126  1
  Ca  Ca4  1  0.65847833  0.32466199  0.68555518  1
  Ca  Ca5  1  0.67725913  0.34418346  0.17758964  1
  Ca  Ca6  1  0.33647181  0.66659261  0.01473797  1
  Ca  Ca7  1  0.34367579  0.66656274  0.51393022  1
  Ca  Ca8  1  0.32247436  0.66674522  0.32369881  1
  Y  Y0  1  0.66530821  0.33215482  0.98325452  1
  Y  Y1  1  0.65605724  0.32321787  0.48402387  1
  Y  Y2  1  0.33057993  0.66616114  0.81909633  1
  S  S0  1  0.31073997  0.00626350  0.24985099  1
  S  S1  1  0.68858648  0.69537804  0.25126779  1
  S  S2  1  0.00007421  0.29392766  0.25055568  1
  S  S3  1  0.30728903  0.31189297  0.75200797  1
  S  S4  1  0.00481819  0.69450028  0.74714086  1
  S  S5  1  0.68877615  0.99526756  0.75165755  1
  S  S6  1  0.96588654  0.33721092  0.58210889  1
  S  S7  1  0.35510701  0.02412362  0.58271170  1
  S  S8  1  0.67419243  0.63407844  0.58329485  1
  S  S9  1  0.97364761  0.63868602  0.08102085  1
  S  S10  1  0.66436362  0.02886583  0.08636549  1
  S  S11  1  0.36382972  0.33565964  0.08585339  1
  S  S12  1  0.63549786  0.66392529  0.91772453  1
  S  S13  1  0.02776710  0.36349223  0.91783930  1
  S  S14  1  0.33533649  0.97046635  0.91770828  1
  S  S15  1  0.64333703  0.98022389  0.41365441  1
  S  S16  1  0.33626865  0.35760816  0.41363260  1
  S  S17  1  0.01944220  0.66257319  0.42266244  1
  O  O0  1  0.22343851  0.01684443  0.29969131  1
  O  O1  1  0.78609973  0.77525860  0.30185013  1
  O  O2  1  0.98225364  0.19215033  0.30042282  1
  O  O3  1  0.21577076  0.21380871  0.80107579  1
  O  O4  1  0.99823899  0.79488563  0.79352539  1
  O  O5  1  0.78770242  0.00300945  0.80073820  1
  O  O6  1  0.76749653  0.98253503  0.69965986  1
  O  O7  1  0.21517597  0.23298120  0.70000091  1
  O  O8  1  0.01693645  0.77896133  0.69279833  1
  O  O9  1  0.77637903  0.79451475  0.20141810  1
  O  O10  1  0.01700541  0.20982376  0.20055711  1
  O  O11  1  0.21369775  0.99164052  0.19923622  1
  O  O12  1  0.87814205  0.34775961  0.63161857  1
  O  O13  1  0.45019109  0.11080417  0.63268811  1
  O  O14  1  0.66328033  0.53865856  0.63375709  1
  O  O15  1  0.89332930  0.55364486  0.13368253  1
  O  O16  1  0.66187326  0.10471279  0.14097847  1
  O  O17  1  0.44262205  0.33867201  0.14052553  1
  O  O18  1  0.47411794  0.33738463  0.04007268  1
  O  O19  1  0.87159025  0.53556762  0.03302013  1
  O  O20  1  0.66434508  0.13840495  0.04040041  1
  O  O21  1  0.44623730  0.12061628  0.53201013  1
  O  O22  1  0.67794314  0.53805323  0.53350745  1
  O  O23  1  0.86455108  0.32478819  0.53148684  1
  O  O24  1  0.55191171  0.67475501  0.96810961  1
  O  O25  1  0.12389497  0.44870580  0.96796020  1
  O  O26  1  0.32640949  0.87601415  0.96802356  1
  O  O27  1  0.54237333  0.87500883  0.46053970  1
  O  O28  1  0.33133837  0.45754584  0.46059959  1
  O  O29  1  0.11054779  0.66728392  0.47382238  1
  O  O30  1  0.10630100  0.65088177  0.37253843  1
  O  O31  1  0.55910281  0.90597263  0.35974445  1
  O  O32  1  0.34679667  0.44233289  0.35970848  1
  O  O33  1  0.11562739  0.46538987  0.86756445  1
  O  O34  1  0.34720955  0.88190206  0.86750065  1
  O  O35  1  0.53378582  0.65191388  0.86763962  1
  O  O36  1  0.00024717  0.81300432  0.42025353  1
  O  O37  1  0.81407614  0.00152041  0.41589943  1
  O  O38  1  0.18649408  0.18707435  0.41548221  1
  O  O39  1  0.00618753  0.19328192  0.91402037  1
  O  O40  1  0.18644904  0.99153509  0.91399062  1
  O  O41  1  0.80655850  0.81192057  0.91417160  1
  O  O42  1  0.98979960  0.18969046  0.58294698  1
  O  O43  1  0.18403188  0.00543564  0.58219165  1
  O  O44  1  0.83660954  0.79821679  0.58295622  1
  O  O45  1  0.98581694  0.80548572  0.07789188  1
  O  O46  1  0.81855737  0.01658143  0.08176494  1
  O  O47  1  0.19737513  0.18081344  0.08087242  1
  O  O48  1  0.66711467  0.14483983  0.75062247  1
  O  O49  1  0.47857565  0.33336413  0.75122110  1
  O  O50  1  0.85480478  0.52334722  0.74819260  1
  O  O51  1  0.65678623  0.51799398  0.24798916  1
  O  O52  1  0.84542831  0.30945826  0.24679447  1
  O  O53  1  0.48066401  0.16417020  0.24787323  1
  O  O54  1  0.64726495  0.50668490  0.91941683  1
  O  O55  1  0.85769202  0.34957432  0.91935692  1
  O  O56  1  0.49183086  0.14055595  0.91907308  1
  O  O57  1  0.65948658  0.15097109  0.41759605  1
  O  O58  1  0.49092398  0.34186099  0.41786527  1
  O  O59  1  0.84691657  0.50873242  0.42259605  1
  O  O60  1  0.34668786  0.48738016  0.08233471  1
  O  O61  1  0.14333730  0.65791449  0.07899983  1
  O  O62  1  0.51190672  0.86047791  0.08270740  1
  O  O63  1  0.33297543  0.85148440  0.58019218  1
  O  O64  1  0.52945850  0.66210983  0.57970799  1
  O  O65  1  0.13155159  0.49713534  0.57876587  1
  O  O66  1  0.34135009  0.86055321  0.25330519  1
  O  O67  1  0.51968033  0.68388485  0.25360050  1
  O  O68  1  0.15444958  0.46373010  0.25453273  1
  O  O69  1  0.32596154  0.48445455  0.75484536  1
  O  O70  1  0.15964843  0.67870520  0.75268281  1
  O  O71  1  0.51674103  0.84058498  0.75463345  1
loop_
_geom_bond_atom_site_label_1
_geom_bond_atom_site_label_2
_geom_bond_distance
_geom_bond_site_symmetry_2
Na0 O66 2.376132 1_555
Na0 O52 2.516204 1_565
Na0 O67 2.531356 1_555
Na0 O53 2.582072 1_565
Na0 O16 2.712228 1_565
Na0 O31 2.830197 1_555
Na1 O51 2.372058 1_555
Na1 O68 2.503389 1_555
Na1 O53 2.553996 1_555
Na1 O67 2.580845 1_555
Na1 O17 2.714947 1_555
Na1 O32 2.847359 1_555
Na2 O63 2.396141 1_555
Na2 O44 2.411462 1_455
Na2 O65 2.443393 1_555
Na2 O43 2.453095 1_565
Na2 O8 2.619442 1_555
Na3 O42 2.570683 1_555
Na3 O37 2.574589 1_555
Na3 O38 2.591356 1_655
Na3 O43 2.673428 1_655
Na3 O36 2.714208 1_645
Na3 O44 2.738148 1_545
Na4 O45 2.609782 1_556
Na4 O41 2.637787 1_555
Na4 O39 2.647903 1_665
Na4 O40 2.651334 1_655
Na4 O47 2.684282 1_666
Na4 O46 2.713219 1_566
Na5 O49 2.502006 1_555
Na5 O48 2.521414 1_555
Na5 O50 2.575323 1_555
Na5 O56 2.797192 1_555
Na5 O55 2.799282 1_555
Na5 O54 2.813684 1_555
Na6 O59 2.460380 1_555
Na6 O57 2.605798 1_555
Na6 O58 2.621060 1_555
Na6 O51 2.734676 1_555
Na6 O52 2.782159 1_555
Na6 O53 2.876554 1_555
Na7 O61 2.274994 1_555
Na7 O62 2.449716 1_555
Na7 O60 2.467480 1_555
Na8 O71 2.486112 1_555
Na8 O69 2.494511 1_555
Na8 O70 2.718654 1_555
Na8 O64 2.746727 1_555
Na8 O63 2.902586 1_555
Na8 O65 2.956994 1_555
Ca0 O36 2.306200 1_555
Ca0 O1 2.308979 1_455
Ca0 O2 2.313382 1_465
Ca0 O0 2.317151 1_565
Ca0 O38 2.332556 1_565
Ca0 O37 2.350677 1_465
Ca1 O5 2.279024 1_565
Ca1 O3 2.286529 1_665
Ca1 O4 2.290574 1_555
Ca1 O40 2.352201 1_655
Ca1 O41 2.359834 1_555
Ca1 O39 2.370051 1_665
Ca2 O7 2.285624 1_655
Ca2 O6 2.288385 1_545
Ca2 O8 2.401449 1_645
Ca2 O42 2.413231 1_555
Ca2 O43 2.462906 1_655
Ca2 O44 2.475696 1_545
Ca3 O45 2.320142 1_555
Ca3 O10 2.349018 1_665
Ca3 O11 2.353591 1_655
Ca3 O46 2.353767 1_565
Ca3 O47 2.365728 1_665
Ca3 O9 2.365977 1_555
Ca4 O48 2.306600 1_555
Ca4 O14 2.309561 1_555
Ca4 O13 2.318668 1_555
Ca4 O49 2.324965 1_555
Ca4 O12 2.325003 1_555
Ca4 O50 2.358666 1_555
Ca5 O15 2.224133 1_555
Ca5 O17 2.308547 1_555
Ca5 O16 2.311284 1_555
Ca5 O52 2.398037 1_555
Ca5 O51 2.406298 1_555
Ca5 O53 2.427287 1_555
Ca6 O24 2.249820 1_554
Ca6 O26 2.269632 1_554
Ca6 O25 2.274415 1_554
Ca6 O61 2.332710 1_555
Ca6 O60 2.350020 1_555
Ca6 O62 2.361701 1_555
Ca7 O28 2.269874 1_555
Ca7 O27 2.272523 1_555
Ca7 O64 2.341915 1_555
Ca7 O29 2.350811 1_555
Ca7 O63 2.374250 1_555
Ca7 O65 2.375324 1_555
Ca8 O30 2.255192 1_555
Ca8 O32 2.347711 1_555
Ca8 O31 2.349847 1_555
Ca8 O68 2.399481 1_555
Ca8 O66 2.401133 1_555
Ca8 O67 2.430677 1_555
O0 S0 1.478505 1_555
O1 S1 1.472297 1_555
O2 S2 1.480484 1_655
O3 S3 1.471141 1_555
O4 S4 1.472780 1_655
O5 S5 1.470044 1_545
O6 S5 1.484608 1_555
O7 S3 1.482443 1_555
O8 S4 1.497818 1_555
O9 S1 1.480927 1_555
O10 S2 1.484506 1_555
O11 S0 1.475405 1_565
O12 S6 1.474277 1_555
O13 S7 1.466515 1_555
O14 S8 1.472757 1_555
O15 S9 1.481332 1_555
O16 S10 1.497824 1_555
O17 S11 1.495851 1_555
O18 S11 1.496935 1_555
O18 Y0 2.252689 1_554
O19 S9 1.491595 1_555
O19 Y0 2.229648 1_554
O20 S10 1.496061 1_555
O20 Y0 2.246043 1_554
O21 S7 1.497543 1_555
O21 Y1 2.221372 1_555
O22 S8 1.503073 1_555
O22 Y1 2.230895 1_555
O23 S6 1.502413 1_555
O23 Y1 2.222450 1_555
O24 S12 1.470633 1_555
O25 S13 1.469265 1_555
O26 S14 1.469084 1_555
O27 S15 1.476244 1_555
O28 S16 1.475550 1_555
O29 S17 1.477260 1_555
O30 S17 1.485229 1_555
O31 S15 1.491140 1_555
O32 S16 1.492924 1_555
O33 S13 1.498192 1_555
O33 Y2 2.242597 1_555
O34 S14 1.495654 1_555
O34 Y2 2.241855 1_555
O35 S12 1.494842 1_555
O35 Y2 2.259391 1_555
O36 S17 1.480088 1_555
O37 S15 1.481854 1_545
O38 S16 1.480219 1_555
O39 S13 1.478209 1_555
O40 S14 1.477617 1_555
O41 S12 1.478632 1_555
O42 S6 1.478561 1_555
O43 S7 1.493884 1_555
O44 S8 1.499010 1_555
O45 S9 1.482055 1_555
O46 S10 1.481855 1_555
O47 S11 1.482360 1_555
O48 S5 1.484849 1_545
O49 S3 1.485632 1_555
O50 S4 1.483996 1_655
O51 S1 1.507593 1_555
O52 S2 1.500602 1_655
O53 S0 1.508651 1_555
O54 S12 1.502933 1_555
O54 Y0 2.285975 1_555
O55 S13 1.503928 1_655
O55 Y0 2.294873 1_555
O56 S14 1.503263 1_545
O56 Y0 2.284789 1_555
O57 S15 1.503807 1_545
O57 Y1 2.267013 1_555
O58 S16 1.502507 1_555
O58 Y1 2.263007 1_555
O59 S17 1.505423 1_655
O59 Y1 2.278394 1_555
O60 S11 1.482091 1_555
O61 S9 1.480165 1_455
O62 S10 1.480676 1_565
O63 S7 1.496664 1_565
O64 S8 1.478724 1_555
O65 S6 1.497487 1_455
O66 S0 1.502369 1_565
O67 S1 1.503745 1_555
O68 S2 1.496020 1_555
O69 S3 1.509166 1_555
O69 Y2 2.266201 1_555
O70 S4 1.506703 1_555
O70 Y2 2.282537 1_555
O71 S5 1.507864 1_555
O71 Y2 2.275066 1_555
