# generated using pymatgen
data_Na2FeCu(CN)6
_symmetry_space_group_name_H-M   'P 1'
_cell_length_a   7.24571894
_cell_length_b   7.24571894
_cell_length_c   7.24571894
_cell_angle_alpha   60.00000000
_cell_angle_beta   60.00000000
_cell_angle_gamma   60.00000000
_symmetry_Int_Tables_number   1
_chemical_formula_structural   Na2FeCu(CN)6
_chemical_formula_sum   'Na2 Fe1 Cu1 C6 N6'
_cell_volume   268.98586230
_cell_formula_units_Z   1
loop_
 _symmetry_equiv_pos_site_id
 _symmetry_equiv_pos_as_xyz
  1  'x, y, z'
loop_
 _atom_site_type_symbol
 _atom_site_label
 _atom_site_symmetry_multiplicity
 _atom_site_fract_x
 _atom_site_fract_y
 _atom_site_fract_z
 _atom_site_occupancy
  Na  Na0  1  0.25000000  0.25000000  0.25000000  1
  Na  Na1  1  0.75000000  0.75000000  0.75000000  1
  Fe  Fe0  1  0.00000000  0.00000000  0.00000000  1
  Cu  Cu0  1  0.50000000  0.50000000  0.50000000  1
  C  C0  1  0.18226800  0.18226800  0.81773200  1
  C  C1  1  0.81773200  0.81773200  0.18226800  1
  C  C2  1  0.81773200  0.18226800  0.81773200  1
  C  C3  1  0.18226800  0.81773200  0.81773200  1
  C  C4  1  0.18226800  0.81773200  0.18226800  1
  C  C5  1  0.81773200  0.18226800  0.18226800  1
  N  N0  1  0.29743000  0.70257000  0.70257000  1
  N  N1  1  0.70257000  0.29743000  0.70257000  1
  N  N2  1  0.70257000  0.70257000  0.29743000  1
  N  N3  1  0.29743000  0.29743000  0.70257000  1
  N  N4  1  0.29743000  0.70257000  0.29743000  1
  N  N5  1  0.70257000  0.29743000  0.29743000  1
loop_
_geom_bond_atom_site_label_1
_geom_bond_atom_site_label_2
_geom_bond_distance
_geom_bond_site_symmetry_2
Cu0 N4 2.075734 1_555
Cu0 N5 2.075734 1_555
Cu0 N3 2.075734 1_555
Cu0 N1 2.075734 1_555
Cu0 N0 2.075734 1_555
Cu0 N2 2.075734 1_555
C0 N3 1.180064 1_555
C0 Fe0 1.867699 1_556
C1 N2 1.180064 1_555
C1 Fe0 1.867699 1_665
C2 N1 1.180064 1_555
C2 Fe0 1.867699 1_656
C3 N0 1.180064 1_555
C3 Fe0 1.867699 1_566
C4 N4 1.180064 1_555
C4 Fe0 1.867699 1_565
C5 N5 1.180064 1_555
C5 Fe0 1.867699 1_655
