# generated using pymatgen
data_Ni2As2O7
_symmetry_space_group_name_H-M   'P 1'
_cell_length_a   5.40585319
_cell_length_b   9.66100357
_cell_length_c   5.40585979
_cell_angle_alpha   96.83952543
_cell_angle_beta   106.86539069
_cell_angle_gamma   96.83947970
_symmetry_Int_Tables_number   1
_chemical_formula_structural   Ni2As2O7
_chemical_formula_sum   'Ni4 As4 O14'
_cell_volume   264.73031080
_cell_formula_units_Z   2
loop_
 _symmetry_equiv_pos_site_id
 _symmetry_equiv_pos_as_xyz
  1  'x, y, z'
loop_
 _atom_site_type_symbol
 _atom_site_label
 _atom_site_symmetry_multiplicity
 _atom_site_fract_x
 _atom_site_fract_y
 _atom_site_fract_z
 _atom_site_occupancy
  Ni  Ni0  1  0.31190600  0.75000000  0.68809300  1
  Ni  Ni1  1  0.68809400  0.25000000  0.31190700  1
  Ni  Ni2  1  0.31189800  0.25000000  0.68810100  1
  Ni  Ni3  1  0.68810200  0.75000000  0.31189900  1
  As  As0  1  0.75752000  0.05169400  0.75751900  1
  As  As1  1  0.75752000  0.55169400  0.75751900  1
  As  As2  1  0.24247900  0.44830500  0.24247900  1
  As  As3  1  0.24248000  0.94830500  0.24247900  1
  O  O0  1  0.00000000  0.00000000  0.00000000  1
  O  O1  1  0.00000000  0.50000000  0.00000000  1
  O  O2  1  0.40828100  0.11353500  0.40828800  1
  O  O3  1  0.40828900  0.61353500  0.40828100  1
  O  O4  1  0.59171000  0.38646400  0.59171800  1
  O  O5  1  0.59171800  0.88646500  0.59171100  1
  O  O6  1  0.59393100  0.14494700  0.92993400  1
  O  O7  1  0.59393200  0.64494300  0.92994100  1
  O  O8  1  0.07006500  0.35505300  0.40607000  1
  O  O9  1  0.07005800  0.85505600  0.40606900  1
  O  O10  1  0.40606800  0.35505700  0.07005700  1
  O  O11  1  0.40606900  0.85505300  0.07006500  1
  O  O12  1  0.92994300  0.14494400  0.59393100  1
  O  O13  1  0.92993500  0.64494700  0.59393000  1
loop_
_geom_bond_atom_site_label_1
_geom_bond_atom_site_label_2
_geom_bond_distance
_geom_bond_site_symmetry_2
Ni0 O13 2.078657 1_455
Ni0 O11 2.078663 1_556
Ni0 O5 2.107980 1_555
Ni0 O3 2.107983 1_555
Ni0 O9 2.142842 1_555
Ni0 O7 2.142854 1_555
Ni1 O8 2.078657 1_655
Ni1 O6 2.078668 1_554
Ni1 O4 2.107977 1_555
Ni1 O2 2.107981 1_555
Ni1 O12 2.142845 1_555
Ni1 O10 2.142859 1_555
Ni2 O12 2.078588 1_455
Ni2 O10 2.078598 1_556
Ni2 O4 2.107978 1_555
Ni2 O2 2.107987 1_555
Ni2 O8 2.142809 1_555
Ni2 O6 2.142815 1_555
Ni3 O9 2.078593 1_655
Ni3 O7 2.078607 1_554
Ni3 O3 2.107984 1_555
Ni3 O5 2.107986 1_555
Ni3 O13 2.142809 1_555
Ni3 O11 2.142817 1_555
As0 O6 1.711857 1_555
As0 O12 1.711866 1_555
As0 O0 1.732260 1_656
As0 O5 1.734116 1_545
As1 O7 1.711857 1_555
As1 O13 1.711858 1_555
As1 O1 1.732260 1_656
As1 O4 1.734125 1_555
As2 O10 1.711856 1_555
As2 O8 1.711858 1_555
As2 O1 1.732255 1_555
As2 O3 1.734126 1_555
As3 O11 1.711849 1_555
As3 O9 1.711866 1_555
As3 O0 1.732258 1_565
As3 O2 1.734123 1_565
