# generated using pymatgen
data_CeCO3F
_symmetry_space_group_name_H-M   'P 1'
_cell_length_a   7.16109235
_cell_length_b   7.16109235
_cell_length_c   9.86131700
_cell_angle_alpha   90.00000000
_cell_angle_beta   90.00000000
_cell_angle_gamma   120.00000327
_symmetry_Int_Tables_number   1
_chemical_formula_structural   CeCO3F
_chemical_formula_sum   'Ce6 C6 O18 F6'
_cell_volume   437.94955217
_cell_formula_units_Z   6
loop_
 _symmetry_equiv_pos_site_id
 _symmetry_equiv_pos_as_xyz
  1  'x, y, z'
loop_
 _atom_site_type_symbol
 _atom_site_label
 _atom_site_symmetry_multiplicity
 _atom_site_fract_x
 _atom_site_fract_y
 _atom_site_fract_z
 _atom_site_occupancy
  Ce  Ce0  1  0.34043600  0.00000000  0.50000000  1
  Ce  Ce1  1  0.00000000  0.34043600  0.50000000  1
  Ce  Ce2  1  0.65956400  0.65956400  0.00000000  1
  Ce  Ce3  1  0.34043600  0.00000000  0.00000000  1
  Ce  Ce4  1  0.65956400  0.65956400  0.50000000  1
  Ce  Ce5  1  0.00000000  0.34043600  0.00000000  1
  C  C0  1  0.70838500  0.03323300  0.25000000  1
  C  C1  1  0.67515200  0.96676700  0.75000000  1
  C  C2  1  0.96676700  0.67515200  0.25000000  1
  C  C3  1  0.32484800  0.29161500  0.25000000  1
  C  C4  1  0.29161500  0.32484800  0.75000000  1
  C  C5  1  0.03323300  0.70838500  0.75000000  1
  O  O0  1  0.21138800  0.89154800  0.75000000  1
  O  O1  1  0.38209000  0.32721900  0.63555000  1
  O  O2  1  0.05487000  0.67278100  0.13555000  1
  O  O3  1  0.10845200  0.31983900  0.75000000  1
  O  O4  1  0.61791000  0.94513000  0.36445000  1
  O  O5  1  0.38209000  0.32721900  0.86445000  1
  O  O6  1  0.94513000  0.61791000  0.63555000  1
  O  O7  1  0.67278100  0.05487000  0.63555000  1
  O  O8  1  0.32721900  0.38209000  0.36445000  1
  O  O9  1  0.31983900  0.10845200  0.25000000  1
  O  O10  1  0.68016100  0.78861200  0.75000000  1
  O  O11  1  0.32721900  0.38209000  0.13555000  1
  O  O12  1  0.67278100  0.05487000  0.86445000  1
  O  O13  1  0.78861200  0.68016100  0.25000000  1
  O  O14  1  0.94513000  0.61791000  0.86445000  1
  O  O15  1  0.89154800  0.21138800  0.25000000  1
  O  O16  1  0.05487000  0.67278100  0.36445000  1
  O  O17  1  0.61791000  0.94513000  0.13555000  1
  F  F0  1  0.33333300  0.66666700  0.54910000  1
  F  F1  1  0.66666700  0.33333300  0.45090000  1
  F  F2  1  0.66666700  0.33333300  0.04910000  1
  F  F3  1  0.33333300  0.66666700  0.95090000  1
  F  F4  1  0.00000000  0.00000000  0.50000000  1
  F  F5  1  0.00000000  0.00000000  0.00000000  1
loop_
_geom_bond_atom_site_label_1
_geom_bond_atom_site_label_2
_geom_bond_distance
_geom_bond_site_symmetry_2
Ce0 F0 2.411123 1_545
Ce0 F1 2.411127 1_555
Ce0 F4 2.437894 1_555
Ce0 O1 2.582166 1_555
Ce0 O16 2.582169 1_545
Ce0 O4 2.582665 1_545
Ce0 O7 2.582671 1_555
Ce0 O0 2.610998 1_545
Ce0 O9 2.610999 1_555
Ce1 F1 2.411123 1_455
Ce1 F0 2.411127 1_555
Ce1 F4 2.437894 1_555
Ce1 O8 2.582166 1_555
Ce1 O7 2.582169 1_455
Ce1 O6 2.582665 1_455
Ce1 O16 2.582671 1_555
Ce1 O15 2.610998 1_455
Ce1 O3 2.610999 1_555
Ce2 F3 2.411130 1_554
Ce2 F2 2.411130 1_555
Ce2 F5 2.437894 1_665
Ce2 O17 2.582173 1_555
Ce2 O14 2.582173 1_554
Ce2 O5 2.582669 1_554
Ce2 O11 2.582669 1_555
Ce2 O10 2.610997 1_554
Ce2 O13 2.610997 1_555
Ce3 F3 2.411123 1_544
Ce3 F2 2.411127 1_555
Ce3 F5 2.437894 1_555
Ce3 O5 2.582166 1_554
Ce3 O2 2.582169 1_545
Ce3 O17 2.582665 1_545
Ce3 O12 2.582671 1_554
Ce3 O0 2.610998 1_544
Ce3 O9 2.610999 1_555
Ce4 F1 2.411130 1_555
Ce4 F0 2.411130 1_555
Ce4 F4 2.437894 1_665
Ce4 O4 2.582173 1_555
Ce4 O6 2.582173 1_555
Ce4 O8 2.582669 1_555
Ce4 O1 2.582669 1_555
Ce4 O10 2.610997 1_555
Ce4 O13 2.610997 1_555
Ce5 F2 2.411123 1_455
Ce5 F3 2.411127 1_554
Ce5 F5 2.437894 1_555
Ce5 O11 2.582166 1_555
Ce5 O12 2.582169 1_454
Ce5 O14 2.582665 1_454
Ce5 O2 2.582671 1_555
Ce5 O15 2.610998 1_455
Ce5 O3 2.610999 1_554
C0 O15 1.294088 1_555
C0 O17 1.297250 1_545
C0 O4 1.297250 1_545
C1 O10 1.294092 1_555
C1 O7 1.297248 1_565
C1 O12 1.297248 1_565
C2 O13 1.294092 1_555
C2 O2 1.297248 1_655
C2 O16 1.297248 1_655
C3 O9 1.294085 1_555
C3 O11 1.297252 1_555
C3 O8 1.297252 1_555
C4 O3 1.294085 1_555
C4 O1 1.297252 1_555
C4 O5 1.297252 1_555
C5 O0 1.294088 1_555
C5 O6 1.297250 1_455
C5 O14 1.297250 1_455
