# generated using pymatgen
data_Na2Nd2MgTi3O10
_symmetry_space_group_name_H-M   'P 1'
_cell_length_a   3.83223264
_cell_length_b   3.83223236
_cell_length_c   17.48954597
_cell_angle_alpha   96.21979858
_cell_angle_beta   96.21980091
_cell_angle_gamma   89.91485870
_symmetry_Int_Tables_number   1
_chemical_formula_structural   Na2Nd2MgTi3O10
_chemical_formula_sum   'Na2 Nd2 Mg1 Ti3 O10'
_cell_volume   253.82294560
_cell_formula_units_Z   1
loop_
 _symmetry_equiv_pos_site_id
 _symmetry_equiv_pos_as_xyz
  1  'x, y, z'
loop_
 _atom_site_type_symbol
 _atom_site_label
 _atom_site_symmetry_multiplicity
 _atom_site_fract_x
 _atom_site_fract_y
 _atom_site_fract_z
 _atom_site_occupancy
  Na  Na0  1  0.70653982  0.70653982  0.40311285  1
  Na  Na1  1  0.27092277  0.27092277  0.52565508  1
  Nd  Nd0  1  0.58654001  0.58654001  0.17530008  1
  Nd  Nd1  1  0.49721509  0.49721509  0.93400528  1
  Mg  Mg0  1  0.35359976  0.35359976  0.72540515  1
  Ti  Ti0  1  0.81207185  0.81207185  0.63977302  1
  Ti  Ti1  1  0.14283391  0.14283391  0.29117009  1
  Ti  Ti2  1  0.03080063  0.03080063  0.04013432  1
  O  O0  1  0.82783408  0.32808761  0.67273582  1
  O  O1  1  0.32808761  0.82783408  0.67273582  1
  O  O2  1  0.12987275  0.62885361  0.26369895  1
  O  O3  1  0.62885361  0.12987275  0.26369895  1
  O  O4  1  0.75927060  0.75927060  0.53789696  1
  O  O5  1  0.19137427  0.19137427  0.39376956  1
  O  O6  1  0.03286793  0.52259396  0.03278231  1
  O  O7  1  0.07042845  0.07042845  0.15176152  1
  O  O8  1  0.94162589  0.94162589  0.92215294  1
  O  O9  1  0.52259396  0.03286793  0.03278231  1
loop_
_geom_bond_atom_site_label_1
_geom_bond_atom_site_label_2
_geom_bond_distance
_geom_bond_site_symmetry_2
Na0 O4 2.330724 1_555
Na0 O5 2.659484 1_665
Na0 O5 2.713198 1_655
Na0 O5 2.713198 1_565
Na0 O5 2.773748 1_555
Na1 O5 2.280766 1_555
Na1 O4 2.624375 1_555
Na1 O4 2.717732 1_545
Na1 O4 2.717732 1_455
Na1 O4 2.815749 1_445
Nd0 O3 2.449730 1_565
Nd0 O2 2.449731 1_655
Nd0 O3 2.451610 1_555
Nd0 O2 2.451610 1_555
Nd0 O7 2.718076 1_665
Nd0 O7 2.738282 1_565
Nd0 O7 2.738282 1_655
Nd0 O7 2.766242 1_555
Nd0 O9 3.081914 1_555
Nd0 O6 3.081914 1_555
Nd0 O9 3.160499 1_565
Nd0 O6 3.160499 1_655
Nd1 O8 2.450630 1_555
Nd1 O9 2.530508 1_566
Nd1 O6 2.530508 1_656
Nd1 O9 2.605709 1_556
Nd1 O6 2.605710 1_556
Nd1 O8 2.728887 1_545
Nd1 O8 2.728887 1_455
Nd1 O8 2.988596 1_445
Mg0 O1 2.120529 1_545
Mg0 O0 2.120529 1_455
Mg0 O1 2.122184 1_555
Mg0 O0 2.122184 1_555
O0 Ti0 1.998065 1_545
O0 Ti0 1.999971 1_555
O1 Ti0 1.998065 1_455
O1 Ti0 1.999971 1_555
O2 Ti1 1.972517 1_555
O2 Ti1 1.975614 1_565
O3 Ti1 1.972517 1_555
O3 Ti1 1.975614 1_655
O4 Ti0 1.760811 1_555
O5 Ti1 1.773299 1_555
O6 Ti2 1.902982 1_555
O6 Ti2 1.937917 1_565
O7 Ti2 1.931118 1_555
O7 Ti1 2.409524 1_555
O8 Ti2 2.045999 1_666
O9 Ti2 1.902982 1_555
O9 Ti2 1.937917 1_655
