# generated using pymatgen
data_Na4Ga2Si3Ge2(SO8)3
_symmetry_space_group_name_H-M   'P 1'
_cell_length_a   8.69263073
_cell_length_b   8.70724638
_cell_length_c   22.07635934
_cell_angle_alpha   89.93662506
_cell_angle_beta   87.50457748
_cell_angle_gamma   119.74005821
_symmetry_Int_Tables_number   1
_chemical_formula_structural   Na4Ga2Si3Ge2(SO8)3
_chemical_formula_sum   'Na12 Ga6 Si9 Ge6 S9 O72'
_cell_volume   1448.97510712
_cell_formula_units_Z   3
loop_
 _symmetry_equiv_pos_site_id
 _symmetry_equiv_pos_as_xyz
  1  'x, y, z'
loop_
 _atom_site_type_symbol
 _atom_site_label
 _atom_site_symmetry_multiplicity
 _atom_site_fract_x
 _atom_site_fract_y
 _atom_site_fract_z
 _atom_site_occupancy
  Na  Na0  1  0.99611672  0.63647973  0.25218518  1
  Na  Na1  1  0.99587391  0.36256333  0.74436808  1
  Na  Na2  1  0.66364867  0.97081317  0.58674794  1
  Na  Na3  1  0.66776805  0.70034627  0.08229517  1
  Na  Na4  1  0.33364405  0.30005867  0.90867953  1
  Na  Na5  1  0.32606595  0.02964529  0.41922959  1
  Na  Na6  1  0.00446553  0.99874015  0.50162344  1
  Na  Na7  1  0.99229316  0.98917450  0.99726659  1
  Na  Na8  1  0.65939579  0.32792365  0.82615160  1
  Na  Na9  1  0.66114816  0.33770491  0.33312137  1
  Na  Na10  1  0.33071791  0.67173070  0.16841645  1
  Na  Na11  1  0.32800285  0.66690922  0.66275211  1
  Ga  Ga0  1  0.99736443  0.97491390  0.35030308  1
  Ga  Ga1  1  0.98311966  0.98949785  0.84474584  1
  Ga  Ga2  1  0.64955507  0.30543835  0.68570476  1
  Ga  Ga3  1  0.66935309  0.34261234  0.19010967  1
  Ga  Ga4  1  0.33007501  0.67445204  0.01604194  1
  Ga  Ga5  1  0.30306329  0.66686149  0.52213301  1
  Si  Si0  1  0.29919861  0.00650566  0.25145508  1
  Si  Si1  1  0.69940202  0.70850669  0.25259772  1
  Si  Si2  1  0.29397463  0.28454279  0.75293592  1
  Si  Si3  1  0.71533947  0.00124845  0.74905748  1
  Si  Si4  1  0.95828855  0.33814025  0.58616633  1
  Si  Si5  1  0.37380758  0.04603517  0.58260872  1
  Si  Si6  1  0.96572645  0.62471318  0.08489883  1
  Si  Si7  1  0.63089388  0.67475994  0.91892350  1
  Si  Si8  1  0.03367240  0.65792801  0.41764616  1
  Ge  Ge0  1  0.01986304  0.03749560  0.64681030  1
  Ge  Ge1  1  0.00042269  0.97160791  0.15519365  1
  Ge  Ge2  1  0.68517078  0.36280760  0.98296306  1
  Ge  Ge3  1  0.68573687  0.34208984  0.49008476  1
  Ge  Ge4  1  0.33597363  0.67854129  0.31502072  1
  Ge  Ge5  1  0.36915600  0.66258317  0.80798703  1
  S  S0  1  0.00153253  0.27990665  0.24969729  1
  S  S1  1  0.00415287  0.71269934  0.75070949  1
  S  S2  1  0.66698805  0.62215860  0.58366802  1
  S  S3  1  0.67010451  0.05273402  0.08260645  1
  S  S4  1  0.36841760  0.32577043  0.08421732  1
  S  S5  1  0.04044775  0.37873920  0.91855817  1
  S  S6  1  0.33687698  0.95683873  0.91686736  1
  S  S7  1  0.62743392  0.95538689  0.41611980  1
  S  S8  1  0.33156874  0.38302892  0.41633502  1
  O  O0  1  0.21763112  0.04636948  0.31221488  1
  O  O1  1  0.83261323  0.79619021  0.30576905  1
  O  O2  1  0.97358111  0.17491816  0.30497234  1
  O  O3  1  0.20712469  0.17088046  0.81609352  1
  O  O4  1  0.97342138  0.78639935  0.80758857  1
  O  O5  1  0.83058803  0.03980779  0.80797430  1
  O  O6  1  0.80270112  0.95770413  0.68767865  1
  O  O7  1  0.16173029  0.20917118  0.69597449  1
  O  O8  1  0.03950352  0.82674621  0.69624322  1
  O  O9  1  0.77967479  0.83059439  0.18735900  1
  O  O10  1  0.03323582  0.19941176  0.19257323  1
  O  O11  1  0.16502169  0.95257265  0.19309718  1
  O  O12  1  0.87205520  0.37407327  0.64644987  1
  O  O13  1  0.49889838  0.12513766  0.63831818  1
  O  O14  1  0.63523752  0.51188058  0.63766448  1
  O  O15  1  0.87181064  0.50183998  0.14431773  1
  O  O16  1  0.63871195  0.13014590  0.13665489  1
  O  O17  1  0.48406882  0.35806060  0.13483573  1
  O  O18  1  0.44815165  0.29316866  0.02560158  1
  O  O19  1  0.83027757  0.54523605  0.02691074  1
  O  O20  1  0.69605912  0.16224153  0.02481100  1
  O  O21  1  0.46423017  0.17373959  0.51830701  1
  O  O22  1  0.70280390  0.54445755  0.52607119  1
  O  O23  1  0.82935141  0.28711054  0.52731445  1
  O  O24  1  0.53603660  0.69456766  0.98110030  1
  O  O25  1  0.14887440  0.46126476  0.97074876  1
  O  O26  1  0.30398620  0.85068101  0.97275383  1
  O  O27  1  0.54872944  0.84626134  0.47157681  1
  O  O28  1  0.31216700  0.46744038  0.47111004  1
  O  O29  1  0.17136565  0.71055271  0.47023983  1
  O  O30  1  0.12389736  0.62273820  0.35386854  1
  O  O31  1  0.51074316  0.87508992  0.36232542  1
  O  O32  1  0.36524630  0.49542465  0.35939601  1
  O  O33  1  0.11499676  0.48769934  0.86163661  1
  O  O34  1  0.36499167  0.87387733  0.86187755  1
  O  O35  1  0.49110677  0.61843990  0.86277214  1
  O  O36  1  0.01931992  0.83819392  0.41230543  1
  O  O37  1  0.80632724  0.98266894  0.40685136  1
  O  O38  1  0.17024416  0.20639242  0.41258578  1
  O  O39  1  0.02380301  0.20278229  0.91496353  1
  O  O40  1  0.18134250  0.98261310  0.91409400  1
  O  O41  1  0.82681064  0.84324118  0.91031387  1
  O  O42  1  0.96492575  0.15030431  0.58880048  1
  O  O43  1  0.17212089  0.01811816  0.59189333  1
  O  O44  1  0.82807228  0.79902164  0.58524681  1
  O  O45  1  0.97502550  0.82342287  0.09016693  1
  O  O46  1  0.83244680  0.03590930  0.08384383  1
  O  O47  1  0.18981739  0.16831460  0.09070141  1
  O  O48  1  0.69691883  0.17622058  0.74537858  1
  O  O49  1  0.49374134  0.32501996  0.74382753  1
  O  O50  1  0.84729162  0.53682510  0.74693937  1
  O  O51  1  0.69264467  0.52007102  0.24410714  1
  O  O52  1  0.84422701  0.30324435  0.24527336  1
  O  O53  1  0.49422418  0.17123816  0.23948385  1
  O  O54  1  0.63586383  0.48135368  0.92503990  1
  O  O55  1  0.85529118  0.35686325  0.92535466  1
  O  O56  1  0.49998797  0.13716111  0.92164892  1
  O  O57  1  0.63414492  0.13090006  0.41957065  1
  O  O58  1  0.48929723  0.35732101  0.41719052  1
  O  O59  1  0.83422634  0.47707050  0.42638354  1
  O  O60  1  0.35587163  0.48862219  0.07749505  1
  O  O61  1  0.16046685  0.64610833  0.07489927  1
  O  O62  1  0.51449335  0.87074347  0.07850323  1
  O  O63  1  0.36896116  0.85776278  0.57412755  1
  O  O64  1  0.51208968  0.64501742  0.57570484  1
  O  O65  1  0.15807625  0.49949219  0.57902028  1
  O  O66  1  0.30174799  0.81718532  0.25766848  1
  O  O67  1  0.50062704  0.68451600  0.26020170  1
  O  O68  1  0.16078534  0.46053017  0.25088939  1
  O  O69  1  0.29374520  0.47857192  0.75909939  1
  O  O70  1  0.16451204  0.68987851  0.75657140  1
  O  O71  1  0.51406296  0.82477143  0.75465001  1
loop_
_geom_bond_atom_site_label_1
_geom_bond_atom_site_label_2
_geom_bond_distance
_geom_bond_site_symmetry_2
Na0 O51 2.325217 1_555
Na0 O66 2.330179 1_655
Na0 O52 2.530468 1_555
Na0 O68 2.563027 1_655
Na0 O30 2.575963 1_655
Na0 O1 2.677947 1_555
Na0 O15 2.680689 1_555
Na0 O11 2.692304 1_655
Na1 O48 2.279900 1_555
Na1 O69 2.304268 1_655
Na1 O50 2.431427 1_555
Na1 O12 2.480016 1_555
Na1 O70 2.497028 1_655
Na1 O7 2.604484 1_655
Na1 O5 2.782716 1_555
Na1 O33 2.842877 1_655
Na2 O63 2.273650 1_555
Na2 O42 2.291924 1_565
Na2 O64 2.482748 1_555
Na2 O44 2.529535 1_555
Na2 O6 2.609542 1_555
Na2 O13 2.631233 1_565
Na2 O23 2.696835 1_565
Na2 O27 2.791252 1_555
Na3 O45 2.348044 1_555
Na3 O60 2.413927 1_555
Na3 O62 2.440128 1_555
Na3 O46 2.538158 1_565
Na3 O24 2.543705 1_554
Na3 O9 2.592288 1_555
Na3 O19 2.657197 1_555
Na3 O17 2.808416 1_555
Na4 O54 2.343799 1_555
Na4 O3 2.371918 1_555
Na4 O39 2.386334 1_555
Na4 O40 2.400425 1_545
Na4 O56 2.500916 1_555
Na4 O35 2.587312 1_555
Na4 O18 2.817740 1_556
Na4 O25 2.911510 1_555
Na5 O36 2.353339 1_545
Na5 O57 2.368209 1_555
Na5 O58 2.476581 1_555
Na5 O38 2.511891 1_555
Na5 O21 2.557453 1_555
Na5 O0 2.611587 1_555
Na5 O29 2.636368 1_545
Na5 O31 2.817405 1_545
Na6 O44 2.425740 1_455
Na6 O42 2.441658 1_465
Na6 O36 2.453958 1_555
Na6 O43 2.476578 1_565
Na6 O38 2.523870 1_565
Na6 O37 2.727409 1_455
Na7 O41 2.408545 1_555
Na7 O40 2.430202 1_655
Na7 O45 2.462394 1_556
Na7 O46 2.465929 1_566
Na7 O39 2.505883 1_665
Na7 O47 2.700787 1_666
Na8 O48 2.326573 1_555
Na8 O49 2.359879 1_555
Na8 O50 2.414751 1_555
Na8 O56 2.564774 1_555
Na8 O54 2.613657 1_555
Na8 O55 2.767620 1_555
Na9 O58 2.391162 1_555
Na9 O51 2.443969 1_555
Na9 O59 2.537527 1_555
Na9 O57 2.544401 1_555
Na9 O52 2.567125 1_555
Na9 O53 2.580848 1_555
Na10 O66 2.414233 1_555
Na10 O68 2.437642 1_555
Na10 O67 2.529348 1_555
Na10 O61 2.538051 1_555
Na10 O62 2.542566 1_555
Na10 O60 2.633147 1_555
Na11 O65 2.414791 1_555
Na11 O63 2.461998 1_555
Na11 O64 2.515057 1_555
Na11 O70 2.525099 1_555
Na11 O71 2.589861 1_555
Na11 O69 2.598979 1_555
Ga0 O1 1.831436 1_555
Ga0 O0 1.853897 1_665
Ga0 O36 1.889904 1_655
Ga0 O37 2.061934 1_555
Ga0 O2 2.109112 1_565
Ga0 O38 2.322130 1_665
Ga1 O5 1.810551 1_565
Ga1 O3 1.877615 1_665
Ga1 O4 1.915373 1_555
Ga1 O41 1.916023 1_555
Ga1 O39 2.319362 1_665
Ga1 O40 2.376637 1_655
Ga2 O13 1.832273 1_555
Ga2 O12 1.885490 1_555
Ga2 O49 1.894271 1_555
Ga2 O48 1.916889 1_555
Ga2 O14 2.144915 1_555
Ga2 O50 2.369318 1_555
Ga3 O53 1.824942 1_555
Ga3 O15 1.860798 1_555
Ga3 O51 1.887934 1_555
Ga3 O16 2.104606 1_555
Ga3 O17 2.118224 1_555
Ga3 O52 2.142096 1_555
Ga4 O61 1.842387 1_555
Ga4 O24 1.843742 1_554
Ga4 O26 1.918374 1_554
Ga4 O25 2.041314 1_554
Ga4 O62 2.207226 1_555
Ga4 O60 2.211463 1_555
Ga5 O29 1.820178 1_555
Ga5 O65 1.823534 1_555
Ga5 O63 1.877627 1_555
Ga5 O28 2.103105 1_555
Ga5 O27 2.173731 1_555
Ga5 O64 2.294742 1_555
Ge0 O7 1.795697 1_555
Ge0 O43 1.825456 1_555
Ge0 O42 1.829968 1_455
Ge0 O6 1.846419 1_445
Ge0 O8 2.215875 1_545
Ge0 O44 2.388983 1_445
Ge1 O11 1.764674 1_555
Ge1 O9 1.798834 1_455
Ge1 O45 1.877090 1_455
Ge1 O10 2.039502 1_565
Ge1 O47 2.159624 1_565
Ge1 O46 2.436394 1_465
Ge2 O19 1.782591 1_556
Ge2 O54 1.835226 1_555
Ge2 O55 1.928538 1_555
Ge2 O20 2.019983 1_556
Ge2 O18 2.022135 1_556
Ge2 O56 2.311167 1_555
Ge3 O23 1.773290 1_555
Ge3 O21 1.826921 1_555
Ge3 O59 1.832552 1_555
Ge3 O22 1.874043 1_555
Ge3 O57 2.292344 1_555
Ge3 O58 2.446743 1_555
Ge4 O67 1.814110 1_555
Ge4 O30 1.828334 1_555
Ge4 O66 1.880079 1_555
Ge4 O31 1.972324 1_555
Ge4 O32 1.996865 1_555
Ge4 O68 2.291859 1_555
Ge5 O71 1.752078 1_555
Ge5 O69 1.784673 1_555
Ge5 O35 1.802538 1_555
Ge5 O34 2.206515 1_555
Ge5 O33 2.243435 1_555
Ge5 O70 2.259209 1_555
O0 Si0 1.607741 1_555
O1 Si1 1.595263 1_555
O2 S0 1.461210 1_655
O3 Si2 1.630177 1_555
O4 S1 1.484104 1_655
O5 Si3 1.608981 1_555
O6 Si3 1.659435 1_565
O7 Si2 1.647025 1_555
O8 S1 1.479455 1_555
O9 Si1 1.692455 1_555
O10 S0 1.523440 1_555
O11 Si0 1.682102 1_565
O12 Si4 1.605509 1_555
O13 Si5 1.595182 1_555
O14 S2 1.457756 1_555
O15 Si6 1.602782 1_555
O16 S3 1.452042 1_555
O17 S4 1.468515 1_555
O18 S4 1.534072 1_555
O19 Si6 1.681915 1_555
O20 S3 1.531941 1_555
O21 Si5 1.703404 1_555
O22 S2 1.532273 1_555
O23 Si4 1.666023 1_555
O24 Si7 1.623834 1_555
O25 S5 1.468554 1_555
O26 S6 1.470681 1_555
O27 S7 1.466059 1_555
O28 S8 1.462221 1_555
O29 Si8 1.602726 1_555
O30 Si8 1.683632 1_555
O31 S7 1.526830 1_555
O32 S8 1.518066 1_555
O33 S5 1.488498 1_555
O34 S6 1.485439 1_555
O35 Si7 1.671814 1_555
O36 Si8 1.639613 1_555
O37 S7 1.456769 1_555
O38 S8 1.486417 1_555
O39 S5 1.468299 1_555
O40 S6 1.479946 1_555
O41 Si7 1.606564 1_555
O42 Si4 1.665948 1_555
O43 Si5 1.649410 1_555
O44 S2 1.482715 1_555
O45 Si6 1.695938 1_555
O46 S3 1.490670 1_555
O47 S4 1.476106 1_555
O48 Si3 1.611291 1_555
O49 Si2 1.594462 1_555
O50 S1 1.466215 1_655
O51 Si1 1.623787 1_555
O52 S0 1.485892 1_655
O53 Si0 1.596516 1_555
O54 Si7 1.711217 1_555
O55 S5 1.524474 1_655
O56 S6 1.513751 1_545
O57 S7 1.502301 1_545
O58 S8 1.495677 1_555
O59 Si8 1.668639 1_655
O60 S4 1.482897 1_555
O61 Si6 1.613543 1_455
O62 S3 1.494442 1_565
O63 Si5 1.630060 1_565
O64 S2 1.473071 1_555
O65 Si4 1.603032 1_455
O66 Si0 1.665152 1_565
O67 Si1 1.635219 1_555
O68 S0 1.494577 1_555
O69 Si2 1.696060 1_555
O70 S1 1.513197 1_555
O71 Si3 1.658630 1_565
