# generated using pymatgen
data_Ho2MgV4O12
_symmetry_space_group_name_H-M   'P 1'
_cell_length_a   5.17507462
_cell_length_b   5.49854806
_cell_length_c   7.54187930
_cell_angle_alpha   90.02291629
_cell_angle_beta   89.64244366
_cell_angle_gamma   91.49085718
_symmetry_Int_Tables_number   1
_chemical_formula_structural   Ho2MgV4O12
_chemical_formula_sum   'Ho2 Mg1 V4 O12'
_cell_volume   214.53033590
_cell_formula_units_Z   1
loop_
 _symmetry_equiv_pos_site_id
 _symmetry_equiv_pos_as_xyz
  1  'x, y, z'
loop_
 _atom_site_type_symbol
 _atom_site_label
 _atom_site_symmetry_multiplicity
 _atom_site_fract_x
 _atom_site_fract_y
 _atom_site_fract_z
 _atom_site_occupancy
  Ho  Ho0  1  0.02870600  0.93331400  0.75687200  1
  Ho  Ho1  1  0.54165500  0.58877800  0.25153600  1
  Mg  Mg0  1  0.02015000  0.07581200  0.23248200  1
  V  V0  1  0.03548600  0.49917600  0.99760500  1
  V  V1  1  0.03532500  0.49375900  0.51385000  1
  V  V2  1  0.52157500  0.03148800  0.50157400  1
  V  V3  1  0.52402300  0.03017300  0.99777300  1
  O  O0  1  0.13610800  0.45137400  0.25636900  1
  O  O1  1  0.19802600  0.19154000  0.95918600  1
  O  O2  1  0.21332900  0.19456100  0.55496500  1
  O  O3  1  0.30866200  0.71381300  0.96770600  1
  O  O4  1  0.29857900  0.71997300  0.54213600  1
  O  O5  1  0.40707700  0.98649500  0.24989500  1
  O  O6  1  0.61266400  0.03555200  0.76152400  1
  O  O7  1  0.72196500  0.32435600  0.44610100  1
  O  O8  1  0.72648000  0.31624800  0.06984500  1
  O  O9  1  0.82412900  0.82524600  0.06435800  1
  O  O10  1  0.80638700  0.83431100  0.45021500  1
  O  O11  1  0.92627600  0.53974600  0.75637000  1
loop_
_geom_bond_atom_site_label_1
_geom_bond_atom_site_label_2
_geom_bond_distance
_geom_bond_site_symmetry_2
Ho0 O11 2.214600 1_455
Ho0 O6 2.239396 1_465
Ho0 O1 2.249932 1_565
Ho0 O2 2.281951 1_565
Ho0 O4 2.450497 1_555
Ho0 O3 2.491053 1_555
Ho0 O9 2.605673 1_456
Ho0 O10 2.639801 1_455
Ho1 O0 2.212102 1_555
Ho1 O8 2.257144 1_555
Ho1 O7 2.286319 1_555
Ho1 O5 2.312350 1_555
Ho1 O9 2.386873 1_555
Ho1 O10 2.423350 1_555
Ho1 O3 2.566177 1_554
Ho1 O4 2.630163 1_555
Mg0 O5 2.079051 1_545
Mg0 O9 2.115875 1_445
Mg0 O0 2.143256 1_555
Mg0 O1 2.334004 1_554
Mg0 O10 2.363530 1_445
Mg0 O8 2.385609 1_455
Mg0 O7 2.630871 1_455
Mg0 O2 2.708529 1_555
O0 V1 2.022523 1_555
O0 V0 2.041830 1_554
O1 V0 1.929624 1_555
O1 V3 1.949964 1_555
O2 V2 1.891275 1_555
O2 V1 1.932381 1_555
O3 V0 1.830760 1_555
O3 V3 2.054615 1_565
O4 V1 1.834102 1_555
O4 V2 2.062150 1_565
O5 V3 2.004493 1_564
O5 V2 2.005304 1_565
O6 V3 1.837148 1_555
O6 V2 2.019224 1_555
O7 V1 1.920900 1_655
O7 V2 1.936988 1_555
O8 V0 1.942068 1_654
O8 V3 1.946325 1_554
O9 V3 2.008765 1_564
O9 V0 2.181469 1_654
O10 V2 1.890407 1_565
O10 V1 2.294272 1_655
O11 V0 1.923275 1_655
O11 V1 1.929258 1_655
