# generated using pymatgen
data_Cd3P2
_symmetry_space_group_name_H-M   'P 1'
_cell_length_a   8.80257436
_cell_length_b   8.80257436
_cell_length_c   12.34960371
_cell_angle_alpha   90.00000000
_cell_angle_beta   90.00000000
_cell_angle_gamma   90.00000000
_symmetry_Int_Tables_number   1
_chemical_formula_structural   Cd3P2
_chemical_formula_sum   'Cd24 P16'
_cell_volume   956.91293808
_cell_formula_units_Z   8
loop_
 _symmetry_equiv_pos_site_id
 _symmetry_equiv_pos_as_xyz
  1  'x, y, z'
loop_
 _atom_site_type_symbol
 _atom_site_label
 _atom_site_symmetry_multiplicity
 _atom_site_fract_x
 _atom_site_fract_y
 _atom_site_fract_z
 _atom_site_occupancy
  Cd  Cd0  1  0.46108111  0.25000000  0.13227152  1
  Cd  Cd1  1  0.25000000  0.46108111  0.63227152  1
  Cd  Cd2  1  0.25000000  0.03891889  0.63227152  1
  Cd  Cd3  1  0.96108111  0.75000000  0.86772848  1
  Cd  Cd4  1  0.53891889  0.75000000  0.86772848  1
  Cd  Cd5  1  0.03891889  0.25000000  0.13227152  1
  Cd  Cd6  1  0.75000000  0.96108111  0.36772848  1
  Cd  Cd7  1  0.75000000  0.53891889  0.36772848  1
  Cd  Cd8  1  0.50685620  0.25000000  0.40017480  1
  Cd  Cd9  1  0.99314380  0.25000000  0.40017480  1
  Cd  Cd10  1  0.75000000  0.00685620  0.09982520  1
  Cd  Cd11  1  0.25000000  0.99314380  0.90017480  1
  Cd  Cd12  1  0.25000000  0.50685620  0.90017480  1
  Cd  Cd13  1  0.49314380  0.75000000  0.59982520  1
  Cd  Cd14  1  0.00685620  0.75000000  0.59982520  1
  Cd  Cd15  1  0.75000000  0.49314380  0.09982520  1
  Cd  Cd16  1  0.25000000  0.53532662  0.35046824  1
  Cd  Cd17  1  0.25000000  0.96467338  0.35046824  1
  Cd  Cd18  1  0.03532662  0.75000000  0.14953176  1
  Cd  Cd19  1  0.53532662  0.25000000  0.85046824  1
  Cd  Cd20  1  0.96467338  0.25000000  0.85046824  1
  Cd  Cd21  1  0.75000000  0.03532662  0.64953176  1
  Cd  Cd22  1  0.75000000  0.46467338  0.64953176  1
  Cd  Cd23  1  0.46467338  0.75000000  0.14953176  1
  P  P0  1  0.75000000  0.75000000  0.50914914  1
  P  P1  1  0.75000000  0.75000000  0.00914914  1
  P  P2  1  0.25000000  0.25000000  0.49085086  1
  P  P3  1  0.25000000  0.25000000  0.99085086  1
  P  P4  1  0.75000000  0.25000000  0.50783010  1
  P  P5  1  0.25000000  0.75000000  0.00783010  1
  P  P6  1  0.25000000  0.75000000  0.49216990  1
  P  P7  1  0.75000000  0.25000000  0.99216990  1
  P  P8  1  0.00753858  0.99246142  0.75000000  1
  P  P9  1  0.50753858  0.00753858  0.25000000  1
  P  P10  1  0.99246142  0.49246142  0.25000000  1
  P  P11  1  0.49246142  0.50753858  0.75000000  1
  P  P12  1  0.99246142  0.00753858  0.25000000  1
  P  P13  1  0.49246142  0.99246142  0.75000000  1
  P  P14  1  0.00753858  0.50753858  0.75000000  1
  P  P15  1  0.50753858  0.49246142  0.25000000  1
loop_
_geom_bond_atom_site_label_1
_geom_bond_atom_site_label_2
_geom_bond_distance
_geom_bond_site_symmetry_2
Cd0 P3 2.550020 1_554
Cd0 P15 2.614619 1_555
Cd0 P9 2.614619 1_555
Cd0 P7 3.075973 1_554
Cd1 P2 2.550020 1_555
Cd1 P14 2.614619 1_555
Cd1 P11 2.614619 1_555
Cd1 P6 3.075973 1_555
Cd2 P2 2.550020 1_555
Cd2 P13 2.614619 1_545
Cd2 P8 2.614619 1_545
Cd2 P6 3.075973 1_545
Cd3 P1 2.550020 1_556
Cd3 P8 2.614619 1_655
Cd3 P14 2.614619 1_655
Cd3 P5 3.075973 1_656
Cd4 P1 2.550020 1_556
Cd4 P13 2.614619 1_555
Cd4 P11 2.614619 1_555
Cd4 P5 3.075973 1_556
Cd5 P3 2.550020 1_554
Cd5 P10 2.614619 1_455
Cd5 P12 2.614619 1_455
Cd5 P7 3.075973 1_454
Cd6 P0 2.550020 1_555
Cd6 P12 2.614619 1_565
Cd6 P9 2.614619 1_565
Cd6 P4 3.075973 1_565
Cd7 P0 2.550020 1_555
Cd7 P10 2.614619 1_555
Cd7 P15 2.614619 1_555
Cd7 P4 3.075973 1_555
Cd8 P4 2.519607 1_555
Cd8 P2 2.523110 1_555
Cd8 P15 2.827498 1_555
Cd8 P9 2.827498 1_555
Cd9 P4 2.519607 1_555
Cd9 P2 2.523110 1_655
Cd9 P10 2.827498 1_555
Cd9 P12 2.827498 1_555
Cd10 P7 2.519607 1_554
Cd10 P1 2.523110 1_545
Cd10 P12 2.827498 1_555
Cd10 P9 2.827498 1_555
Cd11 P5 2.519607 1_556
Cd11 P3 2.523110 1_565
Cd11 P13 2.827498 1_555
Cd11 P8 2.827498 1_555
Cd12 P5 2.519607 1_556
Cd12 P3 2.523110 1_555
Cd12 P11 2.827498 1_555
Cd12 P14 2.827498 1_555
Cd13 P6 2.519607 1_555
Cd13 P0 2.523110 1_555
Cd13 P13 2.827498 1_555
Cd13 P11 2.827498 1_555
Cd14 P6 2.519607 1_555
Cd14 P0 2.523110 1_455
Cd14 P14 2.827498 1_555
Cd14 P8 2.827498 1_555
Cd15 P7 2.519607 1_554
Cd15 P1 2.523110 1_555
Cd15 P15 2.827498 1_555
Cd15 P10 2.827498 1_555
Cd16 P6 2.575508 1_555
Cd16 P15 2.611727 1_555
Cd16 P10 2.611727 1_455
Cd16 P2 3.051850 1_555
Cd17 P6 2.575508 1_555
Cd17 P9 2.611727 1_565
Cd17 P12 2.611727 1_465
Cd17 P2 3.051850 1_565
Cd18 P5 2.575508 1_555
Cd18 P10 2.611727 1_455
Cd18 P12 2.611727 1_465
Cd18 P1 3.051850 1_455
Cd19 P7 2.575508 1_555
Cd19 P11 2.611727 1_555
Cd19 P13 2.611727 1_545
Cd19 P3 3.051850 1_555
Cd20 P7 2.575508 1_555
Cd20 P8 2.611727 1_645
Cd20 P14 2.611727 1_655
Cd20 P3 3.051850 1_655
Cd21 P4 2.575508 1_555
Cd21 P13 2.611727 1_545
Cd21 P8 2.611727 1_645
Cd21 P0 3.051850 1_545
Cd22 P4 2.575508 1_555
Cd22 P11 2.611727 1_555
Cd22 P14 2.611727 1_655
Cd22 P0 3.051850 1_555
Cd23 P5 2.575508 1_555
Cd23 P15 2.611727 1_555
Cd23 P9 2.611727 1_565
Cd23 P1 3.051850 1_555
