# generated using pymatgen
data_CsFeP2O7
_symmetry_space_group_name_H-M   'P 1'
_cell_length_a   10.11283900
_cell_length_b   7.80870000
_cell_length_c   8.51503516
_cell_angle_alpha   75.03671728
_cell_angle_beta   90.00000000
_cell_angle_gamma   90.00000000
_symmetry_Int_Tables_number   1
_chemical_formula_structural   CsFeP2O7
_chemical_formula_sum   'Cs4 Fe4 P8 O28'
_cell_volume   649.61573099
_cell_formula_units_Z   4
loop_
 _symmetry_equiv_pos_site_id
 _symmetry_equiv_pos_as_xyz
  1  'x, y, z'
loop_
 _atom_site_type_symbol
 _atom_site_label
 _atom_site_symmetry_multiplicity
 _atom_site_fract_x
 _atom_site_fract_y
 _atom_site_fract_z
 _atom_site_occupancy
  Cs  Cs0  1  0.20595300  0.69811900  0.46201600  1
  Cs  Cs1  1  0.70595300  0.30188100  0.03798400  1
  Cs  Cs2  1  0.79404700  0.30188100  0.53798400  1
  Cs  Cs3  1  0.29404700  0.69811900  0.96201600  1
  Fe  Fe0  1  0.10110800  0.25936700  0.25793600  1
  Fe  Fe1  1  0.60110800  0.74063300  0.24206400  1
  Fe  Fe2  1  0.89889200  0.74063300  0.74206400  1
  Fe  Fe3  1  0.39889200  0.25936700  0.75793600  1
  P  P0  1  0.87487200  0.92211600  0.31898900  1
  P  P1  1  0.37487200  0.07788400  0.18101100  1
  P  P2  1  0.12512800  0.07788400  0.68101100  1
  P  P3  1  0.62512800  0.92211600  0.81898900  1
  P  P4  1  0.09306900  0.36933200  0.83359100  1
  P  P5  1  0.59306900  0.63066800  0.66640900  1
  P  P6  1  0.90693100  0.63066800  0.16640900  1
  P  P7  1  0.40693100  0.36933200  0.33359100  1
  O  O0  1  0.72865500  0.93190600  0.26770600  1
  O  O1  1  0.22865500  0.06809400  0.23229400  1
  O  O2  1  0.27134500  0.06809400  0.73229400  1
  O  O3  1  0.77134500  0.93190600  0.76770600  1
  O  O4  1  0.93449200  0.10864100  0.27135900  1
  O  O5  1  0.43449200  0.89135900  0.22864100  1
  O  O6  1  0.06550800  0.89135900  0.72864100  1
  O  O7  1  0.56550800  0.10864100  0.77135900  1
  O  O8  1  0.89988100  0.82028100  0.49448000  1
  O  O9  1  0.39988100  0.17971900  0.00552000  1
  O  O10  1  0.10011900  0.17971900  0.50552000  1
  O  O11  1  0.60011900  0.82028100  0.99448000  1
  O  O12  1  0.04572000  0.18560200  0.79330700  1
  O  O13  1  0.54572000  0.81439800  0.70669300  1
  O  O14  1  0.95428000  0.81439800  0.20669300  1
  O  O15  1  0.45428000  0.18560200  0.29330700  1
  O  O16  1  0.49915000  0.51390100  0.23548300  1
  O  O17  1  0.99915000  0.48609900  0.26451700  1
  O  O18  1  0.50085000  0.48609900  0.76451700  1
  O  O19  1  0.00085000  0.51390100  0.73548300  1
  O  O20  1  0.26459400  0.40667100  0.27011300  1
  O  O21  1  0.76459400  0.59332900  0.22988700  1
  O  O22  1  0.73540600  0.59332900  0.72988700  1
  O  O23  1  0.23540600  0.40667100  0.77011300  1
  O  O24  1  0.41937100  0.33979900  0.51579100  1
  O  O25  1  0.91937100  0.66020100  0.98420900  1
  O  O26  1  0.58062900  0.66020100  0.48420900  1
  O  O27  1  0.08062900  0.33979900  0.01579100  1
loop_
_geom_bond_atom_site_label_1
_geom_bond_atom_site_label_2
_geom_bond_distance
_geom_bond_site_symmetry_2
Cs0 O23 3.011222 1_555
Cs0 O1 3.050767 1_565
Cs0 O5 3.165275 1_555
Cs0 O19 3.172382 1_555
Cs0 O20 3.181454 1_555
Cs0 O8 3.271571 1_455
Cs0 O14 3.318037 1_455
Cs0 O6 3.349273 1_555
Cs0 O17 3.373538 1_455
Cs0 O24 3.469154 1_555
Cs1 O22 3.011222 1_554
Cs1 O0 3.050767 1_545
Cs1 O4 3.165275 1_555
Cs1 O18 3.172382 1_554
Cs1 O21 3.181454 1_555
Cs1 O9 3.271571 1_555
Cs1 O15 3.318037 1_555
Cs1 O7 3.349273 1_554
Cs1 O16 3.373538 1_555
Cs1 O25 3.469154 1_554
Cs2 O21 3.011222 1_555
Cs2 O3 3.050767 1_545
Cs2 O7 3.165275 1_555
Cs2 O17 3.172382 1_555
Cs2 O22 3.181454 1_555
Cs2 O10 3.271571 1_655
Cs2 O12 3.318037 1_655
Cs2 O4 3.349273 1_555
Cs2 O19 3.373538 1_655
Cs2 O26 3.469154 1_555
Cs3 O20 3.011222 1_556
Cs3 O2 3.050767 1_565
Cs3 O6 3.165275 1_555
Cs3 O16 3.172382 1_556
Cs3 O23 3.181454 1_555
Cs3 O11 3.271571 1_555
Cs3 O13 3.318037 1_555
Cs3 O5 3.349273 1_556
Cs3 O18 3.373538 1_555
Cs3 O27 3.469154 1_556
Fe0 O27 2.004980 1_555
Fe0 O1 2.027473 1_555
Fe0 O20 2.031957 1_555
Fe0 O10 2.038204 1_555
Fe0 O4 2.041557 1_455
Fe0 O17 2.062066 1_455
Fe1 O26 2.004980 1_555
Fe1 O0 2.027473 1_555
Fe1 O21 2.031957 1_555
Fe1 O11 2.038204 1_554
Fe1 O5 2.041557 1_555
Fe1 O16 2.062066 1_555
Fe2 O25 2.004980 1_555
Fe2 O3 2.027473 1_555
Fe2 O22 2.031957 1_555
Fe2 O8 2.038204 1_555
Fe2 O6 2.041557 1_655
Fe2 O19 2.062066 1_655
Fe3 O24 2.004980 1_555
Fe3 O2 2.027473 1_555
Fe3 O23 2.031957 1_555
Fe3 O9 2.038204 1_556
Fe3 O7 2.041557 1_555
Fe3 O18 2.062066 1_555
O0 P0 1.538101 1_555
O1 P1 1.538101 1_555
O2 P2 1.538101 1_555
O3 P3 1.538101 1_555
O4 P0 1.531145 1_545
O5 P1 1.531145 1_565
O6 P2 1.531145 1_565
O7 P3 1.531145 1_545
O8 P0 1.521726 1_555
O9 P1 1.521726 1_555
O10 P2 1.521726 1_555
O11 P3 1.521726 1_555
O12 P4 1.630773 1_555
O12 P2 1.637698 1_555
O13 P5 1.630773 1_555
O13 P3 1.637698 1_555
O14 P6 1.630773 1_555
O14 P0 1.637698 1_555
O15 P7 1.630773 1_555
O15 P1 1.637698 1_555
O16 P7 1.534608 1_555
O17 P6 1.534608 1_555
O18 P5 1.534608 1_555
O19 P4 1.534608 1_555
O20 P7 1.538749 1_555
O21 P6 1.538749 1_555
O22 P5 1.538749 1_555
O23 P4 1.538749 1_555
O24 P7 1.513676 1_555
O25 P6 1.513676 1_556
O26 P5 1.513676 1_555
O27 P4 1.513676 1_554
