# generated using pymatgen
data_MgMn6O11F
_symmetry_space_group_name_H-M   'P 1'
_cell_length_a   5.05640925
_cell_length_b   7.47223568
_cell_length_c   5.66413768
_cell_angle_alpha   98.31154041
_cell_angle_beta   98.41188163
_cell_angle_gamma   84.48347829
_symmetry_Int_Tables_number   1
_chemical_formula_structural   MgMn6O11F
_chemical_formula_sum   'Mg1 Mn6 O11 F1'
_cell_volume   208.86487016
_cell_formula_units_Z   1
loop_
 _symmetry_equiv_pos_site_id
 _symmetry_equiv_pos_as_xyz
  1  'x, y, z'
loop_
 _atom_site_type_symbol
 _atom_site_label
 _atom_site_symmetry_multiplicity
 _atom_site_fract_x
 _atom_site_fract_y
 _atom_site_fract_z
 _atom_site_occupancy
  Mg  Mg0  1  0.50609533  0.49543850  0.49769236  1
  Mn  Mn0  1  0.50815591  0.99914930  0.49125386  1
  Mn  Mn1  1  0.55520199  0.68807213  0.10952253  1
  Mn  Mn2  1  0.43785897  0.30369679  0.87907572  1
  Mn  Mn3  1  0.00149220  0.67379511  0.66995439  1
  Mn  Mn4  1  0.98820034  0.31380819  0.33189844  1
  Mn  Mn5  1  0.99806888  0.99682982  0.99476379  1
  O  O0  1  0.87514072  0.43237712  0.62572962  1
  O  O1  1  0.86024021  0.75791500  0.95322515  1
  O  O2  1  0.85080373  0.09300701  0.29444567  1
  O  O3  1  0.65585173  0.08152860  0.81852541  1
  O  O4  1  0.66393432  0.74554868  0.46410152  1
  O  O5  1  0.64711730  0.42562825  0.16659330  1
  O  O6  1  0.34893599  0.56819633  0.82088603  1
  O  O7  1  0.33771574  0.24952244  0.52228089  1
  O  O8  1  0.33281673  0.90538434  0.17769690  1
  O  O9  1  0.13501442  0.23060936  0.04254617  1
  O  O10  1  0.13722650  0.89949422  0.70336202  1
  F  F0  1  0.14623799  0.56856881  0.34894724  1
loop_
_geom_bond_atom_site_label_1
_geom_bond_atom_site_label_2
_geom_bond_distance
_geom_bond_site_symmetry_2
Mg0 O0 1.940078 1_555
Mg0 O6 2.081591 1_555
Mg0 O5 2.081962 1_555
Mg0 O7 2.128453 1_555
Mg0 O4 2.144734 1_555
Mn0 O3 1.930373 1_565
Mn0 O8 1.931370 1_555
Mn0 O4 1.974635 1_555
Mn0 O7 1.978116 1_565
Mn0 O2 2.400216 1_565
Mn0 O10 2.588840 1_555
Mn1 O8 1.909187 1_555
Mn1 O6 1.954561 1_554
Mn1 O4 1.998323 1_555
Mn1 O1 2.030501 1_554
Mn1 O5 2.032306 1_555
Mn2 O3 1.919034 1_555
Mn2 O5 1.963170 1_556
Mn2 O7 2.001984 1_555
Mn2 O6 2.047214 1_555
Mn2 O9 2.054823 1_556
Mn3 O1 1.853909 1_455
Mn3 O10 1.855624 1_555
Mn3 O0 1.941446 1_455
Mn3 O6 1.982159 1_555
Mn3 O4 1.995688 1_455
Mn4 O2 1.823685 1_555
Mn4 O9 1.896400 1_655
Mn4 O0 1.906921 1_555
Mn4 O7 1.986421 1_655
Mn4 O5 2.006468 1_555
Mn5 O10 1.908587 1_655
Mn5 O9 1.909266 1_666
Mn5 O1 1.948818 1_555
Mn5 O3 1.964177 1_565
Mn5 O2 1.966339 1_566
Mn5 O8 1.968424 1_656
F0 Mg0 1.952622 1_555
F0 Mn3 2.079720 1_555
F0 Mn4 2.118597 1_455
