# generated using pymatgen
data_Na10Hf4Ga4Si7S5O48
_symmetry_space_group_name_H-M   'P 1'
_cell_length_a   17.91774159
_cell_length_b   8.91035400
_cell_length_c   22.50329315
_cell_angle_alpha   89.73648042
_cell_angle_beta   91.25521587
_cell_angle_gamma   119.66552215
_symmetry_Int_Tables_number   1
_chemical_formula_structural   Na10Hf4Ga4Si7S5O48
_chemical_formula_sum   'Na30 Hf12 Ga12 Si21 S15 O144'
_cell_volume   3120.99739405
_cell_formula_units_Z   3
loop_
 _symmetry_equiv_pos_site_id
 _symmetry_equiv_pos_as_xyz
  1  'x, y, z'
loop_
 _atom_site_type_symbol
 _atom_site_label
 _atom_site_symmetry_multiplicity
 _atom_site_fract_x
 _atom_site_fract_y
 _atom_site_fract_z
 _atom_site_occupancy
  Na  Na0  1  0.18410027  0.37282290  0.23915302  1
  Na  Na1  1  0.68385497  0.37336764  0.23995472  1
  Na  Na2  1  0.99298604  0.62959043  0.25490381  1
  Na  Na3  1  0.49339783  0.62925473  0.25477615  1
  Na  Na4  1  0.49283476  0.35301274  0.75994736  1
  Na  Na5  1  0.18407080  0.99504445  0.74445405  1
  Na  Na6  1  0.68523669  -0.00159874  0.74230972  1
  Na  Na7  1  0.65776065  0.33865165  0.57839242  1
  Na  Na8  1  0.01851470  0.70462222  0.57732158  1
  Na  Na9  1  0.82657853  0.95907786  0.59189305  1
  Na  Na10  1  0.48862402  0.66584202  0.90958579  1
  Na  Na11  1  0.99066990  0.66906813  0.90872541  1
  Na  Na12  1  0.85140718  0.03723248  0.90365557  1
  Na  Na13  1  0.15798156  0.29022672  0.92323385  1
  Na  Na14  1  0.49062000  0.31386358  0.40931677  1
  Na  Na15  1  0.98773814  0.30964129  0.40912038  1
  Na  Na16  1  0.35383051  0.66671874  0.40351780  1
  Na  Na17  1  0.85273554  0.66762103  0.40790110  1
  Na  Na18  1  0.02449749  0.00981722  0.49509842  1
  Na  Na19  1  0.51936969  0.99254228  0.49380512  1
  Na  Na20  1  0.01456720  0.02298080  0.99759254  1
  Na  Na21  1  0.51951434  0.04705259  0.99327026  1
  Na  Na22  1  0.33910941  0.32112372  0.83105590  1
  Na  Na23  1  0.84470631  0.34146953  0.82412981  1
  Na  Na24  1  0.33433073  0.32876664  0.32656278  1
  Na  Na25  1  0.83307199  0.32826183  0.32808023  1
  Na  Na26  1  0.17778592  0.66881257  0.15797531  1
  Na  Na27  1  0.67773070  0.66997063  0.15857478  1
  Na  Na28  1  0.17857951  0.67801472  0.66453109  1
  Na  Na29  1  0.67292789  0.68540876  0.66326832  1
  Hf  Hf0  1  0.99909062  0.99024028  0.64757565  1
  Hf  Hf1  1  0.49464712  0.98160069  0.64675608  1
  Hf  Hf2  1  -0.00017976  0.01315247  0.14452841  1
  Hf  Hf3  1  0.49931518  0.01234103  0.14437146  1
  Hf  Hf4  1  0.33062465  0.31915159  0.97938467  1
  Hf  Hf5  1  0.82491218  0.32134418  0.98035106  1
  Hf  Hf6  1  0.32697821  0.33115795  0.48009329  1
  Hf  Hf7  1  0.82813252  0.34004482  0.48001177  1
  Hf  Hf8  1  0.16446789  0.65562501  0.31204754  1
  Hf  Hf9  1  0.66358127  0.65491547  0.31267213  1
  Hf  Hf10  1  0.16171043  0.67173056  0.81214066  1
  Hf  Hf11  1  0.66511288  0.67421958  0.81270254  1
  Ga  Ga0  1  0.00117401  0.00271596  0.35179133  1
  Ga  Ga1  1  0.50255816  0.00153821  0.35109927  1
  Ga  Ga2  1  0.99845855  0.99587347  0.84931477  1
  Ga  Ga3  1  0.49722865  0.99667918  0.85345540  1
  Ga  Ga4  1  0.33349099  0.31618962  0.68890587  1
  Ga  Ga5  1  0.83340048  0.33238062  0.68656661  1
  Ga  Ga6  1  0.33704026  0.35626799  0.18489340  1
  Ga  Ga7  1  0.83615374  0.35654160  0.18536823  1
  Ga  Ga8  1  0.15822814  0.63929933  0.01485985  1
  Ga  Ga9  1  0.65387424  0.63407460  0.01545470  1
  Ga  Ga10  1  0.16099126  0.67602954  0.51462058  1
  Ga  Ga11  1  0.66193199  0.66665407  0.51967391  1
  Si  Si0  1  0.35625022  0.71590787  0.25058590  1
  Si  Si1  1  0.85619417  0.71643415  0.25057468  1
  Si  Si2  1  0.99077050  0.28292483  0.25176551  1
  Si  Si3  1  0.49077962  0.28248804  0.25187594  1
  Si  Si4  1  0.99162078  0.69580832  0.75208495  1
  Si  Si5  1  0.49090944  0.69741417  0.75301420  1
  Si  Si6  1  0.35557453  0.99511869  0.75056533  1
  Si  Si7  1  0.85503123  0.00607452  0.74986497  1
  Si  Si8  1  0.19048759  0.03299699  0.58630307  1
  Si  Si9  1  0.68638656  0.03606586  0.58564814  1
  Si  Si10  1  0.82913529  0.62122746  0.58390745  1
  Si  Si11  1  0.18995350  0.34688868  0.08317948  1
  Si  Si12  1  0.68826363  0.34753014  0.08543913  1
  Si  Si13  1  0.01952754  0.36379072  0.91594721  1
  Si  Si14  1  0.51934231  0.35899380  0.91440038  1
  Si  Si15  1  0.16262214  0.94776198  0.91921190  1
  Si  Si16  1  0.66064902  0.94611800  0.92065402  1
  Si  Si17  1  0.16149811  0.37456374  0.41951026  1
  Si  Si18  1  0.66051749  0.36597164  0.41932044  1
  Si  Si19  1  0.02063540  0.67864386  0.41597520  1
  Si  Si20  1  0.52330860  0.67729998  0.41702222  1
  S  S0  1  0.14639480  0.00576028  0.25065449  1
  S  S1  1  0.64670248  0.00548027  0.25039978  1
  S  S2  1  0.14859607  0.29316136  0.75172504  1
  S  S3  1  0.64517469  0.28670908  0.75003789  1
  S  S4  1  0.48042733  0.33604439  0.58547728  1
  S  S5  1  0.98246742  0.33840133  0.58294296  1
  S  S6  1  0.32903003  0.61929945  0.58376753  1
  S  S7  1  0.48258626  0.62753161  0.08488569  1
  S  S8  1  0.98265664  0.62724655  0.08435644  1
  S  S9  1  0.32858163  0.03868540  0.08609845  1
  S  S10  1  0.82968877  0.04131909  0.08503606  1
  S  S11  1  0.31247753  0.67123351  0.91966580  1
  S  S12  1  0.81160199  0.66716809  0.91979718  1
  S  S13  1  0.31095948  0.95614894  0.41940718  1
  S  S14  1  0.81220001  0.95730576  0.41943007  1
  O  O0  1  0.10744310  0.03471479  0.30367775  1
  O  O1  1  0.60775958  0.03479450  0.30348454  1
  O  O2  1  0.41502652  0.79837159  0.31137710  1
  O  O3  1  0.91545993  0.79895890  0.31101721  1
  O  O4  1  0.48067993  0.17636457  0.31337271  1
  O  O5  1  0.98163494  0.17757531  0.31328563  1
  O  O6  1  0.11012681  0.19029139  0.80634285  1
  O  O7  1  0.60469352  0.17803792  0.80173676  1
  O  O8  1  0.48189649  0.78518445  0.81349912  1
  O  O9  1  0.98628985  0.79187125  0.81257841  1
  O  O10  1  0.42238832  0.03900522  0.80570944  1
  O  O11  1  0.91044053  0.02320406  0.81086635  1
  O  O12  1  0.40147354  0.98361394  0.68967484  1
  O  O13  1  0.90264770  0.99203456  0.69026151  1
  O  O14  1  0.09462861  0.20963182  0.69789877  1
  O  O15  1  0.59230004  0.21098877  0.69362105  1
  O  O16  1  0.01320249  0.82462431  0.69477521  1
  O  O17  1  0.51524880  0.83029268  0.69681999  1
  O  O18  1  0.40734624  0.82675253  0.19302401  1
  O  O19  1  0.90706874  0.82746981  0.19266976  1
  O  O20  1  0.01789200  0.20086658  0.19718108  1
  O  O21  1  0.51707557  0.19925068  0.19730152  1
  O  O22  1  0.09238923  0.97592229  0.19602259  1
  O  O23  1  0.59247895  0.97541098  0.19593485  1
  O  O24  1  0.43827401  0.35078447  0.63909623  1
  O  O25  1  0.93949108  0.36132284  0.63404436  1
  O  O26  1  0.24477660  0.12800636  0.64740397  1
  O  O27  1  0.74559523  0.12098394  0.64602389  1
  O  O28  1  0.32424147  0.51636805  0.63597530  1
  O  O29  1  0.81281694  0.48634313  0.63704885  1
  O  O30  1  0.44201710  0.52745743  0.13998403  1
  O  O31  1  0.94160000  0.52821123  0.13942358  1
  O  O32  1  0.32502152  0.13257762  0.13854625  1
  O  O33  1  0.82666462  0.13830536  0.13673985  1
  O  O34  1  0.24492836  0.35961212  0.14507798  1
  O  O35  1  0.74320623  0.36154004  0.14730280  1
  O  O36  1  0.23802631  0.32330325  0.02543798  1
  O  O37  1  0.73964607  0.32373764  0.03021694  1
  O  O38  1  0.42985905  0.53773686  0.03100778  1
  O  O39  1  0.93042720  0.53834405  0.03015097  1
  O  O40  1  0.34166476  0.14346565  0.03094310  1
  O  O41  1  0.84279003  0.14249688  0.02872861  1
  O  O42  1  0.24030261  0.15440447  0.52947038  1
  O  O43  1  0.73767555  0.16573216  0.52991729  1
  O  O44  1  0.34171318  0.54295742  0.52792448  1
  O  O45  1  0.85240165  0.55032915  0.52316432  1
  O  O46  1  0.43057572  0.32290653  0.53016689  1
  O  O47  1  0.93138095  0.31325548  0.52626254  1
  O  O48  1  0.27235337  0.69117586  0.97289489  1
  O  O49  1  0.77060871  0.68840344  0.97201999  1
  O  O50  1  0.08340318  0.43813099  0.97418856  1
  O  O51  1  0.57629859  0.44367870  0.97455832  1
  O  O52  1  0.14829550  0.81606823  0.97417268  1
  O  O53  1  0.65102535  0.81867530  0.97578963  1
  O  O54  1  0.26916019  0.85378552  0.47241084  1
  O  O55  1  0.77338916  0.85810858  0.47376658  1
  O  O56  1  0.15079918  0.48129575  0.47414873  1
  O  O57  1  0.64761617  0.45746777  0.47803952  1
  O  O58  1  0.07258259  0.70140277  0.47910996  1
  O  O59  1  0.58288741  0.69877163  0.47488261  1
  O  O60  1  0.06910857  0.65147555  0.35920795  1
  O  O61  1  0.56380850  0.64457907  0.35646338  1
  O  O62  1  0.25945417  0.88035532  0.36430085  1
  O  O63  1  0.75849121  0.87519214  0.36543850  1
  O  O64  1  0.18324424  0.49273355  0.35897878  1
  O  O65  1  0.67963225  0.49172445  0.36109638  1
  O  O66  1  0.06694483  0.49313097  0.86043226  1
  O  O67  1  0.56465261  0.48426112  0.85626560  1
  O  O68  1  0.17919122  0.87418035  0.85741352  1
  O  O69  1  0.68322569  0.87171862  0.86026030  1
  O  O70  1  0.25789376  0.63893557  0.86532149  1
  O  O71  1  0.76060013  0.64007450  0.86410803  1
  O  O72  1  0.00405659  0.84260381  0.41047418  1
  O  O73  1  0.50434882  0.83828316  0.41072718  1
  O  O74  1  0.39624400  0.96917587  0.41689461  1
  O  O75  1  0.89784827  0.97070203  0.41541874  1
  O  O76  1  0.07525462  0.18702272  0.41174279  1
  O  O77  1  0.57384894  0.17932537  0.41043013  1
  O  O78  1  0.00634557  0.16867545  0.90844805  1
  O  O79  1  0.50653719  0.16754154  0.90801074  1
  O  O80  1  0.07691626  0.97160376  0.91274017  1
  O  O81  1  0.57432409  0.96038272  0.91194500  1
  O  O82  1  0.39923987  0.82006320  0.91546263  1
  O  O83  1  0.89793705  0.82381477  0.91633376  1
  O  O84  1  0.49019108  0.17843007  0.58684719  1
  O  O85  1  0.99028374  0.17964051  0.58759175  1
  O  O86  1  0.09343666  0.01194955  0.58856360  1
  O  O87  1  0.59367848  0.03467625  0.58773506  1
  O  O88  1  0.40900102  0.79495364  0.58595051  1
  O  O89  1  0.91370876  0.81649966  0.58935790  1
  O  O90  1  0.48846245  0.80002282  0.08755265  1
  O  O91  1  0.98892722  0.80077089  0.08671984  1
  O  O92  1  0.40797812  0.02127762  0.08812310  1
  O  O93  1  0.90965094  0.02424384  0.08751547  1
  O  O94  1  0.09440282  0.17050165  0.08777896  1
  O  O95  1  0.59324285  0.17155633  0.08870879  1
  O  O96  1  0.34269849  0.16756767  0.74723647  1
  O  O97  1  0.83753313  0.17019802  0.74577678  1
  O  O98  1  0.23383801  0.30440707  0.74697404  1
  O  O99  1  0.73084999  0.30404756  0.74582459  1
  O  O100  1  0.40969518  0.50383657  0.74024953  1
  O  O101  1  0.90741147  0.51021777  0.74245973  1
  O  O102  1  0.34277631  0.51700179  0.24709896  1
  O  O103  1  0.84355964  0.51811241  0.24707300  1
  O  O104  1  0.40925762  0.31445710  0.24008443  1
  O  O105  1  0.90904314  0.31380219  0.23986396  1
  O  O106  1  0.23259429  0.15838707  0.24569641  1
  O  O107  1  0.73290572  0.15789422  0.24564005  1
  O  O108  1  0.32216707  0.51038487  0.92396608  1
  O  O109  1  0.82678080  0.51489450  0.92367787  1
  O  O110  1  0.42754356  0.36440174  0.92177192  1
  O  O111  1  0.92639330  0.35692232  0.92396292  1
  O  O112  1  0.24448687  0.14656345  0.92391915  1
  O  O113  1  0.74869215  0.13643851  0.92532981  1
  O  O114  1  0.32534607  0.13775644  0.42306820  1
  O  O115  1  0.82596597  0.13736009  0.42197960  1
  O  O116  1  0.24954950  0.36056530  0.42425123  1
  O  O117  1  0.74899601  0.35389920  0.42032985  1
  O  O118  1  0.42771057  0.49531593  0.42359323  1
  O  O119  1  0.92728577  0.49324052  0.41850838  1
  O  O120  1  0.18241439  0.52319569  0.07721737  1
  O  O121  1  0.68142836  0.52351988  0.07753815  1
  O  O122  1  0.06889574  0.64542339  0.08218909  1
  O  O123  1  0.56891935  0.64632373  0.08276958  1
  O  O124  1  0.25215771  0.86949622  0.08039704  1
  O  O125  1  0.75392983  0.87134129  0.08077579  1
  O  O126  1  0.17693364  0.83558735  0.57889000  1
  O  O127  1  0.67949725  0.84764159  0.57760247  1
  O  O128  1  0.25297807  0.63955451  0.57833485  1
  O  O129  1  0.74340074  0.64148613  0.57607993  1
  O  O130  1  0.06842333  0.49479482  0.58008451  1
  O  O131  1  0.56796399  0.48886968  0.58442198  1
  O  O132  1  0.15260086  0.84561130  0.25629808  1
  O  O133  1  0.65293878  0.84553390  0.25632452  1
  O  O134  1  0.25909570  0.69195638  0.25382289  1
  O  O135  1  0.75872705  0.69091255  0.25427057  1
  O  O136  1  0.07738852  0.48060260  0.25584849  1
  O  O137  1  0.57770684  0.47962993  0.25549486  1
  O  O138  1  0.15920962  0.46815585  0.75550441  1
  O  O139  1  0.65152132  0.45980511  0.75467594  1
  O  O140  1  0.08150364  0.68553270  0.75359468  1
  O  O141  1  0.57846854  0.67621768  0.75475604  1
  O  O142  1  0.25943257  0.82602888  0.75481939  1
  O  O143  1  0.75838906  0.82911606  0.75347612  1
loop_
_geom_bond_atom_site_label_1
_geom_bond_atom_site_label_2
_geom_bond_distance
_geom_bond_site_symmetry_2
Na0 O34 2.431831 1_555
Na0 O106 2.462245 1_555
Na0 O102 2.475888 1_555
Na0 O134 2.491482 1_555
Na0 O136 2.563539 1_555
Na0 O20 2.735316 1_555
Na0 O64 2.908147 1_555
Na0 O0 3.003689 1_555
Na1 O35 2.387306 1_555
Na1 O107 2.477520 1_555
Na1 O135 2.478169 1_555
Na1 O103 2.491202 1_555
Na1 O137 2.539864 1_555
Na1 O21 2.749010 1_555
Na1 O65 2.943454 1_555
Na1 O1 2.996345 1_555
Na2 O103 2.352553 1_555
Na2 O136 2.456723 1_655
Na2 O105 2.468066 1_555
Na2 O132 2.536272 1_655
Na2 O60 2.647324 1_655
Na2 O31 2.740505 1_555
Na2 O3 2.823302 1_555
Na3 O102 2.371268 1_555
Na3 O104 2.459821 1_555
Na3 O137 2.460085 1_555
Na3 O133 2.535713 1_555
Na3 O61 2.559777 1_555
Na3 O30 2.726533 1_555
Na3 O2 2.838230 1_555
Na4 O96 2.370531 1_555
Na4 O67 2.476485 1_555
Na4 O100 2.483735 1_555
Na4 O141 2.508449 1_555
Na4 O139 2.517834 1_555
Na4 O10 2.648896 1_555
Na4 O24 2.866505 1_555
Na5 O98 2.441907 1_565
Na5 O140 2.453541 1_555
Na5 O96 2.472556 1_565
Na5 O142 2.478242 1_555
Na5 O26 2.482139 1_565
Na5 O68 2.742328 1_555
Na5 O16 2.862274 1_555
Na6 O97 2.377528 1_555
Na6 O99 2.426333 1_555
Na6 O27 2.443161 1_555
Na6 O143 2.448578 1_545
Na6 O141 2.561112 1_545
Na6 O17 2.816009 1_545
Na6 O69 2.873502 1_545
Na6 O7 2.970500 1_555
Na7 O129 2.354157 1_555
Na7 O87 2.371833 1_555
Na7 O57 2.530646 1_555
Na7 O131 2.557677 1_555
Na7 O84 2.620815 1_555
Na7 O29 2.725626 1_555
Na7 O43 2.807496 1_555
Na7 O15 2.859870 1_555
Na8 O86 2.391140 1_565
Na8 O58 2.438384 1_555
Na8 O130 2.439380 1_555
Na8 O126 2.477357 1_555
Na8 O89 2.543890 1_455
Na8 O45 2.835515 1_455
Na8 O16 2.876819 1_555
Na8 O25 2.957547 1_455
Na9 O127 2.325951 1_555
Na9 O89 2.454045 1_555
Na9 O129 2.483368 1_555
Na9 O13 2.514290 1_555
Na9 O85 2.603842 1_565
Na9 O27 2.799334 1_565
Na9 O55 2.801101 1_555
Na10 O81 2.292830 1_555
Na10 O110 2.363012 1_555
Na10 O8 2.432083 1_555
Na10 O82 2.580754 1_555
Na10 O108 2.620612 1_555
Na10 O67 2.860847 1_555
Na10 O53 2.906466 1_555
Na10 O38 2.963990 1_556
Na11 O80 2.352781 1_655
Na11 O9 2.437321 1_555
Na11 O111 2.453060 1_555
Na11 O109 2.582522 1_555
Na11 O83 2.640795 1_555
Na11 O66 2.776315 1_655
Na11 O52 2.834608 1_655
Na11 O39 2.973834 1_556
Na12 O11 2.392592 1_555
Na12 O78 2.420719 1_655
Na12 O83 2.438564 1_545
Na12 O113 2.461728 1_555
Na12 O111 2.514927 1_555
Na12 O69 2.773907 1_545
Na13 O78 2.390929 1_555
Na13 O112 2.450326 1_555
Na13 O80 2.476869 1_545
Na13 O50 2.580986 1_555
Na13 O108 2.605482 1_555
Na13 O36 2.622371 1_556
Na13 O6 2.759393 1_555
Na14 O77 2.330087 1_555
Na14 O118 2.410908 1_555
Na14 O4 2.446583 1_555
Na14 O114 2.600668 1_555
Na14 O74 2.681091 1_545
Na14 O61 2.833511 1_555
Na14 O57 2.864717 1_555
Na14 O46 2.962397 1_555
Na15 O76 2.312444 1_655
Na15 O119 2.379374 1_555
Na15 O5 2.435827 1_555
Na15 O115 2.543659 1_555
Na15 O75 2.631758 1_545
Na15 O47 2.849431 1_555
Na15 O60 2.882535 1_655
Na15 O56 2.902901 1_655
Na16 O73 2.353469 1_555
Na16 O2 2.383625 1_555
Na16 O74 2.429254 1_555
Na16 O116 2.476198 1_555
Na16 O118 2.501534 1_555
Na16 O64 2.817773 1_555
Na16 O44 2.976908 1_555
Na17 O72 2.365379 1_655
Na17 O75 2.410897 1_555
Na17 O3 2.483525 1_555
Na17 O117 2.493917 1_555
Na17 O119 2.508514 1_555
Na17 O45 2.790996 1_555
Na17 O65 2.871578 1_555
Na18 O72 2.331493 1_545
Na18 O76 2.337694 1_555
Na18 O86 2.411066 1_555
Na18 O75 2.744209 1_445
Na18 O85 2.828586 1_455
Na18 O89 2.858858 1_445
Na19 O73 2.256598 1_555
Na19 O77 2.384597 1_565
Na19 O87 2.402241 1_565
Na19 O74 2.699481 1_555
Na19 O88 2.830156 1_555
Na19 O84 2.887489 1_565
Na20 O80 2.389847 1_545
Na20 O78 2.425617 1_555
Na20 O94 2.434952 1_556
Na20 O83 2.655481 1_445
Na20 O91 2.693962 1_446
Na20 O93 2.795823 1_456
Na21 O79 2.257520 1_555
Na21 O81 2.398442 1_545
Na21 O95 2.456691 1_556
Na21 O82 2.711717 1_545
Na21 O92 2.886313 1_556
Na21 O90 2.907312 1_546
Na22 O96 2.355879 1_555
Na22 O110 2.467286 1_555
Na22 O100 2.543651 1_555
Na22 O98 2.593890 1_555
Na22 O112 2.678742 1_555
Na22 O108 2.806139 1_555
Na23 O97 2.296740 1_555
Na23 O101 2.300792 1_555
Na23 O99 2.559810 1_555
Na23 O111 2.620612 1_555
Na23 O109 2.839721 1_555
Na23 O113 2.916458 1_555
Na24 O102 2.401399 1_555
Na24 O104 2.427325 1_555
Na24 O106 2.465746 1_555
Na24 O118 2.679804 1_555
Na24 O114 2.710895 1_555
Na24 O116 2.792593 1_555
Na25 O103 2.427343 1_555
Na25 O105 2.470779 1_555
Na25 O107 2.479995 1_555
Na25 O119 2.563628 1_555
Na25 O117 2.667029 1_555
Na25 O115 2.671876 1_555
Na26 O120 2.264473 1_555
Na26 O124 2.394882 1_555
Na26 O122 2.492711 1_555
Na26 O134 2.527099 1_555
Na26 O136 2.837721 1_555
Na26 O132 2.891429 1_555
Na27 O121 2.268364 1_555
Na27 O125 2.408212 1_555
Na27 O123 2.491282 1_555
Na27 O135 2.525302 1_555
Na27 O137 2.823774 1_555
Na27 O133 2.871484 1_555
Na28 O126 2.387445 1_555
Na28 O142 2.443498 1_555
Na28 O128 2.495698 1_555
Na28 O130 2.616630 1_555
Na28 O138 2.676112 1_555
Na28 O140 2.704838 1_555
Na29 O127 2.373948 1_555
Na29 O143 2.460088 1_555
Na29 O129 2.490370 1_555
Na29 O131 2.524723 1_555
Na29 O141 2.669029 1_555
Na29 O139 2.766315 1_555
Hf0 O16 1.926899 1_655
Hf0 O13 2.002320 1_555
Hf0 O89 2.009938 1_555
Hf0 O86 2.104969 1_665
Hf0 O14 2.158048 1_665
Hf0 O85 2.219989 1_565
Hf1 O17 1.919270 1_555
Hf1 O12 1.954651 1_555
Hf1 O88 2.096609 1_555
Hf1 O87 2.098346 1_565
Hf1 O15 2.179514 1_565
Hf1 O84 2.238728 1_565
Hf2 O20 1.942070 1_555
Hf2 O19 2.003378 1_445
Hf2 O94 2.048161 1_555
Hf2 O93 2.081378 1_455
Hf2 O22 2.158887 1_545
Hf2 O91 2.226535 1_445
Hf3 O21 1.941822 1_555
Hf3 O18 2.003429 1_545
Hf3 O95 2.031407 1_555
Hf3 O92 2.079458 1_555
Hf3 O23 2.167153 1_545
Hf3 O90 2.213342 1_545
Hf4 O112 1.971976 1_555
Hf4 O36 1.991136 1_556
Hf4 O40 2.028692 1_556
Hf4 O110 2.063936 1_555
Hf4 O108 2.170131 1_555
Hf4 O38 2.192431 1_556
Hf5 O37 1.923889 1_556
Hf5 O113 1.957050 1_555
Hf5 O41 2.073979 1_556
Hf5 O109 2.127517 1_555
Hf5 O111 2.131597 1_555
Hf5 O39 2.208484 1_556
Hf6 O42 1.940446 1_555
Hf6 O116 1.962893 1_555
Hf6 O44 2.074328 1_555
Hf6 O118 2.117511 1_555
Hf6 O114 2.141514 1_555
Hf6 O46 2.182528 1_555
Hf7 O45 1.958206 1_555
Hf7 O43 1.967833 1_555
Hf7 O117 1.979364 1_555
Hf7 O119 2.150570 1_555
Hf7 O47 2.216559 1_555
Hf7 O115 2.217793 1_555
Hf8 O64 1.946499 1_555
Hf8 O136 1.997239 1_555
Hf8 O60 2.015836 1_555
Hf8 O134 2.060686 1_555
Hf8 O132 2.193150 1_555
Hf8 O62 2.202152 1_555
Hf9 O65 1.941700 1_555
Hf9 O137 2.003835 1_555
Hf9 O61 2.022087 1_555
Hf9 O135 2.071091 1_555
Hf9 O63 2.187065 1_555
Hf9 O133 2.195274 1_555
Hf10 O68 1.957990 1_555
Hf10 O140 1.976539 1_555
Hf10 O66 1.996691 1_555
Hf10 O142 2.078383 1_555
Hf10 O138 2.203403 1_555
Hf10 O70 2.211916 1_555
Hf11 O69 1.945324 1_555
Hf11 O141 2.012292 1_555
Hf11 O67 2.027848 1_555
Hf11 O143 2.066835 1_555
Hf11 O71 2.187072 1_555
Hf11 O139 2.227756 1_555
Ga0 O3 1.921017 1_445
Ga0 O5 1.953249 1_455
Ga0 O72 1.958190 1_545
Ga0 O76 2.015707 1_555
Ga0 O0 2.104578 1_555
Ga0 O75 2.269067 1_445
Ga1 O2 1.918062 1_545
Ga1 O77 1.966083 1_555
Ga1 O4 1.969462 1_555
Ga1 O73 1.985930 1_545
Ga1 O1 2.078864 1_555
Ga1 O74 2.340929 1_545
Ga2 O11 1.900933 1_565
Ga2 O9 1.910161 1_555
Ga2 O78 1.989145 1_665
Ga2 O80 2.066472 1_655
Ga2 O6 2.139579 1_665
Ga2 O83 2.287652 1_555
Ga3 O10 1.878462 1_565
Ga3 O79 1.899923 1_565
Ga3 O8 1.981806 1_555
Ga3 O81 2.025799 1_555
Ga3 O7 2.162023 1_565
Ga3 O82 2.204161 1_555
Ga4 O26 1.876575 1_555
Ga4 O100 1.919294 1_555
Ga4 O96 1.922161 1_555
Ga4 O24 2.095818 1_555
Ga4 O98 2.195943 1_555
Ga4 O28 2.211805 1_555
Ga5 O101 1.927876 1_555
Ga5 O29 1.930927 1_555
Ga5 O27 1.968520 1_555
Ga5 O97 1.988228 1_555
Ga5 O25 2.165009 1_555
Ga5 O99 2.205296 1_555
Ga6 O34 1.873834 1_555
Ga6 O104 1.938606 1_555
Ga6 O102 1.971726 1_555
Ga6 O30 2.028560 1_555
Ga6 O32 2.165927 1_555
Ga6 O106 2.303689 1_555
Ga7 O35 1.876140 1_555
Ga7 O105 1.942279 1_555
Ga7 O103 1.959470 1_555
Ga7 O31 2.046632 1_555
Ga7 O33 2.166072 1_555
Ga7 O107 2.289427 1_555
Ga8 O50 1.852191 1_554
Ga8 O52 1.899452 1_554
Ga8 O120 1.905503 1_555
Ga8 O48 2.105204 1_554
Ga8 O122 2.248132 1_555
Ga8 O124 2.390958 1_555
Ga9 O51 1.811410 1_554
Ga9 O53 1.890105 1_554
Ga9 O121 1.898555 1_555
Ga9 O49 2.155808 1_554
Ga9 O123 2.211480 1_555
Ga9 O125 2.450645 1_555
Ga10 O58 1.869865 1_555
Ga10 O56 1.888687 1_555
Ga10 O126 1.947664 1_555
Ga10 O54 2.048271 1_555
Ga10 O130 2.227739 1_555
Ga10 O128 2.302245 1_555
Ga11 O59 1.854666 1_555
Ga11 O127 1.974339 1_555
Ga11 O57 1.987480 1_555
Ga11 O129 2.008118 1_555
Ga11 O55 2.160441 1_555
Ga11 O131 2.216604 1_555
O0 S0 1.481532 1_555
O1 S1 1.483891 1_555
O2 Si0 1.643342 1_555
O3 Si1 1.640536 1_555
O4 Si3 1.634495 1_555
O5 Si2 1.634138 1_555
O6 S2 1.492404 1_555
O7 S3 1.465803 1_555
O8 Si5 1.623196 1_555
O9 Si4 1.640814 1_555
O10 Si6 1.613060 1_545
O11 Si7 1.638774 1_555
O12 Si6 1.642719 1_555
O13 Si7 1.643142 1_565
O14 S2 1.483486 1_555
O15 S3 1.512289 1_555
O16 Si4 1.642884 1_455
O17 Si5 1.640244 1_555
O18 Si0 1.623782 1_555
O19 Si1 1.629472 1_555
O20 Si2 1.632692 1_455
O21 Si3 1.630937 1_555
O22 S0 1.488183 1_565
O23 S1 1.486974 1_565
O24 S4 1.477561 1_555
O25 S5 1.467547 1_555
O26 Si8 1.640244 1_555
O27 Si9 1.641845 1_555
O28 S6 1.464722 1_555
O29 Si10 1.616878 1_555
O30 S7 1.499518 1_555
O31 S8 1.497585 1_555
O32 S9 1.470437 1_555
O33 S10 1.470325 1_555
O34 Si11 1.659564 1_555
O35 Si12 1.656101 1_555
O36 Si11 1.644750 1_555
O37 Si12 1.637852 1_555
O38 S7 1.487685 1_555
O39 S8 1.488713 1_555
O40 S9 1.500860 1_555
O41 S10 1.505473 1_555
O42 Si8 1.638316 1_555
O43 Si9 1.654812 1_555
O44 S6 1.505634 1_555
O45 Si10 1.653765 1_555
O46 S4 1.486567 1_555
O47 S5 1.504469 1_555
O48 S11 1.466077 1_555
O49 S12 1.460752 1_555
O50 Si13 1.630406 1_555
O51 Si14 1.621760 1_555
O52 Si15 1.635515 1_555
O53 Si16 1.631329 1_555
O54 S13 1.472565 1_555
O55 S14 1.476087 1_555
O56 Si17 1.629269 1_555
O57 Si18 1.635224 1_555
O58 Si19 1.638244 1_555
O59 Si20 1.615783 1_555
O60 Si19 1.644507 1_555
O61 Si20 1.650805 1_555
O62 S13 1.478571 1_555
O63 S14 1.482430 1_555
O64 Si17 1.649216 1_555
O65 Si18 1.647973 1_555
O66 Si13 1.635457 1_555
O67 Si14 1.659070 1_555
O68 Si15 1.634351 1_555
O69 Si16 1.657701 1_555
O70 S11 1.485636 1_555
O71 S12 1.482597 1_555
O72 Si19 1.632245 1_555
O73 Si20 1.634445 1_555
O74 S13 1.476457 1_555
O75 S14 1.483951 1_555
O76 Si17 1.626543 1_555
O77 Si18 1.627999 1_555
O78 Si13 1.643560 1_555
O79 Si14 1.611462 1_555
O80 Si15 1.654516 1_555
O81 Si16 1.621138 1_555
O82 S11 1.465907 1_555
O83 S12 1.488032 1_555
O84 S4 1.498820 1_555
O85 S5 1.491912 1_555
O86 Si8 1.656086 1_555
O87 Si9 1.656722 1_555
O88 S6 1.510936 1_555
O89 Si10 1.650047 1_555
O90 S7 1.489065 1_555
O91 S8 1.494861 1_555
O92 S9 1.505145 1_555
O93 S10 1.513674 1_555
O94 Si11 1.659736 1_555
O95 Si12 1.650630 1_555
O96 Si6 1.664037 1_545
O97 Si7 1.642172 1_555
O98 S2 1.486543 1_555
O99 S3 1.469999 1_555
O100 Si5 1.636109 1_555
O101 Si4 1.605390 1_555
O102 Si0 1.668076 1_555
O103 Si1 1.668732 1_555
O104 Si3 1.636876 1_555
O105 Si2 1.634855 1_555
O106 S0 1.474581 1_555
O107 S1 1.473442 1_555
O108 S11 1.529025 1_555
O109 S12 1.511845 1_555
O110 Si14 1.681005 1_555
O111 Si13 1.653185 1_655
O112 Si15 1.650317 1_545
O113 Si16 1.649772 1_545
O114 S13 1.509688 1_545
O115 S14 1.498858 1_545
O116 Si17 1.644177 1_555
O117 Si18 1.640909 1_555
O118 Si20 1.686646 1_555
O119 Si19 1.672766 1_655
O120 Si11 1.646659 1_555
O121 Si12 1.640803 1_555
O122 S8 1.473697 1_455
O123 S7 1.473073 1_555
O124 S9 1.454264 1_565
O125 S10 1.451292 1_565
O126 Si8 1.661000 1_565
O127 Si9 1.632018 1_565
O128 S6 1.462996 1_555
O129 Si10 1.638832 1_555
O130 S5 1.482261 1_455
O131 S4 1.483942 1_555
O132 S0 1.489820 1_565
O133 S1 1.488836 1_565
O134 Si0 1.648898 1_555
O135 Si1 1.649722 1_555
O136 Si2 1.675968 1_455
O137 Si3 1.675025 1_555
O138 S2 1.477053 1_555
O139 S3 1.493320 1_555
O140 Si4 1.657341 1_455
O141 Si5 1.670053 1_555
O142 Si6 1.638118 1_555
O143 Si7 1.671394 1_565
