# generated using pymatgen
data_CaAl4Si2(HO6)2
_symmetry_space_group_name_H-M   'P 1'
_cell_length_a   5.15675030
_cell_length_b   5.15675030
_cell_length_c   19.41433026
_cell_angle_alpha   87.19830411
_cell_angle_beta   87.19830411
_cell_angle_gamma   120.04131119
_symmetry_Int_Tables_number   1
_chemical_formula_structural   CaAl4Si2(HO6)2
_chemical_formula_sum   'Ca2 Al8 Si4 H4 O24'
_cell_volume   444.77102799
_cell_formula_units_Z   2
loop_
 _symmetry_equiv_pos_site_id
 _symmetry_equiv_pos_as_xyz
  1  'x, y, z'
loop_
 _atom_site_type_symbol
 _atom_site_label
 _atom_site_symmetry_multiplicity
 _atom_site_fract_x
 _atom_site_fract_y
 _atom_site_fract_z
 _atom_site_occupancy
  Ca  Ca0  1  0.09405000  0.90756300  0.74916300  1
  Ca  Ca1  1  0.90756300  0.09405000  0.24916300  1
  Al  Al0  1  0.19513900  0.70860200  0.35756900  1
  Al  Al1  1  0.70860200  0.19513900  0.85756900  1
  Al  Al2  1  0.33249900  0.16793800  0.99899700  1
  Al  Al3  1  0.16793800  0.33249900  0.49899700  1
  Al  Al4  1  0.66445100  0.83432500  0.99913200  1
  Al  Al5  1  0.83432500  0.66445100  0.49913200  1
  Al  Al6  1  0.46698700  0.60811900  0.64043800  1
  Al  Al7  1  0.60811900  0.46698700  0.14043800  1
  Si  Si0  1  0.39155400  0.53819400  0.85427900  1
  Si  Si1  1  0.53819400  0.39155400  0.35427900  1
  Si  Si2  1  0.28892000  0.80593300  0.14388500  1
  Si  Si3  1  0.80593300  0.28892000  0.64388500  1
  H  H0  1  0.70807600  0.01772700  0.43809900  1
  H  H1  1  0.01772700  0.70807600  0.93809900  1
  H  H2  1  0.29018200  0.97655800  0.56126600  1
  H  H3  1  0.97655800  0.29018200  0.06126600  1
  O  O0  1  0.89034900  0.01519000  0.44738500  1
  O  O1  1  0.01519000  0.89034900  0.94738500  1
  O  O2  1  0.10875000  0.97843200  0.55083700  1
  O  O3  1  0.97843200  0.10875000  0.05083700  1
  O  O4  1  0.86956300  0.66388500  0.31927100  1
  O  O5  1  0.66388500  0.86956300  0.81927100  1
  O  O6  1  0.10542900  0.32022000  0.67859700  1
  O  O7  1  0.32022000  0.10542900  0.17859700  1
  O  O8  1  0.50376700  0.07317000  0.33036500  1
  O  O9  1  0.07317000  0.50376700  0.83036500  1
  O  O10  1  0.58825300  0.48471900  0.05144400  1
  O  O11  1  0.48471900  0.58825300  0.55144400  1
  O  O12  1  0.39647500  0.51631300  0.93861200  1
  O  O13  1  0.51631300  0.39647500  0.43861200  1
  O  O14  1  0.35327700  0.86339600  0.05953300  1
  O  O15  1  0.86339600  0.35327700  0.55953300  1
  O  O16  1  0.62745800  0.12683800  0.94671300  1
  O  O17  1  0.12683800  0.62745800  0.44671300  1
  O  O18  1  0.53872300  0.73722800  0.17763600  1
  O  O19  1  0.73722800  0.53872300  0.67763600  1
  O  O20  1  0.44538200  0.27960000  0.82073700  1
  O  O21  1  0.27960000  0.44538200  0.32073700  1
  O  O22  1  0.95268900  0.51267600  0.16764100  1
  O  O23  1  0.51267600  0.95268900  0.66764100  1
loop_
_geom_bond_atom_site_label_1
_geom_bond_atom_site_label_2
_geom_bond_distance
_geom_bond_site_symmetry_2
Ca0 O20 2.433202 1_565
Ca0 O19 2.436308 1_455
Ca0 O6 2.447590 1_565
Ca0 O5 2.460728 1_455
Ca0 O9 2.504151 1_555
Ca0 O23 2.519184 1_555
Ca1 O21 2.433202 1_655
Ca1 O18 2.436308 1_545
Ca1 O7 2.447590 1_655
Ca1 O4 2.460728 1_545
Ca1 O8 2.504151 1_555
Ca1 O22 2.519184 1_555
Al0 O17 1.736784 1_555
Al0 O8 1.780790 1_565
Al0 O4 1.782113 1_455
Al0 O21 1.788803 1_555
Al1 O16 1.736784 1_555
Al1 O9 1.780790 1_655
Al1 O5 1.782113 1_545
Al1 O20 1.788803 1_555
Al2 O10 1.892471 1_556
Al2 O16 1.892529 1_555
Al2 O3 1.916274 1_456
Al2 O1 1.919851 1_545
Al2 O14 1.964533 1_546
Al2 O12 1.968107 1_555
Al3 O11 1.892471 1_555
Al3 O17 1.892529 1_555
Al3 O2 1.916274 1_545
Al3 O0 1.919851 1_455
Al3 O15 1.964533 1_455
Al3 O13 1.968107 1_555
Al4 O16 1.872005 1_565
Al4 O10 1.873169 1_556
Al4 O1 1.906532 1_655
Al4 O3 1.906683 1_566
Al4 O14 2.011604 1_556
Al4 O12 2.014329 1_555
Al5 O17 1.872005 1_655
Al5 O11 1.873169 1_555
Al5 O0 1.906532 1_565
Al5 O2 1.906683 1_655
Al5 O15 2.011604 1_555
Al5 O13 2.014329 1_555
Al6 O11 1.736446 1_555
Al6 O19 1.778781 1_555
Al6 O23 1.782247 1_555
Al6 O6 1.793079 1_555
Al7 O10 1.736446 1_555
Al7 O18 1.778781 1_555
Al7 O22 1.782247 1_555
Al7 O7 1.793079 1_555
H0 O0 0.972008 1_555
H1 O1 0.972008 1_555
H2 O2 0.971501 1_555
H3 O3 0.971501 1_555
O4 Si1 1.656654 1_555
O5 Si0 1.656654 1_555
O6 Si3 1.651741 1_455
O7 Si2 1.651741 1_545
O8 Si1 1.653299 1_555
O9 Si0 1.653299 1_555
O12 Si0 1.637954 1_555
O13 Si1 1.637954 1_555
O14 Si2 1.637306 1_555
O15 Si3 1.637306 1_555
O18 Si2 1.652589 1_555
O19 Si3 1.652589 1_555
O20 Si0 1.648385 1_555
O21 Si1 1.648385 1_555
O22 Si2 1.653549 1_655
O23 Si3 1.653549 1_565
