# generated using pymatgen
data_Na7Y2Zn2P5SO24
_symmetry_space_group_name_H-M   'P 1'
_cell_length_a   9.20887958
_cell_length_b   9.23934526
_cell_length_c   23.07726791
_cell_angle_alpha   90.22617604
_cell_angle_beta   89.75381058
_cell_angle_gamma   119.96819706
_symmetry_Int_Tables_number   1
_chemical_formula_structural   Na7Y2Zn2P5SO24
_chemical_formula_sum   'Na21 Y6 Zn6 P15 S3 O72'
_cell_volume   1700.97195940
_cell_formula_units_Z   3
loop_
 _symmetry_equiv_pos_site_id
 _symmetry_equiv_pos_as_xyz
  1  'x, y, z'
loop_
 _atom_site_type_symbol
 _atom_site_label
 _atom_site_symmetry_multiplicity
 _atom_site_fract_x
 _atom_site_fract_y
 _atom_site_fract_z
 _atom_site_occupancy
  Na  Na0  1  0.63853699  0.99363927  0.25172813  1
  Na  Na1  1  0.00308881  0.63058032  0.25310077  1
  Na  Na2  1  0.63043255  0.63926225  0.74937292  1
  Na  Na3  1  0.00872074  0.36995882  0.75189109  1
  Na  Na4  1  0.36226589  0.99132768  0.75197057  1
  Na  Na5  1  0.29740396  0.33268392  0.58535243  1
  Na  Na6  1  0.03631252  0.70318948  0.58286561  1
  Na  Na7  1  0.66739647  0.96295589  0.58372012  1
  Na  Na8  1  0.29774423  0.96393030  0.08135373  1
  Na  Na9  1  0.66583616  0.70126610  0.08556925  1
  Na  Na10  1  0.03697606  0.33394011  0.08391732  1
  Na  Na11  1  0.98140656  0.66857448  0.91665830  1
  Na  Na12  1  0.32924004  0.29887318  0.91851159  1
  Na  Na13  1  0.96563725  0.30586218  0.41511706  1
  Na  Na14  1  0.70132320  0.67252728  0.41796693  1
  Na  Na15  1  0.00308053  0.99387138  0.50511253  1
  Na  Na16  1  0.99941088  0.00583698  0.00456730  1
  Na  Na17  1  0.66796651  0.31919699  0.83342503  1
  Na  Na18  1  0.66301818  0.33049748  0.33300421  1
  Na  Na19  1  0.33450186  0.65244148  0.16750622  1
  Na  Na20  1  0.33381872  0.66735306  0.66639789  1
  Y  Y0  1  0.00009903  0.99742698  0.35056396  1
  Y  Y1  1  0.99758128  0.00454287  0.85038256  1
  Y  Y2  1  0.66693846  0.33352077  0.68089160  1
  Y  Y3  1  0.66513789  0.33753901  0.18188798  1
  Y  Y4  1  0.66790833  0.32196626  0.98385665  1
  Y  Y5  1  0.66420159  0.32577963  0.48394199  1
  Zn  Zn0  1  0.99934275  0.99949072  0.65417388  1
  Zn  Zn1  1  0.99012553  0.00592419  0.15236002  1
  Zn  Zn2  1  0.32288602  0.66754896  0.01520966  1
  Zn  Zn3  1  0.33515456  0.68319780  0.51470508  1
  Zn  Zn4  1  0.33351483  0.66168387  0.31897981  1
  Zn  Zn5  1  0.32479961  0.67175087  0.81803989  1
  P  P0  1  0.69951075  0.70578334  0.24918637  1
  P  P1  1  0.00723355  0.30168290  0.24932594  1
  P  P2  1  0.29518575  0.30046298  0.74918937  1
  P  P3  1  0.00354536  0.70614345  0.74917285  1
  P  P4  1  0.70008012  0.99413625  0.74781784  1
  P  P5  1  0.97486095  0.33364321  0.58275239  1
  P  P6  1  0.35975534  0.02813894  0.58436083  1
  P  P7  1  0.66537775  0.63854089  0.58235309  1
  P  P8  1  0.97105208  0.63968820  0.08289716  1
  P  P9  1  0.66503989  0.02572954  0.08495400  1
  P  P10  1  0.36137659  0.33340616  0.08166078  1
  P  P11  1  0.04945018  0.38284484  0.91654328  1
  P  P12  1  0.33355221  0.95519512  0.91617092  1
  P  P13  1  0.61908772  0.95320788  0.41547428  1
  P  P14  1  0.04629923  0.66668338  0.41657677  1
  S  S0  1  0.29467235  0.99605728  0.24812312  1
  S  S1  1  0.62163629  0.66610781  0.91718557  1
  S  S2  1  0.33390942  0.38109883  0.41740664  1
  O  O0  1  0.21691727  0.02183374  0.30036165  1
  O  O1  1  0.81107181  0.78427148  0.30404201  1
  O  O2  1  0.97751794  0.19286781  0.30439412  1
  O  O3  1  0.21851231  0.19109462  0.80414669  1
  O  O4  1  0.97151089  0.78213972  0.80455018  1
  O  O5  1  0.81367060  0.02779826  0.80103022  1
  O  O6  1  0.78109144  0.96803203  0.69293220  1
  O  O7  1  0.18546362  0.21687577  0.69528762  1
  O  O8  1  0.02896187  0.81517225  0.69539876  1
  O  O9  1  0.78554479  0.81471063  0.19499382  1
  O  O10  1  0.02671997  0.21622755  0.19463471  1
  O  O11  1  0.19269716  0.97492108  0.19567683  1
  O  O12  1  0.89198979  0.36507278  0.63662917  1
  O  O13  1  0.47106774  0.10697775  0.63882227  1
  O  O14  1  0.63545409  0.52607945  0.63641413  1
  O  O15  1  0.88819909  0.52525293  0.13647016  1
  O  O16  1  0.63246438  0.10536252  0.13934329  1
  O  O17  1  0.47971874  0.36442174  0.13350690  1
  O  O18  1  0.44211490  0.30235904  0.02684487  1
  O  O19  1  0.85697581  0.55647371  0.02911313  1
  O  O20  1  0.69948890  0.14536880  0.03323333  1
  O  O21  1  0.44722467  0.14688843  0.53258227  1
  O  O22  1  0.69487358  0.55305326  0.52865731  1
  O  O23  1  0.85900681  0.30257274  0.52938354  1
  O  O24  1  0.54452199  0.68622491  0.97012279  1
  O  O25  1  0.15438497  0.46070966  0.97170224  1
  O  O26  1  0.30911033  0.85213184  0.97143916  1
  O  O27  1  0.54393005  0.84798109  0.47075169  1
  O  O28  1  0.30871012  0.45373816  0.47098954  1
  O  O29  1  0.14353685  0.68392828  0.47247728  1
  O  O30  1  0.12458846  0.63913187  0.36117950  1
  O  O31  1  0.51971990  0.87226747  0.35982611  1
  O  O32  1  0.35875892  0.48263821  0.36536235  1
  O  O33  1  0.12802414  0.48496953  0.86074956  1
  O  O34  1  0.35574361  0.87673994  0.86029646  1
  O  O35  1  0.52294542  0.64337763  0.86379774  1
  O  O36  1  0.01677035  0.81921582  0.41295526  1
  O  O37  1  0.80194787  0.97573018  0.41242840  1
  O  O38  1  0.18131428  0.21108571  0.41180606  1
  O  O39  1  0.03152608  0.20571725  0.91295522  1
  O  O40  1  0.16995842  0.97073462  0.91313662  1
  O  O41  1  0.79639485  0.81170566  0.91312107  1
  O  O42  1  0.98691919  0.17279800  0.58866440  1
  O  O43  1  0.18479163  0.01292784  0.58983886  1
  O  O44  1  0.82641073  0.81166958  0.58835658  1
  O  O45  1  0.98687612  0.81410913  0.09003780  1
  O  O46  1  0.82640668  0.01229978  0.08961529  1
  O  O47  1  0.18768585  0.17244357  0.08905402  1
  O  O48  1  0.68143468  0.15378883  0.74450511  1
  O  O49  1  0.47323004  0.31800585  0.74497153  1
  O  O50  1  0.84415870  0.52789785  0.74500102  1
  O  O51  1  0.68955484  0.53225413  0.24514330  1
  O  O52  1  0.84082149  0.31234499  0.24567091  1
  O  O53  1  0.46755275  0.14422514  0.24485401  1
  O  O54  1  0.63959793  0.51135673  0.92077115  1
  O  O55  1  0.87340999  0.37014799  0.92050940  1
  O  O56  1  0.48368343  0.13908865  0.91939703  1
  O  O57  1  0.64988940  0.13575085  0.41940339  1
  O  O58  1  0.48768044  0.36410200  0.42112538  1
  O  O59  1  0.86391487  0.50639302  0.41982709  1
  O  O60  1  0.34707409  0.49324985  0.07642668  1
  O  O61  1  0.14548984  0.65311106  0.07736736  1
  O  O62  1  0.50675784  0.85202919  0.07670808  1
  O  O63  1  0.34713240  0.85497808  0.57760455  1
  O  O64  1  0.50472352  0.65171297  0.57649688  1
  O  O65  1  0.14875725  0.49282104  0.57616658  1
  O  O66  1  0.30916318  0.84299405  0.25370743  1
  O  O67  1  0.52751996  0.69601002  0.25608045  1
  O  O68  1  0.15730245  0.48180010  0.25521730  1
  O  O69  1  0.31507038  0.47702831  0.75583510  1
  O  O70  1  0.16172808  0.68714527  0.75434179  1
  O  O71  1  0.52441788  0.83573465  0.75516800  1
loop_
_geom_bond_atom_site_label_1
_geom_bond_atom_site_label_2
_geom_bond_distance
_geom_bond_site_symmetry_2
Na0 O67 2.410370 1_555
Na0 O53 2.575405 1_565
Na0 O52 2.584852 1_565
Na0 O66 2.630793 1_555
Na0 O31 2.729581 1_555
Na0 O16 2.806269 1_565
Na0 O9 2.912644 1_555
Na0 O2 2.980678 1_565
Na1 O68 2.420784 1_555
Na1 O66 2.504022 1_555
Na1 O52 2.552722 1_455
Na1 O51 2.564812 1_455
Na1 O30 2.722697 1_555
Na1 O15 2.878514 1_455
Na2 O71 2.456359 1_555
Na2 O69 2.520348 1_555
Na2 O49 2.573386 1_555
Na2 O50 2.638800 1_555
Na2 O14 2.813673 1_555
Na2 O35 2.822836 1_555
Na2 O6 2.941746 1_555
Na2 O4 3.018003 1_555
Na3 O69 2.481750 1_555
Na3 O70 2.539882 1_555
Na3 O50 2.581552 1_455
Na3 O48 2.662673 1_455
Na3 O33 2.735588 1_555
Na3 O12 2.864952 1_455
Na3 O7 2.936473 1_555
Na3 O5 2.973922 1_455
Na4 O70 2.475321 1_555
Na4 O71 2.539331 1_555
Na4 O48 2.551807 1_565
Na4 O49 2.664865 1_565
Na4 O34 2.707377 1_555
Na4 O13 2.809580 1_565
Na4 O8 2.966680 1_555
Na4 O3 3.003121 1_565
Na5 O65 2.477135 1_555
Na5 O42 2.478412 1_455
Na5 O64 2.598937 1_555
Na5 O43 2.599030 1_555
Na5 O7 2.746076 1_555
Na5 O28 2.851612 1_555
Na5 O21 2.944236 1_555
Na5 O14 2.954693 1_555
Na6 O63 2.482411 1_555
Na6 O43 2.484812 1_565
Na6 O44 2.586383 1_455
Na6 O65 2.623155 1_555
Na6 O29 2.765244 1_555
Na6 O8 2.804730 1_555
Na6 O12 2.988893 1_455
Na6 O22 3.006374 1_455
Na7 O44 2.481321 1_555
Na7 O64 2.497212 1_555
Na7 O42 2.594565 1_565
Na7 O63 2.603151 1_555
Na7 O6 2.724536 1_555
Na7 O27 2.831011 1_555
Na7 O23 3.002085 1_565
Na7 O13 3.004460 1_565
Na8 O45 2.487960 1_455
Na8 O61 2.489534 1_555
Na8 O47 2.591665 1_565
Na8 O62 2.602051 1_555
Na8 O26 2.756257 1_554
Na8 O11 2.825003 1_555
Na8 O18 2.998449 1_565
Na8 O16 2.999542 1_565
Na9 O62 2.484271 1_555
Na9 O46 2.491473 1_565
Na9 O60 2.592486 1_555
Na9 O45 2.600084 1_555
Na9 O9 2.745775 1_555
Na9 O24 2.869291 1_554
Na9 O17 2.920479 1_555
Na9 O19 2.984017 1_555
Na10 O60 2.479861 1_555
Na10 O47 2.497668 1_555
Na10 O61 2.603044 1_555
Na10 O46 2.617748 1_455
Na10 O10 2.763569 1_555
Na10 O25 2.825193 1_554
Na10 O20 2.944161 1_455
Na10 O15 2.976668 1_455
Na11 O55 2.420977 1_555
Na11 O40 2.444016 1_655
Na11 O41 2.628927 1_555
Na11 O54 2.730846 1_555
Na11 O4 2.814532 1_555
Na11 O19 2.816125 1_556
Na11 O26 2.912769 1_655
Na11 O33 2.936220 1_655
Na12 O39 2.432775 1_555
Na12 O56 2.510146 1_555
Na12 O54 2.533825 1_555
Na12 O40 2.629536 1_545
Na12 O18 2.705536 1_556
Na12 O3 2.825749 1_555
Na13 O59 2.460393 1_555
Na13 O57 2.523450 1_555
Na13 O38 2.540298 1_655
Na13 O37 2.643048 1_545
Na13 O2 2.778759 1_555
Na13 O23 2.804863 1_555
Na14 O37 2.476134 1_555
Na14 O36 2.520684 1_655
Na14 O58 2.529008 1_555
Na14 O59 2.626215 1_555
Na14 O22 2.775359 1_555
Na14 O1 2.820561 1_555
Na14 O27 2.920467 1_555
Na14 O32 2.998383 1_555
Na15 O43 2.526893 1_565
Na15 O44 2.536480 1_455
Na15 O42 2.586703 1_465
Na15 O36 2.704956 1_555
Na15 O37 2.784726 1_455
Na15 O38 2.840970 1_565
Na16 O46 2.541871 1_555
Na16 O47 2.552657 1_655
Na16 O45 2.619758 1_545
Na16 O39 2.729004 1_654
Na16 O40 2.738392 1_644
Na16 O41 2.796392 1_544
Na17 O48 2.593108 1_555
Na17 O56 2.600231 1_555
Na17 O55 2.641046 1_555
Na17 O50 2.718775 1_555
Na17 O49 2.719263 1_555
Na17 O54 2.777423 1_555
Na18 O52 2.648457 1_555
Na18 O57 2.652658 1_555
Na18 O59 2.660969 1_555
Na18 O51 2.686297 1_555
Na18 O53 2.692429 1_555
Na18 O58 2.703090 1_555
Na19 O68 2.583055 1_555
Na19 O60 2.595805 1_555
Na19 O67 2.609506 1_555
Na19 O62 2.717903 1_555
Na19 O61 2.720059 1_555
Na19 O66 2.736812 1_555
Na20 O70 2.631113 1_555
Na20 O71 2.641104 1_555
Na20 O64 2.645542 1_555
Na20 O63 2.651898 1_555
Na20 O65 2.664415 1_555
Na20 O69 2.665386 1_555
O0 S0 1.477631 1_545
O0 Y0 2.216312 1_545
O1 P0 1.563175 1_555
O1 Y0 2.153091 1_655
O2 P1 1.559778 1_655
O2 Y0 2.198050 1_645
O3 P2 1.554914 1_555
O3 Y1 2.177414 1_455
O4 P3 1.552365 1_655
O4 Y1 2.211550 1_565
O5 P4 1.543343 1_545
O5 Y1 2.143286 1_555
O6 P4 1.545396 1_555
O6 Zn0 2.080140 1_555
O7 P2 1.545415 1_555
O7 Zn0 2.105157 1_445
O8 P3 1.543161 1_555
O8 Zn0 2.087751 1_455
O9 P0 1.552239 1_555
O9 Zn1 2.076323 1_565
O10 P1 1.542817 1_555
O10 Zn1 2.043164 1_455
O11 S0 1.486459 1_555
O11 Zn1 2.261279 1_465
O12 P5 1.556594 1_555
O12 Y2 2.191817 1_555
O13 P6 1.555260 1_555
O13 Y2 2.191883 1_555
O14 P7 1.559899 1_555
O14 Y2 2.198900 1_555
O15 P8 1.557179 1_555
O15 Y3 2.182363 1_555
O16 P9 1.554581 1_555
O16 Y3 2.235460 1_555
O17 P10 1.548488 1_555
O17 Y3 2.160118 1_555
O18 P10 1.561233 1_555
O18 Y4 2.224379 1_554
O19 P8 1.559493 1_555
O19 Y4 2.246267 1_554
O20 P9 1.550473 1_555
O20 Y4 2.129986 1_554
O21 P6 1.549054 1_555
O21 Y5 2.163399 1_555
O22 P7 1.561043 1_555
O22 Y5 2.224157 1_555
O23 P5 1.562062 1_555
O23 Y5 2.183143 1_555
O24 S1 1.467610 1_555
O24 Zn2 2.215729 1_556
O25 P11 1.542885 1_555
O25 Zn2 2.025762 1_556
O26 P12 1.541804 1_555
O26 Zn2 2.043457 1_556
O27 P13 1.543209 1_555
O27 Zn3 2.028374 1_555
O28 S2 1.476449 1_555
O28 Zn3 2.245246 1_555
O29 P14 1.535306 1_555
O29 Zn3 2.022421 1_555
O30 P14 1.546541 1_555
O30 Zn4 2.068452 1_555
O31 P13 1.537742 1_555
O31 Zn4 2.069001 1_555
O32 S2 1.472093 1_555
O32 Zn4 2.082467 1_555
O33 P11 1.546353 1_555
O33 Zn5 2.026616 1_555
O34 P12 1.538890 1_555
O34 Zn5 2.016898 1_555
O35 S1 1.484895 1_555
O35 Zn5 2.238292 1_555
O36 P14 1.565580 1_555
O36 Y0 2.254097 1_555
O37 P13 1.591512 1_555
O37 Y0 2.241104 1_655
O38 S2 1.501183 1_555
O38 Y0 2.320845 1_545
O39 P11 1.562547 1_555
O39 Y1 2.244979 1_455
O40 P12 1.584986 1_555
O40 Y1 2.287657 1_465
O41 S1 1.498415 1_555
O41 Y1 2.324369 1_565
O42 P5 1.551143 1_555
O42 Zn0 2.250816 1_545
O43 P6 1.550461 1_555
O43 Zn0 2.214504 1_445
O44 P7 1.551514 1_555
O44 Zn0 2.256900 1_555
O45 P8 1.552074 1_555
O45 Zn1 2.266608 1_565
O46 P9 1.555916 1_555
O46 Zn1 2.116914 1_555
O47 P10 1.556413 1_555
O47 Zn1 2.238260 1_455
O48 P4 1.570108 1_545
O48 Y2 2.274408 1_555
O49 P2 1.567563 1_555
O49 Y2 2.261191 1_555
O50 P3 1.568715 1_655
O50 Y2 2.269191 1_555
O51 P0 1.561957 1_555
O51 Y3 2.235165 1_555
O52 P1 1.586592 1_655
O52 Y3 2.288585 1_555
O53 S0 1.495587 1_545
O53 Y3 2.315887 1_555
O54 S1 1.521793 1_555
O54 Y4 2.393434 1_555
O55 P11 1.568129 1_655
O55 Y4 2.248627 1_555
O56 P12 1.567445 1_545
O56 Y4 2.254770 1_555
O57 P13 1.566621 1_545
O57 Y5 2.251243 1_555
O58 S2 1.503517 1_555
O58 Y5 2.338500 1_555
O59 P14 1.592052 1_655
O59 Y5 2.299207 1_555
O60 P10 1.552063 1_555
O60 Zn2 2.240055 1_555
O61 P8 1.552883 1_455
O61 Zn2 2.123149 1_555
O62 P9 1.548998 1_565
O62 Zn2 2.214664 1_555
O63 P6 1.552375 1_565
O63 Zn3 2.108662 1_555
O64 P7 1.550342 1_555
O64 Zn3 2.243366 1_555
O65 P5 1.548315 1_455
O65 Zn3 2.243770 1_555
O66 S0 1.491479 1_555
O66 Zn4 2.350241 1_555
O67 P0 1.548253 1_555
O67 Zn4 2.194238 1_555
O68 P1 1.549187 1_555
O68 Zn4 2.206248 1_555
O69 P2 1.555049 1_555
O69 Zn5 2.263892 1_555
O70 P3 1.556945 1_555
O70 Zn5 2.161064 1_555
O71 P4 1.556240 1_555
O71 Zn5 2.234243 1_555
