# generated using pymatgen
data_Na3YZrSi2SO12
_symmetry_space_group_name_H-M   'P 1'
_cell_length_a   9.36478879
_cell_length_b   9.36478845
_cell_length_c   23.02242957
_cell_angle_alpha   89.37215261
_cell_angle_beta   90.62784745
_cell_angle_gamma   120.19002178
_symmetry_Int_Tables_number   1
_chemical_formula_structural   Na3YZrSi2SO12
_chemical_formula_sum   'Na18 Y6 Zr6 Si12 S6 O72'
_cell_volume   1745.05159714
_cell_formula_units_Z   6
loop_
 _symmetry_equiv_pos_site_id
 _symmetry_equiv_pos_as_xyz
  1  'x, y, z'
loop_
 _atom_site_type_symbol
 _atom_site_label
 _atom_site_symmetry_multiplicity
 _atom_site_fract_x
 _atom_site_fract_y
 _atom_site_fract_z
 _atom_site_occupancy
  Na  Na0  1  0.63110312  0.99604832  0.23990812  1
  Na  Na1  1  0.99360686  0.64543808  0.24393604  1
  Na  Na2  1  0.00395168  0.36889688  0.73990812  1
  Na  Na3  1  0.35456192  0.00639314  0.74393604  1
  Na  Na4  1  0.29777012  0.32938132  0.57324112  1
  Na  Na5  1  0.66027386  0.97877108  0.57726904  1
  Na  Na6  1  0.67061868  0.70222988  0.07324112  1
  Na  Na7  1  0.02122892  0.33972614  0.07726904  1
  Na  Na8  1  0.96443612  0.66271532  0.90657512  1
  Na  Na9  1  0.32693986  0.31210508  0.91060304  1
  Na  Na10  1  0.33728468  0.03556388  0.40657512  1
  Na  Na11  1  0.68789492  0.67306014  0.41060304  1
  Na  Na12  1  0.00547998  0.04009813  0.49493392  1
  Na  Na13  1  0.95990187  0.99452002  0.99493392  1
  Na  Na14  1  0.67214698  0.37343113  0.82826692  1
  Na  Na15  1  0.62656887  0.32785302  0.32826692  1
  Na  Na16  1  0.33881298  0.70676513  0.16160092  1
  Na  Na17  1  0.29323487  0.66118702  0.66160092  1
  Y  Y0  1  0.00782090  0.01346112  0.35110630  1
  Y  Y1  1  0.98653888  0.99217910  0.85110630  1
  Y  Y2  1  0.67448790  0.34679412  0.68443930  1
  Y  Y3  1  0.65320588  0.32551210  0.18443930  1
  Y  Y4  1  0.34115390  0.68012812  0.01777330  1
  Y  Y5  1  0.31987188  0.65884610  0.51777330  1
  Zr  Zr0  1  0.01945045  0.00260579  0.64791508  1
  Zr  Zr1  1  0.99739421  0.98054955  0.14791508  1
  Zr  Zr2  1  0.68611745  0.33593879  0.98124808  1
  Zr  Zr3  1  0.66406121  0.31388255  0.48124808  1
  Zr  Zr4  1  0.35278345  0.66927279  0.31458208  1
  Zr  Zr5  1  0.33072721  0.64721655  0.81458208  1
  Si  Si0  1  0.29685973  0.99024143  0.25544841  1
  Si  Si1  1  0.70367275  0.70153092  0.25289327  1
  Si  Si2  1  0.29846908  0.29632725  0.75289327  1
  Si  Si3  1  0.00975857  0.70314027  0.75544841  1
  Si  Si4  1  0.96352673  0.32357443  0.58878141  1
  Si  Si5  1  0.37033975  0.03486392  0.58622627  1
  Si  Si6  1  0.96513608  0.62966025  0.08622627  1
  Si  Si7  1  0.67642557  0.03647327  0.08878141  1
  Si  Si8  1  0.63019273  0.65690843  0.92211541  1
  Si  Si9  1  0.03700575  0.36819792  0.91956027  1
  Si  Si10  1  0.63180208  0.96299425  0.41956027  1
  Si  Si11  1  0.34309157  0.36980727  0.42211541  1
  S  S0  1  0.00855754  0.30552972  0.24637950  1
  S  S1  1  0.69447028  0.99144246  0.74637950  1
  S  S2  1  0.67522454  0.63886272  0.57971250  1
  S  S3  1  0.36113728  0.32477546  0.07971250  1
  S  S4  1  0.34189054  0.97219672  0.91304650  1
  S  S5  1  0.02780328  0.65810946  0.41304650  1
  O  O0  1  0.22090085  0.00928884  0.31567933  1
  O  O1  1  0.80875010  0.79225704  0.31063716  1
  O  O2  1  0.98846246  0.20189336  0.29798476  1
  O  O3  1  0.20774296  0.19124990  0.81063716  1
  O  O4  1  0.99071116  0.77909915  0.81567933  1
  O  O5  1  0.79810664  0.01153754  0.79798476  1
  O  O6  1  0.77295921  0.97354548  0.69315477  1
  O  O7  1  0.17655245  0.20045804  0.69512613  1
  O  O8  1  0.01955834  0.82746735  0.70052904  1
  O  O9  1  0.79954196  0.82344755  0.19512613  1
  O  O10  1  0.02645452  0.22704079  0.19315477  1
  O  O11  1  0.17253265  0.98044166  0.20052904  1
  O  O12  1  0.88756785  0.34262184  0.64901233  1
  O  O13  1  0.47541710  0.12559004  0.64397016  1
  O  O14  1  0.65512946  0.53522636  0.63131776  1
  O  O15  1  0.87440996  0.52458290  0.14397016  1
  O  O16  1  0.65737816  0.11243215  0.14901233  1
  O  O17  1  0.46477364  0.34487054  0.13131776  1
  O  O18  1  0.43962621  0.30687848  0.02648777  1
  O  O19  1  0.84321945  0.53379104  0.02845913  1
  O  O20  1  0.68622534  0.16080035  0.03386204  1
  O  O21  1  0.46620896  0.15678055  0.52845913  1
  O  O22  1  0.69312152  0.56037379  0.52648777  1
  O  O23  1  0.83919965  0.31377466  0.53386204  1
  O  O24  1  0.55423385  0.67595584  0.98234633  1
  O  O25  1  0.14208310  0.45892404  0.97730416  1
  O  O26  1  0.32179546  0.86856036  0.96465176  1
  O  O27  1  0.54107596  0.85791690  0.47730416  1
  O  O28  1  0.32404416  0.44576615  0.48234633  1
  O  O29  1  0.13143964  0.67820454  0.46465176  1
  O  O30  1  0.10629221  0.64021248  0.35982177  1
  O  O31  1  0.50988545  0.86712504  0.36179313  1
  O  O32  1  0.35289134  0.49413435  0.36719604  1
  O  O33  1  0.13287496  0.49011455  0.86179313  1
  O  O34  1  0.35978752  0.89370779  0.85982177  1
  O  O35  1  0.50586565  0.64710866  0.86719604  1
  O  O36  1  0.01115946  0.80773190  0.41108715  1
  O  O37  1  0.81123093  0.97707355  0.41512770  1
  O  O38  1  0.19529979  0.17811269  0.41680533  1
  O  O39  1  0.02292645  0.18876907  0.91512770  1
  O  O40  1  0.19226810  0.98884054  0.91108715  1
  O  O41  1  0.82188731  0.80470021  0.91680533  1
  O  O42  1  0.95742617  0.14165903  0.58772070  1
  O  O43  1  0.18907371  0.02874007  0.58779728  1
  O  O44  1  0.82200726  0.80675123  0.58583001  1
  O  O45  1  0.97125993  0.81092629  0.08779728  1
  O  O46  1  0.85834097  0.04257383  0.08772070  1
  O  O47  1  0.19324877  0.17799274  0.08583001  1
  O  O48  1  0.67782646  0.14106490  0.74442015  1
  O  O49  1  0.47789793  0.31040655  0.74846070  1
  O  O50  1  0.86196679  0.51144569  0.75013833  1
  O  O51  1  0.68959345  0.52210207  0.24846070  1
  O  O52  1  0.85893510  0.32217354  0.24442015  1
  O  O53  1  0.48855431  0.13803321  0.25013833  1
  O  O54  1  0.62409317  0.47499203  0.92105370  1
  O  O55  1  0.85574071  0.36207307  0.92113028  1
  O  O56  1  0.48867426  0.14008423  0.91916301  1
  O  O57  1  0.63792693  0.14425929  0.42113028  1
  O  O58  1  0.52500797  0.37590683  0.42105370  1
  O  O59  1  0.85991577  0.51132574  0.41916301  1
  O  O60  1  0.34449246  0.47439890  0.07775415  1
  O  O61  1  0.14456393  0.64374055  0.08179470  1
  O  O62  1  0.52863279  0.84477969  0.08347233  1
  O  O63  1  0.35625945  0.85543607  0.58179470  1
  O  O64  1  0.52560110  0.65550754  0.57775415  1
  O  O65  1  0.15522031  0.47136721  0.58347233  1
  O  O66  1  0.29075917  0.80832603  0.25438770  1
  O  O67  1  0.52240671  0.69540707  0.25446428  1
  O  O68  1  0.15534026  0.47341823  0.25249701  1
  O  O69  1  0.30459293  0.47759329  0.75446428  1
  O  O70  1  0.19167397  0.70924083  0.75438770  1
  O  O71  1  0.52658177  0.84465974  0.75249701  1
loop_
_geom_bond_atom_site_label_1
_geom_bond_atom_site_label_2
_geom_bond_distance
_geom_bond_site_symmetry_2
Na0 O16 2.306334 1_565
Na0 O53 2.324754 1_565
Na0 O67 2.485887 1_555
Na0 O52 2.709061 1_565
Na0 O66 2.781248 1_555
Na0 O9 2.966515 1_555
Na0 O31 3.039340 1_555
Na1 O66 2.419240 1_655
Na1 O51 2.479331 1_555
Na1 O15 2.560046 1_555
Na1 O52 2.629630 1_555
Na1 O68 2.714473 1_655
Na1 O30 2.867306 1_655
Na1 O11 2.886110 1_655
Na2 O12 2.306334 1_455
Na2 O50 2.324754 1_455
Na2 O69 2.485887 1_555
Na2 O48 2.709061 1_455
Na2 O70 2.781248 1_555
Na2 O7 2.966515 1_555
Na2 O33 3.039340 1_555
Na3 O70 2.419240 1_545
Na3 O49 2.479330 1_555
Na3 O13 2.560046 1_555
Na3 O48 2.629630 1_555
Na3 O71 2.714473 1_545
Na3 O34 2.867306 1_545
Na3 O8 2.886110 1_545
Na4 O28 2.306318 1_555
Na4 O65 2.324773 1_555
Na4 O43 2.485887 1_555
Na4 O64 2.709067 1_555
Na4 O42 2.781248 1_455
Na4 O21 2.966515 1_555
Na4 O7 3.039340 1_555
Na5 O42 2.419240 1_565
Na5 O63 2.479341 1_555
Na5 O27 2.560025 1_555
Na5 O64 2.629621 1_555
Na5 O44 2.714473 1_555
Na5 O6 2.867306 1_555
Na5 O23 2.886110 1_565
Na6 O24 2.306318 1_554
Na6 O62 2.324773 1_555
Na6 O45 2.485887 1_555
Na6 O60 2.709067 1_555
Na6 O46 2.781248 1_565
Na6 O19 2.966515 1_555
Na6 O9 3.039340 1_555
Na7 O46 2.419240 1_455
Na7 O61 2.479341 1_555
Na7 O25 2.560025 1_554
Na7 O60 2.629621 1_555
Na7 O47 2.714473 1_555
Na7 O10 2.867306 1_555
Na7 O20 2.886110 1_455
Na8 O4 2.306334 1_555
Na8 O41 2.324754 1_555
Na8 O55 2.485894 1_555
Na8 O40 2.709061 1_655
Na8 O54 2.781238 1_555
Na8 O33 2.966515 1_655
Na8 O19 3.039318 1_556
Na9 O54 2.419245 1_555
Na9 O39 2.479331 1_555
Na9 O3 2.560046 1_555
Na9 O40 2.629630 1_545
Na9 O56 2.714488 1_555
Na9 O18 2.867290 1_556
Na9 O35 2.886110 1_555
Na10 O0 2.306334 1_555
Na10 O38 2.324754 1_555
Na10 O57 2.485895 1_555
Na10 O36 2.709061 1_545
Na10 O58 2.781238 1_555
Na10 O31 2.966515 1_545
Na10 O21 3.039318 1_555
Na11 O58 2.419245 1_555
Na11 O37 2.479330 1_555
Na11 O1 2.560046 1_555
Na11 O36 2.629630 1_655
Na11 O59 2.714488 1_555
Na11 O22 2.867290 1_555
Na11 O32 2.886110 1_555
Na12 O38 2.402956 1_555
Na12 O37 2.429809 1_445
Na12 O42 2.483225 1_455
Na12 O43 2.763428 1_555
Na12 O44 2.882535 1_445
Na12 O36 2.945345 1_545
Na13 O41 2.402956 1_555
Na13 O39 2.429809 1_665
Na13 O46 2.483225 1_566
Na13 O45 2.763428 1_556
Na13 O47 2.882535 1_666
Na13 O40 2.945345 1_655
Na14 O50 2.402956 1_555
Na14 O49 2.429809 1_555
Na14 O54 2.483225 1_555
Na14 O55 2.763428 1_555
Na14 O56 2.882535 1_555
Na14 O48 2.945345 1_555
Na15 O53 2.402956 1_555
Na15 O51 2.429809 1_555
Na15 O58 2.483225 1_555
Na15 O57 2.763428 1_555
Na15 O59 2.882535 1_555
Na15 O52 2.945345 1_555
Na16 O62 2.402956 1_555
Na16 O61 2.429809 1_555
Na16 O66 2.483225 1_555
Na16 O67 2.763428 1_555
Na16 O68 2.882535 1_555
Na16 O60 2.945345 1_555
Na17 O65 2.402956 1_555
Na17 O63 2.429809 1_555
Na17 O70 2.483225 1_555
Na17 O69 2.763428 1_555
Na17 O71 2.882535 1_555
Na17 O64 2.945345 1_555
O0 Si0 1.617190 1_545
O0 Y0 2.182510 1_555
O1 Si1 1.616393 1_555
O1 Y0 2.180586 1_665
O2 S0 1.478113 1_655
O2 Y0 2.216317 1_655
O3 Si2 1.616393 1_555
O3 Y1 2.180586 1_445
O4 Si3 1.617190 1_655
O4 Y1 2.182510 1_555
O5 S1 1.478113 1_545
O5 Y1 2.216317 1_545
O6 S1 1.489300 1_555
O6 Zr0 2.429391 1_665
O7 Si2 1.685314 1_555
O7 Zr0 2.011570 1_555
O8 Si3 1.680915 1_555
O8 Zr0 2.028643 1_565
O9 Si1 1.685314 1_555
O9 Zr1 2.011570 1_555
O10 S0 1.489300 1_555
O10 Zr1 2.429391 1_445
O11 Si0 1.680915 1_555
O11 Zr1 2.028643 1_455
O12 Si4 1.617190 1_555
O12 Y2 2.182510 1_555
O13 Si5 1.616393 1_555
O13 Y2 2.180586 1_555
O14 S2 1.478113 1_555
O14 Y2 2.216317 1_555
O15 Si6 1.616393 1_555
O15 Y3 2.180586 1_555
O16 Si7 1.617190 1_555
O16 Y3 2.182510 1_555
O17 S3 1.478113 1_555
O17 Y3 2.216317 1_555
O18 S3 1.489300 1_555
O18 Zr2 2.429391 1_554
O19 Si6 1.685314 1_555
O19 Zr2 2.011570 1_554
O20 Si7 1.680915 1_555
O20 Zr2 2.028643 1_554
O21 Si5 1.685314 1_555
O21 Zr3 2.011570 1_555
O22 S2 1.489300 1_555
O22 Zr3 2.429391 1_555
O23 Si4 1.680915 1_555
O23 Zr3 2.028643 1_555
O24 Si8 1.617190 1_555
O24 Y4 2.182510 1_556
O25 Si9 1.616393 1_555
O25 Y4 2.180586 1_556
O26 S4 1.478113 1_555
O26 Y4 2.216317 1_556
O27 Si10 1.616393 1_555
O27 Y5 2.180586 1_555
O28 Si11 1.617190 1_555
O28 Y5 2.182510 1_555
O29 S5 1.478113 1_555
O29 Y5 2.216317 1_555
O30 S5 1.489300 1_555
O30 Zr4 2.429391 1_555
O31 Si10 1.685314 1_555
O31 Zr4 2.011570 1_555
O32 Si11 1.680915 1_555
O32 Zr4 2.028643 1_555
O33 Si9 1.685314 1_555
O33 Zr5 2.011570 1_555
O34 S4 1.489300 1_555
O34 Zr5 2.429391 1_555
O35 Si8 1.680915 1_555
O35 Zr5 2.028643 1_555
O36 S5 1.485851 1_555
O36 Y0 2.370872 1_565
O37 Si10 1.622311 1_555
O37 Y0 2.257313 1_665
O38 Si11 1.629547 1_555
O38 Y0 2.240100 1_555
O39 Si9 1.622311 1_555
O39 Y1 2.257313 1_445
O40 S4 1.485851 1_555
O40 Y1 2.370872 1_455
O41 Si8 1.629547 1_555
O41 Y1 2.240100 1_555
O42 Si4 1.676039 1_555
O42 Zr0 2.158042 1_655
O43 Si5 1.670196 1_555
O43 Zr0 2.036802 1_555
O44 S2 1.486033 1_555
O44 Zr0 2.326946 1_665
O45 Si6 1.670196 1_555
O45 Zr1 2.036802 1_555
O46 Si7 1.676039 1_555
O46 Zr1 2.158042 1_545
O47 S3 1.486033 1_555
O47 Zr1 2.326946 1_445
O48 S1 1.485851 1_545
O48 Y2 2.370872 1_555
O49 Si2 1.622311 1_555
O49 Y2 2.257313 1_555
O50 Si3 1.629547 1_655
O50 Y2 2.240100 1_555
O51 Si1 1.622311 1_555
O51 Y3 2.257313 1_555
O52 S0 1.485851 1_655
O52 Y3 2.370872 1_555
O53 Si0 1.629547 1_545
O53 Y3 2.240100 1_555
O54 Si8 1.676053 1_555
O54 Zr2 2.158042 1_555
O55 Si9 1.670182 1_655
O55 Zr2 2.036802 1_555
O56 S4 1.486029 1_545
O56 Zr2 2.326946 1_555
O57 Si10 1.670182 1_545
O57 Zr3 2.036802 1_555
O58 Si11 1.676053 1_555
O58 Zr3 2.158042 1_555
O59 S5 1.486029 1_655
O59 Zr3 2.326946 1_555
O60 S3 1.485865 1_555
O60 Y4 2.370872 1_555
O61 Si6 1.622296 1_455
O61 Y4 2.257313 1_555
O62 Si7 1.629541 1_565
O62 Y4 2.240100 1_555
O63 Si5 1.622296 1_565
O63 Y5 2.257313 1_555
O64 S2 1.485865 1_555
O64 Y5 2.370872 1_555
O65 Si4 1.629541 1_455
O65 Y5 2.240100 1_555
O66 Si0 1.676039 1_555
O66 Zr4 2.158042 1_555
O67 Si1 1.670196 1_555
O67 Zr4 2.036802 1_555
O68 S0 1.486033 1_555
O68 Zr4 2.326946 1_555
O69 Si2 1.670196 1_555
O69 Zr5 2.036802 1_555
O70 Si3 1.676039 1_555
O70 Zr5 2.158042 1_555
O71 S1 1.486033 1_555
O71 Zr5 2.326946 1_555
