# generated using pymatgen
data_Sb8(PbS5)3
_symmetry_space_group_name_H-M   'P 1'
_cell_length_a   8.98643290
_cell_length_b   8.98643290
_cell_length_c   17.68727186
_cell_angle_alpha   85.94868460
_cell_angle_beta   85.94868460
_cell_angle_gamma   82.25500785
_symmetry_Int_Tables_number   1
_chemical_formula_structural   Sb8(PbS5)3
_chemical_formula_sum   'Sb16 Pb6 S30'
_cell_volume   1409.08378066
_cell_formula_units_Z   2
loop_
 _symmetry_equiv_pos_site_id
 _symmetry_equiv_pos_as_xyz
  1  'x, y, z'
loop_
 _atom_site_type_symbol
 _atom_site_label
 _atom_site_symmetry_multiplicity
 _atom_site_fract_x
 _atom_site_fract_y
 _atom_site_fract_z
 _atom_site_occupancy
  Sb  Sb0  1  0.14080461  0.03512324  0.07677537  1
  Sb  Sb1  1  0.96487676  0.85919539  0.42322463  1
  Sb  Sb2  1  0.85919539  0.96487676  0.92322463  1
  Sb  Sb3  1  0.03512324  0.14080461  0.57677537  1
  Sb  Sb4  1  0.39376459  0.88366171  0.43654180  1
  Sb  Sb5  1  0.11633829  0.60623541  0.06345820  1
  Sb  Sb6  1  0.60623541  0.11633829  0.56345820  1
  Sb  Sb7  1  0.88366171  0.39376459  0.93654180  1
  Sb  Sb8  1  0.50539963  0.23608665  0.00158752  1
  Sb  Sb9  1  0.76391335  0.49460037  0.49841248  1
  Sb  Sb10  1  0.49460037  0.76391335  0.99841248  1
  Sb  Sb11  1  0.23608665  0.50539963  0.50158752  1
  Sb  Sb12  1  0.58903935  0.22306003  0.34215498  1
  Sb  Sb13  1  0.77693997  0.41096065  0.15784502  1
  Sb  Sb14  1  0.41096065  0.77693997  0.65784502  1
  Sb  Sb15  1  0.22306003  0.58903935  0.84215498  1
  Pb  Pb0  1  0.73741408  0.88107864  0.16363834  1
  Pb  Pb1  1  0.11892136  0.26258592  0.33636166  1
  Pb  Pb2  1  0.26258592  0.11892136  0.83636166  1
  Pb  Pb3  1  0.88107864  0.73741408  0.66363834  1
  Pb  Pb4  1  0.37841755  0.62158245  0.25000000  1
  Pb  Pb5  1  0.62158245  0.37841755  0.75000000  1
  S  S0  1  0.81551282  0.18448718  0.25000000  1
  S  S1  1  0.18448718  0.81551282  0.75000000  1
  S  S2  1  0.19794356  0.93578198  0.34122009  1
  S  S3  1  0.06421802  0.80205644  0.15877991  1
  S  S4  1  0.80205644  0.06421802  0.65877991  1
  S  S5  1  0.93578198  0.19794356  0.84122009  1
  S  S6  1  0.83263234  0.10514457  0.03741101  1
  S  S7  1  0.89485543  0.16736766  0.46258899  1
  S  S8  1  0.16736766  0.89485543  0.96258899  1
  S  S9  1  0.10514457  0.83263234  0.53741101  1
  S  S10  1  0.42709359  0.94526189  0.09899370  1
  S  S11  1  0.05473811  0.57290641  0.40100630  1
  S  S12  1  0.57290641  0.05473811  0.90100630  1
  S  S13  1  0.94526189  0.42709359  0.59899370  1
  S  S14  1  0.44658540  0.61049027  0.41381220  1
  S  S15  1  0.38950973  0.55341460  0.08618780  1
  S  S16  1  0.55341460  0.38950973  0.58618780  1
  S  S17  1  0.61049027  0.44658540  0.91381220  1
  S  S18  1  0.59005728  0.94784753  0.33670554  1
  S  S19  1  0.05215247  0.40994272  0.16329446  1
  S  S20  1  0.40994272  0.05215247  0.66329446  1
  S  S21  1  0.94784753  0.59005728  0.83670554  1
  S  S22  1  0.24115158  0.29116742  0.96374920  1
  S  S23  1  0.70883258  0.75884842  0.53625080  1
  S  S24  1  0.75884842  0.70883258  0.03625080  1
  S  S25  1  0.29116742  0.24115158  0.46374920  1
  S  S26  1  0.30767857  0.40381436  0.74937944  1
  S  S27  1  0.59618564  0.69232143  0.75062056  1
  S  S28  1  0.69232143  0.59618564  0.25062056  1
  S  S29  1  0.40381436  0.30767857  0.24937944  1
loop_
_geom_bond_atom_site_label_1
_geom_bond_atom_site_label_2
_geom_bond_distance
_geom_bond_site_symmetry_2
Pb0 S24 2.803706 1_555
Pb0 S3 2.923582 1_655
Pb0 S28 2.953063 1_555
Pb0 S6 3.054568 1_565
Pb0 S10 3.056230 1_555
Pb1 S25 2.803706 1_555
Pb1 S2 2.923582 1_545
Pb1 S29 2.953063 1_555
Pb1 S7 3.054568 1_455
Pb1 S11 3.056230 1_555
Pb2 S22 2.803706 1_555
Pb2 S5 2.923582 1_455
Pb2 S26 2.953063 1_555
Pb2 S8 3.054568 1_545
Pb2 S12 3.056230 1_555
Pb3 S23 2.803706 1_555
Pb3 S4 2.923582 1_565
Pb3 S27 2.953063 1_555
Pb3 S9 3.054568 1_655
Pb3 S13 3.056230 1_555
Pb4 S28 2.800009 1_555
Pb4 S29 2.800009 1_555
Pb4 S14 2.995596 1_555
Pb4 S15 2.995596 1_555
Pb5 S26 2.800009 1_555
Pb5 S27 2.800009 1_555
Pb5 S17 2.995596 1_555
Pb5 S16 2.995596 1_555
S0 Sb13 2.517917 1_555
S0 Sb12 2.517917 1_555
S1 Sb14 2.517917 1_555
S1 Sb15 2.517917 1_555
S2 Sb4 2.498811 1_555
S2 Sb1 2.604292 1_455
S3 Sb5 2.498811 1_555
S3 Sb0 2.604292 1_565
S4 Sb6 2.498811 1_555
S4 Sb3 2.604292 1_655
S5 Sb7 2.498811 1_555
S5 Sb2 2.604292 1_545
S6 Sb2 2.436252 1_544
S6 Sb0 2.879406 1_655
S6 Sb8 3.107867 1_555
S6 Sb7 3.109908 1_554
S7 Sb3 2.436252 1_655
S7 Sb1 2.879406 1_545
S7 Sb9 3.107867 1_555
S7 Sb6 3.109908 1_555
S8 Sb0 2.436252 1_566
S8 Sb2 2.879406 1_455
S8 Sb10 3.107867 1_555
S8 Sb5 3.109908 1_556
S9 Sb1 2.436252 1_455
S9 Sb3 2.879406 1_565
S9 Sb11 3.107867 1_555
S9 Sb4 3.109908 1_555
S10 Sb10 2.485846 1_554
S10 Sb0 2.638839 1_565
S10 Sb8 3.159401 1_565
S11 Sb11 2.485846 1_555
S11 Sb1 2.638839 1_455
S11 Sb9 3.159401 1_455
S12 Sb8 2.485846 1_556
S12 Sb2 2.638839 1_545
S12 Sb10 3.159401 1_545
S13 Sb9 2.485846 1_555
S13 Sb3 2.638839 1_655
S13 Sb11 3.159401 1_655
S14 Sb4 2.492304 1_555
S14 Sb11 2.596109 1_555
S15 Sb5 2.492304 1_555
S15 Sb10 2.596109 1_554
S16 Sb6 2.492304 1_555
S16 Sb9 2.596109 1_555
S17 Sb7 2.492304 1_555
S17 Sb8 2.596109 1_556
S18 Sb12 2.480614 1_565
S18 Sb4 2.500528 1_555
S19 Sb13 2.480614 1_455
S19 Sb5 2.500528 1_555
S20 Sb14 2.480614 1_545
S20 Sb6 2.500528 1_555
S21 Sb15 2.480614 1_655
S21 Sb7 2.500528 1_555
S22 Sb8 2.488535 1_556
S22 Sb0 3.123857 1_556
S23 Sb9 2.488535 1_555
S23 Sb1 3.123857 1_555
S24 Sb10 2.488535 1_554
S24 Sb2 3.123857 1_554
S25 Sb11 2.488535 1_555
S25 Sb3 3.123857 1_555
S26 Sb15 2.431053 1_555
S27 Sb14 2.431053 1_555
S28 Sb13 2.431053 1_555
S29 Sb12 2.431053 1_555
