# generated using pymatgen
data_FeP2O7
_symmetry_space_group_name_H-M   'P 1'
_cell_length_a   8.16106200
_cell_length_b   7.41294000
_cell_length_c   9.62341604
_cell_angle_alpha   69.36222400
_cell_angle_beta   90.00000000
_cell_angle_gamma   90.00000000
_symmetry_Int_Tables_number   1
_chemical_formula_structural   FeP2O7
_chemical_formula_sum   'Fe4 P8 O28'
_cell_volume   544.83143962
_cell_formula_units_Z   4
loop_
 _symmetry_equiv_pos_site_id
 _symmetry_equiv_pos_as_xyz
  1  'x, y, z'
loop_
 _atom_site_type_symbol
 _atom_site_label
 _atom_site_symmetry_multiplicity
 _atom_site_fract_x
 _atom_site_fract_y
 _atom_site_fract_z
 _atom_site_occupancy
  Fe  Fe0  1  0.50751800  0.73135400  0.75002500  1
  Fe  Fe1  1  0.00751800  0.26864600  0.74997500  1
  Fe  Fe2  1  0.49248200  0.26864600  0.24997500  1
  Fe  Fe3  1  0.99248200  0.73135400  0.25002500  1
  P  P0  1  0.26020100  0.07143000  0.55240200  1
  P  P1  1  0.70355500  0.32145500  0.94780400  1
  P  P2  1  0.73979900  0.92857000  0.44759800  1
  P  P3  1  0.29644500  0.67854500  0.05219600  1
  P  P4  1  0.20355500  0.67854500  0.55219600  1
  P  P5  1  0.76020100  0.92857000  0.94759800  1
  P  P6  1  0.23979900  0.07143000  0.05240200  1
  P  P7  1  0.79644500  0.32145500  0.44780400  1
  O  O0  1  0.91823000  0.45891600  0.34308700  1
  O  O1  1  0.35417400  0.19351900  0.10690200  1
  O  O2  1  0.38084600  0.64509600  0.60473200  1
  O  O3  1  0.11915400  0.64509600  0.10473200  1
  O  O4  1  0.18556700  0.67968300  0.39355000  1
  O  O5  1  0.31443300  0.67968300  0.89355000  1
  O  O6  1  0.14582600  0.19351900  0.60690200  1
  O  O7  1  0.34853000  0.88957600  0.05173100  1
  O  O8  1  0.19354200  0.18546400  0.89174400  1
  O  O9  1  0.09137300  0.99692600  0.15348800  1
  O  O10  1  0.68556700  0.32031700  0.10645000  1
  O  O11  1  0.85417400  0.80648100  0.39309800  1
  O  O12  1  0.64582600  0.80648100  0.89309800  1
  O  O13  1  0.41823000  0.54108400  0.15691300  1
  O  O14  1  0.81443300  0.32031700  0.60645000  1
  O  O15  1  0.58177000  0.45891600  0.84308700  1
  O  O16  1  0.84853000  0.11042400  0.44826900  1
  O  O17  1  0.61915400  0.35490400  0.39526800  1
  O  O18  1  0.08177000  0.54108400  0.65691300  1
  O  O19  1  0.40862700  0.99692600  0.65348800  1
  O  O20  1  0.88084600  0.35490400  0.89526800  1
  O  O21  1  0.80645800  0.81453600  0.10825600  1
  O  O22  1  0.59137300  0.00307400  0.34651200  1
  O  O23  1  0.69354200  0.81453600  0.60825600  1
  O  O24  1  0.30645800  0.18546400  0.39174400  1
  O  O25  1  0.90862700  0.00307400  0.84651200  1
  O  O26  1  0.15147000  0.88957600  0.55173100  1
  O  O27  1  0.65147000  0.11042400  0.94826900  1
loop_
_geom_bond_atom_site_label_1
_geom_bond_atom_site_label_2
_geom_bond_distance
_geom_bond_site_symmetry_2
Fe0 O23 1.988294 1_555
Fe0 O15 1.993224 1_555
Fe0 O12 2.005104 1_555
Fe0 O2 2.015639 1_555
Fe0 O19 2.025050 1_555
Fe0 O5 2.040729 1_555
Fe1 O8 1.988294 1_555
Fe1 O18 1.993224 1_555
Fe1 O6 2.005104 1_555
Fe1 O20 2.015639 1_455
Fe1 O25 2.025050 1_455
Fe1 O14 2.040729 1_455
Fe2 O24 1.988294 1_555
Fe2 O13 1.993224 1_555
Fe2 O1 2.005104 1_555
Fe2 O17 2.015639 1_555
Fe2 O22 2.025050 1_555
Fe2 O10 2.040729 1_555
Fe3 O21 1.988294 1_555
Fe3 O0 1.993224 1_555
Fe3 O11 2.005104 1_555
Fe3 O3 2.015639 1_655
Fe3 O9 2.025050 1_655
Fe3 O4 2.040729 1_655
O0 P7 1.522445 1_555
O1 P6 1.516591 1_555
O2 P4 1.523873 1_555
O3 P3 1.523873 1_555
O4 P4 1.530819 1_555
O5 P3 1.530819 1_556
O6 P0 1.516591 1_555
O7 P6 1.615824 1_565
O7 P3 1.619565 1_555
O8 P6 1.525176 1_556
O9 P6 1.529675 1_565
O10 P1 1.530819 1_554
O11 P2 1.516591 1_555
O12 P5 1.516591 1_555
O13 P3 1.522445 1_555
O14 P7 1.530819 1_555
O15 P1 1.522445 1_555
O16 P2 1.615824 1_545
O16 P7 1.619565 1_555
O17 P7 1.523873 1_555
O18 P4 1.522445 1_555
O19 P0 1.529675 1_565
O20 P1 1.523873 1_555
O21 P5 1.525176 1_554
O22 P2 1.529675 1_545
O23 P2 1.525176 1_555
O24 P0 1.525176 1_555
O25 P5 1.529675 1_545
O26 P0 1.615824 1_565
O26 P4 1.619565 1_555
O27 P5 1.615824 1_545
O27 P1 1.619565 1_555
