# generated using pymatgen
data_MnP2O7
_symmetry_space_group_name_H-M   'P 1'
_cell_length_a   4.80143008
_cell_length_b   8.27690433
_cell_length_c   13.33116911
_cell_angle_alpha   65.77359858
_cell_angle_beta   90.00000000
_cell_angle_gamma   90.00000000
_symmetry_Int_Tables_number   1
_chemical_formula_structural   MnP2O7
_chemical_formula_sum   'Mn4 P8 O28'
_cell_volume   483.13535913
_cell_formula_units_Z   4
loop_
 _symmetry_equiv_pos_site_id
 _symmetry_equiv_pos_as_xyz
  1  'x, y, z'
loop_
 _atom_site_type_symbol
 _atom_site_label
 _atom_site_symmetry_multiplicity
 _atom_site_fract_x
 _atom_site_fract_y
 _atom_site_fract_z
 _atom_site_occupancy
  Mn  Mn0  1  0.24904841  0.74224214  0.51320817  1
  Mn  Mn1  1  0.74904841  0.25775786  0.98679183  1
  Mn  Mn2  1  0.25095159  0.74224214  0.01320817  1
  Mn  Mn3  1  0.75095159  0.25775786  0.48679183  1
  P  P0  1  0.74930270  0.84077362  0.62848267  1
  P  P1  1  0.25339229  0.32706705  0.11838031  1
  P  P2  1  0.24930270  0.15922638  0.87151733  1
  P  P3  1  0.24660771  0.32706705  0.61838031  1
  P  P4  1  0.75339229  0.67293295  0.38161969  1
  P  P5  1  0.75069730  0.84077362  0.12848267  1
  P  P6  1  0.74660771  0.67293295  0.88161969  1
  P  P7  1  0.25069730  0.15922638  0.37151733  1
  O  O0  1  0.44376924  0.82377064  0.60525599  1
  O  O1  1  0.93595916  0.71216104  0.60509877  1
  O  O2  1  0.85588713  0.49225647  0.89724575  1
  O  O3  1  0.55504706  0.33382163  0.08273669  1
  O  O4  1  0.23922811  0.20662773  0.24482363  1
  O  O5  1  0.13916604  0.97188686  0.42218196  1
  O  O6  1  0.07068016  0.22756422  0.07030272  1
  O  O7  1  0.35588713  0.50774353  0.60275425  1
  O  O8  1  0.43595916  0.28783896  0.89490123  1
  O  O9  1  0.94376924  0.17622936  0.89474401  1
  O  O10  1  0.57068016  0.77243578  0.42969728  1
  O  O11  1  0.63916604  0.02811314  0.07781804  1
  O  O12  1  0.73922811  0.79337227  0.25517637  1
  O  O13  1  0.94495294  0.33382163  0.58273669  1
  O  O14  1  0.05504706  0.66617837  0.41726331  1
  O  O15  1  0.26077189  0.20662773  0.74482363  1
  O  O16  1  0.36083396  0.97188686  0.92218196  1
  O  O17  1  0.42931984  0.22756422  0.57030272  1
  O  O18  1  0.05623076  0.82377064  0.10525599  1
  O  O19  1  0.56404084  0.71216104  0.10509877  1
  O  O20  1  0.64411287  0.49225647  0.39724575  1
  O  O21  1  0.92931984  0.77243578  0.92969728  1
  O  O22  1  0.86083396  0.02811314  0.57781804  1
  O  O23  1  0.76077189  0.79337227  0.75517637  1
  O  O24  1  0.44495294  0.66617837  0.91726331  1
  O  O25  1  0.14411287  0.50774353  0.10275425  1
  O  O26  1  0.06404084  0.28783896  0.39490123  1
  O  O27  1  0.55623076  0.17622936  0.39474401  1
loop_
_geom_bond_atom_site_label_1
_geom_bond_atom_site_label_2
_geom_bond_distance
_geom_bond_site_symmetry_2
Mn0 O10 1.859675 1_555
Mn0 O5 1.863009 1_555
Mn0 O0 1.874788 1_555
Mn0 O7 1.885168 1_555
Mn0 O14 1.887028 1_555
Mn0 O1 1.890018 1_455
Mn1 O6 1.859675 1_656
Mn1 O11 1.863009 1_556
Mn1 O9 1.874788 1_555
Mn1 O2 1.885168 1_555
Mn1 O3 1.887028 1_556
Mn1 O8 1.890018 1_555
Mn2 O21 1.859675 1_454
Mn2 O16 1.863009 1_554
Mn2 O18 1.874788 1_555
Mn2 O25 1.885168 1_555
Mn2 O24 1.887028 1_554
Mn2 O19 1.890018 1_555
Mn3 O17 1.859675 1_555
Mn3 O22 1.863009 1_555
Mn3 O27 1.874788 1_555
Mn3 O20 1.885168 1_555
Mn3 O13 1.887028 1_555
Mn3 O26 1.890018 1_655
O0 P0 1.517737 1_555
O1 P0 1.518525 1_555
O2 P6 1.516373 1_555
O3 P1 1.518190 1_555
O4 P1 1.568660 1_555
O4 P7 1.570278 1_555
O5 P7 1.512544 1_565
O6 P1 1.513899 1_555
O7 P3 1.516373 1_555
O8 P2 1.518525 1_555
O9 P2 1.517737 1_655
O10 P4 1.513899 1_555
O11 P5 1.512544 1_545
O12 P4 1.568660 1_555
O12 P5 1.570278 1_555
O13 P3 1.518190 1_655
O14 P4 1.518190 1_455
O15 P3 1.568660 1_555
O15 P2 1.570278 1_555
O16 P2 1.512544 1_565
O17 P3 1.513899 1_555
O18 P5 1.517737 1_455
O19 P5 1.518525 1_555
O20 P4 1.516373 1_555
O21 P6 1.513899 1_555
O22 P0 1.512544 1_545
O23 P6 1.568660 1_555
O23 P0 1.570278 1_555
O24 P6 1.518190 1_555
O25 P1 1.516373 1_555
O26 P7 1.518525 1_555
O27 P7 1.517737 1_555
