# generated using pymatgen
data_PrNiO3
_symmetry_space_group_name_H-M   'P 1'
_cell_length_a   5.37445976
_cell_length_b   5.42801121
_cell_length_c   7.63202038
_cell_angle_alpha   90.00000000
_cell_angle_beta   90.00000000
_cell_angle_gamma   90.00000000
_symmetry_Int_Tables_number   1
_chemical_formula_structural   PrNiO3
_chemical_formula_sum   'Pr4 Ni4 O12'
_cell_volume   222.64609010
_cell_formula_units_Z   4
loop_
 _symmetry_equiv_pos_site_id
 _symmetry_equiv_pos_as_xyz
  1  'x, y, z'
loop_
 _atom_site_type_symbol
 _atom_site_label
 _atom_site_symmetry_multiplicity
 _atom_site_fract_x
 _atom_site_fract_y
 _atom_site_fract_z
 _atom_site_occupancy
  Pr  Pr0  1  0.02969916  0.99424684  0.75000000  1
  Pr  Pr1  1  0.52969916  0.50575316  0.75000000  1
  Pr  Pr2  1  0.47030084  0.49424684  0.25000000  1
  Pr  Pr3  1  0.97030084  0.00575316  0.25000000  1
  Ni  Ni0  1  0.00000000  0.50000000  0.50000000  1
  Ni  Ni1  1  0.50000000  -0.00000000  -0.00000000  1
  Ni  Ni2  1  0.50000000  -0.00000000  0.50000000  1
  Ni  Ni3  1  0.00000000  0.50000000  -0.00000000  1
  O  O0  1  0.72304528  0.27610616  0.46360094  1
  O  O1  1  0.22304528  0.22389384  0.03639906  1
  O  O2  1  0.77695472  0.77610616  0.53639906  1
  O  O3  1  0.27695472  0.72389384  0.96360094  1
  O  O4  1  0.27695472  0.72389384  0.53639906  1
  O  O5  1  0.77695472  0.77610616  0.96360094  1
  O  O6  1  0.22304528  0.22389384  0.46360094  1
  O  O7  1  0.72304528  0.27610616  0.03639906  1
  O  O8  1  0.50500577  0.93309648  0.25000000  1
  O  O9  1  0.00500577  0.56690352  0.25000000  1
  O  O10  1  0.99499423  0.43309648  0.75000000  1
  O  O11  1  0.49499423  0.06690352  0.75000000  1
loop_
_geom_bond_atom_site_label_1
_geom_bond_atom_site_label_2
_geom_bond_distance
_geom_bond_site_symmetry_2
Ni0 O6 1.939147 1_555
Ni0 O2 1.939147 1_455
Ni0 O0 1.941572 1_455
Ni0 O4 1.941572 1_555
Ni0 O10 1.942444 1_455
Ni0 O9 1.942444 1_555
Ni1 O7 1.939147 1_555
Ni1 O3 1.939147 1_544
Ni1 O5 1.941572 1_544
Ni1 O1 1.941572 1_555
Ni1 O8 1.942444 1_545
Ni1 O11 1.942444 1_554
Ni2 O0 1.939147 1_555
Ni2 O4 1.939147 1_545
Ni2 O6 1.941572 1_555
Ni2 O2 1.941572 1_545
Ni2 O11 1.942444 1_555
Ni2 O8 1.942444 1_545
Ni3 O1 1.939147 1_555
Ni3 O5 1.939147 1_454
Ni3 O3 1.941572 1_554
Ni3 O7 1.941572 1_455
Ni3 O10 1.942444 1_454
Ni3 O9 1.942444 1_555
O0 Pr2 2.429969 1_555
O0 Pr3 2.564557 1_555
O0 Pr1 2.722381 1_555
O0 Pr0 3.136028 1_645
O1 Pr3 2.429969 1_455
O1 Pr2 2.564557 1_555
O1 Pr0 2.722381 1_544
O1 Pr1 3.136028 1_554
O2 Pr0 2.429969 1_655
O2 Pr1 2.564557 1_555
O2 Pr3 2.722381 1_565
O2 Pr2 3.136028 1_555
O3 Pr1 2.429969 1_555
O3 Pr0 2.564557 1_555
O3 Pr2 2.722381 1_556
O3 Pr3 3.136028 1_466
O4 Pr1 2.429969 1_555
O4 Pr0 2.564557 1_555
O4 Pr2 2.722381 1_555
O4 Pr3 3.136028 1_465
O5 Pr0 2.429969 1_655
O5 Pr1 2.564557 1_555
O5 Pr3 2.722381 1_566
O5 Pr2 3.136028 1_556
O6 Pr3 2.429969 1_455
O6 Pr2 2.564557 1_555
O6 Pr0 2.722381 1_545
O6 Pr1 3.136028 1_555
O7 Pr2 2.429969 1_555
O7 Pr3 2.564557 1_555
O7 Pr1 2.722381 1_554
O7 Pr0 3.136028 1_644
O8 Pr2 2.389372 1_555
O8 Pr3 2.531617 1_565
O8 Pr3 2.900686 1_465
O8 Pr2 3.051636 1_565
O9 Pr3 2.389372 1_465
O9 Pr2 2.531617 1_555
O9 Pr2 2.900686 1_455
O9 Pr3 3.051636 1_455
O10 Pr0 2.389372 1_645
O10 Pr1 2.531617 1_555
O10 Pr1 2.900686 1_655
O10 Pr0 3.051636 1_655
O11 Pr1 2.389372 1_555
O11 Pr0 2.531617 1_545
O11 Pr0 2.900686 1_645
O11 Pr1 3.051636 1_545
