# generated using pymatgen
data_Na6Sc4Zn4SiS11O48
_symmetry_space_group_name_H-M   'P 1'
_cell_length_a   17.67739630
_cell_length_b   8.83305385
_cell_length_c   22.83377201
_cell_angle_alpha   89.87956528
_cell_angle_beta   89.86938398
_cell_angle_gamma   120.09490941
_symmetry_Int_Tables_number   1
_chemical_formula_structural   Na6Sc4Zn4SiS11O48
_chemical_formula_sum   'Na18 Sc12 Zn12 Si3 S33 O144'
_cell_volume   3084.72990535
_cell_formula_units_Z   3
loop_
 _symmetry_equiv_pos_site_id
 _symmetry_equiv_pos_as_xyz
  1  'x, y, z'
loop_
 _atom_site_type_symbol
 _atom_site_label
 _atom_site_symmetry_multiplicity
 _atom_site_fract_x
 _atom_site_fract_y
 _atom_site_fract_z
 _atom_site_occupancy
  Na  Na0  1  0.81859341  0.99917981  0.24785745  1
  Na  Na1  1  0.99784001  0.63488112  0.25262803  1
  Na  Na2  1  0.31658540  0.64379170  0.74976760  1
  Na  Na3  1  0.81646189  0.63987547  0.74716568  1
  Na  Na4  1  0.99596005  0.36099405  0.75048029  1
  Na  Na5  1  0.68777320  0.00189743  0.74879339  1
  Na  Na6  1  0.99891498  0.99910610  0.49900142  1
  Na  Na7  1  0.50238175  0.00167686  0.49573238  1
  Na  Na8  1  0.00179567  0.00183199  0.00074812  1
  Na  Na9  1  0.50029742  -0.00003736  0.00055606  1
  Na  Na10  1  0.33429827  0.31613905  0.83684263  1
  Na  Na11  1  0.83383795  0.32626298  0.83663684  1
  Na  Na12  1  0.33417914  0.33490997  0.33014605  1
  Na  Na13  1  0.82846151  0.34250912  0.33584682  1
  Na  Na14  1  0.17380202  0.66893800  0.16859191  1
  Na  Na15  1  0.66469426  0.65639732  0.16837143  1
  Na  Na16  1  0.17069768  0.68334225  0.66441355  1
  Na  Na17  1  0.66815934  0.66846957  0.66292010  1
  Sc  Sc0  1  0.99732658  0.98740427  0.35250732  1
  Sc  Sc1  1  0.99674169  0.00389333  0.85281939  1
  Sc  Sc2  1  0.49497985  0.00658872  0.85298301  1
  Sc  Sc3  1  0.99242250  0.99423026  0.64603346  1
  Sc  Sc4  1  0.49449194  0.99897149  0.64658147  1
  Sc  Sc5  1  0.99624238  0.99424249  0.14879073  1
  Sc  Sc6  1  0.49782643  0.99810591  0.14952906  1
  Sc  Sc7  1  0.33389312  0.31682603  0.68466717  1
  Sc  Sc8  1  0.33307338  0.33251873  0.47898679  1
  Sc  Sc9  1  0.16737513  0.66746709  0.01856523  1
  Sc  Sc10  1  0.66617728  0.66770670  0.01862641  1
  Sc  Sc11  1  0.66587064  0.65520452  0.31557409  1
  Zn  Zn0  1  0.49831857  0.99951337  0.35081583  1
  Zn  Zn1  1  0.83369810  0.32082444  0.67768093  1
  Zn  Zn2  1  0.33376267  0.33663613  0.18300063  1
  Zn  Zn3  1  0.82860877  0.34503125  0.18327584  1
  Zn  Zn4  1  0.33285390  0.33238339  0.98475859  1
  Zn  Zn5  1  0.83292775  0.33272841  0.98427904  1
  Zn  Zn6  1  0.83245550  0.33336938  0.48313772  1
  Zn  Zn7  1  0.16518639  0.66434505  0.51453598  1
  Zn  Zn8  1  0.66837546  0.66878361  0.51525345  1
  Zn  Zn9  1  0.17392489  0.67213512  0.32049480  1
  Zn  Zn10  1  0.17425220  0.69016135  0.81797945  1
  Zn  Zn11  1  0.66944215  0.67123500  0.81860735  1
  Si  Si0  1  0.85063482  0.69831647  0.24959973  1
  Si  Si1  1  0.34993492  0.99712987  0.75058112  1
  Si  Si2  1  0.84982311  0.00013623  0.75053354  1
  S  S0  1  0.14926499  0.00306318  0.25003096  1
  S  S1  1  0.64476658  0.00020164  0.25103787  1
  S  S2  1  0.35257778  0.70443652  0.25127298  1
  S  S3  1  0.00317118  0.29597204  0.25010627  1
  S  S4  1  0.49663973  0.28896658  0.25054640  1
  S  S5  1  0.14565986  0.29003501  0.74987639  1
  S  S6  1  0.64519576  0.29336534  0.74986723  1
  S  S7  1  0.00119999  0.70949167  0.74989188  1
  S  S8  1  0.50025082  0.70777191  0.75023364  1
  S  S9  1  0.48218471  0.33864468  0.58173943  1
  S  S10  1  0.98223500  0.33922620  0.58229919  1
  S  S11  1  0.18605399  0.03607580  0.58212138  1
  S  S12  1  0.68601373  0.03624777  0.58266212  1
  S  S13  1  0.33142479  0.62453613  0.58335552  1
  S  S14  1  0.83123741  0.62121324  0.58322838  1
  S  S15  1  0.47823367  0.62372927  0.08309401  1
  S  S16  1  0.97942361  0.62410438  0.08269766  1
  S  S17  1  0.33345517  0.04418201  0.08330741  1
  S  S18  1  0.83350123  0.04466740  0.08341668  1
  S  S19  1  0.18847214  0.33325334  0.08300546  1
  S  S20  1  0.68664868  0.33204327  0.08221997  1
  S  S21  1  0.31299558  0.66045630  0.91651386  1
  S  S22  1  0.81301562  0.66110340  0.91666167  1
  S  S23  1  0.02010338  0.37743449  0.91568260  1
  S  S24  1  0.52030872  0.37871820  0.91645671  1
  S  S25  1  0.16802877  0.96396649  0.91735230  1
  S  S26  1  0.66793802  0.96393224  0.91626616  1
  S  S27  1  0.31349759  0.95715006  0.41716997  1
  S  S28  1  0.81268754  0.96267022  0.41744098  1
  S  S29  1  0.16625076  0.37550358  0.41706746  1
  S  S30  1  0.66604997  0.36981296  0.41872780  1
  S  S31  1  0.02022471  0.66270381  0.41689146  1
  S  S32  1  0.52124984  0.67061922  0.41757802  1
  O  O0  1  0.10787578  0.02838260  0.30283076  1
  O  O1  1  0.60522434  0.02770480  0.30347174  1
  O  O2  1  0.40621756  0.78605837  0.30355074  1
  O  O3  1  0.91514132  0.79639755  0.30544389  1
  O  O4  1  0.48526314  0.18429238  0.30340445  1
  O  O5  1  0.98963686  0.18554190  0.30233702  1
  O  O6  1  0.10803621  0.18209313  0.80305637  1
  O  O7  1  0.60614108  0.17952598  0.80235666  1
  O  O8  1  0.48585271  0.78902048  0.80268237  1
  O  O9  1  0.98835196  0.79312242  0.80250632  1
  O  O10  1  0.41176021  0.02667916  0.80748386  1
  O  O11  1  0.91573307  0.03662909  0.80610494  1
  O  O12  1  0.39796827  0.96390656  0.69434152  1
  O  O13  1  0.89716497  0.96350233  0.69491083  1
  O  O14  1  0.09188380  0.20582444  0.69758220  1
  O  O15  1  0.59284336  0.20816420  0.69715513  1
  O  O16  1  0.01572753  0.81783997  0.69710086  1
  O  O17  1  0.51683425  0.81988570  0.69765223  1
  O  O18  1  0.39550152  0.81473281  0.19771669  1
  O  O19  1  0.89703545  0.83100867  0.19360710  1
  O  O20  1  0.01696192  0.21631095  0.19702962  1
  O  O21  1  0.51136205  0.20784019  0.19740131  1
  O  O22  1  0.09269309  0.97385544  0.19784792  1
  O  O23  1  0.59207847  0.97659173  0.19742290  1
  O  O24  1  0.43993059  0.36019663  0.63520934  1
  O  O25  1  0.94532760  0.36385155  0.63820527  1
  O  O26  1  0.23966473  0.12111892  0.63533210  1
  O  O27  1  0.73542936  0.11069060  0.63843238  1
  O  O28  1  0.32151086  0.52312674  0.63809191  1
  O  O29  1  0.82053580  0.52266182  0.63909337  1
  O  O30  1  0.44053737  0.51858637  0.13647827  1
  O  O31  1  0.94296938  0.52196083  0.13730076  1
  O  O32  1  0.31893633  0.12002795  0.13638245  1
  O  O33  1  0.82025027  0.11863610  0.13824747  1
  O  O34  1  0.24083771  0.36232807  0.13621171  1
  O  O35  1  0.73849125  0.36135869  0.13555726  1
  O  O36  1  0.22730341  0.30689796  0.02973907  1
  O  O37  1  0.72533655  0.30439755  0.02928950  1
  O  O38  1  0.42633762  0.54811129  0.02995046  1
  O  O39  1  0.92565653  0.54398564  0.03063844  1
  O  O40  1  0.34810037  0.14833336  0.02986086  1
  O  O41  1  0.84554345  0.15058720  0.03089990  1
  O  O42  1  0.22917017  0.14779556  0.53019060  1
  O  O43  1  0.72805320  0.14818093  0.53139718  1
  O  O44  1  0.34323185  0.53547383  0.53205700  1
  O  O45  1  0.84485226  0.53932847  0.53172623  1
  O  O46  1  0.42629025  0.31154548  0.53018389  1
  O  O47  1  0.92616413  0.30912313  0.53141900  1
  O  O48  1  0.26961251  0.68787631  0.96808397  1
  O  O49  1  0.76945917  0.68773572  0.96811388  1
  O  O50  1  0.07533493  0.46446285  0.96767511  1
  O  O51  1  0.57470383  0.46309312  0.96920526  1
  O  O52  1  0.15502529  0.85213821  0.96970442  1
  O  O53  1  0.65569199  0.85057668  0.96800503  1
  O  O54  1  0.27298446  0.85155405  0.47012744  1
  O  O55  1  0.77264348  0.85261436  0.46940018  1
  O  O56  1  0.15333514  0.45337889  0.47010305  1
  O  O57  1  0.65279755  0.45179338  0.47089277  1
  O  O58  1  0.07456852  0.69014048  0.46877184  1
  O  O59  1  0.57325308  0.69357252  0.47028360  1
  O  O60  1  0.05915830  0.64098369  0.36158592  1
  O  O61  1  0.56103097  0.64194940  0.36441445  1
  O  O62  1  0.26056069  0.88466808  0.36371588  1
  O  O63  1  0.76076849  0.88044016  0.36297001  1
  O  O64  1  0.18127821  0.48040958  0.36343574  1
  O  O65  1  0.67848128  0.47950249  0.36507184  1
  O  O66  1  0.06007633  0.47805985  0.86102087  1
  O  O67  1  0.56151167  0.48246694  0.86305130  1
  O  O68  1  0.18009352  0.88496194  0.86392219  1
  O  O69  1  0.67972971  0.88655583  0.86171386  1
  O  O70  1  0.26230863  0.63625902  0.86219328  1
  O  O71  1  0.76297562  0.63721685  0.86207171  1
  O  O72  1  0.01270117  0.82527559  0.41220329  1
  O  O73  1  0.51016916  0.82522471  0.41088656  1
  O  O74  1  0.40211428  0.97909843  0.41119058  1
  O  O75  1  0.90172946  0.98252689  0.41067406  1
  O  O76  1  0.08855788  0.19755010  0.41072761  1
  O  O77  1  0.58693618  0.19450420  0.41141055  1
  O  O78  1  0.01366238  0.20148566  0.91289420  1
  O  O79  1  0.51420667  0.20302916  0.91325995  1
  O  O80  1  0.08769200  0.97854082  0.91252777  1
  O  O81  1  0.58780928  0.97847988  0.91216375  1
  O  O82  1  0.40151856  0.82152660  0.91261908  1
  O  O83  1  0.90147626  0.82212226  0.91240893  1
  O  O84  1  0.48968781  0.17841352  0.58753680  1
  O  O85  1  0.99181310  0.17933053  0.58861093  1
  O  O86  1  0.09924558  0.02191158  0.58850539  1
  O  O87  1  0.59749435  0.01888059  0.58925922  1
  O  O88  1  0.41305056  0.79927341  0.58684259  1
  O  O89  1  0.91261441  0.79968571  0.58776260  1
  O  O90  1  0.48976480  0.80333162  0.08985256  1
  O  O91  1  0.99123796  0.80369530  0.08830501  1
  O  O92  1  0.41179180  0.02115439  0.08992792  1
  O  O93  1  0.91283064  0.02558062  0.08772077  1
  O  O94  1  0.09908278  0.17744854  0.08927487  1
  O  O95  1  0.59723673  0.17497265  0.08929087  1
  O  O96  1  0.34228592  0.17292942  0.74448939  1
  O  O97  1  0.84250267  0.17739756  0.74469689  1
  O  O98  1  0.23659753  0.32232480  0.74314585  1
  O  O99  1  0.73477522  0.31577392  0.74449591  1
  O  O100  1  0.41792179  0.53630794  0.74301752  1
  O  O101  1  0.91878802  0.53585728  0.74473099  1
  O  O102  1  0.34372989  0.52920578  0.24394318  1
  O  O103  1  0.84777786  0.51276247  0.24465031  1
  O  O104  1  0.41883367  0.30850566  0.24335172  1
  O  O105  1  0.92139660  0.30563510  0.24425379  1
  O  O106  1  0.23685999  0.15835943  0.24328468  1
  O  O107  1  0.73549618  0.15052583  0.24409378  1
  O  O108  1  0.32269443  0.50502937  0.92359761  1
  O  O109  1  0.82267211  0.50527956  0.92370752  1
  O  O110  1  0.43213111  0.35633405  0.92278020  1
  O  O111  1  0.93191332  0.35570962  0.92230813  1
  O  O112  1  0.24650048  0.13905380  0.92377198  1
  O  O113  1  0.74677356  0.13874223  0.92294090  1
  O  O114  1  0.32308611  0.13651952  0.42399072  1
  O  O115  1  0.82160048  0.13807787  0.42199147  1
  O  O116  1  0.24571279  0.35536976  0.42347942  1
  O  O117  1  0.74612732  0.35549358  0.42255793  1
  O  O118  1  0.43199543  0.50910571  0.42329639  1
  O  O119  1  0.93143081  0.50732710  0.42243571  1
  O  O120  1  0.17803803  0.49191609  0.07621170  1
  O  O121  1  0.67604867  0.48991301  0.07555350  1
  O  O122  1  0.06874727  0.64496365  0.07579057  1
  O  O123  1  0.56822447  0.64653958  0.07632203  1
  O  O124  1  0.25489933  0.86401434  0.07662890  1
  O  O125  1  0.75483534  0.86479325  0.07683428  1
  O  O126  1  0.17810590  0.86258724  0.57706553  1
  O  O127  1  0.67633210  0.85973441  0.57721843  1
  O  O128  1  0.25376878  0.64400377  0.57765644  1
  O  O129  1  0.75376029  0.64371652  0.57827213  1
  O  O130  1  0.07065398  0.49563993  0.57664643  1
  O  O131  1  0.56916644  0.49501445  0.57665819  1
  O  O132  1  0.15306804  0.83788788  0.25563484  1
  O  O133  1  0.65327891  0.83995198  0.25602567  1
  O  O134  1  0.26483476  0.68961284  0.25513175  1
  O  O135  1  0.75711132  0.69364208  0.25646425  1
  O  O136  1  0.07896225  0.47645537  0.25580172  1
  O  O137  1  0.57662935  0.46614781  0.25513709  1
  O  O138  1  0.15100260  0.46299388  0.75574316  1
  O  O139  1  0.65391056  0.46798461  0.75617370  1
  O  O140  1  0.07572132  0.67824692  0.75592611  1
  O  O141  1  0.57726739  0.68601429  0.75647842  1
  O  O142  1  0.25615960  0.81664286  0.75462124  1
  O  O143  1  0.75369749  0.82333475  0.75619294  1
loop_
_geom_bond_atom_site_label_1
_geom_bond_atom_site_label_2
_geom_bond_distance
_geom_bond_site_symmetry_2
Na0 O135 2.357694 1_555
Na0 O105 2.387845 1_565
Na0 O107 2.433478 1_565
Na0 O133 2.535234 1_555
Na0 O33 2.708478 1_565
Na0 O19 2.780201 1_555
Na0 O63 2.820404 1_555
Na0 O5 2.904072 1_565
Na1 O103 2.316677 1_555
Na1 O132 2.411766 1_655
Na1 O136 2.456120 1_655
Na1 O105 2.526422 1_555
Na1 O60 2.705893 1_655
Na1 O3 2.778095 1_555
Na1 O31 2.814731 1_555
Na1 O22 2.877672 1_655
Na2 O142 2.262772 1_555
Na2 O100 2.416421 1_555
Na2 O98 2.461986 1_555
Na2 O138 2.538918 1_555
Na2 O70 2.727463 1_555
Na2 O12 2.750231 1_555
Na2 O28 2.783786 1_555
Na2 O8 2.869200 1_555
Na3 O143 2.388101 1_555
Na3 O101 2.405359 1_555
Na3 O99 2.477882 1_555
Na3 O139 2.495020 1_555
Na3 O29 2.692840 1_555
Na3 O13 2.742013 1_555
Na3 O71 2.782927 1_555
Na3 O9 2.926054 1_555
Na4 O97 2.365784 1_555
Na4 O138 2.421453 1_655
Na4 O140 2.428206 1_655
Na4 O101 2.525294 1_555
Na4 O25 2.721573 1_555
Na4 O66 2.751981 1_655
Na4 O11 2.781185 1_555
Na4 O14 2.922550 1_655
Na5 O97 2.374700 1_555
Na5 O143 2.391129 1_545
Na5 O99 2.464744 1_555
Na5 O141 2.482390 1_545
Na5 O27 2.674251 1_555
Na5 O69 2.747428 1_545
Na5 O17 2.869026 1_545
Na5 O7 2.882820 1_555
Na6 O72 2.594400 1_655
Na6 O75 2.608702 1_555
Na6 O89 2.610335 1_555
Na6 O76 2.613683 1_665
Na6 O85 2.636206 1_565
Na6 O86 2.650076 1_665
Na7 O77 2.502449 1_555
Na7 O73 2.535389 1_545
Na7 O74 2.563319 1_545
Na7 O88 2.675093 1_545
Na7 O87 2.678091 1_555
Na7 O84 2.691583 1_555
Na8 O80 2.589756 1_544
Na8 O91 2.598249 1_445
Na8 O93 2.603749 1_455
Na8 O78 2.605860 1_554
Na8 O94 2.608376 1_555
Na8 O83 2.634407 1_444
Na9 O81 2.604724 1_544
Na9 O79 2.606048 1_554
Na9 O95 2.608427 1_555
Na9 O82 2.614244 1_544
Na9 O90 2.620652 1_545
Na9 O92 2.632119 1_555
Na10 O96 2.501203 1_555
Na10 O112 2.516687 1_555
Na10 O110 2.523913 1_555
Na10 O108 2.665578 1_555
Na10 O100 2.764430 1_555
Na10 O98 2.770214 1_555
Na11 O97 2.524253 1_555
Na11 O113 2.532122 1_555
Na11 O111 2.542736 1_555
Na11 O109 2.610850 1_555
Na11 O101 2.695869 1_555
Na11 O99 2.712304 1_555
Na12 O102 2.557730 1_555
Na12 O104 2.561243 1_555
Na12 O106 2.581349 1_555
Na12 O118 2.691427 1_555
Na12 O116 2.699995 1_555
Na12 O114 2.709008 1_555
Na13 O103 2.486567 1_555
Na13 O117 2.491364 1_555
Na13 O119 2.590904 1_555
Na13 O115 2.628481 1_555
Na13 O107 2.683570 1_555
Na13 O105 2.775407 1_555
Na14 O134 2.499787 1_555
Na14 O136 2.603605 1_555
Na14 O132 2.620945 1_555
Na14 O124 2.632010 1_555
Na14 O120 2.651543 1_555
Na14 O122 2.758488 1_555
Na15 O135 2.510387 1_555
Na15 O137 2.553617 1_555
Na15 O121 2.646093 1_555
Na15 O133 2.648644 1_555
Na15 O123 2.683590 1_555
Na15 O125 2.706154 1_555
Na16 O142 2.480302 1_555
Na16 O126 2.505892 1_555
Na16 O128 2.588990 1_555
Na16 O130 2.642411 1_555
Na16 O140 2.663646 1_555
Na16 O138 2.749259 1_555
Na17 O129 2.528571 1_555
Na17 O127 2.538618 1_555
Na17 O131 2.574675 1_555
Na17 O143 2.578012 1_555
Na17 O139 2.695910 1_555
Na17 O141 2.721176 1_555
O0 S0 1.483262 1_555
O0 Sc0 2.124953 1_445
O1 S1 1.465869 1_555
O1 Zn0 2.078383 1_545
O2 S2 1.472075 1_555
O2 Zn0 2.075688 1_555
O3 Si0 1.642366 1_555
O3 Sc0 1.915368 1_555
O4 S4 1.469615 1_555
O4 Zn0 2.064139 1_545
O5 S3 1.480147 1_655
O5 Sc0 2.150525 1_545
O6 S5 1.476971 1_555
O6 Sc1 2.125097 1_455
O7 S6 1.489696 1_555
O7 Sc2 2.122036 1_555
O8 S8 1.483070 1_555
O8 Sc2 2.176616 1_565
O9 S7 1.487063 1_655
O9 Sc1 2.130916 1_565
O10 Si1 1.634806 1_545
O10 Sc2 1.882286 1_555
O11 Si2 1.644183 1_555
O11 Sc1 1.921721 1_555
O12 Si1 1.643983 1_555
O12 Sc4 1.912256 1_555
O13 Si2 1.639096 1_565
O13 Sc3 1.920048 1_555
O14 S5 1.477349 1_555
O14 Sc3 2.166365 1_445
O15 S6 1.477142 1_555
O15 Sc4 2.137047 1_545
O16 S7 1.477219 1_555
O16 Sc3 2.143656 1_455
O17 S8 1.486747 1_555
O17 Sc4 2.153856 1_555
O18 S2 1.506578 1_555
O18 Sc6 2.037478 1_555
O19 Si0 1.644980 1_555
O19 Sc5 1.910871 1_555
O20 S3 1.482438 1_555
O20 Sc5 2.117891 1_445
O21 S4 1.497689 1_555
O21 Sc6 2.061405 1_545
O22 S0 1.494786 1_565
O22 Sc5 2.123672 1_455
O23 S1 1.490368 1_565
O23 Sc6 2.081592 1_555
O24 S9 1.491386 1_555
O24 Sc7 2.050389 1_555
O25 S10 1.497410 1_555
O25 Zn1 2.022186 1_555
O26 S11 1.494587 1_555
O26 Sc7 2.039845 1_555
O27 S12 1.499886 1_555
O27 Zn1 2.011592 1_555
O28 S13 1.494004 1_555
O28 Sc7 2.211899 1_555
O29 S14 1.499944 1_555
O29 Zn1 2.102222 1_555
O30 S15 1.470833 1_555
O30 Zn2 2.053180 1_555
O31 S16 1.480651 1_555
O31 Zn3 2.108624 1_555
O32 S17 1.468963 1_555
O32 Zn2 2.090330 1_555
O33 S18 1.484869 1_555
O33 Zn3 2.188839 1_555
O34 S19 1.472025 1_555
O34 Zn2 2.066910 1_555
O35 S20 1.469219 1_555
O35 Zn3 1.995862 1_555
O36 S19 1.470494 1_555
O36 Zn4 2.038636 1_554
O37 S20 1.467320 1_555
O37 Zn5 2.061297 1_554
O38 S15 1.467723 1_555
O38 Zn4 2.069982 1_554
O39 S16 1.466751 1_555
O39 Zn5 2.058708 1_554
O40 S17 1.468913 1_555
O40 Zn4 2.051795 1_554
O41 S18 1.467315 1_555
O41 Zn5 2.031036 1_554
O42 S11 1.482388 1_555
O42 Sc8 2.092742 1_555
O43 S12 1.467774 1_555
O43 Zn6 2.061969 1_555
O44 S13 1.483883 1_555
O44 Sc8 2.098043 1_555
O45 S14 1.463177 1_555
O45 Zn6 2.048990 1_555
O46 S9 1.479423 1_555
O46 Sc8 2.104829 1_555
O47 S10 1.464629 1_555
O47 Zn6 2.090084 1_555
O48 S21 1.488878 1_555
O48 Sc9 2.071315 1_556
O49 S22 1.485645 1_555
O49 Sc10 2.088205 1_556
O50 S23 1.486617 1_555
O50 Sc9 2.074702 1_556
O51 S24 1.490340 1_555
O51 Sc10 2.059301 1_556
O52 S25 1.491175 1_555
O52 Sc9 2.074569 1_556
O53 S26 1.490501 1_555
O53 Sc10 2.067121 1_556
O54 S27 1.471904 1_555
O54 Zn7 2.053764 1_555
O55 S28 1.467967 1_555
O55 Zn8 2.027996 1_555
O56 S29 1.466824 1_555
O56 Zn7 2.040389 1_555
O57 S30 1.473266 1_555
O57 Zn8 2.062920 1_555
O58 S31 1.468960 1_555
O58 Zn7 2.020542 1_555
O59 S32 1.467540 1_555
O59 Zn8 2.075089 1_555
O60 S31 1.494897 1_555
O60 Zn9 2.121880 1_555
O61 S32 1.486025 1_555
O61 Sc11 2.112939 1_555
O62 S27 1.477502 1_555
O62 Zn9 1.993765 1_555
O63 S28 1.502451 1_555
O63 Sc11 2.147978 1_555
O64 S29 1.475057 1_555
O64 Zn9 2.015110 1_555
O65 S30 1.506100 1_555
O65 Sc11 2.019033 1_555
O66 S23 1.486141 1_555
O66 Zn10 2.177290 1_555
O67 S24 1.476224 1_555
O67 Zn11 2.060082 1_555
O68 S25 1.473961 1_555
O68 Zn10 1.975300 1_555
O69 S26 1.485752 1_555
O69 Zn11 2.069077 1_555
O70 S21 1.483610 1_555
O70 Zn10 2.101751 1_555
O71 S22 1.483139 1_555
O71 Zn11 2.076912 1_555
O72 S31 1.510698 1_555
O72 Sc0 2.089633 1_455
O73 S32 1.481285 1_555
O73 Zn0 2.147373 1_555
O74 S27 1.484766 1_555
O74 Zn0 2.122712 1_555
O75 S28 1.501371 1_555
O75 Sc0 2.130301 1_555
O76 S29 1.488233 1_555
O76 Sc0 2.198120 1_445
O77 S30 1.487275 1_555
O77 Zn0 2.156142 1_545
O78 S23 1.501810 1_555
O78 Sc1 2.122671 1_455
O79 S24 1.502631 1_555
O79 Sc2 2.107463 1_555
O80 S25 1.493158 1_555
O80 Sc1 2.205360 1_465
O81 S26 1.488207 1_555
O81 Sc2 2.235584 1_565
O82 S21 1.498980 1_555
O82 Sc2 2.127893 1_565
O83 S22 1.498633 1_555
O83 Sc1 2.129328 1_565
O84 S9 1.491921 1_555
O84 Sc4 2.112750 1_545
O85 S10 1.511058 1_555
O85 Sc3 2.097912 1_545
O86 S11 1.482598 1_555
O86 Sc3 2.208044 1_445
O87 S12 1.500964 1_555
O87 Sc4 2.174054 1_545
O88 S13 1.496066 1_555
O88 Sc4 2.125349 1_555
O89 S14 1.514064 1_555
O89 Sc3 2.073776 1_555
O90 S15 1.503002 1_555
O90 Sc6 2.145206 1_555
O91 S16 1.498398 1_555
O91 Sc5 2.146902 1_555
O92 S17 1.505047 1_555
O92 Sc6 2.127294 1_545
O93 S18 1.497430 1_555
O93 Sc5 2.147644 1_545
O94 S19 1.492873 1_555
O94 Sc5 2.190813 1_445
O95 S20 1.499296 1_555
O95 Sc6 2.155789 1_545
O96 Si1 1.630556 1_545
O96 Sc7 1.919942 1_555
O97 Si2 1.639668 1_555
O97 Zn1 2.039983 1_555
O98 S5 1.492659 1_555
O98 Sc7 2.194790 1_555
O99 S6 1.498822 1_555
O99 Zn1 2.301483 1_555
O100 S8 1.493551 1_555
O100 Sc7 2.207267 1_555
O101 S7 1.499768 1_655
O101 Zn1 2.317699 1_555
O102 S2 1.485481 1_555
O102 Zn2 2.138056 1_555
O103 Si0 1.618476 1_555
O103 Zn3 1.944546 1_555
O104 S4 1.479019 1_555
O104 Zn2 2.145929 1_555
O105 S3 1.496450 1_655
O105 Zn3 2.308888 1_555
O106 S0 1.473419 1_555
O106 Zn2 2.140979 1_555
O107 S1 1.490917 1_555
O107 Zn3 2.175561 1_555
O108 S21 1.475008 1_555
O108 Zn4 2.138929 1_555
O109 S22 1.477945 1_555
O109 Zn5 2.130306 1_555
O110 S24 1.476285 1_555
O110 Zn4 2.177733 1_555
O111 S23 1.479488 1_655
O111 Zn5 2.176379 1_555
O112 S25 1.479176 1_545
O112 Zn4 2.142673 1_555
O113 S26 1.481061 1_545
O113 Zn5 2.149387 1_555
O114 S27 1.514953 1_545
O114 Sc8 2.075824 1_555
O115 S28 1.480591 1_545
O115 Zn6 2.154362 1_555
O116 S29 1.509156 1_555
O116 Sc8 2.086262 1_555
O117 S30 1.485776 1_555
O117 Zn6 2.141970 1_555
O118 S32 1.510851 1_555
O118 Sc8 2.086624 1_555
O119 S31 1.483698 1_655
O119 Zn6 2.151106 1_555
O120 S19 1.510192 1_555
O120 Sc9 2.111477 1_555
O121 S20 1.504699 1_555
O121 Sc10 2.110384 1_555
O122 S16 1.503020 1_455
O122 Sc9 2.104187 1_555
O123 S15 1.507470 1_555
O123 Sc10 2.105393 1_555
O124 S17 1.506645 1_565
O124 Sc9 2.119176 1_555
O125 S18 1.505642 1_565
O125 Sc10 2.129893 1_555
O126 S11 1.471840 1_565
O126 Zn7 2.183565 1_555
O127 S12 1.486271 1_565
O127 Zn8 2.153977 1_555
O128 S13 1.472555 1_555
O128 Zn7 2.202951 1_555
O129 S14 1.483825 1_555
O129 Zn8 2.177516 1_555
O130 S10 1.483640 1_455
O130 Zn7 2.123077 1_555
O131 S9 1.467693 1_555
O131 Zn8 2.162792 1_555
O132 S0 1.499067 1_565
O132 Zn9 2.237770 1_555
O133 S1 1.500748 1_565
O133 Sc11 2.217600 1_555
O134 S2 1.492103 1_555
O134 Zn9 2.138513 1_555
O135 Si0 1.640076 1_555
O135 Sc11 1.994335 1_555
O136 S3 1.487651 1_555
O136 Zn9 2.258276 1_555
O137 S4 1.497270 1_555
O137 Sc11 2.135285 1_555
O138 S5 1.488998 1_555
O138 Zn10 2.324302 1_555
O139 S6 1.478604 1_555
O139 Zn11 2.202066 1_555
O140 S7 1.481832 1_555
O140 Zn10 2.209191 1_555
O141 S8 1.474447 1_555
O141 Zn11 2.215318 1_555
O142 Si1 1.626788 1_555
O142 Zn10 1.949093 1_555
O143 Si2 1.637032 1_565
O143 Zn11 2.007469 1_555
