# generated using pymatgen
data_Na8Ca2Al2Si3(SO8)3
_symmetry_space_group_name_H-M   'P 1'
_cell_length_a   9.42618888
_cell_length_b   9.22995069
_cell_length_c   22.44660954
_cell_angle_alpha   94.54356612
_cell_angle_beta   89.62884936
_cell_angle_gamma   120.71534641
_symmetry_Int_Tables_number   1
_chemical_formula_structural   Na8Ca2Al2Si3(SO8)3
_chemical_formula_sum   'Na24 Ca6 Al6 Si9 S9 O72'
_cell_volume   1672.36986190
_cell_formula_units_Z   3
loop_
 _symmetry_equiv_pos_site_id
 _symmetry_equiv_pos_as_xyz
  1  'x, y, z'
loop_
 _atom_site_type_symbol
 _atom_site_label
 _atom_site_symmetry_multiplicity
 _atom_site_fract_x
 _atom_site_fract_y
 _atom_site_fract_z
 _atom_site_occupancy
  Na  Na0  1  0.64782804  0.02312371  0.26083699  1
  Na  Na1  1  0.35216144  0.34371396  0.25730019  1
  Na  Na2  1  0.00156966  0.62991853  0.24048827  1
  Na  Na3  1  0.62539088  0.63502087  0.73598597  1
  Na  Na4  1  0.98959076  0.34266770  0.73876498  1
  Na  Na5  1  0.37195826  0.03079520  0.74830508  1
  Na  Na6  1  0.31045548  0.35144009  0.59208789  1
  Na  Na7  1  0.01820676  0.67857960  0.58953357  1
  Na  Na8  1  0.66732075  0.96205688  0.57619887  1
  Na  Na9  1  0.28431120  0.95574147  0.08167080  1
  Na  Na10  1  0.67611814  0.69830885  0.07907780  1
  Na  Na11  1  0.02769300  0.34621438  0.09319104  1
  Na  Na12  1  0.99542323  0.68633848  0.91549444  1
  Na  Na13  1  0.67815394  0.02114488  0.90100014  1
  Na  Na14  1  0.33678095  0.29013584  0.90488666  1
  Na  Na15  1  0.95100496  0.28592378  0.41675680  1
  Na  Na16  1  0.34078840  0.03651574  0.40649574  1
  Na  Na17  1  0.68683873  0.67721270  0.43082807  1
  Na  Na18  1  0.97894698  0.99429654  0.50498675  1
  Na  Na19  1  0.01520872  0.99419271  0.99954231  1
  Na  Na20  1  0.64778806  0.32378756  0.82607657  1
  Na  Na21  1  0.66284227  0.31285038  0.33657173  1
  Na  Na22  1  0.30927858  0.65911209  0.16981606  1
  Na  Na23  1  0.34190706  0.65162628  0.66200586  1
  Ca  Ca0  1  0.99905519  0.00668146  0.34886509  1
  Ca  Ca1  1  0.00233540  0.00730364  0.84536982  1
  Ca  Ca2  1  0.66913483  0.33731549  0.68308898  1
  Ca  Ca3  1  0.67119807  0.32992667  0.18433524  1
  Ca  Ca4  1  0.32689499  0.67184500  0.01289065  1
  Ca  Ca5  1  0.33843343  0.66560370  0.51703524  1
  Al  Al0  1  0.96399520  0.02906697  0.64804805  1
  Al  Al1  1  0.01101702  0.97731816  0.16497994  1
  Al  Al2  1  0.66868323  0.33894319  0.98119681  1
  Al  Al3  1  0.67570979  0.30978838  0.49781888  1
  Al  Al4  1  0.31452893  0.69502575  0.31074873  1
  Al  Al5  1  0.35060567  0.70178609  0.80048424  1
  Si  Si0  1  0.29964366  0.99336019  0.25313616  1
  Si  Si1  1  0.01672842  0.30178293  0.25211130  1
  Si  Si2  1  0.28681470  0.30665822  0.75305634  1
  Si  Si3  1  0.69129125  0.99515883  0.75157971  1
  Si  Si4  1  0.96723675  0.32976808  0.58586813  1
  Si  Si5  1  0.68495291  0.63569336  0.58519246  1
  Si  Si6  1  0.95482455  0.63713902  0.08622343  1
  Si  Si7  1  0.34561992  0.97234567  0.91983398  1
  Si  Si8  1  0.61970221  0.96878919  0.41905126  1
  S  S0  1  0.69433657  0.71208343  0.24609917  1
  S  S1  1  0.01917032  0.70048042  0.75415067  1
  S  S2  1  0.36184459  0.04604698  0.57936501  1
  S  S3  1  0.68125565  0.04247871  0.07719335  1
  S  S4  1  0.37450118  0.32998731  0.07882872  1
  S  S5  1  0.63363614  0.65248044  0.91856454  1
  S  S6  1  0.00839763  0.36027761  0.92131560  1
  S  S7  1  0.34719900  0.36972702  0.41293972  1
  S  S8  1  0.03531501  0.66019091  0.41190906  1
  O  O0  1  0.22197491  0.01846480  0.31374660  1
  O  O1  1  0.78625744  0.77932890  0.30347479  1
  O  O2  1  0.97261927  0.19861573  0.31059954  1
  O  O3  1  0.22491423  0.20249631  0.81160891  1
  O  O4  1  0.00717374  0.77888593  0.81214775  1
  O  O5  1  0.78522376  0.00648282  0.81277309  1
  O  O6  1  0.79160072  0.97580501  0.69329268  1
  O  O7  1  0.15001029  0.19428214  0.69410487  1
  O  O8  1  0.03431747  0.79827911  0.70346363  1
  O  O9  1  0.79835517  0.81656919  0.19633783  1
  O  O10  1  0.03753945  0.18249654  0.19308854  1
  O  O11  1  0.17698592  0.96474805  0.19444761  1
  O  O12  1  0.89530391  0.36373778  0.64655243  1
  O  O13  1  0.45073178  0.11317714  0.63753198  1
  O  O14  1  0.64555322  0.53142571  0.64306791  1
  O  O15  1  0.88118276  0.53570676  0.14422952  1
  O  O16  1  0.65494754  0.10938548  0.13512064  1
  O  O17  1  0.46244863  0.34800903  0.13525047  1
  O  O18  1  0.47062445  0.32008247  0.02611154  1
  O  O19  1  0.82160755  0.52968341  0.02675926  1
  O  O20  1  0.68201271  0.14429913  0.02804596  1
  O  O21  1  0.46933020  0.14963793  0.53034109  1
  O  O22  1  0.70378005  0.51677422  0.52549702  1
  O  O23  1  0.84395344  0.29976000  0.52718509  1
  O  O24  1  0.56131532  0.67311336  0.97501718  1
  O  O25  1  0.10664799  0.43754397  0.97788557  1
  O  O26  1  0.31811288  0.87570056  0.97953584  1
  O  O27  1  0.54792039  0.86841607  0.47729259  1
  O  O28  1  0.33773593  0.45457739  0.46959126  1
  O  O29  1  0.12897298  0.67823138  0.46663708  1
  O  O30  1  0.12996185  0.65423471  0.35760969  1
  O  O31  1  0.48742418  0.86204816  0.35828907  1
  O  O32  1  0.34781513  0.46063931  0.36113210  1
  O  O33  1  0.08973445  0.45837950  0.87043564  1
  O  O34  1  0.36981554  0.85749379  0.86095957  1
  O  O35  1  0.53085861  0.63578220  0.86629164  1
  O  O36  1  0.00985076  0.80664883  0.41195024  1
  O  O37  1  0.80330077  0.99219741  0.41248588  1
  O  O38  1  0.20123971  0.19540278  0.41334593  1
  O  O39  1  0.97658352  0.18505527  0.91611178  1
  O  O40  1  0.18725710  0.99848976  0.91400754  1
  O  O41  1  0.80607355  0.79825190  0.91699074  1
  O  O42  1  0.96776364  0.14937523  0.58729843  1
  O  O43  1  0.20888869  0.05244529  0.57631139  1
  O  O44  1  0.86723148  0.82396048  0.59417240  1
  O  O45  1  0.96837582  0.83115353  0.09517607  1
  O  O46  1  0.84074456  0.04564694  0.07727955  1
  O  O47  1  0.20899601  0.17328308  0.07515446  1
  O  O48  1  0.66198458  0.15341900  0.74982954  1
  O  O49  1  0.47345140  0.34197640  0.74431669  1
  O  O50  1  0.87481440  0.52725548  0.75019765  1
  O  O51  1  0.65304400  0.53505165  0.23750088  1
  O  O52  1  0.86741439  0.33849433  0.24215386  1
  O  O53  1  0.48610151  0.15334033  0.24836503  1
  O  O54  1  0.64014474  0.49030729  0.91841237  1
  O  O55  1  0.84367022  0.35399317  0.92616247  1
  O  O56  1  0.52343806  0.16317348  0.92677890  1
  O  O57  1  0.63435889  0.16228366  0.42799988  1
  O  O58  1  0.50238554  0.36280784  0.41267068  1
  O  O59  1  0.87346543  0.50032452  0.40756235  1
  O  O60  1  0.35421531  0.48052940  0.07709213  1
  O  O61  1  0.14014227  0.66266331  0.08008958  1
  O  O62  1  0.54448185  0.86272854  0.07109782  1
  O  O63  1  0.32115719  0.86854024  0.57167240  1
  O  O64  1  0.53309137  0.67052903  0.57683454  1
  O  O65  1  0.15445028  0.48739139  0.57998132  1
  O  O66  1  0.30241653  0.81351864  0.25272006  1
  O  O67  1  0.54035068  0.71871739  0.24453297  1
  O  O68  1  0.19906843  0.49063829  0.26054032  1
  O  O69  1  0.29198634  0.49279333  0.76429380  1
  O  O70  1  0.17594745  0.69166246  0.75558028  1
  O  O71  1  0.50572120  0.81588529  0.74869122  1
loop_
_geom_bond_atom_site_label_1
_geom_bond_atom_site_label_2
_geom_bond_distance
_geom_bond_site_symmetry_2
Na0 O53 2.403638 1_555
Na0 O67 2.447155 1_545
Na0 O52 2.638286 1_555
Na0 O31 2.730850 1_545
Na0 O66 2.809645 1_545
Na0 O2 2.817126 1_555
Na0 O16 2.983372 1_555
Na1 O68 2.430833 1_555
Na1 O32 2.498769 1_555
Na1 O51 2.520239 1_555
Na1 O53 2.632287 1_555
Na2 O52 2.318680 1_455
Na2 O15 2.332059 1_455
Na2 O66 2.452807 1_555
Na2 O68 2.805060 1_555
Na2 O30 2.845499 1_555
Na2 O11 2.935428 1_555
Na2 O51 2.935835 1_455
Na3 O14 2.272678 1_555
Na3 O49 2.349774 1_555
Na3 O71 2.446355 1_555
Na4 O12 2.318667 1_555
Na4 O50 2.439101 1_555
Na4 O69 2.496786 1_655
Na4 O7 2.654389 1_655
Na4 O48 2.682819 1_555
Na4 O70 2.764046 1_655
Na5 O48 2.364377 1_555
Na5 O49 2.530881 1_555
Na5 O13 2.647825 1_555
Na5 O70 2.721668 1_545
Na5 O71 2.842959 1_545
Na5 O3 2.883317 1_555
Na5 O8 2.910329 1_545
Na6 O65 2.398985 1_555
Na6 O43 2.410083 1_555
Na6 O64 2.651783 1_555
Na6 O42 2.782617 1_455
Na6 O7 2.806344 1_555
Na6 O14 2.903754 1_555
Na6 O28 2.947592 1_555
Na7 O44 2.400712 1_455
Na7 O63 2.524177 1_555
Na7 O65 2.657235 1_555
Na7 O8 2.677628 1_555
Na7 O22 2.876501 1_455
Na7 O12 2.925038 1_455
Na7 O29 2.943603 1_555
Na8 O64 2.317190 1_555
Na8 O27 2.382703 1_555
Na8 O42 2.451671 1_565
Na8 O44 2.807730 1_555
Na8 O6 2.851657 1_555
Na8 O63 2.918182 1_555
Na8 O23 2.986003 1_565
Na9 O61 2.322858 1_555
Na9 O26 2.421962 1_554
Na9 O47 2.461936 1_565
Na9 O45 2.613100 1_455
Na9 O11 2.730943 1_555
Na10 O45 2.390688 1_555
Na10 O62 2.417518 1_555
Na10 O24 2.524033 1_554
Na10 O60 2.646965 1_555
Na10 O19 2.748149 1_555
Na10 O46 2.761368 1_565
Na10 O9 2.783216 1_555
Na11 O46 2.405480 1_455
Na11 O61 2.590467 1_555
Na11 O60 2.701738 1_555
Na11 O25 2.764631 1_554
Na11 O10 2.828967 1_555
Na11 O47 2.882274 1_555
Na11 O15 2.899704 1_455
Na12 O41 2.476069 1_555
Na12 O40 2.502846 1_655
Na12 O4 2.517400 1_655
Na12 O55 2.672587 1_555
Na12 O33 2.793258 1_655
Na12 O54 2.884324 1_555
Na12 O26 2.932761 1_655
Na12 O19 3.018568 1_556
Na13 O5 2.242781 1_555
Na13 O39 2.429132 1_555
Na13 O56 2.449919 1_555
Na13 O34 2.621231 1_545
Na13 O55 2.651698 1_555
Na13 O41 2.910660 1_545
Na13 O20 2.978493 1_556
Na14 O3 2.244780 1_555
Na14 O40 2.341460 1_545
Na14 O54 2.491606 1_555
Na14 O56 2.630427 1_555
Na14 O18 2.939645 1_556
Na14 O35 2.954743 1_555
Na14 O39 3.032456 1_455
Na15 O37 2.324270 1_545
Na15 O59 2.457052 1_555
Na15 O2 2.495231 1_555
Na15 O57 2.613642 1_555
Na15 O23 2.688459 1_555
Na15 O38 2.875486 1_655
Na16 O0 2.324011 1_555
Na16 O38 2.415974 1_555
Na16 O57 2.425944 1_555
Na16 O58 2.580667 1_555
Na16 O36 2.742757 1_545
Na16 O31 2.766387 1_545
Na16 O21 2.928752 1_555
Na17 O58 2.505579 1_555
Na17 O37 2.598159 1_555
Na17 O36 2.687943 1_655
Na17 O22 2.734689 1_555
Na17 O27 2.822843 1_555
Na18 O42 2.281719 1_565
Na18 O43 2.503925 1_665
Na18 O44 2.523578 1_555
Na18 O37 2.656723 1_555
Na18 O36 2.716671 1_655
Na18 O38 2.939947 1_665
Na19 O47 2.336852 1_566
Na19 O40 2.494788 1_555
Na19 O41 2.542621 1_455
Na19 O46 2.569867 1_466
Na19 O45 2.624585 1_456
Na19 O39 2.815998 1_465
Na20 O48 2.281542 1_555
Na20 O54 2.503942 1_555
Na20 O49 2.542934 1_555
Na20 O50 2.713205 1_555
Na20 O56 2.720777 1_555
Na20 O55 2.821844 1_555
Na21 O59 2.360045 1_555
Na21 O53 2.436911 1_555
Na21 O58 2.443822 1_555
Na21 O57 2.505737 1_555
Na21 O52 2.797582 1_555
Na22 O66 2.273918 1_555
Na22 O68 2.543319 1_555
Na22 O67 2.556704 1_555
Na22 O61 2.589356 1_555
Na22 O60 2.717828 1_555
Na23 O71 2.376778 1_555
Na23 O65 2.381972 1_555
Na23 O64 2.572969 1_555
Na23 O70 2.724077 1_555
Na23 O69 2.730735 1_555
Ca0 O2 2.152450 1_555
Ca0 O0 2.192553 1_655
Ca0 O1 2.202934 1_545
Ca0 O38 2.237473 1_655
Ca0 O37 2.281710 1_545
Ca0 O36 2.456084 1_645
Ca1 O3 2.134564 1_555
Ca1 O5 2.174031 1_455
Ca1 O4 2.202666 1_545
Ca1 O39 2.293728 1_455
Ca1 O40 2.370286 1_545
Ca1 O41 2.556662 1_445
Ca2 O14 2.175033 1_555
Ca2 O12 2.180605 1_555
Ca2 O13 2.214763 1_555
Ca2 O50 2.291009 1_555
Ca2 O49 2.309094 1_555
Ca2 O48 2.326919 1_555
Ca3 O16 2.171364 1_555
Ca3 O15 2.177868 1_555
Ca3 O52 2.230911 1_555
Ca3 O51 2.237939 1_555
Ca3 O53 2.280354 1_555
Ca3 O17 2.346569 1_555
Ca4 O26 2.119163 1_554
Ca4 O25 2.183983 1_554
Ca4 O62 2.235268 1_555
Ca4 O61 2.283585 1_555
Ca4 O24 2.357203 1_554
Ca4 O60 2.476652 1_555
Ca5 O28 2.141571 1_555
Ca5 O27 2.159849 1_555
Ca5 O63 2.232525 1_555
Ca5 O64 2.260008 1_555
Ca5 O65 2.265397 1_555
Ca5 O29 2.340207 1_555
Al0 O6 1.776354 1_545
Al0 O42 1.814604 1_555
Al0 O7 1.873745 1_655
Al0 O44 1.940607 1_545
Al1 O11 1.763372 1_555
Al1 O10 1.837415 1_565
Al1 O45 1.885728 1_455
Al1 O9 1.955527 1_455
Al2 O19 1.834306 1_556
Al2 O56 1.853967 1_555
Al2 O55 2.008181 1_555
Al2 O18 2.050272 1_556
Al2 O54 2.170509 1_555
Al2 O20 2.209276 1_556
Al3 O23 1.769550 1_555
Al3 O22 1.844879 1_555
Al3 O57 1.894566 1_555
Al3 O21 1.928058 1_555
Al4 O66 1.805823 1_555
Al4 O31 1.834857 1_555
Al4 O68 1.896084 1_555
Al4 O30 1.909153 1_555
Al5 O71 1.788153 1_555
Al5 O69 1.831652 1_555
Al5 O34 1.835544 1_555
Al5 O70 1.893306 1_555
O0 Si0 1.597215 1_545
O1 S0 1.460508 1_555
O2 Si1 1.609275 1_655
O3 Si2 1.615354 1_555
O4 S1 1.470955 1_555
O5 Si3 1.606271 1_545
O6 Si3 1.660484 1_555
O7 Si2 1.711159 1_555
O8 S1 1.469232 1_555
O9 S0 1.526297 1_555
O10 Si1 1.729775 1_555
O11 Si0 1.671724 1_555
O12 Si4 1.597209 1_555
O13 S2 1.465035 1_555
O14 Si5 1.605773 1_555
O15 Si6 1.603496 1_555
O16 S3 1.469221 1_555
O17 S4 1.469097 1_555
O18 S4 1.511017 1_555
O19 Si6 1.697600 1_555
O20 S3 1.502535 1_555
O21 S2 1.521283 1_555
O22 Si5 1.730503 1_555
O23 Si4 1.671977 1_555
O24 S5 1.479836 1_555
O25 S6 1.475048 1_555
O26 Si7 1.614758 1_555
O27 Si8 1.601646 1_555
O28 S7 1.466448 1_555
O29 S8 1.465507 1_555
O30 S8 1.519846 1_555
O31 Si8 1.714589 1_555
O32 S7 1.485273 1_555
O33 S6 1.468120 1_555
O34 Si7 1.715619 1_555
O35 S5 1.473981 1_555
O36 S8 1.488705 1_555
O37 Si8 1.638067 1_555
O38 S7 1.490854 1_555
O39 S6 1.481312 1_655
O40 Si7 1.636816 1_555
O41 S5 1.492061 1_555
O42 Si4 1.670406 1_555
O43 S2 1.475076 1_555
O44 Si5 1.706273 1_555
O45 Si6 1.724271 1_555
O46 S3 1.488659 1_555
O47 S4 1.486722 1_555
O48 Si3 1.622669 1_545
O49 Si2 1.630828 1_555
O50 S1 1.473906 1_655
O51 S0 1.469691 1_555
O52 Si1 1.627570 1_655
O53 Si0 1.628614 1_545
O54 S5 1.528835 1_555
O55 S6 1.527430 1_655
O56 Si7 1.697080 1_545
O57 Si8 1.714788 1_545
O58 S7 1.496399 1_555
O59 S8 1.481145 1_655
O60 S4 1.499628 1_555
O61 Si6 1.645457 1_455
O62 S3 1.488191 1_565
O63 S2 1.474899 1_565
O64 Si5 1.634295 1_555
O65 Si4 1.628799 1_455
O66 Si0 1.672721 1_555
O67 S0 1.484463 1_555
O68 Si1 1.708752 1_555
O69 Si2 1.692198 1_555
O70 S1 1.521669 1_555
O71 Si3 1.682158 1_555
