# generated using pymatgen
data_SrHBr
_symmetry_space_group_name_H-M   'P 1'
_cell_length_a   4.23942733
_cell_length_b   4.23942733
_cell_length_c   7.28807182
_cell_angle_alpha   90.00000000
_cell_angle_beta   90.00000000
_cell_angle_gamma   90.00000000
_symmetry_Int_Tables_number   1
_chemical_formula_structural   SrHBr
_chemical_formula_sum   'Sr2 H2 Br2'
_cell_volume   130.98664970
_cell_formula_units_Z   2
loop_
 _symmetry_equiv_pos_site_id
 _symmetry_equiv_pos_as_xyz
  1  'x, y, z'
loop_
 _atom_site_type_symbol
 _atom_site_label
 _atom_site_symmetry_multiplicity
 _atom_site_fract_x
 _atom_site_fract_y
 _atom_site_fract_z
 _atom_site_occupancy
  Sr  Sr0  1  0.50000000  -0.00000000  0.81304207  1
  Sr  Sr1  1  0.00000000  0.50000000  0.18695793  1
  H  H0  1  0.50000000  0.50000000  0.00000000  1
  H  H1  1  0.00000000  0.00000000  0.00000000  1
  Br  Br0  1  0.00000000  0.50000000  0.65286429  1
  Br  Br1  1  0.50000000  0.00000000  0.34713571  1
loop_
_geom_bond_atom_site_label_1
_geom_bond_atom_site_label_2
_geom_bond_distance
_geom_bond_site_symmetry_2
H0 Sr1 2.519874 1_655
H0 Sr0 2.519874 1_554
H0 Sr1 2.519874 1_555
H0 Sr0 2.519874 1_564
H1 Sr1 2.519874 1_545
H1 Sr0 2.519874 1_554
H1 Sr0 2.519874 1_454
H1 Sr1 2.519874 1_555
Br0 Sr0 3.217012 1_555
Br0 Sr0 3.217012 1_565
Br0 Sr0 3.217012 1_455
Br0 Sr0 3.217012 1_465
Br0 Sr1 3.395559 1_555
Br1 Sr1 3.217012 1_645
Br1 Sr1 3.217012 1_655
Br1 Sr1 3.217012 1_555
Br1 Sr1 3.217012 1_545
Br1 Sr0 3.395559 1_555
