# generated using pymatgen
data_Pr3Sb5O12
_symmetry_space_group_name_H-M   'P 1'
_cell_length_a   9.59004172
_cell_length_b   9.59004172
_cell_length_c   9.59004172
_cell_angle_alpha   109.47122063
_cell_angle_beta   109.47122063
_cell_angle_gamma   109.47122063
_symmetry_Int_Tables_number   1
_chemical_formula_structural   Pr3Sb5O12
_chemical_formula_sum   'Pr6 Sb10 O24'
_cell_volume   678.95282409
_cell_formula_units_Z   2
loop_
 _symmetry_equiv_pos_site_id
 _symmetry_equiv_pos_as_xyz
  1  'x, y, z'
loop_
 _atom_site_type_symbol
 _atom_site_label
 _atom_site_symmetry_multiplicity
 _atom_site_fract_x
 _atom_site_fract_y
 _atom_site_fract_z
 _atom_site_occupancy
  Pr  Pr0  1  0.75000000  0.50000000  0.25000000  1
  Pr  Pr1  1  0.25000000  0.75000000  0.50000000  1
  Pr  Pr2  1  0.75000000  0.25000000  0.50000000  1
  Pr  Pr3  1  0.50000000  0.25000000  0.75000000  1
  Pr  Pr4  1  0.50000000  0.75000000  0.25000000  1
  Pr  Pr5  1  0.25000000  0.50000000  0.75000000  1
  Sb  Sb0  1  0.49406278  0.49406278  0.49406278  1
  Sb  Sb1  1  -0.00000000  0.50593722  -0.00000000  1
  Sb  Sb2  1  0.50593722  0.00000000  -0.00000000  1
  Sb  Sb3  1  -0.00000000  -0.00000000  0.50593722  1
  Sb  Sb4  1  0.00000000  0.72179889  0.72179889  1
  Sb  Sb5  1  -0.00000000  0.27820111  0.27820111  1
  Sb  Sb6  1  0.27820111  -0.00000000  0.27820111  1
  Sb  Sb7  1  0.72179889  -0.00000000  0.72179889  1
  Sb  Sb8  1  0.27820111  0.27820111  -0.00000000  1
  Sb  Sb9  1  0.72179889  0.72179889  0.00000000  1
  O  O0  1  0.53014744  0.53014744  0.72503183  1
  O  O1  1  0.00000000  0.19488439  0.46985256  1
  O  O2  1  0.19488439  -0.00000000  0.46985256  1
  O  O3  1  0.80511561  0.27496817  0.80511561  1
  O  O4  1  0.27496817  0.80511561  0.80511561  1
  O  O5  1  0.72503183  0.53014744  0.53014744  1
  O  O6  1  -0.00000000  0.46985256  0.19488439  1
  O  O7  1  0.46985256  0.00000000  0.19488439  1
  O  O8  1  0.53014744  0.72503183  0.53014744  1
  O  O9  1  0.19488439  0.46985256  -0.00000000  1
  O  O10  1  0.46985256  0.19488439  0.00000000  1
  O  O11  1  0.80511561  0.80511561  0.27496817  1
  O  O12  1  0.51346806  0.00000000  0.70886579  1
  O  O13  1  0.29113421  0.29113421  0.80460226  1
  O  O14  1  -0.00000000  0.70886579  0.51346806  1
  O  O15  1  0.19539774  0.48653194  0.48653194  1
  O  O16  1  0.70886579  -0.00000000  0.51346806  1
  O  O17  1  0.80460226  0.29113421  0.29113421  1
  O  O18  1  -0.00000000  0.51346806  0.70886579  1
  O  O19  1  0.48653194  0.48653194  0.19539774  1
  O  O20  1  0.51346806  0.70886579  -0.00000000  1
  O  O21  1  0.29113421  0.80460226  0.29113421  1
  O  O22  1  0.48653194  0.19539774  0.48653194  1
  O  O23  1  0.70886579  0.51346806  0.00000000  1
loop_
_geom_bond_atom_site_label_1
_geom_bond_atom_site_label_2
_geom_bond_distance
_geom_bond_site_symmetry_2
O0 Sb0 2.010944 1_555
O0 Sb9 2.235059 1_556
O0 Pr5 2.704823 1_555
O0 Pr3 2.704823 1_555
O1 Sb3 2.010944 1_555
O1 Sb5 2.235059 1_555
O1 Pr5 2.704823 1_555
O1 Pr2 2.704823 1_455
O2 Sb3 2.010944 1_555
O2 Sb6 2.235059 1_555
O2 Pr3 2.704823 1_555
O2 Pr1 2.704823 1_545
O3 Sb1 2.010944 1_656
O3 Sb7 2.235059 1_555
O3 Pr2 2.704823 1_555
O3 Pr3 2.704823 1_555
O4 Sb2 2.010944 1_566
O4 Sb4 2.235059 1_555
O4 Pr1 2.704823 1_555
O4 Pr5 2.704823 1_555
O5 Sb0 2.010944 1_555
O5 Sb4 2.235059 1_655
O5 Pr2 2.704823 1_555
O5 Pr0 2.704823 1_555
O6 Sb1 2.010944 1_555
O6 Sb5 2.235059 1_555
O6 Pr0 2.704823 1_455
O6 Pr1 2.704823 1_555
O7 Sb2 2.010944 1_555
O7 Sb6 2.235059 1_555
O7 Pr4 2.704823 1_545
O7 Pr2 2.704823 1_555
O8 Sb0 2.010944 1_555
O8 Sb7 2.235059 1_565
O8 Pr1 2.704823 1_555
O8 Pr4 2.704823 1_555
O9 Sb1 2.010944 1_555
O9 Sb8 2.235059 1_555
O9 Pr5 2.704823 1_554
O9 Pr4 2.704823 1_555
O10 Sb2 2.010944 1_555
O10 Sb8 2.235059 1_555
O10 Pr0 2.704823 1_555
O10 Pr3 2.704823 1_554
O11 Sb3 2.010944 1_665
O11 Sb9 2.235059 1_555
O11 Pr0 2.704823 1_555
O11 Pr4 2.704823 1_555
O12 Sb7 1.960050 1_555
O12 Pr3 2.351648 1_555
O12 Pr1 2.351648 1_545
O13 Sb8 1.960050 1_556
O13 Pr3 2.351648 1_555
O13 Pr5 2.351648 1_555
O14 Sb4 1.960050 1_555
O14 Pr0 2.351648 1_455
O14 Pr1 2.351648 1_555
O15 Sb5 1.960050 1_555
O15 Pr1 2.351648 1_555
O15 Pr5 2.351648 1_555
O16 Sb7 1.960050 1_555
O16 Pr4 2.351648 1_545
O16 Pr2 2.351648 1_555
O17 Sb5 1.960050 1_655
O17 Pr0 2.351648 1_555
O17 Pr2 2.351648 1_555
O18 Sb4 1.960050 1_555
O18 Pr5 2.351648 1_555
O18 Pr2 2.351648 1_455
O19 Sb8 1.960050 1_555
O19 Pr0 2.351648 1_555
O19 Pr4 2.351648 1_555
O20 Sb9 1.960050 1_555
O20 Pr5 2.351648 1_554
O20 Pr4 2.351648 1_555
O21 Sb6 1.960050 1_565
O21 Pr4 2.351648 1_555
O21 Pr1 2.351648 1_555
O22 Sb6 1.960050 1_555
O22 Pr2 2.351648 1_555
O22 Pr3 2.351648 1_555
O23 Sb9 1.960050 1_555
O23 Pr0 2.351648 1_555
O23 Pr3 2.351648 1_554
