# generated using pymatgen
data_Na10Ca2Zr6Si7S5O48
_symmetry_space_group_name_H-M   'P 1'
_cell_length_a   18.45621224
_cell_length_b   9.24292112
_cell_length_c   23.28726257
_cell_angle_alpha   89.98264956
_cell_angle_beta   89.92694243
_cell_angle_gamma   120.02603327
_symmetry_Int_Tables_number   1
_chemical_formula_structural   Na10Ca2Zr6Si7S5O48
_chemical_formula_sum   'Na30 Ca6 Zr18 Si21 S15 O144'
_cell_volume   3439.42859076
_cell_formula_units_Z   3
loop_
 _symmetry_equiv_pos_site_id
 _symmetry_equiv_pos_as_xyz
  1  'x, y, z'
loop_
 _atom_site_type_symbol
 _atom_site_label
 _atom_site_symmetry_multiplicity
 _atom_site_fract_x
 _atom_site_fract_y
 _atom_site_fract_z
 _atom_site_occupancy
  Na  Na0  1  0.81592287  0.01164705  0.24942271  1
  Na  Na1  1  0.18925819  0.38045917  0.24697685  1
  Na  Na2  1  0.69111791  0.36128442  0.25478844  1
  Na  Na3  1  0.99089359  0.60981271  0.25494091  1
  Na  Na4  1  0.49473187  0.63904696  0.24317933  1
  Na  Na5  1  0.31750860  0.62011293  0.75037009  1
  Na  Na6  1  0.99479015  0.34978571  0.74524148  1
  Na  Na7  1  0.49083122  0.37565384  0.75451848  1
  Na  Na8  1  0.19353804  0.02496055  0.74636773  1
  Na  Na9  1  0.68854725  0.99503556  0.74792704  1
  Na  Na10  1  0.14829272  0.32692028  0.57901457  1
  Na  Na11  1  0.01653124  0.69087381  0.58386481  1
  Na  Na12  1  0.48970874  0.66553605  0.91820825  1
  Na  Na13  1  0.99644821  0.68251946  0.92227366  1
  Na  Na14  1  0.84733951  0.02125204  0.91354566  1
  Na  Na15  1  0.49672116  0.31383169  0.42169861  1
  Na  Na16  1  0.16295707  0.02187954  0.42002122  1
  Na  Na17  1  0.34873531  0.66896914  0.41235307  1
  Na  Na18  1  0.99650947  0.00451715  0.50054644  1
  Na  Na19  1  0.51548262  0.01148098  0.49389669  1
  Na  Na20  1  0.01330993  0.01746510  0.99453660  1
  Na  Na21  1  0.50518058  0.01491988  0.00153628  1
  Na  Na22  1  0.32668342  0.31408749  0.82891288  1
  Na  Na23  1  0.83125065  0.33065265  0.83186106  1
  Na  Na24  1  0.33825890  0.34530734  0.33195198  1
  Na  Na25  1  0.83067084  0.33803773  0.33015566  1
  Na  Na26  1  0.17601884  0.67135056  0.16468900  1
  Na  Na27  1  0.65950830  0.67248458  0.16210141  1
  Na  Na28  1  0.17018440  0.67922498  0.66345173  1
  Na  Na29  1  0.67430237  0.68119183  0.66500714  1
  Ca  Ca0  1  0.33104375  0.32572920  0.68446774  1
  Ca  Ca1  1  0.83761287  0.33144332  0.68185866  1
  Ca  Ca2  1  0.33952767  0.34405308  0.18103208  1
  Ca  Ca3  1  0.83242057  0.33160803  0.18472255  1
  Ca  Ca4  1  0.16420709  0.66729718  0.01631589  1
  Ca  Ca5  1  0.66315213  0.66125023  0.51597182  1
  Zr  Zr0  1  0.99582102  0.99855577  0.35448750  1
  Zr  Zr1  1  0.50261392  0.99061259  0.35418350  1
  Zr  Zr2  1  0.00152544  0.01376350  0.85440926  1
  Zr  Zr3  1  0.49935902  0.00387962  0.85472714  1
  Zr  Zr4  1  0.99814544  0.01864796  0.64642948  1
  Zr  Zr5  1  0.49591937  0.98830931  0.64936418  1
  Zr  Zr6  1  0.99511770  0.00466112  0.14841681  1
  Zr  Zr7  1  0.49524711  0.96964196  0.14622991  1
  Zr  Zr8  1  0.33583848  0.32452325  0.98134417  1
  Zr  Zr9  1  0.83173910  0.33708746  0.97752685  1
  Zr  Zr10  1  0.33022840  0.32337551  0.48024495  1
  Zr  Zr11  1  0.83567235  0.33968864  0.47819669  1
  Zr  Zr12  1  0.66093926  0.65984788  0.01395434  1
  Zr  Zr13  1  0.16388620  0.66985343  0.51358780  1
  Zr  Zr14  1  0.16896561  0.66303427  0.31761582  1
  Zr  Zr15  1  0.66530275  0.66182231  0.31783102  1
  Zr  Zr16  1  0.16567524  0.67014153  0.81806555  1
  Zr  Zr17  1  0.67085338  0.67609412  0.81769122  1
  Si  Si0  1  0.64457041  0.99198628  0.25006771  1
  Si  Si1  1  0.34983076  0.70598395  0.25252906  1
  Si  Si2  1  0.85216465  0.71170929  0.25129783  1
  Si  Si3  1  0.00404583  0.29663347  0.25120484  1
  Si  Si4  1  0.14512307  0.29962420  0.75001683  1
  Si  Si5  1  0.50400182  0.71181226  0.75306806  1
  Si  Si6  1  0.35240356  0.99287958  0.75168914  1
  Si  Si7  1  0.84999254  0.99267477  0.75207699  1
  Si  Si8  1  0.98294888  0.33810084  0.58324013  1
  Si  Si9  1  0.18136039  0.02790478  0.58567781  1
  Si  Si10  1  0.48519965  0.63157426  0.08290149  1
  Si  Si11  1  0.81246601  0.66784836  0.91785856  1
  Si  Si12  1  0.01909579  0.37272464  0.91798948  1
  Si  Si13  1  0.51920966  0.37156862  0.91413287  1
  Si  Si14  1  0.16806486  0.96807135  0.91589808  1
  Si  Si15  1  0.66533651  0.96064928  0.91695725  1
  Si  Si16  1  0.31351085  0.95878813  0.41623076  1
  Si  Si17  1  0.16565780  0.36964945  0.41873651  1
  Si  Si18  1  0.66760935  0.36826967  0.41577462  1
  Si  Si19  1  0.01762439  0.66409324  0.41339433  1
  Si  Si20  1  0.51800866  0.66414687  0.41794572  1
  S  S0  1  0.14186362  0.99544398  0.25033545  1
  S  S1  1  0.50173310  0.28959753  0.25133475  1
  S  S2  1  0.64197193  0.28919744  0.74987643  1
  S  S3  1  0.00111391  0.71165068  0.75142328  1
  S  S4  1  0.48279958  0.32710878  0.58497167  1
  S  S5  1  0.68225807  0.03801799  0.58467008  1
  S  S6  1  0.33543731  0.63489051  0.58196873  1
  S  S7  1  0.83386445  0.62895952  0.58396889  1
  S  S8  1  0.98153136  0.63694626  0.08480493  1
  S  S9  1  0.33646295  0.03770865  0.08478911  1
  S  S10  1  0.83373677  0.03260225  0.08191809  1
  S  S11  1  0.18262714  0.32619285  0.08492931  1
  S  S12  1  0.68325089  0.33403779  0.08355713  1
  S  S13  1  0.31486558  0.66402083  0.91664770  1
  S  S14  1  0.81398311  0.96493293  0.41660903  1
  O  O0  1  0.10298286  0.01626271  0.30355934  1
  O  O1  1  0.59689570  0.01980645  0.30400333  1
  O  O2  1  0.40635607  0.80255612  0.30825214  1
  O  O3  1  0.91341512  0.80951886  0.30575117  1
  O  O4  1  0.49386092  0.19624594  0.30469831  1
  O  O5  1  0.99793891  0.17828498  0.30522301  1
  O  O6  1  0.09346386  0.17154206  0.80179485  1
  O  O7  1  0.60178686  0.18605949  0.80171009  1
  O  O8  1  0.49833206  0.81233236  0.80904775  1
  O  O9  1  0.99351054  0.79294819  0.80304486  1
  O  O10  1  0.41314363  0.01031017  0.80539960  1
  O  O11  1  0.90562543  0.00979500  0.80836173  1
  O  O12  1  0.40128108  0.97010735  0.69462272  1
  O  O13  1  0.90060550  0.98134395  0.69502568  1
  O  O14  1  0.08902802  0.21176285  0.69069721  1
  O  O15  1  0.58986810  0.20515393  0.69795035  1
  O  O16  1  0.00993140  0.80910384  0.69827771  1
  O  O17  1  0.51729617  0.83670744  0.69646112  1
  O  O18  1  0.39913987  0.81706201  0.19474008  1
  O  O19  1  0.90151461  0.83511178  0.19491518  1
  O  O20  1  0.01771498  0.20257088  0.19393944  1
  O  O21  1  0.51131527  0.20692731  0.20033333  1
  O  O22  1  0.08830558  0.97596719  0.19932510  1
  O  O23  1  0.58490322  0.96716069  0.19356180  1
  O  O24  1  0.44222303  0.34138464  0.63726954  1
  O  O25  1  0.95539394  0.38341422  0.64349055  1
  O  O26  1  0.22873670  0.09966930  0.64524743  1
  O  O27  1  0.72587469  0.11511208  0.63947549  1
  O  O28  1  0.32481052  0.53966221  0.63497896  1
  O  O29  1  0.82338306  0.53137920  0.63649173  1
  O  O30  1  0.45229894  0.54373823  0.14462384  1
  O  O31  1  0.93998445  0.54232460  0.13702844  1
  O  O32  1  0.32532938  0.11469802  0.13661418  1
  O  O33  1  0.82472433  0.10621831  0.13567726  1
  O  O34  1  0.22572472  0.33601748  0.13975711  1
  O  O35  1  0.72825267  0.35463327  0.13793200  1
  O  O36  1  0.22926382  0.31025770  0.03517789  1
  O  O37  1  0.73066931  0.31363089  0.03466904  1
  O  O38  1  0.42266261  0.52680810  0.02794272  1
  O  O39  1  0.92952381  0.54828121  0.03264715  1
  O  O40  1  0.34283975  0.14200970  0.03267622  1
  O  O41  1  0.84343754  0.14054589  0.03140358  1
  O  O42  1  0.23085196  0.15779253  0.53030269  1
  O  O43  1  0.72789542  0.14576176  0.53476550  1
  O  O44  1  0.34625267  0.55089441  0.53083678  1
  O  O45  1  0.84293170  0.54005067  0.53268428  1
  O  O46  1  0.43065620  0.31135151  0.53272702  1
  O  O47  1  0.91917285  0.32031820  0.53081574  1
  O  O48  1  0.27928816  0.69022577  0.96681908  1
  O  O49  1  0.76962387  0.70588818  0.97215165  1
  O  O50  1  0.07425593  0.44677411  0.97309512  1
  O  O51  1  0.57886553  0.46480182  0.96905755  1
  O  O52  1  0.14414613  0.84477714  0.96922938  1
  O  O53  1  0.64880115  0.83265012  0.96923271  1
  O  O54  1  0.26976746  0.83399662  0.47065909  1
  O  O55  1  0.77828693  0.86646046  0.46758850  1
  O  O56  1  0.15463750  0.45658969  0.47591364  1
  O  O57  1  0.64442396  0.44477952  0.46906728  1
  O  O58  1  0.07854052  0.69815161  0.46944891  1
  O  O59  1  0.57358731  0.70254130  0.47304394  1
  O  O60  1  0.06109443  0.63938907  0.35557369  1
  O  O61  1  0.56177490  0.63219418  0.35950318  1
  O  O62  1  0.25007142  0.87505933  0.36142583  1
  O  O63  1  0.76373565  0.88298433  0.36329441  1
  O  O64  1  0.18386099  0.49152216  0.36216682  1
  O  O65  1  0.68233334  0.48527724  0.35629360  1
  O  O66  1  0.06102082  0.49221218  0.85952506  1
  O  O67  1  0.56003253  0.48875014  0.85635001  1
  O  O68  1  0.18262322  0.87901764  0.85679976  1
  O  O69  1  0.68627400  0.88473405  0.85874816  1
  O  O70  1  0.26453870  0.64448598  0.86301305  1
  O  O71  1  0.75337817  0.63504094  0.86117348  1
  O  O72  1  0.01376407  0.83750886  0.40895801  1
  O  O73  1  0.49616109  0.81496628  0.40914502  1
  O  O74  1  0.40744541  0.98945289  0.40927296  1
  O  O75  1  0.90013714  0.98882689  0.40943517  1
  O  O76  1  0.08845749  0.17879108  0.41092494  1
  O  O77  1  0.58206572  0.18665901  0.40520075  1
  O  O78  1  0.99600096  0.17815790  0.90919791  1
  O  O79  1  0.50735275  0.18521411  0.90972889  1
  O  O80  1  0.08291900  0.97974117  0.90467070  1
  O  O81  1  0.58080370  0.97321742  0.91139246  1
  O  O82  1  0.40204622  0.81047735  0.90905559  1
  O  O83  1  0.90716983  0.82672860  0.91003765  1
  O  O84  1  0.48806049  0.16915407  0.58712863  1
  O  O85  1  0.99090473  0.16640525  0.58461448  1
  O  O86  1  0.08609574  0.00763035  0.58730080  1
  O  O87  1  0.59695042  0.02597464  0.58632154  1
  O  O88  1  0.41209987  0.80524422  0.58553610  1
  O  O89  1  0.91674278  0.79101512  0.58683757  1
  O  O90  1  0.49061622  0.81908652  0.08287608  1
  O  O91  1  0.98757785  0.80601543  0.08676137  1
  O  O92  1  0.41727760  0.03647373  0.08680394  1
  O  O93  1  0.91361504  0.02339616  0.08466671  1
  O  O94  1  0.09759362  0.16728878  0.08585940  1
  O  O95  1  0.59846144  0.18313491  0.08540390  1
  O  O96  1  0.34503001  0.15899068  0.75086652  1
  O  O97  1  0.84016252  0.16005916  0.75148041  1
  O  O98  1  0.23810253  0.32557557  0.74909003  1
  O  O99  1  0.72529444  0.30449947  0.74540291  1
  O  O100  1  0.41983717  0.53250495  0.74903870  1
  O  O101  1  0.92917884  0.53902252  0.74923961  1
  O  O102  1  0.33983161  0.51913794  0.25222557  1
  O  O103  1  0.84237473  0.52850518  0.24794992  1
  O  O104  1  0.42995774  0.31893784  0.24886580  1
  O  O105  1  0.91977047  0.30784520  0.24845088  1
  O  O106  1  0.22495142  0.14631809  0.24534511  1
  O  O107  1  0.73715987  0.15389537  0.24725722  1
  O  O108  1  0.32518494  0.51294063  0.91952715  1
  O  O109  1  0.82504149  0.50410970  0.92740155  1
  O  O110  1  0.42808554  0.36374961  0.92386353  1
  O  O111  1  0.92463364  0.35899326  0.92453035  1
  O  O112  1  0.25060744  0.15568255  0.92401650  1
  O  O113  1  0.75087984  0.14180007  0.92783104  1
  O  O114  1  0.32066480  0.14266510  0.42616503  1
  O  O115  1  0.82199305  0.13323513  0.41976691  1
  O  O116  1  0.25264244  0.35854080  0.42499464  1
  O  O117  1  0.74932665  0.34335126  0.42363456  1
  O  O118  1  0.42464875  0.48940790  0.42342375  1
  O  O119  1  0.92519619  0.50024020  0.42384725  1
  O  O120  1  0.17275163  0.47324171  0.08061551  1
  O  O121  1  0.67650727  0.48556553  0.07487163  1
  O  O122  1  0.06548147  0.65778996  0.08172882  1
  O  O123  1  0.58005099  0.65919673  0.07479280  1
  O  O124  1  0.26566480  0.86741234  0.07902099  1
  O  O125  1  0.76169311  0.86414833  0.07571314  1
  O  O126  1  0.16683274  0.83890041  0.57491926  1
  O  O127  1  0.67262172  0.87119811  0.58096969  1
  O  O128  1  0.25937505  0.64975381  0.57592346  1
  O  O129  1  0.76504293  0.66174619  0.57824766  1
  O  O130  1  0.07951255  0.49396836  0.57324418  1
  O  O131  1  0.56688998  0.47254988  0.58146072  1
  O  O132  1  0.14588796  0.83936372  0.25326377  1
  O  O133  1  0.64905988  0.81822830  0.25609531  1
  O  O134  1  0.25618860  0.68681629  0.25423020  1
  O  O135  1  0.76122643  0.70437831  0.25605539  1
  O  O136  1  0.08812538  0.48264377  0.25439503  1
  O  O137  1  0.58152124  0.46010986  0.25425790  1
  O  O138  1  0.14815962  0.48085943  0.75668241  1
  O  O139  1  0.64568468  0.45224843  0.75396751  1
  O  O140  1  0.08100088  0.70197580  0.75401951  1
  O  O141  1  0.58829090  0.69394445  0.75435566  1
  O  O142  1  0.26082427  0.81862114  0.75560549  1
  O  O143  1  0.75620317  0.82521527  0.75325420  1
loop_
_geom_bond_atom_site_label_1
_geom_bond_atom_site_label_2
_geom_bond_distance
_geom_bond_site_symmetry_2
Na0 O107 2.399433 1_555
Na0 O105 2.432628 1_555
Na0 O135 2.497787 1_545
Na0 O133 2.681998 1_545
Na0 O33 2.768051 1_555
Na0 O63 2.866885 1_545
Na1 O102 2.411824 1_555
Na1 O134 2.464307 1_555
Na1 O136 2.483826 1_555
Na1 O106 2.558459 1_555
Na1 O34 2.670020 1_555
Na1 O64 2.891821 1_555
Na1 O20 3.009013 1_555
Na2 O103 2.426522 1_555
Na2 O107 2.461153 1_555
Na2 O137 2.602911 1_555
Na2 O65 2.667169 1_555
Na2 O135 2.761375 1_555
Na2 O35 2.813594 1_555
Na2 O1 2.966351 1_555
Na3 O105 2.422830 1_555
Na3 O103 2.458556 1_555
Na3 O132 2.571339 1_655
Na3 O136 2.590950 1_655
Na3 O60 2.626575 1_655
Na3 O31 2.869274 1_555
Na4 O30 2.443799 1_555
Na4 O133 2.495540 1_555
Na4 O102 2.504634 1_555
Na4 O104 2.580760 1_555
Na4 O137 2.831930 1_555
Na4 O23 2.871242 1_555
Na4 O61 2.993309 1_555
Na5 O98 2.359520 1_555
Na5 O100 2.398715 1_555
Na5 O142 2.529164 1_555
Na5 O138 2.723949 1_555
Na5 O28 2.809345 1_555
Na5 O70 2.846335 1_555
Na6 O138 2.474115 1_655
Na6 O97 2.496197 1_555
Na6 O25 2.543611 1_555
Na6 O101 2.579519 1_555
Na6 O140 2.826277 1_655
Na6 O14 2.912369 1_655
Na6 O66 2.951265 1_655
Na7 O100 2.395065 1_555
Na7 O96 2.422057 1_555
Na7 O141 2.567975 1_555
Na7 O139 2.577701 1_555
Na7 O67 2.649616 1_555
Na7 O24 2.843003 1_555
Na8 O96 2.428473 1_555
Na8 O26 2.447484 1_555
Na8 O98 2.472652 1_555
Na8 O140 2.655406 1_545
Na8 O142 2.756179 1_545
Na8 O68 2.863263 1_545
Na9 O97 2.427489 1_565
Na9 O143 2.449511 1_555
Na9 O141 2.456953 1_555
Na9 O99 2.589088 1_565
Na9 O27 2.704331 1_565
Na9 O69 2.767056 1_555
Na10 O130 2.444446 1_555
Na10 O85 2.518302 1_455
Na10 O86 2.583231 1_555
Na10 O128 2.643729 1_555
Na10 O56 2.659278 1_555
Na10 O14 2.814129 1_555
Na10 O42 2.903917 1_555
Na11 O126 2.410479 1_555
Na11 O89 2.441145 1_455
Na11 O86 2.542648 1_565
Na11 O130 2.615609 1_555
Na11 O25 2.839303 1_455
Na11 O58 2.885928 1_555
Na11 O16 2.905514 1_555
Na12 O110 2.432282 1_555
Na12 O81 2.480614 1_555
Na12 O82 2.574440 1_555
Na12 O108 2.631372 1_555
Na12 O53 2.808968 1_555
Na12 O38 2.847375 1_556
Na12 O8 2.847646 1_555
Na12 O67 2.923832 1_555
Na13 O80 2.423218 1_655
Na13 O111 2.595135 1_555
Na13 O83 2.602286 1_555
Na13 O52 2.606307 1_655
Na13 O109 2.742168 1_555
Na13 O39 2.850923 1_556
Na13 O66 2.957140 1_655
Na13 O9 2.967795 1_555
Na14 O78 2.378760 1_555
Na14 O83 2.538800 1_545
Na14 O113 2.550575 1_555
Na14 O11 2.697342 1_555
Na14 O111 2.718495 1_555
Na14 O49 2.867901 1_545
Na14 O69 2.883404 1_545
Na14 O41 2.972293 1_556
Na15 O77 2.421159 1_555
Na15 O118 2.562201 1_555
Na15 O57 2.611405 1_555
Na15 O74 2.616409 1_545
Na15 O114 2.815360 1_555
Na15 O46 2.852411 1_555
Na15 O4 2.924428 1_555
Na15 O61 2.942002 1_555
Na16 O72 2.420412 1_545
Na16 O76 2.456656 1_555
Na16 O114 2.547160 1_555
Na16 O116 2.698538 1_555
Na16 O58 2.834307 1_545
Na16 O42 2.859809 1_555
Na16 O62 2.909921 1_545
Na16 O0 2.921218 1_555
Na17 O73 2.356861 1_555
Na17 O116 2.523919 1_555
Na17 O74 2.596406 1_555
Na17 O118 2.666795 1_555
Na17 O2 2.685121 1_555
Na17 O64 2.886334 1_555
Na17 O54 2.918123 1_555
Na17 O44 2.958705 1_555
Na18 O85 2.497695 1_555
Na18 O86 2.603281 1_655
Na18 O76 2.661483 1_655
Na18 O89 2.679960 1_545
Na18 O75 2.727288 1_545
Na18 O72 2.743265 1_645
Na19 O77 2.529471 1_555
Na19 O73 2.584053 1_545
Na19 O87 2.591921 1_555
Na19 O74 2.739483 1_545
Na19 O84 2.798405 1_555
Na19 O88 2.859296 1_545
Na20 O80 2.567781 1_545
Na20 O94 2.591236 1_556
Na20 O78 2.594638 1_455
Na20 O83 2.715365 1_445
Na20 O91 2.779149 1_446
Na20 O93 2.808033 1_456
Na21 O90 2.538942 1_545
Na21 O95 2.554855 1_555
Na21 O92 2.632493 1_555
Na21 O79 2.642825 1_554
Na21 O81 2.652296 1_544
Na21 O82 2.871455 1_544
Na22 O96 2.441060 1_555
Na22 O98 2.514115 1_555
Na22 O112 2.636806 1_555
Na22 O100 2.647119 1_555
Na22 O110 2.784562 1_555
Na22 O108 2.807987 1_555
Na23 O97 2.505525 1_555
Na23 O101 2.680114 1_555
Na23 O111 2.693341 1_555
Na23 O99 2.733776 1_555
Na23 O113 2.764023 1_555
Na23 O109 2.778309 1_555
Na24 O102 2.445551 1_555
Na24 O118 2.595901 1_555
Na24 O104 2.659335 1_555
Na24 O116 2.718702 1_555
Na24 O114 2.795369 1_555
Na24 O106 2.826195 1_555
Na25 O103 2.535150 1_555
Na25 O107 2.583200 1_555
Na25 O105 2.617990 1_555
Na25 O117 2.657180 1_555
Na25 O119 2.728679 1_555
Na25 O115 2.767143 1_555
Na26 O134 2.520723 1_555
Na26 O124 2.643882 1_555
Na26 O120 2.661145 1_555
Na26 O136 2.682383 1_555
Na26 O122 2.768449 1_555
Na26 O132 2.799770 1_555
Na27 O123 2.475271 1_555
Na27 O133 2.627481 1_555
Na27 O125 2.717860 1_555
Na27 O137 2.773541 1_555
Na27 O121 2.784352 1_555
Na27 O135 2.802735 1_555
Na28 O126 2.553895 1_555
Na28 O142 2.630143 1_555
Na28 O130 2.699772 1_555
Na28 O128 2.716449 1_555
Na28 O138 2.736777 1_555
Na28 O140 2.745818 1_555
Na29 O143 2.505175 1_555
Na29 O127 2.639639 1_555
Na29 O141 2.653696 1_555
Na29 O129 2.685485 1_555
Na29 O131 2.760485 1_555
Na29 O139 2.815063 1_555
Ca0 O26 2.196005 1_555
Ca0 O24 2.266382 1_555
Ca0 O98 2.279920 1_555
Ca0 O96 2.286999 1_555
Ca0 O100 2.339424 1_555
Ca0 O28 2.340510 1_555
Ca1 O25 2.168917 1_555
Ca1 O29 2.255088 1_555
Ca1 O27 2.259377 1_555
Ca1 O97 2.283289 1_555
Ca1 O101 2.400600 1_555
Ca1 O99 2.454436 1_555
Ca2 O30 2.146478 1_555
Ca2 O32 2.253593 1_555
Ca2 O34 2.278160 1_555
Ca2 O102 2.315192 1_555
Ca2 O104 2.393536 1_555
Ca2 O106 2.485447 1_555
Ca3 O107 2.238686 1_555
Ca3 O31 2.256436 1_555
Ca3 O103 2.276279 1_555
Ca3 O105 2.282534 1_555
Ca3 O35 2.311586 1_555
Ca3 O33 2.317394 1_555
Ca4 O50 2.131363 1_554
Ca4 O52 2.153659 1_554
Ca4 O48 2.329773 1_554
Ca4 O122 2.341106 1_555
Ca4 O124 2.366895 1_555
Ca4 O120 2.401283 1_555
Ca5 O59 2.124349 1_555
Ca5 O57 2.150812 1_555
Ca5 O55 2.311165 1_555
Ca5 O131 2.326929 1_555
Ca5 O129 2.374422 1_555
Ca5 O127 2.397978 1_555
O0 S0 1.491389 1_545
O0 Zr0 2.239415 1_445
O1 Si0 1.625335 1_545
O1 Zr1 1.997737 1_545
O2 Si1 1.625172 1_555
O2 Zr1 2.058418 1_555
O3 Si2 1.638531 1_555
O3 Zr0 2.000056 1_555
O4 S1 1.477604 1_555
O4 Zr1 2.296297 1_545
O5 Si3 1.633128 1_655
O5 Zr0 2.002769 1_545
O6 Si4 1.622039 1_555
O6 Zr2 2.006074 1_555
O7 S2 1.485019 1_555
O7 Zr3 2.177266 1_555
O8 Si5 1.634402 1_555
O8 Zr3 2.057679 1_565
O9 S3 1.461193 1_655
O9 Zr2 2.306078 1_665
O10 Si6 1.634026 1_545
O10 Zr3 1.988535 1_555
O11 Si7 1.624264 1_545
O11 Zr2 2.055197 1_655
O12 Si6 1.676676 1_555
O12 Zr5 1.972576 1_555
O13 Si7 1.656345 1_555
O13 Zr4 2.003427 1_565
O14 Si4 1.674065 1_555
O14 Zr4 2.017777 1_455
O15 S2 1.498773 1_555
O15 Zr5 2.198220 1_545
O16 S3 1.490516 1_555
O16 Zr4 2.382691 1_465
O17 Si5 1.686809 1_555
O17 Zr5 1.968621 1_555
O18 Si1 1.659604 1_555
O18 Zr7 1.975288 1_555
O19 Si2 1.676563 1_555
O19 Zr6 1.974239 1_565
O20 Si3 1.678465 1_555
O20 Zr6 1.970467 1_455
O21 S1 1.470032 1_555
O21 Zr7 2.416033 1_545
O22 S0 1.498539 1_555
O22 Zr6 2.212541 1_465
O23 Si0 1.657667 1_555
O23 Zr7 1.999031 1_555
O24 S4 1.469057 1_555
O25 Si8 1.616895 1_555
O26 Si9 1.597529 1_555
O27 S5 1.487865 1_555
O28 S6 1.470732 1_555
O29 S7 1.473437 1_555
O30 Si10 1.611675 1_555
O31 S8 1.468910 1_555
O32 S9 1.466750 1_555
O33 S10 1.473488 1_555
O34 S11 1.483745 1_555
O35 S12 1.474461 1_555
O36 S11 1.493081 1_555
O36 Zr8 2.278596 1_554
O37 S12 1.503461 1_555
O37 Zr9 2.210445 1_554
O38 Si10 1.671475 1_555
O38 Zr8 2.061161 1_554
O39 S8 1.511478 1_555
O39 Zr9 2.279674 1_554
O40 S9 1.517023 1_555
O40 Zr8 2.123392 1_554
O41 S10 1.493739 1_555
O41 Zr9 2.304927 1_554
O42 Si9 1.684381 1_555
O42 Zr10 2.061404 1_555
O43 S5 1.486308 1_555
O43 Zr11 2.308376 1_555
O44 S6 1.488443 1_555
O44 Zr10 2.297348 1_555
O45 S7 1.505768 1_555
O45 Zr11 2.193436 1_555
O46 S4 1.513403 1_555
O46 Zr10 2.270113 1_555
O47 Si8 1.647138 1_555
O47 Zr11 2.046793 1_555
O48 S13 1.418539 1_555
O49 Si11 1.619670 1_555
O49 Zr12 2.071928 1_556
O50 Si12 1.567850 1_555
O51 Si13 1.626507 1_555
O51 Zr12 1.977354 1_556
O52 Si14 1.590676 1_555
O53 Si15 1.616050 1_555
O53 Zr12 2.010848 1_556
O54 Si16 1.628894 1_555
O54 Zr13 2.036397 1_555
O55 S14 1.438428 1_555
O56 Si17 1.619732 1_555
O56 Zr13 2.085446 1_555
O57 Si18 1.589155 1_555
O58 Si19 1.648289 1_555
O58 Zr13 2.005579 1_555
O59 Si20 1.569643 1_555
O60 Si19 1.640000 1_555
O60 Zr14 2.086313 1_555
O61 Si20 1.681701 1_555
O61 Zr15 2.034470 1_555
O62 Si16 1.642017 1_555
O62 Zr14 2.047285 1_555
O63 S14 1.508548 1_555
O63 Zr15 2.211242 1_555
O64 Si17 1.654215 1_555
O64 Zr14 2.025067 1_555
O65 Si18 1.692962 1_555
O65 Zr15 2.019144 1_555
O66 Si12 1.677271 1_555
O66 Zr16 2.045195 1_555
O67 Si13 1.652654 1_555
O67 Zr17 2.107646 1_555
O68 Si14 1.692581 1_555
O68 Zr16 2.009028 1_555
O69 Si15 1.658235 1_555
O69 Zr17 2.041215 1_555
O70 S13 1.513478 1_555
O70 Zr16 2.217858 1_555
O71 Si11 1.642161 1_555
O71 Zr17 2.017727 1_555
O72 Si19 1.642906 1_555
O72 Zr0 2.104212 1_455
O73 Si20 1.646341 1_555
O73 Zr1 2.023090 1_555
O74 Si16 1.618552 1_555
O74 Zr1 2.169429 1_555
O75 S14 1.500961 1_555
O75 Zr0 2.144592 1_555
O76 Si17 1.631131 1_555
O76 Zr0 2.140624 1_445
O77 Si18 1.649231 1_555
O77 Zr1 2.047375 1_545
O78 Si12 1.640432 1_655
O78 Zr2 2.025583 1_655
O79 Si13 1.627332 1_555
O79 Zr3 2.055677 1_555
O80 Si14 1.649297 1_555
O80 Zr2 2.050007 1_565
O81 Si15 1.626733 1_555
O81 Zr3 2.124212 1_565
O82 S13 1.507311 1_555
O82 Zr3 2.191253 1_565
O83 Si11 1.635543 1_555
O83 Zr2 2.163181 1_665
O84 S4 1.511714 1_555
O84 Zr5 2.270953 1_545
O85 Si8 1.665605 1_555
O85 Zr4 2.033995 1_555
O86 Si9 1.672717 1_555
O86 Zr4 2.168188 1_455
O87 S5 1.522244 1_555
O87 Zr5 2.257533 1_545
O88 S6 1.502955 1_555
O88 Zr5 2.203020 1_555
O89 S7 1.514978 1_555
O89 Zr4 2.335238 1_565
O90 Si10 1.685361 1_555
O90 Zr7 2.000733 1_555
O91 S8 1.510652 1_555
O91 Zr6 2.279998 1_565
O92 S9 1.498071 1_555
O92 Zr7 2.293824 1_545
O93 S10 1.520044 1_555
O93 Zr6 2.182397 1_555
O94 S11 1.521090 1_555
O94 Zr6 2.259483 1_455
O95 S12 1.487127 1_555
O95 Zr7 2.399699 1_545
O96 Si6 1.607883 1_545
O97 Si7 1.645476 1_545
O98 Si4 1.609590 1_555
O99 S2 1.475686 1_555
O100 Si5 1.610116 1_555
O101 S3 1.480308 1_655
O102 Si1 1.642466 1_555
O103 Si2 1.612465 1_555
O104 S1 1.480337 1_555
O105 Si3 1.611116 1_655
O106 S0 1.472771 1_545
O107 Si0 1.613794 1_545
O108 S13 1.502301 1_555
O108 Zr8 2.342174 1_555
O109 Si11 1.656855 1_555
O109 Zr9 1.987792 1_555
O110 Si13 1.662053 1_555
O110 Zr8 2.048892 1_555
O111 Si12 1.690167 1_655
O111 Zr9 2.037301 1_555
O112 Si14 1.649455 1_545
O112 Zr8 2.059597 1_555
O113 Si15 1.648011 1_545
O113 Zr9 2.033310 1_555
O114 Si16 1.653843 1_545
O114 Zr10 2.028261 1_555
O115 S14 1.488997 1_545
O115 Zr11 2.253180 1_555
O116 Si17 1.665733 1_555
O116 Zr10 2.069240 1_555
O117 Si18 1.646059 1_555
O117 Zr11 2.052879 1_555
O118 Si20 1.675704 1_555
O118 Zr10 2.111692 1_555
O119 Si19 1.635874 1_655
O119 Zr11 2.018343 1_555
O120 S11 1.462367 1_555
O121 S12 1.480646 1_555
O121 Zr12 2.269971 1_555
O122 S8 1.464194 1_455
O123 Si10 1.648410 1_555
O123 Zr12 2.054649 1_555
O124 S9 1.464659 1_565
O125 S10 1.463504 1_565
O125 Zr12 2.363546 1_555
O126 Si9 1.648687 1_565
O126 Zr13 2.097787 1_555
O127 S5 1.463625 1_565
O128 S6 1.484219 1_555
O128 Zr13 2.362559 1_555
O129 S7 1.452098 1_555
O130 Si8 1.653817 1_455
O130 Zr13 2.111241 1_555
O131 S4 1.460866 1_555
O132 S0 1.482754 1_555
O132 Zr14 2.403805 1_555
O133 Si0 1.654985 1_555
O133 Zr15 2.163373 1_555
O134 Si1 1.647209 1_555
O134 Zr14 2.111446 1_555
O135 Si2 1.649095 1_555
O135 Zr15 2.157491 1_555
O136 Si3 1.643108 1_555
O136 Zr14 2.165879 1_555
O137 S1 1.527964 1_555
O137 Zr15 2.276198 1_555
O138 Si4 1.655163 1_555
O138 Zr16 2.155299 1_555
O139 S2 1.477084 1_555
O139 Zr17 2.395908 1_555
O140 S3 1.522404 1_555
O140 Zr16 2.284543 1_555
O141 Si5 1.644834 1_555
O141 Zr17 2.186713 1_555
O142 Si6 1.653592 1_555
O142 Zr16 2.159464 1_555
O143 Si7 1.646607 1_555
O143 Zr17 2.110128 1_555
